# Generated by pormake.
# Topology ptr, (4,4)-cn, num edge types: 1
# Building blocks:
#     Node 0, Type 0, BuildingBlock: KUFVIS_clean_sbu_0, # of connection points: 4
#     Node 1, Type 0, BuildingBlock: KUFVIS_clean_sbu_0, # of connection points: 4
#     Node 2, Type 0, BuildingBlock: KUFVIS_clean_sbu_0, # of connection points: 4
#     Node 3, Type 0, BuildingBlock: KUFVIS_clean_sbu_0, # of connection points: 4
#     Node 4, Type 0, BuildingBlock: KUFVIS_clean_sbu_0, # of connection points: 4
#     Node 5, Type 0, BuildingBlock: KUFVIS_clean_sbu_0, # of connection points: 4
#     Node 6, Type 0, BuildingBlock: KUFVIS_clean_sbu_0, # of connection points: 4
#     Node 7, Type 0, BuildingBlock: KUFVIS_clean_sbu_0, # of connection points: 4
#     Node 8, Type 0, BuildingBlock: KUFVIS_clean_sbu_0, # of connection points: 4
#     Node 9, Type 0, BuildingBlock: KUFVIS_clean_sbu_0, # of connection points: 4
#     Node 10, Type 0, BuildingBlock: KUFVIS_clean_sbu_0, # of connection points: 4
#     Node 11, Type 0, BuildingBlock: KUFVIS_clean_sbu_0, # of connection points: 4
#     Node 12, Type 0, BuildingBlock: KUFVIS_clean_sbu_0, # of connection points: 4
#     Node 13, Type 0, BuildingBlock: KUFVIS_clean_sbu_0, # of connection points: 4
#     Node 14, Type 0, BuildingBlock: KUFVIS_clean_sbu_0, # of connection points: 4
#     Node 15, Type 0, BuildingBlock: KUFVIS_clean_sbu_0, # of connection points: 4
#     Node 16, Type 0, BuildingBlock: KUFVIS_clean_sbu_0, # of connection points: 4
#     Node 17, Type 0, BuildingBlock: KUFVIS_clean_sbu_0, # of connection points: 4
#     Node 18, Type 1, BuildingBlock: NAWXER_clean_linker_0, # of connection points: 4
#     Node 19, Type 1, BuildingBlock: NAWXER_clean_linker_0, # of connection points: 4
#     Node 20, Type 1, BuildingBlock: NAWXER_clean_linker_0, # of connection points: 4
#     Node 21, Type 1, BuildingBlock: NAWXER_clean_linker_0, # of connection points: 4
#     Node 22, Type 1, BuildingBlock: NAWXER_clean_linker_0, # of connection points: 4
#     Node 23, Type 1, BuildingBlock: NAWXER_clean_linker_0, # of connection points: 4
#     Node 24, Type 1, BuildingBlock: NAWXER_clean_linker_0, # of connection points: 4
#     Node 25, Type 1, BuildingBlock: NAWXER_clean_linker_0, # of connection points: 4
#     Node 26, Type 1, BuildingBlock: NAWXER_clean_linker_0, # of connection points: 4
#     Node 27, Type 1, BuildingBlock: NAWXER_clean_linker_0, # of connection points: 4
#     Node 28, Type 1, BuildingBlock: NAWXER_clean_linker_0, # of connection points: 4
#     Node 29, Type 1, BuildingBlock: NAWXER_clean_linker_0, # of connection points: 4
#     Node 30, Type 1, BuildingBlock: NAWXER_clean_linker_0, # of connection points: 4
#     Node 31, Type 1, BuildingBlock: NAWXER_clean_linker_0, # of connection points: 4
#     Node 32, Type 1, BuildingBlock: NAWXER_clean_linker_0, # of connection points: 4
#     Node 33, Type 1, BuildingBlock: NAWXER_clean_linker_0, # of connection points: 4
#     Node 34, Type 1, BuildingBlock: NAWXER_clean_linker_0, # of connection points: 4
#     Node 35, Type 1, BuildingBlock: NAWXER_clean_linker_0, # of connection points: 4
#     Edge 36, Type (0, 1), BuildingBlock: EZIPEK_clean_linker_0, # of connection points: 2
#     Edge 37, Type (0, 1), BuildingBlock: EZIPEK_clean_linker_0, # of connection points: 2
#     Edge 38, Type (0, 1), BuildingBlock: EZIPEK_clean_linker_0, # of connection points: 2
#     Edge 39, Type (0, 1), BuildingBlock: EZIPEK_clean_linker_0, # of connection points: 2
#     Edge 40, Type (0, 1), BuildingBlock: EZIPEK_clean_linker_0, # of connection points: 2
#     Edge 41, Type (0, 1), BuildingBlock: EZIPEK_clean_linker_0, # of connection points: 2
#     Edge 42, Type (0, 1), BuildingBlock: EZIPEK_clean_linker_0, # of connection points: 2
#     Edge 43, Type (0, 1), BuildingBlock: EZIPEK_clean_linker_0, # of connection points: 2
#     Edge 44, Type (0, 1), BuildingBlock: EZIPEK_clean_linker_0, # of connection points: 2
#     Edge 45, Type (0, 1), BuildingBlock: EZIPEK_clean_linker_0, # of connection points: 2
#     Edge 46, Type (0, 1), BuildingBlock: EZIPEK_clean_linker_0, # of connection points: 2
#     Edge 47, Type (0, 1), BuildingBlock: EZIPEK_clean_linker_0, # of connection points: 2
#     Edge 48, Type (0, 1), BuildingBlock: EZIPEK_clean_linker_0, # of connection points: 2
#     Edge 49, Type (0, 1), BuildingBlock: EZIPEK_clean_linker_0, # of connection points: 2
#     Edge 50, Type (0, 1), BuildingBlock: EZIPEK_clean_linker_0, # of connection points: 2
#     Edge 51, Type (0, 1), BuildingBlock: EZIPEK_clean_linker_0, # of connection points: 2
#     Edge 52, Type (0, 1), BuildingBlock: EZIPEK_clean_linker_0, # of connection points: 2
#     Edge 53, Type (0, 1), BuildingBlock: EZIPEK_clean_linker_0, # of connection points: 2
#     Edge 54, Type (0, 1), BuildingBlock: EZIPEK_clean_linker_0, # of connection points: 2
#     Edge 55, Type (0, 1), BuildingBlock: EZIPEK_clean_linker_0, # of connection points: 2
#     Edge 56, Type (0, 1), BuildingBlock: EZIPEK_clean_linker_0, # of connection points: 2
#     Edge 57, Type (0, 1), BuildingBlock: EZIPEK_clean_linker_0, # of connection points: 2
#     Edge 58, Type (0, 1), BuildingBlock: EZIPEK_clean_linker_0, # of connection points: 2
#     Edge 59, Type (0, 1), BuildingBlock: EZIPEK_clean_linker_0, # of connection points: 2
#     Edge 60, Type (0, 1), BuildingBlock: EZIPEK_clean_linker_0, # of connection points: 2
#     Edge 61, Type (0, 1), BuildingBlock: EZIPEK_clean_linker_0, # of connection points: 2
#     Edge 62, Type (0, 1), BuildingBlock: EZIPEK_clean_linker_0, # of connection points: 2
#     Edge 63, Type (0, 1), BuildingBlock: EZIPEK_clean_linker_0, # of connection points: 2
#     Edge 64, Type (0, 1), BuildingBlock: EZIPEK_clean_linker_0, # of connection points: 2
#     Edge 65, Type (0, 1), BuildingBlock: EZIPEK_clean_linker_0, # of connection points: 2
#     Edge 66, Type (0, 1), BuildingBlock: EZIPEK_clean_linker_0, # of connection points: 2
#     Edge 67, Type (0, 1), BuildingBlock: EZIPEK_clean_linker_0, # of connection points: 2
#     Edge 68, Type (0, 1), BuildingBlock: EZIPEK_clean_linker_0, # of connection points: 2
#     Edge 69, Type (0, 1), BuildingBlock: EZIPEK_clean_linker_0, # of connection points: 2
#     Edge 70, Type (0, 1), BuildingBlock: EZIPEK_clean_linker_0, # of connection points: 2
#     Edge 71, Type (0, 1), BuildingBlock: EZIPEK_clean_linker_0, # of connection points: 2
#     Edge 72, Type (0, 1), BuildingBlock: EZIPEK_clean_linker_0, # of connection points: 2
#     Edge 73, Type (0, 1), BuildingBlock: EZIPEK_clean_linker_0, # of connection points: 2
#     Edge 74, Type (0, 1), BuildingBlock: EZIPEK_clean_linker_0, # of connection points: 2
#     Edge 75, Type (0, 1), BuildingBlock: EZIPEK_clean_linker_0, # of connection points: 2
#     Edge 76, Type (0, 1), BuildingBlock: EZIPEK_clean_linker_0, # of connection points: 2
#     Edge 77, Type (0, 1), BuildingBlock: EZIPEK_clean_linker_0, # of connection points: 2
#     Edge 78, Type (0, 1), BuildingBlock: EZIPEK_clean_linker_0, # of connection points: 2
#     Edge 79, Type (0, 1), BuildingBlock: EZIPEK_clean_linker_0, # of connection points: 2
#     Edge 80, Type (0, 1), BuildingBlock: EZIPEK_clean_linker_0, # of connection points: 2
#     Edge 81, Type (0, 1), BuildingBlock: EZIPEK_clean_linker_0, # of connection points: 2
#     Edge 82, Type (0, 1), BuildingBlock: EZIPEK_clean_linker_0, # of connection points: 2
#     Edge 83, Type (0, 1), BuildingBlock: EZIPEK_clean_linker_0, # of connection points: 2
#     Edge 84, Type (0, 1), BuildingBlock: EZIPEK_clean_linker_0, # of connection points: 2
#     Edge 85, Type (0, 1), BuildingBlock: EZIPEK_clean_linker_0, # of connection points: 2
#     Edge 86, Type (0, 1), BuildingBlock: EZIPEK_clean_linker_0, # of connection points: 2
#     Edge 87, Type (0, 1), BuildingBlock: EZIPEK_clean_linker_0, # of connection points: 2
#     Edge 88, Type (0, 1), BuildingBlock: EZIPEK_clean_linker_0, # of connection points: 2
#     Edge 89, Type (0, 1), BuildingBlock: EZIPEK_clean_linker_0, # of connection points: 2
#     Edge 90, Type (0, 1), BuildingBlock: EZIPEK_clean_linker_0, # of connection points: 2
#     Edge 91, Type (0, 1), BuildingBlock: EZIPEK_clean_linker_0, # of connection points: 2
#     Edge 92, Type (0, 1), BuildingBlock: EZIPEK_clean_linker_0, # of connection points: 2
#     Edge 93, Type (0, 1), BuildingBlock: EZIPEK_clean_linker_0, # of connection points: 2
#     Edge 94, Type (0, 1), BuildingBlock: EZIPEK_clean_linker_0, # of connection points: 2
#     Edge 95, Type (0, 1), BuildingBlock: EZIPEK_clean_linker_0, # of connection points: 2
#     Edge 96, Type (0, 1), BuildingBlock: EZIPEK_clean_linker_0, # of connection points: 2
#     Edge 97, Type (0, 1), BuildingBlock: EZIPEK_clean_linker_0, # of connection points: 2
#     Edge 98, Type (0, 1), BuildingBlock: EZIPEK_clean_linker_0, # of connection points: 2
#     Edge 99, Type (0, 1), BuildingBlock: EZIPEK_clean_linker_0, # of connection points: 2
#     Edge 100, Type (0, 1), BuildingBlock: EZIPEK_clean_linker_0, # of connection points: 2
#     Edge 101, Type (0, 1), BuildingBlock: EZIPEK_clean_linker_0, # of connection points: 2
#     Edge 102, Type (0, 1), BuildingBlock: EZIPEK_clean_linker_0, # of connection points: 2
#     Edge 103, Type (0, 1), BuildingBlock: EZIPEK_clean_linker_0, # of connection points: 2
#     Edge 104, Type (0, 1), BuildingBlock: EZIPEK_clean_linker_0, # of connection points: 2
#     Edge 105, Type (0, 1), BuildingBlock: EZIPEK_clean_linker_0, # of connection points: 2
#     Edge 106, Type (0, 1), BuildingBlock: EZIPEK_clean_linker_0, # of connection points: 2
#     Edge 107, Type (0, 1), BuildingBlock: EZIPEK_clean_linker_0, # of connection points: 2
# Relax obj value: 0.038
# Max RMSD: 0.168
# Mean RMSD: 0.065
data_MOF--net-ptr--node1-KUFVIS_clean_sbu_0--node2-NAWXER_clean_linker_0--edge1-EZIPEK_clean_linker_0
_symmetry_space_group_name_H-M    P1
_symmetry_Int_Tables_number       1
_symmetry_cell_setting            triclinic
loop_
_symmetry_equiv_pos_as_xyz
'x, y, z'
_cell_length_a     67.530634
_cell_length_b     67.140457
_cell_length_c     49.822565
_cell_angle_alpha  89.744486
_cell_angle_beta   90.703192
_cell_angle_gamma 119.42028
loop_
_atom_site_label
_atom_site_type_symbol
_atom_site_fract_x
_atom_site_fract_y
_atom_site_fract_z
_atom_type_partial_charge
Mn0 Mn 0.99836 0.34785 1.00127 0.0
Mn1 Mn 0.04734 0.39788 0.00428 0.0
C2 C 0.00426 0.37687 0.97145 0.0
C3 C 0.97798 0.31113 0.98352 0.0
C4 C 0.00887 0.38367 0.04427 0.0
O5 O 0.01889 0.3407 0.02506 0.0
O6 O 0.05217 0.37315 0.01957 0.0
C7 C 0.07394 0.3873 0.96578 0.0
N8 N 0.06513 0.40076 0.97347 0.0
C9 C 0.08073 0.42501 0.9349 0.0
C10 C 0.09007 0.41147 0.92662 0.0
C11 C 0.0866 0.3925 0.9421 0.0
C12 C 0.06814 0.41889 0.95857 0.0
H13 H 0.07122 0.37264 0.97755 0.0
C14 C 0.04034 0.35286 0.02887 0.0
O15 O 0.97185 0.31652 0.00574 0.0
O16 O 0.99673 0.32645 0.97283 0.0
N17 N 0.04529 0.4233 0.98991 0.0
C18 C 0.03554 0.43488 1.00096 0.0
C19 C 0.03777 0.45455 0.98819 0.0
C20 C 0.05024 0.46229 0.96441 0.0
C21 C 0.06054 0.45039 0.95374 0.0
C22 C 0.0579 0.431 0.96747 0.0
H23 H 0.02611 0.42917 0.01937 0.0
O24 O 0.98393 0.36024 0.97573 0.0
O25 O 0.02042 0.37584 0.98466 0.0
O26 O 0.99455 0.36508 0.03273 0.0
O27 O 0.0293 0.39631 0.03628 0.0
C28 C 0.07344 0.45707 0.93011 0.0
C29 C 0.08334 0.44426 0.92054 0.0
H30 H 0.09986 0.41544 0.90839 0.0
H31 H 0.09366 0.3819 0.93578 0.0
H32 H 0.02985 0.46371 0.99664 0.0
H33 H 0.0518 0.47739 0.95453 0.0
H34 H 0.07582 0.47203 0.91911 0.0
H35 H 0.09303 0.44944 0.90218 0.0
Mn36 Mn 0.64593 0.65322 0.0132 0.0
Mn37 Mn 0.6388 0.60099 0.99903 0.0
C38 C 0.62194 0.62197 0.03955 0.0
C39 C 0.66493 0.68829 0.03539 0.0
C40 C 0.61721 0.62391 0.96619 0.0
O41 O 0.6726 0.66013 0.98839 0.0
O42 O 0.6686 0.62483 0.98508 0.0
C43 C 0.67561 0.60245 0.0333 0.0
N44 N 0.65319 0.59221 0.0262 0.0
C45 C 0.64372 0.56243 0.0588 0.0
C46 C 0.66671 0.57259 0.06639 0.0
C47 C 0.68271 0.59275 0.05366 0.0
C48 C 0.63762 0.57302 0.0386 0.0
H49 H 0.68796 0.61795 0.02356 0.0
C50 C 0.67941 0.64638 0.98053 0.0
O51 O 0.65321 0.68575 0.01361 0.0
O52 O 0.66691 0.67092 0.0434 0.0
N53 N 0.61087 0.57624 0.01176 0.0
C54 C 0.58934 0.56864 0.0022 0.0
C55 C 0.5713 0.54865 0.01291 0.0
C56 C 0.57563 0.53646 0.03295 0.0
C57 C 0.59798 0.54436 0.04208 0.0
C58 C 0.61525 0.56443 0.03076 0.0
H59 H 0.58592 0.57776 0.98657 0.0
O60 O 0.62009 0.6403 0.03921 0.0
O61 O 0.63776 0.62257 0.02441 0.0
O62 O 0.62393 0.64147 0.98113 0.0
O63 O 0.62277 0.60844 0.97017 0.0
C64 C 0.60383 0.533 0.06181 0.0
C65 C 0.62663 0.54219 0.07044 0.0
H66 H 0.67227 0.5651 0.082 0.0
H67 H 0.70047 0.60076 0.05948 0.0
H68 H 0.55411 0.54263 0.00568 0.0
H69 H 0.56167 0.52106 0.04116 0.0
H70 H 0.59092 0.51715 0.07047 0.0
H71 H 0.63085 0.53346 0.08592 0.0
Mn72 Mn 0.3427 0.99127 0.01613 0.0
Mn73 Mn 0.39372 0.03928 0.01235 0.0
C74 C 0.37202 0.99651 0.04547 0.0
C75 C 0.30613 0.97071 0.03322 0.0
C76 C 0.37741 0.99977 0.97265 0.0
O77 O 0.33575 0.01278 0.99367 0.0
O78 O 0.36989 0.04488 0.99615 0.0
C79 C 0.3846 0.0681 0.04939 0.0
N80 N 0.39748 0.05851 0.04234 0.0
C81 C 0.42308 0.07638 0.07962 0.0
C82 C 0.41019 0.08659 0.0872 0.0
C83 C 0.39079 0.08232 0.0721 0.0
C84 C 0.4159 0.06212 0.05703 0.0
H85 H 0.3697 0.0649 0.0378 0.0
C86 C 0.34903 0.03395 0.98862 0.0
O87 O 0.31142 0.9653 0.0105 0.0
O88 O 0.32158 0.98908 0.04507 0.0
N89 N 0.4186 0.03682 0.02749 0.0
C90 C 0.42923 0.02574 0.01743 0.0
C91 C 0.44885 0.02806 0.03035 0.0
C92 C 0.45767 0.0422 0.05304 0.0
C93 C 0.44679 0.05391 0.06262 0.0
C94 C 0.42723 0.05083 0.04901 0.0
H95 H 0.42276 0.01515 0.99972 0.0
O96 O 0.35504 0.97624 0.04091 0.0
O97 O 0.37127 0.01308 0.03274 0.0
O98 O 0.35859 0.98665 0.98397 0.0
O99 O 0.39137 0.01998 0.98097 0.0
C100 C 0.45471 0.06871 0.08498 0.0
C101 C 0.44274 0.07976 0.09363 0.0
H102 H 0.41498 0.09766 0.10462 0.0
H103 H 0.38068 0.09003 0.07789 0.0
H104 H 0.45725 0.01909 0.02271 0.0
H105 H 0.47291 0.04406 0.06281 0.0
H106 H 0.46996 0.07171 0.09573 0.0
H107 H 0.44882 0.09084 0.11106 0.0
Mn108 Mn 1.00029 0.65033 0.99659 0.0
Mn109 Mn 0.05206 0.65421 0.00278 0.0
C110 C 0.00886 0.62674 0.97109 0.0
C111 C 0.97644 0.66225 0.9769 0.0
C112 C 0.0143 0.62945 0.043 0.0
O113 O 0.01869 0.68058 0.01612 0.0
O114 O 0.05292 0.68231 0.01765 0.0
C115 C 0.07645 0.69195 0.96412 0.0
N116 N 0.06934 0.67005 0.97193 0.0
C117 C 0.0861 0.66324 0.93312 0.0
C118 C 0.09336 0.68567 0.92455 0.0
C119 C 0.08855 0.70011 0.94016 0.0
C120 C 0.07394 0.65604 0.95707 0.0
H121 H 0.07296 0.70308 0.97614 0.0
C122 C 0.03969 0.69047 0.02264 0.0
O123 O 0.97202 0.65241 1.00023 0.0
O124 O 0.99499 0.66577 0.96533 0.0
N125 N 0.05414 0.62858 0.98953 0.0
C126 C 0.04805 0.60832 0.00206 0.0
C127 C 0.05295 0.59239 0.99001 0.0
C128 C 0.06431 0.59756 0.96538 0.0
C129 C 0.07121 0.61887 0.9534 0.0
C130 C 0.06622 0.63421 0.96663 0.0
H131 H 0.03945 0.60429 0.02108 0.0
O132 O 0.98793 0.62154 0.97503 0.0
O133 O 0.02423 0.6458 0.98197 0.0
O134 O 0.99965 0.63342 0.03129 0.0
O135 O 0.03448 0.63672 0.03435 0.0
C136 C 0.08319 0.62564 0.92911 0.0
C137 C 0.0905 0.64777 0.91888 0.0
H138 H 0.10276 0.69204 0.90611 0.0
H139 H 0.09421 0.71749 0.93378 0.0
H140 H 0.04787 0.57612 0.9996 0.0
H141 H 0.06785 0.58514 0.956 0.0
H142 H 0.08704 0.61404 0.91826 0.0
H143 H 0.09978 0.65282 0.90023 0.0
Mn144 Mn 0.34078 0.35319 0.01711 0.0
Mn145 Mn 0.38819 0.34884 0.0086 0.0
C146 C 0.37289 0.37495 0.04333 0.0
C147 C 0.30588 0.34154 0.03756 0.0
C148 C 0.37491 0.37635 0.97156 0.0
O149 O 0.32868 0.32351 0.99604 0.0
O150 O 0.36119 0.32202 0.99207 0.0
C151 C 0.37531 0.30851 0.04339 0.0
N152 N 0.38999 0.33074 0.03729 0.0
C153 C 0.4146 0.33404 0.07439 0.0
C154 C 0.39965 0.31121 0.08114 0.0
C155 C 0.37991 0.2984 0.06558 0.0
C156 C 0.40898 0.34325 0.05222 0.0
H157 H 0.36026 0.29857 0.03137 0.0
C158 C 0.3398 0.3139 0.98805 0.0
O159 O 0.3107 0.35197 0.01457 0.0
O160 O 0.3209 0.33703 0.04806 0.0
N161 N 0.41563 0.37326 0.0235 0.0
C162 C 0.4289 0.39467 0.01346 0.0
C163 C 0.44954 0.40957 0.02638 0.0
C164 C 0.45661 0.40214 0.04907 0.0
C165 C 0.44309 0.37976 0.05845 0.0
C166 C 0.42271 0.36567 0.04471 0.0
H167 H 0.42373 0.40042 0.99582 0.0
O168 O 0.35745 0.38095 0.04018 0.0
O169 O 0.36908 0.3563 0.03106 0.0
O170 O 0.35634 0.37161 0.98319 0.0
O171 O 0.38793 0.36854 0.97916 0.0
C172 C 0.44915 0.37082 0.08073 0.0
C173 C 0.43486 0.348 0.08877 0.0
H174 H 0.4032 0.30333 0.09818 0.0
H175 H 0.36831 0.28075 0.07061 0.0
H176 H 0.46 0.42673 0.01881 0.0
H177 H 0.47258 0.41367 0.05889 0.0
H178 H 0.46475 0.38134 0.09184 0.0
H179 H 0.43964 0.34135 0.10601 0.0
Mn180 Mn 0.65528 0.00855 0.00644 0.0
Mn181 Mn 0.6076 0.9569 0.00459 0.0
C182 C 0.62589 0.00212 0.97695 0.0
C183 C 0.69227 0.03335 0.99228 0.0
C184 C 0.6166 0.99224 0.0475 0.0
O185 O 0.66537 0.98843 0.02594 0.0
O186 O 0.63271 0.95478 0.02361 0.0
C187 C 0.62517 0.93465 0.96806 0.0
N188 N 0.60928 0.94081 0.97392 0.0
C189 C 0.58819 0.92323 0.93343 0.0
C190 C 0.60434 0.91669 0.92696 0.0
C191 C 0.62295 0.9225 0.94431 0.0
C192 C 0.59153 0.93566 0.95714 0.0
H193 H 0.6394 0.93894 0.98142 0.0
C194 C 0.65355 0.96715 0.03081 0.0
O195 O 0.68491 0.03615 0.01514 0.0
O196 O 0.67831 0.01588 0.97791 0.0
N197 N 0.58163 0.95565 0.98717 0.0
C198 C 0.56698 0.9622 0.99708 0.0
C199 C 0.54694 0.95683 0.9828 0.0
C200 C 0.54188 0.9443 0.95883 0.0
C201 C 0.55703 0.93744 0.94918 0.0
C202 C 0.57666 0.94315 0.96441 0.0
H203 H 0.57044 0.97132 0.01588 0.0
O204 O 0.64087 0.02277 0.9839 0.0
O205 O 0.62865 0.98581 0.9873 0.0
O206 O 0.63634 0.00703 0.03938 0.0
O207 O 0.60438 0.97306 0.03573 0.0
C208 C 0.55319 0.92476 0.92536 0.0
C209 C 0.56887 0.91784 0.91736 0.0
H210 H 0.60259 0.90717 0.90876 0.0
H211 H 0.63549 0.91752 0.93945 0.0
H212 H 0.53524 0.96202 0.99048 0.0
H213 H 0.52607 0.93965 0.94832 0.0
H214 H 0.53825 0.92025 0.91303 0.0
H215 H 0.56582 0.90822 0.89893 0.0
Mn216 Mn 0.66186 0.68081 0.33282 0.0
Mn217 Mn 0.71374 0.72767 0.33863 0.0
C218 C 0.67137 0.71233 0.30597 0.0
C219 C 0.63779 0.64556 0.31316 0.0
C220 C 0.67564 0.71718 0.37722 0.0
O221 O 0.67948 0.66839 0.35333 0.0
O222 O 0.71322 0.70088 0.35686 0.0
C223 C 0.73801 0.71083 0.30444 0.0
N224 N 0.73183 0.72686 0.30987 0.0
C225 C 0.75206 0.74918 0.2715 0.0
C226 C 0.75861 0.73288 0.26549 0.0
C227 C 0.75151 0.71359 0.28201 0.0
C228 C 0.73837 0.74535 0.29393 0.0
H229 H 0.7327 0.69606 0.31714 0.0
C230 C 0.70005 0.67955 0.36136 0.0
O231 O 0.63302 0.65109 0.33619 0.0
O232 O 0.65678 0.66002 0.30217 0.0
N233 N 0.7172 0.75499 0.32219 0.0
C234 C 0.7104 0.76968 0.33158 0.0
C235 C 0.71658 0.79014 0.31777 0.0
C236 C 0.73014 0.79555 0.29485 0.0
C237 C 0.73752 0.78051 0.28603 0.0
C238 C 0.7309 0.76041 0.30069 0.0
H239 H 0.70029 0.76582 0.34946 0.0
O240 O 0.65026 0.69754 0.31022 0.0
O241 O 0.68638 0.70826 0.31757 0.0
O242 O 0.66135 0.69787 0.36694 0.0
O243 O 0.6955 0.72986 0.3678 0.0
C244 C 0.75142 0.7848 0.26347 0.0
C245 C 0.75858 0.76907 0.25612 0.0
H246 H 0.76911 0.735 0.24827 0.0
H247 H 0.7565 0.70093 0.27751 0.0
H248 H 0.71102 0.80178 0.32488 0.0
H249 H 0.73507 0.81148 0.28447 0.0
H250 H 0.75669 0.80012 0.25162 0.0
H251 H 0.76916 0.77249 0.23865 0.0
Mn252 Mn 0.31444 0.98677 0.35469 0.0
Mn253 Mn 0.31537 0.93704 0.34954 0.0
C254 C 0.29093 0.95591 0.38129 0.0
C255 C 0.3276 0.0226 0.37424 0.0
C256 C 0.28981 0.95088 0.31026 0.0
O257 O 0.34387 0.99671 0.33477 0.0
O258 O 0.34234 0.96249 0.33151 0.0
C259 C 0.35586 0.95047 0.38437 0.0
N260 N 0.3334 0.93623 0.37899 0.0
C261 C 0.32933 0.91474 0.41934 0.0
C262 C 0.35237 0.92932 0.4254 0.0
C263 C 0.3657 0.94724 0.40779 0.0
C264 C 0.32044 0.9189 0.39578 0.0
H265 H 0.36617 0.96414 0.37085 0.0
C266 C 0.35182 0.98404 0.32695 0.0
O267 O 0.31751 0.01779 0.3509 0.0
O268 O 0.331 0.0071 0.38553 0.0
N269 N 0.29073 0.91092 0.3659 0.0
C270 C 0.26948 0.89702 0.35571 0.0
C271 C 0.25429 0.87751 0.37009 0.0
C272 C 0.26118 0.87231 0.39462 0.0
C273 C 0.28344 0.88631 0.40411 0.0
C274 C 0.29793 0.90531 0.38865 0.0
H275 H 0.26411 0.90088 0.33681 0.0
O276 O 0.28635 0.97222 0.3767 0.0
O277 O 0.30928 0.95814 0.37019 0.0
O278 O 0.29627 0.97063 0.32044 0.0
O279 O 0.29568 0.93675 0.31968 0.0
C280 C 0.29194 0.88193 0.42804 0.0
C281 C 0.31484 0.89621 0.43574 0.0
H282 H 0.36004 0.92685 0.44342 0.0
H283 H 0.38353 0.95852 0.41225 0.0
H284 H 0.23725 0.86659 0.3624 0.0
H285 H 0.24934 0.85739 0.40581 0.0
H286 H 0.28107 0.8675 0.44056 0.0
H287 H 0.32122 0.89263 0.45413 0.0
Mn288 Mn 0.00876 0.32597 0.35269 0.0
Mn289 Mn 0.06151 0.36753 0.33651 0.0
C290 C 0.03941 0.33318 0.38055 0.0
C291 C 0.97436 0.31313 0.37449 0.0
C292 C 0.03666 0.32167 0.30774 0.0
O293 O 0.00275 0.34539 0.32562 0.0
O294 O 0.03864 0.37442 0.31984 0.0
C295 C 0.06354 0.40741 0.36423 0.0
N296 N 0.07205 0.393 0.36041 0.0
C297 C 0.10347 0.41487 0.39053 0.0
C298 C 0.09505 0.42998 0.39476 0.0
C299 C 0.07494 0.42615 0.38166 0.0
C300 C 0.09127 0.39638 0.37312 0.0
H301 H 0.04818 0.40464 0.35403 0.0
C302 C 0.01708 0.36489 0.31608 0.0
O303 O 0.97614 0.30232 0.35398 0.0
O304 O 0.9921 0.33231 0.38124 0.0
N305 N 0.08508 0.36298 0.35191 0.0
C306 C 0.09044 0.34634 0.34644 0.0
C307 C 0.10957 0.34708 0.35885 0.0
C308 C 0.1232 0.36512 0.3764 0.0
C309 C 0.11749 0.38219 0.38149 0.0
C310 C 0.09813 0.38045 0.36868 0.0
H311 H 0.0802 0.33259 0.33274 0.0
O312 O 0.02092 0.31351 0.38099 0.0
O313 O 0.03953 0.34785 0.36333 0.0
O314 O 0.01922 0.31255 0.32263 0.0
O315 O 0.0528 0.34217 0.31067 0.0
C316 C 0.13022 0.40083 0.39882 0.0
C317 C 0.12328 0.41723 0.40323 0.0
H318 H 0.10381 0.44446 0.40817 0.0
H319 H 0.0683 0.43769 0.38489 0.0
H320 H 0.11388 0.33385 0.35479 0.0
H321 H 0.13803 0.36572 0.38578 0.0
H322 H 0.14526 0.40261 0.40904 0.0
H323 H 0.13306 0.43135 0.41681 0.0
Mn324 Mn 0.66933 0.98633 0.33288 0.0
Mn325 Mn 0.72149 0.99133 0.33578 0.0
C326 C 0.67753 0.96355 0.30563 0.0
C327 C 0.64468 0.99796 0.31485 0.0
C328 C 0.68591 0.96796 0.37919 0.0
O329 O 0.68823 0.01633 0.35299 0.0
O330 O 0.72323 0.02001 0.34967 0.0
C331 C 0.74443 0.02741 0.2949 0.0
N332 N 0.73775 0.00589 0.30392 0.0
C333 C 0.75477 0.99808 0.26614 0.0
C334 C 0.76177 0.02016 0.25642 0.0
C335 C 0.75653 0.03487 0.27085 0.0
C336 C 0.74259 0.99155 0.29011 0.0
H337 H 0.74056 0.03876 0.30601 0.0
C338 C 0.70969 0.0272 0.35705 0.0
O339 O 0.64088 0.98792 0.33805 0.0
O340 O 0.6632 0.00213 0.30274 0.0
N341 N 0.72243 0.96491 0.32322 0.0
C342 C 0.71468 0.94427 0.3355 0.0
C343 C 0.71854 0.92755 0.32367 0.0
C344 C 0.73069 0.93237 0.29962 0.0
C345 C 0.73904 0.95395 0.28774 0.0
C346 C 0.73467 0.96993 0.30047 0.0
H347 H 0.7055 0.94052 0.35411 0.0
O348 O 0.65663 0.95794 0.3106 0.0
O349 O 0.69298 0.98254 0.31654 0.0
O350 O 0.66975 0.96884 0.36664 0.0
O351 O 0.70559 0.97564 0.36893 0.0
C352 C 0.75157 0.96028 0.26381 0.0
C353 C 0.75933 0.98228 0.25294 0.0
H354 H 0.77115 0.02598 0.2379 0.0
H355 H 0.76188 0.05194 0.26349 0.0
H356 H 0.71218 0.91099 0.33308 0.0
H357 H 0.73358 0.91941 0.29054 0.0
H358 H 0.75532 0.94835 0.25356 0.0
H359 H 0.76876 0.98686 0.2344 0.0
Mn360 Mn 0.01281 0.68509 0.3539 0.0
Mn361 Mn 0.0623 0.68421 0.34901 0.0
C362 C 0.04384 0.70945 0.38023 0.0
C363 C 0.97747 0.6718 0.37369 0.0
C364 C 0.04676 0.7075 0.30817 0.0
O365 O 0.00305 0.65515 0.33436 0.0
O366 O 0.0366 0.65535 0.33388 0.0
C367 C 0.0523 0.64684 0.38761 0.0
N368 N 0.06543 0.669 0.38001 0.0
C369 C 0.08945 0.67706 0.41917 0.0
C370 C 0.07598 0.65437 0.42754 0.0
C371 C 0.05735 0.63918 0.41165 0.0
C372 C 0.08347 0.68373 0.3951 0.0
H373 H 0.03818 0.63513 0.37536 0.0
C374 C 0.01527 0.6462 0.32839 0.0
O375 O 0.98173 0.68146 0.35023 0.0
O376 O 0.99324 0.66888 0.38498 0.0
N377 N 0.0885 0.71083 0.36274 0.0
C378 C 0.10081 0.7316 0.35076 0.0
C379 C 0.12072 0.74847 0.36333 0.0
C380 C 0.12793 0.74373 0.38791 0.0
C381 C 0.11539 0.72201 0.39943 0.0
C382 C 0.09588 0.70578 0.38575 0.0
H383 H 0.09544 0.73534 0.33179 0.0
O384 O 0.02742 0.71381 0.37565 0.0
O385 O 0.04161 0.69093 0.36916 0.0
O386 O 0.02801 0.70268 0.31942 0.0
O387 O 0.06054 0.70107 0.31724 0.0
C388 C 0.12164 0.71573 0.42377 0.0
C389 C 0.10859 0.69331 0.43373 0.0
H390 H 0.07986 0.64839 0.44604 0.0
H391 H 0.04694 0.62159 0.41787 0.0
H392 H 0.13042 0.76512 0.35416 0.0
H393 H 0.14318 0.75685 0.39768 0.0
H394 H 0.13652 0.72798 0.43491 0.0
H395 H 0.11357 0.68868 0.45245 0.0
Mn396 Mn 0.32283 0.34348 0.33877 0.0
Mn397 Mn 0.27376 0.29512 0.35241 0.0
C398 C 0.29067 0.33345 0.3126 0.0
C399 C 0.35726 0.36278 0.3164 0.0
C400 C 0.2912 0.33863 0.38511 0.0
O401 O 0.3337 0.32587 0.36221 0.0
O402 O 0.30019 0.29361 0.36877 0.0
C403 C 0.28082 0.26138 0.32198 0.0
N404 N 0.26836 0.2719 0.32668 0.0
C405 C 0.23941 0.24728 0.29516 0.0
C406 C 0.25206 0.23632 0.28982 0.0
C407 C 0.27289 0.24346 0.30323 0.0
C408 C 0.24835 0.26525 0.31376 0.0
H409 H 0.29655 0.26646 0.33266 0.0
C410 C 0.32183 0.30583 0.3718 0.0
O411 O 0.35376 0.37087 0.33835 0.0
O412 O 0.34127 0.34303 0.30814 0.0
N413 N 0.24706 0.29429 0.3376 0.0
C414 C 0.23715 0.30694 0.34459 0.0
C415 C 0.21658 0.30251 0.33224 0.0
C416 C 0.20614 0.28479 0.31331 0.0
C417 C 0.21638 0.27165 0.3069 0.0
C418 C 0.23706 0.27709 0.31955 0.0
H419 H 0.24497 0.32045 0.35932 0.0
O420 O 0.30699 0.35447 0.31381 0.0
O421 O 0.29351 0.31882 0.32707 0.0
O422 O 0.30933 0.35064 0.37185 0.0
O423 O 0.27708 0.3178 0.3796 0.0
C424 C 0.2069 0.25341 0.2884 0.0
C425 C 0.21835 0.24115 0.28264 0.0
H426 H 0.24593 0.2224 0.27548 0.0
H427 H 0.28271 0.23503 0.29932 0.0
H428 H 0.20875 0.31268 0.33738 0.0
H429 H 0.19023 0.28137 0.30389 0.0
H430 H 0.1909 0.24878 0.27834 0.0
H431 H 0.21099 0.22728 0.26821 0.0
Mn432 Mn 0.32796 0.01699 0.6752 0.0
Mn433 Mn 0.38022 0.06342 0.67499 0.0
C434 C 0.33525 0.04711 0.64683 0.0
C435 C 0.30294 0.98047 0.65913 0.0
C436 C 0.34621 0.05276 0.72002 0.0
O437 O 0.34752 0.00616 0.69484 0.0
O438 O 0.3824 0.03669 0.68892 0.0
C439 C 0.40159 0.04924 0.63321 0.0
N440 N 0.39534 0.06438 0.64243 0.0
C441 C 0.4119 0.08888 0.60426 0.0
C442 C 0.41846 0.07351 0.59432 0.0
C443 C 0.41321 0.05356 0.60883 0.0
C444 C 0.4001 0.0835 0.62849 0.0
H445 H 0.39777 0.03406 0.64441 0.0
C446 C 0.36911 0.01639 0.69738 0.0
O447 O 0.29993 0.98733 0.6823 0.0
O448 O 0.32089 0.99444 0.64591 0.0
N449 N 0.3808 0.09061 0.66217 0.0
C450 C 0.37361 0.10386 0.67473 0.0
C451 C 0.37753 0.12447 0.66285 0.0
C452 C 0.38926 0.1315 0.63851 0.0
C453 C 0.39707 0.1179 0.62633 0.0
C454 C 0.39259 0.0975 0.63907 0.0
H455 H 0.36486 0.09871 0.69363 0.0
O456 O 0.3145 0.03223 0.65284 0.0
O457 O 0.35102 0.04366 0.65736 0.0
O458 O 0.32952 0.03577 0.70841 0.0
O459 O 0.36557 0.06401 0.70888 0.0
C460 C 0.40929 0.12387 0.60216 0.0
C461 C 0.41658 0.10931 0.59106 0.0
H462 H 0.42752 0.07684 0.57559 0.0
H463 H 0.41821 0.0416 0.60131 0.0
H464 H 0.37162 0.13497 0.67251 0.0
H465 H 0.39234 0.14746 0.62949 0.0
H466 H 0.41318 0.13961 0.59192 0.0
H467 H 0.42576 0.11397 0.57234 0.0
Mn468 Mn 0.98273 0.31442 0.68321 0.0
Mn469 Mn 0.98927 0.26796 0.68943 0.0
C470 C 0.96161 0.2867 0.71488 0.0
C471 C 0.99386 0.35243 0.69409 0.0
C472 C 0.96362 0.27512 0.64293 0.0
O473 O 0.01162 0.32259 0.66184 0.0
O474 O 0.01735 0.29341 0.67408 0.0
C475 C 0.02516 0.28497 0.73151 0.0
N476 N 0.00414 0.26899 0.72265 0.0
C477 C 0.99781 0.2465 0.76261 0.0
C478 C 0.01945 0.26266 0.77213 0.0
C479 C 0.03313 0.28204 0.75657 0.0
C480 C 0.99069 0.25051 0.73766 0.0
H481 H 0.03572 0.29984 0.71953 0.0
C482 C 0.02316 0.3121 0.66146 0.0
O483 O 0.98293 0.34308 0.67199 0.0
O484 O 0.99948 0.3402 0.70928 0.0
N485 N 0.96353 0.24169 0.70388 0.0
C486 C 0.94303 0.22788 0.69191 0.0
C487 C 0.9274 0.20758 0.70464 0.0
C488 C 0.93312 0.20153 0.72936 0.0
C489 C 0.95435 0.21595 0.74128 0.0
C490 C 0.9693 0.23586 0.72753 0.0
H491 H 0.93856 0.23236 0.67287 0.0
O492 O 0.95568 0.30155 0.70732 0.0
O493 O 0.98021 0.28912 0.7044 0.0
O494 O 0.96376 0.29273 0.65276 0.0
O495 O 0.97333 0.26526 0.65477 0.0
C496 C 0.96135 0.21128 0.76617 0.0
C497 C 0.98299 0.22664 0.77693 0.0
H498 H 0.02569 0.2604 0.7914 0.0
H499 H 0.0498 0.29463 0.76383 0.0
H500 H 0.91103 0.19657 0.69533 0.0
H501 H 0.92111 0.18568 0.73888 0.0
H502 H 0.95017 0.19603 0.77731 0.0
H503 H 0.98806 0.22303 0.79624 0.0
Mn504 Mn 0.67648 0.66279 0.68493 0.0
Mn505 Mn 0.72446 0.714 0.68128 0.0
C506 C 0.7073 0.67056 0.7125 0.0
C507 C 0.64088 0.63949 0.70344 0.0
C508 C 0.71284 0.6759 0.64136 0.0
O509 O 0.66549 0.68181 0.66466 0.0
O510 O 0.69858 0.71504 0.6627 0.0
C511 C 0.7089 0.73909 0.71615 0.0
N512 N 0.72424 0.73211 0.71067 0.0
C513 C 0.74626 0.75085 0.75024 0.0
C514 C 0.73067 0.75821 0.75632 0.0
C515 C 0.71189 0.75227 0.73921 0.0
C516 C 0.74227 0.73756 0.72712 0.0
H517 H 0.69451 0.73464 0.70303 0.0
C518 C 0.67732 0.70256 0.65741 0.0
O519 O 0.64625 0.63463 0.68037 0.0
O520 O 0.65574 0.65819 0.71513 0.0
N521 N 0.75103 0.71607 0.69805 0.0
C522 C 0.76523 0.70883 0.68838 0.0
C523 C 0.78529 0.71406 0.70257 0.0
C524 C 0.79082 0.72712 0.72619 0.0
C525 C 0.77631 0.73497 0.73533 0.0
C526 C 0.75664 0.72937 0.7202 0.0
H527 H 0.76127 0.69911 0.66999 0.0
O528 O 0.69186 0.64966 0.70749 0.0
O529 O 0.70424 0.6864 0.70127 0.0
O530 O 0.69337 0.66192 0.65102 0.0
O531 O 0.72596 0.69561 0.65152 0.0
C532 C 0.78073 0.74838 0.75863 0.0
C533 C 0.76562 0.75616 0.7662 0.0
H534 H 0.73296 0.76845 0.77404 0.0
H535 H 0.69977 0.75789 0.74376 0.0
H536 H 0.79653 0.70816 0.69522 0.0
H537 H 0.80647 0.73134 0.73684 0.0
H538 H 0.79571 0.75284 0.77087 0.0
H539 H 0.76914 0.76639 0.78422 0.0
Mn540 Mn 0.32372 0.31479 0.67419 0.0
Mn541 Mn 0.3687 0.30737 0.68774 0.0
C542 C 0.33106 0.2913 0.64676 0.0
C543 C 0.30775 0.33458 0.6528 0.0
C544 C 0.32494 0.28522 0.71996 0.0
O545 O 0.34305 0.34088 0.70031 0.0
O546 O 0.37441 0.33704 0.70282 0.0
C547 C 0.40309 0.34494 0.65474 0.0
N548 N 0.39142 0.32231 0.66109 0.0
C549 C 0.41191 0.31344 0.62849 0.0
C550 C 0.42426 0.33666 0.6217 0.0
C551 C 0.41972 0.35246 0.63478 0.0
C552 C 0.39532 0.30691 0.64827 0.0
H553 H 0.3997 0.35715 0.6648 0.0
C554 C 0.3635 0.34762 0.70816 0.0
O555 O 0.29856 0.32212 0.67387 0.0
O556 O 0.32707 0.33683 0.64527 0.0
N557 N 0.36576 0.27951 0.67381 0.0
C558 C 0.352 0.25767 0.68224 0.0
C559 C 0.35404 0.23972 0.67072 0.0
C560 C 0.37056 0.24446 0.65111 0.0
C561 C 0.38487 0.26713 0.64319 0.0
C562 C 0.38188 0.28427 0.65517 0.0
H563 H 0.33949 0.25395 0.69756 0.0
O564 O 0.31104 0.28949 0.64695 0.0
O565 O 0.3461 0.30687 0.66253 0.0
O566 O 0.31383 0.29193 0.70517 0.0
O567 O 0.34576 0.2909 0.71609 0.0
C568 C 0.4021 0.27342 0.62402 0.0
C569 C 0.4154 0.29651 0.6164 0.0
H570 H 0.43719 0.34254 0.60641 0.0
H571 H 0.4291 0.3704 0.62957 0.0
H572 H 0.343 0.22228 0.67703 0.0
H573 H 0.37212 0.23058 0.64231 0.0
H574 H 0.40528 0.26065 0.61498 0.0
H575 H 0.42831 0.30106 0.60128 0.0
Mn576 Mn 0.68227 0.02022 0.68519 0.0
Mn577 Mn 0.72978 0.01589 0.67878 0.0
C578 C 0.71373 0.04201 0.71222 0.0
C579 C 0.64716 0.0084 0.70469 0.0
C580 C 0.71738 0.04329 0.64052 0.0
O581 O 0.67054 0.99064 0.6643 0.0
O582 O 0.70323 0.98943 0.66094 0.0
C583 C 0.71548 0.975 0.713 0.0
N584 N 0.73042 0.99732 0.70764 0.0
C585 C 0.75328 1.0001 0.7464 0.0
C586 C 0.73804 0.97718 0.75241 0.0
C587 C 0.71905 0.96458 0.73563 0.0
C588 C 0.74872 0.00961 0.72369 0.0
H589 H 0.701 0.96523 0.70007 0.0
C590 C 0.68189 0.9813 0.65635 0.0
O591 O 0.65222 0.01899 0.6818 0.0
O592 O 0.66205 0.00401 0.71574 0.0
N593 N 0.75672 0.04 0.69499 0.0
C594 C 0.77041 0.06155 0.68561 0.0
C595 C 0.79038 0.07631 0.69982 0.0
C596 C 0.79635 0.06859 0.72316 0.0
C597 C 0.78245 0.04606 0.73185 0.0
C598 C 0.76279 0.03213 0.71682 0.0
H599 H 0.76603 0.06753 0.66754 0.0
O600 O 0.69846 0.04809 0.70812 0.0
O601 O 0.71019 0.02333 0.70023 0.0
O602 O 0.69843 0.03835 0.65133 0.0
O603 O 0.73054 0.03598 0.64925 0.0
C604 C 0.78742 0.03683 0.75473 0.0
C605 C 0.7728 0.01389 0.76206 0.0
H606 H 0.74077 0.96906 0.76982 0.0
H607 H 0.70724 0.94685 0.74008 0.0
H608 H 0.80115 0.09358 0.69279 0.0
H609 H 0.81177 0.08003 0.73406 0.0
H610 H 0.80244 0.04723 0.76685 0.0
H611 H 0.77675 0.00701 0.77976 0.0
Mn612 Mn 0.98461 0.67273 0.67314 0.0
Mn613 Mn 0.93666 0.62171 0.66898 0.0
C614 C 0.95588 0.66791 0.64337 0.0
C615 C 0.02169 0.69725 0.65883 0.0
C616 C 0.94749 0.655 0.71565 0.0
O617 O 0.99304 0.65108 0.69294 0.0
O618 O 0.96173 0.61741 0.6836 0.0
C619 C 0.95094 0.60078 0.62668 0.0
N620 N 0.93597 0.60715 0.63588 0.0
C621 C 0.91198 0.59154 0.59682 0.0
C622 C 0.92707 0.5847 0.58695 0.0
C623 C 0.94671 0.58946 0.60188 0.0
C624 C 0.91731 0.60312 0.62142 0.0
H625 H 0.96598 0.60432 0.6382 0.0
C626 C 0.98156 0.62925 0.69408 0.0
O627 O 0.01473 0.69995 0.68203 0.0
O628 O 0.00766 0.67954 0.64488 0.0
N629 N 0.91064 0.62278 0.65529 0.0
C630 C 0.89764 0.63016 0.66792 0.0
C631 C 0.87721 0.62647 0.65588 0.0
C632 C 0.87008 0.61474 0.63133 0.0
C633 C 0.88354 0.60693 0.61891 0.0
C634 C 0.90372 0.61111 0.63188 0.0
H635 H 0.90275 0.63872 0.6871 0.0
O636 O 0.97141 0.68824 0.65058 0.0
O637 O 0.95796 0.65113 0.65338 0.0
O638 O 0.96536 0.67148 0.70547 0.0
O639 O 0.93588 0.63599 0.70332 0.0
C640 C 0.87755 0.59486 0.59439 0.0
C641 C 0.89187 0.58736 0.58324 0.0
H642 H 0.92378 0.57582 0.56792 0.0
H643 H 0.95848 0.58431 0.59435 0.0
H644 H 0.86685 0.6324 0.66568 0.0
H645 H 0.8541 0.61157 0.62241 0.0
H646 H 0.86201 0.59128 0.58391 0.0
H647 H 0.88722 0.57834 0.56423 0.0
C648 C 0.22828 0.33609 0.12144 0.0
C649 C 0.22599 0.32182 0.09967 0.0
C650 C 0.20947 0.33148 0.13718 0.0
C651 C 0.18831 0.31202 0.13201 0.0
C652 C 0.20457 0.30302 0.09376 0.0
C653 C 0.18591 0.29815 0.10983 0.0
C654 C 0.16821 0.30675 0.14836 0.0
C655 C 0.2214 0.30547 0.20415 0.0
C656 C 0.21995 0.30953 0.23152 0.0
C657 C 0.2034 0.30101 0.1864 0.0
C658 C 0.1847 0.30321 0.19492 0.0
C659 C 0.2 0.30862 0.24072 0.0
C660 C 0.18304 0.30623 0.2227 0.0
C661 C 0.16653 0.30258 0.1765 0.0
C662 C 0.07127 0.28252 0.20403 0.0
C663 C 0.07744 0.29689 0.22665 0.0
C664 C 0.0881 0.28331 0.18707 0.0
C665 C 0.1112 0.29848 0.19266 0.0
C666 C 0.10047 0.3117 0.23232 0.0
C667 C 0.11716 0.31242 0.21559 0.0
C668 C 0.1297 0.3 0.17563 0.0
C669 C 0.09122 0.32556 0.12437 0.0
C670 C 0.08785 0.31892 0.09726 0.0
C671 C 0.10516 0.32074 0.14094 0.0
C672 C 0.11486 0.30782 0.13132 0.0
C673 C 0.09769 0.30626 0.08743 0.0
C674 C 0.11082 0.30054 0.10437 0.0
C675 C 0.13145 0.30423 0.14773 0.0
H676 H 0.24461 0.3508 0.12617 0.0
H677 H 0.2115 0.3428 0.1537 0.0
H678 H 0.20239 0.292 0.07687 0.0
H679 H 0.16959 0.28342 0.10507 0.0
H680 H 0.23641 0.3056 0.1965 0.0
H681 H 0.20455 0.29599 0.16624 0.0
H682 H 0.19812 0.31116 0.2618 0.0
H683 H 0.16879 0.30729 0.23082 0.0
H684 H 0.05353 0.27083 0.19954 0.0
H685 H 0.08314 0.27214 0.16973 0.0
H686 H 0.10553 0.32279 0.24977 0.0
H687 H 0.13485 0.32416 0.22041 0.0
H688 H 0.0841 0.33566 0.1323 0.0
H689 H 0.10901 0.32809 0.16086 0.0
H690 H 0.0956 0.30122 0.06651 0.0
H691 H 0.1184 0.29097 0.09614 0.0
N692 N 0.15053 0.30709 0.13533 0.0
N693 N 0.14718 0.29933 0.18848 0.0
C694 C 0.66506 0.88839 0.09064 0.0
C695 C 0.68085 0.91179 0.09245 0.0
C696 C 0.66844 0.87254 0.10535 0.0
C697 C 0.68743 0.87988 0.12246 0.0
C698 C 0.70023 0.91916 0.1089 0.0
C699 C 0.70346 0.9033 0.12391 0.0
C700 C 0.69035 0.86284 0.13838 0.0
C701 C 0.70864 0.90658 0.22356 0.0
C702 C 0.69084 0.91162 0.22197 0.0
C703 C 0.7103 0.89225 0.20456 0.0
C704 C 0.69422 0.88272 0.18357 0.0
C705 C 0.67503 0.90264 0.20073 0.0
C706 C 0.67659 0.88814 0.18177 0.0
C707 C 0.69428 0.8647 0.16644 0.0
C708 C 0.70796 0.80045 0.22326 0.0
C709 C 0.68968 0.77812 0.22134 0.0
C710 C 0.71037 0.81687 0.20434 0.0
C711 C 0.69462 0.81112 0.18311 0.0
C712 C 0.67436 0.77205 0.19966 0.0
C713 C 0.67672 0.78848 0.18074 0.0
C714 C 0.69505 0.82951 0.16624 0.0
C715 C 0.67093 0.77818 0.08957 0.0
C716 C 0.68717 0.77112 0.09339 0.0
C717 C 0.67276 0.797 0.10365 0.0
C718 C 0.69065 0.8088 0.12211 0.0
C719 C 0.70557 0.78341 0.111 0.0
C720 C 0.7073 0.80213 0.12527 0.0
C721 C 0.69161 0.82784 0.13815 0.0
H722 H 0.65007 0.88245 0.07795 0.0
H723 H 0.65597 0.85455 0.10381 0.0
H724 H 0.71262 0.93717 0.11038 0.0
H725 H 0.71845 0.90929 0.13661 0.0
H726 H 0.72079 0.91312 0.24 0.0
H727 H 0.72382 0.88805 0.2067 0.0
H728 H 0.66104 0.90619 0.1994 0.0
H729 H 0.66342 0.8804 0.16652 0.0
H730 H 0.71991 0.80536 0.23986 0.0
H731 H 0.72412 0.83426 0.20677 0.0
H732 H 0.66005 0.75488 0.19806 0.0
H733 H 0.66389 0.78373 0.16511 0.0
H734 H 0.65664 0.76888 0.076 0.0
H735 H 0.65981 0.80191 0.10074 0.0
H736 H 0.71828 0.77821 0.1141 0.0
H737 H 0.72153 0.81126 0.13896 0.0
N738 N 0.68915 0.84446 0.12533 0.0
N739 N 0.69647 0.84794 0.17912 0.0
C740 C 0.10466 0.76522 0.10883 0.0
C741 C 0.09167 0.76921 0.08955 0.0
C742 C 0.11958 0.78279 0.12591 0.0
C743 C 0.12175 0.80466 0.12402 0.0
C744 C 0.09373 0.79102 0.08771 0.0
C745 C 0.10889 0.80871 0.10461 0.0
C746 C 0.13831 0.82355 0.14125 0.0
C747 C 0.08301 0.7747 0.19729 0.0
C748 C 0.09086 0.76814 0.22006 0.0
C749 C 0.09847 0.79196 0.18038 0.0
C750 C 0.12203 0.80232 0.18555 0.0
C751 C 0.11427 0.77832 0.22511 0.0
C752 C 0.12968 0.79516 0.20802 0.0
C753 C 0.13898 0.82191 0.16952 0.0
C754 C 0.21633 0.9138 0.20444 0.0
C755 C 0.22549 0.90569 0.22434 0.0
C756 C 0.19949 0.89843 0.18674 0.0
C757 C 0.19182 0.87484 0.18863 0.0
C758 C 0.21786 0.88221 0.22618 0.0
C759 C 0.20112 0.86693 0.20859 0.0
C760 C 0.17339 0.85789 0.17109 0.0
C761 C 0.23171 0.89988 0.11652 0.0
C762 C 0.22676 0.91 0.09464 0.0
C763 C 0.21426 0.88372 0.13235 0.0
C764 C 0.19151 0.87781 0.12713 0.0
C765 C 0.20406 0.90399 0.08911 0.0
C766 C 0.18658 0.88802 0.10525 0.0
C767 C 0.17275 0.85959 0.14282 0.0
H768 H 0.10331 0.7485 0.11051 0.0
H769 H 0.12966 0.7794 0.14036 0.0
H770 H 0.0838 0.79439 0.073 0.0
H771 H 0.11048 0.82551 0.10267 0.0
H772 H 0.06495 0.767 0.19315 0.0
H773 H 0.09192 0.79758 0.16383 0.0
H774 H 0.12062 0.77337 0.24252 0.0
H775 H 0.14767 0.80283 0.21263 0.0
H776 H 0.22202 0.9319 0.20287 0.0
H777 H 0.19226 0.90492 0.17189 0.0
H778 H 0.22475 0.87569 0.24144 0.0
H779 H 0.19544 0.84883 0.21055 0.0
H780 H 0.24908 0.904 0.12081 0.0
H781 H 0.21858 0.8754 0.14822 0.0
H782 H 0.19989 0.91137 0.07206 0.0
H783 H 0.16916 0.88344 0.10048 0.0
N784 N 0.15511 0.84239 0.12906 0.0
N785 N 0.15652 0.83916 0.18312 0.0
C786 C 0.33656 0.10556 0.82788 0.0
C787 C 0.32357 0.09671 0.8043 0.0
C788 C 0.33208 0.11907 0.84532 0.0
C789 C 0.31404 0.1234 0.83995 0.0
C790 C 0.30549 0.10087 0.7989 0.0
C791 C 0.30077 0.11411 0.81658 0.0
C792 C 0.31062 0.13976 0.85663 0.0
C793 C 0.3032 0.08365 0.91159 0.0
C794 C 0.32019 0.09095 0.93154 0.0
C795 C 0.30005 0.09969 0.89683 0.0
C796 C 0.31407 0.12325 0.9016 0.0
C797 C 0.33347 0.11436 0.93715 0.0
C798 C 0.33034 0.13038 0.92241 0.0
C799 C 0.31209 0.14063 0.88502 0.0
C800 C 0.29479 0.2188 0.91192 0.0
C801 C 0.31318 0.2312 0.92956 0.0
C802 C 0.29323 0.20018 0.89757 0.0
C803 C 0.31012 0.19381 0.90058 0.0
C804 C 0.32957 0.22434 0.93328 0.0
C805 C 0.32799 0.20573 0.91902 0.0
C806 C 0.30958 0.17497 0.88459 0.0
C807 C 0.31865 0.23016 0.82565 0.0
C808 C 0.30132 0.22321 0.80573 0.0
C809 C 0.32045 0.21432 0.84238 0.0
C810 C 0.30534 0.19086 0.83945 0.0
C811 C 0.28784 0.19934 0.80143 0.0
C812 C 0.2895 0.18355 0.81832 0.0
C813 C 0.30731 0.17364 0.8563 0.0
H814 H 0.35071 0.10268 0.83225 0.0
H815 H 0.34327 0.12675 0.86246 0.0
H816 H 0.29537 0.09429 0.78074 0.0
H817 H 0.28701 0.11747 0.81172 0.0
H818 H 0.29284 0.06562 0.907 0.0
H819 H 0.28696 0.09372 0.88137 0.0
H820 H 0.34672 0.12026 0.95242 0.0
H821 H 0.34121 0.1484 0.92666 0.0
H822 H 0.28189 0.22377 0.909 0.0
H823 H 0.27899 0.19092 0.88393 0.0
H824 H 0.3438 0.23364 0.94694 0.0
H825 H 0.34109 0.20102 0.92185 0.0
H826 H 0.33162 0.24782 0.82803 0.0
H827 H 0.33409 0.22045 0.85715 0.0
H828 H 0.27637 0.19218 0.7846 0.0
H829 H 0.27851 0.16546 0.81455 0.0
N830 N 0.30794 0.1561 0.84356 0.0
N831 N 0.31188 0.15841 0.8978 0.0
C832 C 0.91954 0.21623 0.90991 0.0
C833 C 0.91379 0.22874 0.92759 0.0
C834 C 0.90259 0.19833 0.89481 0.0
C835 C 0.8797 0.19272 0.89728 0.0
C836 C 0.89092 0.22276 0.93063 0.0
C837 C 0.87397 0.20474 0.91577 0.0
C838 C 0.86157 0.17397 0.88132 0.0
C839 C 0.90027 0.22884 0.8197 0.0
C840 C 0.90954 0.22229 0.79872 0.0
C841 C 0.88579 0.21262 0.83823 0.0
C842 C 0.88051 0.18961 0.83619 0.0
C843 C 0.90471 0.19949 0.79703 0.0
C844 C 0.89023 0.18327 0.81547 0.0
C845 C 0.86286 0.17167 0.85334 0.0
C846 C 0.77073 0.09872 0.81977 0.0
C847 C 0.77741 0.08926 0.79907 0.0
C848 C 0.78666 0.1132 0.83881 0.0
C849 C 0.80943 0.11816 0.83758 0.0
C850 C 0.79987 0.0935 0.79835 0.0
C851 C 0.81576 0.10786 0.81742 0.0
C852 C 0.82742 0.13664 0.8541 0.0
C853 C 0.78287 0.086 0.91841 0.0
C854 C 0.77407 0.09512 0.93757 0.0
C855 C 0.79921 0.10006 0.89973 0.0
C856 C 0.80639 0.12347 0.89866 0.0
C857 C 0.77939 0.11811 0.9335 0.0
C858 C 0.79585 0.13218 0.91516 0.0
C859 C 0.82572 0.13947 0.88193 0.0
H860 H 0.93715 0.22071 0.90733 0.0
H861 H 0.90735 0.18892 0.88116 0.0
H862 H 0.88627 0.23234 0.94415 0.0
H863 H 0.85642 0.20054 0.9182 0.0
H864 H 0.90366 0.24633 0.82119 0.0
H865 H 0.87801 0.21791 0.85344 0.0
H866 H 0.91157 0.19408 0.78096 0.0
H867 H 0.88622 0.16564 0.81323 0.0
H868 H 0.75347 0.09579 0.82036 0.0
H869 H 0.78141 0.12149 0.85346 0.0
H870 H 0.80531 0.08642 0.78243 0.0
H871 H 0.83325 0.11162 0.81583 0.0
H872 H 0.77726 0.06795 0.91736 0.0
H873 H 0.80653 0.09269 0.88653 0.0
H874 H 0.77092 0.12574 0.94397 0.0
H875 H 0.8003 0.15002 0.91379 0.0
N876 N 0.84293 0.15797 0.89439 0.0
N877 N 0.84589 0.15294 0.84099 0.0
C878 C 0.77373 0.69408 0.90515 0.0
C879 C 0.76491 0.67727 0.92519 0.0
C880 C 0.79314 0.69797 0.89103 0.0
C881 C 0.8036 0.68461 0.89619 0.0
C882 C 0.77608 0.66488 0.93145 0.0
C883 C 0.79523 0.66851 0.9171 0.0
C884 C 0.82309 0.68693 0.88012 0.0
C885 C 0.7672 0.66789 0.81678 0.0
C886 C 0.77294 0.68443 0.7966 0.0
C887 C 0.78357 0.66983 0.83567 0.0
C888 C 0.8058 0.68844 0.83469 0.0
C889 C 0.79492 0.7033 0.7961 0.0
C890 C 0.81127 0.70521 0.81487 0.0
C891 C 0.82416 0.68914 0.85182 0.0
C892 C 0.89476 0.66451 0.82257 0.0
C893 C 0.90327 0.67788 0.79939 0.0
C894 C 0.88108 0.6684 0.84019 0.0
C895 C 0.87609 0.68615 0.83536 0.0
C896 C 0.89857 0.69576 0.79457 0.0
C897 C 0.88505 0.69982 0.81239 0.0
C898 C 0.85929 0.6886 0.85205 0.0
C899 C 0.91656 0.69937 0.90656 0.0
C900 C 0.91049 0.68139 0.92484 0.0
C901 C 0.89973 0.70168 0.89256 0.0
C902 C 0.87661 0.68599 0.89663 0.0
C903 C 0.88745 0.66626 0.9297 0.0
C904 C 0.87061 0.66867 0.91586 0.0
C905 C 0.85862 0.68704 0.88038 0.0
H906 H 0.76536 0.70385 0.90012 0.0
H907 H 0.7997 0.71117 0.87584 0.0
H908 H 0.76946 0.6518 0.94682 0.0
H909 H 0.80305 0.65815 0.92179 0.0
H910 H 0.7503 0.65315 0.81732 0.0
H911 H 0.7791 0.65638 0.85036 0.0
H912 H 0.79959 0.71621 0.78076 0.0
H913 H 0.82837 0.71955 0.81358 0.0
H914 H 0.89801 0.65047 0.82644 0.0
H915 H 0.87368 0.6569 0.85698 0.0
H916 H 0.90485 0.70613 0.77667 0.0
H917 H 0.88116 0.71334 0.80792 0.0
H918 H 0.9343 0.71121 0.90266 0.0
H919 H 0.90475 0.71544 0.87819 0.0
H920 H 0.88252 0.65231 0.94378 0.0
H921 H 0.85291 0.65647 0.91943 0.0
N922 N 0.84044 0.68599 0.89323 0.0
N923 N 0.84218 0.6899 0.83905 0.0
C924 C 0.74642 0.63351 0.44371 0.0
C925 C 0.75263 0.65087 0.42449 0.0
C926 C 0.76317 0.63229 0.45932 0.0
C927 C 0.78621 0.64861 0.45604 0.0
C928 C 0.77566 0.6664 0.42031 0.0
C929 C 0.79233 0.66522 0.43589 0.0
C930 C 0.8042 0.6489 0.47343 0.0
C931 C 0.76026 0.66456 0.52853 0.0
C932 C 0.75691 0.65544 0.5546 0.0
C933 C 0.77532 0.66254 0.51113 0.0
C934 C 0.78591 0.6497 0.51854 0.0
C935 C 0.76758 0.64282 0.56213 0.0
C936 C 0.78151 0.63963 0.5442 0.0
C937 C 0.80372 0.64879 0.50188 0.0
C938 C 0.89775 0.67078 0.5358 0.0
C939 C 0.89177 0.65685 0.5587 0.0
C940 C 0.88104 0.66815 0.517 0.0
C941 C 0.85822 0.65128 0.52069 0.0
C942 C 0.8691 0.63999 0.56224 0.0
C943 C 0.85249 0.63719 0.54343 0.0
C944 C 0.83969 0.6498 0.50313 0.0
C945 C 0.88535 0.63701 0.44939 0.0
C946 C 0.89598 0.65418 0.43002 0.0
C947 C 0.86704 0.63545 0.46393 0.0
C948 C 0.85918 0.65107 0.45924 0.0
C949 C 0.88774 0.66935 0.42481 0.0
C950 C 0.86935 0.66767 0.43915 0.0
C951 C 0.84025 0.65019 0.47484 0.0
H952 H 0.72867 0.62134 0.44702 0.0
H953 H 0.75815 0.61903 0.47436 0.0
H954 H 0.78067 0.67983 0.40548 0.0
H955 H 0.81001 0.67779 0.43281 0.0
H956 H 0.75229 0.67445 0.52224 0.0
H957 H 0.77922 0.6719 0.49247 0.0
H958 H 0.76544 0.6357 0.58213 0.0
H959 H 0.7895 0.62985 0.55084 0.0
H960 H 0.91518 0.68407 0.53292 0.0
H961 H 0.88584 0.67981 0.50018 0.0
H962 H 0.86415 0.62935 0.57989 0.0
H963 H 0.83501 0.6243 0.54697 0.0
H964 H 0.89155 0.62517 0.45361 0.0
H965 H 0.85913 0.62218 0.47892 0.0
H966 H 0.89579 0.68269 0.40992 0.0
H967 H 0.86343 0.67975 0.43505 0.0
N968 N 0.82255 0.64985 0.46116 0.0
N969 N 0.82148 0.64906 0.51533 0.0
C970 C 0.33085 0.22571 0.42857 0.0
C971 C 0.34706 0.24885 0.43201 0.0
C972 C 0.33262 0.20888 0.44324 0.0
C973 C 0.35044 0.21495 0.46186 0.0
C974 C 0.36536 0.25493 0.44993 0.0
C975 C 0.36701 0.23809 0.46481 0.0
C976 C 0.35155 0.19695 0.47792 0.0
C977 C 0.36622 0.23772 0.56491 0.0
C978 C 0.34942 0.24404 0.56177 0.0
C979 C 0.36857 0.22393 0.54581 0.0
C980 C 0.354 0.21599 0.52329 0.0
C981 C 0.33527 0.23682 0.53892 0.0
C982 C 0.33735 0.22266 0.51994 0.0
C983 C 0.35426 0.19812 0.50613 0.0
C984 C 0.36637 0.13409 0.56428 0.0
C985 C 0.34909 0.11135 0.56156 0.0
C986 C 0.36873 0.15033 0.54517 0.0
C987 C 0.35377 0.14414 0.52302 0.0
C988 C 0.3345 0.10485 0.5391 0.0
C989 C 0.33667 0.12118 0.52006 0.0
C990 C 0.35413 0.16246 0.50597 0.0
C991 C 0.3302 0.11289 0.42743 0.0
C992 C 0.34582 0.10503 0.43111 0.0
C993 C 0.33234 0.13144 0.44233 0.0
C994 C 0.3499 0.14215 0.46146 0.0
C995 C 0.36388 0.11619 0.44949 0.0
C996 C 0.36594 0.13466 0.46456 0.0
C997 C 0.35135 0.16122 0.47775 0.0
H998 H 0.31671 0.22073 0.41468 0.0
H999 H 0.31978 0.19113 0.4405 0.0
H1000 H 0.37813 0.27271 0.4526 0.0
H1001 H 0.38118 0.24311 0.47865 0.0
H1002 H 0.37692 0.24273 0.58263 0.0
H1003 H 0.38128 0.21876 0.54915 0.0
H1004 H 0.32194 0.24125 0.53645 0.0
H1005 H 0.32521 0.21607 0.50348 0.0
H1006 H 0.37754 0.13944 0.58167 0.0
H1007 H 0.3818 0.16795 0.54818 0.0
H1008 H 0.3209 0.08736 0.5369 0.0
H1009 H 0.32433 0.11602 0.50382 0.0
H1010 H 0.31615 0.10441 0.41334 0.0
H1011 H 0.31991 0.13704 0.43944 0.0
H1012 H 0.37606 0.11029 0.45254 0.0
H1013 H 0.37993 0.14299 0.47874 0.0
N1014 N 0.35004 0.17847 0.46486 0.0
N1015 N 0.35555 0.18088 0.51884 0.0
C1016 C 0.7747 0.10342 0.44331 0.0
C1017 C 0.7609 0.10642 0.42424 0.0
C1018 C 0.78921 0.12144 0.46017 0.0
C1019 C 0.79022 0.14279 0.45818 0.0
C1020 C 0.76172 0.1277 0.42242 0.0
C1021 C 0.77652 0.14585 0.43902 0.0
C1022 C 0.80657 0.16227 0.47486 0.0
C1023 C 0.75271 0.11304 0.53183 0.0
C1024 C 0.76123 0.10704 0.55447 0.0
C1025 C 0.76758 0.13056 0.51478 0.0
C1026 C 0.7912 0.1418 0.51971 0.0
C1027 C 0.7847 0.1182 0.55939 0.0
C1028 C 0.79952 0.13533 0.54218 0.0
C1029 C 0.80752 0.16139 0.5032 0.0
C1030 C 0.87602 0.23337 0.56286 0.0
C1031 C 0.898 0.23809 0.55611 0.0
C1032 C 0.85785 0.22133 0.54498 0.0
C1033 C 0.86141 0.21399 0.52002 0.0
C1034 C 0.90179 0.23151 0.53087 0.0
C1035 C 0.88363 0.21944 0.51301 0.0
C1036 C 0.84157 0.19769 0.5036 0.0
C1037 C 0.88587 0.23182 0.42481 0.0
C1038 C 0.89308 0.25454 0.43208 0.0
C1039 C 0.86797 0.21384 0.4383 0.0
C1040 C 0.85732 0.21831 0.45961 0.0
C1041 C 0.8816 0.25913 0.45234 0.0
C1042 C 0.86392 0.2411 0.46618 0.0
C1043 C 0.84005 0.19902 0.47541 0.0
H1044 H 0.77432 0.08714 0.44501 0.0
H1045 H 0.79994 0.11883 0.47447 0.0
H1046 H 0.75114 0.1303 0.4079 0.0
H1047 H 0.77721 0.16225 0.43702 0.0
H1048 H 0.73459 0.10458 0.52782 0.0
H1049 H 0.76051 0.13562 0.49823 0.0
H1050 H 0.79155 0.1137 0.5767 0.0
H1051 H 0.81759 0.14369 0.5466 0.0
H1052 H 0.8728 0.23818 0.58238 0.0
H1053 H 0.84086 0.21703 0.55104 0.0
H1054 H 0.91863 0.23479 0.52551 0.0
H1055 H 0.88683 0.2133 0.4944 0.0
H1056 H 0.89449 0.22801 0.40914 0.0
H1057 H 0.86308 0.19641 0.43283 0.0
H1058 H 0.88692 0.27661 0.45807 0.0
H1059 H 0.85568 0.24491 0.4823 0.0
N1060 N 0.82274 0.18116 0.46211 0.0
N1061 N 0.82508 0.1791 0.51628 0.0
C1062 C 0.9858 0.56357 0.15489 0.0
C1063 C 1.00057 0.5702 0.13297 0.0
C1064 C 0.98417 0.54642 0.17236 0.0
C1065 C 0.99796 0.53632 0.16872 0.0
C1066 C 0.01444 0.56034 0.12948 0.0
C1067 C 0.01323 0.54368 0.14721 0.0
C1068 C 0.99547 0.51671 0.18519 0.0
C1069 C 0.0127 0.57273 0.24555 0.0
C1070 C 0.99502 0.56804 0.2634 0.0
C1071 C 0.0117 0.55549 0.22904 0.0
C1072 C 0.99294 0.5333 0.23005 0.0
C1073 C 0.97625 0.54588 0.26444 0.0
C1074 C 0.97535 0.52856 0.24808 0.0
C1075 C 0.99217 0.51479 0.2133 0.0
C1076 C 0.01509 0.44374 0.24445 0.0
C1077 C 0.99599 0.4266 0.25757 0.0
C1078 C 0.01352 0.46067 0.22981 0.0
C1079 C 0.99292 0.46097 0.2284 0.0
C1080 C 0.97529 0.4268 0.25604 0.0
C1081 C 0.97387 0.44415 0.24188 0.0
C1082 C 0.99158 0.47893 0.21268 0.0
C1083 C 0.98145 0.42434 0.15245 0.0
C1084 C 0.99803 0.43184 0.13247 0.0
C1085 C 0.98069 0.44009 0.17013 0.0
C1086 C 0.99667 0.46351 0.16817 0.0
C1087 C 0.01423 0.45508 0.13082 0.0
C1088 C 0.01351 0.47079 0.14846 0.0
C1089 C 0.99484 0.48082 0.18471 0.0
H1090 H 0.97492 0.57101 0.1578 0.0
H1091 H 0.97163 0.54062 0.18807 0.0
H1092 H 0.026 0.56534 0.11273 0.0
H1093 H 0.02401 0.53621 0.14378 0.0
H1094 H 0.02733 0.58973 0.24453 0.0
H1095 H 0.02569 0.55941 0.21569 0.0
H1096 H 0.96245 0.54199 0.27808 0.0
H1097 H 0.96084 0.5115 0.24933 0.0
H1098 H 0.0312 0.44387 0.24538 0.0
H1099 H 0.02842 0.47361 0.21963 0.0
H1100 H 0.96035 0.41365 0.26593 0.0
H1101 H 0.95785 0.44417 0.24096 0.0
H1102 H 0.96867 0.40645 0.15374 0.0
H1103 H 0.9671 0.43407 0.18454 0.0
H1104 H 0.02705 0.46112 0.11537 0.0
H1105 H 0.0259 0.48875 0.14641 0.0
N1106 N 0.99667 0.49961 0.17217 0.0
N1107 N 0.9903 0.49592 0.22596 0.0
C1108 C 0.46344 0.42753 0.1233 0.0
C1109 C 0.44099 0.42309 0.12583 0.0
C1110 C 0.48014 0.44188 0.14167 0.0
C1111 C 0.47463 0.45191 0.1629 0.0
C1112 C 0.43522 0.43246 0.14745 0.0
C1113 C 0.45194 0.44694 0.16573 0.0
C1114 C 0.49309 0.46989 0.17948 0.0
C1115 C 0.44412 0.44563 0.2576 0.0
C1116 C 0.43692 0.42227 0.255 0.0
C1117 C 0.46221 0.4617 0.2424 0.0
C1118 C 0.47313 0.45462 0.22404 0.0
C1119 C 0.44825 0.41514 0.23734 0.0
C1120 C 0.46626 0.43122 0.22194 0.0
C1121 C 0.49181 0.47192 0.20754 0.0
C1122 C 0.55163 0.55655 0.25648 0.0
C1123 C 0.57497 0.56457 0.2539 0.0
C1124 C 0.53596 0.53798 0.24117 0.0
C1125 C 0.54342 0.52738 0.22274 0.0
C1126 C 0.58253 0.55373 0.23598 0.0
C1127 C 0.56684 0.53521 0.2205 0.0
C1128 C 0.52644 0.50765 0.20688 0.0
C1129 C 0.56996 0.53345 0.12295 0.0
C1130 C 0.57338 0.55579 0.12335 0.0
C1131 C 0.55594 0.51742 0.14184 0.0
C1132 C 0.5453 0.52353 0.16169 0.0
C1133 C 0.56323 0.56215 0.14353 0.0
C1134 C 0.54925 0.54613 0.16254 0.0
C1135 C 0.52789 0.50548 0.17887 0.0
H1136 H 0.46817 0.42054 0.10663 0.0
H1137 H 0.49754 0.4457 0.13883 0.0
H1138 H 0.41799 0.42941 0.14943 0.0
H1139 H 0.44729 0.45507 0.18123 0.0
H1140 H 0.43553 0.45138 0.27117 0.0
H1141 H 0.46732 0.47965 0.24451 0.0
H1142 H 0.44289 0.39714 0.23518 0.0
H1143 H 0.47476 0.4254 0.20835 0.0
H1144 H 0.54557 0.5648 0.27019 0.0
H1145 H 0.51799 0.53211 0.2434 0.0
H1146 H 0.60054 0.55978 0.2338 0.0
H1147 H 0.57299 0.52695 0.20693 0.0
H1148 H 0.57754 0.52823 0.10753 0.0
H1149 H 0.55293 0.50004 0.14055 0.0
H1150 H 0.56554 0.57929 0.14398 0.0
H1151 H 0.54075 0.55116 0.17711 0.0
N1152 N 0.51118 0.48665 0.16638 0.0
N1153 N 0.50844 0.49081 0.22006 0.0
C1154 C 0.4409 0.02421 0.24406 0.0
C1155 C 0.43061 0.00684 0.2633 0.0
C1156 C 0.45889 0.0259 0.22868 0.0
C1157 C 0.46677 0.01017 0.2323 0.0
C1158 C 0.43884 0.9915 0.26736 0.0
C1159 C 0.45686 0.99325 0.25211 0.0
C1160 C 0.48564 0.01143 0.21614 0.0
C1161 C 0.45785 0.02459 0.12903 0.0
C1162 C 0.43494 0.00839 0.13246 0.0
C1163 C 0.47416 0.02662 0.14789 0.0
C1164 C 0.46796 0.0123 0.17049 0.0
C1165 C 0.42844 0.99437 0.15531 0.0
C1166 C 0.44487 0.99611 0.17406 0.0
C1167 C 0.48623 0.01275 0.18782 0.0
C1168 C 0.5658 0.99863 0.16013 0.0
C1169 C 0.5693 0.00846 0.13443 0.0
C1170 C 0.55065 1.00017 0.17784 0.0
C1171 C 0.53996 0.01306 0.17109 0.0
C1172 C 0.55852 0.02112 0.12755 0.0
C1173 C 0.54437 0.02369 0.14576 0.0
C1174 C 0.52215 0.01355 0.18819 0.0
C1175 C 0.58062 0.0304 0.24464 0.0
C1176 C 0.5757 0.01253 0.26275 0.0
C1177 C 0.56306 0.03098 0.23006 0.0
C1178 C 0.54041 0.01364 0.23339 0.0
C1179 C 0.55302 0.99583 0.26698 0.0
C1180 C 0.53548 0.99649 0.25257 0.0
C1181 C 0.5218 0.01284 0.21663 0.0
H1182 H 0.43486 0.0363 0.24083 0.0
H1183 H 0.46662 0.03946 0.214 0.0
H1184 H 0.43118 0.97807 0.28221 0.0
H1185 H 0.4628 0.98109 0.25545 0.0
H1186 H 0.46323 0.03517 0.1113 0.0
H1187 H 0.49183 0.039 0.14437 0.0
H1188 H 0.41083 0.98148 0.15801 0.0
H1189 H 0.4396 0.98419 0.19064 0.0
H1190 H 0.57383 0.98868 0.1659 0.0
H1191 H 0.54679 0.99045 0.19623 0.0
H1192 H 0.56079 0.02878 0.10784 0.0
H1193 H 0.5363 0.03352 0.13962 0.0
H1194 H 0.59806 0.04341 0.24117 0.0
H1195 H 0.56718 0.0446 0.21571 0.0
H1196 H 0.54898 0.98193 0.28089 0.0
H1197 H 0.51812 0.98309 0.25562 0.0
N1198 N 0.50343 0.01147 0.22936 0.0
N1199 N 0.5044 0.0137 0.17522 0.0
C1200 C 0.5571 0.00495 0.75668 0.0
C1201 C 0.56587 0.9902 0.76152 0.0
C1202 C 0.5388 0.00289 0.77153 0.0
C1203 C 0.52922 0.98626 0.7917 0.0
C1204 C 0.55587 0.973 0.78098 0.0
C1205 C 0.53759 0.97101 0.79596 0.0
C1206 C 0.51053 0.98518 0.80792 0.0
C1207 C 0.56846 0.00536 0.86906 0.0
C1208 C 0.56259 0.98999 0.89059 0.0
C1209 C 0.55184 0.00323 0.85038 0.0
C1210 C 0.52921 0.9856 0.85301 0.0
C1211 C 0.54022 0.97202 0.89261 0.0
C1212 C 0.52365 0.96991 0.8741 0.0
C1213 C 0.51065 0.98492 0.83627 0.0
C1214 C 0.41841 0.97227 0.86502 0.0
C1215 C 0.42549 0.98686 0.88742 0.0
C1216 C 0.43453 0.97187 0.84795 0.0
C1217 C 0.4579 0.98631 0.85288 0.0
C1218 C 0.44873 0.00132 0.89228 0.0
C1219 C 0.46479 0.00103 0.87519 0.0
C1220 C 0.47548 0.98532 0.83632 0.0
C1221 C 0.43937 0.00908 0.77832 0.0
C1222 C 0.42537 0.99162 0.76031 0.0
C1223 C 0.45543 0.00697 0.79417 0.0
C1224 C 0.45788 0.98747 0.792 0.0
C1225 C 0.42759 0.97195 0.75846 0.0
C1226 C 0.44402 0.97006 0.77391 0.0
C1227 C 0.47536 0.98556 0.80801 0.0
H1228 H 0.56471 0.01833 0.74174 0.0
H1229 H 0.53252 0.01473 0.76776 0.0
H1230 H 0.56251 0.9615 0.7849 0.0
H1231 H 0.53013 0.9577 0.81098 0.0
H1232 H 0.58567 0.01942 0.8673 0.0
H1233 H 0.55644 0.01587 0.83464 0.0
H1234 H 0.53542 0.96002 0.90896 0.0
H1235 H 0.5063 0.9563 0.87664 0.0
H1236 H 0.40049 0.96083 0.86122 0.0
H1237 H 0.42871 0.95983 0.83143 0.0
H1238 H 0.45443 0.01259 0.90957 0.0
H1239 H 0.48268 0.01222 0.87954 0.0
H1240 H 0.43786 0.02436 0.78005 0.0
H1241 H 0.46614 0.02065 0.80787 0.0
H1242 H 0.41684 0.95826 0.74479 0.0
H1243 H 0.44575 0.95493 0.77199 0.0
N1244 N 0.49287 0.98552 0.79488 0.0
N1245 N 0.49311 0.98496 0.84927 0.0
C1246 C 0.00383 0.57156 0.78482 0.0
C1247 C 0.01067 0.5754 0.75795 0.0
C1248 C 0.00587 0.55517 0.80001 0.0
C1249 C 0.01664 0.54347 0.78962 0.0
C1250 C 0.02138 0.56387 0.74727 0.0
C1251 C 0.02472 0.54844 0.76308 0.0
C1252 C 0.01732 0.5243 0.80437 0.0
C1253 C 0.0381 0.5753 0.87614 0.0
C1254 C 0.01828 0.56988 0.89055 0.0
C1255 C 0.03791 0.56019 0.85664 0.0
C1256 C 0.01811 0.53923 0.85197 0.0
C1257 C 0.99846 0.54899 0.88547 0.0
C1258 C 0.99856 0.53357 0.86688 0.0
C1259 C 0.01768 0.52235 0.83279 0.0
C1260 C 0.03414 0.45223 0.87166 0.0
C1261 C 0.01313 0.43479 0.88078 0.0
C1262 C 0.03492 0.46799 0.8527 0.0
C1263 C 0.01472 0.46642 0.84263 0.0
C1264 C 0.99294 0.43243 0.86945 0.0
C1265 C 0.99373 0.44833 0.85072 0.0
C1266 C 0.01551 0.48599 0.82842 0.0
C1267 C 0.99084 0.43176 0.76245 0.0
C1268 C 0.00815 0.43569 0.74388 0.0
C1269 C 0.99325 0.44848 0.78088 0.0
C1270 C 0.01344 0.4694 0.78236 0.0
C1271 C 0.02925 0.45601 0.74782 0.0
C1272 C 0.03155 0.47286 0.76607 0.0
C1273 C 0.01543 0.48778 0.80035 0.0
H1274 H 0.9952 0.57998 0.79341 0.0
H1275 H 0.99754 0.55097 0.81907 0.0
H1276 H 0.02659 0.56633 0.72649 0.0
H1277 H 0.03288 0.53971 0.75409 0.0
H1278 H 0.05362 0.59122 0.87994 0.0
H1279 H 0.05325 0.56463 0.84561 0.0
H1280 H 0.98303 0.54442 0.89637 0.0
H1281 H 0.9832 0.51735 0.86371 0.0
H1282 H 0.04985 0.45423 0.88008 0.0
H1283 H 0.05124 0.48214 0.84702 0.0
H1284 H 0.97658 0.41912 0.87636 0.0
H1285 H 0.97799 0.44725 0.84369 0.0
H1286 H 0.97516 0.41563 0.76306 0.0
H1287 H 0.97913 0.44516 0.79371 0.0
H1288 H 0.04449 0.45937 0.73764 0.0
H1289 H 0.04767 0.48857 0.76771 0.0
N1290 N 0.01643 0.50686 0.78939 0.0
N1291 N 0.01669 0.50329 0.84352 0.0
C1292 C 0.54645 0.5845 0.77489 0.0
C1293 C 0.55836 0.57701 0.75868 0.0
C1294 C 0.52798 0.56876 0.78998 0.0
C1295 C 0.52132 0.54536 0.78913 0.0
C1296 C 0.55126 0.55361 0.75712 0.0
C1297 C 0.53276 0.53788 0.77207 0.0
C1298 C 0.50256 0.52847 0.80586 0.0
C1299 C 0.55885 0.57435 0.86312 0.0
C1300 C 0.553 0.58629 0.88201 0.0
C1301 C 0.54236 0.55681 0.84717 0.0
C1302 C 0.51929 0.55011 0.84987 0.0
C1303 C 0.52945 0.57762 0.88618 0.0
C1304 C 0.51301 0.56026 0.87004 0.0
C1305 C 0.5014 0.53093 0.83393 0.0
C1306 C 0.44087 0.44279 0.87897 0.0
C1307 C 0.42108 0.44251 0.88788 0.0
C1308 C 0.45534 0.45956 0.86106 0.0
C1309 C 0.45044 0.47651 0.85212 0.0
C1310 C 0.41583 0.45911 0.87824 0.0
C1311 C 0.43069 0.4763 0.86091 0.0
C1312 C 0.46692 0.49519 0.83511 0.0
C1313 C 0.41196 0.44491 0.78031 0.0
C1314 C 0.41947 0.43298 0.7641 0.0
C1315 C 0.42771 0.46457 0.7941 0.0
C1316 C 0.45114 0.47229 0.79222 0.0
C1317 C 0.44285 0.44104 0.76156 0.0
C1318 C 0.45858 0.46063 0.77541 0.0
C1319 C 0.46804 0.49272 0.80719 0.0
H1320 H 0.55177 0.60254 0.77628 0.0
H1321 H 0.5191 0.57486 0.80256 0.0
H1322 H 0.56032 0.54759 0.74472 0.0
H1323 H 0.5278 0.51991 0.77094 0.0
H1324 H 0.57613 0.57776 0.86102 0.0
H1325 H 0.54768 0.54805 0.83325 0.0
H1326 H 0.523 0.58323 0.90238 0.0
H1327 H 0.49521 0.55449 0.87368 0.0
H1328 H 0.44526 0.43019 0.88619 0.0
H1329 H 0.47065 0.45964 0.85465 0.0
H1330 H 0.40063 0.45916 0.88483 0.0
H1331 H 0.42682 0.48944 0.8544 0.0
H1332 H 0.39395 0.43889 0.78242 0.0
H1333 H 0.42158 0.47378 0.80605 0.0
H1334 H 0.44889 0.43195 0.74918 0.0
H1335 H 0.47656 0.4664 0.77344 0.0
N1336 N 0.48592 0.50937 0.79365 0.0
N1337 N 0.48359 0.51413 0.84742 0.0
C1338 C 0.66454 0.76536 0.48999 0.0
C1339 C 0.65581 0.76235 0.46365 0.0
C1340 C 0.66265 0.78054 0.50754 0.0
C1341 C 0.65021 0.79153 0.50002 0.0
C1342 C 0.64373 0.77354 0.45595 0.0
C1343 C 0.64059 0.78754 0.47403 0.0
C1344 C 0.64922 0.80927 0.51707 0.0
C1345 C 0.63374 0.75097 0.57423 0.0
C1346 C 0.65085 0.75721 0.59392 0.0
C1347 C 0.63252 0.76782 0.55873 0.0
C1348 C 0.6486 0.79103 0.56259 0.0
C1349 C 0.66618 0.78039 0.59858 0.0
C1350 C 0.665 0.79716 0.58313 0.0
C1351 C 0.64885 0.80924 0.54554 0.0
C1352 C 0.6385 0.89145 0.57217 0.0
C1353 C 0.65523 0.90121 0.59241 0.0
C1354 C 0.63674 0.87326 0.55673 0.0
C1355 C 0.65164 0.86458 0.56146 0.0
C1356 C 0.66968 0.89213 0.59757 0.0
C1357 C 0.66778 0.87386 0.58235 0.0
C1358 C 0.65054 0.8457 0.54513 0.0
C1359 C 0.67491 0.90591 0.48862 0.0
C1360 C 0.66316 0.90154 0.464 0.0
C1361 C 0.67067 0.88799 0.50618 0.0
C1362 C 0.654 0.86543 0.49988 0.0
C1363 C 0.64646 0.87911 0.45765 0.0
C1364 C 0.64191 0.86123 0.47545 0.0
C1365 C 0.65089 0.84581 0.51678 0.0
H1366 H 0.67402 0.75701 0.49642 0.0
H1367 H 0.67176 0.7842 0.52645 0.0
H1368 H 0.63695 0.77169 0.43572 0.0
H1369 H 0.63118 0.79589 0.46728 0.0
H1370 H 0.62171 0.73312 0.57052 0.0
H1371 H 0.61943 0.76275 0.54338 0.0
H1372 H 0.67942 0.78546 0.61376 0.0
H1373 H 0.6774 0.81495 0.58667 0.0
H1374 H 0.62709 0.89816 0.5681 0.0
H1375 H 0.62385 0.86605 0.54108 0.0
H1376 H 0.68259 0.89938 0.6132 0.0
H1377 H 0.67931 0.8673 0.5865 0.0
H1378 H 0.68799 0.9231 0.49376 0.0
H1379 H 0.68107 0.89175 0.52415 0.0
H1380 H 0.63729 0.87541 0.4387 0.0
H1381 H 0.62923 0.84399 0.46987 0.0
N1382 N 0.65007 0.82755 0.50409 0.0
N1383 N 0.6497 0.82753 0.55828 0.0
C1384 C 0.12068 0.75929 0.47912 0.0
C1385 C 0.10466 0.7638 0.46627 0.0
C1386 C 0.13551 0.77437 0.49862 0.0
C1387 C 0.13474 0.79429 0.50507 0.0
C1388 C 0.10336 0.7833 0.4736 0.0
C1389 C 0.11862 0.79867 0.49243 0.0
C1390 C 0.15292 0.81225 0.52156 0.0
C1391 C 0.09545 0.77195 0.57814 0.0
C1392 C 0.10083 0.76222 0.60006 0.0
C1393 C 0.11259 0.78777 0.56164 0.0
C1394 C 0.13544 0.79381 0.56633 0.0
C1395 C 0.12365 0.7685 0.60518 0.0
C1396 C 0.14082 0.78417 0.58844 0.0
C1397 C 0.15391 0.81161 0.54986 0.0
C1398 C 0.23014 0.90562 0.57712 0.0
C1399 C 0.23962 0.90029 0.59933 0.0
C1400 C 0.21412 0.88829 0.56065 0.0
C1401 C 0.20765 0.86528 0.56564 0.0
C1402 C 0.23306 0.87733 0.60465 0.0
C1403 C 0.2172 0.85997 0.58791 0.0
C1404 C 0.18937 0.84665 0.5495 0.0
C1405 C 0.24059 0.87858 0.47879 0.0
C1406 C 0.23623 0.89469 0.46581 0.0
C1407 C 0.22561 0.86392 0.49818 0.0
C1408 C 0.20588 0.86489 0.50437 0.0
C1409 C 0.21687 0.8961 0.47277 0.0
C1410 C 0.20157 0.88099 0.49146 0.0
C1411 C 0.18817 0.84711 0.5212 0.0
H1412 H 0.12202 0.74441 0.47361 0.0
H1413 H 0.14822 0.77103 0.50776 0.0
H1414 H 0.09117 0.7871 0.46385 0.0
H1415 H 0.11814 0.81423 0.49679 0.0
H1416 H 0.07798 0.7676 0.57413 0.0
H1417 H 0.10795 0.7958 0.54581 0.0
H1418 H 0.12815 0.76135 0.62218 0.0
H1419 H 0.15832 0.78886 0.59285 0.0
H1420 H 0.2347 0.92321 0.57299 0.0
H1421 H 0.20619 0.89294 0.5447 0.0
H1422 H 0.24 0.87288 0.6219 0.0
H1423 H 0.21218 0.84234 0.59253 0.0
H1424 H 0.25534 0.8771 0.47353 0.0
H1425 H 0.22891 0.85123 0.50753 0.0
H1426 H 0.21315 0.90834 0.46292 0.0
H1427 H 0.1862 0.88165 0.49562 0.0
N1428 N 0.17004 0.82991 0.50838 0.0
N1429 N 0.17223 0.8288 0.56271 0.0
C1430 C 0.25724 0.37858 0.49023 0.0
C1431 C 0.24971 0.36436 0.46748 0.0
C1432 C 0.24149 0.38036 0.50678 0.0
C1433 C 0.21803 0.36754 0.50104 0.0
C1434 C 0.22643 0.35191 0.46156 0.0
C1435 C 0.21078 0.35347 0.47813 0.0
C1436 C 0.20051 0.36876 0.51767 0.0
C1437 C 0.23219 0.34041 0.57753 0.0
C1438 C 0.2491 0.3589 0.59223 0.0
C1439 C 0.21615 0.34306 0.56228 0.0
C1440 C 0.21656 0.36413 0.5618 0.0
C1441 C 0.24957 0.38006 0.59159 0.0
C1442 C 0.23314 0.38254 0.57681 0.0
C1443 C 0.19945 0.36668 0.54579 0.0
C1444 C 0.10082 0.3337 0.56823 0.0
C1445 C 0.10308 0.34337 0.59387 0.0
C1446 C 0.11997 0.3395 0.5526 0.0
C1447 C 0.14161 0.3567 0.56109 0.0
C1448 C 0.12491 0.35948 0.6031 0.0
C1449 C 0.14387 0.36634 0.58673 0.0
C1450 C 0.1623 0.36311 0.54495 0.0
C1451 C 0.11045 0.36617 0.4887 0.0
C1452 C 0.10999 0.35874 0.46221 0.0
C1453 C 0.12884 0.37086 0.50594 0.0
C1454 C 0.14569 0.36553 0.49812 0.0
C1455 C 0.12836 0.35638 0.45339 0.0
C1456 C 0.14553 0.35906 0.47118 0.0
C1457 C 0.16387 0.36651 0.5166 0.0
H1458 H 0.27521 0.38835 0.49501 0.0
H1459 H 0.24772 0.39198 0.52366 0.0
H1460 H 0.22034 0.34078 0.44416 0.0
H1461 H 0.19286 0.34342 0.47311 0.0
H1462 H 0.23155 0.32397 0.57771 0.0
H1463 H 0.20337 0.32867 0.5509 0.0
H1464 H 0.26256 0.39455 0.60264 0.0
H1465 H 0.23362 0.39891 0.57666 0.0
H1466 H 0.08427 0.32101 0.5607 0.0
H1467 H 0.11779 0.33065 0.53376 0.0
H1468 H 0.12728 0.36684 0.62298 0.0
H1469 H 0.16042 0.37905 0.59426 0.0
H1470 H 0.09658 0.36828 0.49611 0.0
H1471 H 0.1293 0.37791 0.52553 0.0
H1472 H 0.12868 0.35098 0.43303 0.0
H1473 H 0.1584 0.3554 0.46373 0.0
N1474 N 0.18292 0.36898 0.50457 0.0
N1475 N 0.18043 0.36383 0.55826 0.0
C1476 C 0.01319 0.39261 0.09342 0.0
C1477 C 0.00193 0.39119 0.0687 0.0
C1478 C 0.98454 0.41243 0.0879 0.0
C1479 C 0.99754 0.41577 0.11176 0.0
N1480 N 0.02379 0.40912 0.1382 0.0
N1481 N 0.97167 0.39324 0.04492 0.0
C1482 C 0.01152 0.4056 0.11494 0.0
C1483 C 0.98592 0.39905 0.06672 0.0
N1484 N 0.02455 0.38058 0.09646 0.0
N1485 N 0.97181 0.42309 0.08502 0.0
H1486 H 0.97167 0.38286 0.02951 0.0
H1487 H 0.95824 0.39662 0.04321 0.0
H1488 H 0.96968 0.43234 0.10041 0.0
H1489 H 0.96434 0.424 0.067 0.0
H1490 H 0.03212 0.37948 0.11429 0.0
H1491 H 0.02464 0.36983 0.08147 0.0
H1492 H 0.03617 0.40435 0.14105 0.0
H1493 H 0.02218 0.41773 0.15468 0.0
C1494 C 0.62213 0.60095 0.08167 0.0
C1495 C 0.6097 0.60403 0.06024 0.0
C1496 C 0.57386 0.57433 0.07942 0.0
C1497 C 0.58611 0.57203 0.10139 0.0
N1498 N 0.62138 0.58355 0.12497 0.0
N1499 N 0.57369 0.59637 0.04099 0.0
C1500 C 0.61016 0.58534 0.10283 0.0
C1501 C 0.58555 0.59156 0.05989 0.0
N1502 N 0.64537 0.61329 0.08203 0.0
N1503 N 0.55107 0.5594 0.07669 0.0
H1504 H 0.58154 0.60763 0.02524 0.0
H1505 H 0.55623 0.59017 0.04166 0.0
H1506 H 0.54179 0.54671 0.09072 0.0
H1507 H 0.54165 0.55825 0.05949 0.0
H1508 H 0.65569 0.61011 0.09497 0.0
H1509 H 0.65473 0.62642 0.06857 0.0
H1510 H 0.63861 0.59408 0.12892 0.0
H1511 H 0.61313 0.57201 0.14047 0.0
C1512 C 0.40145 0.98861 0.06683 0.0
C1513 C 0.38851 1.00007 0.06761 0.0
C1514 C 0.4061 0.01715 0.11113 0.0
C1515 C 0.41821 0.00488 0.11078 0.0
N1516 N 0.42508 0.97629 0.0907 0.0
N1517 N 0.37451 0.02089 0.09339 0.0
C1518 C 0.41513 0.98977 0.08934 0.0
C1519 C 0.38971 0.01316 0.09058 0.0
N1520 N 0.40144 0.97743 0.044 0.0
N1521 N 0.41057 0.03292 0.13088 0.0
H1522 H 0.36195 0.01802 0.07915 0.0
H1523 H 0.37304 0.0285 0.11084 0.0
H1524 H 0.42195 0.03578 0.14668 0.0
H1525 H 0.40431 0.04434 0.13059 0.0
H1526 H 0.41232 0.97086 0.04079 0.0
H1527 H 0.39205 0.97677 0.02704 0.0
H1528 H 0.42144 0.96302 0.07735 0.0
H1529 H 0.43579 0.97714 0.10645 0.0
C1530 C 0.39122 0.97495 0.95116 0.0
C1531 C 0.38383 0.99133 0.94854 0.0
C1532 C 0.39958 0.00114 0.90337 0.0
C1533 C 0.40881 0.98634 0.90688 0.0
N1534 N 0.40976 0.95558 0.93084 0.0
N1535 N 0.37251 0.01226 0.91901 0.0
C1536 C 0.40337 0.97201 0.92978 0.0
C1537 C 0.38547 0.00212 0.92361 0.0
N1538 N 0.38681 0.9625 0.97421 0.0
N1539 N 0.4049 0.01474 0.88115 0.0
H1540 H 0.36058 0.01117 0.93292 0.0
H1541 H 0.37151 0.01913 0.90059 0.0
H1542 H 0.41453 0.01384 0.86546 0.0
H1543 H 0.40084 0.02775 0.87892 0.0
H1544 H 0.39416 0.95254 0.9794 0.0
H1545 H 0.37526 0.96193 0.98824 0.0
H1546 H 0.40508 0.94337 0.94591 0.0
H1547 H 0.41884 0.9532 0.91558 0.0
C1548 C 0.99953 0.40822 0.95025 0.0
C1549 C 0.00818 0.39282 0.94888 0.0
C1550 C 0.01902 0.40389 0.90193 0.0
C1551 C 0.01212 0.42063 0.90427 0.0
N1552 N 1.0004 0.44215 0.93224 0.0
N1553 N 0.0271 0.37633 0.92394 0.0
C1554 C 0.00359 0.42371 0.92886 0.0
C1555 C 0.01838 0.39088 0.92491 0.0
N1556 N 0.98731 0.40803 0.97198 0.0
N1557 N 0.02506 0.39965 0.87739 0.0
H1558 H 0.02538 0.36512 0.93941 0.0
H1559 H 0.03729 0.37626 0.90849 0.0
H1560 H 0.02557 0.40874 0.86014 0.0
H1561 H 0.02794 0.38607 0.8735 0.0
H1562 H 0.97813 0.41675 0.97264 0.0
H1563 H 0.98532 0.3981 0.98888 0.0
H1564 H 0.99652 0.44665 0.95063 0.0
H1565 H 0.00391 0.45441 0.9174 0.0
C1566 C 0.61046 0.62184 0.91618 0.0
C1567 C 0.60245 0.62141 0.94253 0.0
C1568 C 0.56582 0.61313 0.92302 0.0
C1569 C 0.57123 0.60519 0.89945 0.0
N1570 N 0.60202 0.61908 0.8683 0.0
N1571 N 0.57287 0.62045 0.97041 0.0
C1572 C 0.59474 0.61453 0.89418 0.0
C1573 C 0.58031 0.61843 0.94581 0.0
N1574 N 0.63304 0.62974 0.91231 0.0
N1575 N 0.54961 0.61961 0.92212 0.0
H1576 H 0.5834 0.62601 0.9873 0.0
H1577 H 0.55596 0.61587 0.97388 0.0
H1578 H 0.54215 0.62036 0.90392 0.0
H1579 H 0.54633 0.62738 0.93822 0.0
H1580 H 0.63976 0.62788 0.8944 0.0
H1581 H 0.64501 0.6385 0.9274 0.0
H1582 H 0.61904 0.62731 0.86282 0.0
H1583 H 0.59077 0.61668 0.85247 0.0
C1584 C 0.02195 0.62238 0.9255 0.0
C1585 C 0.01387 0.61326 0.95142 0.0
C1586 C 0.01237 0.57736 0.93835 0.0
C1587 C 0.01811 0.58552 0.91167 0.0
N1588 N 0.02435 0.61437 0.87862 0.0
N1589 N 0.9979 0.5808 0.98118 0.0
C1590 C 0.02207 0.60776 0.90492 0.0
C1591 C 0.00783 0.59028 0.95731 0.0
N1592 N 0.02912 0.64491 0.92032 0.0
N1593 N 0.01232 0.55773 0.94595 0.0
H1594 H 0.99629 0.59032 0.99656 0.0
H1595 H 0.99044 0.56337 0.98523 0.0
H1596 H 0.01684 0.54846 0.93308 0.0
H1597 H 0.01027 0.552 0.96571 0.0
H1598 H 0.03784 0.65319 0.90303 0.0
H1599 H 0.028 0.6559 0.93415 0.0
H1600 H 0.02477 0.62933 0.87213 0.0
H1601 H 0.02365 0.60392 0.86282 0.0
C1602 C 0.38912 0.41583 0.95263 0.0
C1603 C 0.38262 0.39248 0.94846 0.0
C1604 C 0.39622 0.40161 0.90211 0.0
C1605 C 0.40646 0.42528 0.90814 0.0
N1606 N 0.41613 0.4549 0.94135 0.0
N1607 N 0.38164 0.36325 0.9194 0.0
C1608 C 0.4037 0.43243 0.93393 0.0
C1609 C 0.38661 0.38538 0.92319 0.0
N1610 N 0.3816 0.42239 0.9744 0.0
N1611 N 0.39522 0.39464 0.87615 0.0
H1612 H 0.37387 0.35064 0.93393 0.0
H1613 H 0.3866 0.35778 0.90252 0.0
H1614 H 0.4016 0.40608 0.86015 0.0
H1615 H 0.38609 0.37758 0.87018 0.0
H1616 H 0.38424 0.43893 0.97681 0.0
H1617 H 0.37069 0.41099 0.98857 0.0
H1618 H 0.41661 0.46052 0.96093 0.0
H1619 H 0.42783 0.4676 0.92883 0.0
C1620 C 0.5938 0.00678 0.95796 0.0
C1621 C 0.60936 0.99847 0.955 0.0
C1622 C 0.59405 0.98429 0.90981 0.0
C1623 C 0.5793 0.99356 0.91231 0.0
N1624 N 0.56721 0.01658 0.93669 0.0
N1625 N 0.62786 0.98398 0.92603 0.0
C1626 C 0.57982 0.00571 0.9358 0.0
C1627 C 0.6105 0.98851 0.93033 0.0
N1628 N 0.59171 0.01477 0.98238 0.0
N1629 N 0.59201 0.97105 0.88805 0.0
H1630 H 0.64048 0.98709 0.94029 0.0
H1631 H 0.63094 0.97893 0.90754 0.0
H1632 H 0.58055 0.96809 0.87231 0.0
H1633 H 0.60041 0.96161 0.88649 0.0
H1634 H 0.57901 0.01871 0.98681 0.0
H1635 H 0.60137 0.01541 0.99918 0.0
H1636 H 0.56871 0.02784 0.95189 0.0
H1637 H 0.55638 0.01577 0.92111 0.0
C1638 C 0.60995 0.01953 0.07674 0.0
C1639 C 0.60678 0.99725 0.07167 0.0
C1640 C 0.57796 0.9821 0.10685 0.0
C1641 C 0.58319 0.0046 0.11405 0.0
N1642 N 0.60945 0.04508 0.11048 0.0
N1643 N 0.59297 0.95895 0.0892 0.0
C1644 C 0.60095 0.02345 0.10053 0.0
C1645 C 0.59245 0.97903 0.08903 0.0
N1646 N 0.62001 0.03666 0.0583 0.0
N1647 N 0.55854 0.96355 0.11562 0.0
H1648 H 0.60431 0.9563 0.07783 0.0
H1649 H 0.58406 0.94604 0.10314 0.0
H1650 H 0.54643 0.96486 0.12708 0.0
H1651 H 0.55324 0.947 0.10878 0.0
H1652 H 0.62068 0.05242 0.06048 0.0
H1653 H 0.62513 0.03447 0.03945 0.0
H1654 H 0.62371 0.0591 0.10248 0.0
H1655 H 0.60388 0.04851 0.12841 0.0
C1656 C 0.98863 0.59334 0.06882 0.0
C1657 C 0.00792 0.61573 0.06821 0.0
C1658 C 0.02018 0.60941 0.11261 0.0
C1659 C 0.00135 0.58693 0.11277 0.0
N1660 N 0.96507 0.55898 0.09436 0.0
N1661 N 0.03855 0.64703 0.09227 0.0
C1662 C 0.98468 0.57947 0.09201 0.0
C1663 C 0.02262 0.62435 0.09101 0.0
N1664 N 0.97484 0.58464 0.04669 0.0
N1665 N 0.03608 0.61622 0.13281 0.0
H1666 H 0.04082 0.65852 0.07691 0.0
H1667 H 0.04816 0.65499 0.10938 0.0
H1668 H 0.03405 0.60629 0.14982 0.0
H1669 H 0.05174 0.63115 0.13222 0.0
H1670 H 0.9629 0.56742 0.04434 0.0
H1671 H 0.97589 0.59418 0.02977 0.0
H1672 H 0.95099 0.55385 0.08175 0.0
H1673 H 0.96205 0.5477 0.1102 0.0
C1674 C 0.40644 0.41065 0.06104 0.0
C1675 C 0.39121 0.38684 0.06373 0.0
C1676 C 0.40967 0.38651 0.10641 0.0
C1677 C 0.42397 0.41048 0.10438 0.0
N1678 N 0.43445 0.44614 0.08193 0.0
N1679 N 0.37511 0.35301 0.09154 0.0
C1680 C 0.42189 0.42278 0.08231 0.0
C1681 C 0.39194 0.37497 0.08711 0.0
N1682 N 0.40675 0.42144 0.0376 0.0
N1683 N 0.41325 0.37475 0.12661 0.0
H1684 H 0.36164 0.34395 0.07818 0.0
H1685 H 0.37339 0.3443 0.10945 0.0
H1686 H 0.42573 0.38276 0.14145 0.0
H1687 H 0.40512 0.35698 0.12754 0.0
H1688 H 0.41891 0.43816 0.03305 0.0
H1689 H 0.39618 0.41284 0.02136 0.0
H1690 H 0.43184 0.45634 0.06816 0.0
H1691 H 0.44661 0.45561 0.09658 0.0
C1692 C 0.68639 0.73902 0.42075 0.0
C1693 C 0.6693 0.7259 0.40135 0.0
C1694 C 0.64218 0.7316 0.42799 0.0
C1695 C 0.66033 0.74865 0.4435 0.0
N1696 N 0.70114 0.77232 0.44907 0.0
N1697 N 0.63128 0.71427 0.38418 0.0
C1698 C 0.68288 0.75339 0.43847 0.0
C1699 C 0.64716 0.72321 0.40434 0.0
N1700 N 0.7058 0.73752 0.4228 0.0
N1701 N 0.62021 0.72319 0.43588 0.0
H1702 H 0.63444 0.70972 0.36544 0.0
H1703 H 0.61573 0.714 0.385 0.0
H1704 H 0.61597 0.72823 0.45371 0.0
H1705 H 0.60657 0.70943 0.42628 0.0
H1706 H 0.7178 0.74559 0.43809 0.0
H1707 H 0.70852 0.72608 0.41148 0.0
H1708 H 0.71783 0.7772 0.44389 0.0
H1709 H 0.69967 0.78458 0.46029 0.0
C1710 C 0.28789 0.93956 0.42757 0.0
C1711 C 0.27781 0.93856 0.40201 0.0
C1712 C 0.24171 0.90679 0.41749 0.0
C1713 C 0.25105 0.90924 0.44373 0.0
N1714 N 0.28197 0.93025 0.47495 0.0
N1715 N 0.24425 0.92367 0.3738 0.0
C1716 C 0.27395 0.9261 0.44907 0.0
C1717 C 0.2544 0.92304 0.39744 0.0
N1718 N 0.31071 0.95367 0.4315 0.0
N1719 N 0.22111 0.88823 0.41133 0.0
H1720 H 0.25335 0.93381 0.35766 0.0
H1721 H 0.22671 0.91488 0.37065 0.0
H1722 H 0.21174 0.87534 0.4251 0.0
H1723 H 0.21443 0.88431 0.39191 0.0
H1724 H 0.31951 0.95295 0.44845 0.0
H1725 H 0.32132 0.965 0.41703 0.0
H1726 H 0.29762 0.94396 0.4806 0.0
H1727 H 0.27216 0.9212 0.49132 0.0
C1728 C 0.06265 0.35893 0.41903 0.0
C1729 C 0.05655 0.33941 0.40259 0.0
C1730 C 0.08011 0.32962 0.4315 0.0
C1731 C 0.08992 0.35154 0.44381 0.0
N1732 N 0.08993 0.38747 0.44885 0.0
N1733 N 0.06132 0.3069 0.39231 0.0
C1734 C 0.08098 0.36625 0.43755 0.0
C1735 C 0.06568 0.32486 0.40871 0.0
N1736 N 0.0513 0.37098 0.41774 0.0
N1737 N 0.08368 0.31292 0.4424 0.0
H1738 H 0.05101 0.30286 0.37528 0.0
H1739 H 0.06972 0.29743 0.39418 0.0
H1740 H 0.09287 0.31524 0.46021 0.0
H1741 H 0.07527 0.29604 0.43567 0.0
H1742 H 0.03691 0.36646 0.4058 0.0
H1743 H 0.03691 0.36646 0.4058 0.0
H1744 H 0.08326 0.39832 0.445 0.0
H1745 H 0.1048 0.39485 0.4604 0.0
C1746 C 0.03675 0.31314 0.25915 0.0
C1747 C 0.03916 0.30797 0.28609 0.0
C1748 C 0.05805 0.28688 0.27105 0.0
C1749 C 0.06028 0.29668 0.24521 0.0
N1750 N 0.05123 0.31863 0.21388 0.0
N1751 N 0.04863 0.28695 0.31796 0.0
C1752 C 0.04905 0.30927 0.23882 0.0
C1753 C 0.04841 0.29353 0.29206 0.0
N1754 N 0.02233 0.32136 0.25321 0.0
N1755 N 0.06531 0.27135 0.27528 0.0
H1756 H 0.03989 0.29002 0.333 0.0
H1757 H 0.05757 0.27889 0.32462 0.0
H1758 H 0.07225 0.26617 0.26002 0.0
H1759 H 0.06288 0.26229 0.29305 0.0
H1760 H 0.01842 0.32404 0.23371 0.0
H1761 H 0.01235 0.32299 0.26795 0.0
H1762 H 0.04567 0.3302 0.20905 0.0
H1763 H 0.05975 0.31579 0.19833 0.0
C1764 C 0.68824 0.72902 0.26124 0.0
C1765 C 0.67705 0.72985 0.28487 0.0
C1766 C 0.67234 0.76097 0.26559 0.0
C1767 C 0.68547 0.76156 0.24325 0.0
N1768 N 0.70837 0.74843 0.22092 0.0
N1769 N 0.65993 0.7475 0.31085 0.0
C1770 C 0.69416 0.74625 0.24142 0.0
C1771 C 0.66933 0.74597 0.28731 0.0
N1772 N 0.69223 0.71117 0.2571 0.0
N1773 N 0.66239 0.77447 0.26574 0.0
H1774 H 0.65774 0.73699 0.32731 0.0
H1775 H 0.6562 0.76045 0.31513 0.0
H1776 H 0.66481 0.78624 0.25063 0.0
H1777 H 0.65049 0.77302 0.27981 0.0
H1778 H 0.69813 0.70837 0.2391 0.0
H1779 H 0.68784 0.69792 0.27078 0.0
H1780 H 0.71735 0.73952 0.22011 0.0
H1781 H 0.71265 0.76053 0.2057 0.0
C1782 C 0.25256 0.94132 0.28731 0.0
C1783 C 0.27462 0.94352 0.28609 0.0
C1784 C 0.26583 0.92699 0.24063 0.0
C1785 C 0.24289 0.92142 0.24389 0.0
N1786 N 0.21362 0.92173 0.27071 0.0
N1787 N 0.30228 0.93798 0.2616 0.0
C1788 C 0.23609 0.92845 0.26716 0.0
C1789 C 0.28131 0.93636 0.26264 0.0
N1790 N 0.24711 0.95124 0.30771 0.0
N1791 N 0.27279 0.92349 0.2163 0.0
H1792 H 0.31468 0.94586 0.27647 0.0
H1793 H 0.30704 0.93041 0.24668 0.0
H1794 H 0.26176 0.91659 0.19987 0.0
H1795 H 0.28973 0.92928 0.2116 0.0
H1796 H 0.23229 0.9524 0.30783 0.0
H1797 H 0.25803 0.96008 0.32357 0.0
H1798 H 0.20703 0.92353 0.28875 0.0
H1799 H 0.20114 0.91283 0.25615 0.0
C1800 C 0.67424 0.92706 0.28835 0.0
C1801 C 0.68232 0.95077 0.28483 0.0
C1802 C 0.69664 0.94901 0.2402 0.0
C1803 C 0.68794 0.92516 0.24354 0.0
N1804 N 0.66793 0.8913 0.27132 0.0
N1805 N 0.69671 0.98337 0.25513 0.0
C1806 C 0.67662 0.91419 0.26753 0.0
C1807 C 0.69238 0.96155 0.26015 0.0
N1808 N 0.6642 0.91651 0.31183 0.0
N1809 N 0.70951 0.95976 0.21827 0.0
H1810 H 0.69362 0.99311 0.26892 0.0
H1811 H 0.7017 0.9913 0.23653 0.0
H1812 H 0.71258 0.95105 0.20304 0.0
H1813 H 0.71863 0.97746 0.21614 0.0
H1814 H 0.65798 0.89907 0.31508 0.0
H1815 H 0.66273 0.92524 0.32827 0.0
H1816 H 0.66869 0.88024 0.25723 0.0
H1817 H 0.66869 0.88024 0.25723 0.0
C1818 C 0.05567 0.74364 0.28265 0.0
C1819 C 0.0534 0.72139 0.28309 0.0
C1820 C 0.07208 0.72853 0.23928 0.0
C1821 C 0.07494 0.7509 0.23934 0.0
N1822 N 0.0652 0.77815 0.2574 0.0
N1823 N 0.05423 0.69069 0.25907 0.0
C1824 C 0.06518 0.75784 0.25977 0.0
C1825 C 0.05998 0.71324 0.26047 0.0
N1826 N 0.05023 0.75192 0.30474 0.0
N1827 N 0.08162 0.72221 0.21934 0.0
H1828 H 0.04553 0.67904 0.27428 0.0
H1829 H 0.05631 0.68302 0.24204 0.0
H1830 H 0.0893 0.73244 0.20263 0.0
H1831 H 0.08288 0.70738 0.21984 0.0
H1832 H 0.05473 0.76902 0.30721 0.0
H1833 H 0.04231 0.74213 0.32153 0.0
H1834 H 0.05602 0.783 0.26984 0.0
H1835 H 0.07292 0.7895 0.2416 0.0
C1836 C 0.26081 0.33935 0.28949 0.0
C1837 C 0.27256 0.3268 0.29177 0.0
C1838 C 0.25019 0.30262 0.2539 0.0
C1839 C 0.23944 0.31615 0.25068 0.0
N1840 N 0.24137 0.35246 0.25944 0.0
N1841 N 0.28363 0.30161 0.27016 0.0
C1842 C 0.24682 0.33607 0.26669 0.0
C1843 C 0.26892 0.31 0.2721 0.0
N1844 N 0.26241 0.35397 0.30945 0.0
N1845 N 0.24208 0.28231 0.24057 0.0
H1846 H 0.29796 0.30706 0.28246 0.0
H1847 H 0.28292 0.29097 0.25459 0.0
H1848 H 0.22722 0.27518 0.22901 0.0
H1849 H 0.2487 0.27132 0.24324 0.0
H1850 H 0.25234 0.36177 0.30987 0.0
H1851 H 0.27185 0.35626 0.32698 0.0
H1852 H 0.24802 0.36818 0.26921 0.0
H1853 H 0.23254 0.35154 0.24174 0.0
C1854 C 0.28312 0.36849 0.40532 0.0
C1855 C 0.28572 0.3488 0.40851 0.0
C1856 C 0.26893 0.34236 0.45344 0.0
C1857 C 0.26572 0.36152 0.44979 0.0
N1858 N 0.27457 0.39608 0.42602 0.0
N1859 N 0.28617 0.32033 0.43789 0.0
C1860 C 0.27456 0.37572 0.42698 0.0
C1861 C 0.28027 0.33685 0.43339 0.0
N1862 N 0.28723 0.37934 0.38108 0.0
N1863 N 0.26021 0.32887 0.47562 0.0
H1864 H 0.29397 0.31543 0.42347 0.0
H1865 H 0.28504 0.31273 0.45648 0.0
H1866 H 0.25297 0.33314 0.4914 0.0
H1867 H 0.25916 0.31296 0.47793 0.0
H1868 H 0.28268 0.3917 0.37642 0.0
H1869 H 0.29394 0.37513 0.36479 0.0
H1870 H 0.28285 0.40841 0.41133 0.0
H1871 H 0.26799 0.40156 0.44136 0.0
C1872 C 0.69808 0.95098 0.41717 0.0
C1873 C 0.68134 0.95556 0.4058 0.0
C1874 C 0.65397 0.92872 0.43857 0.0
C1875 C 0.66925 0.92036 0.4443 0.0
N1876 N 0.70527 0.92208 0.43616 0.0
N1877 N 0.64525 0.95413 0.41247 0.0
C1878 C 0.69114 0.93109 0.43279 0.0
C1879 C 0.65972 0.94596 0.41848 0.0
N1880 N 0.72066 0.96655 0.4152 0.0
N1881 N 0.63454 0.92089 0.4532 0.0
H1882 H 0.65085 0.97018 0.40389 0.0
H1883 H 0.62805 0.94565 0.41709 0.0
H1884 H 0.63016 0.90868 0.46831 0.0
H1885 H 0.62338 0.92735 0.45179 0.0
H1886 H 0.73332 0.96438 0.42469 0.0
H1887 H 0.72637 0.98314 0.40823 0.0
H1888 H 0.72058 0.92832 0.42595 0.0
H1889 H 0.70074 0.90711 0.44692 0.0
C1890 C 0.07645 0.7461 0.39745 0.0
C1891 C 0.06096 0.72255 0.40141 0.0
C1892 C 0.07332 0.72606 0.44862 0.0
C1893 C 0.09017 0.74907 0.44383 0.0
N1894 N 0.11118 0.77935 0.41219 0.0
N1895 N 0.04572 0.68929 0.43017 0.0
C1896 C 0.09266 0.75866 0.41782 0.0
C1897 C 0.05988 0.71222 0.42676 0.0
N1898 N 0.07576 0.75655 0.37415 0.0
N1899 N 0.06917 0.71786 0.47431 0.0
H1900 H 0.03429 0.67875 0.41552 0.0
H1901 H 0.04641 0.6803 0.44691 0.0
H1902 H 0.07824 0.72759 0.49092 0.0
H1903 H 0.05548 0.70213 0.47957 0.0
H1904 H 0.08457 0.77421 0.37149 0.0
H1905 H 0.06549 0.74758 0.35786 0.0
H1906 H 0.11508 0.78619 0.39293 0.0
H1907 H 0.12403 0.78864 0.42621 0.0
C1908 C 0.32195 0.04882 0.76111 0.0
C1909 C 0.34249 0.0614 0.74644 0.0
C1910 C 0.35076 0.09616 0.77096 0.0
C1911 C 0.32985 0.08422 0.78457 0.0
N1912 N 0.29778 0.04833 0.79739 0.0
N1913 N 0.38119 0.09242 0.75166 0.0
C1914 C 0.31599 0.06022 0.781 0.0
C1915 C 0.35843 0.08374 0.75551 0.0
N1916 N 0.30882 0.02582 0.75705 0.0
N1917 N 0.36325 0.11946 0.77228 0.0
H1918 H 0.38802 0.08234 0.74523 0.0
H1919 H 0.3934 0.10819 0.75938 0.0
H1920 H 0.3581 0.12942 0.78297 0.0
H1921 H 0.37756 0.1289 0.76051 0.0
H1922 H 0.29213 0.01619 0.76348 0.0
H1923 H 0.3151 0.01611 0.74801 0.0
H1924 H 0.28784 0.03062 0.79755 0.0
H1925 H 0.29325 0.05617 0.81229 0.0
C1926 C 0.95897 0.27111 0.76166 0.0
C1927 C 0.94866 0.26985 0.73618 0.0
C1928 C 0.91242 0.23895 0.75263 0.0
C1929 C 0.92303 0.23895 0.77743 0.0
N1930 N 0.95693 0.25312 0.80477 0.0
N1931 N 0.91516 0.25293 0.70757 0.0
C1932 C 0.94647 0.25458 0.78176 0.0
C1933 C 0.92531 0.25399 0.73185 0.0
N1934 N 0.98035 0.28872 0.76705 0.0
N1935 N 0.88983 0.2246 0.74801 0.0
H1936 H 0.92396 0.26287 0.69112 0.0
H1937 H 0.89802 0.24149 0.70369 0.0
H1938 H 0.87874 0.213 0.76201 0.0
H1939 H 0.87874 0.213 0.76201 0.0
H1940 H 0.98797 0.29206 0.786 0.0
H1941 H 0.98999 0.3012 0.75299 0.0
H1942 H 0.97444 0.26215 0.80796 0.0
H1943 H 0.94824 0.24148 0.82004 0.0
C1944 C 0.72494 0.68604 0.75785 0.0
C1945 C 0.72482 0.67508 0.73344 0.0
C1946 C 0.75557 0.66895 0.75129 0.0
C1947 C 0.75642 0.68123 0.77485 0.0
N1948 N 0.74145 0.70167 0.8002 0.0
N1949 N 0.74087 0.6573 0.70585 0.0
C1950 C 0.74121 0.68986 0.77791 0.0
C1951 C 0.74024 0.66662 0.72999 0.0
N1952 N 0.7094 0.69284 0.7631 0.0
N1953 N 0.76912 0.65914 0.74961 0.0
H1954 H 0.73024 0.65576 0.68971 0.0
H1955 H 0.75307 0.65283 0.70079 0.0
H1956 H 0.78107 0.66117 0.76436 0.0
H1957 H 0.76778 0.6479 0.7345 0.0
H1958 H 0.69616 0.69041 0.75012 0.0
H1959 H 0.69616 0.69041 0.75012 0.0
H1960 H 0.75283 0.70549 0.81626 0.0
H1961 H 0.75283 0.70549 0.81626 0.0
C1962 C 0.73481 0.68678 0.59833 0.0
C1963 C 0.72123 0.66945 0.61703 0.0
C1964 C 0.72609 0.64196 0.58949 0.0
C1965 C 0.74348 0.66018 0.57476 0.0
N1966 N 0.76804 0.70115 0.57075 0.0
N1967 N 0.70823 0.63065 0.63266 0.0
C1968 C 0.74884 0.68298 0.5806 0.0
C1969 C 0.71781 0.64695 0.6132 0.0
N1970 N 0.7341 0.70675 0.59699 0.0
N1971 N 0.71726 0.61993 0.58081 0.0
H1972 H 0.70356 0.63366 0.65138 0.0
H1973 H 0.70745 0.61479 0.63134 0.0
H1974 H 0.72226 0.61573 0.56295 0.0
H1975 H 0.70326 0.60629 0.58976 0.0
H1976 H 0.7425 0.71898 0.58217 0.0
H1977 H 0.72301 0.70979 0.60836 0.0
H1978 H 0.77338 0.71796 0.57658 0.0
H1979 H 0.78001 0.6994 0.55952 0.0
C1980 C 0.34919 0.06256 0.60073 0.0
C1981 C 0.33949 0.06401 0.62532 0.0
C1982 C 0.33345 0.09451 0.60658 0.0
C1983 C 0.34541 0.09471 0.58325 0.0
N1984 N 0.367 0.08102 0.55898 0.0
N1985 N 0.32359 0.08208 0.65268 0.0
C1986 C 0.35394 0.07931 0.58056 0.0
C1987 C 0.33179 0.08009 0.62845 0.0
N1988 N 0.35291 0.0446 0.59613 0.0
N1989 N 0.32318 0.1077 0.60747 0.0
H1990 H 0.32223 0.0719 0.66921 0.0
H1991 H 0.32004 0.09509 0.65732 0.0
H1992 H 0.3243 0.11871 0.592 0.0
H1993 H 0.31212 0.10654 0.62252 0.0
H1994 H 0.35771 0.04132 0.57762 0.0
H1995 H 0.34939 0.03173 0.61012 0.0
H1996 H 0.37585 0.07203 0.55733 0.0
H1997 H 0.37051 0.09284 0.54358 0.0
C1998 C 0.93933 0.24173 0.61108 0.0
C1999 C 0.95094 0.26562 0.61683 0.0
C2000 C 0.93065 0.27176 0.57902 0.0
C2001 C 0.91665 0.24777 0.57649 0.0
N2002 N 0.90594 0.20965 0.59158 0.0
N2003 N 0.96496 0.30325 0.59811 0.0
C2004 C 0.92057 0.2327 0.59286 0.0
C2005 C 0.94865 0.28068 0.59842 0.0
N2006 N 0.94726 0.22784 0.62074 0.0
N2007 N 0.92622 0.286 0.56349 0.0
H2008 H 0.97965 0.30968 0.61 0.0
H2009 H 0.96552 0.31497 0.58399 0.0
H2010 H 0.91365 0.28001 0.54854 0.0
H2011 H 0.93392 0.30358 0.56646 0.0
H2012 H 0.94024 0.21069 0.61543 0.0
H2013 H 0.96296 0.23384 0.63021 0.0
H2014 H 0.90609 0.19815 0.60558 0.0
H2015 H 0.89239 0.20216 0.57795 0.0
C2016 C 0.32452 0.25511 0.62434 0.0
C2017 C 0.33674 0.27933 0.62573 0.0
C2018 C 0.35802 0.28049 0.58542 0.0
C2019 C 0.34522 0.25631 0.58374 0.0
N2020 N 0.31649 0.22036 0.60273 0.0
N2021 N 0.36155 0.31535 0.60424 0.0
C2022 C 0.32859 0.24365 0.60328 0.0
C2023 C 0.35264 0.29215 0.60543 0.0
N2024 N 0.30888 0.24268 0.64338 0.0
N2025 N 0.37561 0.29228 0.56819 0.0
H2026 H 0.35772 0.32456 0.61801 0.0
H2027 H 0.3713 0.32537 0.58839 0.0
H2028 H 0.37948 0.28441 0.5527 0.0
H2029 H 0.38742 0.30956 0.57042 0.0
H2030 H 0.29949 0.22485 0.64303 0.0
H2031 H 0.30574 0.2502 0.65977 0.0
H2032 H 0.31838 0.21019 0.58833 0.0
H2033 H 0.31838 0.21019 0.58833 0.0
C2034 C 0.72675 0.0804 0.61701 0.0
C2035 C 0.72489 0.05832 0.61638 0.0
C2036 C 0.74396 0.0672 0.57269 0.0
C2037 C 0.74592 0.08918 0.57355 0.0
N2038 N 0.73506 0.11513 0.59298 0.0
N2039 N 0.72699 0.02888 0.5909 0.0
C2040 C 0.73582 0.09517 0.59451 0.0
C2041 C 0.73205 0.05117 0.59334 0.0
N2042 N 0.7214 0.088 0.63975 0.0
N2043 N 0.75415 0.06191 0.5525 0.0
H2044 H 0.71861 0.01665 0.60566 0.0
H2045 H 0.72935 0.02194 0.57339 0.0
H2046 H 0.76173 0.07265 0.53613 0.0
H2047 H 0.75612 0.04748 0.55253 0.0
H2048 H 0.72547 0.10493 0.64277 0.0
H2049 H 0.71429 0.07795 0.65663 0.0
H2050 H 0.72558 0.11924 0.60588 0.0
H2051 H 0.74236 0.12684 0.5774 0.0
C2052 C 0.9404 0.65543 0.59666 0.0
C2053 C 0.93946 0.66503 0.62167 0.0
C2054 C 0.90986 0.67262 0.60355 0.0
C2055 C 0.90894 0.66054 0.57983 0.0
N2056 N 0.92145 0.63837 0.55447 0.0
N2057 N 0.9226 0.68162 0.64989 0.0
C2058 C 0.92374 0.65141 0.57653 0.0
C2059 C 0.92413 0.67352 0.6253 0.0
N2060 N 0.95773 0.65098 0.59175 0.0
N2061 N 0.89746 0.68368 0.60496 0.0
H2062 H 0.93266 0.6824 0.66635 0.0
H2063 H 0.91005 0.68566 0.65481 0.0
H2064 H 0.88668 0.68323 0.58951 0.0
H2065 H 0.89914 0.69481 0.62041 0.0
H2066 H 0.96067 0.64618 0.57302 0.0
H2067 H 0.97046 0.65391 0.60578 0.0
H2068 H 0.92996 0.62908 0.55232 0.0
H2069 H 0.90967 0.63535 0.5391 0.0
C2070 C 0.91554 0.64326 0.74914 0.0
C2071 C 0.93832 0.65872 0.74166 0.0
C2072 C 0.93962 0.68515 0.77697 0.0
C2073 C 0.91563 0.67187 0.77928 0.0
N2074 N 0.88022 0.63961 0.76455 0.0
N2075 N 0.97409 0.69129 0.75496 0.0
C2076 C 0.90345 0.65136 0.76442 0.0
C2077 C 0.95103 0.67889 0.75748 0.0
N2078 N 0.90601 0.62038 0.74407 0.0
N2079 N 0.95146 0.70313 0.79413 0.0
H2080 H 0.98347 0.68446 0.74641 0.0
H2081 H 0.98407 0.70781 0.76229 0.0
H2082 H 0.94357 0.70798 0.80855 0.0
H2083 H 0.96909 0.71266 0.79524 0.0
H2084 H 0.88987 0.60845 0.75067 0.0
H2085 H 0.91552 0.6129 0.73783 0.0
H2086 H 0.87066 0.62576 0.75185 0.0
H2087 H 0.87055 0.64502 0.7753 0.0
C2088 C 0.3207 0.27971 0.76998 0.0
C2089 C 0.31341 0.27081 0.7437 0.0
C2090 C 0.28649 0.23417 0.76353 0.0
C2091 C 0.29972 0.24067 0.78746 0.0
N2092 N 0.31498 0.27253 0.8179 0.0
N2093 N 0.28581 0.23999 0.71586 0.0
C2094 C 0.31283 0.26452 0.79231 0.0
C2095 C 0.29505 0.24821 0.74054 0.0
N2096 N 0.33466 0.30261 0.7735 0.0
N2097 N 0.26439 0.21722 0.76411 0.0
H2098 H 0.29038 0.25022 0.69883 0.0
H2099 H 0.2741 0.22278 0.7125 0.0
H2100 H 0.25651 0.20986 0.78223 0.0
H2101 H 0.25334 0.21311 0.74768 0.0
H2102 H 0.34297 0.30995 0.79152 0.0
H2103 H 0.33767 0.3142 0.75798 0.0
H2104 H 0.3229 0.2898 0.82292 0.0
H2105 H 0.30641 0.26155 0.83379 0.0
C2106 C 0.74633 0.07749 0.73176 0.0
C2107 C 0.73113 0.05361 0.73367 0.0
C2108 C 0.74736 0.05284 0.77783 0.0
C2109 C 0.76151 0.07687 0.77657 0.0
N2110 N 0.77296 0.11277 0.75421 0.0
N2111 N 0.71377 0.01942 0.76088 0.0
C2112 C 0.76054 0.08941 0.75405 0.0
C2113 C 0.73073 0.04147 0.75733 0.0
N2114 N 0.74778 0.08858 0.70817 0.0
N2115 N 0.75003 0.04086 0.79848 0.0
H2116 H 0.70103 0.01044 0.74666 0.0
H2117 H 0.71117 0.01053 0.77883 0.0
H2118 H 0.76163 0.04872 0.8142 0.0
H2119 H 0.74209 0.02308 0.79898 0.0
H2120 H 0.76007 0.1054 0.70431 0.0
H2121 H 0.73812 0.08019 0.69125 0.0
H2122 H 0.77101 0.12311 0.74 0.0
H2123 H 0.78427 0.12211 0.76965 0.0
C2124 C 0.04683 0.32037 0.04448 0.0
C2125 C 0.05238 0.34373 0.04601 0.0
C2126 C 0.08382 0.35098 0.07673 0.0
C2127 C 0.07586 0.32719 0.07881 0.0
N2128 N 0.04654 0.28869 0.06822 0.0
N2129 N 0.07266 0.3796 0.0706 0.0
C2130 C 0.05638 0.31166 0.06372 0.0
C2131 C 0.06989 0.35861 0.06411 0.0
N2132 N 0.03343 0.30673 0.02404 0.0
N2133 N 0.10498 0.36645 0.08607 0.0
H2134 H 0.0619 0.38557 0.06379 0.0
H2135 H 0.08397 0.38989 0.08554 0.0
H2136 H 0.11633 0.36165 0.09419 0.0
H2137 H 0.11215 0.38399 0.08281 0.0
H2138 H 0.03054 0.29016 0.02098 0.0
H2139 H 0.02749 0.31273 0.00832 0.0
H2140 H 0.03107 0.2769 0.05948 0.0
H2141 H 0.05258 0.28167 0.0827 0.0
C2142 C 0.68836 0.73092 0.04017 0.0
C2143 C 0.67343 0.70942 0.0518 0.0
C2144 C 0.67179 0.72871 0.09283 0.0
C2145 C 0.68413 0.75011 0.07978 0.0
N2146 N 0.70343 0.77205 0.04073 0.0
N2147 N 0.64863 0.68769 0.08811 0.0
C2148 C 0.69233 0.75136 0.05338 0.0
C2149 C 0.66477 0.70822 0.07801 0.0
N2150 N 0.69919 0.73173 0.01685 0.0
N2151 N 0.66675 0.72798 0.11945 0.0
H2152 H 0.64272 0.67219 0.07808 0.0
H2153 H 0.63964 0.68614 0.10554 0.0
H2154 H 0.67087 0.74257 0.13077 0.0
H2155 H 0.66017 0.71312 0.1309 0.0
H2156 H 0.71192 0.74679 0.00855 0.0
H2157 H 0.69691 0.71704 0.00701 0.0
H2158 H 0.7075 0.7739 0.02046 0.0
H2159 H 0.70743 0.78742 0.0502 0.0
C2160 C 0.27102 0.96356 0.05832 0.0
C2161 C 0.2845 0.95499 0.04685 0.0
C2162 C 0.25682 0.91637 0.0615 0.0
C2163 C 0.24539 0.92546 0.07648 0.0
N2164 N 0.24315 0.95831 0.09189 0.0
N2165 N 0.29263 0.92372 0.04316 0.0
C2166 C 0.25282 0.94924 0.07556 0.0
C2167 C 0.278 0.93148 0.04974 0.0
N2168 N 0.27516 0.9851 0.05216 0.0
N2169 N 0.24736 0.89325 0.05829 0.0
H2170 H 0.30905 0.93427 0.03627 0.0
H2171 H 0.28945 0.90722 0.04754 0.0
H2172 H 0.23165 0.88161 0.0663 0.0
H2173 H 0.25394 0.88585 0.04535 0.0
H2174 H 0.26457 0.99149 0.0579 0.0
H2175 H 0.28791 0.99577 0.039 0.0
H2176 H 0.24954 0.97583 0.0942 0.0
H2177 H 0.22983 0.94839 0.10479 0.0
C2178 C 0.35113 0.05809 0.94871 0.0
C2179 C 0.34021 0.04698 0.97298 0.0
C2180 C 0.31452 0.06316 0.96878 0.0
C2181 C 0.32578 0.07446 0.94494 0.0
N2182 N 0.35126 0.07926 0.90902 0.0
N2183 N 0.31391 0.04155 0.00833 0.0
C2184 C 0.34307 0.07093 0.93401 0.0
C2185 C 0.32227 0.04991 0.98342 0.0
N2186 N 0.36991 0.05726 0.94023 0.0
N2187 N 0.29618 0.06487 0.97707 0.0
H2188 H 0.31968 0.03253 0.02011 0.0
H2189 H 0.30249 0.04491 0.01846 0.0
H2190 H 0.29053 0.0749 0.96715 0.0
H2191 H 0.28554 0.05526 0.99255 0.0
H2192 H 0.38048 0.06747 0.92502 0.0
H2193 H 0.3761 0.04748 0.94946 0.0
H2194 H 0.36168 0.0749 0.89824 0.0
H2195 H 0.34616 0.08916 0.89783 0.0
C2196 C 0.95535 0.26816 0.98117 0.0
C2197 C 0.96267 0.28972 0.96885 0.0
C2198 C 0.94107 0.27068 0.92797 0.0
C2199 C 0.93176 0.24938 0.94137 0.0
N2200 N 0.92829 0.22745 0.98117 0.0
N2201 N 0.95941 0.31174 0.93213 0.0
C2202 C 0.93843 0.24799 0.96812 0.0
C2203 C 0.95489 0.29107 0.94257 0.0
N2204 N 0.96516 0.26694 0.00484 0.0
N2205 N 0.93672 0.27146 0.9012 0.0
H2206 H 0.96895 0.32721 0.94213 0.0
H2207 H 0.95189 0.31348 0.91455 0.0
H2208 H 0.92589 0.25702 0.88993 0.0
H2209 H 0.94529 0.28615 0.88959 0.0
H2210 H 0.96226 0.25163 0.01356 0.0
H2211 H 0.97778 0.28137 0.01469 0.0
H2212 H 0.93043 0.22567 1.0016 0.0
H2213 H 0.91656 0.21222 0.97183 0.0
C2214 C 0.70161 0.64501 0.94075 0.0
C2215 C 0.70115 0.6555 0.96542 0.0
C2216 C 0.74205 0.6828 0.96109 0.0
C2217 C 0.74278 0.67092 0.93801 0.0
N2218 N 0.72398 0.63973 0.90667 0.0
N2219 N 0.72196 0.68169 1.00155 0.0
C2220 C 0.72273 0.65181 0.92803 0.0
C2221 C 0.72161 0.67386 0.97615 0.0
N2222 N 0.68178 0.62895 0.92894 0.0
N2223 N 0.76094 0.70264 0.96867 0.0
H2224 H 0.70778 0.67497 0.01387 0.0
H2225 H 0.7368 0.69331 0.01154 0.0
H2226 H 0.77637 0.70923 0.95865 0.0
H2227 H 0.76085 0.71352 0.98344 0.0
H2228 H 0.68067 0.62315 0.90934 0.0
H2229 H 0.66597 0.62236 0.93785 0.0
H2230 H 0.71081 0.62379 0.90079 0.0
H2231 H 0.73873 0.64496 0.8956 0.0
C2232 C 0.95461 0.68363 0.97518 0.0
C2233 C 0.96023 0.66792 0.96322 0.0
C2234 C 0.93546 0.66352 0.9246 0.0
C2235 C 0.92821 0.67748 0.93776 0.0
N2236 N 0.92883 0.69911 0.97653 0.0
N2237 N 0.9534 0.64003 0.92872 0.0
C2238 C 0.93721 0.68707 0.96335 0.0
C2239 C 0.95008 0.65719 0.9384 0.0
N2240 N 0.96656 0.69594 0.99722 0.0
N2241 N 0.92852 0.65646 0.89878 0.0
H2242 H 0.96364 0.63453 0.93836 0.0
H2243 H 0.94444 0.62979 0.9124 0.0
H2244 H 0.91716 0.66003 0.88828 0.0
H2245 H 0.93532 0.64859 0.88699 0.0
H2246 H 0.96497 0.70935 0.00526 0.0
H2247 H 0.97957 0.69405 0.00621 0.0
H2248 H 0.93272 0.70429 0.99646 0.0
H2249 H 0.9167 0.70266 0.96804 0.0
C2250 C 0.32829 0.29275 0.94452 0.0
C2251 C 0.32763 0.29212 0.97289 0.0
C2252 C 0.31116 0.25042 0.9718 0.0
C2253 C 0.31579 0.25175 0.94392 0.0
N2254 N 0.32951 0.27418 0.90348 0.0
N2255 N 0.31656 0.27069 0.01399 0.0
C2256 C 0.32426 0.27287 0.93008 0.0
C2257 C 0.31825 0.27097 0.98667 0.0
N2258 N 0.3323 0.31229 0.93147 0.0
N2259 N 0.29974 0.22948 0.98382 0.0
H2260 H 0.31998 0.28524 0.02503 0.0
H2261 H 0.31247 0.25641 0.02583 0.0
H2262 H 0.2943 0.2142 0.97335 0.0
H2263 H 0.29413 0.227 0.00354 0.0
H2264 H 0.33114 0.31342 0.91072 0.0
H2265 H 0.33444 0.32675 0.94175 0.0
H2266 H 0.33816 0.28955 0.89309 0.0
H2267 H 0.32663 0.26 0.89208 0.0
C2268 C 0.73021 0.04135 0.97379 0.0
C2269 C 0.71557 0.04957 0.98282 0.0
C2270 C 0.7464 0.08859 0.97599 0.0
C2271 C 0.75766 0.08029 0.95943 0.0
N2272 N 0.76892 0.05155 0.96284 0.0
N2273 N 0.71013 0.08217 0.99116 0.0
C2274 C 0.75212 0.05722 0.9638 0.0
C2275 C 0.72384 0.07352 0.98388 0.0
N2276 N 0.72341 0.01856 0.97498 0.0
N2277 N 0.75828 0.10952 0.98786 0.0
H2278 H 0.69298 0.07201 0.99561 0.0
H2279 H 0.71549 0.09962 0.99005 0.0
H2280 H 0.77596 0.11914 0.98646 0.0
H2281 H 0.75111 0.11547 0.00197 0.0
H2282 H 0.73204 0.01135 0.96542 0.0
H2283 H 0.70877 0.00672 0.98482 0.0
H2284 H 0.76666 0.03555 0.96814 0.0
H2285 H 0.78592 0.06399 0.96038 0.0
C2286 C 0.67608 0.94673 0.03464 0.0
C2287 C 0.66388 0.95616 0.04728 0.0
C2288 C 0.66681 0.94016 0.09062 0.0
C2289 C 0.67666 0.92852 0.07731 0.0
N2290 N 0.69077 0.9202 0.03711 0.0
N2291 N 0.64891 0.96391 0.08702 0.0
C2292 C 0.68151 0.93182 0.04945 0.0
C2293 C 0.65982 0.95364 0.0753 0.0
N2294 N 0.68281 0.95245 0.00864 0.0
N2295 N 0.66416 0.93822 0.11787 0.0
H2296 H 0.64531 0.97535 0.07676 0.0
H2297 H 0.64297 0.96096 0.10659 0.0
H2298 H 0.66819 0.92775 0.12955 0.0
H2299 H 0.65898 0.94766 0.12939 0.0
H2300 H 0.6935 0.94792 0.99875 0.0
H2301 H 0.67914 0.96342 0.99744 0.0
H2302 H 0.69231 0.9196 0.01642 0.0
H2303 H 0.69606 0.91011 0.04758 0.0
C2304 C 0.06566 0.73262 0.02683 0.0
C2305 C 0.04926 0.71192 0.03856 0.0
C2306 C 0.05649 0.73121 0.08222 0.0
C2307 C 0.07594 0.75032 0.0714 0.0
N2308 N 0.10029 0.76855 0.03351 0.0
N2309 N 0.02807 0.69121 0.07742 0.0
C2310 C 0.08077 0.75099 0.04364 0.0
C2311 C 0.04416 0.71119 0.06624 0.0
N2312 N 0.06615 0.73496 0.99959 0.0
N2313 N 0.04961 0.73243 0.10756 0.0
H2314 H 0.01787 0.67656 0.06615 0.0
H2315 H 0.02562 0.68873 0.09802 0.0
H2316 H 0.05813 0.74695 0.11963 0.0
H2317 H 0.03439 0.71998 0.11572 0.0
H2318 H 0.07656 0.7503 0.98981 0.0
H2319 H 0.05405 0.72222 0.98713 0.0
H2320 H 0.10574 0.76855 0.01403 0.0
H2321 H 0.11205 0.78222 0.04515 0.0
C2322 C 0.27167 0.31425 0.0641 0.0
C2323 C 0.2847 0.33609 0.05213 0.0
C2324 C 0.25713 0.34709 0.06793 0.0
C2325 C 0.24603 0.32657 0.08298 0.0
N2326 N 0.24569 0.29251 0.09949 0.0
N2327 N 0.29242 0.37523 0.04825 0.0
C2328 C 0.25411 0.31064 0.08221 0.0
C2329 C 0.27812 0.35306 0.05545 0.0
N2330 N 0.27544 0.29668 0.05744 0.0
N2331 N 0.2474 0.36065 0.06497 0.0
H2332 H 0.30857 0.38085 0.04052 0.0
H2333 H 0.28928 0.38856 0.05279 0.0
H2334 H 0.23179 0.35664 0.07332 0.0
H2335 H 0.25369 0.37459 0.05198 0.0
H2336 H 0.26498 0.27989 0.06366 0.0
H2337 H 0.28744 0.29832 0.04333 0.0
H2338 H 0.25263 0.28174 0.1016 0.0
H2339 H 0.23328 0.28958 0.11362 0.0
C2340 C 0.71806 0.65474 0.36622 0.0
C2341 C 0.70917 0.66774 0.37825 0.0
C2342 C 0.72569 0.66638 0.42173 0.0
C2343 C 0.73523 0.65398 0.4096 0.0
N2344 N 0.73674 0.63194 0.37252 0.0
N2345 N 0.69856 0.6801 0.41814 0.0
C2346 C 0.73012 0.64667 0.38249 0.0
C2347 C 0.71107 0.67166 0.4063 0.0
N2348 N 0.71558 0.65082 0.33917 0.0
N2349 N 0.7315 0.67408 0.44756 0.0
H2350 H 0.68736 0.68368 0.40728 0.0
H2351 H 0.69755 0.68147 0.43882 0.0
H2352 H 0.74174 0.67014 0.45978 0.0
H2353 H 0.72736 0.68556 0.4564 0.0
H2354 H 0.72388 0.64386 0.32848 0.0
H2355 H 0.70578 0.65544 0.32706 0.0
H2356 H 0.73199 0.62434 0.35366 0.0
H2357 H 0.74562 0.62585 0.38407 0.0
C2358 C 0.32249 0.04233 0.41397 0.0
C2359 C 0.33288 0.04389 0.38882 0.0
C2360 C 0.35138 0.08578 0.39091 0.0
C2361 C 0.34227 0.08413 0.41687 0.0
N2362 N 0.32232 0.06129 0.45517 0.0
N2363 N 0.35995 0.0668 0.35517 0.0
C2364 C 0.32885 0.06252 0.42905 0.0
C2365 C 0.34806 0.06556 0.37772 0.0
N2366 N 0.30556 0.02168 0.4228 0.0
N2367 N 0.36289 0.10665 0.37874 0.0
H2368 H 0.35808 0.05235 0.34516 0.0
H2369 H 0.37301 0.08203 0.34762 0.0
H2370 H 0.36636 0.12186 0.38823 0.0
H2371 H 0.36771 0.10878 0.35871 0.0
H2372 H 0.2956 0.01986 0.43941 0.0
H2373 H 0.29986 0.00648 0.41218 0.0
H2374 H 0.31491 0.04617 0.46618 0.0
H2375 H 0.32594 0.07566 0.46666 0.0
C2376 C 0.93236 0.29653 0.37973 0.0
C2377 C 0.95377 0.30225 0.39136 0.0
C2378 C 0.935 0.2817 0.43251 0.0
C2379 C 0.91362 0.27324 0.41933 0.0
N2380 N 0.89134 0.27219 0.38071 0.0
N2381 N 0.97579 0.29912 0.42816 0.0
C2382 C 0.91211 0.28072 0.39308 0.0
C2383 C 0.95524 0.29493 0.41779 0.0
N2384 N 0.93153 0.30661 0.35617 0.0
N2385 N 0.93597 0.27681 0.45902 0.0
H2386 H 0.99118 0.30893 0.4185 0.0
H2387 H 0.9776 0.29157 0.44563 0.0
H2388 H 0.92165 0.26614 0.47018 0.0
H2389 H 0.95078 0.28472 0.47064 0.0
H2390 H 0.9166 0.30485 0.34764 0.0
H2391 H 0.94615 0.31848 0.34624 0.0
H2392 H 0.88913 0.27471 0.36051 0.0
H2393 H 0.87613 0.26157 0.39047 0.0
C2394 C 0.01187 0.38086 0.27259 0.0
C2395 C 0.00858 0.37814 0.30071 0.0
C2396 C 0.9962 0.40691 0.30086 0.0
C2397 C 0.99799 0.40837 0.27245 0.0
N2398 N 0.00168 0.39232 0.23084 0.0
N2399 N 0.99393 0.38553 0.34117 0.0
C2400 C 0.00393 0.39387 0.25817 0.0
C2401 C 0.99931 0.39001 0.31465 0.0
N2402 N 0.02342 0.37183 0.25975 0.0
N2403 N 0.99306 0.42259 0.31487 0.0
H2404 H 0.99696 0.37409 0.35231 0.0
H2405 H 0.98487 0.39181 0.35157 0.0
H2406 H 0.99126 0.4356 0.30569 0.0
H2407 H 0.99423 0.42399 0.33571 0.0
H2408 H 0.02833 0.37526 0.23976 0.0
H2409 H 0.02999 0.36266 0.26975 0.0
H2410 H 0.00378 0.38045 0.21961 0.0
H2411 H 0.99543 0.40127 0.21968 0.0
C2412 C 0.61273 0.62683 0.27326 0.0
C2413 C 0.62141 0.62462 0.29854 0.0
C2414 C 0.59864 0.58284 0.29528 0.0
C2415 C 0.59149 0.58513 0.26909 0.0
N2416 N 0.59408 0.60885 0.23133 0.0
N2417 N 0.62539 0.60088 0.33219 0.0
C2418 C 0.59929 0.60701 0.25752 0.0
C2419 C 0.61505 0.6027 0.30927 0.0
N2420 N 0.61639 0.64779 0.26485 0.0
N2421 N 0.58947 0.56171 0.3069 0.0
H2422 H 0.63749 0.61505 0.3429 0.0
H2423 H 0.62335 0.58544 0.3395 0.0
H2424 H 0.57805 0.54674 0.29687 0.0
H2425 H 0.59196 0.55912 0.32699 0.0
H2426 H 0.60844 0.65015 0.24807 0.0
H2427 H 0.62571 0.66272 0.27599 0.0
H2428 H 0.60149 0.6242 0.22078 0.0
H2429 H 0.58365 0.59475 0.21935 0.0
C2430 C 0.3704 0.99224 0.2822 0.0
C2431 C 0.37265 0.99435 0.31047 0.0
C2432 C 0.4139 0.01022 0.30679 0.0
C2433 C 0.41094 0.00431 0.27911 0.0
N2434 N 0.3861 0.98808 0.24055 0.0
N2435 N 0.3963 0.00676 0.35014 0.0
C2436 C 0.38915 0.99511 0.26673 0.0
C2437 C 0.39441 0.00396 0.32291 0.0
N2438 N 0.35045 0.9881 0.27015 0.0
N2439 N 0.43538 0.02224 0.3174 0.0
H2440 H 0.38262 0.00408 0.36207 0.0
H2441 H 0.41109 0.01096 0.36104 0.0
H2442 H 0.44993 0.02719 0.30603 0.0
H2443 H 0.43895 0.02888 0.33679 0.0
H2444 H 0.34833 0.98841 0.24944 0.0
H2445 H 0.33673 0.98671 0.28104 0.0
H2446 H 0.37016 0.97886 0.23142 0.0
H2447 H 0.39936 0.98985 0.22845 0.0
C2448 C 0.62061 0.0171 0.31353 0.0
C2449 C 0.62754 0.00245 0.3014 0.0
C2450 C 0.60284 0.99727 0.26243 0.0
C2451 C 0.59431 0.01008 0.27571 0.0
N2452 N 0.59304 0.03039 0.31479 0.0
N2453 N 0.62232 0.97529 0.26657 0.0
C2454 C 0.60263 0.01951 0.30155 0.0
C2455 C 0.61798 0.99175 0.27636 0.0
N2456 N 0.63182 0.02937 0.33591 0.0
N2457 N 0.59658 0.9905 0.23639 0.0
H2458 H 0.63283 0.9702 0.27634 0.0
H2459 H 0.61384 0.96505 0.25005 0.0
H2460 H 0.58491 0.99349 0.22573 0.0
H2461 H 0.60431 0.98354 0.2246 0.0
H2462 H 0.62921 0.0421 0.34416 0.0
H2463 H 0.64518 0.02817 0.34504 0.0
H2464 H 0.59646 0.03536 0.33483 0.0
H2465 H 0.58045 0.03319 0.30618 0.0
C2466 C 1.00024 0.62473 0.28493 0.0
C2467 C 0.00475 0.62456 0.31281 0.0
C2468 C 1.00043 0.58633 0.30893 0.0
C2469 C 0.99636 0.58654 0.28093 0.0
N2470 N 0.98647 0.60295 0.24351 0.0
N2471 N 1.00041 0.60238 0.35241 0.0
C2472 C 0.99436 0.60484 0.2693 0.0
C2473 C 0.00213 0.60444 0.32516 0.0
N2474 N 0.00225 0.64408 0.27326 0.0
N2475 N 0.00375 0.56949 0.31987 0.0
H2476 H 1.00007 0.61491 0.36441 0.0
H2477 H 0.99664 0.58736 0.36259 0.0
H2478 H 0.00286 0.55598 0.30868 0.0
H2479 H 0.0092 0.56994 0.33962 0.0
H2480 H 0.0021 0.64636 0.2526 0.0
H2481 H 0.00523 0.65848 0.28428 0.0
H2482 H 0.98258 0.61468 0.23462 0.0
H2483 H 0.98189 0.58853 0.23165 0.0
C2484 C 0.3997 0.38365 0.31115 0.0
C2485 C 0.37777 0.37655 0.30006 0.0
C2486 C 0.39492 0.39616 0.25788 0.0
C2487 C 0.41676 0.40531 0.27001 0.0
N2488 N 0.44037 0.40953 0.3086 0.0
N2489 N 0.35434 0.37877 0.26437 0.0
C2490 C 0.41929 0.39951 0.29678 0.0
C2491 C 0.3753 0.38333 0.27371 0.0
N2492 N 0.40176 0.3746 0.33497 0.0
N2493 N 0.39294 0.39969 0.23115 0.0
H2494 H 0.33949 0.3698 0.27535 0.0
H2495 H 0.35183 0.38559 0.24669 0.0
H2496 H 0.40686 0.4097 0.21906 0.0
H2497 H 0.37768 0.39124 0.22041 0.0
H2498 H 0.41721 0.37725 0.34287 0.0
H2499 H 0.38776 0.36276 0.34583 0.0
H2500 H 0.44312 0.40816 0.32897 0.0
H2501 H 0.45517 0.42044 0.29831 0.0
C2502 C 0.34094 0.2819 0.37335 0.0
C2503 C 0.33357 0.29556 0.3869 0.0
C2504 C 0.33782 0.28086 0.43026 0.0
C2505 C 0.34457 0.26659 0.41681 0.0
N2506 N 0.3581 0.25752 0.37667 0.0
N2507 N 0.3332 0.31442 0.42755 0.0
C2508 C 0.3479 0.26839 0.38862 0.0
C2509 C 0.33465 0.29708 0.4152 0.0
N2510 N 0.34089 0.28161 0.34593 0.0
N2511 N 0.33329 0.27815 0.45711 0.0
H2512 H 0.33208 0.32716 0.41667 0.0
H2513 H 0.3357 0.31762 0.4481 0.0
H2514 H 0.3352 0.26633 0.46893 0.0
H2515 H 0.32592 0.28636 0.46724 0.0
H2516 H 0.34332 0.27 0.33463 0.0
H2517 H 0.33751 0.29262 0.33435 0.0
H2518 H 0.36284 0.25964 0.35662 0.0
H2519 H 0.36359 0.24772 0.38744 0.0
C2520 C 0.73496 0.06951 0.36159 0.0
C2521 C 0.7196 0.04838 0.37347 0.0
C2522 C 0.7274 0.06711 0.41751 0.0
C2523 C 0.74562 0.08709 0.40627 0.0
N2524 N 0.76857 0.10643 0.36776 0.0
N2525 N 0.70219 0.0263 0.4133 0.0
C2526 C 0.74981 0.08816 0.37827 0.0
C2527 C 0.71588 0.04699 0.40158 0.0
N2528 N 0.73488 0.07188 0.33437 0.0
N2529 N 0.72082 0.06752 0.44325 0.0
H2530 H 0.69307 0.0112 0.40239 0.0
H2531 H 0.70111 0.02383 0.434 0.0
H2532 H 0.72867 0.08209 0.45535 0.0
H2533 H 0.70626 0.05421 0.45167 0.0
H2534 H 0.74439 0.08743 0.32458 0.0
H2535 H 0.72324 0.05877 0.32194 0.0
H2536 H 0.77369 0.1069 0.34802 0.0
H2537 H 0.78019 0.12026 0.3793 0.0
C2538 C 0.95819 0.67745 0.41326 0.0
C2539 C 0.95644 0.66645 0.38832 0.0
C2540 C 0.9148 0.64742 0.39047 0.0
C2541 C 0.91665 0.6573 0.41615 0.0
N2542 N 0.93969 0.67855 0.45417 0.0
N2543 N 0.93348 0.63821 0.35516 0.0
C2544 C 0.93824 0.67126 0.42825 0.0
C2545 C 0.93483 0.65069 0.37741 0.0
N2546 N 0.97875 0.6948 0.42193 0.0
N2547 N 0.89392 0.63525 0.37841 0.0
H2548 H 0.9478 0.64003 0.34526 0.0
H2549 H 0.91834 0.62475 0.34777 0.0
H2550 H 0.87884 0.63172 0.38787 0.0
H2551 H 0.89158 0.62985 0.3585 0.0
H2552 H 0.98067 0.7052 0.43831 0.0
H2553 H 0.99378 0.70037 0.41138 0.0
H2554 H 0.95484 0.6864 0.46519 0.0
H2555 H 0.92551 0.67515 0.46554 0.0
C2556 C 0.39454 0.99928 0.69982 0.0
C2557 C 0.3797 0.00518 0.71293 0.0
C2558 C 0.39043 0.99563 0.75623 0.0
C2559 C 0.40838 0.99417 0.74355 0.0
N2560 N 0.42919 0.99715 0.70315 0.0
N2561 N 0.36424 0.01047 0.75405 0.0
C2562 C 0.41078 0.99643 0.71523 0.0
C2563 C 0.37759 0.0035 0.74127 0.0
N2564 N 0.39275 0.99596 0.67269 0.0
N2565 N 0.38549 0.98919 0.78245 0.0
H2566 H 0.35424 0.01599 0.74387 0.0
H2567 H 0.36426 0.01225 0.77481 0.0
H2568 H 0.39434 0.98297 0.79385 0.0
H2569 H 0.37126 0.98786 0.79203 0.0
H2570 H 0.4019 0.98982 0.66219 0.0
H2571 H 0.38012 0.99683 0.66129 0.0
H2572 H 0.43289 0.00118 0.68295 0.0
H2573 H 0.44188 0.99578 0.7137 0.0
C2574 C 0.01953 0.39455 0.70331 0.0
C2575 C 0.99745 0.37514 0.7029 0.0
C2576 C 0.98188 0.3997 0.71668 0.0
C2577 C 0.0042 0.41748 0.72287 0.0
N2578 N 0.03943 0.43544 0.69884 0.0
N2579 N 0.95701 0.35925 0.70925 0.0
C2580 C 0.02219 0.41629 0.70997 0.0
C2581 C 0.97838 0.37778 0.70914 0.0
N2582 N 0.03799 0.39248 0.6969 0.0
N2583 N 0.96453 0.40458 0.715 0.0
H2584 H 0.9536 0.34282 0.70408 0.0
H2585 H 0.94296 0.35991 0.71659 0.0
H2586 H 0.96741 0.42126 0.71725 0.0
H2587 H 0.94825 0.39295 0.7081 0.0
H2588 H 0.05461 0.40583 0.69937 0.0
H2589 H 0.03657 0.37703 0.69082 0.0
H2590 H 0.05221 0.43526 0.68747 0.0
H2591 H 0.0383 0.45032 0.69665 0.0
C2592 C 0.59811 0.61707 0.70511 0.0
C2593 C 0.61955 0.62348 0.71724 0.0
C2594 C 0.60061 0.60183 0.7577 0.0
C2595 C 0.57926 0.59371 0.74463 0.0
N2596 N 0.55734 0.59119 0.705 0.0
N2597 N 0.64129 0.61846 0.7529 0.0
C2598 C 0.5779 0.60063 0.71803 0.0
C2599 C 0.62084 0.615 0.74301 0.0
N2600 N 0.59703 0.62741 0.68186 0.0
N2601 N 0.60157 0.59717 0.7843 0.0
H2602 H 0.65648 0.62738 0.74251 0.0
H2603 H 0.64293 0.61061 0.7702 0.0
H2604 H 0.58714 0.58706 0.79563 0.0
H2605 H 0.6165 0.60485 0.79573 0.0
H2606 H 0.5819 0.62529 0.6735 0.0
H2607 H 0.61144 0.63967 0.672 0.0
H2608 H 0.55549 0.5935 0.68463 0.0
H2609 H 0.54213 0.57972 0.71418 0.0
C2610 C 0.6704 0.71451 0.61244 0.0
C2611 C 0.66643 0.71268 0.64043 0.0
C2612 C 0.64653 0.7348 0.636 0.0
C2613 C 0.65379 0.73969 0.60898 0.0
N2614 N 0.67363 0.73537 0.57143 0.0
N2615 N 0.65012 0.71994 0.6793 0.0
C2616 C 0.66576 0.72963 0.59705 0.0
C2617 C 0.65405 0.72227 0.65232 0.0
N2618 N 0.67818 0.70139 0.60058 0.0
N2619 N 0.63227 0.74199 0.64582 0.0
H2620 H 0.65426 0.70977 0.6914 0.0
H2621 H 0.64364 0.72872 0.68995 0.0
H2622 H 0.62655 0.7512 0.63426 0.0
H2623 H 0.62468 0.7374 0.66455 0.0
H2624 H 0.6795 0.70032 0.5799 0.0
H2625 H 0.68123 0.68979 0.61135 0.0
H2626 H 0.68481 0.73082 0.5628 0.0
H2627 H 0.67022 0.74602 0.55924 0.0
C2628 C 0.29373 0.9438 0.6359 0.0
C2629 C 0.2861 0.95819 0.64719 0.0
C2630 C 0.24716 0.93104 0.63277 0.0
C2631 C 0.25546 0.91889 0.61768 0.0
N2632 N 0.28725 0.91516 0.60234 0.0
N2633 N 0.25581 0.96733 0.65224 0.0
C2634 C 0.27891 0.92554 0.61868 0.0
C2635 C 0.26283 0.95222 0.64482 0.0
N2636 N 0.31494 0.94722 0.64218 0.0
N2637 N 0.22428 0.92224 0.63579 0.0
H2638 H 0.26671 0.98353 0.65999 0.0
H2639 H 0.23954 0.96471 0.64813 0.0
H2640 H 0.2123 0.90661 0.62747 0.0
H2641 H 0.21734 0.92925 0.64877 0.0
H2642 H 0.32063 0.93599 0.63654 0.0
H2643 H 0.32597 0.95997 0.65541 0.0
H2644 H 0.30456 0.92104 0.60006 0.0
H2645 H 0.27699 0.90178 0.58937 0.0
C2646 C 0.06022 0.34417 0.64312 0.0
C2647 C 0.04359 0.32067 0.64395 0.0
C2648 C 0.06805 0.31208 0.616 0.0
C2649 C 0.08275 0.33575 0.61145 0.0
N2650 N 0.08895 0.37429 0.61617 0.0
N2651 N 0.02921 0.28331 0.62343 0.0
C2652 C 0.07772 0.35186 0.62366 0.0
C2653 C 0.04674 0.30489 0.62812 0.0
N2654 N 0.06018 0.35895 0.66173 0.0
N2655 N 0.07464 0.29641 0.60985 0.0
H2656 H 0.01267 0.2778 0.62975 0.0
H2657 H 0.03054 0.272 0.61027 0.0
H2658 H 0.0908 0.301 0.6028 0.0
H2659 H 0.065 0.27917 0.61489 0.0
H2660 H 0.073 0.37596 0.66313 0.0
H2661 H 0.04899 0.35333 0.67778 0.0
H2662 H 0.08447 0.38616 0.62309 0.0
H2663 H 0.10091 0.38042 0.60088 0.0
C2664 C 0.28436 0.3543 0.65017 0.0
C2665 C 0.29544 0.34395 0.63678 0.0
C2666 C 0.28087 0.34969 0.5938 0.0
C2667 C 0.2665 0.35589 0.60767 0.0
N2668 N 0.2523 0.36102 0.64989 0.0
N2669 N 0.30029 0.3277 0.59559 0.0
C2670 C 0.26771 0.35754 0.63611 0.0
C2671 C 0.29289 0.34073 0.60846 0.0
N2672 N 0.2901 0.36153 0.67613 0.0
N2673 N 0.28315 0.35246 0.56661 0.0
H2674 H 0.30777 0.31929 0.60536 0.0
H2675 H 0.29665 0.32307 0.57544 0.0
H2676 H 0.27491 0.35938 0.55527 0.0
H2677 H 0.29504 0.35018 0.55587 0.0
H2678 H 0.284 0.37102 0.68605 0.0
H2679 H 0.30289 0.36029 0.68668 0.0
H2680 H 0.251 0.35993 0.67072 0.0
H2681 H 0.23943 0.36289 0.6405 0.0
C2682 C 0.65995 0.9385 0.65211 0.0
C2683 C 0.67018 0.96031 0.63981 0.0
C2684 C 0.66785 0.94316 0.59588 0.0
C2685 C 0.65816 0.92127 0.60812 0.0
N2686 N 0.63985 0.89722 0.64621 0.0
N2687 N 0.67612 0.98248 0.59972 0.0
C2688 C 0.65257 0.91866 0.63579 0.0
C2689 C 0.67163 0.96233 0.61155 0.0
N2690 N 0.65766 0.93687 0.67936 0.0
N2691 N 0.67463 0.9459 0.56974 0.0
H2692 H 0.67818 0.99654 0.61082 0.0
H2693 H 0.67543 0.98448 0.57904 0.0
H2694 H 0.67239 0.93236 0.55751 0.0
H2695 H 0.68412 0.96185 0.56079 0.0
H2696 H 0.65297 0.92189 0.69008 0.0
H2697 H 0.66125 0.95093 0.69144 0.0
H2698 H 0.63351 0.89402 0.66562 0.0
H2699 H 0.634 0.88243 0.63462 0.0
C2700 C 0.04952 0.73796 0.64565 0.0
C2701 C 0.0438 0.71457 0.64726 0.0
C2702 C 0.07589 0.72243 0.61806 0.0
C2703 C 0.08239 0.74599 0.61798 0.0
N2704 N 0.07895 0.77694 0.63741 0.0
N2705 N 0.05505 0.68601 0.6406 0.0
C2706 C 0.07036 0.75399 0.6337 0.0
C2707 C 0.05809 0.70726 0.63516 0.0
N2708 N 0.03446 0.74475 0.65368 0.0
N2709 N 0.08597 0.71431 0.60097 0.0
H2710 H 0.04272 0.67489 0.65382 0.0
H2711 H 0.06622 0.68047 0.63442 0.0
H2712 H 0.09896 0.72479 0.58798 0.0
H2713 H 0.08013 0.69694 0.59805 0.0
H2714 H 0.03687 0.7611 0.65013 0.0
H2715 H 0.01849 0.73363 0.66136 0.0
H2716 H 0.07207 0.78368 0.65086 0.0
H2717 H 0.09428 0.78917 0.62913 0.0
C2718 C 0.97488 0.59941 0.72851 0.0
C2719 C 0.9901 0.61647 0.71065 0.0
C2720 C 0.0202 0.6085 0.72595 0.0
C2721 C 0.0039 0.58926 0.74054 0.0
N2722 N 0.96406 0.56264 0.74788 0.0
N2723 N 0.02614 0.63346 0.68805 0.0
C2724 C 0.98071 0.58353 0.73941 0.0
C2725 C 0.01254 0.62005 0.70815 0.0
N2726 N 0.95528 0.5989 0.73616 0.0
N2727 N 0.04288 0.61621 0.72961 0.0
H2728 H 0.02039 0.64074 0.67361 0.0
H2729 H 0.04198 0.6351 0.68401 0.0
H2730 H 0.04916 0.60868 0.7431 0.0
H2731 H 0.05539 0.63138 0.72119 0.0
H2732 H 0.94466 0.58774 0.7508 0.0
H2733 H 0.95123 0.61145 0.7306 0.0
H2734 H 0.9468 0.55726 0.74535 0.0
H2735 H 0.96739 0.54976 0.75434 0.0
C2736 C 0.38003 0.39033 0.71151 0.0
C2737 C 0.37599 0.36938 0.72354 0.0
C2738 C 0.39813 0.3903 0.76349 0.0
C2739 C 0.40299 0.41114 0.75096 0.0
N2740 N 0.39603 0.43155 0.71566 0.0
N2741 N 0.38427 0.34976 0.75918 0.0
C2742 C 0.3931 0.4113 0.72575 0.0
C2743 C 0.38577 0.36944 0.74911 0.0
N2744 N 0.37303 0.39037 0.68561 0.0
N2745 N 0.40471 0.39043 0.78962 0.0
H2746 H 0.3751 0.33388 0.74999 0.0
H2747 H 0.39357 0.34929 0.77575 0.0
H2748 H 0.41401 0.40541 0.80075 0.0
H2749 H 0.39929 0.37575 0.80119 0.0
H2750 H 0.37736 0.40507 0.67453 0.0
H2751 H 0.36418 0.37561 0.67406 0.0
H2752 H 0.38735 0.43287 0.69897 0.0
H2753 H 0.40617 0.44724 0.72511 0.0
C2754 C 0.62799 0.01526 0.7433 0.0
C2755 C 0.62619 0.0034 0.71906 0.0
C2756 C 0.5846 0.98311 0.72219 0.0
C2757 C 0.58656 0.99388 0.7473 0.0
N2758 N 0.60979 0.01746 0.78394 0.0
N2759 N 0.60345 0.97381 0.68715 0.0
C2760 C 0.60818 0.00911 0.75853 0.0
C2761 C 0.60465 0.98673 0.7089 0.0
N2762 N 0.64852 0.03317 0.75112 0.0
N2763 N 0.56358 0.96978 0.71089 0.0
H2764 H 0.61781 0.97611 0.6769 0.0
H2765 H 0.58849 0.95973 0.68043 0.0
H2766 H 0.54854 0.96612 0.72053 0.0
H2767 H 0.56102 0.96351 0.69135 0.0
H2768 H 0.65048 0.04418 0.76685 0.0
H2769 H 0.66345 0.0384 0.74047 0.0
H2770 H 0.62508 0.02645 0.79448 0.0
H2771 H 0.59564 0.01393 0.79547 0.0
loop_
_geom_bond_atom_site_label_1
_geom_bond_atom_site_label_2
_geom_bond_distance
_geom_bond_site_symmetry_2
_ccdc_geom_bond_type
Mn0 O5 2.095 1_655 S
Mn0 O15 2.162 . S
Mn0 O16 2.297 1_554 S
Mn0 O24 2.385 1_554 S
Mn0 O25 2.209 1_654 S
Mn0 O26 2.094 . S
Mn1 O6 2.121 . S
Mn1 N8 2.257 1_554 S
Mn1 N17 2.282 . S
Mn1 O25 2.215 1_554 S
Mn1 O27 2.117 . S
C2 O24 1.234 1_455 S
C2 O25 1.283 . S
C3 O15 1.281 1_556 S
C3 O16 1.236 . S
C4 O26 1.240 . S
C4 O27 1.264 1_655 S
O5 Mn0 2.095 1_455 S
O5 C14 1.250 . S
O6 Mn1 2.121 . S
O6 C14 1.258 . S
C7 N8 1.326 . S
C7 C11 1.460 . S
C7 H13 0.929 . S
N8 Mn1 2.257 1_556 S
N8 C7 1.326 . S
N8 C12 1.362 . S
C9 C10 1.258 . S
C9 C12 1.431 . S
C9 C29 1.449 . S
C10 C9 1.258 . S
C10 C11 1.477 . S
C10 H30 0.931 . S
C11 C7 1.460 . S
C11 C10 1.477 . S
C11 H31 0.930 . S
C12 N8 1.362 . S
C12 C9 1.431 . S
C12 C22 1.476 . S
H13 C7 0.929 . S
C14 O5 1.250 . S
C14 O6 1.258 . S
O15 Mn0 2.162 . S
O15 C3 1.281 1_554 S
O16 Mn0 2.297 1_556 S
O16 C3 1.236 . S
N17 Mn1 2.282 . S
N17 C18 1.328 . S
N17 C22 1.318 1_554 S
C18 N17 1.328 . S
C18 C19 1.457 1_554 S
C18 H23 0.929 . S
C19 C18 1.457 1_556 S
C19 C20 1.291 . S
C19 H32 0.931 . S
C20 C19 1.291 . S
C20 C21 1.373 . S
C20 H33 0.929 . S
C21 C20 1.373 . S
C21 C22 1.396 . S
C21 C28 1.403 . S
C22 C12 1.476 . S
C22 N17 1.318 1_556 S
C22 C21 1.396 . S
H23 C18 0.929 . S
O24 Mn0 2.385 1_556 S
O24 C2 1.234 1_655 S
O25 Mn0 2.209 1_456 S
O25 Mn1 2.215 1_556 S
O25 C2 1.283 . S
O26 Mn0 2.094 . S
O26 C4 1.240 . S
O27 Mn1 2.117 . S
O27 C4 1.264 1_455 S
C28 C21 1.403 . S
C28 C29 1.399 . S
C28 H34 0.929 . S
C29 C9 1.449 . S
C29 C28 1.399 . S
C29 H35 0.930 . S
H30 C10 0.931 . S
H31 C11 0.930 . S
H32 C19 0.931 . S
H33 C20 0.929 . S
H34 C28 0.929 . S
H35 C29 0.930 . S
Mn36 O41 2.095 1_554 S
Mn36 O51 2.162 . S
Mn36 O52 2.297 . S
Mn36 O60 2.385 . S
Mn36 O61 2.209 . S
Mn36 O62 2.094 1_554 S
Mn37 O42 2.121 . S
Mn37 N44 2.257 1_556 S
Mn37 N53 2.282 1_556 S
Mn37 O61 2.215 1_556 S
Mn37 O63 2.117 . S
C38 O60 1.234 . S
C38 O61 1.283 . S
C39 O51 1.281 . S
C39 O52 1.236 . S
C40 O62 1.240 . S
C40 O63 1.264 . S
O41 Mn36 2.095 1_556 S
O41 C50 1.250 . S
O42 Mn37 2.121 . S
O42 C50 1.258 . S
C43 N44 1.326 . S
C43 C47 1.460 . S
C43 H49 0.929 . S
N44 Mn37 2.257 1_554 S
N44 C43 1.326 . S
N44 C48 1.362 . S
C45 C46 1.258 . S
C45 C48 1.431 . S
C45 C65 1.449 . S
C46 C45 1.258 . S
C46 C47 1.477 . S
C46 H66 0.931 . S
C47 C43 1.460 . S
C47 C46 1.477 . S
C47 H67 0.930 . S
C48 N44 1.362 . S
C48 C45 1.431 . S
C48 C58 1.476 . S
H49 C43 0.929 . S
C50 O41 1.250 . S
C50 O42 1.258 . S
O51 Mn36 2.162 . S
O51 C39 1.281 . S
O52 Mn36 2.297 . S
O52 C39 1.236 . S
N53 Mn37 2.282 1_554 S
N53 C54 1.328 . S
N53 C58 1.318 . S
C54 N53 1.328 . S
C54 C55 1.457 . S
C54 H59 0.929 1_554 S
C55 C54 1.457 . S
C55 C56 1.291 . S
C55 H68 0.931 . S
C56 C55 1.291 . S
C56 C57 1.373 . S
C56 H69 0.929 . S
C57 C56 1.373 . S
C57 C58 1.396 . S
C57 C64 1.403 . S
C58 C48 1.476 . S
C58 N53 1.318 . S
C58 C57 1.396 . S
H59 C54 0.929 1_556 S
O60 Mn36 2.385 . S
O60 C38 1.234 . S
O61 Mn36 2.209 . S
O61 Mn37 2.215 1_554 S
O61 C38 1.283 . S
O62 Mn36 2.094 1_556 S
O62 C40 1.240 . S
O63 Mn37 2.117 . S
O63 C40 1.264 . S
C64 C57 1.403 . S
C64 C65 1.399 . S
C64 H70 0.929 . S
C65 C45 1.449 . S
C65 C64 1.399 . S
C65 H71 0.930 . S
H66 C46 0.931 . S
H67 C47 0.930 . S
H68 C55 0.931 . S
H69 C56 0.929 . S
H70 C64 0.929 . S
H71 C65 0.930 . S
Mn72 O77 2.095 1_564 S
Mn72 O87 2.162 . S
Mn72 O88 2.297 . S
Mn72 O96 2.385 . S
Mn72 O97 2.209 1_565 S
Mn72 O98 2.094 1_554 S
Mn73 O78 2.116 1_554 S
Mn73 N80 2.279 . S
Mn73 N89 2.295 . S
Mn73 O97 2.238 . S
Mn73 O99 2.096 1_554 S
C74 O96 1.234 1_545 S
C74 O97 1.283 . S
C75 O87 1.281 . S
C75 O88 1.236 . S
C76 O98 1.240 . S
C76 O99 1.264 1_565 S
O77 Mn72 2.095 1_546 S
O77 C86 1.250 . S
O78 Mn73 2.116 1_556 S
O78 C86 1.258 . S
C79 N80 1.326 . S
C79 C83 1.460 . S
C79 H85 0.929 . S
N80 Mn73 2.279 . S
N80 C79 1.326 . S
N80 C84 1.362 . S
C81 C82 1.258 . S
C81 C84 1.431 . S
C81 C101 1.449 . S
C82 C81 1.258 . S
C82 C83 1.477 . S
C82 H102 0.931 . S
C83 C79 1.460 . S
C83 C82 1.477 . S
C83 H103 0.930 . S
C84 N80 1.362 . S
C84 C81 1.431 . S
C84 C94 1.476 . S
H85 C79 0.929 . S
C86 O77 1.250 . S
C86 O78 1.258 . S
O87 Mn72 2.162 . S
O87 C75 1.281 . S
O88 Mn72 2.297 . S
O88 C75 1.236 . S
N89 Mn73 2.295 . S
N89 C90 1.328 . S
N89 C94 1.318 . S
C90 N89 1.328 . S
C90 C91 1.457 . S
C90 H95 0.951 . S
C91 C90 1.457 . S
C91 C92 1.291 . S
C91 H104 0.931 . S
C92 C91 1.291 . S
C92 C93 1.373 . S
C92 H105 0.929 . S
C93 C92 1.373 . S
C93 C94 1.396 . S
C93 C100 1.403 . S
C94 C84 1.476 . S
C94 N89 1.318 . S
C94 C93 1.396 . S
H95 C90 0.951 . S
O96 Mn72 2.385 . S
O96 C74 1.234 1_565 S
O97 Mn72 2.209 1_545 S
O97 Mn73 2.238 . S
O97 C74 1.283 . S
O98 Mn72 2.094 1_556 S
O98 C76 1.240 . S
O99 Mn73 2.096 1_556 S
O99 C76 1.264 1_545 S
C100 C93 1.403 . S
C100 C101 1.399 . S
C100 H106 0.929 . S
C101 C81 1.449 . S
C101 C100 1.399 . S
C101 H107 0.930 . S
H102 C82 0.931 . S
H103 C83 0.930 . S
H104 C91 0.931 . S
H105 C92 0.929 . S
H106 C100 0.929 . S
H107 C101 0.930 . S
Mn108 O113 2.095 1_655 S
Mn108 O123 2.162 . S
Mn108 O124 2.297 1_554 S
Mn108 O132 2.385 1_554 S
Mn108 O133 2.209 1_654 S
Mn108 O134 2.094 . S
Mn109 O114 2.121 . S
Mn109 N116 2.257 1_554 S
Mn109 N125 2.282 . S
Mn109 O133 2.215 1_554 S
Mn109 O135 2.117 . S
C110 O132 1.234 1_455 S
C110 O133 1.283 . S
C111 O123 1.281 1_556 S
C111 O124 1.236 . S
C112 O134 1.240 . S
C112 O135 1.264 1_655 S
O113 Mn108 2.095 1_455 S
O113 C122 1.250 . S
O114 Mn109 2.121 . S
O114 C122 1.258 . S
C115 N116 1.326 . S
C115 C119 1.460 . S
C115 H121 0.929 . S
N116 Mn109 2.257 1_556 S
N116 C115 1.326 . S
N116 C120 1.362 . S
C117 C118 1.258 . S
C117 C120 1.431 . S
C117 C137 1.449 . S
C118 C117 1.258 . S
C118 C119 1.477 . S
C118 H138 0.931 . S
C119 C115 1.460 . S
C119 C118 1.477 . S
C119 H139 0.930 . S
C120 N116 1.362 . S
C120 C117 1.431 . S
C120 C130 1.476 . S
H121 C115 0.929 . S
C122 O113 1.250 . S
C122 O114 1.258 . S
O123 Mn108 2.162 . S
O123 C111 1.281 1_554 S
O124 Mn108 2.297 1_556 S
O124 C111 1.236 . S
N125 Mn109 2.282 . S
N125 C126 1.328 . S
N125 C130 1.318 1_554 S
C126 N125 1.328 . S
C126 C127 1.457 1_554 S
C126 H131 0.929 . S
C127 C126 1.457 1_556 S
C127 C128 1.291 . S
C127 H140 0.931 . S
C128 C127 1.291 . S
C128 C129 1.373 . S
C128 H141 0.929 . S
C129 C128 1.373 . S
C129 C130 1.396 . S
C129 C136 1.403 . S
C130 C120 1.476 . S
C130 N125 1.318 1_556 S
C130 C129 1.396 . S
H131 C126 0.929 . S
O132 Mn108 2.385 1_556 S
O132 C110 1.234 1_655 S
O133 Mn108 2.209 1_456 S
O133 Mn109 2.215 1_556 S
O133 C110 1.283 . S
O134 Mn108 2.094 . S
O134 C112 1.240 . S
O135 Mn109 2.117 . S
O135 C112 1.264 1_455 S
C136 C129 1.403 . S
C136 C137 1.399 . S
C136 H142 0.929 . S
C137 C117 1.449 . S
C137 C136 1.399 . S
C137 H143 0.930 . S
H138 C118 0.931 . S
H139 C119 0.930 . S
H140 C127 0.931 . S
H141 C128 0.929 . S
H142 C136 0.929 . S
H143 C137 0.930 . S
Mn144 O149 2.095 1_554 S
Mn144 O159 2.162 . S
Mn144 O160 2.297 . S
Mn144 O168 2.385 . S
Mn144 O169 2.209 . S
Mn144 O170 2.094 1_554 S
Mn145 O150 2.121 . S
Mn145 N152 2.257 1_556 S
Mn145 N161 2.282 1_556 S
Mn145 O169 2.215 1_556 S
Mn145 O171 2.117 . S
C146 O168 1.234 . S
C146 O169 1.283 . S
C147 O159 1.281 . S
C147 O160 1.236 . S
C148 O170 1.240 . S
C148 O171 1.264 . S
O149 Mn144 2.095 1_556 S
O149 C158 1.250 . S
O150 Mn145 2.121 . S
O150 C158 1.258 . S
C151 N152 1.326 . S
C151 C155 1.460 . S
C151 H157 0.929 . S
N152 Mn145 2.257 1_554 S
N152 C151 1.326 . S
N152 C156 1.362 . S
C153 C154 1.258 . S
C153 C156 1.431 . S
C153 C173 1.449 . S
C154 C153 1.258 . S
C154 C155 1.477 . S
C154 H174 0.931 . S
C155 C151 1.460 . S
C155 C154 1.477 . S
C155 H175 0.930 . S
C156 N152 1.362 . S
C156 C153 1.431 . S
C156 C166 1.476 . S
H157 C151 0.929 . S
C158 O149 1.250 . S
C158 O150 1.258 . S
O159 Mn144 2.162 . S
O159 C147 1.281 . S
O160 Mn144 2.297 . S
O160 C147 1.236 . S
N161 Mn145 2.282 1_554 S
N161 C162 1.328 . S
N161 C166 1.318 . S
C162 N161 1.328 . S
C162 C163 1.457 . S
C162 H167 0.929 1_554 S
C163 C162 1.457 . S
C163 C164 1.291 . S
C163 H176 0.931 . S
C164 C163 1.291 . S
C164 C165 1.373 . S
C164 H177 0.929 . S
C165 C164 1.373 . S
C165 C166 1.396 . S
C165 C172 1.403 . S
C166 C156 1.476 . S
C166 N161 1.318 . S
C166 C165 1.396 . S
H167 C162 0.929 1_556 S
O168 Mn144 2.385 . S
O168 C146 1.234 . S
O169 Mn144 2.209 . S
O169 Mn145 2.215 1_554 S
O169 C146 1.283 . S
O170 Mn144 2.094 1_556 S
O170 C148 1.240 . S
O171 Mn145 2.117 . S
O171 C148 1.264 . S
C172 C165 1.403 . S
C172 C173 1.399 . S
C172 H178 0.929 . S
C173 C153 1.449 . S
C173 C172 1.399 . S
C173 H179 0.930 . S
H174 C154 0.931 . S
H175 C155 0.930 . S
H176 C163 0.931 . S
H177 C164 0.929 . S
H178 C172 0.929 . S
H179 C173 0.930 . S
Mn180 O185 2.095 1_545 S
Mn180 O195 2.162 . S
Mn180 O196 2.297 1_554 S
Mn180 O204 2.385 1_554 S
Mn180 O205 2.209 1_544 S
Mn180 O206 2.094 . S
Mn181 O186 2.121 . S
Mn181 N188 2.257 1_554 S
Mn181 N197 2.282 . S
Mn181 O205 2.215 1_554 S
Mn181 O207 2.117 . S
C182 O204 1.234 1_565 S
C182 O205 1.283 . S
C183 O195 1.281 1_556 S
C183 O196 1.236 . S
C184 O206 1.240 . S
C184 O207 1.264 1_545 S
O185 Mn180 2.095 1_565 S
O185 C194 1.250 . S
O186 Mn181 2.121 . S
O186 C194 1.258 . S
C187 N188 1.326 . S
C187 C191 1.460 . S
C187 H193 0.929 . S
N188 Mn181 2.257 1_556 S
N188 C187 1.326 . S
N188 C192 1.362 . S
C189 C190 1.258 . S
C189 C192 1.431 . S
C189 C209 1.449 . S
C190 C189 1.258 . S
C190 C191 1.477 . S
C190 H210 0.931 . S
C191 C187 1.460 . S
C191 C190 1.477 . S
C191 H211 0.930 . S
C192 N188 1.362 . S
C192 C189 1.431 . S
C192 C202 1.476 . S
H193 C187 0.929 . S
C194 O185 1.250 . S
C194 O186 1.258 . S
O195 Mn180 2.162 . S
O195 C183 1.281 1_554 S
O196 Mn180 2.297 1_556 S
O196 C183 1.236 . S
N197 Mn181 2.282 . S
N197 C198 1.328 . S
N197 C202 1.318 1_554 S
C198 N197 1.328 . S
C198 C199 1.457 1_554 S
C198 H203 0.929 . S
C199 C198 1.457 1_556 S
C199 C200 1.291 . S
C199 H212 0.931 . S
C200 C199 1.291 . S
C200 C201 1.373 . S
C200 H213 0.929 . S
C201 C200 1.373 . S
C201 C202 1.396 . S
C201 C208 1.403 . S
C202 C192 1.476 . S
C202 N197 1.318 1_556 S
C202 C201 1.396 . S
H203 C198 0.929 . S
O204 Mn180 2.385 1_556 S
O204 C182 1.234 1_545 S
O205 Mn180 2.209 1_566 S
O205 Mn181 2.215 1_556 S
O205 C182 1.283 . S
O206 Mn180 2.094 . S
O206 C184 1.240 . S
O207 Mn181 2.117 . S
O207 C184 1.264 1_565 S
C208 C201 1.403 . S
C208 C209 1.399 . S
C208 H214 0.929 . S
C209 C189 1.449 . S
C209 C208 1.399 . S
C209 H215 0.930 . S
H210 C190 0.931 . S
H211 C191 0.930 . S
H212 C199 0.931 . S
H213 C200 0.929 . S
H214 C208 0.929 . S
H215 C209 0.930 . S
Mn216 O221 2.095 . S
Mn216 O231 2.162 . S
Mn216 O232 2.297 . S
Mn216 O240 2.385 . S
Mn216 O241 2.209 . S
Mn216 O242 2.094 . S
Mn217 O222 2.121 . S
Mn217 N224 2.257 . S
Mn217 N233 2.282 . S
Mn217 O241 2.215 . S
Mn217 O243 2.117 . S
C218 O240 1.234 . S
C218 O241 1.283 . S
C219 O231 1.281 . S
C219 O232 1.236 . S
C220 O242 1.240 . S
C220 O243 1.264 . S
O221 Mn216 2.095 . S
O221 C230 1.250 . S
O222 Mn217 2.121 . S
O222 C230 1.258 . S
C223 N224 1.326 . S
C223 C227 1.460 . S
C223 H229 0.929 . S
N224 Mn217 2.257 . S
N224 C223 1.326 . S
N224 C228 1.362 . S
C225 C226 1.258 . S
C225 C228 1.431 . S
C225 C245 1.449 . S
C226 C225 1.258 . S
C226 C227 1.477 . S
C226 H246 0.931 . S
C227 C223 1.460 . S
C227 C226 1.477 . S
C227 H247 0.930 . S
C228 N224 1.362 . S
C228 C225 1.431 . S
C228 C238 1.476 . S
H229 C223 0.929 . S
C230 O221 1.250 . S
C230 O222 1.258 . S
O231 Mn216 2.162 . S
O231 C219 1.281 . S
O232 Mn216 2.297 . S
O232 C219 1.236 . S
N233 Mn217 2.282 . S
N233 C234 1.328 . S
N233 C238 1.318 . S
C234 N233 1.328 . S
C234 C235 1.457 . S
C234 H239 0.929 . S
C235 C234 1.457 . S
C235 C236 1.291 . S
C235 H248 0.931 . S
C236 C235 1.291 . S
C236 C237 1.373 . S
C236 H249 0.929 . S
C237 C236 1.373 . S
C237 C238 1.396 . S
C237 C244 1.403 . S
C238 C228 1.476 . S
C238 N233 1.318 . S
C238 C237 1.396 . S
H239 C234 0.929 . S
O240 Mn216 2.385 . S
O240 C218 1.234 . S
O241 Mn216 2.209 . S
O241 Mn217 2.215 . S
O241 C218 1.283 . S
O242 Mn216 2.094 . S
O242 C220 1.240 . S
O243 Mn217 2.117 . S
O243 C220 1.264 . S
C244 C237 1.403 . S
C244 C245 1.399 . S
C244 H250 0.929 . S
C245 C225 1.449 . S
C245 C244 1.399 . S
C245 H251 0.930 . S
H246 C226 0.931 . S
H247 C227 0.930 . S
H248 C235 0.931 . S
H249 C236 0.929 . S
H250 C244 0.929 . S
H251 C245 0.930 . S
Mn252 O257 2.095 . S
Mn252 O267 2.162 1_565 S
Mn252 O268 2.297 1_565 S
Mn252 O276 2.385 . S
Mn252 O277 2.209 . S
Mn252 O278 2.094 . S
Mn253 O258 2.121 . S
Mn253 N260 2.257 . S
Mn253 N269 2.282 . S
Mn253 O277 2.215 . S
Mn253 O279 2.117 . S
C254 O276 1.234 . S
C254 O277 1.283 . S
C255 O267 1.281 . S
C255 O268 1.236 . S
C256 O278 1.240 . S
C256 O279 1.264 . S
O257 Mn252 2.095 . S
O257 C266 1.250 . S
O258 Mn253 2.121 . S
O258 C266 1.258 . S
C259 N260 1.326 . S
C259 C263 1.460 . S
C259 H265 0.929 . S
N260 Mn253 2.257 . S
N260 C259 1.326 . S
N260 C264 1.362 . S
C261 C262 1.258 . S
C261 C264 1.431 . S
C261 C281 1.449 . S
C262 C261 1.258 . S
C262 C263 1.477 . S
C262 H282 0.931 . S
C263 C259 1.460 . S
C263 C262 1.477 . S
C263 H283 0.930 . S
C264 N260 1.362 . S
C264 C261 1.431 . S
C264 C274 1.476 . S
H265 C259 0.929 . S
C266 O257 1.250 . S
C266 O258 1.258 . S
O267 Mn252 2.162 1_545 S
O267 C255 1.281 . S
O268 Mn252 2.297 1_545 S
O268 C255 1.236 . S
N269 Mn253 2.282 . S
N269 C270 1.328 . S
N269 C274 1.318 . S
C270 N269 1.328 . S
C270 C271 1.457 . S
C270 H275 0.929 . S
C271 C270 1.457 . S
C271 C272 1.291 . S
C271 H284 0.931 . S
C272 C271 1.291 . S
C272 C273 1.373 . S
C272 H285 0.929 . S
C273 C272 1.373 . S
C273 C274 1.396 . S
C273 C280 1.403 . S
C274 C264 1.476 . S
C274 N269 1.318 . S
C274 C273 1.396 . S
H275 C270 0.929 . S
O276 Mn252 2.385 . S
O276 C254 1.234 . S
O277 Mn252 2.209 . S
O277 Mn253 2.215 . S
O277 C254 1.283 . S
O278 Mn252 2.094 . S
O278 C256 1.240 . S
O279 Mn253 2.117 . S
O279 C256 1.264 . S
C280 C273 1.403 . S
C280 C281 1.399 . S
C280 H286 0.929 . S
C281 C261 1.449 . S
C281 C280 1.399 . S
C281 H287 0.930 . S
H282 C262 0.931 . S
H283 C263 0.930 . S
H284 C271 0.931 . S
H285 C272 0.929 . S
H286 C280 0.929 . S
H287 C281 0.930 . S
Mn288 O293 2.095 . S
Mn288 O303 2.162 1_455 S
Mn288 O304 2.297 1_455 S
Mn288 O312 2.385 . S
Mn288 O313 2.209 . S
Mn288 O314 2.094 . S
Mn289 O294 2.121 . S
Mn289 N296 2.257 . S
Mn289 N305 2.282 . S
Mn289 O313 2.215 . S
Mn289 O315 2.117 . S
C290 O312 1.234 . S
C290 O313 1.283 . S
C291 O303 1.281 . S
C291 O304 1.236 . S
C292 O314 1.240 . S
C292 O315 1.264 . S
O293 Mn288 2.095 . S
O293 C302 1.250 . S
O294 Mn289 2.121 . S
O294 C302 1.258 . S
C295 N296 1.326 . S
C295 C299 1.460 . S
C295 H301 0.929 . S
N296 Mn289 2.257 . S
N296 C295 1.326 . S
N296 C300 1.362 . S
C297 C298 1.258 . S
C297 C300 1.431 . S
C297 C317 1.449 . S
C298 C297 1.258 . S
C298 C299 1.477 . S
C298 H318 0.931 . S
C299 C295 1.460 . S
C299 C298 1.477 . S
C299 H319 0.930 . S
C300 N296 1.362 . S
C300 C297 1.431 . S
C300 C310 1.476 . S
H301 C295 0.929 . S
C302 O293 1.250 . S
C302 O294 1.258 . S
O303 Mn288 2.162 1_655 S
O303 C291 1.281 . S
O304 Mn288 2.297 1_655 S
O304 C291 1.236 . S
N305 Mn289 2.282 . S
N305 C306 1.328 . S
N305 C310 1.318 . S
C306 N305 1.328 . S
C306 C307 1.457 . S
C306 H311 0.929 . S
C307 C306 1.457 . S
C307 C308 1.291 . S
C307 H320 0.931 . S
C308 C307 1.291 . S
C308 C309 1.373 . S
C308 H321 0.929 . S
C309 C308 1.373 . S
C309 C310 1.396 . S
C309 C316 1.403 . S
C310 C300 1.476 . S
C310 N305 1.318 . S
C310 C309 1.396 . S
H311 C306 0.929 . S
O312 Mn288 2.385 . S
O312 C290 1.234 . S
O313 Mn288 2.209 . S
O313 Mn289 2.215 . S
O313 C290 1.283 . S
O314 Mn288 2.094 . S
O314 C292 1.240 . S
O315 Mn289 2.117 . S
O315 C292 1.264 . S
C316 C309 1.403 . S
C316 C317 1.399 . S
C316 H322 0.929 . S
C317 C297 1.449 . S
C317 C316 1.399 . S
C317 H323 0.930 . S
H318 C298 0.931 . S
H319 C299 0.930 . S
H320 C307 0.931 . S
H321 C308 0.929 . S
H322 C316 0.929 . S
H323 C317 0.930 . S
Mn324 O329 2.095 1_565 S
Mn324 O339 2.162 . S
Mn324 O340 2.297 . S
Mn324 O348 2.385 . S
Mn324 O349 2.209 . S
Mn324 O350 2.094 . S
Mn325 O330 2.121 1_565 S
Mn325 N332 2.257 . S
Mn325 N341 2.282 . S
Mn325 O349 2.215 . S
Mn325 O351 2.117 . S
C326 O348 1.234 . S
C326 O349 1.283 . S
C327 O339 1.281 . S
C327 O340 1.236 . S
C328 O350 1.240 . S
C328 O351 1.264 . S
O329 Mn324 2.095 1_545 S
O329 C338 1.250 . S
O330 Mn325 2.121 1_545 S
O330 C338 1.258 . S
C331 N332 1.326 1_545 S
C331 C335 1.460 . S
C331 H337 0.929 . S
N332 Mn325 2.257 . S
N332 C331 1.326 1_565 S
N332 C336 1.362 . S
C333 C334 1.258 1_565 S
C333 C336 1.431 . S
C333 C353 1.449 . S
C334 C333 1.258 1_545 S
C334 C335 1.477 . S
C334 H354 0.931 . S
C335 C331 1.460 . S
C335 C334 1.477 . S
C335 H355 0.930 . S
C336 N332 1.362 . S
C336 C333 1.431 . S
C336 C346 1.476 . S
H337 C331 0.929 . S
C338 O329 1.250 . S
C338 O330 1.258 . S
O339 Mn324 2.162 . S
O339 C327 1.281 . S
O340 Mn324 2.297 . S
O340 C327 1.236 . S
N341 Mn325 2.282 . S
N341 C342 1.328 . S
N341 C346 1.318 . S
C342 N341 1.328 . S
C342 C343 1.457 . S
C342 H347 0.929 . S
C343 C342 1.457 . S
C343 C344 1.291 . S
C343 H356 0.931 . S
C344 C343 1.291 . S
C344 C345 1.373 . S
C344 H357 0.929 . S
C345 C344 1.373 . S
C345 C346 1.396 . S
C345 C352 1.403 . S
C346 C336 1.476 . S
C346 N341 1.318 . S
C346 C345 1.396 . S
H347 C342 0.929 . S
O348 Mn324 2.385 . S
O348 C326 1.234 . S
O349 Mn324 2.209 . S
O349 Mn325 2.215 . S
O349 C326 1.283 . S
O350 Mn324 2.094 . S
O350 C328 1.240 . S
O351 Mn325 2.117 . S
O351 C328 1.264 . S
C352 C345 1.403 . S
C352 C353 1.399 . S
C352 H358 0.929 . S
C353 C333 1.449 . S
C353 C352 1.399 . S
C353 H359 0.930 . S
H354 C334 0.931 . S
H355 C335 0.930 . S
H356 C343 0.931 . S
H357 C344 0.929 . S
H358 C352 0.929 . S
H359 C353 0.930 . S
Mn360 O365 2.095 . S
Mn360 O375 2.162 1_455 S
Mn360 O376 2.297 1_455 S
Mn360 O384 2.385 . S
Mn360 O385 2.209 . S
Mn360 O386 2.094 . S
Mn361 O366 2.121 . S
Mn361 N368 2.257 . S
Mn361 N377 2.282 . S
Mn361 O385 2.215 . S
Mn361 O387 2.117 . S
C362 O384 1.234 . S
C362 O385 1.283 . S
C363 O375 1.281 . S
C363 O376 1.236 . S
C364 O386 1.240 . S
C364 O387 1.264 . S
O365 Mn360 2.095 . S
O365 C374 1.250 . S
O366 Mn361 2.121 . S
O366 C374 1.258 . S
C367 N368 1.326 . S
C367 C371 1.460 . S
C367 H373 0.929 . S
N368 Mn361 2.257 . S
N368 C367 1.326 . S
N368 C372 1.362 . S
C369 C370 1.258 . S
C369 C372 1.431 . S
C369 C389 1.449 . S
C370 C369 1.258 . S
C370 C371 1.477 . S
C370 H390 0.931 . S
C371 C367 1.460 . S
C371 C370 1.477 . S
C371 H391 0.930 . S
C372 N368 1.362 . S
C372 C369 1.431 . S
C372 C382 1.476 . S
H373 C367 0.929 . S
C374 O365 1.250 . S
C374 O366 1.258 . S
O375 Mn360 2.162 1_655 S
O375 C363 1.281 . S
O376 Mn360 2.297 1_655 S
O376 C363 1.236 . S
N377 Mn361 2.282 . S
N377 C378 1.328 . S
N377 C382 1.318 . S
C378 N377 1.328 . S
C378 C379 1.457 . S
C378 H383 0.929 . S
C379 C378 1.457 . S
C379 C380 1.291 . S
C379 H392 0.931 . S
C380 C379 1.291 . S
C380 C381 1.373 . S
C380 H393 0.929 . S
C381 C380 1.373 . S
C381 C382 1.396 . S
C381 C388 1.403 . S
C382 C372 1.476 . S
C382 N377 1.318 . S
C382 C381 1.396 . S
H383 C378 0.929 . S
O384 Mn360 2.385 . S
O384 C362 1.234 . S
O385 Mn360 2.209 . S
O385 Mn361 2.215 . S
O385 C362 1.283 . S
O386 Mn360 2.094 . S
O386 C364 1.240 . S
O387 Mn361 2.117 . S
O387 C364 1.264 . S
C388 C381 1.403 . S
C388 C389 1.399 . S
C388 H394 0.929 . S
C389 C369 1.449 . S
C389 C388 1.399 . S
C389 H395 0.930 . S
H390 C370 0.931 . S
H391 C371 0.930 . S
H392 C379 0.931 . S
H393 C380 0.929 . S
H394 C388 0.929 . S
H395 C389 0.930 . S
Mn396 O401 2.095 . S
Mn396 O411 2.162 . S
Mn396 O412 2.297 . S
Mn396 O420 2.385 . S
Mn396 O421 2.209 . S
Mn396 O422 2.094 . S
Mn397 O402 2.121 . S
Mn397 N404 2.257 . S
Mn397 N413 2.282 . S
Mn397 O421 2.215 . S
Mn397 O423 2.117 . S
C398 O420 1.234 . S
C398 O421 1.283 . S
C399 O411 1.281 . S
C399 O412 1.236 . S
C400 O422 1.240 . S
C400 O423 1.264 . S
O401 Mn396 2.095 . S
O401 C410 1.250 . S
O402 Mn397 2.121 . S
O402 C410 1.258 . S
C403 N404 1.326 . S
C403 C407 1.460 . S
C403 H409 0.929 . S
N404 Mn397 2.257 . S
N404 C403 1.326 . S
N404 C408 1.362 . S
C405 C406 1.258 . S
C405 C408 1.431 . S
C405 C425 1.449 . S
C406 C405 1.258 . S
C406 C407 1.477 . S
C406 H426 0.931 . S
C407 C403 1.460 . S
C407 C406 1.477 . S
C407 H427 0.930 . S
C408 N404 1.362 . S
C408 C405 1.431 . S
C408 C418 1.476 . S
H409 C403 0.929 . S
C410 O401 1.250 . S
C410 O402 1.258 . S
O411 Mn396 2.162 . S
O411 C399 1.281 . S
O412 Mn396 2.297 . S
O412 C399 1.236 . S
N413 Mn397 2.282 . S
N413 C414 1.328 . S
N413 C418 1.318 . S
C414 N413 1.328 . S
C414 C415 1.457 . S
C414 H419 0.929 . S
C415 C414 1.457 . S
C415 C416 1.291 . S
C415 H428 0.931 . S
C416 C415 1.291 . S
C416 C417 1.373 . S
C416 H429 0.929 . S
C417 C416 1.373 . S
C417 C418 1.396 . S
C417 C424 1.403 . S
C418 C408 1.476 . S
C418 N413 1.318 . S
C418 C417 1.396 . S
H419 C414 0.929 . S
O420 Mn396 2.385 . S
O420 C398 1.234 . S
O421 Mn396 2.209 . S
O421 Mn397 2.215 . S
O421 C398 1.283 . S
O422 Mn396 2.094 . S
O422 C400 1.240 . S
O423 Mn397 2.117 . S
O423 C400 1.264 . S
C424 C417 1.403 . S
C424 C425 1.399 . S
C424 H430 0.929 . S
C425 C405 1.449 . S
C425 C424 1.399 . S
C425 H431 0.930 . S
H426 C406 0.931 . S
H427 C407 0.930 . S
H428 C415 0.931 . S
H429 C416 0.929 . S
H430 C424 0.929 . S
H431 C425 0.930 . S
Mn432 O437 2.095 . S
Mn432 O447 2.162 1_545 S
Mn432 O448 2.297 1_545 S
Mn432 O456 2.385 . S
Mn432 O457 2.209 . S
Mn432 O458 2.094 . S
Mn433 O438 2.121 . S
Mn433 N440 2.257 . S
Mn433 N449 2.282 . S
Mn433 O457 2.215 . S
Mn433 O459 2.117 . S
C434 O456 1.234 . S
C434 O457 1.283 . S
C435 O447 1.281 . S
C435 O448 1.236 . S
C436 O458 1.240 . S
C436 O459 1.264 . S
O437 Mn432 2.095 . S
O437 C446 1.250 . S
O438 Mn433 2.121 . S
O438 C446 1.258 . S
C439 N440 1.326 . S
C439 C443 1.460 . S
C439 H445 0.929 . S
N440 Mn433 2.257 . S
N440 C439 1.326 . S
N440 C444 1.362 . S
C441 C442 1.258 . S
C441 C444 1.431 . S
C441 C461 1.449 . S
C442 C441 1.258 . S
C442 C443 1.477 . S
C442 H462 0.931 . S
C443 C439 1.460 . S
C443 C442 1.477 . S
C443 H463 0.930 . S
C444 N440 1.362 . S
C444 C441 1.431 . S
C444 C454 1.476 . S
H445 C439 0.929 . S
C446 O437 1.250 . S
C446 O438 1.258 . S
O447 Mn432 2.162 1_565 S
O447 C435 1.281 . S
O448 Mn432 2.297 1_565 S
O448 C435 1.236 . S
N449 Mn433 2.282 . S
N449 C450 1.328 . S
N449 C454 1.318 . S
C450 N449 1.328 . S
C450 C451 1.457 . S
C450 H455 0.929 . S
C451 C450 1.457 . S
C451 C452 1.291 . S
C451 H464 0.931 . S
C452 C451 1.291 . S
C452 C453 1.373 . S
C452 H465 0.929 . S
C453 C452 1.373 . S
C453 C454 1.396 . S
C453 C460 1.403 . S
C454 C444 1.476 . S
C454 N449 1.318 . S
C454 C453 1.396 . S
H455 C450 0.929 . S
O456 Mn432 2.385 . S
O456 C434 1.234 . S
O457 Mn432 2.209 . S
O457 Mn433 2.215 . S
O457 C434 1.283 . S
O458 Mn432 2.094 . S
O458 C436 1.240 . S
O459 Mn433 2.117 . S
O459 C436 1.264 . S
C460 C453 1.403 . S
C460 C461 1.399 . S
C460 H466 0.929 . S
C461 C441 1.449 . S
C461 C460 1.399 . S
C461 H467 0.930 . S
H462 C442 0.931 . S
H463 C443 0.930 . S
H464 C451 0.931 . S
H465 C452 0.929 . S
H466 C460 0.929 . S
H467 C461 0.930 . S
Mn468 O473 2.095 1_655 S
Mn468 O483 2.162 . S
Mn468 O484 2.297 . S
Mn468 O492 2.385 . S
Mn468 O493 2.209 . S
Mn468 O494 2.094 . S
Mn469 O474 2.121 1_655 S
Mn469 N476 2.257 . S
Mn469 N485 2.282 . S
Mn469 O493 2.215 . S
Mn469 O495 2.117 . S
C470 O492 1.234 . S
C470 O493 1.283 . S
C471 O483 1.281 . S
C471 O484 1.236 . S
C472 O494 1.240 . S
C472 O495 1.264 . S
O473 Mn468 2.095 1_455 S
O473 C482 1.250 . S
O474 Mn469 2.121 1_455 S
O474 C482 1.258 . S
C475 N476 1.326 1_455 S
C475 C479 1.460 . S
C475 H481 0.929 . S
N476 Mn469 2.257 . S
N476 C475 1.326 1_655 S
N476 C480 1.362 . S
C477 C478 1.258 1_655 S
C477 C480 1.431 . S
C477 C497 1.449 . S
C478 C477 1.258 1_455 S
C478 C479 1.477 . S
C478 H498 0.931 . S
C479 C475 1.460 . S
C479 C478 1.477 . S
C479 H499 0.930 . S
C480 N476 1.362 . S
C480 C477 1.431 . S
C480 C490 1.476 . S
H481 C475 0.929 . S
C482 O473 1.250 . S
C482 O474 1.258 . S
O483 Mn468 2.162 . S
O483 C471 1.281 . S
O484 Mn468 2.297 . S
O484 C471 1.236 . S
N485 Mn469 2.282 . S
N485 C486 1.328 . S
N485 C490 1.318 . S
C486 N485 1.328 . S
C486 C487 1.457 . S
C486 H491 0.929 . S
C487 C486 1.457 . S
C487 C488 1.291 . S
C487 H500 0.931 . S
C488 C487 1.291 . S
C488 C489 1.373 . S
C488 H501 0.929 . S
C489 C488 1.373 . S
C489 C490 1.396 . S
C489 C496 1.403 . S
C490 C480 1.476 . S
C490 N485 1.318 . S
C490 C489 1.396 . S
H491 C486 0.929 . S
O492 Mn468 2.385 . S
O492 C470 1.234 . S
O493 Mn468 2.209 . S
O493 Mn469 2.215 . S
O493 C470 1.283 . S
O494 Mn468 2.094 . S
O494 C472 1.240 . S
O495 Mn469 2.117 . S
O495 C472 1.264 . S
C496 C489 1.403 . S
C496 C497 1.399 . S
C496 H502 0.929 . S
C497 C477 1.449 . S
C497 C496 1.399 . S
C497 H503 0.930 . S
H498 C478 0.931 . S
H499 C479 0.930 . S
H500 C487 0.931 . S
H501 C488 0.929 . S
H502 C496 0.929 . S
H503 C497 0.930 . S
Mn504 O509 2.095 . S
Mn504 O519 2.162 . S
Mn504 O520 2.297 . S
Mn504 O528 2.385 . S
Mn504 O529 2.209 . S
Mn504 O530 2.094 . S
Mn505 O510 2.121 . S
Mn505 N512 2.257 . S
Mn505 N521 2.282 . S
Mn505 O529 2.215 . S
Mn505 O531 2.117 . S
C506 O528 1.234 . S
C506 O529 1.283 . S
C507 O519 1.281 . S
C507 O520 1.236 . S
C508 O530 1.240 . S
C508 O531 1.264 . S
O509 Mn504 2.095 . S
O509 C518 1.250 . S
O510 Mn505 2.121 . S
O510 C518 1.258 . S
C511 N512 1.326 . S
C511 C515 1.460 . S
C511 H517 0.929 . S
N512 Mn505 2.257 . S
N512 C511 1.326 . S
N512 C516 1.362 . S
C513 C514 1.258 . S
C513 C516 1.431 . S
C513 C533 1.449 . S
C514 C513 1.258 . S
C514 C515 1.477 . S
C514 H534 0.931 . S
C515 C511 1.460 . S
C515 C514 1.477 . S
C515 H535 0.930 . S
C516 N512 1.362 . S
C516 C513 1.431 . S
C516 C526 1.476 . S
H517 C511 0.929 . S
C518 O509 1.250 . S
C518 O510 1.258 . S
O519 Mn504 2.162 . S
O519 C507 1.281 . S
O520 Mn504 2.297 . S
O520 C507 1.236 . S
N521 Mn505 2.282 . S
N521 C522 1.328 . S
N521 C526 1.318 . S
C522 N521 1.328 . S
C522 C523 1.457 . S
C522 H527 0.929 . S
C523 C522 1.457 . S
C523 C524 1.291 . S
C523 H536 0.931 . S
C524 C523 1.291 . S
C524 C525 1.373 . S
C524 H537 0.929 . S
C525 C524 1.373 . S
C525 C526 1.396 . S
C525 C532 1.403 . S
C526 C516 1.476 . S
C526 N521 1.318 . S
C526 C525 1.396 . S
H527 C522 0.929 . S
O528 Mn504 2.385 . S
O528 C506 1.234 . S
O529 Mn504 2.209 . S
O529 Mn505 2.215 . S
O529 C506 1.283 . S
O530 Mn504 2.094 . S
O530 C508 1.240 . S
O531 Mn505 2.117 . S
O531 C508 1.264 . S
C532 C525 1.403 . S
C532 C533 1.399 . S
C532 H538 0.929 . S
C533 C513 1.449 . S
C533 C532 1.399 . S
C533 H539 0.930 . S
H534 C514 0.931 . S
H535 C515 0.930 . S
H536 C523 0.931 . S
H537 C524 0.929 . S
H538 C532 0.929 . S
H539 C533 0.930 . S
Mn540 O545 2.095 . S
Mn540 O555 2.162 . S
Mn540 O556 2.297 . S
Mn540 O564 2.385 . S
Mn540 O565 2.209 . S
Mn540 O566 2.094 . S
Mn541 O546 2.121 . S
Mn541 N548 2.257 . S
Mn541 N557 2.282 . S
Mn541 O565 2.215 . S
Mn541 O567 2.117 . S
C542 O564 1.234 . S
C542 O565 1.283 . S
C543 O555 1.281 . S
C543 O556 1.236 . S
C544 O566 1.240 . S
C544 O567 1.264 . S
O545 Mn540 2.095 . S
O545 C554 1.250 . S
O546 Mn541 2.121 . S
O546 C554 1.258 . S
C547 N548 1.326 . S
C547 C551 1.460 . S
C547 H553 0.929 . S
N548 Mn541 2.257 . S
N548 C547 1.326 . S
N548 C552 1.362 . S
C549 C550 1.258 . S
C549 C552 1.431 . S
C549 C569 1.449 . S
C550 C549 1.258 . S
C550 C551 1.477 . S
C550 H570 0.931 . S
C551 C547 1.460 . S
C551 C550 1.477 . S
C551 H571 0.930 . S
C552 N548 1.362 . S
C552 C549 1.431 . S
C552 C562 1.476 . S
H553 C547 0.929 . S
C554 O545 1.250 . S
C554 O546 1.258 . S
O555 Mn540 2.162 . S
O555 C543 1.281 . S
O556 Mn540 2.297 . S
O556 C543 1.236 . S
N557 Mn541 2.282 . S
N557 C558 1.328 . S
N557 C562 1.318 . S
C558 N557 1.328 . S
C558 C559 1.457 . S
C558 H563 0.929 . S
C559 C558 1.457 . S
C559 C560 1.291 . S
C559 H572 0.931 . S
C560 C559 1.291 . S
C560 C561 1.373 . S
C560 H573 0.929 . S
C561 C560 1.373 . S
C561 C562 1.396 . S
C561 C568 1.403 . S
C562 C552 1.476 . S
C562 N557 1.318 . S
C562 C561 1.396 . S
H563 C558 0.929 . S
O564 Mn540 2.385 . S
O564 C542 1.234 . S
O565 Mn540 2.209 . S
O565 Mn541 2.215 . S
O565 C542 1.283 . S
O566 Mn540 2.094 . S
O566 C544 1.240 . S
O567 Mn541 2.117 . S
O567 C544 1.264 . S
C568 C561 1.403 . S
C568 C569 1.399 . S
C568 H574 0.929 . S
C569 C549 1.449 . S
C569 C568 1.399 . S
C569 H575 0.930 . S
H570 C550 0.931 . S
H571 C551 0.930 . S
H572 C559 0.931 . S
H573 C560 0.929 . S
H574 C568 0.929 . S
H575 C569 0.930 . S
Mn576 O581 2.095 1_545 S
Mn576 O591 2.162 . S
Mn576 O592 2.296 . S
Mn576 O600 2.385 . S
Mn576 O601 2.209 . S
Mn576 O602 2.094 . S
Mn577 O582 2.121 1_545 S
Mn577 N584 2.257 . S
Mn577 N593 2.282 . S
Mn577 O601 2.215 . S
Mn577 O603 2.117 . S
C578 O600 1.234 . S
C578 O601 1.283 . S
C579 O591 1.281 . S
C579 O592 1.232 . S
C580 O602 1.240 . S
C580 O603 1.264 . S
O581 Mn576 2.095 1_565 S
O581 C590 1.250 . S
O582 Mn577 2.121 1_565 S
O582 C590 1.258 . S
C583 N584 1.326 1_565 S
C583 C587 1.460 . S
C583 H589 0.929 . S
N584 Mn577 2.257 . S
N584 C583 1.326 1_545 S
N584 C588 1.362 . S
C585 C586 1.258 1_545 S
C585 C588 1.431 . S
C585 C605 1.449 . S
C586 C585 1.258 1_565 S
C586 C587 1.477 . S
C586 H606 0.931 . S
C587 C583 1.460 . S
C587 C586 1.477 . S
C587 H607 0.930 . S
C588 N584 1.362 . S
C588 C585 1.431 . S
C588 C598 1.476 . S
H589 C583 0.929 . S
C590 O581 1.250 . S
C590 O582 1.258 . S
O591 Mn576 2.162 . S
O591 C579 1.281 . S
O592 Mn576 2.296 . S
O592 C579 1.232 . S
N593 Mn577 2.282 . S
N593 C594 1.328 . S
N593 C598 1.318 . S
C594 N593 1.328 . S
C594 C595 1.457 . S
C594 H599 0.929 . S
C595 C594 1.457 . S
C595 C596 1.291 . S
C595 H608 0.931 . S
C596 C595 1.291 . S
C596 C597 1.373 . S
C596 H609 0.929 . S
C597 C596 1.373 . S
C597 C598 1.396 . S
C597 C604 1.403 . S
C598 C588 1.476 . S
C598 N593 1.318 . S
C598 C597 1.396 . S
H599 C594 0.929 . S
O600 Mn576 2.385 . S
O600 C578 1.234 . S
O601 Mn576 2.209 . S
O601 Mn577 2.215 . S
O601 C578 1.283 . S
O602 Mn576 2.094 . S
O602 C580 1.240 . S
O603 Mn577 2.117 . S
O603 C580 1.264 . S
C604 C597 1.403 . S
C604 C605 1.399 . S
C604 H610 0.929 . S
C605 C585 1.449 . S
C605 C604 1.399 . S
C605 H611 0.930 . S
H606 C586 0.931 . S
H607 C587 0.930 . S
H608 C595 0.931 . S
H609 C596 0.929 . S
H610 C604 0.929 . S
H611 C605 0.930 . S
Mn612 O617 2.095 . S
Mn612 O627 2.162 1_655 S
Mn612 O628 2.297 1_655 S
Mn612 O636 2.385 . S
Mn612 O637 2.209 . S
Mn612 O638 2.094 . S
Mn613 O618 2.121 . S
Mn613 N620 2.257 . S
Mn613 N629 2.282 . S
Mn613 O637 2.215 . S
Mn613 O639 2.117 . S
C614 O636 1.234 . S
C614 O637 1.283 . S
C615 O627 1.281 . S
C615 O628 1.236 . S
C616 O638 1.240 . S
C616 O639 1.264 . S
O617 Mn612 2.095 . S
O617 C626 1.250 . S
O618 Mn613 2.121 . S
O618 C626 1.258 . S
C619 N620 1.326 . S
C619 C623 1.460 . S
C619 H625 0.929 . S
N620 Mn613 2.257 . S
N620 C619 1.326 . S
N620 C624 1.362 . S
C621 C622 1.258 . S
C621 C624 1.431 . S
C621 C641 1.449 . S
C622 C621 1.258 . S
C622 C623 1.477 . S
C622 H642 0.931 . S
C623 C619 1.460 . S
C623 C622 1.477 . S
C623 H643 0.930 . S
C624 N620 1.362 . S
C624 C621 1.431 . S
C624 C634 1.476 . S
H625 C619 0.929 . S
C626 O617 1.250 . S
C626 O618 1.258 . S
O627 Mn612 2.162 1_455 S
O627 C615 1.281 . S
O628 Mn612 2.297 1_455 S
O628 C615 1.236 . S
N629 Mn613 2.282 . S
N629 C630 1.328 . S
N629 C634 1.318 . S
C630 N629 1.328 . S
C630 C631 1.457 . S
C630 H635 0.929 . S
C631 C630 1.457 . S
C631 C632 1.291 . S
C631 H644 0.931 . S
C632 C631 1.291 . S
C632 C633 1.373 . S
C632 H645 0.929 . S
C633 C632 1.373 . S
C633 C634 1.396 . S
C633 C640 1.403 . S
C634 C624 1.476 . S
C634 N629 1.318 . S
C634 C633 1.396 . S
H635 C630 0.929 . S
O636 Mn612 2.385 . S
O636 C614 1.234 . S
O637 Mn612 2.209 . S
O637 Mn613 2.215 . S
O637 C614 1.283 . S
O638 Mn612 2.094 . S
O638 C616 1.240 . S
O639 Mn613 2.117 . S
O639 C616 1.264 . S
C640 C633 1.403 . S
C640 C641 1.399 . S
C640 H646 0.929 . S
C641 C621 1.449 . S
C641 C640 1.399 . S
C641 H647 0.930 . S
H642 C622 0.931 . S
H643 C623 0.930 . S
H644 C631 0.931 . S
H645 C632 0.929 . S
H646 C640 0.929 . S
H647 C641 0.930 . S
C648 C649 1.384 . S
C648 C650 1.384 . S
C648 H676 0.931 . S
C649 C648 1.384 . S
C649 C652 1.382 . S
C650 C648 1.384 . S
C650 C651 1.381 . S
C650 H677 0.930 . S
C651 C650 1.381 . S
C651 C653 1.381 . S
C651 C654 1.487 . S
C652 C649 1.382 . S
C652 C653 1.387 . S
C652 H678 0.930 . S
C653 C651 1.381 . S
C653 C652 1.387 . S
C653 H679 0.931 . S
C654 C651 1.487 . S
C654 C661 1.399 . S
C654 N692 1.343 . S
C655 C656 1.384 . S
C655 C657 1.384 . S
C655 H680 0.931 . S
C656 C655 1.384 . S
C656 C659 1.382 . S
C657 C655 1.384 . S
C657 C658 1.381 . S
C657 H681 0.930 . S
C658 C657 1.381 . S
C658 C660 1.381 . S
C658 C661 1.487 . S
C659 C656 1.382 . S
C659 C660 1.387 . S
C659 H682 0.930 . S
C660 C658 1.381 . S
C660 C659 1.387 . S
C660 H683 0.931 . S
C661 C654 1.399 . S
C661 C658 1.487 . S
C661 N693 1.343 . S
C662 C663 1.384 . S
C662 C664 1.384 . S
C662 H684 0.931 . S
C663 C662 1.384 . S
C663 C666 1.382 . S
C664 C662 1.384 . S
C664 C665 1.381 . S
C664 H685 0.930 . S
C665 C664 1.381 . S
C665 C667 1.381 . S
C665 C668 1.487 . S
C666 C663 1.382 . S
C666 C667 1.387 . S
C666 H686 0.930 . S
C667 C665 1.381 . S
C667 C666 1.387 . S
C667 H687 0.931 . S
C668 C665 1.487 . S
C668 C675 1.399 . S
C668 N693 1.343 . S
C669 C670 1.384 . S
C669 C671 1.384 . S
C669 H688 0.931 . S
C670 C669 1.384 . S
C670 C673 1.382 . S
C671 C669 1.384 . S
C671 C672 1.381 . S
C671 H689 0.930 . S
C672 C671 1.381 . S
C672 C674 1.381 . S
C672 C675 1.487 . S
C673 C670 1.382 . S
C673 C674 1.387 . S
C673 H690 0.930 . S
C674 C672 1.381 . S
C674 C673 1.387 . S
C674 H691 0.931 . S
C675 C668 1.399 . S
C675 C672 1.487 . S
C675 N692 1.343 . S
H676 C648 0.931 . S
H677 C650 0.930 . S
H678 C652 0.930 . S
H679 C653 0.931 . S
H680 C655 0.931 . S
H681 C657 0.930 . S
H682 C659 0.930 . S
H683 C660 0.931 . S
H684 C662 0.931 . S
H685 C664 0.930 . S
H686 C666 0.930 . S
H687 C667 0.931 . S
H688 C669 0.931 . S
H689 C671 0.930 . S
H690 C673 0.930 . S
H691 C674 0.931 . S
N692 C654 1.343 . S
N692 C675 1.343 . S
N693 C661 1.343 . S
N693 C668 1.343 . S
C694 C695 1.384 . S
C694 C696 1.384 . S
C694 H722 0.931 . S
C695 C694 1.384 . S
C695 C698 1.382 . S
C696 C694 1.384 . S
C696 C697 1.381 . S
C696 H723 0.930 . S
C697 C696 1.381 . S
C697 C699 1.381 . S
C697 C700 1.487 . S
C698 C695 1.382 . S
C698 C699 1.387 . S
C698 H724 0.930 . S
C699 C697 1.381 . S
C699 C698 1.387 . S
C699 H725 0.931 . S
C700 C697 1.487 . S
C700 C707 1.399 . S
C700 N738 1.343 . S
C701 C702 1.384 . S
C701 C703 1.384 . S
C701 H726 0.931 . S
C702 C701 1.384 . S
C702 C705 1.382 . S
C703 C701 1.384 . S
C703 C704 1.381 . S
C703 H727 0.930 . S
C704 C703 1.381 . S
C704 C706 1.381 . S
C704 C707 1.487 . S
C705 C702 1.382 . S
C705 C706 1.387 . S
C705 H728 0.930 . S
C706 C704 1.381 . S
C706 C705 1.387 . S
C706 H729 0.931 . S
C707 C700 1.399 . S
C707 C704 1.487 . S
C707 N739 1.343 . S
C708 C709 1.384 . S
C708 C710 1.384 . S
C708 H730 0.931 . S
C709 C708 1.384 . S
C709 C712 1.382 . S
C710 C708 1.384 . S
C710 C711 1.381 . S
C710 H731 0.930 . S
C711 C710 1.381 . S
C711 C713 1.381 . S
C711 C714 1.487 . S
C712 C709 1.382 . S
C712 C713 1.387 . S
C712 H732 0.930 . S
C713 C711 1.381 . S
C713 C712 1.387 . S
C713 H733 0.931 . S
C714 C711 1.487 . S
C714 C721 1.399 . S
C714 N739 1.343 . S
C715 C716 1.384 . S
C715 C717 1.384 . S
C715 H734 0.931 . S
C716 C715 1.384 . S
C716 C719 1.382 . S
C717 C715 1.384 . S
C717 C718 1.381 . S
C717 H735 0.930 . S
C718 C717 1.381 . S
C718 C720 1.381 . S
C718 C721 1.487 . S
C719 C716 1.382 . S
C719 C720 1.387 . S
C719 H736 0.930 . S
C720 C718 1.381 . S
C720 C719 1.387 . S
C720 H737 0.931 . S
C721 C714 1.399 . S
C721 C718 1.487 . S
C721 N738 1.343 . S
H722 C694 0.931 . S
H723 C696 0.930 . S
H724 C698 0.930 . S
H725 C699 0.931 . S
H726 C701 0.931 . S
H727 C703 0.930 . S
H728 C705 0.930 . S
H729 C706 0.931 . S
H730 C708 0.931 . S
H731 C710 0.930 . S
H732 C712 0.930 . S
H733 C713 0.931 . S
H734 C715 0.931 . S
H735 C717 0.930 . S
H736 C719 0.930 . S
H737 C720 0.931 . S
N738 C700 1.343 . S
N738 C721 1.343 . S
N739 C707 1.343 . S
N739 C714 1.343 . S
C740 C741 1.384 . S
C740 C742 1.384 . S
C740 H768 0.931 . S
C741 C740 1.384 . S
C741 C744 1.382 . S
C742 C740 1.384 . S
C742 C743 1.381 . S
C742 H769 0.930 . S
C743 C742 1.381 . S
C743 C745 1.381 . S
C743 C746 1.487 . S
C744 C741 1.382 . S
C744 C745 1.387 . S
C744 H770 0.930 . S
C745 C743 1.381 . S
C745 C744 1.387 . S
C745 H771 0.931 . S
C746 C743 1.487 . S
C746 C753 1.399 . S
C746 N784 1.343 . S
C747 C748 1.384 . S
C747 C749 1.384 . S
C747 H772 0.931 . S
C748 C747 1.384 . S
C748 C751 1.382 . S
C749 C747 1.384 . S
C749 C750 1.381 . S
C749 H773 0.930 . S
C750 C749 1.381 . S
C750 C752 1.381 . S
C750 C753 1.487 . S
C751 C748 1.382 . S
C751 C752 1.387 . S
C751 H774 0.930 . S
C752 C750 1.381 . S
C752 C751 1.387 . S
C752 H775 0.931 . S
C753 C746 1.399 . S
C753 C750 1.487 . S
C753 N785 1.343 . S
C754 C755 1.384 . S
C754 C756 1.384 . S
C754 H776 0.931 . S
C755 C754 1.384 . S
C755 C758 1.382 . S
C756 C754 1.384 . S
C756 C757 1.381 . S
C756 H777 0.930 . S
C757 C756 1.381 . S
C757 C759 1.381 . S
C757 C760 1.487 . S
C758 C755 1.382 . S
C758 C759 1.387 . S
C758 H778 0.930 . S
C759 C757 1.381 . S
C759 C758 1.387 . S
C759 H779 0.931 . S
C760 C757 1.487 . S
C760 C767 1.399 . S
C760 N785 1.343 . S
C761 C762 1.384 . S
C761 C763 1.384 . S
C761 H780 0.931 . S
C762 C761 1.384 . S
C762 C765 1.382 . S
C763 C761 1.384 . S
C763 C764 1.381 . S
C763 H781 0.930 . S
C764 C763 1.381 . S
C764 C766 1.381 . S
C764 C767 1.487 . S
C765 C762 1.382 . S
C765 C766 1.387 . S
C765 H782 0.930 . S
C766 C764 1.381 . S
C766 C765 1.387 . S
C766 H783 0.931 . S
C767 C760 1.399 . S
C767 C764 1.487 . S
C767 N784 1.343 . S
H768 C740 0.931 . S
H769 C742 0.930 . S
H770 C744 0.930 . S
H771 C745 0.931 . S
H772 C747 0.931 . S
H773 C749 0.930 . S
H774 C751 0.930 . S
H775 C752 0.931 . S
H776 C754 0.931 . S
H777 C756 0.930 . S
H778 C758 0.930 . S
H779 C759 0.931 . S
H780 C761 0.931 . S
H781 C763 0.930 . S
H782 C765 0.930 . S
H783 C766 0.931 . S
N784 C746 1.343 . S
N784 C767 1.343 . S
N785 C753 1.343 . S
N785 C760 1.343 . S
C786 C787 1.384 . S
C786 C788 1.384 . S
C786 H814 0.931 . S
C787 C786 1.384 . S
C787 C790 1.382 . S
C788 C786 1.384 . S
C788 C789 1.381 . S
C788 H815 0.930 . S
C789 C788 1.381 . S
C789 C791 1.381 . S
C789 C792 1.487 . S
C790 C787 1.382 . S
C790 C791 1.387 . S
C790 H816 0.930 . S
C791 C789 1.381 . S
C791 C790 1.387 . S
C791 H817 0.931 . S
C792 C789 1.487 . S
C792 C799 1.399 . S
C792 N830 1.343 . S
C793 C794 1.384 . S
C793 C795 1.384 . S
C793 H818 0.931 . S
C794 C793 1.384 . S
C794 C797 1.382 . S
C795 C793 1.384 . S
C795 C796 1.381 . S
C795 H819 0.930 . S
C796 C795 1.381 . S
C796 C798 1.381 . S
C796 C799 1.487 . S
C797 C794 1.382 . S
C797 C798 1.387 . S
C797 H820 0.930 . S
C798 C796 1.381 . S
C798 C797 1.387 . S
C798 H821 0.931 . S
C799 C792 1.399 . S
C799 C796 1.487 . S
C799 N831 1.343 . S
C800 C801 1.384 . S
C800 C802 1.384 . S
C800 H822 0.931 . S
C801 C800 1.384 . S
C801 C804 1.382 . S
C802 C800 1.384 . S
C802 C803 1.381 . S
C802 H823 0.930 . S
C803 C802 1.381 . S
C803 C805 1.381 . S
C803 C806 1.487 . S
C804 C801 1.382 . S
C804 C805 1.387 . S
C804 H824 0.930 . S
C805 C803 1.381 . S
C805 C804 1.387 . S
C805 H825 0.931 . S
C806 C803 1.487 . S
C806 C813 1.399 . S
C806 N831 1.343 . S
C807 C808 1.384 . S
C807 C809 1.384 . S
C807 H826 0.931 . S
C808 C807 1.384 . S
C808 C811 1.382 . S
C809 C807 1.384 . S
C809 C810 1.381 . S
C809 H827 0.930 . S
C810 C809 1.381 . S
C810 C812 1.381 . S
C810 C813 1.487 . S
C811 C808 1.382 . S
C811 C812 1.387 . S
C811 H828 0.930 . S
C812 C810 1.381 . S
C812 C811 1.387 . S
C812 H829 0.931 . S
C813 C806 1.399 . S
C813 C810 1.487 . S
C813 N830 1.343 . S
H814 C786 0.931 . S
H815 C788 0.930 . S
H816 C790 0.930 . S
H817 C791 0.931 . S
H818 C793 0.931 . S
H819 C795 0.930 . S
H820 C797 0.930 . S
H821 C798 0.931 . S
H822 C800 0.931 . S
H823 C802 0.930 . S
H824 C804 0.930 . S
H825 C805 0.931 . S
H826 C807 0.931 . S
H827 C809 0.930 . S
H828 C811 0.930 . S
H829 C812 0.931 . S
N830 C792 1.343 . S
N830 C813 1.343 . S
N831 C799 1.343 . S
N831 C806 1.343 . S
C832 C833 1.384 . S
C832 C834 1.384 . S
C832 H860 0.931 . S
C833 C832 1.384 . S
C833 C836 1.382 . S
C834 C832 1.384 . S
C834 C835 1.381 . S
C834 H861 0.930 . S
C835 C834 1.381 . S
C835 C837 1.381 . S
C835 C838 1.487 . S
C836 C833 1.382 . S
C836 C837 1.387 . S
C836 H862 0.930 . S
C837 C835 1.381 . S
C837 C836 1.387 . S
C837 H863 0.931 . S
C838 C835 1.487 . S
C838 C845 1.399 . S
C838 N876 1.343 . S
C839 C840 1.384 . S
C839 C841 1.384 . S
C839 H864 0.931 . S
C840 C839 1.384 . S
C840 C843 1.382 . S
C841 C839 1.384 . S
C841 C842 1.381 . S
C841 H865 0.930 . S
C842 C841 1.381 . S
C842 C844 1.381 . S
C842 C845 1.487 . S
C843 C840 1.382 . S
C843 C844 1.387 . S
C843 H866 0.930 . S
C844 C842 1.381 . S
C844 C843 1.387 . S
C844 H867 0.931 . S
C845 C838 1.399 . S
C845 C842 1.487 . S
C845 N877 1.343 . S
C846 C847 1.384 . S
C846 C848 1.384 . S
C846 H868 0.931 . S
C847 C846 1.384 . S
C847 C850 1.382 . S
C848 C846 1.384 . S
C848 C849 1.381 . S
C848 H869 0.930 . S
C849 C848 1.381 . S
C849 C851 1.381 . S
C849 C852 1.487 . S
C850 C847 1.382 . S
C850 C851 1.387 . S
C850 H870 0.930 . S
C851 C849 1.381 . S
C851 C850 1.387 . S
C851 H871 0.931 . S
C852 C849 1.487 . S
C852 C859 1.399 . S
C852 N877 1.343 . S
C853 C854 1.384 . S
C853 C855 1.384 . S
C853 H872 0.931 . S
C854 C853 1.384 . S
C854 C857 1.382 . S
C855 C853 1.384 . S
C855 C856 1.381 . S
C855 H873 0.930 . S
C856 C855 1.381 . S
C856 C858 1.381 . S
C856 C859 1.487 . S
C857 C854 1.382 . S
C857 C858 1.387 . S
C857 H874 0.930 . S
C858 C856 1.381 . S
C858 C857 1.387 . S
C858 H875 0.931 . S
C859 C852 1.399 . S
C859 C856 1.487 . S
C859 N876 1.343 . S
H860 C832 0.931 . S
H861 C834 0.930 . S
H862 C836 0.930 . S
H863 C837 0.931 . S
H864 C839 0.931 . S
H865 C841 0.930 . S
H866 C843 0.930 . S
H867 C844 0.931 . S
H868 C846 0.931 . S
H869 C848 0.930 . S
H870 C850 0.930 . S
H871 C851 0.931 . S
H872 C853 0.931 . S
H873 C855 0.930 . S
H874 C857 0.930 . S
H875 C858 0.931 . S
N876 C838 1.343 . S
N876 C859 1.343 . S
N877 C845 1.343 . S
N877 C852 1.343 . S
C878 C879 1.384 . S
C878 C880 1.384 . S
C878 H906 0.931 . S
C879 C878 1.384 . S
C879 C882 1.382 . S
C880 C878 1.384 . S
C880 C881 1.381 . S
C880 H907 0.930 . S
C881 C880 1.381 . S
C881 C883 1.381 . S
C881 C884 1.487 . S
C882 C879 1.382 . S
C882 C883 1.387 . S
C882 H908 0.930 . S
C883 C881 1.381 . S
C883 C882 1.387 . S
C883 H909 0.931 . S
C884 C881 1.487 . S
C884 C891 1.399 . S
C884 N922 1.343 . S
C885 C886 1.384 . S
C885 C887 1.384 . S
C885 H910 0.931 . S
C886 C885 1.384 . S
C886 C889 1.382 . S
C887 C885 1.384 . S
C887 C888 1.381 . S
C887 H911 0.930 . S
C888 C887 1.381 . S
C888 C890 1.381 . S
C888 C891 1.487 . S
C889 C886 1.382 . S
C889 C890 1.387 . S
C889 H912 0.930 . S
C890 C888 1.381 . S
C890 C889 1.387 . S
C890 H913 0.931 . S
C891 C884 1.399 . S
C891 C888 1.487 . S
C891 N923 1.343 . S
C892 C893 1.384 . S
C892 C894 1.384 . S
C892 H914 0.931 . S
C893 C892 1.384 . S
C893 C896 1.382 . S
C894 C892 1.384 . S
C894 C895 1.381 . S
C894 H915 0.930 . S
C895 C894 1.381 . S
C895 C897 1.381 . S
C895 C898 1.487 . S
C896 C893 1.382 . S
C896 C897 1.387 . S
C896 H916 0.930 . S
C897 C895 1.381 . S
C897 C896 1.387 . S
C897 H917 0.931 . S
C898 C895 1.487 . S
C898 C905 1.399 . S
C898 N923 1.343 . S
C899 C900 1.384 . S
C899 C901 1.384 . S
C899 H918 0.931 . S
C900 C899 1.384 . S
C900 C903 1.382 . S
C901 C899 1.384 . S
C901 C902 1.381 . S
C901 H919 0.930 . S
C902 C901 1.381 . S
C902 C904 1.381 . S
C902 C905 1.487 . S
C903 C900 1.382 . S
C903 C904 1.387 . S
C903 H920 0.930 . S
C904 C902 1.381 . S
C904 C903 1.387 . S
C904 H921 0.931 . S
C905 C898 1.399 . S
C905 C902 1.487 . S
C905 N922 1.343 . S
H906 C878 0.931 . S
H907 C880 0.930 . S
H908 C882 0.930 . S
H909 C883 0.931 . S
H910 C885 0.931 . S
H911 C887 0.930 . S
H912 C889 0.930 . S
H913 C890 0.931 . S
H914 C892 0.931 . S
H915 C894 0.930 . S
H916 C896 0.930 . S
H917 C897 0.931 . S
H918 C899 0.931 . S
H919 C901 0.930 . S
H920 C903 0.930 . S
H921 C904 0.931 . S
N922 C884 1.343 . S
N922 C905 1.343 . S
N923 C891 1.343 . S
N923 C898 1.343 . S
C924 C925 1.384 . S
C924 C926 1.384 . S
C924 H952 0.931 . S
C925 C924 1.384 . S
C925 C928 1.382 . S
C926 C924 1.384 . S
C926 C927 1.381 . S
C926 H953 0.930 . S
C927 C926 1.381 . S
C927 C929 1.381 . S
C927 C930 1.487 . S
C928 C925 1.382 . S
C928 C929 1.387 . S
C928 H954 0.930 . S
C929 C927 1.381 . S
C929 C928 1.387 . S
C929 H955 0.931 . S
C930 C927 1.487 . S
C930 C937 1.399 . S
C930 N968 1.343 . S
C931 C932 1.384 . S
C931 C933 1.384 . S
C931 H956 0.931 . S
C932 C931 1.384 . S
C932 C935 1.382 . S
C933 C931 1.384 . S
C933 C934 1.381 . S
C933 H957 0.930 . S
C934 C933 1.381 . S
C934 C936 1.381 . S
C934 C937 1.487 . S
C935 C932 1.382 . S
C935 C936 1.387 . S
C935 H958 0.930 . S
C936 C934 1.381 . S
C936 C935 1.387 . S
C936 H959 0.931 . S
C937 C930 1.399 . S
C937 C934 1.487 . S
C937 N969 1.343 . S
C938 C939 1.384 . S
C938 C940 1.384 . S
C938 H960 0.931 . S
C939 C938 1.384 . S
C939 C942 1.382 . S
C940 C938 1.384 . S
C940 C941 1.381 . S
C940 H961 0.930 . S
C941 C940 1.381 . S
C941 C943 1.381 . S
C941 C944 1.487 . S
C942 C939 1.382 . S
C942 C943 1.387 . S
C942 H962 0.930 . S
C943 C941 1.381 . S
C943 C942 1.387 . S
C943 H963 0.931 . S
C944 C941 1.487 . S
C944 C951 1.399 . S
C944 N969 1.343 . S
C945 C946 1.384 . S
C945 C947 1.384 . S
C945 H964 0.931 . S
C946 C945 1.384 . S
C946 C949 1.382 . S
C947 C945 1.384 . S
C947 C948 1.381 . S
C947 H965 0.930 . S
C948 C947 1.381 . S
C948 C950 1.381 . S
C948 C951 1.487 . S
C949 C946 1.382 . S
C949 C950 1.387 . S
C949 H966 0.930 . S
C950 C948 1.381 . S
C950 C949 1.387 . S
C950 H967 0.931 . S
C951 C944 1.399 . S
C951 C948 1.487 . S
C951 N968 1.343 . S
H952 C924 0.931 . S
H953 C926 0.930 . S
H954 C928 0.930 . S
H955 C929 0.931 . S
H956 C931 0.931 . S
H957 C933 0.930 . S
H958 C935 0.930 . S
H959 C936 0.931 . S
H960 C938 0.931 . S
H961 C940 0.930 . S
H962 C942 0.930 . S
H963 C943 0.931 . S
H964 C945 0.931 . S
H965 C947 0.930 . S
H966 C949 0.930 . S
H967 C950 0.931 . S
N968 C930 1.343 . S
N968 C951 1.343 . S
N969 C937 1.343 . S
N969 C944 1.343 . S
C970 C971 1.384 . S
C970 C972 1.384 . S
C970 H998 0.931 . S
C971 C970 1.384 . S
C971 C974 1.382 . S
C972 C970 1.384 . S
C972 C973 1.381 . S
C972 H999 0.930 . S
C973 C972 1.381 . S
C973 C975 1.381 . S
C973 C976 1.487 . S
C974 C971 1.382 . S
C974 C975 1.387 . S
C974 H1000 0.930 . S
C975 C973 1.381 . S
C975 C974 1.387 . S
C975 H1001 0.931 . S
C976 C973 1.487 . S
C976 C983 1.399 . S
C976 N1014 1.343 . S
C977 C978 1.384 . S
C977 C979 1.384 . S
C977 H1002 0.931 . S
C978 C977 1.384 . S
C978 C981 1.382 . S
C979 C977 1.384 . S
C979 C980 1.381 . S
C979 H1003 0.930 . S
C980 C979 1.381 . S
C980 C982 1.381 . S
C980 C983 1.487 . S
C981 C978 1.382 . S
C981 C982 1.387 . S
C981 H1004 0.930 . S
C982 C980 1.381 . S
C982 C981 1.387 . S
C982 H1005 0.931 . S
C983 C976 1.399 . S
C983 C980 1.487 . S
C983 N1015 1.343 . S
C984 C985 1.384 . S
C984 C986 1.384 . S
C984 H1006 0.931 . S
C985 C984 1.384 . S
C985 C988 1.382 . S
C986 C984 1.384 . S
C986 C987 1.381 . S
C986 H1007 0.930 . S
C987 C986 1.381 . S
C987 C989 1.381 . S
C987 C990 1.487 . S
C988 C985 1.382 . S
C988 C989 1.387 . S
C988 H1008 0.930 . S
C989 C987 1.381 . S
C989 C988 1.387 . S
C989 H1009 0.931 . S
C990 C987 1.487 . S
C990 C997 1.399 . S
C990 N1015 1.343 . S
C991 C992 1.384 . S
C991 C993 1.384 . S
C991 H1010 0.931 . S
C992 C991 1.384 . S
C992 C995 1.382 . S
C993 C991 1.384 . S
C993 C994 1.381 . S
C993 H1011 0.930 . S
C994 C993 1.381 . S
C994 C996 1.381 . S
C994 C997 1.487 . S
C995 C992 1.382 . S
C995 C996 1.387 . S
C995 H1012 0.930 . S
C996 C994 1.381 . S
C996 C995 1.387 . S
C996 H1013 0.931 . S
C997 C990 1.399 . S
C997 C994 1.487 . S
C997 N1014 1.343 . S
H998 C970 0.931 . S
H999 C972 0.930 . S
H1000 C974 0.930 . S
H1001 C975 0.931 . S
H1002 C977 0.931 . S
H1003 C979 0.930 . S
H1004 C981 0.930 . S
H1005 C982 0.931 . S
H1006 C984 0.931 . S
H1007 C986 0.930 . S
H1008 C988 0.930 . S
H1009 C989 0.931 . S
H1010 C991 0.931 . S
H1011 C993 0.930 . S
H1012 C995 0.930 . S
H1013 C996 0.931 . S
N1014 C976 1.343 . S
N1014 C997 1.343 . S
N1015 C983 1.343 . S
N1015 C990 1.343 . S
C1016 C1017 1.384 . S
C1016 C1018 1.384 . S
C1016 H1044 0.931 . S
C1017 C1016 1.384 . S
C1017 C1020 1.382 . S
C1018 C1016 1.384 . S
C1018 C1019 1.381 . S
C1018 H1045 0.930 . S
C1019 C1018 1.381 . S
C1019 C1021 1.381 . S
C1019 C1022 1.487 . S
C1020 C1017 1.382 . S
C1020 C1021 1.387 . S
C1020 H1046 0.930 . S
C1021 C1019 1.381 . S
C1021 C1020 1.387 . S
C1021 H1047 0.931 . S
C1022 C1019 1.487 . S
C1022 C1029 1.399 . S
C1022 N1060 1.343 . S
C1023 C1024 1.384 . S
C1023 C1025 1.384 . S
C1023 H1048 0.931 . S
C1024 C1023 1.384 . S
C1024 C1027 1.382 . S
C1025 C1023 1.384 . S
C1025 C1026 1.381 . S
C1025 H1049 0.930 . S
C1026 C1025 1.381 . S
C1026 C1028 1.381 . S
C1026 C1029 1.487 . S
C1027 C1024 1.382 . S
C1027 C1028 1.387 . S
C1027 H1050 0.930 . S
C1028 C1026 1.381 . S
C1028 C1027 1.387 . S
C1028 H1051 0.931 . S
C1029 C1022 1.399 . S
C1029 C1026 1.487 . S
C1029 N1061 1.343 . S
C1030 C1031 1.384 . S
C1030 C1032 1.384 . S
C1030 H1052 0.931 . S
C1031 C1030 1.384 . S
C1031 C1034 1.382 . S
C1032 C1030 1.384 . S
C1032 C1033 1.381 . S
C1032 H1053 0.930 . S
C1033 C1032 1.381 . S
C1033 C1035 1.381 . S
C1033 C1036 1.487 . S
C1034 C1031 1.382 . S
C1034 C1035 1.387 . S
C1034 H1054 0.930 . S
C1035 C1033 1.381 . S
C1035 C1034 1.387 . S
C1035 H1055 0.931 . S
C1036 C1033 1.487 . S
C1036 C1043 1.399 . S
C1036 N1061 1.343 . S
C1037 C1038 1.384 . S
C1037 C1039 1.384 . S
C1037 H1056 0.931 . S
C1038 C1037 1.384 . S
C1038 C1041 1.382 . S
C1039 C1037 1.384 . S
C1039 C1040 1.381 . S
C1039 H1057 0.930 . S
C1040 C1039 1.381 . S
C1040 C1042 1.381 . S
C1040 C1043 1.487 . S
C1041 C1038 1.382 . S
C1041 C1042 1.387 . S
C1041 H1058 0.930 . S
C1042 C1040 1.381 . S
C1042 C1041 1.387 . S
C1042 H1059 0.931 . S
C1043 C1036 1.399 . S
C1043 C1040 1.487 . S
C1043 N1060 1.343 . S
H1044 C1016 0.931 . S
H1045 C1018 0.930 . S
H1046 C1020 0.930 . S
H1047 C1021 0.931 . S
H1048 C1023 0.931 . S
H1049 C1025 0.930 . S
H1050 C1027 0.930 . S
H1051 C1028 0.931 . S
H1052 C1030 0.931 . S
H1053 C1032 0.930 . S
H1054 C1034 0.930 . S
H1055 C1035 0.931 . S
H1056 C1037 0.931 . S
H1057 C1039 0.930 . S
H1058 C1041 0.930 . S
H1059 C1042 0.931 . S
N1060 C1022 1.343 . S
N1060 C1043 1.343 . S
N1061 C1029 1.343 . S
N1061 C1036 1.343 . S
C1062 C1063 1.384 . S
C1062 C1064 1.384 . S
C1062 H1090 0.931 . S
C1063 C1062 1.384 . S
C1063 C1066 1.382 1_655 S
C1064 C1062 1.384 . S
C1064 C1065 1.386 1_655 S
C1064 H1091 0.930 . S
C1065 C1064 1.386 1_455 S
C1065 C1067 1.379 . S
C1065 C1068 1.475 . S
C1066 C1063 1.382 1_455 S
C1066 C1067 1.387 . S
C1066 H1092 0.930 . S
C1067 C1065 1.379 . S
C1067 C1066 1.387 . S
C1067 H1093 0.931 . S
C1068 C1065 1.475 . S
C1068 C1075 1.398 1_455 S
C1068 N1106 1.355 . S
C1069 C1070 1.384 . S
C1069 C1071 1.384 . S
C1069 H1094 0.931 . S
C1070 C1069 1.384 . S
C1070 C1073 1.382 1_455 S
C1071 C1069 1.384 . S
C1071 C1072 1.383 . S
C1071 H1095 0.930 . S
C1072 C1071 1.383 . S
C1072 C1074 1.376 1_455 S
C1072 C1075 1.494 1_455 S
C1073 C1070 1.382 1_655 S
C1073 C1074 1.387 . S
C1073 H1096 0.930 . S
C1074 C1072 1.376 1_655 S
C1074 C1073 1.387 . S
C1074 H1097 0.931 . S
C1075 C1068 1.398 1_655 S
C1075 C1072 1.494 1_655 S
C1075 N1107 1.339 . S
C1076 C1077 1.384 . S
C1076 C1078 1.384 . S
C1076 H1098 0.931 . S
C1077 C1076 1.384 . S
C1077 C1080 1.382 1_455 S
C1078 C1076 1.384 . S
C1078 C1079 1.386 . S
C1078 H1099 0.930 . S
C1079 C1078 1.386 . S
C1079 C1081 1.379 1_455 S
C1079 C1082 1.480 1_455 S
C1080 C1077 1.382 1_655 S
C1080 C1081 1.387 . S
C1080 H1100 0.930 . S
C1081 C1079 1.379 1_655 S
C1081 C1080 1.387 . S
C1081 H1101 0.931 . S
C1082 C1079 1.480 1_655 S
C1082 C1089 1.398 1_655 S
C1082 N1107 1.348 . S
C1083 C1084 1.384 . S
C1083 C1085 1.384 . S
C1083 H1102 0.931 . S
C1084 C1083 1.384 . S
C1084 C1087 1.382 1_655 S
C1085 C1083 1.384 . S
C1085 C1086 1.380 . S
C1085 H1103 0.930 . S
C1086 C1085 1.380 . S
C1086 C1088 1.384 1_655 S
C1086 C1089 1.494 1_655 S
C1087 C1084 1.382 1_455 S
C1087 C1088 1.387 . S
C1087 H1104 0.930 . S
C1088 C1086 1.384 1_455 S
C1088 C1087 1.387 . S
C1088 H1105 0.931 . S
C1089 C1082 1.398 1_455 S
C1089 C1086 1.494 1_455 S
C1089 N1106 1.334 . S
H1090 C1062 0.931 . S
H1091 C1064 0.930 . S
H1092 C1066 0.930 . S
H1093 C1067 0.931 . S
H1094 C1069 0.931 . S
H1095 C1071 0.930 . S
H1096 C1073 0.930 . S
H1097 C1074 0.931 . S
H1098 C1076 0.931 . S
H1099 C1078 0.930 . S
H1100 C1080 0.930 . S
H1101 C1081 0.931 . S
H1102 C1083 0.931 . S
H1103 C1085 0.930 . S
H1104 C1087 0.930 . S
H1105 C1088 0.931 . S
N1106 C1068 1.355 . S
N1106 C1089 1.334 . S
N1107 C1075 1.339 . S
N1107 C1082 1.348 . S
C1108 C1109 1.384 . S
C1108 C1110 1.384 . S
C1108 H1136 0.931 . S
C1109 C1108 1.384 . S
C1109 C1112 1.382 . S
C1110 C1108 1.384 . S
C1110 C1111 1.381 . S
C1110 H1137 0.930 . S
C1111 C1110 1.381 . S
C1111 C1113 1.381 . S
C1111 C1114 1.487 . S
C1112 C1109 1.382 . S
C1112 C1113 1.387 . S
C1112 H1138 0.930 . S
C1113 C1111 1.381 . S
C1113 C1112 1.387 . S
C1113 H1139 0.931 . S
C1114 C1111 1.487 . S
C1114 C1121 1.399 . S
C1114 N1152 1.343 . S
C1115 C1116 1.384 . S
C1115 C1117 1.384 . S
C1115 H1140 0.931 . S
C1116 C1115 1.384 . S
C1116 C1119 1.382 . S
C1117 C1115 1.384 . S
C1117 C1118 1.381 . S
C1117 H1141 0.930 . S
C1118 C1117 1.381 . S
C1118 C1120 1.381 . S
C1118 C1121 1.487 . S
C1119 C1116 1.382 . S
C1119 C1120 1.387 . S
C1119 H1142 0.930 . S
C1120 C1118 1.381 . S
C1120 C1119 1.387 . S
C1120 H1143 0.931 . S
C1121 C1114 1.399 . S
C1121 C1118 1.487 . S
C1121 N1153 1.343 . S
C1122 C1123 1.384 . S
C1122 C1124 1.384 . S
C1122 H1144 0.931 . S
C1123 C1122 1.384 . S
C1123 C1126 1.382 . S
C1124 C1122 1.384 . S
C1124 C1125 1.381 . S
C1124 H1145 0.930 . S
C1125 C1124 1.381 . S
C1125 C1127 1.381 . S
C1125 C1128 1.487 . S
C1126 C1123 1.382 . S
C1126 C1127 1.387 . S
C1126 H1146 0.930 . S
C1127 C1125 1.381 . S
C1127 C1126 1.387 . S
C1127 H1147 0.931 . S
C1128 C1125 1.487 . S
C1128 C1135 1.399 . S
C1128 N1153 1.343 . S
C1129 C1130 1.384 . S
C1129 C1131 1.384 . S
C1129 H1148 0.931 . S
C1130 C1129 1.384 . S
C1130 C1133 1.382 . S
C1131 C1129 1.384 . S
C1131 C1132 1.381 . S
C1131 H1149 0.930 . S
C1132 C1131 1.381 . S
C1132 C1134 1.381 . S
C1132 C1135 1.487 . S
C1133 C1130 1.382 . S
C1133 C1134 1.387 . S
C1133 H1150 0.930 . S
C1134 C1132 1.381 . S
C1134 C1133 1.387 . S
C1134 H1151 0.931 . S
C1135 C1128 1.399 . S
C1135 C1132 1.487 . S
C1135 N1152 1.343 . S
H1136 C1108 0.931 . S
H1137 C1110 0.930 . S
H1138 C1112 0.930 . S
H1139 C1113 0.931 . S
H1140 C1115 0.931 . S
H1141 C1117 0.930 . S
H1142 C1119 0.930 . S
H1143 C1120 0.931 . S
H1144 C1122 0.931 . S
H1145 C1124 0.930 . S
H1146 C1126 0.930 . S
H1147 C1127 0.931 . S
H1148 C1129 0.931 . S
H1149 C1131 0.930 . S
H1150 C1133 0.930 . S
H1151 C1134 0.931 . S
N1152 C1114 1.343 . S
N1152 C1135 1.343 . S
N1153 C1121 1.343 . S
N1153 C1128 1.343 . S
C1154 C1155 1.384 1_545 S
C1154 C1156 1.384 . S
C1154 H1182 0.931 . S
C1155 C1154 1.384 1_565 S
C1155 C1158 1.382 . S
C1156 C1154 1.384 . S
C1156 C1157 1.381 1_545 S
C1156 H1183 0.930 . S
C1157 C1156 1.381 1_565 S
C1157 C1159 1.381 . S
C1157 C1160 1.487 . S
C1158 C1155 1.382 . S
C1158 C1159 1.387 . S
C1158 H1184 0.930 . S
C1159 C1157 1.381 . S
C1159 C1158 1.387 . S
C1159 H1185 0.931 . S
C1160 C1157 1.487 . S
C1160 C1167 1.399 1_565 S
C1160 N1198 1.343 . S
C1161 C1162 1.384 1_565 S
C1161 C1163 1.384 . S
C1161 H1186 0.931 . S
C1162 C1161 1.384 1_545 S
C1162 C1165 1.382 . S
C1163 C1161 1.384 . S
C1163 C1164 1.381 1_565 S
C1163 H1187 0.930 . S
C1164 C1163 1.381 1_545 S
C1164 C1166 1.381 . S
C1164 C1167 1.487 . S
C1165 C1162 1.382 . S
C1165 C1166 1.387 . S
C1165 H1188 0.930 . S
C1166 C1164 1.381 . S
C1166 C1165 1.387 . S
C1166 H1189 0.931 . S
C1167 C1160 1.399 1_545 S
C1167 C1164 1.487 . S
C1167 N1199 1.343 . S
C1168 C1169 1.384 1_565 S
C1168 C1170 1.384 . S
C1168 H1190 0.931 . S
C1169 C1168 1.384 1_545 S
C1169 C1172 1.382 . S
C1170 C1168 1.384 . S
C1170 C1171 1.381 1_565 S
C1170 H1191 0.930 . S
C1171 C1170 1.381 1_545 S
C1171 C1173 1.381 . S
C1171 C1174 1.487 . S
C1172 C1169 1.382 . S
C1172 C1173 1.387 . S
C1172 H1192 0.930 . S
C1173 C1171 1.381 . S
C1173 C1172 1.387 . S
C1173 H1193 0.931 . S
C1174 C1171 1.487 . S
C1174 C1181 1.399 1_545 S
C1174 N1199 1.343 . S
C1175 C1176 1.384 1_545 S
C1175 C1177 1.384 . S
C1175 H1194 0.931 . S
C1176 C1175 1.384 1_565 S
C1176 C1179 1.382 . S
C1177 C1175 1.384 . S
C1177 C1178 1.381 1_545 S
C1177 H1195 0.930 . S
C1178 C1177 1.381 1_565 S
C1178 C1180 1.381 . S
C1178 C1181 1.487 . S
C1179 C1176 1.382 . S
C1179 C1180 1.387 . S
C1179 H1196 0.930 . S
C1180 C1178 1.381 . S
C1180 C1179 1.387 . S
C1180 H1197 0.931 . S
C1181 C1174 1.399 1_565 S
C1181 C1178 1.487 . S
C1181 N1198 1.343 . S
H1182 C1154 0.931 . S
H1183 C1156 0.930 . S
H1184 C1158 0.930 . S
H1185 C1159 0.931 . S
H1186 C1161 0.931 . S
H1187 C1163 0.930 . S
H1188 C1165 0.930 . S
H1189 C1166 0.931 . S
H1190 C1168 0.931 . S
H1191 C1170 0.930 . S
H1192 C1172 0.930 . S
H1193 C1173 0.931 . S
H1194 C1175 0.931 . S
H1195 C1177 0.930 . S
H1196 C1179 0.930 . S
H1197 C1180 0.931 . S
N1198 C1160 1.343 . S
N1198 C1181 1.343 . S
N1199 C1167 1.343 . S
N1199 C1174 1.343 . S
C1200 C1201 1.384 . S
C1200 C1202 1.384 . S
C1200 H1228 0.931 . S
C1201 C1200 1.384 . S
C1201 C1204 1.382 1_545 S
C1202 C1200 1.384 . S
C1202 C1203 1.385 . S
C1202 H1229 0.930 . S
C1203 C1202 1.385 . S
C1203 C1205 1.372 1_545 S
C1203 C1206 1.496 1_545 S
C1204 C1201 1.382 1_565 S
C1204 C1205 1.387 . S
C1204 H1230 0.930 . S
C1205 C1203 1.372 1_565 S
C1205 C1204 1.387 . S
C1205 H1231 0.931 . S
C1206 C1203 1.496 1_565 S
C1206 C1213 1.399 1_565 S
C1206 N1244 1.364 . S
C1207 C1208 1.384 . S
C1207 C1209 1.384 . S
C1207 H1232 0.931 . S
C1208 C1207 1.384 . S
C1208 C1211 1.382 1_565 S
C1209 C1207 1.384 . S
C1209 C1210 1.388 . S
C1209 H1233 0.930 . S
C1210 C1209 1.388 . S
C1210 C1212 1.377 1_565 S
C1210 C1213 1.477 1_565 S
C1211 C1208 1.382 1_545 S
C1211 C1212 1.387 . S
C1211 H1234 0.930 . S
C1212 C1210 1.377 1_545 S
C1212 C1211 1.387 . S
C1212 H1235 0.931 . S
C1213 C1206 1.399 1_545 S
C1213 C1210 1.477 1_545 S
C1213 N1245 1.351 . S
C1214 C1215 1.384 . S
C1214 C1216 1.384 . S
C1214 H1236 0.931 . S
C1215 C1214 1.384 . S
C1215 C1218 1.382 1_565 S
C1216 C1214 1.384 . S
C1216 C1217 1.382 . S
C1216 H1237 0.930 . S
C1217 C1216 1.382 . S
C1217 C1219 1.379 1_565 S
C1217 C1220 1.496 1_565 S
C1218 C1215 1.382 1_545 S
C1218 C1219 1.387 . S
C1218 H1238 0.930 . S
C1219 C1217 1.379 1_545 S
C1219 C1218 1.387 . S
C1219 H1239 0.931 . S
C1220 C1217 1.496 1_545 S
C1220 C1227 1.399 1_545 S
C1220 N1245 1.335 . S
C1221 C1222 1.384 . S
C1221 C1223 1.384 . S
C1221 H1240 0.931 . S
C1222 C1221 1.384 . S
C1222 C1225 1.382 1_545 S
C1223 C1221 1.384 . S
C1223 C1224 1.401 . S
C1223 H1241 0.930 . S
C1224 C1223 1.401 . S
C1224 C1226 1.371 1_545 S
C1224 C1227 1.477 1_545 S
C1225 C1222 1.382 1_565 S
C1225 C1226 1.387 . S
C1225 H1242 0.930 . S
C1226 C1224 1.371 1_565 S
C1226 C1225 1.387 . S
C1226 H1243 0.931 . S
C1227 C1220 1.399 1_565 S
C1227 C1224 1.477 1_565 S
C1227 N1244 1.319 . S
H1228 C1200 0.931 . S
H1229 C1202 0.930 . S
H1230 C1204 0.930 . S
H1231 C1205 0.931 . S
H1232 C1207 0.931 . S
H1233 C1209 0.930 . S
H1234 C1211 0.930 . S
H1235 C1212 0.931 . S
H1236 C1214 0.931 . S
H1237 C1216 0.930 . S
H1238 C1218 0.930 . S
H1239 C1219 0.931 . S
H1240 C1221 0.931 . S
H1241 C1223 0.930 . S
H1242 C1225 0.930 . S
H1243 C1226 0.931 . S
N1244 C1206 1.364 . S
N1244 C1227 1.319 . S
N1245 C1213 1.351 . S
N1245 C1220 1.335 . S
C1246 C1247 1.384 . S
C1246 C1248 1.384 . S
C1246 H1274 0.931 . S
C1247 C1246 1.384 . S
C1247 C1250 1.382 1_655 S
C1248 C1246 1.384 . S
C1248 C1249 1.416 . S
C1248 H1275 0.930 . S
C1249 C1248 1.416 . S
C1249 C1251 1.363 1_655 S
C1249 C1252 1.473 1_655 S
C1250 C1247 1.382 1_455 S
C1250 C1251 1.387 . S
C1250 H1276 0.930 . S
C1251 C1249 1.363 1_455 S
C1251 C1250 1.387 . S
C1251 H1277 0.931 . S
C1252 C1249 1.473 1_455 S
C1252 C1259 1.399 1_455 S
C1252 N1290 1.324 . S
C1253 C1254 1.384 . S
C1253 C1255 1.384 . S
C1253 H1278 0.931 . S
C1254 C1253 1.384 . S
C1254 C1257 1.382 1_455 S
C1255 C1253 1.384 . S
C1255 C1256 1.387 . S
C1255 H1279 0.930 . S
C1256 C1255 1.387 . S
C1256 C1258 1.367 1_455 S
C1256 C1259 1.501 1_455 S
C1257 C1254 1.382 1_655 S
C1257 C1258 1.387 . S
C1257 H1280 0.930 . S
C1258 C1256 1.367 1_655 S
C1258 C1257 1.387 . S
C1258 H1281 0.931 . S
C1259 C1252 1.399 1_655 S
C1259 C1256 1.501 1_655 S
C1259 N1291 1.361 . S
C1260 C1261 1.384 . S
C1260 C1262 1.384 . S
C1260 H1282 0.931 . S
C1261 C1260 1.384 . S
C1261 C1264 1.382 1_455 S
C1262 C1260 1.384 . S
C1262 C1263 1.403 . S
C1262 H1283 0.930 . S
C1263 C1262 1.403 . S
C1263 C1265 1.370 1_455 S
C1263 C1266 1.473 1_455 S
C1264 C1261 1.382 1_655 S
C1264 C1265 1.387 . S
C1264 H1284 0.930 . S
C1265 C1263 1.370 1_655 S
C1265 C1264 1.387 . S
C1265 H1285 0.931 . S
C1266 C1263 1.473 1_655 S
C1266 C1273 1.399 1_655 S
C1266 N1291 1.324 . S
C1267 C1268 1.384 . S
C1267 C1269 1.384 . S
C1267 H1286 0.931 . S
C1268 C1267 1.384 . S
C1268 C1271 1.382 1_655 S
C1269 C1267 1.384 . S
C1269 C1270 1.390 . S
C1269 H1287 0.930 . S
C1270 C1269 1.390 . S
C1270 C1272 1.359 1_655 S
C1270 C1273 1.501 1_655 S
C1271 C1268 1.382 1_455 S
C1271 C1272 1.387 . S
C1271 H1288 0.930 . S
C1272 C1270 1.359 1_455 S
C1272 C1271 1.387 . S
C1272 H1289 0.931 . S
C1273 C1266 1.399 1_455 S
C1273 C1270 1.501 1_455 S
C1273 N1290 1.361 . S
H1274 C1246 0.931 . S
H1275 C1248 0.930 . S
H1276 C1250 0.930 . S
H1277 C1251 0.931 . S
H1278 C1253 0.931 . S
H1279 C1255 0.930 . S
H1280 C1257 0.930 . S
H1281 C1258 0.931 . S
H1282 C1260 0.931 . S
H1283 C1262 0.930 . S
H1284 C1264 0.930 . S
H1285 C1265 0.931 . S
H1286 C1267 0.931 . S
H1287 C1269 0.930 . S
H1288 C1271 0.930 . S
H1289 C1272 0.931 . S
N1290 C1252 1.324 . S
N1290 C1273 1.361 . S
N1291 C1259 1.361 . S
N1291 C1266 1.324 . S
C1292 C1293 1.384 . S
C1292 C1294 1.384 . S
C1292 H1320 0.931 . S
C1293 C1292 1.384 . S
C1293 C1296 1.382 . S
C1294 C1292 1.384 . S
C1294 C1295 1.381 . S
C1294 H1321 0.930 . S
C1295 C1294 1.381 . S
C1295 C1297 1.381 . S
C1295 C1298 1.487 . S
C1296 C1293 1.382 . S
C1296 C1297 1.387 . S
C1296 H1322 0.930 . S
C1297 C1295 1.381 . S
C1297 C1296 1.387 . S
C1297 H1323 0.931 . S
C1298 C1295 1.487 . S
C1298 C1305 1.399 . S
C1298 N1336 1.343 . S
C1299 C1300 1.384 . S
C1299 C1301 1.384 . S
C1299 H1324 0.931 . S
C1300 C1299 1.384 . S
C1300 C1303 1.382 . S
C1301 C1299 1.384 . S
C1301 C1302 1.381 . S
C1301 H1325 0.930 . S
C1302 C1301 1.381 . S
C1302 C1304 1.381 . S
C1302 C1305 1.487 . S
C1303 C1300 1.382 . S
C1303 C1304 1.387 . S
C1303 H1326 0.930 . S
C1304 C1302 1.381 . S
C1304 C1303 1.387 . S
C1304 H1327 0.931 . S
C1305 C1298 1.399 . S
C1305 C1302 1.487 . S
C1305 N1337 1.343 . S
C1306 C1307 1.384 . S
C1306 C1308 1.384 . S
C1306 H1328 0.931 . S
C1307 C1306 1.384 . S
C1307 C1310 1.382 . S
C1308 C1306 1.384 . S
C1308 C1309 1.381 . S
C1308 H1329 0.930 . S
C1309 C1308 1.381 . S
C1309 C1311 1.381 . S
C1309 C1312 1.487 . S
C1310 C1307 1.382 . S
C1310 C1311 1.387 . S
C1310 H1330 0.930 . S
C1311 C1309 1.381 . S
C1311 C1310 1.387 . S
C1311 H1331 0.931 . S
C1312 C1309 1.487 . S
C1312 C1319 1.399 . S
C1312 N1337 1.343 . S
C1313 C1314 1.384 . S
C1313 C1315 1.384 . S
C1313 H1332 0.931 . S
C1314 C1313 1.384 . S
C1314 C1317 1.382 . S
C1315 C1313 1.384 . S
C1315 C1316 1.381 . S
C1315 H1333 0.930 . S
C1316 C1315 1.381 . S
C1316 C1318 1.381 . S
C1316 C1319 1.487 . S
C1317 C1314 1.382 . S
C1317 C1318 1.387 . S
C1317 H1334 0.930 . S
C1318 C1316 1.381 . S
C1318 C1317 1.387 . S
C1318 H1335 0.931 . S
C1319 C1312 1.399 . S
C1319 C1316 1.487 . S
C1319 N1336 1.343 . S
H1320 C1292 0.931 . S
H1321 C1294 0.930 . S
H1322 C1296 0.930 . S
H1323 C1297 0.931 . S
H1324 C1299 0.931 . S
H1325 C1301 0.930 . S
H1326 C1303 0.930 . S
H1327 C1304 0.931 . S
H1328 C1306 0.931 . S
H1329 C1308 0.930 . S
H1330 C1310 0.930 . S
H1331 C1311 0.931 . S
H1332 C1313 0.931 . S
H1333 C1315 0.930 . S
H1334 C1317 0.930 . S
H1335 C1318 0.931 . S
N1336 C1298 1.343 . S
N1336 C1319 1.343 . S
N1337 C1305 1.343 . S
N1337 C1312 1.343 . S
C1338 C1339 1.384 . S
C1338 C1340 1.384 . S
C1338 H1366 0.931 . S
C1339 C1338 1.384 . S
C1339 C1342 1.382 . S
C1340 C1338 1.384 . S
C1340 C1341 1.381 . S
C1340 H1367 0.930 . S
C1341 C1340 1.381 . S
C1341 C1343 1.381 . S
C1341 C1344 1.487 . S
C1342 C1339 1.382 . S
C1342 C1343 1.387 . S
C1342 H1368 0.930 . S
C1343 C1341 1.381 . S
C1343 C1342 1.387 . S
C1343 H1369 0.931 . S
C1344 C1341 1.487 . S
C1344 C1351 1.399 . S
C1344 N1382 1.343 . S
C1345 C1346 1.384 . S
C1345 C1347 1.384 . S
C1345 H1370 0.931 . S
C1346 C1345 1.384 . S
C1346 C1349 1.382 . S
C1347 C1345 1.384 . S
C1347 C1348 1.381 . S
C1347 H1371 0.930 . S
C1348 C1347 1.381 . S
C1348 C1350 1.381 . S
C1348 C1351 1.487 . S
C1349 C1346 1.382 . S
C1349 C1350 1.387 . S
C1349 H1372 0.930 . S
C1350 C1348 1.381 . S
C1350 C1349 1.387 . S
C1350 H1373 0.931 . S
C1351 C1344 1.399 . S
C1351 C1348 1.487 . S
C1351 N1383 1.343 . S
C1352 C1353 1.384 . S
C1352 C1354 1.384 . S
C1352 H1374 0.931 . S
C1353 C1352 1.384 . S
C1353 C1356 1.382 . S
C1354 C1352 1.384 . S
C1354 C1355 1.381 . S
C1354 H1375 0.930 . S
C1355 C1354 1.381 . S
C1355 C1357 1.381 . S
C1355 C1358 1.487 . S
C1356 C1353 1.382 . S
C1356 C1357 1.387 . S
C1356 H1376 0.930 . S
C1357 C1355 1.381 . S
C1357 C1356 1.387 . S
C1357 H1377 0.931 . S
C1358 C1355 1.487 . S
C1358 C1365 1.399 . S
C1358 N1383 1.343 . S
C1359 C1360 1.384 . S
C1359 C1361 1.384 . S
C1359 H1378 0.931 . S
C1360 C1359 1.384 . S
C1360 C1363 1.382 . S
C1361 C1359 1.384 . S
C1361 C1362 1.381 . S
C1361 H1379 0.930 . S
C1362 C1361 1.381 . S
C1362 C1364 1.381 . S
C1362 C1365 1.487 . S
C1363 C1360 1.382 . S
C1363 C1364 1.387 . S
C1363 H1380 0.930 . S
C1364 C1362 1.381 . S
C1364 C1363 1.387 . S
C1364 H1381 0.931 . S
C1365 C1358 1.399 . S
C1365 C1362 1.487 . S
C1365 N1382 1.343 . S
H1366 C1338 0.931 . S
H1367 C1340 0.930 . S
H1368 C1342 0.930 . S
H1369 C1343 0.931 . S
H1370 C1345 0.931 . S
H1371 C1347 0.930 . S
H1372 C1349 0.930 . S
H1373 C1350 0.931 . S
H1374 C1352 0.931 . S
H1375 C1354 0.930 . S
H1376 C1356 0.930 . S
H1377 C1357 0.931 . S
H1378 C1359 0.931 . S
H1379 C1361 0.930 . S
H1380 C1363 0.930 . S
H1381 C1364 0.931 . S
N1382 C1344 1.343 . S
N1382 C1365 1.343 . S
N1383 C1351 1.343 . S
N1383 C1358 1.343 . S
C1384 C1385 1.384 . S
C1384 C1386 1.384 . S
C1384 H1412 0.931 . S
C1385 C1384 1.384 . S
C1385 C1388 1.382 . S
C1386 C1384 1.384 . S
C1386 C1387 1.381 . S
C1386 H1413 0.930 . S
C1387 C1386 1.381 . S
C1387 C1389 1.381 . S
C1387 C1390 1.487 . S
C1388 C1385 1.382 . S
C1388 C1389 1.387 . S
C1388 H1414 0.930 . S
C1389 C1387 1.381 . S
C1389 C1388 1.387 . S
C1389 H1415 0.931 . S
C1390 C1387 1.487 . S
C1390 C1397 1.399 . S
C1390 N1428 1.343 . S
C1391 C1392 1.384 . S
C1391 C1393 1.384 . S
C1391 H1416 0.931 . S
C1392 C1391 1.384 . S
C1392 C1395 1.382 . S
C1393 C1391 1.384 . S
C1393 C1394 1.381 . S
C1393 H1417 0.930 . S
C1394 C1393 1.381 . S
C1394 C1396 1.381 . S
C1394 C1397 1.487 . S
C1395 C1392 1.382 . S
C1395 C1396 1.387 . S
C1395 H1418 0.930 . S
C1396 C1394 1.381 . S
C1396 C1395 1.387 . S
C1396 H1419 0.931 . S
C1397 C1390 1.399 . S
C1397 C1394 1.487 . S
C1397 N1429 1.343 . S
C1398 C1399 1.384 . S
C1398 C1400 1.384 . S
C1398 H1420 0.931 . S
C1399 C1398 1.384 . S
C1399 C1402 1.382 . S
C1400 C1398 1.384 . S
C1400 C1401 1.381 . S
C1400 H1421 0.930 . S
C1401 C1400 1.381 . S
C1401 C1403 1.381 . S
C1401 C1404 1.487 . S
C1402 C1399 1.382 . S
C1402 C1403 1.387 . S
C1402 H1422 0.930 . S
C1403 C1401 1.381 . S
C1403 C1402 1.387 . S
C1403 H1423 0.931 . S
C1404 C1401 1.487 . S
C1404 C1411 1.399 . S
C1404 N1429 1.343 . S
C1405 C1406 1.384 . S
C1405 C1407 1.384 . S
C1405 H1424 0.931 . S
C1406 C1405 1.384 . S
C1406 C1409 1.382 . S
C1407 C1405 1.384 . S
C1407 C1408 1.381 . S
C1407 H1425 0.930 . S
C1408 C1407 1.381 . S
C1408 C1410 1.381 . S
C1408 C1411 1.487 . S
C1409 C1406 1.382 . S
C1409 C1410 1.387 . S
C1409 H1426 0.930 . S
C1410 C1408 1.381 . S
C1410 C1409 1.387 . S
C1410 H1427 0.931 . S
C1411 C1404 1.399 . S
C1411 C1408 1.487 . S
C1411 N1428 1.343 . S
H1412 C1384 0.931 . S
H1413 C1386 0.930 . S
H1414 C1388 0.930 . S
H1415 C1389 0.931 . S
H1416 C1391 0.931 . S
H1417 C1393 0.930 . S
H1418 C1395 0.930 . S
H1419 C1396 0.931 . S
H1420 C1398 0.931 . S
H1421 C1400 0.930 . S
H1422 C1402 0.930 . S
H1423 C1403 0.931 . S
H1424 C1405 0.931 . S
H1425 C1407 0.930 . S
H1426 C1409 0.930 . S
H1427 C1410 0.931 . S
N1428 C1390 1.343 . S
N1428 C1411 1.343 . S
N1429 C1397 1.343 . S
N1429 C1404 1.343 . S
C1430 C1431 1.384 . S
C1430 C1432 1.384 . S
C1430 H1458 0.931 . S
C1431 C1430 1.384 . S
C1431 C1434 1.382 . S
C1432 C1430 1.384 . S
C1432 C1433 1.381 . S
C1432 H1459 0.930 . S
C1433 C1432 1.381 . S
C1433 C1435 1.381 . S
C1433 C1436 1.487 . S
C1434 C1431 1.382 . S
C1434 C1435 1.387 . S
C1434 H1460 0.930 . S
C1435 C1433 1.381 . S
C1435 C1434 1.387 . S
C1435 H1461 0.931 . S
C1436 C1433 1.487 . S
C1436 C1443 1.399 . S
C1436 N1474 1.343 . S
C1437 C1438 1.384 . S
C1437 C1439 1.384 . S
C1437 H1462 0.931 . S
C1438 C1437 1.384 . S
C1438 C1441 1.382 . S
C1439 C1437 1.384 . S
C1439 C1440 1.381 . S
C1439 H1463 0.930 . S
C1440 C1439 1.381 . S
C1440 C1442 1.381 . S
C1440 C1443 1.487 . S
C1441 C1438 1.382 . S
C1441 C1442 1.387 . S
C1441 H1464 0.930 . S
C1442 C1440 1.381 . S
C1442 C1441 1.387 . S
C1442 H1465 0.931 . S
C1443 C1436 1.399 . S
C1443 C1440 1.487 . S
C1443 N1475 1.343 . S
C1444 C1445 1.384 . S
C1444 C1446 1.384 . S
C1444 H1466 0.931 . S
C1445 C1444 1.384 . S
C1445 C1448 1.382 . S
C1446 C1444 1.384 . S
C1446 C1447 1.381 . S
C1446 H1467 0.930 . S
C1447 C1446 1.381 . S
C1447 C1449 1.381 . S
C1447 C1450 1.487 . S
C1448 C1445 1.382 . S
C1448 C1449 1.387 . S
C1448 H1468 0.930 . S
C1449 C1447 1.381 . S
C1449 C1448 1.387 . S
C1449 H1469 0.931 . S
C1450 C1447 1.487 . S
C1450 C1457 1.399 . S
C1450 N1475 1.343 . S
C1451 C1452 1.384 . S
C1451 C1453 1.384 . S
C1451 H1470 0.931 . S
C1452 C1451 1.384 . S
C1452 C1455 1.382 . S
C1453 C1451 1.384 . S
C1453 C1454 1.381 . S
C1453 H1471 0.930 . S
C1454 C1453 1.381 . S
C1454 C1456 1.381 . S
C1454 C1457 1.487 . S
C1455 C1452 1.382 . S
C1455 C1456 1.387 . S
C1455 H1472 0.930 . S
C1456 C1454 1.381 . S
C1456 C1455 1.387 . S
C1456 H1473 0.931 . S
C1457 C1450 1.399 . S
C1457 C1454 1.487 . S
C1457 N1474 1.343 . S
H1458 C1430 0.931 . S
H1459 C1432 0.930 . S
H1460 C1434 0.930 . S
H1461 C1435 0.931 . S
H1462 C1437 0.931 . S
H1463 C1439 0.930 . S
H1464 C1441 0.930 . S
H1465 C1442 0.931 . S
H1466 C1444 0.931 . S
H1467 C1446 0.930 . S
H1468 C1448 0.930 . S
H1469 C1449 0.931 . S
H1470 C1451 0.931 . S
H1471 C1453 0.930 . S
H1472 C1455 0.930 . S
H1473 C1456 0.931 . S
N1474 C1436 1.343 . S
N1474 C1457 1.343 . S
N1475 C1443 1.343 . S
N1475 C1450 1.343 . S
C1476 C1477 1.363 1_455 S
C1476 C1482 1.379 . S
C1476 N1484 1.356 . S
C1477 C1476 1.363 1_655 S
C1477 C1483 1.363 . S
C1478 C1479 1.363 . S
C1478 C1483 1.379 . S
C1478 N1485 1.356 . S
C1479 C1478 1.363 . S
C1479 C1482 1.363 1_655 S
N1480 C1482 1.356 . S
N1480 H1492 0.984 . S
N1480 H1493 0.985 . S
N1481 C1483 1.356 . S
N1481 H1486 0.984 . S
N1481 H1487 0.985 . S
C1482 C1476 1.379 . S
C1482 C1479 1.363 1_455 S
C1482 N1480 1.356 . S
C1483 C1477 1.363 . S
C1483 C1478 1.379 . S
C1483 N1481 1.356 . S
N1484 C1476 1.356 . S
N1484 H1490 0.984 . S
N1484 H1491 0.984 . S
N1485 C1478 1.356 . S
N1485 H1488 0.984 . S
N1485 H1489 0.985 . S
H1486 N1481 0.984 . S
H1487 N1481 0.985 . S
H1488 N1485 0.984 . S
H1489 N1485 0.985 . S
H1490 N1484 0.984 . S
H1491 N1484 0.984 . S
H1492 N1480 0.984 . S
H1493 N1480 0.985 . S
C1494 C1495 1.363 . S
C1494 C1500 1.379 . S
C1494 N1502 1.356 . S
C1495 C1494 1.363 . S
C1495 C1501 1.363 . S
C1496 C1497 1.363 . S
C1496 C1501 1.379 . S
C1496 N1503 1.356 . S
C1497 C1496 1.363 . S
C1497 C1500 1.363 . S
N1498 C1500 1.356 . S
N1498 H1510 0.984 . S
N1498 H1511 0.985 . S
N1499 C1501 1.356 . S
N1499 H1504 0.984 . S
N1499 H1505 0.985 . S
C1500 C1494 1.379 . S
C1500 C1497 1.363 . S
C1500 N1498 1.356 . S
C1501 C1495 1.363 . S
C1501 C1496 1.379 . S
C1501 N1499 1.356 . S
N1502 C1494 1.356 . S
N1502 H1508 0.984 . S
N1502 H1509 0.984 . S
N1503 C1496 1.356 . S
N1503 H1506 0.984 . S
N1503 H1507 0.985 . S
H1504 N1499 0.984 . S
H1505 N1499 0.985 . S
H1506 N1503 0.984 . S
H1507 N1503 0.985 . S
H1508 N1502 0.984 . S
H1509 N1502 0.984 . S
H1510 N1498 0.984 . S
H1511 N1498 0.985 . S
C1512 C1513 1.363 1_565 S
C1512 C1518 1.379 . S
C1512 N1520 1.356 . S
C1513 C1512 1.363 1_545 S
C1513 C1519 1.363 . S
C1514 C1515 1.363 . S
C1514 C1519 1.379 . S
C1514 N1521 1.356 . S
C1515 C1514 1.363 . S
C1515 C1518 1.363 1_545 S
N1516 C1518 1.356 . S
N1516 H1528 0.984 . S
N1516 H1529 0.985 . S
N1517 C1519 1.356 . S
N1517 H1522 0.984 . S
N1517 H1523 0.985 . S
C1518 C1512 1.379 . S
C1518 C1515 1.363 1_565 S
C1518 N1516 1.356 . S
C1519 C1513 1.363 . S
C1519 C1514 1.379 . S
C1519 N1517 1.356 . S
N1520 C1512 1.356 . S
N1520 H1526 0.984 . S
N1520 H1527 0.984 . S
N1521 C1514 1.356 . S
N1521 H1524 0.984 . S
N1521 H1525 0.985 . S
H1522 N1517 0.984 . S
H1523 N1517 0.985 . S
H1524 N1521 0.984 . S
H1525 N1521 0.985 . S
H1526 N1520 0.984 . S
H1527 N1520 0.984 . S
H1528 N1516 0.984 . S
H1529 N1516 0.985 . S
C1530 C1531 1.363 . S
C1530 C1536 1.379 . S
C1530 N1538 1.356 . S
C1531 C1530 1.363 . S
C1531 C1537 1.363 1_565 S
C1532 C1533 1.363 1_545 S
C1532 C1537 1.379 . S
C1532 N1539 1.356 . S
C1533 C1532 1.363 1_565 S
C1533 C1536 1.363 . S
N1534 C1536 1.356 . S
N1534 H1546 0.984 . S
N1534 H1547 0.985 . S
N1535 C1537 1.356 . S
N1535 H1540 0.984 . S
N1535 H1541 0.985 . S
C1536 C1530 1.379 . S
C1536 C1533 1.363 . S
C1536 N1534 1.356 . S
C1537 C1531 1.363 1_545 S
C1537 C1532 1.379 . S
C1537 N1535 1.356 . S
N1538 C1530 1.356 . S
N1538 H1544 0.984 . S
N1538 H1545 0.984 . S
N1539 C1532 1.356 . S
N1539 H1542 0.984 . S
N1539 H1543 0.985 . S
H1540 N1535 0.984 . S
H1541 N1535 0.985 . S
H1542 N1539 0.984 . S
H1543 N1539 0.985 . S
H1544 N1538 0.984 . S
H1545 N1538 0.984 . S
H1546 N1534 0.984 . S
H1547 N1534 0.985 . S
C1548 C1549 1.376 . S
C1548 C1554 1.372 1_455 S
C1548 N1556 1.354 1_455 S
C1549 C1548 1.376 . S
C1549 C1555 1.363 . S
C1550 C1551 1.363 . S
C1550 C1555 1.379 . S
C1550 N1557 1.356 . S
C1551 C1550 1.363 . S
C1551 C1554 1.363 1_455 S
N1552 C1554 1.356 . S
N1552 H1564 0.984 . S
N1552 H1565 0.985 . S
N1553 C1555 1.356 . S
N1553 H1558 0.984 . S
N1553 H1559 0.985 . S
C1554 C1548 1.372 1_655 S
C1554 C1551 1.363 1_655 S
C1554 N1552 1.356 . S
C1555 C1549 1.363 . S
C1555 C1550 1.379 . S
C1555 N1553 1.356 . S
N1556 C1548 1.354 1_655 S
N1556 H1562 0.984 . S
N1556 H1563 0.984 . S
N1557 C1550 1.356 . S
N1557 H1560 0.984 . S
N1557 H1561 0.985 . S
H1558 N1553 0.984 . S
H1559 N1553 0.985 . S
H1560 N1557 0.984 . S
H1561 N1557 0.985 . S
H1562 N1556 0.984 . S
H1563 N1556 0.984 . S
H1564 N1552 0.984 . S
H1565 N1552 0.985 . S
C1566 C1567 1.363 . S
C1566 C1572 1.379 . S
C1566 N1574 1.356 . S
C1567 C1566 1.363 . S
C1567 C1573 1.363 . S
C1568 C1569 1.363 . S
C1568 C1573 1.379 . S
C1568 N1575 1.356 . S
C1569 C1568 1.363 . S
C1569 C1572 1.363 . S
N1570 C1572 1.356 . S
N1570 H1582 0.984 . S
N1570 H1583 0.985 . S
N1571 C1573 1.356 . S
N1571 H1576 0.984 . S
N1571 H1577 0.985 . S
C1572 C1566 1.379 . S
C1572 C1569 1.363 . S
C1572 N1570 1.356 . S
C1573 C1567 1.363 . S
C1573 C1568 1.379 . S
C1573 N1571 1.356 . S
N1574 C1566 1.356 . S
N1574 H1580 0.984 . S
N1574 H1581 0.984 . S
N1575 C1568 1.356 . S
N1575 H1578 0.984 . S
N1575 H1579 0.985 . S
H1576 N1571 0.984 . S
H1577 N1571 0.985 . S
H1578 N1575 0.984 . S
H1579 N1575 0.985 . S
H1580 N1574 0.984 . S
H1581 N1574 0.984 . S
H1582 N1570 0.984 . S
H1583 N1570 0.985 . S
C1584 C1585 1.363 1_655 S
C1584 C1590 1.379 . S
C1584 N1592 1.356 . S
C1585 C1584 1.363 1_455 S
C1585 C1591 1.363 . S
C1586 C1587 1.363 . S
C1586 C1591 1.379 . S
C1586 N1593 1.356 . S
C1587 C1586 1.363 . S
C1587 C1590 1.363 1_455 S
N1588 C1590 1.356 . S
N1588 H1600 0.984 . S
N1588 H1601 0.985 . S
N1589 C1591 1.356 . S
N1589 H1594 0.984 . S
N1589 H1595 0.985 . S
C1590 C1584 1.379 . S
C1590 C1587 1.363 1_655 S
C1590 N1588 1.356 . S
C1591 C1585 1.363 . S
C1591 C1586 1.379 . S
C1591 N1589 1.356 . S
N1592 C1584 1.356 . S
N1592 H1598 0.984 . S
N1592 H1599 0.984 . S
N1593 C1586 1.356 . S
N1593 H1596 0.984 . S
N1593 H1597 0.985 . S
H1594 N1589 0.984 . S
H1595 N1589 0.985 . S
H1596 N1593 0.984 . S
H1597 N1593 0.985 . S
H1598 N1592 0.984 . S
H1599 N1592 0.984 . S
H1600 N1588 0.984 . S
H1601 N1588 0.985 . S
C1602 C1603 1.363 . S
C1602 C1608 1.379 . S
C1602 N1610 1.356 . S
C1603 C1602 1.363 . S
C1603 C1609 1.363 . S
C1604 C1605 1.363 . S
C1604 C1609 1.379 . S
C1604 N1611 1.356 . S
C1605 C1604 1.363 . S
C1605 C1608 1.363 . S
N1606 C1608 1.356 . S
N1606 H1618 0.984 . S
N1606 H1619 0.985 . S
N1607 C1609 1.356 . S
N1607 H1612 0.984 . S
N1607 H1613 0.985 . S
C1608 C1602 1.379 . S
C1608 C1605 1.363 . S
C1608 N1606 1.356 . S
C1609 C1603 1.363 . S
C1609 C1604 1.379 . S
C1609 N1607 1.356 . S
N1610 C1602 1.356 . S
N1610 H1616 0.984 . S
N1610 H1617 0.984 . S
N1611 C1604 1.356 . S
N1611 H1614 0.984 . S
N1611 H1615 0.985 . S
H1612 N1607 0.984 . S
H1613 N1607 0.985 . S
H1614 N1611 0.984 . S
H1615 N1611 0.985 . S
H1616 N1610 0.984 . S
H1617 N1610 0.984 . S
H1618 N1606 0.984 . S
H1619 N1606 0.985 . S
C1620 C1621 1.363 1_545 S
C1620 C1626 1.379 . S
C1620 N1628 1.356 . S
C1621 C1620 1.363 1_565 S
C1621 C1627 1.363 . S
C1622 C1623 1.363 . S
C1622 C1627 1.379 . S
C1622 N1629 1.356 . S
C1623 C1622 1.363 . S
C1623 C1626 1.363 1_565 S
N1624 C1626 1.356 . S
N1624 H1636 0.984 . S
N1624 H1637 0.985 . S
N1625 C1627 1.356 . S
N1625 H1630 0.984 . S
N1625 H1631 0.985 . S
C1626 C1620 1.379 . S
C1626 C1623 1.363 1_545 S
C1626 N1624 1.356 . S
C1627 C1621 1.363 . S
C1627 C1622 1.379 . S
C1627 N1625 1.356 . S
N1628 C1620 1.356 . S
N1628 H1634 0.984 . S
N1628 H1635 0.984 . S
N1629 C1622 1.356 . S
N1629 H1632 0.984 . S
N1629 H1633 0.985 . S
H1630 N1625 0.984 . S
H1631 N1625 0.985 . S
H1632 N1629 0.984 . S
H1633 N1629 0.985 . S
H1634 N1628 0.984 . S
H1635 N1628 0.984 . S
H1636 N1624 0.984 . S
H1637 N1624 0.985 . S
C1638 C1639 1.363 . S
C1638 C1644 1.379 . S
C1638 N1646 1.356 . S
C1639 C1638 1.363 . S
C1639 C1645 1.363 1_545 S
C1640 C1641 1.363 1_565 S
C1640 C1645 1.379 . S
C1640 N1647 1.356 . S
C1641 C1640 1.363 1_545 S
C1641 C1644 1.363 . S
N1642 C1644 1.356 . S
N1642 H1654 0.984 . S
N1642 H1655 0.985 . S
N1643 C1645 1.356 . S
N1643 H1648 0.984 . S
N1643 H1649 0.985 . S
C1644 C1638 1.379 . S
C1644 C1641 1.363 . S
C1644 N1642 1.356 . S
C1645 C1639 1.363 1_565 S
C1645 C1640 1.379 . S
C1645 N1643 1.356 . S
N1646 C1638 1.356 . S
N1646 H1652 0.984 . S
N1646 H1653 0.984 . S
N1647 C1640 1.356 . S
N1647 H1650 0.984 . S
N1647 H1651 0.985 . S
H1648 N1643 0.984 . S
H1649 N1643 0.985 . S
H1650 N1647 0.984 . S
H1651 N1647 0.985 . S
H1652 N1646 0.984 . S
H1653 N1646 0.984 . S
H1654 N1642 0.984 . S
H1655 N1642 0.985 . S
C1656 C1657 1.363 . S
C1656 C1662 1.379 . S
C1656 N1664 1.356 . S
C1657 C1656 1.363 . S
C1657 C1663 1.363 1_655 S
C1658 C1659 1.363 1_455 S
C1658 C1663 1.379 . S
C1658 N1665 1.356 . S
C1659 C1658 1.363 1_655 S
C1659 C1662 1.363 . S
N1660 C1662 1.356 . S
N1660 H1672 0.984 . S
N1660 H1673 0.985 . S
N1661 C1663 1.356 . S
N1661 H1666 0.984 . S
N1661 H1667 0.985 . S
C1662 C1656 1.379 . S
C1662 C1659 1.363 . S
C1662 N1660 1.356 . S
C1663 C1657 1.363 1_455 S
C1663 C1658 1.379 . S
C1663 N1661 1.356 . S
N1664 C1656 1.356 . S
N1664 H1670 0.984 . S
N1664 H1671 0.984 . S
N1665 C1658 1.356 . S
N1665 H1668 0.984 . S
N1665 H1669 0.985 . S
H1666 N1661 0.984 . S
H1667 N1661 0.985 . S
H1668 N1665 0.984 . S
H1669 N1665 0.985 . S
H1670 N1664 0.984 . S
H1671 N1664 0.984 . S
H1672 N1660 0.984 . S
H1673 N1660 0.985 . S
C1674 C1675 1.363 . S
C1674 C1680 1.379 . S
C1674 N1682 1.356 . S
C1675 C1674 1.363 . S
C1675 C1681 1.363 . S
C1676 C1677 1.363 . S
C1676 C1681 1.379 . S
C1676 N1683 1.356 . S
C1677 C1676 1.363 . S
C1677 C1680 1.363 . S
N1678 C1680 1.356 . S
N1678 H1690 0.984 . S
N1678 H1691 0.985 . S
N1679 C1681 1.356 . S
N1679 H1684 0.984 . S
N1679 H1685 0.985 . S
C1680 C1674 1.379 . S
C1680 C1677 1.363 . S
C1680 N1678 1.356 . S
C1681 C1675 1.363 . S
C1681 C1676 1.379 . S
C1681 N1679 1.356 . S
N1682 C1674 1.356 . S
N1682 H1688 0.984 . S
N1682 H1689 0.984 . S
N1683 C1676 1.356 . S
N1683 H1686 0.984 . S
N1683 H1687 0.985 . S
H1684 N1679 0.984 . S
H1685 N1679 0.985 . S
H1686 N1683 0.984 . S
H1687 N1683 0.985 . S
H1688 N1682 0.984 . S
H1689 N1682 0.984 . S
H1690 N1678 0.984 . S
H1691 N1678 0.985 . S
C1692 C1693 1.363 . S
C1692 C1698 1.379 . S
C1692 N1700 1.356 . S
C1693 C1692 1.363 . S
C1693 C1699 1.363 . S
C1694 C1695 1.363 . S
C1694 C1699 1.379 . S
C1694 N1701 1.356 . S
C1695 C1694 1.363 . S
C1695 C1698 1.363 . S
N1696 C1698 1.356 . S
N1696 H1708 0.984 . S
N1696 H1709 0.985 . S
N1697 C1699 1.356 . S
N1697 H1702 0.984 . S
N1697 H1703 0.985 . S
C1698 C1692 1.379 . S
C1698 C1695 1.363 . S
C1698 N1696 1.356 . S
C1699 C1693 1.363 . S
C1699 C1694 1.379 . S
C1699 N1697 1.356 . S
N1700 C1692 1.356 . S
N1700 H1706 0.984 . S
N1700 H1707 0.984 . S
N1701 C1694 1.356 . S
N1701 H1704 0.984 . S
N1701 H1705 0.985 . S
H1702 N1697 0.984 . S
H1703 N1697 0.985 . S
H1704 N1701 0.984 . S
H1705 N1701 0.985 . S
H1706 N1700 0.984 . S
H1707 N1700 0.984 . S
H1708 N1696 0.984 . S
H1709 N1696 0.985 . S
C1710 C1711 1.363 . S
C1710 C1716 1.379 . S
C1710 N1718 1.356 . S
C1711 C1710 1.363 . S
C1711 C1717 1.363 . S
C1712 C1713 1.363 . S
C1712 C1717 1.379 . S
C1712 N1719 1.356 . S
C1713 C1712 1.363 . S
C1713 C1716 1.363 . S
N1714 C1716 1.356 . S
N1714 H1726 0.984 . S
N1714 H1727 0.985 . S
N1715 C1717 1.356 . S
N1715 H1720 0.984 . S
N1715 H1721 0.985 . S
C1716 C1710 1.379 . S
C1716 C1713 1.363 . S
C1716 N1714 1.356 . S
C1717 C1711 1.363 . S
C1717 C1712 1.379 . S
C1717 N1715 1.356 . S
N1718 C1710 1.356 . S
N1718 H1724 0.984 . S
N1718 H1725 0.984 . S
N1719 C1712 1.356 . S
N1719 H1722 0.984 . S
N1719 H1723 0.985 . S
H1720 N1715 0.984 . S
H1721 N1715 0.985 . S
H1722 N1719 0.984 . S
H1723 N1719 0.985 . S
H1724 N1718 0.984 . S
H1725 N1718 0.984 . S
H1726 N1714 0.984 . S
H1727 N1714 0.985 . S
C1728 C1729 1.363 . S
C1728 C1734 1.379 . S
C1728 N1736 1.356 . S
C1729 C1728 1.363 . S
C1729 C1735 1.363 . S
C1730 C1731 1.363 . S
C1730 C1735 1.379 . S
C1730 N1737 1.356 . S
C1731 C1730 1.363 . S
C1731 C1734 1.363 . S
N1732 C1734 1.356 . S
N1732 H1744 0.984 . S
N1732 H1745 0.985 . S
N1733 C1735 1.356 . S
N1733 H1738 0.984 . S
N1733 H1739 0.985 . S
C1734 C1728 1.379 . S
C1734 C1731 1.363 . S
C1734 N1732 1.356 . S
C1735 C1729 1.363 . S
C1735 C1730 1.379 . S
C1735 N1733 1.356 . S
N1736 C1728 1.356 . S
N1736 H1742 0.984 . S
N1736 H1743 0.984 . S
N1737 C1730 1.356 . S
N1737 H1740 0.984 . S
N1737 H1741 0.985 . S
H1738 N1733 0.984 . S
H1739 N1733 0.985 . S
H1740 N1737 0.984 . S
H1741 N1737 0.985 . S
H1742 N1736 0.984 . S
H1743 N1736 0.984 . S
H1744 N1732 0.984 . S
H1745 N1732 0.985 . S
C1746 C1747 1.363 . S
C1746 C1752 1.379 . S
C1746 N1754 1.356 . S
C1747 C1746 1.363 . S
C1747 C1753 1.363 . S
C1748 C1749 1.363 . S
C1748 C1753 1.379 . S
C1748 N1755 1.356 . S
C1749 C1748 1.363 . S
C1749 C1752 1.363 . S
N1750 C1752 1.356 . S
N1750 H1762 0.984 . S
N1750 H1763 0.985 . S
N1751 C1753 1.356 . S
N1751 H1756 0.984 . S
N1751 H1757 0.985 . S
C1752 C1746 1.379 . S
C1752 C1749 1.363 . S
C1752 N1750 1.356 . S
C1753 C1747 1.363 . S
C1753 C1748 1.379 . S
C1753 N1751 1.356 . S
N1754 C1746 1.356 . S
N1754 H1760 0.984 . S
N1754 H1761 0.984 . S
N1755 C1748 1.356 . S
N1755 H1758 0.984 . S
N1755 H1759 0.985 . S
H1756 N1751 0.984 . S
H1757 N1751 0.985 . S
H1758 N1755 0.984 . S
H1759 N1755 0.985 . S
H1760 N1754 0.984 . S
H1761 N1754 0.984 . S
H1762 N1750 0.984 . S
H1763 N1750 0.985 . S
C1764 C1765 1.363 . S
C1764 C1770 1.379 . S
C1764 N1772 1.356 . S
C1765 C1764 1.363 . S
C1765 C1771 1.363 . S
C1766 C1767 1.363 . S
C1766 C1771 1.379 . S
C1766 N1773 1.356 . S
C1767 C1766 1.363 . S
C1767 C1770 1.363 . S
N1768 C1770 1.356 . S
N1768 H1780 0.984 . S
N1768 H1781 0.985 . S
N1769 C1771 1.356 . S
N1769 H1774 0.984 . S
N1769 H1775 0.985 . S
C1770 C1764 1.379 . S
C1770 C1767 1.363 . S
C1770 N1768 1.356 . S
C1771 C1765 1.363 . S
C1771 C1766 1.379 . S
C1771 N1769 1.356 . S
N1772 C1764 1.356 . S
N1772 H1778 0.984 . S
N1772 H1779 0.984 . S
N1773 C1766 1.356 . S
N1773 H1776 0.984 . S
N1773 H1777 0.985 . S
H1774 N1769 0.984 . S
H1775 N1769 0.985 . S
H1776 N1773 0.984 . S
H1777 N1773 0.985 . S
H1778 N1772 0.984 . S
H1779 N1772 0.984 . S
H1780 N1768 0.984 . S
H1781 N1768 0.985 . S
C1782 C1783 1.363 . S
C1782 C1788 1.379 . S
C1782 N1790 1.356 . S
C1783 C1782 1.363 . S
C1783 C1789 1.363 . S
C1784 C1785 1.363 . S
C1784 C1789 1.379 . S
C1784 N1791 1.356 . S
C1785 C1784 1.363 . S
C1785 C1788 1.363 . S
N1786 C1788 1.356 . S
N1786 H1798 0.984 . S
N1786 H1799 0.985 . S
N1787 C1789 1.356 . S
N1787 H1792 0.984 . S
N1787 H1793 0.985 . S
C1788 C1782 1.379 . S
C1788 C1785 1.363 . S
C1788 N1786 1.356 . S
C1789 C1783 1.363 . S
C1789 C1784 1.379 . S
C1789 N1787 1.356 . S
N1790 C1782 1.356 . S
N1790 H1796 0.929 1_565 S
N1790 H1797 0.984 . S
N1791 C1784 1.356 . S
N1791 H1794 0.984 . S
N1791 H1795 0.985 . S
H1792 N1787 0.984 . S
H1793 N1787 0.985 . S
H1794 N1791 0.984 . S
H1795 N1791 0.985 . S
H1796 N1790 0.929 1_545 S
H1797 N1790 0.984 . S
H1798 N1786 0.984 . S
H1799 N1786 0.985 . S
C1800 C1801 1.363 . S
C1800 C1806 1.379 . S
C1800 N1808 1.356 . S
C1801 C1800 1.363 . S
C1801 C1807 1.363 . S
C1802 C1803 1.363 . S
C1802 C1807 1.379 . S
C1802 N1809 1.356 . S
C1803 C1802 1.363 . S
C1803 C1806 1.363 . S
N1804 C1806 1.356 . S
N1804 H1816 0.984 . S
N1804 H1817 0.985 . S
N1805 C1807 1.356 . S
N1805 H1810 0.984 . S
N1805 H1811 0.985 . S
C1806 C1800 1.379 . S
C1806 C1803 1.363 . S
C1806 N1804 1.356 . S
C1807 C1801 1.363 . S
C1807 C1802 1.379 . S
C1807 N1805 1.356 . S
N1808 C1800 1.356 . S
N1808 H1814 0.984 . S
N1808 H1815 0.984 . S
N1809 C1802 1.356 . S
N1809 H1812 0.984 . S
N1809 H1813 0.985 . S
H1810 N1805 0.984 . S
H1811 N1805 0.985 . S
H1812 N1809 0.984 . S
H1813 N1809 0.985 . S
H1814 N1808 0.984 . S
H1815 N1808 0.984 . S
H1816 N1804 0.984 . S
H1817 N1804 0.985 . S
C1818 C1819 1.363 . S
C1818 C1824 1.379 . S
C1818 N1826 1.356 . S
C1819 C1818 1.363 . S
C1819 C1825 1.363 . S
C1820 C1821 1.363 . S
C1820 C1825 1.379 . S
C1820 N1827 1.356 . S
C1821 C1820 1.363 . S
C1821 C1824 1.363 . S
N1822 C1824 1.356 . S
N1822 H1834 0.984 . S
N1822 H1835 0.985 . S
N1823 C1825 1.356 . S
N1823 H1828 0.984 . S
N1823 H1829 0.985 . S
C1824 C1818 1.379 . S
C1824 C1821 1.363 . S
C1824 N1822 1.356 . S
C1825 C1819 1.363 . S
C1825 C1820 1.379 . S
C1825 N1823 1.356 . S
N1826 C1818 1.356 . S
N1826 H1832 0.984 . S
N1826 H1833 0.984 . S
N1827 C1820 1.356 . S
N1827 H1830 0.984 . S
N1827 H1831 0.985 . S
H1828 N1823 0.984 . S
H1829 N1823 0.985 . S
H1830 N1827 0.984 . S
H1831 N1827 0.985 . S
H1832 N1826 0.984 . S
H1833 N1826 0.984 . S
H1834 N1822 0.984 . S
H1835 N1822 0.985 . S
C1836 C1837 1.363 . S
C1836 C1842 1.379 . S
C1836 N1844 1.356 . S
C1837 C1836 1.363 . S
C1837 C1843 1.363 . S
C1838 C1839 1.363 . S
C1838 C1843 1.379 . S
C1838 N1845 1.356 . S
C1839 C1838 1.363 . S
C1839 C1842 1.363 . S
N1840 C1842 1.356 . S
N1840 H1852 0.984 . S
N1840 H1853 0.985 . S
N1841 C1843 1.356 . S
N1841 H1846 0.984 . S
N1841 H1847 0.985 . S
C1842 C1836 1.379 . S
C1842 C1839 1.363 . S
C1842 N1840 1.356 . S
C1843 C1837 1.363 . S
C1843 C1838 1.379 . S
C1843 N1841 1.356 . S
N1844 C1836 1.356 . S
N1844 H1850 0.984 . S
N1844 H1851 0.984 . S
N1845 C1838 1.356 . S
N1845 H1848 0.984 . S
N1845 H1849 0.985 . S
H1846 N1841 0.984 . S
H1847 N1841 0.985 . S
H1848 N1845 0.984 . S
H1849 N1845 0.985 . S
H1850 N1844 0.984 . S
H1851 N1844 0.984 . S
H1852 N1840 0.984 . S
H1853 N1840 0.985 . S
C1854 C1855 1.363 . S
C1854 C1860 1.379 . S
C1854 N1862 1.356 . S
C1855 C1854 1.363 . S
C1855 C1861 1.363 . S
C1856 C1857 1.363 . S
C1856 C1861 1.379 . S
C1856 N1863 1.356 . S
C1857 C1856 1.363 . S
C1857 C1860 1.363 . S
N1858 C1860 1.356 . S
N1858 H1870 0.984 . S
N1858 H1871 0.985 . S
N1859 C1861 1.356 . S
N1859 H1864 0.984 . S
N1859 H1865 0.985 . S
C1860 C1854 1.379 . S
C1860 C1857 1.363 . S
C1860 N1858 1.356 . S
C1861 C1855 1.363 . S
C1861 C1856 1.379 . S
C1861 N1859 1.356 . S
N1862 C1854 1.356 . S
N1862 H1868 0.984 . S
N1862 H1869 0.984 . S
N1863 C1856 1.356 . S
N1863 H1866 0.984 . S
N1863 H1867 0.985 . S
H1864 N1859 0.984 . S
H1865 N1859 0.985 . S
H1866 N1863 0.984 . S
H1867 N1863 0.985 . S
H1868 N1862 0.984 . S
H1869 N1862 0.984 . S
H1870 N1858 0.984 . S
H1871 N1858 0.985 . S
C1872 C1873 1.363 . S
C1872 C1878 1.379 . S
C1872 N1880 1.356 . S
C1873 C1872 1.363 . S
C1873 C1879 1.363 . S
C1874 C1875 1.363 . S
C1874 C1879 1.379 . S
C1874 N1881 1.356 . S
C1875 C1874 1.363 . S
C1875 C1878 1.363 . S
N1876 C1878 1.356 . S
N1876 H1888 0.984 . S
N1876 H1889 0.985 . S
N1877 C1879 1.356 . S
N1877 H1882 0.984 . S
N1877 H1883 0.985 . S
C1878 C1872 1.379 . S
C1878 C1875 1.363 . S
C1878 N1876 1.356 . S
C1879 C1873 1.363 . S
C1879 C1874 1.379 . S
C1879 N1877 1.356 . S
N1880 C1872 1.356 . S
N1880 H1886 0.984 . S
N1880 H1887 0.984 . S
N1881 C1874 1.356 . S
N1881 H1884 0.984 . S
N1881 H1885 0.985 . S
H1882 N1877 0.984 . S
H1883 N1877 0.985 . S
H1884 N1881 0.984 . S
H1885 N1881 0.985 . S
H1886 N1880 0.984 . S
H1887 N1880 0.984 . S
H1888 N1876 0.984 . S
H1889 N1876 0.985 . S
C1890 C1891 1.363 . S
C1890 C1896 1.379 . S
C1890 N1898 1.356 . S
C1891 C1890 1.363 . S
C1891 C1897 1.363 . S
C1892 C1893 1.363 . S
C1892 C1897 1.379 . S
C1892 N1899 1.356 . S
C1893 C1892 1.363 . S
C1893 C1896 1.363 . S
N1894 C1896 1.356 . S
N1894 H1906 0.984 . S
N1894 H1907 0.985 . S
N1895 C1897 1.356 . S
N1895 H1900 0.984 . S
N1895 H1901 0.985 . S
C1896 C1890 1.379 . S
C1896 C1893 1.363 . S
C1896 N1894 1.356 . S
C1897 C1891 1.363 . S
C1897 C1892 1.379 . S
C1897 N1895 1.356 . S
N1898 C1890 1.356 . S
N1898 H1904 0.984 . S
N1898 H1905 0.984 . S
N1899 C1892 1.356 . S
N1899 H1902 0.984 . S
N1899 H1903 0.985 . S
H1900 N1895 0.984 . S
H1901 N1895 0.985 . S
H1902 N1899 0.984 . S
H1903 N1899 0.985 . S
H1904 N1898 0.984 . S
H1905 N1898 0.984 . S
H1906 N1894 0.984 . S
H1907 N1894 0.985 . S
C1908 C1909 1.363 . S
C1908 C1914 1.379 . S
C1908 N1916 1.356 . S
C1909 C1908 1.363 . S
C1909 C1915 1.363 . S
C1910 C1911 1.363 . S
C1910 C1915 1.379 . S
C1910 N1917 1.356 . S
C1911 C1910 1.363 . S
C1911 C1914 1.363 . S
N1912 C1914 1.356 . S
N1912 H1924 0.984 . S
N1912 H1925 0.985 . S
N1913 C1915 1.356 . S
N1913 H1918 0.984 . S
N1913 H1919 0.985 . S
C1914 C1908 1.379 . S
C1914 C1911 1.363 . S
C1914 N1912 1.356 . S
C1915 C1909 1.363 . S
C1915 C1910 1.379 . S
C1915 N1913 1.356 . S
N1916 C1908 1.356 . S
N1916 H1922 0.984 . S
N1916 H1923 0.984 . S
N1917 C1910 1.356 . S
N1917 H1920 0.984 . S
N1917 H1921 0.985 . S
H1918 N1913 0.984 . S
H1919 N1913 0.985 . S
H1920 N1917 0.984 . S
H1921 N1917 0.985 . S
H1922 N1916 0.984 . S
H1923 N1916 0.984 . S
H1924 N1912 0.984 . S
H1925 N1912 0.985 . S
C1926 C1927 1.363 . S
C1926 C1932 1.379 . S
C1926 N1934 1.356 . S
C1927 C1926 1.363 . S
C1927 C1933 1.363 . S
C1928 C1929 1.363 . S
C1928 C1933 1.379 . S
C1928 N1935 1.356 . S
C1929 C1928 1.363 . S
C1929 C1932 1.363 . S
N1930 C1932 1.356 . S
N1930 H1942 0.984 . S
N1930 H1943 0.985 . S
N1931 C1933 1.356 . S
N1931 H1936 0.984 . S
N1931 H1937 0.985 . S
C1932 C1926 1.379 . S
C1932 C1929 1.363 . S
C1932 N1930 1.356 . S
C1933 C1927 1.363 . S
C1933 C1928 1.379 . S
C1933 N1931 1.356 . S
N1934 C1926 1.356 . S
N1934 H1940 0.984 . S
N1934 H1941 0.984 . S
N1935 C1928 1.356 . S
N1935 H1938 0.984 . S
N1935 H1939 0.985 . S
H1936 N1931 0.984 . S
H1937 N1931 0.985 . S
H1938 N1935 0.984 . S
H1939 N1935 0.985 . S
H1940 N1934 0.984 . S
H1941 N1934 0.984 . S
H1942 N1930 0.984 . S
H1943 N1930 0.985 . S
C1944 C1945 1.363 . S
C1944 C1950 1.379 . S
C1944 N1952 1.356 . S
C1945 C1944 1.363 . S
C1945 C1951 1.363 . S
C1946 C1947 1.363 . S
C1946 C1951 1.379 . S
C1946 N1953 1.356 . S
C1947 C1946 1.363 . S
C1947 C1950 1.363 . S
N1948 C1950 1.356 . S
N1948 H1960 0.984 . S
N1948 H1961 0.985 . S
N1949 C1951 1.356 . S
N1949 H1954 0.984 . S
N1949 H1955 0.985 . S
C1950 C1944 1.379 . S
C1950 C1947 1.363 . S
C1950 N1948 1.356 . S
C1951 C1945 1.363 . S
C1951 C1946 1.379 . S
C1951 N1949 1.356 . S
N1952 C1944 1.356 . S
N1952 H1958 0.984 . S
N1952 H1959 0.984 . S
N1953 C1946 1.356 . S
N1953 H1956 0.984 . S
N1953 H1957 0.985 . S
H1954 N1949 0.984 . S
H1955 N1949 0.985 . S
H1956 N1953 0.984 . S
H1957 N1953 0.985 . S
H1958 N1952 0.984 . S
H1959 N1952 0.984 . S
H1960 N1948 0.984 . S
H1961 N1948 0.985 . S
C1962 C1963 1.363 . S
C1962 C1968 1.379 . S
C1962 N1970 1.356 . S
C1963 C1962 1.363 . S
C1963 C1969 1.363 . S
C1964 C1965 1.363 . S
C1964 C1969 1.379 . S
C1964 N1971 1.356 . S
C1965 C1964 1.363 . S
C1965 C1968 1.363 . S
N1966 C1968 1.356 . S
N1966 H1978 0.984 . S
N1966 H1979 0.985 . S
N1967 C1969 1.356 . S
N1967 H1972 0.984 . S
N1967 H1973 0.985 . S
C1968 C1962 1.379 . S
C1968 C1965 1.363 . S
C1968 N1966 1.356 . S
C1969 C1963 1.363 . S
C1969 C1964 1.379 . S
C1969 N1967 1.356 . S
N1970 C1962 1.356 . S
N1970 H1976 0.984 . S
N1970 H1977 0.984 . S
N1971 C1964 1.356 . S
N1971 H1974 0.984 . S
N1971 H1975 0.985 . S
H1972 N1967 0.984 . S
H1973 N1967 0.985 . S
H1974 N1971 0.984 . S
H1975 N1971 0.985 . S
H1976 N1970 0.984 . S
H1977 N1970 0.984 . S
H1978 N1966 0.984 . S
H1979 N1966 0.985 . S
C1980 C1981 1.363 . S
C1980 C1986 1.379 . S
C1980 N1988 1.356 . S
C1981 C1980 1.363 . S
C1981 C1987 1.363 . S
C1982 C1983 1.363 . S
C1982 C1987 1.379 . S
C1982 N1989 1.356 . S
C1983 C1982 1.363 . S
C1983 C1986 1.363 . S
N1984 C1986 1.356 . S
N1984 H1996 0.984 . S
N1984 H1997 0.985 . S
N1985 C1987 1.356 . S
N1985 H1990 0.984 . S
N1985 H1991 0.985 . S
C1986 C1980 1.379 . S
C1986 C1983 1.363 . S
C1986 N1984 1.356 . S
C1987 C1981 1.363 . S
C1987 C1982 1.379 . S
C1987 N1985 1.356 . S
N1988 C1980 1.356 . S
N1988 H1994 0.984 . S
N1988 H1995 0.984 . S
N1989 C1982 1.356 . S
N1989 H1992 0.984 . S
N1989 H1993 0.985 . S
H1990 N1985 0.984 . S
H1991 N1985 0.985 . S
H1992 N1989 0.984 . S
H1993 N1989 0.985 . S
H1994 N1988 0.984 . S
H1995 N1988 0.984 . S
H1996 N1984 0.984 . S
H1997 N1984 0.985 . S
C1998 C1999 1.363 . S
C1998 C2004 1.379 . S
C1998 N2006 1.356 . S
C1999 C1998 1.363 . S
C1999 C2005 1.363 . S
C2000 C2001 1.363 . S
C2000 C2005 1.379 . S
C2000 N2007 1.356 . S
C2001 C2000 1.363 . S
C2001 C2004 1.363 . S
N2002 C2004 1.356 . S
N2002 H2014 0.984 . S
N2002 H2015 0.985 . S
N2003 C2005 1.356 . S
N2003 H2008 0.984 . S
N2003 H2009 0.985 . S
C2004 C1998 1.379 . S
C2004 C2001 1.363 . S
C2004 N2002 1.356 . S
C2005 C1999 1.363 . S
C2005 C2000 1.379 . S
C2005 N2003 1.356 . S
N2006 C1998 1.356 . S
N2006 H2012 0.984 . S
N2006 H2013 0.984 . S
N2007 C2000 1.356 . S
N2007 H2010 0.984 . S
N2007 H2011 0.985 . S
H2008 N2003 0.984 . S
H2009 N2003 0.985 . S
H2010 N2007 0.984 . S
H2011 N2007 0.985 . S
H2012 N2006 0.984 . S
H2013 N2006 0.984 . S
H2014 N2002 0.984 . S
H2015 N2002 0.985 . S
C2016 C2017 1.363 . S
C2016 C2022 1.379 . S
C2016 N2024 1.356 . S
C2017 C2016 1.363 . S
C2017 C2023 1.363 . S
C2018 C2019 1.363 . S
C2018 C2023 1.379 . S
C2018 N2025 1.356 . S
C2019 C2018 1.363 . S
C2019 C2022 1.363 . S
N2020 C2022 1.356 . S
N2020 H2032 0.984 . S
N2020 H2033 0.985 . S
N2021 C2023 1.356 . S
N2021 H2026 0.984 . S
N2021 H2027 0.985 . S
C2022 C2016 1.379 . S
C2022 C2019 1.363 . S
C2022 N2020 1.356 . S
C2023 C2017 1.363 . S
C2023 C2018 1.379 . S
C2023 N2021 1.356 . S
N2024 C2016 1.356 . S
N2024 H2030 0.984 . S
N2024 H2031 0.984 . S
N2025 C2018 1.356 . S
N2025 H2028 0.984 . S
N2025 H2029 0.985 . S
H2026 N2021 0.984 . S
H2027 N2021 0.985 . S
H2028 N2025 0.984 . S
H2029 N2025 0.985 . S
H2030 N2024 0.984 . S
H2031 N2024 0.984 . S
H2032 N2020 0.984 . S
H2033 N2020 0.985 . S
C2034 C2035 1.363 . S
C2034 C2040 1.379 . S
C2034 N2042 1.356 . S
C2035 C2034 1.363 . S
C2035 C2041 1.363 . S
C2036 C2037 1.363 . S
C2036 C2041 1.379 . S
C2036 N2043 1.356 . S
C2037 C2036 1.363 . S
C2037 C2040 1.363 . S
N2038 C2040 1.356 . S
N2038 H2050 0.984 . S
N2038 H2051 0.985 . S
N2039 C2041 1.356 . S
N2039 H2044 0.984 . S
N2039 H2045 0.985 . S
C2040 C2034 1.379 . S
C2040 C2037 1.363 . S
C2040 N2038 1.356 . S
C2041 C2035 1.363 . S
C2041 C2036 1.379 . S
C2041 N2039 1.356 . S
N2042 C2034 1.356 . S
N2042 H2048 0.984 . S
N2042 H2049 0.984 . S
N2043 C2036 1.356 . S
N2043 H2046 0.984 . S
N2043 H2047 0.985 . S
H2044 N2039 0.984 . S
H2045 N2039 0.985 . S
H2046 N2043 0.984 . S
H2047 N2043 0.985 . S
H2048 N2042 0.984 . S
H2049 N2042 0.984 . S
H2050 N2038 0.984 . S
H2051 N2038 0.985 . S
C2052 C2053 1.363 . S
C2052 C2058 1.379 . S
C2052 N2060 1.356 . S
C2053 C2052 1.363 . S
C2053 C2059 1.363 . S
C2054 C2055 1.363 . S
C2054 C2059 1.379 . S
C2054 N2061 1.356 . S
C2055 C2054 1.363 . S
C2055 C2058 1.363 . S
N2056 C2058 1.356 . S
N2056 H2068 0.984 . S
N2056 H2069 0.985 . S
N2057 C2059 1.356 . S
N2057 H2062 0.984 . S
N2057 H2063 0.985 . S
C2058 C2052 1.379 . S
C2058 C2055 1.363 . S
C2058 N2056 1.356 . S
C2059 C2053 1.363 . S
C2059 C2054 1.379 . S
C2059 N2057 1.356 . S
N2060 C2052 1.356 . S
N2060 H2066 0.984 . S
N2060 H2067 0.984 . S
N2061 C2054 1.356 . S
N2061 H2064 0.984 . S
N2061 H2065 0.985 . S
H2062 N2057 0.984 . S
H2063 N2057 0.985 . S
H2064 N2061 0.984 . S
H2065 N2061 0.985 . S
H2066 N2060 0.984 . S
H2067 N2060 0.984 . S
H2068 N2056 0.984 . S
H2069 N2056 0.985 . S
C2070 C2071 1.363 . S
C2070 C2076 1.379 . S
C2070 N2078 1.356 . S
C2071 C2070 1.363 . S
C2071 C2077 1.363 . S
C2072 C2073 1.363 . S
C2072 C2077 1.379 . S
C2072 N2079 1.356 . S
C2073 C2072 1.363 . S
C2073 C2076 1.363 . S
N2074 C2076 1.356 . S
N2074 H2086 0.984 . S
N2074 H2087 0.985 . S
N2075 C2077 1.356 . S
N2075 H2080 0.984 . S
N2075 H2081 0.985 . S
C2076 C2070 1.379 . S
C2076 C2073 1.363 . S
C2076 N2074 1.356 . S
C2077 C2071 1.363 . S
C2077 C2072 1.379 . S
C2077 N2075 1.356 . S
N2078 C2070 1.356 . S
N2078 H2084 0.984 . S
N2078 H2085 0.984 . S
N2079 C2072 1.356 . S
N2079 H2082 0.984 . S
N2079 H2083 0.985 . S
H2080 N2075 0.984 . S
H2081 N2075 0.985 . S
H2082 N2079 0.984 . S
H2083 N2079 0.985 . S
H2084 N2078 0.984 . S
H2085 N2078 0.984 . S
H2086 N2074 0.984 . S
H2087 N2074 0.985 . S
C2088 C2089 1.363 . S
C2088 C2094 1.379 . S
C2088 N2096 1.356 . S
C2089 C2088 1.363 . S
C2089 C2095 1.363 . S
C2090 C2091 1.363 . S
C2090 C2095 1.379 . S
C2090 N2097 1.356 . S
C2091 C2090 1.363 . S
C2091 C2094 1.363 . S
N2092 C2094 1.356 . S
N2092 H2104 0.984 . S
N2092 H2105 0.985 . S
N2093 C2095 1.356 . S
N2093 H2098 0.984 . S
N2093 H2099 0.985 . S
C2094 C2088 1.379 . S
C2094 C2091 1.363 . S
C2094 N2092 1.356 . S
C2095 C2089 1.363 . S
C2095 C2090 1.379 . S
C2095 N2093 1.356 . S
N2096 C2088 1.356 . S
N2096 H2102 0.984 . S
N2096 H2103 0.984 . S
N2097 C2090 1.356 . S
N2097 H2100 0.984 . S
N2097 H2101 0.985 . S
H2098 N2093 0.984 . S
H2099 N2093 0.985 . S
H2100 N2097 0.984 . S
H2101 N2097 0.985 . S
H2102 N2096 0.984 . S
H2103 N2096 0.984 . S
H2104 N2092 0.984 . S
H2105 N2092 0.985 . S
C2106 C2107 1.363 . S
C2106 C2112 1.379 . S
C2106 N2114 1.356 . S
C2107 C2106 1.363 . S
C2107 C2113 1.363 . S
C2108 C2109 1.363 . S
C2108 C2113 1.379 . S
C2108 N2115 1.356 . S
C2109 C2108 1.363 . S
C2109 C2112 1.363 . S
N2110 C2112 1.356 . S
N2110 H2122 0.984 . S
N2110 H2123 0.985 . S
N2111 C2113 1.356 . S
N2111 H2116 0.984 . S
N2111 H2117 0.985 . S
C2112 C2106 1.379 . S
C2112 C2109 1.363 . S
C2112 N2110 1.356 . S
C2113 C2107 1.363 . S
C2113 C2108 1.379 . S
C2113 N2111 1.356 . S
N2114 C2106 1.356 . S
N2114 H2120 0.984 . S
N2114 H2121 0.984 . S
N2115 C2108 1.356 . S
N2115 H2118 0.984 . S
N2115 H2119 0.985 . S
H2116 N2111 0.984 . S
H2117 N2111 0.985 . S
H2118 N2115 0.984 . S
H2119 N2115 0.985 . S
H2120 N2114 0.984 . S
H2121 N2114 0.984 . S
H2122 N2110 0.984 . S
H2123 N2110 0.985 . S
C2124 C2125 1.363 . S
C2124 C2130 1.379 . S
C2124 N2132 1.356 . S
C2125 C2124 1.363 . S
C2125 C2131 1.363 . S
C2126 C2127 1.363 . S
C2126 C2131 1.379 . S
C2126 N2133 1.356 . S
C2127 C2126 1.363 . S
C2127 C2130 1.363 . S
N2128 C2130 1.356 . S
N2128 H2140 0.984 . S
N2128 H2141 0.985 . S
N2129 C2131 1.356 . S
N2129 H2134 0.984 . S
N2129 H2135 0.985 . S
C2130 C2124 1.379 . S
C2130 C2127 1.363 . S
C2130 N2128 1.356 . S
C2131 C2125 1.363 . S
C2131 C2126 1.379 . S
C2131 N2129 1.356 . S
N2132 C2124 1.356 . S
N2132 H2138 0.984 . S
N2132 H2139 0.984 . S
N2133 C2126 1.356 . S
N2133 H2136 0.984 . S
N2133 H2137 0.985 . S
H2134 N2129 0.984 . S
H2135 N2129 0.985 . S
H2136 N2133 0.984 . S
H2137 N2133 0.985 . S
H2138 N2132 0.984 . S
H2139 N2132 0.984 . S
H2140 N2128 0.984 . S
H2141 N2128 0.985 . S
C2142 C2143 1.363 . S
C2142 C2148 1.379 . S
C2142 N2150 1.356 . S
C2143 C2142 1.363 . S
C2143 C2149 1.363 . S
C2144 C2145 1.363 . S
C2144 C2149 1.379 . S
C2144 N2151 1.356 . S
C2145 C2144 1.363 . S
C2145 C2148 1.363 . S
N2146 C2148 1.356 . S
N2146 H2158 0.984 . S
N2146 H2159 0.985 . S
N2147 C2149 1.356 . S
N2147 H2152 0.984 . S
N2147 H2153 0.985 . S
C2148 C2142 1.379 . S
C2148 C2145 1.363 . S
C2148 N2146 1.356 . S
C2149 C2143 1.363 . S
C2149 C2144 1.379 . S
C2149 N2147 1.356 . S
N2150 C2142 1.356 . S
N2150 H2156 0.984 . S
N2150 H2157 0.984 . S
N2151 C2144 1.356 . S
N2151 H2154 0.984 . S
N2151 H2155 0.985 . S
H2152 N2147 0.984 . S
H2153 N2147 0.985 . S
H2154 N2151 0.984 . S
H2155 N2151 0.985 . S
H2156 N2150 0.984 . S
H2157 N2150 0.984 . S
H2158 N2146 0.984 . S
H2159 N2146 0.985 . S
C2160 C2161 1.363 . S
C2160 C2166 1.379 . S
C2160 N2168 1.356 . S
C2161 C2160 1.363 . S
C2161 C2167 1.363 . S
C2162 C2163 1.363 . S
C2162 C2167 1.379 . S
C2162 N2169 1.356 . S
C2163 C2162 1.363 . S
C2163 C2166 1.363 . S
N2164 C2166 1.356 . S
N2164 H2176 0.984 . S
N2164 H2177 0.985 . S
N2165 C2167 1.356 . S
N2165 H2170 0.984 . S
N2165 H2171 0.985 . S
C2166 C2160 1.379 . S
C2166 C2163 1.363 . S
C2166 N2164 1.356 . S
C2167 C2161 1.363 . S
C2167 C2162 1.379 . S
C2167 N2165 1.356 . S
N2168 C2160 1.356 . S
N2168 H2174 0.984 . S
N2168 H2175 0.984 . S
N2169 C2162 1.356 . S
N2169 H2172 0.984 . S
N2169 H2173 0.985 . S
H2170 N2165 0.984 . S
H2171 N2165 0.985 . S
H2172 N2169 0.984 . S
H2173 N2169 0.985 . S
H2174 N2168 0.984 . S
H2175 N2168 0.984 . S
H2176 N2164 0.984 . S
H2177 N2164 0.985 . S
C2178 C2179 1.363 . S
C2178 C2184 1.379 . S
C2178 N2186 1.356 . S
C2179 C2178 1.363 . S
C2179 C2185 1.363 . S
C2180 C2181 1.363 . S
C2180 C2185 1.379 . S
C2180 N2187 1.356 . S
C2181 C2180 1.363 . S
C2181 C2184 1.363 . S
N2182 C2184 1.356 . S
N2182 H2194 0.984 . S
N2182 H2195 0.985 . S
N2183 C2185 1.356 1_554 S
N2183 H2188 0.984 . S
N2183 H2189 0.985 . S
C2184 C2178 1.379 . S
C2184 C2181 1.363 . S
C2184 N2182 1.356 . S
C2185 C2179 1.363 . S
C2185 C2180 1.379 . S
C2185 N2183 1.356 1_556 S
N2186 C2178 1.356 . S
N2186 H2192 0.984 . S
N2186 H2193 0.984 . S
N2187 C2180 1.356 . S
N2187 H2190 0.984 . S
N2187 H2191 0.985 . S
H2188 N2183 0.984 . S
H2189 N2183 0.985 . S
H2190 N2187 0.984 . S
H2191 N2187 0.985 . S
H2192 N2186 0.984 . S
H2193 N2186 0.984 . S
H2194 N2182 0.984 . S
H2195 N2182 0.985 . S
C2196 C2197 1.363 . S
C2196 C2202 1.379 . S
C2196 N2204 1.356 . S
C2197 C2196 1.363 . S
C2197 C2203 1.363 . S
C2198 C2199 1.363 . S
C2198 C2203 1.379 . S
C2198 N2205 1.356 . S
C2199 C2198 1.363 . S
C2199 C2202 1.363 . S
N2200 C2202 1.356 . S
N2200 H2212 0.984 . S
N2200 H2213 0.985 . S
N2201 C2203 1.356 . S
N2201 H2206 0.984 . S
N2201 H2207 0.985 . S
C2202 C2196 1.379 . S
C2202 C2199 1.363 . S
C2202 N2200 1.356 . S
C2203 C2197 1.363 . S
C2203 C2198 1.379 . S
C2203 N2201 1.356 . S
N2204 C2196 1.356 . S
N2204 H2210 0.984 1_556 S
N2204 H2211 0.978 1_556 S
N2205 C2198 1.356 . S
N2205 H2208 0.984 . S
N2205 H2209 0.985 . S
H2206 N2201 0.984 . S
H2207 N2201 0.985 . S
H2208 N2205 0.984 . S
H2209 N2205 0.985 . S
H2210 N2204 0.984 1_554 S
H2211 N2204 0.978 1_554 S
H2212 N2200 0.984 . S
H2213 N2200 0.985 . S
C2214 C2215 1.363 . S
C2214 C2220 1.379 . S
C2214 N2222 1.356 . S
C2215 C2214 1.363 . S
C2215 C2221 1.363 . S
C2216 C2217 1.363 . S
C2216 C2221 1.379 . S
C2216 N2223 1.356 . S
C2217 C2216 1.363 . S
C2217 C2220 1.363 . S
N2218 C2220 1.356 . S
N2218 H2230 0.984 . S
N2218 H2231 0.985 . S
N2219 C2221 1.356 . S
N2219 H2224 0.984 . S
N2219 H2225 0.985 . S
C2220 C2214 1.379 . S
C2220 C2217 1.363 . S
C2220 N2218 1.356 . S
C2221 C2215 1.363 . S
C2221 C2216 1.379 . S
C2221 N2219 1.356 . S
N2222 C2214 1.356 . S
N2222 H2228 0.984 . S
N2222 H2229 0.984 . S
N2223 C2216 1.356 . S
N2223 H2226 0.984 . S
N2223 H2227 0.985 . S
H2224 N2219 0.984 . S
H2225 N2219 0.985 . S
H2226 N2223 0.984 . S
H2227 N2223 0.985 . S
H2228 N2222 0.984 . S
H2229 N2222 0.984 . S
H2230 N2218 0.984 . S
H2231 N2218 0.985 . S
C2232 C2233 1.363 . S
C2232 C2238 1.379 . S
C2232 N2240 1.356 1_556 S
C2233 C2232 1.363 . S
C2233 C2239 1.363 . S
C2234 C2235 1.363 . S
C2234 C2239 1.379 . S
C2234 N2241 1.356 . S
C2235 C2234 1.363 . S
C2235 C2238 1.363 . S
N2236 C2238 1.356 . S
N2236 H2248 0.984 . S
N2236 H2249 0.985 . S
N2237 C2239 1.356 . S
N2237 H2242 0.984 . S
N2237 H2243 0.985 . S
C2238 C2232 1.379 . S
C2238 C2235 1.363 . S
C2238 N2236 1.356 . S
C2239 C2233 1.363 . S
C2239 C2234 1.379 . S
C2239 N2237 1.356 . S
N2240 C2232 1.356 1_554 S
N2240 H2246 0.984 . S
N2240 H2247 0.984 . S
N2241 C2234 1.356 . S
N2241 H2244 0.984 . S
N2241 H2245 0.985 . S
H2242 N2237 0.984 . S
H2243 N2237 0.985 . S
H2244 N2241 0.984 . S
H2245 N2241 0.985 . S
H2246 N2240 0.984 . S
H2247 N2240 0.984 . S
H2248 N2236 0.984 . S
H2249 N2236 0.985 . S
C2250 C2251 1.363 . S
C2250 C2256 1.379 . S
C2250 N2258 1.356 . S
C2251 C2250 1.363 . S
C2251 C2257 1.363 . S
C2252 C2253 1.363 . S
C2252 C2257 1.379 . S
C2252 N2259 1.356 . S
C2253 C2252 1.363 . S
C2253 C2256 1.363 . S
N2254 C2256 1.356 . S
N2254 H2266 0.984 . S
N2254 H2267 0.985 . S
N2255 C2257 1.356 1_554 S
N2255 H2260 0.984 . S
N2255 H2261 0.985 . S
C2256 C2250 1.379 . S
C2256 C2253 1.363 . S
C2256 N2254 1.356 . S
C2257 C2251 1.363 . S
C2257 C2252 1.379 . S
C2257 N2255 1.356 1_556 S
N2258 C2250 1.356 . S
N2258 H2264 0.984 . S
N2258 H2265 0.984 . S
N2259 C2252 1.356 . S
N2259 H2262 0.984 . S
N2259 H2263 0.985 . S
H2260 N2255 0.984 . S
H2261 N2255 0.985 . S
H2262 N2259 0.984 . S
H2263 N2259 0.985 . S
H2264 N2258 0.984 . S
H2265 N2258 0.984 . S
H2266 N2254 0.984 . S
H2267 N2254 0.985 . S
C2268 C2269 1.363 . S
C2268 C2274 1.379 . S
C2268 N2276 1.356 . S
C2269 C2268 1.363 . S
C2269 C2275 1.363 . S
C2270 C2271 1.363 . S
C2270 C2275 1.379 . S
C2270 N2277 1.356 . S
C2271 C2270 1.363 . S
C2271 C2274 1.363 . S
N2272 C2274 1.356 . S
N2272 H2284 0.984 . S
N2272 H2285 0.985 . S
N2273 C2275 1.356 . S
N2273 H2278 0.984 . S
N2273 H2279 0.985 . S
C2274 C2268 1.379 . S
C2274 C2271 1.363 . S
C2274 N2272 1.356 . S
C2275 C2269 1.363 . S
C2275 C2270 1.379 . S
C2275 N2273 1.356 . S
N2276 C2268 1.356 . S
N2276 H2282 0.941 1_545 S
N2276 H2283 0.984 . S
N2277 C2270 1.356 . S
N2277 H2280 0.984 . S
N2277 H2281 0.985 . S
H2278 N2273 0.984 . S
H2279 N2273 0.985 . S
H2280 N2277 0.984 . S
H2281 N2277 0.985 . S
H2282 N2276 0.941 1_565 S
H2283 N2276 0.984 . S
H2284 N2272 0.984 . S
H2285 N2272 0.985 . S
C2286 C2287 1.363 . S
C2286 C2292 1.379 . S
C2286 N2294 1.356 . S
C2287 C2286 1.363 . S
C2287 C2293 1.363 . S
C2288 C2289 1.363 . S
C2288 C2293 1.379 . S
C2288 N2295 1.356 . S
C2289 C2288 1.363 . S
C2289 C2292 1.363 . S
N2290 C2292 1.356 . S
N2290 H2302 0.984 . S
N2290 H2303 0.985 . S
N2291 C2293 1.356 . S
N2291 H2296 0.984 . S
N2291 H2297 0.985 . S
C2292 C2286 1.379 . S
C2292 C2289 1.363 . S
C2292 N2290 1.356 . S
C2293 C2287 1.363 . S
C2293 C2288 1.379 . S
C2293 N2291 1.356 . S
N2294 C2286 1.356 . S
N2294 H2300 0.984 . S
N2294 H2301 0.984 . S
N2295 C2288 1.356 . S
N2295 H2298 0.984 . S
N2295 H2299 0.985 . S
H2296 N2291 0.984 . S
H2297 N2291 0.985 . S
H2298 N2295 0.984 . S
H2299 N2295 0.985 . S
H2300 N2294 0.984 . S
H2301 N2294 0.984 . S
H2302 N2290 0.984 . S
H2303 N2290 0.985 . S
C2304 C2305 1.363 . S
C2304 C2310 1.379 . S
C2304 N2312 1.356 . S
C2305 C2304 1.363 . S
C2305 C2311 1.363 . S
C2306 C2307 1.363 . S
C2306 C2311 1.379 . S
C2306 N2313 1.356 . S
C2307 C2306 1.363 . S
C2307 C2310 1.363 . S
N2308 C2310 1.356 . S
N2308 H2320 0.984 . S
N2308 H2321 0.985 . S
N2309 C2311 1.356 . S
N2309 H2314 0.984 . S
N2309 H2315 0.985 . S
C2310 C2304 1.379 . S
C2310 C2307 1.363 . S
C2310 N2308 1.356 . S
C2311 C2305 1.363 . S
C2311 C2306 1.379 . S
C2311 N2309 1.356 . S
N2312 C2304 1.356 . S
N2312 H2318 0.984 . S
N2312 H2319 0.984 . S
N2313 C2306 1.356 . S
N2313 H2316 0.984 . S
N2313 H2317 0.985 . S
H2314 N2309 0.984 . S
H2315 N2309 0.985 . S
H2316 N2313 0.984 . S
H2317 N2313 0.985 . S
H2318 N2312 0.984 . S
H2319 N2312 0.984 . S
H2320 N2308 0.984 . S
H2321 N2308 0.985 . S
C2322 C2323 1.363 . S
C2322 C2328 1.379 . S
C2322 N2330 1.356 . S
C2323 C2322 1.363 . S
C2323 C2329 1.363 . S
C2324 C2325 1.363 . S
C2324 C2329 1.379 . S
C2324 N2331 1.356 . S
C2325 C2324 1.363 . S
C2325 C2328 1.363 . S
N2326 C2328 1.356 . S
N2326 H2338 0.984 . S
N2326 H2339 0.985 . S
N2327 C2329 1.356 . S
N2327 H2332 0.984 . S
N2327 H2333 0.985 . S
C2328 C2322 1.379 . S
C2328 C2325 1.363 . S
C2328 N2326 1.356 . S
C2329 C2323 1.363 . S
C2329 C2324 1.379 . S
C2329 N2327 1.356 . S
N2330 C2322 1.356 . S
N2330 H2336 0.984 . S
N2330 H2337 0.984 . S
N2331 C2324 1.356 . S
N2331 H2334 0.984 . S
N2331 H2335 0.985 . S
H2332 N2327 0.984 . S
H2333 N2327 0.985 . S
H2334 N2331 0.984 . S
H2335 N2331 0.985 . S
H2336 N2330 0.984 . S
H2337 N2330 0.984 . S
H2338 N2326 0.984 . S
H2339 N2326 0.985 . S
C2340 C2341 1.363 . S
C2340 C2346 1.379 . S
C2340 N2348 1.356 . S
C2341 C2340 1.363 . S
C2341 C2347 1.363 . S
C2342 C2343 1.363 . S
C2342 C2347 1.379 . S
C2342 N2349 1.356 . S
C2343 C2342 1.363 . S
C2343 C2346 1.363 . S
N2344 C2346 1.356 . S
N2344 H2356 0.984 . S
N2344 H2357 0.985 . S
N2345 C2347 1.356 . S
N2345 H2350 0.984 . S
N2345 H2351 0.985 . S
C2346 C2340 1.379 . S
C2346 C2343 1.363 . S
C2346 N2344 1.356 . S
C2347 C2341 1.363 . S
C2347 C2342 1.379 . S
C2347 N2345 1.356 . S
N2348 C2340 1.356 . S
N2348 H2354 0.984 . S
N2348 H2355 0.984 . S
N2349 C2342 1.356 . S
N2349 H2352 0.984 . S
N2349 H2353 0.985 . S
H2350 N2345 0.984 . S
H2351 N2345 0.985 . S
H2352 N2349 0.984 . S
H2353 N2349 0.985 . S
H2354 N2348 0.984 . S
H2355 N2348 0.984 . S
H2356 N2344 0.984 . S
H2357 N2344 0.985 . S
C2358 C2359 1.363 . S
C2358 C2364 1.379 . S
C2358 N2366 1.356 . S
C2359 C2358 1.363 . S
C2359 C2365 1.363 . S
C2360 C2361 1.363 . S
C2360 C2365 1.379 . S
C2360 N2367 1.356 . S
C2361 C2360 1.363 . S
C2361 C2364 1.363 . S
N2362 C2364 1.356 . S
N2362 H2374 0.984 . S
N2362 H2375 0.985 . S
N2363 C2365 1.356 . S
N2363 H2368 0.984 . S
N2363 H2369 0.985 . S
C2364 C2358 1.379 . S
C2364 C2361 1.363 . S
C2364 N2362 1.356 . S
C2365 C2359 1.363 . S
C2365 C2360 1.379 . S
C2365 N2363 1.356 . S
N2366 C2358 1.356 . S
N2366 H2372 0.984 . S
N2366 H2373 0.984 . S
N2367 C2360 1.356 . S
N2367 H2370 0.984 . S
N2367 H2371 0.985 . S
H2368 N2363 0.984 . S
H2369 N2363 0.985 . S
H2370 N2367 0.984 . S
H2371 N2367 0.985 . S
H2372 N2366 0.984 . S
H2373 N2366 0.984 . S
H2374 N2362 0.984 . S
H2375 N2362 0.985 . S
C2376 C2377 1.363 . S
C2376 C2382 1.379 . S
C2376 N2384 1.356 . S
C2377 C2376 1.363 . S
C2377 C2383 1.363 . S
C2378 C2379 1.363 . S
C2378 C2383 1.379 . S
C2378 N2385 1.356 . S
C2379 C2378 1.363 . S
C2379 C2382 1.363 . S
N2380 C2382 1.356 . S
N2380 H2392 0.984 . S
N2380 H2393 0.985 . S
N2381 C2383 1.356 . S
N2381 H2386 0.984 . S
N2381 H2387 0.985 . S
C2382 C2376 1.379 . S
C2382 C2379 1.363 . S
C2382 N2380 1.356 . S
C2383 C2377 1.363 . S
C2383 C2378 1.379 . S
C2383 N2381 1.356 . S
N2384 C2376 1.356 . S
N2384 H2390 0.984 . S
N2384 H2391 0.984 . S
N2385 C2378 1.356 . S
N2385 H2388 0.984 . S
N2385 H2389 0.985 . S
H2386 N2381 0.984 . S
H2387 N2381 0.985 . S
H2388 N2385 0.984 . S
H2389 N2385 0.985 . S
H2390 N2384 0.984 . S
H2391 N2384 0.984 . S
H2392 N2380 0.984 . S
H2393 N2380 0.985 . S
C2394 C2395 1.363 . S
C2394 C2400 1.379 . S
C2394 N2402 1.356 . S
C2395 C2394 1.363 . S
C2395 C2401 1.363 1_455 S
C2396 C2397 1.363 1_655 S
C2396 C2401 1.379 . S
C2396 N2403 1.356 . S
C2397 C2396 1.363 1_455 S
C2397 C2400 1.363 . S
N2398 C2400 1.356 . S
N2398 H2410 0.984 . S
N2398 H2411 0.985 . S
N2399 C2401 1.356 . S
N2399 H2404 0.984 . S
N2399 H2405 0.985 . S
C2400 C2394 1.379 . S
C2400 C2397 1.363 . S
C2400 N2398 1.356 . S
C2401 C2395 1.363 1_655 S
C2401 C2396 1.379 . S
C2401 N2399 1.356 . S
N2402 C2394 1.356 . S
N2402 H2408 0.984 . S
N2402 H2409 0.984 . S
N2403 C2396 1.356 . S
N2403 H2406 0.984 . S
N2403 H2407 0.985 . S
H2404 N2399 0.984 . S
H2405 N2399 0.985 . S
H2406 N2403 0.984 . S
H2407 N2403 0.985 . S
H2408 N2402 0.984 . S
H2409 N2402 0.984 . S
H2410 N2398 0.984 . S
H2411 N2398 0.985 . S
C2412 C2413 1.363 . S
C2412 C2418 1.379 . S
C2412 N2420 1.356 . S
C2413 C2412 1.363 . S
C2413 C2419 1.363 . S
C2414 C2415 1.363 . S
C2414 C2419 1.379 . S
C2414 N2421 1.356 . S
C2415 C2414 1.363 . S
C2415 C2418 1.363 . S
N2416 C2418 1.356 . S
N2416 H2428 0.984 . S
N2416 H2429 0.985 . S
N2417 C2419 1.356 . S
N2417 H2422 0.984 . S
N2417 H2423 0.985 . S
C2418 C2412 1.379 . S
C2418 C2415 1.363 . S
C2418 N2416 1.356 . S
C2419 C2413 1.363 . S
C2419 C2414 1.379 . S
C2419 N2417 1.356 . S
N2420 C2412 1.356 . S
N2420 H2426 0.984 . S
N2420 H2427 0.984 . S
N2421 C2414 1.356 . S
N2421 H2424 0.984 . S
N2421 H2425 0.985 . S
H2422 N2417 0.984 . S
H2423 N2417 0.985 . S
H2424 N2421 0.984 . S
H2425 N2421 0.985 . S
H2426 N2420 0.984 . S
H2427 N2420 0.984 . S
H2428 N2416 0.984 . S
H2429 N2416 0.985 . S
C2430 C2431 1.363 . S
C2430 C2436 1.379 . S
C2430 N2438 1.356 . S
C2431 C2430 1.363 . S
C2431 C2437 1.363 1_565 S
C2432 C2433 1.363 1_545 S
C2432 C2437 1.379 . S
C2432 N2439 1.356 . S
C2433 C2432 1.363 1_565 S
C2433 C2436 1.363 . S
N2434 C2436 1.356 . S
N2434 H2446 0.984 . S
N2434 H2447 0.985 . S
N2435 C2437 1.356 . S
N2435 H2440 0.984 . S
N2435 H2441 0.985 . S
C2436 C2430 1.379 . S
C2436 C2433 1.363 . S
C2436 N2434 1.356 . S
C2437 C2431 1.363 1_545 S
C2437 C2432 1.379 . S
C2437 N2435 1.356 . S
N2438 C2430 1.356 . S
N2438 H2444 0.984 . S
N2438 H2445 0.984 . S
N2439 C2432 1.356 . S
N2439 H2442 0.984 . S
N2439 H2443 0.985 . S
H2440 N2435 0.984 . S
H2441 N2435 0.985 . S
H2442 N2439 0.984 . S
H2443 N2439 0.985 . S
H2444 N2438 0.984 . S
H2445 N2438 0.984 . S
H2446 N2434 0.984 . S
H2447 N2434 0.985 . S
C2448 C2449 1.363 1_545 S
C2448 C2454 1.379 . S
C2448 N2456 1.356 . S
C2449 C2448 1.363 1_565 S
C2449 C2455 1.363 . S
C2450 C2451 1.363 . S
C2450 C2455 1.379 . S
C2450 N2457 1.356 . S
C2451 C2450 1.363 . S
C2451 C2454 1.363 1_565 S
N2452 C2454 1.356 . S
N2452 H2464 0.984 . S
N2452 H2465 0.985 . S
N2453 C2455 1.356 . S
N2453 H2458 0.984 . S
N2453 H2459 0.985 . S
C2454 C2448 1.379 . S
C2454 C2451 1.363 1_545 S
C2454 N2452 1.356 . S
C2455 C2449 1.363 . S
C2455 C2450 1.379 . S
C2455 N2453 1.356 . S
N2456 C2448 1.356 . S
N2456 H2462 0.984 . S
N2456 H2463 0.984 . S
N2457 C2450 1.356 . S
N2457 H2460 0.984 . S
N2457 H2461 0.985 . S
H2458 N2453 0.984 . S
H2459 N2453 0.985 . S
H2460 N2457 0.984 . S
H2461 N2457 0.985 . S
H2462 N2456 0.984 . S
H2463 N2456 0.984 . S
H2464 N2452 0.984 . S
H2465 N2452 0.985 . S
C2466 C2467 1.363 . S
C2466 C2472 1.379 . S
C2466 N2474 1.356 . S
C2467 C2466 1.363 . S
C2467 C2473 1.363 . S
C2468 C2469 1.363 . S
C2468 C2473 1.379 . S
C2468 N2475 1.356 1_455 S
C2469 C2468 1.363 . S
C2469 C2472 1.363 . S
N2470 C2472 1.356 . S
N2470 H2482 0.984 . S
N2470 H2483 0.985 . S
N2471 C2473 1.356 . S
N2471 H2476 0.984 . S
N2471 H2477 0.987 1_455 S
C2472 C2466 1.379 . S
C2472 C2469 1.363 . S
C2472 N2470 1.356 . S
C2473 C2467 1.363 . S
C2473 C2468 1.379 . S
C2473 N2471 1.356 . S
N2474 C2466 1.356 . S
N2474 H2480 0.984 . S
N2474 H2481 0.984 . S
N2475 C2468 1.356 1_655 S
N2475 H2478 0.984 . S
N2475 H2479 0.985 . S
H2476 N2471 0.984 . S
H2477 N2471 0.987 1_655 S
H2478 N2475 0.984 . S
H2479 N2475 0.985 . S
H2480 N2474 0.984 . S
H2481 N2474 0.984 . S
H2482 N2470 0.984 . S
H2483 N2470 0.985 . S
C2484 C2485 1.363 . S
C2484 C2490 1.379 . S
C2484 N2492 1.356 . S
C2485 C2484 1.363 . S
C2485 C2491 1.363 . S
C2486 C2487 1.363 . S
C2486 C2491 1.379 . S
C2486 N2493 1.356 . S
C2487 C2486 1.363 . S
C2487 C2490 1.363 . S
N2488 C2490 1.356 . S
N2488 H2500 0.984 . S
N2488 H2501 0.985 . S
N2489 C2491 1.356 . S
N2489 H2494 0.984 . S
N2489 H2495 0.985 . S
C2490 C2484 1.379 . S
C2490 C2487 1.363 . S
C2490 N2488 1.356 . S
C2491 C2485 1.363 . S
C2491 C2486 1.379 . S
C2491 N2489 1.356 . S
N2492 C2484 1.356 . S
N2492 H2498 0.984 . S
N2492 H2499 0.984 . S
N2493 C2486 1.356 . S
N2493 H2496 0.984 . S
N2493 H2497 0.985 . S
H2494 N2489 0.984 . S
H2495 N2489 0.985 . S
H2496 N2493 0.984 . S
H2497 N2493 0.985 . S
H2498 N2492 0.984 . S
H2499 N2492 0.984 . S
H2500 N2488 0.984 . S
H2501 N2488 0.985 . S
C2502 C2503 1.363 . S
C2502 C2508 1.379 . S
C2502 N2510 1.356 . S
C2503 C2502 1.363 . S
C2503 C2509 1.363 . S
C2504 C2505 1.363 . S
C2504 C2509 1.379 . S
C2504 N2511 1.356 . S
C2505 C2504 1.363 . S
C2505 C2508 1.363 . S
N2506 C2508 1.356 . S
N2506 H2518 0.984 . S
N2506 H2519 0.985 . S
N2507 C2509 1.356 . S
N2507 H2512 0.984 . S
N2507 H2513 0.985 . S
C2508 C2502 1.379 . S
C2508 C2505 1.363 . S
C2508 N2506 1.356 . S
C2509 C2503 1.363 . S
C2509 C2504 1.379 . S
C2509 N2507 1.356 . S
N2510 C2502 1.356 . S
N2510 H2516 0.984 . S
N2510 H2517 0.984 . S
N2511 C2504 1.356 . S
N2511 H2514 0.984 . S
N2511 H2515 0.985 . S
H2512 N2507 0.984 . S
H2513 N2507 0.985 . S
H2514 N2511 0.984 . S
H2515 N2511 0.985 . S
H2516 N2510 0.984 . S
H2517 N2510 0.984 . S
H2518 N2506 0.984 . S
H2519 N2506 0.985 . S
C2520 C2521 1.363 . S
C2520 C2526 1.379 . S
C2520 N2528 1.356 . S
C2521 C2520 1.363 . S
C2521 C2527 1.363 . S
C2522 C2523 1.363 . S
C2522 C2527 1.379 . S
C2522 N2529 1.356 . S
C2523 C2522 1.363 . S
C2523 C2526 1.363 . S
N2524 C2526 1.356 . S
N2524 H2536 0.984 . S
N2524 H2537 0.985 . S
N2525 C2527 1.356 . S
N2525 H2530 0.984 . S
N2525 H2531 0.985 . S
C2526 C2520 1.379 . S
C2526 C2523 1.363 . S
C2526 N2524 1.356 . S
C2527 C2521 1.363 . S
C2527 C2522 1.379 . S
C2527 N2525 1.356 . S
N2528 C2520 1.356 . S
N2528 H2534 0.984 . S
N2528 H2535 0.984 . S
N2529 C2522 1.356 . S
N2529 H2532 0.984 . S
N2529 H2533 0.985 . S
H2530 N2525 0.984 . S
H2531 N2525 0.985 . S
H2532 N2529 0.984 . S
H2533 N2529 0.985 . S
H2534 N2528 0.984 . S
H2535 N2528 0.984 . S
H2536 N2524 0.984 . S
H2537 N2524 0.985 . S
C2538 C2539 1.363 . S
C2538 C2544 1.379 . S
C2538 N2546 1.356 . S
C2539 C2538 1.363 . S
C2539 C2545 1.363 . S
C2540 C2541 1.363 . S
C2540 C2545 1.379 . S
C2540 N2547 1.356 . S
C2541 C2540 1.363 . S
C2541 C2544 1.363 . S
N2542 C2544 1.356 . S
N2542 H2554 0.984 . S
N2542 H2555 0.985 . S
N2543 C2545 1.356 . S
N2543 H2548 0.984 . S
N2543 H2549 0.985 . S
C2544 C2538 1.379 . S
C2544 C2541 1.363 . S
C2544 N2542 1.356 . S
C2545 C2539 1.363 . S
C2545 C2540 1.379 . S
C2545 N2543 1.356 . S
N2546 C2538 1.356 . S
N2546 H2552 0.984 . S
N2546 H2553 0.984 . S
N2547 C2540 1.356 . S
N2547 H2550 0.984 . S
N2547 H2551 0.985 . S
H2548 N2543 0.984 . S
H2549 N2543 0.985 . S
H2550 N2547 0.984 . S
H2551 N2547 0.985 . S
H2552 N2546 0.984 . S
H2553 N2546 0.984 . S
H2554 N2542 0.984 . S
H2555 N2542 0.985 . S
C2556 C2557 1.363 . S
C2556 C2562 1.379 . S
C2556 N2564 1.356 . S
C2557 C2556 1.363 . S
C2557 C2563 1.363 1_545 S
C2558 C2559 1.363 1_565 S
C2558 C2563 1.379 . S
C2558 N2565 1.356 . S
C2559 C2558 1.363 1_545 S
C2559 C2562 1.363 . S
N2560 C2562 1.356 . S
N2560 H2572 0.984 . S
N2560 H2573 0.985 . S
N2561 C2563 1.356 . S
N2561 H2566 0.984 . S
N2561 H2567 0.985 . S
C2562 C2556 1.379 . S
C2562 C2559 1.363 . S
C2562 N2560 1.356 . S
C2563 C2557 1.363 1_565 S
C2563 C2558 1.379 . S
C2563 N2561 1.356 . S
N2564 C2556 1.356 . S
N2564 H2570 0.984 . S
N2564 H2571 0.984 . S
N2565 C2558 1.356 . S
N2565 H2568 0.984 . S
N2565 H2569 0.985 . S
H2566 N2561 0.984 . S
H2567 N2561 0.985 . S
H2568 N2565 0.984 . S
H2569 N2565 0.985 . S
H2570 N2564 0.984 . S
H2571 N2564 0.984 . S
H2572 N2560 0.984 . S
H2573 N2560 0.985 . S
C2574 C2575 1.363 1_455 S
C2574 C2580 1.379 . S
C2574 N2582 1.356 . S
C2575 C2574 1.363 1_655 S
C2575 C2581 1.363 . S
C2576 C2577 1.363 . S
C2576 C2581 1.379 . S
C2576 N2583 1.356 . S
C2577 C2576 1.363 . S
C2577 C2580 1.363 1_655 S
N2578 C2580 1.356 . S
N2578 H2590 0.984 . S
N2578 H2591 0.985 . S
N2579 C2581 1.356 . S
N2579 H2584 0.984 . S
N2579 H2585 0.985 . S
C2580 C2574 1.379 . S
C2580 C2577 1.363 1_455 S
C2580 N2578 1.356 . S
C2581 C2575 1.363 . S
C2581 C2576 1.379 . S
C2581 N2579 1.356 . S
N2582 C2574 1.356 . S
N2582 H2588 0.984 . S
N2582 H2589 0.984 . S
N2583 C2576 1.356 . S
N2583 H2586 0.984 . S
N2583 H2587 0.985 . S
H2584 N2579 0.984 . S
H2585 N2579 0.985 . S
H2586 N2583 0.984 . S
H2587 N2583 0.985 . S
H2588 N2582 0.984 . S
H2589 N2582 0.984 . S
H2590 N2578 0.984 . S
H2591 N2578 0.985 . S
C2592 C2593 1.363 . S
C2592 C2598 1.379 . S
C2592 N2600 1.356 . S
C2593 C2592 1.363 . S
C2593 C2599 1.363 . S
C2594 C2595 1.363 . S
C2594 C2599 1.379 . S
C2594 N2601 1.356 . S
C2595 C2594 1.363 . S
C2595 C2598 1.363 . S
N2596 C2598 1.356 . S
N2596 H2608 0.984 . S
N2596 H2609 0.985 . S
N2597 C2599 1.356 . S
N2597 H2602 0.984 . S
N2597 H2603 0.985 . S
C2598 C2592 1.379 . S
C2598 C2595 1.363 . S
C2598 N2596 1.356 . S
C2599 C2593 1.363 . S
C2599 C2594 1.379 . S
C2599 N2597 1.356 . S
N2600 C2592 1.356 . S
N2600 H2606 0.984 . S
N2600 H2607 0.984 . S
N2601 C2594 1.356 . S
N2601 H2604 0.984 . S
N2601 H2605 0.985 . S
H2602 N2597 0.984 . S
H2603 N2597 0.985 . S
H2604 N2601 0.984 . S
H2605 N2601 0.985 . S
H2606 N2600 0.984 . S
H2607 N2600 0.984 . S
H2608 N2596 0.984 . S
H2609 N2596 0.985 . S
C2610 C2611 1.363 . S
C2610 C2616 1.379 . S
C2610 N2618 1.356 . S
C2611 C2610 1.363 . S
C2611 C2617 1.363 . S
C2612 C2613 1.363 . S
C2612 C2617 1.379 . S
C2612 N2619 1.356 . S
C2613 C2612 1.363 . S
C2613 C2616 1.363 . S
N2614 C2616 1.356 . S
N2614 H2626 0.984 . S
N2614 H2627 0.985 . S
N2615 C2617 1.356 . S
N2615 H2620 0.984 . S
N2615 H2621 0.985 . S
C2616 C2610 1.379 . S
C2616 C2613 1.363 . S
C2616 N2614 1.356 . S
C2617 C2611 1.363 . S
C2617 C2612 1.379 . S
C2617 N2615 1.356 . S
N2618 C2610 1.356 . S
N2618 H2624 0.984 . S
N2618 H2625 0.984 . S
N2619 C2612 1.356 . S
N2619 H2622 0.984 . S
N2619 H2623 0.985 . S
H2620 N2615 0.984 . S
H2621 N2615 0.985 . S
H2622 N2619 0.984 . S
H2623 N2619 0.985 . S
H2624 N2618 0.984 . S
H2625 N2618 0.984 . S
H2626 N2614 0.984 . S
H2627 N2614 0.985 . S
C2628 C2629 1.363 . S
C2628 C2634 1.379 . S
C2628 N2636 1.356 . S
C2629 C2628 1.363 . S
C2629 C2635 1.363 . S
C2630 C2631 1.363 . S
C2630 C2635 1.379 . S
C2630 N2637 1.356 . S
C2631 C2630 1.363 . S
C2631 C2634 1.363 . S
N2632 C2634 1.356 . S
N2632 H2644 0.984 . S
N2632 H2645 0.985 . S
N2633 C2635 1.356 . S
N2633 H2638 0.984 . S
N2633 H2639 0.985 . S
C2634 C2628 1.379 . S
C2634 C2631 1.363 . S
C2634 N2632 1.356 . S
C2635 C2629 1.363 . S
C2635 C2630 1.379 . S
C2635 N2633 1.356 . S
N2636 C2628 1.356 . S
N2636 H2642 0.984 . S
N2636 H2643 0.984 . S
N2637 C2630 1.356 . S
N2637 H2640 0.984 . S
N2637 H2641 0.985 . S
H2638 N2633 0.984 . S
H2639 N2633 0.985 . S
H2640 N2637 0.984 . S
H2641 N2637 0.985 . S
H2642 N2636 0.984 . S
H2643 N2636 0.984 . S
H2644 N2632 0.984 . S
H2645 N2632 0.985 . S
C2646 C2647 1.363 . S
C2646 C2652 1.379 . S
C2646 N2654 1.356 . S
C2647 C2646 1.363 . S
C2647 C2653 1.363 . S
C2648 C2649 1.363 . S
C2648 C2653 1.379 . S
C2648 N2655 1.356 . S
C2649 C2648 1.363 . S
C2649 C2652 1.363 . S
N2650 C2652 1.356 . S
N2650 H2662 0.984 . S
N2650 H2663 0.985 . S
N2651 C2653 1.356 . S
N2651 H2656 0.984 . S
N2651 H2657 0.985 . S
C2652 C2646 1.379 . S
C2652 C2649 1.363 . S
C2652 N2650 1.356 . S
C2653 C2647 1.363 . S
C2653 C2648 1.379 . S
C2653 N2651 1.356 . S
N2654 C2646 1.356 . S
N2654 H2660 0.984 . S
N2654 H2661 0.984 . S
N2655 C2648 1.356 . S
N2655 H2658 0.984 . S
N2655 H2659 0.985 . S
H2656 N2651 0.984 . S
H2657 N2651 0.985 . S
H2658 N2655 0.984 . S
H2659 N2655 0.985 . S
H2660 N2654 0.984 . S
H2661 N2654 0.984 . S
H2662 N2650 0.984 . S
H2663 N2650 0.985 . S
C2664 C2665 1.363 . S
C2664 C2670 1.379 . S
C2664 N2672 1.356 . S
C2665 C2664 1.363 . S
C2665 C2671 1.363 . S
C2666 C2667 1.363 . S
C2666 C2671 1.379 . S
C2666 N2673 1.356 . S
C2667 C2666 1.363 . S
C2667 C2670 1.363 . S
N2668 C2670 1.356 . S
N2668 H2680 0.984 . S
N2668 H2681 0.985 . S
N2669 C2671 1.356 . S
N2669 H2674 0.984 . S
N2669 H2675 0.985 . S
C2670 C2664 1.379 . S
C2670 C2667 1.363 . S
C2670 N2668 1.356 . S
C2671 C2665 1.363 . S
C2671 C2666 1.379 . S
C2671 N2669 1.356 . S
N2672 C2664 1.356 . S
N2672 H2678 0.984 . S
N2672 H2679 0.984 . S
N2673 C2666 1.356 . S
N2673 H2676 0.984 . S
N2673 H2677 0.985 . S
H2674 N2669 0.984 . S
H2675 N2669 0.985 . S
H2676 N2673 0.984 . S
H2677 N2673 0.985 . S
H2678 N2672 0.984 . S
H2679 N2672 0.984 . S
H2680 N2668 0.984 . S
H2681 N2668 0.985 . S
C2682 C2683 1.363 . S
C2682 C2688 1.379 . S
C2682 N2690 1.356 . S
C2683 C2682 1.363 . S
C2683 C2689 1.363 . S
C2684 C2685 1.363 . S
C2684 C2689 1.379 . S
C2684 N2691 1.356 . S
C2685 C2684 1.363 . S
C2685 C2688 1.363 . S
N2686 C2688 1.356 . S
N2686 H2698 0.984 . S
N2686 H2699 0.985 . S
N2687 C2689 1.356 . S
N2687 H2692 0.984 . S
N2687 H2693 0.985 . S
C2688 C2682 1.379 . S
C2688 C2685 1.363 . S
C2688 N2686 1.356 . S
C2689 C2683 1.363 . S
C2689 C2684 1.379 . S
C2689 N2687 1.356 . S
N2690 C2682 1.356 . S
N2690 H2696 0.984 . S
N2690 H2697 0.984 . S
N2691 C2684 1.356 . S
N2691 H2694 0.984 . S
N2691 H2695 0.985 . S
H2692 N2687 0.984 . S
H2693 N2687 0.985 . S
H2694 N2691 0.984 . S
H2695 N2691 0.985 . S
H2696 N2690 0.984 . S
H2697 N2690 0.984 . S
H2698 N2686 0.984 . S
H2699 N2686 0.985 . S
C2700 C2701 1.363 . S
C2700 C2706 1.379 . S
C2700 N2708 1.356 . S
C2701 C2700 1.363 . S
C2701 C2707 1.363 . S
C2702 C2703 1.363 . S
C2702 C2707 1.379 . S
C2702 N2709 1.356 . S
C2703 C2702 1.363 . S
C2703 C2706 1.363 . S
N2704 C2706 1.356 . S
N2704 H2716 0.984 . S
N2704 H2717 0.985 . S
N2705 C2707 1.356 . S
N2705 H2710 0.984 . S
N2705 H2711 0.985 . S
C2706 C2700 1.379 . S
C2706 C2703 1.363 . S
C2706 N2704 1.356 . S
C2707 C2701 1.363 . S
C2707 C2702 1.379 . S
C2707 N2705 1.356 . S
N2708 C2700 1.356 . S
N2708 H2714 0.984 . S
N2708 H2715 0.984 . S
N2709 C2702 1.356 . S
N2709 H2712 0.984 . S
N2709 H2713 0.985 . S
H2710 N2705 0.984 . S
H2711 N2705 0.985 . S
H2712 N2709 0.984 . S
H2713 N2709 0.985 . S
H2714 N2708 0.984 . S
H2715 N2708 0.984 . S
H2716 N2704 0.984 . S
H2717 N2704 0.985 . S
C2718 C2719 1.363 . S
C2718 C2724 1.379 . S
C2718 N2726 1.356 . S
C2719 C2718 1.363 . S
C2719 C2725 1.363 1_655 S
C2720 C2721 1.363 1_455 S
C2720 C2725 1.379 . S
C2720 N2727 1.356 . S
C2721 C2720 1.363 1_655 S
C2721 C2724 1.363 . S
N2722 C2724 1.356 . S
N2722 H2734 0.984 . S
N2722 H2735 0.985 . S
N2723 C2725 1.356 . S
N2723 H2728 0.984 . S
N2723 H2729 0.985 . S
C2724 C2718 1.379 . S
C2724 C2721 1.363 . S
C2724 N2722 1.356 . S
C2725 C2719 1.363 1_455 S
C2725 C2720 1.379 . S
C2725 N2723 1.356 . S
N2726 C2718 1.356 . S
N2726 H2732 0.984 . S
N2726 H2733 0.984 . S
N2727 C2720 1.356 . S
N2727 H2730 0.984 . S
N2727 H2731 0.985 . S
H2728 N2723 0.984 . S
H2729 N2723 0.985 . S
H2730 N2727 0.984 . S
H2731 N2727 0.985 . S
H2732 N2726 0.984 . S
H2733 N2726 0.984 . S
H2734 N2722 0.984 . S
H2735 N2722 0.985 . S
C2736 C2737 1.363 . S
C2736 C2742 1.379 . S
C2736 N2744 1.356 . S
C2737 C2736 1.363 . S
C2737 C2743 1.363 . S
C2738 C2739 1.363 . S
C2738 C2743 1.379 . S
C2738 N2745 1.356 . S
C2739 C2738 1.363 . S
C2739 C2742 1.363 . S
N2740 C2742 1.356 . S
N2740 H2752 0.984 . S
N2740 H2753 0.985 . S
N2741 C2743 1.356 . S
N2741 H2746 0.984 . S
N2741 H2747 0.985 . S
C2742 C2736 1.379 . S
C2742 C2739 1.363 . S
C2742 N2740 1.356 . S
C2743 C2737 1.363 . S
C2743 C2738 1.379 . S
C2743 N2741 1.356 . S
N2744 C2736 1.356 . S
N2744 H2750 0.984 . S
N2744 H2751 0.984 . S
N2745 C2738 1.356 . S
N2745 H2748 0.984 . S
N2745 H2749 0.985 . S
H2746 N2741 0.984 . S
H2747 N2741 0.985 . S
H2748 N2745 0.984 . S
H2749 N2745 0.985 . S
H2750 N2744 0.984 . S
H2751 N2744 0.984 . S
H2752 N2740 0.984 . S
H2753 N2740 0.985 . S
C2754 C2755 1.363 . S
C2754 C2760 1.379 . S
C2754 N2762 1.356 . S
C2755 C2754 1.363 . S
C2755 C2761 1.363 1_545 S
C2756 C2757 1.363 1_565 S
C2756 C2761 1.379 . S
C2756 N2763 1.356 . S
C2757 C2756 1.363 1_545 S
C2757 C2760 1.363 . S
N2758 C2760 1.356 . S
N2758 H2770 0.984 . S
N2758 H2771 0.985 . S
N2759 C2761 1.356 . S
N2759 H2764 0.984 . S
N2759 H2765 0.985 . S
C2760 C2754 1.379 . S
C2760 C2757 1.363 . S
C2760 N2758 1.356 . S
C2761 C2755 1.363 1_565 S
C2761 C2756 1.379 . S
C2761 N2759 1.356 . S
N2762 C2754 1.356 . S
N2762 H2768 0.984 . S
N2762 H2769 0.984 . S
N2763 C2756 1.356 . S
N2763 H2766 0.984 . S
N2763 H2767 0.985 . S
H2764 N2759 0.984 . S
H2765 N2759 0.985 . S
H2766 N2763 0.984 . S
H2767 N2763 0.985 . S
H2768 N2762 0.984 . S
H2769 N2762 0.984 . S
H2770 N2758 0.984 . S
H2771 N2758 0.985 . S
C1477 C4 1.431 . S
C1479 C1084 1.453 . S
C1495 C38 1.729 . S
C1497 C1130 1.692 . S
C1515 C1162 1.475 . S
C1513 C74 1.440 . S
C1531 C76 1.412 . S
C1533 C1215 1.444 . S
C1549 C2 1.519 . S
C1551 C1261 1.573 . S
C1567 C40 1.574 . S
C1569 C1300 1.553 . S
C1585 C110 1.489 . S
C1587 C1254 1.532 . S
C1605 C1307 1.562 . S
C1603 C148 1.589 . S
C1623 C1208 1.532 . S
C1621 C182 1.491 . S
C1639 C184 1.460 . S
C1641 C1169 1.497 . S
C1659 C1063 1.440 . S
C1657 C112 1.418 . S
C1675 C146 1.670 . S
C1677 C1109 1.636 . S
C1693 C220 1.674 . S
C1695 C1339 1.645 . S
C1711 C254 1.810 . S
C1713 C1406 1.754 . S
C1731 C1452 1.637 . S
C1729 C290 1.691 . S
C1747 C292 1.578 . S
C1749 C663 1.541 . S
C1765 C218 1.718 . S
C1767 C709 1.687 . S
C1783 C256 1.616 . S
C1785 C755 1.567 . S
C1801 C326 1.708 . S
C1803 C702 1.664 . S
C1819 C364 1.651 . S
C1821 C748 1.594 . S
C1839 C656 1.680 . S
C1837 C398 1.724 . S
C1857 C1431 1.653 . S
C1855 C400 1.687 . S
C1875 C1360 1.545 . S
C1873 C328 1.571 . S
C1893 C1385 1.701 . S
C1891 C362 1.752 . S
C1909 C436 1.602 . S
C1911 C787 1.574 . S
C1927 C470 1.783 . S
C1929 C840 1.750 . S
C1945 C506 1.686 . S
C1947 C886 1.655 . S
C1963 C508 1.652 . S
C1965 C932 1.629 . S
C1983 C985 1.677 . S
C1981 C434 1.716 . S
C2001 C1031 1.590 . S
C1999 C472 1.641 . S
C2019 C978 1.741 . S
C2017 C542 1.785 . S
C2037 C1024 1.614 . S
C2035 C580 1.673 . S
C2053 C614 1.718 . S
C2055 C939 1.684 . S
C2073 C893 1.591 . S
C2071 C616 1.609 . S
C2089 C544 1.577 . S
C2091 C808 1.554 . S
C2109 C847 1.685 . S
C2107 C578 1.714 . S
C2127 C670 1.678 . S
C2125 C14 1.705 . S
C2143 C39 1.608 . S
C2145 C716 1.581 . S
C2163 C762 1.597 . S
C2161 C75 1.626 . S
C2181 C794 1.522 . S
C2179 C86 1.558 . S
C2199 C833 1.616 . S
C2197 C3 1.658 . S
C2217 C879 1.578 . S
C2215 C50 1.626 . S
C2233 C111 1.634 . S
C2235 C900 1.595 . S
C2251 C158 1.588 . S
C2253 C801 1.529 . S
C2269 C183 1.735 . S
C2271 C854 1.689 . S
C2287 C194 1.678 . S
C2289 C695 1.664 . S
C2307 C741 1.595 . S
C2305 C122 1.632 . S
C2323 C147 1.531 . S
C2325 C649 1.508 . S
C2343 C925 1.608 . S
C2341 C230 1.662 . S
C2359 C255 1.693 . S
C2361 C992 1.665 . S
C2377 C291 1.640 . S
C2379 C1038 1.605 . S
C2397 C1077 1.356 . S
C2395 C302 1.302 . S
C2413 C219 1.614 . S
C2415 C1123 1.593 . S
C2431 C266 1.381 . S
C2433 C1155 1.447 . S
C2449 C327 1.372 . S
C2451 C1176 1.363 . S
C2467 C374 1.352 . S
C2469 C1070 1.401 . S
C2487 C1116 1.658 . S
C2485 C399 1.683 . S
C2503 C410 1.638 . S
C2505 C971 1.617 . S
C2521 C338 1.643 . S
C2523 C1017 1.618 . S
C2541 C946 1.581 . S
C2539 C363 1.622 . S
C2559 C1222 1.440 . S
C2557 C446 1.382 . S
C2575 C471 1.425 . S
C2577 C1268 1.425 . S
C2593 C507 1.577 . S
C2595 C1293 1.532 . S
C2613 C1346 1.488 . S
C2611 C518 1.532 . S
C2631 C1399 1.656 . S
C2629 C435 1.684 . S
C2647 C482 1.689 . S
C2649 C1445 1.676 . S
C2665 C543 1.582 . S
C2667 C1438 1.553 . S
C2683 C590 1.654 . S
C2685 C1353 1.614 . S
C2703 C1392 1.708 . S
C2701 C615 1.740 . S
C2721 C1247 1.446 . S
C2719 C626 1.378 . S
C2739 C1314 1.555 . S
C2737 C554 1.597 . S
C2755 C579 1.376 . S
C2757 C1201 1.376 . S
