# Generated by pormake.
# Topology dag, (6,3)-cn, num edge types: 1
# Building blocks:
#     Node 0, Type 0, BuildingBlock: IZENUY_clean_sbu_0, # of connection points: 6
#     Node 1, Type 0, BuildingBlock: IZENUY_clean_sbu_0, # of connection points: 6
#     Node 2, Type 0, BuildingBlock: IZENUY_clean_sbu_0, # of connection points: 6
#     Node 3, Type 0, BuildingBlock: IZENUY_clean_sbu_0, # of connection points: 6
#     Node 4, Type 1, BuildingBlock: BETDAH_clean_linker_0, # of connection points: 3
#     Node 5, Type 1, BuildingBlock: BETDAH_clean_linker_0, # of connection points: 3
#     Node 6, Type 1, BuildingBlock: BETDAH_clean_linker_0, # of connection points: 3
#     Node 7, Type 1, BuildingBlock: BETDAH_clean_linker_0, # of connection points: 3
#     Node 8, Type 1, BuildingBlock: BETDAH_clean_linker_0, # of connection points: 3
#     Node 9, Type 1, BuildingBlock: BETDAH_clean_linker_0, # of connection points: 3
#     Node 10, Type 1, BuildingBlock: BETDAH_clean_linker_0, # of connection points: 3
#     Node 11, Type 1, BuildingBlock: BETDAH_clean_linker_0, # of connection points: 3
#     Edge 12, Type (0, 1), BuildingBlock: TEMPAE_clean_linker_10, # of connection points: 2
#     Edge 13, Type (0, 1), BuildingBlock: TEMPAE_clean_linker_10, # of connection points: 2
#     Edge 14, Type (0, 1), BuildingBlock: TEMPAE_clean_linker_10, # of connection points: 2
#     Edge 15, Type (0, 1), BuildingBlock: TEMPAE_clean_linker_10, # of connection points: 2
#     Edge 16, Type (0, 1), BuildingBlock: TEMPAE_clean_linker_10, # of connection points: 2
#     Edge 17, Type (0, 1), BuildingBlock: TEMPAE_clean_linker_10, # of connection points: 2
#     Edge 18, Type (0, 1), BuildingBlock: TEMPAE_clean_linker_10, # of connection points: 2
#     Edge 19, Type (0, 1), BuildingBlock: TEMPAE_clean_linker_10, # of connection points: 2
#     Edge 20, Type (0, 1), BuildingBlock: TEMPAE_clean_linker_10, # of connection points: 2
#     Edge 21, Type (0, 1), BuildingBlock: TEMPAE_clean_linker_10, # of connection points: 2
#     Edge 22, Type (0, 1), BuildingBlock: TEMPAE_clean_linker_10, # of connection points: 2
#     Edge 23, Type (0, 1), BuildingBlock: TEMPAE_clean_linker_10, # of connection points: 2
#     Edge 24, Type (0, 1), BuildingBlock: TEMPAE_clean_linker_10, # of connection points: 2
#     Edge 25, Type (0, 1), BuildingBlock: TEMPAE_clean_linker_10, # of connection points: 2
#     Edge 26, Type (0, 1), BuildingBlock: TEMPAE_clean_linker_10, # of connection points: 2
#     Edge 27, Type (0, 1), BuildingBlock: TEMPAE_clean_linker_10, # of connection points: 2
#     Edge 28, Type (0, 1), BuildingBlock: TEMPAE_clean_linker_10, # of connection points: 2
#     Edge 29, Type (0, 1), BuildingBlock: TEMPAE_clean_linker_10, # of connection points: 2
#     Edge 30, Type (0, 1), BuildingBlock: TEMPAE_clean_linker_10, # of connection points: 2
#     Edge 31, Type (0, 1), BuildingBlock: TEMPAE_clean_linker_10, # of connection points: 2
#     Edge 32, Type (0, 1), BuildingBlock: TEMPAE_clean_linker_10, # of connection points: 2
#     Edge 33, Type (0, 1), BuildingBlock: TEMPAE_clean_linker_10, # of connection points: 2
#     Edge 34, Type (0, 1), BuildingBlock: TEMPAE_clean_linker_10, # of connection points: 2
#     Edge 35, Type (0, 1), BuildingBlock: TEMPAE_clean_linker_10, # of connection points: 2
# Relax obj value: 0.094
# Max RMSD: 0.103
# Mean RMSD: 0.088
data_MOF--net-dag--node1-IZENUY_clean_sbu_0--node2-BETDAH_clean_linker_0--edge1-TEMPAE_clean_linker_10
_symmetry_space_group_name_H-M    P1
_symmetry_Int_Tables_number       1
_symmetry_cell_setting            triclinic
loop_
_symmetry_equiv_pos_as_xyz
'x, y, z'
_cell_length_a     38.943604
_cell_length_b     41.540575
_cell_length_c     35.894688
_cell_angle_alpha  93.834835
_cell_angle_beta   90.332939
_cell_angle_gamma 90.024908
loop_
_atom_site_label
_atom_site_type_symbol
_atom_site_fract_x
_atom_site_fract_y
_atom_site_fract_z
_atom_type_partial_charge
Fe0 Fe 0.15306 0.84088 0.06271 0.0
Fe1 Fe 0.07899 0.86192 0.05029 0.0
O2 O 0.1094 0.83081 0.05417 0.0
Fe3 Fe 0.09613 0.78979 0.04922 0.0
O4 O 0.11195 0.78233 0.09563 0.0
O5 O 0.16193 0.80608 0.08978 0.0
O6 O 0.14318 0.8635 0.10652 0.0
C7 C 0.12235 0.8868 0.10906 0.0
C8 C 0.1595 0.78999 0.01066 0.0
O9 O 0.10071 0.8907 0.08333 0.0
C10 C 0.05771 0.8151 0.99408 0.0
O11 O 0.15219 0.8775 0.03697 0.0
O12 O 0.10117 0.87717 0.01077 0.0
O13 O 0.13628 0.77508 0.02721 0.0
O14 O 0.16583 0.81928 0.0196 0.0
C15 C 0.04188 0.82104 0.09059 0.0
O16 O 0.05145 0.83902 0.01665 0.0
O17 O 0.07954 0.79423 0.00223 0.0
C18 C 0.13209 0.88625 0.01175 0.0
O19 O 0.05505 0.84867 0.08939 0.0
O20 O 0.05344 0.79735 0.07023 0.0
C21 C 0.14239 0.7877 0.10675 0.0
Fe22 Fe 0.68513 0.64108 0.46707 0.0
Fe23 Fe 0.62809 0.6897 0.49027 0.0
O24 O 0.64212 0.64935 0.48095 0.0
Fe25 Fe 0.61312 0.61719 0.48532 0.0
O26 O 0.64561 0.58915 0.50067 0.0
O27 O 0.69316 0.6176 0.50702 0.0
O28 O 0.70362 0.67591 0.49469 0.0
C29 C 0.69194 0.69252 0.52273 0.0
C30 C 0.64644 0.59464 0.42248 0.0
O31 O 0.66004 0.69652 0.52678 0.0
C32 C 0.57192 0.66417 0.4528 0.0
O33 O 0.67994 0.6638 0.42617 0.0
O34 O 0.65601 0.70633 0.45515 0.0
O35 O 0.61827 0.60351 0.43684 0.0
O36 O 0.67457 0.60454 0.4371 0.0
C37 C 0.59505 0.65578 0.54632 0.0
O38 O 0.59485 0.68571 0.45431 0.0
O39 O 0.57524 0.63933 0.47103 0.0
C40 C 0.67054 0.69286 0.42668 0.0
O41 O 0.59768 0.68023 0.52718 0.0
O42 O 0.60597 0.62863 0.534 0.0
C43 C 0.67502 0.59395 0.51511 0.0
Fe44 Fe 0.89526 0.2133 0.01592 0.0
Fe45 Fe 0.91143 0.14165 0.02212 0.0
O46 O 0.88221 0.17224 0.01175 0.0
Fe47 Fe 0.84 0.16172 0.99713 0.0
O48 O 0.84595 0.17979 0.95342 0.0
O49 O 0.86757 0.22556 0.97726 0.0
O50 O 0.92892 0.20595 0.98155 0.0
C51 C 0.95229 0.1852 0.98418 0.0
C52 C 0.83071 0.21792 0.04518 0.0
O53 O 0.94933 0.16301 0.00647 0.0
C54 C 0.84866 0.11987 0.05144 0.0
O55 O 0.92552 0.20832 0.0553 0.0
O56 O 0.91638 0.15848 0.06946 0.0
O57 O 0.82043 0.19842 0.01882 0.0
O58 O 0.86235 0.22326 0.05042 0.0
C59 C 0.88059 0.11271 0.96028 0.0
O60 O 0.87888 0.11468 0.03969 0.0
O61 O 0.83111 0.1427 0.03996 0.0
C62 C 0.92796 0.1863 0.07814 0.0
O63 O 0.90828 0.12275 0.97525 0.0
O64 O 0.85198 0.12304 0.97272 0.0
C65 C 0.8535 0.20894 0.95034 0.0
Fe66 Fe 0.39904 0.3767 0.56824 0.0
Fe67 Fe 0.32667 0.35759 0.59086 0.0
O68 O 0.36887 0.34647 0.57679 0.0
Fe69 Fe 0.38085 0.30528 0.57083 0.0
O70 O 0.42588 0.31213 0.58587 0.0
O71 O 0.42757 0.36367 0.60426 0.0
O72 O 0.38168 0.40649 0.60303 0.0
C73 C 0.36304 0.4038 0.63143 0.0
C74 C 0.412 0.32914 0.51051 0.0
O75 O 0.34229 0.38053 0.6326 0.0
C76 C 0.3134 0.30634 0.54063 0.0
O77 O 0.37245 0.39127 0.53149 0.0
O78 O 0.32501 0.39405 0.56436 0.0
O79 O 0.39143 0.30859 0.52193 0.0
O80 O 0.42189 0.35279 0.53184 0.0
C81 C 0.34249 0.30493 0.63429 0.0
O82 O 0.3083 0.33576 0.55004 0.0
O83 O 0.33805 0.29121 0.55474 0.0
C84 C 0.34219 0.40127 0.53625 0.0
O85 O 0.3208 0.32319 0.61983 0.0
O86 O 0.3711 0.29914 0.61901 0.0
C87 C 0.44016 0.33568 0.60435 0.0
H88 H 0.10678 0.11031 0.21579 0.0
H89 H 0.15608 0.0861 0.3173 0.0
H90 H 0.11377 0.18103 0.30903 0.0
C91 C 0.11621 0.11763 0.24356 0.0
C92 C 0.10875 0.14874 0.25935 0.0
C93 C 0.13343 0.09492 0.26397 0.0
C94 C 0.14325 0.10354 0.3009 0.0
C95 C 0.13707 0.13467 0.31693 0.0
C96 C 0.11972 0.15737 0.29618 0.0
N97 N 0.14619 0.14127 0.35496 0.0
C98 C 0.15964 0.17033 0.37 0.0
H99 H 0.42556 0.60085 0.73929 0.0
H100 H 0.40362 0.70189 0.75595 0.0
H101 H 0.33384 0.63239 0.79737 0.0
C102 C 0.40981 0.62013 0.75189 0.0
C103 C 0.37906 0.61272 0.76975 0.0
C104 C 0.4186 0.65214 0.7466 0.0
C105 C 0.39722 0.67707 0.76058 0.0
C106 C 0.36728 0.67031 0.77999 0.0
C107 C 0.35789 0.63797 0.78421 0.0
N108 N 0.34651 0.69674 0.79282 0.0
C109 C 0.32014 0.69533 0.8185 0.0
H110 H 0.82284 0.90201 0.12374 0.0
H111 H 0.77389 0.82721 0.18152 0.0
H112 H 0.72146 0.91709 0.16765 0.0
C113 C 0.8006 0.89293 0.1378 0.0
C114 C 0.77205 0.913 0.14383 0.0
C115 C 0.80153 0.86195 0.15114 0.0
C116 C 0.77331 0.85109 0.1711 0.0
C117 C 0.74412 0.87096 0.17663 0.0
C118 C 0.74377 0.90177 0.163 0.0
N119 N 0.71454 0.86086 0.19551 0.0
C120 C 0.71398 0.83509 0.21813 0.0
H121 H 0.67286 0.38611 0.61924 0.0
H122 H 0.7115 0.31637 0.6926 0.0
H123 H 0.77612 0.3941 0.66071 0.0
C124 C 0.69377 0.37658 0.63531 0.0
C125 C 0.72504 0.39314 0.63756 0.0
C126 C 0.68851 0.34885 0.65489 0.0
C127 C 0.71528 0.3377 0.67732 0.0
C128 C 0.74721 0.35396 0.67885 0.0
C129 C 0.75169 0.38153 0.65908 0.0
N130 N 0.77594 0.34345 0.69918 0.0
C131 C 0.77551 0.32122 0.7263 0.0
H132 H 0.5832 0.38004 0.33913 0.0
H133 H 0.63731 0.37684 0.23468 0.0
H134 H 0.55981 0.30597 0.25367 0.0
C135 C 0.58854 0.36835 0.31187 0.0
C136 C 0.56959 0.34089 0.29971 0.0
C137 C 0.6128 0.38184 0.28863 0.0
C138 C 0.61859 0.36686 0.25293 0.0
C139 C 0.59948 0.3394 0.24043 0.0
C140 C 0.57455 0.32702 0.26353 0.0
N141 N 0.60443 0.32407 0.20448 0.0
C142 C 0.63673 0.31976 0.18886 0.0
H143 H 0.13873 0.10021 0.89006 0.0
H144 H 0.20642 0.17274 0.85221 0.0
H145 H 0.24661 0.0805 0.87974 0.0
C146 C 0.16425 0.10765 0.88216 0.0
C147 C 0.1919 0.08664 0.88598 0.0
C148 C 0.16926 0.13861 0.86988 0.0
C149 C 0.20245 0.14852 0.86081 0.0
C150 C 0.23042 0.12723 0.86383 0.0
C151 C 0.22495 0.09649 0.87657 0.0
N152 N 0.26446 0.13626 0.85537 0.0
C153 C 0.272 0.16094 0.83256 0.0
H154 H 0.35304 0.61723 0.41219 0.0
H155 H 0.32075 0.65918 0.31152 0.0
H156 H 0.27518 0.57069 0.34209 0.0
C157 C 0.3364 0.61674 0.38786 0.0
C158 C 0.31362 0.59082 0.38071 0.0
C159 C 0.33978 0.64104 0.36272 0.0
C160 C 0.31803 0.64077 0.3313 0.0
C161 C 0.29384 0.61575 0.32482 0.0
C162 C 0.29248 0.59067 0.3489 0.0
N163 N 0.27173 0.61379 0.29326 0.0
C164 C 0.26112 0.64009 0.27433 0.0
H165 H 0.92408 0.8867 0.8322 0.0
H166 H 0.88833 0.82132 0.74231 0.0
H167 H 0.84886 0.91837 0.75464 0.0
C168 C 0.9077 0.88193 0.80788 0.0
C169 C 0.88609 0.90624 0.79617 0.0
C170 C 0.9087 0.85144 0.78864 0.0
C171 C 0.88764 0.84491 0.75709 0.0
C172 C 0.86624 0.86947 0.74461 0.0
C173 C 0.86581 0.89987 0.76413 0.0
N174 N 0.8449 0.86514 0.7125 0.0
C175 C 0.83739 0.83606 0.69276 0.0
C176 C 0.09903 0.93484 0.14558 0.0
C177 C 0.12599 0.91281 0.13916 0.0
C178 C 0.10297 0.96228 0.17006 0.0
C179 C 0.13474 0.968 0.18869 0.0
C180 C 0.16151 0.94501 0.18396 0.0
C181 C 0.15679 0.91757 0.15925 0.0
C182 C 0.07361 0.98598 0.17451 0.0
C183 C 0.19566 0.95021 0.20351 0.0
C184 C 0.15053 0.05725 0.20999 0.0
C185 C 0.13902 0.06174 0.24691 0.0
C186 C 0.15137 0.02646 0.19147 0.0
C187 C 0.1404 -0.00057 0.21032 0.0
C188 C 0.1308 0.00352 0.24834 0.0
C189 C 0.13022 0.03468 0.26622 0.0
C190 C 0.16199 0.02318 0.15099 0.0
C191 C 0.11906 0.97532 0.26944 0.0
H192 H 0.07496 0.9311 0.13056 0.0
H193 H 0.17773 0.90064 0.15446 0.0
H194 H 0.06794 0.99145 0.20451 0.0
H195 H 0.08092 0.00899 0.16265 0.0
H196 H 0.04981 0.9768 0.16026 0.0
H197 H 0.2121 0.92833 0.20078 0.0
H198 H 0.20949 0.97031 0.1913 0.0
H199 H 0.19189 0.95715 0.23359 0.0
H200 H 0.1579 0.07806 0.19516 0.0
H201 H 0.12116 0.03801 0.29472 0.0
H202 H 0.13928 0.01671 0.13322 0.0
H203 H 0.18108 0.00353 0.14638 0.0
H204 H 0.17319 0.04585 0.1416 0.0
H205 H 0.09326 0.96743 0.2592 0.0
H206 H 0.11747 0.9816 0.29995 0.0
H207 H 0.13671 0.95454 0.26455 0.0
C208 C 0.56962 0.68665 0.60186 0.0
C209 C 0.57364 0.65754 0.58023 0.0
C210 C 0.54729 0.68874 0.63256 0.0
C211 C 0.52781 0.66136 0.64091 0.0
C212 C 0.53227 0.6318 0.6195 0.0
C213 C 0.55549 0.63015 0.5898 0.0
C214 C 0.54399 0.72035 0.65553 0.0
C215 C 0.51141 0.60222 0.62688 0.0
C216 C 0.48119 0.65104 0.73185 0.0
C217 C 0.44755 0.65894 0.72203 0.0
C218 C 0.50821 0.6539 0.70654 0.0
C219 C 0.501 0.66377 0.67028 0.0
C220 C 0.46711 0.67268 0.66078 0.0
C221 C 0.44084 0.6705 0.68701 0.0
C222 C 0.54415 0.64507 0.71802 0.0
C223 C 0.45815 0.6825 0.62214 0.0
H224 H 0.58385 0.70778 0.59468 0.0
H225 H 0.55829 0.60764 0.573 0.0
H226 H 0.51818 0.73077 0.6512 0.0
H227 H 0.54655 0.7164 0.6857 0.0
H228 H 0.56362 0.73819 0.64804 0.0
H229 H 0.51836 0.58099 0.60796 0.0
H230 H 0.51517 0.59585 0.65612 0.0
H231 H 0.48368 0.60735 0.62313 0.0
H232 H 0.48617 0.64206 0.75904 0.0
H233 H 0.41464 0.67623 0.67948 0.0
H234 H 0.56276 0.66359 0.70998 0.0
H235 H 0.55162 0.62182 0.70331 0.0
H236 H 0.5463 0.64257 0.74857 0.0
H237 H 0.47512 0.70235 0.6143 0.0
H238 H 0.43102 0.69048 0.61997 0.0
H239 H 0.4623 0.66178 0.6015 0.0
C240 C 0.85217 0.07363 0.09185 0.0
C241 C 0.83193 0.09513 0.07282 0.0
C242 C 0.83758 0.04657 0.10684 0.0
C243 C 0.80193 0.04073 0.10232 0.0
C244 C 0.78097 0.06348 0.08535 0.0
C245 C 0.79623 0.09061 0.07093 0.0
C246 C 0.86075 0.02315 0.12536 0.0
C247 C 0.74289 0.05806 0.08004 0.0
C248 C 0.78298 0.95141 0.09496 0.0
C249 C 0.77318 0.94621 0.13153 0.0
C250 C 0.79016 0.98254 0.08443 0.0
C251 C 0.78782 0.00899 0.11131 0.0
C252 C 0.77582 0.0041 0.14766 0.0
C253 C 0.76849 0.97264 0.15734 0.0
C254 C 0.8024 0.98679 0.04519 0.0
C255 C 0.77305 0.03169 0.17704 0.0
H256 H 0.87971 0.07729 0.0938 0.0
H257 H 0.78044 0.10718 0.05626 0.0
H258 H 0.84986 0.01696 0.15246 0.0
H259 H 0.8627 0.00045 0.10736 0.0
H260 H 0.88704 0.03297 0.13032 0.0
H261 H 0.7295 0.08014 0.07185 0.0
H262 H 0.73858 0.0386 0.05779 0.0
H263 H 0.73111 0.05012 0.10596 0.0
H264 H 0.78629 0.9309 0.07498 0.0
H265 H 0.7611 0.96852 0.18571 0.0
H266 H 0.82999 0.9935 0.04589 0.0
H267 H 0.78812 0.0066 0.03282 0.0
H268 H 0.79924 0.96444 0.02669 0.0
H269 H 0.79918 0.0393 0.18644 0.0
H270 H 0.75837 0.02482 0.20175 0.0
H271 H 0.76049 0.05283 0.16546 0.0
C272 C 0.48946 0.30091 0.62304 0.0
C273 C 0.47507 0.33168 0.62039 0.0
C274 C 0.52401 0.2972 0.63372 0.0
C275 C 0.54481 0.32489 0.64112 0.0
C276 C 0.52991 0.35596 0.64033 0.0
C277 C 0.49524 0.35894 0.63037 0.0
C278 C 0.53861 0.26368 0.63527 0.0
C279 C 0.55112 0.38621 0.64771 0.0
C280 C 0.63427 0.32988 0.68394 0.0
C281 C 0.65414 0.33334 0.65202 0.0
C282 C 0.59869 0.32404 0.68085 0.0
C283 C 0.58284 0.32206 0.64509 0.0
C284 C 0.60349 0.32244 0.61279 0.0
C285 C 0.63888 0.3278 0.61669 0.0
C286 C 0.57775 0.32269 0.71593 0.0
C287 C 0.58787 0.32042 0.57407 0.0
H288 H 0.474 0.27967 0.61584 0.0
H289 H 0.48444 0.38284 0.62862 0.0
H290 H 0.55436 0.25782 0.61008 0.0
H291 H 0.55559 0.26215 0.66002 0.0
H292 H 0.51807 0.24519 0.63625 0.0
H293 H 0.53528 0.40846 0.64811 0.0
H294 H 0.56479 0.38568 0.67484 0.0
H295 H 0.57087 0.38752 0.62568 0.0
H296 H 0.64598 0.33412 0.71131 0.0
H297 H 0.65434 0.33008 0.59196 0.0
H298 H 0.55746 0.30396 0.71234 0.0
H299 H 0.56488 0.34625 0.72206 0.0
H300 H 0.59405 0.31758 0.74034 0.0
H301 H 0.56984 0.29977 0.5705 0.0
H302 H 0.60766 0.31775 0.55192 0.0
H303 H 0.57297 0.34271 0.57004 0.0
C304 C 0.61536 0.55199 0.38318 0.0
C305 C 0.64637 0.56745 0.39346 0.0
C306 C 0.61499 0.5229 0.3611 0.0
C307 C 0.64637 0.5091 0.34828 0.0
C308 C 0.67756 0.52583 0.356 0.0
C309 C 0.67724 0.55472 0.37879 0.0
C310 C 0.5811 0.50585 0.35363 0.0
C311 C 0.71142 0.51239 0.34194 0.0
C312 C 0.64006 0.41825 0.33865 0.0
C313 C 0.62955 0.41287 0.30131 0.0
C314 C 0.64811 0.44934 0.35371 0.0
C315 C 0.64629 0.47564 0.33064 0.0
C316 C 0.63925 0.46987 0.29202 0.0
C317 C 0.63069 0.43852 0.27781 0.0
C318 C 0.6556 0.45432 0.39504 0.0
C319 C 0.63812 0.49713 0.2663 0.0
H320 H 0.5913 0.56172 0.394 0.0
H321 H 0.70132 0.56665 0.38621 0.0
H322 H 0.5777 0.49966 0.32331 0.0
H323 H 0.58083 0.48292 0.36783 0.0
H324 H 0.55887 0.52069 0.3637 0.0
H325 H 0.732 0.53097 0.34379 0.0
H326 H 0.71937 0.49232 0.35896 0.0
H327 H 0.70906 0.50251 0.31254 0.0
H328 H 0.64006 0.39835 0.35671 0.0
H329 H 0.62269 0.43458 0.24889 0.0
H330 H 0.63385 0.46736 0.40906 0.0
H331 H 0.6789 0.46936 0.40007 0.0
H332 H 0.65935 0.43115 0.40828 0.0
H333 H 0.61376 0.51067 0.27057 0.0
H334 H 0.63946 0.48813 0.23649 0.0
H335 H 0.65956 0.51429 0.27251 0.0
C336 C 0.01109 0.16535 0.96855 0.0
C337 C 0.98464 0.18742 0.96292 0.0
C338 C 0.04134 0.16546 0.94783 0.0
C339 C 0.04553 0.18833 0.92065 0.0
C340 C 0.01944 0.21136 0.91541 0.0
C341 C 0.98913 0.21054 0.93654 0.0
C342 C 0.0685 0.1404 0.95453 0.0
C343 C 0.02295 0.23617 0.88683 0.0
C344 C 0.13925 0.18692 0.89801 0.0
C345 C 0.13966 0.16084 0.87122 0.0
C346 C 0.10793 0.19993 0.91106 0.0
C347 C 0.07675 0.18624 0.89698 0.0
C348 C 0.07741 0.16346 0.86584 0.0
C349 C 0.109 0.15091 0.85336 0.0
C350 C 0.1083 0.22499 0.94346 0.0
C351 C 0.04482 0.14876 0.84936 0.0
H352 H 0.00804 0.14748 0.98895 0.0
H353 H 0.96881 0.22769 0.93196 0.0
H354 H 0.0725 0.1247 0.92869 0.0
H355 H 0.09333 0.15234 0.96191 0.0
H356 H 0.06149 0.12485 0.97732 0.0
H357 H 0.00492 0.25663 0.89232 0.0
H358 H 0.04954 0.24573 0.88627 0.0
H359 H 0.01709 0.22472 0.85871 0.0
H360 H 0.16302 0.19467 0.91173 0.0
H361 H 0.10949 0.13089 0.83236 0.0
H362 H 0.10493 0.2129 0.96985 0.0
H363 H 0.08691 0.2424 0.94114 0.0
H364 H 0.133 0.23843 0.9452 0.0
H365 H 0.03514 0.13042 0.86784 0.0
H366 H 0.0492 0.13673 0.82121 0.0
H367 H 0.02459 0.16733 0.84726 0.0
C368 C 0.33484 0.42392 0.47448 0.0
C369 C 0.33001 0.42682 0.51313 0.0
C370 C 0.32758 0.4498 0.45257 0.0
C371 C 0.31665 0.47957 0.47012 0.0
C372 C 0.31072 0.48222 0.5091 0.0
C373 C 0.31696 0.45553 0.53011 0.0
C374 C 0.33316 0.44572 0.41093 0.0
C375 C 0.30023 0.51383 0.52902 0.0
C376 C 0.3446 0.55293 0.42099 0.0
C377 C 0.31376 0.56295 0.40488 0.0
C378 C 0.34552 0.52654 0.44326 0.0
C379 C 0.31517 0.5087 0.44836 0.0
C380 C 0.28399 0.51827 0.43199 0.0
C381 C 0.28353 0.54561 0.41099 0.0
C382 C 0.3792 0.51754 0.46095 0.0
C383 C 0.25133 0.49926 0.43604 0.0
H384 H 0.3449 0.40157 0.46151 0.0
H385 H 0.31373 0.45777 0.56017 0.0
H386 H 0.311 0.45551 0.39576 0.0
H387 H 0.35628 0.45943 0.40345 0.0
H388 H 0.33684 0.42002 0.40112 0.0
H389 H 0.29374 0.51112 0.55875 0.0
H390 H 0.32163 0.53139 0.52795 0.0
H391 H 0.27779 0.52423 0.51498 0.0
H392 H 0.36839 0.5653 0.41572 0.0
H393 H 0.25943 0.55327 0.39925 0.0
H394 H 0.38789 0.49373 0.44871 0.0
H395 H 0.37585 0.51538 0.49136 0.0
H396 H 0.39973 0.53552 0.45685 0.0
H397 H 0.25512 0.47403 0.42458 0.0
H398 H 0.22925 0.50977 0.42135 0.0
H399 H 0.2448 0.49826 0.46597 0.0
C400 C 0.03981 0.78367 0.93433 0.0
C401 C 0.03732 0.81131 0.95894 0.0
C402 C 0.02026 0.78076 0.90106 0.0
C403 C 0.99815 0.80626 0.89213 0.0
C404 C 0.99562 0.83412 0.91695 0.0
C405 C 0.01509 0.83623 0.94988 0.0
C406 C 0.02362 0.7507 0.87535 0.0
C407 C 0.97251 0.86208 0.90867 0.0
C408 C 0.96749 0.83191 0.79959 0.0
C409 C 0.93209 0.82739 0.80338 0.0
C410 C 0.99061 0.82078 0.82596 0.0
C411 C 0.97776 0.80505 0.8568 0.0
C412 C 0.94259 0.79632 0.85748 0.0
C413 C 0.92001 0.80784 0.83074 0.0
C414 C 0.02792 0.83022 0.82372 0.0
C415 C 0.92791 0.77893 0.88934 0.0
H416 H 0.05696 0.76432 0.94103 0.0
H417 H 0.01301 0.85779 0.96847 0.0
H418 H 0.99794 0.74154 0.86623 0.0
H419 H 0.0378 0.75648 0.84994 0.0
H420 H 0.03765 0.73125 0.88881 0.0
H421 H 0.97342 0.88189 0.93103 0.0
H422 H 0.98019 0.87206 0.88204 0.0
H423 H 0.94554 0.85372 0.9054 0.0
H424 H 0.97672 0.8473 0.77854 0.0
H425 H 0.89256 0.80463 0.83382 0.0
H426 H 0.04486 0.81084 0.83303 0.0
H427 H 0.03261 0.85216 0.84245 0.0
H428 H 0.03512 0.83566 0.7949 0.0
H429 H 0.94587 0.76017 0.89826 0.0
H430 H 0.90286 0.76746 0.88163 0.0
H431 H 0.92377 0.79649 0.91358 0.0
C432 C 0.85057 0.07124 0.91791 0.0
C433 C 0.88134 0.08524 0.93166 0.0
C434 C 0.85076 0.04341 0.89351 0.0
C435 C 0.88247 0.02924 0.88249 0.0
C436 C 0.91363 0.04395 0.89502 0.0
C437 C 0.9127 0.07178 0.91945 0.0
C438 C 0.81699 0.02847 0.88068 0.0
C439 C 0.94796 0.02961 0.88377 0.0
C440 C 0.88367 0.93914 0.85709 0.0
C441 C 0.88449 0.93792 0.81795 0.0
C442 C 0.88299 0.9687 0.87833 0.0
C443 C 0.883 0.99783 0.86001 0.0
C444 C 0.88349 0.99684 0.82051 0.0
C445 C 0.88422 0.96686 0.79992 0.0
C446 C 0.8823 0.96871 0.92041 0.0
C447 C 0.88353 0.02743 0.80005 0.0
H448 H 0.8262 0.08152 0.92698 0.0
H449 H 0.93662 0.08251 0.92968 0.0
H450 H 0.81649 0.02436 0.84983 0.0
H451 H 0.81402 0.0046 0.89245 0.0
H452 H 0.79468 0.04376 0.88945 0.0
H453 H 0.96976 0.04528 0.89357 0.0
H454 H 0.95097 0.00579 0.89566 0.0
H455 H 0.94937 0.02553 0.85295 0.0
H456 H 0.8833 0.91687 0.87119 0.0
H457 H 0.88518 0.96607 0.7697 0.0
H458 H 0.85898 0.98136 0.93133 0.0
H459 H 0.90486 0.98203 0.93255 0.0
H460 H 0.8825 0.94394 0.9303 0.0
H461 H 0.86068 0.04221 0.80798 0.0
H462 H 0.88348 0.02251 0.76924 0.0
H463 H 0.90653 0.04208 0.80819 0.0
C464 C 0.43919 0.35201 0.45611 0.0
C465 C 0.4278 0.3247 0.4733 0.0
C466 C 0.45869 0.3491 0.42351 0.0
C467 C 0.46726 0.31801 0.40777 0.0
C468 C 0.45386 0.29027 0.42351 0.0
C469 C 0.43406 0.29395 0.45621 0.0
C470 C 0.47197 0.37938 0.40739 0.0
C471 C 0.46219 0.25678 0.4073 0.0
C472 C 0.50972 0.32365 0.31394 0.0
C473 C 0.54407 0.32779 0.32507 0.0
C474 C 0.48429 0.31739 0.34013 0.0
C475 C 0.49369 0.31526 0.37807 0.0
C476 C 0.52879 0.31647 0.38858 0.0
C477 C 0.55354 0.32283 0.36194 0.0
C478 C 0.4472 0.31588 0.32778 0.0
C479 C 0.54 0.31397 0.42864 0.0
H480 H 0.43375 0.37585 0.4689 0.0
H481 H 0.4251 0.2728 0.4694 0.0
H482 H 0.50024 0.38089 0.41123 0.0
H483 H 0.46658 0.37879 0.37698 0.0
H484 H 0.46032 0.40158 0.42091 0.0
H485 H 0.44469 0.23839 0.41792 0.0
H486 H 0.46061 0.25549 0.37637 0.0
H487 H 0.4889 0.2506 0.41504 0.0
H488 H 0.50242 0.32741 0.28536 0.0
H489 H 0.58025 0.32551 0.37034 0.0
H490 H 0.4346 0.33926 0.33576 0.0
H491 H 0.43317 0.29683 0.34172 0.0
H492 H 0.44474 0.31117 0.29704 0.0
H493 H 0.53242 0.33623 0.44541 0.0
H494 H 0.56825 0.31099 0.43125 0.0
H495 H 0.52717 0.29333 0.44086 0.0
C496 C 0.17638 0.92522 0.99251 0.0
C497 C 0.14364 0.91142 0.98731 0.0
C498 C 0.18641 0.95173 0.97301 0.0
C499 C 0.16326 0.96458 0.9474 0.0
C500 C 0.13101 0.94959 0.94027 0.0
C501 C 0.12151 0.9232 0.96042 0.0
C502 C 0.22096 0.96714 0.98152 0.0
C503 C 0.10584 0.96243 0.91277 0.0
C504 C 0.1683 0.05429 0.93567 0.0
C505 C 0.18601 0.05526 0.90193 0.0
C506 C 0.16095 0.02489 0.95077 0.0
C507 C 0.17125 0.99573 0.93138 0.0
C508 C 0.18937 0.99654 0.89735 0.0
C509 C 0.19681 0.02644 0.88311 0.0
C510 C 0.14211 0.02509 0.98747 0.0
C511 C 0.20042 0.96587 0.87582 0.0
H512 H 0.19383 0.91613 0.01297 0.0
H513 H 0.09632 0.91247 0.9559 0.0
H514 H 0.23488 0.97101 0.95533 0.0
H515 H 0.21722 0.99116 0.99641 0.0
H516 H 0.23729 0.95232 0.9992 0.0
H517 H 0.08377 0.94583 0.90708 0.0
H518 H 0.09579 0.98608 0.92405 0.0
H519 H 0.11877 0.96642 0.88601 0.0
H520 H 0.16028 0.07668 0.95034 0.0
H521 H 0.21031 0.02731 0.85687 0.0
H522 H 0.15772 0.01273 0.00818 0.0
H523 H 0.1176 0.01162 0.98367 0.0
H524 H 0.13632 0.04992 0.99916 0.0
H525 H 0.21723 0.95156 0.89348 0.0
H526 H 0.21443 0.97068 0.84989 0.0
H527 H 0.17758 0.9508 0.86821 0.0
C528 C 0.51569 0.64296 0.42874 0.0
C529 C 0.53896 0.66877 0.43282 0.0
C530 C 0.48324 0.64663 0.41271 0.0
C531 C 0.47356 0.67692 0.40005 0.0
C532 C 0.49731 0.70285 0.40266 0.0
C533 C 0.52979 0.6985 0.41915 0.0
C534 C 0.45894 0.61812 0.41034 0.0
C535 C 0.48811 0.73543 0.38931 0.0
C536 C 0.39542 0.66122 0.33978 0.0
C537 C 0.36994 0.66278 0.36725 0.0
C538 C 0.42941 0.67026 0.34879 0.0
C539 C 0.4378 0.68089 0.38606 0.0
C540 C 0.41112 0.68712 0.41218 0.0
C541 C 0.37741 0.67793 0.40244 0.0
C542 C 0.45691 0.66423 0.31975 0.0
C543 C 0.41871 0.69916 0.45196 0.0
H544 H 0.52261 0.61975 0.43869 0.0
H545 H 0.54762 0.71856 0.42209 0.0
H546 H 0.43565 0.62394 0.42714 0.0
H547 H 0.45053 0.61264 0.38103 0.0
H548 H 0.47081 0.59605 0.42066 0.0
H549 H 0.51133 0.75027 0.38507 0.0
H550 H 0.47324 0.73298 0.36282 0.0
H551 H 0.47181 0.74858 0.41051 0.0
H552 H 0.38973 0.64963 0.31248 0.0
H553 H 0.35757 0.67951 0.42356 0.0
H554 H 0.46934 0.64066 0.32375 0.0
H555 H 0.47707 0.68313 0.32255 0.0
H556 H 0.44605 0.66345 0.29102 0.0
H557 H 0.42886 0.67895 0.46751 0.0
H558 H 0.3953 0.70867 0.4664 0.0
H559 H 0.43852 0.71838 0.45298 0.0
C560 C 0.34351 0.42952 0.69351 0.0
C561 C 0.36215 0.43112 0.66029 0.0
C562 C 0.34191 0.45628 0.71977 0.0
C563 C 0.35883 0.48532 0.71221 0.0
C564 C 0.37783 0.48686 0.67887 0.0
C565 C 0.37944 0.4598 0.65362 0.0
C566 C 0.32184 0.45362 0.75525 0.0
C567 C 0.39619 0.51736 0.66942 0.0
C568 C 0.33753 0.57051 0.74643 0.0
C569 C 0.36732 0.57873 0.76697 0.0
C570 C 0.33207 0.53872 0.73176 0.0
C571 C 0.35688 0.51473 0.73823 0.0
C572 C 0.38449 0.52217 0.76318 0.0
C573 C 0.3896 0.55423 0.77698 0.0
C574 C 0.30223 0.53193 0.7054 0.0
C575 C 0.41102 0.49719 0.77166 0.0
H576 H 0.33014 0.40745 0.69894 0.0
H577 H 0.39386 0.46146 0.62808 0.0
H578 H 0.33744 0.46238 0.77983 0.0
H579 H 0.29866 0.46908 0.75469 0.0
H580 H 0.31357 0.42844 0.75898 0.0
H581 H 0.40945 0.51461 0.64207 0.0
H582 H 0.37758 0.53752 0.66854 0.0
H583 H 0.41554 0.52429 0.6913 0.0
H584 H 0.32035 0.58947 0.73853 0.0
H585 H 0.41254 0.56059 0.7931 0.0
H586 H 0.29073 0.50801 0.70947 0.0
H587 H 0.31152 0.53159 0.6762 0.0
H588 H 0.28196 0.55067 0.70911 0.0
H589 H 0.39884 0.47342 0.77502 0.0
H590 H 0.42587 0.50447 0.79738 0.0
H591 H 0.42927 0.49422 0.74805 0.0
C592 C 0.99354 0.84594 0.12767 0.0
C593 C 0.00834 0.81836 0.10962 0.0
C594 C 0.95914 0.8461 0.13884 0.0
C595 C 0.93909 0.8178 0.1325 0.0
C596 C 0.95478 0.78897 0.11783 0.0
C597 C 0.98921 0.78963 0.10625 0.0
C598 C 0.94356 0.87745 0.15443 0.0
C599 C 0.93464 0.75801 0.1119 0.0
C600 C 0.85068 0.82985 0.17482 0.0
C601 C 0.83303 0.84234 0.14485 0.0
C602 C 0.8846 0.81859 0.17049 0.0
C603 C 0.90107 0.82035 0.13558 0.0
C604 C 0.88206 0.82999 0.10447 0.0
C605 C 0.84821 0.84061 0.10947 0.0
C606 C 0.90359 0.80737 0.20399 0.0
C607 C 0.89842 0.83214 0.06665 0.0
H608 H 0.00819 0.86814 0.13108 0.0
H609 H 1.00052 0.76802 0.09288 0.0
H610 H 0.92484 0.88628 0.13401 0.0
H611 H 0.92941 0.87373 0.18051 0.0
H612 H 0.96321 0.89651 0.16048 0.0
H613 H 0.95183 0.73665 0.10926 0.0
H614 H 0.91655 0.75513 0.13523 0.0
H615 H 0.91928 0.75853 0.08583 0.0
H616 H 0.83895 0.83099 0.2022 0.0
H617 H 0.83428 0.84968 0.08611 0.0
H618 H 0.91965 0.8274 0.21647 0.0
H619 H 0.92091 0.78692 0.19587 0.0
H620 H 0.88558 0.79987 0.22569 0.0
H621 H 0.91779 0.85181 0.06818 0.0
H622 H 0.8793 0.83716 0.04469 0.0
H623 H 0.91194 0.80939 0.05811 0.0
C624 C 0.66696 0.55147 0.55931 0.0
C625 C 0.68929 0.56895 0.53786 0.0
C626 C 0.67849 0.52465 0.5773 0.0
C627 C 0.71311 0.51475 0.57314 0.0
C628 C 0.73624 0.53321 0.55295 0.0
C629 C 0.72406 0.56041 0.53571 0.0
C630 C 0.65312 0.506 0.59921 0.0
C631 C 0.77323 0.52318 0.54772 0.0
C632 C 0.7379 0.45203 0.64 0.0
C633 C 0.72869 0.42364 0.61906 0.0
C634 C 0.73537 0.48209 0.62455 0.0
C635 C 0.72369 0.48349 0.58728 0.0
C636 C 0.71707 0.4546 0.56518 0.0
C637 C 0.71938 0.42498 0.58148 0.0
C638 C 0.74246 0.51235 0.64903 0.0
C639 C 0.70509 0.45507 0.52512 0.0
H640 H 0.64013 0.55836 0.56128 0.0
H641 H 0.74128 0.57389 0.51893 0.0
H642 H 0.64853 0.48195 0.58468 0.0
H643 H 0.66362 0.50201 0.62733 0.0
H644 H 0.62807 0.51862 0.60257 0.0
H645 H 0.78888 0.54235 0.53587 0.0
H646 H 0.78484 0.51707 0.57464 0.0
H647 H 0.77443 0.5012 0.52843 0.0
H648 H 0.74496 0.45093 0.66916 0.0
H649 H 0.71263 0.4029 0.56526 0.0
H650 H 0.71775 0.52409 0.65705 0.0
H651 H 0.75755 0.52984 0.63377 0.0
H652 H 0.75657 0.50714 0.67493 0.0
H653 H 0.67834 0.46422 0.5244 0.0
H654 H 0.7057 0.43068 0.5104 0.0
H655 H 0.72129 0.47156 0.50964 0.0
C656 C 0.96848 0.21942 0.12054 0.0
C657 C 0.95064 0.1905 0.11166 0.0
C658 C 0.99394 0.22136 0.14872 0.0
C659 C 0.00225 0.19353 0.16772 0.0
C660 C 0.98293 0.16491 0.16029 0.0
C661 C 0.95718 0.16391 0.13284 0.0
C662 C 0.01298 0.25271 0.15668 0.0
C663 C 0.9909 0.13449 0.17957 0.0
C664 C 0.09109 0.17122 0.19927 0.0
C665 C 0.08626 0.16994 0.23786 0.0
C666 C 0.06488 0.18193 0.17618 0.0
C667 C 0.03332 0.19241 0.19218 0.0
C668 C 0.03011 0.19533 0.23157 0.0
C669 C 0.05654 0.18373 0.25403 0.0
C670 C 0.06967 0.17852 0.13439 0.0
C671 C 0.99754 0.20785 0.24984 0.0
H672 H 0.96345 0.24023 0.10468 0.0
H673 H 0.94336 0.14151 0.12669 0.0
H674 H 0.0196 0.25659 0.18676 0.0
H675 H 0.03727 0.25207 0.14067 0.0
H676 H 0.99766 0.27357 0.14816 0.0
H677 H 0.97276 0.11456 0.17143 0.0
H678 H 0.01732 0.12626 0.17245 0.0
H679 H 0.98986 0.13928 0.2103 0.0
H680 H 0.1144 0.16133 0.18672 0.0
H681 H 0.05265 0.1831 0.28385 0.0
H682 H 0.06124 0.20071 0.12146 0.0
H683 H 0.05359 0.15829 0.12238 0.0
H684 H 0.09683 0.17358 0.1266 0.0
H685 H 0.98701 0.22836 0.23511 0.0
H686 H 0.00187 0.21577 0.27968 0.0
H687 H 0.97791 0.18843 0.24843 0.0
C688 C 0.18971 0.77808 0.15178 0.0
C689 C 0.15745 0.76919 0.13669 0.0
C690 C 0.2065 0.75907 0.17702 0.0
C691 C 0.19072 0.73039 0.18743 0.0
C692 C 0.15748 0.72201 0.17372 0.0
C693 C 0.14116 0.74159 0.14855 0.0
C694 C 0.24178 0.76898 0.19128 0.0
C695 C 0.13982 0.69162 0.18434 0.0
C696 C 0.2488 0.6623 0.21425 0.0
C697 C 0.24594 0.66459 0.25308 0.0
C698 C 0.23112 0.68381 0.19256 0.0
C699 C 0.2101 0.708 0.21037 0.0
C700 C 0.20773 0.71066 0.24983 0.0
C701 C 0.22571 0.68873 0.2708 0.0
C702 C 0.23441 0.68027 0.15058 0.0
C703 C 0.18575 0.73623 0.26976 0.0
H704 H 0.20232 0.79961 0.14315 0.0
H705 H 0.11622 0.73461 0.13712 0.0
H706 H 0.24284 0.76892 0.22217 0.0
H707 H 0.26109 0.75133 0.18001 0.0
H708 H 0.24919 0.79333 0.18306 0.0
H709 H 0.113 0.68987 0.17371 0.0
H710 H 0.15429 0.67025 0.17279 0.0
H711 H 0.13953 0.6906 0.21514 0.0
H712 H 0.2643 0.64324 0.2008 0.0
H713 H 0.22341 0.69004 0.30097 0.0
H714 H 0.244 0.70309 0.14005 0.0
H715 H 0.20883 0.67536 0.13765 0.0
H716 H 0.25212 0.66043 0.14119 0.0
H717 H 0.19355 0.7605 0.26177 0.0
H718 H 0.18757 0.73569 0.30061 0.0
H719 H 0.15851 0.73272 0.26122 0.0
C720 C 0.75133 0.70335 0.54831 0.0
C721 C 0.71597 0.70996 0.54928 0.0
C722 C 0.77435 0.72056 0.57252 0.0
C723 C 0.76178 0.74521 0.59799 0.0
C724 C 0.72606 0.7515 0.59964 0.0
C725 C 0.70362 0.7337 0.57547 0.0
C726 C 0.81219 0.71285 0.57031 0.0
C727 C 0.7116 0.77776 0.62618 0.0
C728 C 0.81259 0.78149 0.68148 0.0
C729 C 0.82363 0.81049 0.66791 0.0
C730 C 0.79395 0.75896 0.65834 0.0
C731 C 0.78591 0.76609 0.62118 0.0
C732 C 0.79843 0.79489 0.60714 0.0
C733 C 0.81721 0.81674 0.63076 0.0
C734 C 0.78144 0.72835 0.67418 0.0
C735 C 0.79029 0.80358 0.56787 0.0
H736 H 0.76109 0.68482 0.52846 0.0
H737 H 0.67637 0.73897 0.57657 0.0
H738 H 0.82636 0.7337 0.56018 0.0
H739 H 0.82246 0.70859 0.59845 0.0
H740 H 0.81752 0.69128 0.55124 0.0
H741 H 0.68311 0.77877 0.62504 0.0
H742 H 0.71962 0.7739 0.65524 0.0
H743 H 0.72191 0.80152 0.61922 0.0
H744 H 0.81742 0.77698 0.71046 0.0
H745 H 0.82558 0.83946 0.6206 0.0
H746 H 0.78704 0.70718 0.65466 0.0
H747 H 0.75318 0.72952 0.67773 0.0
H748 H 0.79341 0.7245 0.70169 0.0
H749 H 0.79724 0.78343 0.54747 0.0
H750 H 0.80405 0.82566 0.5604 0.0
H751 H 0.76227 0.80772 0.56504 0.0
C752 C 0.76991 0.22839 0.06365 0.0
C753 C 0.80483 0.23614 0.06816 0.0
C754 C 0.74475 0.24489 0.08504 0.0
C755 C 0.75462 0.26991 0.11163 0.0
C756 C 0.78975 0.2781 0.11627 0.0
C757 C 0.81452 0.26102 0.09452 0.0
C758 C 0.70755 0.23525 0.07939 0.0
C759 C 0.80112 0.30474 0.14429 0.0
C760 C 0.68056 0.32504 0.1406 0.0
C761 C 0.66931 0.31091 0.17258 0.0
C762 C 0.70989 0.31326 0.12162 0.0
C763 C 0.72785 0.28665 0.13501 0.0
C764 C 0.71735 0.27351 0.16854 0.0
C765 C 0.68805 0.28586 0.18695 0.0
C766 C 0.72041 0.32801 0.08611 0.0
C767 C 0.73569 0.2451 0.18366 0.0
H768 H 0.76211 0.20914 0.0435 0.0
H769 H 0.84143 0.2672 0.09817 0.0
H770 H 0.69691 0.22717 0.10581 0.0
H771 H 0.69219 0.25632 0.07168 0.0
H772 H 0.70416 0.21549 0.05725 0.0
H773 H 0.82932 0.30875 0.14379 0.0
H774 H 0.78797 0.32759 0.13856 0.0
H775 H 0.79372 0.29878 0.17282 0.0
H776 H 0.66575 0.34444 0.12966 0.0
H777 H 0.67899 0.27505 0.21177 0.0
H778 H 0.71467 0.31085 0.06184 0.0
H779 H 0.74845 0.33269 0.0862 0.0
H780 H 0.70665 0.35096 0.08214 0.0
H781 H 0.73114 0.22326 0.16473 0.0
H782 H 0.72671 0.24011 0.21203 0.0
H783 H 0.7638 0.24938 0.18479 0.0
C784 C 0.30068 0.29266 0.68417 0.0
C785 C 0.33263 0.28716 0.667 0.0
C786 C 0.29007 0.27439 0.71352 0.0
C787 C 0.31189 0.25 0.72587 0.0
C788 C 0.34462 0.24506 0.70956 0.0
C789 C 0.35464 0.26375 0.68039 0.0
C790 C 0.2551 0.28049 0.7305 0.0
C791 C 0.36861 0.21925 0.72202 0.0
C792 C 0.29668 0.21321 0.81842 0.0
C793 C 0.2802 0.18445 0.80643 0.0
C794 C 0.30651 0.23533 0.79254 0.0
C795 C 0.2997 0.22814 0.75406 0.0
C796 C 0.28237 0.19923 0.74216 0.0
C797 C 0.27279 0.17768 0.76865 0.0
C798 C 0.32478 0.26597 0.8062 0.0
C799 C 0.27469 0.19071 0.7014 0.0
H800 H 0.28362 0.31089 0.67426 0.0
H801 H 0.37946 0.25943 0.6675 0.0
H802 H 0.2384 0.25915 0.72418 0.0
H803 H 0.25727 0.28406 0.76133 0.0
H804 H 0.24236 0.30195 0.71974 0.0
H805 H 0.39393 0.21975 0.70798 0.0
H806 H 0.37279 0.22223 0.75265 0.0
H807 H 0.35687 0.19513 0.71576 0.0
H808 H 0.3023 0.21814 0.84788 0.0
H809 H 0.26 0.15523 0.75975 0.0
H810 H 0.31133 0.28724 0.796 0.0
H811 H 0.3512 0.26597 0.79481 0.0
H812 H 0.3264 0.26877 0.83716 0.0
H813 H 0.25972 0.21032 0.68946 0.0
H814 H 0.26 0.16782 0.69698 0.0
H815 H 0.29905 0.18822 0.6856 0.0
C816 C 0.6951 0.69783 0.3629 0.0
C817 C 0.67876 0.71213 0.39462 0.0
C818 C 0.70269 0.71583 0.33226 0.0
C819 C 0.69371 0.74887 0.33339 0.0
C820 C 0.67735 0.76347 0.36532 0.0
C821 C 0.67005 0.74493 0.39552 0.0
C822 C 0.7201 0.69947 0.29861 0.0
C823 C 0.66737 0.79868 0.36752 0.0
C824 C 0.73654 0.80695 0.27097 0.0
C825 C 0.71091 0.8105 0.2442 0.0
C826 C 0.73189 0.78588 0.29949 0.0
C827 C 0.70081 0.76827 0.30102 0.0
C828 C 0.67543 0.77102 0.27298 0.0
C829 C 0.68081 0.79228 0.24483 0.0
C830 C 0.75954 0.78351 0.32884 0.0
C831 C 0.64203 0.75261 0.27362 0.0
H832 H 0.70187 0.67248 0.36189 0.0
H833 H 0.6574 0.75621 0.41984 0.0
H834 H 0.70345 0.70088 0.27358 0.0
H835 H 0.74443 0.7121 0.29294 0.0
H836 H 0.72589 0.67371 0.30239 0.0
H837 H 0.65523 0.80646 0.39457 0.0
H838 H 0.69037 0.81388 0.3638 0.0
H839 H 0.64911 0.80329 0.34465 0.0
H840 H 0.75973 0.82138 0.27025 0.0
H841 H 0.66102 0.79541 0.22398 0.0
H842 H 0.76618 0.75789 0.33214 0.0
H843 H 0.74991 0.79371 0.35617 0.0
H844 H 0.78323 0.79671 0.32193 0.0
H845 H 0.64706 0.72654 0.27598 0.0
H846 H 0.62618 0.75554 0.24824 0.0
H847 H 0.62695 0.76123 0.29846 0.0
C848 C 0.84976 0.25673 0.91119 0.0
C849 C 0.84172 0.22446 0.9165 0.0
C850 C 0.83772 0.27166 0.87964 0.0
C851 C 0.81701 0.25394 0.85292 0.0
C852 C 0.80883 0.22139 0.85809 0.0
C853 C 0.82138 0.20703 0.88967 0.0
C854 C 0.84724 0.30637 0.87483 0.0
C855 C 0.78675 0.20174 0.83029 0.0
C856 C 0.76261 0.3021 0.78815 0.0
C857 C 0.78305 0.30097 0.75626 0.0
C858 C 0.77293 0.28619 0.8197 0.0
C859 C 0.80454 0.26923 0.81909 0.0
C860 C 0.82472 0.26745 0.78632 0.0
C861 C 0.81365 0.28341 0.75522 0.0
C862 C 0.7506 0.28833 0.854 0.0
C863 C 0.85855 0.24966 0.78456 0.0
H864 H 0.86547 0.27036 0.93169 0.0
H865 H 0.8149 0.18208 0.89345 0.0
H866 H 0.86141 0.30813 0.84831 0.0
H867 H 0.82367 0.32118 0.87302 0.0
H868 H 0.86345 0.31682 0.89818 0.0
H869 H 0.78225 0.17685 0.83875 0.0
H870 H 0.76154 0.21372 0.82713 0.0
H871 H 0.79914 0.20024 0.80248 0.0
H872 H 0.73913 0.31616 0.78881 0.0
H873 H 0.82955 0.28308 0.73048 0.0
H874 H 0.76447 0.30153 0.87741 0.0
H875 H 0.74492 0.26381 0.86283 0.0
H876 H 0.72596 0.30092 0.84923 0.0
H877 H 0.87668 0.2611 0.80542 0.0
H878 H 0.87049 0.24958 0.75652 0.0
H879 H 0.85485 0.22432 0.7917 0.0
C880 C 0.26349 0.30552 0.4958 0.0
C881 C 0.2891 0.28881 0.51437 0.0
C882 C 0.24067 0.28919 0.47056 0.0
C883 C 0.24335 0.25532 0.46382 0.0
C884 C 0.26914 0.23834 0.48242 0.0
C885 C 0.29171 0.25526 0.50731 0.0
C886 C 0.21367 0.30817 0.45113 0.0
C887 C 0.27279 0.20219 0.47616 0.0
C888 C 0.16787 0.20376 0.42829 0.0
C889 C 0.17726 0.19613 0.39122 0.0
C890 C 0.18835 0.22428 0.45184 0.0
C891 C 0.21896 0.23731 0.43785 0.0
C892 C 0.22757 0.23079 0.39974 0.0
C893 C 0.20662 0.21006 0.37687 0.0
C894 C 0.17824 0.23054 0.49222 0.0
C895 C 0.25981 0.24434 0.38366 0.0
H896 H 0.26136 0.33146 0.50081 0.0
H897 H 0.31137 0.24209 0.52141 0.0
H898 H 0.21644 0.30425 0.42042 0.0
H899 H 0.18771 0.29956 0.45828 0.0
H900 H 0.21533 0.33446 0.45891 0.0
H901 H 0.29426 0.1926 0.49266 0.0
H902 H 0.24865 0.1902 0.48396 0.0
H903 H 0.27732 0.19551 0.44615 0.0
H904 H 0.14529 0.19252 0.43934 0.0
H905 H 0.21395 0.2037 0.34821 0.0
H906 H 0.17868 0.25679 0.50024 0.0
H907 H 0.19705 0.21891 0.51036 0.0
H908 H 0.15226 0.22101 0.49787 0.0
H909 H 0.26148 0.27072 0.39066 0.0
H910 H 0.26097 0.2398 0.35284 0.0
H911 H 0.28263 0.23313 0.39615 0.0
C912 C 0.17692 0.73911 0.97381 0.0
C913 C 0.18129 0.77236 0.98234 0.0
C914 C 0.19773 0.72231 0.9472 0.0
C915 C 0.2234 0.73918 0.92866 0.0
C916 C 0.22779 0.77273 0.93701 0.0
C917 C 0.20673 0.78887 0.96369 0.0
C918 C 0.19233 0.68655 0.93897 0.0
C919 C 0.25483 0.79165 0.91777 0.0
C920 C 0.30186 0.6993 0.8839 0.0
C921 C 0.29361 0.70011 0.84606 0.0
C922 C 0.27825 0.71009 0.9114 0.0
C923 C 0.24593 0.7221 0.90046 0.0
C924 C 0.23691 0.72112 0.86209 0.0
C925 C 0.26104 0.71018 0.83525 0.0
C926 C 0.2888 0.71063 0.95197 0.0
C927 C 0.20273 0.73363 0.84929 0.0
H928 H 0.15732 0.72612 0.98801 0.0
H929 H 0.21026 0.81456 0.96991 0.0
H930 H 0.18634 0.68141 0.90891 0.0
H931 H 0.21626 0.67332 0.94499 0.0
H932 H 0.17116 0.67699 0.95568 0.0
H933 H 0.25484 0.81764 0.92736 0.0
H934 H 0.28064 0.78158 0.9231 0.0
H935 H 0.25048 0.78954 0.88713 0.0
H936 H 0.32733 0.69171 0.89198 0.0
H937 H 0.25503 0.71099 0.80578 0.0
H938 H 0.2682 0.70035 0.9688 0.0
H939 H 0.29287 0.73596 0.96296 0.0
H940 H 0.31288 0.69693 0.95602 0.0
H941 H 0.18148 0.72358 0.8654 0.0
H942 H 0.19806 0.72757 0.81907 0.0
H943 H 0.20199 0.76026 0.85444 0.0
loop_
_geom_bond_atom_site_label_1
_geom_bond_atom_site_label_2
_geom_bond_distance
_geom_bond_site_symmetry_2
_ccdc_geom_bond_type
Fe0 O2 1.918 . S
Fe0 O5 1.997 . S
Fe0 O6 2.002 . S
Fe0 O11 1.976 . S
Fe0 O14 1.996 . S
Fe1 O2 1.918 . S
Fe1 O9 1.997 . S
Fe1 O12 1.996 . S
Fe1 O16 1.976 1_554 S
Fe1 O19 2.002 . S
O2 Fe0 1.918 . S
O2 Fe1 1.918 . S
O2 Fe3 1.918 . S
Fe3 O2 1.918 . S
Fe3 O4 2.002 . S
Fe3 O13 1.976 . S
Fe3 O17 1.996 1_554 S
Fe3 O20 1.997 . S
O4 Fe3 2.002 . S
O4 C21 1.295 . S
O5 Fe0 1.997 . S
O5 C21 1.235 . S
O6 Fe0 2.002 . S
O6 C7 1.295 . S
C7 O6 1.295 . S
C7 O9 1.235 . S
C8 O13 1.287 . S
C8 O14 1.255 . S
O9 Fe1 1.997 . S
O9 C7 1.235 . S
C10 O16 1.287 . S
C10 O17 1.255 . S
O11 Fe0 1.976 . S
O11 C18 1.287 . S
O12 Fe1 1.996 . S
O12 C18 1.255 . S
O13 Fe3 1.976 . S
O13 C8 1.287 . S
O14 Fe0 1.996 . S
O14 C8 1.255 . S
C15 O19 1.295 . S
C15 O20 1.235 . S
O16 Fe1 1.976 1_556 S
O16 C10 1.287 . S
O17 Fe3 1.996 1_556 S
O17 C10 1.255 . S
C18 O11 1.287 . S
C18 O12 1.255 . S
O19 Fe1 2.002 . S
O19 C15 1.295 . S
O20 Fe3 1.997 . S
O20 C15 1.235 . S
C21 O4 1.295 . S
C21 O5 1.235 . S
Fe22 O24 1.918 . S
Fe22 O27 1.997 . S
Fe22 O28 2.002 . S
Fe22 O33 1.976 . S
Fe22 O36 1.996 . S
Fe23 O24 1.918 . S
Fe23 O31 1.997 . S
Fe23 O34 1.996 . S
Fe23 O38 1.976 . S
Fe23 O41 2.002 . S
O24 Fe22 1.918 . S
O24 Fe23 1.918 . S
O24 Fe25 1.918 . S
Fe25 O24 1.918 . S
Fe25 O26 2.002 . S
Fe25 O35 1.976 . S
Fe25 O39 1.996 . S
Fe25 O42 1.997 . S
O26 Fe25 2.002 . S
O26 C43 1.295 . S
O27 Fe22 1.997 . S
O27 C43 1.235 . S
O28 Fe22 2.002 . S
O28 C29 1.295 . S
C29 O28 1.295 . S
C29 O31 1.235 . S
C30 O35 1.287 . S
C30 O36 1.255 . S
O31 Fe23 1.997 . S
O31 C29 1.235 . S
C32 O38 1.287 . S
C32 O39 1.255 . S
O33 Fe22 1.976 . S
O33 C40 1.287 . S
O34 Fe23 1.996 . S
O34 C40 1.255 . S
O35 Fe25 1.976 . S
O35 C30 1.287 . S
O36 Fe22 1.996 . S
O36 C30 1.255 . S
C37 O41 1.295 . S
C37 O42 1.235 . S
O38 Fe23 1.976 . S
O38 C32 1.287 . S
O39 Fe25 1.996 . S
O39 C32 1.255 . S
C40 O33 1.287 . S
C40 O34 1.255 . S
O41 Fe23 2.002 . S
O41 C37 1.295 . S
O42 Fe25 1.997 . S
O42 C37 1.235 . S
C43 O26 1.295 . S
C43 O27 1.235 . S
Fe44 O46 1.918 . S
Fe44 O49 1.997 1_554 S
Fe44 O50 2.002 1_554 S
Fe44 O55 1.976 . S
Fe44 O58 1.996 . S
Fe45 O46 1.918 . S
Fe45 O53 1.997 1_554 S
Fe45 O56 1.996 . S
Fe45 O60 1.976 . S
Fe45 O63 2.002 1_554 S
O46 Fe44 1.918 . S
O46 Fe45 1.918 . S
O46 Fe47 1.918 1_554 S
Fe47 O46 1.918 1_556 S
Fe47 O48 2.002 . S
Fe47 O57 1.976 1_556 S
Fe47 O61 1.996 1_556 S
Fe47 O64 1.997 . S
O48 Fe47 2.002 . S
O48 C65 1.295 . S
O49 Fe44 1.997 1_556 S
O49 C65 1.235 . S
O50 Fe44 2.002 1_556 S
O50 C51 1.295 . S
C51 O50 1.295 . S
C51 O53 1.235 . S
C52 O57 1.287 . S
C52 O58 1.255 . S
O53 Fe45 1.997 1_556 S
O53 C51 1.235 . S
C54 O60 1.287 . S
C54 O61 1.255 . S
O55 Fe44 1.976 . S
O55 C62 1.287 . S
O56 Fe45 1.996 . S
O56 C62 1.255 . S
O57 Fe47 1.976 1_554 S
O57 C52 1.287 . S
O58 Fe44 1.996 . S
O58 C52 1.255 . S
C59 O63 1.295 . S
C59 O64 1.235 . S
O60 Fe45 1.976 . S
O60 C54 1.287 . S
O61 Fe47 1.996 1_554 S
O61 C54 1.255 . S
C62 O55 1.287 . S
C62 O56 1.255 . S
O63 Fe45 2.002 1_556 S
O63 C59 1.295 . S
O64 Fe47 1.997 . S
O64 C59 1.235 . S
C65 O48 1.295 . S
C65 O49 1.235 . S
Fe66 O68 1.918 . S
Fe66 O71 1.997 . S
Fe66 O72 2.002 . S
Fe66 O77 1.976 . S
Fe66 O80 1.996 . S
Fe67 O68 1.918 . S
Fe67 O75 1.997 . S
Fe67 O78 1.996 . S
Fe67 O82 1.976 . S
Fe67 O85 2.002 . S
O68 Fe66 1.918 . S
O68 Fe67 1.918 . S
O68 Fe69 1.918 . S
Fe69 O68 1.918 . S
Fe69 O70 2.002 . S
Fe69 O79 1.976 . S
Fe69 O83 1.996 . S
Fe69 O86 1.997 . S
O70 Fe69 2.002 . S
O70 C87 1.295 . S
O71 Fe66 1.997 . S
O71 C87 1.235 . S
O72 Fe66 2.002 . S
O72 C73 1.295 . S
C73 O72 1.295 . S
C73 O75 1.235 . S
C74 O79 1.287 . S
C74 O80 1.255 . S
O75 Fe67 1.997 . S
O75 C73 1.235 . S
C76 O82 1.287 . S
C76 O83 1.255 . S
O77 Fe66 1.976 . S
O77 C84 1.287 . S
O78 Fe67 1.996 . S
O78 C84 1.255 . S
O79 Fe69 1.976 . S
O79 C74 1.287 . S
O80 Fe66 1.996 . S
O80 C74 1.255 . S
C81 O85 1.295 . S
C81 O86 1.235 . S
O82 Fe67 1.976 . S
O82 C76 1.287 . S
O83 Fe69 1.996 . S
O83 C76 1.255 . S
C84 O77 1.287 . S
C84 O78 1.255 . S
O85 Fe67 2.002 . S
O85 C81 1.295 . S
O86 Fe69 1.997 . S
O86 C81 1.235 . S
C87 O70 1.295 . S
C87 O71 1.235 . S
H88 C91 0.929 . S
H89 C94 0.929 . S
H90 C96 0.930 . S
C91 H88 0.929 . S
C91 C92 1.398 . S
C91 C93 1.396 . S
C92 C91 1.398 . S
C92 C96 1.407 . S
C93 C91 1.396 . S
C93 C94 1.394 . S
C94 H89 0.929 . S
C94 C93 1.394 . S
C94 C95 1.382 . S
C95 C94 1.382 . S
C95 C96 1.392 . S
C95 N97 1.420 . S
C96 H90 0.930 . S
C96 C92 1.407 . S
C96 C95 1.392 . S
N97 C95 1.420 . S
N97 C98 1.244 . S
C98 N97 1.244 . S
H99 C102 0.929 . S
H100 C105 0.929 . S
H101 C107 0.930 . S
C102 H99 0.929 . S
C102 C103 1.398 . S
C102 C104 1.396 . S
C103 C102 1.398 . S
C103 C107 1.407 . S
C104 C102 1.396 . S
C104 C105 1.394 . S
C105 H100 0.929 . S
C105 C104 1.394 . S
C105 C106 1.382 . S
C106 C105 1.382 . S
C106 C107 1.392 . S
C106 N108 1.420 . S
C107 H101 0.930 . S
C107 C103 1.407 . S
C107 C106 1.392 . S
N108 C106 1.420 . S
N108 C109 1.244 . S
C109 N108 1.244 . S
H110 C113 0.929 . S
H111 C116 0.929 . S
H112 C118 0.930 . S
C113 H110 0.929 . S
C113 C114 1.398 . S
C113 C115 1.396 . S
C114 C113 1.398 . S
C114 C118 1.407 . S
C115 C113 1.396 . S
C115 C116 1.394 . S
C116 H111 0.929 . S
C116 C115 1.394 . S
C116 C117 1.382 . S
C117 C116 1.382 . S
C117 C118 1.392 . S
C117 N119 1.420 . S
C118 H112 0.930 . S
C118 C114 1.407 . S
C118 C117 1.392 . S
N119 C117 1.420 . S
N119 C120 1.244 . S
C120 N119 1.244 . S
H121 C124 0.929 . S
H122 C127 0.929 . S
H123 C129 0.930 . S
C124 H121 0.929 . S
C124 C125 1.398 . S
C124 C126 1.396 . S
C125 C124 1.398 . S
C125 C129 1.407 . S
C126 C124 1.396 . S
C126 C127 1.394 . S
C127 H122 0.929 . S
C127 C126 1.394 . S
C127 C128 1.382 . S
C128 C127 1.382 . S
C128 C129 1.392 . S
C128 N130 1.420 . S
C129 H123 0.930 . S
C129 C125 1.407 . S
C129 C128 1.392 . S
N130 C128 1.420 . S
N130 C131 1.244 . S
C131 N130 1.244 . S
H132 C135 0.929 . S
H133 C138 0.929 . S
H134 C140 0.930 . S
C135 H132 0.929 . S
C135 C136 1.398 . S
C135 C137 1.396 . S
C136 C135 1.398 . S
C136 C140 1.407 . S
C137 C135 1.396 . S
C137 C138 1.394 . S
C138 H133 0.929 . S
C138 C137 1.394 . S
C138 C139 1.382 . S
C139 C138 1.382 . S
C139 C140 1.392 . S
C139 N141 1.420 . S
C140 H134 0.930 . S
C140 C136 1.407 . S
C140 C139 1.392 . S
N141 C139 1.420 . S
N141 C142 1.244 . S
C142 N141 1.244 . S
H143 C146 0.929 . S
H144 C149 0.929 . S
H145 C151 0.930 . S
C146 H143 0.929 . S
C146 C147 1.398 . S
C146 C148 1.396 . S
C147 C146 1.398 . S
C147 C151 1.407 . S
C148 C146 1.396 . S
C148 C149 1.394 . S
C149 H144 0.929 . S
C149 C148 1.394 . S
C149 C150 1.382 . S
C150 C149 1.382 . S
C150 C151 1.392 . S
C150 N152 1.420 . S
C151 H145 0.930 . S
C151 C147 1.407 . S
C151 C150 1.392 . S
N152 C150 1.420 . S
N152 C153 1.244 . S
C153 N152 1.244 . S
H154 C157 0.929 . S
H155 C160 0.929 . S
H156 C162 0.930 . S
C157 H154 0.929 . S
C157 C158 1.398 . S
C157 C159 1.396 . S
C158 C157 1.398 . S
C158 C162 1.407 . S
C159 C157 1.396 . S
C159 C160 1.394 . S
C160 H155 0.929 . S
C160 C159 1.394 . S
C160 C161 1.382 . S
C161 C160 1.382 . S
C161 C162 1.392 . S
C161 N163 1.420 . S
C162 H156 0.930 . S
C162 C158 1.407 . S
C162 C161 1.392 . S
N163 C161 1.420 . S
N163 C164 1.244 . S
C164 N163 1.244 . S
H165 C168 0.929 . S
H166 C171 0.929 . S
H167 C173 0.930 . S
C168 H165 0.929 . S
C168 C169 1.398 . S
C168 C170 1.396 . S
C169 C168 1.398 . S
C169 C173 1.407 . S
C170 C168 1.396 . S
C170 C171 1.394 . S
C171 H166 0.929 . S
C171 C170 1.394 . S
C171 C172 1.382 . S
C172 C171 1.382 . S
C172 C173 1.392 . S
C172 N174 1.420 . S
C173 H167 0.930 . S
C173 C169 1.407 . S
C173 C172 1.392 . S
N174 C172 1.420 . S
N174 C175 1.244 . S
C175 N174 1.244 . S
C176 C177 1.391 . S
C176 C178 1.394 . S
C176 H192 0.931 . S
C177 C176 1.391 . S
C177 C181 1.376 . S
C178 C176 1.394 . S
C178 C179 1.369 . S
C178 C182 1.531 . S
C179 C178 1.369 . S
C179 C180 1.410 . S
C179 C187 1.503 1_565 S
C180 C179 1.410 . S
C180 C181 1.392 . S
C180 C183 1.511 1_565 S
C181 C177 1.376 . S
C181 C180 1.392 . S
C181 H193 0.929 . S
C182 C178 1.531 . S
C182 H194 0.960 . S
C182 H195 0.962 . S
C182 H196 0.960 . S
C183 C180 1.511 1_545 S
C183 H197 0.961 . S
C183 H198 0.961 . S
C183 H199 0.961 . S
C184 C185 1.370 . S
C184 C186 1.363 . S
C184 H200 0.931 . S
C185 C184 1.370 . S
C185 C189 1.408 . S
C186 C184 1.363 . S
C186 C187 1.370 . S
C186 C190 1.524 . S
C187 C179 1.503 1_545 S
C187 C186 1.370 . S
C187 C188 1.403 . S
C188 C187 1.403 . S
C188 C189 1.404 . S
C188 C191 1.539 . S
C189 C185 1.408 . S
C189 C188 1.404 . S
C189 H201 0.930 . S
C190 C186 1.524 . S
C190 H202 0.956 . S
C190 H203 0.961 . S
C190 H204 0.961 . S
C191 C188 1.539 . S
C191 H205 0.958 1_545 S
C191 H206 0.961 . S
C191 H207 0.960 1_545 S
H192 C176 0.931 . S
H193 C181 0.929 . S
H194 C182 0.960 . S
H195 C182 0.962 . S
H196 C182 0.960 . S
H197 C183 0.961 . S
H198 C183 0.961 . S
H199 C183 0.961 . S
H200 C184 0.931 . S
H201 C189 0.930 . S
H202 C190 0.956 . S
H203 C190 0.961 . S
H204 C190 0.961 . S
H205 C191 0.958 1_565 S
H206 C191 0.961 . S
H207 C191 0.960 1_565 S
C208 C209 1.391 . S
C208 C210 1.394 . S
C208 H224 0.931 . S
C209 C208 1.391 . S
C209 C213 1.376 . S
C210 C208 1.394 . S
C210 C211 1.369 . S
C210 C214 1.531 . S
C211 C210 1.369 . S
C211 C212 1.410 . S
C211 C219 1.503 . S
C212 C211 1.410 . S
C212 C213 1.392 . S
C212 C215 1.511 . S
C213 C209 1.376 . S
C213 C212 1.392 . S
C213 H225 0.929 . S
C214 C210 1.531 . S
C214 H226 0.960 . S
C214 H227 0.962 . S
C214 H228 0.960 . S
C215 C212 1.511 . S
C215 H229 0.961 . S
C215 H230 0.961 . S
C215 H231 0.961 . S
C216 C217 1.370 . S
C216 C218 1.363 . S
C216 H232 0.931 . S
C217 C216 1.370 . S
C217 C221 1.408 . S
C218 C216 1.363 . S
C218 C219 1.370 . S
C218 C222 1.524 . S
C219 C211 1.503 . S
C219 C218 1.370 . S
C219 C220 1.403 . S
C220 C219 1.403 . S
C220 C221 1.404 . S
C220 C223 1.539 . S
C221 C217 1.408 . S
C221 C220 1.404 . S
C221 H233 0.930 . S
C222 C218 1.524 . S
C222 H234 0.956 . S
C222 H235 0.961 . S
C222 H236 0.961 . S
C223 C220 1.539 . S
C223 H237 0.958 . S
C223 H238 0.961 . S
C223 H239 0.960 . S
H224 C208 0.931 . S
H225 C213 0.929 . S
H226 C214 0.960 . S
H227 C214 0.962 . S
H228 C214 0.960 . S
H229 C215 0.961 . S
H230 C215 0.961 . S
H231 C215 0.961 . S
H232 C216 0.931 . S
H233 C221 0.930 . S
H234 C222 0.956 . S
H235 C222 0.961 . S
H236 C222 0.961 . S
H237 C223 0.958 . S
H238 C223 0.961 . S
H239 C223 0.960 . S
C240 C241 1.391 . S
C240 C242 1.394 . S
C240 H256 0.931 . S
C241 C240 1.391 . S
C241 C245 1.376 . S
C242 C240 1.394 . S
C242 C243 1.366 1_545 S
C242 C246 1.543 . S
C243 C242 1.366 1_565 S
C243 C244 1.407 1_565 S
C243 C251 1.509 . S
C244 C243 1.407 1_545 S
C244 C245 1.392 . S
C244 C247 1.511 1_545 S
C245 C241 1.376 . S
C245 C244 1.392 . S
C245 H257 0.929 . S
C246 C242 1.543 . S
C246 H258 0.946 1_545 S
C246 H259 0.942 1_545 S
C246 H260 0.983 . S
C247 C244 1.511 1_565 S
C247 H261 0.961 1_565 S
C247 H262 0.961 . S
C247 H263 0.961 1_565 S
C248 C249 1.370 . S
C248 C250 1.363 . S
C248 H264 0.931 . S
C249 C248 1.370 . S
C249 C253 1.408 . S
C250 C248 1.363 . S
C250 C251 1.370 . S
C250 C254 1.524 . S
C251 C243 1.509 . S
C251 C250 1.370 . S
C251 C252 1.403 . S
C252 C251 1.403 . S
C252 C253 1.404 . S
C252 C255 1.537 . S
C253 C249 1.408 . S
C253 C252 1.404 . S
C253 H265 0.930 . S
C254 C250 1.524 . S
C254 H266 0.956 . S
C254 H267 0.961 . S
C254 H268 0.961 . S
C255 C252 1.537 . S
C255 H269 0.959 1_565 S
C255 H270 0.961 . S
C255 H271 0.961 1_565 S
H256 C240 0.931 . S
H257 C245 0.929 . S
H258 C246 0.946 1_565 S
H259 C246 0.942 1_565 S
H260 C246 0.983 . S
H261 C247 0.961 1_545 S
H262 C247 0.961 . S
H263 C247 0.961 1_545 S
H264 C248 0.931 . S
H265 C253 0.930 . S
H266 C254 0.956 . S
H267 C254 0.961 . S
H268 C254 0.961 . S
H269 C255 0.959 1_545 S
H270 C255 0.961 . S
H271 C255 0.961 1_545 S
C272 C273 1.391 . S
C272 C274 1.394 . S
C272 H288 0.931 . S
C273 C272 1.391 . S
C273 C277 1.376 . S
C274 C272 1.394 . S
C274 C275 1.369 . S
C274 C278 1.531 . S
C275 C274 1.369 . S
C275 C276 1.410 . S
C275 C283 1.503 . S
C276 C275 1.410 . S
C276 C277 1.392 . S
C276 C279 1.511 . S
C277 C273 1.376 . S
C277 C276 1.392 . S
C277 H289 0.929 . S
C278 C274 1.531 . S
C278 H290 0.960 . S
C278 H291 0.962 . S
C278 H292 0.960 . S
C279 C276 1.511 . S
C279 H293 0.961 . S
C279 H294 0.961 . S
C279 H295 0.961 . S
C280 C281 1.370 . S
C280 C282 1.363 . S
C280 H296 0.931 . S
C281 C280 1.370 . S
C281 C285 1.408 . S
C282 C280 1.363 . S
C282 C283 1.370 . S
C282 C286 1.524 . S
C283 C275 1.503 . S
C283 C282 1.370 . S
C283 C284 1.403 . S
C284 C283 1.403 . S
C284 C285 1.404 . S
C284 C287 1.539 . S
C285 C281 1.408 . S
C285 C284 1.404 . S
C285 H297 0.930 . S
C286 C282 1.524 . S
C286 H298 0.956 . S
C286 H299 0.961 . S
C286 H300 0.961 . S
C287 C284 1.539 . S
C287 H301 0.958 . S
C287 H302 0.961 . S
C287 H303 0.960 . S
H288 C272 0.931 . S
H289 C277 0.929 . S
H290 C278 0.960 . S
H291 C278 0.962 . S
H292 C278 0.960 . S
H293 C279 0.961 . S
H294 C279 0.961 . S
H295 C279 0.961 . S
H296 C280 0.931 . S
H297 C285 0.930 . S
H298 C286 0.956 . S
H299 C286 0.961 . S
H300 C286 0.961 . S
H301 C287 0.958 . S
H302 C287 0.961 . S
H303 C287 0.960 . S
C304 C305 1.391 . S
C304 C306 1.394 . S
C304 H320 0.931 . S
C305 C304 1.391 . S
C305 C309 1.376 . S
C306 C304 1.394 . S
C306 C307 1.369 . S
C306 C310 1.531 . S
C307 C306 1.369 . S
C307 C308 1.410 . S
C307 C315 1.503 . S
C308 C307 1.410 . S
C308 C309 1.392 . S
C308 C311 1.511 . S
C309 C305 1.376 . S
C309 C308 1.392 . S
C309 H321 0.929 . S
C310 C306 1.531 . S
C310 H322 0.960 . S
C310 H323 0.962 . S
C310 H324 0.960 . S
C311 C308 1.511 . S
C311 H325 0.961 . S
C311 H326 0.961 . S
C311 H327 0.961 . S
C312 C313 1.370 . S
C312 C314 1.363 . S
C312 H328 0.931 . S
C313 C312 1.370 . S
C313 C317 1.408 . S
C314 C312 1.363 . S
C314 C315 1.370 . S
C314 C318 1.524 . S
C315 C307 1.503 . S
C315 C314 1.370 . S
C315 C316 1.403 . S
C316 C315 1.403 . S
C316 C317 1.404 . S
C316 C319 1.539 . S
C317 C313 1.408 . S
C317 C316 1.404 . S
C317 H329 0.930 . S
C318 C314 1.524 . S
C318 H330 0.956 . S
C318 H331 0.961 . S
C318 H332 0.961 . S
C319 C316 1.539 . S
C319 H333 0.958 . S
C319 H334 0.961 . S
C319 H335 0.960 . S
H320 C304 0.931 . S
H321 C309 0.929 . S
H322 C310 0.960 . S
H323 C310 0.962 . S
H324 C310 0.960 . S
H325 C311 0.961 . S
H326 C311 0.961 . S
H327 C311 0.961 . S
H328 C312 0.931 . S
H329 C317 0.930 . S
H330 C318 0.956 . S
H331 C318 0.961 . S
H332 C318 0.961 . S
H333 C319 0.958 . S
H334 C319 0.961 . S
H335 C319 0.960 . S
C336 C337 1.407 . S
C336 C338 1.368 1_655 S
C336 H352 0.940 . S
C337 C336 1.407 . S
C337 C341 1.376 . S
C338 C336 1.368 1_455 S
C338 C339 1.369 . S
C338 C342 1.531 . S
C339 C338 1.369 . S
C339 C340 1.410 . S
C339 C347 1.503 . S
C340 C339 1.410 . S
C340 C341 1.392 1_455 S
C340 C343 1.511 . S
C341 C337 1.376 . S
C341 C340 1.392 1_655 S
C341 H353 0.929 . S
C342 C338 1.531 . S
C342 H354 0.960 . S
C342 H355 0.962 . S
C342 H356 0.960 . S
C343 C340 1.511 . S
C343 H357 0.961 . S
C343 H358 0.961 . S
C343 H359 0.961 . S
C344 C345 1.370 . S
C344 C346 1.363 . S
C344 H360 0.931 . S
C345 C344 1.370 . S
C345 C349 1.408 . S
C346 C344 1.363 . S
C346 C347 1.370 . S
C346 C350 1.524 . S
C347 C339 1.503 . S
C347 C346 1.370 . S
C347 C348 1.403 . S
C348 C347 1.403 . S
C348 C349 1.404 . S
C348 C351 1.539 . S
C349 C345 1.408 . S
C349 C348 1.404 . S
C349 H361 0.930 . S
C350 C346 1.524 . S
C350 H362 0.956 . S
C350 H363 0.961 . S
C350 H364 0.961 . S
C351 C348 1.539 . S
C351 H365 0.958 . S
C351 H366 0.961 . S
C351 H367 0.960 . S
H352 C336 0.940 . S
H353 C341 0.929 . S
H354 C342 0.960 . S
H355 C342 0.962 . S
H356 C342 0.960 . S
H357 C343 0.961 . S
H358 C343 0.961 . S
H359 C343 0.961 . S
H360 C344 0.931 . S
H361 C349 0.930 . S
H362 C350 0.956 . S
H363 C350 0.961 . S
H364 C350 0.961 . S
H365 C351 0.958 . S
H366 C351 0.961 . S
H367 C351 0.960 . S
C368 C369 1.391 . S
C368 C370 1.394 . S
C368 H384 0.931 . S
C369 C368 1.391 . S
C369 C373 1.376 . S
C370 C368 1.394 . S
C370 C371 1.369 . S
C370 C374 1.531 . S
C371 C370 1.369 . S
C371 C372 1.410 . S
C371 C379 1.503 . S
C372 C371 1.410 . S
C372 C373 1.392 . S
C372 C375 1.511 . S
C373 C369 1.376 . S
C373 C372 1.392 . S
C373 H385 0.929 . S
C374 C370 1.531 . S
C374 H386 0.960 . S
C374 H387 0.962 . S
C374 H388 0.960 . S
C375 C372 1.511 . S
C375 H389 0.961 . S
C375 H390 0.961 . S
C375 H391 0.961 . S
C376 C377 1.370 . S
C376 C378 1.363 . S
C376 H392 0.931 . S
C377 C376 1.370 . S
C377 C381 1.408 . S
C378 C376 1.363 . S
C378 C379 1.370 . S
C378 C382 1.524 . S
C379 C371 1.503 . S
C379 C378 1.370 . S
C379 C380 1.403 . S
C380 C379 1.403 . S
C380 C381 1.404 . S
C380 C383 1.539 . S
C381 C377 1.408 . S
C381 C380 1.404 . S
C381 H393 0.930 . S
C382 C378 1.524 . S
C382 H394 0.956 . S
C382 H395 0.961 . S
C382 H396 0.961 . S
C383 C380 1.539 . S
C383 H397 0.958 . S
C383 H398 0.961 . S
C383 H399 0.960 . S
H384 C368 0.931 . S
H385 C373 0.929 . S
H386 C374 0.960 . S
H387 C374 0.962 . S
H388 C374 0.960 . S
H389 C375 0.961 . S
H390 C375 0.961 . S
H391 C375 0.961 . S
H392 C376 0.931 . S
H393 C381 0.930 . S
H394 C382 0.956 . S
H395 C382 0.961 . S
H396 C382 0.961 . S
H397 C383 0.958 . S
H398 C383 0.961 . S
H399 C383 0.960 . S
C400 C401 1.391 . S
C400 C402 1.394 . S
C400 H416 0.931 . S
C401 C400 1.391 . S
C401 C405 1.376 . S
C402 C400 1.394 . S
C402 C403 1.369 . S
C402 C406 1.531 . S
C403 C402 1.369 . S
C403 C404 1.414 . S
C403 C411 1.503 1_455 S
C404 C403 1.414 . S
C404 C405 1.398 . S
C404 C407 1.501 1_455 S
C405 C401 1.376 . S
C405 C404 1.398 . S
C405 H417 0.929 . S
C406 C402 1.531 . S
C406 H418 0.960 . S
C406 H419 0.962 . S
C406 H420 0.960 . S
C407 C404 1.501 1_655 S
C407 H421 0.961 . S
C407 H422 0.961 . S
C407 H423 0.961 . S
C408 C409 1.370 . S
C408 C410 1.363 . S
C408 H424 0.931 . S
C409 C408 1.370 . S
C409 C413 1.408 . S
C410 C408 1.363 . S
C410 C411 1.370 . S
C410 C414 1.525 1_655 S
C411 C403 1.503 1_655 S
C411 C410 1.370 . S
C411 C412 1.403 . S
C412 C411 1.403 . S
C412 C413 1.404 . S
C412 C415 1.539 . S
C413 C409 1.408 . S
C413 C412 1.404 . S
C413 H425 0.930 . S
C414 C410 1.525 1_455 S
C414 H426 0.955 . S
C414 H427 0.961 1_455 S
C414 H428 0.961 1_455 S
C415 C412 1.539 . S
C415 H429 0.958 1_655 S
C415 H430 0.961 . S
C415 H431 0.960 . S
H416 C400 0.931 . S
H417 C405 0.929 . S
H418 C406 0.960 . S
H419 C406 0.962 . S
H420 C406 0.960 . S
H421 C407 0.961 . S
H422 C407 0.961 . S
H423 C407 0.961 . S
H424 C408 0.931 . S
H425 C413 0.930 . S
H426 C414 0.955 . S
H427 C414 0.961 1_655 S
H428 C414 0.961 1_655 S
H429 C415 0.958 1_455 S
H430 C415 0.961 . S
H431 C415 0.960 . S
C432 C433 1.391 . S
C432 C434 1.394 . S
C432 H448 0.931 . S
C433 C432 1.391 . S
C433 C437 1.376 . S
C434 C432 1.394 . S
C434 C435 1.369 . S
C434 C438 1.531 . S
C435 C434 1.369 . S
C435 C436 1.410 . S
C435 C443 1.503 1_545 S
C436 C435 1.410 . S
C436 C437 1.392 . S
C436 C439 1.511 1_545 S
C437 C433 1.376 . S
C437 C436 1.392 . S
C437 H449 0.929 . S
C438 C434 1.531 . S
C438 H450 0.960 . S
C438 H451 0.962 . S
C438 H452 0.960 . S
C439 C436 1.511 1_565 S
C439 H453 0.961 . S
C439 H454 0.961 . S
C439 H455 0.961 . S
C440 C441 1.370 . S
C440 C442 1.363 . S
C440 H456 0.931 . S
C441 C440 1.370 . S
C441 C445 1.408 . S
C442 C440 1.363 . S
C442 C443 1.370 . S
C442 C446 1.524 . S
C443 C435 1.503 1_565 S
C443 C442 1.370 . S
C443 C444 1.403 . S
C444 C443 1.403 . S
C444 C445 1.404 . S
C444 C447 1.539 . S
C445 C441 1.408 . S
C445 C444 1.404 . S
C445 H457 0.930 . S
C446 C442 1.524 . S
C446 H458 0.956 . S
C446 H459 0.961 . S
C446 H460 0.961 . S
C447 C444 1.539 . S
C447 H461 0.958 1_565 S
C447 H462 0.961 . S
C447 H463 0.960 1_565 S
H448 C432 0.931 . S
H449 C437 0.929 . S
H450 C438 0.960 . S
H451 C438 0.962 . S
H452 C438 0.960 . S
H453 C439 0.961 . S
H454 C439 0.961 . S
H455 C439 0.961 . S
H456 C440 0.931 . S
H457 C445 0.930 . S
H458 C446 0.956 . S
H459 C446 0.961 . S
H460 C446 0.961 . S
H461 C447 0.958 1_545 S
H462 C447 0.961 . S
H463 C447 0.960 1_545 S
C464 C465 1.391 . S
C464 C466 1.394 . S
C464 H480 0.931 . S
C465 C464 1.391 . S
C465 C469 1.376 . S
C466 C464 1.394 . S
C466 C467 1.369 . S
C466 C470 1.531 . S
C467 C466 1.369 . S
C467 C468 1.410 . S
C467 C475 1.503 . S
C468 C467 1.410 . S
C468 C469 1.392 . S
C468 C471 1.511 . S
C469 C465 1.376 . S
C469 C468 1.392 . S
C469 H481 0.929 . S
C470 C466 1.531 . S
C470 H482 0.960 . S
C470 H483 0.962 . S
C470 H484 0.960 . S
C471 C468 1.511 . S
C471 H485 0.961 . S
C471 H486 0.961 . S
C471 H487 0.961 . S
C472 C473 1.370 . S
C472 C474 1.363 . S
C472 H488 0.931 . S
C473 C472 1.370 . S
C473 C477 1.408 . S
C474 C472 1.363 . S
C474 C475 1.370 . S
C474 C478 1.524 . S
C475 C467 1.503 . S
C475 C474 1.370 . S
C475 C476 1.403 . S
C476 C475 1.403 . S
C476 C477 1.404 . S
C476 C479 1.539 . S
C477 C473 1.408 . S
C477 C476 1.404 . S
C477 H489 0.930 . S
C478 C474 1.524 . S
C478 H490 0.956 . S
C478 H491 0.961 . S
C478 H492 0.961 . S
C479 C476 1.539 . S
C479 H493 0.958 . S
C479 H494 0.961 . S
C479 H495 0.960 . S
H480 C464 0.931 . S
H481 C469 0.929 . S
H482 C470 0.960 . S
H483 C470 0.962 . S
H484 C470 0.960 . S
H485 C471 0.961 . S
H486 C471 0.961 . S
H487 C471 0.961 . S
H488 C472 0.931 . S
H489 C477 0.930 . S
H490 C478 0.956 . S
H491 C478 0.961 . S
H492 C478 0.961 . S
H493 C479 0.958 . S
H494 C479 0.961 . S
H495 C479 0.960 . S
C496 C497 1.391 . S
C496 C498 1.394 . S
C496 H512 0.931 . S
C497 C496 1.391 . S
C497 C501 1.376 . S
C498 C496 1.394 . S
C498 C499 1.369 1_565 S
C498 C502 1.531 . S
C499 C498 1.369 1_545 S
C499 C500 1.410 . S
C499 C507 1.503 . S
C500 C499 1.410 . S
C500 C501 1.392 1_545 S
C500 C503 1.511 . S
C501 C497 1.376 . S
C501 C500 1.392 1_565 S
C501 H513 0.929 1_556 S
C502 C498 1.531 . S
C502 H514 0.960 . S
C502 H515 0.962 . S
C502 H516 0.960 . S
C503 C500 1.511 . S
C503 H517 0.961 1_556 S
C503 H518 0.961 . S
C503 H519 0.961 . S
C504 C505 1.370 . S
C504 C506 1.363 . S
C504 H520 0.931 . S
C505 C504 1.370 . S
C505 C509 1.408 . S
C506 C504 1.363 . S
C506 C507 1.370 . S
C506 C510 1.524 . S
C507 C499 1.503 . S
C507 C506 1.370 . S
C507 C508 1.403 . S
C508 C507 1.403 . S
C508 C509 1.404 . S
C508 C511 1.539 . S
C509 C505 1.408 . S
C509 C508 1.404 . S
C509 H521 0.930 . S
C510 C506 1.524 . S
C510 H522 0.956 . S
C510 H523 0.961 1_556 S
C510 H524 0.961 1_556 S
C511 C508 1.539 . S
C511 H525 0.958 . S
C511 H526 0.961 . S
C511 H527 0.960 . S
H512 C496 0.931 . S
H513 C501 0.929 1_554 S
H514 C502 0.960 . S
H515 C502 0.962 . S
H516 C502 0.960 . S
H517 C503 0.961 1_554 S
H518 C503 0.961 . S
H519 C503 0.961 . S
H520 C504 0.931 . S
H521 C509 0.930 . S
H522 C510 0.956 . S
H523 C510 0.961 1_554 S
H524 C510 0.961 1_554 S
H525 C511 0.958 . S
H526 C511 0.961 . S
H527 C511 0.960 . S
C528 C529 1.391 . S
C528 C530 1.394 . S
C528 H544 0.931 . S
C529 C528 1.391 . S
C529 C533 1.376 . S
C530 C528 1.394 . S
C530 C531 1.369 . S
C530 C534 1.531 . S
C531 C530 1.369 . S
C531 C532 1.410 . S
C531 C539 1.503 . S
C532 C531 1.410 . S
C532 C533 1.392 . S
C532 C535 1.511 . S
C533 C529 1.376 . S
C533 C532 1.392 . S
C533 H545 0.929 . S
C534 C530 1.531 . S
C534 H546 0.960 . S
C534 H547 0.962 . S
C534 H548 0.960 . S
C535 C532 1.511 . S
C535 H549 0.961 . S
C535 H550 0.961 . S
C535 H551 0.961 . S
C536 C537 1.370 . S
C536 C538 1.363 . S
C536 H552 0.931 . S
C537 C536 1.370 . S
C537 C541 1.408 . S
C538 C536 1.363 . S
C538 C539 1.370 . S
C538 C542 1.524 . S
C539 C531 1.503 . S
C539 C538 1.370 . S
C539 C540 1.403 . S
C540 C539 1.403 . S
C540 C541 1.404 . S
C540 C543 1.539 . S
C541 C537 1.408 . S
C541 C540 1.404 . S
C541 H553 0.930 . S
C542 C538 1.524 . S
C542 H554 0.956 . S
C542 H555 0.961 . S
C542 H556 0.961 . S
C543 C540 1.539 . S
C543 H557 0.958 . S
C543 H558 0.961 . S
C543 H559 0.960 . S
H544 C528 0.931 . S
H545 C533 0.929 . S
H546 C534 0.960 . S
H547 C534 0.962 . S
H548 C534 0.960 . S
H549 C535 0.961 . S
H550 C535 0.961 . S
H551 C535 0.961 . S
H552 C536 0.931 . S
H553 C541 0.930 . S
H554 C542 0.956 . S
H555 C542 0.961 . S
H556 C542 0.961 . S
H557 C543 0.958 . S
H558 C543 0.961 . S
H559 C543 0.960 . S
C560 C561 1.391 . S
C560 C562 1.394 . S
C560 H576 0.931 . S
C561 C560 1.391 . S
C561 C565 1.376 . S
C562 C560 1.394 . S
C562 C563 1.369 . S
C562 C566 1.531 . S
C563 C562 1.369 . S
C563 C564 1.410 . S
C563 C571 1.503 . S
C564 C563 1.410 . S
C564 C565 1.392 . S
C564 C567 1.511 . S
C565 C561 1.376 . S
C565 C564 1.392 . S
C565 H577 0.929 . S
C566 C562 1.531 . S
C566 H578 0.960 . S
C566 H579 0.962 . S
C566 H580 0.960 . S
C567 C564 1.511 . S
C567 H581 0.961 . S
C567 H582 0.961 . S
C567 H583 0.961 . S
C568 C569 1.370 . S
C568 C570 1.363 . S
C568 H584 0.931 . S
C569 C568 1.370 . S
C569 C573 1.408 . S
C570 C568 1.363 . S
C570 C571 1.370 . S
C570 C574 1.524 . S
C571 C563 1.503 . S
C571 C570 1.370 . S
C571 C572 1.403 . S
C572 C571 1.403 . S
C572 C573 1.404 . S
C572 C575 1.539 . S
C573 C569 1.408 . S
C573 C572 1.404 . S
C573 H585 0.930 . S
C574 C570 1.524 . S
C574 H586 0.956 . S
C574 H587 0.961 . S
C574 H588 0.961 . S
C575 C572 1.539 . S
C575 H589 0.958 . S
C575 H590 0.961 . S
C575 H591 0.960 . S
H576 C560 0.931 . S
H577 C565 0.929 . S
H578 C566 0.960 . S
H579 C566 0.962 . S
H580 C566 0.960 . S
H581 C567 0.961 . S
H582 C567 0.961 . S
H583 C567 0.961 . S
H584 C568 0.931 . S
H585 C573 0.930 . S
H586 C574 0.956 . S
H587 C574 0.961 . S
H588 C574 0.961 . S
H589 C575 0.958 . S
H590 C575 0.961 . S
H591 C575 0.960 . S
C592 C593 1.391 1_655 S
C592 C594 1.394 . S
C592 H608 0.931 1_655 S
C593 C592 1.391 1_455 S
C593 C597 1.376 . S
C594 C592 1.394 . S
C594 C595 1.369 . S
C594 C598 1.531 . S
C595 C594 1.369 . S
C595 C596 1.410 . S
C595 C603 1.503 . S
C596 C595 1.410 . S
C596 C597 1.392 1_655 S
C596 C599 1.511 . S
C597 C593 1.376 . S
C597 C596 1.392 1_455 S
C597 H609 0.929 . S
C598 C594 1.531 . S
C598 H610 0.960 . S
C598 H611 0.962 . S
C598 H612 0.960 . S
C599 C596 1.511 . S
C599 H613 0.961 . S
C599 H614 0.961 . S
C599 H615 0.961 . S
C600 C601 1.370 . S
C600 C602 1.363 . S
C600 H616 0.931 . S
C601 C600 1.370 . S
C601 C605 1.408 . S
C602 C600 1.363 . S
C602 C603 1.370 . S
C602 C606 1.524 . S
C603 C595 1.503 . S
C603 C602 1.370 . S
C603 C604 1.403 . S
C604 C603 1.403 . S
C604 C605 1.404 . S
C604 C607 1.539 . S
C605 C601 1.408 . S
C605 C604 1.404 . S
C605 H617 0.930 . S
C606 C602 1.524 . S
C606 H618 0.956 . S
C606 H619 0.961 . S
C606 H620 0.961 . S
C607 C604 1.539 . S
C607 H621 0.958 . S
C607 H622 0.961 . S
C607 H623 0.960 . S
H608 C592 0.931 1_455 S
H609 C597 0.929 . S
H610 C598 0.960 . S
H611 C598 0.962 . S
H612 C598 0.960 . S
H613 C599 0.961 . S
H614 C599 0.961 . S
H615 C599 0.961 . S
H616 C600 0.931 . S
H617 C605 0.930 . S
H618 C606 0.956 . S
H619 C606 0.961 . S
H620 C606 0.961 . S
H621 C607 0.958 . S
H622 C607 0.961 . S
H623 C607 0.960 . S
C624 C625 1.391 . S
C624 C626 1.394 . S
C624 H640 0.931 . S
C625 C624 1.391 . S
C625 C629 1.376 . S
C626 C624 1.394 . S
C626 C627 1.369 . S
C626 C630 1.531 . S
C627 C626 1.369 . S
C627 C628 1.410 . S
C627 C635 1.503 . S
C628 C627 1.410 . S
C628 C629 1.392 . S
C628 C631 1.511 . S
C629 C625 1.376 . S
C629 C628 1.392 . S
C629 H641 0.929 . S
C630 C626 1.531 . S
C630 H642 0.960 . S
C630 H643 0.962 . S
C630 H644 0.960 . S
C631 C628 1.511 . S
C631 H645 0.961 . S
C631 H646 0.961 . S
C631 H647 0.961 . S
C632 C633 1.370 . S
C632 C634 1.363 . S
C632 H648 0.931 . S
C633 C632 1.370 . S
C633 C637 1.408 . S
C634 C632 1.363 . S
C634 C635 1.370 . S
C634 C638 1.524 . S
C635 C627 1.503 . S
C635 C634 1.370 . S
C635 C636 1.403 . S
C636 C635 1.403 . S
C636 C637 1.404 . S
C636 C639 1.539 . S
C637 C633 1.408 . S
C637 C636 1.404 . S
C637 H649 0.930 . S
C638 C634 1.524 . S
C638 H650 0.956 . S
C638 H651 0.961 . S
C638 H652 0.961 . S
C639 C636 1.539 . S
C639 H653 0.958 . S
C639 H654 0.961 . S
C639 H655 0.960 . S
H640 C624 0.931 . S
H641 C629 0.929 . S
H642 C630 0.960 . S
H643 C630 0.962 . S
H644 C630 0.960 . S
H645 C631 0.961 . S
H646 C631 0.961 . S
H647 C631 0.961 . S
H648 C632 0.931 . S
H649 C637 0.930 . S
H650 C638 0.956 . S
H651 C638 0.961 . S
H652 C638 0.961 . S
H653 C639 0.958 . S
H654 C639 0.961 . S
H655 C639 0.960 . S
C656 C657 1.391 . S
C656 C658 1.394 . S
C656 H672 0.931 . S
C657 C656 1.391 . S
C657 C661 1.376 . S
C658 C656 1.394 . S
C658 C659 1.369 . S
C658 C662 1.531 1_655 S
C659 C658 1.369 . S
C659 C660 1.410 . S
C659 C667 1.503 1_655 S
C660 C659 1.410 . S
C660 C661 1.392 . S
C660 C663 1.511 . S
C661 C657 1.376 . S
C661 C660 1.392 . S
C661 H673 0.929 . S
C662 C658 1.531 1_455 S
C662 H674 0.960 . S
C662 H675 0.962 . S
C662 H676 0.960 . S
C663 C660 1.511 . S
C663 H677 0.961 . S
C663 H678 0.961 . S
C663 H679 0.961 . S
C664 C665 1.370 . S
C664 C666 1.363 . S
C664 H680 0.931 . S
C665 C664 1.370 . S
C665 C669 1.408 . S
C666 C664 1.363 . S
C666 C667 1.370 . S
C666 C670 1.524 . S
C667 C659 1.503 1_455 S
C667 C666 1.370 . S
C667 C668 1.402 1_455 S
C668 C667 1.402 1_655 S
C668 C669 1.401 1_655 S
C668 C671 1.543 . S
C669 C665 1.408 . S
C669 C668 1.401 1_455 S
C669 H681 0.930 . S
C670 C666 1.524 . S
C670 H682 0.956 . S
C670 H683 0.961 . S
C670 H684 0.961 . S
C671 C668 1.543 . S
C671 H685 0.958 . S
C671 H686 0.961 . S
C671 H687 0.960 . S
H672 C656 0.931 . S
H673 C661 0.929 . S
H674 C662 0.960 . S
H675 C662 0.962 . S
H676 C662 0.960 . S
H677 C663 0.961 . S
H678 C663 0.961 . S
H679 C663 0.961 . S
H680 C664 0.931 . S
H681 C669 0.930 . S
H682 C670 0.956 . S
H683 C670 0.961 . S
H684 C670 0.961 . S
H685 C671 0.958 . S
H686 C671 0.961 . S
H687 C671 0.960 . S
C688 C689 1.391 . S
C688 C690 1.394 . S
C688 H704 0.931 . S
C689 C688 1.391 . S
C689 C693 1.376 . S
C690 C688 1.394 . S
C690 C691 1.369 . S
C690 C694 1.531 . S
C691 C690 1.369 . S
C691 C692 1.410 . S
C691 C699 1.503 . S
C692 C691 1.410 . S
C692 C693 1.392 . S
C692 C695 1.511 . S
C693 C689 1.376 . S
C693 C692 1.392 . S
C693 H705 0.929 . S
C694 C690 1.531 . S
C694 H706 0.960 . S
C694 H707 0.962 . S
C694 H708 0.960 . S
C695 C692 1.511 . S
C695 H709 0.961 . S
C695 H710 0.961 . S
C695 H711 0.961 . S
C696 C697 1.370 . S
C696 C698 1.363 . S
C696 H712 0.931 . S
C697 C696 1.370 . S
C697 C701 1.408 . S
C698 C696 1.363 . S
C698 C699 1.370 . S
C698 C702 1.524 . S
C699 C691 1.503 . S
C699 C698 1.370 . S
C699 C700 1.403 . S
C700 C699 1.403 . S
C700 C701 1.404 . S
C700 C703 1.539 . S
C701 C697 1.408 . S
C701 C700 1.404 . S
C701 H713 0.930 . S
C702 C698 1.524 . S
C702 H714 0.956 . S
C702 H715 0.961 . S
C702 H716 0.961 . S
C703 C700 1.539 . S
C703 H717 0.958 . S
C703 H718 0.961 . S
C703 H719 0.960 . S
H704 C688 0.931 . S
H705 C693 0.929 . S
H706 C694 0.960 . S
H707 C694 0.962 . S
H708 C694 0.960 . S
H709 C695 0.961 . S
H710 C695 0.961 . S
H711 C695 0.961 . S
H712 C696 0.931 . S
H713 C701 0.930 . S
H714 C702 0.956 . S
H715 C702 0.961 . S
H716 C702 0.961 . S
H717 C703 0.958 . S
H718 C703 0.961 . S
H719 C703 0.960 . S
C720 C721 1.391 . S
C720 C722 1.394 . S
C720 H736 0.931 . S
C721 C720 1.391 . S
C721 C725 1.376 . S
C722 C720 1.394 . S
C722 C723 1.369 . S
C722 C726 1.531 . S
C723 C722 1.369 . S
C723 C724 1.410 . S
C723 C731 1.503 . S
C724 C723 1.410 . S
C724 C725 1.392 . S
C724 C727 1.511 . S
C725 C721 1.376 . S
C725 C724 1.392 . S
C725 H737 0.929 . S
C726 C722 1.531 . S
C726 H738 0.960 . S
C726 H739 0.962 . S
C726 H740 0.960 . S
C727 C724 1.511 . S
C727 H741 0.961 . S
C727 H742 0.961 . S
C727 H743 0.961 . S
C728 C729 1.370 . S
C728 C730 1.363 . S
C728 H744 0.931 . S
C729 C728 1.370 . S
C729 C733 1.408 . S
C730 C728 1.363 . S
C730 C731 1.370 . S
C730 C734 1.524 . S
C731 C723 1.503 . S
C731 C730 1.370 . S
C731 C732 1.403 . S
C732 C731 1.403 . S
C732 C733 1.404 . S
C732 C735 1.539 . S
C733 C729 1.408 . S
C733 C732 1.404 . S
C733 H745 0.930 . S
C734 C730 1.524 . S
C734 H746 0.956 . S
C734 H747 0.961 . S
C734 H748 0.961 . S
C735 C732 1.539 . S
C735 H749 0.958 . S
C735 H750 0.961 . S
C735 H751 0.960 . S
H736 C720 0.931 . S
H737 C725 0.929 . S
H738 C726 0.960 . S
H739 C726 0.962 . S
H740 C726 0.960 . S
H741 C727 0.961 . S
H742 C727 0.961 . S
H743 C727 0.961 . S
H744 C728 0.931 . S
H745 C733 0.930 . S
H746 C734 0.956 . S
H747 C734 0.961 . S
H748 C734 0.961 . S
H749 C735 0.958 . S
H750 C735 0.961 . S
H751 C735 0.960 . S
C752 C753 1.391 . S
C752 C754 1.394 . S
C752 H768 0.931 . S
C753 C752 1.391 . S
C753 C757 1.376 . S
C754 C752 1.394 . S
C754 C755 1.369 . S
C754 C758 1.531 . S
C755 C754 1.369 . S
C755 C756 1.410 . S
C755 C763 1.503 . S
C756 C755 1.410 . S
C756 C757 1.392 . S
C756 C759 1.511 . S
C757 C753 1.376 . S
C757 C756 1.392 . S
C757 H769 0.929 . S
C758 C754 1.531 . S
C758 H770 0.960 . S
C758 H771 0.962 . S
C758 H772 0.960 . S
C759 C756 1.511 . S
C759 H773 0.961 . S
C759 H774 0.961 . S
C759 H775 0.961 . S
C760 C761 1.370 . S
C760 C762 1.363 . S
C760 H776 0.931 . S
C761 C760 1.370 . S
C761 C765 1.408 . S
C762 C760 1.363 . S
C762 C763 1.370 . S
C762 C766 1.524 . S
C763 C755 1.503 . S
C763 C762 1.370 . S
C763 C764 1.403 . S
C764 C763 1.403 . S
C764 C765 1.404 . S
C764 C767 1.539 . S
C765 C761 1.408 . S
C765 C764 1.404 . S
C765 H777 0.930 . S
C766 C762 1.524 . S
C766 H778 0.956 . S
C766 H779 0.961 . S
C766 H780 0.961 . S
C767 C764 1.539 . S
C767 H781 0.958 . S
C767 H782 0.961 . S
C767 H783 0.960 . S
H768 C752 0.931 . S
H769 C757 0.929 . S
H770 C758 0.960 . S
H771 C758 0.962 . S
H772 C758 0.960 . S
H773 C759 0.961 . S
H774 C759 0.961 . S
H775 C759 0.961 . S
H776 C760 0.931 . S
H777 C765 0.930 . S
H778 C766 0.956 . S
H779 C766 0.961 . S
H780 C766 0.961 . S
H781 C767 0.958 . S
H782 C767 0.961 . S
H783 C767 0.960 . S
C784 C785 1.391 . S
C784 C786 1.394 . S
C784 H800 0.931 . S
C785 C784 1.391 . S
C785 C789 1.376 . S
C786 C784 1.394 . S
C786 C787 1.369 . S
C786 C790 1.531 . S
C787 C786 1.369 . S
C787 C788 1.410 . S
C787 C795 1.503 . S
C788 C787 1.410 . S
C788 C789 1.392 . S
C788 C791 1.511 . S
C789 C785 1.376 . S
C789 C788 1.392 . S
C789 H801 0.929 . S
C790 C786 1.531 . S
C790 H802 0.960 . S
C790 H803 0.962 . S
C790 H804 0.960 . S
C791 C788 1.511 . S
C791 H805 0.961 . S
C791 H806 0.961 . S
C791 H807 0.961 . S
C792 C793 1.370 . S
C792 C794 1.363 . S
C792 H808 0.931 . S
C793 C792 1.370 . S
C793 C797 1.408 . S
C794 C792 1.363 . S
C794 C795 1.370 . S
C794 C798 1.524 . S
C795 C787 1.503 . S
C795 C794 1.370 . S
C795 C796 1.403 . S
C796 C795 1.403 . S
C796 C797 1.404 . S
C796 C799 1.539 . S
C797 C793 1.408 . S
C797 C796 1.404 . S
C797 H809 0.930 . S
C798 C794 1.524 . S
C798 H810 0.956 . S
C798 H811 0.961 . S
C798 H812 0.961 . S
C799 C796 1.539 . S
C799 H813 0.958 . S
C799 H814 0.961 . S
C799 H815 0.960 . S
H800 C784 0.931 . S
H801 C789 0.929 . S
H802 C790 0.960 . S
H803 C790 0.962 . S
H804 C790 0.960 . S
H805 C791 0.961 . S
H806 C791 0.961 . S
H807 C791 0.961 . S
H808 C792 0.931 . S
H809 C797 0.930 . S
H810 C798 0.956 . S
H811 C798 0.961 . S
H812 C798 0.961 . S
H813 C799 0.958 . S
H814 C799 0.961 . S
H815 C799 0.960 . S
C816 C817 1.391 . S
C816 C818 1.394 . S
C816 H832 0.931 . S
C817 C816 1.391 . S
C817 C821 1.376 . S
C818 C816 1.394 . S
C818 C819 1.369 . S
C818 C822 1.531 . S
C819 C818 1.369 . S
C819 C820 1.410 . S
C819 C827 1.503 . S
C820 C819 1.410 . S
C820 C821 1.392 . S
C820 C823 1.511 . S
C821 C817 1.376 . S
C821 C820 1.392 . S
C821 H833 0.929 . S
C822 C818 1.531 . S
C822 H834 0.960 . S
C822 H835 0.962 . S
C822 H836 0.960 . S
C823 C820 1.511 . S
C823 H837 0.961 . S
C823 H838 0.961 . S
C823 H839 0.961 . S
C824 C825 1.370 . S
C824 C826 1.363 . S
C824 H840 0.931 . S
C825 C824 1.370 . S
C825 C829 1.408 . S
C826 C824 1.363 . S
C826 C827 1.370 . S
C826 C830 1.524 . S
C827 C819 1.503 . S
C827 C826 1.370 . S
C827 C828 1.403 . S
C828 C827 1.403 . S
C828 C829 1.404 . S
C828 C831 1.539 . S
C829 C825 1.408 . S
C829 C828 1.404 . S
C829 H841 0.930 . S
C830 C826 1.524 . S
C830 H842 0.956 . S
C830 H843 0.961 . S
C830 H844 0.961 . S
C831 C828 1.539 . S
C831 H845 0.958 . S
C831 H846 0.961 . S
C831 H847 0.960 . S
H832 C816 0.931 . S
H833 C821 0.929 . S
H834 C822 0.960 . S
H835 C822 0.962 . S
H836 C822 0.960 . S
H837 C823 0.961 . S
H838 C823 0.961 . S
H839 C823 0.961 . S
H840 C824 0.931 . S
H841 C829 0.930 . S
H842 C830 0.956 . S
H843 C830 0.961 . S
H844 C830 0.961 . S
H845 C831 0.958 . S
H846 C831 0.961 . S
H847 C831 0.960 . S
C848 C849 1.391 . S
C848 C850 1.394 . S
C848 H864 0.931 . S
C849 C848 1.391 . S
C849 C853 1.376 . S
C850 C848 1.394 . S
C850 C851 1.369 . S
C850 C854 1.531 . S
C851 C850 1.369 . S
C851 C852 1.410 . S
C851 C859 1.503 . S
C852 C851 1.410 . S
C852 C853 1.392 . S
C852 C855 1.511 . S
C853 C849 1.376 . S
C853 C852 1.392 . S
C853 H865 0.929 . S
C854 C850 1.531 . S
C854 H866 0.960 . S
C854 H867 0.962 . S
C854 H868 0.960 . S
C855 C852 1.511 . S
C855 H869 0.961 . S
C855 H870 0.961 . S
C855 H871 0.961 . S
C856 C857 1.370 . S
C856 C858 1.363 . S
C856 H872 0.931 . S
C857 C856 1.370 . S
C857 C861 1.408 . S
C858 C856 1.363 . S
C858 C859 1.370 . S
C858 C862 1.524 . S
C859 C851 1.503 . S
C859 C858 1.370 . S
C859 C860 1.403 . S
C860 C859 1.403 . S
C860 C861 1.404 . S
C860 C863 1.539 . S
C861 C857 1.408 . S
C861 C860 1.404 . S
C861 H873 0.930 . S
C862 C858 1.524 . S
C862 H874 0.956 . S
C862 H875 0.961 . S
C862 H876 0.961 . S
C863 C860 1.539 . S
C863 H877 0.958 . S
C863 H878 0.961 . S
C863 H879 0.960 . S
H864 C848 0.931 . S
H865 C853 0.929 . S
H866 C854 0.960 . S
H867 C854 0.962 . S
H868 C854 0.960 . S
H869 C855 0.961 . S
H870 C855 0.961 . S
H871 C855 0.961 . S
H872 C856 0.931 . S
H873 C861 0.930 . S
H874 C862 0.956 . S
H875 C862 0.961 . S
H876 C862 0.961 . S
H877 C863 0.958 . S
H878 C863 0.961 . S
H879 C863 0.960 . S
C880 C881 1.391 . S
C880 C882 1.394 . S
C880 H896 0.931 . S
C881 C880 1.391 . S
C881 C885 1.376 . S
C882 C880 1.394 . S
C882 C883 1.369 . S
C882 C886 1.531 . S
C883 C882 1.369 . S
C883 C884 1.410 . S
C883 C891 1.503 . S
C884 C883 1.410 . S
C884 C885 1.392 . S
C884 C887 1.511 . S
C885 C881 1.376 . S
C885 C884 1.392 . S
C885 H897 0.929 . S
C886 C882 1.531 . S
C886 H898 0.960 . S
C886 H899 0.962 . S
C886 H900 0.960 . S
C887 C884 1.511 . S
C887 H901 0.961 . S
C887 H902 0.961 . S
C887 H903 0.961 . S
C888 C889 1.370 . S
C888 C890 1.363 . S
C888 H904 0.931 . S
C889 C888 1.370 . S
C889 C893 1.408 . S
C890 C888 1.363 . S
C890 C891 1.370 . S
C890 C894 1.524 . S
C891 C883 1.503 . S
C891 C890 1.370 . S
C891 C892 1.403 . S
C892 C891 1.403 . S
C892 C893 1.404 . S
C892 C895 1.539 . S
C893 C889 1.408 . S
C893 C892 1.404 . S
C893 H905 0.930 . S
C894 C890 1.524 . S
C894 H906 0.956 . S
C894 H907 0.961 . S
C894 H908 0.961 . S
C895 C892 1.539 . S
C895 H909 0.958 . S
C895 H910 0.961 . S
C895 H911 0.960 . S
H896 C880 0.931 . S
H897 C885 0.929 . S
H898 C886 0.960 . S
H899 C886 0.962 . S
H900 C886 0.960 . S
H901 C887 0.961 . S
H902 C887 0.961 . S
H903 C887 0.961 . S
H904 C888 0.931 . S
H905 C893 0.930 . S
H906 C894 0.956 . S
H907 C894 0.961 . S
H908 C894 0.961 . S
H909 C895 0.958 . S
H910 C895 0.961 . S
H911 C895 0.960 . S
C912 C913 1.391 . S
C912 C914 1.394 . S
C912 H928 0.931 1_556 S
C913 C912 1.391 . S
C913 C917 1.376 . S
C914 C912 1.394 . S
C914 C915 1.369 . S
C914 C918 1.531 . S
C915 C914 1.369 . S
C915 C916 1.410 . S
C915 C923 1.503 . S
C916 C915 1.410 . S
C916 C917 1.392 . S
C916 C919 1.511 . S
C917 C913 1.376 . S
C917 C916 1.392 . S
C917 H929 0.929 . S
C918 C914 1.531 . S
C918 H930 0.960 . S
C918 H931 0.962 1_556 S
C918 H932 0.960 1_556 S
C919 C916 1.511 . S
C919 H933 0.961 . S
C919 H934 0.961 . S
C919 H935 0.961 . S
C920 C921 1.370 . S
C920 C922 1.363 . S
C920 H936 0.931 . S
C921 C920 1.370 . S
C921 C925 1.408 . S
C922 C920 1.363 . S
C922 C923 1.370 . S
C922 C926 1.524 . S
C923 C915 1.503 . S
C923 C922 1.370 . S
C923 C924 1.403 . S
C924 C923 1.403 . S
C924 C925 1.404 . S
C924 C927 1.539 . S
C925 C921 1.408 . S
C925 C924 1.404 . S
C925 H937 0.930 . S
C926 C922 1.524 . S
C926 H938 0.956 . S
C926 H939 0.961 . S
C926 H940 0.961 . S
C927 C924 1.539 . S
C927 H941 0.958 . S
C927 H942 0.961 . S
C927 H943 0.960 . S
H928 C912 0.931 1_554 S
H929 C917 0.929 . S
H930 C918 0.960 . S
H931 C918 0.962 1_554 S
H932 C918 0.960 1_554 S
H933 C919 0.961 . S
H934 C919 0.961 . S
H935 C919 0.961 . S
H936 C920 0.931 . S
H937 C925 0.930 . S
H938 C926 0.956 . S
H939 C926 0.961 . S
H940 C926 0.961 . S
H941 C927 0.958 . S
H942 C927 0.961 . S
H943 C927 0.960 . S
C177 C7 1.458 . S
C185 C93 1.405 . S
C209 C37 1.378 . S
C217 C104 1.307 . S
C241 C54 1.348 . S
C249 C114 1.293 . S
C281 C126 1.377 . S
C273 C87 1.375 . S
C313 C137 1.370 . S
C305 C30 1.424 . S
C337 C51 1.422 . S
C345 C148 1.384 . S
C369 C84 1.384 . S
C377 C158 1.331 . S
C401 C10 1.366 . S
C409 C170 1.293 . S
C433 C59 1.330 . S
C441 C169 1.309 . S
C473 C136 1.137 . S
C465 C74 1.172 . S
C505 C147 1.283 . S
C497 C18 1.340 1_556 S
C529 C32 1.408 . S
C537 C159 1.380 . S
C569 C103 1.308 . S
C561 C73 1.333 . S
C593 C15 1.421 . S
C601 C115 1.396 . S
C633 C125 1.316 . S
C625 C43 1.332 . S
C665 C92 1.171 . S
C657 C62 1.204 . S
C697 C164 1.443 . S
C689 C21 1.468 . S
C729 C175 1.433 . S
C721 C29 1.422 . S
C753 C52 1.358 . S
C761 C142 1.344 . S
C793 C153 1.397 . S
C785 C81 1.418 . S
C825 C120 1.422 . S
C817 C40 1.436 . S
C849 C65 1.418 . S
C857 C131 1.394 . S
C889 C98 1.350 . S
C881 C76 1.367 . S
C921 C109 1.431 . S
C913 C8 1.443 1_556 S
