# Generated by pormake.
# Topology pyr, (3,6)-cn, num edge types: 1
# Building blocks:
#     Node 0, Type 0, BuildingBlock: BELTOD_clean_linker_0, # of connection points: 3
#     Node 1, Type 0, BuildingBlock: BELTOD_clean_linker_0, # of connection points: 3
#     Node 2, Type 0, BuildingBlock: BELTOD_clean_linker_0, # of connection points: 3
#     Node 3, Type 0, BuildingBlock: BELTOD_clean_linker_0, # of connection points: 3
#     Node 4, Type 0, BuildingBlock: BELTOD_clean_linker_0, # of connection points: 3
#     Node 5, Type 0, BuildingBlock: BELTOD_clean_linker_0, # of connection points: 3
#     Node 6, Type 0, BuildingBlock: BELTOD_clean_linker_0, # of connection points: 3
#     Node 7, Type 0, BuildingBlock: BELTOD_clean_linker_0, # of connection points: 3
#     Node 8, Type 1, BuildingBlock: JUFBIX_clean_sbu_0, # of connection points: 6
#     Node 9, Type 1, BuildingBlock: JUFBIX_clean_sbu_0, # of connection points: 6
#     Node 10, Type 1, BuildingBlock: JUFBIX_clean_sbu_0, # of connection points: 6
#     Node 11, Type 1, BuildingBlock: JUFBIX_clean_sbu_0, # of connection points: 6
#     Edge 12, Type (0, 1), BuildingBlock: UVAHIK_clean_linker_0, # of connection points: 2
#     Edge 13, Type (0, 1), BuildingBlock: UVAHIK_clean_linker_0, # of connection points: 2
#     Edge 14, Type (0, 1), BuildingBlock: UVAHIK_clean_linker_0, # of connection points: 2
#     Edge 15, Type (0, 1), BuildingBlock: UVAHIK_clean_linker_0, # of connection points: 2
#     Edge 16, Type (0, 1), BuildingBlock: UVAHIK_clean_linker_0, # of connection points: 2
#     Edge 17, Type (0, 1), BuildingBlock: UVAHIK_clean_linker_0, # of connection points: 2
#     Edge 18, Type (0, 1), BuildingBlock: UVAHIK_clean_linker_0, # of connection points: 2
#     Edge 19, Type (0, 1), BuildingBlock: UVAHIK_clean_linker_0, # of connection points: 2
#     Edge 20, Type (0, 1), BuildingBlock: UVAHIK_clean_linker_0, # of connection points: 2
#     Edge 21, Type (0, 1), BuildingBlock: UVAHIK_clean_linker_0, # of connection points: 2
#     Edge 22, Type (0, 1), BuildingBlock: UVAHIK_clean_linker_0, # of connection points: 2
#     Edge 23, Type (0, 1), BuildingBlock: UVAHIK_clean_linker_0, # of connection points: 2
#     Edge 24, Type (0, 1), BuildingBlock: UVAHIK_clean_linker_0, # of connection points: 2
#     Edge 25, Type (0, 1), BuildingBlock: UVAHIK_clean_linker_0, # of connection points: 2
#     Edge 26, Type (0, 1), BuildingBlock: UVAHIK_clean_linker_0, # of connection points: 2
#     Edge 27, Type (0, 1), BuildingBlock: UVAHIK_clean_linker_0, # of connection points: 2
#     Edge 28, Type (0, 1), BuildingBlock: UVAHIK_clean_linker_0, # of connection points: 2
#     Edge 29, Type (0, 1), BuildingBlock: UVAHIK_clean_linker_0, # of connection points: 2
#     Edge 30, Type (0, 1), BuildingBlock: UVAHIK_clean_linker_0, # of connection points: 2
#     Edge 31, Type (0, 1), BuildingBlock: UVAHIK_clean_linker_0, # of connection points: 2
#     Edge 32, Type (0, 1), BuildingBlock: UVAHIK_clean_linker_0, # of connection points: 2
#     Edge 33, Type (0, 1), BuildingBlock: UVAHIK_clean_linker_0, # of connection points: 2
#     Edge 34, Type (0, 1), BuildingBlock: UVAHIK_clean_linker_0, # of connection points: 2
#     Edge 35, Type (0, 1), BuildingBlock: UVAHIK_clean_linker_0, # of connection points: 2
# Relax obj value: 0.039
# Max RMSD: 0.086
# Mean RMSD: 0.038
data_MOF--net-pry--node1-JUFBIX_clean_sbu_0--node2-BELTOD_clean_linker_0--edge1-UVAHIK_clean_linker_0
_symmetry_space_group_name_H-M    P1
_symmetry_Int_Tables_number       1
_symmetry_cell_setting            triclinic
loop_
_symmetry_equiv_pos_as_xyz
'x, y, z'
_cell_length_a     53.663009
_cell_length_b     51.703907
_cell_length_c     53.180341
_cell_angle_alpha  86.342845
_cell_angle_beta   90.451071
_cell_angle_gamma 91.870456
loop_
_atom_site_label
_atom_site_type_symbol
_atom_site_fract_x
_atom_site_fract_y
_atom_site_fract_z
_atom_type_partial_charge
P0 P 0.19853 0.18251 0.19459 0.0
H1 H 0.22371 0.19312 0.1462 0.0
H2 H 0.25494 0.16971 0.12424 0.0
H3 H 0.24784 0.10604 0.1806 0.0
H4 H 0.21647 0.12945 0.20235 0.0
H5 H 0.17487 0.22922 0.2077 0.0
H6 H 0.14843 0.26018 0.18471 0.0
H7 H 0.14877 0.21353 0.12015 0.0
H8 H 0.17537 0.18238 0.14351 0.0
H9 H 0.20941 0.16978 0.24775 0.0
H10 H 0.15025 0.15358 0.19523 0.0
O11 O 0.219 0.20182 0.20879 0.0
H12 H 0.18581 0.14703 0.2817 0.0
H13 H 0.12659 0.12983 0.22915 0.0
C14 C 0.21708 0.16277 0.17552 0.0
C15 C 0.2282 0.17374 0.15337 0.0
C16 C 0.2462 0.16037 0.14088 0.0
C17 C 0.25394 0.13598 0.15066 0.0
C18 C 0.24242 0.12484 0.17263 0.0
C19 C 0.22423 0.13813 0.18495 0.0
C20 C 0.17758 0.20381 0.17716 0.0
C21 C 0.16922 0.22557 0.18861 0.0
C22 C 0.15393 0.24321 0.17547 0.0
C23 C 0.14654 0.23946 0.15049 0.0
C24 C 0.15443 0.2172 0.13922 0.0
C25 C 0.16963 0.19937 0.15255 0.0
C26 C 0.18145 0.16371 0.219 0.0
C27 C 0.19136 0.16113 0.24346 0.0
C28 C 0.17786 0.14785 0.26291 0.0
C29 C 0.15416 0.13653 0.25833 0.0
C30 C 0.14456 0.13862 0.23354 0.0
C31 C 0.15812 0.15204 0.21405 0.0
P32 P 0.42701 0.91353 0.59098 0.0
H33 H 0.47088 0.93721 0.61461 0.0
H34 H 0.47827 0.95268 0.65677 0.0
H35 H 0.40284 0.92892 0.67752 0.0
H36 H 0.39556 0.91394 0.63554 0.0
H37 H 0.44909 0.88358 0.55259 0.0
H38 H 0.45681 0.83734 0.55087 0.0
H39 H 0.42934 0.82357 0.62685 0.0
H40 H 0.42159 0.86975 0.62841 0.0
H41 H 0.39713 0.95896 0.58153 0.0
H42 H 0.38517 0.87588 0.58456 0.0
O43 O 0.44414 0.93146 0.56994 0.0
H44 H 0.35221 0.96452 0.57663 0.0
H45 H 0.34045 0.88128 0.58024 0.0
C46 C 0.43252 0.92502 0.6218 0.0
C47 C 0.45592 0.93556 0.62823 0.0
C48 C 0.46016 0.94422 0.65235 0.0
C49 C 0.44103 0.94232 0.67038 0.0
C50 C 0.41777 0.93125 0.66389 0.0
C51 C 0.4136 0.92261 0.63987 0.0
C52 C 0.43527 0.88014 0.5908 0.0
C53 C 0.44514 0.87067 0.56902 0.0
C54 C 0.44952 0.84427 0.56805 0.0
C55 C 0.44371 0.82689 0.58875 0.0
C56 C 0.43385 0.8365 0.61057 0.0
C57 C 0.42968 0.86292 0.61158 0.0
C58 C 0.39454 0.91708 0.58328 0.0
C59 C 0.38488 0.94195 0.58076 0.0
C60 C 0.35921 0.94508 0.57821 0.0
C61 C 0.34276 0.92332 0.57824 0.0
C62 C 0.35263 0.89842 0.5799 0.0
C63 C 0.37829 0.89533 0.58248 0.0
P64 P 0.69101 0.32254 0.82568 0.0
H65 H 0.74053 0.30572 0.84042 0.0
H66 H 0.77435 0.32544 0.86438 0.0
H67 H 0.72834 0.39045 0.87668 0.0
H68 H 0.69441 0.37044 0.85267 0.0
H69 H 0.66057 0.2774 0.81399 0.0
H70 H 0.63435 0.24674 0.83951 0.0
H71 H 0.64906 0.29101 0.90461 0.0
H72 H 0.67584 0.32131 0.87893 0.0
H73 H 0.70471 0.35647 0.78224 0.0
H74 H 0.64059 0.34301 0.83021 0.0
O75 O 0.70463 0.3047 0.80495 0.0
H76 H 0.68171 0.3876 0.75549 0.0
H77 H 0.61749 0.37463 0.80381 0.0
C78 C 0.71522 0.33691 0.84434 0.0
C79 C 0.73773 0.32425 0.84821 0.0
C80 C 0.75706 0.33557 0.86185 0.0
C81 C 0.75412 0.35965 0.87214 0.0
C82 C 0.73115 0.37187 0.86899 0.0
C83 C 0.71183 0.36056 0.85516 0.0
C84 C 0.67057 0.30123 0.8447 0.0
C85 C 0.65816 0.28049 0.83377 0.0
C86 C 0.64295 0.26311 0.84836 0.0
C87 C 0.63966 0.26631 0.87419 0.0
C88 C 0.65153 0.28771 0.88489 0.0
C89 C 0.6668 0.3051 0.87022 0.0
C90 C 0.67422 0.34714 0.80789 0.0
C91 C 0.68572 0.36045 0.78713 0.0
C92 C 0.67258 0.37842 0.77198 0.0
C93 C 0.64767 0.38357 0.77742 0.0
C94 C 0.6365 0.37081 0.79886 0.0
C95 C 0.64971 0.35279 0.81402 0.0
P96 P 0.88196 0.66972 0.40289 0.0
H97 H 0.92153 0.6986 0.37561 0.0
H98 H 0.95487 0.72787 0.38876 0.0
H99 H 0.93439 0.71055 0.4666 0.0
H100 H 0.90178 0.68026 0.45334 0.0
H101 H 0.85294 0.66109 0.35741 0.0
H102 H 0.86253 0.64087 0.31848 0.0
H103 H 0.93526 0.62178 0.34834 0.0
H104 H 0.92554 0.64223 0.38722 0.0
H105 H 0.85353 0.6771 0.44794 0.0
H106 H 0.87989 0.61252 0.40925 0.0
O107 O 0.86083 0.69195 0.39544 0.0
H108 H 0.82857 0.64728 0.47571 0.0
H109 H 0.85467 0.58261 0.4368 0.0
C110 C 0.90933 0.68695 0.41347 0.0
C111 C 0.9247 0.70042 0.39556 0.0
C112 C 0.94362 0.71739 0.4031 0.0
C113 C 0.94714 0.72177 0.42872 0.0
C114 C 0.93238 0.70741 0.44674 0.0
C115 C 0.91356 0.69017 0.43915 0.0
C116 C 0.88879 0.65372 0.37484 0.0
C117 C 0.87096 0.65259 0.35555 0.0
C118 C 0.87639 0.64087 0.3334 0.0
C119 C 0.89974 0.62996 0.33029 0.0
C120 C 0.9173 0.63046 0.35004 0.0
C121 C 0.91177 0.64207 0.37224 0.0
C122 C 0.86832 0.6471 0.42637 0.0
C123 C 0.85443 0.65645 0.44583 0.0
C124 C 0.84028 0.63937 0.46179 0.0
C125 C 0.83959 0.61263 0.45832 0.0
C126 C 0.85475 0.60315 0.43976 0.0
C127 C 0.86915 0.62027 0.42399 0.0
P128 P 0.84763 0.86606 0.87756 0.0
H129 H 0.82802 0.89292 0.91924 0.0
H130 H 0.78621 0.9029 0.93199 0.0
H131 H 0.75545 0.8622 0.86974 0.0
H132 H 0.7979 0.85287 0.85662 0.0
H133 H 0.87311 0.84839 0.9238 0.0
H134 H 0.88767 0.80635 0.93994 0.0
H135 H 0.85554 0.77108 0.87515 0.0
H136 H 0.84052 0.81349 0.85929 0.0
H137 H 0.82652 0.90167 0.83852 0.0
H138 H 0.88326 0.84444 0.84371 0.0
O139 O 0.86656 0.88758 0.89085 0.0
H140 H 0.83994 0.91517 0.79567 0.0
H141 H 0.89682 0.85783 0.80106 0.0
C142 C 0.81615 0.87253 0.88671 0.0
C143 C 0.81235 0.88621 0.9082 0.0
C144 C 0.78828 0.89171 0.91565 0.0
C145 C 0.76727 0.88335 0.90198 0.0
C146 C 0.77114 0.86926 0.88055 0.0
C147 C 0.79538 0.86379 0.87308 0.0
C148 C 0.85628 0.83421 0.89 0.0
C149 C 0.86914 0.83165 0.91302 0.0
C150 C 0.87759 0.80754 0.9222 0.0
C151 C 0.87324 0.78532 0.90864 0.0
C152 C 0.85926 0.78775 0.88609 0.0
C153 C 0.85077 0.81199 0.87692 0.0
C154 C 0.85327 0.87141 0.84412 0.0
C155 C 0.84134 0.89143 0.83019 0.0
C156 C 0.84927 0.89937 0.80578 0.0
C157 C 0.8695 0.88761 0.79486 0.0
C158 C 0.88093 0.86704 0.80864 0.0
C159 C 0.87307 0.85924 0.83308 0.0
P160 P 0.64776 0.20689 0.33953 0.0
H161 H 0.65496 0.26198 0.34601 0.0
H162 H 0.63702 0.29109 0.37473 0.0
H163 H 0.5938 0.2268 0.40989 0.0
H164 H 0.61153 0.19782 0.38054 0.0
H165 H 0.68275 0.17272 0.31875 0.0
H166 H 0.71928 0.15071 0.33611 0.0
H167 H 0.70844 0.18481 0.40717 0.0
H168 H 0.67212 0.20702 0.38958 0.0
H169 H 0.61254 0.20479 0.29768 0.0
H170 H 0.63394 0.15516 0.36193 0.0
O171 O 0.65675 0.22452 0.3136 0.0
H172 H 0.5868 0.16957 0.28195 0.0
H173 H 0.60769 0.11981 0.34663 0.0
C174 C 0.63414 0.22793 0.36081 0.0
C175 C 0.6415 0.25418 0.35977 0.0
C176 C 0.63141 0.27074 0.37641 0.0
C177 C 0.61397 0.26126 0.39463 0.0
C178 C 0.60692 0.23476 0.39585 0.0
C179 C 0.61704 0.21819 0.37912 0.0
C180 C 0.67482 0.19153 0.35282 0.0
C181 C 0.68833 0.17552 0.33804 0.0
C182 C 0.70908 0.16283 0.34803 0.0
C183 C 0.7167 0.16599 0.37303 0.0
C184 C 0.70317 0.18223 0.38777 0.0
C185 C 0.68233 0.19485 0.37775 0.0
C186 C 0.62562 0.1823 0.33054 0.0
C187 C 0.61134 0.1864 0.30862 0.0
C188 C 0.5964 0.16628 0.2998 0.0
C189 C 0.59535 0.14174 0.31291 0.0
C190 C 0.60843 0.13832 0.33586 0.0
C191 C 0.62341 0.1585 0.34464 0.0
P192 P 0.3596 0.62142 0.1519 0.0
H193 H 0.32674 0.64401 0.11319 0.0
H194 H 0.28301 0.63595 0.10268 0.0
H195 H 0.27643 0.58004 0.16644 0.0
H196 H 0.32014 0.5888 0.17725 0.0
H197 H 0.40758 0.64271 0.13404 0.0
H198 H 0.42315 0.68695 0.12288 0.0
H199 H 0.3522 0.7165 0.14317 0.0
H200 H 0.33688 0.67218 0.15483 0.0
H201 H 0.40097 0.59172 0.17272 0.0
H202 H 0.33968 0.63299 0.20106 0.0
O203 O 0.37336 0.60208 0.13264 0.0
H204 H 0.41545 0.58147 0.21567 0.0
H205 H 0.35421 0.62288 0.24438 0.0
C206 C 0.32652 0.61768 0.1465 0.0
C207 C 0.31574 0.63054 0.12533 0.0
C208 C 0.29077 0.62565 0.11915 0.0
C209 C 0.27617 0.60732 0.13371 0.0
C210 C 0.28699 0.59461 0.15509 0.0
C211 C 0.31202 0.59961 0.1613 0.0
C212 C 0.37084 0.65415 0.14444 0.0
C213 C 0.39537 0.6587 0.13606 0.0
C214 C 0.40429 0.68397 0.12986 0.0
C215 C 0.38877 0.70509 0.13192 0.0
C216 C 0.3644 0.70051 0.14103 0.0
C217 C 0.35563 0.67523 0.14762 0.0
C218 C 0.36893 0.61259 0.18377 0.0
C219 C 0.39046 0.59836 0.18823 0.0
C220 C 0.39886 0.59271 0.2128 0.0
C221 C 0.38597 0.60136 0.23343 0.0
C222 C 0.36435 0.61567 0.22889 0.0
C223 C 0.35604 0.62146 0.2042 0.0
P224 P 0.12772 0.3504 0.62948 0.0
H225 H 0.12848 0.31805 0.58701 0.0
H226 H 0.09612 0.29299 0.56602 0.0
H227 H 0.04024 0.32418 0.61259 0.0
H228 H 0.07278 0.34954 0.63339 0.0
H229 H 0.16152 0.39101 0.64574 0.0
H230 H 0.18705 0.42445 0.62291 0.0
H231 H 0.15484 0.40188 0.55262 0.0
H232 H 0.12883 0.36874 0.57561 0.0
H233 H 0.12181 0.32244 0.67857 0.0
H234 H 0.1077 0.39885 0.64524 0.0
O235 O 0.14928 0.32828 0.63552 0.0
H236 H 0.10904 0.33598 0.71973 0.0
H237 H 0.0952 0.41258 0.68638 0.0
C238 C 0.10308 0.33544 0.61186 0.0
C239 C 0.10921 0.31991 0.59235 0.0
C240 C 0.09066 0.30575 0.58026 0.0
C241 C 0.06563 0.30665 0.58767 0.0
C242 C 0.05939 0.32306 0.60659 0.0
C243 C 0.078 0.33753 0.61848 0.0
C244 C 0.143 0.37757 0.61247 0.0
C245 C 0.15935 0.39374 0.62549 0.0
C246 C 0.1739 0.41291 0.61243 0.0
C247 C 0.17279 0.41585 0.58601 0.0
C248 C 0.15598 0.40003 0.573 0.0
C249 C 0.14112 0.38106 0.58616 0.0
C250 C 0.11643 0.35991 0.65913 0.0
C251 C 0.11594 0.34211 0.68013 0.0
C252 C 0.1085 0.3498 0.70356 0.0
C253 C 0.10148 0.37541 0.70623 0.0
C254 C 0.10097 0.39285 0.68488 0.0
C255 C 0.10813 0.38506 0.66142 0.0
Co256 Co 0.98704 0.01069 0.51286 0.0
C257 C 0.01197 0.96448 0.50865 0.0
Co258 Co 0.02389 0.00915 0.53157 0.0
C259 C 0.94385 0.02941 0.48565 0.0
C260 C 0.93967 0.98931 0.49805 0.0
N261 N 0.95585 0.00983 0.49795 0.0
N262 N 0.92077 0.02196 0.47811 0.0
C263 C 0.91813 0.99668 0.48582 0.0
H264 H 0.95188 0.0488 0.4824 0.0
H265 H 0.94312 0.97034 0.50692 0.0
C266 C 0.99903 0.05565 0.53526 0.0
N267 N 0.05537 0.01026 0.54644 0.0
C268 C 0.06999 0.9905 0.55433 0.0
C269 C 0.06952 0.03188 0.54968 0.0
N270 N 0.09255 0.99902 0.56236 0.0
C271 C 0.09223 0.02506 0.55957 0.0
C272 C 0.02505 0.02857 0.48096 0.0
O273 O 0.98178 0.04469 0.52297 0.0
O274 O 0.01855 0.0433 0.54092 0.0
O275 O 0.03819 0.02275 0.50041 0.0
O276 O 1.00149 0.02506 0.48214 0.0
O277 O 0.02868 0.97496 0.522 0.0
H278 H 0.06421 0.05143 0.54418 0.0
H279 H 0.06447 0.97023 0.55365 0.0
O280 O 0.99256 0.97687 0.50257 0.0
O281 O 0.97286 0.99625 0.54381 0.0
O282 O 0.00944 0.99553 0.5625 0.0
C283 C 0.98598 0.9911 0.56344 0.0
H284 H 0.90152 0.98459 0.48354 0.0
H285 H 0.10782 0.0382 0.56305 0.0
Co286 Co 0.49052 0.9968 1.00017 0.0
C287 C 0.48452 0.9553 0.03586 0.0
Co288 Co 0.51267 1.00093 0.03486 0.0
C289 C 0.47793 0.99502 0.94737 0.0
C290 C 0.44628 0.98763 0.97132 0.0
N291 N 0.471 0.99315 0.97177 0.0
N292 N 0.45846 0.99098 0.93171 0.0
C293 C 0.4385 0.98637 0.94674 0.0
H294 H 0.49688 0.99938 0.94122 0.0
H295 H 0.43468 0.98443 0.98785 0.0
C296 C 0.51878 0.04246 0.99925 0.0
N297 N 0.53218 0.00439 0.06341 0.0
C298 C 0.52476 0.0052 0.08755 0.0
C299 C 0.5573 0.00655 0.06441 0.0
N300 N 0.54425 0.00758 0.10348 0.0
C301 C 0.56476 0.00838 0.08902 0.0
C302 C 0.53748 0.9763 0.99726 0.0
O303 O 0.5033 0.02936 0.98657 0.0
O304 O 0.5254 0.03352 0.02104 0.0
O305 O 0.53908 0.98389 0.01948 0.0
O306 O 0.51737 0.97984 0.9849 0.0
O307 O 0.5 0.96844 0.04847 0.0
H308 H 0.56946 0.00713 0.04825 0.0
H309 H 0.50545 0.00405 0.09337 0.0
O310 O 0.4778 0.96418 0.0141 0.0
O311 O 0.46396 0.01386 0.01551 0.0
O312 O 0.48587 0.01787 0.04999 0.0
C313 C 0.46571 0.02146 0.03774 0.0
H314 H 0.41974 0.98173 0.94046 0.0
H315 H 0.58373 0.01101 0.09569 0.0
Co316 Co 0.5224 0.53054 0.51785 0.0
C317 C 0.4856 0.53359 0.48075 0.0
Co318 Co 0.48628 0.51274 0.53001 0.0
C319 C 0.57561 0.54022 0.51394 0.0
C320 C 0.55465 0.56922 0.49343 0.0
N321 N 0.55211 0.54688 0.50782 0.0
N322 N 0.59273 0.55765 0.50408 0.0
C323 C 0.57954 0.57586 0.49107 0.0
H324 H 0.57999 0.52327 0.52596 0.0
H325 H 0.53934 0.58018 0.48546 0.0
C326 C 0.52306 0.50947 0.56702 0.0
N327 N 0.45654 0.49644 0.53982 0.0
C328 C 0.43317 0.50464 0.53559 0.0
C329 C 0.45363 0.47226 0.55072 0.0
N330 N 0.41585 0.48634 0.54305 0.0
C331 C 0.42861 0.46594 0.55261 0.0
C332 C 0.51863 0.47917 0.5084 0.0
O333 O 0.5361 0.52204 0.55025 0.0
O334 O 0.50052 0.50329 0.56207 0.0
O335 O 0.49703 0.48111 0.5176 0.0
O336 O 0.53328 0.49897 0.50672 0.0
O337 O 0.47222 0.52216 0.49792 0.0
H338 H 0.46876 0.45974 0.55624 0.0
H339 H 0.42894 0.5232 0.5262 0.0
O340 O 0.50839 0.53885 0.48543 0.0
O341 O 0.51156 0.56203 0.52911 0.0
O342 O 0.47586 0.54457 0.54229 0.0
C343 C 0.49061 0.56429 0.53951 0.0
H344 H 0.58727 0.5928 0.48052 0.0
H345 H 0.42041 0.44769 0.56014 0.0
Co346 Co 0.01057 0.50087 1.00056 0.0
C347 C 0.96386 0.47776 0.99751 0.0
Co348 Co 0.98972 0.50189 0.03591 0.0
C349 C 0.03184 0.48214 0.9559 0.0
C350 C 0.04073 0.52233 0.95988 0.0
N351 N 0.02846 0.50161 0.97108 0.0
N352 N 0.04574 0.48987 0.93554 0.0
C353 C 0.05134 0.51521 0.93804 0.0
H354 H 0.02428 0.46266 0.95985 0.0
H355 H 0.04167 0.54147 0.96701 0.0
C356 C 0.03669 0.52487 0.03868 0.0
N357 N 0.97174 0.50106 0.06536 0.0
C358 C 0.96999 0.51967 0.08185 0.0
C359 C 0.95739 0.48101 0.07504 0.0
N360 N 0.95503 0.51204 0.10141 0.0
C361 C 0.94705 0.48772 0.09716 0.0
C362 C 0.01886 0.45813 0.03325 0.0
O363 O 0.03724 0.51885 0.01592 0.0
O364 O 0.01719 0.51925 0.0516 0.0
O365 O 1.00343 0.46936 0.04656 0.0
O366 O 0.02488 0.46864 0.01178 0.0
O367 O 0.96252 0.48453 0.01999 0.0
H368 H 0.95478 0.4626 0.06662 0.0
H369 H 0.97936 0.53851 0.07941 0.0
O370 O 0.98381 0.48279 0.98523 0.0
O371 O 0.99616 0.53306 0.9896 0.0
O372 O 0.97606 0.5345 0.02513 0.0
C373 C 0.98141 0.54466 1.00335 0.0
H374 H 0.06184 0.52794 0.9248 0.0
H375 H 0.93505 0.47543 0.10943 0.0
C376 C 0.1516 0.10866 0.29902 0.0
C377 C 0.13952 0.12318 0.27951 0.0
C378 C 0.13823 0.09748 0.31967 0.0
C379 C 0.07847 0.10225 0.35404 0.0
H380 H 0.09836 0.03696 0.38684 0.0
C381 C 0.02296 0.04894 0.43669 0.0
C382 C 0.03719 0.03901 0.45723 0.0
C383 C 0.03457 0.05872 0.41437 0.0
C384 C 0.09267 0.05531 0.378 0.0
H385 H 0.10355 0.13681 0.2665 0.0
H386 H 0.08014 0.11657 0.30202 0.0
H387 H 0.11971 0.05413 0.34879 0.0
H388 H 0.07485 0.03155 0.47025 0.0
H389 H 0.09498 0.04837 0.43136 0.0
H390 H 0.05124 0.10317 0.38326 0.0
C391 C 0.10011 0.11429 0.30162 0.0
C392 C 0.10497 0.06523 0.35617 0.0
C393 C 0.11353 0.12562 0.28099 0.0
C394 C 0.06329 0.03903 0.45484 0.0
C395 C 0.07485 0.04853 0.43246 0.0
C396 C 0.06602 0.09219 0.37578 0.0
C397 C 0.1123 0.10025 0.3214 0.0
C398 C 0.09826 0.08901 0.34399 0.0
C399 C 0.06066 0.05851 0.41194 0.0
C400 C 0.07315 0.06873 0.38819 0.0
H401 H 0.1715 0.10596 0.29845 0.0
H402 H 0.14842 0.08712 0.33457 0.0
H403 H 0.07296 0.12078 0.34552 0.0
H404 H 1.00283 0.04925 0.43787 0.0
H405 H 0.02309 0.0661 0.39886 0.0
C406 C 0.42642 0.96475 0.70768 0.0
C407 C 0.44516 0.95149 0.69602 0.0
C408 C 0.42931 0.97167 0.73248 0.0
C409 C 0.47523 0.98121 0.78333 0.0
H410 H 0.4182 0.96517 0.82654 0.0
C411 C 0.47982 0.98183 0.89236 0.0
C412 C 0.45882 0.99035 0.9047 0.0
C413 C 0.47929 0.97925 0.86634 0.0
C414 C 0.43419 0.97018 0.8147 0.0
H415 H 0.482 0.93582 0.70101 0.0
H416 H 0.48709 0.94803 0.74446 0.0
H417 H 0.41536 0.95704 0.78211 0.0
H418 H 0.42142 0.00432 0.89931 0.0
H419 H 0.42056 1.00022 0.85395 0.0
H420 H 0.49407 0.99431 0.8161 0.0
C421 C 0.47022 0.95317 0.73428 0.0
C422 C 0.43256 0.96547 0.78921 0.0
C423 C 0.4673 0.94619 0.70942 0.0
C424 C 0.43768 0.9972 0.89038 0.0
C425 C 0.4372 0.9948 0.8644 0.0
C426 C 0.47684 0.98604 0.8089 0.0
C427 C 0.45104 0.96555 0.74621 0.0
C428 C 0.45302 0.97096 0.77322 0.0
C429 C 0.45779 0.98529 0.85213 0.0
C430 C 0.4563 0.98061 0.82487 0.0
H431 H 0.40937 0.96962 0.69768 0.0
H432 H 0.41442 0.98166 0.741 0.0
H433 H 0.49125 0.9858 0.77141 0.0
H434 H 0.4963 0.97621 0.90295 0.0
H435 H 0.49539 0.97165 0.85752 0.0
C436 C 0.64458 0.42359 0.74824 0.0
C437 C 0.6332 0.40111 0.75995 0.0
C438 C 0.63186 0.43853 0.72978 0.0
C439 C 0.56954 0.45165 0.70257 0.0
H440 H 0.60651 0.46876 0.64108 0.0
C441 C 0.52172 0.48304 0.6082 0.0
C442 C 0.5344 0.50099 0.59151 0.0
C443 C 0.53322 0.47352 0.63044 0.0
C444 C 0.59598 0.46462 0.65823 0.0
H445 H 0.59915 0.37728 0.76196 0.0
H446 H 0.5769 0.40353 0.72997 0.0
H447 H 0.6274 0.4479 0.67729 0.0
H448 H 0.56872 0.52382 0.58557 0.0
H449 H 0.58852 0.50773 0.62459 0.0
H450 H 0.53805 0.46828 0.68343 0.0
C451 C 0.59563 0.40964 0.73518 0.0
C452 C 0.60798 0.4526 0.67901 0.0
C453 C 0.60839 0.39461 0.75356 0.0
C454 C 0.55851 0.50985 0.59793 0.0
C455 C 0.56993 0.50048 0.62025 0.0
C456 C 0.55754 0.46387 0.68181 0.0
C457 C 0.60742 0.43144 0.72271 0.0
C458 C 0.59486 0.44575 0.70133 0.0
C459 C 0.5576 0.48186 0.63659 0.0
C460 C 0.57056 0.47027 0.65927 0.0
H461 H 0.66348 0.42946 0.75307 0.0
H462 H 0.64128 0.45549 0.72081 0.0
H463 H 0.559 0.44684 0.71962 0.0
H464 H 0.50315 0.47575 0.60377 0.0
H465 H 0.52326 0.45896 0.64236 0.0
C466 C 0.88834 0.60266 0.29439 0.0
C467 C 0.90588 0.61858 0.30632 0.0
C468 C 0.89392 0.59246 0.2715 0.0
C469 C 0.94675 0.57783 0.23123 0.0
H470 H 0.89553 0.57444 0.17958 0.0
C471 C 0.96659 0.54457 0.1319 0.0
C472 C 0.94928 0.52637 0.12283 0.0
C473 C 0.96142 0.55749 0.15346 0.0
C474 C 0.90997 0.57514 0.19389 0.0
H475 H 0.94292 0.63652 0.30352 0.0
H476 H 0.95265 0.61884 0.26345 0.0
H477 H 0.88639 0.59356 0.21909 0.0
H478 H 0.91267 0.50812 0.1287 0.0
H479 H 0.90372 0.53049 0.16641 0.0
H480 H 0.97029 0.55935 0.20598 0.0
C481 C 0.93473 0.61388 0.27199 0.0
C482 C 0.90473 0.58602 0.21654 0.0
C483 C 0.92917 0.624 0.29494 0.0
C484 C 0.92649 0.5218 0.13542 0.0
C485 C 0.92126 0.53481 0.15685 0.0
C486 C 0.95201 0.56704 0.20853 0.0
C487 C 0.91714 0.59803 0.25998 0.0
C488 C 0.92299 0.58726 0.23557 0.0
C489 C 0.93876 0.55261 0.16624 0.0
C490 C 0.9336 0.56537 0.18972 0.0
H491 H 0.87036 0.59788 0.3029 0.0
H492 H 0.88014 0.57993 0.26298 0.0
H493 H 0.96113 0.57819 0.24562 0.0
H494 H 0.98438 0.54835 0.12271 0.0
H495 H 0.97517 0.57128 0.16017 0.0
C496 C 0.27664 0.12229 0.11254 0.0
C497 C 0.27496 0.12301 0.13886 0.0
C498 C 0.29693 0.11095 0.10155 0.0
C499 C 0.35006 0.0672 0.1167 0.0
H500 H 0.37599 0.09764 0.05332 0.0
C501 C 0.44417 0.03808 0.07512 0.0
C502 C 0.44427 0.03379 0.04926 0.0
C503 C 0.42355 0.04892 0.08604 0.0
C504 C 0.36886 0.08878 0.07093 0.0
H505 H 0.29358 0.11264 0.17421 0.0
H506 H 0.32907 0.09342 0.15518 0.0
H507 H 0.34004 0.11629 0.07225 0.0
H508 H 0.42279 0.03787 0.01459 0.0
H509 H 0.38706 0.05702 0.03356 0.0
H510 H 0.37931 0.04001 0.1155 0.0
C511 C 0.31444 0.10093 0.14292 0.0
C512 C 0.34812 0.09941 0.08179 0.0
C513 C 0.29404 0.11203 0.1539 0.0
C514 C 0.42338 0.04091 0.03455 0.0
C515 C 0.40291 0.05201 0.04541 0.0
C516 C 0.37095 0.05675 0.10596 0.0
C517 C 0.31627 0.10026 0.11656 0.0
C518 C 0.33835 0.08877 0.10484 0.0
C519 C 0.40266 0.05602 0.07131 0.0
C520 C 0.38059 0.06737 0.08291 0.0
H521 H 0.26214 0.13035 0.10042 0.0
H522 H 0.29731 0.11041 0.08124 0.0
H523 H 0.34291 0.05807 0.13418 0.0
H524 H 0.45991 0.03281 0.08703 0.0
H525 H 0.42406 0.05196 0.106 0.0
C526 C 0.30478 0.94483 0.59271 0.0
C527 C 0.31538 0.92655 0.57791 0.0
C528 C 0.27901 0.94758 0.59302 0.0
C529 C 0.22235 0.93653 0.55567 0.0
H530 H 0.18942 0.95051 0.61781 0.0
C531 C 0.11851 0.96117 0.55696 0.0
C532 C 0.11402 0.98401 0.56893 0.0
C533 C 0.14124 0.9489 0.56049 0.0
C534 C 0.19835 0.94658 0.60033 0.0
H535 H 0.30725 0.89684 0.55177 0.0
H536 H 0.26208 0.90152 0.55246 0.0
H537 H 0.23325 0.9393 0.61873 0.0
H538 H 0.12891 0.01085 0.59528 0.0
H539 H 0.16854 0.98962 0.60139 0.0
H540 H 0.18765 0.94453 0.53717 0.0
C541 C 0.27378 0.9138 0.56372 0.0
C542 C 0.22345 0.94025 0.60083 0.0
C543 C 0.29961 0.91101 0.56346 0.0
C544 C 0.13202 0.99343 0.58563 0.0
C545 C 0.15461 0.98112 0.58929 0.0
C546 C 0.19723 0.94284 0.55517 0.0
C547 C 0.26321 0.93211 0.57855 0.0
C548 C 0.2359 0.93581 0.57841 0.0
C549 C 0.15975 0.95913 0.57624 0.0
C550 C 0.18514 0.94858 0.57741 0.0
H551 H 0.31637 0.95684 0.60435 0.0
H552 H 0.2715 0.96213 0.60435 0.0
H553 H 0.23145 0.93343 0.53805 0.0
H554 H 0.10502 0.95356 0.54387 0.0
H555 H 0.1446 0.93184 0.55037 0.0
C556 C 0.79938 0.37237 0.87567 0.0
C557 C 0.77519 0.37208 0.88563 0.0
C558 C 0.81941 0.38363 0.88837 0.0
C559 C 0.83493 0.42929 0.93763 0.0
H560 H 0.89883 0.39633 0.93755 0.0
C561 C 0.91908 0.46233 0.99784 0.0
C562 C 0.94225 0.46473 0.9856 0.0
C563 C 0.89848 0.45071 0.98627 0.0
C564 C 0.88115 0.40586 0.93757 0.0
H565 H 0.75303 0.3834 0.91674 0.0
H566 H 0.78811 0.4028 0.93921 0.0
H567 H 0.86316 0.37672 0.91644 0.0
H568 H 0.96202 0.45652 0.95173 0.0
H569 H 0.92608 0.43611 0.93163 0.0
H570 H 0.85302 0.4583 0.95902 0.0
C571 C 0.79154 0.39468 0.92133 0.0
C572 C 0.8607 0.39467 0.92543 0.0
C573 C 0.77144 0.38353 0.9085 0.0
C574 C 0.94444 0.45497 0.96167 0.0
C575 C 0.92389 0.44317 0.9502 0.0
C576 C 0.85538 0.44038 0.94993 0.0
C577 C 0.81581 0.39477 0.91146 0.0
C578 C 0.83736 0.40635 0.92511 0.0
C579 C 0.90065 0.44102 0.96231 0.0
C580 C 0.87875 0.42888 0.94988 0.0
H581 H 0.8028 0.36412 0.85785 0.0
H582 H 0.83771 0.38385 0.8799 0.0
H583 H 0.81736 0.43901 0.93748 0.0
H584 H 0.91676 0.46964 0.01629 0.0
H585 H 0.88088 0.4491 0.99617 0.0
C586 C 0.81553 0.59762 0.49713 0.0
C587 C 0.82042 0.59559 0.47144 0.0
C588 C 0.79411 0.58572 0.50805 0.0
C589 C 0.73887 0.58183 0.51754 0.0
H590 H 0.70263 0.52368 0.49044 0.0
C591 C 0.63355 0.5809 0.50519 0.0
C592 C 0.61942 0.55753 0.50734 0.0
C593 C 0.65944 0.58094 0.50723 0.0
C594 C 0.71255 0.53967 0.49867 0.0
H595 H 0.80765 0.57819 0.43744 0.0
H596 H 0.77018 0.55814 0.45607 0.0
H597 H 0.74736 0.52911 0.48355 0.0
H598 H 0.6215 0.51582 0.51394 0.0
H599 H 0.66693 0.51592 0.5179 0.0
H600 H 0.70411 0.59245 0.53255 0.0
C601 C 0.78297 0.56829 0.46815 0.0
C602 C 0.73819 0.54297 0.49446 0.0
C603 C 0.80451 0.57989 0.45736 0.0
C604 C 0.63182 0.53418 0.51229 0.0
C605 C 0.65786 0.53421 0.51437 0.0
C606 C 0.71336 0.57836 0.52198 0.0
C607 C 0.77695 0.57193 0.49336 0.0
C608 C 0.75143 0.56478 0.50283 0.0
C609 C 0.67197 0.55761 0.51164 0.0
C610 C 0.69968 0.55797 0.51157 0.0
H611 H 0.8277 0.60935 0.50849 0.0
H612 H 0.7904 0.5884 0.52768 0.0
H613 H 0.74826 0.59893 0.52426 0.0
H614 H 0.62463 0.59927 0.50181 0.0
H615 H 0.66967 0.5993 0.50458 0.0
C616 C 0.13683 0.26759 0.1113 0.0
C617 C 0.13119 0.25917 0.13636 0.0
C618 C 0.12379 0.28781 0.09892 0.0
C619 C 0.08594 0.34391 0.11294 0.0
H620 H 0.06856 0.34518 0.04198 0.0
C621 C 0.02363 0.42265 0.06722 0.0
C622 C 0.03034 0.43376 0.04329 0.0
C623 C 0.03531 0.40058 0.07751 0.0
C624 C 0.07349 0.34524 0.06177 0.0
H625 H 0.10642 0.26451 0.16748 0.0
H626 H 0.08361 0.29942 0.14594 0.0
H627 H 0.08972 0.30786 0.06173 0.0
H628 H 0.05432 0.42987 0.01121 0.0
H629 H 0.07484 0.39135 0.02929 0.0
H630 H 0.06986 0.3812 0.11307 0.0
C631 C 0.09855 0.29094 0.13601 0.0
C632 C 0.08564 0.32383 0.0731 0.0
C633 C 0.1116 0.27083 0.14837 0.0
C634 C 0.04868 0.42183 0.02968 0.0
C635 C 0.06037 0.39967 0.04 0.0
C636 C 0.07382 0.36523 0.10165 0.0
C637 C 0.10475 0.30007 0.11128 0.0
C638 C 0.09191 0.32281 0.0989 0.0
C639 C 0.05406 0.38895 0.06421 0.0
C640 C 0.06729 0.36617 0.07595 0.0
H641 H 0.15195 0.25921 0.10156 0.0
H642 H 0.12924 0.29442 0.07997 0.0
H643 H 0.09098 0.34417 0.13268 0.0
H644 H 0.00949 0.43118 0.07821 0.0
H645 H 0.0296 0.39262 0.09598 0.0
C646 C 0.63296 0.23837 0.91417 0.0
C647 C 0.62472 0.24674 0.88992 0.0
C648 C 0.62011 0.21838 0.92809 0.0
C649 C 0.56012 0.18008 0.93153 0.0
H650 H 0.60051 0.12784 0.96599 0.0
C651 C 0.52125 0.07816 0.96506 0.0
C652 C 0.52938 0.06758 0.9886 0.0
C653 C 0.53181 0.10148 0.95468 0.0
C654 C 0.58894 0.14242 0.95676 0.0
H655 H 0.59576 0.24145 0.86186 0.0
H656 H 0.57378 0.20619 0.88578 0.0
H657 H 0.62064 0.16622 0.94521 0.0
H658 H 0.55475 0.07342 0.01986 0.0
H659 H 0.57315 0.11409 1.00171 0.0
H660 H 0.52845 0.15585 0.94267 0.0
C661 C 0.59005 0.21519 0.89418 0.0
C662 C 0.60047 0.16449 0.94487 0.0
C663 C 0.60285 0.23522 0.88031 0.0
C664 C 0.54809 0.08099 1.00166 0.0
C665 C 0.55873 0.10424 0.99121 0.0
C666 C 0.54859 0.15794 0.94333 0.0
C667 C 0.59873 0.20623 0.91809 0.0
C668 C 0.58624 0.18352 0.93194 0.0
C669 C 0.55082 0.11467 0.96754 0.0
C670 C 0.56289 0.13877 0.95592 0.0
H671 H 0.64983 0.24665 0.9221 0.0
H672 H 0.62711 0.21225 0.94659 0.0
H673 H 0.54856 0.19453 0.92209 0.0
H674 H 0.50687 0.06832 0.9545 0.0
H675 H 0.5255 0.10886 0.93628 0.0
C676 C 0.97848 0.7411 0.45838 0.0
C677 C 0.96399 0.74332 0.43623 0.0
C678 C 0.99234 0.76251 0.46638 0.0
C679 C 0.01455 0.82956 0.44519 0.0
H680 H 1.00455 0.84416 0.51496 0.0
C681 C 1.00184 0.9306 0.47871 0.0
C682 C 0.01478 0.93815 0.50021 0.0
C683 C 1.00333 0.90542 0.47112 0.0
C684 C 0.00801 0.8401 0.49558 0.0
H685 H 0.95285 0.76977 0.40513 0.0
H686 H 0.97668 0.80673 0.41898 0.0
H687 H 0.99332 0.80121 0.50101 0.0
H688 H 0.0397 0.9255 0.53051 0.0
H689 H 0.04154 0.88078 0.51762 0.0
H690 H 0.02739 0.86914 0.43945 0.0
C691 C 0.978 0.78842 0.42991 0.0
C692 C 1.00163 0.8155 0.48757 0.0
C693 C 0.96424 0.76714 0.42195 0.0
C694 C 0.02959 0.92013 0.51382 0.0
C695 C 0.03063 0.89464 0.50651 0.0
C696 C 0.0206 0.85419 0.45314 0.0
C697 C 0.99194 0.78653 0.45239 0.0
C698 C 1.00385 0.81031 0.46204 0.0
C699 C 0.01743 0.88712 0.48513 0.0
C700 C 0.01648 0.85992 0.47816 0.0
H701 H 0.97882 0.72293 0.46967 0.0
H702 H 1.00304 0.76038 0.4837 0.0
H703 H 0.01707 0.82599 0.42554 0.0
H704 H 0.99038 0.94414 0.46782 0.0
H705 H 0.99273 0.89997 0.45475 0.0
C706 C 0.42884 0.7805 0.59567 0.0
C707 C 0.44747 0.79876 0.58737 0.0
C708 C 0.43216 0.754 0.59375 0.0
C709 C 0.48076 0.70628 0.58766 0.0
H710 H 0.4286 0.66459 0.5574 0.0
C711 C 0.50112 0.61086 0.54496 0.0
C712 C 0.48397 0.5898 0.54812 0.0
C713 C 0.49538 0.63512 0.55279 0.0
C714 C 0.44316 0.67584 0.5663 0.0
H715 H 0.48431 0.80362 0.571 0.0
H716 H 0.49012 0.75737 0.56759 0.0
H717 H 0.42103 0.70964 0.56565 0.0
H718 H 0.44724 0.57772 0.56199 0.0
H719 H 0.43717 0.62047 0.57588 0.0
H720 H 0.50304 0.67275 0.58805 0.0
C721 C 0.47299 0.76353 0.57567 0.0
C722 C 0.43885 0.70163 0.57098 0.0
C723 C 0.46958 0.79 0.57738 0.0
C724 C 0.46084 0.59358 0.55933 0.0
C725 C 0.45505 0.61804 0.56718 0.0
C726 C 0.48503 0.68054 0.58311 0.0
C727 C 0.45429 0.74526 0.58374 0.0
C728 C 0.45783 0.71726 0.58114 0.0
C729 C 0.47235 0.63903 0.56406 0.0
C730 C 0.46652 0.66523 0.57178 0.0
H731 H 0.41151 0.78674 0.60324 0.0
H732 H 0.4175 0.74034 0.60021 0.0
H733 H 0.49556 0.71773 0.59599 0.0
H734 H 0.51907 0.60872 0.53628 0.0
H735 H 0.50891 0.65098 0.54961 0.0
C736 C 0.88265 0.92476 0.76441 0.0
C737 C 0.87982 0.89787 0.77005 0.0
C738 C 0.89375 0.93452 0.74187 0.0
C739 C 0.90938 0.91734 0.67744 0.0
H740 H 0.95709 0.97514 0.67979 0.0
C741 C 0.9484 0.97299 0.58731 0.0
C742 C 0.97395 0.98002 0.58702 0.0
C743 C 0.93698 0.96257 0.60946 0.0
C744 C 0.94394 0.95889 0.67881 0.0
H745 H 0.88598 0.86019 0.75596 0.0
H746 H 0.90539 0.87721 0.71662 0.0
H747 H 0.93693 0.95764 0.71848 0.0
H748 H 0.00752 0.98149 0.60993 0.0
H749 H 0.98759 0.96336 0.64856 0.0
H750 H 0.91655 0.91849 0.63778 0.0
C751 C 0.89896 0.89076 0.72966 0.0
C752 C 0.93216 0.94903 0.70096 0.0
C753 C 0.888 0.88099 0.75231 0.0
C754 C 0.9878 0.97635 0.60946 0.0
C755 C 0.97634 0.96607 0.63166 0.0
C756 C 0.92104 0.92733 0.65524 0.0
C757 C 0.90221 0.91766 0.72426 0.0
C758 C 0.91471 0.92813 0.70059 0.0
C759 C 0.95077 0.95903 0.63195 0.0
C760 C 0.93848 0.94824 0.65563 0.0
H761 H 0.87686 0.93835 0.77773 0.0
H762 H 0.89569 0.95533 0.73822 0.0
H763 H 0.89593 0.90137 0.67641 0.0
H764 H 0.93713 0.97553 0.5704 0.0
H765 H 0.91722 0.95765 0.60904 0.0
C766 C 0.56118 0.12227 0.28679 0.0
C767 C 0.58321 0.1193 0.30103 0.0
C768 C 0.55276 0.10289 0.27133 0.0
C769 C 0.58069 0.05473 0.23478 0.0
H770 H 0.51254 0.03799 0.21546 0.0
C771 C 0.56209 1.00093 0.14604 0.0
C772 C 0.54358 0.0113 0.12999 0.0
C773 C 0.56359 0.00738 0.1711 0.0
C774 C 0.53168 0.04251 0.22061 0.0
H775 H 0.61247 0.09267 0.3118 0.0
H776 H 0.59746 0.05876 0.2853 0.0
H777 H 0.52072 0.06165 0.25324 0.0
H778 H 0.51137 0.03546 0.12766 0.0
H779 H 0.51445 0.04765 0.17115 0.0
H780 H 0.59183 0.03719 0.20171 0.0
C781 C 0.58695 0.07626 0.28576 0.0
C782 C 0.53634 0.05596 0.24228 0.0
C783 C 0.59539 0.09562 0.30116 0.0
C784 C 0.52574 0.02712 0.13976 0.0
C785 C 0.52748 0.03398 0.16473 0.0
C786 C 0.57607 0.04153 0.21312 0.0
C787 C 0.56621 0.08017 0.26985 0.0
C788 C 0.56091 0.06264 0.2493 0.0
C789 C 0.54691 0.02482 0.18049 0.0
C790 C 0.5515 0.0357 0.20543 0.0
H791 H 0.55113 0.14011 0.28664 0.0
H792 H 0.53673 0.10652 0.25927 0.0
H793 H 0.59982 0.06003 0.23933 0.0
H794 H 0.57577 0.98831 0.13899 0.0
H795 H 0.57838 0.99938 0.18286 0.0
C796 C 0.42102 0.59825 0.2648 0.0
C797 C 0.39541 0.59567 0.25947 0.0
C798 C 0.43019 0.59196 0.28898 0.0
C799 C 0.41128 0.581 0.35583 0.0
H800 H 0.47366 0.5452 0.36182 0.0
C801 C 0.44919 0.53677 0.45093 0.0
C802 C 0.47481 0.54075 0.45564 0.0
C803 C 0.43906 0.54359 0.42721 0.0
C804 C 0.45634 0.55541 0.36047 0.0
H805 H 0.35927 0.58468 0.27542 0.0
H806 H 0.3753 0.5734 0.31771 0.0
H807 H 0.45667 0.55694 0.32022 0.0
H808 H 0.50985 0.5551 0.43912 0.0
H809 H 0.49215 0.56695 0.39779 0.0
H810 H 0.41095 0.57918 0.39621 0.0
C811 C 0.38828 0.58065 0.30324 0.0
C812 C 0.4466 0.56219 0.33662 0.0
C813 C 0.37908 0.58708 0.27901 0.0
C814 C 0.49005 0.5517 0.43611 0.0
C815 C 0.47994 0.55837 0.41238 0.0
C816 C 0.42099 0.57409 0.37973 0.0
C817 C 0.41399 0.5828 0.30846 0.0
C818 C 0.42403 0.57522 0.33397 0.0
C819 C 0.45434 0.55438 0.40764 0.0
C820 C 0.44371 0.56134 0.38231 0.0
H821 H 0.43402 0.60529 0.25025 0.0
H822 H 0.45002 0.59442 0.29244 0.0
H823 H 0.39402 0.59129 0.35451 0.0
H824 H 0.43693 0.52839 0.46557 0.0
H825 H 0.4193 0.54005 0.42408 0.0
C826 C 0.10698 0.40735 0.73924 0.0
C827 C 0.09581 0.38426 0.73139 0.0
C828 C 0.1022 0.41562 0.76313 0.0
C829 C 0.05585 0.41188 0.81271 0.0
H830 H 0.11036 0.43665 0.85404 0.0
C831 C 0.03866 0.45206 0.90968 0.0
C832 C 0.05253 0.47466 0.91498 0.0
C833 C 0.04466 0.43803 0.88907 0.0
C834 C 0.09491 0.43001 0.84265 0.0
H835 H 0.07081 0.35176 0.7422 0.0
H836 H 0.0621 0.36652 0.78407 0.0
H837 H 0.11929 0.41797 0.81425 0.0
H838 H 0.08418 0.49956 0.90313 0.0
H839 H 0.09398 0.47581 0.86684 0.0
H840 H 0.03137 0.42479 0.8405 0.0
C841 C 0.07464 0.37807 0.77169 0.0
C842 C 0.10005 0.41924 0.81994 0.0
C843 C 0.07969 0.3696 0.74786 0.0
C844 C 0.07282 0.48254 0.89945 0.0
C845 C 0.0787 0.46863 0.8788 0.0
C846 C 0.05067 0.4229 0.83532 0.0
C847 C 0.08596 0.4011 0.77955 0.0
C848 C 0.08055 0.41044 0.80458 0.0
C849 C 0.06459 0.44632 0.87322 0.0
C850 C 0.07013 0.43249 0.85036 0.0
H851 H 0.11969 0.41885 0.727 0.0
H852 H 0.11097 0.43358 0.76864 0.0
H853 H 0.04048 0.40542 0.80109 0.0
H854 H 0.0228 0.44546 0.92105 0.0
H855 H 0.03359 0.42075 0.8855 0.0
C856 C 0.723 0.8967 0.89256 0.0
C857 C 0.74164 0.88955 0.9102 0.0
C858 C 0.69948 0.90392 0.90054 0.0
C859 C 0.65814 0.90118 0.95712 0.0
H860 H 0.6263 0.9591 0.92153 0.0
C861 C 0.57964 0.9568 1.00121 0.0
C862 C 0.55913 0.96406 0.98601 0.0
C863 C 0.60047 0.94601 0.9908 0.0
C864 C 0.63478 0.94269 0.9315 0.0
H865 H 0.74954 0.88354 0.95019 0.0
H866 H 0.70918 0.89681 0.96399 0.0
H867 H 0.66514 0.94331 0.90552 0.0
H868 H 0.54455 0.96562 0.94782 0.0
H869 H 0.58116 0.94693 0.92957 0.0
H870 H 0.62814 0.90107 0.98348 0.0
C871 C 0.71248 0.89659 0.94395 0.0
C872 C 0.65707 0.93356 0.92229 0.0
C873 C 0.73588 0.8893 0.936 0.0
C874 C 0.55998 0.96018 0.96009 0.0
C875 C 0.58102 0.94961 0.9496 0.0
C876 C 0.63601 0.91044 0.96641 0.0
C877 C 0.69394 0.90418 0.92638 0.0
C878 C 0.66927 0.91287 0.93515 0.0
C879 C 0.60152 0.94238 0.96485 0.0
C880 C 0.62419 0.93151 0.95391 0.0
H881 H 0.72674 0.89731 0.87255 0.0
H882 H 0.68564 0.90931 0.8864 0.0
H883 H 0.66656 0.88484 0.96727 0.0
H884 H 0.57968 0.95953 0.02124 0.0
H885 H 0.61602 0.94098 1.00306 0.0
C886 C 0.74202 0.12616 0.37879 0.0
C887 C 0.73859 0.15219 0.38366 0.0
C888 C 0.76277 0.11319 0.38842 0.0
C889 C 0.81124 0.11529 0.4379 0.0
H890 H 0.84454 0.06835 0.39617 0.0
C891 C 0.90162 0.06451 0.46963 0.0
C892 C 0.90218 0.03788 0.46584 0.0
C893 C 0.88277 0.07963 0.45875 0.0
C894 C 0.83534 0.08127 0.4081 0.0
H895 H 0.7543 0.1851 0.40233 0.0
H896 H 0.79067 0.16246 0.41911 0.0
H897 H 0.80936 0.09258 0.37906 0.0
H898 H 0.8839 0.00642 0.44702 0.0
H899 H 0.85089 0.03269 0.42823 0.0
H900 H 0.8372 0.10385 0.46697 0.0
C901 C 0.77711 0.15198 0.40811 0.0
C902 C 0.81516 0.09511 0.39833 0.0
C903 C 0.75629 0.16494 0.39851 0.0
C904 C 0.88381 0.02681 0.45051 0.0
C905 C 0.86506 0.04193 0.43954 0.0
C906 C 0.83147 0.10149 0.44765 0.0
C907 C 0.78062 0.12597 0.4031 0.0
C908 C 0.80271 0.11209 0.41319 0.0
C909 C 0.8642 0.06845 0.44371 0.0
C910 C 0.84358 0.08414 0.43293 0.0
H911 H 0.72848 0.11568 0.36778 0.0
H912 H 0.76464 0.09302 0.38463 0.0
H913 H 0.80187 0.12797 0.44995 0.0
H914 H 0.91536 0.07357 0.48152 0.0
H915 H 0.88271 0.10006 0.46212 0.0
C916 C 0.24497 0.59767 0.09999 0.0
C917 C 0.25034 0.60035 0.12562 0.0
C918 C 0.22104 0.59031 0.09219 0.0
C919 C 0.15485 0.58641 0.11094 0.0
H920 H 0.15002 0.53697 0.05913 0.0
C921 C 0.06121 0.53942 0.07613 0.0
C922 C 0.05927 0.5367 0.05002 0.0
C923 C 0.08371 0.54816 0.08675 0.0
C924 C 0.15102 0.55098 0.07344 0.0
H925 H 0.23453 0.59778 0.16314 0.0
H926 H 0.19262 0.58449 0.14947 0.0
H927 H 0.19075 0.5499 0.07522 0.0
H928 H 0.07901 0.54235 0.01451 0.0
H929 H 0.11782 0.55773 0.03292 0.0
H930 H 0.1149 0.58736 0.109 0.0
C931 C 0.207 0.58833 0.13543 0.0
C932 C 0.1744 0.5584 0.08266 0.0
C933 C 0.23105 0.59569 0.14327 0.0
C934 C 0.0799 0.54391 0.03472 0.0
C935 C 0.10225 0.5526 0.04529 0.0
C936 C 0.13135 0.57892 0.10168 0.0
C937 C 0.20181 0.58531 0.1098 0.0
C938 C 0.17666 0.5765 0.10123 0.0
C939 C 0.10463 0.55428 0.07146 0.0
C940 C 0.12924 0.56143 0.08252 0.0
H941 H 0.2594 0.60075 0.0859 0.0
H942 H 0.21761 0.58853 0.07226 0.0
H943 H 0.15598 0.60048 0.12517 0.0
H944 H 0.04564 0.53404 0.08842 0.0
H945 H 0.08499 0.54924 0.107 0.0
C946 C 0.20592 0.42316 0.55351 0.0
C947 C 0.19139 0.43304 0.57228 0.0
C948 C 0.22685 0.43713 0.54406 0.0
C949 C 0.27277 0.48534 0.56557 0.0
H950 H 0.30337 0.47301 0.50181 0.0
C951 C 0.3768 0.51001 0.54505 0.0
C952 C 0.38931 0.48749 0.54002 0.0
C953 C 0.35073 0.51024 0.54399 0.0
C954 C 0.29491 0.47691 0.51955 0.0
H955 H 0.18591 0.46622 0.59424 0.0
H956 H 0.22206 0.49116 0.57712 0.0
H957 H 0.25911 0.46233 0.50816 0.0
H958 H 0.38481 0.4482 0.52852 0.0
H959 H 0.33935 0.44868 0.52622 0.0
H960 H 0.3088 0.4994 0.57703 0.0
C961 C 0.2178 0.47223 0.57026 0.0
C962 C 0.26963 0.47065 0.52329 0.0
C963 C 0.19703 0.45806 0.57998 0.0
C964 C 0.3755 0.46567 0.53275 0.0
C965 C 0.34958 0.46606 0.53117 0.0
C966 C 0.29793 0.49199 0.56165 0.0
C967 C 0.23359 0.46148 0.55296 0.0
C968 C 0.25852 0.47365 0.54678 0.0
C969 C 0.33693 0.48815 0.53725 0.0
C970 C 0.30943 0.48679 0.53902 0.0
H971 H 0.20217 0.4038 0.54743 0.0
H972 H 0.23863 0.42794 0.53106 0.0
H973 H 0.26508 0.48771 0.58401 0.0
H974 H 0.38715 0.52702 0.55073 0.0
H975 H 0.34134 0.52745 0.54885 0.0
C976 C 0.87022 0.73652 0.91637 0.0
C977 C 0.88392 0.76006 0.91778 0.0
C978 C 0.88038 0.713 0.92534 0.0
C979 C 0.94086 0.68275 0.94131 0.0
H980 H 0.89994 0.6309 0.97899 0.0
C981 C 0.97636 0.58044 0.96963 0.0
C982 C 0.97025 0.56937 0.99374 0.0
C983 C 0.96559 0.60343 0.96025 0.0
C984 C 0.91169 0.64524 0.96866 0.0
H985 H 0.91939 0.77705 0.92924 0.0
H986 H 0.93684 0.73634 0.94517 0.0
H987 H 0.88164 0.67134 0.96287 0.0
H988 H 0.94798 0.574 0.0269 0.0
H989 H 0.92937 0.61425 0.01063 0.0
H990 H 0.97102 0.65696 0.94746 0.0
C991 C 0.91828 0.73594 0.93703 0.0
C992 C 0.9011 0.66832 0.95913 0.0
C993 C 0.90812 0.7594 0.92815 0.0
C994 C 0.9531 0.58195 0.00825 0.0
C995 C 0.94229 0.60495 0.99884 0.0
C996 C 0.95142 0.65968 0.95076 0.0
C997 C 0.90457 0.7124 0.93579 0.0
C998 C 0.91558 0.68745 0.94541 0.0
C999 C 0.94839 0.61601 0.9747 0.0
C1000 C 0.93701 0.64061 0.96462 0.0
H1001 H 0.85148 0.73629 0.90865 0.0
H1002 H 0.86936 0.69523 0.92385 0.0
H1003 H 0.95255 0.69687 0.9306 0.0
H1004 H 0.98941 0.57127 0.95786 0.0
H1005 H 0.97051 0.61113 0.94147 0.0
C1006 C 0.4213 0.74099 0.13187 0.0
C1007 C 0.39785 0.7317 0.12394 0.0
C1008 C 0.43028 0.7657 0.12348 0.0
C1009 C 0.41029 0.82833 0.09202 0.0
H1010 H 0.48096 0.83791 0.07819 0.0
C1011 C 0.45325 0.91826 0.03565 0.0
C1012 C 0.47442 0.93 0.04644 0.0
C1013 C 0.44362 0.89442 0.0458 0.0
C1014 C 0.46121 0.83554 0.08215 0.0
H1015 H 0.36544 0.7408 0.10095 0.0
H1016 H 0.38132 0.78357 0.08562 0.0
H1017 H 0.46461 0.7957 0.09456 0.0
H1018 H 0.50217 0.92588 0.07619 0.0
H1019 H 0.48556 0.884 0.09359 0.0
H1020 H 0.40697 0.86811 0.07877 0.0
C1021 C 0.39257 0.7722 0.0989 0.0
C1022 C 0.45181 0.81139 0.09167 0.0
C1023 C 0.38346 0.74764 0.1076 0.0
C1024 C 0.48582 0.91734 0.06748 0.0
C1025 C 0.4764 0.89334 0.07737 0.0
C1026 C 0.41967 0.85238 0.08217 0.0
C1027 C 0.41617 0.78154 0.10663 0.0
C1028 C 0.42621 0.80743 0.09678 0.0
C1029 C 0.45517 0.88169 0.06668 0.0
C1030 C 0.44521 0.85622 0.07718 0.0
H1031 H 0.43264 0.72917 0.14469 0.0
H1032 H 0.44827 0.77238 0.1303 0.0
H1033 H 0.39057 0.82623 0.09613 0.0
H1034 H 0.44401 0.92756 0.01947 0.0
H1035 H 0.42733 0.88576 0.03709 0.0
C1036 C 0.03181 0.27256 0.59431 0.0
C1037 C 0.04695 0.28818 0.57765 0.0
C1038 C 0.01863 0.25098 0.58589 0.0
C1039 C 0.02861 0.20425 0.53951 0.0
H1040 H 0.96829 0.17059 0.56725 0.0
C1041 C 0.01807 0.09509 0.5531 0.0
C1042 C 0.9978 0.08319 0.54097 0.0
C1043 C 0.01892 0.12173 0.55556 0.0
C1044 C 0.98497 0.17995 0.55911 0.0
H1045 H 0.0579 0.29534 0.53864 0.0
H1046 H 0.03469 0.25778 0.52384 0.0
H1047 H 0.97704 0.21678 0.57324 0.0
H1048 H 0.96176 0.08974 0.52326 0.0
H1049 H 0.96317 0.13673 0.52812 0.0
H1050 H 0.03714 0.16733 0.52642 0.0
C1051 C 0.03345 0.26185 0.54352 0.0
C1052 C 0.99004 0.20625 0.5626 0.0
C1053 C 0.04672 0.28333 0.55196 0.0
C1054 C 0.97767 0.09838 0.53264 0.0
C1055 C 0.97843 0.12518 0.53539 0.0
C1056 C 0.02367 0.17807 0.53627 0.0
C1057 C 0.02032 0.24471 0.56064 0.0
C1058 C 0.01225 0.21848 0.55334 0.0
C1059 C 0.99943 0.13708 0.54621 0.0
C1060 C 1.00222 0.16554 0.54664 0.0
H1061 H 0.03173 0.27574 0.61425 0.0
H1062 H 0.00884 0.2381 0.5996 0.0
H1063 H 0.04605 0.21288 0.53244 0.0
H1064 H 0.03377 0.084 0.55997 0.0
H1065 H 0.03515 0.13049 0.56431 0.0
C1066 C 0.57735 0.27774 0.41727 0.0
C1067 C 0.60298 0.27922 0.41186 0.0
C1068 C 0.56673 0.29615 0.4317 0.0
C1069 C 0.5826 0.34885 0.47425 0.0
H1070 H 0.52107 0.37782 0.44825 0.0
C1071 C 0.55198 0.45087 0.49431 0.0
C1072 C 0.52683 0.45409 0.50014 0.0
C1073 C 0.55989 0.42719 0.48663 0.0
C1074 C 0.53805 0.36967 0.45596 0.0
H1075 H 0.63776 0.3003 0.41853 0.0
H1076 H 0.61922 0.33276 0.44294 0.0
H1077 H 0.53745 0.33993 0.42981 0.0
H1078 H 0.49023 0.43501 0.50257 0.0
H1079 H 0.50409 0.39363 0.48873 0.0
H1080 H 0.58364 0.37933 0.49971 0.0
C1081 C 0.60729 0.31729 0.43632 0.0
C1082 C 0.54742 0.34791 0.44547 0.0
C1083 C 0.61789 0.29888 0.422 0.0
C1084 C 0.50973 0.43312 0.49816 0.0
C1085 C 0.51762 0.40948 0.4902 0.0
C1086 C 0.57333 0.37072 0.48459 0.0
C1087 C 0.58152 0.31642 0.44101 0.0
C1088 C 0.57008 0.33756 0.45414 0.0
C1089 C 0.54279 0.4063 0.4844 0.0
C1090 C 0.55123 0.38163 0.47521 0.0
H1091 H 0.56534 0.2629 0.40964 0.0
H1092 H 0.54687 0.29473 0.43524 0.0
H1093 H 0.59982 0.34105 0.48173 0.0
H1094 H 0.56562 0.46663 0.49572 0.0
H1095 H 0.57934 0.42538 0.48196 0.0
loop_
_geom_bond_atom_site_label_1
_geom_bond_atom_site_label_2
_geom_bond_distance
_geom_bond_site_symmetry_2
_ccdc_geom_bond_type
P0 O11 1.490 . S
P0 C14 1.812 . S
P0 C20 1.803 . S
P0 C26 1.819 . S
H1 C15 0.941 . S
H2 C16 0.939 . S
H3 C18 0.940 . S
H4 C19 0.940 . S
H5 C21 0.939 . S
H6 C22 0.942 . S
H7 C24 0.940 . S
H8 C25 0.939 . S
H9 C27 0.941 . S
H10 C31 0.939 . S
O11 P0 1.490 . S
H12 C28 0.939 . S
H13 C30 0.940 . S
C14 P0 1.812 . S
C14 C15 1.389 . S
C14 C19 1.391 . S
C15 H1 0.941 . S
C15 C14 1.389 . S
C15 C16 1.397 . S
C16 H2 0.939 . S
C16 C15 1.397 . S
C16 C17 1.378 . S
C17 C16 1.378 . S
C17 C18 1.378 . S
C18 H3 0.940 . S
C18 C17 1.378 . S
C18 C19 1.396 . S
C19 H4 0.940 . S
C19 C14 1.391 . S
C19 C18 1.396 . S
C20 P0 1.803 . S
C20 C21 1.378 . S
C20 C25 1.400 . S
C21 H5 0.939 . S
C21 C20 1.378 . S
C21 C22 1.361 . S
C22 H6 0.942 . S
C22 C21 1.361 . S
C22 C23 1.369 . S
C23 C22 1.369 . S
C23 C24 1.404 . S
C24 H7 0.940 . S
C24 C23 1.404 . S
C24 C25 1.389 . S
C25 H8 0.939 . S
C25 C20 1.400 . S
C25 C24 1.389 . S
C26 P0 1.819 . S
C26 C27 1.391 . S
C26 C31 1.391 . S
C27 H9 0.941 . S
C27 C26 1.391 . S
C27 C28 1.396 . S
C28 H12 0.939 . S
C28 C27 1.396 . S
C28 C29 1.397 . S
C29 C28 1.397 . S
C29 C30 1.385 . S
C30 H13 0.940 . S
C30 C29 1.385 . S
C30 C31 1.388 . S
C31 H10 0.939 . S
C31 C26 1.391 . S
C31 C30 1.388 . S
P32 O43 1.490 . S
P32 C46 1.812 . S
P32 C52 1.803 . S
P32 C58 1.819 . S
H33 C47 0.941 . S
H34 C48 0.939 . S
H35 C50 0.940 . S
H36 C51 0.940 . S
H37 C53 0.939 . S
H38 C54 0.942 . S
H39 C56 0.940 . S
H40 C57 0.939 . S
H41 C59 0.941 . S
H42 C63 0.939 . S
O43 P32 1.490 . S
H44 C60 0.939 . S
H45 C62 0.940 . S
C46 P32 1.812 . S
C46 C47 1.389 . S
C46 C51 1.391 . S
C47 H33 0.941 . S
C47 C46 1.389 . S
C47 C48 1.397 . S
C48 H34 0.939 . S
C48 C47 1.397 . S
C48 C49 1.378 . S
C49 C48 1.378 . S
C49 C50 1.378 . S
C50 H35 0.940 . S
C50 C49 1.378 . S
C50 C51 1.396 . S
C51 H36 0.940 . S
C51 C46 1.391 . S
C51 C50 1.396 . S
C52 P32 1.803 . S
C52 C53 1.378 . S
C52 C57 1.400 . S
C53 H37 0.939 . S
C53 C52 1.378 . S
C53 C54 1.361 . S
C54 H38 0.942 . S
C54 C53 1.361 . S
C54 C55 1.369 . S
C55 C54 1.369 . S
C55 C56 1.404 . S
C56 H39 0.940 . S
C56 C55 1.404 . S
C56 C57 1.389 . S
C57 H40 0.939 . S
C57 C52 1.400 . S
C57 C56 1.389 . S
C58 P32 1.819 . S
C58 C59 1.391 . S
C58 C63 1.391 . S
C59 H41 0.941 . S
C59 C58 1.391 . S
C59 C60 1.396 . S
C60 H44 0.939 . S
C60 C59 1.396 . S
C60 C61 1.397 . S
C61 C60 1.397 . S
C61 C62 1.385 . S
C62 H45 0.940 . S
C62 C61 1.385 . S
C62 C63 1.388 . S
C63 H42 0.939 . S
C63 C58 1.391 . S
C63 C62 1.388 . S
P64 O75 1.490 . S
P64 C78 1.812 . S
P64 C84 1.803 . S
P64 C90 1.819 . S
H65 C79 0.941 . S
H66 C80 0.939 . S
H67 C82 0.940 . S
H68 C83 0.940 . S
H69 C85 0.939 . S
H70 C86 0.942 . S
H71 C88 0.940 . S
H72 C89 0.939 . S
H73 C91 0.941 . S
H74 C95 0.939 . S
O75 P64 1.490 . S
H76 C92 0.939 . S
H77 C94 0.940 . S
C78 P64 1.812 . S
C78 C79 1.389 . S
C78 C83 1.391 . S
C79 H65 0.941 . S
C79 C78 1.389 . S
C79 C80 1.397 . S
C80 H66 0.939 . S
C80 C79 1.397 . S
C80 C81 1.378 . S
C81 C80 1.378 . S
C81 C82 1.378 . S
C82 H67 0.940 . S
C82 C81 1.378 . S
C82 C83 1.396 . S
C83 H68 0.940 . S
C83 C78 1.391 . S
C83 C82 1.396 . S
C84 P64 1.803 . S
C84 C85 1.378 . S
C84 C89 1.400 . S
C85 H69 0.939 . S
C85 C84 1.378 . S
C85 C86 1.361 . S
C86 H70 0.942 . S
C86 C85 1.361 . S
C86 C87 1.369 . S
C87 C86 1.369 . S
C87 C88 1.404 . S
C88 H71 0.940 . S
C88 C87 1.404 . S
C88 C89 1.389 . S
C89 H72 0.939 . S
C89 C84 1.400 . S
C89 C88 1.389 . S
C90 P64 1.819 . S
C90 C91 1.391 . S
C90 C95 1.391 . S
C91 H73 0.941 . S
C91 C90 1.391 . S
C91 C92 1.396 . S
C92 H76 0.939 . S
C92 C91 1.396 . S
C92 C93 1.397 . S
C93 C92 1.397 . S
C93 C94 1.385 . S
C94 H77 0.940 . S
C94 C93 1.385 . S
C94 C95 1.388 . S
C95 H74 0.939 . S
C95 C90 1.391 . S
C95 C94 1.388 . S
P96 O107 1.490 . S
P96 C110 1.812 . S
P96 C116 1.803 . S
P96 C122 1.819 . S
H97 C111 0.941 . S
H98 C112 0.939 . S
H99 C114 0.940 . S
H100 C115 0.940 . S
H101 C117 0.939 . S
H102 C118 0.942 . S
H103 C120 0.940 . S
H104 C121 0.939 . S
H105 C123 0.941 . S
H106 C127 0.939 . S
O107 P96 1.490 . S
H108 C124 0.939 . S
H109 C126 0.940 . S
C110 P96 1.812 . S
C110 C111 1.389 . S
C110 C115 1.391 . S
C111 H97 0.941 . S
C111 C110 1.389 . S
C111 C112 1.397 . S
C112 H98 0.939 . S
C112 C111 1.397 . S
C112 C113 1.378 . S
C113 C112 1.378 . S
C113 C114 1.378 . S
C114 H99 0.940 . S
C114 C113 1.378 . S
C114 C115 1.396 . S
C115 H100 0.940 . S
C115 C110 1.391 . S
C115 C114 1.396 . S
C116 P96 1.803 . S
C116 C117 1.378 . S
C116 C121 1.400 . S
C117 H101 0.939 . S
C117 C116 1.378 . S
C117 C118 1.361 . S
C118 H102 0.942 . S
C118 C117 1.361 . S
C118 C119 1.369 . S
C119 C118 1.369 . S
C119 C120 1.404 . S
C120 H103 0.940 . S
C120 C119 1.404 . S
C120 C121 1.389 . S
C121 H104 0.939 . S
C121 C116 1.400 . S
C121 C120 1.389 . S
C122 P96 1.819 . S
C122 C123 1.391 . S
C122 C127 1.391 . S
C123 H105 0.941 . S
C123 C122 1.391 . S
C123 C124 1.396 . S
C124 H108 0.939 . S
C124 C123 1.396 . S
C124 C125 1.397 . S
C125 C124 1.397 . S
C125 C126 1.385 . S
C126 H109 0.940 . S
C126 C125 1.385 . S
C126 C127 1.388 . S
C127 H106 0.939 . S
C127 C122 1.391 . S
C127 C126 1.388 . S
P128 O139 1.490 . S
P128 C142 1.812 . S
P128 C148 1.803 . S
P128 C154 1.819 . S
H129 C143 0.941 . S
H130 C144 0.939 . S
H131 C146 0.940 . S
H132 C147 0.940 . S
H133 C149 0.939 . S
H134 C150 0.942 . S
H135 C152 0.940 . S
H136 C153 0.939 . S
H137 C155 0.941 . S
H138 C159 0.939 . S
O139 P128 1.490 . S
H140 C156 0.939 . S
H141 C158 0.940 . S
C142 P128 1.812 . S
C142 C143 1.389 . S
C142 C147 1.391 . S
C143 H129 0.941 . S
C143 C142 1.389 . S
C143 C144 1.397 . S
C144 H130 0.939 . S
C144 C143 1.397 . S
C144 C145 1.378 . S
C145 C144 1.378 . S
C145 C146 1.378 . S
C146 H131 0.940 . S
C146 C145 1.378 . S
C146 C147 1.396 . S
C147 H132 0.940 . S
C147 C142 1.391 . S
C147 C146 1.396 . S
C148 P128 1.803 . S
C148 C149 1.378 . S
C148 C153 1.400 . S
C149 H133 0.939 . S
C149 C148 1.378 . S
C149 C150 1.361 . S
C150 H134 0.942 . S
C150 C149 1.361 . S
C150 C151 1.369 . S
C151 C150 1.369 . S
C151 C152 1.404 . S
C152 H135 0.940 . S
C152 C151 1.404 . S
C152 C153 1.389 . S
C153 H136 0.939 . S
C153 C148 1.400 . S
C153 C152 1.389 . S
C154 P128 1.819 . S
C154 C155 1.391 . S
C154 C159 1.391 . S
C155 H137 0.941 . S
C155 C154 1.391 . S
C155 C156 1.396 . S
C156 H140 0.939 . S
C156 C155 1.396 . S
C156 C157 1.397 . S
C157 C156 1.397 . S
C157 C158 1.385 . S
C158 H141 0.940 . S
C158 C157 1.385 . S
C158 C159 1.388 . S
C159 H138 0.939 . S
C159 C154 1.391 . S
C159 C158 1.388 . S
P160 O171 1.490 . S
P160 C174 1.812 . S
P160 C180 1.803 . S
P160 C186 1.819 . S
H161 C175 0.941 . S
H162 C176 0.939 . S
H163 C178 0.940 . S
H164 C179 0.940 . S
H165 C181 0.939 . S
H166 C182 0.942 . S
H167 C184 0.940 . S
H168 C185 0.939 . S
H169 C187 0.941 . S
H170 C191 0.939 . S
O171 P160 1.490 . S
H172 C188 0.939 . S
H173 C190 0.940 . S
C174 P160 1.812 . S
C174 C175 1.389 . S
C174 C179 1.391 . S
C175 H161 0.941 . S
C175 C174 1.389 . S
C175 C176 1.397 . S
C176 H162 0.939 . S
C176 C175 1.397 . S
C176 C177 1.378 . S
C177 C176 1.378 . S
C177 C178 1.378 . S
C178 H163 0.940 . S
C178 C177 1.378 . S
C178 C179 1.396 . S
C179 H164 0.940 . S
C179 C174 1.391 . S
C179 C178 1.396 . S
C180 P160 1.803 . S
C180 C181 1.378 . S
C180 C185 1.400 . S
C181 H165 0.939 . S
C181 C180 1.378 . S
C181 C182 1.361 . S
C182 H166 0.942 . S
C182 C181 1.361 . S
C182 C183 1.369 . S
C183 C182 1.369 . S
C183 C184 1.404 . S
C184 H167 0.940 . S
C184 C183 1.404 . S
C184 C185 1.389 . S
C185 H168 0.939 . S
C185 C180 1.400 . S
C185 C184 1.389 . S
C186 P160 1.819 . S
C186 C187 1.391 . S
C186 C191 1.391 . S
C187 H169 0.941 . S
C187 C186 1.391 . S
C187 C188 1.396 . S
C188 H172 0.939 . S
C188 C187 1.396 . S
C188 C189 1.397 . S
C189 C188 1.397 . S
C189 C190 1.385 . S
C190 H173 0.940 . S
C190 C189 1.385 . S
C190 C191 1.388 . S
C191 H170 0.939 . S
C191 C186 1.391 . S
C191 C190 1.388 . S
P192 O203 1.490 . S
P192 C206 1.812 . S
P192 C212 1.803 . S
P192 C218 1.819 . S
H193 C207 0.941 . S
H194 C208 0.939 . S
H195 C210 0.940 . S
H196 C211 0.940 . S
H197 C213 0.939 . S
H198 C214 0.942 . S
H199 C216 0.940 . S
H200 C217 0.939 . S
H201 C219 0.941 . S
H202 C223 0.939 . S
O203 P192 1.490 . S
H204 C220 0.939 . S
H205 C222 0.940 . S
C206 P192 1.812 . S
C206 C207 1.389 . S
C206 C211 1.391 . S
C207 H193 0.941 . S
C207 C206 1.389 . S
C207 C208 1.397 . S
C208 H194 0.939 . S
C208 C207 1.397 . S
C208 C209 1.378 . S
C209 C208 1.378 . S
C209 C210 1.378 . S
C210 H195 0.940 . S
C210 C209 1.378 . S
C210 C211 1.396 . S
C211 H196 0.940 . S
C211 C206 1.391 . S
C211 C210 1.396 . S
C212 P192 1.803 . S
C212 C213 1.378 . S
C212 C217 1.400 . S
C213 H197 0.939 . S
C213 C212 1.378 . S
C213 C214 1.361 . S
C214 H198 0.942 . S
C214 C213 1.361 . S
C214 C215 1.369 . S
C215 C214 1.369 . S
C215 C216 1.404 . S
C216 H199 0.940 . S
C216 C215 1.404 . S
C216 C217 1.389 . S
C217 H200 0.939 . S
C217 C212 1.400 . S
C217 C216 1.389 . S
C218 P192 1.819 . S
C218 C219 1.391 . S
C218 C223 1.391 . S
C219 H201 0.941 . S
C219 C218 1.391 . S
C219 C220 1.396 . S
C220 H204 0.939 . S
C220 C219 1.396 . S
C220 C221 1.397 . S
C221 C220 1.397 . S
C221 C222 1.385 . S
C222 H205 0.940 . S
C222 C221 1.385 . S
C222 C223 1.388 . S
C223 H202 0.939 . S
C223 C218 1.391 . S
C223 C222 1.388 . S
P224 O235 1.490 . S
P224 C238 1.812 . S
P224 C244 1.803 . S
P224 C250 1.819 . S
H225 C239 0.941 . S
H226 C240 0.939 . S
H227 C242 0.940 . S
H228 C243 0.940 . S
H229 C245 0.939 . S
H230 C246 0.942 . S
H231 C248 0.940 . S
H232 C249 0.939 . S
H233 C251 0.941 . S
H234 C255 0.939 . S
O235 P224 1.490 . S
H236 C252 0.939 . S
H237 C254 0.940 . S
C238 P224 1.812 . S
C238 C239 1.389 . S
C238 C243 1.391 . S
C239 H225 0.941 . S
C239 C238 1.389 . S
C239 C240 1.397 . S
C240 H226 0.939 . S
C240 C239 1.397 . S
C240 C241 1.378 . S
C241 C240 1.378 . S
C241 C242 1.378 . S
C242 H227 0.940 . S
C242 C241 1.378 . S
C242 C243 1.396 . S
C243 H228 0.940 . S
C243 C238 1.391 . S
C243 C242 1.396 . S
C244 P224 1.803 . S
C244 C245 1.378 . S
C244 C249 1.400 . S
C245 H229 0.939 . S
C245 C244 1.378 . S
C245 C246 1.361 . S
C246 H230 0.942 . S
C246 C245 1.361 . S
C246 C247 1.369 . S
C247 C246 1.369 . S
C247 C248 1.404 . S
C248 H231 0.940 . S
C248 C247 1.404 . S
C248 C249 1.389 . S
C249 H232 0.939 . S
C249 C244 1.400 . S
C249 C248 1.389 . S
C250 P224 1.819 . S
C250 C251 1.391 . S
C250 C255 1.391 . S
C251 H233 0.941 . S
C251 C250 1.391 . S
C251 C252 1.396 . S
C252 H236 0.939 . S
C252 C251 1.396 . S
C252 C253 1.397 . S
C253 C252 1.397 . S
C253 C254 1.385 . S
C254 H237 0.940 . S
C254 C253 1.385 . S
C254 C255 1.388 . S
C255 H234 0.939 . S
C255 C250 1.391 . S
C255 C254 1.388 . S
Co256 N261 2.057 . S
Co256 O273 2.021 . S
Co256 O276 2.062 . S
Co256 O280 2.117 1_545 S
Co256 O281 2.020 . S
C257 O277 1.259 1_655 S
C257 O280 1.258 . S
Co258 N267 2.057 . S
Co258 O274 2.117 1_565 S
Co258 O275 2.020 1_565 S
Co258 O277 2.021 . S
Co258 O282 2.062 . S
C259 N261 1.316 . S
C259 N262 1.347 . S
C259 H264 0.931 . S
C260 N261 1.375 . S
C260 C263 1.350 . S
C260 H265 0.930 1_545 S
N261 Co256 2.057 . S
N261 C259 1.316 . S
N261 C260 1.375 . S
N262 C259 1.347 . S
N262 C263 1.373 . S
C263 C260 1.350 . S
C263 N262 1.373 . S
C263 H284 0.931 . S
H264 C259 0.931 . S
H265 C260 0.930 1_565 S
C266 O273 1.259 1_455 S
C266 O274 1.258 . S
N267 Co258 2.057 . S
N267 C268 1.316 . S
N267 C269 1.375 1_565 S
C268 N267 1.316 . S
C268 N270 1.347 . S
C268 H279 0.931 . S
C269 N267 1.375 1_545 S
C269 C271 1.345 1_545 S
C269 H278 0.930 . S
N270 C268 1.347 . S
N270 C271 1.384 . S
C271 C269 1.345 1_565 S
C271 N270 1.384 . S
C271 H285 0.926 1_565 S
C272 O275 1.256 . S
C272 O276 1.255 1_455 S
O273 Co256 2.021 . S
O273 C266 1.259 1_655 S
O274 Co258 2.117 1_545 S
O274 C266 1.258 . S
O275 Co258 2.020 1_545 S
O275 C272 1.256 . S
O276 Co256 2.062 . S
O276 C272 1.255 1_655 S
O277 C257 1.259 1_455 S
O277 Co258 2.021 . S
H278 C269 0.930 . S
H279 C268 0.931 . S
O280 Co256 2.117 1_565 S
O280 C257 1.258 . S
O281 Co256 2.020 . S
O281 C283 1.256 1_545 S
O282 Co258 2.062 . S
O282 C283 1.255 1_455 S
C283 O281 1.256 1_565 S
C283 O282 1.255 1_655 S
H284 C263 0.931 . S
H285 C271 0.926 1_545 S
Co286 N291 2.057 1_545 S
Co286 O303 2.021 . S
Co286 O306 2.062 1_545 S
Co286 O310 2.117 1_546 S
Co286 O311 2.020 1_556 S
C287 O307 1.259 . S
C287 O310 1.258 . S
Co288 N297 2.057 . S
Co288 O304 2.117 . S
Co288 O305 2.037 . S
Co288 O307 2.021 1_545 S
Co288 O312 2.062 . S
C289 N291 1.316 . S
C289 N292 1.347 . S
C289 H294 0.931 1_565 S
C290 N291 1.375 . S
C290 C293 1.350 . S
C290 H295 0.930 . S
N291 Co286 2.057 1_565 S
N291 C289 1.316 . S
N291 C290 1.375 . S
N292 C289 1.347 . S
N292 C293 1.373 . S
C293 C290 1.350 . S
C293 N292 1.373 . S
C293 H314 0.931 . S
H294 C289 0.931 1_545 S
H295 C290 0.930 . S
C296 O303 1.259 . S
C296 O304 1.258 1_556 S
N297 Co288 2.057 . S
N297 C298 1.316 . S
N297 C299 1.375 . S
C298 N297 1.316 . S
C298 N300 1.347 . S
C298 H309 0.931 . S
C299 N297 1.375 . S
C299 C301 1.350 . S
C299 H308 0.930 . S
N300 C298 1.347 . S
N300 C301 1.373 . S
C301 C299 1.350 . S
C301 N300 1.373 . S
C301 H315 0.931 . S
C302 O305 1.243 1_566 S
C302 O306 1.255 . S
O303 Co286 2.021 . S
O303 C296 1.259 . S
O304 Co288 2.117 . S
O304 C296 1.258 1_554 S
O305 Co288 2.037 . S
O305 C302 1.243 1_544 S
O306 Co286 2.062 1_565 S
O306 C302 1.255 . S
O307 C287 1.259 . S
O307 Co288 2.021 1_565 S
H308 C299 0.930 . S
H309 C298 0.931 . S
O310 Co286 2.117 1_564 S
O310 C287 1.258 . S
O311 Co286 2.020 1_554 S
O311 C313 1.256 . S
O312 Co288 2.062 . S
O312 C313 1.255 . S
C313 O311 1.256 . S
C313 O312 1.255 . S
H314 C293 0.931 . S
H315 C301 0.931 . S
Co316 N321 2.057 . S
Co316 O333 2.021 . S
Co316 O336 2.062 . S
Co316 O340 2.117 . S
Co316 O341 2.020 . S
C317 O337 1.259 . S
C317 O340 1.258 . S
Co318 N327 2.057 . S
Co318 O334 2.117 . S
Co318 O335 2.020 . S
Co318 O337 2.021 . S
Co318 O342 2.062 . S
C319 N321 1.316 . S
C319 N322 1.347 . S
C319 H324 0.931 . S
C320 N321 1.375 . S
C320 C323 1.350 . S
C320 H325 0.930 . S
N321 Co316 2.057 . S
N321 C319 1.316 . S
N321 C320 1.375 . S
N322 C319 1.347 . S
N322 C323 1.373 . S
C323 C320 1.350 . S
C323 N322 1.373 . S
C323 H344 0.931 . S
H324 C319 0.931 . S
H325 C320 0.930 . S
C326 O333 1.259 . S
C326 O334 1.258 . S
N327 Co318 2.057 . S
N327 C328 1.316 . S
N327 C329 1.375 . S
C328 N327 1.316 . S
C328 N330 1.347 . S
C328 H339 0.931 . S
C329 N327 1.375 . S
C329 C331 1.350 . S
C329 H338 0.930 . S
N330 C328 1.347 . S
N330 C331 1.373 . S
C331 C329 1.350 . S
C331 N330 1.373 . S
C331 H345 0.931 . S
C332 O335 1.256 . S
C332 O336 1.255 . S
O333 Co316 2.021 . S
O333 C326 1.259 . S
O334 Co318 2.117 . S
O334 C326 1.258 . S
O335 Co318 2.020 . S
O335 C332 1.256 . S
O336 Co316 2.062 . S
O336 C332 1.255 . S
O337 C317 1.259 . S
O337 Co318 2.021 . S
H338 C329 0.930 . S
H339 C328 0.931 . S
O340 Co316 2.117 . S
O340 C317 1.258 . S
O341 Co316 2.020 . S
O341 C343 1.256 . S
O342 Co318 2.062 . S
O342 C343 1.255 . S
C343 O341 1.256 . S
C343 O342 1.255 . S
H344 C323 0.931 . S
H345 C331 0.931 . S
Co346 N351 2.057 . S
Co346 O363 2.021 . S
Co346 O366 2.052 1_556 S
Co346 O370 2.117 1_455 S
Co346 O371 2.008 1_455 S
C347 O367 1.269 . S
C347 O370 1.252 1_554 S
Co348 N357 2.057 . S
Co348 O364 2.117 1_655 S
Co348 O365 2.020 1_655 S
Co348 O367 2.021 . S
Co348 O372 2.062 . S
C349 N351 1.316 . S
C349 N352 1.347 . S
C349 H354 0.931 . S
C350 N351 1.375 1_655 S
C350 C353 1.350 1_655 S
C350 H355 0.930 . S
N351 Co346 2.057 . S
N351 C349 1.316 . S
N351 C350 1.375 1_455 S
N352 C349 1.347 . S
N352 C353 1.373 . S
C353 C350 1.350 1_455 S
C353 N352 1.373 . S
C353 H374 0.931 1_455 S
H354 C349 0.931 . S
H355 C350 0.930 . S
C356 O363 1.259 1_554 S
C356 O364 1.258 . S
N357 Co348 2.057 . S
N357 C358 1.316 . S
N357 C359 1.375 1_655 S
C358 N357 1.316 . S
C358 N360 1.347 . S
C358 H369 0.931 . S
C359 N357 1.375 1_455 S
C359 C361 1.350 1_455 S
C359 H368 0.930 . S
N360 C358 1.347 . S
N360 C361 1.373 . S
C361 C359 1.350 1_655 S
C361 N360 1.373 . S
C361 H375 0.931 1_655 S
C362 O365 1.256 . S
C362 O366 1.279 . S
O363 Co346 2.021 . S
O363 C356 1.259 1_556 S
O364 Co348 2.117 1_455 S
O364 C356 1.258 . S
O365 Co348 2.020 1_455 S
O365 C362 1.256 . S
O366 Co346 2.052 1_554 S
O366 C362 1.279 . S
O367 C347 1.269 . S
O367 Co348 2.021 . S
H368 C359 0.930 . S
H369 C358 0.931 . S
O370 Co346 2.117 1_655 S
O370 C347 1.252 1_556 S
O371 Co346 2.008 1_655 S
O371 C373 1.272 . S
O372 Co348 2.062 . S
O372 C373 1.255 1_554 S
C373 O371 1.272 . S
C373 O372 1.255 1_556 S
H374 C353 0.931 1_655 S
H375 C361 0.931 1_455 S
C376 C377 1.349 . S
C376 C378 1.327 . S
C376 H401 0.950 . S
C377 C376 1.349 . S
C377 C393 1.349 . S
C378 C376 1.327 . S
C378 C397 1.429 . S
C378 H402 0.950 . S
C379 C396 1.574 . S
C379 C398 1.368 . S
C379 H403 0.949 . S
H380 C384 0.949 . S
C381 C382 1.349 . S
C381 C383 1.327 . S
C381 H404 0.950 . S
C382 C381 1.349 . S
C382 C394 1.349 . S
C383 C381 1.327 . S
C383 C399 1.429 . S
C383 H405 0.950 . S
C384 H380 0.949 . S
C384 C392 1.574 . S
C384 C400 1.368 . S
H385 C393 0.950 . S
H386 C391 0.950 . S
H387 C392 0.949 . S
H388 C394 0.950 . S
H389 C395 0.950 . S
H390 C396 0.949 . S
C391 H386 0.950 . S
C391 C393 1.327 . S
C391 C397 1.429 . S
C392 C384 1.574 . S
C392 H387 0.949 . S
C392 C398 1.368 . S
C393 C377 1.349 . S
C393 H385 0.950 . S
C393 C391 1.327 . S
C394 C382 1.349 . S
C394 H388 0.950 . S
C394 C395 1.327 . S
C395 H389 0.950 . S
C395 C394 1.327 . S
C395 C399 1.429 . S
C396 C379 1.574 . S
C396 H390 0.949 . S
C396 C400 1.368 . S
C397 C378 1.429 . S
C397 C391 1.429 . S
C397 C398 1.523 . S
C398 C379 1.368 . S
C398 C392 1.368 . S
C398 C397 1.523 . S
C399 C383 1.429 . S
C399 C395 1.429 . S
C399 C400 1.523 . S
C400 C384 1.368 . S
C400 C396 1.368 . S
C400 C399 1.523 . S
H401 C376 0.950 . S
H402 C378 0.950 . S
H403 C379 0.949 . S
H404 C381 0.950 . S
H405 C383 0.950 . S
C406 C407 1.349 . S
C406 C408 1.327 . S
C406 H431 0.950 . S
C407 C406 1.349 . S
C407 C423 1.349 . S
C408 C406 1.327 . S
C408 C427 1.429 . S
C408 H432 0.950 . S
C409 C426 1.574 . S
C409 C428 1.368 . S
C409 H433 0.949 . S
H410 C414 0.949 . S
C411 C412 1.349 . S
C411 C413 1.327 . S
C411 H434 0.950 . S
C412 C411 1.349 . S
C412 C424 1.349 . S
C413 C411 1.327 . S
C413 C429 1.429 . S
C413 H435 0.950 . S
C414 H410 0.949 . S
C414 C422 1.574 . S
C414 C430 1.368 . S
H415 C423 0.950 . S
H416 C421 0.950 . S
H417 C422 0.949 . S
H418 C424 0.950 . S
H419 C425 0.950 . S
H420 C426 0.949 . S
C421 H416 0.950 . S
C421 C423 1.327 . S
C421 C427 1.429 . S
C422 C414 1.574 . S
C422 H417 0.949 . S
C422 C428 1.368 . S
C423 C407 1.349 . S
C423 H415 0.950 . S
C423 C421 1.327 . S
C424 C412 1.349 . S
C424 H418 0.950 . S
C424 C425 1.327 . S
C425 H419 0.950 . S
C425 C424 1.327 . S
C425 C429 1.429 . S
C426 C409 1.574 . S
C426 H420 0.949 . S
C426 C430 1.368 . S
C427 C408 1.429 . S
C427 C421 1.429 . S
C427 C428 1.523 . S
C428 C409 1.368 . S
C428 C422 1.368 . S
C428 C427 1.523 . S
C429 C413 1.429 . S
C429 C425 1.429 . S
C429 C430 1.523 . S
C430 C414 1.368 . S
C430 C426 1.368 . S
C430 C429 1.523 . S
H431 C406 0.950 . S
H432 C408 0.950 . S
H433 C409 0.949 . S
H434 C411 0.950 . S
H435 C413 0.950 . S
C436 C437 1.349 . S
C436 C438 1.327 . S
C436 H461 0.950 . S
C437 C436 1.349 . S
C437 C453 1.349 . S
C438 C436 1.327 . S
C438 C457 1.429 . S
C438 H462 0.950 . S
C439 C456 1.574 . S
C439 C458 1.368 . S
C439 H463 0.949 . S
H440 C444 0.949 . S
C441 C442 1.349 . S
C441 C443 1.327 . S
C441 H464 0.950 . S
C442 C441 1.349 . S
C442 C454 1.349 . S
C443 C441 1.327 . S
C443 C459 1.429 . S
C443 H465 0.950 . S
C444 H440 0.949 . S
C444 C452 1.574 . S
C444 C460 1.368 . S
H445 C453 0.950 . S
H446 C451 0.950 . S
H447 C452 0.949 . S
H448 C454 0.950 . S
H449 C455 0.950 . S
H450 C456 0.949 . S
C451 H446 0.950 . S
C451 C453 1.327 . S
C451 C457 1.429 . S
C452 C444 1.574 . S
C452 H447 0.949 . S
C452 C458 1.368 . S
C453 C437 1.349 . S
C453 H445 0.950 . S
C453 C451 1.327 . S
C454 C442 1.349 . S
C454 H448 0.950 . S
C454 C455 1.327 . S
C455 H449 0.950 . S
C455 C454 1.327 . S
C455 C459 1.429 . S
C456 C439 1.574 . S
C456 H450 0.949 . S
C456 C460 1.368 . S
C457 C438 1.429 . S
C457 C451 1.429 . S
C457 C458 1.523 . S
C458 C439 1.368 . S
C458 C452 1.368 . S
C458 C457 1.523 . S
C459 C443 1.429 . S
C459 C455 1.429 . S
C459 C460 1.523 . S
C460 C444 1.368 . S
C460 C456 1.368 . S
C460 C459 1.523 . S
H461 C436 0.950 . S
H462 C438 0.950 . S
H463 C439 0.949 . S
H464 C441 0.950 . S
H465 C443 0.950 . S
C466 C467 1.349 . S
C466 C468 1.327 . S
C466 H491 0.950 . S
C467 C466 1.349 . S
C467 C483 1.349 . S
C468 C466 1.327 . S
C468 C487 1.429 . S
C468 H492 0.950 . S
C469 C486 1.574 . S
C469 C488 1.368 . S
C469 H493 0.949 . S
H470 C474 0.949 . S
C471 C472 1.349 . S
C471 C473 1.327 . S
C471 H494 0.950 . S
C472 C471 1.349 . S
C472 C484 1.349 . S
C473 C471 1.327 . S
C473 C489 1.429 . S
C473 H495 0.950 . S
C474 H470 0.949 . S
C474 C482 1.574 . S
C474 C490 1.368 . S
H475 C483 0.950 . S
H476 C481 0.950 . S
H477 C482 0.949 . S
H478 C484 0.950 . S
H479 C485 0.950 . S
H480 C486 0.949 . S
C481 H476 0.950 . S
C481 C483 1.327 . S
C481 C487 1.429 . S
C482 C474 1.574 . S
C482 H477 0.949 . S
C482 C488 1.368 . S
C483 C467 1.349 . S
C483 H475 0.950 . S
C483 C481 1.327 . S
C484 C472 1.349 . S
C484 H478 0.950 . S
C484 C485 1.327 . S
C485 H479 0.950 . S
C485 C484 1.327 . S
C485 C489 1.429 . S
C486 C469 1.574 . S
C486 H480 0.949 . S
C486 C490 1.368 . S
C487 C468 1.429 . S
C487 C481 1.429 . S
C487 C488 1.523 . S
C488 C469 1.368 . S
C488 C482 1.368 . S
C488 C487 1.523 . S
C489 C473 1.429 . S
C489 C485 1.429 . S
C489 C490 1.523 . S
C490 C474 1.368 . S
C490 C486 1.368 . S
C490 C489 1.523 . S
H491 C466 0.950 . S
H492 C468 0.950 . S
H493 C469 0.949 . S
H494 C471 0.950 . S
H495 C473 0.950 . S
C496 C497 1.349 . S
C496 C498 1.327 . S
C496 H521 0.950 . S
C497 C496 1.349 . S
C497 C513 1.349 . S
C498 C496 1.327 . S
C498 C517 1.429 . S
C498 H522 0.950 . S
C499 C516 1.574 . S
C499 C518 1.368 . S
C499 H523 0.949 . S
H500 C504 0.949 . S
C501 C502 1.349 . S
C501 C503 1.327 . S
C501 H524 0.950 . S
C502 C501 1.349 . S
C502 C514 1.349 . S
C503 C501 1.327 . S
C503 C519 1.429 . S
C503 H525 0.950 . S
C504 H500 0.949 . S
C504 C512 1.574 . S
C504 C520 1.368 . S
H505 C513 0.950 . S
H506 C511 0.950 . S
H507 C512 0.949 . S
H508 C514 0.950 . S
H509 C515 0.950 . S
H510 C516 0.949 . S
C511 H506 0.950 . S
C511 C513 1.327 . S
C511 C517 1.429 . S
C512 C504 1.574 . S
C512 H507 0.949 . S
C512 C518 1.368 . S
C513 C497 1.349 . S
C513 H505 0.950 . S
C513 C511 1.327 . S
C514 C502 1.349 . S
C514 H508 0.950 . S
C514 C515 1.327 . S
C515 H509 0.950 . S
C515 C514 1.327 . S
C515 C519 1.429 . S
C516 C499 1.574 . S
C516 H510 0.949 . S
C516 C520 1.368 . S
C517 C498 1.429 . S
C517 C511 1.429 . S
C517 C518 1.523 . S
C518 C499 1.368 . S
C518 C512 1.368 . S
C518 C517 1.523 . S
C519 C503 1.429 . S
C519 C515 1.429 . S
C519 C520 1.523 . S
C520 C504 1.368 . S
C520 C516 1.368 . S
C520 C519 1.523 . S
H521 C496 0.950 . S
H522 C498 0.950 . S
H523 C499 0.949 . S
H524 C501 0.950 . S
H525 C503 0.950 . S
C526 C527 1.349 . S
C526 C528 1.327 . S
C526 H551 0.950 . S
C527 C526 1.349 . S
C527 C543 1.349 . S
C528 C526 1.327 . S
C528 C547 1.429 . S
C528 H552 0.950 . S
C529 C546 1.574 . S
C529 C548 1.368 . S
C529 H553 0.949 . S
H530 C534 0.949 . S
C531 C532 1.349 . S
C531 C533 1.327 . S
C531 H554 0.950 . S
C532 C531 1.349 . S
C532 C544 1.349 . S
C533 C531 1.327 . S
C533 C549 1.429 . S
C533 H555 0.950 . S
C534 H530 0.949 . S
C534 C542 1.574 . S
C534 C550 1.368 . S
H535 C543 0.950 . S
H536 C541 0.950 . S
H537 C542 0.949 . S
H538 C544 0.950 . S
H539 C545 0.950 . S
H540 C546 0.949 . S
C541 H536 0.950 . S
C541 C543 1.327 . S
C541 C547 1.429 . S
C542 C534 1.574 . S
C542 H537 0.949 . S
C542 C548 1.368 . S
C543 C527 1.349 . S
C543 H535 0.950 . S
C543 C541 1.327 . S
C544 C532 1.349 . S
C544 H538 0.950 . S
C544 C545 1.327 . S
C545 H539 0.950 . S
C545 C544 1.327 . S
C545 C549 1.429 . S
C546 C529 1.574 . S
C546 H540 0.949 . S
C546 C550 1.368 . S
C547 C528 1.429 . S
C547 C541 1.429 . S
C547 C548 1.523 . S
C548 C529 1.368 . S
C548 C542 1.368 . S
C548 C547 1.523 . S
C549 C533 1.429 . S
C549 C545 1.429 . S
C549 C550 1.523 . S
C550 C534 1.368 . S
C550 C546 1.368 . S
C550 C549 1.523 . S
H551 C526 0.950 . S
H552 C528 0.950 . S
H553 C529 0.949 . S
H554 C531 0.950 . S
H555 C533 0.950 . S
C556 C557 1.349 . S
C556 C558 1.327 . S
C556 H581 0.950 . S
C557 C556 1.349 . S
C557 C573 1.349 . S
C558 C556 1.327 . S
C558 C577 1.429 . S
C558 H582 0.950 . S
C559 C576 1.574 . S
C559 C578 1.368 . S
C559 H583 0.949 . S
H560 C564 0.949 . S
C561 C562 1.349 . S
C561 C563 1.327 . S
C561 H584 0.950 1_556 S
C562 C561 1.349 . S
C562 C574 1.349 . S
C563 C561 1.327 . S
C563 C579 1.429 . S
C563 H585 0.950 . S
C564 H560 0.949 . S
C564 C572 1.574 . S
C564 C580 1.368 . S
H565 C573 0.950 . S
H566 C571 0.950 . S
H567 C572 0.949 . S
H568 C574 0.950 . S
H569 C575 0.950 . S
H570 C576 0.949 . S
C571 H566 0.950 . S
C571 C573 1.327 . S
C571 C577 1.429 . S
C572 C564 1.574 . S
C572 H567 0.949 . S
C572 C578 1.368 . S
C573 C557 1.349 . S
C573 H565 0.950 . S
C573 C571 1.327 . S
C574 C562 1.349 . S
C574 H568 0.950 . S
C574 C575 1.327 . S
C575 H569 0.950 . S
C575 C574 1.327 . S
C575 C579 1.429 . S
C576 C559 1.574 . S
C576 H570 0.949 . S
C576 C580 1.368 . S
C577 C558 1.429 . S
C577 C571 1.429 . S
C577 C578 1.523 . S
C578 C559 1.368 . S
C578 C572 1.368 . S
C578 C577 1.523 . S
C579 C563 1.429 . S
C579 C575 1.429 . S
C579 C580 1.523 . S
C580 C564 1.368 . S
C580 C576 1.368 . S
C580 C579 1.523 . S
H581 C556 0.950 . S
H582 C558 0.950 . S
H583 C559 0.949 . S
H584 C561 0.950 1_554 S
H585 C563 0.950 . S
C586 C587 1.349 . S
C586 C588 1.327 . S
C586 H611 0.950 . S
C587 C586 1.349 . S
C587 C603 1.349 . S
C588 C586 1.327 . S
C588 C607 1.429 . S
C588 H612 0.950 . S
C589 C606 1.574 . S
C589 C608 1.368 . S
C589 H613 0.949 . S
H590 C594 0.949 . S
C591 C592 1.349 . S
C591 C593 1.327 . S
C591 H614 0.950 . S
C592 C591 1.349 . S
C592 C604 1.349 . S
C593 C591 1.327 . S
C593 C609 1.429 . S
C593 H615 0.950 . S
C594 H590 0.949 . S
C594 C602 1.574 . S
C594 C610 1.368 . S
H595 C603 0.950 . S
H596 C601 0.950 . S
H597 C602 0.949 . S
H598 C604 0.950 . S
H599 C605 0.950 . S
H600 C606 0.949 . S
C601 H596 0.950 . S
C601 C603 1.327 . S
C601 C607 1.429 . S
C602 C594 1.574 . S
C602 H597 0.949 . S
C602 C608 1.368 . S
C603 C587 1.349 . S
C603 H595 0.950 . S
C603 C601 1.327 . S
C604 C592 1.349 . S
C604 H598 0.950 . S
C604 C605 1.327 . S
C605 H599 0.950 . S
C605 C604 1.327 . S
C605 C609 1.429 . S
C606 C589 1.574 . S
C606 H600 0.949 . S
C606 C610 1.368 . S
C607 C588 1.429 . S
C607 C601 1.429 . S
C607 C608 1.523 . S
C608 C589 1.368 . S
C608 C602 1.368 . S
C608 C607 1.523 . S
C609 C593 1.429 . S
C609 C605 1.429 . S
C609 C610 1.523 . S
C610 C594 1.368 . S
C610 C606 1.368 . S
C610 C609 1.523 . S
H611 C586 0.950 . S
H612 C588 0.950 . S
H613 C589 0.949 . S
H614 C591 0.950 . S
H615 C593 0.950 . S
C616 C617 1.349 . S
C616 C618 1.327 . S
C616 H641 0.950 . S
C617 C616 1.349 . S
C617 C633 1.349 . S
C618 C616 1.327 . S
C618 C637 1.429 . S
C618 H642 0.950 . S
C619 C636 1.574 . S
C619 C638 1.368 . S
C619 H643 0.949 . S
H620 C624 0.949 . S
C621 C622 1.349 . S
C621 C623 1.327 . S
C621 H644 0.950 . S
C622 C621 1.349 . S
C622 C634 1.349 . S
C623 C621 1.327 . S
C623 C639 1.429 . S
C623 H645 0.950 . S
C624 H620 0.949 . S
C624 C632 1.574 . S
C624 C640 1.368 . S
H625 C633 0.950 . S
H626 C631 0.950 . S
H627 C632 0.949 . S
H628 C634 0.950 1_556 S
H629 C635 0.950 . S
H630 C636 0.949 . S
C631 H626 0.950 . S
C631 C633 1.327 . S
C631 C637 1.429 . S
C632 C624 1.574 . S
C632 H627 0.949 . S
C632 C638 1.368 . S
C633 C617 1.349 . S
C633 H625 0.950 . S
C633 C631 1.327 . S
C634 C622 1.349 . S
C634 H628 0.950 1_554 S
C634 C635 1.327 . S
C635 H629 0.950 . S
C635 C634 1.327 . S
C635 C639 1.429 . S
C636 C619 1.574 . S
C636 H630 0.949 . S
C636 C640 1.368 . S
C637 C618 1.429 . S
C637 C631 1.429 . S
C637 C638 1.523 . S
C638 C619 1.368 . S
C638 C632 1.368 . S
C638 C637 1.523 . S
C639 C623 1.429 . S
C639 C635 1.429 . S
C639 C640 1.523 . S
C640 C624 1.368 . S
C640 C636 1.368 . S
C640 C639 1.523 . S
H641 C616 0.950 . S
H642 C618 0.950 . S
H643 C619 0.949 . S
H644 C621 0.950 . S
H645 C623 0.950 . S
C646 C647 1.349 . S
C646 C648 1.327 . S
C646 H671 0.950 . S
C647 C646 1.349 . S
C647 C663 1.349 . S
C648 C646 1.327 . S
C648 C667 1.429 . S
C648 H672 0.950 . S
C649 C666 1.574 . S
C649 C668 1.368 . S
C649 H673 0.949 . S
H650 C654 0.949 . S
C651 C652 1.349 . S
C651 C653 1.327 . S
C651 H674 0.950 . S
C652 C651 1.349 . S
C652 C664 1.349 . S
C653 C651 1.327 . S
C653 C669 1.429 . S
C653 H675 0.950 . S
C654 H650 0.949 . S
C654 C662 1.574 . S
C654 C670 1.368 . S
H655 C663 0.950 . S
H656 C661 0.950 . S
H657 C662 0.949 . S
H658 C664 0.950 . S
H659 C665 0.950 . S
H660 C666 0.949 . S
C661 H656 0.950 . S
C661 C663 1.327 . S
C661 C667 1.429 . S
C662 C654 1.574 . S
C662 H657 0.949 . S
C662 C668 1.368 . S
C663 C647 1.349 . S
C663 H655 0.950 . S
C663 C661 1.327 . S
C664 C652 1.349 . S
C664 H658 0.950 . S
C664 C665 1.327 . S
C665 H659 0.950 . S
C665 C664 1.327 . S
C665 C669 1.429 . S
C666 C649 1.574 . S
C666 H660 0.949 . S
C666 C670 1.368 . S
C667 C648 1.429 . S
C667 C661 1.429 . S
C667 C668 1.523 . S
C668 C649 1.368 . S
C668 C662 1.368 . S
C668 C667 1.523 . S
C669 C653 1.429 . S
C669 C665 1.429 . S
C669 C670 1.523 . S
C670 C654 1.368 . S
C670 C666 1.368 . S
C670 C669 1.523 . S
H671 C646 0.950 . S
H672 C648 0.950 . S
H673 C649 0.949 . S
H674 C651 0.950 . S
H675 C653 0.950 . S
C676 C677 1.349 . S
C676 C678 1.327 . S
C676 H701 0.950 . S
C677 C676 1.349 . S
C677 C693 1.349 . S
C678 C676 1.327 . S
C678 C697 1.429 . S
C678 H702 0.950 . S
C679 C696 1.574 . S
C679 C698 1.368 . S
C679 H703 0.949 . S
H680 C684 0.949 . S
C681 C682 1.349 . S
C681 C683 1.327 . S
C681 H704 0.950 . S
C682 C681 1.349 . S
C682 C694 1.349 . S
C683 C681 1.327 . S
C683 C699 1.429 . S
C683 H705 0.950 . S
C684 H680 0.949 . S
C684 C692 1.574 . S
C684 C700 1.368 . S
H685 C693 0.950 . S
H686 C691 0.950 . S
H687 C692 0.949 . S
H688 C694 0.950 1_455 S
H689 C695 0.950 . S
H690 C696 0.949 . S
C691 H686 0.950 . S
C691 C693 1.327 . S
C691 C697 1.429 . S
C692 C684 1.574 . S
C692 H687 0.949 . S
C692 C698 1.368 . S
C693 C677 1.349 . S
C693 H685 0.950 . S
C693 C691 1.327 . S
C694 C682 1.349 . S
C694 H688 0.950 1_655 S
C694 C695 1.327 . S
C695 H689 0.950 . S
C695 C694 1.327 . S
C695 C699 1.429 . S
C696 C679 1.574 . S
C696 H690 0.949 . S
C696 C700 1.368 . S
C697 C678 1.429 . S
C697 C691 1.429 . S
C697 C698 1.523 . S
C698 C679 1.368 . S
C698 C692 1.368 . S
C698 C697 1.523 . S
C699 C683 1.429 . S
C699 C695 1.429 . S
C699 C700 1.523 . S
C700 C684 1.368 . S
C700 C696 1.368 . S
C700 C699 1.523 . S
H701 C676 0.950 . S
H702 C678 0.950 . S
H703 C679 0.949 . S
H704 C681 0.950 . S
H705 C683 0.950 . S
C706 C707 1.349 . S
C706 C708 1.327 . S
C706 H731 0.950 . S
C707 C706 1.349 . S
C707 C723 1.349 . S
C708 C706 1.327 . S
C708 C727 1.429 . S
C708 H732 0.950 . S
C709 C726 1.574 . S
C709 C728 1.368 . S
C709 H733 0.949 . S
H710 C714 0.949 . S
C711 C712 1.349 . S
C711 C713 1.327 . S
C711 H734 0.950 . S
C712 C711 1.349 . S
C712 C724 1.349 . S
C713 C711 1.327 . S
C713 C729 1.429 . S
C713 H735 0.950 . S
C714 H710 0.949 . S
C714 C722 1.574 . S
C714 C730 1.368 . S
H715 C723 0.950 . S
H716 C721 0.950 . S
H717 C722 0.949 . S
H718 C724 0.950 . S
H719 C725 0.950 . S
H720 C726 0.949 . S
C721 H716 0.950 . S
C721 C723 1.327 . S
C721 C727 1.429 . S
C722 C714 1.574 . S
C722 H717 0.949 . S
C722 C728 1.368 . S
C723 C707 1.349 . S
C723 H715 0.950 . S
C723 C721 1.327 . S
C724 C712 1.349 . S
C724 H718 0.950 . S
C724 C725 1.327 . S
C725 H719 0.950 . S
C725 C724 1.327 . S
C725 C729 1.429 . S
C726 C709 1.574 . S
C726 H720 0.949 . S
C726 C730 1.368 . S
C727 C708 1.429 . S
C727 C721 1.429 . S
C727 C728 1.523 . S
C728 C709 1.368 . S
C728 C722 1.368 . S
C728 C727 1.523 . S
C729 C713 1.429 . S
C729 C725 1.429 . S
C729 C730 1.523 . S
C730 C714 1.368 . S
C730 C726 1.368 . S
C730 C729 1.523 . S
H731 C706 0.950 . S
H732 C708 0.950 . S
H733 C709 0.949 . S
H734 C711 0.950 . S
H735 C713 0.950 . S
C736 C737 1.349 . S
C736 C738 1.327 . S
C736 H761 0.950 . S
C737 C736 1.349 . S
C737 C753 1.349 . S
C738 C736 1.327 . S
C738 C757 1.429 . S
C738 H762 0.950 . S
C739 C756 1.574 . S
C739 C758 1.368 . S
C739 H763 0.949 . S
H740 C744 0.949 . S
C741 C742 1.349 . S
C741 C743 1.327 . S
C741 H764 0.950 . S
C742 C741 1.349 . S
C742 C754 1.349 . S
C743 C741 1.327 . S
C743 C759 1.429 . S
C743 H765 0.950 . S
C744 H740 0.949 . S
C744 C752 1.574 . S
C744 C760 1.368 . S
H745 C753 0.950 . S
H746 C751 0.950 . S
H747 C752 0.949 . S
H748 C754 0.950 1_445 S
H749 C755 0.950 . S
H750 C756 0.949 . S
C751 H746 0.950 . S
C751 C753 1.327 . S
C751 C757 1.429 . S
C752 C744 1.574 . S
C752 H747 0.949 . S
C752 C758 1.368 . S
C753 C737 1.349 . S
C753 H745 0.950 . S
C753 C751 1.327 . S
C754 C742 1.349 . S
C754 H748 0.950 1_665 S
C754 C755 1.327 . S
C755 H749 0.950 . S
C755 C754 1.327 . S
C755 C759 1.429 . S
C756 C739 1.574 . S
C756 H750 0.949 . S
C756 C760 1.368 . S
C757 C738 1.429 . S
C757 C751 1.429 . S
C757 C758 1.523 . S
C758 C739 1.368 . S
C758 C752 1.368 . S
C758 C757 1.523 . S
C759 C743 1.429 . S
C759 C755 1.429 . S
C759 C760 1.523 . S
C760 C744 1.368 . S
C760 C756 1.368 . S
C760 C759 1.523 . S
H761 C736 0.950 . S
H762 C738 0.950 . S
H763 C739 0.949 . S
H764 C741 0.950 . S
H765 C743 0.950 . S
C766 C767 1.349 . S
C766 C768 1.327 . S
C766 H791 0.950 . S
C767 C766 1.349 . S
C767 C783 1.349 . S
C768 C766 1.327 . S
C768 C787 1.429 . S
C768 H792 0.950 . S
C769 C786 1.574 . S
C769 C788 1.368 . S
C769 H793 0.949 . S
H770 C774 0.949 . S
C771 C772 1.349 . S
C771 C773 1.327 . S
C771 H794 0.950 . S
C772 C771 1.349 . S
C772 C784 1.349 . S
C773 C771 1.327 . S
C773 C789 1.429 . S
C773 H795 0.950 . S
C774 H770 0.949 . S
C774 C782 1.574 . S
C774 C790 1.368 . S
H775 C783 0.950 . S
H776 C781 0.950 . S
H777 C782 0.949 . S
H778 C784 0.950 . S
H779 C785 0.950 . S
H780 C786 0.949 . S
C781 H776 0.950 . S
C781 C783 1.327 . S
C781 C787 1.429 . S
C782 C774 1.574 . S
C782 H777 0.949 . S
C782 C788 1.368 . S
C783 C767 1.349 . S
C783 H775 0.950 . S
C783 C781 1.327 . S
C784 C772 1.349 . S
C784 H778 0.950 . S
C784 C785 1.327 . S
C785 H779 0.950 . S
C785 C784 1.327 . S
C785 C789 1.429 . S
C786 C769 1.574 . S
C786 H780 0.949 . S
C786 C790 1.368 . S
C787 C768 1.429 . S
C787 C781 1.429 . S
C787 C788 1.523 . S
C788 C769 1.368 . S
C788 C782 1.368 . S
C788 C787 1.523 . S
C789 C773 1.429 . S
C789 C785 1.429 . S
C789 C790 1.523 . S
C790 C774 1.368 . S
C790 C786 1.368 . S
C790 C789 1.523 . S
H791 C766 0.950 . S
H792 C768 0.950 . S
H793 C769 0.949 . S
H794 C771 0.950 . S
H795 C773 0.950 . S
C796 C797 1.349 . S
C796 C798 1.327 . S
C796 H821 0.950 . S
C797 C796 1.349 . S
C797 C813 1.349 . S
C798 C796 1.327 . S
C798 C817 1.429 . S
C798 H822 0.950 . S
C799 C816 1.574 . S
C799 C818 1.368 . S
C799 H823 0.949 . S
H800 C804 0.949 . S
C801 C802 1.349 . S
C801 C803 1.327 . S
C801 H824 0.950 . S
C802 C801 1.349 . S
C802 C814 1.349 . S
C803 C801 1.327 . S
C803 C819 1.429 . S
C803 H825 0.950 . S
C804 H800 0.949 . S
C804 C812 1.574 . S
C804 C820 1.368 . S
H805 C813 0.950 . S
H806 C811 0.950 . S
H807 C812 0.949 . S
H808 C814 0.950 . S
H809 C815 0.950 . S
H810 C816 0.949 . S
C811 H806 0.950 . S
C811 C813 1.327 . S
C811 C817 1.429 . S
C812 C804 1.574 . S
C812 H807 0.949 . S
C812 C818 1.368 . S
C813 C797 1.349 . S
C813 H805 0.950 . S
C813 C811 1.327 . S
C814 C802 1.349 . S
C814 H808 0.950 . S
C814 C815 1.327 . S
C815 H809 0.950 . S
C815 C814 1.327 . S
C815 C819 1.429 . S
C816 C799 1.574 . S
C816 H810 0.949 . S
C816 C820 1.368 . S
C817 C798 1.429 . S
C817 C811 1.429 . S
C817 C818 1.523 . S
C818 C799 1.368 . S
C818 C812 1.368 . S
C818 C817 1.523 . S
C819 C803 1.429 . S
C819 C815 1.429 . S
C819 C820 1.523 . S
C820 C804 1.368 . S
C820 C816 1.368 . S
C820 C819 1.523 . S
H821 C796 0.950 . S
H822 C798 0.950 . S
H823 C799 0.949 . S
H824 C801 0.950 . S
H825 C803 0.950 . S
C826 C827 1.349 . S
C826 C828 1.327 . S
C826 H851 0.950 . S
C827 C826 1.349 . S
C827 C843 1.349 . S
C828 C826 1.327 . S
C828 C847 1.429 . S
C828 H852 0.950 . S
C829 C846 1.574 . S
C829 C848 1.368 . S
C829 H853 0.949 . S
H830 C834 0.949 . S
C831 C832 1.349 . S
C831 C833 1.327 . S
C831 H854 0.950 . S
C832 C831 1.349 . S
C832 C844 1.349 . S
C833 C831 1.327 . S
C833 C849 1.429 . S
C833 H855 0.950 . S
C834 H830 0.949 . S
C834 C842 1.574 . S
C834 C850 1.368 . S
H835 C843 0.950 . S
H836 C841 0.950 . S
H837 C842 0.949 . S
H838 C844 0.950 . S
H839 C845 0.950 . S
H840 C846 0.949 . S
C841 H836 0.950 . S
C841 C843 1.327 . S
C841 C847 1.429 . S
C842 C834 1.574 . S
C842 H837 0.949 . S
C842 C848 1.368 . S
C843 C827 1.349 . S
C843 H835 0.950 . S
C843 C841 1.327 . S
C844 C832 1.349 . S
C844 H838 0.950 . S
C844 C845 1.327 . S
C845 H839 0.950 . S
C845 C844 1.327 . S
C845 C849 1.429 . S
C846 C829 1.574 . S
C846 H840 0.949 . S
C846 C850 1.368 . S
C847 C828 1.429 . S
C847 C841 1.429 . S
C847 C848 1.523 . S
C848 C829 1.368 . S
C848 C842 1.368 . S
C848 C847 1.523 . S
C849 C833 1.429 . S
C849 C845 1.429 . S
C849 C850 1.523 . S
C850 C834 1.368 . S
C850 C846 1.368 . S
C850 C849 1.523 . S
H851 C826 0.950 . S
H852 C828 0.950 . S
H853 C829 0.949 . S
H854 C831 0.950 . S
H855 C833 0.950 . S
C856 C857 1.349 . S
C856 C858 1.327 . S
C856 H881 0.950 . S
C857 C856 1.349 . S
C857 C873 1.349 . S
C858 C856 1.327 . S
C858 C877 1.429 . S
C858 H882 0.950 . S
C859 C876 1.574 . S
C859 C878 1.368 . S
C859 H883 0.949 . S
H860 C864 0.949 . S
C861 C862 1.349 1_554 S
C861 C863 1.327 1_554 S
C861 H884 0.950 . S
C862 C861 1.349 1_556 S
C862 C874 1.349 . S
C863 C861 1.327 1_556 S
C863 C879 1.429 . S
C863 H885 0.950 1_556 S
C864 H860 0.949 . S
C864 C872 1.574 . S
C864 C880 1.368 . S
H865 C873 0.950 . S
H866 C871 0.950 . S
H867 C872 0.949 . S
H868 C874 0.950 1_545 S
H869 C875 0.950 . S
H870 C876 0.949 . S
C871 H866 0.950 . S
C871 C873 1.327 . S
C871 C877 1.429 . S
C872 C864 1.574 . S
C872 H867 0.949 . S
C872 C878 1.368 . S
C873 C857 1.349 . S
C873 H865 0.950 . S
C873 C871 1.327 . S
C874 C862 1.349 . S
C874 H868 0.950 1_565 S
C874 C875 1.327 . S
C875 H869 0.950 . S
C875 C874 1.327 . S
C875 C879 1.429 . S
C876 C859 1.574 . S
C876 H870 0.949 . S
C876 C880 1.368 . S
C877 C858 1.429 . S
C877 C871 1.429 . S
C877 C878 1.523 . S
C878 C859 1.368 . S
C878 C872 1.368 . S
C878 C877 1.523 . S
C879 C863 1.429 . S
C879 C875 1.429 . S
C879 C880 1.523 . S
C880 C864 1.368 . S
C880 C876 1.368 . S
C880 C879 1.523 . S
H881 C856 0.950 . S
H882 C858 0.950 . S
H883 C859 0.949 . S
H884 C861 0.950 . S
H885 C863 0.950 1_554 S
C886 C887 1.349 . S
C886 C888 1.327 . S
C886 H911 0.950 . S
C887 C886 1.349 . S
C887 C903 1.349 . S
C888 C886 1.327 . S
C888 C907 1.429 . S
C888 H912 0.950 . S
C889 C906 1.574 . S
C889 C908 1.368 . S
C889 H913 0.949 . S
H890 C894 0.949 . S
C891 C892 1.349 . S
C891 C893 1.327 . S
C891 H914 0.950 . S
C892 C891 1.349 . S
C892 C904 1.349 . S
C893 C891 1.327 . S
C893 C909 1.429 . S
C893 H915 0.950 . S
C894 H890 0.949 . S
C894 C902 1.574 . S
C894 C910 1.368 . S
H895 C903 0.950 . S
H896 C901 0.950 . S
H897 C902 0.949 . S
H898 C904 0.950 . S
H899 C905 0.950 . S
H900 C906 0.949 . S
C901 H896 0.950 . S
C901 C903 1.327 . S
C901 C907 1.429 . S
C902 C894 1.574 . S
C902 H897 0.949 . S
C902 C908 1.368 . S
C903 C887 1.349 . S
C903 H895 0.950 . S
C903 C901 1.327 . S
C904 C892 1.349 . S
C904 H898 0.950 . S
C904 C905 1.327 . S
C905 H899 0.950 . S
C905 C904 1.327 . S
C905 C909 1.429 . S
C906 C889 1.574 . S
C906 H900 0.949 . S
C906 C910 1.368 . S
C907 C888 1.429 . S
C907 C901 1.429 . S
C907 C908 1.523 . S
C908 C889 1.368 . S
C908 C902 1.368 . S
C908 C907 1.523 . S
C909 C893 1.429 . S
C909 C905 1.429 . S
C909 C910 1.523 . S
C910 C894 1.368 . S
C910 C906 1.368 . S
C910 C909 1.523 . S
H911 C886 0.950 . S
H912 C888 0.950 . S
H913 C889 0.949 . S
H914 C891 0.950 . S
H915 C893 0.950 . S
C916 C917 1.349 . S
C916 C918 1.327 . S
C916 H941 0.950 . S
C917 C916 1.349 . S
C917 C933 1.349 . S
C918 C916 1.327 . S
C918 C937 1.429 . S
C918 H942 0.950 . S
C919 C936 1.574 . S
C919 C938 1.368 . S
C919 H943 0.949 . S
H920 C924 0.949 . S
C921 C922 1.349 . S
C921 C923 1.327 . S
C921 H944 0.950 . S
C922 C921 1.349 . S
C922 C934 1.349 . S
C923 C921 1.327 . S
C923 C939 1.429 . S
C923 H945 0.950 . S
C924 H920 0.949 . S
C924 C932 1.574 . S
C924 C940 1.368 . S
H925 C933 0.950 . S
H926 C931 0.950 . S
H927 C932 0.949 . S
H928 C934 0.950 . S
H929 C935 0.950 . S
H930 C936 0.949 . S
C931 H926 0.950 . S
C931 C933 1.327 . S
C931 C937 1.429 . S
C932 C924 1.574 . S
C932 H927 0.949 . S
C932 C938 1.368 . S
C933 C917 1.349 . S
C933 H925 0.950 . S
C933 C931 1.327 . S
C934 C922 1.349 . S
C934 H928 0.950 . S
C934 C935 1.327 . S
C935 H929 0.950 . S
C935 C934 1.327 . S
C935 C939 1.429 . S
C936 C919 1.574 . S
C936 H930 0.949 . S
C936 C940 1.368 . S
C937 C918 1.429 . S
C937 C931 1.429 . S
C937 C938 1.523 . S
C938 C919 1.368 . S
C938 C932 1.368 . S
C938 C937 1.523 . S
C939 C923 1.429 . S
C939 C935 1.429 . S
C939 C940 1.523 . S
C940 C924 1.368 . S
C940 C936 1.368 . S
C940 C939 1.523 . S
H941 C916 0.950 . S
H942 C918 0.950 . S
H943 C919 0.949 . S
H944 C921 0.950 . S
H945 C923 0.950 . S
C946 C947 1.349 . S
C946 C948 1.327 . S
C946 H971 0.950 . S
C947 C946 1.349 . S
C947 C963 1.349 . S
C948 C946 1.327 . S
C948 C967 1.429 . S
C948 H972 0.950 . S
C949 C966 1.574 . S
C949 C968 1.368 . S
C949 H973 0.949 . S
H950 C954 0.949 . S
C951 C952 1.349 . S
C951 C953 1.327 . S
C951 H974 0.950 . S
C952 C951 1.349 . S
C952 C964 1.349 . S
C953 C951 1.327 . S
C953 C969 1.429 . S
C953 H975 0.950 . S
C954 H950 0.949 . S
C954 C962 1.574 . S
C954 C970 1.368 . S
H955 C963 0.950 . S
H956 C961 0.950 . S
H957 C962 0.949 . S
H958 C964 0.950 . S
H959 C965 0.950 . S
H960 C966 0.949 . S
C961 H956 0.950 . S
C961 C963 1.327 . S
C961 C967 1.429 . S
C962 C954 1.574 . S
C962 H957 0.949 . S
C962 C968 1.368 . S
C963 C947 1.349 . S
C963 H955 0.950 . S
C963 C961 1.327 . S
C964 C952 1.349 . S
C964 H958 0.950 . S
C964 C965 1.327 . S
C965 H959 0.950 . S
C965 C964 1.327 . S
C965 C969 1.429 . S
C966 C949 1.574 . S
C966 H960 0.949 . S
C966 C970 1.368 . S
C967 C948 1.429 . S
C967 C961 1.429 . S
C967 C968 1.523 . S
C968 C949 1.368 . S
C968 C962 1.368 . S
C968 C967 1.523 . S
C969 C953 1.429 . S
C969 C965 1.429 . S
C969 C970 1.523 . S
C970 C954 1.368 . S
C970 C966 1.368 . S
C970 C969 1.523 . S
H971 C946 0.950 . S
H972 C948 0.950 . S
H973 C949 0.949 . S
H974 C951 0.950 . S
H975 C953 0.950 . S
C976 C977 1.349 . S
C976 C978 1.327 . S
C976 H1001 0.950 . S
C977 C976 1.349 . S
C977 C993 1.349 . S
C978 C976 1.327 . S
C978 C997 1.429 . S
C978 H1002 0.950 . S
C979 C996 1.574 . S
C979 C998 1.368 . S
C979 H1003 0.949 . S
H980 C984 0.949 . S
C981 C982 1.349 . S
C981 C983 1.327 . S
C981 H1004 0.950 1_655 S
C982 C981 1.349 . S
C982 C994 1.349 1_556 S
C983 C981 1.327 . S
C983 C999 1.429 . S
C983 H1005 0.950 . S
C984 H980 0.949 . S
C984 C992 1.574 . S
C984 C1000 1.368 . S
H985 C993 0.950 . S
H986 C991 0.950 . S
H987 C992 0.949 . S
H988 C994 0.950 . S
H989 C995 0.950 1_554 S
H990 C996 0.949 . S
C991 H986 0.950 . S
C991 C993 1.327 . S
C991 C997 1.429 . S
C992 C984 1.574 . S
C992 H987 0.949 . S
C992 C998 1.368 . S
C993 C977 1.349 . S
C993 H985 0.950 . S
C993 C991 1.327 . S
C994 C982 1.349 1_554 S
C994 H988 0.950 . S
C994 C995 1.327 1_554 S
C995 H989 0.950 1_556 S
C995 C994 1.327 1_556 S
C995 C999 1.429 . S
C996 C979 1.574 . S
C996 H990 0.949 . S
C996 C1000 1.368 . S
C997 C978 1.429 . S
C997 C991 1.429 . S
C997 C998 1.523 . S
C998 C979 1.368 . S
C998 C992 1.368 . S
C998 C997 1.523 . S
C999 C983 1.429 . S
C999 C995 1.429 . S
C999 C1000 1.523 . S
C1000 C984 1.368 . S
C1000 C996 1.368 . S
C1000 C999 1.523 . S
H1001 C976 0.950 . S
H1002 C978 0.950 . S
H1003 C979 0.949 . S
H1004 C981 0.950 1_455 S
H1005 C983 0.950 . S
C1006 C1007 1.349 . S
C1006 C1008 1.327 . S
C1006 H1031 0.950 . S
C1007 C1006 1.349 . S
C1007 C1023 1.349 . S
C1008 C1006 1.327 . S
C1008 C1027 1.429 . S
C1008 H1032 0.950 . S
C1009 C1026 1.574 . S
C1009 C1028 1.368 . S
C1009 H1033 0.949 . S
H1010 C1014 0.949 . S
C1011 C1012 1.349 . S
C1011 C1013 1.327 . S
C1011 H1034 0.950 . S
C1012 C1011 1.349 . S
C1012 C1024 1.349 . S
C1013 C1011 1.327 . S
C1013 C1029 1.429 . S
C1013 H1035 0.950 . S
C1014 H1010 0.949 . S
C1014 C1022 1.574 . S
C1014 C1030 1.368 . S
H1015 C1023 0.950 . S
H1016 C1021 0.950 . S
H1017 C1022 0.949 . S
H1018 C1024 0.950 . S
H1019 C1025 0.950 . S
H1020 C1026 0.949 . S
C1021 H1016 0.950 . S
C1021 C1023 1.327 . S
C1021 C1027 1.429 . S
C1022 C1014 1.574 . S
C1022 H1017 0.949 . S
C1022 C1028 1.368 . S
C1023 C1007 1.349 . S
C1023 H1015 0.950 . S
C1023 C1021 1.327 . S
C1024 C1012 1.349 . S
C1024 H1018 0.950 . S
C1024 C1025 1.327 . S
C1025 H1019 0.950 . S
C1025 C1024 1.327 . S
C1025 C1029 1.429 . S
C1026 C1009 1.574 . S
C1026 H1020 0.949 . S
C1026 C1030 1.368 . S
C1027 C1008 1.429 . S
C1027 C1021 1.429 . S
C1027 C1028 1.523 . S
C1028 C1009 1.368 . S
C1028 C1022 1.368 . S
C1028 C1027 1.523 . S
C1029 C1013 1.429 . S
C1029 C1025 1.429 . S
C1029 C1030 1.523 . S
C1030 C1014 1.368 . S
C1030 C1026 1.368 . S
C1030 C1029 1.523 . S
H1031 C1006 0.950 . S
H1032 C1008 0.950 . S
H1033 C1009 0.949 . S
H1034 C1011 0.950 . S
H1035 C1013 0.950 . S
C1036 C1037 1.349 . S
C1036 C1038 1.327 . S
C1036 H1061 0.950 . S
C1037 C1036 1.349 . S
C1037 C1053 1.349 . S
C1038 C1036 1.327 . S
C1038 C1057 1.429 . S
C1038 H1062 0.950 . S
C1039 C1056 1.574 . S
C1039 C1058 1.368 . S
C1039 H1063 0.949 . S
H1040 C1044 0.949 . S
C1041 C1042 1.349 . S
C1041 C1043 1.327 . S
C1041 H1064 0.950 . S
C1042 C1041 1.349 . S
C1042 C1054 1.349 . S
C1043 C1041 1.327 . S
C1043 C1059 1.429 . S
C1043 H1065 0.950 . S
C1044 H1040 0.949 . S
C1044 C1052 1.574 . S
C1044 C1060 1.368 . S
H1045 C1053 0.950 . S
H1046 C1051 0.950 . S
H1047 C1052 0.949 . S
H1048 C1054 0.950 1_655 S
H1049 C1055 0.950 . S
H1050 C1056 0.949 . S
C1051 H1046 0.950 . S
C1051 C1053 1.327 . S
C1051 C1057 1.429 . S
C1052 C1044 1.574 . S
C1052 H1047 0.949 . S
C1052 C1058 1.368 . S
C1053 C1037 1.349 . S
C1053 H1045 0.950 . S
C1053 C1051 1.327 . S
C1054 C1042 1.349 . S
C1054 H1048 0.950 1_455 S
C1054 C1055 1.327 . S
C1055 H1049 0.950 . S
C1055 C1054 1.327 . S
C1055 C1059 1.429 . S
C1056 C1039 1.574 . S
C1056 H1050 0.949 . S
C1056 C1060 1.368 . S
C1057 C1038 1.429 . S
C1057 C1051 1.429 . S
C1057 C1058 1.523 . S
C1058 C1039 1.368 . S
C1058 C1052 1.368 . S
C1058 C1057 1.523 . S
C1059 C1043 1.429 . S
C1059 C1055 1.429 . S
C1059 C1060 1.523 . S
C1060 C1044 1.368 . S
C1060 C1056 1.368 . S
C1060 C1059 1.523 . S
H1061 C1036 0.950 . S
H1062 C1038 0.950 . S
H1063 C1039 0.949 . S
H1064 C1041 0.950 . S
H1065 C1043 0.950 . S
C1066 C1067 1.349 . S
C1066 C1068 1.327 . S
C1066 H1091 0.950 . S
C1067 C1066 1.349 . S
C1067 C1083 1.349 . S
C1068 C1066 1.327 . S
C1068 C1087 1.429 . S
C1068 H1092 0.950 . S
C1069 C1086 1.574 . S
C1069 C1088 1.368 . S
C1069 H1093 0.949 . S
H1070 C1074 0.949 . S
C1071 C1072 1.349 . S
C1071 C1073 1.327 . S
C1071 H1094 0.950 . S
C1072 C1071 1.349 . S
C1072 C1084 1.349 . S
C1073 C1071 1.327 . S
C1073 C1089 1.429 . S
C1073 H1095 0.950 . S
C1074 H1070 0.949 . S
C1074 C1082 1.574 . S
C1074 C1090 1.368 . S
H1075 C1083 0.950 . S
H1076 C1081 0.950 . S
H1077 C1082 0.949 . S
H1078 C1084 0.950 . S
H1079 C1085 0.950 . S
H1080 C1086 0.949 . S
C1081 H1076 0.950 . S
C1081 C1083 1.327 . S
C1081 C1087 1.429 . S
C1082 C1074 1.574 . S
C1082 H1077 0.949 . S
C1082 C1088 1.368 . S
C1083 C1067 1.349 . S
C1083 H1075 0.950 . S
C1083 C1081 1.327 . S
C1084 C1072 1.349 . S
C1084 H1078 0.950 . S
C1084 C1085 1.327 . S
C1085 H1079 0.950 . S
C1085 C1084 1.327 . S
C1085 C1089 1.429 . S
C1086 C1069 1.574 . S
C1086 H1080 0.949 . S
C1086 C1090 1.368 . S
C1087 C1068 1.429 . S
C1087 C1081 1.429 . S
C1087 C1088 1.523 . S
C1088 C1069 1.368 . S
C1088 C1082 1.368 . S
C1088 C1087 1.523 . S
C1089 C1073 1.429 . S
C1089 C1085 1.429 . S
C1089 C1090 1.523 . S
C1090 C1074 1.368 . S
C1090 C1086 1.368 . S
C1090 C1089 1.523 . S
H1091 C1066 0.950 . S
H1092 C1068 0.950 . S
H1093 C1069 0.949 . S
H1094 C1071 0.950 . S
H1095 C1073 0.950 . S
C377 C29 2.119 . S
C382 C272 2.225 . S
C407 C49 1.053 . S
C412 N292 1.031 . S
C442 C326 2.001 . S
C437 C93 1.906 . S
C467 C119 1.182 . S
C472 N360 1.191 . S
C502 C313 2.334 . S
C497 C17 2.245 . S
C532 N270 1.185 . S
C527 C61 1.231 . S
C562 C347 1.933 1_556 S
C557 C81 1.857 . S
C592 N322 1.018 . S
C587 C125 0.983 . S
C617 C23 1.722 . S
C622 C362 1.804 . S
C652 C296 1.659 . S
C647 C87 1.582 . S
C677 C113 1.400 . S
C682 C257 1.476 . S
C707 C55 1.429 . S
C712 C343 1.430 . S
C742 C283 2.149 . S
C737 C157 2.137 . S
C767 C189 1.056 . S
C772 N300 1.080 . S
C797 C221 1.955 . S
C802 C317 1.961 . S
C827 C253 1.233 . S
C832 N352 1.257 . S
C857 C145 2.385 . S
C862 C302 2.388 . S
C892 N262 1.109 . S
C887 C183 1.096 . S
C922 C356 1.973 . S
C917 C209 1.963 . S
C952 N330 0.965 . S
C947 C247 0.941 . S
C977 C151 1.820 . S
C982 C373 1.823 . S
C1012 C287 1.666 . S
C1007 C215 1.665 . S
C1042 C266 1.462 . S
C1037 C241 1.382 . S
C1067 C177 1.398 . S
C1072 C332 1.468 . S
