# Generated by pormake.
# Topology zzz, (3,6)-cn, num edge types: 1
# Building blocks:
#     Node 0, Type 0, BuildingBlock: QEWDON_clean_linker_0, # of connection points: 3
#     Node 1, Type 0, BuildingBlock: QEWDON_clean_linker_0, # of connection points: 3
#     Node 2, Type 0, BuildingBlock: QEWDON_clean_linker_0, # of connection points: 3
#     Node 3, Type 0, BuildingBlock: QEWDON_clean_linker_0, # of connection points: 3
#     Node 4, Type 0, BuildingBlock: QEWDON_clean_linker_0, # of connection points: 3
#     Node 5, Type 0, BuildingBlock: QEWDON_clean_linker_0, # of connection points: 3
#     Node 6, Type 0, BuildingBlock: QEWDON_clean_linker_0, # of connection points: 3
#     Node 7, Type 0, BuildingBlock: QEWDON_clean_linker_0, # of connection points: 3
#     Node 8, Type 1, BuildingBlock: KUMJIN_clean_sbu_0, # of connection points: 6
#     Node 9, Type 1, BuildingBlock: KUMJIN_clean_sbu_0, # of connection points: 6
#     Node 10, Type 1, BuildingBlock: KUMJIN_clean_sbu_0, # of connection points: 6
#     Node 11, Type 1, BuildingBlock: KUMJIN_clean_sbu_0, # of connection points: 6
#     Edge 12, Type (0, 1), BuildingBlock: UVAHIK_clean_linker_0, # of connection points: 2
#     Edge 13, Type (0, 1), BuildingBlock: UVAHIK_clean_linker_0, # of connection points: 2
#     Edge 14, Type (0, 1), BuildingBlock: UVAHIK_clean_linker_0, # of connection points: 2
#     Edge 15, Type (0, 1), BuildingBlock: UVAHIK_clean_linker_0, # of connection points: 2
#     Edge 16, Type (0, 1), BuildingBlock: UVAHIK_clean_linker_0, # of connection points: 2
#     Edge 17, Type (0, 1), BuildingBlock: UVAHIK_clean_linker_0, # of connection points: 2
#     Edge 18, Type (0, 1), BuildingBlock: UVAHIK_clean_linker_0, # of connection points: 2
#     Edge 19, Type (0, 1), BuildingBlock: UVAHIK_clean_linker_0, # of connection points: 2
#     Edge 20, Type (0, 1), BuildingBlock: UVAHIK_clean_linker_0, # of connection points: 2
#     Edge 21, Type (0, 1), BuildingBlock: UVAHIK_clean_linker_0, # of connection points: 2
#     Edge 22, Type (0, 1), BuildingBlock: UVAHIK_clean_linker_0, # of connection points: 2
#     Edge 23, Type (0, 1), BuildingBlock: UVAHIK_clean_linker_0, # of connection points: 2
#     Edge 24, Type (0, 1), BuildingBlock: UVAHIK_clean_linker_0, # of connection points: 2
#     Edge 25, Type (0, 1), BuildingBlock: UVAHIK_clean_linker_0, # of connection points: 2
#     Edge 26, Type (0, 1), BuildingBlock: UVAHIK_clean_linker_0, # of connection points: 2
#     Edge 27, Type (0, 1), BuildingBlock: UVAHIK_clean_linker_0, # of connection points: 2
#     Edge 28, Type (0, 1), BuildingBlock: UVAHIK_clean_linker_0, # of connection points: 2
#     Edge 29, Type (0, 1), BuildingBlock: UVAHIK_clean_linker_0, # of connection points: 2
#     Edge 30, Type (0, 1), BuildingBlock: UVAHIK_clean_linker_0, # of connection points: 2
#     Edge 31, Type (0, 1), BuildingBlock: UVAHIK_clean_linker_0, # of connection points: 2
#     Edge 32, Type (0, 1), BuildingBlock: UVAHIK_clean_linker_0, # of connection points: 2
#     Edge 33, Type (0, 1), BuildingBlock: UVAHIK_clean_linker_0, # of connection points: 2
#     Edge 34, Type (0, 1), BuildingBlock: UVAHIK_clean_linker_0, # of connection points: 2
#     Edge 35, Type (0, 1), BuildingBlock: UVAHIK_clean_linker_0, # of connection points: 2
# Relax obj value: 0.093
# Max RMSD: 0.141
# Mean RMSD: 0.071
data_MOF--net-zzz--node1-KUMJIN_clean_sbu_0--node2-QEWDON_clean_linker_0--edge1-UVAHIK_clean_linker_0
_symmetry_space_group_name_H-M    P1
_symmetry_Int_Tables_number       1
_symmetry_cell_setting            triclinic
loop_
_symmetry_equiv_pos_as_xyz
'x, y, z'
_cell_length_a     69.621028
_cell_length_b     69.763612
_cell_length_c     18.369198
_cell_angle_alpha  90.749748
_cell_angle_beta   90.011505
_cell_angle_gamma 89.991706
loop_
_atom_site_label
_atom_site_type_symbol
_atom_site_fract_x
_atom_site_fract_y
_atom_site_fract_z
_atom_type_partial_charge
H0 H 0.75678 0.57184 0.09976 0.0
C1 C 0.76624 0.56814 0.14423 0.0
C2 C 0.78605 0.57052 0.13505 0.0
C3 C 0.7587 0.56131 0.21011 0.0
H4 H 0.81398 0.56755 0.1842 0.0
C5 C 0.79859 0.56626 0.19221 0.0
C6 C 0.7918 0.55922 0.2581 0.0
C7 C 0.77179 0.55669 0.26719 0.0
C8 C 0.73726 0.55971 0.21921 0.0
H9 H 0.76659 0.55081 0.31773 0.0
C10 C 0.72469 0.55548 0.15964 0.0
C11 C 0.70451 0.55484 0.16962 0.0
C12 C 0.72907 0.5634 0.28796 0.0
H13 H 0.73793 0.56724 0.3343 0.0
C14 C 0.70924 0.5628 0.2978 0.0
H15 H 0.73047 0.55228 0.10615 0.0
C16 C 0.69709 0.55856 0.2395 0.0
H17 H 0.68173 0.55839 0.249 0.0
H18 H 0.7032 0.56581 0.35105 0.0
H19 H 0.97262 0.76268 0.09959 0.0
C20 C 0.9763 0.77247 0.14364 0.0
C21 C 0.97202 0.79194 0.13598 0.0
C22 C 0.98438 0.76562 0.20865 0.0
H23 H 0.97299 0.82005 0.18522 0.0
C24 C 0.97599 0.80492 0.19266 0.0
C25 C 0.98443 0.79908 0.25751 0.0
C26 C 0.98885 0.77931 0.26535 0.0
C27 C 0.98632 0.74417 0.21882 0.0
H28 H 0.99543 0.77469 0.31552 0.0
C29 C 0.98969 0.73088 0.15979 0.0
C30 C 0.99003 0.71071 0.17147 0.0
C31 C 0.98315 0.73666 0.28846 0.0
H32 H 0.97987 0.74596 0.33441 0.0
C33 C 0.98328 0.71698 0.29988 0.0
H34 H 0.99238 0.73611 0.10553 0.0
C35 C 0.9866 0.70419 0.24243 0.0
H36 H 0.9863 0.68899 0.25366 0.0
H37 H 0.98053 0.71154 0.35382 0.0
H38 H 0.77285 0.96716 0.12862 0.0
C39 C 0.76292 0.97193 0.1704 0.0
C40 C 0.74333 0.96796 0.16101 0.0
C41 C 0.76968 0.98164 0.23312 0.0
H42 H 0.71508 0.97071 0.20806 0.0
C43 C 0.73032 0.97322 0.21593 0.0
C44 C 0.73627 0.9828 0.27915 0.0
C45 C 0.75598 0.98737 0.28723 0.0
C46 C 0.79103 0.98454 0.24312 0.0
H47 H 0.76051 0.99519 0.33553 0.0
C48 C 0.80396 0.98641 0.18309 0.0
C49 C 0.82416 0.98679 0.1939 0.0
C50 C 0.79888 0.98385 0.3136 0.0
H51 H 0.78982 0.98194 0.3608 0.0
C52 C 0.81867 0.98483 0.32452 0.0
H53 H 0.79847 0.98714 0.12807 0.0
C54 C 0.83116 0.98617 0.26559 0.0
H55 H 0.84645 0.98676 0.27631 0.0
H56 H 0.8244 0.9842 0.37922 0.0
H57 H 0.57205 0.78068 0.11226 0.0
C58 C 0.56897 0.77112 0.15677 0.0
C59 C 0.57034 0.75138 0.14436 0.0
C60 C 0.56418 0.77845 0.22615 0.0
H61 H 0.56737 0.72331 0.19061 0.0
C62 C 0.56685 0.73866 0.20116 0.0
C63 C 0.56158 0.74532 0.27027 0.0
C64 C 0.56019 0.76529 0.28295 0.0
C65 C 0.56475 0.79972 0.23925 0.0
H66 H 0.55598 0.77047 0.33644 0.0
C67 C 0.55964 0.81301 0.18428 0.0
C68 C 0.56226 0.833 0.19508 0.0
C69 C 0.57212 0.80686 0.30541 0.0
H70 H 0.57661 0.79726 0.34801 0.0
C71 C 0.57472 0.82647 0.31642 0.0
H72 H 0.55351 0.80784 0.13355 0.0
C73 C 0.57007 0.83937 0.26189 0.0
H74 H 0.57295 0.85442 0.27201 0.0
H75 H 0.58077 0.8317 0.3672 0.0
H76 H 0.28005 0.47105 0.12192 0.0
C77 C 0.27016 0.47434 0.07844 0.0
C78 C 0.25088 0.4694 0.08756 0.0
C79 C 0.27654 0.48298 0.01377 0.0
H80 H 0.22265 0.46934 0.04059 0.0
C81 C 0.23769 0.47274 0.03183 0.0
C82 C 0.24316 0.4814 0.96698 0.0
C83 C 0.2626 0.48693 0.95853 0.0
C84 C 0.29777 0.48656 0.00306 0.0
H85 H 0.26673 0.49403 0.90893 0.0
C86 C 0.31078 0.48908 0.06272 0.0
C87 C 0.33091 0.48987 0.05134 0.0
C88 C 0.30552 0.48582 0.93229 0.0
H89 H 0.29651 0.48338 0.88513 0.0
C90 C 0.32524 0.4874 0.92084 0.0
H91 H 0.30549 0.48997 0.118 0.0
C92 C 0.3378 0.48925 0.9795 0.0
H93 H 0.35306 0.49019 0.9685 0.0
H94 H 0.33088 0.48676 0.86596 0.0
H95 H 0.06102 0.27584 0.12528 0.0
C96 C 0.05706 0.26601 0.08187 0.0
C97 C 0.0632 0.24694 0.087 0.0
C98 C 0.04628 0.27222 0.02146 0.0
H99 H 0.0636 0.219 0.03632 0.0
C100 C 0.0591 0.23381 0.03097 0.0
C101 C 0.04804 0.23892 0.97095 0.0
C102 C 0.04126 0.25808 0.96696 0.0
C103 C 0.04124 0.29339 0.01419 0.0
H104 H 0.03225 0.26175 0.92131 0.0
C105 C 0.04104 0.30675 0.07455 0.0
C106 C 0.03807 0.32675 0.0639 0.0
C107 C 0.03781 0.30077 0.94433 0.0
H108 H 0.03844 0.29176 0.89611 0.0
C109 C 0.0341 0.32016 0.93426 0.0
H110 H 0.04347 0.30191 0.12941 0.0
C111 C 0.03427 0.33297 0.9929 0.0
H112 H 0.0314 0.34794 0.98238 0.0
H113 H 0.03141 0.3254 0.87998 0.0
H114 H 0.26046 0.06892 0.08988 0.0
C115 C 0.27069 0.06465 0.04846 0.0
C116 C 0.29012 0.06893 0.06041 0.0
C117 C 0.26463 0.05485 0.98487 0.0
H118 H 0.31874 0.06731 0.01563 0.0
C119 C 0.30361 0.0645 0.00613 0.0
C120 C 0.29836 0.0549 0.94211 0.0
C121 C 0.2789 0.04964 0.93212 0.0
C122 C 0.24347 0.05072 0.9736 0.0
H123 H 0.27508 0.04154 0.88365 0.0
C124 C 0.2302 0.04925 0.03279 0.0
C125 C 0.21016 0.04734 0.02031 0.0
C126 C 0.2361 0.04943 0.90235 0.0
H127 H 0.24529 0.05099 0.85536 0.0
C128 C 0.21653 0.04675 0.88996 0.0
H129 H 0.23522 0.04991 0.08846 0.0
C130 C 0.20371 0.0458 0.94797 0.0
H131 H 0.1886 0.04384 0.93597 0.0
H132 H 0.21119 0.04575 0.83469 0.0
H133 H 0.4692 0.26161 0.10589 0.0
C134 C 0.4727 0.27123 0.06208 0.0
C135 C 0.46943 0.29086 0.07237 0.0
C136 C 0.47992 0.26414 0.99527 0.0
H137 H 0.47093 0.31888 0.02515 0.0
C138 C 0.47321 0.30363 0.01618 0.0
C139 C 0.48087 0.29722 0.9501 0.0
C140 C 0.48442 0.27748 0.93971 0.0
C141 C 0.48172 0.24291 0.98276 0.0
H142 H 0.49065 0.27263 0.8887 0.0
C143 C 0.4859 0.23008 0.04026 0.0
C144 C 0.48639 0.21002 0.02776 0.0
C145 C 0.4781 0.23517 0.91298 0.0
H146 H 0.47428 0.24429 0.86801 0.0
C147 C 0.47864 0.21545 0.90043 0.0
H148 H 0.48907 0.2356 0.09429 0.0
C149 C 0.48266 0.20299 0.95705 0.0
H150 H 0.48252 0.18773 0.94554 0.0
H151 H 0.47563 0.20975 0.84653 0.0
Eu152 Eu 0.03274 0.01437 0.68379 0.0
C153 C 0.97334 0.99165 0.46759 0.0
C154 C 0.99198 0.97214 0.3835 0.0
C155 C 0.95849 0.96447 0.40474 0.0
C156 C 0.99061 0.9877 0.4334 0.0
C157 C 0.95696 0.98033 0.45212 0.0
C158 C 0.97596 0.96039 0.37048 0.0
C159 C 0.93808 1.00239 0.52433 0.0
N160 N 0.97222 1.00714 0.51277 0.0
C161 C 0.95459 0.01324 0.53728 0.0
C162 C 0.93932 0.98563 0.48264 0.0
Eu163 Eu 1.00115 0.02486 0.53344 0.0
N164 N 1.00598 0.99918 0.44767 0.0
C165 C 0.02265 0.99656 0.40922 0.0
C166 C 1.00935 0.96891 0.34741 0.0
C167 C 0.02466 0.98134 0.35967 0.0
H168 H 0.95312 0.02675 0.56617 0.0
H169 H 0.03805 0.97926 0.3307 0.0
H170 H 0.97685 0.94829 0.33302 0.0
H171 H 0.92435 1.00716 0.54548 0.0
H172 H 0.03464 1.00601 0.41533 0.0
H173 H 0.9943 0.05672 0.89242 0.0
H174 H 1.01096 0.9571 0.309 0.0
H175 H 0.08092 0.01501 0.65195 0.0
H176 H 0.99909 0.0303 0.8072 0.0
H177 H 0.10842 0.03643 0.67043 0.0
H178 H 0.94611 0.95555 0.39285 0.0
H179 H 0.01986 0.08075 0.91193 0.0
H180 H 0.05309 0.09198 0.8849 0.0
H181 H 0.92645 0.97733 0.4719 0.0
H182 H 0.08391 0.08685 0.82266 0.0
N183 N 0.0268 0.03939 0.77139 0.0
C184 C 1.01029 0.04072 0.81168 0.0
C185 C 0.02203 0.06915 0.873 0.0
C186 C 0.03934 0.0672 0.83523 0.0
C187 C 1.00756 0.05568 0.86189 0.0
C188 C 0.04145 0.05184 0.78478 0.0
H189 H 0.10463 0.0663 0.74275 0.0
N190 N 0.06069 0.03368 0.704 0.0
C191 C 0.09446 0.04044 0.69166 0.0
C192 C 0.05876 0.04907 0.7493 0.0
C193 C 0.07862 0.02855 0.67969 0.0
C194 C 0.09228 0.0572 0.7327 0.0
C195 C 0.07444 0.06141 0.76396 0.0
O196 O 0.05564 0.99854 0.73682 0.0
O197 O 0.01319 1.00064 0.59972 0.0
O198 O 0.98207 0.02191 0.63336 0.0
O199 O 1.00185 1.00672 0.71654 0.0
O200 O 0.04013 0.98843 0.61368 0.0
O201 O 0.02698 0.99762 0.78112 0.0
O202 O 0.9791 0.04098 0.47671 0.0
O203 O 0.02057 0.03855 0.61777 0.0
O204 O 0.05193 0.01711 0.5842 0.0
O205 O 0.03211 0.03141 0.49883 0.0
O206 O 0.99343 0.05046 0.60454 0.0
O207 O 1.00837 0.04217 0.43887 0.0
C208 C 0.02392 0.98672 0.58003 0.0
C209 C 0.04625 0.96956 0.78907 0.0
C210 C 0.03231 0.93761 0.79498 0.0
C211 C 0.03006 0.95757 0.79197 0.0
C212 C 0.0509 0.92971 0.79489 0.0
C213 C 0.0647 0.96141 0.79002 0.0
C214 C 0.06697 0.94159 0.79256 0.0
C215 C 0.98469 0.01265 0.69479 0.0
C216 C 0.04428 0.99049 0.78333 0.0
C217 C 0.0721 0.07713 0.81154 0.0
C218 C 0.05459 0.08 0.84718 0.0
C219 C 1.00963 0.05225 0.63816 0.0
C220 C 0.98885 0.06995 0.42414 0.0
C221 C 1.00487 0.08201 0.4159 0.0
C222 C 1.00223 0.10161 0.40349 0.0
C223 C 0.98361 0.10925 0.40063 0.0
C224 C 0.97028 0.07784 0.42113 0.0
C225 C 0.96771 0.0974 0.40998 0.0
C226 C 0.04928 0.02579 0.52155 0.0
C227 C 0.99107 0.04909 0.43265 0.0
H228 H 0.01573 0.96365 0.79137 0.0
H229 H 0.05301 0.91437 0.79845 0.0
H230 H 0.07738 0.9704 0.78826 0.0
H231 H 0.08123 0.93541 0.79317 0.0
H232 H 0.01931 0.07619 0.41688 0.0
H233 H 0.98141 0.12436 0.39049 0.0
H234 H 0.95771 0.06882 0.42675 0.0
H235 H 0.95337 0.10334 0.4075 0.0
Eu236 Eu 0.52353 0.03892 0.69546 0.0
C237 C 0.53139 0.96714 0.48202 0.0
C238 C 0.55815 0.97461 0.40268 0.0
C239 C 0.54956 0.9414 0.42353 0.0
C240 C 0.5433 0.98059 0.45018 0.0
C241 C 0.53424 0.9474 0.46799 0.0
C242 C 0.56146 0.95497 0.39086 0.0
C243 C 0.50553 0.94093 0.53715 0.0
N244 N 0.51641 0.97334 0.52351 0.0
C245 C 0.50312 0.96061 0.54883 0.0
C246 C 0.52127 0.93427 0.49724 0.0
Eu247 Eu 0.51385 1.00696 0.54124 0.0
N248 N 0.53964 0.99951 0.46173 0.0
C249 C 0.54916 0.01306 0.42247 0.0
C250 C 0.56879 0.98853 0.36625 0.0
C251 C 0.56406 1.00782 0.37533 0.0
H252 H 0.49074 0.96546 0.57903 0.0
H253 H 0.57185 0.01869 0.34594 0.0
H254 H 0.57288 0.95014 0.35497 0.0
H255 H 0.49518 0.9309 0.55863 0.0
H256 H 0.54565 0.02804 0.42811 0.0
H257 H 0.48037 1.00026 0.89784 0.0
H258 H 0.58029 0.9845 0.32936 0.0
H259 H 0.52357 0.08633 0.65987 0.0
H260 H 0.50522 1.00374 0.80668 0.0
H261 H 0.50485 0.1152 0.69162 0.0
H262 H 0.55201 0.9263 0.4125 0.0
H263 H 0.45944 0.02759 0.93032 0.0
H264 H 0.45059 0.06186 0.91359 0.0
H265 H 0.523 0.919 0.48778 0.0
H266 H 0.45692 0.09288 0.85673 0.0
N267 N 0.49949 0.03332 0.78572 0.0
C268 C 0.49685 0.01617 0.81992 0.0
C269 C 0.47067 0.0294 0.89017 0.0
C270 C 0.47355 0.04701 0.85659 0.0
C271 C 0.48247 0.01397 0.87211 0.0
C272 C 0.48835 0.04865 0.8043 0.0
H273 H 0.47707 0.11286 0.77474 0.0
N274 N 0.50603 0.06747 0.72173 0.0
C275 C 0.50084 0.10148 0.71386 0.0
C276 C 0.49165 0.06612 0.77122 0.0
C277 C 0.51135 0.08506 0.69592 0.0
C278 C 0.48519 0.10009 0.76074 0.0
C279 C 0.48061 0.08237 0.79099 0.0
O280 O 0.54204 0.06153 0.73627 0.0
O281 O 0.53704 0.02063 0.60868 0.0
O282 O 0.52586 0.98682 0.62595 0.0
O283 O 0.52988 1.00757 0.72645 0.0
O284 O 0.54931 0.04715 0.62574 0.0
O285 O 0.54013 0.03486 0.79537 0.0
O286 O 0.4843 1.00941 0.50314 0.0
O287 O 0.5006 0.02538 0.629 0.0
O288 O 0.50998 0.05584 0.6031 0.0
O289 O 0.51969 0.03751 0.50439 0.0
O290 O 0.48923 0.99823 0.61491 0.0
O291 O 0.50737 1.00867 0.42484 0.0
C292 C 0.55091 0.03119 0.59012 0.0
C293 C 0.56949 0.05273 0.80089 0.0
C294 C 0.60049 0.03847 0.82676 0.0
C295 C 0.58077 0.03642 0.81369 0.0
C296 C 0.60899 0.05671 0.82524 0.0
C297 C 0.57821 0.07091 0.79979 0.0
C298 C 0.59788 0.07284 0.81134 0.0
C299 C 0.53019 0.99015 0.69537 0.0
C300 C 0.54862 0.05153 0.79003 0.0
C301 C 0.46564 0.0806 0.84156 0.0
C302 C 0.46209 0.06296 0.87412 0.0
C303 C 0.48763 0.01413 0.65119 0.0
C304 C 0.47636 0.99892 0.38584 0.0
C305 C 0.45913 1.00768 0.3666 0.0
C306 C 0.44543 0.9978 0.32523 0.0
C307 C 0.44926 0.97895 0.30166 0.0
C308 C 0.48029 0.98014 0.36213 0.0
C309 C 0.46676 0.97025 0.3195 0.0
C310 C 0.51313 0.05375 0.53252 0.0
C311 C 0.48894 1.00965 0.43493 0.0
H312 H 0.57427 0.0223 0.81529 0.0
H313 H 0.62424 0.05845 0.83519 0.0
H314 H 0.56975 0.08368 0.79021 0.0
H315 H 0.60449 0.08688 0.81034 0.0
H316 H 0.45602 0.02206 0.38675 0.0
H317 H 0.43875 0.97102 0.26994 0.0
H318 H 0.49355 0.97312 0.37733 0.0
H319 H 0.46969 0.95573 0.30133 0.0
Eu320 Eu 0.537 0.51274 0.53874 0.0
C321 C 0.45647 0.51757 0.63285 0.0
C322 C 0.44362 0.5411 0.55 0.0
C323 C 0.42344 0.51491 0.58958 0.0
C324 C 0.459 0.53392 0.59208 0.0
C325 C 0.43845 0.50818 0.63329 0.0
C326 C 0.42602 0.53133 0.54803 0.0
C327 C 0.45051 0.48743 0.72647 0.0
N328 N 0.47123 0.5113 0.67452 0.0
C329 C 0.46794 0.49728 0.72475 0.0
C330 C 0.43581 0.49263 0.6794 0.0
Eu331 Eu 0.50069 0.52882 0.66809 0.0
N332 N 0.47632 0.54294 0.59387 0.0
C333 C 0.47849 0.56004 0.55896 0.0
C334 C 0.44629 0.55799 0.51134 0.0
C335 C 0.46373 0.5676 0.51661 0.0
H336 H 0.47859 0.49379 0.76518 0.0
H337 H 0.4658 0.58099 0.48854 0.0
H338 H 0.41422 0.53652 0.51524 0.0
H339 H 0.44831 0.47608 0.7652 0.0
H340 H 0.49127 0.56843 0.56396 0.0
H341 H 0.57601 0.46684 0.72954 0.0
H342 H 0.43488 0.56388 0.47835 0.0
H343 H 0.55614 0.5448 0.42222 0.0
H344 H 0.54886 0.47691 0.65601 0.0
H345 H 0.58608 0.56287 0.4059 0.0
H346 H 0.40964 0.50773 0.58868 0.0
H347 H 0.60652 0.48486 0.726 0.0
H348 H 0.62575 0.5116 0.67377 0.0
H349 H 0.42221 0.4851 0.68131 0.0
H350 H 0.62834 0.53805 0.58731 0.0
N351 N 0.56292 0.50131 0.61152 0.0
C352 C 0.5617 0.48531 0.65362 0.0
C353 C 0.59448 0.48948 0.6932 0.0
C354 C 0.59606 0.50525 0.64751 0.0
C355 C 0.5773 0.47931 0.69545 0.0
C356 C 0.57991 0.51077 0.60609 0.0
H357 H 0.61373 0.55717 0.4872 0.0
N358 N 0.56582 0.53025 0.51698 0.0
C359 C 0.58487 0.55274 0.4498 0.0
C360 C 0.58132 0.52581 0.55812 0.0
C361 C 0.5678 0.54264 0.46009 0.0
C362 C 0.60043 0.54945 0.49564 0.0
C363 C 0.59896 0.53552 0.54941 0.0
O364 O 0.54527 0.50889 0.42515 0.0
O365 O 0.50515 0.51412 0.55993 0.0
O366 O 0.50527 0.49725 0.68856 0.0
O367 O 0.52205 0.48644 0.58652 0.0
O368 O 0.51461 0.52249 0.45779 0.0
O369 O 0.54297 0.4842 0.49413 0.0
O370 O 0.48994 0.52992 0.77935 0.0
O371 O 0.53255 0.52729 0.64757 0.0
O372 O 0.53339 0.54469 0.52225 0.0
O373 O 0.51705 0.55515 0.62601 0.0
O374 O 0.523 0.51966 0.75023 0.0
O375 O 0.49423 0.55623 0.72073 0.0
C376 C 0.49967 0.51963 0.49772 0.0
C377 C 0.53374 0.48052 0.37018 0.0
C378 C 0.51174 0.45532 0.33094 0.0
C379 C 0.5232 0.46384 0.38503 0.0
C380 C 0.51104 0.46335 0.26131 0.0
C381 C 0.53315 0.48818 0.29979 0.0
C382 C 0.52183 0.47963 0.24578 0.0
C383 C 0.51219 0.48334 0.64701 0.0
C384 C 0.54496 0.49029 0.42772 0.0
C385 C 0.61478 0.53059 0.59265 0.0
C386 C 0.61333 0.51548 0.64163 0.0
C387 C 0.53802 0.52214 0.71035 0.0
C388 C 0.49962 0.55697 0.84831 0.0
C389 C 0.50749 0.57543 0.84548 0.0
C390 C 0.51533 0.58393 0.90791 0.0
C391 C 0.51555 0.57399 0.9737 0.0
C392 C 0.49993 0.54703 0.9145 0.0
C393 C 0.50798 0.5555 0.97672 0.0
C394 C 0.52694 0.55849 0.56558 0.0
C395 C 0.49036 0.54852 0.78339 0.0
H396 H 0.52363 0.45758 0.43867 0.0
H397 H 0.50242 0.45681 0.21861 0.0
H398 H 0.54133 0.5009 0.2867 0.0
H399 H 0.5214 0.48565 0.19179 0.0
H400 H 0.50708 0.58349 0.7954 0.0
H401 H 0.5214 0.58061 0.02256 0.0
H402 H 0.4938 0.53281 0.91838 0.0
H403 H 0.5081 0.54783 0.02755 0.0
Eu404 Eu 0.02464 0.53629 0.55033 0.0
C405 C 0.01681 0.45563 0.66543 0.0
C406 C 0.99489 0.44217 0.57588 0.0
C407 C 0.01801 0.42154 0.63497 0.0
C408 C 1.00193 0.45808 0.61634 0.0
C409 C 0.02458 0.43718 0.67678 0.0
C410 C 1.00326 0.42405 0.58445 0.0
C411 C 0.04344 0.45043 0.77529 0.0
N412 N 0.02306 0.47099 0.70476 0.0
C413 C 0.03538 0.46838 0.76205 0.0
C414 C 0.03829 0.43482 0.73154 0.0
Eu415 Eu 1.00835 0.50105 0.68083 0.0
N416 N 0.99418 0.47585 0.60858 0.0
C417 C 0.97879 0.47826 0.56293 0.0
C418 C 0.97952 0.44483 0.52827 0.0
C419 C 0.97134 0.46291 0.52235 0.0
H420 H 0.0394 0.48033 0.79696 0.0
H421 H 0.95939 0.46514 0.48571 0.0
H422 H 0.99815 0.41179 0.5532 0.0
H423 H 0.05357 0.44867 0.81939 0.0
H424 H 0.97218 0.49191 0.555 0.0
H425 H 0.06531 0.5813 0.74465 0.0
H426 H 0.97381 0.433 0.49617 0.0
H427 H 0.99691 0.55071 0.41228 0.0
H428 H 0.05602 0.55166 0.68348 0.0
H429 H 0.98139 0.58019 0.3686 0.0
H430 H 0.02399 0.40736 0.6424 0.0
H431 H 0.04925 0.61172 0.71434 0.0
H432 H 0.02554 0.62924 0.63776 0.0
H433 H 0.04451 0.42088 0.74202 0.0
H434 H 1.00244 0.62892 0.53655 0.0
N435 N 0.0348 0.56448 0.61531 0.0
C436 C 0.04909 0.5646 0.66666 0.0
C437 C 0.04521 0.59864 0.68585 0.0
C438 C 0.03117 0.59871 0.63154 0.0
C439 C 0.05435 0.58153 0.70285 0.0
C440 C 0.0263 0.58123 0.59637 0.0
H441 H 0.98605 0.61081 0.43563 0.0
N442 N 1.00925 0.56418 0.50584 0.0
C443 C 0.99006 0.58063 0.41749 0.0
C444 C 0.01306 0.58104 0.54033 0.0
C445 C 0.99881 0.56396 0.44265 0.0
C446 C 0.99273 0.59785 0.45547 0.0
C447 C 1.00465 0.59831 0.51678 0.0
O448 O 0.03022 0.53717 0.43325 0.0
O449 O 0.02272 0.50468 0.57317 0.0
O450 O 0.04114 0.49955 0.6831 0.0
O451 O 0.05089 0.52501 0.61118 0.0
O452 O 0.01354 0.51337 0.47178 0.0
O453 O 0.05383 0.54146 0.51136 0.0
O454 O 1.00685 0.49654 0.79752 0.0
O455 O 1.01053 0.53269 0.65927 0.0
O456 O 0.9921 0.53766 0.54496 0.0
O457 O 0.98168 0.51603 0.6327 0.0
O458 O 0.01971 0.52356 0.76003 0.0
O459 O 0.98098 0.49439 0.73266 0.0
C460 C 0.01679 0.49869 0.51171 0.0
C461 C 0.06173 0.54301 0.38309 0.0
C462 C 0.09176 0.53374 0.32525 0.0
C463 C 0.07977 0.53434 0.38658 0.0
C464 C 0.08588 0.54308 0.26148 0.0
C465 C 0.0559 0.5521 0.31918 0.0
C466 C 0.06811 0.55237 0.25893 0.0
C467 C 0.05463 0.5109 0.65665 0.0
C468 C 0.04837 0.54057 0.44345 0.0
C469 C 1.00891 0.61557 0.55338 0.0
C470 C 0.02211 0.61576 0.6108 0.0
C471 C 0.01653 0.53845 0.72105 0.0
C472 C 0.97827 0.50657 0.85406 0.0
C473 C 0.96053 0.51518 0.83915 0.0
C474 C 0.95101 0.52607 0.89278 0.0
C475 C 0.95958 0.52852 0.96163 0.0
C476 C 0.98655 0.50905 0.92334 0.0
C477 C 0.97728 0.52007 0.97658 0.0
C478 C 0.9783 0.52865 0.58036 0.0
C479 C 0.98825 0.49495 0.79826 0.0
H480 H 0.0841 0.52734 0.43635 0.0
H481 H 0.09467 0.54269 0.21288 0.0
H482 H 0.04187 0.55874 0.31563 0.0
H483 H 0.06357 0.55931 0.20946 0.0
H484 H 0.95412 0.51348 0.78572 0.0
H485 H 0.95242 0.5366 0.00444 0.0
H486 H 1.00021 0.50247 0.93631 0.0
H487 H 0.98374 0.5219 0.02983 0.0
C488 C 0.19799 0.03648 0.14416 0.0
C489 C 0.19554 0.04736 0.08081 0.0
C490 C 0.18309 0.03504 0.19592 0.0
C491 C 0.13598 0.05736 0.25348 0.0
H492 H 0.12675 1.00785 0.33962 0.0
C493 C 0.06544 0.04122 0.41323 0.0
C494 C 0.06635 0.02882 0.47304 0.0
C495 C 0.08147 0.04391 0.36773 0.0
C496 C 0.12917 0.0219 0.31712 0.0
H497 H 0.17577 0.06627 0.02544 0.0
H498 H 0.15003 0.06354 0.1137 0.0
H499 H 0.15439 0.01223 0.26057 0.0
H500 H 0.085 1.00901 0.52927 0.0
H501 H 0.1129 0.01427 0.45297 0.0
H502 H 0.11074 0.06704 0.30977 0.0
C503 C 0.16335 0.05605 0.12413 0.0
C504 C 0.14517 0.02443 0.27146 0.0
C505 C 0.17814 0.05745 0.0727 0.0
C506 C 0.08375 0.01907 0.48529 0.0
C507 C 0.09978 0.02184 0.44025 0.0
C508 C 0.12 0.05486 0.29923 0.0
C509 C 0.16537 0.04457 0.18614 0.0
C510 C 0.14882 0.04217 0.23839 0.0
C511 C 0.09898 0.03429 0.38048 0.0
C512 C 0.11623 0.03705 0.33172 0.0
H513 H 0.21114 0.02852 0.15254 0.0
H514 H 0.18544 0.02632 0.24342 0.0
H515 H 0.13833 0.07137 0.23038 0.0
H516 H 0.05231 0.04891 0.40141 0.0
H517 H 0.07999 0.05337 0.32182 0.0
C518 C 0.48166 0.1976 0.15595 0.0
C519 C 0.49047 0.19604 0.08709 0.0
C520 C 0.48379 0.18297 0.20751 0.0
C521 C 0.49571 0.13101 0.21681 0.0
H522 H 0.50265 0.1406 0.42333 0.0
C523 C 0.51705 0.07009 0.41188 0.0
C524 C 0.50977 0.0703 0.48333 0.0
C525 C 0.51407 0.08565 0.36561 0.0
C526 C 0.50046 0.1376 0.36596 0.0
H527 H 0.50951 0.17845 0.02098 0.0
H528 H 0.51324 0.15326 0.11 0.0
H529 H 0.49876 0.16756 0.34096 0.0
H530 H 0.49284 0.08689 0.5605 0.0
H531 H 0.48767 0.11396 0.48027 0.0
H532 H 0.49723 0.10116 0.24121 0.0
C533 C 0.50424 0.16544 0.1238 0.0
C534 C 0.49825 0.15312 0.31862 0.0
C535 C 0.50215 0.17997 0.07268 0.0
C536 C 0.49915 0.0864 0.50671 0.0
C537 C 0.49614 0.10198 0.4604 0.0
C538 C 0.49782 0.11554 0.26399 0.0
C539 C 0.49477 0.16646 0.19136 0.0
C540 C 0.49613 0.15006 0.24316 0.0
C541 C 0.50358 0.10189 0.38907 0.0
C542 C 0.50049 0.11854 0.33926 0.0
H543 H 0.47249 0.20971 0.16886 0.0
H544 H 0.47627 0.18429 0.25892 0.0
H545 H 0.49362 0.128 0.15936 0.0
H546 H 0.52528 0.05797 0.39167 0.0
H547 H 0.52029 0.08503 0.31163 0.0
C548 C 0.34373 0.50428 0.16984 0.0
C549 C 0.3452 0.49073 0.11266 0.0
C550 C 0.35871 0.50651 0.22099 0.0
C551 C 0.40393 0.48307 0.29015 0.0
H552 H 0.4183 0.53496 0.34438 0.0
C553 C 0.46937 0.49991 0.48094 0.0
C554 C 0.48061 0.51594 0.46324 0.0
C555 C 0.45183 0.49634 0.44496 0.0
C556 C 0.41459 0.52034 0.32958 0.0
H557 H 0.36311 0.46809 0.06781 0.0
H558 H 0.38899 0.47201 0.15544 0.0
H559 H 0.38954 0.52939 0.27141 0.0
H560 H 0.48286 0.54003 0.39091 0.0
H561 H 0.45248 0.53396 0.32847 0.0
H562 H 0.42939 0.47409 0.34609 0.0
C563 C 0.3764 0.481 0.16146 0.0
C564 C 0.39785 0.51712 0.28838 0.0
C565 C 0.36156 0.47885 0.11046 0.0
C566 C 0.47428 0.52784 0.40701 0.0
C567 C 0.45676 0.52439 0.37148 0.0
C568 C 0.42068 0.4863 0.33136 0.0
C569 C 0.37548 0.49512 0.21679 0.0
C570 C 0.39238 0.49844 0.26686 0.0
C571 C 0.44516 0.50865 0.38999 0.0
C572 C 0.42648 0.50502 0.35071 0.0
H573 H 0.33136 0.51366 0.17331 0.0
H574 H 0.35723 0.51735 0.26333 0.0
H575 H 0.40016 0.46844 0.27594 0.0
H576 H 0.47414 0.49015 0.52263 0.0
H577 H 0.44337 0.48408 0.46102 0.0
C578 C 0.02949 0.33979 0.19095 0.0
C579 C 0.03917 0.34176 0.1241 0.0
C580 C 0.02837 0.35529 0.24135 0.0
C581 C 0.04976 0.40393 0.28704 0.0
H582 H 1.00089 0.41355 0.38171 0.0
C583 C 1.0085 0.47335 0.41822 0.0
C584 C 0.01984 0.47915 0.47805 0.0
C585 C 1.01139 0.45555 0.38314 0.0
C586 C 0.01468 0.41101 0.35602 0.0
H587 H 0.05633 0.36149 0.0611 0.0
H588 H 0.05427 0.38811 0.14717 0.0
H589 H 1.00533 0.38437 0.30781 0.0
H590 H 0.04403 0.47096 0.54493 0.0
H591 H 0.04957 0.44 0.48169 0.0
H592 H 0.05893 0.43077 0.33489 0.0
C593 C 0.04746 0.37472 0.16142 0.0
C594 C 0.01731 0.39416 0.31386 0.0
C595 C 0.04851 0.35936 0.11132 0.0
C596 C 0.03474 0.46682 0.50013 0.0
C597 C 0.03797 0.44912 0.46364 0.0
C598 C 0.04722 0.42062 0.33016 0.0
C599 C 0.03707 0.37318 0.22687 0.0
C600 C 0.0348 0.39042 0.27748 0.0
C601 C 0.02623 0.4432 0.40485 0.0
C602 C 0.02955 0.42455 0.36444 0.0
H603 H 0.02211 0.32655 0.20305 0.0
H604 H 0.02049 0.35329 0.29146 0.0
H605 H 0.06353 0.40167 0.2609 0.0
H606 H 0.99714 0.48259 0.39886 0.0
H607 H 1.00222 0.4516 0.33772 0.0
C608 C 0.83684 1.00075 0.07572 0.0
C609 C 0.8384 0.98742 0.13228 0.0
C610 C 0.85173 1.00278 0.02422 0.0
C611 C 0.89674 0.97884 0.95237 0.0
H612 H 0.90967 0.03009 0.89045 0.0
C613 C 0.9681 0.99544 0.79806 0.0
C614 C 0.96762 1.00923 0.74277 0.0
C615 C 0.95205 0.99241 0.84316 0.0
C616 C 0.90619 0.01561 0.90627 0.0
H617 H 0.85647 0.965 0.17571 0.0
H618 H 0.88219 0.96861 0.0877 0.0
H619 H 0.88202 0.02522 0.96926 0.0
H620 H 0.94977 0.03102 0.69381 0.0
H621 H 0.92189 0.02552 0.77058 0.0
H622 H 0.92105 0.96927 0.88997 0.0
C623 C 0.86959 0.97758 0.08235 0.0
C624 C 0.89019 0.01279 0.95167 0.0
C625 C 0.85481 0.9756 0.13361 0.0
C626 C 0.95066 0.02 0.73455 0.0
C627 C 0.93466 0.01702 0.77963 0.0
C628 C 0.91277 0.98166 0.90713 0.0
C629 C 0.86854 0.99144 0.02741 0.0
C630 C 0.88518 0.99436 0.97584 0.0
C631 C 0.93503 1.00318 0.83481 0.0
C632 C 0.91782 1.00011 0.88334 0.0
H633 H 0.82447 1.01011 0.07287 0.0
H634 H 0.8501 0.0134 0.98221 0.0
H635 H 0.89333 0.96435 0.96837 0.0
H636 H 0.98088 0.9869 0.80646 0.0
H637 H 0.95312 0.98179 0.88542 0.0
C638 C 0.55038 0.86572 0.15878 0.0
C639 C 0.55728 0.84749 0.13789 0.0
C640 C 0.54744 0.88012 0.10767 0.0
C641 C 0.55913 0.8941 0.91533 0.0
H642 H 0.52139 0.93357 0.9575 0.0
C643 C 0.53714 0.95478 0.71227 0.0
C644 C 0.53514 0.9734 0.74215 0.0
C645 C 0.54037 0.93892 0.75722 0.0
C646 C 0.5321 0.92275 0.94501 0.0
H647 H 0.56572 0.83014 0.04445 0.0
H648 H 0.55958 0.85494 0.95448 0.0
H649 H 0.5246 0.90659 0.03859 0.0
H650 H 0.53587 0.98973 0.84355 0.0
H651 H 0.54103 0.96219 0.92127 0.0
H652 H 0.56601 0.91027 0.8198 0.0
C653 C 0.55709 0.85833 0.01135 0.0
C654 C 0.53407 0.9072 0.992 0.0
C655 C 0.56034 0.84391 0.06306 0.0
C656 C 0.53703 0.97569 0.81814 0.0
C657 C 0.53996 0.95984 0.86301 0.0
C658 C 0.5569 0.90955 0.86747 0.0
C659 C 0.55077 0.87681 0.03291 0.0
C660 C 0.54786 0.89272 0.97896 0.0
C661 C 0.54145 0.94119 0.83339 0.0
C662 C 0.54354 0.92425 0.8823 0.0
H663 H 0.54739 0.86908 0.21536 0.0
H664 H 0.54293 0.89406 0.12772 0.0
H665 H 0.57008 0.88352 0.90315 0.0
H666 H 0.53601 0.95236 0.65411 0.0
H667 H 0.54144 0.92478 0.73246 0.0
C668 C 0.67637 0.53625 0.1207 0.0
C669 C 0.69068 0.55011 0.10933 0.0
C670 C 0.66133 0.53363 0.07098 0.0
C671 C 0.64336 0.54483 0.88346 0.0
H672 H 0.59429 0.5341 0.97389 0.0
C673 C 0.5693 0.54079 0.7253 0.0
C674 C 0.55707 0.52568 0.74552 0.0
C675 C 0.58642 0.54451 0.7643 0.0
C676 C 0.60787 0.5369 0.94732 0.0
H677 H 0.70074 0.57156 0.03428 0.0
H678 H 0.67422 0.56713 0.94702 0.0
H679 H 0.62248 0.5389 0.04935 0.0
H680 H 0.55288 0.50324 0.82403 0.0
H681 H 0.58238 0.50955 0.89123 0.0
H682 H 0.6283 0.54299 0.78099 0.0
C683 C 0.67475 0.55814 0.99459 0.0
C684 C 0.62418 0.53961 0.99086 0.0
C685 C 0.69001 0.56068 0.04454 0.0
C686 C 0.56211 0.51478 0.80635 0.0
C687 C 0.57902 0.51851 0.84526 0.0
C688 C 0.62687 0.54219 0.83958 0.0
C689 C 0.65983 0.54492 0.00818 0.0
C690 C 0.64233 0.54322 0.95992 0.0
C691 C 0.59141 0.53352 0.8255 0.0
C692 C 0.60894 0.53781 0.87094 0.0
H693 H 0.67654 0.5277 0.16951 0.0
H694 H 0.65062 0.52284 0.08271 0.0
H695 H 0.65698 0.5476 0.85726 0.0
H696 H 0.56552 0.54983 0.68 0.0
H697 H 0.59547 0.55629 0.74773 0.0
C698 C 0.98417 0.69542 0.04542 0.0
C699 C 0.99401 0.69584 0.11258 0.0
C700 C 0.98591 0.6795 0.99699 0.0
C701 C 1.00038 0.62738 0.99903 0.0
H702 H 1.00029 0.63032 0.78853 0.0
C703 C 0.02275 0.56192 0.82292 0.0
C704 C 0.01321 0.55771 0.7571 0.0
C705 C 0.01952 0.57917 0.86117 0.0
C706 C 1.00014 0.62917 0.84725 0.0
H707 H 0.01444 0.68021 0.17802 0.0
H708 H 0.01769 0.65314 0.0948 0.0
H709 H 0.99664 0.65967 0.86268 0.0
H710 H 0.99207 0.56847 0.68145 0.0
H711 H 0.98657 0.59894 0.74783 0.0
H712 H 1.00386 0.59709 0.98444 0.0
C713 C 1.00809 0.66463 0.07977 0.0
C714 C 0.99804 0.64609 0.89003 0.0
C715 C 1.00635 0.68037 0.12766 0.0
C716 C 1.00003 0.57136 0.73106 0.0
C717 C 0.99686 0.58885 0.76936 0.0
C718 C 1.00248 0.6106 0.95661 0.0
C719 C 0.99754 0.66355 0.01434 0.0
C720 C 0.9985 0.64555 0.9669 0.0
C721 C 1.00643 0.59296 0.83572 0.0
C722 C 1.00276 0.61113 0.87991 0.0
H723 H 0.97444 0.70694 0.03183 0.0
H724 H 0.97754 0.67939 0.94732 0.0
H725 H 1.00018 0.62601 0.05766 0.0
H726 H 0.0329 0.55178 0.8451 0.0
H727 H 0.02748 0.58171 0.911 0.0
C728 C 0.05963 0.23895 0.21687 0.0
C729 C 0.07135 0.23936 0.15492 0.0
C730 C 0.06255 0.22499 0.26946 0.0
C731 C 0.07796 0.17561 0.25517 0.0
H732 H 0.05238 0.17344 0.44221 0.0
C733 C 0.02089 0.12124 0.31776 0.0
C734 C 0.01872 0.114 0.38793 0.0
C735 C 0.03522 0.13456 0.30339 0.0
C736 C 0.06003 0.1737 0.3909 0.0
H737 H 0.09713 0.228 0.1048 0.0
H738 H 0.10282 0.20412 0.19833 0.0
H739 H 0.06583 0.20375 0.40129 0.0
H740 H 0.02991 0.11416 0.49786 0.0
H741 H 0.05502 0.13807 0.47307 0.0
H742 H 0.07128 0.14583 0.24318 0.0
C743 C 0.09094 0.21401 0.20524 0.0
C744 C 0.06759 0.1911 0.36714 0.0
C745 C 0.08783 0.22779 0.15208 0.0
C746 C 0.03148 0.11967 0.44329 0.0
C747 C 0.04573 0.13328 0.42916 0.0
C748 C 0.07051 0.15826 0.27906 0.0
C749 C 0.07736 0.21138 0.26096 0.0
C750 C 0.07557 0.1925 0.29705 0.0
C751 C 0.04753 0.14105 0.35923 0.0
C752 C 0.06045 0.15742 0.34507 0.0
H753 H 0.04678 0.2477 0.22 0.0
H754 H 0.05178 0.22352 0.31152 0.0
H755 H 0.08388 0.17601 0.20071 0.0
H756 H 1.01113 0.11698 0.27453 0.0
H757 H 0.036 0.14052 0.2493 0.0
C758 C 0.31375 0.08586 0.14079 0.0
C759 C 0.29726 0.07434 0.13386 0.0
C760 C 0.32654 0.08283 0.19795 0.0
C761 C 0.33959 0.03803 0.2739 0.0
H762 H 0.38492 0.06559 0.33831 0.0
C763 C 0.40982 0.99834 0.33696 0.0
C764 C 0.42673 1.00707 0.31279 0.0
C765 C 0.3925 1.0084 0.33632 0.0
C766 C 0.37234 0.05771 0.32044 0.0
H767 H 0.27868 0.05455 0.19072 0.0
H768 H 0.30049 0.05006 0.292 0.0
H769 H 0.35526 0.08324 0.31433 0.0
H770 H 0.43896 0.03285 0.26744 0.0
H771 H 0.40855 0.05016 0.26277 0.0
H772 H 0.35674 0.01278 0.2744 0.0
C773 C 0.30412 0.06058 0.25139 0.0
C774 C 0.35534 0.0678 0.30759 0.0
C775 C 0.29152 0.0633 0.19345 0.0
C776 C 0.42601 0.02582 0.28608 0.0
C777 C 0.40868 0.03582 0.28462 0.0
C778 C 0.35652 0.02803 0.28613 0.0
C779 C 0.32264 0.06857 0.24925 0.0
C780 C 0.33893 0.0581 0.28209 0.0
C781 C 0.39176 0.02731 0.31061 0.0
C782 C 0.37325 0.03779 0.30738 0.0
H783 H 0.31814 0.09506 0.09671 0.0
H784 H 0.34052 0.0896 0.19551 0.0
H785 H 0.32744 0.03009 0.25236 0.0
H786 H 0.41015 0.98404 0.35928 0.0
H787 H 0.37977 1.0015 0.35739 0.0
C788 C 0.47818 0.3009 0.19722 0.0
C789 C 0.46398 0.29893 0.14362 0.0
C790 C 0.47642 0.31507 0.25114 0.0
C791 C 0.45636 0.36272 0.24874 0.0
H792 H 0.48524 0.36886 0.42796 0.0
C793 C 0.4812 0.43681 0.33142 0.0
C794 C 0.50093 0.43769 0.346 0.0
C795 C 0.47151 0.41936 0.33493 0.0
C796 C 0.477 0.36735 0.3782 0.0
H797 H 0.43575 0.30795 0.10911 0.0
H798 H 0.43212 0.33208 0.20558 0.0
H799 H 0.47594 0.33673 0.38607 0.0
H800 H 0.52584 0.42166 0.38088 0.0
H801 H 0.50917 0.39092 0.38383 0.0
H802 H 0.45846 0.39292 0.23746 0.0
C803 C 0.44489 0.32321 0.205 0.0
C804 C 0.47162 0.34898 0.35438 0.0
C805 C 0.44683 0.3093 0.1503 0.0
C806 C 0.51059 0.42121 0.3692 0.0
C807 C 0.50098 0.40367 0.37148 0.0
C808 C 0.46171 0.38095 0.27236 0.0
C809 C 0.46034 0.32731 0.2521 0.0
C810 C 0.46183 0.34643 0.28797 0.0
C811 C 0.4815 0.40243 0.35144 0.0
C812 C 0.47265 0.38347 0.336 0.0
H813 H 0.49159 0.2931 0.19235 0.0
H814 H 0.48862 0.31779 0.28635 0.0
H815 H 0.44928 0.3614 0.19641 0.0
H816 H 0.47345 0.44949 0.31479 0.0
H817 H 0.4564 0.41897 0.32093 0.0
C818 C 0.24305 0.47668 0.2157 0.0
C819 C 0.24327 0.46326 0.15828 0.0
C820 C 0.22819 0.47635 0.26659 0.0
C821 C 0.19104 0.47651 0.35366 0.0
H822 H 0.15094 0.4776 0.20686 0.0
C823 C 0.11016 0.5046 0.3631 0.0
C824 C 0.10967 0.52228 0.32671 0.0
C825 C 0.12669 0.49334 0.36192 0.0
C826 C 0.16188 0.47699 0.24874 0.0
H827 H 0.23093 0.43684 0.11679 0.0
H828 H 0.20519 0.43598 0.20667 0.0
H829 H 0.18093 0.46114 0.1804 0.0
H830 H 0.12635 0.54212 0.2623 0.0
H831 H 0.15506 0.52192 0.25802 0.0
H832 H 0.17199 0.49364 0.41974 0.0
C833 C 0.21608 0.44701 0.21162 0.0
C834 C 0.17898 0.46739 0.2342 0.0
C835 C 0.23085 0.44743 0.16047 0.0
C836 C 0.12617 0.52852 0.29001 0.0
C837 C 0.14261 0.51712 0.28817 0.0
C838 C 0.17376 0.48602 0.3684 0.0
C839 C 0.21356 0.46254 0.2602 0.0
C840 C 0.19403 0.46765 0.2854 0.0
C841 C 0.14286 0.49947 0.32373 0.0
C842 C 0.15947 0.48682 0.31484 0.0
H843 H 0.25255 0.48899 0.21503 0.0
H844 H 0.22673 0.48845 0.30374 0.0
H845 H 0.20244 0.47701 0.39377 0.0
H846 H 0.09758 0.49914 0.3906 0.0
H847 H 0.12667 0.47959 0.38868 0.0
C848 C 0.94874 0.81207 0.06955 0.0
C849 C 0.96468 0.79974 0.06728 0.0
C850 C 0.94659 0.82611 0.01697 0.0
C851 C 0.96929 0.86173 0.97353 0.0
H852 H 0.97002 0.86736 0.76397 0.0
C853 C 1.00148 0.92894 0.85576 0.0
C854 C 0.01547 0.92494 0.80264 0.0
C855 C 0.98771 0.91519 0.87288 0.0
C856 C 0.96978 0.86602 0.82261 0.0
H857 H 0.98908 0.79026 0.00337 0.0
H858 H 0.98514 0.81473 0.91045 0.0
H859 H 0.95888 0.83719 0.8168 0.0
H860 H 0.02478 0.90455 0.72011 0.0
H861 H 1.00126 0.88029 0.75135 0.0
H862 H 0.98191 0.88944 0.9806 0.0
C863 C 0.97438 0.81356 0.95274 0.0
C864 C 0.9633 0.84885 0.85253 0.0
C865 C 0.97663 0.79956 0.0058 0.0
C866 C 0.01438 0.90775 0.76242 0.0
C867 C 1.0007 0.89397 0.77973 0.0
C868 C 0.97609 0.87865 0.94386 0.0
C869 C 0.96021 0.82774 0.96126 0.0
C870 C 0.96336 0.84654 0.92812 0.0
C871 C 0.98779 0.89717 0.8375 0.0
C872 C 0.97691 0.88084 0.86796 0.0
H873 H 0.93936 0.81237 0.11664 0.0
H874 H 0.93563 0.83699 0.02446 0.0
H875 H 0.96989 0.86002 0.03207 0.0
H876 H 1.00196 0.94216 0.88737 0.0
H877 H 0.9777 0.91827 0.91664 0.0
C878 C 0.71933 0.94893 0.0892 0.0
C879 C 0.73564 0.96082 0.09044 0.0
C880 C 0.70693 0.94912 0.02962 0.0
C881 C 0.69378 0.98845 0.91566 0.0
H882 H 0.64879 0.95706 0.87768 0.0
C883 C 0.62133 0.02175 0.91391 0.0
C884 C 0.61242 0.02194 0.84562 0.0
C885 C 0.63592 1.00871 0.92761 0.0
C886 C 0.66142 0.96583 0.88684 0.0
H887 H 0.75408 0.97861 0.02432 0.0
H888 H 0.73307 0.97797 0.9188 0.0
H889 H 0.67892 0.94183 0.91638 0.0
H890 H 0.61033 1.00797 0.73996 0.0
H891 H 0.63636 0.98494 0.76407 0.0
H892 H 0.67613 0.01244 0.89013 0.0
C893 C 0.72923 0.96941 0.96538 0.0
C894 C 0.6786 0.9572 0.90897 0.0
C895 C 0.7414 0.96962 0.02572 0.0
C896 C 0.61711 1.00792 0.79306 0.0
C897 C 0.63187 0.99482 0.80677 0.0
C898 C 0.67675 0.99696 0.8939 0.0
C899 C 0.71095 0.96089 0.96998 0.0
C900 C 0.69476 0.96854 0.92645 0.0
C901 C 0.64186 0.99576 0.87303 0.0
C902 C 0.66029 0.98583 0.88227 0.0
H903 H 0.71494 0.94139 0.13762 0.0
H904 H 0.69316 0.94205 0.03483 0.0
H905 H 0.70565 0.9978 0.92985 0.0
H906 H 0.61776 0.03244 0.9551 0.0
H907 H 0.64343 1.00953 0.97927 0.0
C908 C 0.55813 0.74608 0.01957 0.0
C909 C 0.57288 0.74342 0.07049 0.0
C910 C 0.55514 0.73238 0.96478 0.0
C911 C 0.56159 0.68846 0.87417 0.0
H912 H 0.53047 0.66463 0.0233 0.0
C913 C 0.53947 0.60835 0.87266 0.0
C914 C 0.52188 0.60379 0.90513 0.0
C915 C 0.54579 0.62734 0.87237 0.0
C916 C 0.53869 0.67118 0.98019 0.0
H917 H 0.59805 0.72675 0.09723 0.0
H918 H 0.59281 0.70281 1.0013 0.0
H919 H 0.54386 0.69618 0.04523 0.0
H920 H 0.49629 0.61495 0.95702 0.0
H921 H 0.50691 0.64824 0.95472 0.0
H922 H 0.55639 0.6632 0.80909 0.0
C923 C 0.58367 0.71539 0.00319 0.0
C924 C 0.54645 0.68918 0.99308 0.0
C925 C 0.58657 0.72897 0.05841 0.0
C926 C 0.51013 0.61831 0.93343 0.0
C927 C 0.51624 0.63727 0.93199 0.0
C928 C 0.55356 0.67033 0.8607 0.0
C929 C 0.56696 0.71612 0.96074 0.0
C930 C 0.558 0.69785 0.94056 0.0
C931 C 0.53441 0.64192 0.90366 0.0
C932 C 0.5421 0.66152 0.91395 0.0
H933 H 0.54738 0.75712 0.02822 0.0
H934 H 0.54204 0.73301 0.93302 0.0
H935 H 0.57066 0.695 0.83354 0.0
H936 H 0.54849 0.59718 0.84948 0.0
H937 H 0.55987 0.63046 0.85048 0.0
C938 C 0.79016 0.56292 0.00351 0.0
C939 C 0.79432 0.57494 0.06329 0.0
C940 C 0.80283 0.5619 0.94471 0.0
C941 C 0.85015 0.57966 0.87677 0.0
H942 H 0.86347 0.52583 0.88901 0.0
C943 C 0.92694 0.55261 0.90378 0.0
C944 C 0.93183 0.53426 0.87762 0.0
C945 C 0.90832 0.55958 0.89512 0.0
C946 C 0.85985 0.54082 0.88269 0.0
H947 H 0.81291 0.59754 0.10385 0.0
H948 H 0.83517 0.59561 1.00226 0.0
H949 H 0.83165 0.53621 0.92344 0.0
H950 H 0.92132 0.50917 0.8188 0.0
H951 H 0.88897 0.52156 0.80223 0.0
H952 H 0.87901 0.58427 0.84063 0.0
C953 C 0.82228 0.58693 1.0 0.0
C954 C 0.84148 0.5468 0.90227 0.0
C955 C 0.80961 0.58797 0.0586 0.0
C956 C 0.91803 0.52343 0.83926 0.0
C957 C 0.89946 0.53045 0.83018 0.0
C958 C 0.86858 0.57363 0.85688 0.0
C959 C 0.8198 0.57283 0.94542 0.0
C960 C 0.83672 0.56639 0.90291 0.0
C961 C 0.89426 0.54838 0.85978 0.0
C962 C 0.87385 0.55427 0.86301 0.0
H963 H 0.77839 0.55279 0.00579 0.0
H964 H 0.80039 0.55116 0.90258 0.0
H965 H 0.84682 0.59482 0.87619 0.0
H966 H 0.93737 0.56141 0.93243 0.0
H967 H 0.90473 0.57334 0.91946 0.0
C968 C 0.05875 0.213 0.88324 0.0
C969 C 0.04358 0.22329 0.91624 0.0
C970 C 0.05552 0.19546 0.84661 0.0
C971 C 0.01635 0.16245 0.77511 0.0
H972 H 0.05635 0.12394 0.7878 0.0
C973 C 1.00139 0.08228 0.70741 0.0
C974 C 0.0153 0.07137 0.66988 0.0
C975 C 1.00543 0.10085 0.73357 0.0
C976 C 0.04507 0.13453 0.78292 0.0
H977 H 0.01297 0.22306 0.93519 0.0
H978 H 1.00719 0.19251 0.87199 0.0
H979 H 0.06177 0.15595 0.8387 0.0
H980 H 0.0442 0.07214 0.62662 0.0
H981 H 0.05151 0.10457 0.67367 0.0
H982 H 0.9995 0.1408 0.72097 0.0
C983 C 0.02167 0.19811 0.87278 0.0
C984 C 0.04819 0.15309 0.81209 0.0
C985 C 0.02492 0.21582 0.90895 0.0
C986 C 0.03335 0.07986 0.65743 0.0
C987 C 0.03748 0.09852 0.6842 0.0
C988 C 0.01318 0.14387 0.74664 0.0
C989 C 0.037 0.1873 0.84239 0.0
C990 C 0.03385 0.16746 0.80909 0.0
C991 C 0.02351 0.10938 0.72247 0.0
C992 C 0.02742 0.12952 0.75037 0.0
H993 H 0.07336 0.21819 0.88852 0.0
H994 H 0.06775 0.18813 0.82283 0.0
H995 H 1.005 0.17293 0.76975 0.0
H996 H 0.98724 0.07635 0.7169 0.0
H997 H 0.99431 0.10848 0.76323 0.0
C998 C 0.32484 0.06476 0.85817 0.0
C999 C 0.3142 0.04994 0.89014 0.0
C1000 C 0.34288 0.0612 0.82647 0.0
C1001 C 0.37663 0.02184 0.76616 0.0
H1002 H 0.41545 0.06104 0.79582 0.0
C1003 C 0.45717 1.00581 0.71569 0.0
C1004 C 0.46863 0.01982 0.68269 0.0
C1005 C 0.43851 1.01004 0.73972 0.0
C1006 C 0.40479 0.05 0.78623 0.0
H1007 H 0.31418 0.01964 0.91295 0.0
H1008 H 0.34557 0.01326 0.85774 0.0
H1009 H 0.38255 0.0669 0.83597 0.0
H1010 H 0.46909 0.04927 0.64704 0.0
H1011 H 0.43649 0.05683 0.68981 0.0
H1012 H 0.39894 1.00485 0.71734 0.0
C1013 C 0.33988 0.02768 0.85554 0.0
C1014 C 0.38577 0.05337 0.80918 0.0
C1015 C 0.32174 0.03126 0.88688 0.0
C1016 C 0.46084 0.03827 0.67394 0.0
C1017 C 0.4421 0.04256 0.69835 0.0
C1018 C 0.39563 0.01845 0.74354 0.0
C1019 C 0.35104 0.0427 0.82657 0.0
C1020 C 0.37132 0.03931 0.79981 0.0
C1021 C 0.43052 0.0284 0.73074 0.0
C1022 C 0.41008 0.03241 0.75355 0.0
H1023 H 0.31961 0.07938 0.86106 0.0
H1024 H 0.35063 0.07314 0.80354 0.0
H1025 H 0.36605 1.01073 0.75647 0.0
H1026 H 0.46267 0.99142 0.72266 0.0
H1027 H 0.43032 0.99881 0.76542 0.0
C1028 C 0.47101 0.32127 0.85744 0.0
C1029 C 0.48576 0.31195 0.89542 0.0
C1030 C 0.47457 0.33853 0.82139 0.0
C1031 C 0.50686 0.38029 0.83482 0.0
H1032 H 0.4838 0.39521 0.65194 0.0
C1033 C 0.50509 0.45931 0.74415 0.0
C1034 C 0.5091 0.46323 0.67077 0.0
C1035 C 0.50238 0.44047 0.76735 0.0
C1036 C 0.49046 0.39124 0.70286 0.0
H1037 H 0.5158 0.31316 0.92467 0.0
H1038 H 0.52218 0.34315 0.86106 0.0
H1039 H 0.47953 0.36248 0.69577 0.0
H1040 H 0.51326 0.45024 0.56419 0.0
H1041 H 0.50855 0.41728 0.60464 0.0
H1042 H 0.51772 0.40896 0.84235 0.0
C1043 C 0.50785 0.33715 0.85884 0.0
C1044 C 0.48788 0.3725 0.72827 0.0
C1045 C 0.5043 0.31981 0.89429 0.0
C1046 C 0.51025 0.44776 0.62108 0.0
C1047 C 0.50739 0.42886 0.64424 0.0
C1048 C 0.50929 0.39902 0.8098 0.0
C1049 C 0.49291 0.34704 0.82366 0.0
C1050 C 0.49608 0.36676 0.7946 0.0
C1051 C 0.50356 0.42494 0.71786 0.0
C1052 C 0.5011 0.4048 0.74356 0.0
H1053 H 0.45647 0.31576 0.85918 0.0
H1054 H 0.46268 0.34578 0.79553 0.0
H1055 H 0.51314 0.37653 0.88666 0.0
H1056 H 0.50434 0.4708 0.78424 0.0
H1057 H 0.49924 0.43808 0.82426 0.0
C1058 C 0.21523 0.46927 0.89354 0.0
C1059 C 0.2277 0.48451 0.91136 0.0
C1060 C 0.19784 0.47245 0.85732 0.0
C1061 C 0.16268 0.51189 0.81702 0.0
H1062 H 0.1372 0.47121 0.7085 0.0
C1063 C 0.08898 0.52235 0.67032 0.0
C1064 C 0.07511 0.50785 0.67931 0.0
C1065 C 0.10799 0.51988 0.69427 0.0
C1066 C 0.14404 0.48271 0.73904 0.0
H1067 H 0.23202 0.51502 0.90055 0.0
H1068 H 0.2021 0.52059 0.83354 0.0
H1069 H 0.16994 0.46661 0.75094 0.0
H1070 H 0.07107 0.47891 0.71767 0.0
H1071 H 0.10405 0.47455 0.75905 0.0
H1072 H 0.13672 0.52809 0.80304 0.0
C1073 C 0.20544 0.50613 0.84996 0.0
C1074 C 0.16293 0.48007 0.76391 0.0
C1075 C 0.22287 0.50293 0.88716 0.0
C1076 C 0.08106 0.49058 0.71115 0.0
C1077 C 0.10013 0.488 0.73423 0.0
C1078 C 0.14388 0.51464 0.79103 0.0
C1079 C 0.1923 0.49101 0.83635 0.0
C1080 C 0.17257 0.4945 0.80437 0.0
C1081 C 0.11386 0.50267 0.7267 0.0
C1082 C 0.13418 0.5 0.7524 0.0
H1083 H 0.21844 0.45489 0.91159 0.0
H1084 H 0.18834 0.46034 0.84944 0.0
H1085 H 0.1692 0.52331 0.84888 0.0
H1086 H 0.08516 0.53579 0.64533 0.0
H1087 H 0.11817 0.5314 0.68657 0.0
C1088 C 1.00694 0.82129 0.32701 0.0
C1089 C 0.98822 0.81453 0.31376 0.0
C1090 C 1.01009 0.83912 0.36244 0.0
C1091 C 0.98429 0.88578 0.40846 0.0
H1092 H 0.03133 0.89702 0.51301 0.0
C1093 C 0.99939 0.95981 0.55885 0.0
C1094 C 0.01793 0.96751 0.54942 0.0
C1095 C 0.99489 0.94111 0.53315 0.0
C1096 C 0.01812 0.89424 0.48356 0.0
H1097 H 0.95816 0.82118 0.3298 0.0
H1098 H 0.96349 0.85148 0.39423 0.0
H1099 H 0.02546 0.86466 0.46712 0.0
H1100 H 0.0464 0.96104 0.50888 0.0
H1101 H 0.03875 0.92878 0.46531 0.0
H1102 H 0.97697 0.91549 0.42625 0.0
C1103 C 0.97591 0.84344 0.37593 0.0
C1104 C 0.01475 0.87552 0.45672 0.0
C1105 C 0.9728 0.82573 0.34015 0.0
C1106 C 0.0319 0.95576 0.51604 0.0
C1107 C 0.02751 0.93712 0.49138 0.0
C1108 C 0.9876 0.90449 0.43608 0.0
C1109 C 0.9946 0.85085 0.38596 0.0
C1110 C 0.99785 0.87087 0.41785 0.0
C1111 C 1.00897 0.92938 0.49944 0.0
C1112 C 1.0047 0.90912 0.47337 0.0
H1113 H 0.01913 0.81338 0.3057 0.0
H1114 H 0.02474 0.8441 0.36779 0.0
H1115 H 0.97122 0.88323 0.37798 0.0
H1116 H 0.98843 0.96817 0.58646 0.0
H1117 H 0.98048 0.9357 0.54114 0.0
C1118 C 0.70946 0.97339 0.36248 0.0
C1119 C 0.72096 0.988 0.33324 0.0
C1120 C 0.69188 0.9776 0.3966 0.0
C1121 C 0.66135 0.01787 0.471 0.0
H1122 H 0.61962 0.98233 0.43231 0.0
C1123 C 0.5823 0.03868 0.53067 0.0
C1124 C 0.56975 0.02487 0.55889 0.0
C1125 C 0.60065 0.03361 0.5055 0.0
C1126 C 0.63111 0.99233 0.44454 0.0
H1127 H 0.72308 0.0186 0.3187 0.0
H1128 H 0.69249 0.02612 0.37853 0.0
H1129 H 0.65184 0.97501 0.38787 0.0
H1130 H 0.56692 0.99476 0.58407 0.0
H1131 H 0.59899 0.98576 0.53938 0.0
H1132 H 0.64056 0.03527 0.52694 0.0
C1133 C 0.69714 0.01132 0.37621 0.0
C1134 C 0.64973 0.98811 0.41906 0.0
C1135 C 0.71483 1.00707 0.34223 0.0
C1136 C 0.5761 1.00572 0.56148 0.0
C1137 C 0.59452 1.00058 0.53584 0.0
C1138 C 0.64274 0.02209 0.49628 0.0
C1139 C 0.68507 0.99659 0.4021 0.0
C1140 C 0.66521 1.00085 0.43152 0.0
C1141 C 0.60721 0.01453 0.50818 0.0
C1142 C 0.62725 1.00949 0.48307 0.0
H1143 H 0.71364 0.95852 0.35553 0.0
H1144 H 0.68341 0.96583 0.41706 0.0
H1145 H 0.67277 0.02794 0.48316 0.0
H1146 H 0.57792 0.05356 0.52819 0.0
H1147 H 0.60971 0.04474 0.48354 0.0
C1148 C 0.57161 0.72066 0.36087 0.0
C1149 C 0.5568 0.73063 0.3256 0.0
C1150 C 0.56786 0.70333 0.39646 0.0
C1151 C 0.53395 0.66262 0.38607 0.0
H1152 H 0.55847 0.64599 0.56396 0.0
C1153 C 0.53423 0.58303 0.47041 0.0
C1154 C 0.53061 0.57872 0.54377 0.0
C1155 C 0.53732 0.60194 0.44858 0.0
C1156 C 0.5514 0.65044 0.51445 0.0
H1157 H 0.52648 0.73037 0.30059 0.0
H1158 H 0.51979 0.70036 0.3635 0.0
H1159 H 0.56355 0.67875 0.52115 0.0
H1160 H 0.52751 0.59115 0.65185 0.0
H1161 H 0.53305 0.62428 0.61374 0.0
H1162 H 0.52193 0.63438 0.37878 0.0
C1163 C 0.53432 0.70588 0.36399 0.0
C1164 C 0.55443 0.6692 0.48958 0.0
C1165 C 0.53806 0.72327 0.32897 0.0
C1166 C 0.53026 0.59392 0.5949 0.0
C1167 C 0.53356 0.61291 0.57309 0.0
C1168 C 0.53109 0.64387 0.41045 0.0
C1169 C 0.54926 0.69536 0.39646 0.0
C1170 C 0.54571 0.67558 0.42501 0.0
C1171 C 0.53697 0.61721 0.49942 0.0
C1172 C 0.5398 0.63745 0.47488 0.0
H1173 H 0.58629 0.7257 0.35719 0.0
H1174 H 0.57978 0.69561 0.42011 0.0
H1175 H 0.52721 0.66682 0.3356 0.0
H1176 H 0.53432 0.5718 0.4292 0.0
H1177 H 0.54008 0.6046 0.39158 0.0
C1178 C 0.81728 0.53672 0.30008 0.0
C1179 C 0.80649 0.55345 0.31285 0.0
C1180 C 0.83459 0.53354 0.33711 0.0
C1181 C 0.86557 0.54935 0.49322 0.0
H1182 H 0.90646 0.5302 0.3689 0.0
C1183 C 0.94213 0.52776 0.60156 0.0
C1184 C 0.95796 0.53238 0.55729 0.0
C1185 C 0.92315 0.53067 0.57701 0.0
C1186 C 0.8953 0.53566 0.40463 0.0
H1187 H 0.80538 0.5799 0.3754 0.0
H1188 H 0.83548 0.57421 0.44163 0.0
H1189 H 0.87443 0.53443 0.31917 0.0
H1190 H 0.96575 0.54326 0.45138 0.0
H1191 H 0.93328 0.54869 0.40991 0.0
H1192 H 0.88675 0.55082 0.57851 0.0
C1193 C 0.83042 0.56337 0.40351 0.0
C1194 C 0.87676 0.53787 0.37615 0.0
C1195 C 0.81307 0.56659 0.36601 0.0
C1196 C 0.95418 0.53996 0.4881 0.0
C1197 C 0.93536 0.54278 0.46358 0.0
C1198 C 0.8842 0.547 0.52201 0.0
C1199 C 0.84177 0.54707 0.38784 0.0
C1200 C 0.86154 0.5447 0.41985 0.0
C1201 C 0.91949 0.53802 0.50712 0.0
C1202 C 0.89939 0.54019 0.47798 0.0
H1203 H 0.81284 0.52658 0.25819 0.0
H1204 H 0.84268 0.52068 0.32417 0.0
H1205 H 0.85428 0.55462 0.52871 0.0
H1206 H 0.94439 0.5218 0.655 0.0
H1207 H 0.91136 0.52668 0.6121 0.0
loop_
_geom_bond_atom_site_label_1
_geom_bond_atom_site_label_2
_geom_bond_distance
_geom_bond_site_symmetry_2
_ccdc_geom_bond_type
H0 C1 0.949 . S
C1 H0 0.949 . S
C1 C2 1.395 . S
C1 C3 1.391 . S
C2 C1 1.395 . S
C2 C5 1.390 . S
C3 C1 1.391 . S
C3 C7 1.387 . S
C3 C8 1.491 . S
H4 C5 0.950 . S
C5 C2 1.390 . S
C5 H4 0.950 . S
C5 C6 1.378 . S
C6 C5 1.378 . S
C6 C7 1.409 . S
C7 C3 1.387 . S
C7 C6 1.409 . S
C7 H9 0.951 . S
C8 C3 1.491 . S
C8 C10 1.382 . S
C8 C12 1.404 . S
H9 C7 0.951 . S
C10 C8 1.382 . S
C10 C11 1.390 . S
C10 H15 0.949 . S
C11 C10 1.390 . S
C11 C16 1.399 . S
C12 C8 1.404 . S
C12 H13 0.950 . S
C12 C14 1.375 . S
H13 C12 0.950 . S
C14 C12 1.375 . S
C14 C16 1.382 . S
C14 H18 0.950 . S
H15 C10 0.949 . S
C16 C11 1.399 . S
C16 C14 1.382 . S
C16 H17 0.952 . S
H17 C16 0.952 . S
H18 C14 0.950 . S
H19 C20 0.949 . S
C20 H19 0.949 . S
C20 C21 1.395 . S
C20 C22 1.391 . S
C21 C20 1.395 . S
C21 C24 1.390 . S
C22 C20 1.391 . S
C22 C26 1.387 . S
C22 C27 1.491 . S
H23 C24 0.950 . S
C24 C21 1.390 . S
C24 H23 0.950 . S
C24 C25 1.378 . S
C25 C24 1.378 . S
C25 C26 1.409 . S
C26 C22 1.387 . S
C26 C25 1.409 . S
C26 H28 0.951 . S
C27 C22 1.491 . S
C27 C29 1.382 . S
C27 C31 1.404 . S
H28 C26 0.951 . S
C29 C27 1.382 . S
C29 C30 1.390 . S
C29 H34 0.949 . S
C30 C29 1.390 . S
C30 C35 1.399 . S
C31 C27 1.404 . S
C31 H32 0.950 . S
C31 C33 1.375 . S
H32 C31 0.950 . S
C33 C31 1.375 . S
C33 C35 1.382 . S
C33 H37 0.950 . S
H34 C29 0.949 . S
C35 C30 1.399 . S
C35 C33 1.382 . S
C35 H36 0.952 . S
H36 C35 0.952 . S
H37 C33 0.950 . S
H38 C39 0.949 . S
C39 H38 0.949 . S
C39 C40 1.395 . S
C39 C41 1.391 . S
C40 C39 1.395 . S
C40 C43 1.390 . S
C41 C39 1.391 . S
C41 C45 1.387 . S
C41 C46 1.491 . S
H42 C43 0.950 . S
C43 C40 1.390 . S
C43 H42 0.950 . S
C43 C44 1.378 . S
C44 C43 1.378 . S
C44 C45 1.409 . S
C45 C41 1.387 . S
C45 C44 1.409 . S
C45 H47 0.951 . S
C46 C41 1.491 . S
C46 C48 1.382 . S
C46 C50 1.404 . S
H47 C45 0.951 . S
C48 C46 1.382 . S
C48 C49 1.390 . S
C48 H53 0.949 . S
C49 C48 1.390 . S
C49 C54 1.399 . S
C50 C46 1.404 . S
C50 H51 0.950 . S
C50 C52 1.375 . S
H51 C50 0.950 . S
C52 C50 1.375 . S
C52 C54 1.382 . S
C52 H56 0.950 . S
H53 C48 0.949 . S
C54 C49 1.399 . S
C54 C52 1.382 . S
C54 H55 0.952 . S
H55 C54 0.952 . S
H56 C52 0.950 . S
H57 C58 0.949 . S
C58 H57 0.949 . S
C58 C59 1.395 . S
C58 C60 1.391 . S
C59 C58 1.395 . S
C59 C62 1.390 . S
C60 C58 1.391 . S
C60 C64 1.387 . S
C60 C65 1.491 . S
H61 C62 0.950 . S
C62 C59 1.390 . S
C62 H61 0.950 . S
C62 C63 1.378 . S
C63 C62 1.378 . S
C63 C64 1.409 . S
C64 C60 1.387 . S
C64 C63 1.409 . S
C64 H66 0.951 . S
C65 C60 1.491 . S
C65 C67 1.382 . S
C65 C69 1.404 . S
H66 C64 0.951 . S
C67 C65 1.382 . S
C67 C68 1.390 . S
C67 H72 0.949 . S
C68 C67 1.390 . S
C68 C73 1.399 . S
C69 C65 1.404 . S
C69 H70 0.950 . S
C69 C71 1.375 . S
H70 C69 0.950 . S
C71 C69 1.375 . S
C71 C73 1.382 . S
C71 H75 0.950 . S
H72 C67 0.949 . S
C73 C68 1.399 . S
C73 C71 1.382 . S
C73 H74 0.952 . S
H74 C73 0.952 . S
H75 C71 0.950 . S
H76 C77 0.949 . S
C77 H76 0.949 . S
C77 C78 1.395 . S
C77 C79 1.391 1_554 S
C78 C77 1.395 . S
C78 C81 1.390 1_554 S
C79 C77 1.391 1_556 S
C79 C83 1.387 . S
C79 C84 1.491 . S
H80 C81 0.950 . S
C81 C78 1.390 1_556 S
C81 H80 0.950 . S
C81 C82 1.378 . S
C82 C81 1.378 . S
C82 C83 1.409 . S
C83 C79 1.387 . S
C83 C82 1.409 . S
C83 H85 0.951 . S
C84 C79 1.491 . S
C84 C86 1.382 1_556 S
C84 C88 1.404 . S
H85 C83 0.951 . S
C86 C84 1.382 1_554 S
C86 C87 1.390 . S
C86 H91 0.949 . S
C87 C86 1.390 . S
C87 C92 1.399 1_554 S
C88 C84 1.404 . S
C88 H89 0.950 . S
C88 C90 1.375 . S
H89 C88 0.950 . S
C90 C88 1.375 . S
C90 C92 1.382 . S
C90 H94 0.950 . S
H91 C86 0.949 . S
C92 C87 1.399 1_556 S
C92 C90 1.382 . S
C92 H93 0.952 1_556 S
H93 C92 0.952 1_554 S
H94 C90 0.950 . S
H95 C96 0.949 . S
C96 H95 0.949 . S
C96 C97 1.395 . S
C96 C98 1.391 1_554 S
C97 C96 1.395 . S
C97 C100 1.390 1_554 S
C98 C96 1.391 1_556 S
C98 C102 1.387 . S
C98 C103 1.491 . S
H99 C100 0.950 . S
C100 C97 1.390 1_556 S
C100 H99 0.950 . S
C100 C101 1.378 . S
C101 C100 1.378 . S
C101 C102 1.409 . S
C102 C98 1.387 . S
C102 C101 1.409 . S
C102 H104 0.951 . S
C103 C98 1.491 . S
C103 C105 1.382 1_556 S
C103 C107 1.404 . S
H104 C102 0.951 . S
C105 C103 1.382 1_554 S
C105 C106 1.390 . S
C105 H110 0.949 . S
C106 C105 1.390 . S
C106 C111 1.399 1_554 S
C107 C103 1.404 . S
C107 H108 0.950 . S
C107 C109 1.375 . S
H108 C107 0.950 . S
C109 C107 1.375 . S
C109 C111 1.382 . S
C109 H113 0.950 . S
H110 C105 0.949 . S
C111 C106 1.399 1_556 S
C111 C109 1.382 . S
C111 H112 0.952 . S
H112 C111 0.952 . S
H113 C109 0.950 . S
H114 C115 0.949 . S
C115 H114 0.949 . S
C115 C116 1.395 . S
C115 C117 1.391 1_554 S
C116 C115 1.395 . S
C116 C119 1.390 1_554 S
C117 C115 1.391 1_556 S
C117 C121 1.387 . S
C117 C122 1.491 . S
H118 C119 0.950 . S
C119 C116 1.390 1_556 S
C119 H118 0.950 . S
C119 C120 1.378 . S
C120 C119 1.378 . S
C120 C121 1.409 . S
C121 C117 1.387 . S
C121 C120 1.409 . S
C121 H123 0.951 . S
C122 C117 1.491 . S
C122 C124 1.382 1_556 S
C122 C126 1.404 . S
H123 C121 0.951 . S
C124 C122 1.382 1_554 S
C124 C125 1.390 . S
C124 H129 0.949 . S
C125 C124 1.390 . S
C125 C130 1.399 1_554 S
C126 C122 1.404 . S
C126 H127 0.950 . S
C126 C128 1.375 . S
H127 C126 0.950 . S
C128 C126 1.375 . S
C128 C130 1.382 . S
C128 H132 0.950 . S
H129 C124 0.949 . S
C130 C125 1.399 1_556 S
C130 C128 1.382 . S
C130 H131 0.952 . S
H131 C130 0.952 . S
H132 C128 0.950 . S
H133 C134 0.949 . S
C134 H133 0.949 . S
C134 C135 1.395 . S
C134 C136 1.391 1_554 S
C135 C134 1.395 . S
C135 C138 1.390 1_554 S
C136 C134 1.391 1_556 S
C136 C140 1.387 . S
C136 C141 1.491 . S
H137 C138 0.950 . S
C138 C135 1.390 1_556 S
C138 H137 0.950 . S
C138 C139 1.378 . S
C139 C138 1.378 . S
C139 C140 1.409 . S
C140 C136 1.387 . S
C140 C139 1.409 . S
C140 H142 0.951 . S
C141 C136 1.491 . S
C141 C143 1.382 1_556 S
C141 C145 1.404 . S
H142 C140 0.951 . S
C143 C141 1.382 1_554 S
C143 C144 1.390 . S
C143 H148 0.949 . S
C144 C143 1.390 . S
C144 C149 1.396 1_554 S
C145 C141 1.404 . S
C145 H146 0.950 . S
C145 C147 1.375 . S
H146 C145 0.950 . S
C147 C145 1.375 . S
C147 C149 1.385 . S
C147 H151 0.950 . S
H148 C143 0.949 . S
C149 C144 1.396 1_556 S
C149 C147 1.385 . S
C149 H150 0.951 1_556 S
H150 C149 0.951 1_554 S
H151 C147 0.950 . S
Eu152 N183 2.657 1_565 S
Eu152 N190 2.609 1_565 S
Eu152 O196 2.558 . S
Eu152 O197 2.612 1_455 S
Eu152 O199 2.337 1_465 S
Eu152 O200 2.563 . S
Eu152 O201 2.419 . S
Eu152 O203 2.380 1_565 S
Eu152 O204 2.432 . S
Eu152 C216 2.848 . S
C153 C156 1.428 . S
C153 C157 1.411 . S
C153 N160 1.377 . S
C154 C156 1.422 1_565 S
C154 C158 1.423 . S
C154 C166 1.392 . S
C155 C157 1.420 1_565 S
C155 C158 1.351 . S
C155 H178 0.931 . S
C156 C153 1.428 . S
C156 C154 1.422 1_545 S
C156 N164 1.361 . S
C157 C153 1.411 . S
C157 C155 1.420 1_545 S
C157 C162 1.395 . S
C158 C154 1.423 . S
C158 C155 1.351 . S
C158 H170 0.930 . S
C159 C161 1.400 . S
C159 C162 1.386 . S
C159 H171 0.930 . S
N160 C153 1.377 . S
N160 C161 1.321 . S
N160 Eu163 2.609 . S
C161 C159 1.400 . S
C161 N160 1.321 . S
C161 H168 0.930 . S
C162 C157 1.395 . S
C162 C159 1.386 . S
C162 H181 0.930 . S
Eu163 N160 2.609 . S
Eu163 N164 2.657 . S
Eu163 O197 2.380 1_545 S
Eu163 O198 2.432 . S
Eu163 O202 2.558 . S
Eu163 O203 2.612 1_655 S
Eu163 O205 2.339 1_655 S
Eu163 O206 2.563 1_655 S
Eu163 O207 2.419 1_655 S
Eu163 C227 2.848 . S
N164 C156 1.361 . S
N164 Eu163 2.657 . S
N164 C165 1.334 1_645 S
C165 N164 1.334 1_465 S
C165 C167 1.413 . S
C165 H172 0.941 . S
C166 C154 1.392 . S
C166 C167 1.367 1_655 S
C166 H174 0.930 . S
C167 C165 1.413 . S
C167 C166 1.367 1_455 S
C167 H169 0.930 . S
H168 C161 0.930 . S
H169 C167 0.930 . S
H170 C158 0.930 . S
H171 C159 0.930 . S
H172 C165 0.941 . S
H173 C187 0.879 1_655 S
H174 C166 0.930 . S
H175 C193 0.930 . S
H176 C184 0.929 1_655 S
H177 C191 0.930 . S
H178 C155 0.931 . S
H179 C185 0.930 . S
H180 C218 0.930 . S
H181 C162 0.930 . S
H182 C217 0.931 . S
N183 Eu152 2.657 1_545 S
N183 C184 1.334 . S
N183 C188 1.362 . S
C184 H176 0.929 1_455 S
C184 N183 1.334 . S
C184 C187 1.416 . S
C185 H179 0.930 . S
C185 C186 1.392 . S
C185 C187 1.418 . S
C186 C185 1.392 . S
C186 C188 1.420 . S
C186 C218 1.423 . S
C187 H173 0.879 1_455 S
C187 C184 1.416 . S
C187 C185 1.418 . S
C188 N183 1.362 . S
C188 C186 1.420 . S
C188 C192 1.429 . S
H189 C194 0.930 . S
N190 Eu152 2.609 1_545 S
N190 C192 1.377 . S
N190 C193 1.321 1_545 S
C191 H177 0.930 . S
C191 C193 1.400 . S
C191 C194 1.386 1_565 S
C192 C188 1.429 . S
C192 N190 1.377 . S
C192 C195 1.411 . S
C193 H175 0.930 . S
C193 N190 1.321 1_565 S
C193 C191 1.400 . S
C194 H189 0.930 . S
C194 C191 1.386 1_545 S
C194 C195 1.395 . S
C195 C192 1.411 . S
C195 C194 1.395 . S
C195 C217 1.420 . S
O196 Eu152 2.558 . S
O196 C216 1.257 . S
O197 Eu152 2.612 1_655 S
O197 Eu163 2.380 1_565 S
O197 C208 1.276 . S
O198 Eu163 2.432 . S
O198 C215 1.264 . S
O199 Eu152 2.337 1_645 S
O199 C215 1.257 . S
O200 Eu152 2.563 . S
O200 C208 1.235 1_455 S
O201 Eu152 2.419 . S
O201 C216 1.249 . S
O202 Eu163 2.558 . S
O202 C227 1.257 . S
O203 Eu152 2.380 1_545 S
O203 Eu163 2.612 1_455 S
O203 C219 1.276 . S
O204 Eu152 2.432 . S
O204 C226 1.265 1_565 S
O205 Eu163 2.339 1_455 S
O205 C226 1.254 . S
O206 Eu163 2.563 1_455 S
O206 C219 1.235 . S
O207 Eu163 2.419 1_455 S
O207 C227 1.249 1_455 S
C208 O197 1.276 . S
C208 O200 1.235 1_655 S
C209 C211 1.393 . S
C209 C213 1.395 . S
C209 C216 1.492 . S
C210 C211 1.392 . S
C210 C212 1.386 . S
C211 C209 1.393 . S
C211 C210 1.392 . S
C211 H228 0.930 1_455 S
C212 C210 1.386 . S
C212 C214 1.395 . S
C212 H229 0.930 . S
C213 C209 1.395 . S
C213 C214 1.379 . S
C213 H230 0.930 . S
C214 C212 1.395 . S
C214 C213 1.379 . S
C214 H231 0.930 . S
C215 O198 1.264 . S
C215 O199 1.257 . S
C216 Eu152 2.848 . S
C216 O196 1.257 . S
C216 O201 1.249 . S
C216 C209 1.492 . S
C217 H182 0.931 . S
C217 C195 1.420 . S
C217 C218 1.351 . S
C218 H180 0.930 . S
C218 C186 1.423 . S
C218 C217 1.351 . S
C219 O203 1.276 . S
C219 O206 1.235 . S
C220 C221 1.393 1_655 S
C220 C224 1.395 . S
C220 C227 1.492 . S
C221 C220 1.393 1_455 S
C221 C222 1.392 . S
C221 H232 0.930 . S
C222 C221 1.392 . S
C222 C223 1.386 1_455 S
C223 C222 1.386 1_655 S
C223 C225 1.395 . S
C223 H233 0.930 . S
C224 C220 1.395 . S
C224 C225 1.379 . S
C224 H234 0.930 . S
C225 C223 1.395 . S
C225 C224 1.379 . S
C225 H235 0.930 . S
C226 O204 1.265 1_545 S
C226 O205 1.254 . S
C227 Eu163 2.848 . S
C227 O202 1.257 . S
C227 O207 1.249 1_655 S
C227 C220 1.492 . S
H228 C211 0.930 1_655 S
H229 C212 0.930 . S
H230 C213 0.930 . S
H231 C214 0.930 . S
H232 C221 0.930 . S
H233 C223 0.930 . S
H234 C224 0.930 . S
H235 C225 0.930 . S
Eu236 N267 2.657 . S
Eu236 N274 2.609 . S
Eu236 O280 2.558 . S
Eu236 O281 2.612 . S
Eu236 O283 2.339 1_545 S
Eu236 O284 2.563 . S
Eu236 O285 2.419 . S
Eu236 O287 2.380 . S
Eu236 O288 2.432 . S
Eu236 C300 2.848 . S
C237 C240 1.429 . S
C237 C241 1.411 . S
C237 N244 1.377 . S
C238 C240 1.420 . S
C238 C242 1.423 . S
C238 C250 1.446 . S
C239 C241 1.420 . S
C239 C242 1.351 . S
C239 H262 0.931 . S
C240 C237 1.429 . S
C240 C238 1.420 . S
C240 N248 1.362 . S
C241 C237 1.411 . S
C241 C239 1.420 . S
C241 C246 1.395 . S
C242 C238 1.423 . S
C242 C239 1.351 . S
C242 H254 0.930 . S
C243 C245 1.400 . S
C243 C246 1.386 . S
C243 H255 0.930 . S
N244 C237 1.377 . S
N244 C245 1.321 . S
N244 Eu247 2.609 . S
C245 C243 1.400 . S
C245 N244 1.321 . S
C245 H252 0.930 . S
C246 C241 1.395 . S
C246 C243 1.386 . S
C246 H265 0.930 . S
Eu247 N244 2.609 . S
Eu247 N248 2.657 . S
Eu247 O281 2.380 1_565 S
Eu247 O282 2.432 . S
Eu247 O286 2.558 . S
Eu247 O287 2.612 1_565 S
Eu247 O289 2.339 1_565 S
Eu247 O290 2.563 1_565 S
Eu247 O291 2.419 1_565 S
Eu247 C311 2.848 . S
N248 C240 1.362 . S
N248 Eu247 2.657 . S
N248 C249 1.334 1_565 S
C249 N248 1.334 1_545 S
C249 C251 1.413 . S
C249 H256 0.929 . S
C250 C238 1.446 . S
C250 C251 1.316 1_565 S
C250 H258 0.930 . S
C251 C249 1.413 . S
C251 C250 1.316 1_545 S
C251 H253 0.930 . S
H252 C245 0.930 . S
H253 C251 0.930 . S
H254 C242 0.930 . S
H255 C243 0.930 . S
H256 C249 0.929 . S
H257 C271 0.930 1_565 S
H258 C250 0.930 . S
H259 C277 0.930 . S
H260 C268 0.929 1_565 S
H261 C275 0.930 . S
H262 C239 0.931 . S
H263 C269 0.930 . S
H264 C302 0.930 . S
H265 C246 0.930 . S
H266 C301 0.931 . S
N267 Eu236 2.657 . S
N267 C268 1.334 . S
N267 C272 1.362 . S
C268 H260 0.929 1_545 S
C268 N267 1.334 . S
C268 C271 1.413 . S
C269 H263 0.930 . S
C269 C270 1.392 . S
C269 C271 1.367 . S
C270 C269 1.392 . S
C270 C272 1.420 . S
C270 C302 1.423 . S
C271 H257 0.930 1_545 S
C271 C268 1.413 . S
C271 C269 1.367 . S
C272 N267 1.362 . S
C272 C270 1.420 . S
C272 C276 1.429 . S
H273 C278 0.930 . S
N274 Eu236 2.609 . S
N274 C276 1.377 . S
N274 C277 1.321 . S
C275 H261 0.930 . S
C275 C277 1.400 . S
C275 C278 1.386 . S
C276 C272 1.429 . S
C276 N274 1.377 . S
C276 C279 1.411 . S
C277 H259 0.930 . S
C277 N274 1.321 . S
C277 C275 1.400 . S
C278 H273 0.930 . S
C278 C275 1.386 . S
C278 C279 1.395 . S
C279 C276 1.411 . S
C279 C278 1.395 . S
C279 C301 1.420 . S
O280 Eu236 2.558 . S
O280 C300 1.257 . S
O281 Eu236 2.612 . S
O281 Eu247 2.380 1_545 S
O281 C292 1.276 . S
O282 Eu247 2.432 . S
O282 C299 1.264 . S
O283 Eu236 2.339 1_565 S
O283 C299 1.254 . S
O284 Eu236 2.563 . S
O284 C292 1.235 . S
O285 Eu236 2.419 . S
O285 C300 1.249 . S
O286 Eu247 2.558 . S
O286 C311 1.257 . S
O287 Eu236 2.380 . S
O287 Eu247 2.612 1_545 S
O287 C303 1.276 . S
O288 Eu236 2.432 . S
O288 C310 1.264 . S
O289 Eu247 2.339 1_545 S
O289 C310 1.254 . S
O290 Eu247 2.563 1_545 S
O290 C303 1.235 . S
O291 Eu247 2.419 1_545 S
O291 C311 1.249 1_545 S
C292 O281 1.276 . S
C292 O284 1.235 . S
C293 C295 1.393 . S
C293 C297 1.395 . S
C293 C300 1.492 . S
C294 C295 1.392 . S
C294 C296 1.386 . S
C295 C293 1.393 . S
C295 C294 1.392 . S
C295 H312 0.930 . S
C296 C294 1.386 . S
C296 C298 1.395 . S
C296 H313 0.930 . S
C297 C293 1.395 . S
C297 C298 1.379 . S
C297 H314 0.930 . S
C298 C296 1.395 . S
C298 C297 1.379 . S
C298 H315 0.930 . S
C299 O282 1.264 . S
C299 O283 1.254 . S
C300 Eu236 2.848 . S
C300 O280 1.257 . S
C300 O285 1.249 . S
C300 C293 1.492 . S
C301 H266 0.931 . S
C301 C279 1.420 . S
C301 C302 1.351 . S
C302 H264 0.930 . S
C302 C270 1.423 . S
C302 C301 1.351 . S
C303 O287 1.276 . S
C303 O290 1.235 . S
C304 C305 1.393 1_565 S
C304 C308 1.395 . S
C304 C311 1.492 . S
C305 C304 1.393 1_545 S
C305 C306 1.392 . S
C305 H316 0.930 . S
C306 C305 1.392 . S
C306 C307 1.386 1_545 S
C307 C306 1.386 1_565 S
C307 C309 1.395 . S
C307 H317 0.930 . S
C308 C304 1.395 . S
C308 C309 1.379 . S
C308 H318 0.930 . S
C309 C307 1.395 . S
C309 C308 1.379 . S
C309 H319 0.930 . S
C310 O288 1.264 . S
C310 O289 1.254 . S
C311 Eu247 2.848 . S
C311 O286 1.257 . S
C311 O291 1.249 1_565 S
C311 C304 1.492 . S
H312 C295 0.930 . S
H313 C296 0.930 . S
H314 C297 0.930 . S
H315 C298 0.930 . S
H316 C305 0.930 . S
H317 C307 0.930 . S
H318 C308 0.930 . S
H319 C309 0.930 . S
Eu320 N351 2.657 . S
Eu320 N358 2.609 . S
Eu320 O364 2.558 . S
Eu320 O365 2.612 . S
Eu320 O367 2.339 . S
Eu320 O368 2.563 . S
Eu320 O369 2.419 . S
Eu320 O371 2.380 . S
Eu320 O372 2.432 . S
Eu320 C384 2.848 . S
C321 C324 1.429 . S
C321 C325 1.411 . S
C321 N328 1.377 . S
C322 C324 1.420 . S
C322 C326 1.423 . S
C322 C334 1.392 . S
C323 C325 1.420 . S
C323 C326 1.351 . S
C323 H346 0.931 . S
C324 C321 1.429 . S
C324 C322 1.420 . S
C324 N332 1.362 . S
C325 C321 1.411 . S
C325 C323 1.420 . S
C325 C330 1.395 . S
C326 C322 1.423 . S
C326 C323 1.351 . S
C326 H338 0.930 . S
C327 C329 1.400 . S
C327 C330 1.386 . S
C327 H339 0.930 . S
N328 C321 1.377 . S
N328 C329 1.321 . S
N328 Eu331 2.609 . S
C329 C327 1.400 . S
C329 N328 1.321 . S
C329 H336 0.930 . S
C330 C325 1.395 . S
C330 C327 1.386 . S
C330 H349 0.930 . S
Eu331 N328 2.609 . S
Eu331 N332 2.657 . S
Eu331 O365 2.380 . S
Eu331 O366 2.432 . S
Eu331 O370 2.558 . S
Eu331 O371 2.612 . S
Eu331 O373 2.339 . S
Eu331 O374 2.563 . S
Eu331 O375 2.419 . S
Eu331 C395 2.848 . S
N332 C324 1.362 . S
N332 Eu331 2.657 . S
N332 C333 1.334 . S
C333 N332 1.334 . S
C333 C335 1.413 . S
C333 H340 0.929 . S
C334 C322 1.392 . S
C334 C335 1.367 . S
C334 H342 0.930 . S
C335 C333 1.413 . S
C335 C334 1.367 . S
C335 H337 0.930 . S
H336 C329 0.930 . S
H337 C335 0.930 . S
H338 C326 0.930 . S
H339 C327 0.930 . S
H340 C333 0.929 . S
H341 C355 0.930 . S
H342 C334 0.930 . S
H343 C361 0.930 . S
H344 C352 0.929 . S
H345 C359 0.930 . S
H346 C323 0.931 . S
H347 C353 0.930 . S
H348 C386 0.930 . S
H349 C330 0.930 . S
H350 C385 0.931 . S
N351 Eu320 2.657 . S
N351 C352 1.334 . S
N351 C356 1.362 . S
C352 H344 0.929 . S
C352 N351 1.334 . S
C352 C355 1.413 . S
C353 H347 0.930 . S
C353 C354 1.392 . S
C353 C355 1.367 . S
C354 C353 1.392 . S
C354 C356 1.420 . S
C354 C386 1.423 . S
C355 H341 0.930 . S
C355 C352 1.413 . S
C355 C353 1.367 . S
C356 N351 1.362 . S
C356 C354 1.420 . S
C356 C360 1.429 . S
H357 C362 0.930 . S
N358 Eu320 2.609 . S
N358 C360 1.377 . S
N358 C361 1.321 . S
C359 H345 0.930 . S
C359 C361 1.400 . S
C359 C362 1.386 . S
C360 C356 1.429 . S
C360 N358 1.377 . S
C360 C363 1.411 . S
C361 H343 0.930 . S
C361 N358 1.321 . S
C361 C359 1.400 . S
C362 H357 0.930 . S
C362 C359 1.386 . S
C362 C363 1.395 . S
C363 C360 1.411 . S
C363 C362 1.395 . S
C363 C385 1.420 . S
O364 Eu320 2.558 . S
O364 C384 1.257 . S
O365 Eu320 2.612 . S
O365 Eu331 2.380 . S
O365 C376 1.276 . S
O366 Eu331 2.432 . S
O366 C383 1.264 . S
O367 Eu320 2.339 . S
O367 C383 1.254 . S
O368 Eu320 2.563 . S
O368 C376 1.235 . S
O369 Eu320 2.419 . S
O369 C384 1.249 . S
O370 Eu331 2.558 . S
O370 C395 1.257 . S
O371 Eu320 2.380 . S
O371 Eu331 2.612 . S
O371 C387 1.276 . S
O372 Eu320 2.432 . S
O372 C394 1.264 . S
O373 Eu331 2.339 . S
O373 C394 1.254 . S
O374 Eu331 2.563 . S
O374 C387 1.235 . S
O375 Eu331 2.419 . S
O375 C395 1.249 . S
C376 O365 1.276 . S
C376 O368 1.235 . S
C377 C379 1.393 . S
C377 C381 1.395 . S
C377 C384 1.492 . S
C378 C379 1.392 . S
C378 C380 1.386 . S
C379 C377 1.393 . S
C379 C378 1.392 . S
C379 H396 0.930 . S
C380 C378 1.386 . S
C380 C382 1.395 . S
C380 H397 0.930 . S
C381 C377 1.395 . S
C381 C382 1.379 . S
C381 H398 0.930 . S
C382 C380 1.395 . S
C382 C381 1.379 . S
C382 H399 0.930 . S
C383 O366 1.264 . S
C383 O367 1.254 . S
C384 Eu320 2.848 . S
C384 O364 1.257 . S
C384 O369 1.249 . S
C384 C377 1.492 . S
C385 H350 0.931 . S
C385 C363 1.420 . S
C385 C386 1.351 . S
C386 H348 0.930 . S
C386 C354 1.423 . S
C386 C385 1.351 . S
C387 O371 1.276 . S
C387 O374 1.235 . S
C388 C389 1.393 . S
C388 C392 1.395 . S
C388 C395 1.492 . S
C389 C388 1.393 . S
C389 C390 1.392 . S
C389 H400 0.930 . S
C390 C389 1.392 . S
C390 C391 1.386 . S
C391 C390 1.386 . S
C391 C393 1.395 . S
C391 H401 0.930 . S
C392 C388 1.395 . S
C392 C393 1.379 . S
C392 H402 0.930 . S
C393 C391 1.395 . S
C393 C392 1.379 . S
C393 H403 0.930 1_556 S
C394 O372 1.264 . S
C394 O373 1.254 . S
C395 Eu331 2.848 . S
C395 O370 1.257 . S
C395 O375 1.249 . S
C395 C388 1.492 . S
H396 C379 0.930 . S
H397 C380 0.930 . S
H398 C381 0.930 . S
H399 C382 0.930 . S
H400 C389 0.930 . S
H401 C391 0.930 . S
H402 C392 0.930 . S
H403 C393 0.930 1_554 S
Eu404 N435 2.657 . S
Eu404 N442 2.609 . S
Eu404 O448 2.558 . S
Eu404 O449 2.612 . S
Eu404 O451 2.339 . S
Eu404 O452 2.563 . S
Eu404 O453 2.419 . S
Eu404 O455 2.380 . S
Eu404 O456 2.432 1_455 S
Eu404 C468 2.848 . S
C405 C408 1.429 . S
C405 C409 1.411 . S
C405 N412 1.377 . S
C406 C408 1.420 . S
C406 C410 1.423 . S
C406 C418 1.392 . S
C407 C409 1.420 . S
C407 C410 1.351 . S
C407 H430 0.931 . S
C408 C405 1.429 . S
C408 C406 1.420 . S
C408 N416 1.362 . S
C409 C405 1.411 . S
C409 C407 1.420 . S
C409 C414 1.395 1_655 S
C410 C406 1.423 . S
C410 C407 1.351 . S
C410 H422 0.930 . S
C411 C413 1.400 . S
C411 C414 1.386 . S
C411 H423 0.930 . S
N412 C405 1.377 . S
N412 C413 1.321 1_655 S
N412 Eu415 2.609 . S
C413 C411 1.400 . S
C413 N412 1.321 1_455 S
C413 H420 0.930 . S
C414 C409 1.395 1_455 S
C414 C411 1.386 . S
C414 H433 0.930 . S
Eu415 N412 2.609 . S
Eu415 N416 2.657 . S
Eu415 O449 2.380 1_655 S
Eu415 O450 2.432 1_655 S
Eu415 O454 2.558 . S
Eu415 O455 2.612 1_655 S
Eu415 O457 2.339 . S
Eu415 O458 2.563 . S
Eu415 O459 2.419 . S
Eu415 C479 2.848 . S
N416 C408 1.362 . S
N416 Eu415 2.657 . S
N416 C417 1.334 . S
C417 N416 1.334 . S
C417 C419 1.413 . S
C417 H424 0.929 . S
C418 C406 1.392 . S
C418 C419 1.367 . S
C418 H426 0.930 . S
C419 C417 1.413 . S
C419 C418 1.367 . S
C419 H421 0.930 . S
H420 C413 0.930 . S
H421 C419 0.930 . S
H422 C410 0.930 . S
H423 C411 0.930 . S
H424 C417 0.929 . S
H425 C439 0.930 . S
H426 C418 0.930 . S
H427 C445 0.930 1_655 S
H428 C436 0.929 . S
H429 C443 0.930 1_655 S
H430 C407 0.931 . S
H431 C437 0.930 . S
H432 C470 0.930 . S
H433 C414 0.930 . S
H434 C469 0.931 . S
N435 Eu404 2.657 . S
N435 C436 1.334 . S
N435 C440 1.362 . S
C436 H428 0.929 . S
C436 N435 1.334 . S
C436 C439 1.413 . S
C437 H431 0.930 . S
C437 C438 1.392 . S
C437 C439 1.367 . S
C438 C437 1.392 . S
C438 C440 1.420 . S
C438 C470 1.423 . S
C439 H425 0.930 . S
C439 C436 1.413 . S
C439 C437 1.367 . S
C440 N435 1.362 . S
C440 C438 1.420 . S
C440 C444 1.429 . S
H441 C446 0.930 . S
N442 Eu404 2.609 . S
N442 C444 1.377 . S
N442 C445 1.321 . S
C443 H429 0.930 1_455 S
C443 C445 1.400 . S
C443 C446 1.386 . S
C444 C440 1.429 . S
C444 N442 1.377 . S
C444 C447 1.411 . S
C445 H427 0.930 1_455 S
C445 N442 1.321 . S
C445 C443 1.400 . S
C446 H441 0.930 . S
C446 C443 1.386 . S
C446 C447 1.395 . S
C447 C444 1.411 . S
C447 C446 1.395 . S
C447 C469 1.420 . S
O448 Eu404 2.558 . S
O448 C468 1.257 . S
O449 Eu404 2.612 . S
O449 Eu415 2.380 1_455 S
O449 C460 1.276 . S
O450 Eu415 2.432 1_455 S
O450 C467 1.264 . S
O451 Eu404 2.339 . S
O451 C467 1.254 . S
O452 Eu404 2.563 . S
O452 C460 1.235 . S
O453 Eu404 2.419 . S
O453 C468 1.249 . S
O454 Eu415 2.558 . S
O454 C479 1.257 . S
O455 Eu404 2.380 . S
O455 Eu415 2.612 1_455 S
O455 C471 1.276 1_455 S
O456 Eu404 2.432 1_655 S
O456 C478 1.264 . S
O457 Eu415 2.339 . S
O457 C478 1.254 . S
O458 Eu415 2.563 . S
O458 C471 1.235 . S
O459 Eu415 2.419 . S
O459 C479 1.249 . S
C460 O449 1.276 . S
C460 O452 1.235 . S
C461 C463 1.393 . S
C461 C465 1.395 . S
C461 C468 1.492 . S
C462 C463 1.392 . S
C462 C464 1.386 . S
C463 C461 1.393 . S
C463 C462 1.392 . S
C463 H480 0.930 . S
C464 C462 1.386 . S
C464 C466 1.395 . S
C464 H481 0.930 . S
C465 C461 1.395 . S
C465 C466 1.379 . S
C465 H482 0.930 . S
C466 C464 1.395 . S
C466 C465 1.379 . S
C466 H483 0.930 . S
C467 O450 1.264 . S
C467 O451 1.254 . S
C468 Eu404 2.848 . S
C468 O448 1.257 . S
C468 O453 1.249 . S
C468 C461 1.492 . S
C469 H434 0.931 . S
C469 C447 1.420 . S
C469 C470 1.351 . S
C470 H432 0.930 . S
C470 C438 1.423 . S
C470 C469 1.351 . S
C471 O455 1.276 1_655 S
C471 O458 1.235 . S
C472 C473 1.393 . S
C472 C476 1.395 . S
C472 C479 1.492 . S
C473 C472 1.393 . S
C473 C474 1.392 . S
C473 H484 0.930 . S
C474 C473 1.392 . S
C474 C475 1.386 . S
C475 C474 1.386 . S
C475 C477 1.395 . S
C475 H485 0.930 . S
C476 C472 1.395 . S
C476 C477 1.379 . S
C476 H486 0.930 . S
C477 C475 1.395 . S
C477 C476 1.379 . S
C477 H487 0.930 1_556 S
C478 O456 1.264 . S
C478 O457 1.254 . S
C479 Eu415 2.848 . S
C479 O454 1.257 . S
C479 O459 1.249 . S
C479 C472 1.492 . S
H480 C463 0.930 . S
H481 C464 0.930 . S
H482 C465 0.930 . S
H483 C466 0.930 . S
H484 C473 0.930 . S
H485 C475 0.930 . S
H486 C476 0.930 . S
H487 C477 0.930 1_554 S
C488 C489 1.349 . S
C488 C490 1.327 . S
C488 H513 0.950 . S
C489 C488 1.349 . S
C489 C505 1.349 . S
C490 C488 1.327 . S
C490 C509 1.429 . S
C490 H514 0.950 . S
C491 C508 1.574 . S
C491 C510 1.368 . S
C491 H515 0.949 . S
H492 C496 0.949 . S
C493 C494 1.349 . S
C493 C495 1.327 . S
C493 H516 0.950 . S
C494 C493 1.349 . S
C494 C506 1.349 . S
C495 C493 1.327 . S
C495 C511 1.429 . S
C495 H517 0.950 . S
C496 H492 0.949 . S
C496 C504 1.574 . S
C496 C512 1.368 . S
H497 C505 0.950 . S
H498 C503 0.950 . S
H499 C504 0.949 . S
H500 C506 0.923 1_565 S
H501 C507 0.950 . S
H502 C508 0.949 . S
C503 H498 0.950 . S
C503 C505 1.327 . S
C503 C509 1.429 . S
C504 C496 1.574 . S
C504 H499 0.949 . S
C504 C510 1.368 . S
C505 C489 1.349 . S
C505 H497 0.950 . S
C505 C503 1.327 . S
C506 C494 1.349 . S
C506 H500 0.923 1_545 S
C506 C507 1.327 . S
C507 H501 0.950 . S
C507 C506 1.327 . S
C507 C511 1.429 . S
C508 C491 1.574 . S
C508 H502 0.949 . S
C508 C512 1.368 . S
C509 C490 1.429 . S
C509 C503 1.429 . S
C509 C510 1.523 . S
C510 C491 1.368 . S
C510 C504 1.368 . S
C510 C509 1.523 . S
C511 C495 1.429 . S
C511 C507 1.429 . S
C511 C512 1.523 . S
C512 C496 1.368 . S
C512 C508 1.368 . S
C512 C511 1.523 . S
H513 C488 0.950 . S
H514 C490 0.950 . S
H515 C491 0.949 . S
H516 C493 0.950 . S
H517 C495 0.950 . S
C518 C519 1.349 . S
C518 C520 1.327 . S
C518 H543 0.950 . S
C519 C518 1.349 . S
C519 C535 1.349 . S
C520 C518 1.327 . S
C520 C539 1.429 . S
C520 H544 0.950 . S
C521 C538 1.574 . S
C521 C540 1.368 . S
C521 H545 0.949 . S
H522 C526 0.949 . S
C523 C524 1.349 . S
C523 C525 1.327 . S
C523 H546 0.950 . S
C524 C523 1.349 . S
C524 C536 1.349 . S
C525 C523 1.327 . S
C525 C541 1.429 . S
C525 H547 0.950 . S
C526 H522 0.949 . S
C526 C534 1.574 . S
C526 C542 1.368 . S
H527 C535 0.950 . S
H528 C533 0.950 . S
H529 C534 0.949 . S
H530 C536 0.950 . S
H531 C537 0.950 . S
H532 C538 0.949 . S
C533 H528 0.950 . S
C533 C535 1.327 . S
C533 C539 1.429 . S
C534 C526 1.574 . S
C534 H529 0.949 . S
C534 C540 1.368 . S
C535 C519 1.349 . S
C535 H527 0.950 . S
C535 C533 1.327 . S
C536 C524 1.349 . S
C536 H530 0.950 . S
C536 C537 1.327 . S
C537 H531 0.950 . S
C537 C536 1.327 . S
C537 C541 1.429 . S
C538 C521 1.574 . S
C538 H532 0.949 . S
C538 C542 1.368 . S
C539 C520 1.429 . S
C539 C533 1.429 . S
C539 C540 1.523 . S
C540 C521 1.368 . S
C540 C534 1.368 . S
C540 C539 1.523 . S
C541 C525 1.429 . S
C541 C537 1.429 . S
C541 C542 1.523 . S
C542 C526 1.368 . S
C542 C538 1.368 . S
C542 C541 1.523 . S
H543 C518 0.950 . S
H544 C520 0.950 . S
H545 C521 0.949 . S
H546 C523 0.950 . S
H547 C525 0.950 . S
C548 C549 1.349 . S
C548 C550 1.327 . S
C548 H573 0.950 . S
C549 C548 1.349 . S
C549 C565 1.349 . S
C550 C548 1.327 . S
C550 C569 1.429 . S
C550 H574 0.950 . S
C551 C568 1.574 . S
C551 C570 1.368 . S
C551 H575 0.949 . S
H552 C556 0.949 . S
C553 C554 1.349 . S
C553 C555 1.327 . S
C553 H576 0.950 . S
C554 C553 1.349 . S
C554 C566 1.349 . S
C555 C553 1.327 . S
C555 C571 1.429 . S
C555 H577 0.950 . S
C556 H552 0.949 . S
C556 C564 1.574 . S
C556 C572 1.368 . S
H557 C565 0.950 . S
H558 C563 0.950 . S
H559 C564 0.949 . S
H560 C566 0.950 . S
H561 C567 0.950 . S
H562 C568 0.949 . S
C563 H558 0.950 . S
C563 C565 1.327 . S
C563 C569 1.429 . S
C564 C556 1.574 . S
C564 H559 0.949 . S
C564 C570 1.368 . S
C565 C549 1.349 . S
C565 H557 0.950 . S
C565 C563 1.327 . S
C566 C554 1.349 . S
C566 H560 0.950 . S
C566 C567 1.327 . S
C567 H561 0.950 . S
C567 C566 1.327 . S
C567 C571 1.429 . S
C568 C551 1.574 . S
C568 H562 0.949 . S
C568 C572 1.368 . S
C569 C550 1.429 . S
C569 C563 1.429 . S
C569 C570 1.523 . S
C570 C551 1.368 . S
C570 C564 1.368 . S
C570 C569 1.523 . S
C571 C555 1.429 . S
C571 C567 1.429 . S
C571 C572 1.523 . S
C572 C556 1.368 . S
C572 C568 1.368 . S
C572 C571 1.523 . S
H573 C548 0.950 . S
H574 C550 0.950 . S
H575 C551 0.949 . S
H576 C553 0.950 . S
H577 C555 0.950 . S
C578 C579 1.349 . S
C578 C580 1.327 . S
C578 H603 0.950 . S
C579 C578 1.349 . S
C579 C595 1.349 . S
C580 C578 1.327 . S
C580 C599 1.429 . S
C580 H604 0.950 . S
C581 C598 1.574 . S
C581 C600 1.368 . S
C581 H605 0.949 . S
H582 C586 0.949 . S
C583 C584 1.349 . S
C583 C585 1.327 . S
C583 H606 0.950 . S
C584 C583 1.349 . S
C584 C596 1.349 . S
C585 C583 1.327 . S
C585 C601 1.429 . S
C585 H607 0.950 . S
C586 H582 0.949 . S
C586 C594 1.574 . S
C586 C602 1.368 . S
H587 C595 0.950 . S
H588 C593 0.950 . S
H589 C594 0.949 . S
H590 C596 0.950 . S
H591 C597 0.950 . S
H592 C598 0.949 . S
C593 H588 0.950 . S
C593 C595 1.327 . S
C593 C599 1.429 . S
C594 C586 1.574 . S
C594 H589 0.949 . S
C594 C600 1.368 . S
C595 C579 1.349 . S
C595 H587 0.950 . S
C595 C593 1.327 . S
C596 C584 1.349 . S
C596 H590 0.950 . S
C596 C597 1.327 . S
C597 H591 0.950 . S
C597 C596 1.327 . S
C597 C601 1.429 . S
C598 C581 1.574 . S
C598 H592 0.949 . S
C598 C602 1.368 . S
C599 C580 1.429 . S
C599 C593 1.429 . S
C599 C600 1.523 . S
C600 C581 1.368 . S
C600 C594 1.368 . S
C600 C599 1.523 . S
C601 C585 1.429 . S
C601 C597 1.429 . S
C601 C602 1.523 . S
C602 C586 1.368 . S
C602 C598 1.368 . S
C602 C601 1.523 . S
H603 C578 0.950 . S
H604 C580 0.950 . S
H605 C581 0.949 . S
H606 C583 0.950 . S
H607 C585 0.950 . S
C608 C609 1.349 . S
C608 C610 1.327 . S
C608 H633 0.950 . S
C609 C608 1.349 . S
C609 C625 1.349 . S
C610 C608 1.327 . S
C610 C629 1.429 . S
C610 H634 0.950 . S
C611 C628 1.574 . S
C611 C630 1.368 . S
C611 H635 0.949 . S
H612 C616 0.949 1_545 S
C613 C614 1.349 . S
C613 C615 1.327 . S
C613 H636 0.950 . S
C614 C613 1.349 . S
C614 C626 1.349 1_565 S
C615 C613 1.327 . S
C615 C631 1.429 . S
C615 H637 0.950 . S
C616 H612 0.949 1_565 S
C616 C624 1.574 . S
C616 C632 1.368 . S
H617 C625 0.950 . S
H618 C623 0.950 1_556 S
H619 C624 0.949 1_544 S
H620 C626 0.950 . S
H621 C627 0.950 . S
H622 C628 0.949 . S
C623 H618 0.950 1_554 S
C623 C625 1.327 . S
C623 C629 1.429 . S
C624 C616 1.574 . S
C624 H619 0.949 1_566 S
C624 C630 1.368 . S
C625 C609 1.349 . S
C625 H617 0.950 . S
C625 C623 1.327 . S
C626 C614 1.349 1_545 S
C626 H620 0.950 . S
C626 C627 1.327 . S
C627 H621 0.950 . S
C627 C626 1.327 . S
C627 C631 1.429 1_545 S
C628 C611 1.574 . S
C628 H622 0.949 . S
C628 C632 1.368 . S
C629 C610 1.429 . S
C629 C623 1.429 . S
C629 C630 1.523 1_554 S
C630 C611 1.368 . S
C630 C624 1.368 . S
C630 C629 1.523 1_556 S
C631 C615 1.429 . S
C631 C627 1.429 1_565 S
C631 C632 1.523 . S
C632 C616 1.368 . S
C632 C628 1.368 . S
C632 C631 1.523 . S
H633 C608 0.950 . S
H634 C610 0.950 . S
H635 C611 0.949 . S
H636 C613 0.950 . S
H637 C615 0.950 . S
C638 C639 1.349 . S
C638 C640 1.327 . S
C638 H663 0.950 . S
C639 C638 1.349 . S
C639 C655 1.349 . S
C640 C638 1.327 . S
C640 C659 1.429 . S
C640 H664 0.950 . S
C641 C658 1.574 . S
C641 C660 1.368 . S
C641 H665 0.949 . S
H642 C646 0.949 . S
C643 C644 1.349 . S
C643 C645 1.327 . S
C643 H666 0.950 . S
C644 C643 1.349 . S
C644 C656 1.349 . S
C645 C643 1.327 . S
C645 C661 1.429 . S
C645 H667 0.950 . S
C646 H642 0.949 . S
C646 C654 1.574 . S
C646 C662 1.368 . S
H647 C655 0.950 . S
H648 C653 0.950 . S
H649 C654 0.949 1_554 S
H650 C656 0.950 . S
H651 C657 0.950 . S
H652 C658 0.949 . S
C653 H648 0.950 . S
C653 C655 1.327 1_556 S
C653 C659 1.429 1_556 S
C654 C646 1.574 . S
C654 H649 0.949 1_556 S
C654 C660 1.368 . S
C655 C639 1.349 . S
C655 H647 0.950 . S
C655 C653 1.327 1_554 S
C656 C644 1.349 . S
C656 H650 0.950 . S
C656 C657 1.327 . S
C657 H651 0.950 . S
C657 C656 1.327 . S
C657 C661 1.429 . S
C658 C641 1.574 . S
C658 H652 0.949 . S
C658 C662 1.368 . S
C659 C640 1.429 . S
C659 C653 1.429 1_554 S
C659 C660 1.523 1_554 S
C660 C641 1.368 . S
C660 C654 1.368 . S
C660 C659 1.523 1_556 S
C661 C645 1.429 . S
C661 C657 1.429 . S
C661 C662 1.523 . S
C662 C646 1.368 . S
C662 C658 1.368 . S
C662 C661 1.523 . S
H663 C638 0.950 . S
H664 C640 0.950 . S
H665 C641 0.949 . S
H666 C643 0.950 . S
H667 C645 0.950 . S
C668 C669 1.349 . S
C668 C670 1.327 . S
C668 H693 0.950 . S
C669 C668 1.349 . S
C669 C685 1.349 . S
C670 C668 1.327 . S
C670 C689 1.429 . S
C670 H694 0.950 . S
C671 C688 1.574 . S
C671 C690 1.368 . S
C671 H695 0.949 . S
H672 C676 0.949 . S
C673 C674 1.349 . S
C673 C675 1.327 . S
C673 H696 0.950 . S
C674 C673 1.349 . S
C674 C686 1.349 . S
C675 C673 1.327 . S
C675 C691 1.429 . S
C675 H697 0.950 . S
C676 H672 0.949 . S
C676 C684 1.574 . S
C676 C692 1.368 . S
H677 C685 0.950 . S
H678 C683 0.950 . S
H679 C684 0.949 1_554 S
H680 C686 0.950 . S
H681 C687 0.950 . S
H682 C688 0.949 . S
C683 H678 0.950 . S
C683 C685 1.327 1_556 S
C683 C689 1.429 1_556 S
C684 C676 1.574 . S
C684 H679 0.949 1_556 S
C684 C690 1.368 . S
C685 C669 1.349 . S
C685 H677 0.950 . S
C685 C683 1.327 1_554 S
C686 C674 1.349 . S
C686 H680 0.950 . S
C686 C687 1.327 . S
C687 H681 0.950 . S
C687 C686 1.327 . S
C687 C691 1.429 . S
C688 C671 1.574 . S
C688 H682 0.949 . S
C688 C692 1.368 . S
C689 C670 1.429 . S
C689 C683 1.429 1_554 S
C689 C690 1.523 1_554 S
C690 C671 1.368 . S
C690 C684 1.368 . S
C690 C689 1.523 1_556 S
C691 C675 1.429 . S
C691 C687 1.429 . S
C691 C692 1.523 . S
C692 C676 1.368 . S
C692 C688 1.368 . S
C692 C691 1.523 . S
H693 C668 0.950 . S
H694 C670 0.950 . S
H695 C671 0.949 . S
H696 C673 0.950 . S
H697 C675 0.950 . S
C698 C699 1.349 . S
C698 C700 1.327 1_554 S
C698 H723 0.950 . S
C699 C698 1.349 . S
C699 C715 1.349 . S
C700 C698 1.327 1_556 S
C700 C719 1.429 1_556 S
C700 H724 0.950 . S
C701 C718 1.574 . S
C701 C720 1.368 . S
C701 H725 0.949 1_556 S
H702 C706 0.949 . S
C703 C704 1.349 . S
C703 C705 1.327 . S
C703 H726 0.950 1_655 S
C704 C703 1.349 . S
C704 C716 1.349 . S
C705 C703 1.327 . S
C705 C721 1.429 . S
C705 H727 0.950 . S
C706 H702 0.949 . S
C706 C714 1.574 . S
C706 C722 1.368 . S
H707 C715 0.950 . S
H708 C713 0.950 . S
H709 C714 0.949 . S
H710 C716 0.950 . S
H711 C717 0.950 . S
H712 C718 0.949 . S
C713 H708 0.950 . S
C713 C715 1.327 . S
C713 C719 1.429 . S
C714 C706 1.574 . S
C714 H709 0.949 . S
C714 C720 1.368 . S
C715 C699 1.349 . S
C715 H707 0.950 . S
C715 C713 1.327 . S
C716 C704 1.349 . S
C716 H710 0.950 . S
C716 C717 1.327 . S
C717 H711 0.950 . S
C717 C716 1.327 . S
C717 C721 1.429 . S
C718 C701 1.574 . S
C718 H712 0.949 . S
C718 C722 1.368 . S
C719 C700 1.429 1_554 S
C719 C713 1.429 . S
C719 C720 1.523 1_554 S
C720 C701 1.368 . S
C720 C714 1.368 . S
C720 C719 1.523 1_556 S
C721 C705 1.429 . S
C721 C717 1.429 . S
C721 C722 1.523 . S
C722 C706 1.368 . S
C722 C718 1.368 . S
C722 C721 1.523 . S
H723 C698 0.950 . S
H724 C700 0.950 . S
H725 C701 0.949 1_554 S
H726 C703 0.950 1_455 S
H727 C705 0.950 . S
C728 C729 1.349 . S
C728 C730 1.327 . S
C728 H753 0.950 . S
C729 C728 1.349 . S
C729 C745 1.349 . S
C730 C728 1.327 . S
C730 C749 1.429 . S
C730 H754 0.950 . S
C731 C748 1.574 . S
C731 C750 1.368 . S
C731 H755 0.949 . S
H732 C736 0.949 . S
C733 C734 1.349 . S
C733 C735 1.327 . S
C733 H756 0.950 . S
C734 C733 1.349 . S
C734 C746 1.349 . S
C735 C733 1.327 . S
C735 C751 1.429 . S
C735 H757 0.950 . S
C736 H732 0.949 . S
C736 C744 1.574 . S
C736 C752 1.368 . S
H737 C745 0.950 . S
H738 C743 0.950 . S
H739 C744 0.949 . S
H740 C746 0.950 1_655 S
H741 C747 0.950 . S
H742 C748 0.949 . S
C743 H738 0.950 . S
C743 C745 1.327 . S
C743 C749 1.429 . S
C744 C736 1.574 . S
C744 H739 0.949 . S
C744 C750 1.368 . S
C745 C729 1.349 . S
C745 H737 0.950 . S
C745 C743 1.327 . S
C746 C734 1.349 . S
C746 H740 0.950 1_455 S
C746 C747 1.327 . S
C747 H741 0.950 . S
C747 C746 1.327 . S
C747 C751 1.429 . S
C748 C731 1.574 . S
C748 H742 0.949 . S
C748 C752 1.368 . S
C749 C730 1.429 . S
C749 C743 1.429 . S
C749 C750 1.523 . S
C750 C731 1.368 . S
C750 C744 1.368 . S
C750 C749 1.523 . S
C751 C735 1.429 . S
C751 C747 1.429 . S
C751 C752 1.523 . S
C752 C736 1.368 . S
C752 C748 1.368 . S
C752 C751 1.523 . S
H753 C728 0.950 . S
H754 C730 0.950 . S
H755 C731 0.949 . S
H756 C733 0.950 . S
H757 C735 0.950 . S
C758 C759 1.349 . S
C758 C760 1.327 . S
C758 H783 0.950 . S
C759 C758 1.349 . S
C759 C775 1.349 . S
C760 C758 1.327 . S
C760 C779 1.429 . S
C760 H784 0.950 . S
C761 C778 1.574 . S
C761 C780 1.368 . S
C761 H785 0.949 . S
H762 C766 0.949 . S
C763 C764 1.315 1_565 S
C763 C765 1.313 1_565 S
C763 H786 1.000 . S
C764 C763 1.315 1_545 S
C764 C776 1.349 . S
C765 C763 1.313 1_545 S
C765 C781 1.429 . S
C765 H787 0.950 1_545 S
C766 H762 0.949 . S
C766 C774 1.574 . S
C766 C782 1.368 . S
H767 C775 0.950 . S
H768 C773 0.950 . S
H769 C774 0.949 . S
H770 C776 0.950 . S
H771 C777 0.950 . S
H772 C778 0.949 . S
C773 H768 0.950 . S
C773 C775 1.327 . S
C773 C779 1.429 . S
C774 C766 1.574 . S
C774 H769 0.949 . S
C774 C780 1.368 . S
C775 C759 1.349 . S
C775 H767 0.950 . S
C775 C773 1.327 . S
C776 C764 1.349 . S
C776 H770 0.950 . S
C776 C777 1.327 . S
C777 H771 0.950 . S
C777 C776 1.327 . S
C777 C781 1.429 . S
C778 C761 1.574 . S
C778 H772 0.949 . S
C778 C782 1.368 . S
C779 C760 1.429 . S
C779 C773 1.429 . S
C779 C780 1.523 . S
C780 C761 1.368 . S
C780 C774 1.368 . S
C780 C779 1.523 . S
C781 C765 1.429 . S
C781 C777 1.429 . S
C781 C782 1.523 . S
C782 C766 1.368 . S
C782 C778 1.368 . S
C782 C781 1.523 . S
H783 C758 0.950 . S
H784 C760 0.950 . S
H785 C761 0.949 . S
H786 C763 1.000 . S
H787 C765 0.950 1_565 S
C788 C789 1.349 . S
C788 C790 1.327 . S
C788 H813 0.950 . S
C789 C788 1.349 . S
C789 C805 1.349 . S
C790 C788 1.327 . S
C790 C809 1.429 . S
C790 H814 0.950 . S
C791 C808 1.574 . S
C791 C810 1.368 . S
C791 H815 0.949 . S
H792 C796 0.949 . S
C793 C794 1.349 . S
C793 C795 1.327 . S
C793 H816 0.950 . S
C794 C793 1.349 . S
C794 C806 1.349 . S
C795 C793 1.327 . S
C795 C811 1.429 . S
C795 H817 0.950 . S
C796 H792 0.949 . S
C796 C804 1.574 . S
C796 C812 1.368 . S
H797 C805 0.950 . S
H798 C803 0.950 . S
H799 C804 0.949 . S
H800 C806 0.950 . S
H801 C807 0.950 . S
H802 C808 0.949 . S
C803 H798 0.950 . S
C803 C805 1.327 . S
C803 C809 1.429 . S
C804 C796 1.574 . S
C804 H799 0.949 . S
C804 C810 1.368 . S
C805 C789 1.349 . S
C805 H797 0.950 . S
C805 C803 1.327 . S
C806 C794 1.349 . S
C806 H800 0.950 . S
C806 C807 1.327 . S
C807 H801 0.950 . S
C807 C806 1.327 . S
C807 C811 1.429 . S
C808 C791 1.574 . S
C808 H802 0.949 . S
C808 C812 1.368 . S
C809 C790 1.429 . S
C809 C803 1.429 . S
C809 C810 1.523 . S
C810 C791 1.368 . S
C810 C804 1.368 . S
C810 C809 1.523 . S
C811 C795 1.429 . S
C811 C807 1.429 . S
C811 C812 1.523 . S
C812 C796 1.368 . S
C812 C808 1.368 . S
C812 C811 1.523 . S
H813 C788 0.950 . S
H814 C790 0.950 . S
H815 C791 0.949 . S
H816 C793 0.950 . S
H817 C795 0.950 . S
C818 C819 1.349 . S
C818 C820 1.327 . S
C818 H843 0.950 1_554 S
C819 C818 1.349 . S
C819 C835 1.349 . S
C820 C818 1.327 . S
C820 C839 1.429 . S
C820 H844 0.950 . S
C821 C838 1.574 . S
C821 C840 1.368 . S
C821 H845 0.949 . S
H822 C826 0.949 . S
C823 C824 1.349 . S
C823 C825 1.327 . S
C823 H846 0.950 . S
C824 C823 1.349 . S
C824 C836 1.349 . S
C825 C823 1.327 . S
C825 C841 1.429 . S
C825 H847 0.950 . S
C826 H822 0.949 . S
C826 C834 1.574 . S
C826 C842 1.368 . S
H827 C835 0.950 . S
H828 C833 0.950 . S
H829 C834 0.949 . S
H830 C836 0.950 . S
H831 C837 0.950 . S
H832 C838 0.949 . S
C833 H828 0.950 . S
C833 C835 1.327 . S
C833 C839 1.429 . S
C834 C826 1.574 . S
C834 H829 0.949 . S
C834 C840 1.368 . S
C835 C819 1.349 . S
C835 H827 0.950 . S
C835 C833 1.327 . S
C836 C824 1.349 . S
C836 H830 0.950 . S
C836 C837 1.327 . S
C837 H831 0.950 . S
C837 C836 1.327 . S
C837 C841 1.429 . S
C838 C821 1.574 . S
C838 H832 0.949 . S
C838 C842 1.368 . S
C839 C820 1.429 . S
C839 C833 1.429 . S
C839 C840 1.523 . S
C840 C821 1.368 . S
C840 C834 1.368 . S
C840 C839 1.523 . S
C841 C825 1.429 . S
C841 C837 1.429 . S
C841 C842 1.523 . S
C842 C826 1.368 . S
C842 C838 1.368 . S
C842 C841 1.523 . S
H843 C818 0.950 1_556 S
H844 C820 0.950 . S
H845 C821 0.949 . S
H846 C823 0.950 . S
H847 C825 0.950 . S
C848 C849 1.349 . S
C848 C850 1.327 . S
C848 H873 0.950 . S
C849 C848 1.349 . S
C849 C865 1.349 . S
C850 C848 1.327 . S
C850 C869 1.429 . S
C850 H874 0.950 1_554 S
C851 C868 1.574 . S
C851 C870 1.368 . S
C851 H875 0.949 . S
H852 C856 0.949 . S
C853 C854 1.349 . S
C853 C855 1.326 . S
C853 H876 0.950 . S
C854 C853 1.349 . S
C854 C866 1.349 1_455 S
C855 C853 1.326 . S
C855 C871 1.430 1_455 S
C855 H877 0.949 1_556 S
C856 H852 0.949 . S
C856 C864 1.574 . S
C856 C872 1.368 . S
H857 C865 0.950 . S
H858 C863 0.950 . S
H859 C864 0.949 . S
H860 C866 0.950 . S
H861 C867 0.950 . S
H862 C868 0.949 . S
C863 H858 0.950 . S
C863 C865 1.327 . S
C863 C869 1.429 . S
C864 C856 1.574 . S
C864 H859 0.949 . S
C864 C870 1.368 1_556 S
C865 C849 1.349 . S
C865 H857 0.950 . S
C865 C863 1.327 . S
C866 C854 1.349 1_655 S
C866 H860 0.950 . S
C866 C867 1.327 . S
C867 H861 0.950 . S
C867 C866 1.327 . S
C867 C871 1.429 . S
C868 C851 1.574 . S
C868 H862 0.949 . S
C868 C872 1.368 1_554 S
C869 C850 1.429 . S
C869 C863 1.429 . S
C869 C870 1.523 . S
C870 C851 1.368 . S
C870 C864 1.368 1_554 S
C870 C869 1.523 . S
C871 C855 1.430 1_655 S
C871 C867 1.429 . S
C871 C872 1.523 . S
C872 C856 1.368 . S
C872 C868 1.368 1_556 S
C872 C871 1.523 . S
H873 C848 0.950 . S
H874 C850 0.950 1_556 S
H875 C851 0.949 . S
H876 C853 0.950 . S
H877 C855 0.949 1_554 S
C878 C879 1.349 . S
C878 C880 1.327 . S
C878 H903 0.950 . S
C879 C878 1.349 . S
C879 C895 1.349 . S
C880 C878 1.327 . S
C880 C899 1.429 . S
C880 H904 0.950 . S
C881 C898 1.574 1_565 S
C881 C900 1.368 . S
C881 H905 0.949 1_565 S
H882 C886 0.949 . S
C883 C884 1.349 . S
C883 C885 1.327 . S
C883 H906 0.950 . S
C884 C883 1.349 . S
C884 C896 1.349 1_545 S
C885 C883 1.327 . S
C885 C901 1.429 1_545 S
C885 H907 0.950 . S
C886 H882 0.949 . S
C886 C894 1.574 1_556 S
C886 C902 1.368 . S
H887 C895 0.950 . S
H888 C893 0.950 . S
H889 C894 0.949 . S
H890 C896 0.950 . S
H891 C897 0.950 . S
H892 C898 0.949 . S
C893 H888 0.950 . S
C893 C895 1.327 . S
C893 C899 1.429 . S
C894 C886 1.574 1_554 S
C894 H889 0.949 . S
C894 C900 1.368 . S
C895 C879 1.349 . S
C895 H887 0.950 . S
C895 C893 1.327 . S
C896 C884 1.349 1_565 S
C896 H890 0.950 . S
C896 C897 1.327 . S
C897 H891 0.950 . S
C897 C896 1.327 . S
C897 C901 1.429 . S
C898 C881 1.574 1_545 S
C898 H892 0.949 . S
C898 C902 1.368 1_544 S
C899 C880 1.429 . S
C899 C893 1.429 . S
C899 C900 1.523 . S
C900 C881 1.368 . S
C900 C894 1.368 . S
C900 C899 1.523 . S
C901 C885 1.429 1_565 S
C901 C897 1.429 . S
C901 C902 1.523 . S
C902 C886 1.368 . S
C902 C898 1.368 1_566 S
C902 C901 1.523 . S
H903 C878 0.950 . S
H904 C880 0.950 . S
H905 C881 0.949 1_545 S
H906 C883 0.950 . S
H907 C885 0.950 . S
C908 C909 1.349 . S
C908 C910 1.327 . S
C908 H933 0.950 . S
C909 C908 1.349 . S
C909 C925 1.349 . S
C910 C908 1.327 . S
C910 C929 1.429 . S
C910 H934 0.950 . S
C911 C928 1.574 . S
C911 C930 1.368 1_556 S
C911 H935 0.949 . S
H912 C916 0.949 . S
C913 C914 1.349 . S
C913 C915 1.327 . S
C913 H936 0.950 . S
C914 C913 1.349 . S
C914 C926 1.349 . S
C915 C913 1.327 . S
C915 C931 1.429 . S
C915 H937 0.950 . S
C916 H912 0.949 . S
C916 C924 1.574 . S
C916 C932 1.368 1_554 S
H917 C925 0.950 . S
H918 C923 0.950 1_556 S
H919 C924 0.949 . S
H920 C926 0.950 . S
H921 C927 0.950 1_554 S
H922 C928 0.949 . S
C923 H918 0.950 1_554 S
C923 C925 1.327 . S
C923 C929 1.429 . S
C924 C916 1.574 . S
C924 H919 0.949 . S
C924 C930 1.368 . S
C925 C909 1.349 . S
C925 H917 0.950 . S
C925 C923 1.327 . S
C926 C914 1.349 . S
C926 H920 0.950 . S
C926 C927 1.327 . S
C927 H921 0.950 1_556 S
C927 C926 1.327 . S
C927 C931 1.429 . S
C928 C911 1.574 . S
C928 H922 0.949 . S
C928 C932 1.368 . S
C929 C910 1.429 . S
C929 C923 1.429 . S
C929 C930 1.523 . S
C930 C911 1.368 1_554 S
C930 C924 1.368 . S
C930 C929 1.523 . S
C931 C915 1.429 . S
C931 C927 1.429 . S
C931 C932 1.523 . S
C932 C916 1.368 1_556 S
C932 C928 1.368 . S
C932 C931 1.523 . S
H933 C908 0.950 . S
H934 C910 0.950 . S
H935 C911 0.949 . S
H936 C913 0.950 . S
H937 C915 0.950 . S
C938 C939 1.349 . S
C938 C940 1.327 . S
C938 H963 0.950 . S
C939 C938 1.349 . S
C939 C955 1.349 . S
C940 C938 1.327 . S
C940 C959 1.429 . S
C940 H964 0.950 . S
C941 C958 1.574 . S
C941 C960 1.368 1_556 S
C941 H965 0.949 . S
H942 C946 0.949 . S
C943 C944 1.349 . S
C943 C945 1.327 . S
C943 H966 0.950 . S
C944 C943 1.349 . S
C944 C956 1.349 . S
C945 C943 1.327 . S
C945 C961 1.429 . S
C945 H967 0.950 . S
C946 H942 0.949 . S
C946 C954 1.574 . S
C946 C962 1.368 1_554 S
H947 C955 0.950 . S
H948 C953 0.950 . S
H949 C954 0.949 . S
H950 C956 0.950 . S
H951 C957 0.950 1_554 S
H952 C958 0.949 . S
C953 H948 0.950 . S
C953 C955 1.327 . S
C953 C959 1.429 . S
C954 C946 1.574 . S
C954 H949 0.949 . S
C954 C960 1.368 . S
C955 C939 1.349 . S
C955 H947 0.950 . S
C955 C953 1.327 . S
C956 C944 1.349 . S
C956 H950 0.950 . S
C956 C957 1.327 . S
C957 H951 0.950 1_556 S
C957 C956 1.327 . S
C957 C961 1.429 . S
C958 C941 1.574 . S
C958 H952 0.949 . S
C958 C962 1.368 . S
C959 C940 1.429 . S
C959 C953 1.429 . S
C959 C960 1.523 . S
C960 C941 1.368 1_554 S
C960 C954 1.368 . S
C960 C959 1.523 . S
C961 C945 1.429 . S
C961 C957 1.429 . S
C961 C962 1.523 . S
C962 C946 1.368 1_556 S
C962 C958 1.368 . S
C962 C961 1.523 . S
H963 C938 0.950 . S
H964 C940 0.950 . S
H965 C941 0.949 . S
H966 C943 0.950 . S
H967 C945 0.950 . S
C968 C969 1.349 . S
C968 C970 1.327 . S
C968 H993 0.950 . S
C969 C968 1.349 . S
C969 C985 1.349 . S
C970 C968 1.327 . S
C970 C989 1.429 . S
C970 H994 0.950 . S
C971 C988 1.574 . S
C971 C990 1.368 . S
C971 H995 0.949 . S
H972 C976 0.949 . S
C973 C974 1.349 . S
C973 C975 1.327 . S
C973 H996 0.950 1_455 S
C974 C973 1.349 . S
C974 C986 1.349 . S
C975 C973 1.327 . S
C975 C991 1.429 . S
C975 H997 0.950 . S
C976 H972 0.949 . S
C976 C984 1.574 . S
C976 C992 1.368 . S
H977 C985 0.950 . S
H978 C983 0.950 . S
H979 C984 0.949 . S
H980 C986 0.950 . S
H981 C987 0.950 . S
H982 C988 0.949 . S
C983 H978 0.950 . S
C983 C985 1.327 . S
C983 C989 1.429 . S
C984 C976 1.574 . S
C984 H979 0.949 . S
C984 C990 1.368 . S
C985 C969 1.349 . S
C985 H977 0.950 . S
C985 C983 1.327 . S
C986 C974 1.349 . S
C986 H980 0.950 . S
C986 C987 1.327 . S
C987 H981 0.950 . S
C987 C986 1.327 . S
C987 C991 1.429 . S
C988 C971 1.574 . S
C988 H982 0.949 . S
C988 C992 1.368 . S
C989 C970 1.429 . S
C989 C983 1.429 . S
C989 C990 1.523 . S
C990 C971 1.368 . S
C990 C984 1.368 . S
C990 C989 1.523 . S
C991 C975 1.429 . S
C991 C987 1.429 . S
C991 C992 1.523 . S
C992 C976 1.368 . S
C992 C988 1.368 . S
C992 C991 1.523 . S
H993 C968 0.950 . S
H994 C970 0.950 . S
H995 C971 0.949 . S
H996 C973 0.950 1_655 S
H997 C975 0.950 . S
C998 C999 1.349 . S
C998 C1000 1.327 . S
C998 H1023 0.950 . S
C999 C998 1.349 . S
C999 C1015 1.349 . S
C1000 C998 1.327 . S
C1000 C1019 1.429 . S
C1000 H1024 0.950 . S
C1001 C1018 1.574 . S
C1001 C1020 1.368 . S
C1001 H1025 0.949 . S
H1002 C1006 0.949 . S
C1003 C1004 1.349 . S
C1003 C1005 1.327 . S
C1003 H1026 0.923 1_545 S
C1004 C1003 1.349 . S
C1004 C1016 1.349 . S
C1005 C1003 1.327 . S
C1005 C1021 1.429 . S
C1005 H1027 0.950 . S
C1006 H1002 0.949 . S
C1006 C1014 1.574 . S
C1006 C1022 1.368 . S
H1007 C1015 0.950 . S
H1008 C1013 0.950 . S
H1009 C1014 0.949 . S
H1010 C1016 0.950 . S
H1011 C1017 0.950 . S
H1012 C1018 0.949 . S
C1013 H1008 0.950 . S
C1013 C1015 1.327 . S
C1013 C1019 1.429 . S
C1014 C1006 1.574 . S
C1014 H1009 0.949 . S
C1014 C1020 1.368 . S
C1015 C999 1.349 . S
C1015 H1007 0.950 . S
C1015 C1013 1.327 . S
C1016 C1004 1.349 . S
C1016 H1010 0.950 . S
C1016 C1017 1.327 . S
C1017 H1011 0.950 . S
C1017 C1016 1.327 . S
C1017 C1021 1.429 . S
C1018 C1001 1.574 . S
C1018 H1012 0.949 . S
C1018 C1022 1.368 . S
C1019 C1000 1.429 . S
C1019 C1013 1.429 . S
C1019 C1020 1.523 . S
C1020 C1001 1.368 . S
C1020 C1014 1.368 . S
C1020 C1019 1.523 . S
C1021 C1005 1.429 . S
C1021 C1017 1.429 . S
C1021 C1022 1.523 . S
C1022 C1006 1.368 . S
C1022 C1018 1.368 . S
C1022 C1021 1.523 . S
H1023 C998 0.950 . S
H1024 C1000 0.950 . S
H1025 C1001 0.949 . S
H1026 C1003 0.923 1_565 S
H1027 C1005 0.950 . S
C1028 C1029 1.349 . S
C1028 C1030 1.327 . S
C1028 H1053 0.950 . S
C1029 C1028 1.349 . S
C1029 C1045 1.349 . S
C1030 C1028 1.327 . S
C1030 C1049 1.429 . S
C1030 H1054 0.950 . S
C1031 C1048 1.574 . S
C1031 C1050 1.368 . S
C1031 H1055 0.949 . S
H1032 C1036 0.949 . S
C1033 C1034 1.349 . S
C1033 C1035 1.327 . S
C1033 H1056 0.950 . S
C1034 C1033 1.349 . S
C1034 C1046 1.349 . S
C1035 C1033 1.327 . S
C1035 C1051 1.429 . S
C1035 H1057 0.950 . S
C1036 H1032 0.949 . S
C1036 C1044 1.574 . S
C1036 C1052 1.368 . S
H1037 C1045 0.950 . S
H1038 C1043 0.950 . S
H1039 C1044 0.949 . S
H1040 C1046 0.950 . S
H1041 C1047 0.950 . S
H1042 C1048 0.949 . S
C1043 H1038 0.950 . S
C1043 C1045 1.327 . S
C1043 C1049 1.429 . S
C1044 C1036 1.574 . S
C1044 H1039 0.949 . S
C1044 C1050 1.368 . S
C1045 C1029 1.349 . S
C1045 H1037 0.950 . S
C1045 C1043 1.327 . S
C1046 C1034 1.349 . S
C1046 H1040 0.950 . S
C1046 C1047 1.327 . S
C1047 H1041 0.950 . S
C1047 C1046 1.327 . S
C1047 C1051 1.429 . S
C1048 C1031 1.574 . S
C1048 H1042 0.949 . S
C1048 C1052 1.368 . S
C1049 C1030 1.429 . S
C1049 C1043 1.429 . S
C1049 C1050 1.523 . S
C1050 C1031 1.368 . S
C1050 C1044 1.368 . S
C1050 C1049 1.523 . S
C1051 C1035 1.429 . S
C1051 C1047 1.429 . S
C1051 C1052 1.523 . S
C1052 C1036 1.368 . S
C1052 C1048 1.368 . S
C1052 C1051 1.523 . S
H1053 C1028 0.950 . S
H1054 C1030 0.950 . S
H1055 C1031 0.949 . S
H1056 C1033 0.950 . S
H1057 C1035 0.950 . S
C1058 C1059 1.349 . S
C1058 C1060 1.327 . S
C1058 H1083 0.950 . S
C1059 C1058 1.349 . S
C1059 C1075 1.349 . S
C1060 C1058 1.327 . S
C1060 C1079 1.429 . S
C1060 H1084 0.950 . S
C1061 C1078 1.574 . S
C1061 C1080 1.368 . S
C1061 H1085 0.949 . S
H1062 C1066 0.949 . S
C1063 C1064 1.349 . S
C1063 C1065 1.327 . S
C1063 H1086 0.950 . S
C1064 C1063 1.349 . S
C1064 C1076 1.349 . S
C1065 C1063 1.327 . S
C1065 C1081 1.429 . S
C1065 H1087 0.950 . S
C1066 H1062 0.949 . S
C1066 C1074 1.574 . S
C1066 C1082 1.368 . S
H1067 C1075 0.950 . S
H1068 C1073 0.950 . S
H1069 C1074 0.949 . S
H1070 C1076 0.950 . S
H1071 C1077 0.950 . S
H1072 C1078 0.949 . S
C1073 H1068 0.950 . S
C1073 C1075 1.327 . S
C1073 C1079 1.429 . S
C1074 C1066 1.574 . S
C1074 H1069 0.949 . S
C1074 C1080 1.368 . S
C1075 C1059 1.349 . S
C1075 H1067 0.950 . S
C1075 C1073 1.327 . S
C1076 C1064 1.349 . S
C1076 H1070 0.950 . S
C1076 C1077 1.327 . S
C1077 H1071 0.950 . S
C1077 C1076 1.327 . S
C1077 C1081 1.429 . S
C1078 C1061 1.574 . S
C1078 H1072 0.949 . S
C1078 C1082 1.368 . S
C1079 C1060 1.429 . S
C1079 C1073 1.429 . S
C1079 C1080 1.523 . S
C1080 C1061 1.368 . S
C1080 C1074 1.368 . S
C1080 C1079 1.523 . S
C1081 C1065 1.429 . S
C1081 C1077 1.429 . S
C1081 C1082 1.523 . S
C1082 C1066 1.368 . S
C1082 C1078 1.368 . S
C1082 C1081 1.523 . S
H1083 C1058 0.950 . S
H1084 C1060 0.950 . S
H1085 C1061 0.949 . S
H1086 C1063 0.950 . S
H1087 C1065 0.950 . S
C1088 C1089 1.349 . S
C1088 C1090 1.327 . S
C1088 H1113 0.950 . S
C1089 C1088 1.349 . S
C1089 C1105 1.349 . S
C1090 C1088 1.327 . S
C1090 C1109 1.429 . S
C1090 H1114 0.950 . S
C1091 C1108 1.574 . S
C1091 C1110 1.368 . S
C1091 H1115 0.949 . S
H1092 C1096 0.949 . S
C1093 C1094 1.349 . S
C1093 C1095 1.327 . S
C1093 H1116 0.950 . S
C1094 C1093 1.349 . S
C1094 C1106 1.349 . S
C1095 C1093 1.327 . S
C1095 C1111 1.429 . S
C1095 H1117 0.950 . S
C1096 H1092 0.949 . S
C1096 C1104 1.574 . S
C1096 C1112 1.368 . S
H1097 C1105 0.950 . S
H1098 C1103 0.950 . S
H1099 C1104 0.949 . S
H1100 C1106 0.950 1_455 S
H1101 C1107 0.950 . S
H1102 C1108 0.949 . S
C1103 H1098 0.950 . S
C1103 C1105 1.327 . S
C1103 C1109 1.429 . S
C1104 C1096 1.574 . S
C1104 H1099 0.949 . S
C1104 C1110 1.368 . S
C1105 C1089 1.349 . S
C1105 H1097 0.950 . S
C1105 C1103 1.327 . S
C1106 C1094 1.349 . S
C1106 H1100 0.950 1_655 S
C1106 C1107 1.327 . S
C1107 H1101 0.950 . S
C1107 C1106 1.327 . S
C1107 C1111 1.429 . S
C1108 C1091 1.574 . S
C1108 H1102 0.949 . S
C1108 C1112 1.368 . S
C1109 C1090 1.429 . S
C1109 C1103 1.429 . S
C1109 C1110 1.523 . S
C1110 C1091 1.368 . S
C1110 C1104 1.368 . S
C1110 C1109 1.523 . S
C1111 C1095 1.429 . S
C1111 C1107 1.429 . S
C1111 C1112 1.523 . S
C1112 C1096 1.368 . S
C1112 C1108 1.368 . S
C1112 C1111 1.523 . S
H1113 C1088 0.950 . S
H1114 C1090 0.950 . S
H1115 C1091 0.949 . S
H1116 C1093 0.950 . S
H1117 C1095 0.950 . S
C1118 C1119 1.349 . S
C1118 C1120 1.327 . S
C1118 H1143 0.950 . S
C1119 C1118 1.349 . S
C1119 C1135 1.349 . S
C1120 C1118 1.327 . S
C1120 C1139 1.429 . S
C1120 H1144 0.950 . S
C1121 C1138 1.574 . S
C1121 C1140 1.368 . S
C1121 H1145 0.949 1_565 S
H1122 C1126 0.949 . S
C1123 C1124 1.349 1_545 S
C1123 C1125 1.327 . S
C1123 H1146 0.950 . S
C1124 C1123 1.349 1_565 S
C1124 C1136 1.349 . S
C1125 C1123 1.327 . S
C1125 C1141 1.429 1_545 S
C1125 H1147 0.950 . S
C1126 H1122 0.949 . S
C1126 C1134 1.574 . S
C1126 C1142 1.368 . S
H1127 C1135 0.950 . S
H1128 C1133 0.950 . S
H1129 C1134 0.949 . S
H1130 C1136 0.950 . S
H1131 C1137 0.950 . S
H1132 C1138 0.949 1_545 S
C1133 H1128 0.950 . S
C1133 C1135 1.327 . S
C1133 C1139 1.429 . S
C1134 C1126 1.574 . S
C1134 H1129 0.949 . S
C1134 C1140 1.368 . S
C1135 C1119 1.349 . S
C1135 H1127 0.950 . S
C1135 C1133 1.327 . S
C1136 C1124 1.349 . S
C1136 H1130 0.950 . S
C1136 C1137 1.327 . S
C1137 H1131 0.950 . S
C1137 C1136 1.327 . S
C1137 C1141 1.429 . S
C1138 C1121 1.574 . S
C1138 H1132 0.949 1_565 S
C1138 C1142 1.368 . S
C1139 C1120 1.429 . S
C1139 C1133 1.429 . S
C1139 C1140 1.523 . S
C1140 C1121 1.368 . S
C1140 C1134 1.368 . S
C1140 C1139 1.523 . S
C1141 C1125 1.429 1_565 S
C1141 C1137 1.429 . S
C1141 C1142 1.523 . S
C1142 C1126 1.368 . S
C1142 C1138 1.368 . S
C1142 C1141 1.523 . S
H1143 C1118 0.950 . S
H1144 C1120 0.950 . S
H1145 C1121 0.949 1_545 S
H1146 C1123 0.950 . S
H1147 C1125 0.950 . S
C1148 C1149 1.349 . S
C1148 C1150 1.327 . S
C1148 H1173 0.950 . S
C1149 C1148 1.349 . S
C1149 C1165 1.349 . S
C1150 C1148 1.327 . S
C1150 C1169 1.429 . S
C1150 H1174 0.950 . S
C1151 C1168 1.574 . S
C1151 C1170 1.368 . S
C1151 H1175 0.949 . S
H1152 C1156 0.949 . S
C1153 C1154 1.349 . S
C1153 C1155 1.327 . S
C1153 H1176 0.950 . S
C1154 C1153 1.349 . S
C1154 C1166 1.349 . S
C1155 C1153 1.327 . S
C1155 C1171 1.429 . S
C1155 H1177 0.950 . S
C1156 H1152 0.949 . S
C1156 C1164 1.574 . S
C1156 C1172 1.368 . S
H1157 C1165 0.950 . S
H1158 C1163 0.950 . S
H1159 C1164 0.949 . S
H1160 C1166 0.950 . S
H1161 C1167 0.950 . S
H1162 C1168 0.949 . S
C1163 H1158 0.950 . S
C1163 C1165 1.327 . S
C1163 C1169 1.429 . S
C1164 C1156 1.574 . S
C1164 H1159 0.949 . S
C1164 C1170 1.368 . S
C1165 C1149 1.349 . S
C1165 H1157 0.950 . S
C1165 C1163 1.327 . S
C1166 C1154 1.349 . S
C1166 H1160 0.950 . S
C1166 C1167 1.327 . S
C1167 H1161 0.950 . S
C1167 C1166 1.327 . S
C1167 C1171 1.429 . S
C1168 C1151 1.574 . S
C1168 H1162 0.949 . S
C1168 C1172 1.368 . S
C1169 C1150 1.429 . S
C1169 C1163 1.429 . S
C1169 C1170 1.523 . S
C1170 C1151 1.368 . S
C1170 C1164 1.368 . S
C1170 C1169 1.523 . S
C1171 C1155 1.429 . S
C1171 C1167 1.429 . S
C1171 C1172 1.523 . S
C1172 C1156 1.368 . S
C1172 C1168 1.368 . S
C1172 C1171 1.523 . S
H1173 C1148 0.950 . S
H1174 C1150 0.950 . S
H1175 C1151 0.949 . S
H1176 C1153 0.950 . S
H1177 C1155 0.950 . S
C1178 C1179 1.349 . S
C1178 C1180 1.327 . S
C1178 H1203 0.950 . S
C1179 C1178 1.349 . S
C1179 C1195 1.349 . S
C1180 C1178 1.327 . S
C1180 C1199 1.429 . S
C1180 H1204 0.950 . S
C1181 C1198 1.574 . S
C1181 C1200 1.368 . S
C1181 H1205 0.949 . S
H1182 C1186 0.949 . S
C1183 C1184 1.349 . S
C1183 C1185 1.327 . S
C1183 H1206 0.950 . S
C1184 C1183 1.349 . S
C1184 C1196 1.349 . S
C1185 C1183 1.327 . S
C1185 C1201 1.429 . S
C1185 H1207 0.950 . S
C1186 H1182 0.949 . S
C1186 C1194 1.574 . S
C1186 C1202 1.368 . S
H1187 C1195 0.950 . S
H1188 C1193 0.950 . S
H1189 C1194 0.949 . S
H1190 C1196 0.950 . S
H1191 C1197 0.950 . S
H1192 C1198 0.949 . S
C1193 H1188 0.950 . S
C1193 C1195 1.327 . S
C1193 C1199 1.429 . S
C1194 C1186 1.574 . S
C1194 H1189 0.949 . S
C1194 C1200 1.368 . S
C1195 C1179 1.349 . S
C1195 H1187 0.950 . S
C1195 C1193 1.327 . S
C1196 C1184 1.349 . S
C1196 H1190 0.950 . S
C1196 C1197 1.327 . S
C1197 H1191 0.950 . S
C1197 C1196 1.327 . S
C1197 C1201 1.429 . S
C1198 C1181 1.574 . S
C1198 H1192 0.949 . S
C1198 C1202 1.368 . S
C1199 C1180 1.429 . S
C1199 C1193 1.429 . S
C1199 C1200 1.523 . S
C1200 C1181 1.368 . S
C1200 C1194 1.368 . S
C1200 C1199 1.523 . S
C1201 C1185 1.429 . S
C1201 C1197 1.429 . S
C1201 C1202 1.523 . S
C1202 C1186 1.368 . S
C1202 C1198 1.368 . S
C1202 C1201 1.523 . S
H1203 C1178 0.950 . S
H1204 C1180 0.950 . S
H1205 C1181 0.949 . S
H1206 C1183 0.950 . S
H1207 C1185 0.950 . S
C489 C125 1.823 . S
C494 C226 1.878 . S
C524 C310 1.912 . S
C519 C144 1.845 . S
C554 C376 1.940 . S
C549 C87 1.959 . S
C584 C460 1.911 . S
C579 C106 1.939 . S
C614 C215 1.879 1_565 S
C609 C49 1.917 . S
C639 C68 1.950 . S
C644 C299 1.912 . S
C669 C11 2.072 . S
C674 C387 1.940 . S
C699 C30 2.043 . S
C704 C471 1.911 . S
C734 C222 0.582 . S
C729 C97 0.569 . S
C764 C306 0.561 . S
C759 C116 0.540 . S
C794 C378 0.537 . S
C789 C135 0.526 . S
C819 C78 0.552 . S
C824 C462 0.557 . S
C849 C21 0.568 . S
C854 C210 0.582 . S
C884 C294 0.561 . S
C879 C40 0.538 . S
C914 C390 0.537 . S
C909 C59 0.523 . S
C939 C2 0.550 . S
C944 C474 0.557 . S
C969 C101 1.989 . S
C974 C219 2.019 . S
C999 C120 1.950 . S
C1004 C303 1.977 . S
C1034 C383 1.974 . S
C1029 C139 1.848 . S
C1064 C467 2.012 . S
C1059 C82 1.883 . S
C1089 C25 1.994 . S
C1094 C208 2.018 . S
C1124 C292 1.978 1_565 S
C1119 C44 1.955 . S
C1154 C394 1.974 . S
C1149 C63 1.853 . S
C1179 C6 1.889 . S
C1184 C478 2.012 . S
