# Generated by pormake.
# Topology tsx, (6,3)-cn, num edge types: 1
# Building blocks:
#     Node 0, Type 0, BuildingBlock: MIDCAF_clean_sbu_0, # of connection points: 6
#     Node 1, Type 0, BuildingBlock: MIDCAF_clean_sbu_0, # of connection points: 6
#     Node 2, Type 1, BuildingBlock: PAMTOO_clean_linker_0, # of connection points: 3
#     Node 3, Type 1, BuildingBlock: PAMTOO_clean_linker_0, # of connection points: 3
#     Node 4, Type 1, BuildingBlock: PAMTOO_clean_linker_0, # of connection points: 3
#     Node 5, Type 1, BuildingBlock: PAMTOO_clean_linker_0, # of connection points: 3
#     Edge 6, Type (0, 1), BuildingBlock: MIFKUJ_clean_linker_0, # of connection points: 2
#     Edge 7, Type (0, 1), BuildingBlock: MIFKUJ_clean_linker_0, # of connection points: 2
#     Edge 8, Type (0, 1), BuildingBlock: MIFKUJ_clean_linker_0, # of connection points: 2
#     Edge 9, Type (0, 1), BuildingBlock: MIFKUJ_clean_linker_0, # of connection points: 2
#     Edge 10, Type (0, 1), BuildingBlock: MIFKUJ_clean_linker_0, # of connection points: 2
#     Edge 11, Type (0, 1), BuildingBlock: MIFKUJ_clean_linker_0, # of connection points: 2
#     Edge 12, Type (0, 1), BuildingBlock: MIFKUJ_clean_linker_0, # of connection points: 2
#     Edge 13, Type (0, 1), BuildingBlock: MIFKUJ_clean_linker_0, # of connection points: 2
#     Edge 14, Type (0, 1), BuildingBlock: MIFKUJ_clean_linker_0, # of connection points: 2
#     Edge 15, Type (0, 1), BuildingBlock: MIFKUJ_clean_linker_0, # of connection points: 2
#     Edge 16, Type (0, 1), BuildingBlock: MIFKUJ_clean_linker_0, # of connection points: 2
#     Edge 17, Type (0, 1), BuildingBlock: MIFKUJ_clean_linker_0, # of connection points: 2
# Relax obj value: 0.095
# Max RMSD: 0.163
# Mean RMSD: 0.130
data_MOF--net-tsx--node1-MIDCAF_clean_sbu_0--node2-PAMTOO_clean_linker_0--edge1-MIFKUJ_clean_linker_0
_symmetry_space_group_name_H-M    P1
_symmetry_Int_Tables_number       1
_symmetry_cell_setting            triclinic
loop_
_symmetry_equiv_pos_as_xyz
'x, y, z'
_cell_length_a     25.995783
_cell_length_b     26.853572
_cell_length_c     45.872014
_cell_angle_alpha  82.136942
_cell_angle_beta   94.593009
_cell_angle_gamma 89.839653
loop_
_atom_site_label
_atom_site_type_symbol
_atom_site_fract_x
_atom_site_fract_y
_atom_site_fract_z
_atom_type_partial_charge
Zn0 Zn 0.97539 0.03602 0.97556 0.0
Zn1 Zn 0.1425 1.00112 0.04982 0.0
Zn2 Zn 0.06041 0.02104 0.01208 0.0
C3 C 0.12905 0.10638 0.03916 0.0
C4 C 0.16398 0.96088 0.99947 0.0
O5 O 0.99612 0.97707 0.03146 0.0
O6 O 0.9278 0.99379 0.9996 0.0
C7 C 1.00653 0.13001 0.98974 0.0
O8 O 0.09058 0.09467 0.02198 0.0
O9 O 0.15742 0.07232 0.05414 0.0
O10 O 0.18467 0.9664 0.02465 0.0
O11 O 0.11837 0.97909 0.991 0.0
O12 O 0.97214 0.10968 0.97453 0.0
O13 O 0.04308 0.1033 0.00505 0.0
O14 O 0.07652 0.99379 0.97015 0.0
O15 O 1.003 0.0079 0.94224 0.0
C16 C 0.04918 0.99214 0.94558 0.0
O17 O 0.0369 0.97819 0.05366 0.0
O18 O 0.10906 0.96064 0.08221 0.0
C19 C 0.94819 0.97041 0.02348 0.0
C20 C 0.06054 0.95846 0.07835 0.0
Zn21 Zn 0.64067 0.50059 0.53842 0.0
Zn22 Zn 0.47172 0.53159 0.47263 0.0
Zn23 Zn 0.55649 0.51975 0.50596 0.0
C24 C 0.5375 0.4845 0.44068 0.0
C25 C 0.50299 0.62763 0.48091 0.0
O26 O 0.53632 0.4813 0.54975 0.0
O27 O 0.61227 0.46981 0.57512 0.0
C28 C 0.65441 0.4508 0.49209 0.0
O29 O 0.56741 0.48766 0.46423 0.0
O30 O 0.49167 0.50086 0.43873 0.0
O31 O 0.46757 0.60502 0.46789 0.0
O32 O 0.54077 0.60276 0.49635 0.0
O33 O 0.67788 0.45683 0.51643 0.0
O34 O 0.60985 0.47213 0.48422 0.0
O35 O 0.59021 0.59521 0.51198 0.0
O36 O 0.66463 0.57025 0.53629 0.0
C37 C 0.63495 0.60549 0.52392 0.0
O38 O 0.49324 0.479 0.52945 0.0
O39 O 0.42407 0.49375 0.49813 0.0
C40 C 0.56381 0.46603 0.57402 0.0
C41 C 0.44478 0.47269 0.52252 0.0
H42 H 0.14422 0.96978 0.37311 0.0
H43 H 1.00352 0.05406 0.37632 0.0
H44 H 0.11581 0.03541 0.4508 0.0
H45 H 1.00373 0.05203 0.46877 0.0
C46 C 0.98818 0.06138 0.44537 0.0
O47 O 0.02774 0.07867 0.42844 0.0
H48 H 0.97154 0.02652 0.43802 0.0
C49 C 0.11923 0.99132 0.38467 0.0
C50 C 0.13533 0.99987 0.41352 0.0
C51 C 0.07136 0.01004 0.37086 0.0
C52 C 0.04053 0.03902 0.38623 0.0
C53 C 0.05668 0.04841 0.4148 0.0
C54 C 0.10366 0.02823 0.42862 0.0
H55 H 0.14354 0.05815 0.65343 0.0
H56 H 0.01636 0.96129 0.63568 0.0
H57 H 0.0604 0.07567 0.5677 0.0
H58 H 0.94211 0.05738 0.56376 0.0
C59 C 0.94503 0.02218 0.57972 0.0
O60 O 0.99491 1.00325 0.58122 0.0
H61 H 0.93556 0.03127 0.60166 0.0
C62 C 0.11387 0.04553 0.63825 0.0
C63 C 0.10724 0.07063 0.60927 0.0
C64 C 0.08173 0.00589 0.64822 0.0
C65 C 0.04156 0.99191 0.62867 0.0
C66 C 0.03351 0.01747 0.59983 0.0
C67 C 0.06634 0.05674 0.59015 0.0
H68 H 0.62203 0.44855 0.87671 0.0
H69 H 0.50232 0.56069 0.87463 0.0
H70 H 0.6128 0.53199 0.94985 0.0
H71 H 0.50829 0.56406 0.96809 0.0
C72 C 0.49142 0.57249 0.94488 0.0
O73 O 0.53059 0.5847 0.92664 0.0
H74 H 0.47106 0.53811 0.93931 0.0
C75 C 0.60266 0.47642 0.88712 0.0
C76 C 0.62228 0.48662 0.91511 0.0
C77 C 0.55977 0.50326 0.872 0.0
C78 C 0.53588 0.53998 0.88561 0.0
C79 C 0.5547 0.54993 0.91368 0.0
C80 C 0.59834 0.52389 0.9282 0.0
H81 H 0.65237 0.54758 0.14599 0.0
H82 H 0.52106 0.45533 0.12832 0.0
H83 H 0.57339 0.56261 0.05921 0.0
H84 H 0.45841 0.54937 0.04942 0.0
C85 C 0.45715 0.51879 0.06831 0.0
O86 O 0.50439 0.49405 0.07293 0.0
H87 H 0.44851 0.53654 0.08799 0.0
C88 C 0.62272 0.53506 0.13076 0.0
C89 C 0.61795 0.55858 0.1014 0.0
C90 C 0.58799 0.49789 0.141 0.0
C91 C 0.5482 0.48409 0.12113 0.0
C92 C 0.54298 0.50747 0.09175 0.0
C93 C 0.57778 0.54465 0.08193 0.0
H94 H 0.11763 0.18725 0.99533 0.0
H95 H 0.15827 0.2697 0.99607 0.0
H96 H 0.21478 0.22582 0.08702 0.0
H97 H 0.17438 0.14414 0.0864 0.0
H98 H 0.186 0.32528 0.07646 0.0
H99 H 0.28822 0.20727 0.03217 0.0
H100 H 0.30245 0.15131 0.99509 0.0
H101 H 0.2756 0.27519 0.92561 0.0
H102 H 0.26053 0.33175 0.96232 0.0
H103 H 0.42023 0.44432 0.10731 0.0
H104 H 0.35142 0.38475 0.09838 0.0
H105 H 0.3306 0.45152 0.00706 0.0
H106 H 0.40032 0.51048 0.01592 0.0
H107 H 0.32924 0.35229 0.01097 0.0
H108 H 0.24242 0.47362 0.05623 0.0
H109 H 0.22872 0.52951 0.09338 0.0
H110 H 0.22528 0.40159 0.16049 0.0
H111 H 0.23968 0.34493 0.12382 0.0
C112 C 0.13737 0.19591 0.01569 0.0
C113 C 0.14323 0.15925 0.04074 0.0
C114 C 0.1609 0.24282 0.01603 0.0
C115 C 0.19023 0.2536 0.0415 0.0
C116 C 0.19252 0.21835 0.06712 0.0
C117 C 0.16956 0.17158 0.0667 0.0
C118 C 0.22312 0.29882 0.0411 0.0
C119 C 0.21729 0.33132 0.06213 0.0
C120 C 0.2632 0.30741 0.02192 0.0
C121 C 0.27263 0.27354 0.99992 0.0
C122 C 0.28499 0.22246 0.00897 0.0
C123 C 0.29325 0.19066 0.98803 0.0
C124 C 0.28976 0.20965 0.958 0.0
C125 C 0.27816 0.26052 0.94887 0.0
C126 C 0.26976 0.29245 0.96972 0.0
C127 C 0.4008 0.44619 0.08539 0.0
C128 C 0.41507 0.48215 0.06239 0.0
C129 C 0.36129 0.41247 0.08031 0.0
C130 C 0.335 0.41428 0.05216 0.0
C131 C 0.34998 0.44964 0.029 0.0
C132 C 0.38968 0.48332 0.03407 0.0
C133 C 0.29305 0.37814 0.04692 0.0
C134 C 0.29728 0.34723 0.02487 0.0
C135 C 0.2514 0.37114 0.06513 0.0
C136 C 0.24245 0.40504 0.08728 0.0
C137 C 0.23908 0.45741 0.07894 0.0
C138 C 0.23114 0.48924 0.09992 0.0
C139 C 0.22621 0.46912 0.12929 0.0
C140 C 0.22911 0.41712 0.13773 0.0
C141 C 0.23708 0.38513 0.11685 0.0
H142 H 0.22008 0.49382 0.14549 0.0
H143 H 0.29618 0.18497 0.94182 0.0
H144 H 0.12412 0.89758 0.96138 0.0
H145 H 0.17231 0.83729 0.93817 0.0
H146 H 0.31517 0.89085 0.97657 0.0
H147 H 0.26745 0.95286 0.99806 0.0
H148 H 0.33181 0.86609 0.92588 0.0
H149 H 0.24261 0.78827 0.00979 0.0
H150 H 0.16542 0.76444 0.03618 0.0
H151 H 0.10764 0.68429 0.96583 0.0
H152 H 0.18438 0.70791 0.93897 0.0
H153 H 0.50449 0.6611 0.96724 0.0
H154 H 0.44266 0.73108 0.96436 0.0
H155 H 0.33228 0.65166 0.91318 0.0
H156 H 0.39421 0.58155 0.91611 0.0
H157 H 0.28919 0.6882 0.95823 0.0
H158 H 0.39044 0.75334 0.87997 0.0
H159 H 0.47049 0.7757 0.85613 0.0
H160 H 0.50889 0.87819 0.91838 0.0
H161 H 0.42945 0.85593 0.94289 0.0
C162 C 0.16587 0.89786 0.96375 0.0
C163 C 0.19204 0.93028 0.98127 0.0
C164 C 0.19343 0.86282 0.95085 0.0
C165 C 0.24749 0.85872 0.95602 0.0
C166 C 0.27359 0.89306 0.97219 0.0
C167 C 0.24621 0.92839 0.98464 0.0
C168 C 0.27723 0.81633 0.94734 0.0
C169 C 0.32244 0.82719 0.93295 0.0
C170 C 0.26446 0.76536 0.95578 0.0
C171 C 0.21869 0.75068 0.97212 0.0
C172 C 0.21325 0.76587 0.99987 0.0
C173 C 0.16963 0.75232 0.01494 0.0
C174 C 0.13151 0.7231 0.00262 0.0
C175 C 0.13708 0.70711 0.97529 0.0
C176 C 0.18061 0.72058 0.96013 0.0
C177 C 0.4671 0.65886 0.95527 0.0
C178 C 0.45378 0.61591 0.94219 0.0
C179 C 0.43194 0.69886 0.95346 0.0
C180 C 0.38295 0.69678 0.93833 0.0
C181 C 0.36984 0.65407 0.92492 0.0
C182 C 0.40514 0.61413 0.92662 0.0
C183 C 0.34475 0.73818 0.93797 0.0
C184 C 0.29796 0.72704 0.95054 0.0
C185 C 0.35641 0.78886 0.92821 0.0
C186 C 0.40405 0.80274 0.91336 0.0
C187 C 0.4161 0.78042 0.8887 0.0
C188 C 0.46136 0.79311 0.87504 0.0
C189 C 0.49478 0.8283 0.88575 0.0
C190 C 0.48296 0.85095 0.9101 0.0
C191 C 0.43777 0.83836 0.92385 0.0
H192 H 0.52981 0.83805 0.87516 0.0
H193 H 0.09776 0.71266 0.01431 0.0
H194 H 0.8442 0.96917 0.02609 0.0
H195 H 0.79207 0.89799 0.04453 0.0
H196 H 0.93055 0.81135 0.07532 0.0
H197 H 0.98311 0.88271 0.05678 0.0
H198 H 0.86239 0.76308 0.03888 0.0
H199 H 0.8569 0.84435 0.12442 0.0
H200 H 0.84516 0.91538 0.15214 0.0
H201 H 0.6862 0.92998 0.11823 0.0
H202 H 0.69722 0.85957 0.08984 0.0
H203 H 0.723 0.55586 0.10857 0.0
H204 H 0.78209 0.62581 0.09807 0.0
H205 H 0.65295 0.72339 0.06354 0.0
H206 H 0.59365 0.65331 0.07388 0.0
H207 H 0.72057 0.76386 0.10505 0.0
H208 H 0.72741 0.68521 0.01787 0.0
H209 H 0.73981 0.61599 0.98885 0.0
H210 H 0.89727 0.59781 0.02505 0.0
H211 H 0.88543 0.66597 0.05498 0.0
C212 C 0.86356 0.93538 0.03744 0.0
C213 C 0.9177 0.93154 0.04009 0.0
C214 C 0.83374 0.89475 0.04798 0.0
C215 C 0.85745 0.84936 0.06124 0.0
C216 C 0.91155 0.84609 0.06514 0.0
C217 C 0.9415 0.88704 0.05485 0.0
C218 C 0.82544 0.80447 0.06862 0.0
C219 C 0.83208 0.76273 0.05385 0.0
C220 C 0.78503 0.8048 0.08749 0.0
C221 C 0.778 0.84685 0.1048 0.0
C222 C 0.81952 0.86292 0.12268 0.0
C223 C 0.81299 0.90306 0.13854 0.0
C224 C 0.76497 0.92723 0.13692 0.0
C225 C 0.72338 0.91123 0.11946 0.0
C226 C 0.72974 0.87116 0.10349 0.0
C227 C 0.70736 0.59215 0.09845 0.0
C228 C 0.65385 0.5993 0.09198 0.0
C229 C 0.74107 0.63198 0.09246 0.0
C230 C 0.72184 0.67976 0.08011 0.0
C231 C 0.66848 0.6868 0.07316 0.0
C232 C 0.63477 0.64675 0.0788 0.0
C233 C 0.75736 0.72263 0.07516 0.0
C234 C 0.75126 0.76399 0.09034 0.0
C235 C 0.79832 0.72193 0.05667 0.0
C236 C 0.80532 0.68035 0.03899 0.0
C237 C 0.76448 0.666 0.01999 0.0
C238 C 0.77143 0.62698 0.00333 0.0
C239 C 0.81924 0.6024 0.00517 0.0
C240 C 0.86018 0.61674 0.02373 0.0
C241 C 0.85336 0.65552 0.04058 0.0
H242 H 0.82458 0.57234 0.99216 0.0
H243 H 0.75997 0.9583 0.14922 0.0
H244 H 0.96672 0.16824 0.03454 0.0
H245 H 0.9147 0.24561 0.02794 0.0
H246 H 0.97317 0.2886 0.94286 0.0
H247 H 0.02316 0.21 0.94894 0.0
H248 H 0.90847 0.34722 0.0133 0.0
H249 H 0.87403 0.31038 0.89243 0.0
H250 H 0.88474 0.24164 0.86266 0.0
H251 H 0.86899 0.13253 0.93899 0.0
H252 H 0.85758 0.20059 0.96907 0.0
H253 H 0.71493 0.52271 0.93539 0.0
H254 H 0.79318 0.47347 0.95464 0.0
H255 H 0.70878 0.33639 0.94885 0.0
H256 H 0.63182 0.38548 0.92851 0.0
H257 H 0.79127 0.32962 0.9246 0.0
H258 H 0.75014 0.38405 0.01497 0.0
H259 H 0.73235 0.44407 0.04916 0.0
H260 H 0.88457 0.50383 0.04243 0.0
H261 H 0.90263 0.44559 0.00728 0.0
C262 C 0.97064 0.19561 0.0152 0.0
C263 C 0.99874 0.18339 0.99221 0.0
C264 C 0.94068 0.23979 0.01136 0.0
C265 C 0.93883 0.27221 0.98452 0.0
C266 C 0.97326 0.26365 0.96353 0.0
C267 C 1.0023 0.219 0.9671 0.0
C268 C 0.89398 0.30725 0.97597 0.0
C269 C 0.88301 0.34394 0.99376 0.0
C270 C 0.85968 0.30172 0.95106 0.0
C271 C 0.86561 0.26056 0.93302 0.0
C272 C 0.87272 0.27171 0.9028 0.0
C273 C 0.87892 0.23287 0.88589 0.0
C274 C 0.87777 0.18276 0.89895 0.0
C275 C 0.87009 0.17135 0.92892 0.0
C276 C 0.86377 0.21003 0.94591 0.0
C277 C 0.71321 0.48205 0.93867 0.0
C278 C 0.66765 0.45773 0.93031 0.0
C279 C 0.75782 0.45392 0.94974 0.0
C280 C 0.75713 0.40104 0.95321 0.0
C281 C 0.71066 0.37705 0.94613 0.0
C282 C 0.66661 0.40504 0.93459 0.0
C283 C 0.80513 0.3702 0.96186 0.0
C284 C 0.8168 0.33392 0.94398 0.0
C285 C 0.83867 0.3752 0.98726 0.0
C286 C 0.82748 0.41087 0.00808 0.0
C287 C 0.77957 0.41053 0.02038 0.0
C288 C 0.76942 0.44427 0.03995 0.0
C289 C 0.80716 0.47803 0.0478 0.0
C290 C 0.8552 0.47798 0.03615 0.0
C291 C 0.86535 0.44472 0.01632 0.0
H292 H 0.79927 0.50409 0.06297 0.0
H293 H 0.88267 0.15276 0.88584 0.0
H294 H 0.7347 0.63305 0.52651 0.0
H295 H 0.77037 0.71465 0.53295 0.0
H296 H 0.61698 0.77854 0.52692 0.0
H297 H 0.58049 0.69526 0.52138 0.0
H298 H 0.71371 0.83555 0.49315 0.0
H299 H 0.64914 0.77302 0.58641 0.0
H300 H 0.63245 0.70692 0.6273 0.0
H301 H 0.79525 0.67796 0.64513 0.0
H302 H 0.81286 0.74334 0.604 0.0
H303 H 0.85033 0.04123 0.54958 0.0
H304 H 0.78378 0.98114 0.53742 0.0
H305 H 0.88489 0.85848 0.57723 0.0
H306 H 0.95025 0.91841 0.59046 0.0
H307 H 0.7941 0.84185 0.59437 0.0
H308 H 0.85821 0.89749 0.49847 0.0
H309 H 0.87587 0.95885 0.45538 0.0
H310 H 0.71496 0.99921 0.44122 0.0
H311 H 0.69646 0.93859 0.48445 0.0
C312 C 0.70821 0.66437 0.52625 0.0
C313 C 0.65446 0.65753 0.52345 0.0
C314 C 0.72883 0.71111 0.52981 0.0
C315 C 0.6964 0.75249 0.53053 0.0
C316 C 0.64265 0.74694 0.52627 0.0
C317 C 0.62179 0.69954 0.52289 0.0
C318 C 0.72025 0.79962 0.53815 0.0
C319 C 0.73015 0.83794 0.51541 0.0
C320 C 0.74254 0.8019 0.56704 0.0
C321 C 0.73226 0.76282 0.59197 0.0
C322 C 0.68135 0.75224 0.59888 0.0
C323 C 0.67173 0.71496 0.62213 0.0
C324 C 0.71275 0.68819 0.63877 0.0
C325 C 0.7635 0.69871 0.63221 0.0
C326 C 0.77332 0.73592 0.60895 0.0
C327 C 0.85844 1.00136 0.55537 0.0
C328 C 0.9061 0.98453 0.57019 0.0
C329 C 0.82043 0.96702 0.54836 0.0
C330 C 0.82941 0.91503 0.55592 0.0
C331 C 0.87692 0.8983 0.57098 0.0
C332 C 0.91459 0.9326 0.5783 0.0
C333 C 0.78925 0.87766 0.54917 0.0
C334 C 0.77664 0.84074 0.57218 0.0
C335 C 0.76455 0.87689 0.52048 0.0
C336 C 0.77606 0.91397 0.49489 0.0
C337 C 0.8267 0.91984 0.48635 0.0
C338 C 0.83683 0.95441 0.46186 0.0
C339 C 0.79654 0.98295 0.44561 0.0
C340 C 0.74611 0.97713 0.45385 0.0
C341 C 0.73579 0.9427 0.47833 0.0
H342 H 0.80425 0.00939 0.42652 0.0
H343 H 0.70523 0.65935 0.65678 0.0
H344 H 0.60969 0.37698 0.463 0.0
H345 H 0.65572 0.31025 0.44327 0.0
H346 H 0.80056 0.38162 0.46282 0.0
H347 H 0.75494 0.44789 0.48205 0.0
H348 H 0.80303 0.34037 0.41294 0.0
H349 H 0.75209 0.29087 0.51249 0.0
H350 H 0.68891 0.27433 0.54988 0.0
H351 H 0.6152 0.1649 0.50116 0.0
H352 H 0.67762 0.18136 0.46325 0.0
H353 H 0.99943 0.15796 0.45726 0.0
H354 H 0.93279 0.22361 0.45457 0.0
H355 H 0.81745 0.12069 0.42709 0.0
H356 H 0.88448 0.05525 0.42929 0.0
H357 H 0.7875 0.17234 0.47162 0.0
H358 H 0.85256 0.21147 0.37728 0.0
H359 H 0.91911 0.22783 0.34192 0.0
H360 H 0.96909 0.35671 0.38203 0.0
H361 H 0.90337 0.34068 0.41796 0.0
C362 C 0.65115 0.37906 0.46213 0.0
C363 C 0.67889 0.41739 0.47405 0.0
C364 C 0.67746 0.34082 0.4511 0.0
C365 C 0.73175 0.34049 0.452 0.0
C366 C 0.75879 0.38092 0.46188 0.0
C367 C 0.73269 0.41875 0.47295 0.0
C368 C 0.76151 0.29616 0.44589 0.0
C369 C 0.79954 0.30358 0.4257 0.0
C370 C 0.75638 0.2478 0.46209 0.0
C371 C 0.719 0.23784 0.48486 0.0
C372 C 0.72214 0.26358 0.50964 0.0
C373 C 0.68652 0.25419 0.53094 0.0
C374 C 0.64794 0.21872 0.52784 0.0
C375 C 0.64501 0.19247 0.50348 0.0
C376 C 0.68047 0.20182 0.48209 0.0
C377 C 0.95991 0.14962 0.45041 0.0
C378 C 0.94703 0.10175 0.44327 0.0
C379 C 0.92191 0.18706 0.44881 0.0
C380 C 0.87021 0.17725 0.44026 0.0
C381 C 0.85711 0.12918 0.43356 0.0
C382 C 0.89529 0.09187 0.43485 0.0
C383 C 0.82997 0.21701 0.43931 0.0
C384 C 0.79014 0.20871 0.45825 0.0
C385 C 0.83374 0.26464 0.42213 0.0
C386 C 0.87319 0.27466 0.40045 0.0
C387 C 0.87798 0.24309 0.37871 0.0
C388 C 0.91553 0.25234 0.35854 0.0
C389 C 0.94836 0.29323 0.35975 0.0
C390 C 0.94364 0.32503 0.38112 0.0
C391 C 0.90619 0.31592 0.40138 0.0
H392 H 0.9774 0.30033 0.34411 0.0
H393 H 0.62041 0.21147 0.54436 0.0
H394 H 0.34074 0.47373 0.5236 0.0
H395 H 0.28691 0.40573 0.54388 0.0
H396 H 0.42293 0.32139 0.58243 0.0
H397 H 0.47747 0.38927 0.56126 0.0
H398 H 0.36046 0.26642 0.55008 0.0
H399 H 0.3394 0.37256 0.62269 0.0
H400 H 0.32032 0.45065 0.64248 0.0
H401 H 0.1634 0.44812 0.60567 0.0
H402 H 0.1818 0.37076 0.58486 0.0
H403 H 0.21202 0.06928 0.61921 0.0
H404 H 0.27129 0.13854 0.60885 0.0
H405 H 0.14445 0.23353 0.56747 0.0
H406 H 0.08439 0.16429 0.57853 0.0
H407 H 0.20623 0.28131 0.60551 0.0
H408 H 0.23038 0.18607 0.52626 0.0
H409 H 0.2484 0.1101 0.50387 0.0
H410 H 0.39771 0.09487 0.55175 0.0
H411 H 0.3803 0.1704 0.57475 0.0
C412 C 0.35928 0.44123 0.53697 0.0
C413 C 0.4134 0.4369 0.54084 0.0
C414 C 0.32837 0.40236 0.54863 0.0
C415 C 0.35078 0.35839 0.56471 0.0
C416 C 0.40481 0.355 0.57004 0.0
C417 C 0.43593 0.39407 0.55828 0.0
C418 C 0.31769 0.31472 0.57353 0.0
C419 C 0.32737 0.26939 0.56276 0.0
C420 C 0.27353 0.31915 0.58928 0.0
C421 C 0.26212 0.36562 0.60211 0.0
C422 C 0.30086 0.38869 0.61862 0.0
C423 C 0.29018 0.43294 0.63001 0.0
C424 C 0.24065 0.45427 0.62541 0.0
C425 C 0.20174 0.43148 0.60929 0.0
C426 C 0.21232 0.38741 0.59766 0.0
C427 C 0.19669 0.10488 0.60782 0.0
C428 C 0.14344 0.11139 0.59979 0.0
C429 C 0.2307 0.14438 0.60178 0.0
C430 C 0.21241 0.19123 0.5873 0.0
C431 C 0.15939 0.19769 0.57872 0.0
C432 C 0.12521 0.15801 0.58476 0.0
C433 C 0.24868 0.23355 0.58165 0.0
C434 C 0.23961 0.27844 0.59305 0.0
C435 C 0.29321 0.22902 0.5663 0.0
C436 C 0.3038 0.1836 0.55247 0.0
C437 C 0.26688 0.16628 0.53221 0.0
C438 C 0.27702 0.12334 0.51937 0.0
C439 C 0.32411 0.09759 0.52644 0.0
C440 C 0.36122 0.11481 0.54632 0.0
C441 C 0.35125 0.1577 0.55925 0.0
H442 H 0.33189 0.06436 0.51647 0.0
H443 H 0.23242 0.48847 0.6343 0.0
H444 H 0.50439 0.69626 0.43239 0.0
H445 H 0.45805 0.77699 0.42473 0.0
H446 H 0.43316 0.76067 0.51735 0.0
H447 H 0.47942 0.67952 0.52495 0.0
H448 H 0.35469 0.77152 0.43656 0.0
H449 H 0.40843 0.88581 0.5325 0.0
H450 H 0.48549 0.90235 0.56456 0.0
H451 H 0.58298 0.87642 0.49673 0.0
H452 H 0.50651 0.86071 0.46404 0.0
H453 H 0.14905 0.92762 0.46119 0.0
H454 H 0.22846 0.87893 0.47846 0.0
H455 H 0.31185 0.97279 0.41493 0.0
H456 H 0.23209 0.02049 0.39697 0.0
H457 H 0.36632 0.93018 0.48084 0.0
H458 H 0.2809 0.89023 0.38653 0.0
H459 H 0.20168 0.87235 0.35662 0.0
H460 H 0.17095 0.74706 0.42138 0.0
H461 H 0.24942 0.76506 0.452 0.0
C462 C 0.49147 0.71127 0.45136 0.0
C463 C 0.49626 0.6823 0.47934 0.0
C464 C 0.46453 0.75709 0.44693 0.0
C465 C 0.44187 0.77467 0.47042 0.0
C466 C 0.45076 0.74805 0.49897 0.0
C467 C 0.47757 0.70194 0.50337 0.0
C468 C 0.402 0.81526 0.4641 0.0
C469 C 0.3577 0.80635 0.44606 0.0
C470 C 0.40543 0.8604 0.47684 0.0
C471 C 0.45164 0.87158 0.49592 0.0
C472 C 0.44626 0.88398 0.52433 0.0
C473 C 0.48987 0.89318 0.54263 0.0
C474 C 0.5391 0.89026 0.53272 0.0
C475 C 0.54483 0.87849 0.50441 0.0
C476 C 0.50135 0.86939 0.48601 0.0
C477 C 0.18471 0.93868 0.45157 0.0
C478 C 0.18472 0.97754 0.42777 0.0
C479 C 0.22999 0.91108 0.4615 0.0
C480 C 0.27602 0.92258 0.4481 0.0
C481 C 0.27689 0.96383 0.4258 0.0
C482 C 0.23137 0.99075 0.41544 0.0
C483 C 0.31975 0.88608 0.45328 0.0
C484 C 0.36407 0.89547 0.47121 0.0
C485 C 0.31676 0.84115 0.44048 0.0
C486 C 0.27063 0.8293 0.42165 0.0
C487 C 0.257 0.85914 0.39448 0.0
C488 C 0.21227 0.84897 0.3774 0.0
C489 C 0.18123 0.80865 0.38712 0.0
C490 C 0.19497 0.77833 0.4139 0.0
C491 C 0.23955 0.78851 0.43113 0.0
H492 H 0.14661 0.80085 0.37388 0.0
H493 H 0.57281 0.89721 0.54696 0.0
H494 H 0.96947 0.99644 0.09188 0.0
H495 H 0.94319 0.99442 0.14208 0.0
H496 H 0.06173 0.88334 0.17418 0.0
H497 H 0.08873 0.88586 0.12424 0.0
H498 H 0.96811 0.88126 0.20898 0.0
H499 H 0.10324 0.99219 0.16733 0.0
H500 H 0.13148 0.05541 0.12776 0.0
H501 H 0.00848 0.15484 0.1411 0.0
H502 H 0.97894 0.09167 0.18037 0.0
H503 H 0.08642 0.9237 0.34642 0.0
H504 H 0.06201 0.9081 0.2962 0.0
H505 H 0.98878 0.05459 0.27669 0.0
H506 H 0.01653 0.07208 0.32626 0.0
H507 H 0.04119 0.04212 0.23408 0.0
H508 H 0.91866 0.93994 0.28434 0.0
H509 H 0.88638 0.87644 0.32233 0.0
H510 H 0.97734 0.76213 0.29292 0.0
H511 H 0.01077 0.82507 0.25501 0.0
C512 C 0.98816 0.96969 0.10936 0.0
C513 C 0.03182 0.94205 0.10437 0.0
C514 C 0.97315 0.96866 0.13806 0.0
C515 C 1.00124 0.93945 0.16184 0.0
C516 C 0.03968 0.90621 0.15613 0.0
C517 C 0.0552 0.90781 0.12758 0.0
C518 C 1.00006 0.95215 0.19218 0.0
C519 C 0.98381 0.91639 0.21464 0.0
C520 C 0.0197 0.99846 0.1993 0.0
C521 C 0.0386 0.0371 0.17652 0.0
C522 C 0.0821 0.02745 0.1617 0.0
C523 C 0.09832 0.06323 0.13933 0.0
C524 C 0.07171 0.10907 0.13187 0.0
C525 C 0.02898 0.11928 0.14687 0.0
C526 C 0.01248 0.08351 0.16917 0.0
C527 C 0.06557 0.95293 0.33144 0.0
C528 C 0.05381 0.99935 0.34056 0.0
C529 C 0.05069 0.94351 0.30277 0.0
C530 C 0.02259 0.97974 0.28265 0.0
C531 C 0.01011 0.02582 0.29179 0.0
C532 C 0.02566 0.0356 0.32033 0.0
C533 C 0.00968 0.97093 0.25153 0.0
C534 C 0.02395 0.0074 0.22875 0.0
C535 C 0.9876 0.92547 0.24423 0.0
C536 C 0.96748 0.88735 0.26693 0.0
C537 C 0.93206 0.90133 0.28609 0.0
C538 C 0.91352 0.86541 0.3076 0.0
C539 C 0.92987 0.8153 0.31007 0.0
C540 C 0.96472 0.80097 0.29099 0.0
C541 C 0.98342 0.83674 0.26945 0.0
H542 H 0.91547 0.78755 0.32674 0.0
H543 H 0.08426 0.1367 0.11452 0.0
H544 H 1.00051 0.93554 0.90795 0.0
H545 H 0.02833 0.91709 0.8611 0.0
H546 H 0.17367 0.98903 0.87864 0.0
H547 H 0.14537 0.00797 0.92591 0.0
H548 H 0.12846 0.02834 0.82694 0.0
H549 H 0.17563 0.86475 0.86867 0.0
H550 H 0.17235 0.78205 0.89906 0.0
H551 H 0.0329 0.74837 0.84927 0.0
H552 H 0.03557 0.83086 0.81828 0.0
H553 H 0.17306 0.98257 0.68165 0.0
H554 H 0.18513 0.96074 0.73524 0.0
H555 H 0.02049 0.95022 0.73943 0.0
H556 H 1.00762 0.97477 0.68597 0.0
H557 H 0.09862 0.87213 0.78164 0.0
H558 H 0.05011 0.05173 0.74859 0.0
H559 H 0.06423 0.13197 0.71723 0.0
H560 H 0.22215 0.13124 0.7529 0.0
H561 H 0.20905 0.05046 0.7841 0.0
C562 C 0.03891 0.94633 0.90214 0.0
C563 C 0.07079 0.97324 0.9204 0.0
C564 C 0.05501 0.93537 0.87546 0.0
C565 C 0.10326 0.95136 0.86637 0.0
C566 C 0.13638 0.97613 0.8853 0.0
C567 C 0.12032 0.9868 0.91226 0.0
C568 C 0.11467 0.94866 0.83542 0.0
C569 C 0.12337 0.99381 0.81729 0.0
C570 C 0.10807 0.90376 0.82262 0.0
C571 C 0.10566 0.85417 0.84123 0.0
C572 C 0.14405 0.83987 0.86429 0.0
C573 C 0.14236 0.79297 0.88161 0.0
C574 C 0.10224 0.76008 0.87627 0.0
C575 C 0.06393 0.77392 0.85341 0.0
C576 C 0.06566 0.82066 0.83584 0.0
C577 C 0.1393 0.97524 0.69387 0.0
C578 C 0.08925 0.98171 0.67952 0.0
C579 C 0.14642 0.96212 0.72445 0.0
C580 C 0.10371 0.95409 0.74115 0.0
C581 C 0.05391 0.95596 0.72676 0.0
C582 C 0.04666 0.96998 0.69617 0.0
C583 C 0.11036 0.95193 0.77359 0.0
C584 C 0.10495 0.9061 0.7917 0.0
C585 C 0.12135 0.9959 0.78655 0.0
C586 C 0.12879 0.04492 0.76837 0.0
C587 C 0.08793 0.06852 0.74954 0.0
C588 C 0.09572 0.11409 0.73183 0.0
C589 C 0.14411 0.13661 0.733 0.0
C590 C 0.18473 0.1137 0.75197 0.0
C591 C 0.17714 0.06804 0.76967 0.0
H592 H 0.15009 0.17188 0.71926 0.0
H593 H 0.10094 0.72383 0.88979 0.0
H594 H 0.60445 0.40001 0.61994 0.0
H595 H 0.58231 0.39411 0.6709 0.0
H596 H 0.44928 0.49011 0.64315 0.0
H597 H 0.47155 0.49651 0.59165 0.0
H598 H 0.5793 0.498 0.68842 0.0
H599 H 0.3715 0.43737 0.71395 0.0
H600 H 0.30459 0.3786 0.69938 0.0
H601 H 0.42006 0.28677 0.66999 0.0
H602 H 0.48783 0.34394 0.68527 0.0
H603 H 0.53137 0.57324 0.82424 0.0
H604 H 0.51156 0.55891 0.77306 0.0
H605 H 0.52892 0.39898 0.79951 0.0
H606 H 0.5477 0.41294 0.85091 0.0
H607 H 0.44991 0.4227 0.75455 0.0
H608 H 0.6285 0.46171 0.77663 0.0
H609 H 0.70065 0.51221 0.79421 0.0
H610 H 0.65126 0.63656 0.7287 0.0
H611 H 0.57819 0.58704 0.71108 0.0
C612 C 0.56936 0.41836 0.62447 0.0
C613 C 0.54022 0.44942 0.60193 0.0
C614 C 0.5567 0.41483 0.65361 0.0
C615 C 0.51446 0.44197 0.66077 0.0
C616 C 0.48187 0.46864 0.63798 0.0
C617 C 0.49459 0.4722 0.60859 0.0
C618 C 0.51233 0.45116 0.69173 0.0
C619 C 0.55059 0.48194 0.70277 0.0
C620 C 0.47527 0.42961 0.71043 0.0
C621 C 0.43474 0.39561 0.70028 0.0
C622 C 0.38267 0.40463 0.70439 0.0
C623 C 0.3446 0.37137 0.6962 0.0
C624 C 0.35808 0.32896 0.6838 0.0
C625 C 0.40966 0.31972 0.67954 0.0
C626 C 0.44793 0.35263 0.68791 0.0
C627 C 0.52972 0.53494 0.81931 0.0
C628 C 0.54169 0.49424 0.8416 0.0
C629 C 0.51855 0.52683 0.79002 0.0
C630 C 0.51925 0.47791 0.78245 0.0
C631 C 0.52816 0.43702 0.80487 0.0
C632 C 0.53946 0.44511 0.83416 0.0
C633 C 0.51666 0.4698 0.75101 0.0
C634 C 0.47783 0.43946 0.73993 0.0
C635 C 0.55369 0.49101 0.73216 0.0
C636 C 0.59749 0.52091 0.7428 0.0
C637 C 0.63271 0.5 0.76618 0.0
C638 C 0.67381 0.52842 0.77612 0.0
C639 C 0.68042 0.57763 0.76266 0.0
C640 C 0.64599 0.59849 0.73917 0.0
C641 C 0.60471 0.57028 0.72921 0.0
H642 H 0.71232 0.59955 0.77036 0.0
H643 H 0.32852 0.30338 0.67736 0.0
H644 H 0.63652 0.48151 0.42349 0.0
H645 H 0.66229 0.46015 0.37643 0.0
H646 H 0.50381 0.42721 0.35103 0.0
H647 H 0.47905 0.44421 0.39861 0.0
H648 H 0.55975 0.36976 0.3272 0.0
H649 H 0.56224 0.54899 0.33468 0.0
H650 H 0.59215 0.62418 0.35622 0.0
H651 H 0.74783 0.59264 0.33857 0.0
H652 H 0.71882 0.51692 0.31721 0.0
H653 H 0.50921 0.47511 0.17677 0.0
H654 H 0.5162 0.45104 0.23025 0.0
H655 H 0.68216 0.45055 0.23129 0.0
H656 H 0.67569 0.47276 0.17761 0.0
H657 H 0.64212 0.5126 0.26894 0.0
H658 H 0.62714 0.34291 0.24898 0.0
H659 H 0.5887 0.27352 0.22497 0.0
H660 H 0.44623 0.29338 0.26358 0.0
H661 H 0.48354 0.36339 0.28749 0.0
C662 C 0.60773 0.4676 0.40837 0.0
C663 C 0.55582 0.46443 0.41482 0.0
C664 C 0.62229 0.45618 0.38124 0.0
C665 C 0.58479 0.44327 0.35975 0.0
C666 C 0.53359 0.43715 0.36704 0.0
C667 C 0.51935 0.44737 0.39426 0.0
C668 C 0.59662 0.4413 0.32869 0.0
C669 C 0.57786 0.40098 0.3145 0.0
C670 C 0.62111 0.48151 0.31204 0.0
C671 C 0.63851 0.52706 0.32472 0.0
C672 C 0.60288 0.55799 0.33556 0.0
C673 C 0.61966 0.60068 0.34771 0.0
C674 C 0.67189 0.61308 0.34886 0.0
C675 C 0.70741 0.58291 0.33775 0.0
C676 C 0.69084 0.54012 0.32561 0.0
C677 C 0.54722 0.4684 0.18816 0.0
C678 C 0.59189 0.47642 0.17283 0.0
C679 C 0.55114 0.4548 0.2188 0.0
C680 C 0.59972 0.44907 0.2347 0.0
C681 C 0.64434 0.45495 0.2194 0.0
C682 C 0.64049 0.46798 0.18875 0.0
C683 C 0.60356 0.44205 0.26741 0.0
C684 C 0.62527 0.48075 0.28182 0.0
C685 C 0.58055 0.40107 0.28402 0.0
C686 C 0.55812 0.3586 0.26992 0.0
C687 C 0.5875 0.33271 0.25221 0.0
C688 C 0.56593 0.29322 0.23864 0.0
C689 C 0.51504 0.27909 0.24272 0.0
C690 C 0.48566 0.30435 0.26045 0.0
C691 C 0.50704 0.34389 0.27405 0.0
H692 H 0.4984 0.24853 0.23219 0.0
H693 H 0.68481 0.64615 0.35828 0.0
loop_
_geom_bond_atom_site_label_1
_geom_bond_atom_site_label_2
_geom_bond_distance
_geom_bond_site_symmetry_2
_ccdc_geom_bond_type
Zn0 O6 1.920 1_545 S
Zn0 O12 1.898 . S
Zn0 O15 1.905 1_545 S
Zn1 O9 1.905 . S
Zn1 O10 1.898 1_545 S
Zn1 O18 1.920 1_545 S
Zn2 O5 2.092 1_545 S
Zn2 O8 2.114 . S
Zn2 O11 2.120 1_545 S
Zn2 O13 2.120 1_455 S
Zn2 O14 2.114 1_554 S
Zn2 O17 2.080 . S
C3 O8 1.166 . S
C3 O9 1.182 . S
C4 O10 1.167 . S
C4 O11 1.299 . S
O5 Zn2 2.092 1_565 S
O5 C19 1.288 1_455 S
O6 Zn0 1.920 1_565 S
O6 C19 1.234 1_556 S
C7 O12 1.167 . S
C7 O13 1.299 1_556 S
O8 Zn2 2.114 . S
O8 C3 1.166 . S
O9 Zn1 1.905 . S
O9 C3 1.182 . S
O10 Zn1 1.898 1_565 S
O10 C4 1.167 . S
O11 Zn2 2.120 1_565 S
O11 C4 1.299 . S
O12 Zn0 1.898 . S
O12 C7 1.167 . S
O13 Zn2 2.120 1_655 S
O13 C7 1.299 1_554 S
O14 Zn2 2.114 1_556 S
O14 C16 1.166 1_545 S
O15 Zn0 1.905 1_565 S
O15 C16 1.182 1_655 S
C16 O14 1.166 1_565 S
C16 O15 1.182 1_455 S
O17 Zn2 2.080 . S
O17 C20 1.305 1_545 S
O18 Zn1 1.920 1_565 S
O18 C20 1.234 . S
C19 O5 1.288 1_655 S
C19 O6 1.234 1_554 S
C20 O17 1.305 1_565 S
C20 O18 1.234 . S
Zn21 O27 1.920 . S
Zn21 O33 1.898 . S
Zn21 O36 1.905 . S
Zn22 O30 1.905 . S
Zn22 O31 1.898 . S
Zn22 O39 1.920 . S
Zn23 O26 2.080 . S
Zn23 O29 2.114 . S
Zn23 O32 2.120 . S
Zn23 O34 2.120 . S
Zn23 O35 2.114 . S
Zn23 O38 2.080 . S
C24 O29 1.166 . S
C24 O30 1.182 . S
C25 O31 1.167 . S
C25 O32 1.299 . S
O26 Zn23 2.080 . S
O26 C40 1.305 . S
O27 Zn21 1.920 . S
O27 C40 1.234 . S
C28 O33 1.167 . S
C28 O34 1.299 . S
O29 Zn23 2.114 . S
O29 C24 1.166 . S
O30 Zn22 1.905 . S
O30 C24 1.182 . S
O31 Zn22 1.898 . S
O31 C25 1.167 . S
O32 Zn23 2.120 . S
O32 C25 1.299 . S
O33 Zn21 1.898 . S
O33 C28 1.167 . S
O34 Zn23 2.120 . S
O34 C28 1.299 . S
O35 Zn23 2.114 . S
O35 C37 1.166 . S
O36 Zn21 1.905 . S
O36 C37 1.182 . S
C37 O35 1.166 . S
C37 O36 1.182 . S
O38 Zn23 2.080 . S
O38 C41 1.305 . S
O39 Zn22 1.920 . S
O39 C41 1.234 . S
C40 O26 1.305 . S
C40 O27 1.234 . S
C41 O38 1.305 . S
C41 O39 1.234 . S
H42 C49 0.929 . S
H43 C52 0.930 . S
H44 C54 0.929 1_565 S
H45 C46 0.969 . S
C46 H45 0.969 . S
C46 O47 1.550 1_655 S
C46 H48 0.973 . S
O47 C46 1.550 1_455 S
O47 C53 1.412 . S
H48 C46 0.973 . S
C49 H42 0.929 . S
C49 C50 1.400 . S
C49 C51 1.364 1_565 S
C50 C49 1.400 . S
C50 C54 1.377 1_565 S
C51 C49 1.364 1_545 S
C51 C52 1.374 . S
C52 H43 0.930 . S
C52 C51 1.374 . S
C52 C53 1.383 . S
C53 O47 1.412 . S
C53 C52 1.383 . S
C53 C54 1.394 . S
C54 H44 0.929 1_545 S
C54 C50 1.377 1_545 S
C54 C53 1.394 . S
H55 C62 0.929 . S
H56 C65 0.930 1_565 S
H57 C67 0.929 . S
H58 C59 0.969 . S
C59 H58 0.969 . S
C59 O60 1.550 . S
C59 H61 0.973 . S
O60 C59 1.550 . S
O60 C66 1.412 1_565 S
H61 C59 0.973 . S
C62 H55 0.929 . S
C62 C63 1.400 . S
C62 C64 1.364 . S
C63 C62 1.400 . S
C63 C67 1.377 . S
C64 C62 1.364 . S
C64 C65 1.374 1_455 S
C65 H56 0.930 1_545 S
C65 C64 1.374 1_655 S
C65 C66 1.383 . S
C66 O60 1.412 1_545 S
C66 C65 1.383 . S
C66 C67 1.394 1_655 S
C67 H57 0.929 . S
C67 C63 1.377 . S
C67 C66 1.394 1_455 S
H68 C75 0.929 . S
H69 C78 0.930 . S
H70 C80 0.929 . S
H71 C72 0.969 . S
C72 H71 0.969 . S
C72 O73 1.550 . S
C72 H74 0.973 . S
O73 C72 1.550 . S
O73 C79 1.412 . S
H74 C72 0.973 . S
C75 H68 0.929 . S
C75 C76 1.400 . S
C75 C77 1.364 . S
C76 C75 1.400 . S
C76 C80 1.377 . S
C77 C75 1.364 . S
C77 C78 1.374 . S
C78 H69 0.930 . S
C78 C77 1.374 . S
C78 C79 1.383 . S
C79 O73 1.412 . S
C79 C78 1.383 . S
C79 C80 1.394 . S
C80 H70 0.929 . S
C80 C76 1.377 . S
C80 C79 1.394 . S
H81 C88 0.929 . S
H82 C91 0.930 . S
H83 C93 0.929 . S
H84 C85 0.969 . S
C85 H84 0.969 . S
C85 O86 1.550 . S
C85 H87 0.973 . S
O86 C85 1.550 . S
O86 C92 1.412 . S
H87 C85 0.973 . S
C88 H81 0.929 . S
C88 C89 1.400 . S
C88 C90 1.364 . S
C89 C88 1.400 . S
C89 C93 1.377 . S
C90 C88 1.364 . S
C90 C91 1.374 . S
C91 H82 0.930 . S
C91 C90 1.374 . S
C91 C92 1.383 . S
C92 O86 1.412 . S
C92 C91 1.383 . S
C92 C93 1.394 . S
C93 H83 0.929 . S
C93 C89 1.377 . S
C93 C92 1.394 . S
H94 C112 0.951 . S
H95 C114 0.959 . S
H96 C116 0.950 . S
H97 C117 0.950 . S
H98 C119 0.950 . S
H99 C122 0.975 . S
H100 C123 0.950 . S
H101 C125 0.950 . S
H102 C126 0.950 . S
H103 C127 0.951 . S
H104 C129 0.951 . S
H105 C131 0.950 . S
H106 C132 0.950 . S
H107 C134 0.950 . S
H108 C137 0.950 . S
H109 C138 0.950 . S
H110 C140 0.950 . S
H111 C141 0.950 . S
C112 H94 0.951 . S
C112 C113 1.366 1_556 S
C112 C114 1.391 . S
C113 C112 1.366 1_554 S
C113 C117 1.385 . S
C114 H95 0.959 . S
C114 C112 1.391 . S
C114 C115 1.354 1_556 S
C115 C114 1.354 1_554 S
C115 C116 1.414 . S
C115 C118 1.499 . S
C116 H96 0.950 . S
C116 C115 1.414 . S
C116 C117 1.374 . S
C117 H97 0.950 . S
C117 C113 1.385 . S
C117 C116 1.374 . S
C118 C115 1.499 . S
C118 C119 1.373 . S
C118 C120 1.389 . S
C119 H98 0.950 . S
C119 C118 1.373 . S
C119 C135 1.377 . S
C120 C118 1.389 . S
C120 C121 1.524 1_554 S
C120 C134 1.377 . S
C121 C120 1.524 1_556 S
C121 C122 1.394 1_556 S
C121 C126 1.363 . S
C122 H99 0.975 . S
C122 C121 1.394 1_554 S
C122 C123 1.312 1_554 S
C123 H100 0.950 . S
C123 C122 1.312 1_556 S
C123 C124 1.287 . S
C124 C123 1.287 . S
C124 C125 1.524 . S
C124 H143 0.913 . S
C125 H101 0.950 . S
C125 C124 1.524 . S
C125 C126 1.415 . S
C126 H102 0.950 . S
C126 C121 1.363 . S
C126 C125 1.415 . S
C127 H103 0.951 . S
C127 C128 1.366 . S
C127 C129 1.388 . S
C128 C127 1.366 . S
C128 C132 1.385 . S
C129 H104 0.951 . S
C129 C127 1.388 . S
C129 C130 1.366 . S
C130 C129 1.366 . S
C130 C131 1.414 . S
C130 C133 1.499 . S
C131 H105 0.950 . S
C131 C130 1.414 . S
C131 C132 1.374 . S
C132 H106 0.950 . S
C132 C128 1.385 . S
C132 C131 1.374 . S
C133 C130 1.499 . S
C133 C134 1.373 . S
C133 C135 1.389 . S
C134 H107 0.950 . S
C134 C120 1.377 . S
C134 C133 1.373 . S
C135 C119 1.377 . S
C135 C133 1.389 . S
C135 C136 1.524 . S
C136 C135 1.524 . S
C136 C137 1.397 . S
C136 C141 1.363 . S
C137 H108 0.950 . S
C137 C136 1.397 . S
C137 C138 1.334 . S
C138 H109 0.950 . S
C138 C137 1.334 . S
C138 C139 1.287 . S
C139 C138 1.287 . S
C139 C140 1.524 . S
C139 H142 0.999 . S
C140 H110 0.950 . S
C140 C139 1.524 . S
C140 C141 1.415 . S
C141 H111 0.950 . S
C141 C136 1.363 . S
C141 C140 1.415 . S
H142 C139 0.999 . S
H143 C124 0.913 . S
H144 C162 0.951 . S
H145 C164 0.951 . S
H146 C166 0.950 . S
H147 C167 0.950 . S
H148 C169 0.950 . S
H149 C172 0.950 . S
H150 C173 0.950 . S
H151 C175 0.950 . S
H152 C176 0.950 . S
H153 C177 0.951 . S
H154 C179 0.951 . S
H155 C181 0.950 . S
H156 C182 0.950 . S
H157 C184 0.950 . S
H158 C187 0.950 . S
H159 C188 0.950 . S
H160 C190 0.950 . S
H161 C191 0.950 . S
C162 H144 0.951 . S
C162 C163 1.366 . S
C162 C164 1.388 . S
C163 C162 1.366 . S
C163 C167 1.385 1_556 S
C164 H145 0.951 . S
C164 C162 1.388 . S
C164 C165 1.366 . S
C165 C164 1.366 . S
C165 C166 1.414 1_556 S
C165 C168 1.499 . S
C166 H146 0.950 . S
C166 C165 1.414 1_554 S
C166 C167 1.374 . S
C167 H147 0.950 . S
C167 C163 1.385 1_554 S
C167 C166 1.374 . S
C168 C165 1.499 . S
C168 C169 1.373 . S
C168 C170 1.389 . S
C169 H148 0.950 . S
C169 C168 1.373 . S
C169 C185 1.377 . S
C170 C168 1.389 . S
C170 C171 1.524 . S
C170 C184 1.377 . S
C171 C170 1.524 . S
C171 C172 1.397 1_556 S
C171 C176 1.363 . S
C172 H149 0.950 . S
C172 C171 1.397 1_554 S
C172 C173 1.334 . S
C173 H150 0.950 . S
C173 C172 1.334 . S
C173 C174 1.287 . S
C174 C173 1.287 . S
C174 C175 1.524 1_554 S
C174 H193 0.913 . S
C175 H151 0.950 . S
C175 C174 1.524 1_556 S
C175 C176 1.415 . S
C176 H152 0.950 . S
C176 C171 1.363 . S
C176 C175 1.415 . S
C177 H153 0.951 . S
C177 C178 1.366 . S
C177 C179 1.388 . S
C178 C177 1.366 . S
C178 C182 1.385 . S
C179 H154 0.951 . S
C179 C177 1.388 . S
C179 C180 1.366 . S
C180 C179 1.366 . S
C180 C181 1.414 . S
C180 C183 1.499 . S
C181 H155 0.950 . S
C181 C180 1.414 . S
C181 C182 1.374 . S
C182 H156 0.950 . S
C182 C178 1.385 . S
C182 C181 1.374 . S
C183 C180 1.499 . S
C183 C184 1.373 . S
C183 C185 1.389 . S
C184 H157 0.950 . S
C184 C170 1.377 . S
C184 C183 1.373 . S
C185 C169 1.377 . S
C185 C183 1.389 . S
C185 C186 1.524 . S
C186 C185 1.524 . S
C186 C187 1.397 . S
C186 C191 1.363 . S
C187 H158 0.950 . S
C187 C186 1.397 . S
C187 C188 1.334 . S
C188 H159 0.950 . S
C188 C187 1.334 . S
C188 C189 1.287 . S
C189 C188 1.287 . S
C189 C190 1.524 . S
C189 H192 0.999 . S
C190 H160 0.950 . S
C190 C189 1.524 . S
C190 C191 1.415 . S
C191 H161 0.950 . S
C191 C186 1.363 . S
C191 C190 1.415 . S
H192 C189 0.999 . S
H193 C174 0.913 . S
H194 C212 0.971 . S
H195 C214 0.951 . S
H196 C216 0.950 . S
H197 C217 0.950 . S
H198 C219 0.950 . S
H199 C222 0.950 . S
H200 C223 0.950 . S
H201 C225 0.950 . S
H202 C226 0.950 . S
H203 C227 0.951 . S
H204 C229 0.951 . S
H205 C231 0.950 . S
H206 C232 0.950 . S
H207 C234 0.950 . S
H208 C237 0.950 . S
H209 C238 0.950 . S
H210 C240 0.950 . S
H211 C241 0.950 . S
C212 H194 0.971 . S
C212 C213 1.366 . S
C212 C214 1.388 . S
C213 C212 1.366 . S
C213 C217 1.385 . S
C214 H195 0.951 . S
C214 C212 1.388 . S
C214 C215 1.366 . S
C215 C214 1.366 . S
C215 C216 1.414 . S
C215 C218 1.499 . S
C216 H196 0.950 . S
C216 C215 1.414 . S
C216 C217 1.374 . S
C217 H197 0.950 . S
C217 C213 1.385 . S
C217 C216 1.374 . S
C218 C215 1.499 . S
C218 C219 1.373 . S
C218 C220 1.389 . S
C219 H198 0.950 . S
C219 C218 1.373 . S
C219 C235 1.377 . S
C220 C218 1.389 . S
C220 C221 1.524 . S
C220 C234 1.377 . S
C221 C220 1.524 . S
C221 C222 1.397 . S
C221 C226 1.363 . S
C222 H199 0.950 . S
C222 C221 1.397 . S
C222 C223 1.334 . S
C223 H200 0.950 . S
C223 C222 1.334 . S
C223 C224 1.287 . S
C224 C223 1.287 . S
C224 C225 1.524 . S
C224 H243 0.913 . S
C225 H201 0.950 . S
C225 C224 1.524 . S
C225 C226 1.415 . S
C226 H202 0.950 . S
C226 C221 1.363 . S
C226 C225 1.415 . S
C227 H203 0.951 . S
C227 C228 1.366 . S
C227 C229 1.388 . S
C228 C227 1.366 . S
C228 C232 1.385 . S
C229 H204 0.951 . S
C229 C227 1.388 . S
C229 C230 1.366 . S
C230 C229 1.366 . S
C230 C231 1.414 . S
C230 C233 1.499 . S
C231 H205 0.950 . S
C231 C230 1.414 . S
C231 C232 1.374 . S
C232 H206 0.950 . S
C232 C228 1.385 . S
C232 C231 1.374 . S
C233 C230 1.499 . S
C233 C234 1.373 . S
C233 C235 1.389 . S
C234 H207 0.950 . S
C234 C220 1.377 . S
C234 C233 1.373 . S
C235 C219 1.377 . S
C235 C233 1.389 . S
C235 C236 1.524 . S
C236 C235 1.524 . S
C236 C237 1.397 . S
C236 C241 1.363 . S
C237 H208 0.950 . S
C237 C236 1.397 . S
C237 C238 1.334 . S
C238 H209 0.950 . S
C238 C237 1.334 . S
C238 C239 1.287 . S
C239 C238 1.287 . S
C239 C240 1.524 . S
C239 H242 0.999 . S
C240 H210 0.950 . S
C240 C239 1.524 . S
C240 C241 1.415 . S
C241 H211 0.950 . S
C241 C236 1.363 . S
C241 C240 1.415 . S
H242 C239 0.999 . S
H243 C224 0.913 . S
H244 C262 0.951 . S
H245 C264 0.951 . S
H246 C266 0.950 . S
H247 C267 0.950 1_455 S
H248 C269 0.950 . S
H249 C272 0.950 . S
H250 C273 0.950 . S
H251 C275 0.950 . S
H252 C276 0.950 . S
H253 C277 0.951 . S
H254 C279 0.951 . S
H255 C281 0.950 . S
H256 C282 0.950 . S
H257 C284 0.950 . S
H258 C287 0.950 . S
H259 C288 0.950 . S
H260 C290 0.950 . S
H261 C291 0.958 . S
C262 H244 0.951 . S
C262 C263 1.366 . S
C262 C264 1.388 . S
C263 C262 1.366 . S
C263 C267 1.385 . S
C264 H245 0.951 . S
C264 C262 1.388 . S
C264 C265 1.366 . S
C265 C264 1.366 . S
C265 C266 1.414 . S
C265 C268 1.499 . S
C266 H246 0.950 . S
C266 C265 1.414 . S
C266 C267 1.374 . S
C267 H247 0.950 1_655 S
C267 C263 1.385 . S
C267 C266 1.374 . S
C268 C265 1.499 . S
C268 C269 1.373 . S
C268 C270 1.389 . S
C269 H248 0.950 . S
C269 C268 1.373 . S
C269 C285 1.377 . S
C270 C268 1.389 . S
C270 C271 1.524 . S
C270 C284 1.377 . S
C271 C270 1.524 . S
C271 C272 1.397 . S
C271 C276 1.363 . S
C272 H249 0.950 . S
C272 C271 1.397 . S
C272 C273 1.334 . S
C273 H250 0.950 . S
C273 C272 1.334 . S
C273 C274 1.287 . S
C274 C273 1.287 . S
C274 C275 1.524 . S
C274 H293 0.913 . S
C275 H251 0.950 . S
C275 C274 1.524 . S
C275 C276 1.415 . S
C276 H252 0.950 . S
C276 C271 1.363 . S
C276 C275 1.415 . S
C277 H253 0.951 . S
C277 C278 1.366 . S
C277 C279 1.388 . S
C278 C277 1.366 . S
C278 C282 1.385 . S
C279 H254 0.951 . S
C279 C277 1.388 . S
C279 C280 1.366 . S
C280 C279 1.366 . S
C280 C281 1.414 . S
C280 C283 1.499 . S
C281 H255 0.950 . S
C281 C280 1.414 . S
C281 C282 1.374 . S
C282 H256 0.950 . S
C282 C278 1.385 . S
C282 C281 1.374 . S
C283 C280 1.499 . S
C283 C284 1.373 . S
C283 C285 1.389 . S
C284 H257 0.950 . S
C284 C270 1.377 . S
C284 C283 1.373 . S
C285 C269 1.377 . S
C285 C283 1.389 . S
C285 C286 1.524 . S
C286 C285 1.524 . S
C286 C287 1.397 1_556 S
C286 C291 1.364 . S
C287 H258 0.950 . S
C287 C286 1.397 1_554 S
C287 C288 1.334 . S
C288 H259 0.950 . S
C288 C287 1.334 . S
C288 C289 1.287 . S
C289 C288 1.287 . S
C289 C290 1.524 . S
C289 H292 0.999 . S
C290 H260 0.950 . S
C290 C289 1.524 . S
C290 C291 1.406 1_554 S
C291 H261 0.958 . S
C291 C286 1.364 . S
C291 C290 1.406 1_556 S
H292 C289 0.999 . S
H293 C274 0.913 . S
H294 C312 0.951 . S
H295 C314 0.951 . S
H296 C316 0.950 . S
H297 C317 0.950 . S
H298 C319 0.950 . S
H299 C322 0.950 . S
H300 C323 0.950 . S
H301 C325 0.950 . S
H302 C326 0.950 . S
H303 C327 0.951 . S
H304 C329 0.951 . S
H305 C331 0.950 . S
H306 C332 0.950 . S
H307 C334 0.950 . S
H308 C337 0.950 . S
H309 C338 0.950 . S
H310 C340 0.950 . S
H311 C341 0.950 . S
C312 H294 0.951 . S
C312 C313 1.366 . S
C312 C314 1.388 . S
C313 C312 1.366 . S
C313 C317 1.385 . S
C314 H295 0.951 . S
C314 C312 1.388 . S
C314 C315 1.366 . S
C315 C314 1.366 . S
C315 C316 1.414 . S
C315 C318 1.499 . S
C316 H296 0.950 . S
C316 C315 1.414 . S
C316 C317 1.374 . S
C317 H297 0.950 . S
C317 C313 1.385 . S
C317 C316 1.374 . S
C318 C315 1.499 . S
C318 C319 1.373 . S
C318 C320 1.389 . S
C319 H298 0.950 . S
C319 C318 1.373 . S
C319 C335 1.377 . S
C320 C318 1.389 . S
C320 C321 1.524 . S
C320 C334 1.377 . S
C321 C320 1.524 . S
C321 C322 1.397 . S
C321 C326 1.363 . S
C322 H299 0.950 . S
C322 C321 1.397 . S
C322 C323 1.334 . S
C323 H300 0.950 . S
C323 C322 1.334 . S
C323 C324 1.287 . S
C324 C323 1.287 . S
C324 C325 1.524 . S
C324 H343 0.913 . S
C325 H301 0.950 . S
C325 C324 1.524 . S
C325 C326 1.415 . S
C326 H302 0.950 . S
C326 C321 1.363 . S
C326 C325 1.415 . S
C327 H303 0.951 . S
C327 C328 1.366 . S
C327 C329 1.388 . S
C328 C327 1.366 . S
C328 C332 1.385 . S
C329 H304 0.951 . S
C329 C327 1.388 . S
C329 C330 1.366 . S
C330 C329 1.366 . S
C330 C331 1.414 . S
C330 C333 1.499 . S
C331 H305 0.950 . S
C331 C330 1.414 . S
C331 C332 1.374 . S
C332 H306 0.950 . S
C332 C328 1.385 . S
C332 C331 1.374 . S
C333 C330 1.499 . S
C333 C334 1.373 . S
C333 C335 1.389 . S
C334 H307 0.950 . S
C334 C320 1.377 . S
C334 C333 1.373 . S
C335 C319 1.377 . S
C335 C333 1.389 . S
C335 C336 1.524 . S
C336 C335 1.524 . S
C336 C337 1.397 . S
C336 C341 1.363 . S
C337 H308 0.950 . S
C337 C336 1.397 . S
C337 C338 1.334 . S
C338 H309 0.950 . S
C338 C337 1.334 . S
C338 C339 1.287 . S
C339 C338 1.287 . S
C339 C340 1.524 . S
C339 H342 0.999 . S
C340 H310 0.950 . S
C340 C339 1.524 . S
C340 C341 1.415 . S
C341 H311 0.950 . S
C341 C336 1.363 . S
C341 C340 1.415 . S
H342 C339 0.999 . S
H343 C324 0.913 . S
H344 C362 0.951 . S
H345 C364 0.951 . S
H346 C366 0.950 . S
H347 C367 0.950 . S
H348 C369 0.950 . S
H349 C372 0.950 . S
H350 C373 0.950 . S
H351 C375 0.950 . S
H352 C376 0.950 . S
H353 C377 0.951 1_455 S
H354 C379 0.951 . S
H355 C381 0.950 . S
H356 C382 0.950 . S
H357 C384 0.950 . S
H358 C387 0.950 . S
H359 C388 0.950 . S
H360 C390 0.950 . S
H361 C391 0.950 . S
C362 H344 0.951 . S
C362 C363 1.366 . S
C362 C364 1.388 . S
C363 C362 1.366 . S
C363 C367 1.385 . S
C364 H345 0.951 . S
C364 C362 1.388 . S
C364 C365 1.366 . S
C365 C364 1.366 . S
C365 C366 1.414 . S
C365 C368 1.499 . S
C366 H346 0.950 . S
C366 C365 1.414 . S
C366 C367 1.374 . S
C367 H347 0.950 . S
C367 C363 1.385 . S
C367 C366 1.374 . S
C368 C365 1.499 . S
C368 C369 1.373 . S
C368 C370 1.389 . S
C369 H348 0.950 . S
C369 C368 1.373 . S
C369 C385 1.377 . S
C370 C368 1.389 . S
C370 C371 1.524 . S
C370 C384 1.377 . S
C371 C370 1.524 . S
C371 C372 1.397 . S
C371 C376 1.363 . S
C372 H349 0.950 . S
C372 C371 1.397 . S
C372 C373 1.334 . S
C373 H350 0.950 . S
C373 C372 1.334 . S
C373 C374 1.287 . S
C374 C373 1.287 . S
C374 C375 1.524 . S
C374 H393 0.913 . S
C375 H351 0.950 . S
C375 C374 1.524 . S
C375 C376 1.415 . S
C376 H352 0.950 . S
C376 C371 1.363 . S
C376 C375 1.415 . S
C377 H353 0.951 1_655 S
C377 C378 1.366 . S
C377 C379 1.388 . S
C378 C377 1.366 . S
C378 C382 1.385 . S
C379 H354 0.951 . S
C379 C377 1.388 . S
C379 C380 1.366 . S
C380 C379 1.366 . S
C380 C381 1.414 . S
C380 C383 1.499 . S
C381 H355 0.950 . S
C381 C380 1.414 . S
C381 C382 1.374 . S
C382 H356 0.950 . S
C382 C378 1.385 . S
C382 C381 1.374 . S
C383 C380 1.499 . S
C383 C384 1.373 . S
C383 C385 1.389 . S
C384 H357 0.950 . S
C384 C370 1.377 . S
C384 C383 1.373 . S
C385 C369 1.377 . S
C385 C383 1.389 . S
C385 C386 1.524 . S
C386 C385 1.524 . S
C386 C387 1.397 . S
C386 C391 1.363 . S
C387 H358 0.950 . S
C387 C386 1.397 . S
C387 C388 1.334 . S
C388 H359 0.950 . S
C388 C387 1.334 . S
C388 C389 1.287 . S
C389 C388 1.287 . S
C389 C390 1.524 . S
C389 H392 0.999 . S
C390 H360 0.950 . S
C390 C389 1.524 . S
C390 C391 1.415 . S
C391 H361 0.950 . S
C391 C386 1.363 . S
C391 C390 1.415 . S
H392 C389 0.999 . S
H393 C374 0.913 . S
H394 C412 0.951 . S
H395 C414 0.951 . S
H396 C416 0.950 . S
H397 C417 0.950 . S
H398 C419 0.950 . S
H399 C422 0.950 . S
H400 C423 0.950 . S
H401 C425 0.950 . S
H402 C426 0.950 . S
H403 C427 0.951 . S
H404 C429 0.951 . S
H405 C431 0.950 . S
H406 C432 0.950 . S
H407 C434 0.950 . S
H408 C437 0.950 . S
H409 C438 0.950 . S
H410 C440 0.950 . S
H411 C441 0.950 . S
C412 H394 0.951 . S
C412 C413 1.366 . S
C412 C414 1.388 . S
C413 C412 1.366 . S
C413 C417 1.385 . S
C414 H395 0.951 . S
C414 C412 1.388 . S
C414 C415 1.366 . S
C415 C414 1.366 . S
C415 C416 1.414 . S
C415 C418 1.499 . S
C416 H396 0.950 . S
C416 C415 1.414 . S
C416 C417 1.374 . S
C417 H397 0.950 . S
C417 C413 1.385 . S
C417 C416 1.374 . S
C418 C415 1.499 . S
C418 C419 1.373 . S
C418 C420 1.389 . S
C419 H398 0.950 . S
C419 C418 1.373 . S
C419 C435 1.377 . S
C420 C418 1.389 . S
C420 C421 1.524 . S
C420 C434 1.377 . S
C421 C420 1.524 . S
C421 C422 1.397 . S
C421 C426 1.363 . S
C422 H399 0.950 . S
C422 C421 1.397 . S
C422 C423 1.334 . S
C423 H400 0.950 . S
C423 C422 1.334 . S
C423 C424 1.287 . S
C424 C423 1.287 . S
C424 C425 1.524 . S
C424 H443 0.913 . S
C425 H401 0.950 . S
C425 C424 1.524 . S
C425 C426 1.415 . S
C426 H402 0.950 . S
C426 C421 1.363 . S
C426 C425 1.415 . S
C427 H403 0.951 . S
C427 C428 1.366 . S
C427 C429 1.388 . S
C428 C427 1.366 . S
C428 C432 1.385 . S
C429 H404 0.951 . S
C429 C427 1.388 . S
C429 C430 1.366 . S
C430 C429 1.366 . S
C430 C431 1.414 . S
C430 C433 1.499 . S
C431 H405 0.950 . S
C431 C430 1.414 . S
C431 C432 1.374 . S
C432 H406 0.950 . S
C432 C428 1.385 . S
C432 C431 1.374 . S
C433 C430 1.499 . S
C433 C434 1.373 . S
C433 C435 1.389 . S
C434 H407 0.950 . S
C434 C420 1.377 . S
C434 C433 1.373 . S
C435 C419 1.377 . S
C435 C433 1.389 . S
C435 C436 1.524 . S
C436 C435 1.524 . S
C436 C437 1.397 . S
C436 C441 1.363 . S
C437 H408 0.950 . S
C437 C436 1.397 . S
C437 C438 1.334 . S
C438 H409 0.950 . S
C438 C437 1.334 . S
C438 C439 1.287 . S
C439 C438 1.287 . S
C439 C440 1.524 . S
C439 H442 0.999 . S
C440 H410 0.950 . S
C440 C439 1.524 . S
C440 C441 1.415 . S
C441 H411 0.950 . S
C441 C436 1.363 . S
C441 C440 1.415 . S
H442 C439 0.999 . S
H443 C424 0.913 . S
H444 C462 0.951 . S
H445 C464 0.951 . S
H446 C466 0.950 . S
H447 C467 0.950 . S
H448 C469 0.950 . S
H449 C472 0.950 . S
H450 C473 0.950 . S
H451 C475 0.950 . S
H452 C476 0.950 . S
H453 C477 0.951 . S
H454 C479 0.951 . S
H455 C481 0.950 . S
H456 C482 0.950 . S
H457 C484 0.950 . S
H458 C487 0.950 . S
H459 C488 0.950 . S
H460 C490 0.950 . S
H461 C491 0.950 . S
C462 H444 0.951 . S
C462 C463 1.366 . S
C462 C464 1.388 . S
C463 C462 1.366 . S
C463 C467 1.385 . S
C464 H445 0.951 . S
C464 C462 1.388 . S
C464 C465 1.366 . S
C465 C464 1.366 . S
C465 C466 1.414 . S
C465 C468 1.499 . S
C466 H446 0.950 . S
C466 C465 1.414 . S
C466 C467 1.374 . S
C467 H447 0.950 . S
C467 C463 1.385 . S
C467 C466 1.374 . S
C468 C465 1.499 . S
C468 C469 1.373 . S
C468 C470 1.389 . S
C469 H448 0.950 . S
C469 C468 1.373 . S
C469 C485 1.377 . S
C470 C468 1.389 . S
C470 C471 1.524 . S
C470 C484 1.377 . S
C471 C470 1.524 . S
C471 C472 1.397 . S
C471 C476 1.363 . S
C472 H449 0.950 . S
C472 C471 1.397 . S
C472 C473 1.334 . S
C473 H450 0.950 . S
C473 C472 1.334 . S
C473 C474 1.287 . S
C474 C473 1.287 . S
C474 C475 1.524 . S
C474 H493 0.913 . S
C475 H451 0.950 . S
C475 C474 1.524 . S
C475 C476 1.415 . S
C476 H452 0.950 . S
C476 C471 1.363 . S
C476 C475 1.415 . S
C477 H453 0.951 . S
C477 C478 1.366 . S
C477 C479 1.388 . S
C478 C477 1.366 . S
C478 C482 1.385 . S
C479 H454 0.951 . S
C479 C477 1.388 . S
C479 C480 1.366 . S
C480 C479 1.366 . S
C480 C481 1.414 . S
C480 C483 1.499 . S
C481 H455 0.950 . S
C481 C480 1.414 . S
C481 C482 1.374 . S
C482 H456 0.950 . S
C482 C478 1.385 . S
C482 C481 1.374 . S
C483 C480 1.499 . S
C483 C484 1.373 . S
C483 C485 1.389 . S
C484 H457 0.950 . S
C484 C470 1.377 . S
C484 C483 1.373 . S
C485 C469 1.377 . S
C485 C483 1.389 . S
C485 C486 1.524 . S
C486 C485 1.524 . S
C486 C487 1.397 . S
C486 C491 1.363 . S
C487 H458 0.950 . S
C487 C486 1.397 . S
C487 C488 1.334 . S
C488 H459 0.950 . S
C488 C487 1.334 . S
C488 C489 1.287 . S
C489 C488 1.287 . S
C489 C490 1.524 . S
C489 H492 0.999 . S
C490 H460 0.950 . S
C490 C489 1.524 . S
C490 C491 1.415 . S
C491 H461 0.950 . S
C491 C486 1.363 . S
C491 C490 1.415 . S
H492 C489 0.999 . S
H493 C474 0.913 . S
H494 C512 0.951 . S
H495 C514 0.951 . S
H496 C516 0.950 . S
H497 C517 0.950 . S
H498 C519 0.950 . S
H499 C522 0.950 . S
H500 C523 0.950 . S
H501 C525 0.950 . S
H502 C526 0.950 . S
H503 C527 0.951 . S
H504 C529 0.951 . S
H505 C531 0.950 . S
H506 C532 0.950 . S
H507 C534 0.950 . S
H508 C537 0.950 . S
H509 C538 0.950 . S
H510 C540 0.950 . S
H511 C541 0.950 . S
C512 H494 0.951 . S
C512 C513 1.366 1_545 S
C512 C514 1.388 . S
C513 C512 1.366 1_565 S
C513 C517 1.385 . S
C514 H495 0.951 . S
C514 C512 1.388 . S
C514 C515 1.366 1_545 S
C515 C514 1.366 1_565 S
C515 C516 1.414 . S
C515 C518 1.499 . S
C516 H496 0.950 . S
C516 C515 1.414 . S
C516 C517 1.374 . S
C517 H497 0.950 . S
C517 C513 1.385 . S
C517 C516 1.374 . S
C518 C515 1.499 . S
C518 C519 1.373 . S
C518 C520 1.389 1_565 S
C519 H498 0.950 . S
C519 C518 1.373 . S
C519 C535 1.377 . S
C520 C518 1.389 1_545 S
C520 C521 1.524 . S
C520 C534 1.377 . S
C521 C520 1.524 . S
C521 C522 1.397 . S
C521 C526 1.363 . S
C522 H499 0.950 . S
C522 C521 1.397 . S
C522 C523 1.334 . S
C523 H500 0.950 . S
C523 C522 1.334 . S
C523 C524 1.287 . S
C524 C523 1.287 . S
C524 C525 1.524 . S
C524 H543 0.913 . S
C525 H501 0.950 . S
C525 C524 1.524 . S
C525 C526 1.415 . S
C526 H502 0.950 . S
C526 C521 1.363 . S
C526 C525 1.415 . S
C527 H503 0.951 . S
C527 C528 1.366 1_565 S
C527 C529 1.388 . S
C528 C527 1.366 1_545 S
C528 C532 1.385 . S
C529 H504 0.951 . S
C529 C527 1.388 . S
C529 C530 1.366 1_565 S
C530 C529 1.366 1_545 S
C530 C531 1.414 . S
C530 C533 1.499 . S
C531 H505 0.950 . S
C531 C530 1.414 . S
C531 C532 1.374 . S
C532 H506 0.950 . S
C532 C528 1.385 . S
C532 C531 1.374 . S
C533 C530 1.499 . S
C533 C534 1.373 . S
C533 C535 1.389 1_545 S
C534 H507 0.950 . S
C534 C520 1.377 . S
C534 C533 1.373 . S
C535 C519 1.377 . S
C535 C533 1.389 1_565 S
C535 C536 1.524 . S
C536 C535 1.524 . S
C536 C537 1.397 1_455 S
C536 C541 1.363 . S
C537 H508 0.950 . S
C537 C536 1.397 1_655 S
C537 C538 1.334 . S
C538 H509 0.950 . S
C538 C537 1.334 . S
C538 C539 1.287 . S
C539 C538 1.287 . S
C539 C540 1.524 1_655 S
C539 H542 0.999 . S
C540 H510 0.950 . S
C540 C539 1.524 1_455 S
C540 C541 1.415 . S
C541 H511 0.950 . S
C541 C536 1.363 . S
C541 C540 1.415 . S
H542 C539 0.999 . S
H543 C524 0.913 . S
H544 C562 0.951 1_655 S
H545 C564 0.951 1_655 S
H546 C566 0.950 . S
H547 C567 0.950 . S
H548 C569 0.950 . S
H549 C572 0.950 . S
H550 C573 0.950 . S
H551 C575 0.950 . S
H552 C576 0.950 . S
H553 C577 0.951 . S
H554 C579 0.951 . S
H555 C581 0.950 1_565 S
H556 C582 0.950 1_565 S
H557 C584 0.950 . S
H558 C587 0.950 . S
H559 C588 0.950 . S
H560 C590 0.950 . S
H561 C591 0.950 . S
C562 H544 0.951 1_455 S
C562 C563 1.366 . S
C562 C564 1.388 . S
C563 C562 1.366 . S
C563 C567 1.385 1_565 S
C564 H545 0.951 1_455 S
C564 C562 1.388 . S
C564 C565 1.366 1_565 S
C565 C564 1.366 1_545 S
C565 C566 1.414 . S
C565 C568 1.499 . S
C566 H546 0.950 . S
C566 C565 1.414 . S
C566 C567 1.374 . S
C567 H547 0.950 . S
C567 C563 1.385 1_545 S
C567 C566 1.374 . S
C568 C565 1.499 . S
C568 C569 1.373 . S
C568 C570 1.389 1_545 S
C569 H548 0.950 . S
C569 C568 1.373 . S
C569 C585 1.377 . S
C570 C568 1.389 1_565 S
C570 C571 1.524 . S
C570 C584 1.377 . S
C571 C570 1.524 . S
C571 C572 1.397 . S
C571 C576 1.363 1_455 S
C572 H549 0.950 . S
C572 C571 1.397 . S
C572 C573 1.334 . S
C573 H550 0.950 . S
C573 C572 1.334 . S
C573 C574 1.287 . S
C574 C573 1.287 . S
C574 C575 1.524 1_455 S
C574 H593 0.913 . S
C575 H551 0.950 . S
C575 C574 1.524 1_655 S
C575 C576 1.415 . S
C576 H552 0.950 . S
C576 C571 1.363 1_655 S
C576 C575 1.415 . S
C577 H553 0.951 . S
C577 C578 1.366 . S
C577 C579 1.388 . S
C578 C577 1.366 . S
C578 C582 1.385 1_455 S
C579 H554 0.951 . S
C579 C577 1.388 . S
C579 C580 1.366 . S
C580 C579 1.366 . S
C580 C581 1.414 1_455 S
C580 C583 1.499 . S
C581 H555 0.950 1_545 S
C581 C580 1.414 1_655 S
C581 C582 1.374 . S
C582 H556 0.950 1_545 S
C582 C578 1.385 1_655 S
C582 C581 1.374 . S
C583 C580 1.499 . S
C583 C584 1.373 1_545 S
C583 C585 1.389 . S
C584 H557 0.950 . S
C584 C570 1.377 . S
C584 C583 1.373 1_565 S
C585 C569 1.377 . S
C585 C583 1.389 . S
C585 C586 1.524 . S
C586 C585 1.524 . S
C586 C587 1.397 1_455 S
C586 C591 1.363 . S
C587 H558 0.950 . S
C587 C586 1.397 1_655 S
C587 C588 1.334 . S
C588 H559 0.950 . S
C588 C587 1.334 . S
C588 C589 1.287 1_655 S
C589 C588 1.287 1_455 S
C589 C590 1.524 . S
C589 H592 0.999 . S
C590 H560 0.950 . S
C590 C589 1.524 . S
C590 C591 1.415 . S
C591 H561 0.950 . S
C591 C586 1.363 . S
C591 C590 1.415 . S
H592 C589 0.999 . S
H593 C574 0.913 . S
H594 C612 0.951 . S
H595 C614 0.951 . S
H596 C616 0.950 . S
H597 C617 0.950 . S
H598 C619 0.950 . S
H599 C622 0.950 . S
H600 C623 0.950 . S
H601 C625 0.950 . S
H602 C626 0.950 . S
H603 C627 0.951 . S
H604 C629 0.951 . S
H605 C631 0.950 . S
H606 C632 0.950 . S
H607 C634 0.950 . S
H608 C637 0.950 . S
H609 C638 0.950 . S
H610 C640 0.950 . S
H611 C641 0.950 . S
C612 H594 0.951 . S
C612 C613 1.366 . S
C612 C614 1.388 . S
C613 C612 1.366 . S
C613 C617 1.385 . S
C614 H595 0.951 . S
C614 C612 1.388 . S
C614 C615 1.366 . S
C615 C614 1.366 . S
C615 C616 1.414 . S
C615 C618 1.499 . S
C616 H596 0.950 . S
C616 C615 1.414 . S
C616 C617 1.374 . S
C617 H597 0.950 . S
C617 C613 1.385 . S
C617 C616 1.374 . S
C618 C615 1.499 . S
C618 C619 1.373 . S
C618 C620 1.389 . S
C619 H598 0.950 . S
C619 C618 1.373 . S
C619 C635 1.377 . S
C620 C618 1.389 . S
C620 C621 1.524 . S
C620 C634 1.377 . S
C621 C620 1.524 . S
C621 C622 1.397 . S
C621 C626 1.363 . S
C622 H599 0.950 . S
C622 C621 1.397 . S
C622 C623 1.334 . S
C623 H600 0.950 . S
C623 C622 1.334 . S
C623 C624 1.287 . S
C624 C623 1.287 . S
C624 C625 1.524 . S
C624 H643 0.913 . S
C625 H601 0.950 . S
C625 C624 1.524 . S
C625 C626 1.415 . S
C626 H602 0.950 . S
C626 C621 1.363 . S
C626 C625 1.415 . S
C627 H603 0.951 . S
C627 C628 1.366 . S
C627 C629 1.388 . S
C628 C627 1.366 . S
C628 C632 1.385 . S
C629 H604 0.951 . S
C629 C627 1.388 . S
C629 C630 1.366 . S
C630 C629 1.366 . S
C630 C631 1.414 . S
C630 C633 1.499 . S
C631 H605 0.950 . S
C631 C630 1.414 . S
C631 C632 1.374 . S
C632 H606 0.950 . S
C632 C628 1.385 . S
C632 C631 1.374 . S
C633 C630 1.499 . S
C633 C634 1.373 . S
C633 C635 1.389 . S
C634 H607 0.950 . S
C634 C620 1.377 . S
C634 C633 1.373 . S
C635 C619 1.377 . S
C635 C633 1.389 . S
C635 C636 1.524 . S
C636 C635 1.524 . S
C636 C637 1.397 . S
C636 C641 1.363 . S
C637 H608 0.950 . S
C637 C636 1.397 . S
C637 C638 1.334 . S
C638 H609 0.950 . S
C638 C637 1.334 . S
C638 C639 1.287 . S
C639 C638 1.287 . S
C639 C640 1.524 . S
C639 H642 0.999 . S
C640 H610 0.950 . S
C640 C639 1.524 . S
C640 C641 1.415 . S
C641 H611 0.950 . S
C641 C636 1.363 . S
C641 C640 1.415 . S
H642 C639 0.999 . S
H643 C624 0.913 . S
H644 C662 0.951 . S
H645 C664 0.951 . S
H646 C666 0.950 . S
H647 C667 0.950 . S
H648 C669 0.950 . S
H649 C672 0.950 . S
H650 C673 0.950 . S
H651 C675 0.950 . S
H652 C676 0.950 . S
H653 C677 0.951 . S
H654 C679 0.951 . S
H655 C681 0.950 . S
H656 C682 0.950 . S
H657 C684 0.950 . S
H658 C687 0.950 . S
H659 C688 0.950 . S
H660 C690 0.950 . S
H661 C691 0.950 . S
C662 H644 0.951 . S
C662 C663 1.366 . S
C662 C664 1.388 . S
C663 C662 1.366 . S
C663 C667 1.385 . S
C664 H645 0.951 . S
C664 C662 1.388 . S
C664 C665 1.366 . S
C665 C664 1.366 . S
C665 C666 1.414 . S
C665 C668 1.499 . S
C666 H646 0.950 . S
C666 C665 1.414 . S
C666 C667 1.374 . S
C667 H647 0.950 . S
C667 C663 1.385 . S
C667 C666 1.374 . S
C668 C665 1.499 . S
C668 C669 1.373 . S
C668 C670 1.389 . S
C669 H648 0.950 . S
C669 C668 1.373 . S
C669 C685 1.377 . S
C670 C668 1.389 . S
C670 C671 1.524 . S
C670 C684 1.377 . S
C671 C670 1.524 . S
C671 C672 1.397 . S
C671 C676 1.363 . S
C672 H649 0.950 . S
C672 C671 1.397 . S
C672 C673 1.334 . S
C673 H650 0.950 . S
C673 C672 1.334 . S
C673 C674 1.287 . S
C674 C673 1.287 . S
C674 C675 1.524 . S
C674 H693 0.913 . S
C675 H651 0.950 . S
C675 C674 1.524 . S
C675 C676 1.415 . S
C676 H652 0.950 . S
C676 C671 1.363 . S
C676 C675 1.415 . S
C677 H653 0.951 . S
C677 C678 1.366 . S
C677 C679 1.388 . S
C678 C677 1.366 . S
C678 C682 1.385 . S
C679 H654 0.951 . S
C679 C677 1.388 . S
C679 C680 1.366 . S
C680 C679 1.366 . S
C680 C681 1.414 . S
C680 C683 1.499 . S
C681 H655 0.950 . S
C681 C680 1.414 . S
C681 C682 1.374 . S
C682 H656 0.950 . S
C682 C678 1.385 . S
C682 C681 1.374 . S
C683 C680 1.499 . S
C683 C684 1.373 . S
C683 C685 1.389 . S
C684 H657 0.950 . S
C684 C670 1.377 . S
C684 C683 1.373 . S
C685 C669 1.377 . S
C685 C683 1.389 . S
C685 C686 1.524 . S
C686 C685 1.524 . S
C686 C687 1.397 . S
C686 C691 1.363 . S
C687 H658 0.950 . S
C687 C686 1.397 . S
C687 C688 1.334 . S
C688 H659 0.950 . S
C688 C687 1.334 . S
C688 C689 1.287 . S
C689 C688 1.287 . S
C689 C690 1.524 . S
C689 H692 0.999 . S
C690 H660 0.950 . S
C690 C689 1.524 . S
C690 C691 1.415 . S
C691 H661 0.950 . S
C691 C686 1.363 . S
C691 C690 1.415 . S
H692 C689 0.999 . S
H693 C674 0.913 . S
C128 C85 1.101 . S
C113 C3 1.057 . S
C163 C4 1.453 1_556 S
C178 C72 1.443 . S
C213 C19 1.591 . S
C228 C89 1.716 . S
C263 C7 1.150 . S
C278 C76 1.285 . S
C313 C37 1.057 . S
C328 C59 1.099 . S
C363 C28 1.454 . S
C378 C46 1.443 . S
C428 C63 1.716 . S
C413 C41 1.591 . S
C478 C50 1.286 . S
C463 C25 1.148 . S
C513 C20 1.326 . S
C528 C51 1.480 . S
C563 C16 1.360 . S
C578 C64 1.508 . S
C628 C77 1.480 . S
C613 C40 1.324 . S
C663 C24 1.361 . S
C678 C90 1.508 . S
