# Generated by pormake.
# Topology rtl, (3,6)-cn, num edge types: 1
# Building blocks:
#     Node 0, Type 0, BuildingBlock: INOVEN_clean_linker_0, # of connection points: 3
#     Node 1, Type 0, BuildingBlock: INOVEN_clean_linker_0, # of connection points: 3
#     Node 2, Type 0, BuildingBlock: INOVEN_clean_linker_0, # of connection points: 3
#     Node 3, Type 0, BuildingBlock: INOVEN_clean_linker_0, # of connection points: 3
#     Node 4, Type 1, BuildingBlock: LEVNOQ01_clean_sbu_1, # of connection points: 6
#     Node 5, Type 1, BuildingBlock: LEVNOQ01_clean_sbu_1, # of connection points: 6
#     Edge 6, Type (0, 1), BuildingBlock: XIVTED_clean_linker_0, # of connection points: 2
#     Edge 7, Type (0, 1), BuildingBlock: XIVTED_clean_linker_0, # of connection points: 2
#     Edge 8, Type (0, 1), BuildingBlock: XIVTED_clean_linker_0, # of connection points: 2
#     Edge 9, Type (0, 1), BuildingBlock: XIVTED_clean_linker_0, # of connection points: 2
#     Edge 10, Type (0, 1), BuildingBlock: XIVTED_clean_linker_0, # of connection points: 2
#     Edge 11, Type (0, 1), BuildingBlock: XIVTED_clean_linker_0, # of connection points: 2
#     Edge 12, Type (0, 1), BuildingBlock: XIVTED_clean_linker_0, # of connection points: 2
#     Edge 13, Type (0, 1), BuildingBlock: XIVTED_clean_linker_0, # of connection points: 2
#     Edge 14, Type (0, 1), BuildingBlock: XIVTED_clean_linker_0, # of connection points: 2
#     Edge 15, Type (0, 1), BuildingBlock: XIVTED_clean_linker_0, # of connection points: 2
#     Edge 16, Type (0, 1), BuildingBlock: XIVTED_clean_linker_0, # of connection points: 2
#     Edge 17, Type (0, 1), BuildingBlock: XIVTED_clean_linker_0, # of connection points: 2
# Relax obj value: 0.015
# Max RMSD: 0.114
# Mean RMSD: 0.083
data_MOF--net-rtl--node1-LEVNOQ01_clean_sbu_1--node2-INOVEN_clean_linker_0--edge1-XIVTED_clean_linker_0
_symmetry_space_group_name_H-M    P1
_symmetry_Int_Tables_number       1
_symmetry_cell_setting            triclinic
loop_
_symmetry_equiv_pos_as_xyz
'x, y, z'
_cell_length_a     35.527229
_cell_length_b     36.100296
_cell_length_c     22.290554
_cell_angle_alpha  91.281776
_cell_angle_beta   99.9152
_cell_angle_gamma 89.396708
loop_
_atom_site_label
_atom_site_type_symbol
_atom_site_fract_x
_atom_site_fract_y
_atom_site_fract_z
_atom_type_partial_charge
H0 H 0.21964 0.79887 0.985 0.0
H1 H 0.16209 0.88978 0.05834 0.0
H2 H 0.22195 0.80847 0.17828 0.0
N3 N 0.24799 0.76876 0.0899 0.0
N4 N 0.27147 0.76325 0.13738 0.0
C5 C 0.21128 0.81345 0.02372 0.0
C6 C 0.18927 0.84588 0.01497 0.0
C7 C 0.22429 0.80075 0.08273 0.0
C8 C 0.21326 0.81946 0.13318 0.0
C9 C 0.18966 0.85116 0.12482 0.0
C10 C 0.17894 0.86458 0.06558 0.0
H11 H 0.71324 0.71539 0.69995 0.0
H12 H 0.63368 0.64784 0.5777 0.0
H13 H 0.69749 0.73258 0.50751 0.0
N14 N 0.73763 0.75408 0.61641 0.0
N15 N 0.75565 0.76276 0.57564 0.0
C16 C 0.6988 0.7082 0.65436 0.0
C17 C 0.67206 0.67934 0.64504 0.0
C18 C 0.70848 0.72697 0.60513 0.0
C19 C 0.69049 0.71752 0.54558 0.0
C20 C 0.6632 0.68913 0.53509 0.0
C21 C 0.65438 0.67001 0.58522 0.0
H22 H 0.80481 0.21221 0.87959 0.0
H23 H 0.88079 0.14504 0.00548 0.0
H24 H 0.80769 0.22558 0.07236 0.0
N25 N 0.77382 0.24915 0.96177 0.0
N26 N 0.75 0.25285 0.99653 0.0
C27 C 0.81752 0.20516 0.92569 0.0
C28 C 0.84438 0.1761 0.93617 0.0
C29 C 0.80409 0.223 0.97437 0.0
C30 C 0.81859 0.21258 0.03445 0.0
C31 C 0.84678 0.18497 0.04566 0.0
C32 C 0.85983 0.16716 0.99654 0.0
H33 H 0.28563 0.3187 0.38463 0.0
H34 H 0.3631 0.38363 0.51512 0.0
H35 H 0.29459 0.30102 0.57735 0.0
N36 N 0.25677 0.27987 0.46676 0.0
N37 N 0.24888 0.26106 0.50916 0.0
C38 C 0.2979 0.32595 0.43126 0.0
C39 C 0.32672 0.35299 0.44373 0.0
C40 C 0.28592 0.30715 0.47927 0.0
C41 C 0.30293 0.31572 0.53993 0.0
C42 C 0.33121 0.34273 0.55286 0.0
C43 C 0.34208 0.36183 0.50477 0.0
O44 O 0.98914 0.03404 0.66325 0.0
Mg45 Mg 0.03258 0.03885 0.60998 0.0
O46 O 0.95211 0.02769 0.5753 0.0
Mg47 Mg 0.00014 0.00417 0.52394 0.0
O48 O 0.03407 0.0616 0.52738 0.0
O49 O 0.04566 0.09301 0.61647 0.0
O50 O 0.0461 0.98038 0.4682 0.0
O51 O 0.96549 0.03171 0.43851 0.0
Mg52 Mg 0.96334 0.94418 0.42131 0.0
O53 O 0.9647 0.9518 0.51244 0.0
O54 O 0.01985 0.93441 0.40733 0.0
O55 O 0.93361 -0.01025 0.37576 0.0
O56 O 0.93493 0.90425 0.46097 0.0
C57 C 0.0677 0.97787 0.64269 0.0
C58 C 0.95601 0.03317 0.63246 0.0
C59 C 0.04575 0.09139 0.55878 0.0
C60 C 0.04849 0.95397 0.42975 0.0
C61 C 0.94179 0.02327 0.3905 0.0
C62 C 0.94433 0.92237 0.51175 0.0
O63 O 0.08168 0.0095 0.64019 0.0
O64 O 0.03511 0.97095 0.61023 0.0
O65 O 0.58603 0.52777 0.17088 0.0
Mg66 Mg 0.5616 0.47543 0.15112 0.0
O67 O 0.53364 0.5528 0.11892 0.0
Mg68 Mg 0.50468 0.5101 0.04371 0.0
O69 O 0.55152 0.46533 0.05967 0.0
O70 O 0.59476 0.4337 0.12343 0.0
O71 O 0.47419 0.46909 0.96847 0.0
O72 O 0.54111 0.5365 0.97708 0.0
Mg73 Mg 0.45119 0.55408 0.93384 0.0
O74 O 0.45782 0.55363 0.02595 0.0
O75 O 0.43208 0.50075 0.90291 0.0
O76 O 0.50338 0.57244 0.91206 0.0
O77 O 0.41553 0.59039 0.97121 0.0
C78 C 0.47739 0.46933 0.1635 0.0
C79 C 0.56477 0.55567 0.15706 0.0
C80 C 0.57793 0.44007 0.06859 0.0
C81 C 0.44717 0.47039 0.92261 0.0
C82 C 0.5362 0.55973 0.93391 0.0
C83 C 0.43141 0.57861 0.02374 0.0
O84 O 0.51192 0.46382 0.1882 0.0
O85 O 0.46892 0.48418 0.11135 0.0
H86 H 0.20127 0.23707 0.40487 0.0
H87 H 0.05829 0.16143 0.60355 0.0
H88 H 0.22806 0.22642 0.5997 0.0
H89 H 0.07881 0.08923 0.45536 0.0
H90 H 0.10638 0.20372 0.57982 0.0
H91 H 0.14508 0.19665 0.40333 0.0
C92 C 0.19545 0.22599 0.44704 0.0
C93 C 0.21879 0.23509 0.50292 0.0
C94 C 0.09967 0.179 0.55167 0.0
C95 C 0.15504 0.19058 0.50134 0.0
C96 C 0.07217 0.15492 0.56493 0.0
C97 C 0.06522 0.12133 0.53227 0.0
C98 C 0.12019 0.16972 0.50513 0.0
C99 C 0.08367 0.1147 0.48201 0.0
C100 C 0.1636 0.20311 0.44608 0.0
C101 C 0.2104 0.22005 0.55613 0.0
N102 N 0.11105 0.13847 0.47048 0.0
N103 N 0.17891 0.19901 0.55428 0.0
H104 H 0.25314 0.69559 0.0868 0.0
H105 H 0.46058 0.63696 0.09477 0.0
H106 H 0.34213 0.75721 0.20098 0.0
H107 H 0.36986 0.55708 0.06928 0.0
H108 H 0.42139 0.6786 0.14731 0.0
H109 H 0.29638 0.64246 0.08842 0.0
C110 C 0.2818 0.69768 0.11272 0.0
C111 C 0.29456 0.7308 0.1431 0.0
C112 C 0.41065 0.65132 0.13265 0.0
C113 C 0.34432 0.6704 0.14469 0.0
C114 C 0.43319 0.62744 0.10328 0.0
C115 C 0.41816 0.59379 0.07783 0.0
C116 C 0.3727 0.64159 0.13467 0.0
C117 C 0.38228 0.5829 0.0885 0.0
C118 C 0.30638 0.66729 0.11419 0.0
C119 C 0.33164 0.73204 0.17676 0.0
N120 N 0.36024 0.60719 0.11467 0.0
N121 N 0.35572 0.70254 0.17548 0.0
H122 H 0.81016 0.76667 0.51019 0.0
H123 H 0.88673 0.95252 0.56304 0.0
H124 H 0.769 0.81807 0.66297 0.0
H125 H 0.96603 0.86093 0.57532 0.0
H126 H 0.84128 0.9133 0.6036 0.0
H127 H 0.8642 0.8094 0.5259 0.0
C128 C 0.81275 0.78703 0.54709 0.0
C129 C 0.78577 0.78873 0.5856 0.0
C130 C 0.86948 0.9025 0.60063 0.0
C131 C 0.84677 0.83773 0.60368 0.0
C132 C 0.89553 0.92491 0.57801 0.0
C133 C 0.92969 0.90948 0.56503 0.0
C134 C 0.87795 0.86472 0.60888 0.0
C135 C 0.93967 0.87353 0.58418 0.0
C136 C 0.84355 0.81103 0.55646 0.0
C137 C 0.78977 0.81578 0.63279 0.0
N138 N 0.91329 0.8518 0.60307 0.0
N139 N 0.81965 0.83987 0.64007 0.0
H140 H 0.68834 0.25085 0.04693 0.0
H141 H 0.63245 0.45408 1.00067 0.0
H142 H 0.74222 0.31338 0.92331 0.0
H143 H 0.55062 0.37255 0.03103 0.0
H144 H 0.66995 0.40511 0.95996 0.0
H145 H 0.63592 0.29593 0.03612 0.0
C146 C 0.68869 0.27401 0.01696 0.0
C147 C 0.71924 0.27852 0.98611 0.0
C148 C 0.64295 0.39814 0.97302 0.0
C149 C 0.65997 0.33058 0.9738 0.0
C150 C 0.62137 0.42612 0.99562 0.0
C151 C 0.58863 0.41706 0.01923 0.0
C152 C 0.63198 0.36105 0.976 0.0
C153 C 0.57578 0.38047 0.01311 0.0
C154 C 0.65875 0.29953 0.01028 0.0
C155 C 0.71892 0.309 0.94782 0.0
N156 N 0.59805 0.35354 0.99366 0.0
N157 N 0.68997 0.33441 0.94362 0.0
H158 H 0.11972 0.88444 0.12287 0.0
H159 H 0.101 0.89835 0.45335 0.0
H160 H 0.2246 0.85987 0.2458 0.0
H161 H 0.07133 -0.00635 0.34173 0.0
H162 H 0.14406 0.87702 0.38386 0.0
H163 H 0.09601 0.91685 0.20551 0.0
C164 C 0.1382 0.88627 0.16682 0.0
C165 C 0.17478 0.86988 0.17655 0.0
C166 C 0.12921 0.90329 0.37608 0.0
C167 C 0.14659 0.90591 0.27231 0.0
C168 C 0.10494 0.91556 0.41573 0.0
C169 C 0.08328 0.94807 0.4035 0.0
C170 C 0.13037 0.92302 0.32297 0.0
C171 C 0.08816 0.9688 0.3531 0.0
C172 C 0.12441 0.90471 0.21404 0.0
C173 C 0.19622 0.87183 0.23593 0.0
N174 N 0.11042 0.95541 0.31363 0.0
N175 N 0.18161 0.8892 0.28192 0.0
H176 H 0.66059 0.70922 0.75426 0.0
H177 H 0.5862 0.52098 0.87477 0.0
H178 H 0.66084 0.60458 0.65673 0.0
H179 H 0.55843 0.63076 0.93398 0.0
H180 H 0.62943 0.54832 0.8125 0.0
H181 H 0.63926 0.67764 0.83774 0.0
C182 C 0.65666 0.67949 0.75068 0.0
C183 C 0.66196 0.65965 0.69792 0.0
C184 C 0.61448 0.56629 0.84023 0.0
C185 C 0.63699 0.6233 0.79335 0.0
C186 C 0.59018 0.55071 0.87602 0.0
C187 C 0.56884 0.57384 0.90903 0.0
C188 C 0.61743 0.60507 0.83831 0.0
C189 C 0.57441 0.61215 0.90883 0.0
C190 C 0.6443 0.66149 0.79832 0.0
C191 C 0.65618 0.62112 0.69593 0.0
N192 N 0.59795 0.62658 0.87368 0.0
N193 N 0.64365 0.60422 0.74273 0.0
H194 H 0.91848 0.18583 0.11415 0.0
H195 H 0.8722 0.02318 0.31672 0.0
H196 H 0.80316 0.15068 0.11573 0.0
H197 H 0.97257 0.09022 0.37133 0.0
H198 H 0.84661 0.06972 0.24233 0.0
H199 H 0.93977 0.15223 0.20888 0.0
C200 C 0.89764 0.17157 0.13527 0.0
C201 C 0.85911 0.17085 0.10759 0.0
C202 C 0.87402 0.07451 0.27109 0.0
C203 C 0.88315 0.13169 0.21401 0.0
C204 C 0.88869 0.04787 0.31326 0.0
C205 C 0.92461 0.05282 0.34977 0.0
C206 C 0.89585 0.10586 0.26426 0.0
C207 C 0.94472 0.08544 0.34393 0.0
C208 C 0.9097 0.15246 0.1891 0.0
C209 C 0.83308 0.15195 0.13613 0.0
N210 N 0.93036 0.11049 0.3011 0.0
N211 N 0.84567 0.13252 0.18725 0.0
H212 H 0.40755 0.35086 0.59459 0.0
H213 H 0.37594 0.44209 0.90608 0.0
H214 H 0.2987 0.35193 0.65559 0.0
H215 H 0.48723 0.42439 0.8583 0.0
H216 H 0.34875 0.39902 0.82424 0.0
H217 H 0.43856 0.3693 0.69699 0.0
C218 C 0.3902 0.35482 0.62974 0.0
C219 C 0.35041 0.35056 0.61633 0.0
C220 C 0.37927 0.40372 0.83241 0.0
C221 C 0.38576 0.37141 0.73396 0.0
C222 C 0.39477 0.42807 0.87936 0.0
C223 C 0.43369 0.43662 0.88837 0.0
C224 C 0.40279 0.3889 0.79312 0.0
C225 C 0.45704 0.41821 0.85263 0.0
C226 C 0.40797 0.365 0.68837 0.0
C227 C 0.32943 0.35513 0.6639 0.0
N228 N 0.44106 0.39579 0.80548 0.0
N229 N 0.3473 0.36587 0.72043 0.0
H230 H 0.58817 0.6706 0.49326 0.0
H231 H 0.63171 0.59291 0.17749 0.0
H232 H 0.69607 0.68415 0.43236 0.0
H233 H 0.51903 0.59293 0.22428 0.0
H234 H 0.65278 0.63561 0.26296 0.0
H235 H 0.55994 0.64911 0.39071 0.0
C236 C 0.60591 0.66922 0.45832 0.0
C237 C 0.64474 0.67879 0.47184 0.0
C238 C 0.6232 0.62702 0.25398 0.0
C239 C 0.6124 0.65466 0.35396 0.0
C240 C 0.61115 0.60293 0.20486 0.0
C241 C 0.57372 0.58953 0.19423 0.0
C242 C 0.59791 0.63675 0.29387 0.0
C243 C 0.54812 0.60295 0.23101 0.0
C244 C 0.58965 0.65731 0.39957 0.0
C245 C 0.66603 0.67722 0.42425 0.0
N246 N 0.56093 0.62518 0.28025 0.0
N247 N 0.64971 0.66499 0.36777 0.0
H248 H 0.85591 0.19816 0.82328 0.0
H249 H 0.93446 0.00362 0.73193 0.0
H250 H 0.85258 0.10063 0.93081 0.0
H251 H 0.90815 0.09178 0.60413 0.0
H252 H 0.89804 0.03603 0.80094 0.0
H253 H 0.87083 0.15875 0.73965 0.0
C254 C 0.85808 0.16848 0.82922 0.0
C255 C 0.85355 0.15282 0.8846 0.0
C256 C 0.89937 0.04797 0.75722 0.0
C257 C 0.87067 0.10751 0.78903 0.0
C258 C 0.91984 0.02928 0.71768 0.0
C259 C 0.92419 0.0452 0.66258 0.0
C260 C 0.88431 0.08339 0.74228 0.0
C261 C 0.90514 0.07859 0.64618 0.0
C262 C 0.86648 0.14596 0.78138 0.0
C263 C 0.85688 0.11412 0.88968 0.0
N264 N 0.88676 0.09711 0.68659 0.0
N265 N 0.86555 0.0929 0.8428 0.0
H266 H 0.29062 0.37941 0.33159 0.0
H267 H 0.47974 0.4808 0.28361 0.0
H268 H 0.4017 0.36641 0.44364 0.0
H269 H 0.40729 0.43584 0.12398 0.0
H270 H 0.43697 0.45596 0.34691 0.0
H271 H 0.32127 0.4128 0.25701 0.0
C272 C 0.32126 0.38336 0.34044 0.0
C273 C 0.34349 0.37071 0.39471 0.0
C274 C 0.43017 0.45177 0.29797 0.0
C275 C 0.37804 0.40926 0.31111 0.0
C276 C 0.45452 0.46594 0.26185 0.0
C277 C 0.44742 0.45964 0.19874 0.0
C278 C 0.39857 0.43066 0.27115 0.0
C279 C 0.41381 0.44095 0.17269 0.0
C280 C 0.33857 0.4025 0.29813 0.0
C281 C 0.38308 0.37661 0.40372 0.0
N282 N 0.39075 0.42641 0.20926 0.0
N283 N 0.39884 0.39571 0.36295 0.0
H284 H 0.19865 0.91625 0.98187 0.0
H285 H 0.07119 0.90081 0.6486 0.0
H286 H 0.15245 0.81131 0.90955 0.0
H287 H 0.10369 0.00142 0.75192 0.0
H288 H 0.10489 0.8648 0.7355 0.0
H289 H 0.17061 0.94534 0.8876 0.0
C290 C 0.18274 0.89928 0.94565 0.0
C291 C 0.17727 0.86154 0.95377 0.0
C292 C 0.10447 0.89477 0.73863 0.0
C293 C 0.14435 0.89476 0.84518 0.0
C294 C 0.08523 0.91518 0.68939 0.0
C295 C 0.08532 0.95407 0.69285 0.0
C296 C 0.12334 0.91372 0.79102 0.0
C297 C 0.10367 0.97152 0.74655 0.0
C298 C 0.16655 0.91588 0.89174 0.0
C299 C 0.15703 0.84063 0.90492 0.0
N300 N 0.12181 0.95131 0.79309 0.0
N301 N 0.14077 0.85764 0.85261 0.0
loop_
_geom_bond_atom_site_label_1
_geom_bond_atom_site_label_2
_geom_bond_distance
_geom_bond_site_symmetry_2
_ccdc_geom_bond_type
H0 C5 0.929 1_556 S
H1 C10 0.931 . S
H2 C8 0.930 . S
N3 N4 1.234 . S
N3 C7 1.453 . S
N4 N3 1.234 . S
C5 H0 0.929 1_554 S
C5 C6 1.373 . S
C5 C7 1.368 . S
C6 C5 1.373 . S
C6 C10 1.397 . S
C7 N3 1.453 . S
C7 C5 1.368 . S
C7 C8 1.373 . S
C8 H2 0.930 . S
C8 C7 1.373 . S
C8 C9 1.371 . S
C9 C8 1.371 . S
C9 C10 1.383 . S
C10 H1 0.931 . S
C10 C6 1.397 . S
C10 C9 1.383 . S
H11 C16 0.929 . S
H12 C21 0.931 . S
H13 C19 0.930 . S
N14 N15 1.234 . S
N14 C18 1.453 . S
N15 N14 1.234 . S
C16 H11 0.929 . S
C16 C17 1.373 . S
C16 C18 1.368 . S
C17 C16 1.373 . S
C17 C21 1.397 . S
C18 N14 1.453 . S
C18 C16 1.368 . S
C18 C19 1.373 . S
C19 H13 0.930 . S
C19 C18 1.373 . S
C19 C20 1.371 . S
C20 C19 1.371 . S
C20 C21 1.383 . S
C21 H12 0.931 . S
C21 C17 1.397 . S
C21 C20 1.383 . S
H22 C27 0.929 . S
H23 C32 0.931 . S
H24 C30 0.930 . S
N25 N26 1.234 1_556 S
N25 C29 1.453 . S
N26 N25 1.234 1_554 S
C27 H22 0.929 . S
C27 C28 1.373 . S
C27 C29 1.368 . S
C28 C27 1.373 . S
C28 C32 1.397 1_556 S
C29 N25 1.453 . S
C29 C27 1.368 . S
C29 C30 1.373 1_556 S
C30 H24 0.930 . S
C30 C29 1.373 1_554 S
C30 C31 1.371 . S
C31 C30 1.371 . S
C31 C32 1.383 . S
C32 H23 0.931 . S
C32 C28 1.397 1_554 S
C32 C31 1.383 . S
H33 C38 0.929 . S
H34 C43 0.931 . S
H35 C41 0.930 . S
N36 N37 1.234 . S
N36 C40 1.453 . S
N37 N36 1.234 . S
C38 H33 0.929 . S
C38 C39 1.373 . S
C38 C40 1.368 . S
C39 C38 1.373 . S
C39 C43 1.397 . S
C40 N36 1.453 . S
C40 C38 1.368 . S
C40 C41 1.373 . S
C41 H35 0.930 . S
C41 C40 1.373 . S
C41 C42 1.371 . S
C42 C41 1.371 . S
C42 C43 1.383 . S
C43 H34 0.931 . S
C43 C39 1.397 . S
C43 C42 1.383 . S
O44 Mg45 1.990 . S
O44 C58 1.253 1_455 S
Mg45 O44 1.990 . S
Mg45 O48 2.180 . S
Mg45 O49 2.117 . S
Mg45 O63 2.030 . S
O46 Mg47 2.072 1_655 S
O46 C58 1.260 . S
Mg47 O46 2.072 1_455 S
Mg47 O48 2.099 . S
Mg47 O50 2.079 1_545 S
Mg47 O51 2.072 1_455 S
Mg47 O53 2.099 1_445 S
Mg47 O64 2.079 1_545 S
O48 Mg45 2.180 . S
O48 Mg47 2.099 . S
O48 C59 1.279 . S
O49 Mg45 2.117 . S
O49 C59 1.250 . S
O50 Mg47 2.079 1_565 S
O50 C60 1.264 . S
O51 Mg47 2.072 1_655 S
O51 C61 1.260 . S
Mg52 O53 2.180 . S
Mg52 O54 2.030 1_655 S
Mg52 O55 1.990 1_565 S
Mg52 O56 2.117 . S
O53 Mg47 2.099 1_665 S
O53 Mg52 2.180 . S
O53 C62 1.279 . S
O54 Mg52 2.030 1_455 S
O54 C60 1.248 . S
O55 Mg52 1.990 1_545 S
O55 C61 1.253 . S
O56 Mg52 2.117 . S
O56 C62 1.250 . S
C57 O63 1.248 1_565 S
C57 O64 1.264 . S
C58 O44 1.253 1_655 S
C58 O46 1.260 . S
C59 O48 1.279 . S
C59 O49 1.250 . S
C60 O50 1.264 . S
C60 O54 1.248 . S
C61 O51 1.260 . S
C61 O55 1.253 . S
C62 O53 1.279 . S
C62 O56 1.250 . S
O63 Mg45 2.030 . S
O63 C57 1.248 1_545 S
O64 Mg47 2.079 1_565 S
O64 C57 1.264 . S
O65 Mg66 1.990 . S
O65 C79 1.253 . S
Mg66 O65 1.990 . S
Mg66 O69 2.180 . S
Mg66 O70 2.117 . S
Mg66 O84 2.030 . S
O67 Mg68 2.072 . S
O67 C79 1.260 . S
Mg68 O67 2.072 . S
Mg68 O69 2.099 . S
Mg68 O71 2.079 1_554 S
Mg68 O72 2.072 1_554 S
Mg68 O74 2.099 . S
Mg68 O85 2.079 . S
O69 Mg66 2.180 . S
O69 Mg68 2.099 . S
O69 C80 1.279 . S
O70 Mg66 2.117 . S
O70 C80 1.250 . S
O71 Mg68 2.079 1_556 S
O71 C81 1.264 . S
O72 Mg68 2.072 1_556 S
O72 C82 1.260 . S
Mg73 O74 2.180 1_556 S
Mg73 O75 2.030 . S
Mg73 O76 1.990 . S
Mg73 O77 2.117 . S
O74 Mg68 2.099 . S
O74 Mg73 2.180 1_554 S
O74 C83 1.279 . S
O75 Mg73 2.030 . S
O75 C81 1.248 . S
O76 Mg73 1.990 . S
O76 C82 1.253 . S
O77 Mg73 2.117 . S
O77 C83 1.250 1_556 S
C78 O84 1.248 . S
C78 O85 1.264 . S
C79 O65 1.253 . S
C79 O67 1.260 . S
C80 O69 1.279 . S
C80 O70 1.250 . S
C81 O71 1.264 . S
C81 O75 1.248 . S
C82 O72 1.260 . S
C82 O76 1.253 . S
C83 O74 1.279 . S
C83 O77 1.250 1_554 S
O84 Mg66 2.030 . S
O84 C78 1.248 . S
O85 Mg68 2.079 . S
O85 C78 1.264 . S
H86 C92 0.930 . S
H87 C96 0.930 . S
H88 C101 0.929 . S
H89 C99 0.929 . S
H90 C94 0.929 . S
H91 C100 0.929 . S
C92 H86 0.930 . S
C92 C93 1.367 . S
C92 C100 1.378 . S
C93 C92 1.367 . S
C93 C101 1.433 . S
C94 H90 0.929 . S
C94 C96 1.378 . S
C94 C98 1.350 . S
C95 C98 1.463 . S
C95 C100 1.350 . S
C95 N103 1.427 . S
C96 H87 0.930 . S
C96 C94 1.378 . S
C96 C97 1.367 . S
C97 C96 1.367 . S
C97 C99 1.433 . S
C98 C94 1.350 . S
C98 C95 1.463 . S
C98 N102 1.427 . S
C99 H89 0.929 . S
C99 C97 1.433 . S
C99 N102 1.384 . S
C100 H91 0.929 . S
C100 C92 1.378 . S
C100 C95 1.350 . S
C101 H88 0.929 . S
C101 C93 1.433 . S
C101 N103 1.384 . S
N102 C98 1.427 . S
N102 C99 1.384 . S
N103 C95 1.427 . S
N103 C101 1.384 . S
H104 C110 0.930 . S
H105 C114 0.930 . S
H106 C119 0.929 . S
H107 C117 0.929 . S
H108 C112 0.929 . S
H109 C118 0.929 . S
C110 H104 0.930 . S
C110 C111 1.367 . S
C110 C118 1.378 . S
C111 C110 1.367 . S
C111 C119 1.433 . S
C112 H108 0.929 . S
C112 C114 1.378 . S
C112 C116 1.350 . S
C113 C116 1.463 . S
C113 C118 1.350 . S
C113 N121 1.427 . S
C114 H105 0.930 . S
C114 C112 1.378 . S
C114 C115 1.367 . S
C115 C114 1.367 . S
C115 C117 1.433 . S
C116 C112 1.350 . S
C116 C113 1.463 . S
C116 N120 1.427 . S
C117 H107 0.929 . S
C117 C115 1.433 . S
C117 N120 1.384 . S
C118 H109 0.929 . S
C118 C110 1.378 . S
C118 C113 1.350 . S
C119 H106 0.929 . S
C119 C111 1.433 . S
C119 N121 1.384 . S
N120 C116 1.427 . S
N120 C117 1.384 . S
N121 C113 1.427 . S
N121 C119 1.384 . S
H122 C128 0.930 . S
H123 C132 0.930 . S
H124 C137 0.929 . S
H125 C135 0.929 . S
H126 C130 0.929 . S
H127 C136 0.929 . S
C128 H122 0.930 . S
C128 C129 1.367 . S
C128 C136 1.378 . S
C129 C128 1.367 . S
C129 C137 1.433 . S
C130 H126 0.929 . S
C130 C132 1.378 . S
C130 C134 1.350 . S
C131 C134 1.463 . S
C131 C136 1.350 . S
C131 N139 1.427 . S
C132 H123 0.930 . S
C132 C130 1.378 . S
C132 C133 1.367 . S
C133 C132 1.367 . S
C133 C135 1.433 . S
C134 C130 1.350 . S
C134 C131 1.463 . S
C134 N138 1.427 . S
C135 H125 0.929 . S
C135 C133 1.433 . S
C135 N138 1.384 . S
C136 H127 0.929 . S
C136 C128 1.378 . S
C136 C131 1.350 . S
C137 H124 0.929 . S
C137 C129 1.433 . S
C137 N139 1.384 . S
N138 C134 1.427 . S
N138 C135 1.384 . S
N139 C131 1.427 . S
N139 C137 1.384 . S
H140 C146 0.930 . S
H141 C150 0.930 . S
H142 C155 0.929 . S
H143 C153 0.929 . S
H144 C148 0.929 . S
H145 C154 0.929 . S
C146 H140 0.930 . S
C146 C147 1.367 . S
C146 C154 1.378 . S
C147 C146 1.367 . S
C147 C155 1.433 1_554 S
C148 H144 0.929 . S
C148 C150 1.378 . S
C148 C152 1.350 1_556 S
C149 C152 1.463 . S
C149 C154 1.350 . S
C149 N157 1.427 1_554 S
C150 H141 0.930 . S
C150 C148 1.378 . S
C150 C151 1.367 1_556 S
C151 C150 1.367 1_554 S
C151 C153 1.433 . S
C152 C148 1.350 1_554 S
C152 C149 1.463 . S
C152 N156 1.427 . S
C153 H143 0.929 . S
C153 C151 1.433 . S
C153 N156 1.384 . S
C154 H145 0.929 . S
C154 C146 1.378 . S
C154 C149 1.350 . S
C155 H142 0.929 . S
C155 C147 1.433 1_556 S
C155 N157 1.384 . S
N156 C152 1.427 . S
N156 C153 1.384 . S
N157 C149 1.427 1_556 S
N157 C155 1.384 . S
H158 C164 0.930 . S
H159 C168 0.930 . S
H160 C173 0.929 . S
H161 C171 0.929 . S
H162 C166 0.929 . S
H163 C172 0.929 . S
C164 H158 0.930 . S
C164 C165 1.367 . S
C164 C172 1.378 . S
C165 C164 1.367 . S
C165 C173 1.433 . S
C166 H162 0.929 . S
C166 C168 1.378 . S
C166 C170 1.350 . S
C167 C170 1.463 . S
C167 C172 1.350 . S
C167 N175 1.427 . S
C168 H159 0.930 . S
C168 C166 1.378 . S
C168 C169 1.367 . S
C169 C168 1.367 . S
C169 C171 1.433 . S
C170 C166 1.350 . S
C170 C167 1.463 . S
C170 N174 1.427 . S
C171 H161 0.929 . S
C171 C169 1.433 . S
C171 N174 1.384 . S
C172 H163 0.929 . S
C172 C164 1.378 . S
C172 C167 1.350 . S
C173 H160 0.929 . S
C173 C165 1.433 . S
C173 N175 1.384 . S
N174 C170 1.427 . S
N174 C171 1.384 . S
N175 C167 1.427 . S
N175 C173 1.384 . S
H176 C182 0.930 . S
H177 C186 0.930 . S
H178 C191 0.929 . S
H179 C189 0.929 . S
H180 C184 0.929 . S
H181 C190 0.929 . S
C182 H176 0.930 . S
C182 C183 1.367 . S
C182 C190 1.378 . S
C183 C182 1.367 . S
C183 C191 1.433 . S
C184 H180 0.929 . S
C184 C186 1.378 . S
C184 C188 1.350 . S
C185 C188 1.463 . S
C185 C190 1.350 . S
C185 N193 1.427 . S
C186 H177 0.930 . S
C186 C184 1.378 . S
C186 C187 1.367 . S
C187 C186 1.367 . S
C187 C189 1.433 . S
C188 C184 1.350 . S
C188 C185 1.463 . S
C188 N192 1.427 . S
C189 H179 0.929 . S
C189 C187 1.433 . S
C189 N192 1.384 . S
C190 H181 0.929 . S
C190 C182 1.378 . S
C190 C185 1.350 . S
C191 H178 0.929 . S
C191 C183 1.433 . S
C191 N193 1.384 . S
N192 C188 1.427 . S
N192 C189 1.384 . S
N193 C185 1.427 . S
N193 C191 1.384 . S
H194 C200 0.930 . S
H195 C204 0.930 . S
H196 C209 0.929 . S
H197 C207 0.929 . S
H198 C202 0.929 . S
H199 C208 0.929 . S
C200 H194 0.930 . S
C200 C201 1.367 . S
C200 C208 1.378 . S
C201 C200 1.367 . S
C201 C209 1.433 . S
C202 H198 0.929 . S
C202 C204 1.378 . S
C202 C206 1.350 . S
C203 C206 1.463 . S
C203 C208 1.350 . S
C203 N211 1.427 . S
C204 H195 0.930 . S
C204 C202 1.378 . S
C204 C205 1.367 . S
C205 C204 1.367 . S
C205 C207 1.433 . S
C206 C202 1.350 . S
C206 C203 1.463 . S
C206 N210 1.427 . S
C207 H197 0.929 . S
C207 C205 1.433 . S
C207 N210 1.384 . S
C208 H199 0.929 . S
C208 C200 1.378 . S
C208 C203 1.350 . S
C209 H196 0.929 . S
C209 C201 1.433 . S
C209 N211 1.384 . S
N210 C206 1.427 . S
N210 C207 1.384 . S
N211 C203 1.427 . S
N211 C209 1.384 . S
H212 C218 0.930 . S
H213 C222 0.930 . S
H214 C227 0.929 . S
H215 C225 0.929 . S
H216 C220 0.929 . S
H217 C226 0.929 . S
C218 H212 0.930 . S
C218 C219 1.367 . S
C218 C226 1.378 . S
C219 C218 1.367 . S
C219 C227 1.433 . S
C220 H216 0.929 . S
C220 C222 1.378 . S
C220 C224 1.350 . S
C221 C224 1.463 . S
C221 C226 1.350 . S
C221 N229 1.427 . S
C222 H213 0.930 . S
C222 C220 1.378 . S
C222 C223 1.367 . S
C223 C222 1.367 . S
C223 C225 1.433 . S
C224 C220 1.350 . S
C224 C221 1.463 . S
C224 N228 1.427 . S
C225 H215 0.929 . S
C225 C223 1.433 . S
C225 N228 1.384 . S
C226 H217 0.929 . S
C226 C218 1.378 . S
C226 C221 1.350 . S
C227 H214 0.929 . S
C227 C219 1.433 . S
C227 N229 1.384 . S
N228 C224 1.427 . S
N228 C225 1.384 . S
N229 C221 1.427 . S
N229 C227 1.384 . S
H230 C236 0.930 . S
H231 C240 0.930 . S
H232 C245 0.929 . S
H233 C243 0.929 . S
H234 C238 0.929 . S
H235 C244 0.929 . S
C236 H230 0.930 . S
C236 C237 1.367 . S
C236 C244 1.378 . S
C237 C236 1.367 . S
C237 C245 1.433 . S
C238 H234 0.929 . S
C238 C240 1.378 . S
C238 C242 1.350 . S
C239 C242 1.463 . S
C239 C244 1.350 . S
C239 N247 1.427 . S
C240 H231 0.930 . S
C240 C238 1.378 . S
C240 C241 1.367 . S
C241 C240 1.367 . S
C241 C243 1.433 . S
C242 C238 1.350 . S
C242 C239 1.463 . S
C242 N246 1.427 . S
C243 H233 0.929 . S
C243 C241 1.433 . S
C243 N246 1.384 . S
C244 H235 0.929 . S
C244 C236 1.378 . S
C244 C239 1.350 . S
C245 H232 0.929 . S
C245 C237 1.433 . S
C245 N247 1.384 . S
N246 C242 1.427 . S
N246 C243 1.384 . S
N247 C239 1.427 . S
N247 C245 1.384 . S
H248 C254 0.930 . S
H249 C258 0.930 . S
H250 C263 0.929 . S
H251 C261 0.929 . S
H252 C256 0.929 . S
H253 C262 0.929 . S
C254 H248 0.930 . S
C254 C255 1.367 . S
C254 C262 1.378 . S
C255 C254 1.367 . S
C255 C263 1.433 . S
C256 H252 0.929 . S
C256 C258 1.378 . S
C256 C260 1.350 . S
C257 C260 1.463 . S
C257 C262 1.350 . S
C257 N265 1.427 . S
C258 H249 0.930 . S
C258 C256 1.378 . S
C258 C259 1.367 . S
C259 C258 1.367 . S
C259 C261 1.433 . S
C260 C256 1.350 . S
C260 C257 1.463 . S
C260 N264 1.427 . S
C261 H251 0.929 . S
C261 C259 1.433 . S
C261 N264 1.384 . S
C262 H253 0.929 . S
C262 C254 1.378 . S
C262 C257 1.350 . S
C263 H250 0.929 . S
C263 C255 1.433 . S
C263 N265 1.384 . S
N264 C260 1.427 . S
N264 C261 1.384 . S
N265 C257 1.427 . S
N265 C263 1.384 . S
H266 C272 0.930 . S
H267 C276 0.930 . S
H268 C281 0.929 . S
H269 C279 0.929 . S
H270 C274 0.929 . S
H271 C280 0.929 . S
C272 H266 0.930 . S
C272 C273 1.367 . S
C272 C280 1.378 . S
C273 C272 1.367 . S
C273 C281 1.433 . S
C274 H270 0.929 . S
C274 C276 1.378 . S
C274 C278 1.350 . S
C275 C278 1.463 . S
C275 C280 1.350 . S
C275 N283 1.427 . S
C276 H267 0.930 . S
C276 C274 1.378 . S
C276 C277 1.367 . S
C277 C276 1.367 . S
C277 C279 1.433 . S
C278 C274 1.350 . S
C278 C275 1.463 . S
C278 N282 1.427 . S
C279 H269 0.929 . S
C279 C277 1.433 . S
C279 N282 1.384 . S
C280 H271 0.929 . S
C280 C272 1.378 . S
C280 C275 1.350 . S
C281 H268 0.929 . S
C281 C273 1.433 . S
C281 N283 1.384 . S
N282 C278 1.427 . S
N282 C279 1.384 . S
N283 C275 1.427 . S
N283 C281 1.384 . S
H284 C290 0.932 . S
H285 C294 0.930 . S
H286 C299 0.929 . S
H287 C297 0.929 1_545 S
H288 C292 0.929 . S
H289 C298 0.929 . S
C290 H284 0.932 . S
C290 C291 1.367 . S
C290 C298 1.378 . S
C291 C290 1.367 . S
C291 C299 1.433 . S
C292 H288 0.929 . S
C292 C294 1.378 . S
C292 C296 1.350 . S
C293 C296 1.463 . S
C293 C298 1.350 . S
C293 N301 1.427 . S
C294 H285 0.930 . S
C294 C292 1.378 . S
C294 C295 1.367 . S
C295 C294 1.367 . S
C295 C297 1.433 . S
C296 C292 1.350 . S
C296 C293 1.463 . S
C296 N300 1.427 . S
C297 H287 0.929 1_565 S
C297 C295 1.433 . S
C297 N300 1.384 . S
C298 H289 0.929 . S
C298 C290 1.378 . S
C298 C293 1.350 . S
C299 H286 0.929 . S
C299 C291 1.433 . S
C299 N301 1.384 . S
N300 C296 1.427 . S
N300 C297 1.384 . S
N301 C293 1.427 . S
N301 C299 1.384 . S
C97 C59 1.241 . S
C93 N37 1.445 . S
C111 N4 1.479 . S
C115 C83 1.290 . S
C129 N15 1.582 . S
C133 C62 1.412 . S
C147 N26 1.583 . S
C151 C80 1.392 . S
C169 C60 1.502 . S
C165 C9 1.501 . S
C187 C82 1.549 . S
C183 C17 1.612 . S
C201 C31 1.594 . S
C205 C61 1.547 . S
C219 C42 1.507 . S
C223 C81 1.463 . S
C241 C79 1.469 . S
C237 C20 1.510 . S
C259 C58 1.466 . S
C255 C28 1.529 . S
C277 C78 1.405 . S
C273 C39 1.449 . S
C291 C6 1.446 1_556 S
C295 C57 1.399 . S
