# Generated by pormake.
# Topology nom, (4,4)-cn, num edge types: 1
# Building blocks:
#     Node 0, Type 0, BuildingBlock: GIZVER_clean_linker_0, # of connection points: 4
#     Node 1, Type 0, BuildingBlock: GIZVER_clean_linker_0, # of connection points: 4
#     Node 2, Type 0, BuildingBlock: GIZVER_clean_linker_0, # of connection points: 4
#     Node 3, Type 0, BuildingBlock: GIZVER_clean_linker_0, # of connection points: 4
#     Node 4, Type 0, BuildingBlock: GIZVER_clean_linker_0, # of connection points: 4
#     Node 5, Type 0, BuildingBlock: GIZVER_clean_linker_0, # of connection points: 4
#     Node 6, Type 1, BuildingBlock: TATPOV_clean_sbu_0, # of connection points: 4
#     Node 7, Type 1, BuildingBlock: TATPOV_clean_sbu_0, # of connection points: 4
#     Node 8, Type 1, BuildingBlock: TATPOV_clean_sbu_0, # of connection points: 4
#     Node 9, Type 1, BuildingBlock: TATPOV_clean_sbu_0, # of connection points: 4
#     Node 10, Type 1, BuildingBlock: TATPOV_clean_sbu_0, # of connection points: 4
#     Node 11, Type 1, BuildingBlock: TATPOV_clean_sbu_0, # of connection points: 4
#     Edge 12, Type (0, 1), BuildingBlock: XIVTED_clean_linker_0, # of connection points: 2
#     Edge 13, Type (0, 1), BuildingBlock: XIVTED_clean_linker_0, # of connection points: 2
#     Edge 14, Type (0, 1), BuildingBlock: XIVTED_clean_linker_0, # of connection points: 2
#     Edge 15, Type (0, 1), BuildingBlock: XIVTED_clean_linker_0, # of connection points: 2
#     Edge 16, Type (0, 1), BuildingBlock: XIVTED_clean_linker_0, # of connection points: 2
#     Edge 17, Type (0, 1), BuildingBlock: XIVTED_clean_linker_0, # of connection points: 2
#     Edge 18, Type (0, 1), BuildingBlock: XIVTED_clean_linker_0, # of connection points: 2
#     Edge 19, Type (0, 1), BuildingBlock: XIVTED_clean_linker_0, # of connection points: 2
#     Edge 20, Type (0, 1), BuildingBlock: XIVTED_clean_linker_0, # of connection points: 2
#     Edge 21, Type (0, 1), BuildingBlock: XIVTED_clean_linker_0, # of connection points: 2
#     Edge 22, Type (0, 1), BuildingBlock: XIVTED_clean_linker_0, # of connection points: 2
#     Edge 23, Type (0, 1), BuildingBlock: XIVTED_clean_linker_0, # of connection points: 2
#     Edge 24, Type (0, 1), BuildingBlock: XIVTED_clean_linker_0, # of connection points: 2
#     Edge 25, Type (0, 1), BuildingBlock: XIVTED_clean_linker_0, # of connection points: 2
#     Edge 26, Type (0, 1), BuildingBlock: XIVTED_clean_linker_0, # of connection points: 2
#     Edge 27, Type (0, 1), BuildingBlock: XIVTED_clean_linker_0, # of connection points: 2
#     Edge 28, Type (0, 1), BuildingBlock: XIVTED_clean_linker_0, # of connection points: 2
#     Edge 29, Type (0, 1), BuildingBlock: XIVTED_clean_linker_0, # of connection points: 2
#     Edge 30, Type (0, 1), BuildingBlock: XIVTED_clean_linker_0, # of connection points: 2
#     Edge 31, Type (0, 1), BuildingBlock: XIVTED_clean_linker_0, # of connection points: 2
#     Edge 32, Type (0, 1), BuildingBlock: XIVTED_clean_linker_0, # of connection points: 2
#     Edge 33, Type (0, 1), BuildingBlock: XIVTED_clean_linker_0, # of connection points: 2
#     Edge 34, Type (0, 1), BuildingBlock: XIVTED_clean_linker_0, # of connection points: 2
#     Edge 35, Type (0, 1), BuildingBlock: XIVTED_clean_linker_0, # of connection points: 2
# Relax obj value: 0.020
# Max RMSD: 0.119
# Mean RMSD: 0.091
data_MOF--net-nom--node1-TATPOV_clean_sbu_0--node2-GIZVER_clean_linker_0--edge1-XIVTED_clean_linker_0
_symmetry_space_group_name_H-M    P1
_symmetry_Int_Tables_number       1
_symmetry_cell_setting            triclinic
loop_
_symmetry_equiv_pos_as_xyz
'x, y, z'
_cell_length_a     45.326982
_cell_length_b     45.758327
_cell_length_c     47.872598
_cell_angle_alpha  90.978197
_cell_angle_beta   90.877989
_cell_angle_gamma 120.0743
loop_
_atom_site_label
_atom_site_type_symbol
_atom_site_fract_x
_atom_site_fract_y
_atom_site_fract_z
_atom_type_partial_charge
H0 H 1.01358 0.5173 0.322 0.0
H1 H 0.02288 0.49597 0.23607 0.0
H2 H 0.92515 0.44499 0.2744 0.0
H3 H 0.05721 0.56067 0.2912 0.0
H4 H 0.0629 0.54903 0.257 0.0
H5 H 0.06676 0.52694 0.3321 0.0
H6 H 0.16893 0.54603 0.32516 0.0
H7 H 0.1137 0.54955 0.25258 0.0
C8 C 1.00244 0.50215 0.30308 0.0
C9 C 0.96738 0.47827 0.30177 0.0
C10 C 0.02259 0.50861 0.27944 0.0
C11 C 1.00754 0.49023 0.2545 0.0
C12 C 0.97221 0.46765 0.25226 0.0
C13 C 0.95261 0.46096 0.27627 0.0
C14 C 0.0574 0.53999 0.27877 0.0
C15 C 0.0859 0.53538 0.29049 0.0
C16 C 0.08782 0.5311 0.31923 0.0
C17 C 0.11826 0.53661 0.3321 0.0
C18 C 0.14568 0.54233 0.31526 0.0
C19 C 0.14488 0.54766 0.28642 0.0
C20 C 0.11443 0.54348 0.27424 0.0
H21 H 0.44159 1.01595 0.47693 0.0
H22 H 0.47185 0.03181 0.39135 0.0
H23 H 0.4483 0.9388 0.42992 0.0
H24 H 0.43539 0.05747 0.44798 0.0
H25 H 0.45056 0.06523 0.41319 0.0
H26 H 0.48008 0.07364 0.4882 0.0
H27 H 0.5675 0.1717 0.47677 0.0
H28 H 0.50432 0.11448 0.40602 0.0
C29 C 0.44829 1.00752 0.45805 0.0
C30 C 0.44558 0.97551 0.45685 0.0
C31 C 0.45803 0.02806 0.43452 0.0
C32 C 0.46529 0.01644 0.40972 0.0
C33 C 0.46187 0.98424 0.40793 0.0
C34 C 0.4528 0.96436 0.43173 0.0
C35 C 0.45649 0.06026 0.43463 0.0
C36 C 0.48932 0.09004 0.44576 0.0
C37 C 0.497 0.09335 0.47454 0.0
C38 C 0.52511 0.12272 0.48602 0.0
C39 C 0.5466 0.14825 0.46809 0.0
C40 C 0.53932 0.14542 0.43927 0.0
C41 C 0.51063 0.11625 0.42814 0.0
H42 H 0.4506 0.53278 0.5805 0.0
H43 H 0.46782 0.50693 0.66281 0.0
H44 H 0.45183 0.59095 0.6522 0.0
H45 H 0.45294 0.48243 0.58562 0.0
H46 H 0.43845 0.46355 0.61851 0.0
H47 H 0.5125 0.50558 0.57327 0.0
H48 H 0.57304 0.47695 0.62288 0.0
H49 H 0.4782 0.46245 0.65376 0.0
C50 C 0.45473 0.53826 0.60279 0.0
C51 C 0.45217 0.56535 0.61429 0.0
C52 C 0.46109 0.51738 0.62019 0.0
C53 C 0.46437 0.52368 0.64922 0.0
C54 C 0.46127 0.55028 0.66101 0.0
C55 C 0.45601 0.57142 0.64328 0.0
C56 C 0.45952 0.48575 0.60839 0.0
C57 C 0.49236 0.48541 0.61349 0.0
C58 C 0.51686 0.49624 0.59266 0.0
C59 C 0.54609 0.49339 0.59615 0.0
C60 C 0.5513 0.48069 0.621 0.0
C61 C 0.52706 0.46942 0.64202 0.0
C62 C 0.49759 0.47194 0.63809 0.0
H63 H 0.94218 0.41888 0.73208 0.0
H64 H 0.98013 0.44825 0.81713 0.0
H65 H 0.88308 0.43591 0.79269 0.0
H66 H 0.99564 0.42379 0.74488 0.0
H67 H 0.9988 0.41534 0.78069 0.0
H68 H 0.02697 0.48316 0.72848 0.0
H69 H 0.11533 0.55253 0.77761 0.0
H70 H 0.04035 0.45897 0.81259 0.0
C71 C 0.93976 0.42683 0.75296 0.0
C72 C 0.90993 0.42727 0.75983 0.0
C73 C 0.96593 0.43564 0.77335 0.0
C74 C 0.96119 0.4434 0.80089 0.0
C75 C 0.93159 0.44405 0.80769 0.0
C76 C 0.90661 0.43684 0.787 0.0
C77 C 0.99735 0.43368 0.7666 0.0
C78 C 0.02954 0.46768 0.77042 0.0
C79 C 0.04123 0.49012 0.7482 0.0
C80 C 0.0719 0.52099 0.75107 0.0
C81 C 0.0907 0.52954 0.77631 0.0
C82 C 0.07993 0.50736 0.79865 0.0
C83 C 0.04894 0.47653 0.79565 0.0
H84 H 0.63494 0.05356 -0.01644 0.0
H85 H 0.58643 0.02775 0.9015 0.0
H86 H 0.60102 0.11652 0.94593 0.0
H87 H 0.63229 1.00674 0.95694 0.0
H88 H 0.62241 1.00326 0.92019 0.0
H89 H 0.57774 0.98792 -0.0108 0.0
H90 H 0.49368 0.89235 0.96095 0.0
H91 H 0.57492 0.9502 0.90531 0.0
C92 C 0.62218 0.05842 0.96647 0.0
C93 C 0.61859 0.08719 0.96776 0.0
C94 C 0.60963 0.03618 0.94286 0.0
C95 C 0.59482 0.04388 0.92019 0.0
C96 C 0.5914 0.07267 0.92144 0.0
C97 C 0.60252 0.09357 0.94546 0.0
C98 C 0.61315 1.00504 0.94119 0.0
C99 C 0.57941 0.97355 0.94622 0.0
C100 C 0.56474 0.96904 0.97263 0.0
C101 C 0.53358 0.94002 -0.0222 0.0
C102 C 0.5171 0.91544 0.95653 0.0
C103 C 0.5319 0.91863 0.93053 0.0
C104 C 0.56316 0.94781 0.92531 0.0
H105 H 0.60825 0.55534 0.09748 0.0
H106 H 0.61857 0.58588 0.18407 0.0
H107 H 0.61653 0.49391 0.1607 0.0
H108 H 0.62667 0.61326 0.11003 0.0
H109 H 0.63885 0.62785 0.14538 0.0
H110 H 0.56654 0.58855 0.09363 0.0
H111 H 0.50677 0.62063 0.1399 0.0
H112 H 0.59975 0.63335 0.17636 0.0
C113 C 0.60984 0.55009 0.11926 0.0
C114 C 0.61075 0.52083 0.12648 0.0
C115 C 0.613 0.57375 0.13997 0.0
C116 C 0.61561 0.56737 0.16818 0.0
C117 C 0.61624 0.53821 0.17583 0.0
C118 C 0.61352 0.51506 0.1549 0.0
C119 C 0.61813 0.6077 0.13196 0.0
C120 C 0.58597 0.60935 0.13509 0.0
C121 C 0.562 0.59857 0.11275 0.0
C122 C 0.53373 0.60321 0.1142 0.0
C123 C 0.52845 0.61672 0.1388 0.0
C124 C 0.55199 0.6275 0.16127 0.0
C125 C 0.58088 0.62394 0.15939 0.0
Zn126 Zn 0.74785 0.52017 0.40629 0.0
Zn127 Zn 0.70547 0.4522 0.39898 0.0
O128 O 0.75411 0.45923 0.39903 0.0
O129 O 0.78882 0.51384 0.40572 0.0
O130 O 0.67469 0.40136 0.3959 0.0
O131 O 0.72519 0.51956 0.44239 0.0
O132 O 0.68943 0.46526 0.43453 0.0
C133 C 0.78426 0.48441 0.40178 0.0
C134 C 0.70399 0.49956 0.35599 0.0
O135 O 0.69336 0.46974 0.3644 0.0
O136 O 0.72695 0.52484 0.36988 0.0
C137 C 0.68376 0.38179 0.38467 0.0
O138 O 0.71407 0.39473 0.37383 0.0
C139 C 0.69929 0.49224 0.44921 0.0
Zn140 Zn 0.22438 0.7135 0.55501 0.0
Zn141 Zn 0.26824 0.68961 0.55776 0.0
O142 O 0.2995 0.74138 0.55381 0.0
O143 O 0.26382 0.76078 0.55199 0.0
O144 O 0.29985 0.67033 0.56046 0.0
O145 O 0.20598 0.69455 0.59244 0.0
O146 O 0.2392 0.6722 0.5929 0.0
C147 C 0.29402 0.76605 0.55175 0.0
C148 C 0.214 0.6647 0.511 0.0
O149 O 0.23959 0.66521 0.52282 0.0
O150 O 0.20278 0.68319 0.52049 0.0
C151 C 0.33224 0.68688 0.55953 0.0
O152 O 0.34804 0.71983 0.55718 0.0
C153 C 0.21591 0.67614 0.60388 0.0
Zn154 Zn 0.5284 0.22473 0.73345 0.0
Zn155 Zn 0.59709 0.26096 0.72834 0.0
O156 O 0.58272 0.29733 0.7312 0.0
O157 O 0.5271 0.26801 0.73616 0.0
O158 O 0.64859 0.28685 0.72587 0.0
O159 O 0.53351 0.20266 0.76768 0.0
O160 O 0.58902 0.23037 0.76185 0.0
C161 C 0.55421 0.29621 0.73407 0.0
C162 C 0.55266 0.21149 0.68175 0.0
O163 O 0.58179 0.23369 0.69165 0.0
O164 O 0.52603 0.20332 0.69544 0.0
C165 C 0.66549 0.31492 0.71387 0.0
O166 O 0.64927 0.32906 0.70262 0.0
C167 C 0.5631 0.20885 0.77494 0.0
Zn168 Zn 0.34318 0.54004 0.89888 0.0
Zn169 Zn 0.37209 0.60791 0.89563 0.0
O170 O 0.32039 0.59202 0.89309 0.0
O171 O 0.29735 0.53702 0.89753 0.0
O172 O 0.39799 0.65914 0.89434 0.0
O173 O 0.36746 0.54461 0.9354 0.0
O174 O 0.39004 0.59972 0.93286 0.0
C175 C 0.29402 0.56267 0.89445 0.0
C176 C 0.38497 0.56663 0.85109 0.0
O177 O 0.38943 0.59458 0.86111 0.0
O178 O 0.36588 0.53933 0.86323 0.0
C179 C 0.38909 0.67764 0.88135 0.0
O180 O 0.35959 0.66351 0.86768 0.0
C181 C 0.38672 0.57402 0.94561 0.0
Zn182 Zn 0.80674 0.45782 0.03704 0.0
Zn183 Zn 0.77456 0.39089 0.03592 0.0
O184 O 0.73459 0.40115 0.03907 0.0
O185 O 0.76229 0.45669 0.03679 0.0
O186 O 0.75239 0.33993 0.03249 0.0
O187 O 0.82924 0.46141 0.00106 0.0
O188 O 0.80269 0.40582 -0.00028 0.0
C189 C 0.73455 0.42903 0.03825 0.0
C190 C 0.82635 0.43103 0.08298 0.0
O191 O 0.80508 0.40269 0.07142 0.0
O192 O 0.83093 0.45824 0.07264 0.0
C193 C 0.72598 0.31857 0.04503 0.0
O194 O 0.71042 0.32935 0.06165 0.0
C195 C 0.82303 0.43409 -0.01105 0.0
Zn196 Zn 0.36478 0.79807 0.19019 0.0
Zn197 Zn 0.41593 0.78538 0.20147 0.0
O198 O 0.37161 0.73932 0.20284 0.0
O199 O 0.3298 0.74842 0.19116 0.0
O200 O 0.45213 0.77271 0.20778 0.0
O201 O 0.38647 0.81931 0.15426 0.0
O202 O 0.42864 0.81001 0.16416 0.0
C203 C 0.33999 0.72828 0.19802 0.0
C204 C 0.40622 0.83255 0.24032 0.0
O205 O 0.42256 0.81758 0.2339 0.0
O206 O 0.38065 0.82779 0.22553 0.0
C207 C 0.44916 0.75246 0.22685 0.0
O208 O 0.42292 0.74104 0.24328 0.0
C209 C 0.41485 0.82211 0.14822 0.0
H210 H 0.21082 0.5902 0.30664 0.0
H211 H 0.27504 0.69055 0.17626 0.0
H212 H 0.15399 0.54441 0.22932 0.0
H213 H 0.34688 0.68598 0.23364 0.0
H214 H 0.22995 0.63683 0.19373 0.0
H215 H 0.26087 0.62426 0.28021 0.0
C216 C 0.20865 0.58622 0.28422 0.0
C217 C 0.17727 0.56408 0.27047 0.0
C218 C 0.25579 0.64717 0.20192 0.0
C219 C 0.23524 0.60528 0.23987 0.0
C220 C 0.28146 0.67786 0.1921 0.0
C221 C 0.31459 0.69293 0.20385 0.0
C222 C 0.26319 0.6321 0.22415 0.0
C223 C 0.32162 0.67534 0.22416 0.0
C224 C 0.2376 0.6062 0.26907 0.0
C225 C 0.177 0.56173 0.24105 0.0
N226 N 0.2959 0.64627 0.23424 0.0
N227 N 0.20526 0.58279 0.22669 0.0
H228 H 0.51577 0.17973 0.40902 0.0
H229 H 0.70187 0.33333 0.37876 0.0
H230 H 0.60812 0.17985 0.43207 0.0
H231 H 0.6151 0.34587 0.39346 0.0
H232 H 0.66572 0.27248 0.38524 0.0
H233 H 0.55025 0.23599 0.38957 0.0
C234 C 0.54328 0.19123 0.4092 0.0
C235 C 0.55926 0.17532 0.4221 0.0
C236 C 0.65459 0.28858 0.38673 0.0
C237 C 0.59862 0.2394 0.40024 0.0
C238 C 0.67513 0.32325 0.38297 0.0
C239 C 0.66153 0.34473 0.38588 0.0
C240 C 0.62011 0.27525 0.39295 0.0
C241 C 0.6267 0.33026 0.39136 0.0
C242 C 0.56289 0.22337 0.39839 0.0
C243 C 0.59497 0.19143 0.42228 0.0
N244 N 0.60718 0.29641 0.39477 0.0
N245 N 0.61352 0.22271 0.41164 0.0
H246 H 0.48097 0.63381 0.61145 0.0
H247 H 0.308 0.61872 0.55656 0.0
H248 H 0.39556 0.54022 0.58004 0.0
H249 H 0.4013 0.71444 0.5675 0.0
H250 H 0.3404 0.58972 0.56297 0.0
H251 H 0.45394 0.66434 0.59257 0.0
C252 C 0.45689 0.61984 0.59994 0.0
C253 C 0.44041 0.5845 0.59729 0.0
C254 C 0.35386 0.61708 0.56369 0.0
C255 C 0.40886 0.61902 0.57636 0.0
C256 C 0.33533 0.63367 0.56019 0.0
C257 C 0.35189 0.66909 0.5618 0.0
C258 C 0.38919 0.63597 0.56921 0.0
C259 C 0.38743 0.68711 0.56627 0.0
C260 C 0.44139 0.63721 0.58927 0.0
C261 C 0.40919 0.5675 0.58234 0.0
N262 N 0.40482 0.67035 0.57015 0.0
N263 N 0.39411 0.58486 0.57286 0.0
H264 H 0.8746 0.3636 0.73708 0.0
H265 H 0.7108 0.38058 0.70125 0.0
H266 H 0.875 0.45791 0.7417 0.0
H267 H 0.70614 0.28783 0.72505 0.0
H268 H 0.77322 0.40889 0.70362 0.0
H269 H 0.81553 0.33558 0.7189 0.0
C270 C 0.86265 0.37862 0.73322 0.0
C271 C 0.87955 0.41305 0.74085 0.0
C272 C 0.75847 0.38226 0.70804 0.0
C273 C 0.81199 0.3812 0.72079 0.0
C274 C 0.72287 0.36608 0.70671 0.0
C275 C 0.7032 0.33188 0.71333 0.0
C276 C 0.77454 0.36402 0.7157 0.0
C277 C 0.72027 0.31433 0.72015 0.0
C278 C 0.82883 0.36257 0.72324 0.0
C279 C 0.86274 0.43129 0.736 0.0
N280 N 0.75492 0.33062 0.72126 0.0
N281 N 0.82973 0.41508 0.72657 0.0
H282 H 0.55812 0.87955 0.91328 0.0
H283 H 0.37409 0.72629 0.86551 0.0
H284 H 0.46827 0.8887 0.90622 0.0
H285 H 0.45635 0.71388 0.89806 0.0
H286 H 0.41174 0.78776 0.86897 0.0
H287 H 0.52489 0.82118 0.89488 0.0
C288 C 0.53174 0.86967 0.90677 0.0
C289 C 0.51587 0.88886 0.91112 0.0
C290 C 0.42158 0.77152 0.87511 0.0
C291 C 0.47752 0.82206 0.8909 0.0
C292 C 0.40011 0.73644 0.87317 0.0
C293 C 0.41193 0.71486 0.88185 0.0
C294 C 0.45523 0.78513 0.88548 0.0
C295 C 0.44598 0.7295 0.89147 0.0
C296 C 0.51265 0.83624 0.89669 0.0
C297 C 0.48139 0.87466 0.903 0.0
N298 N 0.46636 0.76366 0.89311 0.0
N299 N 0.46324 0.84198 0.89357 0.0
H300 H 0.58582 0.45192 0.12615 0.0
H301 H 0.71828 0.47056 0.01117 0.0
H302 H 0.64552 0.54036 0.07752 0.0
H303 H 0.68031 0.3926 0.07218 0.0
H304 H 0.67583 0.48547 0.0249 0.0
H305 H 0.60537 0.42076 0.09705 0.0
C306 C 0.6025 0.46468 0.10909 0.0
C307 C 0.61471 0.49922 0.10486 0.0
C308 C 0.6762 0.46462 0.03494 0.0
C309 C 0.63654 0.46338 0.07118 0.0
C310 C 0.70033 0.456 0.02702 0.0
C311 C 0.70307 0.43071 0.04091 0.0
C312 C 0.65505 0.44829 0.05733 0.0
C313 C 0.67905 0.41238 0.06108 0.0
C314 C 0.6135 0.44677 0.09244 0.0
C315 C 0.63537 0.51394 0.08182 0.0
N316 N 0.65645 0.42208 0.06921 0.0
N317 N 0.64599 0.49611 0.06618 0.0
H318 H 0.39218 0.96503 0.48964 0.0
H319 H 0.36027 0.78634 0.53813 0.0
H320 H 0.46362 0.9302 0.47627 0.0
H321 H 0.29203 0.82468 0.55332 0.0
H322 H 0.40307 0.84225 0.5225 0.0
H323 H 0.36063 0.91821 0.52051 0.0
C324 C 0.40179 0.94806 0.4937 0.0
C325 C 0.4304 0.95138 0.47994 0.0
C326 C 0.3789 0.83852 0.52966 0.0
C327 C 0.39358 0.89682 0.51474 0.0
C328 C 0.35448 0.80661 0.53864 0.0
C329 C 0.32227 0.80062 0.54659 0.0
C330 C 0.37099 0.86454 0.5286 0.0
C331 C 0.31628 0.82791 0.54693 0.0
C332 C 0.3835 0.92102 0.51118 0.0
C333 C 0.44124 0.92818 0.4859 0.0
N334 N 0.34019 0.85849 0.53774 0.0
N335 N 0.42252 0.90158 0.50247 0.0
H336 H 0.5854 0.48428 0.67205 0.0
H337 H 0.49734 0.30207 0.73882 0.0
H338 H 0.4776 0.41181 0.66595 0.0
H339 H 0.6049 0.36066 0.72257 0.0
H340 H 0.49084 0.34962 0.72503 0.0
H341 H 0.59316 0.4465 0.703 0.0
C342 C 0.56326 0.4607 0.67757 0.0
C343 C 0.53088 0.45093 0.66583 0.0
C344 C 0.51596 0.35226 0.7249 0.0
C345 C 0.53963 0.40785 0.70149 0.0
C346 C 0.51976 0.32513 0.73282 0.0
C347 C 0.55164 0.32708 0.73131 0.0
C348 C 0.5442 0.38164 0.7154 0.0
C349 C 0.57978 0.35784 0.72373 0.0
C350 C 0.56775 0.43922 0.69527 0.0
C351 C 0.50303 0.4205 0.67437 0.0
N352 N 0.57531 0.38378 0.71566 0.0
N353 N 0.50813 0.39986 0.69136 0.0
H354 H 0.09334 0.46339 0.8269 0.0
H355 H 0.27496 0.60858 0.87822 0.0
H356 H 0.12201 0.56868 0.82547 0.0
H357 H 0.23348 0.50416 0.89972 0.0
H358 H 0.21765 0.59569 0.86309 0.0
H359 H 0.14171 0.47815 0.85843 0.0
C360 C 0.1092 0.48952 0.83376 0.0
C361 C 0.10386 0.51487 0.82296 0.0
C362 C 0.22105 0.57576 0.8716 0.0
C363 C 0.16027 0.53216 0.85845 0.0
C364 C 0.25378 0.58313 0.88024 0.0
C365 C 0.25921 0.55731 0.88976 0.0
C366 C 0.19372 0.54232 0.87228 0.0
C367 C 0.23071 0.5248 0.89204 0.0
C368 C 0.13713 0.49801 0.85163 0.0
C369 C 0.12569 0.54837 0.83258 0.0
N370 N 0.19939 0.51816 0.88296 0.0
N371 N 0.15335 0.55614 0.84926 0.0
H372 H 0.58808 0.11013 0.00356 0.0
H373 H 0.7569 0.28774 0.01888 0.0
H374 H 0.6864 0.12608 -0.01962 0.0
H375 H 0.66411 0.26568 0.05988 0.0
H376 H 0.73264 0.22757 0.00795 0.0
H377 H 0.61615 0.16476 0.02884 0.0
C378 C 0.61569 0.1247 0.0047 0.0
C379 C 0.63503 0.11365 -0.00995 0.0
C380 C 0.7177 0.23579 0.01962 0.0
C381 C 0.6673 0.17674 0.01784 0.0
C382 C 0.73147 0.27022 0.02574 0.0
C383 C 0.71236 0.28187 0.04005 0.0
C384 C 0.68434 0.21276 0.0275 0.0
C385 C 0.67969 0.2579 0.04865 0.0
C386 C 0.63172 0.15601 0.01888 0.0
C387 C 0.67066 0.13362 -0.00832 0.0
N388 N 0.66655 0.22455 0.04193 0.0
N389 N 0.68566 0.16454 0.00483 0.0
H390 H 0.59197 0.69438 0.17388 0.0
H391 H 0.43967 0.6961 0.25363 0.0
H392 H 0.50108 0.60498 0.19874 0.0
H393 H 0.51075 0.77611 0.20197 0.0
H394 H 0.47301 0.66779 0.24822 0.0
H395 H 0.57372 0.72917 0.1996 0.0
C396 C 0.56894 0.6821 0.18582 0.0
C397 C 0.54789 0.64691 0.18427 0.0
C398 C 0.48162 0.69187 0.23854 0.0
C399 C 0.52654 0.68626 0.21301 0.0
C400 C 0.46266 0.70808 0.24162 0.0
C401 C 0.47209 0.73819 0.22776 0.0
C402 C 0.51036 0.70604 0.2217 0.0
C403 C 0.50222 0.75263 0.2126 0.0
C404 C 0.55832 0.70191 0.20017 0.0
C405 C 0.51794 0.6321 0.19957 0.0
N406 N 0.52009 0.73623 0.20973 0.0
N407 N 0.50785 0.65188 0.21299 0.0
H408 H 0.9112 0.42152 0.32075 0.0
H409 H 0.85187 0.53193 0.40821 0.0
H410 H 0.97171 0.52941 0.33555 0.0
H411 H 0.7848 0.42726 0.38393 0.0
H412 H 0.90012 0.52761 0.39158 0.0
H413 H 0.86898 0.41988 0.35297 0.0
C414 C 0.91591 0.44476 0.33109 0.0
C415 C 0.94494 0.47569 0.32512 0.0
C416 C 0.87491 0.50544 0.39021 0.0
C417 C 0.89684 0.47395 0.36207 0.0
C418 C 0.8473 0.50786 0.39976 0.0
C419 C 0.81407 0.48012 0.3969 0.0
C420 C 0.86931 0.47513 0.3775 0.0
C421 C 0.80988 0.44945 0.38617 0.0
C422 C 0.89184 0.44378 0.34952 0.0
C423 C 0.94997 0.50491 0.33953 0.0
N424 N 0.83711 0.44793 0.37642 0.0
N425 N 0.92598 0.50335 0.35703 0.0
H426 H 0.15699 0.52375 0.37002 0.0
H427 H 0.1572 0.65523 0.48229 0.0
H428 H 0.09535 0.5712 0.36361 0.0
H429 H 0.23017 0.62078 0.48492 0.0
H430 H 0.12824 0.61692 0.44257 0.0
H431 H 0.17747 0.55092 0.41634 0.0
C432 C 0.14724 0.53926 0.37845 0.0
C433 C 0.12457 0.54529 0.36257 0.0
C434 C 0.15053 0.61762 0.45185 0.0
C435 C 0.14784 0.57632 0.41547 0.0
C436 C 0.1672 0.63964 0.4745 0.0
C437 C 0.19642 0.64155 0.48678 0.0
C438 C 0.16316 0.59734 0.44123 0.0
C439 C 0.20791 0.62038 0.47593 0.0
C440 C 0.15897 0.55477 0.40487 0.0
C441 C 0.11242 0.56522 0.3749 0.0
N442 N 0.19136 0.59927 0.45363 0.0
N443 N 0.12447 0.58022 0.40038 0.0
H444 H 0.4751 0.10651 0.52401 0.0
H445 H 0.60402 0.22135 0.64669 0.0
H446 H 0.58454 0.15429 0.51803 0.0
H447 H 0.49459 0.16389 0.65416 0.0
H448 H 0.59799 0.19477 0.6006 0.0
H449 H 0.48226 0.12375 0.57301 0.0
C450 C 0.50068 0.11999 0.5331 0.0
C451 C 0.52929 0.12903 0.51674 0.0
C452 C 0.57535 0.18784 0.61244 0.0
C453 C 0.53769 0.14993 0.57291 0.0
C454 C 0.57875 0.20309 0.6387 0.0
C455 C 0.54973 0.19506 0.65421 0.0
C456 C 0.5427 0.16453 0.60159 0.0
C457 C 0.51766 0.17106 0.64289 0.0
C458 C 0.50475 0.13017 0.56112 0.0
C459 C 0.56178 0.14724 0.52972 0.0
N460 N 0.51502 0.15682 0.61722 0.0
N461 N 0.56512 0.15742 0.55699 0.0
H462 H 0.42842 0.49898 0.69751 0.0
H463 H 0.42768 0.61972 0.81875 0.0
H464 H 0.48611 0.60785 0.69437 0.0
H465 H 0.38069 0.51139 0.82433 0.0
H466 H 0.45285 0.61667 0.77472 0.0
H467 H 0.41551 0.50375 0.74584 0.0
C468 C 0.4391 0.52395 0.70713 0.0
C469 C 0.45824 0.55308 0.69168 0.0
C470 C 0.43725 0.59363 0.78573 0.0
C471 C 0.44245 0.55869 0.74701 0.0
C472 C 0.42278 0.59533 0.81081 0.0
C473 C 0.40173 0.56572 0.82512 0.0
C474 C 0.4305 0.56209 0.77485 0.0
C475 C 0.39647 0.53486 0.81394 0.0
C476 C 0.43137 0.52665 0.73474 0.0
C477 C 0.47072 0.58471 0.7053 0.0
N478 N 0.41054 0.53385 0.78941 0.0
N479 N 0.46224 0.58669 0.73209 0.0
H480 H 0.91772 0.49097 0.82943 0.0
H481 H 0.83074 0.38419 0.96331 0.0
H482 H 0.92584 0.40423 0.85118 0.0
H483 H 0.8558 0.48795 0.95535 0.0
H484 H 0.86252 0.38919 0.92091 0.0
H485 H 0.89342 0.48962 0.87503 0.0
C486 C 0.91506 0.47215 0.84418 0.0
C487 C 0.92394 0.44786 0.83686 0.0
C488 C 0.86112 0.41085 0.92859 0.0
C489 C 0.8952 0.44532 0.88842 0.0
C490 C 0.84276 0.40791 0.9526 0.0
C491 C 0.84057 0.43566 0.96282 0.0
C492 C 0.87691 0.44157 0.91461 0.0
C493 C 0.85685 0.46591 0.94825 0.0
C494 C 0.90105 0.47121 0.87007 0.0
C495 C 0.91963 0.42361 0.85636 0.0
N496 N 0.87415 0.46799 0.92482 0.0
N497 N 0.90506 0.42262 0.88119 0.0
H498 H 0.56534 0.93873 0.02618 0.0
H499 H 0.39021 0.84598 0.10759 0.0
H500 H 0.46926 0.92259 -0.00718 0.0
H501 H 0.48082 0.84385 0.13341 0.0
H502 H 0.42109 0.88124 0.06879 0.0
H503 H 0.53744 0.91299 0.0698 0.0
C504 C 0.53859 0.93064 0.02841 0.0
C505 C 0.51943 0.9326 0.00601 0.0
C506 C 0.43424 0.87307 0.08293 0.0
C507 C 0.48734 0.9026 0.05526 0.0
C508 C 0.41659 0.8528 0.10505 0.0
C509 C 0.43288 0.84172 0.12369 0.0
C510 C 0.46854 0.88253 0.07941 0.0
C511 C 0.46716 0.85155 0.1194 0.0
C512 C 0.5226 0.91558 0.05309 0.0
C513 C 0.48478 0.92134 0.00967 0.0
N514 N 0.48388 0.87143 0.09768 0.0
N515 N 0.46975 0.90654 0.03374 0.0
H516 H 0.66332 0.58637 0.21231 0.0
H517 H 0.65183 0.452 0.32235 0.0
H518 H 0.58878 0.48001 0.20561 0.0
H519 H 0.72133 0.55947 0.33148 0.0
H520 H 0.62685 0.46184 0.28051 0.0
H521 H 0.68226 0.57738 0.2576 0.0
C522 C 0.65043 0.56122 0.2206 0.0
C523 C 0.62447 0.53387 0.20506 0.0
C524 C 0.64749 0.48327 0.29173 0.0
C525 C 0.64674 0.52322 0.25666 0.0
C526 C 0.66188 0.47766 0.31556 0.0
C527 C 0.68886 0.50493 0.33039 0.0
C528 C 0.66024 0.51638 0.2826 0.0
C529 C 0.70068 0.53765 0.32068 0.0
C530 C 0.66152 0.55603 0.24638 0.0
C531 C 0.6092 0.50173 0.21672 0.0
N532 N 0.68637 0.54242 0.29736 0.0
N533 N 0.62076 0.49724 0.2417 0.0
H534 H 0.43241 0.98746 0.35884 0.0
H535 H 0.45578 0.84516 0.28016 0.0
H536 H 0.4898 0.94467 0.39474 0.0
H537 H 0.38388 0.87601 0.25461 0.0
H538 H 0.47529 0.88684 0.31894 0.0
H539 H 0.42302 0.95367 0.31634 0.0
C540 C 0.44378 0.97156 0.35755 0.0
C541 C 0.46179 0.96876 0.38046 0.0
C542 C 0.45531 0.88446 0.30477 0.0
C543 C 0.4502 0.92915 0.33205 0.0
C544 C 0.4441 0.86065 0.2827 0.0
C545 C 0.41798 0.85692 0.26424 0.0
C546 C 0.44046 0.90481 0.3082 0.0
C547 C 0.40387 0.87777 0.26844 0.0
C548 C 0.438 0.95191 0.33337 0.0
C549 C 0.47539 0.94724 0.37768 0.0
N550 N 0.4153 0.90078 0.28995 0.0
N551 N 0.46903 0.92797 0.35399 0.0
H552 H 0.52802 0.46645 0.54334 0.0
H553 H 0.71804 0.53956 0.4917 0.0
H554 H 0.61577 0.53076 0.59623 0.0
H555 H 0.63254 0.4467 0.45877 0.0
H556 H 0.68092 0.54297 0.5267 0.0
H557 H 0.56608 0.46681 0.50741 0.0
C558 C 0.55535 0.4813 0.54707 0.0
C559 C 0.56888 0.49869 0.57266 0.0
C560 C 0.67042 0.52179 0.51188 0.0
C561 C 0.61238 0.49874 0.53203 0.0
C562 C 0.69155 0.51976 0.49198 0.0
C563 C 0.67836 0.49273 0.47236 0.0
C564 C 0.63577 0.49699 0.51178 0.0
C565 C 0.64384 0.46783 0.47362 0.0
C566 C 0.57699 0.48112 0.52677 0.0
C567 C 0.60444 0.51703 0.57672 0.0
N568 N 0.62365 0.47072 0.49284 0.0
N569 N 0.62504 0.51655 0.5566 0.0
H570 H 0.08778 0.50371 0.70124 0.0
H571 H 0.17846 0.68905 0.6411 0.0
H572 H 0.09304 0.58803 0.74732 0.0
H573 H 0.2089 0.61605 0.62003 0.0
H574 H 0.1404 0.65076 0.67604 0.0
H575 H 0.12385 0.54257 0.66559 0.0
C576 C 0.09584 0.5303 0.70341 0.0
C577 C 0.08738 0.54281 0.72701 0.0
C578 C 0.15565 0.64331 0.6639 0.0
C579 C 0.12888 0.58723 0.68685 0.0
C580 C 0.17743 0.66515 0.64408 0.0
C581 C 0.19695 0.65574 0.62775 0.0
C582 C 0.15282 0.61158 0.66695 0.0
C583 C 0.19454 0.62442 0.63235 0.0
C584 C 0.11676 0.55247 0.68336 0.0
C585 C 0.09898 0.57753 0.72927 0.0
N586 N 0.17254 0.60326 0.65132 0.0
N587 N 0.1192 0.59861 0.70941 0.0
H588 H 0.53948 0.08625 0.91743 0.0
H589 H 0.61799 0.20071 0.78578 0.0
H590 H 0.62064 0.08766 0.87067 0.0
H591 H 0.51646 0.16983 0.81331 0.0
H592 H 0.62145 0.16257 0.81915 0.0
H593 H 0.53104 0.11817 0.88066 0.0
C594 C 0.55487 0.09258 0.899 0.0
C595 C 0.58057 0.08421 0.89681 0.0
C596 C 0.59842 0.16415 0.81783 0.0
C597 C 0.57205 0.12164 0.85538 0.0
C598 C 0.59657 0.18619 0.79904 0.0
C599 C 0.56692 0.18851 0.79682 0.0
C600 C 0.57061 0.14465 0.83478 0.0
C601 C 0.53981 0.16882 0.81432 0.0
C602 C 0.55026 0.11095 0.87817 0.0
C603 C 0.60028 0.09333 0.87284 0.0
N604 N 0.54235 0.14781 0.83266 0.0
N605 N 0.59597 0.11206 0.8532 0.0
H606 H 0.50289 0.54796 0.07821 0.0
H607 H 0.4264 0.63221 -0.0233 0.0
H608 H 0.51533 0.64678 0.0933 0.0
H609 H 0.39362 0.52581 -0.0269 0.0
H610 H 0.46219 0.63905 0.0178 0.0
H611 H 0.4661 0.54036 0.03727 0.0
C612 C 0.49787 0.56799 0.07285 0.0
C613 C 0.51177 0.59784 0.08924 0.0
C614 C 0.44702 0.61417 0.00807 0.0
C615 C 0.47012 0.58954 0.04269 0.0
C616 C 0.42659 0.61027 -0.01539 0.0
C617 C 0.40696 0.5784 0.97144 0.0
C618 C 0.4481 0.58609 0.01825 0.0
C619 C 0.40825 0.55085 -0.01738 0.0
C620 C 0.47681 0.56364 0.04966 0.0
C621 C 0.50459 0.62312 0.08147 0.0
N622 N 0.42862 0.55536 0.00529 0.0
N623 N 0.48433 0.61843 0.05874 0.0
H624 H 0.98819 0.50563 0.20567 0.0
H625 H 0.82031 0.37947 0.11603 0.0
H626 H 0.91557 0.40702 0.23522 0.0
H627 H 0.88173 0.48706 0.10507 0.0
H628 H 0.85838 0.38461 0.15542 0.0
H629 H 0.95433 0.49345 0.16303 0.0
C630 C 0.96558 0.48097 0.20298 0.0
C631 C 0.9548 0.45733 0.22427 0.0
C632 C 0.86336 0.40695 0.14426 0.0
C633 C 0.91483 0.44379 0.1755 0.0
C634 C 0.84168 0.40408 0.12189 0.0
C635 C 0.84773 0.43291 0.10734 0.0
C636 C 0.8914 0.43875 0.15169 0.0
C637 C 0.87583 0.46415 0.11573 0.0
C638 C 0.94588 0.47425 0.17867 0.0
C639 C 0.92462 0.42616 0.21953 0.0
N640 N 0.89657 0.46616 0.13722 0.0
N641 N 0.90543 0.42038 0.19572 0.0
loop_
_geom_bond_atom_site_label_1
_geom_bond_atom_site_label_2
_geom_bond_distance
_geom_bond_site_symmetry_2
_ccdc_geom_bond_type
H0 C8 0.930 . S
H1 C11 0.930 . S
H2 C13 0.930 . S
H3 C14 0.969 1_655 S
H4 C14 0.970 . S
H5 C16 0.930 . S
H6 C18 0.930 . S
H7 C20 0.930 . S
C8 H0 0.930 . S
C8 C9 1.382 . S
C8 C10 1.426 . S
C9 C8 1.382 . S
C9 C13 1.389 . S
C10 C8 1.426 . S
C10 C11 1.375 . S
C10 C14 1.532 1_655 S
C11 H1 0.930 . S
C11 C10 1.375 . S
C11 C12 1.416 . S
C12 C11 1.416 . S
C12 C13 1.371 . S
C13 H2 0.930 . S
C13 C9 1.389 . S
C13 C12 1.371 . S
C14 H3 0.969 1_455 S
C14 H4 0.970 . S
C14 C10 1.532 1_455 S
C14 C15 1.499 . S
C15 C14 1.499 . S
C15 C16 1.370 . S
C15 C20 1.415 . S
C16 H5 0.930 . S
C16 C15 1.370 . S
C16 C17 1.407 . S
C17 C16 1.407 . S
C17 C18 1.365 . S
C18 H6 0.930 . S
C18 C17 1.365 . S
C18 C19 1.393 . S
C19 C18 1.393 . S
C19 C20 1.387 . S
C20 H7 0.930 . S
C20 C15 1.415 . S
C20 C19 1.387 . S
H21 C29 0.930 . S
H22 C32 0.930 . S
H23 C34 0.930 . S
H24 C35 0.970 . S
H25 C35 0.970 . S
H26 C37 0.930 . S
H27 C39 0.930 . S
H28 C41 0.930 . S
C29 H21 0.930 . S
C29 C30 1.382 . S
C29 C31 1.426 . S
C30 C29 1.382 . S
C30 C34 1.389 . S
C31 C29 1.426 . S
C31 C32 1.375 . S
C31 C35 1.532 1_565 S
C32 H22 0.930 . S
C32 C31 1.375 . S
C32 C33 1.416 . S
C33 C32 1.416 . S
C33 C34 1.371 . S
C34 H23 0.930 . S
C34 C30 1.389 . S
C34 C33 1.371 . S
C35 H24 0.970 . S
C35 H25 0.970 . S
C35 C31 1.532 1_545 S
C35 C36 1.499 . S
C36 C35 1.499 . S
C36 C37 1.370 . S
C36 C41 1.415 . S
C37 H26 0.930 . S
C37 C36 1.370 . S
C37 C38 1.407 . S
C38 C37 1.407 . S
C38 C39 1.365 . S
C39 H27 0.930 . S
C39 C38 1.365 . S
C39 C40 1.393 . S
C40 C39 1.393 . S
C40 C41 1.387 . S
C41 H28 0.930 . S
C41 C36 1.415 . S
C41 C40 1.387 . S
H42 C50 0.930 . S
H43 C53 0.930 . S
H44 C55 0.930 . S
H45 C56 0.970 . S
H46 C56 0.970 . S
H47 C58 0.930 . S
H48 C60 0.930 . S
H49 C62 0.930 . S
C50 H42 0.930 . S
C50 C51 1.382 . S
C50 C52 1.426 . S
C51 C50 1.382 . S
C51 C55 1.389 . S
C52 C50 1.426 . S
C52 C53 1.375 . S
C52 C56 1.532 . S
C53 H43 0.930 . S
C53 C52 1.375 . S
C53 C54 1.416 . S
C54 C53 1.416 . S
C54 C55 1.371 . S
C55 H44 0.930 . S
C55 C51 1.389 . S
C55 C54 1.371 . S
C56 H45 0.970 . S
C56 H46 0.970 . S
C56 C52 1.532 . S
C56 C57 1.499 . S
C57 C56 1.499 . S
C57 C58 1.370 . S
C57 C62 1.415 . S
C58 H47 0.930 . S
C58 C57 1.370 . S
C58 C59 1.407 . S
C59 C58 1.407 . S
C59 C60 1.365 . S
C60 H48 0.930 . S
C60 C59 1.365 . S
C60 C61 1.393 . S
C61 C60 1.393 . S
C61 C62 1.387 . S
C62 H49 0.930 . S
C62 C57 1.415 . S
C62 C61 1.387 . S
H63 C71 0.930 . S
H64 C74 0.930 . S
H65 C76 0.930 . S
H66 C77 0.970 . S
H67 C77 0.970 . S
H68 C79 0.930 . S
H69 C81 0.930 . S
H70 C83 0.930 . S
C71 H63 0.930 . S
C71 C72 1.382 . S
C71 C73 1.426 . S
C72 C71 1.382 . S
C72 C76 1.389 . S
C73 C71 1.426 . S
C73 C74 1.375 . S
C73 C77 1.532 1_655 S
C74 H64 0.930 . S
C74 C73 1.375 . S
C74 C75 1.416 . S
C75 C74 1.416 . S
C75 C76 1.371 . S
C76 H65 0.930 . S
C76 C72 1.389 . S
C76 C75 1.371 . S
C77 H66 0.970 . S
C77 H67 0.970 . S
C77 C73 1.532 1_455 S
C77 C78 1.499 . S
C78 C77 1.499 . S
C78 C79 1.370 . S
C78 C83 1.415 . S
C79 H68 0.930 . S
C79 C78 1.370 . S
C79 C80 1.407 . S
C80 C79 1.407 . S
C80 C81 1.365 . S
C81 H69 0.930 . S
C81 C80 1.365 . S
C81 C82 1.393 . S
C82 C81 1.393 . S
C82 C83 1.387 . S
C83 H70 0.930 . S
C83 C78 1.415 . S
C83 C82 1.387 . S
H84 C92 0.930 . S
H85 C95 0.930 . S
H86 C97 0.930 . S
H87 C98 0.970 1_554 S
H88 C98 0.970 . S
H89 C100 0.930 . S
H90 C102 0.930 . S
H91 C104 0.930 . S
C92 H84 0.930 . S
C92 C93 1.382 1_554 S
C92 C94 1.426 1_554 S
C93 C92 1.382 1_556 S
C93 C97 1.389 . S
C94 C92 1.426 1_556 S
C94 C95 1.375 . S
C94 C98 1.532 . S
C95 H85 0.930 . S
C95 C94 1.375 . S
C95 C96 1.416 . S
C96 C95 1.416 . S
C96 C97 1.371 . S
C97 H86 0.930 . S
C97 C93 1.389 . S
C97 C96 1.371 . S
C98 H87 0.970 1_556 S
C98 H88 0.970 . S
C98 C94 1.532 . S
C98 C99 1.499 1_545 S
C99 C98 1.499 1_565 S
C99 C100 1.370 1_556 S
C99 C104 1.415 . S
C100 H89 0.930 . S
C100 C99 1.370 1_554 S
C100 C101 1.407 . S
C101 C100 1.407 . S
C101 C102 1.365 . S
C102 H90 0.930 . S
C102 C101 1.365 . S
C102 C103 1.393 1_554 S
C103 C102 1.393 1_556 S
C103 C104 1.387 . S
C104 H91 0.930 . S
C104 C99 1.415 . S
C104 C103 1.387 . S
H105 C113 0.930 . S
H106 C116 0.930 . S
H107 C118 0.930 . S
H108 C119 0.970 . S
H109 C119 0.970 . S
H110 C121 0.930 . S
H111 C123 0.930 . S
H112 C125 0.930 . S
C113 H105 0.930 . S
C113 C114 1.382 . S
C113 C115 1.426 . S
C114 C113 1.382 . S
C114 C118 1.389 . S
C115 C113 1.426 . S
C115 C116 1.375 . S
C115 C119 1.532 . S
C116 H106 0.930 . S
C116 C115 1.375 . S
C116 C117 1.416 . S
C117 C116 1.416 . S
C117 C118 1.371 . S
C118 H107 0.930 . S
C118 C114 1.389 . S
C118 C117 1.371 . S
C119 H108 0.970 . S
C119 H109 0.970 . S
C119 C115 1.532 . S
C119 C120 1.499 . S
C120 C119 1.499 . S
C120 C121 1.370 . S
C120 C125 1.415 . S
C121 H110 0.930 . S
C121 C120 1.370 . S
C121 C122 1.407 . S
C122 C121 1.407 . S
C122 C123 1.365 . S
C123 H111 0.930 . S
C123 C122 1.365 . S
C123 C124 1.393 . S
C124 C123 1.393 . S
C124 C125 1.387 . S
C125 H112 0.930 . S
C125 C120 1.415 . S
C125 C124 1.387 . S
Zn126 O129 2.031 . S
Zn126 O131 2.049 . S
Zn126 O136 2.067 . S
Zn127 O128 1.962 . S
Zn127 O130 1.986 . S
Zn127 O132 1.996 . S
Zn127 O135 1.943 . S
O128 Zn127 1.962 . S
O128 C133 1.254 . S
O129 Zn126 2.031 . S
O129 C133 1.269 . S
O130 Zn127 1.986 . S
O130 C137 1.262 . S
O131 Zn126 2.049 . S
O131 C139 1.260 . S
O132 Zn127 1.996 . S
O132 C139 1.257 . S
C133 O128 1.254 . S
C133 O129 1.269 . S
C134 O135 1.249 . S
C134 O136 1.270 . S
O135 Zn127 1.943 . S
O135 C134 1.249 . S
O136 Zn126 2.067 . S
O136 C134 1.270 . S
C137 O130 1.262 . S
C137 O138 1.232 . S
O138 C137 1.232 . S
C139 O131 1.260 . S
C139 O132 1.257 . S
Zn140 O143 2.031 . S
Zn140 O145 2.049 . S
Zn140 O150 2.067 . S
Zn141 O142 1.962 . S
Zn141 O144 1.986 . S
Zn141 O146 1.996 . S
Zn141 O149 1.943 . S
O142 Zn141 1.962 . S
O142 C147 1.254 . S
O143 Zn140 2.031 . S
O143 C147 1.269 . S
O144 Zn141 1.986 . S
O144 C151 1.262 . S
O145 Zn140 2.049 . S
O145 C153 1.260 . S
O146 Zn141 1.996 . S
O146 C153 1.257 . S
C147 O142 1.254 . S
C147 O143 1.269 . S
C148 O149 1.249 . S
C148 O150 1.270 . S
O149 Zn141 1.943 . S
O149 C148 1.249 . S
O150 Zn140 2.067 . S
O150 C148 1.270 . S
C151 O144 1.262 . S
C151 O152 1.232 . S
O152 C151 1.232 . S
C153 O145 1.260 . S
C153 O146 1.257 . S
Zn154 O157 2.031 . S
Zn154 O159 2.049 . S
Zn154 O164 2.067 . S
Zn155 O156 1.962 . S
Zn155 O158 1.986 . S
Zn155 O160 1.996 . S
Zn155 O163 1.943 . S
O156 Zn155 1.962 . S
O156 C161 1.254 . S
O157 Zn154 2.031 . S
O157 C161 1.269 . S
O158 Zn155 1.986 . S
O158 C165 1.262 . S
O159 Zn154 2.049 . S
O159 C167 1.260 . S
O160 Zn155 1.996 . S
O160 C167 1.257 . S
C161 O156 1.254 . S
C161 O157 1.269 . S
C162 O163 1.249 . S
C162 O164 1.270 . S
O163 Zn155 1.943 . S
O163 C162 1.249 . S
O164 Zn154 2.067 . S
O164 C162 1.270 . S
C165 O158 1.262 . S
C165 O166 1.232 . S
O166 C165 1.232 . S
C167 O159 1.260 . S
C167 O160 1.257 . S
Zn168 O171 2.031 . S
Zn168 O173 2.049 . S
Zn168 O178 2.067 . S
Zn169 O170 1.962 . S
Zn169 O172 1.986 . S
Zn169 O174 1.996 . S
Zn169 O177 1.943 . S
O170 Zn169 1.962 . S
O170 C175 1.254 . S
O171 Zn168 2.031 . S
O171 C175 1.269 . S
O172 Zn169 1.986 . S
O172 C179 1.262 . S
O173 Zn168 2.049 . S
O173 C181 1.260 . S
O174 Zn169 1.996 . S
O174 C181 1.257 . S
C175 O170 1.254 . S
C175 O171 1.269 . S
C176 O177 1.249 . S
C176 O178 1.270 . S
O177 Zn169 1.943 . S
O177 C176 1.249 . S
O178 Zn168 2.067 . S
O178 C176 1.270 . S
C179 O172 1.262 . S
C179 O180 1.232 . S
O180 C179 1.232 . S
C181 O173 1.260 . S
C181 O174 1.257 . S
Zn182 O185 2.031 . S
Zn182 O187 2.049 . S
Zn182 O192 2.067 . S
Zn183 O184 1.962 . S
Zn183 O186 1.986 . S
Zn183 O188 1.996 . S
Zn183 O191 1.943 . S
O184 Zn183 1.962 . S
O184 C189 1.254 . S
O185 Zn182 2.031 . S
O185 C189 1.269 . S
O186 Zn183 1.986 . S
O186 C193 1.262 . S
O187 Zn182 2.049 . S
O187 C195 1.260 . S
O188 Zn183 1.996 . S
O188 C195 1.257 . S
C189 O184 1.254 . S
C189 O185 1.269 . S
C190 O191 1.249 . S
C190 O192 1.270 . S
O191 Zn183 1.943 . S
O191 C190 1.249 . S
O192 Zn182 2.067 . S
O192 C190 1.270 . S
C193 O186 1.262 . S
C193 O194 1.232 . S
O194 C193 1.232 . S
C195 O187 1.260 . S
C195 O188 1.257 . S
Zn196 O199 2.031 . S
Zn196 O201 2.049 . S
Zn196 O206 2.067 . S
Zn197 O198 1.962 . S
Zn197 O200 1.986 . S
Zn197 O202 1.996 . S
Zn197 O205 1.943 . S
O198 Zn197 1.962 . S
O198 C203 1.254 . S
O199 Zn196 2.031 . S
O199 C203 1.269 . S
O200 Zn197 1.986 . S
O200 C207 1.262 . S
O201 Zn196 2.049 . S
O201 C209 1.260 . S
O202 Zn197 1.996 . S
O202 C209 1.257 . S
C203 O198 1.254 . S
C203 O199 1.269 . S
C204 O205 1.249 . S
C204 O206 1.270 . S
O205 Zn197 1.943 . S
O205 C204 1.249 . S
O206 Zn196 2.067 . S
O206 C204 1.270 . S
C207 O200 1.262 . S
C207 O208 1.232 . S
O208 C207 1.232 . S
C209 O201 1.260 . S
C209 O202 1.257 . S
H210 C216 0.930 . S
H211 C220 0.930 . S
H212 C225 0.929 . S
H213 C223 0.929 . S
H214 C218 0.929 . S
H215 C224 0.929 . S
C216 H210 0.930 . S
C216 C217 1.367 . S
C216 C224 1.378 . S
C217 C216 1.367 . S
C217 C225 1.433 . S
C218 H214 0.929 . S
C218 C220 1.378 . S
C218 C222 1.350 . S
C219 C222 1.463 . S
C219 C224 1.350 . S
C219 N227 1.427 . S
C220 H211 0.930 . S
C220 C218 1.378 . S
C220 C221 1.367 . S
C221 C220 1.367 . S
C221 C223 1.433 . S
C222 C218 1.350 . S
C222 C219 1.463 . S
C222 N226 1.427 . S
C223 H213 0.929 . S
C223 C221 1.433 . S
C223 N226 1.384 . S
C224 H215 0.929 . S
C224 C216 1.378 . S
C224 C219 1.350 . S
C225 H212 0.929 . S
C225 C217 1.433 . S
C225 N227 1.384 . S
N226 C222 1.427 . S
N226 C223 1.384 . S
N227 C219 1.427 . S
N227 C225 1.384 . S
H228 C234 0.930 . S
H229 C238 0.930 . S
H230 C243 0.929 . S
H231 C241 0.929 . S
H232 C236 0.929 . S
H233 C242 0.929 . S
C234 H228 0.930 . S
C234 C235 1.367 . S
C234 C242 1.378 . S
C235 C234 1.367 . S
C235 C243 1.433 . S
C236 H232 0.929 . S
C236 C238 1.378 . S
C236 C240 1.350 . S
C237 C240 1.463 . S
C237 C242 1.350 . S
C237 N245 1.427 . S
C238 H229 0.930 . S
C238 C236 1.378 . S
C238 C239 1.367 . S
C239 C238 1.367 . S
C239 C241 1.433 . S
C240 C236 1.350 . S
C240 C237 1.463 . S
C240 N244 1.427 . S
C241 H231 0.929 . S
C241 C239 1.433 . S
C241 N244 1.384 . S
C242 H233 0.929 . S
C242 C234 1.378 . S
C242 C237 1.350 . S
C243 H230 0.929 . S
C243 C235 1.433 . S
C243 N245 1.384 . S
N244 C240 1.427 . S
N244 C241 1.384 . S
N245 C237 1.427 . S
N245 C243 1.384 . S
H246 C252 0.930 . S
H247 C256 0.930 . S
H248 C261 0.929 . S
H249 C259 0.929 . S
H250 C254 0.929 . S
H251 C260 0.929 . S
C252 H246 0.930 . S
C252 C253 1.367 . S
C252 C260 1.378 . S
C253 C252 1.367 . S
C253 C261 1.433 . S
C254 H250 0.929 . S
C254 C256 1.378 . S
C254 C258 1.350 . S
C255 C258 1.463 . S
C255 C260 1.350 . S
C255 N263 1.427 . S
C256 H247 0.930 . S
C256 C254 1.378 . S
C256 C257 1.367 . S
C257 C256 1.367 . S
C257 C259 1.433 . S
C258 C254 1.350 . S
C258 C255 1.463 . S
C258 N262 1.427 . S
C259 H249 0.929 . S
C259 C257 1.433 . S
C259 N262 1.384 . S
C260 H251 0.929 . S
C260 C252 1.378 . S
C260 C255 1.350 . S
C261 H248 0.929 . S
C261 C253 1.433 . S
C261 N263 1.384 . S
N262 C258 1.427 . S
N262 C259 1.384 . S
N263 C255 1.427 . S
N263 C261 1.384 . S
H264 C270 0.930 . S
H265 C274 0.930 . S
H266 C279 0.929 . S
H267 C277 0.929 . S
H268 C272 0.929 . S
H269 C278 0.929 . S
C270 H264 0.930 . S
C270 C271 1.367 . S
C270 C278 1.378 . S
C271 C270 1.367 . S
C271 C279 1.433 . S
C272 H268 0.929 . S
C272 C274 1.378 . S
C272 C276 1.350 . S
C273 C276 1.463 . S
C273 C278 1.350 . S
C273 N281 1.427 . S
C274 H265 0.930 . S
C274 C272 1.378 . S
C274 C275 1.367 . S
C275 C274 1.367 . S
C275 C277 1.433 . S
C276 C272 1.350 . S
C276 C273 1.463 . S
C276 N280 1.427 . S
C277 H267 0.929 . S
C277 C275 1.433 . S
C277 N280 1.384 . S
C278 H269 0.929 . S
C278 C270 1.378 . S
C278 C273 1.350 . S
C279 H266 0.929 . S
C279 C271 1.433 . S
C279 N281 1.384 . S
N280 C276 1.427 . S
N280 C277 1.384 . S
N281 C273 1.427 . S
N281 C279 1.384 . S
H282 C288 0.930 1_554 S
H283 C292 0.930 . S
H284 C297 0.929 . S
H285 C295 0.929 . S
H286 C290 0.929 . S
H287 C296 0.929 . S
C288 H282 0.930 1_556 S
C288 C289 1.367 . S
C288 C296 1.378 . S
C289 C288 1.367 . S
C289 C297 1.433 . S
C290 H286 0.929 . S
C290 C292 1.378 . S
C290 C294 1.350 . S
C291 C294 1.463 . S
C291 C296 1.350 . S
C291 N299 1.427 . S
C292 H283 0.930 . S
C292 C290 1.378 . S
C292 C293 1.367 . S
C293 C292 1.367 . S
C293 C295 1.433 . S
C294 C290 1.350 . S
C294 C291 1.463 . S
C294 N298 1.427 . S
C295 H285 0.929 . S
C295 C293 1.433 . S
C295 N298 1.384 . S
C296 H287 0.929 . S
C296 C288 1.378 . S
C296 C291 1.350 . S
C297 H284 0.929 . S
C297 C289 1.433 . S
C297 N299 1.384 . S
N298 C294 1.427 . S
N298 C295 1.384 . S
N299 C291 1.427 . S
N299 C297 1.384 . S
H300 C306 0.930 . S
H301 C310 0.930 . S
H302 C315 0.929 . S
H303 C313 0.929 . S
H304 C308 0.929 . S
H305 C314 0.929 . S
C306 H300 0.930 . S
C306 C307 1.367 . S
C306 C314 1.378 . S
C307 C306 1.367 . S
C307 C315 1.433 . S
C308 H304 0.929 . S
C308 C310 1.378 . S
C308 C312 1.350 . S
C309 C312 1.463 . S
C309 C314 1.350 . S
C309 N317 1.427 . S
C310 H301 0.930 . S
C310 C308 1.378 . S
C310 C311 1.367 . S
C311 C310 1.367 . S
C311 C313 1.433 . S
C312 C308 1.350 . S
C312 C309 1.463 . S
C312 N316 1.427 . S
C313 H303 0.929 . S
C313 C311 1.433 . S
C313 N316 1.384 . S
C314 H305 0.929 . S
C314 C306 1.378 . S
C314 C309 1.350 . S
C315 H302 0.929 . S
C315 C307 1.433 . S
C315 N317 1.384 . S
N316 C312 1.427 . S
N316 C313 1.384 . S
N317 C309 1.427 . S
N317 C315 1.384 . S
H318 C324 0.930 . S
H319 C328 0.930 . S
H320 C333 0.929 . S
H321 C331 0.929 . S
H322 C326 0.929 . S
H323 C332 0.929 . S
C324 H318 0.930 . S
C324 C325 1.367 . S
C324 C332 1.378 . S
C325 C324 1.367 . S
C325 C333 1.433 . S
C326 H322 0.929 . S
C326 C328 1.378 . S
C326 C330 1.350 . S
C327 C330 1.463 . S
C327 C332 1.350 . S
C327 N335 1.427 . S
C328 H319 0.930 . S
C328 C326 1.378 . S
C328 C329 1.367 . S
C329 C328 1.367 . S
C329 C331 1.433 . S
C330 C326 1.350 . S
C330 C327 1.463 . S
C330 N334 1.427 . S
C331 H321 0.929 . S
C331 C329 1.433 . S
C331 N334 1.384 . S
C332 H323 0.929 . S
C332 C324 1.378 . S
C332 C327 1.350 . S
C333 H320 0.929 . S
C333 C325 1.433 . S
C333 N335 1.384 . S
N334 C330 1.427 . S
N334 C331 1.384 . S
N335 C327 1.427 . S
N335 C333 1.384 . S
H336 C342 0.930 . S
H337 C346 0.930 . S
H338 C351 0.929 . S
H339 C349 0.929 . S
H340 C344 0.929 . S
H341 C350 0.929 . S
C342 H336 0.930 . S
C342 C343 1.367 . S
C342 C350 1.378 . S
C343 C342 1.367 . S
C343 C351 1.433 . S
C344 H340 0.929 . S
C344 C346 1.378 . S
C344 C348 1.350 . S
C345 C348 1.463 . S
C345 C350 1.350 . S
C345 N353 1.427 . S
C346 H337 0.930 . S
C346 C344 1.378 . S
C346 C347 1.367 . S
C347 C346 1.367 . S
C347 C349 1.433 . S
C348 C344 1.350 . S
C348 C345 1.463 . S
C348 N352 1.427 . S
C349 H339 0.929 . S
C349 C347 1.433 . S
C349 N352 1.384 . S
C350 H341 0.929 . S
C350 C342 1.378 . S
C350 C345 1.350 . S
C351 H338 0.929 . S
C351 C343 1.433 . S
C351 N353 1.384 . S
N352 C348 1.427 . S
N352 C349 1.384 . S
N353 C345 1.427 . S
N353 C351 1.384 . S
H354 C360 0.930 . S
H355 C364 0.930 . S
H356 C369 0.929 . S
H357 C367 0.929 . S
H358 C362 0.929 . S
H359 C368 0.929 . S
C360 H354 0.930 . S
C360 C361 1.367 . S
C360 C368 1.378 . S
C361 C360 1.367 . S
C361 C369 1.433 . S
C362 H358 0.929 . S
C362 C364 1.378 . S
C362 C366 1.350 . S
C363 C366 1.463 . S
C363 C368 1.350 . S
C363 N371 1.427 . S
C364 H355 0.930 . S
C364 C362 1.378 . S
C364 C365 1.367 . S
C365 C364 1.367 . S
C365 C367 1.433 . S
C366 C362 1.350 . S
C366 C363 1.463 . S
C366 N370 1.427 . S
C367 H357 0.929 . S
C367 C365 1.433 . S
C367 N370 1.384 . S
C368 H359 0.929 . S
C368 C360 1.378 . S
C368 C363 1.350 . S
C369 H356 0.929 . S
C369 C361 1.433 . S
C369 N371 1.384 . S
N370 C366 1.427 . S
N370 C367 1.384 . S
N371 C363 1.427 . S
N371 C369 1.384 . S
H372 C378 0.930 . S
H373 C382 0.930 . S
H374 C387 0.929 . S
H375 C385 0.929 . S
H376 C380 0.932 . S
H377 C386 0.929 . S
C378 H372 0.930 . S
C378 C379 1.367 . S
C378 C386 1.378 . S
C379 C378 1.367 . S
C379 C387 1.433 1_554 S
C380 H376 0.932 . S
C380 C382 1.378 . S
C380 C384 1.350 . S
C381 C384 1.463 . S
C381 C386 1.350 . S
C381 N389 1.427 . S
C382 H373 0.930 . S
C382 C380 1.378 . S
C382 C383 1.367 . S
C383 C382 1.367 . S
C383 C385 1.433 . S
C384 C380 1.350 . S
C384 C381 1.463 . S
C384 N388 1.427 . S
C385 H375 0.929 . S
C385 C383 1.433 . S
C385 N388 1.384 . S
C386 H377 0.929 . S
C386 C378 1.378 . S
C386 C381 1.350 . S
C387 H374 0.929 . S
C387 C379 1.433 1_556 S
C387 N389 1.384 1_556 S
N388 C384 1.427 . S
N388 C385 1.384 . S
N389 C381 1.427 . S
N389 C387 1.384 1_554 S
H390 C396 0.930 . S
H391 C400 0.930 . S
H392 C405 0.929 . S
H393 C403 0.929 . S
H394 C398 0.929 . S
H395 C404 0.929 . S
C396 H390 0.930 . S
C396 C397 1.367 . S
C396 C404 1.378 . S
C397 C396 1.367 . S
C397 C405 1.433 . S
C398 H394 0.929 . S
C398 C400 1.378 . S
C398 C402 1.350 . S
C399 C402 1.463 . S
C399 C404 1.350 . S
C399 N407 1.427 . S
C400 H391 0.930 . S
C400 C398 1.378 . S
C400 C401 1.367 . S
C401 C400 1.367 . S
C401 C403 1.433 . S
C402 C398 1.350 . S
C402 C399 1.463 . S
C402 N406 1.427 . S
C403 H393 0.929 . S
C403 C401 1.433 . S
C403 N406 1.384 . S
C404 H395 0.929 . S
C404 C396 1.378 . S
C404 C399 1.350 . S
C405 H392 0.929 . S
C405 C397 1.433 . S
C405 N407 1.384 . S
N406 C402 1.427 . S
N406 C403 1.384 . S
N407 C399 1.427 . S
N407 C405 1.384 . S
H408 C414 0.930 . S
H409 C418 0.930 . S
H410 C423 0.929 . S
H411 C421 0.929 . S
H412 C416 0.929 . S
H413 C422 0.929 . S
C414 H408 0.930 . S
C414 C415 1.367 . S
C414 C422 1.378 . S
C415 C414 1.367 . S
C415 C423 1.433 . S
C416 H412 0.929 . S
C416 C418 1.378 . S
C416 C420 1.350 . S
C417 C420 1.463 . S
C417 C422 1.350 . S
C417 N425 1.427 . S
C418 H409 0.930 . S
C418 C416 1.378 . S
C418 C419 1.367 . S
C419 C418 1.367 . S
C419 C421 1.433 . S
C420 C416 1.350 . S
C420 C417 1.463 . S
C420 N424 1.427 . S
C421 H411 0.929 . S
C421 C419 1.433 . S
C421 N424 1.384 . S
C422 H413 0.929 . S
C422 C414 1.378 . S
C422 C417 1.350 . S
C423 H410 0.929 . S
C423 C415 1.433 . S
C423 N425 1.384 . S
N424 C420 1.427 . S
N424 C421 1.384 . S
N425 C417 1.427 . S
N425 C423 1.384 . S
H426 C432 0.930 . S
H427 C436 0.930 . S
H428 C441 0.929 . S
H429 C439 0.929 . S
H430 C434 0.929 . S
H431 C440 0.929 . S
C432 H426 0.930 . S
C432 C433 1.367 . S
C432 C440 1.378 . S
C433 C432 1.367 . S
C433 C441 1.433 . S
C434 H430 0.929 . S
C434 C436 1.378 . S
C434 C438 1.350 . S
C435 C438 1.463 . S
C435 C440 1.350 . S
C435 N443 1.427 . S
C436 H427 0.930 . S
C436 C434 1.378 . S
C436 C437 1.367 . S
C437 C436 1.367 . S
C437 C439 1.433 . S
C438 C434 1.350 . S
C438 C435 1.463 . S
C438 N442 1.427 . S
C439 H429 0.929 . S
C439 C437 1.433 . S
C439 N442 1.384 . S
C440 H431 0.929 . S
C440 C432 1.378 . S
C440 C435 1.350 . S
C441 H428 0.929 . S
C441 C433 1.433 . S
C441 N443 1.384 . S
N442 C438 1.427 . S
N442 C439 1.384 . S
N443 C435 1.427 . S
N443 C441 1.384 . S
H444 C450 0.930 . S
H445 C454 0.930 . S
H446 C459 0.929 . S
H447 C457 0.929 . S
H448 C452 0.929 . S
H449 C458 0.929 . S
C450 H444 0.930 . S
C450 C451 1.367 . S
C450 C458 1.378 . S
C451 C450 1.367 . S
C451 C459 1.433 . S
C452 H448 0.929 . S
C452 C454 1.378 . S
C452 C456 1.350 . S
C453 C456 1.463 . S
C453 C458 1.350 . S
C453 N461 1.427 . S
C454 H445 0.930 . S
C454 C452 1.378 . S
C454 C455 1.367 . S
C455 C454 1.367 . S
C455 C457 1.433 . S
C456 C452 1.350 . S
C456 C453 1.463 . S
C456 N460 1.427 . S
C457 H447 0.929 . S
C457 C455 1.433 . S
C457 N460 1.384 . S
C458 H449 0.929 . S
C458 C450 1.378 . S
C458 C453 1.350 . S
C459 H446 0.929 . S
C459 C451 1.433 . S
C459 N461 1.384 . S
N460 C456 1.427 . S
N460 C457 1.384 . S
N461 C453 1.427 . S
N461 C459 1.384 . S
H462 C468 0.930 . S
H463 C472 0.930 . S
H464 C477 0.929 . S
H465 C475 0.929 . S
H466 C470 0.929 . S
H467 C476 0.929 . S
C468 H462 0.930 . S
C468 C469 1.367 . S
C468 C476 1.378 . S
C469 C468 1.367 . S
C469 C477 1.433 . S
C470 H466 0.929 . S
C470 C472 1.378 . S
C470 C474 1.350 . S
C471 C474 1.463 . S
C471 C476 1.350 . S
C471 N479 1.427 . S
C472 H463 0.930 . S
C472 C470 1.378 . S
C472 C473 1.367 . S
C473 C472 1.367 . S
C473 C475 1.433 . S
C474 C470 1.350 . S
C474 C471 1.463 . S
C474 N478 1.427 . S
C475 H465 0.929 . S
C475 C473 1.433 . S
C475 N478 1.384 . S
C476 H467 0.929 . S
C476 C468 1.378 . S
C476 C471 1.350 . S
C477 H464 0.929 . S
C477 C469 1.433 . S
C477 N479 1.384 . S
N478 C474 1.427 . S
N478 C475 1.384 . S
N479 C471 1.427 . S
N479 C477 1.384 . S
H480 C486 0.930 . S
H481 C490 0.930 . S
H482 C495 0.929 . S
H483 C493 0.931 . S
H484 C488 0.929 . S
H485 C494 0.929 . S
C486 H480 0.930 . S
C486 C487 1.367 . S
C486 C494 1.378 . S
C487 C486 1.367 . S
C487 C495 1.433 . S
C488 H484 0.929 . S
C488 C490 1.378 . S
C488 C492 1.350 . S
C489 C492 1.463 . S
C489 C494 1.350 . S
C489 N497 1.427 . S
C490 H481 0.930 . S
C490 C488 1.378 . S
C490 C491 1.359 1_556 S
C491 C490 1.359 1_554 S
C491 C493 1.433 . S
C492 C488 1.350 . S
C492 C489 1.463 . S
C492 N496 1.427 . S
C493 H483 0.931 . S
C493 C491 1.433 . S
C493 N496 1.382 1_554 S
C494 H485 0.929 . S
C494 C486 1.378 . S
C494 C489 1.350 . S
C495 H482 0.929 . S
C495 C487 1.433 . S
C495 N497 1.384 . S
N496 C492 1.427 . S
N496 C493 1.382 1_556 S
N497 C489 1.427 . S
N497 C495 1.384 . S
H498 C504 0.930 . S
H499 C508 0.930 . S
H500 C513 0.929 . S
H501 C511 0.929 . S
H502 C506 0.929 . S
H503 C512 0.929 . S
C504 H498 0.930 . S
C504 C505 1.367 . S
C504 C512 1.378 . S
C505 C504 1.367 . S
C505 C513 1.433 . S
C506 H502 0.929 . S
C506 C508 1.378 . S
C506 C510 1.350 . S
C507 C510 1.463 . S
C507 C512 1.350 . S
C507 N515 1.427 . S
C508 H499 0.930 . S
C508 C506 1.378 . S
C508 C509 1.367 . S
C509 C508 1.367 . S
C509 C511 1.433 . S
C510 C506 1.350 . S
C510 C507 1.463 . S
C510 N514 1.427 . S
C511 H501 0.929 . S
C511 C509 1.433 . S
C511 N514 1.384 . S
C512 H503 0.929 . S
C512 C504 1.378 . S
C512 C507 1.350 . S
C513 H500 0.929 . S
C513 C505 1.433 . S
C513 N515 1.384 . S
N514 C510 1.427 . S
N514 C511 1.384 . S
N515 C507 1.427 . S
N515 C513 1.384 . S
H516 C522 0.930 . S
H517 C526 0.930 . S
H518 C531 0.929 . S
H519 C529 0.929 . S
H520 C524 0.929 . S
H521 C530 0.929 . S
C522 H516 0.930 . S
C522 C523 1.367 . S
C522 C530 1.378 . S
C523 C522 1.367 . S
C523 C531 1.433 . S
C524 H520 0.929 . S
C524 C526 1.378 . S
C524 C528 1.350 . S
C525 C528 1.463 . S
C525 C530 1.350 . S
C525 N533 1.427 . S
C526 H517 0.930 . S
C526 C524 1.378 . S
C526 C527 1.367 . S
C527 C526 1.367 . S
C527 C529 1.433 . S
C528 C524 1.350 . S
C528 C525 1.463 . S
C528 N532 1.427 . S
C529 H519 0.929 . S
C529 C527 1.433 . S
C529 N532 1.384 . S
C530 H521 0.929 . S
C530 C522 1.378 . S
C530 C525 1.350 . S
C531 H518 0.929 . S
C531 C523 1.433 . S
C531 N533 1.384 . S
N532 C528 1.427 . S
N532 C529 1.384 . S
N533 C525 1.427 . S
N533 C531 1.384 . S
H534 C540 0.930 . S
H535 C544 0.930 . S
H536 C549 0.929 . S
H537 C547 0.929 . S
H538 C542 0.929 . S
H539 C548 0.929 . S
C540 H534 0.930 . S
C540 C541 1.367 . S
C540 C548 1.378 . S
C541 C540 1.367 . S
C541 C549 1.433 . S
C542 H538 0.929 . S
C542 C544 1.378 . S
C542 C546 1.350 . S
C543 C546 1.463 . S
C543 C548 1.350 . S
C543 N551 1.427 . S
C544 H535 0.930 . S
C544 C542 1.378 . S
C544 C545 1.367 . S
C545 C544 1.367 . S
C545 C547 1.433 . S
C546 C542 1.350 . S
C546 C543 1.463 . S
C546 N550 1.427 . S
C547 H537 0.929 . S
C547 C545 1.433 . S
C547 N550 1.384 . S
C548 H539 0.929 . S
C548 C540 1.378 . S
C548 C543 1.350 . S
C549 H536 0.929 . S
C549 C541 1.433 . S
C549 N551 1.384 . S
N550 C546 1.427 . S
N550 C547 1.384 . S
N551 C543 1.427 . S
N551 C549 1.384 . S
H552 C558 0.930 . S
H553 C562 0.930 . S
H554 C567 0.929 . S
H555 C565 0.929 . S
H556 C560 0.929 . S
H557 C566 0.929 . S
C558 H552 0.930 . S
C558 C559 1.367 . S
C558 C566 1.378 . S
C559 C558 1.367 . S
C559 C567 1.433 . S
C560 H556 0.929 . S
C560 C562 1.378 . S
C560 C564 1.350 . S
C561 C564 1.463 . S
C561 C566 1.350 . S
C561 N569 1.427 . S
C562 H553 0.930 . S
C562 C560 1.378 . S
C562 C563 1.367 . S
C563 C562 1.367 . S
C563 C565 1.433 . S
C564 C560 1.350 . S
C564 C561 1.463 . S
C564 N568 1.427 . S
C565 H555 0.929 . S
C565 C563 1.433 . S
C565 N568 1.384 . S
C566 H557 0.929 . S
C566 C558 1.378 . S
C566 C561 1.350 . S
C567 H554 0.929 . S
C567 C559 1.433 . S
C567 N569 1.384 . S
N568 C564 1.427 . S
N568 C565 1.384 . S
N569 C561 1.427 . S
N569 C567 1.384 . S
H570 C576 0.930 . S
H571 C580 0.930 . S
H572 C585 0.929 . S
H573 C583 0.929 . S
H574 C578 0.929 . S
H575 C584 0.929 . S
C576 H570 0.930 . S
C576 C577 1.367 . S
C576 C584 1.378 . S
C577 C576 1.367 . S
C577 C585 1.433 . S
C578 H574 0.929 . S
C578 C580 1.378 . S
C578 C582 1.350 . S
C579 C582 1.463 . S
C579 C584 1.350 . S
C579 N587 1.427 . S
C580 H571 0.930 . S
C580 C578 1.378 . S
C580 C581 1.367 . S
C581 C580 1.367 . S
C581 C583 1.433 . S
C582 C578 1.350 . S
C582 C579 1.463 . S
C582 N586 1.427 . S
C583 H573 0.929 . S
C583 C581 1.433 . S
C583 N586 1.384 . S
C584 H575 0.929 . S
C584 C576 1.378 . S
C584 C579 1.350 . S
C585 H572 0.929 . S
C585 C577 1.433 . S
C585 N587 1.384 . S
N586 C582 1.427 . S
N586 C583 1.384 . S
N587 C579 1.427 . S
N587 C585 1.384 . S
H588 C594 0.930 . S
H589 C598 0.930 . S
H590 C603 0.929 . S
H591 C601 0.929 . S
H592 C596 0.929 . S
H593 C602 0.929 . S
C594 H588 0.930 . S
C594 C595 1.367 . S
C594 C602 1.378 . S
C595 C594 1.367 . S
C595 C603 1.433 . S
C596 H592 0.929 . S
C596 C598 1.378 . S
C596 C600 1.350 . S
C597 C600 1.463 . S
C597 C602 1.350 . S
C597 N605 1.427 . S
C598 H589 0.930 . S
C598 C596 1.378 . S
C598 C599 1.367 . S
C599 C598 1.367 . S
C599 C601 1.433 . S
C600 C596 1.350 . S
C600 C597 1.463 . S
C600 N604 1.427 . S
C601 H591 0.929 . S
C601 C599 1.433 . S
C601 N604 1.384 . S
C602 H593 0.929 . S
C602 C594 1.378 . S
C602 C597 1.350 . S
C603 H590 0.929 . S
C603 C595 1.433 . S
C603 N605 1.384 . S
N604 C600 1.427 . S
N604 C601 1.384 . S
N605 C597 1.427 . S
N605 C603 1.384 . S
H606 C612 0.930 . S
H607 C616 0.930 . S
H608 C621 0.929 . S
H609 C619 0.929 . S
H610 C614 0.929 . S
H611 C620 0.929 . S
C612 H606 0.930 . S
C612 C613 1.367 . S
C612 C620 1.378 . S
C613 C612 1.367 . S
C613 C621 1.433 . S
C614 H610 0.929 . S
C614 C616 1.378 1_554 S
C614 C618 1.350 . S
C615 C618 1.463 . S
C615 C620 1.350 . S
C615 N623 1.427 . S
C616 H607 0.930 . S
C616 C614 1.378 1_556 S
C616 C617 1.367 . S
C617 C616 1.367 . S
C617 C619 1.433 . S
C618 C614 1.350 . S
C618 C615 1.463 . S
C618 N622 1.427 . S
C619 H609 0.929 . S
C619 C617 1.433 . S
C619 N622 1.384 1_556 S
C620 H611 0.929 . S
C620 C612 1.378 . S
C620 C615 1.350 . S
C621 H608 0.929 . S
C621 C613 1.433 . S
C621 N623 1.384 . S
N622 C618 1.427 . S
N622 C619 1.384 1_554 S
N623 C615 1.427 . S
N623 C621 1.384 . S
H624 C630 0.930 . S
H625 C634 0.930 . S
H626 C639 0.929 . S
H627 C637 0.929 . S
H628 C632 0.929 . S
H629 C638 0.929 . S
C630 H624 0.930 . S
C630 C631 1.367 . S
C630 C638 1.378 . S
C631 C630 1.367 . S
C631 C639 1.433 . S
C632 H628 0.929 . S
C632 C634 1.378 . S
C632 C636 1.350 . S
C633 C636 1.463 . S
C633 C638 1.350 . S
C633 N641 1.427 . S
C634 H625 0.930 . S
C634 C632 1.378 . S
C634 C635 1.367 . S
C635 C634 1.367 . S
C635 C637 1.433 . S
C636 C632 1.350 . S
C636 C633 1.463 . S
C636 N640 1.427 . S
C637 H627 0.929 . S
C637 C635 1.433 . S
C637 N640 1.384 . S
C638 H629 0.929 . S
C638 C630 1.378 . S
C638 C633 1.350 . S
C639 H626 0.929 . S
C639 C631 1.433 . S
C639 N641 1.384 . S
N640 C636 1.427 . S
N640 C637 1.384 . S
N641 C633 1.427 . S
N641 C639 1.384 . S
C221 C203 1.568 . S
C217 C19 1.481 . S
C235 C40 1.399 . S
C239 C137 1.473 . S
C253 C51 1.353 . S
C257 C151 1.422 . S
C271 C72 1.372 . S
C275 C165 1.468 . S
C293 C179 1.482 . S
C289 C103 1.400 . S
C307 C114 1.433 . S
C311 C189 1.521 . S
C325 C30 1.476 . S
C329 C147 1.577 . S
C343 C61 1.531 . S
C347 C161 1.625 . S
C361 C82 1.465 . S
C365 C175 1.560 . S
C383 C193 1.468 . S
C379 C93 1.386 1_554 S
C401 C207 1.512 . S
C397 C124 1.428 . S
C419 C133 1.554 . S
C415 C9 1.460 . S
C433 C17 1.453 . S
C437 C148 1.459 . S
C451 C38 1.498 . S
C455 C162 1.526 . S
C473 C176 1.534 . S
C469 C54 1.500 . S
C487 C75 1.423 . S
C491 C195 1.448 . S
C509 C209 1.395 . S
C505 C101 1.385 . S
C527 C134 1.442 . S
C523 C117 1.412 . S
C545 C204 1.435 . S
C541 C33 1.408 . S
C559 C59 1.325 . S
C563 C139 1.337 . S
C581 C153 1.358 . S
C577 C80 1.347 . S
C595 C96 1.396 . S
C599 C167 1.418 . S
C613 C122 1.416 . S
C617 C181 1.431 . S
C631 C12 1.443 . S
C635 C190 1.465 . S
