# Generated by pormake.
# Topology pyr, (3,6)-cn, num edge types: 1
# Building blocks:
#     Node 0, Type 0, BuildingBlock: BETDAH_clean_linker_0, # of connection points: 3
#     Node 1, Type 0, BuildingBlock: BETDAH_clean_linker_0, # of connection points: 3
#     Node 2, Type 0, BuildingBlock: BETDAH_clean_linker_0, # of connection points: 3
#     Node 3, Type 0, BuildingBlock: BETDAH_clean_linker_0, # of connection points: 3
#     Node 4, Type 0, BuildingBlock: BETDAH_clean_linker_0, # of connection points: 3
#     Node 5, Type 0, BuildingBlock: BETDAH_clean_linker_0, # of connection points: 3
#     Node 6, Type 0, BuildingBlock: BETDAH_clean_linker_0, # of connection points: 3
#     Node 7, Type 0, BuildingBlock: BETDAH_clean_linker_0, # of connection points: 3
#     Node 8, Type 1, BuildingBlock: FUNLAD_clean_sbu_0, # of connection points: 6
#     Node 9, Type 1, BuildingBlock: FUNLAD_clean_sbu_0, # of connection points: 6
#     Node 10, Type 1, BuildingBlock: FUNLAD_clean_sbu_0, # of connection points: 6
#     Node 11, Type 1, BuildingBlock: FUNLAD_clean_sbu_0, # of connection points: 6
#     Edge 12, Type (0, 1), BuildingBlock: XUDNAN_clean_linker_2, # of connection points: 2
#     Edge 13, Type (0, 1), BuildingBlock: XUDNAN_clean_linker_2, # of connection points: 2
#     Edge 14, Type (0, 1), BuildingBlock: XUDNAN_clean_linker_2, # of connection points: 2
#     Edge 15, Type (0, 1), BuildingBlock: XUDNAN_clean_linker_2, # of connection points: 2
#     Edge 16, Type (0, 1), BuildingBlock: XUDNAN_clean_linker_2, # of connection points: 2
#     Edge 17, Type (0, 1), BuildingBlock: XUDNAN_clean_linker_2, # of connection points: 2
#     Edge 18, Type (0, 1), BuildingBlock: XUDNAN_clean_linker_2, # of connection points: 2
#     Edge 19, Type (0, 1), BuildingBlock: XUDNAN_clean_linker_2, # of connection points: 2
#     Edge 20, Type (0, 1), BuildingBlock: XUDNAN_clean_linker_2, # of connection points: 2
#     Edge 21, Type (0, 1), BuildingBlock: XUDNAN_clean_linker_2, # of connection points: 2
#     Edge 22, Type (0, 1), BuildingBlock: XUDNAN_clean_linker_2, # of connection points: 2
#     Edge 23, Type (0, 1), BuildingBlock: XUDNAN_clean_linker_2, # of connection points: 2
#     Edge 24, Type (0, 1), BuildingBlock: XUDNAN_clean_linker_2, # of connection points: 2
#     Edge 25, Type (0, 1), BuildingBlock: XUDNAN_clean_linker_2, # of connection points: 2
#     Edge 26, Type (0, 1), BuildingBlock: XUDNAN_clean_linker_2, # of connection points: 2
#     Edge 27, Type (0, 1), BuildingBlock: XUDNAN_clean_linker_2, # of connection points: 2
#     Edge 28, Type (0, 1), BuildingBlock: XUDNAN_clean_linker_2, # of connection points: 2
#     Edge 29, Type (0, 1), BuildingBlock: XUDNAN_clean_linker_2, # of connection points: 2
#     Edge 30, Type (0, 1), BuildingBlock: XUDNAN_clean_linker_2, # of connection points: 2
#     Edge 31, Type (0, 1), BuildingBlock: XUDNAN_clean_linker_2, # of connection points: 2
#     Edge 32, Type (0, 1), BuildingBlock: XUDNAN_clean_linker_2, # of connection points: 2
#     Edge 33, Type (0, 1), BuildingBlock: XUDNAN_clean_linker_2, # of connection points: 2
#     Edge 34, Type (0, 1), BuildingBlock: XUDNAN_clean_linker_2, # of connection points: 2
#     Edge 35, Type (0, 1), BuildingBlock: XUDNAN_clean_linker_2, # of connection points: 2
# Relax obj value: 0.202
# Max RMSD: 0.208
# Mean RMSD: 0.131
data_MOF--net-pry--node1-FUNLAD_clean_sbu_0--node2-BETDAH_clean_linker_0--edge1-XUDNAN_clean_linker_2
_symmetry_space_group_name_H-M    P1
_symmetry_Int_Tables_number       1
_symmetry_cell_setting            triclinic
loop_
_symmetry_equiv_pos_as_xyz
'x, y, z'
_cell_length_a     33.916851
_cell_length_b     36.749772
_cell_length_c     38.329537
_cell_angle_alpha  90.090223
_cell_angle_beta   90.475238
_cell_angle_gamma 88.010806
loop_
_atom_site_label
_atom_site_type_symbol
_atom_site_fract_x
_atom_site_fract_y
_atom_site_fract_z
_atom_type_partial_charge
H0 H 0.20336 0.15716 0.25628 0.0
H1 H 0.19501 0.20996 0.15601 0.0
H2 H 0.10766 0.23417 0.23354 0.0
C3 C 0.1885 0.17611 0.23853 0.0
C4 C 0.15377 0.19506 0.24955 0.0
C5 C 0.20451 0.18188 0.20506 0.0
C6 C 0.18472 0.20674 0.18248 0.0
C7 C 0.15034 0.22613 0.1927 0.0
C8 C 0.13516 0.22041 0.22631 0.0
N9 N 0.12737 0.24468 0.16646 0.0
C10 C 0.1193 0.28222 0.16451 0.0
H11 H 0.45898 0.88182 0.76716 0.0
H12 H 0.35595 0.94657 0.79601 0.0
H13 H 0.35339 0.88154 0.70318 0.0
C14 C 0.42864 0.89071 0.76228 0.0
C15 C 0.4083 0.87765 0.73255 0.0
C16 C 0.40994 0.91604 0.78519 0.0
C17 C 0.37065 0.92732 0.77856 0.0
C18 C 0.35063 0.91576 0.74868 0.0
C19 C 0.36951 0.89116 0.72571 0.0
N20 N 0.31076 0.92782 0.74349 0.0
C21 C 0.29535 0.94135 0.71208 0.0
H22 H 0.67953 0.45368 1.0239 0.0
H23 H 0.6406 0.56567 0.03788 0.0
H24 H 0.55838 0.48686 1.00399 0.0
C25 C 0.6563 0.47469 1.02323 0.0
C26 C 0.61778 0.46576 1.01334 0.0
C27 C 0.66489 0.51074 1.03209 0.0
C28 C 0.6344 0.53762 1.03174 0.0
C29 C 0.59637 0.52918 1.02097 0.0
C30 C 0.58815 0.49332 1.01174 0.0
N31 N 0.56722 0.55741 1.01737 0.0
C32 C 0.54647 0.56114 0.98621 0.0
H33 H 0.88776 0.69104 0.52987 0.0
H34 H 0.97785 0.65066 0.46041 0.0
H35 H 0.88127 0.58328 0.48636 0.0
C36 C 0.90038 0.66918 0.51403 0.0
C37 C 0.88087 0.63626 0.51101 0.0
C38 C 0.93531 0.67452 0.49568 0.0
C39 C 0.951 0.64645 0.47472 0.0
C40 C 0.93132 0.61365 0.47092 0.0
C41 C 0.89663 0.60847 0.48953 0.0
N42 N 0.94459 0.5867 0.44679 0.0
C43 C 0.96459 0.59616 0.41684 0.0
H44 H 0.96328 0.88655 0.82499 0.0
H45 H 0.86236 0.86104 0.88734 0.0
H46 H 0.85235 0.94605 0.81098 0.0
C47 C 0.93257 0.89127 0.83175 0.0
C48 C 0.90985 0.91891 0.81435 0.0
C49 C 0.91557 0.87006 0.85827 0.0
C50 C 0.87586 0.87713 0.8673 0.0
C51 C 0.85332 0.90483 0.8507 0.0
C52 C 0.87026 0.9252 0.82416 0.0
N53 N 0.81233 0.90936 0.85751 0.0
C54 C 0.79691 0.92838 0.88614 0.0
H55 H 0.70284 0.15251 0.36816 0.0
H56 H 0.68734 0.25079 0.42932 0.0
H57 H 0.61167 0.23212 0.34152 0.0
C58 C 0.68769 0.17836 0.37312 0.0
C59 C 0.65626 0.18969 0.35078 0.0
C60 C 0.69949 0.19988 0.4018 0.0
C61 C 0.67861 0.23332 0.40808 0.0
C62 C 0.64683 0.24483 0.38646 0.0
C63 C 0.63636 0.22313 0.35784 0.0
N64 N 0.62463 0.27805 0.39215 0.0
C65 C 0.62629 0.30115 0.42117 0.0
H66 H 0.37827 0.66806 0.0923 0.0
H67 H 0.38882 0.55262 0.11027 0.0
H68 H 0.47445 0.62323 0.15426 0.0
C69 C 0.39433 0.64479 0.10343 0.0
C70 C 0.4286 0.64999 0.12341 0.0
C71 C 0.37999 0.6098 0.09827 0.0
C72 C 0.40024 0.57964 0.11325 0.0
C73 C 0.43345 0.58454 0.13443 0.0
C74 C 0.44793 0.61964 0.13888 0.0
N75 N 0.45056 0.55432 0.15273 0.0
C76 C 0.46835 0.55887 0.18514 0.0
H77 H 0.16707 0.4636 0.58804 0.0
H78 H 0.15799 0.58063 0.59319 0.0
H79 H 0.05387 0.51792 0.60035 0.0
C80 C 0.14914 0.48858 0.58919 0.0
C81 C 0.10819 0.48677 0.59302 0.0
C82 C 0.16748 0.52226 0.5894 0.0
C83 C 0.14414 0.55453 0.59157 0.0
C84 C 0.10324 0.55296 0.59588 0.0
C85 C 0.08541 0.51906 0.59635 0.0
N86 N 0.08118 0.58481 0.60535 0.0
C87 C 0.05946 0.58414 0.63584 0.0
C88 C 0.04991 0.10838 0.47673 0.0
N89 N 0.03207 0.15713 0.57451 0.0
C90 C 0.06735 0.17259 0.56915 0.0
C91 C 0.07284 0.20865 0.57862 0.0
C92 C 0.04148 0.22941 0.5931 0.0
C93 C 1.00592 0.21227 0.59983 0.0
C94 C 1.00189 0.17584 0.5904 0.0
Zn95 Zn 0.02377 0.10715 0.55316 0.0
C96 C 0.94421 0.10475 0.51812 0.0
N97 N 1.00779 1.00487 0.50505 0.0
C98 C 0.03753 0.98749 0.48739 0.0
C99 C 0.97429 0.98767 0.51329 0.0
C100 C 0.97083 0.95082 0.50586 0.0
C101 C 1.002 0.93148 0.48944 0.0
C102 C 0.03513 0.95062 0.47909 0.0
Zn103 Zn 1.01582 0.05468 0.5263 0.0
O104 O 0.04512 0.12716 0.50441 0.0
C105 C 0.09461 0.05727 0.56244 0.0
O106 O 0.04113 0.07489 0.47745 0.0
H107 H 0.95112 1.00204 0.52747 0.0
H108 H 0.09089 0.15738 0.55628 0.0
H109 H 0.06395 1.00176 0.48125 0.0
O110 O 0.082 0.08959 0.56856 0.0
O111 O 0.07307 0.03618 0.54489 0.0
H112 H 0.97408 0.163 0.59444 0.0
O113 O 0.99166 0.03504 0.57593 0.0
O114 O 1.00245 0.087 0.60162 0.0
O115 O 0.95777 0.07375 0.50808 0.0
O116 O 0.96531 0.12393 0.53801 0.0
C117 C 0.9909 0.05447 0.60355 0.0
H118 H 0.10111 0.22038 0.57374 0.0
H119 H 0.98085 0.22721 0.61074 0.0
H120 H 0.94494 0.9373 0.51483 0.0
H121 H 0.05955 0.93699 0.46584 0.0
C122 C 0.59622 0.03647 0.04092 0.0
N123 N 0.53436 0.13779 0.04237 0.0
C124 C 0.57055 0.15147 0.04838 0.0
C125 C 0.5785 0.18692 0.03855 0.0
C126 C 0.54883 0.20893 1.02269 0.0
C127 C 0.51177 0.19401 1.01645 0.0
C128 C 0.50516 0.15815 1.0265 0.0
Zn129 Zn 0.52561 0.08599 0.05924 0.0
C130 C 0.49095 0.03825 1.00326 0.0
N131 N 0.51199 0.97769 0.09454 0.0
C132 C 0.54133 0.95881 0.1118 0.0
C133 C 0.47698 0.96237 0.08705 0.0
C134 C 0.47076 0.92638 0.09616 0.0
C135 C 0.50072 0.906 0.11339 0.0
C136 C 0.5362 0.92271 0.12171 0.0
Zn137 Zn 0.51993 0.02928 0.07749 0.0
O138 O 0.58295 0.06928 0.03982 0.0
C139 C 0.55656 0.07622 0.13299 0.0
O140 O 0.57594 1.01278 0.05605 0.0
H141 H 0.45397 0.97795 0.07352 0.0
H142 H 0.59336 0.13493 0.06113 0.0
H143 H 0.56895 0.97157 0.11737 0.0
O144 O 0.55062 0.10009 0.10933 0.0
O145 O 0.54723 0.04355 0.12661 0.0
H146 H 0.47658 0.14672 1.02205 0.0
O147 O 0.4637 0.04608 0.09843 0.0
O148 O 0.46755 0.10188 0.0791 0.0
O149 O 0.49352 1.01545 1.02816 0.0
O150 O 0.50137 0.0708 1.00889 0.0
C151 C 0.44859 0.07817 0.09571 0.0
H152 H 0.60772 0.19691 0.04334 0.0
H153 H 0.48785 0.21007 1.00465 0.0
H154 H 0.44278 0.91457 0.08973 0.0
H155 H 0.56006 0.90774 0.13482 0.0
C156 C 0.55249 0.51678 0.5629 0.0
N157 N 0.54258 0.56741 0.66269 0.0
C158 C 0.52642 0.53794 0.67775 0.0
C159 C 0.52321 0.53598 0.71408 0.0
C160 C 0.53628 0.56488 0.73463 0.0
C161 C 0.55522 0.59358 0.71854 0.0
C162 C 0.55829 0.59421 0.68238 0.0
Zn163 Zn 0.53456 0.57851 0.61091 0.0
C164 C 0.60563 0.60758 0.57837 0.0
N165 N 0.51309 0.60691 0.50458 0.0
C166 C 0.492 0.58218 0.48654 0.0
C167 C 0.53102 0.63444 0.4879 0.0
C168 C 0.52923 0.63694 0.45145 0.0
C169 C 0.50871 0.61094 0.43219 0.0
C170 C 0.48936 0.58373 0.45033 0.0
Zn171 Zn 0.52234 0.59619 0.55643 0.0
O172 O 0.55473 0.52425 0.59536 0.0
C173 C 0.45155 0.56619 0.58943 0.0
O174 O 0.53918 0.54129 0.54213 0.0
H175 H 0.54791 0.65363 0.50272 0.0
H176 H 0.51379 0.51712 0.66158 0.0
H177 H 0.47866 0.56003 0.50009 0.0
O178 O 0.47631 0.56084 0.61405 0.0
O179 O 0.46238 0.58169 0.56169 0.0
H180 H 0.57088 0.61746 0.66995 0.0
O181 O 0.50586 0.65117 0.57144 0.0
O182 O 0.51425 0.63299 0.62545 0.0
O183 O 0.58246 0.61021 0.55217 0.0
O184 O 0.59282 0.59601 0.60719 0.0
C185 C 0.50461 0.65822 0.60401 0.0
H186 H 0.50842 0.51343 0.72578 0.0
H187 H 0.56602 0.61612 0.73372 0.0
H188 H 0.54437 0.65851 0.43848 0.0
H189 H 0.47388 0.56266 0.43664 0.0
C190 C 1.00786 0.657 0.99852 0.0
N191 N 0.01979 0.62235 0.10373 0.0
C192 C 0.04228 0.64942 0.11654 0.0
C193 C 0.04335 0.65643 0.15253 0.0
C194 C 0.02137 0.63505 0.1751 0.0
C195 C 0.99711 0.6087 0.16084 0.0
C196 C 0.99691 0.60266 0.12514 0.0
Zn197 Zn 0.02298 0.60321 0.05368 0.0
C198 C 0.9429 0.5774 1.03142 0.0
N199 N 0.02575 0.5534 0.95346 0.0
C200 C 0.04986 0.57152 0.93182 0.0
C201 C 1.00096 0.52804 0.94082 0.0
C202 C 0.99877 0.52126 0.90486 0.0
C203 C 0.02279 0.54039 0.88208 0.0
C204 C 0.04914 0.56516 0.8961 0.0
Zn205 Zn 0.02322 0.57281 1.00354 0.0
O206 O 1.0129 0.65616 1.03148 0.0
C207 C 0.10347 0.59767 1.02766 0.0
O208 O 1.0101 0.62714 0.9815 0.0
H209 H 0.98162 0.51427 0.95836 0.0
H210 H 0.06056 0.6645 0.09912 0.0
H211 H 0.06827 0.59257 0.9419 0.0
O212 O 0.08382 0.61065 0.05309 0.0
O213 O 0.0856 0.58132 1.00326 0.0
H214 H 0.97969 0.58087 0.11482 0.0
O215 O 0.03602 0.51922 1.0263 0.0
O216 O 0.0341 0.54987 0.07528 0.0
O217 O 0.96148 0.56365 1.00565 0.0
O218 O 0.96157 0.59557 0.05391 0.0
C219 C 0.03896 0.51958 0.0595 0.0
H220 H 0.06234 0.6771 0.1627 0.0
H221 H 0.97911 0.59213 0.1773 0.0
H222 H 0.97797 0.50201 0.8949 0.0
H223 H 0.06748 0.58113 0.87941 0.0
H224 H 0.14342 0.12893 0.2835 0.0
H225 H 0.12529 0.24561 0.29643 0.0
H226 H 0.09745 0.23561 0.35481 0.0
H227 H 0.05307 0.10406 0.32639 0.0
H228 H 0.07461 0.0638 0.34673 0.0
H229 H 0.09391 0.07978 0.30608 0.0
H230 H 0.16352 0.0823 0.33391 0.0
H231 H 0.14444 0.06631 0.37464 0.0
H232 H 0.17036 0.10827 0.37331 0.0
H233 H 0.0733 0.21355 0.41254 0.0
H234 H 0.051 0.18124 0.46447 0.0
H235 H 0.08109 0.07764 0.41512 0.0
C236 C 0.13378 0.1524 0.29871 0.0
C237 C 0.13675 0.18824 0.2851 0.0
C238 C 0.12319 0.21799 0.30587 0.0
C239 C 0.10744 0.21255 0.33924 0.0
C240 C 0.10489 0.17706 0.35177 0.0
C241 C 0.11737 0.1474 0.3321 0.0
C242 C 0.11031 0.11207 0.3517 0.0
C243 C 0.08124 0.08854 0.33151 0.0
C244 C 0.14949 0.09099 0.35881 0.0
C245 C 0.09217 0.12654 0.38551 0.0
C246 C 0.08967 0.16417 0.3849 0.0
C247 C 0.07495 0.1841 0.41315 0.0
C248 C 0.06238 0.16533 0.44273 0.0
C249 C 0.064 0.12669 0.44425 0.0
C250 C 0.07909 0.1071 0.41493 0.0
H251 H 0.40527 0.90405 0.85621 0.0
H252 H 0.46027 0.97134 0.77919 0.0
H253 H 0.48578 1.01056 0.82629 0.0
H254 H 0.37535 0.97381 0.91435 0.0
H255 H 0.38662 0.94892 0.95388 0.0
H256 H 0.37438 0.92479 0.91454 0.0
H257 H 0.44009 0.88698 0.91867 0.0
H258 H 0.4522 0.91054 0.9584 0.0
H259 H 0.48596 0.91011 0.92231 0.0
H260 H 0.49942 0.04616 0.8816 0.0
H261 H 0.50942 0.07002 0.94122 0.0
H262 H 0.45002 0.97741 0.98357 0.0
C263 C 0.42366 0.92644 0.84946 0.0
C264 C 0.43147 0.93433 0.81405 0.0
C265 C 0.45474 0.9644 0.80613 0.0
C266 C 0.469 0.98701 0.83273 0.0
C267 C 0.46017 0.97902 0.86734 0.0
C268 C 0.43886 0.94893 0.87587 0.0
C269 C 0.43381 0.94639 0.91522 0.0
C270 C 0.38993 0.94861 0.92506 0.0
C271 C 0.45424 0.91143 0.92949 0.0
C272 C 0.45489 0.98007 0.92741 0.0
C273 C 0.46946 0.99873 0.8993 0.0
C274 C 0.48857 0.03147 0.9038 0.0
C275 C 0.49383 0.04501 0.93784 0.0
C276 C 0.48059 0.02572 0.96727 0.0
C277 C 0.46062 0.99285 0.96173 0.0
H278 H 0.5603 0.51286 0.9349 0.0
H279 H 0.50204 0.61652 0.95872 0.0
H280 H 0.48624 0.62549 0.89596 0.0
H281 H 0.60685 0.54045 0.861 0.0
H282 H 0.60186 0.49893 0.8365 0.0
H283 H 0.60261 0.49767 0.8834 0.0
H284 H 0.53545 0.4663 0.88349 0.0
H285 H 0.53458 0.46704 0.83646 0.0
H286 H 0.49389 0.4871 0.86055 0.0
H287 H 0.48569 0.62711 0.83105 0.0
H288 H 0.49756 0.62042 0.76784 0.0
H289 H 0.55544 0.51499 0.78573 0.0
C290 C 0.54301 0.53678 0.92683 0.0
C291 C 0.53159 0.56381 0.95113 0.0
C292 C 0.51024 0.59539 0.94014 0.0
C293 C 0.50124 0.60063 0.90468 0.0
C294 C 0.51376 0.57386 0.88098 0.0
C295 C 0.53381 0.54233 0.8916 0.0
C296 C 0.54707 0.51941 0.86068 0.0
C297 C 0.59227 0.51381 0.86039 0.0
C298 C 0.52651 0.48279 0.86027 0.0
C299 C 0.53267 0.5436 0.83095 0.0
C300 C 0.51324 0.57471 0.84328 0.0
C301 C 0.50014 0.60258 0.82104 0.0
C302 C 0.50724 0.59867 0.7853 0.0
C303 C 0.52721 0.56714 0.77217 0.0
C304 C 0.53952 0.53903 0.7952 0.0
H305 H 0.99573 0.55616 0.36407 0.0
H306 H 0.96953 0.66654 0.39855 0.0
H307 H 0.99199 0.69013 0.34192 0.0
H308 H 0.08314 0.57688 0.30871 0.0
H309 H 0.06934 0.54422 0.27608 0.0
H310 H 0.05785 0.53666 0.32128 0.0
H311 H 0.98404 0.53068 0.30478 0.0
H312 H 0.99531 0.53821 0.25971 0.0
H313 H 0.95884 0.56705 0.28111 0.0
H314 H 1.00859 0.70088 0.27896 0.0
H315 H 1.01563 0.69739 0.21468 0.0
H316 H 0.03171 0.58011 0.22186 0.0
C317 C 0.99595 0.5853 0.35988 0.0
C318 C 0.98178 0.60972 0.38546 0.0
C319 C 0.98113 0.6476 0.37921 0.0
C320 C 0.99386 0.6612 0.3472 0.0
C321 C 1.00721 0.63643 0.322 0.0
C322 C 1.00852 0.59925 0.32807 0.0
C323 C 0.02003 0.5782 0.2956 0.0
C324 C 0.05997 0.55779 0.30074 0.0
C325 C 0.98762 0.55202 0.28467 0.0
C326 C 0.02321 0.60917 0.26996 0.0
C327 C 1.01648 0.64263 0.2857 0.0
C328 C 1.01467 0.67489 0.26644 0.0
C329 C 0.01878 0.67273 0.23003 0.0
C330 C 0.02409 0.63852 0.21349 0.0
C331 C 0.02762 0.60663 0.23393 0.0
H332 H 0.26629 0.20535 0.16449 0.0
H333 H 0.22405 0.10958 0.21661 0.0
H334 H 0.28105 0.07347 0.19417 0.0
H335 H 0.301 0.15951 0.08694 0.0
H336 H 0.34382 0.18676 0.08231 0.0
H337 H 0.30024 0.20562 0.10309 0.0
H338 H 0.34149 0.22102 0.15796 0.0
H339 H 0.38522 0.20235 0.13728 0.0
H340 H 0.37069 0.18549 0.17922 0.0
H341 H 0.34164 0.04697 0.16471 0.0
H342 H 0.40293 0.0325 0.13286 0.0
H343 H 0.40721 0.14506 0.09917 0.0
C344 C 0.26892 0.17676 0.17119 0.0
C345 C 0.24038 0.1605 0.19261 0.0
C346 C 0.24552 0.12302 0.20086 0.0
C347 C 0.27776 0.10213 0.18795 0.0
C348 C 0.30499 0.11892 0.16676 0.0
C349 C 0.3011 0.15545 0.15857 0.0
C350 C 0.33477 0.16678 0.13533 0.0
C351 C 0.31901 0.18047 0.09981 0.0
C352 C 0.35951 0.19562 0.15354 0.0
C353 C 0.35807 0.13086 0.13157 0.0
C354 C 0.3402 0.10365 0.14989 0.0
C355 C 0.35589 0.06812 0.15038 0.0
C356 C 0.39085 0.06016 0.13206 0.0
C357 C 0.41025 0.08753 0.11332 0.0
C358 C 0.39327 0.1234 0.11306 0.0
H359 H 0.23145 0.91975 0.67487 0.0
H360 H 0.3129 1.00712 0.68711 0.0
H361 H 0.27329 0.0448 0.64527 0.0
H362 H 0.20903 0.93566 0.58019 0.0
H363 H 0.15794 0.92488 0.58513 0.0
H364 H 0.19508 0.90339 0.61284 0.0
H365 H 0.15696 0.92615 0.66741 0.0
H366 H 0.11991 0.94784 0.63992 0.0
H367 H 0.14528 0.97411 0.67229 0.0
H368 H 0.2202 0.07574 0.6087 0.0
H369 H 0.15973 0.09641 0.57693 0.0
H370 H 0.11385 0.98816 0.58548 0.0
C371 C 0.24145 0.94641 0.6678 0.0
C372 C 0.27548 0.96051 0.68356 0.0
C373 C 0.28724 0.99578 0.67471 0.0
C374 C 0.26487 1.01735 0.65108 0.0
C375 C 0.23094 1.00307 0.63637 0.0
C376 C 0.21951 0.96821 0.644 0.0
C377 C 0.18059 0.96023 0.62613 0.0
C378 C 0.186 0.9292 0.59949 0.0
C379 C 0.14882 0.95158 0.65304 0.0
C380 C 0.1714 0.99633 0.60809 0.0
C381 C 0.20085 1.02065 0.61433 0.0
C382 C 0.1974 0.05668 0.60298 0.0
C383 C 0.16293 0.06822 0.58502 0.0
C384 C 0.13247 0.04375 0.57815 0.0
C385 C 0.13715 1.0072 0.58946 0.0
H386 H 0.73176 0.49313 0.99507 0.0
H387 H 0.69002 0.5528 0.08608 0.0
H388 H 0.75688 0.57561 0.09585 0.0
H389 H 0.83026 0.46809 1.02985 0.0
H390 H 0.85388 0.47388 0.98836 0.0
H391 H 0.80336 0.46034 0.98991 0.0
H392 H 0.78255 0.5152 0.95071 0.0
H393 H 0.83288 0.52915 0.94939 0.0
H394 H 0.79456 0.56054 0.96419 0.0
H395 H 0.8266 0.59418 0.09423 0.0
H396 H 0.89625 0.60597 0.08288 0.0
H397 H 0.89357 0.53467 0.99238 0.0
C398 C 0.73697 0.51036 1.01747 0.0
C399 C 0.70584 0.52113 0.03996 0.0
C400 C 0.71349 0.54437 0.06854 0.0
C401 C 0.75132 0.55738 0.0743 0.0
C402 C 0.78114 0.54693 0.05122 0.0
C403 C 0.77457 0.52379 1.02349 0.0
C404 C 0.81156 0.51789 1.00193 0.0
C405 C 0.82559 0.47766 1.00257 0.0
C406 C 0.80497 0.53152 0.96433 0.0
C407 C 0.83982 0.54159 1.02173 0.0
C408 C 0.82158 0.55797 0.0501 0.0
C409 C 0.84129 0.58139 0.0722 0.0
C410 C 0.88087 0.58798 0.06542 0.0
C411 C 0.90045 0.57129 0.03669 0.0
C412 C 0.87945 0.54792 1.01448 0.0
H413 H 0.81116 0.61887 0.48043 0.0
H414 H 0.86418 0.64603 0.57998 0.0
H415 H 0.79898 0.64258 0.60826 0.0
H416 H 0.72179 0.67199 0.4926 0.0
H417 H 0.69093 0.63996 0.47075 0.0
H418 H 0.74193 0.64297 0.45872 0.0
H419 H 0.75345 0.57399 0.47069 0.0
H420 H 0.7024 0.57072 0.48245 0.0
H421 H 0.74067 0.5558 0.5126 0.0
H422 H 0.72835 0.63491 0.62555 0.0
H423 H 0.65683 0.62531 0.63054 0.0
H424 H 0.6495 0.60689 0.51884 0.0
C425 C 0.809 0.6236 0.50826 0.0
C426 C 0.8425 0.63227 0.52826 0.0
C427 C 0.83868 0.63917 0.56442 0.0
C428 C 0.80188 0.63729 0.58061 0.0
C429 C 0.76927 0.62897 0.56009 0.0
C430 C 0.77244 0.62241 0.52468 0.0
C431 C 0.73268 0.61514 0.50836 0.0
C432 C 0.72116 0.64426 0.48099 0.0
C433 C 0.73229 0.57662 0.49261 0.0
C434 C 0.70667 0.61838 0.54016 0.0
C435 C 0.72836 0.62614 0.56978 0.0
C436 C 0.711 0.62909 0.60251 0.0
C437 C 0.67042 0.62361 0.60509 0.0
C438 C 0.64768 0.61573 0.57503 0.0
C439 C 0.66606 0.61349 0.54216 0.0
H440 H 0.10926 0.31091 0.09955 0.0
H441 H 0.10328 0.33809 0.20942 0.0
H442 H 0.0815 0.40133 0.19416 0.0
H443 H 0.14571 0.3975 0.07 0.0
H444 H 0.11716 0.39799 1.03013 0.0
H445 H 0.13266 0.35526 0.0497 0.0
H446 H 0.06007 0.33577 0.05088 0.0
H447 H 0.04432 0.37852 1.03147 0.0
H448 H 0.02348 0.36454 0.07222 0.0
H449 H 0.05959 0.46123 0.16686 0.0
H450 H 0.04069 0.51404 0.13043 0.0
H451 H 0.06048 0.44906 0.03704 0.0
C452 C 0.10356 0.33036 0.12032 0.0
C453 C 0.10811 0.31984 0.15573 0.0
C454 C 0.10016 0.34574 0.18223 0.0
C455 C 0.0877 0.38165 0.17373 0.0
C456 C 0.08327 0.39122 0.13856 0.0
C457 C 0.09108 0.36636 0.11223 0.0
C458 C 0.08383 0.38371 0.07654 0.0
C459 C 0.12212 0.38361 0.05535 0.0
C460 C 0.05097 0.36448 0.05661 0.0
C461 C 0.07067 0.42223 0.08683 0.0
C462 C 0.07057 0.42582 0.12278 0.0
C463 C 0.05964 0.45865 0.13873 0.0
C464 C 0.04888 0.48863 0.11762 0.0
C465 C 0.04896 0.48608 0.08061 0.0
C466 C 0.05988 0.45211 0.06513 0.0
H467 H 0.63546 0.40567 0.05294 0.0
H468 H 0.57635 0.44035 0.95728 0.0
H469 H 0.55411 0.37763 0.94774 0.0
H470 H 0.66708 0.3143 1.02346 0.0
H471 H 0.65803 0.29407 0.06532 0.0
H472 H 0.67195 0.34086 0.06275 0.0
H473 H 0.6093 0.3607 0.09715 0.0
H474 H 0.59506 0.31406 0.09961 0.0
H475 H 0.56155 0.34808 0.08109 0.0
H476 H 0.53567 0.31161 0.95044 0.0
H477 H 0.52294 0.24756 0.96485 0.0
H478 H 0.592 0.25757 0.06009 0.0
C479 C 0.61861 0.39982 1.02959 0.0
C480 C 0.60783 0.42764 1.0057 0.0
C481 C 0.58487 0.41928 0.97588 0.0
C482 C 0.57222 0.38379 0.97022 0.0
C483 C 0.58269 0.35708 0.9947 0.0
C484 C 0.60545 0.36468 1.02374 0.0
C485 C 0.61082 0.33171 0.0471 0.0
C486 C 0.65457 0.31952 0.0498 0.0
C487 C 0.59312 0.33909 0.08337 0.0
C488 C 0.58725 0.30445 1.02684 0.0
C489 C 0.57145 0.31946 0.99659 0.0
C490 C 0.54799 0.29954 0.97403 0.0
C491 C 0.54065 0.26327 0.98259 0.0
C492 C 0.55653 0.24736 1.01356 0.0
C493 C 0.58002 0.26852 0.03587 0.0
H494 H 0.89859 0.74057 0.48441 0.0
H495 H 1.01317 0.68906 0.50592 0.0
H496 H 0.04384 0.74917 0.50294 0.0
H497 H 0.93255 0.80645 0.42289 0.0
H498 H 0.89839 0.84195 0.43722 0.0
H499 H 0.88567 0.79494 0.44092 0.0
H500 H 0.87356 0.80355 0.50718 0.0
H501 H 0.88586 0.85064 0.50362 0.0
H502 H 0.91202 0.8214 0.53434 0.0
H503 H 0.06111 0.81515 0.49991 0.0
H504 H 0.06385 0.88202 0.49821 0.0
H505 H 0.9382 0.88954 0.47507 0.0
C506 C 0.93007 0.74205 0.48886 0.0
C507 C 0.95358 0.71042 0.49573 0.0
C508 C 0.99478 0.71315 0.50067 0.0
C509 C 1.01238 0.74706 0.49896 0.0
C510 C 0.98835 0.77775 0.49188 0.0
C511 C 0.94811 0.77552 0.48686 0.0
C512 C 0.92884 0.8125 0.47974 0.0
C513 C 0.91028 0.81404 0.44301 0.0
C514 C 0.89828 0.82261 0.5079 0.0
C515 C 0.96442 0.83605 0.48223 0.0
C516 C 0.99849 0.81552 0.4891 0.0
C517 C 0.03473 0.8315 0.49408 0.0
C518 C 0.03601 0.86955 0.49272 0.0
C519 C 1.00127 0.89121 0.4863 0.0
C520 C 0.96526 0.87393 0.48027 0.0
H521 H 0.44463 0.81062 0.74776 0.0
H522 H 0.41221 0.88218 0.66161 0.0
H523 H 0.43546 0.8351 0.61981 0.0
H524 H 0.53326 0.76773 0.70726 0.0
H525 H 0.5241 0.72336 0.72481 0.0
H526 H 0.50786 0.76371 0.74813 0.0
H527 H 0.43661 0.74063 0.74843 0.0
H528 H 0.45264 0.70037 0.72495 0.0
H529 H 0.41308 0.72922 0.7077 0.0
H530 H 0.45895 0.77899 0.58689 0.0
H531 H 0.48149 0.71839 0.5655 0.0
H532 H 0.49817 0.68194 0.67246 0.0
C533 C 0.44327 0.8166 0.72011 0.0
C534 C 0.42679 0.85033 0.70801 0.0
C535 C 0.42469 0.85668 0.67155 0.0
C536 C 0.43788 0.83006 0.64757 0.0
C537 C 0.45313 0.79688 0.66023 0.0
C538 C 0.45605 0.79003 0.69566 0.0
C539 C 0.47193 0.75135 0.70216 0.0
C540 C 0.51165 0.75156 0.72175 0.0
C541 C 0.44176 0.72909 0.72198 0.0
C542 C 0.4771 0.73752 0.66496 0.0
C543 C 0.46626 0.76432 0.64119 0.0
C544 C 0.46772 0.75788 0.60531 0.0
C545 C 0.48055 0.72325 0.59336 0.0
C546 C 0.49174 0.69515 0.61711 0.0
C547 C 0.48999 0.7027 0.65346 0.0
H548 H 0.93421 0.90234 0.74662 0.0
H549 H 0.92136 0.99116 0.82056 0.0
H550 H 0.94115 0.03453 0.77526 0.0
H551 H 0.0195 0.93798 0.69921 0.0
H552 H 1.00212 0.923 0.65719 0.0
H553 H 0.98979 0.89835 0.696 0.0
H554 H 0.91566 0.90624 0.6802 0.0
H555 H 0.92776 0.93121 0.64155 0.0
H556 H 0.89447 0.95133 0.67314 0.0
H557 H 0.95968 0.06896 0.72173 0.0
H558 H 0.9771 0.09229 0.66389 0.0
H559 H 0.97694 0.98241 0.62211 0.0
C560 C 0.93649 0.93082 0.75335 0.0
C561 C 0.92689 0.94331 0.78744 0.0
C562 C 0.92909 0.98094 0.7949 0.0
C563 C 0.94018 1.0058 0.76924 0.0
C564 C 0.94881 0.99288 0.73581 0.0
C565 C 0.94729 0.95627 0.72771 0.0
C566 C 0.95668 0.95012 0.6892 0.0
C567 C 0.99426 0.92592 0.68517 0.0
C568 C 0.92154 0.93375 0.66989 0.0
C569 C 0.96336 0.98893 0.677 0.0
C570 C 0.9588 1.01302 0.70449 0.0
C571 C 0.96341 0.05029 0.70006 0.0
C572 C 0.97329 0.06333 0.66691 0.0
C573 C 0.97838 0.03944 0.63806 0.0
C574 C 0.97307 1.00159 0.64337 0.0
H575 H 0.63155 0.21069 0.28416 0.0
H576 H 0.65105 0.11509 0.34928 0.0
H577 H 0.62932 0.07617 0.30081 0.0
H578 H 0.54334 0.18043 0.24148 0.0
H579 H 0.55507 0.19962 0.19974 0.0
H580 H 0.5731 0.22005 0.23926 0.0
H581 H 0.64462 0.21341 0.21641 0.0
H582 H 0.6268 0.19292 0.17684 0.0
H583 H 0.66383 0.16925 0.20305 0.0
H584 H 0.60374 0.04726 0.24536 0.0
H585 H 0.57724 0.03085 0.18745 0.0
H586 H 0.57382 0.14487 0.15777 0.0
C587 C 0.63113 0.18158 0.28836 0.0
C588 C 0.6434 0.16616 0.32083 0.0
C589 C 0.64261 0.12778 0.32473 0.0
C590 C 0.63 0.10536 0.29732 0.0
C591 C 0.61815 0.12145 0.26583 0.0
C592 C 0.61866 0.1587 0.26117 0.0
C593 C 0.60419 0.16907 0.2247 0.0
C594 C 0.5667 0.19375 0.22641 0.0
C595 C 0.63681 0.18724 0.20403 0.0
C596 C 0.5953 0.13188 0.20966 0.0
C597 C 0.60356 0.10479 0.23386 0.0
C598 C 0.5973 0.06829 0.22622 0.0
C599 C 0.58217 0.05922 0.19315 0.0
C600 C 0.57341 0.08642 0.16777 0.0
C601 C 0.58029 0.12328 0.17636 0.0
H602 H 0.42573 0.56103 0.24381 0.0
H603 H 0.54226 0.578 0.20289 0.0
H604 H 0.56505 0.59712 0.26172 0.0
H605 H 0.42306 0.63756 0.30281 0.0
H606 H 0.39696 0.61401 0.33624 0.0
H607 H 0.39017 0.60195 0.29107 0.0
H608 H 0.41031 0.53478 0.30499 0.0
H609 H 0.41675 0.54658 0.35022 0.0
H610 H 0.45674 0.52457 0.3267 0.0
H611 H 0.57467 0.61337 0.32555 0.0
H612 H 0.57161 0.6224 0.38942 0.0
H613 H 0.44777 0.59636 0.38743 0.0
C614 C 0.45611 0.56854 0.24747 0.0
C615 C 0.4826 0.56778 0.21944 0.0
C616 C 0.52191 0.57813 0.22454 0.0
C617 C 0.53493 0.58918 0.25768 0.0
C618 C 0.50799 0.58986 0.28504 0.0
C619 C 0.46943 0.57969 0.28025 0.0
C620 C 0.44643 0.58231 0.31384 0.0
C621 C 0.41213 0.61065 0.31079 0.0
C622 C 0.43171 0.54483 0.32456 0.0
C623 C 0.47816 0.59507 0.33847 0.0
C624 C 0.51339 0.59955 0.3214 0.0
C625 C 0.54716 0.6102 0.33913 0.0
C626 C 0.54505 0.61556 0.37536 0.0
C627 C 0.50945 0.61015 0.39345 0.0
C628 C 0.47549 0.6005 0.37444 0.0
H629 H 0.1031 0.56502 0.69119 0.0
H630 H 0.9826 0.58526 0.65637 0.0
H631 H 0.9586 0.56882 0.71531 0.0
H632 H 0.08423 0.48787 0.74731 0.0
H633 H 0.11997 0.50091 0.77965 0.0
H634 H 0.12687 0.51238 0.73447 0.0
H635 H 0.13156 0.58061 0.75091 0.0
H636 H 0.12529 0.56927 0.79609 0.0
H637 H 0.09238 0.6025 0.77557 0.0
H638 H 0.949 0.55292 0.77937 0.0
H639 H 0.95458 0.54399 0.84329 0.0
H640 H 0.08177 0.53311 0.83451 0.0
C641 C 0.07165 0.56601 0.69615 0.0
C642 C 0.04449 0.57665 0.66993 0.0
C643 C 1.00363 0.57745 0.67667 0.0
C644 C 0.98987 0.56789 0.70983 0.0
C645 C 0.01754 0.55734 0.73542 0.0
C646 C 0.05761 0.5565 0.72885 0.0
C647 C 0.08153 0.54593 0.76089 0.0
C648 C 0.1045 0.50961 0.75523 0.0
C649 C 0.1093 0.5764 0.77149 0.0
C650 C 0.04883 0.54191 0.78696 0.0
C651 C 1.01205 0.54801 0.77178 0.0
C652 C 0.9776 0.54769 0.7914 0.0
C653 C 0.98101 0.54231 0.82762 0.0
C654 C 0.01859 0.53771 0.84369 0.0
C655 C 0.05268 0.53639 0.82283 0.0
H656 H 0.73792 0.90475 0.92703 0.0
H657 H 0.80665 0.99874 0.90398 0.0
H658 H 0.76553 0.03604 0.9447 0.0
H659 H 0.64537 0.95112 0.93039 0.0
H660 H 0.62637 0.92477 0.96572 0.0
H661 H 0.66323 0.90489 0.93732 0.0
H662 H 0.70829 0.88997 0.99067 0.0
H663 H 0.67144 0.90975 1.01927 0.0
H664 H 0.72102 0.9259 1.02035 0.0
H665 H 0.71294 0.06424 0.98385 0.0
H666 H 0.65461 0.0808 1.0195 0.0
H667 H 0.62073 0.96805 1.01863 0.0
C668 C 0.74475 0.933 0.93126 0.0
C669 C 0.7757 0.94894 0.9129 0.0
C670 C 0.78337 0.98607 0.91828 0.0
C671 C 0.76011 1.00741 0.94128 0.0
C672 C 0.72938 0.9911 0.95878 0.0
C673 C 0.72184 0.95464 0.95425 0.0
C674 C 0.68594 0.94417 0.97495 0.0
C675 C 0.65331 0.93044 0.95064 0.0
C676 C 0.69737 0.91576 1.00298 0.0
C677 C 0.674 0.98052 0.99132 0.0
C678 C 0.69948 1.00723 0.98171 0.0
C679 C 0.69317 0.0434 0.99192 0.0
C680 C 0.65989 0.05258 1.01217 0.0
C681 C 0.63326 0.02572 1.02231 0.0
C682 C 0.64089 0.98913 1.01198 0.0
H683 H 0.76702 0.15769 0.3854 0.0
H684 H 0.70876 0.21253 0.47248 0.0
H685 H 0.76417 0.19382 0.51082 0.0
H686 H 0.80319 0.07943 0.43643 0.0
H687 H 0.84871 0.07464 0.41266 0.0
H688 H 0.80494 0.09321 0.39136 0.0
H689 H 0.8423 0.15087 0.3748 0.0
H690 H 0.88616 0.13253 0.39607 0.0
H691 H 0.86603 0.17663 0.40857 0.0
H692 H 0.82762 0.172 0.53952 0.0
H693 H 0.89238 0.14487 0.55726 0.0
H694 H 0.90685 0.09816 0.45402 0.0
C695 C 0.76532 0.16544 0.41259 0.0
C696 C 0.7331 0.18728 0.42538 0.0
C697 C 0.73316 0.1969 0.46131 0.0
C698 C 0.76448 0.18602 0.48359 0.0
C699 C 0.79557 0.16479 0.47003 0.0
C700 C 0.79604 0.15416 0.43548 0.0
C701 C 0.83281 0.13069 0.42775 0.0
C702 C 0.82174 0.09221 0.41638 0.0
C703 C 0.85833 0.14877 0.40016 0.0
C704 C 0.85309 0.13013 0.46328 0.0
C705 C 0.83118 0.15031 0.48718 0.0
C706 C 0.84472 0.1557 0.52117 0.0
C707 C 0.88157 0.14021 0.53101 0.0
C708 C 0.90438 0.11894 0.50725 0.0
C709 C 0.88967 0.1136 0.47299 0.0
H710 H 0.31022 0.64586 0.11095 0.0
H711 H 0.36423 0.56284 0.04466 0.0
H712 H 0.29982 0.55457 1.01507 0.0
H713 H 0.22182 0.6009 0.12426 0.0
H714 H 0.19101 0.64186 0.12466 0.0
H715 H 0.24194 0.64348 0.13785 0.0
H716 H 0.25317 0.69353 0.09172 0.0
H717 H 0.2022 0.69197 0.0783 0.0
H718 H 0.24078 0.68516 0.04665 0.0
H719 H 0.22865 0.55424 0.99438 0.0
H720 H 0.15602 0.55776 0.98779 0.0
H721 H 0.14915 0.63955 0.06953 0.0
C722 C 0.30859 0.62643 0.08974 0.0
C723 C 0.34209 0.60529 0.07965 0.0
C724 C 0.33876 0.57935 0.05256 0.0
C725 C 0.30244 0.57466 0.03555 0.0
C726 C 0.26986 0.59596 0.0462 0.0
C727 C 0.2726 0.62113 0.07287 0.0
C728 C 0.2328 0.63861 0.08133 0.0
C729 C 0.22122 0.63072 0.11926 0.0
C730 C 0.23222 0.67976 0.07405 0.0
C731 C 0.20701 0.61898 0.05562 0.0
C732 C 0.22893 0.59493 0.03516 0.0
C733 C 0.21124 0.5731 1.01015 0.0
C734 C 0.16999 0.57538 1.00652 0.0
C735 C 0.14697 0.59891 1.02817 0.0
C736 C 0.16594 0.62136 0.05256 0.0
H737 H 0.21888 0.5638 0.55237 0.0
H738 H 0.21386 0.48329 0.63479 0.0
H739 H 0.28592 0.48505 0.64265 0.0
H740 H 0.31165 0.52958 0.51549 0.0
H741 H 0.32893 0.57424 0.50573 0.0
H742 H 0.27677 0.56644 0.506 0.0
H743 H 0.26634 0.61844 0.55108 0.0
H744 H 0.31845 0.62636 0.55097 0.0
H745 H 0.29405 0.61707 0.59144 0.0
H746 H 0.35725 0.49722 0.6438 0.0
H747 H 0.42526 0.51718 0.63624 0.0
H748 H 0.38568 0.58838 0.55167 0.0
C749 C 0.23311 0.54651 0.57193 0.0
C750 C 0.21096 0.52314 0.59275 0.0
C751 C 0.23043 0.5009 0.61816 0.0
C752 C 0.27128 0.50185 0.62296 0.0
C753 C 0.29232 0.52505 0.60203 0.0
C754 C 0.27411 0.54682 0.57685 0.0
C755 C 0.30395 0.56923 0.55794 0.0
C756 C 0.3054 0.55926 0.51898 0.0
C757 C 0.29517 0.6102 0.56319 0.0
C758 C 0.34158 0.55686 0.57672 0.0
C759 C 0.33404 0.53149 0.60215 0.0
C760 C 0.36366 0.51686 0.6238 0.0
C761 C 0.40216 0.52845 0.61936 0.0
C762 C 0.41075 0.55417 0.59328 0.0
C763 C 0.38003 0.56839 0.57159 0.0
H764 H 0.9047 0.79603 0.86018 0.0
H765 H 0.97747 0.88007 0.90283 0.0
H766 H 1.0096 0.83486 0.94284 0.0
H767 H 0.88906 0.74793 0.93821 0.0
H768 H 0.89269 0.70312 0.91906 0.0
H769 H 0.87659 0.74154 0.89284 0.0
H770 H 0.93215 0.72691 0.84856 0.0
H771 H 0.94819 0.68819 0.87446 0.0
H772 H 0.98258 0.72267 0.86368 0.0
H773 H 0.02831 0.78144 0.98291 0.0
H774 H 0.03912 0.72276 1.01383 0.0
H775 H 0.95923 0.67148 0.94155 0.0
C776 C 0.928 0.80465 0.87747 0.0
C777 C 0.93888 0.84158 0.87822 0.0
C778 C 0.96912 0.85192 0.90148 0.0
C779 C 0.9873 0.82642 0.92446 0.0
C780 C 0.97548 0.79037 0.92353 0.0
C781 C 0.94715 0.77929 0.90003 0.0
C782 C 0.94009 0.73883 0.90413 0.0
C783 C 0.89705 0.7325 0.91416 0.0
C784 C 0.95144 0.71792 0.87072 0.0
C785 C 0.96823 0.72898 0.93404 0.0
C786 C 0.98799 0.75924 0.94515 0.0
C787 C 1.01352 0.7575 0.97394 0.0
C788 C 0.01934 0.72406 0.9915 0.0
C789 C 1.00044 0.69238 0.97996 0.0
C790 C 0.97465 0.69504 0.95068 0.0
H791 H 0.43079 0.70537 0.07563 0.0
H792 H 0.46001 0.67885 0.18338 0.0
H793 H 0.48462 0.74067 0.19198 0.0
H794 H 0.5126 0.76243 0.05898 0.0
H795 H 0.48371 0.79434 1.03282 0.0
H796 H 0.47042 0.74736 0.0347 0.0
H797 H 0.40006 0.76717 0.05476 0.0
H798 H 0.4131 0.81419 0.05287 0.0
H799 H 0.39418 0.79582 0.09271 0.0
H800 H 0.50507 0.80608 0.18896 0.0
H801 H 0.51704 0.87057 0.17502 0.0
H802 H 0.47174 0.85414 0.07022 0.0
C803 C 0.44212 0.71253 0.10113 0.0
C804 C 0.44363 0.6871 0.12874 0.0
C805 C 0.4592 0.69758 0.16158 0.0
C806 C 0.47306 0.73271 0.16681 0.0
C807 C 0.47097 0.75708 0.13901 0.0
C808 C 0.45573 0.74747 0.10688 0.0
C809 C 0.45551 0.77899 0.08158 0.0
C810 C 0.48216 0.77025 0.05017 0.0
C811 C 0.4132 0.78967 0.06981 0.0
C812 C 0.47273 0.80796 0.10458 0.0
C813 C 0.48182 0.79478 0.13753 0.0
C814 C 0.49809 0.8167 0.16325 0.0
C815 C 0.50492 0.85316 0.15509 0.0
C816 C 0.49509 0.86724 0.12166 0.0
C817 C 0.47907 0.84418 0.09614 0.0
H818 H 0.11883 0.42671 0.55172 0.0
H819 H 0.0577 0.46617 0.644 0.0
H820 H 0.03194 0.40484 0.65358 0.0
H821 H 0.04296 0.36489 0.52271 0.0
H822 H 0.07868 0.3312 0.50742 0.0
H823 H 0.09015 0.37869 0.50707 0.0
H824 H 0.15315 0.3641 0.54396 0.0
H825 H 0.14167 0.31666 0.54472 0.0
H826 H 0.1489 0.34086 0.58508 0.0
H827 H 0.01704 0.33785 0.6552 0.0
H828 H 1.01118 0.27152 0.64688 0.0
H829 H 0.08004 0.27746 0.55213 0.0
C830 C 0.09971 0.42245 0.57373 0.0
C831 C 0.09005 0.45103 0.59704 0.0
C832 C 0.06494 0.44462 0.62558 0.0
C833 C 0.05039 0.4099 0.63133 0.0
C834 C 0.06098 0.3821 0.60811 0.0
C835 C 0.08471 0.38814 0.57967 0.0
C836 C 0.09231 0.35365 0.55892 0.0
C837 C 0.07498 0.35734 0.52184 0.0
C838 C 0.13664 0.34322 0.55815 0.0
C839 C 0.0698 0.3271 0.58049 0.0
C840 C 0.05191 0.34391 0.60875 0.0
C841 C 0.03053 0.32446 0.63291 0.0
C842 C 0.02726 0.28682 0.62791 0.0
C843 C 0.04523 0.26913 0.59892 0.0
C844 C 0.06651 0.28984 0.57492 0.0
H845 H 0.59134 0.36771 0.4127 0.0
H846 H 0.64831 0.29745 0.48988 0.0
H847 H 0.63555 0.34468 0.53541 0.0
H848 H 0.62695 0.45305 0.4459 0.0
H849 H 0.58161 0.47812 0.43605 0.0
H850 H 0.59608 0.43905 0.41015 0.0
H851 H 0.52923 0.41004 0.42316 0.0
H852 H 0.51471 0.44895 0.44926 0.0
H853 H 0.51456 0.40392 0.46781 0.0
H854 H 0.61456 0.40055 0.57285 0.0
H855 H 0.58975 0.45922 0.59774 0.0
H856 H 0.54681 0.49231 0.49527 0.0
C857 C 0.6014 0.36247 0.43918 0.0
C858 C 0.62104 0.32915 0.4479 0.0
C859 C 0.63345 0.32296 0.48275 0.0
C860 C 0.6262 0.34962 0.50872 0.0
C861 C 0.60645 0.38227 0.49936 0.0
C862 C 0.59438 0.38874 0.46529 0.0
C863 C 0.57349 0.42578 0.46182 0.0
C864 C 0.59588 0.45045 0.43701 0.0
C865 C 0.53045 0.42192 0.4498 0.0
C866 C 0.57565 0.43933 0.49917 0.0
C867 C 0.59462 0.41391 0.52056 0.0
C868 C 0.59975 0.42057 0.55621 0.0
C869 C 0.58545 0.454 0.57018 0.0
C870 C 0.56625 0.48061 0.54863 0.0
C871 C 0.56133 0.47277 0.51264 0.0
loop_
_geom_bond_atom_site_label_1
_geom_bond_atom_site_label_2
_geom_bond_distance
_geom_bond_site_symmetry_2
_ccdc_geom_bond_type
H0 C3 0.929 . S
H1 C6 0.929 . S
H2 C8 0.930 . S
C3 H0 0.929 . S
C3 C4 1.398 . S
C3 C5 1.396 . S
C4 C3 1.398 . S
C4 C8 1.407 . S
C5 C3 1.396 . S
C5 C6 1.394 . S
C6 H1 0.929 . S
C6 C5 1.394 . S
C6 C7 1.382 . S
C7 C6 1.382 . S
C7 C8 1.392 . S
C7 N9 1.420 . S
C8 H2 0.930 . S
C8 C4 1.407 . S
C8 C7 1.392 . S
N9 C7 1.420 . S
N9 C10 1.244 . S
C10 N9 1.244 . S
H11 C14 0.929 . S
H12 C17 0.929 . S
H13 C19 0.930 . S
C14 H11 0.929 . S
C14 C15 1.398 . S
C14 C16 1.396 . S
C15 C14 1.398 . S
C15 C19 1.407 . S
C16 C14 1.396 . S
C16 C17 1.394 . S
C17 H12 0.929 . S
C17 C16 1.394 . S
C17 C18 1.382 . S
C18 C17 1.382 . S
C18 C19 1.392 . S
C18 N20 1.420 . S
C19 H13 0.930 . S
C19 C15 1.407 . S
C19 C18 1.392 . S
N20 C18 1.420 . S
N20 C21 1.244 . S
C21 N20 1.244 . S
H22 C25 0.929 . S
H23 C28 0.929 . S
H24 C30 0.930 . S
C25 H22 0.929 . S
C25 C26 1.398 . S
C25 C27 1.396 . S
C26 C25 1.398 . S
C26 C30 1.407 . S
C27 C25 1.396 . S
C27 C28 1.394 . S
C28 H23 0.929 . S
C28 C27 1.394 . S
C28 C29 1.382 . S
C29 C28 1.382 . S
C29 C30 1.392 . S
C29 N31 1.420 . S
C30 H24 0.930 . S
C30 C26 1.407 . S
C30 C29 1.392 . S
N31 C29 1.420 . S
N31 C32 1.244 . S
C32 N31 1.244 . S
H33 C36 0.929 . S
H34 C39 0.929 . S
H35 C41 0.930 . S
C36 H33 0.929 . S
C36 C37 1.398 . S
C36 C38 1.396 . S
C37 C36 1.398 . S
C37 C41 1.407 . S
C38 C36 1.396 . S
C38 C39 1.394 . S
C39 H34 0.929 . S
C39 C38 1.394 . S
C39 C40 1.382 . S
C40 C39 1.382 . S
C40 C41 1.392 . S
C40 N42 1.420 . S
C41 H35 0.930 . S
C41 C37 1.407 . S
C41 C40 1.392 . S
N42 C40 1.420 . S
N42 C43 1.244 . S
C43 N42 1.244 . S
H44 C47 0.929 . S
H45 C50 0.929 . S
H46 C52 0.930 . S
C47 H44 0.929 . S
C47 C48 1.398 . S
C47 C49 1.396 . S
C48 C47 1.398 . S
C48 C52 1.407 . S
C49 C47 1.396 . S
C49 C50 1.394 . S
C50 H45 0.929 . S
C50 C49 1.394 . S
C50 C51 1.382 . S
C51 C50 1.382 . S
C51 C52 1.392 . S
C51 N53 1.420 . S
C52 H46 0.930 . S
C52 C48 1.407 . S
C52 C51 1.392 . S
N53 C51 1.420 . S
N53 C54 1.244 . S
C54 N53 1.244 . S
H55 C58 0.929 . S
H56 C61 0.929 . S
H57 C63 0.930 . S
C58 H55 0.929 . S
C58 C59 1.398 . S
C58 C60 1.396 . S
C59 C58 1.398 . S
C59 C63 1.407 . S
C60 C58 1.396 . S
C60 C61 1.394 . S
C61 H56 0.929 . S
C61 C60 1.394 . S
C61 C62 1.382 . S
C62 C61 1.382 . S
C62 C63 1.392 . S
C62 N64 1.420 . S
C63 H57 0.930 . S
C63 C59 1.407 . S
C63 C62 1.392 . S
N64 C62 1.420 . S
N64 C65 1.244 . S
C65 N64 1.244 . S
H66 C69 0.929 . S
H67 C72 0.929 . S
H68 C74 0.930 . S
C69 H66 0.929 . S
C69 C70 1.398 . S
C69 C71 1.396 . S
C70 C69 1.398 . S
C70 C74 1.407 . S
C71 C69 1.396 . S
C71 C72 1.394 . S
C72 H67 0.929 . S
C72 C71 1.394 . S
C72 C73 1.382 . S
C73 C72 1.382 . S
C73 C74 1.392 . S
C73 N75 1.420 . S
C74 H68 0.930 . S
C74 C70 1.407 . S
C74 C73 1.392 . S
N75 C73 1.420 . S
N75 C76 1.244 . S
C76 N75 1.244 . S
H77 C80 0.929 . S
H78 C83 0.929 . S
H79 C85 0.930 . S
C80 H77 0.929 . S
C80 C81 1.398 . S
C80 C82 1.396 . S
C81 C80 1.398 . S
C81 C85 1.407 . S
C82 C80 1.396 . S
C82 C83 1.394 . S
C83 H78 0.929 . S
C83 C82 1.394 . S
C83 C84 1.382 . S
C84 C83 1.382 . S
C84 C85 1.392 . S
C84 N86 1.420 . S
C85 H79 0.930 . S
C85 C81 1.407 . S
C85 C84 1.392 . S
N86 C84 1.420 . S
N86 C87 1.244 . S
C87 N86 1.244 . S
C88 O104 1.251 . S
C88 O106 1.254 . S
N89 C90 1.333 . S
N89 C94 1.307 . S
N89 Zn95 2.020 . S
C90 N89 1.333 . S
C90 C91 1.379 . S
C90 H108 0.952 . S
C91 C90 1.379 . S
C91 C92 1.390 . S
C91 H118 0.949 . S
C92 C91 1.390 . S
C92 C93 1.357 . S
C93 C92 1.357 . S
C93 C94 1.370 . S
C93 H119 0.950 . S
C94 N89 1.307 . S
C94 C93 1.370 . S
C94 H112 0.948 1_455 S
Zn95 N89 2.020 . S
Zn95 O104 2.039 . S
Zn95 O110 2.034 . S
Zn95 O114 2.025 1_455 S
Zn95 O116 2.024 1_455 S
C96 O115 1.246 . S
C96 O116 1.249 . S
N97 C98 1.307 . S
N97 C99 1.333 . S
N97 Zn103 2.020 1_565 S
C98 N97 1.307 . S
C98 C102 1.370 . S
C98 H109 0.948 1_655 S
C99 N97 1.333 . S
C99 C100 1.379 . S
C99 H107 0.952 . S
C100 C99 1.379 . S
C100 C101 1.390 . S
C100 H120 0.949 . S
C101 C100 1.390 . S
C101 C102 1.357 . S
C102 C98 1.370 . S
C102 C101 1.357 . S
C102 H121 0.950 . S
Zn103 N97 2.020 1_545 S
Zn103 O106 2.025 1_655 S
Zn103 O111 2.024 1_645 S
Zn103 O113 2.039 1_545 S
Zn103 O115 2.034 . S
O104 C88 1.251 . S
O104 Zn95 2.039 . S
C105 O110 1.246 . S
C105 O111 1.249 1_545 S
O106 C88 1.254 . S
O106 Zn103 2.025 1_455 S
H107 C99 0.952 . S
H108 C90 0.952 . S
H109 C98 0.948 1_455 S
O110 Zn95 2.034 . S
O110 C105 1.246 . S
O111 Zn103 2.024 1_465 S
O111 C105 1.249 1_565 S
H112 C94 0.948 1_655 S
O113 Zn103 2.039 1_565 S
O113 C117 1.251 1_565 S
O114 Zn95 2.025 1_655 S
O114 C117 1.254 . S
O115 C96 1.246 . S
O115 Zn103 2.034 . S
O116 Zn95 2.024 1_655 S
O116 C96 1.249 . S
C117 O113 1.251 1_545 S
C117 O114 1.254 . S
H118 C91 0.949 . S
H119 C93 0.950 . S
H120 C100 0.949 . S
H121 C102 0.950 . S
C122 O138 1.251 . S
C122 O140 1.254 1_545 S
N123 C124 1.333 . S
N123 C128 1.307 1_554 S
N123 Zn129 2.020 . S
C124 N123 1.333 . S
C124 C125 1.379 1_554 S
C124 H142 0.952 . S
C125 C124 1.379 1_556 S
C125 C126 1.390 . S
C125 H152 0.949 . S
C126 C125 1.390 . S
C126 C127 1.357 . S
C127 C126 1.357 . S
C127 C128 1.370 . S
C127 H153 0.950 . S
C128 N123 1.307 1_556 S
C128 C127 1.370 . S
C128 H146 0.948 . S
Zn129 N123 2.020 . S
Zn129 O138 2.039 . S
Zn129 O144 2.034 . S
Zn129 O148 2.025 . S
Zn129 O150 2.024 1_554 S
C130 O149 1.246 . S
C130 O150 1.249 . S
N131 C132 1.307 . S
N131 C133 1.333 . S
N131 Zn137 2.020 1_565 S
C132 N131 1.307 . S
C132 C136 1.370 . S
C132 H143 0.948 . S
C133 N131 1.333 . S
C133 C134 1.379 . S
C133 H141 0.952 . S
C134 C133 1.379 . S
C134 C135 1.390 . S
C134 H154 0.949 . S
C135 C134 1.390 . S
C135 C136 1.357 . S
C136 C132 1.370 . S
C136 C135 1.357 . S
C136 H155 0.950 . S
Zn137 N131 2.020 1_545 S
Zn137 O140 2.025 1_545 S
Zn137 O145 2.024 . S
Zn137 O147 2.039 . S
Zn137 O149 2.034 1_554 S
O138 C122 1.251 . S
O138 Zn129 2.039 . S
C139 O144 1.246 . S
C139 O145 1.249 . S
O140 C122 1.254 1_565 S
O140 Zn137 2.025 1_565 S
H141 C133 0.952 . S
H142 C124 0.952 . S
H143 C132 0.948 . S
O144 Zn129 2.034 . S
O144 C139 1.246 . S
O145 Zn137 2.024 . S
O145 C139 1.249 . S
H146 C128 0.948 . S
O147 Zn137 2.039 . S
O147 C151 1.251 . S
O148 Zn129 2.025 . S
O148 C151 1.254 . S
O149 C130 1.246 . S
O149 Zn137 2.034 1_556 S
O150 Zn129 2.024 1_556 S
O150 C130 1.249 . S
C151 O147 1.251 . S
C151 O148 1.254 . S
H152 C125 0.949 . S
H153 C127 0.950 . S
H154 C134 0.949 . S
H155 C136 0.950 . S
C156 O172 1.251 . S
C156 O174 1.254 . S
N157 C158 1.333 . S
N157 C162 1.307 . S
N157 Zn163 2.020 . S
C158 N157 1.333 . S
C158 C159 1.379 . S
C158 H176 0.952 . S
C159 C158 1.379 . S
C159 C160 1.390 . S
C159 H186 0.949 . S
C160 C159 1.390 . S
C160 C161 1.357 . S
C161 C160 1.357 . S
C161 C162 1.370 . S
C161 H187 0.950 . S
C162 N157 1.307 . S
C162 C161 1.370 . S
C162 H180 0.948 . S
Zn163 N157 2.020 . S
Zn163 O172 2.039 . S
Zn163 O178 2.034 . S
Zn163 O182 2.025 . S
Zn163 O184 2.024 . S
C164 O183 1.246 . S
C164 O184 1.249 . S
N165 C166 1.307 . S
N165 C167 1.333 . S
N165 Zn171 2.020 . S
C166 N165 1.307 . S
C166 C170 1.370 . S
C166 H177 0.948 . S
C167 N165 1.333 . S
C167 C168 1.379 . S
C167 H175 0.952 . S
C168 C167 1.379 . S
C168 C169 1.390 . S
C168 H188 0.949 . S
C169 C168 1.390 . S
C169 C170 1.357 . S
C170 C166 1.370 . S
C170 C169 1.357 . S
C170 H189 0.950 . S
Zn171 N165 2.020 . S
Zn171 O174 2.025 . S
Zn171 O179 2.024 . S
Zn171 O181 2.039 . S
Zn171 O183 2.034 . S
O172 C156 1.251 . S
O172 Zn163 2.039 . S
C173 O178 1.246 . S
C173 O179 1.249 . S
O174 C156 1.254 . S
O174 Zn171 2.025 . S
H175 C167 0.952 . S
H176 C158 0.952 . S
H177 C166 0.948 . S
O178 Zn163 2.034 . S
O178 C173 1.246 . S
O179 Zn171 2.024 . S
O179 C173 1.249 . S
H180 C162 0.948 . S
O181 Zn171 2.039 . S
O181 C185 1.251 . S
O182 Zn163 2.025 . S
O182 C185 1.254 . S
O183 C164 1.246 . S
O183 Zn171 2.034 . S
O184 Zn163 2.024 . S
O184 C164 1.249 . S
C185 O181 1.251 . S
C185 O182 1.254 . S
H186 C159 0.949 . S
H187 C161 0.950 . S
H188 C168 0.949 . S
H189 C170 0.950 . S
C190 O206 1.251 1_556 S
C190 O208 1.254 1_655 S
N191 C192 1.333 . S
N191 C196 1.307 . S
N191 Zn197 2.020 . S
C192 N191 1.333 . S
C192 C193 1.379 . S
C192 H210 0.952 . S
C193 C192 1.379 . S
C193 C194 1.390 . S
C193 H220 0.949 . S
C194 C193 1.390 . S
C194 C195 1.357 . S
C195 C194 1.357 . S
C195 C196 1.370 . S
C195 H221 0.950 . S
C196 N191 1.307 . S
C196 C195 1.370 . S
C196 H214 0.948 . S
Zn197 N191 2.020 . S
Zn197 O206 2.039 . S
Zn197 O212 2.034 1_655 S
Zn197 O216 2.025 1_655 S
Zn197 O218 2.024 . S
C198 O217 1.246 . S
C198 O218 1.249 1_556 S
N199 C200 1.307 . S
N199 C201 1.333 . S
N199 Zn205 2.020 . S
C200 N199 1.307 . S
C200 C204 1.370 . S
C200 H211 0.948 . S
C201 N199 1.333 . S
C201 C202 1.379 . S
C201 H209 0.952 . S
C202 C201 1.379 . S
C202 C203 1.390 . S
C202 H222 0.949 . S
C203 C202 1.390 . S
C203 C204 1.357 . S
C204 C200 1.370 . S
C204 C203 1.357 . S
C204 H223 0.950 . S
Zn205 N199 2.020 . S
Zn205 O208 2.025 . S
Zn205 O213 2.024 . S
Zn205 O215 2.039 . S
Zn205 O217 2.034 1_455 S
O206 C190 1.251 1_554 S
O206 Zn197 2.039 . S
C207 O212 1.246 . S
C207 O213 1.249 1_554 S
O208 C190 1.254 1_455 S
O208 Zn205 2.025 . S
H209 C201 0.952 . S
H210 C192 0.952 . S
H211 C200 0.948 . S
O212 Zn197 2.034 1_455 S
O212 C207 1.246 . S
O213 Zn205 2.024 . S
O213 C207 1.249 1_556 S
H214 C196 0.948 . S
O215 Zn205 2.039 . S
O215 C219 1.251 1_556 S
O216 Zn197 2.025 1_455 S
O216 C219 1.254 . S
O217 C198 1.246 . S
O217 Zn205 2.034 1_655 S
O218 Zn197 2.024 . S
O218 C198 1.249 1_554 S
C219 O215 1.251 1_554 S
C219 O216 1.254 . S
H220 C193 0.949 . S
H221 C195 0.950 . S
H222 C202 0.949 . S
H223 C204 0.950 . S
H224 C236 0.930 . S
H225 C238 0.930 . S
H226 C239 0.930 . S
H227 C243 0.959 . S
H228 C243 0.959 . S
H229 C243 0.961 . S
H230 C244 0.960 . S
H231 C244 0.961 . S
H232 C244 0.959 . S
H233 C247 0.929 . S
H234 C248 0.931 . S
H235 C250 0.930 . S
C236 H224 0.930 . S
C236 C237 1.399 . S
C236 C241 1.399 . S
C237 C236 1.399 . S
C237 C238 1.376 . S
C238 H225 0.930 . S
C238 C237 1.376 . S
C238 C239 1.388 . S
C239 H226 0.930 . S
C239 C238 1.388 . S
C239 C240 1.390 . S
C240 C239 1.390 . S
C240 C241 1.394 . S
C240 C246 1.465 . S
C241 C236 1.399 . S
C241 C240 1.394 . S
C241 C242 1.516 . S
C242 C241 1.516 . S
C242 C243 1.502 . S
C242 C244 1.561 . S
C242 C245 1.526 . S
C243 H227 0.959 . S
C243 H228 0.959 . S
C243 H229 0.961 . S
C243 C242 1.502 . S
C244 H230 0.960 . S
C244 H231 0.961 . S
C244 H232 0.959 . S
C244 C242 1.561 . S
C245 C242 1.526 . S
C245 C246 1.396 . S
C245 C250 1.390 . S
C246 C240 1.465 . S
C246 C245 1.396 . S
C246 C247 1.399 . S
C247 H233 0.929 . S
C247 C246 1.399 . S
C247 C248 1.385 . S
C248 H234 0.931 . S
C248 C247 1.385 . S
C248 C249 1.389 . S
C249 C248 1.389 . S
C249 C250 1.387 . S
C250 H235 0.930 . S
C250 C245 1.390 . S
C250 C249 1.387 . S
H251 C263 0.930 . S
H252 C265 0.930 . S
H253 C266 0.928 . S
H254 C270 0.959 . S
H255 C270 0.959 . S
H256 C270 0.961 . S
H257 C271 0.960 . S
H258 C271 0.961 . S
H259 C271 0.959 . S
H260 C274 0.929 . S
H261 C275 0.931 . S
H262 C277 0.930 . S
C263 H251 0.930 . S
C263 C264 1.399 . S
C263 C268 1.399 . S
C264 C263 1.399 . S
C264 C265 1.376 . S
C265 H252 0.930 . S
C265 C264 1.376 . S
C265 C266 1.389 1_565 S
C266 H253 0.928 . S
C266 C265 1.389 1_545 S
C266 C267 1.391 1_545 S
C267 C266 1.391 1_565 S
C267 C268 1.394 . S
C267 C273 1.465 . S
C268 C263 1.399 . S
C268 C267 1.394 . S
C268 C269 1.516 . S
C269 C268 1.516 . S
C269 C270 1.502 . S
C269 C271 1.561 . S
C269 C272 1.526 . S
C270 H254 0.959 . S
C270 H255 0.959 . S
C270 H256 0.961 . S
C270 C269 1.502 . S
C271 H257 0.960 . S
C271 H258 0.961 . S
C271 H259 0.959 . S
C271 C269 1.561 . S
C272 C269 1.526 . S
C272 C273 1.396 . S
C272 C277 1.390 . S
C273 C267 1.465 . S
C273 C272 1.396 . S
C273 C274 1.399 1_565 S
C274 H260 0.929 . S
C274 C273 1.399 1_545 S
C274 C275 1.385 . S
C275 H261 0.931 . S
C275 C274 1.385 . S
C275 C276 1.389 . S
C276 C275 1.389 . S
C276 C277 1.387 1_545 S
C277 H262 0.930 . S
C277 C272 1.390 . S
C277 C276 1.387 1_565 S
H278 C290 0.930 . S
H279 C292 0.930 . S
H280 C293 0.930 . S
H281 C297 0.959 . S
H282 C297 0.959 . S
H283 C297 0.961 . S
H284 C298 0.960 . S
H285 C298 0.961 . S
H286 C298 0.959 . S
H287 C301 0.929 . S
H288 C302 0.931 . S
H289 C304 0.930 . S
C290 H278 0.930 . S
C290 C291 1.399 . S
C290 C295 1.399 . S
C291 C290 1.399 . S
C291 C292 1.376 . S
C292 H279 0.930 . S
C292 C291 1.376 . S
C292 C293 1.388 . S
C293 H280 0.930 . S
C293 C292 1.388 . S
C293 C294 1.390 . S
C294 C293 1.390 . S
C294 C295 1.394 . S
C294 C300 1.465 . S
C295 C290 1.399 . S
C295 C294 1.394 . S
C295 C296 1.516 . S
C296 C295 1.516 . S
C296 C297 1.502 . S
C296 C298 1.561 . S
C296 C299 1.526 . S
C297 H281 0.959 . S
C297 H282 0.959 . S
C297 H283 0.961 . S
C297 C296 1.502 . S
C298 H284 0.960 . S
C298 H285 0.961 . S
C298 H286 0.959 . S
C298 C296 1.561 . S
C299 C296 1.526 . S
C299 C300 1.396 . S
C299 C304 1.390 . S
C300 C294 1.465 . S
C300 C299 1.396 . S
C300 C301 1.399 . S
C301 H287 0.929 . S
C301 C300 1.399 . S
C301 C302 1.385 . S
C302 H288 0.931 . S
C302 C301 1.385 . S
C302 C303 1.389 . S
C303 C302 1.389 . S
C303 C304 1.387 . S
C304 H289 0.930 . S
C304 C299 1.390 . S
C304 C303 1.387 . S
H305 C317 0.930 . S
H306 C319 0.930 . S
H307 C320 0.930 . S
H308 C324 0.959 . S
H309 C324 0.959 . S
H310 C324 0.961 . S
H311 C325 0.960 . S
H312 C325 0.961 . S
H313 C325 0.959 . S
H314 C328 0.929 . S
H315 C329 0.931 . S
H316 C331 0.930 . S
C317 H305 0.930 . S
C317 C318 1.399 . S
C317 C322 1.399 . S
C318 C317 1.399 . S
C318 C319 1.376 . S
C319 H306 0.930 . S
C319 C318 1.376 . S
C319 C320 1.388 . S
C320 H307 0.930 . S
C320 C319 1.388 . S
C320 C321 1.390 . S
C321 C320 1.390 . S
C321 C322 1.394 . S
C321 C327 1.465 . S
C322 C317 1.399 . S
C322 C321 1.394 . S
C322 C323 1.516 . S
C323 C322 1.516 . S
C323 C324 1.502 . S
C323 C325 1.561 . S
C323 C326 1.526 . S
C324 H308 0.959 . S
C324 H309 0.959 . S
C324 H310 0.961 . S
C324 C323 1.502 . S
C325 H311 0.960 . S
C325 H312 0.961 . S
C325 H313 0.959 . S
C325 C323 1.561 . S
C326 C323 1.526 . S
C326 C327 1.396 . S
C326 C331 1.390 . S
C327 C321 1.465 . S
C327 C326 1.396 . S
C327 C328 1.399 . S
C328 H314 0.929 . S
C328 C327 1.399 . S
C328 C329 1.385 . S
C329 H315 0.931 . S
C329 C328 1.385 . S
C329 C330 1.389 . S
C330 C329 1.389 . S
C330 C331 1.387 . S
C331 H316 0.930 . S
C331 C326 1.390 . S
C331 C330 1.387 . S
H332 C344 0.930 . S
H333 C346 0.930 . S
H334 C347 0.930 . S
H335 C351 0.959 . S
H336 C351 0.959 . S
H337 C351 0.961 . S
H338 C352 0.960 . S
H339 C352 0.961 . S
H340 C352 0.959 . S
H341 C355 0.929 . S
H342 C356 0.931 . S
H343 C358 0.930 . S
C344 H332 0.930 . S
C344 C345 1.399 . S
C344 C349 1.399 . S
C345 C344 1.399 . S
C345 C346 1.376 . S
C346 H333 0.930 . S
C346 C345 1.376 . S
C346 C347 1.388 . S
C347 H334 0.930 . S
C347 C346 1.388 . S
C347 C348 1.390 . S
C348 C347 1.390 . S
C348 C349 1.394 . S
C348 C354 1.465 . S
C349 C344 1.399 . S
C349 C348 1.394 . S
C349 C350 1.516 . S
C350 C349 1.516 . S
C350 C351 1.502 . S
C350 C352 1.561 . S
C350 C353 1.526 . S
C351 H335 0.959 . S
C351 H336 0.959 . S
C351 H337 0.961 . S
C351 C350 1.502 . S
C352 H338 0.960 . S
C352 H339 0.961 . S
C352 H340 0.959 . S
C352 C350 1.561 . S
C353 C350 1.526 . S
C353 C354 1.396 . S
C353 C358 1.390 . S
C354 C348 1.465 . S
C354 C353 1.396 . S
C354 C355 1.399 . S
C355 H341 0.929 . S
C355 C354 1.399 . S
C355 C356 1.385 . S
C356 H342 0.931 . S
C356 C355 1.385 . S
C356 C357 1.389 . S
C357 C356 1.389 . S
C357 C358 1.387 . S
C358 H343 0.930 . S
C358 C353 1.390 . S
C358 C357 1.387 . S
H359 C371 0.930 . S
H360 C373 0.930 . S
H361 C374 0.930 . S
H362 C378 0.959 . S
H363 C378 0.959 . S
H364 C378 0.961 . S
H365 C379 0.960 . S
H366 C379 0.961 . S
H367 C379 0.959 . S
H368 C382 0.929 . S
H369 C383 0.931 . S
H370 C385 0.930 . S
C371 H359 0.930 . S
C371 C372 1.399 . S
C371 C376 1.399 . S
C372 C371 1.399 . S
C372 C373 1.376 1_565 S
C373 H360 0.930 . S
C373 C372 1.376 1_545 S
C373 C374 1.388 . S
C374 H361 0.930 . S
C374 C373 1.388 . S
C374 C375 1.390 1_545 S
C375 C374 1.390 1_565 S
C375 C376 1.394 . S
C375 C381 1.465 1_565 S
C376 C371 1.399 . S
C376 C375 1.394 . S
C376 C377 1.516 . S
C377 C376 1.516 . S
C377 C378 1.502 . S
C377 C379 1.561 . S
C377 C380 1.526 . S
C378 H362 0.959 . S
C378 H363 0.959 . S
C378 H364 0.961 . S
C378 C377 1.502 . S
C379 H365 0.960 . S
C379 H366 0.961 . S
C379 H367 0.959 . S
C379 C377 1.561 . S
C380 C377 1.526 . S
C380 C381 1.396 1_565 S
C380 C385 1.390 . S
C381 C375 1.465 1_545 S
C381 C380 1.396 1_545 S
C381 C382 1.399 . S
C382 H368 0.929 . S
C382 C381 1.399 . S
C382 C383 1.385 . S
C383 H369 0.931 . S
C383 C382 1.385 . S
C383 C384 1.389 . S
C384 C383 1.389 . S
C384 C385 1.387 1_545 S
C385 H370 0.930 . S
C385 C380 1.390 . S
C385 C384 1.387 1_565 S
H386 C398 0.930 . S
H387 C400 0.930 1_554 S
H388 C401 0.930 . S
H389 C405 0.959 . S
H390 C405 0.959 . S
H391 C405 0.961 . S
H392 C406 0.960 . S
H393 C406 0.961 . S
H394 C406 0.959 . S
H395 C409 0.929 . S
H396 C410 0.931 . S
H397 C412 0.930 . S
C398 H386 0.930 . S
C398 C399 1.399 . S
C398 C403 1.399 . S
C399 C398 1.399 . S
C399 C400 1.376 . S
C400 H387 0.930 1_556 S
C400 C399 1.376 . S
C400 C401 1.388 1_556 S
C401 H388 0.930 . S
C401 C400 1.388 1_554 S
C401 C402 1.390 1_554 S
C402 C401 1.390 1_556 S
C402 C403 1.394 . S
C402 C408 1.465 . S
C403 C398 1.399 . S
C403 C402 1.394 . S
C403 C404 1.516 . S
C404 C403 1.516 . S
C404 C405 1.502 . S
C404 C406 1.561 . S
C404 C407 1.526 . S
C405 H389 0.959 . S
C405 H390 0.959 . S
C405 H391 0.961 . S
C405 C404 1.502 . S
C406 H392 0.960 . S
C406 H393 0.961 . S
C406 H394 0.959 . S
C406 C404 1.561 . S
C407 C404 1.526 . S
C407 C408 1.396 . S
C407 C412 1.390 . S
C408 C402 1.465 . S
C408 C407 1.396 . S
C408 C409 1.399 1_556 S
C409 H395 0.929 . S
C409 C408 1.399 1_554 S
C409 C410 1.385 . S
C410 H396 0.931 . S
C410 C409 1.385 . S
C410 C411 1.389 1_554 S
C411 C410 1.389 1_556 S
C411 C412 1.387 . S
C412 H397 0.930 . S
C412 C407 1.390 . S
C412 C411 1.387 . S
H413 C425 0.930 . S
H414 C427 0.930 . S
H415 C428 0.930 . S
H416 C432 0.959 . S
H417 C432 0.959 . S
H418 C432 0.961 . S
H419 C433 0.960 . S
H420 C433 0.961 . S
H421 C433 0.959 . S
H422 C436 0.929 . S
H423 C437 0.931 . S
H424 C439 0.930 . S
C425 H413 0.930 . S
C425 C426 1.399 . S
C425 C430 1.399 . S
C426 C425 1.399 . S
C426 C427 1.376 . S
C427 H414 0.930 . S
C427 C426 1.376 . S
C427 C428 1.388 . S
C428 H415 0.930 . S
C428 C427 1.388 . S
C428 C429 1.390 . S
C429 C428 1.390 . S
C429 C430 1.394 . S
C429 C435 1.465 . S
C430 C425 1.399 . S
C430 C429 1.394 . S
C430 C431 1.516 . S
C431 C430 1.516 . S
C431 C432 1.502 . S
C431 C433 1.561 . S
C431 C434 1.526 . S
C432 H416 0.959 . S
C432 H417 0.959 . S
C432 H418 0.961 . S
C432 C431 1.502 . S
C433 H419 0.960 . S
C433 H420 0.961 . S
C433 H421 0.959 . S
C433 C431 1.561 . S
C434 C431 1.526 . S
C434 C435 1.396 . S
C434 C439 1.390 . S
C435 C429 1.465 . S
C435 C434 1.396 . S
C435 C436 1.399 . S
C436 H422 0.929 . S
C436 C435 1.399 . S
C436 C437 1.385 . S
C437 H423 0.931 . S
C437 C436 1.385 . S
C437 C438 1.389 . S
C438 C437 1.389 . S
C438 C439 1.387 . S
C439 H424 0.930 . S
C439 C434 1.390 . S
C439 C438 1.387 . S
H440 C452 0.930 . S
H441 C454 0.930 . S
H442 C455 0.930 . S
H443 C459 0.959 . S
H444 C459 0.959 . S
H445 C459 0.961 . S
H446 C460 0.960 1_556 S
H447 C460 0.961 1_556 S
H448 C460 0.959 . S
H449 C463 0.929 . S
H450 C464 0.937 . S
H451 C466 0.930 . S
C452 H440 0.930 . S
C452 C453 1.399 . S
C452 C457 1.399 . S
C453 C452 1.399 . S
C453 C454 1.376 . S
C454 H441 0.930 . S
C454 C453 1.376 . S
C454 C455 1.388 . S
C455 H442 0.930 . S
C455 C454 1.388 . S
C455 C456 1.390 . S
C456 C455 1.390 . S
C456 C457 1.394 . S
C456 C462 1.465 . S
C457 C452 1.399 . S
C457 C456 1.394 . S
C457 C458 1.516 . S
C458 C457 1.516 . S
C458 C459 1.502 . S
C458 C460 1.561 . S
C458 C461 1.526 . S
C459 H443 0.959 . S
C459 H444 0.959 . S
C459 H445 0.961 . S
C459 C458 1.502 . S
C460 H446 0.960 1_554 S
C460 H447 0.961 1_554 S
C460 H448 0.959 . S
C460 C458 1.561 . S
C461 C458 1.526 . S
C461 C462 1.396 . S
C461 C466 1.390 . S
C462 C456 1.465 . S
C462 C461 1.396 . S
C462 C463 1.399 . S
C463 H449 0.929 . S
C463 C462 1.399 . S
C463 C464 1.385 . S
C464 H450 0.937 . S
C464 C463 1.385 . S
C464 C465 1.389 . S
C465 C464 1.389 . S
C465 C466 1.387 . S
C466 H451 0.930 . S
C466 C461 1.390 . S
C466 C465 1.387 . S
H467 C479 0.930 1_554 S
H468 C481 0.930 . S
H469 C482 0.930 . S
H470 C486 0.959 . S
H471 C486 0.959 . S
H472 C486 0.961 . S
H473 C487 0.960 . S
H474 C487 0.961 . S
H475 C487 0.959 . S
H476 C490 0.929 . S
H477 C491 0.931 . S
H478 C493 0.930 1_554 S
C479 H467 0.930 1_556 S
C479 C480 1.399 . S
C479 C484 1.399 . S
C480 C479 1.399 . S
C480 C481 1.376 . S
C481 H468 0.930 . S
C481 C480 1.376 . S
C481 C482 1.388 . S
C482 H469 0.930 . S
C482 C481 1.388 . S
C482 C483 1.390 . S
C483 C482 1.390 . S
C483 C484 1.394 . S
C483 C489 1.465 . S
C484 C479 1.399 . S
C484 C483 1.394 . S
C484 C485 1.516 1_556 S
C485 C484 1.516 1_554 S
C485 C486 1.502 . S
C485 C487 1.561 . S
C485 C488 1.526 1_554 S
C486 H470 0.959 . S
C486 H471 0.959 . S
C486 H472 0.961 . S
C486 C485 1.502 . S
C487 H473 0.960 . S
C487 H474 0.961 . S
C487 H475 0.959 . S
C487 C485 1.561 . S
C488 C485 1.526 1_556 S
C488 C489 1.396 . S
C488 C493 1.390 . S
C489 C483 1.465 . S
C489 C488 1.396 . S
C489 C490 1.399 . S
C490 H476 0.929 . S
C490 C489 1.399 . S
C490 C491 1.385 . S
C491 H477 0.931 . S
C491 C490 1.385 . S
C491 C492 1.389 . S
C492 C491 1.389 . S
C492 C493 1.387 . S
C493 H478 0.930 1_556 S
C493 C488 1.390 . S
C493 C492 1.387 . S
H494 C506 0.930 . S
H495 C508 0.930 . S
H496 C509 0.930 . S
H497 C513 0.959 . S
H498 C513 0.959 . S
H499 C513 0.961 . S
H500 C514 0.960 . S
H501 C514 0.961 . S
H502 C514 0.959 . S
H503 C517 0.929 . S
H504 C518 0.931 . S
H505 C520 0.930 . S
C506 H494 0.930 . S
C506 C507 1.399 . S
C506 C511 1.399 . S
C507 C506 1.399 . S
C507 C508 1.376 . S
C508 H495 0.930 . S
C508 C507 1.376 . S
C508 C509 1.388 . S
C509 H496 0.930 . S
C509 C508 1.388 . S
C509 C510 1.390 . S
C510 C509 1.390 . S
C510 C511 1.394 . S
C510 C516 1.465 . S
C511 C506 1.399 . S
C511 C510 1.394 . S
C511 C512 1.516 . S
C512 C511 1.516 . S
C512 C513 1.502 . S
C512 C514 1.561 . S
C512 C515 1.526 . S
C513 H497 0.959 . S
C513 H498 0.959 . S
C513 H499 0.961 . S
C513 C512 1.502 . S
C514 H500 0.960 . S
C514 H501 0.961 . S
C514 H502 0.959 . S
C514 C512 1.561 . S
C515 C512 1.526 . S
C515 C516 1.396 . S
C515 C520 1.390 . S
C516 C510 1.465 . S
C516 C515 1.396 . S
C516 C517 1.399 . S
C517 H503 0.929 . S
C517 C516 1.399 . S
C517 C518 1.385 . S
C518 H504 0.931 . S
C518 C517 1.385 . S
C518 C519 1.389 . S
C519 C518 1.389 . S
C519 C520 1.387 . S
C520 H505 0.930 . S
C520 C515 1.390 . S
C520 C519 1.387 . S
H521 C533 0.930 . S
H522 C535 0.930 . S
H523 C536 0.930 . S
H524 C540 0.959 . S
H525 C540 0.959 . S
H526 C540 0.961 . S
H527 C541 0.960 . S
H528 C541 0.961 . S
H529 C541 0.959 . S
H530 C544 0.929 . S
H531 C545 0.931 . S
H532 C547 0.930 . S
C533 H521 0.930 . S
C533 C534 1.399 . S
C533 C538 1.399 . S
C534 C533 1.399 . S
C534 C535 1.376 . S
C535 H522 0.930 . S
C535 C534 1.376 . S
C535 C536 1.388 . S
C536 H523 0.930 . S
C536 C535 1.388 . S
C536 C537 1.390 . S
C537 C536 1.390 . S
C537 C538 1.394 . S
C537 C543 1.465 . S
C538 C533 1.399 . S
C538 C537 1.394 . S
C538 C539 1.516 . S
C539 C538 1.516 . S
C539 C540 1.502 . S
C539 C541 1.561 . S
C539 C542 1.526 . S
C540 H524 0.959 . S
C540 H525 0.959 . S
C540 H526 0.961 . S
C540 C539 1.502 . S
C541 H527 0.960 . S
C541 H528 0.961 . S
C541 H529 0.959 . S
C541 C539 1.561 . S
C542 C539 1.526 . S
C542 C543 1.396 . S
C542 C547 1.390 . S
C543 C537 1.465 . S
C543 C542 1.396 . S
C543 C544 1.399 . S
C544 H530 0.929 . S
C544 C543 1.399 . S
C544 C545 1.385 . S
C545 H531 0.931 . S
C545 C544 1.385 . S
C545 C546 1.389 . S
C546 C545 1.389 . S
C546 C547 1.387 . S
C547 H532 0.930 . S
C547 C542 1.390 . S
C547 C546 1.387 . S
H548 C560 0.930 . S
H549 C562 0.930 . S
H550 C563 0.930 . S
H551 C567 0.968 . S
H552 C567 0.964 . S
H553 C567 0.962 . S
H554 C568 0.960 . S
H555 C568 0.961 . S
H556 C568 0.959 . S
H557 C571 0.929 . S
H558 C572 0.931 . S
H559 C574 0.930 . S
C560 H548 0.930 . S
C560 C561 1.399 . S
C560 C565 1.399 . S
C561 C560 1.399 . S
C561 C562 1.376 . S
C562 H549 0.930 . S
C562 C561 1.376 . S
C562 C563 1.388 1_565 S
C563 H550 0.930 . S
C563 C562 1.388 1_545 S
C563 C564 1.390 1_545 S
C564 C563 1.390 1_565 S
C564 C565 1.394 . S
C564 C570 1.465 . S
C565 C560 1.399 . S
C565 C564 1.394 . S
C565 C566 1.516 . S
C566 C565 1.516 . S
C566 C567 1.488 1_655 S
C566 C568 1.561 . S
C566 C569 1.526 . S
C567 H551 0.968 . S
C567 H552 0.964 . S
C567 H553 0.962 . S
C567 C566 1.488 1_455 S
C568 H554 0.960 . S
C568 H555 0.961 . S
C568 H556 0.959 . S
C568 C566 1.561 . S
C569 C566 1.526 . S
C569 C570 1.396 . S
C569 C574 1.390 . S
C570 C564 1.465 . S
C570 C569 1.396 . S
C570 C571 1.399 1_565 S
C571 H557 0.929 . S
C571 C570 1.399 1_545 S
C571 C572 1.385 . S
C572 H558 0.931 . S
C572 C571 1.385 . S
C572 C573 1.389 . S
C573 C572 1.389 . S
C573 C574 1.387 1_545 S
C574 H559 0.930 . S
C574 C569 1.390 . S
C574 C573 1.387 1_565 S
H575 C587 0.930 . S
H576 C589 0.930 . S
H577 C590 0.930 . S
H578 C594 0.959 . S
H579 C594 0.959 . S
H580 C594 0.961 . S
H581 C595 0.960 . S
H582 C595 0.961 . S
H583 C595 0.959 . S
H584 C598 0.929 . S
H585 C599 0.931 . S
H586 C601 0.930 . S
C587 H575 0.930 . S
C587 C588 1.399 . S
C587 C592 1.399 . S
C588 C587 1.399 . S
C588 C589 1.376 . S
C589 H576 0.930 . S
C589 C588 1.376 . S
C589 C590 1.388 . S
C590 H577 0.930 . S
C590 C589 1.388 . S
C590 C591 1.390 . S
C591 C590 1.390 . S
C591 C592 1.394 . S
C591 C597 1.465 . S
C592 C587 1.399 . S
C592 C591 1.394 . S
C592 C593 1.516 . S
C593 C592 1.516 . S
C593 C594 1.502 . S
C593 C595 1.561 . S
C593 C596 1.526 . S
C594 H578 0.959 . S
C594 H579 0.959 . S
C594 H580 0.961 . S
C594 C593 1.502 . S
C595 H581 0.960 . S
C595 H582 0.961 . S
C595 H583 0.959 . S
C595 C593 1.561 . S
C596 C593 1.526 . S
C596 C597 1.396 . S
C596 C601 1.390 . S
C597 C591 1.465 . S
C597 C596 1.396 . S
C597 C598 1.399 . S
C598 H584 0.929 . S
C598 C597 1.399 . S
C598 C599 1.385 . S
C599 H585 0.931 . S
C599 C598 1.385 . S
C599 C600 1.389 . S
C600 C599 1.389 . S
C600 C601 1.387 . S
C601 H586 0.930 . S
C601 C596 1.390 . S
C601 C600 1.387 . S
H602 C614 0.930 . S
H603 C616 0.930 . S
H604 C617 0.930 . S
H605 C621 0.959 . S
H606 C621 0.959 . S
H607 C621 0.961 . S
H608 C622 0.960 . S
H609 C622 0.961 . S
H610 C622 0.959 . S
H611 C625 0.929 . S
H612 C626 0.931 . S
H613 C628 0.930 . S
C614 H602 0.930 . S
C614 C615 1.399 . S
C614 C619 1.399 . S
C615 C614 1.399 . S
C615 C616 1.376 . S
C616 H603 0.930 . S
C616 C615 1.376 . S
C616 C617 1.388 . S
C617 H604 0.930 . S
C617 C616 1.388 . S
C617 C618 1.390 . S
C618 C617 1.390 . S
C618 C619 1.394 . S
C618 C624 1.465 . S
C619 C614 1.399 . S
C619 C618 1.394 . S
C619 C620 1.516 . S
C620 C619 1.516 . S
C620 C621 1.502 . S
C620 C622 1.561 . S
C620 C623 1.526 . S
C621 H605 0.959 . S
C621 H606 0.959 . S
C621 H607 0.961 . S
C621 C620 1.502 . S
C622 H608 0.960 . S
C622 H609 0.961 . S
C622 H610 0.959 . S
C622 C620 1.561 . S
C623 C620 1.526 . S
C623 C624 1.396 . S
C623 C628 1.390 . S
C624 C618 1.465 . S
C624 C623 1.396 . S
C624 C625 1.399 . S
C625 H611 0.929 . S
C625 C624 1.399 . S
C625 C626 1.385 . S
C626 H612 0.931 . S
C626 C625 1.385 . S
C626 C627 1.389 . S
C627 C626 1.389 . S
C627 C628 1.387 . S
C628 H613 0.930 . S
C628 C623 1.390 . S
C628 C627 1.387 . S
H629 C641 0.930 . S
H630 C643 0.930 . S
H631 C644 0.930 . S
H632 C648 0.959 . S
H633 C648 0.959 . S
H634 C648 0.961 . S
H635 C649 0.960 . S
H636 C649 0.961 . S
H637 C649 0.959 . S
H638 C652 0.929 . S
H639 C653 0.931 . S
H640 C655 0.930 . S
C641 H629 0.930 . S
C641 C642 1.399 . S
C641 C646 1.399 . S
C642 C641 1.399 . S
C642 C643 1.376 . S
C643 H630 0.930 . S
C643 C642 1.376 . S
C643 C644 1.388 . S
C644 H631 0.930 . S
C644 C643 1.388 . S
C644 C645 1.390 . S
C645 C644 1.390 . S
C645 C646 1.394 . S
C645 C651 1.465 . S
C646 C641 1.399 . S
C646 C645 1.394 . S
C646 C647 1.516 . S
C647 C646 1.516 . S
C647 C648 1.502 . S
C647 C649 1.561 . S
C647 C650 1.526 . S
C648 H632 0.959 . S
C648 H633 0.959 . S
C648 H634 0.961 . S
C648 C647 1.502 . S
C649 H635 0.960 . S
C649 H636 0.961 . S
C649 H637 0.959 . S
C649 C647 1.561 . S
C650 C647 1.526 . S
C650 C651 1.396 . S
C650 C655 1.390 . S
C651 C645 1.465 . S
C651 C650 1.396 . S
C651 C652 1.399 . S
C652 H638 0.929 . S
C652 C651 1.399 . S
C652 C653 1.385 . S
C653 H639 0.931 . S
C653 C652 1.385 . S
C653 C654 1.389 . S
C654 C653 1.389 . S
C654 C655 1.387 . S
C655 H640 0.930 . S
C655 C650 1.390 . S
C655 C654 1.387 . S
H656 C668 0.930 . S
H657 C670 0.930 . S
H658 C671 0.930 . S
H659 C675 0.959 . S
H660 C675 0.959 . S
H661 C675 0.961 . S
H662 C676 0.960 . S
H663 C676 0.961 . S
H664 C676 0.959 . S
H665 C679 0.929 . S
H666 C680 0.931 . S
H667 C682 0.930 1_554 S
C668 H656 0.930 . S
C668 C669 1.399 . S
C668 C673 1.399 . S
C669 C668 1.399 . S
C669 C670 1.376 1_565 S
C670 H657 0.930 . S
C670 C669 1.376 1_545 S
C670 C671 1.388 . S
C671 H658 0.930 . S
C671 C670 1.388 . S
C671 C672 1.390 . S
C672 C671 1.390 . S
C672 C673 1.394 1_545 S
C672 C678 1.465 . S
C673 C668 1.399 . S
C673 C672 1.394 1_565 S
C673 C674 1.516 . S
C674 C673 1.516 . S
C674 C675 1.502 . S
C674 C676 1.561 1_556 S
C674 C677 1.526 . S
C675 H659 0.959 . S
C675 H660 0.959 . S
C675 H661 0.961 . S
C675 C674 1.502 . S
C676 H662 0.960 . S
C676 H663 0.961 . S
C676 H664 0.959 . S
C676 C674 1.561 1_554 S
C677 C674 1.526 . S
C677 C678 1.396 1_565 S
C677 C682 1.390 . S
C678 C672 1.465 . S
C678 C677 1.396 1_545 S
C678 C679 1.399 . S
C679 H665 0.929 . S
C679 C678 1.399 . S
C679 C680 1.385 . S
C680 H666 0.931 . S
C680 C679 1.385 . S
C680 C681 1.389 . S
C681 C680 1.389 . S
C681 C682 1.387 1_545 S
C682 H667 0.930 1_556 S
C682 C677 1.390 . S
C682 C681 1.387 1_565 S
H683 C695 0.930 . S
H684 C697 0.930 . S
H685 C698 0.930 . S
H686 C702 0.959 . S
H687 C702 0.959 . S
H688 C702 0.961 . S
H689 C703 0.960 . S
H690 C703 0.961 . S
H691 C703 0.959 . S
H692 C706 0.929 . S
H693 C707 0.931 . S
H694 C709 0.930 . S
C695 H683 0.930 . S
C695 C696 1.399 . S
C695 C700 1.399 . S
C696 C695 1.399 . S
C696 C697 1.376 . S
C697 H684 0.930 . S
C697 C696 1.376 . S
C697 C698 1.388 . S
C698 H685 0.930 . S
C698 C697 1.388 . S
C698 C699 1.390 . S
C699 C698 1.390 . S
C699 C700 1.394 . S
C699 C705 1.465 . S
C700 C695 1.399 . S
C700 C699 1.394 . S
C700 C701 1.516 . S
C701 C700 1.516 . S
C701 C702 1.502 . S
C701 C703 1.561 . S
C701 C704 1.526 . S
C702 H686 0.959 . S
C702 H687 0.959 . S
C702 H688 0.961 . S
C702 C701 1.502 . S
C703 H689 0.960 . S
C703 H690 0.961 . S
C703 H691 0.959 . S
C703 C701 1.561 . S
C704 C701 1.526 . S
C704 C705 1.396 . S
C704 C709 1.390 . S
C705 C699 1.465 . S
C705 C704 1.396 . S
C705 C706 1.399 . S
C706 H692 0.929 . S
C706 C705 1.399 . S
C706 C707 1.385 . S
C707 H693 0.931 . S
C707 C706 1.385 . S
C707 C708 1.389 . S
C708 C707 1.389 . S
C708 C709 1.387 . S
C709 H694 0.930 . S
C709 C704 1.390 . S
C709 C708 1.387 . S
H710 C722 0.930 . S
H711 C724 0.930 . S
H712 C725 0.930 . S
H713 C729 0.959 . S
H714 C729 0.959 . S
H715 C729 0.961 . S
H716 C730 0.960 . S
H717 C730 0.961 1_556 S
H718 C730 0.959 . S
H719 C733 0.929 . S
H720 C734 0.931 . S
H721 C736 0.930 . S
C722 H710 0.930 . S
C722 C723 1.399 . S
C722 C727 1.399 . S
C723 C722 1.399 . S
C723 C724 1.376 . S
C724 H711 0.930 . S
C724 C723 1.376 . S
C724 C725 1.388 . S
C725 H712 0.930 . S
C725 C724 1.388 . S
C725 C726 1.390 . S
C726 C725 1.390 . S
C726 C727 1.394 . S
C726 C732 1.465 . S
C727 C722 1.399 . S
C727 C726 1.394 . S
C727 C728 1.516 . S
C728 C727 1.516 . S
C728 C729 1.502 . S
C728 C730 1.561 . S
C728 C731 1.526 . S
C729 H713 0.959 . S
C729 H714 0.959 . S
C729 H715 0.961 . S
C729 C728 1.502 . S
C730 H716 0.960 . S
C730 H717 0.961 1_554 S
C730 H718 0.959 . S
C730 C728 1.561 . S
C731 C728 1.526 . S
C731 C732 1.396 . S
C731 C736 1.390 . S
C732 C726 1.465 . S
C732 C731 1.396 . S
C732 C733 1.399 . S
C733 H719 0.929 . S
C733 C732 1.399 . S
C733 C734 1.385 . S
C734 H720 0.931 . S
C734 C733 1.385 . S
C734 C735 1.389 . S
C735 C734 1.389 . S
C735 C736 1.387 . S
C736 H721 0.930 . S
C736 C731 1.390 . S
C736 C735 1.387 . S
H737 C749 0.930 . S
H738 C751 0.930 . S
H739 C752 0.930 . S
H740 C756 0.959 . S
H741 C756 0.959 . S
H742 C756 0.961 . S
H743 C757 0.960 . S
H744 C757 0.961 . S
H745 C757 0.959 . S
H746 C760 0.929 . S
H747 C761 0.931 . S
H748 C763 0.930 . S
C749 H737 0.930 . S
C749 C750 1.399 . S
C749 C754 1.399 . S
C750 C749 1.399 . S
C750 C751 1.376 . S
C751 H738 0.930 . S
C751 C750 1.376 . S
C751 C752 1.388 . S
C752 H739 0.930 . S
C752 C751 1.388 . S
C752 C753 1.390 . S
C753 C752 1.390 . S
C753 C754 1.394 . S
C753 C759 1.465 . S
C754 C749 1.399 . S
C754 C753 1.394 . S
C754 C755 1.516 . S
C755 C754 1.516 . S
C755 C756 1.502 . S
C755 C757 1.561 . S
C755 C758 1.526 . S
C756 H740 0.959 . S
C756 H741 0.959 . S
C756 H742 0.961 . S
C756 C755 1.502 . S
C757 H743 0.960 . S
C757 H744 0.961 . S
C757 H745 0.959 . S
C757 C755 1.561 . S
C758 C755 1.526 . S
C758 C759 1.396 . S
C758 C763 1.390 . S
C759 C753 1.465 . S
C759 C758 1.396 . S
C759 C760 1.399 . S
C760 H746 0.929 . S
C760 C759 1.399 . S
C760 C761 1.385 . S
C761 H747 0.931 . S
C761 C760 1.385 . S
C761 C762 1.389 . S
C762 C761 1.389 . S
C762 C763 1.387 . S
C763 H748 0.930 . S
C763 C758 1.390 . S
C763 C762 1.387 . S
H764 C776 0.930 . S
H765 C778 0.930 . S
H766 C779 0.930 . S
H767 C783 0.959 . S
H768 C783 0.959 . S
H769 C783 0.961 . S
H770 C784 0.960 . S
H771 C784 0.961 . S
H772 C784 0.959 . S
H773 C787 0.929 1_554 S
H774 C788 0.931 1_554 S
H775 C790 0.930 . S
C776 H764 0.930 . S
C776 C777 1.399 . S
C776 C781 1.399 . S
C777 C776 1.399 . S
C777 C778 1.376 . S
C778 H765 0.930 . S
C778 C777 1.376 . S
C778 C779 1.388 . S
C779 H766 0.930 . S
C779 C778 1.388 . S
C779 C780 1.390 . S
C780 C779 1.390 . S
C780 C781 1.394 . S
C780 C786 1.465 . S
C781 C776 1.399 . S
C781 C780 1.394 . S
C781 C782 1.516 . S
C782 C781 1.516 . S
C782 C783 1.502 . S
C782 C784 1.561 . S
C782 C785 1.526 . S
C783 H767 0.959 . S
C783 H768 0.959 . S
C783 H769 0.961 . S
C783 C782 1.502 . S
C784 H770 0.960 . S
C784 H771 0.961 . S
C784 H772 0.959 . S
C784 C782 1.561 . S
C785 C782 1.526 . S
C785 C786 1.396 . S
C785 C790 1.390 . S
C786 C780 1.465 . S
C786 C785 1.396 . S
C786 C787 1.399 . S
C787 H773 0.929 1_556 S
C787 C786 1.399 . S
C787 C788 1.385 . S
C788 H774 0.931 1_556 S
C788 C787 1.385 . S
C788 C789 1.389 . S
C789 C788 1.389 . S
C789 C790 1.387 . S
C790 H775 0.930 . S
C790 C785 1.390 . S
C790 C789 1.387 . S
H791 C803 0.930 . S
H792 C805 0.930 . S
H793 C806 0.930 . S
H794 C810 0.959 . S
H795 C810 0.959 . S
H796 C810 0.961 . S
H797 C811 0.960 . S
H798 C811 0.961 . S
H799 C811 0.959 . S
H800 C814 0.929 . S
H801 C815 0.931 . S
H802 C817 0.930 . S
C803 H791 0.930 . S
C803 C804 1.399 . S
C803 C808 1.399 . S
C804 C803 1.399 . S
C804 C805 1.376 . S
C805 H792 0.930 . S
C805 C804 1.376 . S
C805 C806 1.388 . S
C806 H793 0.930 . S
C806 C805 1.388 . S
C806 C807 1.390 . S
C807 C806 1.390 . S
C807 C808 1.394 . S
C807 C813 1.465 . S
C808 C803 1.399 . S
C808 C807 1.394 . S
C808 C809 1.516 . S
C809 C808 1.516 . S
C809 C810 1.502 . S
C809 C811 1.561 . S
C809 C812 1.526 . S
C810 H794 0.959 . S
C810 H795 0.959 . S
C810 H796 0.961 . S
C810 C809 1.502 . S
C811 H797 0.960 . S
C811 H798 0.961 . S
C811 H799 0.959 . S
C811 C809 1.561 . S
C812 C809 1.526 . S
C812 C813 1.396 . S
C812 C817 1.390 . S
C813 C807 1.465 . S
C813 C812 1.396 . S
C813 C814 1.399 . S
C814 H800 0.929 . S
C814 C813 1.399 . S
C814 C815 1.385 . S
C815 H801 0.931 . S
C815 C814 1.385 . S
C815 C816 1.389 . S
C816 C815 1.389 . S
C816 C817 1.387 . S
C817 H802 0.930 . S
C817 C812 1.390 . S
C817 C816 1.387 . S
H818 C830 0.930 . S
H819 C832 0.930 . S
H820 C833 0.930 . S
H821 C837 0.959 . S
H822 C837 0.959 . S
H823 C837 0.961 . S
H824 C838 0.960 . S
H825 C838 0.961 . S
H826 C838 0.959 . S
H827 C841 0.929 . S
H828 C842 0.931 . S
H829 C844 0.930 . S
C830 H818 0.930 . S
C830 C831 1.399 . S
C830 C835 1.399 . S
C831 C830 1.399 . S
C831 C832 1.376 . S
C832 H819 0.930 . S
C832 C831 1.376 . S
C832 C833 1.388 . S
C833 H820 0.930 . S
C833 C832 1.388 . S
C833 C834 1.390 . S
C834 C833 1.390 . S
C834 C835 1.394 . S
C834 C840 1.465 . S
C835 C830 1.399 . S
C835 C834 1.394 . S
C835 C836 1.516 . S
C836 C835 1.516 . S
C836 C837 1.502 . S
C836 C838 1.561 . S
C836 C839 1.526 . S
C837 H821 0.959 . S
C837 H822 0.959 . S
C837 H823 0.961 . S
C837 C836 1.502 . S
C838 H824 0.960 . S
C838 H825 0.961 . S
C838 H826 0.959 . S
C838 C836 1.561 . S
C839 C836 1.526 . S
C839 C840 1.396 . S
C839 C844 1.390 . S
C840 C834 1.465 . S
C840 C839 1.396 . S
C840 C841 1.399 . S
C841 H827 0.929 . S
C841 C840 1.399 . S
C841 C842 1.385 . S
C842 H828 0.931 . S
C842 C841 1.385 . S
C842 C843 1.389 . S
C843 C842 1.389 . S
C843 C844 1.387 . S
C844 H829 0.930 . S
C844 C839 1.390 . S
C844 C843 1.387 . S
H845 C857 0.930 . S
H846 C859 0.930 . S
H847 C860 0.930 . S
H848 C864 0.959 . S
H849 C864 0.959 . S
H850 C864 0.961 . S
H851 C865 0.960 . S
H852 C865 0.961 . S
H853 C865 0.959 . S
H854 C868 0.929 . S
H855 C869 0.931 . S
H856 C871 0.930 . S
C857 H845 0.930 . S
C857 C858 1.399 . S
C857 C862 1.399 . S
C858 C857 1.399 . S
C858 C859 1.376 . S
C859 H846 0.930 . S
C859 C858 1.376 . S
C859 C860 1.388 . S
C860 H847 0.930 . S
C860 C859 1.388 . S
C860 C861 1.390 . S
C861 C860 1.390 . S
C861 C862 1.394 . S
C861 C867 1.465 . S
C862 C857 1.399 . S
C862 C861 1.394 . S
C862 C863 1.516 . S
C863 C862 1.516 . S
C863 C864 1.502 . S
C863 C865 1.561 . S
C863 C866 1.526 . S
C864 H848 0.959 . S
C864 H849 0.959 . S
C864 H850 0.961 . S
C864 C863 1.502 . S
C865 H851 0.960 . S
C865 H852 0.961 . S
C865 H853 0.959 . S
C865 C863 1.561 . S
C866 C863 1.526 . S
C866 C867 1.396 . S
C866 C871 1.390 . S
C867 C861 1.465 . S
C867 C866 1.396 . S
C867 C868 1.399 . S
C868 H854 0.929 . S
C868 C867 1.399 . S
C868 C869 1.385 . S
C869 H855 0.931 . S
C869 C868 1.385 . S
C869 C870 1.389 . S
C870 C869 1.389 . S
C870 C871 1.387 . S
C871 H856 0.930 . S
C871 C866 1.390 . S
C871 C870 1.387 . S
C237 C4 2.499 . S
C249 C88 2.513 . S
C264 C16 2.606 . S
C276 C130 2.607 . S
C303 C160 0.605 . S
C291 C32 0.685 . S
C318 C43 0.848 . S
C330 C194 0.945 . S
C357 C151 2.260 . S
C345 C5 2.240 . S
C384 C105 1.653 . S
C372 C21 1.638 . S
C411 C198 1.111 . S
C399 C27 1.151 . S
C438 C164 1.167 . S
C426 C37 1.167 . S
C453 C10 2.205 . S
C465 C219 2.209 . S
C492 C126 1.197 . S
C480 C26 1.147 . S
C507 C38 0.936 . S
C519 C101 0.925 . S
C534 C15 2.333 . S
C546 C185 2.353 . S
C573 C117 2.630 . S
C561 C48 2.614 . S
C588 C59 2.393 . S
C600 C139 2.399 . S
C615 C76 0.889 . S
C627 C169 0.879 . S
C642 C87 0.797 . S
C654 C203 0.721 . S
C669 C54 1.702 . S
C681 C122 1.698 1_556 S
C708 C96 2.206 . S
C696 C60 2.208 . S
C735 C207 1.082 . S
C723 C71 1.105 . S
C762 C173 1.163 . S
C750 C82 1.118 . S
C777 C49 2.486 . S
C789 C190 2.487 . S
C816 C135 0.917 . S
C804 C70 0.860 . S
C843 C92 1.154 . S
C831 C81 1.115 . S
C858 C65 2.135 . S
C870 C156 2.154 . S
