# Generated by pormake.
# Topology the, (3,8)-cn, num edge types: 1
# Building blocks:
#     Node 0, Type 0, BuildingBlock: PAMTOO_clean_linker_0, # of connection points: 3
#     Node 1, Type 0, BuildingBlock: PAMTOO_clean_linker_0, # of connection points: 3
#     Node 2, Type 0, BuildingBlock: PAMTOO_clean_linker_0, # of connection points: 3
#     Node 3, Type 0, BuildingBlock: PAMTOO_clean_linker_0, # of connection points: 3
#     Node 4, Type 0, BuildingBlock: PAMTOO_clean_linker_0, # of connection points: 3
#     Node 5, Type 0, BuildingBlock: PAMTOO_clean_linker_0, # of connection points: 3
#     Node 6, Type 0, BuildingBlock: PAMTOO_clean_linker_0, # of connection points: 3
#     Node 7, Type 0, BuildingBlock: PAMTOO_clean_linker_0, # of connection points: 3
#     Node 8, Type 1, BuildingBlock: GIZVER_clean_sbu_0, # of connection points: 8
#     Node 9, Type 1, BuildingBlock: GIZVER_clean_sbu_0, # of connection points: 8
#     Node 10, Type 1, BuildingBlock: GIZVER_clean_sbu_0, # of connection points: 8
#     Edge 11, Type (0, 1), BuildingBlock: XIVTED_clean_linker_0, # of connection points: 2
#     Edge 12, Type (0, 1), BuildingBlock: XIVTED_clean_linker_0, # of connection points: 2
#     Edge 13, Type (0, 1), BuildingBlock: XIVTED_clean_linker_0, # of connection points: 2
#     Edge 14, Type (0, 1), BuildingBlock: XIVTED_clean_linker_0, # of connection points: 2
#     Edge 15, Type (0, 1), BuildingBlock: XIVTED_clean_linker_0, # of connection points: 2
#     Edge 16, Type (0, 1), BuildingBlock: XIVTED_clean_linker_0, # of connection points: 2
#     Edge 17, Type (0, 1), BuildingBlock: XIVTED_clean_linker_0, # of connection points: 2
#     Edge 18, Type (0, 1), BuildingBlock: XIVTED_clean_linker_0, # of connection points: 2
#     Edge 19, Type (0, 1), BuildingBlock: XIVTED_clean_linker_0, # of connection points: 2
#     Edge 20, Type (0, 1), BuildingBlock: XIVTED_clean_linker_0, # of connection points: 2
#     Edge 21, Type (0, 1), BuildingBlock: XIVTED_clean_linker_0, # of connection points: 2
#     Edge 22, Type (0, 1), BuildingBlock: XIVTED_clean_linker_0, # of connection points: 2
#     Edge 23, Type (0, 1), BuildingBlock: XIVTED_clean_linker_0, # of connection points: 2
#     Edge 24, Type (0, 1), BuildingBlock: XIVTED_clean_linker_0, # of connection points: 2
#     Edge 25, Type (0, 1), BuildingBlock: XIVTED_clean_linker_0, # of connection points: 2
#     Edge 26, Type (0, 1), BuildingBlock: XIVTED_clean_linker_0, # of connection points: 2
#     Edge 27, Type (0, 1), BuildingBlock: XIVTED_clean_linker_0, # of connection points: 2
#     Edge 28, Type (0, 1), BuildingBlock: XIVTED_clean_linker_0, # of connection points: 2
#     Edge 29, Type (0, 1), BuildingBlock: XIVTED_clean_linker_0, # of connection points: 2
#     Edge 30, Type (0, 1), BuildingBlock: XIVTED_clean_linker_0, # of connection points: 2
#     Edge 31, Type (0, 1), BuildingBlock: XIVTED_clean_linker_0, # of connection points: 2
#     Edge 32, Type (0, 1), BuildingBlock: XIVTED_clean_linker_0, # of connection points: 2
#     Edge 33, Type (0, 1), BuildingBlock: XIVTED_clean_linker_0, # of connection points: 2
#     Edge 34, Type (0, 1), BuildingBlock: XIVTED_clean_linker_0, # of connection points: 2
# Relax obj value: 0.075
# Max RMSD: 0.228
# Mean RMSD: 0.144
data_MOF--net-the--node1-GIZVER_clean_sbu_0--node2-PAMTOO_clean_linker_0--edge1-XIVTED_clean_linker_0
_symmetry_space_group_name_H-M    P1
_symmetry_Int_Tables_number       1
_symmetry_cell_setting            triclinic
loop_
_symmetry_equiv_pos_as_xyz
'x, y, z'
_cell_length_a     41.436072
_cell_length_b     38.739066
_cell_length_c     35.774605
_cell_angle_alpha  88.120713
_cell_angle_beta   94.599984
_cell_angle_gamma 108.24019
loop_
_atom_site_label
_atom_site_type_symbol
_atom_site_fract_x
_atom_site_fract_y
_atom_site_fract_z
_atom_type_partial_charge
H0 H 0.25911 0.41279 0.37103 0.0
H1 H 0.25637 0.34468 0.46905 0.0
H2 H 0.32857 0.34991 0.388 0.0
H3 H 0.28153 0.27698 0.41258 0.0
C4 C 0.2863 0.2822 0.44327 0.0
O5 O 0.30345 0.3185 0.44977 0.0
H6 H 0.26132 0.27496 0.45589 0.0
C7 C 0.26879 0.39372 0.38759 0.0
C8 C 0.29602 0.38365 0.37559 0.0
C9 C 0.25472 0.38021 0.42157 0.0
C10 C 0.26755 0.35595 0.44321 0.0
C11 C 0.29366 0.34462 0.43069 0.0
C12 C 0.30829 0.35889 0.39735 0.0
H13 H 0.71269 0.30323 0.39781 0.0
H14 H 0.63899 0.29969 0.30408 0.0
H15 H 0.7269 0.3931 0.32022 0.0
H16 H 0.66859 0.41426 0.2967 0.0
C17 C 0.65095 0.38788 0.28603 0.0
O18 O 0.66952 0.36478 0.28 0.0
H19 H 0.63273 0.37638 0.30791 0.0
C20 C 0.70445 0.31489 0.37229 0.0
C21 C 0.72408 0.34977 0.3608 0.0
C22 C 0.67317 0.29639 0.35251 0.0
C23 C 0.66255 0.31315 0.3203 0.0
C24 C 0.68171 0.34792 0.30899 0.0
C25 C 0.71249 0.36597 0.32898 0.0
H26 H 0.62223 0.76325 0.31899 0.0
H27 H 0.69481 0.70386 0.33312 0.0
H28 H 0.69849 0.78555 0.4122 0.0
H29 H 0.76786 0.78039 0.39786 0.0
C30 C 0.75921 0.75173 0.38818 0.0
O31 O 0.72528 0.73625 0.39476 0.0
H32 H 0.76262 0.75154 0.35765 0.0
C33 C 0.64412 0.75836 0.33414 0.0
C34 C 0.65903 0.77845 0.36685 0.0
C35 C 0.65665 0.73115 0.32159 0.0
C36 C 0.68469 0.72464 0.34198 0.0
C37 C 0.69984 0.74456 0.37418 0.0
C38 C 0.68715 0.77136 0.38645 0.0
H39 H 0.24516 0.75614 0.40242 0.0
H40 H 0.23325 0.679 0.31355 0.0
H41 H 0.32888 0.76068 0.33657 0.0
H42 H 0.31218 0.7408 0.25667 0.0
C43 C 0.29764 0.71156 0.26019 0.0
O44 O 0.29631 0.7027 0.29777 0.0
H45 H 0.27136 0.70665 0.24699 0.0
C46 C 0.25481 0.74627 0.37909 0.0
C47 C 0.28891 0.7631 0.37087 0.0
C48 C 0.2343 0.71515 0.3592 0.0
C49 C 0.24823 0.7024 0.32987 0.0
C50 C 0.28218 0.71857 0.32213 0.0
C51 C 0.30238 0.74882 0.34245 0.0
H52 H 0.28339 0.77259 0.69458 0.0
H53 H 0.26927 0.67984 0.76811 0.0
H54 H 0.36236 0.76817 0.77928 0.0
H55 H 0.36343 0.69101 0.7771 0.0
C56 C 0.34518 0.68034 0.79913 0.0
O57 O 0.32851 0.70503 0.80593 0.0
H58 H 0.32623 0.65471 0.78839 0.0
C59 C 0.29308 0.75869 0.71742 0.0
C60 C 0.32567 0.77525 0.73524 0.0
C61 C 0.27265 0.72411 0.72853 0.0
C62 C 0.28437 0.70667 0.75931 0.0
C63 C 0.31659 0.72285 0.7776 0.0
C64 C 0.33711 0.75686 0.76554 0.0
H65 H 0.2667 0.3925 0.76796 0.0
H66 H 0.24561 0.31258 0.68096 0.0
H67 H 0.32822 0.32145 0.76415 0.0
H68 H 0.33547 0.32299 0.67677 0.0
C69 C 0.31483 0.2966 0.67236 0.0
O70 O 0.29581 0.28777 0.70331 0.0
H71 H 0.29816 0.3001 0.64751 0.0
C72 C 0.27241 0.3704 0.75498 0.0
C73 C 0.29959 0.35881 0.77057 0.0
C74 C 0.25277 0.35415 0.72255 0.0
C75 C 0.25984 0.32495 0.70644 0.0
C76 C 0.28711 0.31338 0.72136 0.0
C77 C 0.30672 0.33007 0.75347 0.0
H78 H 0.62875 0.31419 0.76968 0.0
H79 H 0.72505 0.39619 0.79774 0.0
H80 H 0.71898 0.31496 0.71709 0.0
H81 H 0.78038 0.33335 0.76902 0.0
C82 C 0.78494 0.36314 0.77103 0.0
O83 O 0.75876 0.37258 0.75169 0.0
H84 H 0.7863 0.3701 0.80117 0.0
C85 C 0.65585 0.32585 0.76671 0.0
C86 C 0.6715 0.31048 0.7411 0.0
C87 C 0.67489 0.35694 0.78748 0.0
C88 C 0.70998 0.37178 0.78295 0.0
C89 C 0.72567 0.35648 0.75781 0.0
C90 C 0.7065 0.32612 0.73689 0.0
H91 H 0.64477 0.75081 0.71834 0.0
H92 H 0.71107 0.68718 0.70169 0.0
H93 H 0.70754 0.77318 0.62461 0.0
H94 H 0.72302 0.71907 0.585 0.0
C95 C 0.72738 0.702 0.60928 0.0
O96 O 0.73546 0.72266 0.64135 0.0
H97 H 0.70361 0.67881 0.612 0.0
C98 C 0.66336 0.74472 0.70222 0.0
C99 C 0.67415 0.76514 0.66978 0.0
C100 C 0.67668 0.71665 0.71415 0.0
C101 C 0.70043 0.70863 0.69287 0.0
C102 C 0.71159 0.72931 0.66087 0.0
C103 C 0.69878 0.75763 0.64961 0.0
Co104 Co 0.06321 0.50513 0.56694 0.0
Co105 Co 0.02522 0.485 0.50442 0.0
Co106 Co 0.99681 0.53799 0.54726 0.0
O107 O 0.01572 0.49628 0.55175 0.0
H108 H 1.00091 0.4752 0.56375 0.0
O109 O 0.97835 0.5799 0.54278 0.0
Co110 Co 0.93115 0.5723 0.52823 0.0
Co111 Co 0.97073 0.59264 0.59078 0.0
H112 H 0.99319 0.60068 0.53037 0.0
O113 O 0.03281 0.44157 0.49378 0.0
O114 O 0.07154 0.49283 0.51609 0.0
O115 O 0.02232 0.51836 0.46401 0.0
O116 O 0.02448 0.56186 0.50383 0.0
O117 O 0.95872 0.508 0.51178 0.0
O118 O 0.88849 0.56976 0.51327 0.0
O119 O 0.93558 0.61853 0.5131 0.0
O120 O 0.92053 0.52287 0.54101 0.0
O121 O 0.9694 0.51464 0.59099 0.0
O122 O 0.97443 0.55918 0.63091 0.0
O123 O 0.92431 0.58301 0.5797 0.0
O124 O 0.96051 0.63575 0.60084 0.0
C125 C 0.09242 0.47555 0.59196 0.0
C126 C 0.06562 0.57418 0.57596 0.0
C127 C 0.02947 0.55176 0.47171 0.0
C128 C 0.06431 0.46034 0.50249 0.0
C129 C 0.9028 0.60396 0.50556 0.0
C130 C 0.92758 0.50272 0.51784 0.0
C131 C 0.96663 0.52557 0.62362 0.0
C132 C 0.92959 0.61557 0.59177 0.0
O133 O 0.10564 0.50954 0.58285 0.0
O134 O 0.05991 0.4594 0.58391 0.0
O135 O 0.03456 0.56769 0.58278 0.0
O136 O 0.07319 0.55436 0.55282 0.0
Co137 Co 0.52881 0.96809 0.52386 0.0
Co138 Co 0.54862 1.00135 0.58809 0.0
Co139 Co 0.49738 0.03624 0.54271 0.0
O140 O 0.53678 0.01695 0.54068 0.0
H141 H 0.55627 0.03428 0.53029 0.0
O142 O 0.45794 0.05525 0.54477 0.0
Co143 Co 0.46487 0.10359 0.56214 0.0
Co144 Co 0.44588 0.07074 0.49751 0.0
H145 H 0.43846 0.0376 0.55483 0.0
O146 O 0.5911 0.99541 0.59966 0.0
O147 O 0.54383 0.95412 0.57434 0.0
O148 O 0.51706 0.99626 0.62647 0.0
O149 O 0.47639 1.00305 0.58517 0.0
O150 O 0.52578 0.07403 0.57929 0.0
O151 O 0.46788 0.14675 0.57983 0.0
O152 O 0.42253 0.09601 0.57781 0.0
O153 O 0.51044 0.11758 0.54941 0.0
O154 O 0.51859 0.06976 0.50019 0.0
O155 O 0.47735 0.07614 0.45946 0.0
O156 O 0.44973 0.11756 0.51166 0.0
O157 O 0.40302 0.07559 0.48616 0.0
C158 C 0.55555 0.94018 0.49779 0.0
C159 C 0.46305 0.96452 0.51423 0.0
C160 C 0.4859 0.99199 0.61698 0.0
C161 C 0.57511 0.96243 0.58873 0.0
C162 C 0.43654 0.13009 0.58714 0.0
C163 C 0.5305 0.10782 0.57304 0.0
C164 C 0.50864 0.08073 0.46849 0.0
C165 C 0.41811 0.1084 0.49816 0.0
O166 O 0.52451 0.9245 0.50666 0.0
O167 O 0.57076 0.97414 0.50707 0.0
O168 O 0.46832 0.99818 0.50659 0.0
O169 O 0.48377 0.95519 0.53732 0.0
Co170 Co 0.45605 0.54373 0.11714 0.0
Co171 Co 0.43828 0.478 0.09176 0.0
Co172 Co 0.4963 0.53175 0.0427 0.0
O173 O 0.4538 0.52333 0.06906 0.0
H174 H 0.43566 0.52727 0.05248 0.0
O175 O 0.53861 0.53964 0.01586 0.0
Co176 Co 0.5347 0.52027 0.96657 0.0
Co177 Co 0.55355 0.58487 0.99353 0.0
H178 H 0.55681 0.53505 0.0318 0.0
O179 O 0.39335 0.45768 0.10568 0.0
O180 O 0.43769 0.49499 0.13957 0.0
O181 O 0.47013 0.45085 0.09622 0.0
O182 O 0.51322 0.49544 0.07438 0.0
O183 O 0.46915 0.49281 1.00638 0.0
O184 O 0.53407 0.50079 0.92241 0.0
O185 O 0.57553 0.51179 0.96926 0.0
O186 O 0.49096 0.52496 0.95746 0.0
O187 O 0.47925 0.56813 0.01126 0.0
O188 O 0.52258 0.61301 0.9906 0.0
O189 O 0.55468 0.56954 0.94506 0.0
O190 O 0.59816 0.60579 0.98157 0.0
C191 C 0.42518 0.56485 0.1446 0.0
C192 C 0.52413 0.56565 0.11438 0.0
C193 C 0.50161 0.46491 0.0914 0.0
C194 C 0.40638 0.47381 0.13711 0.0
C195 C 0.56324 0.49823 0.93619 0.0
C196 C 0.46696 0.50025 0.97144 0.0
C197 C 0.49105 0.59898 0.99495 0.0
C198 C 0.58576 0.59152 0.9491 0.0
O199 O 0.45444 0.56427 0.16039 0.0
O200 O 0.41461 0.54985 0.11187 0.0
O201 O 0.52329 0.57118 0.07898 0.0
O202 O 0.50022 0.54079 0.12821 0.0
H203 H 0.19367 0.37406 0.3833 0.0
H204 H 0.13205 0.48689 0.52582 0.0
H205 H 0.25112 0.41006 0.48844 0.0
H206 H 0.0602 0.4026 0.45822 0.0
H207 H 0.17807 0.46535 0.50806 0.0
H208 H 0.14617 0.39128 0.40514 0.0
C209 C 0.19622 0.38573 0.41091 0.0
C210 C 0.22616 0.3908 0.43418 0.0
C211 C 0.15216 0.45143 0.49744 0.0
C212 C 0.17247 0.41065 0.45905 0.0
C213 C 0.12584 0.46362 0.5076 0.0
C214 C 0.09213 0.44632 0.49376 0.0
C215 C 0.14486 0.42245 0.47239 0.0
C216 C 0.08578 0.41662 0.46973 0.0
C217 C 0.16915 0.39526 0.42342 0.0
C218 C 0.22831 0.40571 0.46982 0.0
N219 N 0.11198 0.40588 0.45941 0.0
N220 N 0.20189 0.41549 0.48109 0.0
H221 H 0.69074 0.23996 0.38938 0.0
H222 H 0.49715 0.11628 0.40373 0.0
H223 H 0.60308 0.27189 0.34881 0.0
H224 H 0.57872 0.10331 0.48025 0.0
H225 H 0.53829 0.1657 0.37258 0.0
H226 H 0.65216 0.18351 0.41395 0.0
C227 C 0.66354 0.23527 0.3855 0.0
C228 C 0.6504 0.26102 0.36665 0.0
C229 C 0.54725 0.15179 0.39595 0.0
C230 C 0.60616 0.19591 0.39396 0.0
C231 C 0.52378 0.12331 0.41366 0.0
C232 C 0.5343 0.10569 0.44505 0.0
C233 C 0.58167 0.16278 0.4094 0.0
C234 C 0.56933 0.11618 0.45634 0.0
C235 C 0.64156 0.20288 0.39936 0.0
C236 C 0.61473 0.25282 0.36215 0.0
N237 N 0.59174 0.14423 0.43872 0.0
N238 N 0.59402 0.22111 0.37558 0.0
H239 H 0.82187 0.77767 0.42717 0.0
H240 H 0.83541 0.58018 0.48139 0.0
H241 H 0.74519 0.67757 0.39331 0.0
H242 H 0.92107 0.67809 0.49458 0.0
H243 H 0.80023 0.61626 0.455 0.0
H244 H 0.85691 0.74247 0.45741 0.0
C245 C 0.8123 0.74826 0.42648 0.0
C246 C 0.7803 0.73044 0.40844 0.0
C247 C 0.82673 0.62991 0.46357 0.0
C248 C 0.82031 0.69006 0.44248 0.0
C249 C 0.84689 0.60931 0.47872 0.0
C250 C 0.88141 0.62607 0.48986 0.0
C251 C 0.84102 0.66769 0.45966 0.0
C252 C 0.8947 0.66398 0.48596 0.0
C253 C 0.83233 0.72822 0.44358 0.0
C254 C 0.7694 0.69233 0.40758 0.0
N255 N 0.87448 0.68353 0.47116 0.0
N256 N 0.78927 0.67343 0.4245 0.0
H257 H 0.28047 0.82886 0.3861 0.0
H258 H 0.45129 0.89156 0.52047 0.0
H259 H 0.34934 0.76592 0.40806 0.0
H260 H 0.41001 0.97076 0.46469 0.0
H261 H 0.4071 0.84342 0.48762 0.0
H262 H 0.32113 0.8794 0.42235 0.0
C263 C 0.304 0.82566 0.39878 0.0
C264 C 0.31176 0.79336 0.39402 0.0
C265 C 0.4076 0.87129 0.4825 0.0
C266 C 0.35782 0.85041 0.43544 0.0
C267 C 0.43286 0.89896 0.50136 0.0
C268 C 0.4347 0.9355 0.49513 0.0
C269 C 0.3835 0.87981 0.45726 0.0
C270 C 0.40973 0.94302 0.47014 0.0
C271 C 0.32718 0.85446 0.41917 0.0
C272 C 0.34256 0.79049 0.41081 0.0
N273 N 0.38508 0.91536 0.45202 0.0
N274 N 0.36433 0.81852 0.43082 0.0
H275 H 0.26238 0.7198 0.65235 0.0
H276 H 0.06528 0.60117 0.64623 0.0
H277 H 0.20993 0.68506 0.75302 0.0
H278 H 0.12996 0.60747 0.5559 0.0
H279 H 0.11465 0.64035 0.68404 0.0
H280 H 0.21054 0.68724 0.61498 0.0
C281 C 0.2398 0.70564 0.66661 0.0
C282 C 0.24051 0.70526 0.70592 0.0
C283 C 0.11785 0.63329 0.65583 0.0
C284 C 0.18091 0.66754 0.66311 0.0
C285 C 0.0897 0.6112 0.63419 0.0
C286 C 0.09359 0.60096 0.59794 0.0
C287 C 0.14986 0.64561 0.64081 0.0
C288 C 0.12585 0.6145 0.58379 0.0
C289 C 0.21025 0.68683 0.64523 0.0
C290 C 0.21056 0.68586 0.72281 0.0
N291 N 0.15265 0.63607 0.6052 0.0
N292 N 0.18191 0.6678 0.70131 0.0
H293 H 0.28613 0.23384 0.63179 0.0
H294 H 0.46217 0.1914 0.62854 0.0
H295 H 0.37836 0.29307 0.69576 0.0
H296 H 0.36697 0.1167 0.58414 0.0
H297 H 0.43119 0.22858 0.65321 0.0
H298 H 0.31408 0.18988 0.61435 0.0
C299 C 0.31217 0.2373 0.6424 0.0
C300 C 0.33025 0.26734 0.66468 0.0
C301 C 0.41692 0.20393 0.63838 0.0
C302 C 0.3623 0.21748 0.64496 0.0
C303 C 0.43464 0.18269 0.62417 0.0
C304 C 0.41712 0.15086 0.6043 0.0
C305 C 0.38131 0.1937 0.63228 0.0
C306 C 0.38143 0.1409 0.59958 0.0
C307 C 0.32809 0.21229 0.63248 0.0
C308 C 0.36375 0.27052 0.6781 0.0
N309 N 0.36467 0.16246 0.61316 0.0
N310 N 0.37881 0.24616 0.6677 0.0
H311 H 0.81343 0.34324 0.71214 0.0
H312 H 0.95338 0.53809 0.69502 0.0
H313 H 0.82922 0.43011 0.79049 0.0
H314 H 0.93601 0.45217 0.61467 0.0
H315 H 0.91384 0.49601 0.7351 0.0
H316 H 0.86333 0.37992 0.68044 0.0
C317 C 0.82789 0.36983 0.723 0.0
C318 C 0.81769 0.38357 0.75421 0.0
C319 C 0.91898 0.48623 0.70891 0.0
C320 C 0.87421 0.42598 0.71783 0.0
C321 C 0.94168 0.51025 0.686 0.0
C322 C 0.94774 0.49886 0.65109 0.0
C323 C 0.90203 0.45056 0.69682 0.0
C324 C 0.93196 0.46232 0.64116 0.0
C325 C 0.85624 0.3908 0.7049 0.0
C326 C 0.83666 0.41844 0.7668 0.0
N327 N 0.90953 0.43962 0.66367 0.0
N328 N 0.86394 0.43853 0.74848 0.0
H329 H 0.60704 0.76101 0.66078 0.0
H330 H 0.64196 0.97028 0.60994 0.0
H331 H 0.70813 0.83463 0.64857 0.0
H332 H 0.54465 0.88891 0.58485 0.0
H333 H 0.66667 0.92192 0.62774 0.0
H334 H 0.58325 0.80882 0.63765 0.0
C335 C 0.62418 0.78734 0.6534 0.0
C336 C 0.65954 0.79403 0.65663 0.0
C337 C 0.63997 0.91469 0.61808 0.0
C338 C 0.63266 0.84862 0.63012 0.0
C339 C 0.62584 0.94225 0.60797 0.0
C340 C 0.59113 0.9336 0.59624 0.0
C341 C 0.61912 0.87831 0.61693 0.0
C342 C 0.5715 0.89682 0.59393 0.0
C343 C 0.61063 0.81446 0.63992 0.0
C344 C 0.6807 0.82841 0.64628 0.0
N345 N 0.58569 0.87052 0.6046 0.0
N346 N 0.66693 0.85455 0.63369 0.0
H347 H 0.26214 0.21359 0.47175 0.0
H348 H 0.44411 0.18235 0.50576 0.0
H349 H 0.35619 0.29615 0.4492 0.0
H350 H 0.34944 0.09547 0.48675 0.0
H351 H 0.41245 0.22638 0.49886 0.0
H352 H 0.29438 0.17197 0.49122 0.0
C353 C 0.28966 0.22312 0.47163 0.0
C354 C 0.30661 0.2585 0.45959 0.0
C355 C 0.39869 0.19765 0.49636 0.0
C356 C 0.34353 0.211 0.4811 0.0
C357 C 0.41668 0.17253 0.50031 0.0
C358 C 0.3994 0.13525 0.49619 0.0
C359 C 0.3632 0.18529 0.48871 0.0
C360 C 0.36384 0.12399 0.48952 0.0
C361 C 0.30799 0.19936 0.48252 0.0
C362 C 0.34222 0.2693 0.45903 0.0
N363 N 0.34691 0.14892 0.48591 0.0
N364 N 0.35955 0.24561 0.46967 0.0
H365 H 0.73658 0.41685 0.39003 0.0
H366 H 0.92913 0.451 0.4665 0.0
H367 H 0.78148 0.33092 0.38396 0.0
H368 H 0.86011 0.49539 0.51796 0.0
H369 H 0.88001 0.41152 0.42806 0.0
H370 H 0.78699 0.45218 0.4282 0.0
C371 C 0.75721 0.40553 0.39663 0.0
C372 C 0.75492 0.37096 0.38389 0.0
C373 C 0.8759 0.42991 0.44798 0.0
C374 C 0.81289 0.41139 0.42733 0.0
C375 C 0.90383 0.45244 0.46981 0.0
C376 C 0.89892 0.47685 0.49535 0.0
C377 C 0.84314 0.4325 0.45126 0.0
C378 C 0.86546 0.47739 0.49854 0.0
C379 C 0.78588 0.4256 0.41853 0.0
C380 C 0.7823 0.35744 0.39347 0.0
N381 N 0.8391 0.45598 0.47656 0.0
N382 N 0.81039 0.37783 0.41444 0.0
H383 H 0.59147 0.77136 0.37121 0.0
H384 H 0.62328 0.95765 0.482 0.0
H385 H 0.69212 0.84534 0.39873 0.0
H386 H 0.52636 0.87343 0.46678 0.0
H387 H 0.64922 0.92014 0.44776 0.0
H388 H 0.56721 0.81223 0.40115 0.0
C389 C 0.60851 0.79645 0.38307 0.0
C390 C 0.64395 0.80479 0.38237 0.0
C391 C 0.62227 0.91001 0.45196 0.0
C392 C 0.61622 0.85174 0.41755 0.0
C393 C 0.60747 0.93142 0.47145 0.0
C394 C 0.57259 0.91873 0.47738 0.0
C395 C 0.60194 0.87588 0.43807 0.0
C396 C 0.55337 0.88443 0.46313 0.0
C397 C 0.59463 0.81969 0.40056 0.0
C398 C 0.66467 0.83754 0.39895 0.0
N399 N 0.56823 0.86439 0.4442 0.0
N400 N 0.65054 0.85976 0.4159 0.0
H401 H 0.1859 0.73975 0.38958 0.0
H402 H 0.05413 0.53973 0.40616 0.0
H403 H 0.2037 0.64115 0.35688 0.0
H404 H 0.05603 0.62586 0.48085 0.0
H405 H 0.10021 0.58207 0.37388 0.0
H406 H 0.13093 0.70268 0.41155 0.0
C407 C 0.17838 0.71051 0.38674 0.0
C408 C 0.19976 0.69383 0.37096 0.0
C409 C 0.09019 0.59181 0.39702 0.0
C410 C 0.13645 0.65154 0.39509 0.0
C411 C 0.06367 0.56771 0.41536 0.0
C412 C 0.05145 0.57899 0.44677 0.0
C413 C 0.10458 0.6276 0.4099 0.0
C414 C 0.06486 0.6158 0.45705 0.0
C415 C 0.14688 0.68946 0.39906 0.0
C416 C 0.1881 0.65572 0.3677 0.0
N417 N 0.09101 0.63873 0.43894 0.0
N418 N 0.15739 0.63605 0.37955 0.0
H419 H 0.37389 0.83083 0.77489 0.0
H420 H 0.41823 0.96094 0.59633 0.0
H421 H 0.32953 0.80086 0.66243 0.0
H422 H 0.49351 0.96467 0.68823 0.0
H423 H 0.37779 0.91105 0.62774 0.0
H424 H 0.41147 0.88746 0.74964 0.0
C425 C 0.37189 0.83594 0.74501 0.0
C426 C 0.34814 0.81067 0.72093 0.0
C427 C 0.40303 0.92313 0.64123 0.0
C428 C 0.39043 0.87612 0.69225 0.0
C429 C 0.42613 0.95187 0.62349 0.0
C430 C 0.45957 0.96694 0.63946 0.0
C431 C 0.41312 0.90951 0.67546 0.0
C432 C 0.46812 0.95375 0.67474 0.0
C433 C 0.39323 0.86844 0.73074 0.0
C434 C 0.34657 0.81953 0.68249 0.0
N435 N 0.44509 0.92561 0.69151 0.0
N436 N 0.36725 0.85144 0.66948 0.0
H437 H 0.18834 0.31881 0.69047 0.0
H438 H 0.15936 0.50431 0.61502 0.0
H439 H 0.25947 0.42586 0.71084 0.0
H440 H 0.07753 0.40257 0.61108 0.0
H441 H 0.19704 0.47383 0.64617 0.0
H442 H 0.14807 0.34683 0.65792 0.0
C443 C 0.19545 0.34814 0.68817 0.0
C444 C 0.22724 0.37002 0.70372 0.0
C445 C 0.17085 0.45801 0.63866 0.0
C446 C 0.18152 0.4021 0.66646 0.0
C447 C 0.14921 0.47544 0.6207 0.0
C448 C 0.11504 0.45605 0.61054 0.0
C449 C 0.15856 0.42067 0.64661 0.0
C450 C 0.10362 0.41862 0.61862 0.0
C451 C 0.17244 0.36407 0.66974 0.0
C452 C 0.23509 0.40787 0.69998 0.0
N453 N 0.12538 0.40207 0.63621 0.0
N454 N 0.2125 0.42259 0.68172 0.0
H455 H 0.62663 0.24542 0.76244 0.0
H456 H 0.56227 0.17806 0.55422 0.0
H457 H 0.67054 0.30499 0.66523 0.0
H458 H 0.55355 0.10209 0.64659 0.0
H459 H 0.59768 0.22662 0.59544 0.0
H460 H 0.59453 0.1942 0.72161 0.0
C461 C 0.6294 0.24771 0.73253 0.0
C462 C 0.65129 0.27939 0.71715 0.0
C463 C 0.58831 0.19929 0.60666 0.0
C464 C 0.61472 0.2213 0.67049 0.0
C465 C 0.56811 0.17157 0.58316 0.0
C466 C 0.55508 0.136 0.597 0.0
C467 C 0.59498 0.19166 0.64459 0.0
C468 C 0.56337 0.1291 0.63475 0.0
C469 C 0.61134 0.21846 0.70935 0.0
C470 C 0.65415 0.28094 0.67825 0.0
N471 N 0.58248 0.15681 0.65743 0.0
N472 N 0.63592 0.25247 0.65627 0.0
H473 H 0.72881 0.63156 0.60977 0.0
H474 H 0.93027 0.68633 0.59764 0.0
H475 H 0.79219 0.74219 0.59477 0.0
H476 H 0.86244 0.57623 0.58854 0.0
H477 H 0.88062 0.70787 0.59848 0.0
H478 H 0.7781 0.61089 0.60332 0.0
C479 C 0.75313 0.65142 0.60479 0.0
C480 C 0.75665 0.68855 0.60272 0.0
C481 C 0.87669 0.67902 0.59624 0.0
C482 C 0.81315 0.66535 0.59588 0.0
C483 C 0.90498 0.66673 0.59603 0.0
C484 C 0.90043 0.62947 0.59329 0.0
C485 C 0.84378 0.65376 0.59411 0.0
C486 C 0.86713 0.60522 0.5908 0.0
C487 C 0.78125 0.63969 0.60115 0.0
C488 C 0.78866 0.7133 0.59645 0.0
N489 N 0.84011 0.61778 0.59143 0.0
N490 N 0.81582 0.70128 0.59349 0.0
H491 H 0.36359 0.41377 0.36512 0.0
H492 H 0.33955 0.43287 0.14352 0.0
H493 H 0.26403 0.38841 0.30642 0.0
H494 H 0.43077 0.49297 0.20915 0.0
H495 H 0.31143 0.41293 0.20177 0.0
H496 H 0.38927 0.43873 0.30689 0.0
C497 C 0.34718 0.4134 0.33988 0.0
C498 C 0.31169 0.39898 0.34046 0.0
C499 C 0.33751 0.43073 0.20328 0.0
C500 C 0.34081 0.4274 0.27381 0.0
C501 C 0.35357 0.44209 0.17009 0.0
C502 C 0.38767 0.46435 0.17144 0.0
C503 C 0.35586 0.4413 0.23797 0.0
C504 C 0.40454 0.47563 0.20669 0.0
C505 C 0.3618 0.42786 0.30676 0.0
C506 C 0.29152 0.39948 0.30711 0.0
N507 N 0.3886 0.46365 0.23851 0.0
N508 N 0.30638 0.4132 0.27498 0.0
H509 H 0.40791 0.72102 0.8295 0.0
H510 H 0.42141 0.57056 0.9837 0.0
H511 H 0.32599 0.62299 0.84876 0.0
H512 H 0.50544 0.66531 0.95912 0.0
H513 H 0.38369 0.59384 0.9413 0.0
H514 H 0.44151 0.70549 0.88329 0.0
C515 C 0.39698 0.69637 0.84534 0.0
C516 C 0.36451 0.67287 0.83438 0.0
C517 C 0.41029 0.60978 0.94556 0.0
C518 C 0.40256 0.65486 0.89589 0.0
C519 C 0.43187 0.5966 0.97 0.0
C520 C 0.46683 0.61581 0.97486 0.0
C521 C 0.42367 0.64244 0.92576 0.0
C522 C 0.47878 0.64936 0.95611 0.0
C523 C 0.41609 0.68747 0.87598 0.0
C524 C 0.35117 0.64152 0.85604 0.0
N525 N 0.45734 0.66138 0.93217 0.0
N526 N 0.37038 0.63321 0.88552 0.0
H527 H 0.32573 0.33064 0.83346 0.0
H528 H 0.44163 0.52541 0.9079 0.0
H529 H 0.32445 0.43223 0.78123 0.0
H530 H 0.42661 0.42871 0.97634 0.0
H531 H 0.39872 0.49076 0.86123 0.0
H532 H 0.36327 0.36471 0.88557 0.0
C533 C 0.33329 0.36005 0.83297 0.0
C534 C 0.3218 0.37857 0.80295 0.0
C535 C 0.40448 0.47702 0.88653 0.0
C536 C 0.36463 0.41764 0.86237 0.0
C537 C 0.42903 0.49683 0.91322 0.0
C538 C 0.43779 0.47985 0.94595 0.0
C539 C 0.38878 0.43965 0.89213 0.0
C540 C 0.42047 0.44282 0.95151 0.0
C541 C 0.35449 0.37945 0.86282 0.0
C542 C 0.33222 0.41671 0.80393 0.0
N543 N 0.39704 0.42378 0.92459 0.0
N544 N 0.35311 0.43488 0.83294 0.0
H545 H 0.69786 0.38727 0.85699 0.0
H546 H 0.545 0.47132 0.86552 0.0
H547 H 0.61392 0.37035 0.77281 0.0
H548 H 0.62236 0.4813 0.95643 0.0
H549 H 0.57174 0.43628 0.83065 0.0
H550 H 0.67198 0.42269 0.89352 0.0
C551 C 0.67393 0.39087 0.84623 0.0
C552 C 0.65806 0.37574 0.8117 0.0
C553 C 0.58299 0.4461 0.85819 0.0
C554 C 0.62836 0.4164 0.85339 0.0
C555 C 0.56777 0.4663 0.87819 0.0
C556 C 0.58135 0.47925 0.91416 0.0
C557 C 0.6122 0.43863 0.87405 0.0
C558 C 0.611 0.47188 0.92883 0.0
C559 C 0.65916 0.41105 0.86716 0.0
C560 C 0.6269 0.38103 0.79942 0.0
N561 N 0.62541 0.45197 0.90875 0.0
N562 N 0.61323 0.40102 0.82011 0.0
H563 H 0.6783 0.7453 0.78291 0.0
H564 H 0.57386 0.56219 0.87866 0.0
H565 H 0.65249 0.64299 0.72556 0.0
H566 H 0.63937 0.65358 0.94252 0.0
H567 H 0.59952 0.59089 0.82152 0.0
H568 H 0.66046 0.71244 0.84114 0.0
C569 C 0.66883 0.71586 0.78268 0.0
C570 C 0.66665 0.69674 0.74951 0.0
C571 C 0.60854 0.60435 0.84815 0.0
C572 C 0.64612 0.65902 0.81579 0.0
C573 C 0.59392 0.58803 0.88076 0.0
C574 C 0.60432 0.60564 0.9154 0.0
C575 C 0.63319 0.6388 0.85016 0.0
C576 C 0.63051 0.63903 0.91646 0.0
C577 C 0.65891 0.69714 0.81589 0.0
C578 C 0.65456 0.65863 0.75068 0.0
N579 N 0.64365 0.65479 0.88424 0.0
N580 N 0.64433 0.64094 0.78325 0.0
H581 H 0.63239 0.75187 0.25308 0.0
H582 H 0.54907 0.54759 0.18181 0.0
H583 H 0.64174 0.65755 0.3149 0.0
H584 H 0.55626 0.63958 0.10811 0.0
H585 H 0.58366 0.58838 0.23037 0.0
H586 H 0.60414 0.71247 0.19978 0.0
C587 C 0.62851 0.72294 0.25548 0.0
C588 C 0.6396 0.70808 0.28858 0.0
C589 C 0.5781 0.59981 0.20352 0.0
C590 C 0.60742 0.6629 0.22767 0.0
C591 C 0.55839 0.57646 0.1757 0.0
C592 C 0.54979 0.5902 0.14086 0.0
C593 C 0.589 0.63749 0.19692 0.0
C594 C 0.56255 0.62785 0.1345 0.0
C595 C 0.61263 0.70052 0.22494 0.0
C596 C 0.63412 0.6704 0.2899 0.0
N597 N 0.58118 0.6503 0.16247 0.0
N598 N 0.61835 0.64924 0.26009 0.0
H599 H 0.27248 0.66042 0.20439 0.0
H600 H 0.44254 0.6033 0.20978 0.0
H601 H 0.36311 0.71106 0.27529 0.0
H602 H 0.36151 0.56926 0.1222 0.0
H603 H 0.41093 0.63795 0.23801 0.0
H604 H 0.30222 0.62267 0.17705 0.0
C605 C 0.29869 0.66362 0.21405 0.0
C606 C 0.31552 0.68889 0.24198 0.0
C607 C 0.39999 0.62285 0.21266 0.0
C608 C 0.34947 0.64568 0.21131 0.0
C609 C 0.41796 0.60287 0.19658 0.0
C610 C 0.40476 0.58345 0.16341 0.0
C611 C 0.36841 0.62336 0.19564 0.0
C612 C 0.37274 0.58395 0.14768 0.0
C613 C 0.31562 0.64209 0.19852 0.0
C614 C 0.34938 0.69191 0.25372 0.0
N615 N 0.35567 0.60366 0.1639 0.0
N616 N 0.36521 0.6705 0.23842 0.0
H617 H 0.58808 0.34591 0.25707 0.0
H618 H 0.57147 0.49263 0.09985 0.0
H619 H 0.66939 0.44341 0.23431 0.0
H620 H 0.48769 0.39966 0.1294 0.0
H621 H 0.61003 0.46988 0.14156 0.0
H622 H 0.5535 0.36005 0.2034 0.0
C623 C 0.59871 0.3701 0.24043 0.0
C624 C 0.63127 0.39393 0.25043 0.0
C625 C 0.58328 0.45421 0.13855 0.0
C626 C 0.59206 0.41037 0.18908 0.0
C627 C 0.5612 0.4671 0.11453 0.0
C628 C 0.52609 0.44827 0.11127 0.0
C629 C 0.57026 0.42223 0.15954 0.0
C630 C 0.51445 0.41534 0.13117 0.0
C631 C 0.57901 0.37823 0.20988 0.0
C632 C 0.64416 0.42466 0.22777 0.0
N633 N 0.53638 0.4036 0.15467 0.0
N634 N 0.62439 0.43223 0.19841 0.0
loop_
_geom_bond_atom_site_label_1
_geom_bond_atom_site_label_2
_geom_bond_distance
_geom_bond_site_symmetry_2
_ccdc_geom_bond_type
H0 C7 0.929 . S
H1 C10 0.930 . S
H2 C12 0.929 . S
H3 C4 0.969 . S
C4 H3 0.969 . S
C4 O5 1.550 . S
C4 H6 0.973 . S
O5 C4 1.550 . S
O5 C11 1.412 . S
H6 C4 0.973 . S
C7 H0 0.929 . S
C7 C8 1.400 . S
C7 C9 1.364 . S
C8 C7 1.400 . S
C8 C12 1.377 . S
C9 C7 1.364 . S
C9 C10 1.374 . S
C10 H1 0.930 . S
C10 C9 1.374 . S
C10 C11 1.383 . S
C11 O5 1.412 . S
C11 C10 1.383 . S
C11 C12 1.394 . S
C12 H2 0.929 . S
C12 C8 1.377 . S
C12 C11 1.394 . S
H13 C20 0.929 . S
H14 C23 0.930 . S
H15 C25 0.929 . S
H16 C17 0.969 . S
C17 H16 0.969 . S
C17 O18 1.550 . S
C17 H19 0.973 . S
O18 C17 1.550 . S
O18 C24 1.412 . S
H19 C17 0.973 . S
C20 H13 0.929 . S
C20 C21 1.400 . S
C20 C22 1.364 . S
C21 C20 1.400 . S
C21 C25 1.377 . S
C22 C20 1.364 . S
C22 C23 1.374 . S
C23 H14 0.930 . S
C23 C22 1.374 . S
C23 C24 1.383 . S
C24 O18 1.412 . S
C24 C23 1.383 . S
C24 C25 1.394 . S
C25 H15 0.929 . S
C25 C21 1.377 . S
C25 C24 1.394 . S
H26 C33 0.929 . S
H27 C36 0.930 . S
H28 C38 0.929 . S
H29 C30 0.969 . S
C30 H29 0.969 . S
C30 O31 1.550 . S
C30 H32 0.973 . S
O31 C30 1.550 . S
O31 C37 1.412 . S
H32 C30 0.973 . S
C33 H26 0.929 . S
C33 C34 1.400 . S
C33 C35 1.364 . S
C34 C33 1.400 . S
C34 C38 1.377 . S
C35 C33 1.364 . S
C35 C36 1.374 . S
C36 H27 0.930 . S
C36 C35 1.374 . S
C36 C37 1.383 . S
C37 O31 1.412 . S
C37 C36 1.383 . S
C37 C38 1.394 . S
C38 H28 0.929 . S
C38 C34 1.377 . S
C38 C37 1.394 . S
H39 C46 0.929 . S
H40 C49 0.930 . S
H41 C51 0.929 . S
H42 C43 0.969 . S
C43 H42 0.969 . S
C43 O44 1.550 . S
C43 H45 0.973 . S
O44 C43 1.550 . S
O44 C50 1.412 . S
H45 C43 0.973 . S
C46 H39 0.929 . S
C46 C47 1.400 . S
C46 C48 1.364 . S
C47 C46 1.400 . S
C47 C51 1.377 . S
C48 C46 1.364 . S
C48 C49 1.374 . S
C49 H40 0.930 . S
C49 C48 1.374 . S
C49 C50 1.383 . S
C50 O44 1.412 . S
C50 C49 1.383 . S
C50 C51 1.394 . S
C51 H41 0.929 . S
C51 C47 1.377 . S
C51 C50 1.394 . S
H52 C59 0.929 . S
H53 C62 0.930 . S
H54 C64 0.929 . S
H55 C56 0.969 . S
C56 H55 0.969 . S
C56 O57 1.550 . S
C56 H58 0.973 . S
O57 C56 1.550 . S
O57 C63 1.412 . S
H58 C56 0.973 . S
C59 H52 0.929 . S
C59 C60 1.400 . S
C59 C61 1.364 . S
C60 C59 1.400 . S
C60 C64 1.377 . S
C61 C59 1.364 . S
C61 C62 1.374 . S
C62 H53 0.930 . S
C62 C61 1.374 . S
C62 C63 1.383 . S
C63 O57 1.412 . S
C63 C62 1.383 . S
C63 C64 1.394 . S
C64 H54 0.929 . S
C64 C60 1.377 . S
C64 C63 1.394 . S
H65 C72 0.929 . S
H66 C75 0.930 . S
H67 C77 0.929 . S
H68 C69 0.969 . S
C69 H68 0.969 . S
C69 O70 1.550 . S
C69 H71 0.973 . S
O70 C69 1.550 . S
O70 C76 1.412 . S
H71 C69 0.973 . S
C72 H65 0.929 . S
C72 C73 1.400 . S
C72 C74 1.364 . S
C73 C72 1.400 . S
C73 C77 1.377 . S
C74 C72 1.364 . S
C74 C75 1.374 . S
C75 H66 0.930 . S
C75 C74 1.374 . S
C75 C76 1.383 . S
C76 O70 1.412 . S
C76 C75 1.383 . S
C76 C77 1.394 . S
C77 H67 0.929 . S
C77 C73 1.377 . S
C77 C76 1.394 . S
H78 C85 0.929 . S
H79 C88 0.930 . S
H80 C90 0.929 . S
H81 C82 0.969 . S
C82 H81 0.969 . S
C82 O83 1.550 . S
C82 H84 0.973 . S
O83 C82 1.550 . S
O83 C89 1.412 . S
H84 C82 0.973 . S
C85 H78 0.929 . S
C85 C86 1.400 . S
C85 C87 1.364 . S
C86 C85 1.400 . S
C86 C90 1.377 . S
C87 C85 1.364 . S
C87 C88 1.374 . S
C88 H79 0.930 . S
C88 C87 1.374 . S
C88 C89 1.383 . S
C89 O83 1.412 . S
C89 C88 1.383 . S
C89 C90 1.394 . S
C90 H80 0.929 . S
C90 C86 1.377 . S
C90 C89 1.394 . S
H91 C98 0.929 . S
H92 C101 0.930 . S
H93 C103 0.929 . S
H94 C95 0.969 . S
C95 H94 0.969 . S
C95 O96 1.550 . S
C95 H97 0.973 . S
O96 C95 1.550 . S
O96 C102 1.412 . S
H97 C95 0.973 . S
C98 H91 0.929 . S
C98 C99 1.400 . S
C98 C100 1.364 . S
C99 C98 1.400 . S
C99 C103 1.377 . S
C100 C98 1.364 . S
C100 C101 1.374 . S
C101 H92 0.930 . S
C101 C100 1.374 . S
C101 C102 1.383 . S
C102 O96 1.412 . S
C102 C101 1.383 . S
C102 C103 1.394 . S
C103 H93 0.929 . S
C103 C99 1.377 . S
C103 C102 1.394 . S
Co104 O107 2.042 . S
Co104 O114 2.264 . S
Co104 O133 2.286 . S
Co104 O134 2.069 . S
Co104 O136 2.015 . S
Co105 O107 2.122 . S
Co105 O113 2.073 . S
Co105 O114 2.327 . S
Co105 O115 1.976 . S
Co106 O107 2.087 . S
Co106 O109 2.087 1_455 S
Co106 O116 2.111 . S
Co106 O117 2.143 1_455 S
Co106 O121 2.111 1_455 S
Co106 O135 2.143 . S
O107 Co104 2.042 . S
O107 Co105 2.122 . S
O107 Co106 2.087 . S
O107 H108 0.980 . S
H108 O107 0.980 . S
O109 Co106 2.087 1_655 S
O109 Co110 2.042 . S
O109 Co111 2.122 . S
O109 H112 0.980 1_655 S
Co110 O109 2.042 . S
Co110 O118 2.286 . S
Co110 O119 2.069 . S
Co110 O120 2.015 . S
Co110 O123 2.264 . S
Co111 O109 2.122 . S
Co111 O122 1.976 . S
Co111 O123 2.327 . S
Co111 O124 2.073 . S
H112 O109 0.980 1_455 S
O113 Co105 2.073 . S
O113 C128 1.245 . S
O114 Co104 2.264 . S
O114 Co105 2.327 . S
O114 C128 1.257 . S
O115 Co105 1.976 . S
O115 C127 1.251 . S
O116 Co106 2.111 . S
O116 C127 1.274 . S
O117 Co106 2.143 1_655 S
O117 C130 1.246 . S
O118 Co110 2.286 . S
O118 C129 1.259 . S
O119 Co110 2.069 . S
O119 C129 1.289 . S
O120 Co110 2.015 . S
O120 C130 1.257 . S
O121 Co106 2.111 1_655 S
O121 C131 1.274 . S
O122 Co111 1.976 . S
O122 C131 1.251 . S
O123 Co110 2.264 . S
O123 Co111 2.327 . S
O123 C132 1.257 . S
O124 Co111 2.073 . S
O124 C132 1.245 . S
C125 O133 1.259 . S
C125 O134 1.289 . S
C126 O135 1.246 . S
C126 O136 1.257 . S
C127 O115 1.251 . S
C127 O116 1.274 . S
C128 O113 1.245 . S
C128 O114 1.257 . S
C129 O118 1.259 . S
C129 O119 1.289 . S
C130 O117 1.246 . S
C130 O120 1.257 . S
C131 O121 1.274 . S
C131 O122 1.251 . S
C132 O123 1.257 . S
C132 O124 1.245 . S
O133 Co104 2.286 . S
O133 C125 1.259 . S
O134 Co104 2.069 . S
O134 C125 1.289 . S
O135 Co106 2.143 . S
O135 C126 1.246 . S
O136 Co104 2.015 . S
O136 C126 1.257 . S
Co137 O140 2.042 . S
Co137 O147 2.264 . S
Co137 O166 2.286 . S
Co137 O167 2.069 . S
Co137 O169 2.015 . S
Co138 O140 2.122 . S
Co138 O146 2.073 . S
Co138 O147 2.327 . S
Co138 O148 1.976 . S
Co139 O140 2.087 1_545 S
Co139 O142 2.087 . S
Co139 O149 2.111 1_545 S
Co139 O150 2.143 . S
Co139 O154 2.111 . S
Co139 O168 2.143 1_545 S
O140 Co137 2.042 . S
O140 Co138 2.122 . S
O140 Co139 2.087 1_565 S
O140 H141 0.980 1_565 S
H141 O140 0.980 1_545 S
O142 Co139 2.087 . S
O142 Co143 2.042 . S
O142 Co144 2.122 . S
O142 H145 0.980 . S
Co143 O142 2.042 . S
Co143 O151 2.286 . S
Co143 O152 2.069 . S
Co143 O153 2.015 . S
Co143 O156 2.264 . S
Co144 O142 2.122 . S
Co144 O155 1.976 . S
Co144 O156 2.327 . S
Co144 O157 2.073 . S
H145 O142 0.980 . S
O146 Co138 2.073 . S
O146 C161 1.245 . S
O147 Co137 2.264 . S
O147 Co138 2.327 . S
O147 C161 1.257 . S
O148 Co138 1.976 . S
O148 C160 1.251 . S
O149 Co139 2.111 1_565 S
O149 C160 1.274 . S
O150 Co139 2.143 . S
O150 C163 1.246 . S
O151 Co143 2.286 . S
O151 C162 1.259 . S
O152 Co143 2.069 . S
O152 C162 1.289 . S
O153 Co143 2.015 . S
O153 C163 1.257 . S
O154 Co139 2.111 . S
O154 C164 1.274 . S
O155 Co144 1.976 . S
O155 C164 1.251 . S
O156 Co143 2.264 . S
O156 Co144 2.327 . S
O156 C165 1.257 . S
O157 Co144 2.073 . S
O157 C165 1.245 . S
C158 O166 1.259 . S
C158 O167 1.289 . S
C159 O168 1.246 . S
C159 O169 1.257 . S
C160 O148 1.251 . S
C160 O149 1.274 . S
C161 O146 1.245 . S
C161 O147 1.257 . S
C162 O151 1.259 . S
C162 O152 1.289 . S
C163 O150 1.246 . S
C163 O153 1.257 . S
C164 O154 1.274 . S
C164 O155 1.251 . S
C165 O156 1.257 . S
C165 O157 1.245 . S
O166 Co137 2.286 . S
O166 C158 1.259 . S
O167 Co137 2.069 . S
O167 C158 1.289 . S
O168 Co139 2.143 1_565 S
O168 C159 1.246 . S
O169 Co137 2.015 . S
O169 C159 1.257 . S
Co170 O173 2.042 . S
Co170 O180 2.264 . S
Co170 O199 2.286 . S
Co170 O200 2.069 . S
Co170 O202 2.015 . S
Co171 O173 2.122 . S
Co171 O179 2.073 . S
Co171 O180 2.327 . S
Co171 O181 1.976 . S
Co172 O173 2.087 . S
Co172 O175 2.087 1_554 S
Co172 O182 2.111 . S
Co172 O183 2.143 1_554 S
Co172 O187 2.111 . S
Co172 O201 2.143 . S
O173 Co170 2.042 . S
O173 Co171 2.122 . S
O173 Co172 2.087 . S
O173 H174 0.980 . S
H174 O173 0.980 . S
O175 Co172 2.087 1_556 S
O175 Co176 2.042 . S
O175 Co177 2.122 . S
O175 H178 0.980 . S
Co176 O175 2.042 . S
Co176 O184 2.286 . S
Co176 O185 2.069 . S
Co176 O186 2.015 . S
Co176 O189 2.264 . S
Co177 O175 2.122 . S
Co177 O188 1.976 . S
Co177 O189 2.327 . S
Co177 O190 2.073 . S
H178 O175 0.980 . S
O179 Co171 2.073 . S
O179 C194 1.245 . S
O180 Co170 2.264 . S
O180 Co171 2.327 . S
O180 C194 1.257 . S
O181 Co171 1.976 . S
O181 C193 1.251 . S
O182 Co172 2.111 . S
O182 C193 1.274 . S
O183 Co172 2.143 1_556 S
O183 C196 1.246 . S
O184 Co176 2.286 . S
O184 C195 1.259 . S
O185 Co176 2.069 . S
O185 C195 1.289 . S
O186 Co176 2.015 . S
O186 C196 1.257 . S
O187 Co172 2.111 . S
O187 C197 1.274 1_554 S
O188 Co177 1.976 . S
O188 C197 1.251 . S
O189 Co176 2.264 . S
O189 Co177 2.327 . S
O189 C198 1.257 . S
O190 Co177 2.073 . S
O190 C198 1.245 . S
C191 O199 1.259 . S
C191 O200 1.289 . S
C192 O201 1.246 . S
C192 O202 1.257 . S
C193 O181 1.251 . S
C193 O182 1.274 . S
C194 O179 1.245 . S
C194 O180 1.257 . S
C195 O184 1.259 . S
C195 O185 1.289 . S
C196 O183 1.246 . S
C196 O186 1.257 . S
C197 O187 1.274 1_556 S
C197 O188 1.251 . S
C198 O189 1.257 . S
C198 O190 1.245 . S
O199 Co170 2.286 . S
O199 C191 1.259 . S
O200 Co170 2.069 . S
O200 C191 1.289 . S
O201 Co172 2.143 . S
O201 C192 1.246 . S
O202 Co170 2.015 . S
O202 C192 1.257 . S
H203 C209 0.930 . S
H204 C213 0.930 . S
H205 C218 0.929 . S
H206 C216 0.929 . S
H207 C211 0.929 . S
H208 C217 0.929 . S
C209 H203 0.930 . S
C209 C210 1.367 . S
C209 C217 1.378 . S
C210 C209 1.367 . S
C210 C218 1.433 . S
C211 H207 0.929 . S
C211 C213 1.378 . S
C211 C215 1.350 . S
C212 C215 1.463 . S
C212 C217 1.350 . S
C212 N220 1.427 . S
C213 H204 0.930 . S
C213 C211 1.378 . S
C213 C214 1.367 . S
C214 C213 1.367 . S
C214 C216 1.433 . S
C215 C211 1.350 . S
C215 C212 1.463 . S
C215 N219 1.427 . S
C216 H206 0.929 . S
C216 C214 1.433 . S
C216 N219 1.384 . S
C217 H208 0.929 . S
C217 C209 1.378 . S
C217 C212 1.350 . S
C218 H205 0.929 . S
C218 C210 1.433 . S
C218 N220 1.384 . S
N219 C215 1.427 . S
N219 C216 1.384 . S
N220 C212 1.427 . S
N220 C218 1.384 . S
H221 C227 0.930 . S
H222 C231 0.930 . S
H223 C236 0.929 . S
H224 C234 0.929 . S
H225 C229 0.929 . S
H226 C235 0.929 . S
C227 H221 0.930 . S
C227 C228 1.367 . S
C227 C235 1.378 . S
C228 C227 1.367 . S
C228 C236 1.433 . S
C229 H225 0.929 . S
C229 C231 1.378 . S
C229 C233 1.350 . S
C230 C233 1.463 . S
C230 C235 1.350 . S
C230 N238 1.427 . S
C231 H222 0.930 . S
C231 C229 1.378 . S
C231 C232 1.367 . S
C232 C231 1.367 . S
C232 C234 1.433 . S
C233 C229 1.350 . S
C233 C230 1.463 . S
C233 N237 1.427 . S
C234 H224 0.929 . S
C234 C232 1.433 . S
C234 N237 1.384 . S
C235 H226 0.929 . S
C235 C227 1.378 . S
C235 C230 1.350 . S
C236 H223 0.929 . S
C236 C228 1.433 . S
C236 N238 1.384 . S
N237 C233 1.427 . S
N237 C234 1.384 . S
N238 C230 1.427 . S
N238 C236 1.384 . S
H239 C245 0.930 . S
H240 C249 0.930 . S
H241 C254 0.929 . S
H242 C252 0.929 . S
H243 C247 0.929 . S
H244 C253 0.929 . S
C245 H239 0.930 . S
C245 C246 1.367 . S
C245 C253 1.378 . S
C246 C245 1.367 . S
C246 C254 1.433 . S
C247 H243 0.929 . S
C247 C249 1.378 . S
C247 C251 1.350 . S
C248 C251 1.463 . S
C248 C253 1.350 . S
C248 N256 1.427 . S
C249 H240 0.930 . S
C249 C247 1.378 . S
C249 C250 1.367 . S
C250 C249 1.367 . S
C250 C252 1.433 . S
C251 C247 1.350 . S
C251 C248 1.463 . S
C251 N255 1.427 . S
C252 H242 0.929 . S
C252 C250 1.433 . S
C252 N255 1.384 . S
C253 H244 0.929 . S
C253 C245 1.378 . S
C253 C248 1.350 . S
C254 H241 0.929 . S
C254 C246 1.433 . S
C254 N256 1.384 . S
N255 C251 1.427 . S
N255 C252 1.384 . S
N256 C248 1.427 . S
N256 C254 1.384 . S
H257 C263 0.930 . S
H258 C267 0.930 . S
H259 C272 0.929 . S
H260 C270 0.929 . S
H261 C265 0.929 . S
H262 C271 0.929 . S
C263 H257 0.930 . S
C263 C264 1.367 . S
C263 C271 1.378 . S
C264 C263 1.367 . S
C264 C272 1.433 . S
C265 H261 0.929 . S
C265 C267 1.378 . S
C265 C269 1.350 . S
C266 C269 1.463 . S
C266 C271 1.350 . S
C266 N274 1.427 . S
C267 H258 0.930 . S
C267 C265 1.378 . S
C267 C268 1.367 . S
C268 C267 1.367 . S
C268 C270 1.433 . S
C269 C265 1.350 . S
C269 C266 1.463 . S
C269 N273 1.427 . S
C270 H260 0.929 . S
C270 C268 1.433 . S
C270 N273 1.384 . S
C271 H262 0.929 . S
C271 C263 1.378 . S
C271 C266 1.350 . S
C272 H259 0.929 . S
C272 C264 1.433 . S
C272 N274 1.384 . S
N273 C269 1.427 . S
N273 C270 1.384 . S
N274 C266 1.427 . S
N274 C272 1.384 . S
H275 C281 0.930 . S
H276 C285 0.930 . S
H277 C290 0.929 . S
H278 C288 0.929 . S
H279 C283 0.929 . S
H280 C289 0.929 . S
C281 H275 0.930 . S
C281 C282 1.367 . S
C281 C289 1.378 . S
C282 C281 1.367 . S
C282 C290 1.433 . S
C283 H279 0.929 . S
C283 C285 1.378 . S
C283 C287 1.350 . S
C284 C287 1.463 . S
C284 C289 1.350 . S
C284 N292 1.427 . S
C285 H276 0.930 . S
C285 C283 1.378 . S
C285 C286 1.367 . S
C286 C285 1.367 . S
C286 C288 1.433 . S
C287 C283 1.350 . S
C287 C284 1.463 . S
C287 N291 1.427 . S
C288 H278 0.929 . S
C288 C286 1.433 . S
C288 N291 1.384 . S
C289 H280 0.929 . S
C289 C281 1.378 . S
C289 C284 1.350 . S
C290 H277 0.929 . S
C290 C282 1.433 . S
C290 N292 1.384 . S
N291 C287 1.427 . S
N291 C288 1.384 . S
N292 C284 1.427 . S
N292 C290 1.384 . S
H293 C299 0.930 . S
H294 C303 0.930 . S
H295 C308 0.929 . S
H296 C306 0.929 . S
H297 C301 0.929 . S
H298 C307 0.929 . S
C299 H293 0.930 . S
C299 C300 1.367 . S
C299 C307 1.378 . S
C300 C299 1.367 . S
C300 C308 1.433 . S
C301 H297 0.929 . S
C301 C303 1.378 . S
C301 C305 1.350 . S
C302 C305 1.463 . S
C302 C307 1.350 . S
C302 N310 1.427 . S
C303 H294 0.930 . S
C303 C301 1.378 . S
C303 C304 1.367 . S
C304 C303 1.367 . S
C304 C306 1.433 . S
C305 C301 1.350 . S
C305 C302 1.463 . S
C305 N309 1.427 . S
C306 H296 0.929 . S
C306 C304 1.433 . S
C306 N309 1.384 . S
C307 H298 0.929 . S
C307 C299 1.378 . S
C307 C302 1.350 . S
C308 H295 0.929 . S
C308 C300 1.433 . S
C308 N310 1.384 . S
N309 C305 1.427 . S
N309 C306 1.384 . S
N310 C302 1.427 . S
N310 C308 1.384 . S
H311 C317 0.930 . S
H312 C321 0.930 . S
H313 C326 0.929 . S
H314 C324 0.929 . S
H315 C319 0.929 . S
H316 C325 0.929 . S
C317 H311 0.930 . S
C317 C318 1.367 . S
C317 C325 1.378 . S
C318 C317 1.367 . S
C318 C326 1.433 . S
C319 H315 0.929 . S
C319 C321 1.378 . S
C319 C323 1.350 . S
C320 C323 1.463 . S
C320 C325 1.350 . S
C320 N328 1.427 . S
C321 H312 0.930 . S
C321 C319 1.378 . S
C321 C322 1.367 . S
C322 C321 1.367 . S
C322 C324 1.433 . S
C323 C319 1.350 . S
C323 C320 1.463 . S
C323 N327 1.427 . S
C324 H314 0.929 . S
C324 C322 1.433 . S
C324 N327 1.384 . S
C325 H316 0.929 . S
C325 C317 1.378 . S
C325 C320 1.350 . S
C326 H313 0.929 . S
C326 C318 1.433 . S
C326 N328 1.384 . S
N327 C323 1.427 . S
N327 C324 1.384 . S
N328 C320 1.427 . S
N328 C326 1.384 . S
H329 C335 0.930 . S
H330 C339 0.930 . S
H331 C344 0.929 . S
H332 C342 0.929 . S
H333 C337 0.929 . S
H334 C343 0.929 . S
C335 H329 0.930 . S
C335 C336 1.367 . S
C335 C343 1.378 . S
C336 C335 1.367 . S
C336 C344 1.433 . S
C337 H333 0.929 . S
C337 C339 1.378 . S
C337 C341 1.350 . S
C338 C341 1.463 . S
C338 C343 1.350 . S
C338 N346 1.427 . S
C339 H330 0.930 . S
C339 C337 1.378 . S
C339 C340 1.367 . S
C340 C339 1.367 . S
C340 C342 1.433 . S
C341 C337 1.350 . S
C341 C338 1.463 . S
C341 N345 1.427 . S
C342 H332 0.929 . S
C342 C340 1.433 . S
C342 N345 1.384 . S
C343 H334 0.929 . S
C343 C335 1.378 . S
C343 C338 1.350 . S
C344 H331 0.929 . S
C344 C336 1.433 . S
C344 N346 1.384 . S
N345 C341 1.427 . S
N345 C342 1.384 . S
N346 C338 1.427 . S
N346 C344 1.384 . S
H347 C353 0.930 . S
H348 C357 0.930 . S
H349 C362 0.929 . S
H350 C360 0.929 . S
H351 C355 0.929 . S
H352 C361 0.929 . S
C353 H347 0.930 . S
C353 C354 1.367 . S
C353 C361 1.378 . S
C354 C353 1.367 . S
C354 C362 1.433 . S
C355 H351 0.929 . S
C355 C357 1.378 . S
C355 C359 1.350 . S
C356 C359 1.463 . S
C356 C361 1.350 . S
C356 N364 1.427 . S
C357 H348 0.930 . S
C357 C355 1.378 . S
C357 C358 1.367 . S
C358 C357 1.367 . S
C358 C360 1.433 . S
C359 C355 1.350 . S
C359 C356 1.463 . S
C359 N363 1.427 . S
C360 H350 0.929 . S
C360 C358 1.433 . S
C360 N363 1.384 . S
C361 H352 0.929 . S
C361 C353 1.378 . S
C361 C356 1.350 . S
C362 H349 0.929 . S
C362 C354 1.433 . S
C362 N364 1.384 . S
N363 C359 1.427 . S
N363 C360 1.384 . S
N364 C356 1.427 . S
N364 C362 1.384 . S
H365 C371 0.930 . S
H366 C375 0.930 . S
H367 C380 0.929 . S
H368 C378 0.929 . S
H369 C373 0.929 . S
H370 C379 0.929 . S
C371 H365 0.930 . S
C371 C372 1.367 . S
C371 C379 1.378 . S
C372 C371 1.367 . S
C372 C380 1.433 . S
C373 H369 0.929 . S
C373 C375 1.378 . S
C373 C377 1.350 . S
C374 C377 1.463 . S
C374 C379 1.350 . S
C374 N382 1.427 . S
C375 H366 0.930 . S
C375 C373 1.378 . S
C375 C376 1.367 . S
C376 C375 1.367 . S
C376 C378 1.433 . S
C377 C373 1.350 . S
C377 C374 1.463 . S
C377 N381 1.427 . S
C378 H368 0.929 . S
C378 C376 1.433 . S
C378 N381 1.384 . S
C379 H370 0.929 . S
C379 C371 1.378 . S
C379 C374 1.350 . S
C380 H367 0.929 . S
C380 C372 1.433 . S
C380 N382 1.384 . S
N381 C377 1.427 . S
N381 C378 1.384 . S
N382 C374 1.427 . S
N382 C380 1.384 . S
H383 C389 0.930 . S
H384 C393 0.930 . S
H385 C398 0.929 . S
H386 C396 0.929 . S
H387 C391 0.929 . S
H388 C397 0.929 . S
C389 H383 0.930 . S
C389 C390 1.367 . S
C389 C397 1.378 . S
C390 C389 1.367 . S
C390 C398 1.433 . S
C391 H387 0.929 . S
C391 C393 1.378 . S
C391 C395 1.350 . S
C392 C395 1.463 . S
C392 C397 1.350 . S
C392 N400 1.427 . S
C393 H384 0.930 . S
C393 C391 1.378 . S
C393 C394 1.367 . S
C394 C393 1.367 . S
C394 C396 1.433 . S
C395 C391 1.350 . S
C395 C392 1.463 . S
C395 N399 1.427 . S
C396 H386 0.929 . S
C396 C394 1.433 . S
C396 N399 1.384 . S
C397 H388 0.929 . S
C397 C389 1.378 . S
C397 C392 1.350 . S
C398 H385 0.929 . S
C398 C390 1.433 . S
C398 N400 1.384 . S
N399 C395 1.427 . S
N399 C396 1.384 . S
N400 C392 1.427 . S
N400 C398 1.384 . S
H401 C407 0.930 . S
H402 C411 0.930 . S
H403 C416 0.929 . S
H404 C414 0.929 . S
H405 C409 0.929 . S
H406 C415 0.929 . S
C407 H401 0.930 . S
C407 C408 1.367 . S
C407 C415 1.378 . S
C408 C407 1.367 . S
C408 C416 1.433 . S
C409 H405 0.929 . S
C409 C411 1.378 . S
C409 C413 1.350 . S
C410 C413 1.463 . S
C410 C415 1.350 . S
C410 N418 1.427 . S
C411 H402 0.930 . S
C411 C409 1.378 . S
C411 C412 1.367 . S
C412 C411 1.367 . S
C412 C414 1.433 . S
C413 C409 1.350 . S
C413 C410 1.463 . S
C413 N417 1.427 . S
C414 H404 0.929 . S
C414 C412 1.433 . S
C414 N417 1.384 . S
C415 H406 0.929 . S
C415 C407 1.378 . S
C415 C410 1.350 . S
C416 H403 0.929 . S
C416 C408 1.433 . S
C416 N418 1.384 . S
N417 C413 1.427 . S
N417 C414 1.384 . S
N418 C410 1.427 . S
N418 C416 1.384 . S
H419 C425 0.930 . S
H420 C429 0.930 . S
H421 C434 0.929 . S
H422 C432 0.929 . S
H423 C427 0.929 . S
H424 C433 0.929 . S
C425 H419 0.930 . S
C425 C426 1.367 . S
C425 C433 1.378 . S
C426 C425 1.367 . S
C426 C434 1.433 . S
C427 H423 0.929 . S
C427 C429 1.378 . S
C427 C431 1.350 . S
C428 C431 1.463 . S
C428 C433 1.350 . S
C428 N436 1.427 . S
C429 H420 0.930 . S
C429 C427 1.378 . S
C429 C430 1.367 . S
C430 C429 1.367 . S
C430 C432 1.433 . S
C431 C427 1.350 . S
C431 C428 1.463 . S
C431 N435 1.427 . S
C432 H422 0.929 . S
C432 C430 1.433 . S
C432 N435 1.384 . S
C433 H424 0.929 . S
C433 C425 1.378 . S
C433 C428 1.350 . S
C434 H421 0.929 . S
C434 C426 1.433 . S
C434 N436 1.384 . S
N435 C431 1.427 . S
N435 C432 1.384 . S
N436 C428 1.427 . S
N436 C434 1.384 . S
H437 C443 0.930 . S
H438 C447 0.930 . S
H439 C452 0.929 . S
H440 C450 0.929 . S
H441 C445 0.929 . S
H442 C451 0.929 . S
C443 H437 0.930 . S
C443 C444 1.367 . S
C443 C451 1.378 . S
C444 C443 1.367 . S
C444 C452 1.433 . S
C445 H441 0.929 . S
C445 C447 1.378 . S
C445 C449 1.350 . S
C446 C449 1.463 . S
C446 C451 1.350 . S
C446 N454 1.427 . S
C447 H438 0.930 . S
C447 C445 1.378 . S
C447 C448 1.367 . S
C448 C447 1.367 . S
C448 C450 1.433 . S
C449 C445 1.350 . S
C449 C446 1.463 . S
C449 N453 1.427 . S
C450 H440 0.929 . S
C450 C448 1.433 . S
C450 N453 1.384 . S
C451 H442 0.929 . S
C451 C443 1.378 . S
C451 C446 1.350 . S
C452 H439 0.929 . S
C452 C444 1.433 . S
C452 N454 1.384 . S
N453 C449 1.427 . S
N453 C450 1.384 . S
N454 C446 1.427 . S
N454 C452 1.384 . S
H455 C461 0.930 . S
H456 C465 0.930 . S
H457 C470 0.929 . S
H458 C468 0.929 . S
H459 C463 0.929 . S
H460 C469 0.929 . S
C461 H455 0.930 . S
C461 C462 1.367 . S
C461 C469 1.378 . S
C462 C461 1.367 . S
C462 C470 1.433 . S
C463 H459 0.929 . S
C463 C465 1.378 . S
C463 C467 1.350 . S
C464 C467 1.463 . S
C464 C469 1.350 . S
C464 N472 1.427 . S
C465 H456 0.930 . S
C465 C463 1.378 . S
C465 C466 1.367 . S
C466 C465 1.367 . S
C466 C468 1.433 . S
C467 C463 1.350 . S
C467 C464 1.463 . S
C467 N471 1.427 . S
C468 H458 0.929 . S
C468 C466 1.433 . S
C468 N471 1.384 . S
C469 H460 0.929 . S
C469 C461 1.378 . S
C469 C464 1.350 . S
C470 H457 0.929 . S
C470 C462 1.433 . S
C470 N472 1.384 . S
N471 C467 1.427 . S
N471 C468 1.384 . S
N472 C464 1.427 . S
N472 C470 1.384 . S
H473 C479 0.930 . S
H474 C483 0.930 . S
H475 C488 0.929 . S
H476 C486 0.929 . S
H477 C481 0.929 . S
H478 C487 0.929 . S
C479 H473 0.930 . S
C479 C480 1.367 . S
C479 C487 1.378 . S
C480 C479 1.367 . S
C480 C488 1.433 . S
C481 H477 0.929 . S
C481 C483 1.378 . S
C481 C485 1.350 . S
C482 C485 1.463 . S
C482 C487 1.350 . S
C482 N490 1.427 . S
C483 H474 0.930 . S
C483 C481 1.378 . S
C483 C484 1.367 . S
C484 C483 1.367 . S
C484 C486 1.433 . S
C485 C481 1.350 . S
C485 C482 1.463 . S
C485 N489 1.427 . S
C486 H476 0.929 . S
C486 C484 1.433 . S
C486 N489 1.384 . S
C487 H478 0.929 . S
C487 C479 1.378 . S
C487 C482 1.350 . S
C488 H475 0.929 . S
C488 C480 1.433 . S
C488 N490 1.384 . S
N489 C485 1.427 . S
N489 C486 1.384 . S
N490 C482 1.427 . S
N490 C488 1.384 . S
H491 C497 0.930 . S
H492 C501 0.930 . S
H493 C506 0.929 . S
H494 C504 0.929 . S
H495 C499 0.929 . S
H496 C505 0.929 . S
C497 H491 0.930 . S
C497 C498 1.367 . S
C497 C505 1.378 . S
C498 C497 1.367 . S
C498 C506 1.433 . S
C499 H495 0.929 . S
C499 C501 1.378 . S
C499 C503 1.350 . S
C500 C503 1.463 . S
C500 C505 1.350 . S
C500 N508 1.427 . S
C501 H492 0.930 . S
C501 C499 1.378 . S
C501 C502 1.367 . S
C502 C501 1.367 . S
C502 C504 1.433 . S
C503 C499 1.350 . S
C503 C500 1.463 . S
C503 N507 1.427 . S
C504 H494 0.929 . S
C504 C502 1.433 . S
C504 N507 1.384 . S
C505 H496 0.929 . S
C505 C497 1.378 . S
C505 C500 1.350 . S
C506 H493 0.929 . S
C506 C498 1.433 . S
C506 N508 1.384 . S
N507 C503 1.427 . S
N507 C504 1.384 . S
N508 C500 1.427 . S
N508 C506 1.384 . S
H509 C515 0.930 . S
H510 C519 0.930 . S
H511 C524 0.929 . S
H512 C522 0.929 . S
H513 C517 0.929 . S
H514 C523 0.929 . S
C515 H509 0.930 . S
C515 C516 1.367 . S
C515 C523 1.378 . S
C516 C515 1.367 . S
C516 C524 1.433 . S
C517 H513 0.929 . S
C517 C519 1.378 . S
C517 C521 1.350 . S
C518 C521 1.463 . S
C518 C523 1.350 . S
C518 N526 1.427 . S
C519 H510 0.930 . S
C519 C517 1.378 . S
C519 C520 1.367 . S
C520 C519 1.367 . S
C520 C522 1.433 . S
C521 C517 1.350 . S
C521 C518 1.463 . S
C521 N525 1.427 . S
C522 H512 0.929 . S
C522 C520 1.433 . S
C522 N525 1.384 . S
C523 H514 0.929 . S
C523 C515 1.378 . S
C523 C518 1.350 . S
C524 H511 0.929 . S
C524 C516 1.433 . S
C524 N526 1.384 . S
N525 C521 1.427 . S
N525 C522 1.384 . S
N526 C518 1.427 . S
N526 C524 1.384 . S
H527 C533 0.930 . S
H528 C537 0.930 . S
H529 C542 0.929 . S
H530 C540 0.929 . S
H531 C535 0.929 . S
H532 C541 0.929 . S
C533 H527 0.930 . S
C533 C534 1.367 . S
C533 C541 1.378 . S
C534 C533 1.367 . S
C534 C542 1.433 . S
C535 H531 0.929 . S
C535 C537 1.378 . S
C535 C539 1.350 . S
C536 C539 1.463 . S
C536 C541 1.350 . S
C536 N544 1.427 . S
C537 H528 0.930 . S
C537 C535 1.378 . S
C537 C538 1.367 . S
C538 C537 1.367 . S
C538 C540 1.433 . S
C539 C535 1.350 . S
C539 C536 1.463 . S
C539 N543 1.427 . S
C540 H530 0.929 . S
C540 C538 1.433 . S
C540 N543 1.384 . S
C541 H532 0.929 . S
C541 C533 1.378 . S
C541 C536 1.350 . S
C542 H529 0.929 . S
C542 C534 1.433 . S
C542 N544 1.384 . S
N543 C539 1.427 . S
N543 C540 1.384 . S
N544 C536 1.427 . S
N544 C542 1.384 . S
H545 C551 0.930 . S
H546 C555 0.930 . S
H547 C560 0.929 . S
H548 C558 0.929 . S
H549 C553 0.929 . S
H550 C559 0.929 . S
C551 H545 0.930 . S
C551 C552 1.367 . S
C551 C559 1.378 . S
C552 C551 1.367 . S
C552 C560 1.433 . S
C553 H549 0.929 . S
C553 C555 1.378 . S
C553 C557 1.350 . S
C554 C557 1.463 . S
C554 C559 1.350 . S
C554 N562 1.427 . S
C555 H546 0.930 . S
C555 C553 1.378 . S
C555 C556 1.367 . S
C556 C555 1.367 . S
C556 C558 1.433 . S
C557 C553 1.350 . S
C557 C554 1.463 . S
C557 N561 1.427 . S
C558 H548 0.929 . S
C558 C556 1.433 . S
C558 N561 1.384 . S
C559 H550 0.929 . S
C559 C551 1.378 . S
C559 C554 1.350 . S
C560 H547 0.929 . S
C560 C552 1.433 . S
C560 N562 1.384 . S
N561 C557 1.427 . S
N561 C558 1.384 . S
N562 C554 1.427 . S
N562 C560 1.384 . S
H563 C569 0.930 . S
H564 C573 0.930 . S
H565 C578 0.929 . S
H566 C576 0.929 . S
H567 C571 0.929 . S
H568 C577 0.929 . S
C569 H563 0.930 . S
C569 C570 1.367 . S
C569 C577 1.378 . S
C570 C569 1.367 . S
C570 C578 1.433 . S
C571 H567 0.929 . S
C571 C573 1.378 . S
C571 C575 1.350 . S
C572 C575 1.463 . S
C572 C577 1.350 . S
C572 N580 1.427 . S
C573 H564 0.930 . S
C573 C571 1.378 . S
C573 C574 1.367 . S
C574 C573 1.367 . S
C574 C576 1.433 . S
C575 C571 1.350 . S
C575 C572 1.463 . S
C575 N579 1.427 . S
C576 H566 0.929 . S
C576 C574 1.433 . S
C576 N579 1.384 . S
C577 H568 0.929 . S
C577 C569 1.378 . S
C577 C572 1.350 . S
C578 H565 0.929 . S
C578 C570 1.433 . S
C578 N580 1.384 . S
N579 C575 1.427 . S
N579 C576 1.384 . S
N580 C572 1.427 . S
N580 C578 1.384 . S
H581 C587 0.930 . S
H582 C591 0.930 . S
H583 C596 0.929 . S
H584 C594 0.929 . S
H585 C589 0.929 . S
H586 C595 0.929 . S
C587 H581 0.930 . S
C587 C588 1.367 . S
C587 C595 1.378 . S
C588 C587 1.367 . S
C588 C596 1.433 . S
C589 H585 0.929 . S
C589 C591 1.378 . S
C589 C593 1.350 . S
C590 C593 1.463 . S
C590 C595 1.350 . S
C590 N598 1.427 . S
C591 H582 0.930 . S
C591 C589 1.378 . S
C591 C592 1.367 . S
C592 C591 1.367 . S
C592 C594 1.433 . S
C593 C589 1.350 . S
C593 C590 1.463 . S
C593 N597 1.427 . S
C594 H584 0.929 . S
C594 C592 1.433 . S
C594 N597 1.384 . S
C595 H586 0.929 . S
C595 C587 1.378 . S
C595 C590 1.350 . S
C596 H583 0.929 . S
C596 C588 1.433 . S
C596 N598 1.384 . S
N597 C593 1.427 . S
N597 C594 1.384 . S
N598 C590 1.427 . S
N598 C596 1.384 . S
H599 C605 0.930 . S
H600 C609 0.930 . S
H601 C614 0.929 . S
H602 C612 0.929 . S
H603 C607 0.929 . S
H604 C613 0.929 . S
C605 H599 0.930 . S
C605 C606 1.367 . S
C605 C613 1.378 . S
C606 C605 1.367 . S
C606 C614 1.433 . S
C607 H603 0.929 . S
C607 C609 1.378 . S
C607 C611 1.350 . S
C608 C611 1.463 . S
C608 C613 1.350 . S
C608 N616 1.427 . S
C609 H600 0.930 . S
C609 C607 1.378 . S
C609 C610 1.367 . S
C610 C609 1.367 . S
C610 C612 1.433 . S
C611 C607 1.350 . S
C611 C608 1.463 . S
C611 N615 1.427 . S
C612 H602 0.929 . S
C612 C610 1.433 . S
C612 N615 1.384 . S
C613 H604 0.929 . S
C613 C605 1.378 . S
C613 C608 1.350 . S
C614 H601 0.929 . S
C614 C606 1.433 . S
C614 N616 1.384 . S
N615 C611 1.427 . S
N615 C612 1.384 . S
N616 C608 1.427 . S
N616 C614 1.384 . S
H617 C623 0.930 . S
H618 C627 0.930 . S
H619 C632 0.929 . S
H620 C630 0.929 . S
H621 C625 0.929 . S
H622 C631 0.929 . S
C623 H617 0.930 . S
C623 C624 1.367 . S
C623 C631 1.378 . S
C624 C623 1.367 . S
C624 C632 1.433 . S
C625 H621 0.929 . S
C625 C627 1.378 . S
C625 C629 1.350 . S
C626 C629 1.463 . S
C626 C631 1.350 . S
C626 N634 1.427 . S
C627 H618 0.930 . S
C627 C625 1.378 . S
C627 C628 1.367 . S
C628 C627 1.367 . S
C628 C630 1.433 . S
C629 C625 1.350 . S
C629 C626 1.463 . S
C629 N633 1.427 . S
C630 H620 0.929 . S
C630 C628 1.433 . S
C630 N633 1.384 . S
C631 H622 0.929 . S
C631 C623 1.378 . S
C631 C626 1.350 . S
C632 H619 0.929 . S
C632 C624 1.433 . S
C632 N634 1.384 . S
N633 C629 1.427 . S
N633 C630 1.384 . S
N634 C626 1.427 . S
N634 C632 1.384 . S
C214 C128 1.446 . S
C210 C9 1.513 . S
C232 C164 2.014 . S
C228 C22 2.140 . S
C250 C129 1.352 . S
C246 C30 1.338 . S
C268 C159 1.122 . S
C264 C47 1.168 . S
C286 C126 1.124 . S
C282 C61 1.163 . S
C300 C69 1.305 . S
C304 C162 1.351 . S
C318 C82 0.966 . S
C322 C131 0.872 . S
C340 C161 1.673 . S
C336 C99 1.715 . S
C358 C165 1.395 . S
C354 C4 1.454 . S
C376 C130 1.699 . S
C372 C21 1.756 . S
C394 C158 1.932 . S
C390 C34 1.930 . S
C412 C127 0.743 . S
C408 C48 0.766 . S
C430 C160 1.286 . S
C426 C60 1.369 . S
C444 C74 1.563 . S
C448 C125 1.556 . S
C462 C86 1.528 . S
C466 C163 1.461 . S
C484 C132 1.248 . S
C480 C95 1.236 . S
C502 C194 1.853 . S
C498 C8 1.973 . S
C516 C56 1.245 . S
C520 C197 1.227 . S
C538 C196 1.616 . S
C534 C73 1.653 . S
C552 C87 2.263 . S
C556 C195 2.246 . S
C574 C198 1.896 . S
C570 C100 1.996 . S
C588 C35 2.094 . S
C592 C192 2.025 . S
C610 C191 1.308 . S
C606 C43 1.300 . S
C624 C17 1.936 . S
C628 C193 1.873 . S
