# Generated by pormake.
# Topology anh, (6,3)-cn, num edge types: 1
# Building blocks:
#     Node 0, Type 0, BuildingBlock: GEDQOX_clean_sbu_0, # of connection points: 6
#     Node 1, Type 0, BuildingBlock: GEDQOX_clean_sbu_0, # of connection points: 6
#     Node 2, Type 0, BuildingBlock: GEDQOX_clean_sbu_0, # of connection points: 6
#     Node 3, Type 1, BuildingBlock: BETDIP_clean_linker_0, # of connection points: 3
#     Node 4, Type 1, BuildingBlock: BETDIP_clean_linker_0, # of connection points: 3
#     Node 5, Type 1, BuildingBlock: BETDIP_clean_linker_0, # of connection points: 3
#     Node 6, Type 1, BuildingBlock: BETDIP_clean_linker_0, # of connection points: 3
#     Node 7, Type 1, BuildingBlock: BETDIP_clean_linker_0, # of connection points: 3
#     Node 8, Type 1, BuildingBlock: BETDIP_clean_linker_0, # of connection points: 3
#     Edge 9, Type (0, 1), BuildingBlock: ZUJKAS_clean_linker_0, # of connection points: 2
#     Edge 10, Type (0, 1), BuildingBlock: ZUJKAS_clean_linker_0, # of connection points: 2
#     Edge 11, Type (0, 1), BuildingBlock: ZUJKAS_clean_linker_0, # of connection points: 2
#     Edge 12, Type (0, 1), BuildingBlock: ZUJKAS_clean_linker_0, # of connection points: 2
#     Edge 13, Type (0, 1), BuildingBlock: ZUJKAS_clean_linker_0, # of connection points: 2
#     Edge 14, Type (0, 1), BuildingBlock: ZUJKAS_clean_linker_0, # of connection points: 2
#     Edge 15, Type (0, 1), BuildingBlock: ZUJKAS_clean_linker_0, # of connection points: 2
#     Edge 16, Type (0, 1), BuildingBlock: ZUJKAS_clean_linker_0, # of connection points: 2
#     Edge 17, Type (0, 1), BuildingBlock: ZUJKAS_clean_linker_0, # of connection points: 2
#     Edge 18, Type (0, 1), BuildingBlock: ZUJKAS_clean_linker_0, # of connection points: 2
#     Edge 19, Type (0, 1), BuildingBlock: ZUJKAS_clean_linker_0, # of connection points: 2
#     Edge 20, Type (0, 1), BuildingBlock: ZUJKAS_clean_linker_0, # of connection points: 2
#     Edge 21, Type (0, 1), BuildingBlock: ZUJKAS_clean_linker_0, # of connection points: 2
#     Edge 22, Type (0, 1), BuildingBlock: ZUJKAS_clean_linker_0, # of connection points: 2
#     Edge 23, Type (0, 1), BuildingBlock: ZUJKAS_clean_linker_0, # of connection points: 2
#     Edge 24, Type (0, 1), BuildingBlock: ZUJKAS_clean_linker_0, # of connection points: 2
#     Edge 25, Type (0, 1), BuildingBlock: ZUJKAS_clean_linker_0, # of connection points: 2
#     Edge 26, Type (0, 1), BuildingBlock: ZUJKAS_clean_linker_0, # of connection points: 2
# Relax obj value: 0.123
# Max RMSD: 0.172
# Mean RMSD: 0.120
data_MOF--net-anh--node1-GEDQOX_clean_sbu_0--node2-BETDIP_clean_linker_0--edge1-ZUJKAS_clean_linker_0
_symmetry_space_group_name_H-M    P1
_symmetry_Int_Tables_number       1
_symmetry_cell_setting            triclinic
loop_
_symmetry_equiv_pos_as_xyz
'x, y, z'
_cell_length_a     39.391587
_cell_length_b     38.651779
_cell_length_c     64.371609
_cell_angle_alpha  95.438119
_cell_angle_beta   91.535875
_cell_angle_gamma 106.14562
loop_
_atom_site_label
_atom_site_type_symbol
_atom_site_fract_x
_atom_site_fract_y
_atom_site_fract_z
_atom_type_partial_charge
Nd0 Nd 0.13531 0.58996 0.1397 0.0
Nd1 Nd 0.11205 0.5044 0.14522 0.0
C2 C 0.1593 0.65132 0.12311 0.0
C3 C 0.18963 0.68356 0.12806 0.0
C4 C 0.20356 0.7054 0.11239 0.0
C5 C 0.23335 0.7353 0.11691 0.0
C6 C 0.24956 0.7438 0.13721 0.0
C7 C 0.23546 0.72166 0.15282 0.0
C8 C 0.20587 0.69176 0.14827 0.0
C9 C 0.13584 0.57926 0.18148 0.0
C10 C 0.19638 0.54579 0.14658 0.0
C11 C 0.08287 0.43824 0.15506 0.0
C12 C 1.04758 0.41593 0.15999 0.0
C13 C 1.0432 0.40113 0.17916 0.0
C14 C 1.01029 0.37888 0.18378 0.0
C15 C 0.98121 0.37072 0.16921 0.0
C16 C 0.98553 0.38585 0.15011 0.0
C17 C 1.01831 0.40833 0.14557 0.0
C18 C 0.12606 0.52481 0.10601 0.0
C19 C 1.05038 0.54864 0.14152 0.0
O20 O 0.16734 0.62157 0.11652 0.0
O21 O 0.13444 0.6462 0.13662 0.0
O22 O 0.14441 0.61126 0.17502 0.0
O23 O 0.12841 0.5559 0.16591 0.0
O24 O 0.1879 0.57353 0.13922 0.0
O25 O 0.17211 0.51773 0.1526 0.0
O26 O 0.09924 0.46516 0.16896 0.0
O27 O 0.08677 0.4463 0.13579 0.0
O28 O 0.13481 0.49764 0.11278 0.0
O29 O 0.10974 0.53864 0.11942 0.0
O30 O 1.05889 0.5196 0.14692 0.0
O31 O 0.07447 0.57748 0.13614 0.0
H32 H 0.19153 0.69919 0.09664 0.0
H33 H 0.24352 0.75193 0.10458 0.0
H34 H 0.24771 0.72704 0.1685 0.0
H35 H 0.19586 0.67483 0.1605 0.0
H36 H 1.06535 0.4065 0.1905 0.0
H37 H 1.00782 0.36739 0.19856 0.0
H38 H 0.96348 0.38043 0.1387 0.0
H39 H 1.02071 0.41951 0.1307 0.0
Nd40 Nd 0.53874 0.01313 0.51642 0.0
Nd41 Nd 0.62226 0.03486 0.5071 0.0
C42 C 0.47873 0.99021 0.53472 0.0
C43 C 0.44833 0.95735 0.53139 0.0
C44 C 0.4536 0.9228 0.52817 0.0
C45 C 0.42481 0.892 0.52388 0.0
C46 C 0.39005 0.895 0.52252 0.0
C47 C 0.38481 0.92961 0.52608 0.0
C48 C 0.4137 0.96047 0.53049 0.0
C49 C 0.54855 0.01036 0.47398 0.0
C50 C 0.5801 0.9497 0.50554 0.0
C51 C 0.68716 0.06297 0.4955 0.0
C52 C 0.70844 0.09767 0.48913 0.0
C53 C 0.73743 0.0985 0.47686 0.0
C54 C 0.75933 0.13155 0.4719 0.0
C55 C 0.75258 0.16441 0.47914 0.0
C56 C 0.72295 0.16331 0.49108 0.0
C57 C 0.70115 0.13026 0.49605 0.0
C58 C 0.60421 0.02181 0.54694 0.0
C59 C 0.57921 0.09797 0.51306 0.0
O60 O 0.50877 0.98587 0.54167 0.0
O61 O 0.48264 0.01222 0.52008 0.0
O62 O 0.51736 1.00236 0.48149 0.0
O63 O 0.57127 0.01814 0.4889 0.0
O64 O 0.55391 0.95944 0.51475 0.0
O65 O 0.60751 0.97335 0.49852 0.0
O66 O 0.66136 0.04345 0.48242 0.0
O67 O 0.67849 0.06358 0.515 0.0
O68 O 0.62996 0.01232 0.53808 0.0
O69 O 0.59007 0.03878 0.53517 0.0
O70 O 0.6067 0.08811 0.50572 0.0
O71 O 0.55178 0.07497 0.52042 0.0
H72 H 0.48002 0.91955 0.52873 0.0
H73 H 0.42985 0.86578 0.52158 0.0
H74 H 0.35848 0.93301 0.52492 0.0
H75 H 0.40903 0.98687 0.53282 0.0
H76 H 0.74357 0.07362 0.47147 0.0
H77 H 0.78212 0.1314 0.46289 0.0
H78 H 0.71666 0.18801 0.49665 0.0
H79 H 0.67897 0.13018 0.50564 0.0
Nd80 Nd 0.53058 0.49731 0.82472 0.0
Nd81 Nd 0.60627 0.52174 0.83933 0.0
C82 C 0.46758 0.49118 0.80713 0.0
C83 C 0.44457 0.51496 0.81024 0.0
C84 C 0.41286 0.50836 0.79819 0.0
C85 C 0.39132 0.5315 0.80147 0.0
C86 C 0.40152 0.56163 0.81671 0.0
C87 C 0.43348 0.56811 0.82862 0.0
C88 C 0.45471 0.54489 0.82546 0.0
C89 C 0.54194 0.49895 0.86722 0.0
C90 C 0.56889 0.58425 0.83722 0.0
C91 C 0.67043 0.53013 0.85584 0.0
C92 C 0.70176 0.52 0.84817 0.0
C93 C 0.71206 0.49169 0.85621 0.0
C94 C 0.74176 0.48213 0.84902 0.0
C95 C 0.76184 0.50087 0.83371 0.0
C96 C 0.75108 0.52877 0.82546 0.0
C97 C 0.72142 0.53819 0.83257 0.0
C98 C 0.59583 0.52048 0.79686 0.0
C99 C 0.56652 0.43436 0.82827 0.0
O100 O 0.49712 0.50527 0.79838 0.0
O101 O 0.47228 0.47462 0.82329 0.0
O102 O 0.51778 0.47377 0.85614 0.0
O103 O 0.55783 0.52287 0.85618 0.0
O104 O 0.54544 0.55949 0.82471 0.0
O105 O 0.5928 0.57498 0.84845 0.0
O106 O 0.64316 0.50359 0.85955 0.0
O107 O 0.66134 0.55526 0.8467 0.0
O108 O 0.6204 0.5447 0.80812 0.0
O109 O 0.57935 0.49639 0.80767 0.0
O110 O 0.59082 0.45944 0.84019 0.0
O111 O 0.54229 0.44322 0.81711 0.0
H112 H 0.40476 0.48537 0.78635 0.0
H113 H 0.36686 0.526 0.79203 0.0
H114 H 0.44174 0.59069 0.84071 0.0
H115 H 0.47896 0.55015 0.83507 0.0
H116 H 0.69728 0.4771 0.86818 0.0
H117 H 0.74926 0.46041 0.85563 0.0
H118 H 0.76634 0.54438 0.81403 0.0
H119 H 0.71428 0.56014 0.82598 0.0
H120 H 0.58095 0.05078 0.19521 0.0
H121 H 0.63403 0.08638 0.256 0.0
H122 H 0.53716 1.00029 0.24908 0.0
H123 H 0.64733 0.14081 0.24183 0.0
C124 C 0.65581 0.13232 0.22674 0.0
C125 C 0.5823 0.0484 0.21184 0.0
C126 C 0.55558 0.02259 0.22062 0.0
C127 C 0.61005 0.07233 0.22459 0.0
C128 C 0.61188 0.06918 0.24618 0.0
C129 C 0.58574 0.04318 0.25513 0.0
C130 C 0.55767 0.02016 0.24223 0.0
N131 N 0.63603 0.09908 0.21542 0.0
H132 H 0.57988 0.49358 0.51251 0.0
H133 H 0.57253 0.56003 0.56899 0.0
H134 H 0.5912 0.45661 0.57265 0.0
H135 H 0.53014 0.57264 0.545 0.0
C136 C 0.5497 0.58074 0.53347 0.0
C137 C 0.58051 0.49784 0.52941 0.0
C138 C 0.58647 0.47129 0.54145 0.0
C139 C 0.57513 0.52987 0.53923 0.0
C140 C 0.57582 0.53515 0.56122 0.0
C141 C 0.58209 0.50902 0.57331 0.0
C142 C 0.58741 0.47732 0.56332 0.0
N143 N 0.5703 0.55711 0.52696 0.0
H144 H 0.08989 0.69786 0.86541 0.0
H145 H 0.15876 0.71873 0.92081 0.0
H146 H 0.09855 0.60957 0.89919 0.0
H147 H 0.1805 0.79818 0.89593 0.0
C148 C 0.17253 0.76991 0.88956 0.0
C149 C 0.10149 0.68777 0.87816 0.0
C150 C 0.09155 0.6506 0.88045 0.0
C151 C 0.12639 0.71214 0.89236 0.0
C152 C 0.14067 0.69951 0.90939 0.0
C153 C 0.12985 0.66257 0.91233 0.0
C154 C 0.10624 0.63828 0.89737 0.0
N155 N 0.13645 0.7496 0.88972 0.0
H156 H 0.08234 0.56397 0.46093 0.0
H157 H 1.04456 0.51105 0.39955 0.0
H158 H 0.13699 0.60257 0.40692 0.0
H159 H 0.99078 0.50457 0.41539 0.0
C160 C 0.99781 0.49432 0.42957 0.0
C161 C 0.08483 0.56216 0.44417 0.0
C162 C 0.11322 0.58629 0.43553 0.0
C163 C 1.05943 0.53563 0.43125 0.0
C164 C 1.06309 0.53254 0.40952 0.0
C165 C 0.09125 0.55632 0.40061 0.0
C166 C 0.11596 0.58325 0.41375 0.0
N167 N 1.03105 0.51156 0.44042 0.0
H168 H 0.55477 0.03612 0.82712 0.0
H169 H 0.55954 0.9668 0.7715 0.0
H170 H 0.55698 0.07621 0.76692 0.0
H171 H 0.5144 0.92838 0.79248 0.0
C172 C 0.53396 0.93244 0.8054 0.0
C173 C 0.55599 0.03198 0.81031 0.0
C174 C 0.55576 0.06023 0.79806 0.0
C175 C 0.5559 0.99773 0.80066 0.0
C176 C 0.55788 0.99265 0.77882 0.0
C177 C 0.5589 0.02098 0.76652 0.0
C178 C 0.55716 0.05439 0.7763 0.0
N179 N 0.55376 0.96845 0.81289 0.0
H180 H 0.59287 0.54998 0.15202 0.0
H181 H 0.64235 0.5374 0.09387 0.0
H182 H 0.53301 0.53587 0.09327 0.0
H183 H 0.68611 0.58919 0.11665 0.0
C184 C 0.68773 0.56946 0.12734 0.0
C185 C 0.59128 0.54578 0.13511 0.0
C186 C 0.55903 0.54321 0.12386 0.0
C187 C 0.62196 0.54471 0.12426 0.0
C188 C 0.61939 0.53938 0.10228 0.0
C189 C 0.58733 0.53558 0.09107 0.0
C190 C 0.55758 0.53784 0.10196 0.0
N191 N 0.65537 0.54896 0.13515 0.0
H192 H 0.22585 0.49425 0.16008 0.0
H193 H 0.28813 0.49437 0.16081 0.0
H194 H 0.31597 0.5971 0.13532 0.0
H195 H 0.25406 0.59751 0.13485 0.0
H196 H 0.3328 0.49446 0.12936 0.0
H197 H 0.38814 0.61837 0.18384 0.0
H198 H 0.3412 0.59655 0.18024 0.0
H199 H 0.36345 0.62624 0.16184 0.0
C200 C 0.2452 0.51708 0.15478 0.0
C201 C 0.2346 0.54598 0.14752 0.0
C202 C 0.28095 0.51707 0.15518 0.0
C203 C 0.30722 0.54605 0.14849 0.0
C204 C 0.29665 0.5748 0.14111 0.0
H205 H 0.52777 0.59692 0.12062 0.0
H206 H 0.4674 0.59662 0.12893 0.0
C207 C 0.26096 0.57486 0.14071 0.0
C208 C 0.34533 0.54562 0.14844 0.0
H209 H 0.42987 0.59553 0.16466 0.0
C210 C 0.35395 0.51637 0.13731 0.0
C211 C 0.37324 0.57412 0.15879 0.0
C212 C 0.36608 0.60541 0.17203 0.0
C213 C 0.3894 0.51552 0.13555 0.0
C214 C 0.41735 0.54439 0.14554 0.0
C215 C 0.40869 0.5733 0.15701 0.0
C216 C 0.45568 0.54629 0.14303 0.0
C217 C 0.39664 0.48435 0.12223 0.0
C218 C 0.47022 0.51898 0.14898 0.0
C219 C 0.50513 0.51935 0.1444 0.0
C220 C 0.52628 0.54715 0.13387 0.0
C221 C 0.51233 0.57542 0.12901 0.0
C222 C 0.47766 0.57512 0.13364 0.0
H223 H 0.37325 0.46886 0.1119 0.0
H224 H 0.41932 0.49413 0.11236 0.0
H225 H 0.40343 0.4655 0.13251 0.0
H226 H 0.45422 0.49675 0.15661 0.0
H227 H 0.51486 0.4969 0.14802 0.0
H228 H 0.77597 0.22695 0.50573 0.0
H229 H 0.81704 0.28441 0.49877 0.0
H230 H 0.82611 0.23916 0.43602 0.0
H231 H 0.78472 0.18167 0.44274 0.0
H232 H 0.89156 0.27549 0.45743 0.0
H233 H 0.79766 0.3595 0.46226 0.0
H234 H 0.79951 0.33492 0.48441 0.0
H235 H 0.78309 0.3106 0.45932 0.0
C236 C 0.78624 0.22935 0.49033 0.0
C237 C 0.77689 0.19969 0.47475 0.0
C238 C 0.80977 0.26222 0.48641 0.0
C239 C 0.82431 0.26616 0.46682 0.0
C240 C 0.81515 0.23667 0.45125 0.0
H241 H 0.93368 0.45781 0.41147 0.0
H242 H 0.89214 0.40297 0.42167 0.0
C243 C 0.7916 0.20379 0.45515 0.0
C244 C 0.84979 0.30072 0.46267 0.0
H245 H 0.85799 0.39024 0.45902 0.0
C246 C 0.88428 0.30061 0.4578 0.0
C247 C 0.84008 0.33336 0.46302 0.0
C248 C 0.803 0.33475 0.46736 0.0
C249 C 0.90939 0.3323 0.45328 0.0
C250 C 0.89984 0.36505 0.45392 0.0
C251 C 0.86533 0.36515 0.45876 0.0
C252 C 0.92471 0.39906 0.44846 0.0
C253 C 0.94562 0.33024 0.44731 0.0
C254 C 0.95654 0.4154 0.46036 0.0
C255 C 0.98035 0.44676 0.45453 0.0
C256 C 0.97253 0.46229 0.43677 0.0
C257 C 0.94032 0.44634 0.42521 0.0
C258 C 0.91659 0.41507 0.43102 0.0
H259 H 0.94616 0.30186 0.44309 0.0
H260 H 0.95442 0.346 0.43391 0.0
H261 H 0.96493 0.342 0.46075 0.0
H262 H 0.96302 0.40382 0.47408 0.0
H263 H 1.00492 0.45855 0.4638 0.0
H264 H 0.52027 0.61056 0.81793 0.0
H265 H 0.51878 0.67322 0.81869 0.0
H266 H 0.61248 0.70756 0.86018 0.0
H267 H 0.61446 0.64451 0.85935 0.0
H268 H 0.51388 0.72242 0.85244 0.0
H269 H 0.63913 0.77164 0.81237 0.0
H270 H 0.61708 0.72404 0.81266 0.0
H271 H 0.64201 0.74978 0.83553 0.0
C272 C 0.54065 0.63131 0.82725 0.0
C273 C 0.56766 0.62244 0.83848 0.0
C274 C 0.53968 0.6672 0.82769 0.0
C275 C 0.56576 0.69518 0.83925 0.0
C276 C 0.59243 0.68648 0.85084 0.0
H277 H 0.58536 0.92808 0.83442 0.0
H278 H 0.59457 0.87247 0.84628 0.0
C279 C 0.59341 0.65041 0.85044 0.0
C280 C 0.56465 0.73325 0.83886 0.0
H281 H 0.60688 0.81346 0.82058 0.0
C282 C 0.53442 0.74245 0.84569 0.0
C283 C 0.59155 0.75948 0.83016 0.0
C284 C 0.62421 0.75087 0.8221 0.0
C285 C 0.52983 0.77669 0.84347 0.0
C286 C 0.5559 0.80229 0.83386 0.0
C287 C 0.58693 0.79379 0.82794 0.0
C288 C 0.54973 0.83631 0.82781 0.0
C289 C 0.49676 0.78493 0.85111 0.0
C290 C 0.52172 0.8344 0.81342 0.0
C291 C 0.51655 0.86588 0.80663 0.0
C292 C 0.53927 0.90002 0.81404 0.0
C293 C 0.56725 0.90213 0.82858 0.0
C294 C 0.57257 0.87042 0.83532 0.0
H295 H 0.48545 0.76802 0.86365 0.0
H296 H 0.50212 0.81394 0.85714 0.0
H297 H 0.47651 0.77883 0.83794 0.0
H298 H 0.50424 0.8084 0.80706 0.0
H299 H 0.49497 0.86348 0.79529 0.0
H300 H 0.99272 0.49684 0.15361 0.0
H301 H 0.93043 0.49684 0.15262 0.0
H302 H 0.95874 0.60022 0.12792 0.0
H303 H 1.02091 0.60047 0.12878 0.0
H304 H 0.89673 0.54706 0.17204 0.0
H305 H 0.88034 0.53802 0.08576 0.0
H306 H 0.91731 0.52856 0.09891 0.0
H307 H 0.91714 0.57459 0.09688 0.0
C308 C 0.9858 0.51962 0.14792 0.0
C309 C 1.01219 0.54859 0.14116 0.0
C310 C 0.95003 0.51959 0.14742 0.0
C311 C 0.93953 0.54829 0.13993 0.0
C312 C 0.96585 0.57741 0.13343 0.0
H313 H 0.74999 0.61205 0.11686 0.0
H314 H 0.80923 0.60482 0.12127 0.0
C315 C 1.00159 0.57757 0.13402 0.0
C316 C 0.90125 0.54796 0.13885 0.0
H317 H 0.83423 0.55175 0.10494 0.0
C318 C 0.88295 0.54778 0.15735 0.0
C319 C 0.88298 0.54872 0.11971 0.0
C320 C 0.90027 0.54714 0.09915 0.0
C321 C 0.84765 0.54993 0.15731 0.0
C322 C 0.82963 0.55152 0.13819 0.0
C323 C 0.84776 0.55071 0.11967 0.0
C324 C 0.79294 0.55624 0.13694 0.0
C325 C 0.83053 0.55196 0.17789 0.0
C326 C 0.76339 0.53156 0.14441 0.0
C327 C 0.72907 0.53592 0.14205 0.0
C328 C 0.72361 0.56487 0.13199 0.0
C329 C 0.75321 0.58951 0.12476 0.0
C330 C 0.78723 0.58532 0.1272 0.0
H331 H 0.8504 0.55952 0.19133 0.0
H332 H 0.81499 0.57197 0.17839 0.0
H333 H 0.81221 0.52504 0.17984 0.0
H334 H 0.76664 0.50839 0.15159 0.0
H335 H 0.70684 0.51619 0.14759 0.0
H336 H 0.32365 0.87848 0.53802 0.0
H337 H 0.27375 0.82469 0.52791 0.0
H338 H 0.33768 0.78372 0.48402 0.0
H339 H 0.38728 0.83744 0.49364 0.0
H340 H 0.2407 0.79963 0.48705 0.0
H341 H 0.29778 0.69828 0.51873 0.0
H342 H 0.31467 0.7463 0.52668 0.0
H343 H 0.3267 0.72712 0.50239 0.0
C344 C 0.32706 0.8581 0.52615 0.0
C345 C 0.35964 0.86222 0.51677 0.0
C346 C 0.29858 0.8273 0.5205 0.0
C347 C 0.30225 0.79994 0.50551 0.0
C348 C 0.33456 0.80409 0.496 0.0
H349 H 0.18491 0.60712 0.43255 0.0
H350 H 0.22821 0.65864 0.45195 0.0
C351 C 0.36294 0.83484 0.50157 0.0
C352 C 0.27205 0.76763 0.49903 0.0
H353 H 0.24788 0.67517 0.49435 0.0
C354 C 0.24193 0.77239 0.48892 0.0
C355 C 0.2738 0.7322 0.50153 0.0
C356 C 0.30483 0.72555 0.5131 0.0
C357 C 0.21429 0.74256 0.48022 0.0
C358 C 0.2166 0.70707 0.4821 0.0
C359 C 0.24616 0.70238 0.4929 0.0
C360 C 0.19012 0.67457 0.47149 0.0
C361 C 0.18374 0.7493 0.46819 0.0
C362 C 0.1544 0.66582 0.47639 0.0
C363 C 0.12945 0.63644 0.46518 0.0
C364 C 0.13986 0.61527 0.44893 0.0
C365 C 0.17592 0.62327 0.44471 0.0
C366 C 0.20075 0.65257 0.45588 0.0
H367 H 0.18953 0.77784 0.46458 0.0
H368 H 0.17714 0.73122 0.4533 0.0
H369 H 0.16007 0.74345 0.47766 0.0
H370 H 0.14574 0.68204 0.48867 0.0
H371 H 0.10188 0.63104 0.46878 0.0
H372 H 0.52121 0.37565 0.80531 0.0
H373 H 0.52081 0.31218 0.80432 0.0
H374 H 0.61112 0.34204 0.84839 0.0
H375 H 0.61159 0.40568 0.84965 0.0
H376 H 0.57587 0.28259 0.79248 0.0
H377 H 0.54108 0.25896 0.87413 0.0
H378 H 0.53492 0.29729 0.86208 0.0
H379 H 0.57834 0.29717 0.87124 0.0
C380 C 0.54093 0.3688 0.81488 0.0
C381 C 0.56638 0.39583 0.82759 0.0
C382 C 0.54064 0.33246 0.8143 0.0
C383 C 0.5656 0.3223 0.82651 0.0
C384 C 0.59116 0.34917 0.83916 0.0
H385 H 0.60077 0.1074 0.82795 0.0
H386 H 0.60407 0.17167 0.83711 0.0
C387 C 0.59152 0.38558 0.83974 0.0
C388 C 0.56561 0.28372 0.82517 0.0
H389 H 0.55281 0.21046 0.85304 0.0
C390 C 0.57088 0.26687 0.80574 0.0
C391 C 0.55943 0.26332 0.84254 0.0
C392 C 0.55284 0.2799 0.86367 0.0
C393 C 0.56978 0.23013 0.80311 0.0
C394 C 0.56254 0.20942 0.8203 0.0
C395 C 0.55821 0.2264 0.8399 0.0
C396 C 0.55779 0.16977 0.81766 0.0
C397 C 0.57639 0.21372 0.78191 0.0
C398 C 0.5298 0.14722 0.80452 0.0
C399 C 0.52792 0.11085 0.79933 0.0
C400 C 0.55382 0.09619 0.80731 0.0
C401 C 0.58039 0.11805 0.82171 0.0
C402 C 0.58237 0.1547 0.82685 0.0
H403 H 0.59047 0.23478 0.77209 0.0
H404 H 0.59221 0.19428 0.78343 0.0
H405 H 0.55065 0.19879 0.77365 0.0
H406 H 0.51024 0.15819 0.79755 0.0
H407 H 0.50705 0.09448 0.7883 0.0
H408 H 0.62907 0.91694 0.48949 0.0
H409 H 0.62711 0.85276 0.48841 0.0
H410 H 0.52704 0.83047 0.51744 0.0
H411 H 0.52843 0.89383 0.51832 0.0
H412 H 0.62487 0.8116 0.52143 0.0
H413 H 0.50576 0.75226 0.46853 0.0
H414 H 0.52884 0.80001 0.47114 0.0
H415 H 0.49752 0.78158 0.48991 0.0
C416 C 0.60645 0.8983 0.49543 0.0
C417 C 0.57882 0.91069 0.5039 0.0
C418 C 0.60541 0.86162 0.49482 0.0
C419 C 0.5766 0.83662 0.50248 0.0
C420 C 0.54909 0.84897 0.51092 0.0
H421 H 0.5104 0.6268 0.54198 0.0
H422 H 0.51957 0.68799 0.53181 0.0
C423 C 0.55009 0.88544 0.51154 0.0
C424 C 0.57581 0.79796 0.50285 0.0
H425 H 0.52254 0.71169 0.49034 0.0
C426 C 0.60287 0.78969 0.51429 0.0
C427 C 0.54716 0.76935 0.49346 0.0
C428 C 0.51838 0.77621 0.47989 0.0
C429 C 0.60094 0.75375 0.51765 0.0
C430 C 0.57137 0.72537 0.50914 0.0
C431 C 0.54512 0.7335 0.49694 0.0
C432 C 0.56557 0.68755 0.51428 0.0
C433 C 0.62959 0.74656 0.53117 0.0
C434 C 0.58806 0.6667 0.50751 0.0
C435 C 0.58273 0.63151 0.51324 0.0
C436 C 0.55483 0.61677 0.52586 0.0
C437 C 0.53206 0.63749 0.53224 0.0
C438 C 0.53727 0.67243 0.52644 0.0
H439 H 0.64789 0.77193 0.53909 0.0
H440 H 0.61775 0.7288 0.54323 0.0
H441 H 0.64528 0.7323 0.52133 0.0
H442 H 0.60981 0.67771 0.49791 0.0
H443 H 0.60073 0.61618 0.5081 0.0
H444 H 0.78965 0.50039 0.795 0.0
H445 H 0.85165 0.50644 0.78792 0.0
H446 H 0.87323 0.49355 0.85234 0.0
H447 H 0.81202 0.48821 0.85958 0.0
H448 H 0.89896 0.56477 0.80783 0.0
H449 H 0.94067 0.44521 0.82382 0.0
H450 H 0.895 0.4426 0.81734 0.0
H451 H 0.91302 0.45474 0.84395 0.0
C452 C 0.80746 0.4979 0.80751 0.0
C453 C 0.79605 0.49454 0.82796 0.0
C454 C 0.84277 0.50097 0.80337 0.0
C455 C 0.86706 0.50022 0.81954 0.0
C456 C 0.85487 0.49332 0.83946 0.0
H457 H 1.03492 0.59935 0.8918 0.0
H458 H 0.98702 0.55838 0.86939 0.0
C459 C 0.81971 0.49044 0.84363 0.0
C460 C 0.90556 0.51505 0.81743 0.0
H461 H 0.98335 0.50475 0.8363 0.0
C462 C 0.91778 0.55128 0.81322 0.0
C463 C 0.93006 0.49729 0.82417 0.0
C464 C 0.91894 0.45765 0.82734 0.0
C465 C 0.95282 0.57173 0.81855 0.0
C466 C 0.97624 0.55509 0.82791 0.0
C467 C 0.9652 0.51761 0.82942 0.0
C468 C 1.00827 0.57709 0.84048 0.0
C469 C 0.96323 0.61182 0.81634 0.0
C470 C 1.03644 0.60102 0.83164 0.0
C471 C 1.06387 0.62495 0.84456 0.0
C472 C 1.06365 0.62475 0.86639 0.0
C473 C 1.03602 0.59986 0.87503 0.0
C474 C 1.00867 0.57633 0.86222 0.0
H475 H 0.94073 0.62094 0.81047 0.0
H476 H 0.97356 0.62761 0.83163 0.0
H477 H 0.98453 0.6182 0.80519 0.0
H478 H 1.03684 0.60171 0.81488 0.0
H479 H 0.08513 0.64362 0.83753 0.0
H480 H 0.26318 0.79333 0.17173 0.0
H481 H 0.3171 0.84248 0.18134 0.0
H482 H 0.36189 0.81471 0.12387 0.0
H483 H 0.30787 0.76527 0.11413 0.0
H484 H 0.3845 0.83307 0.18672 0.0
H485 H 0.38108 0.92541 0.1259 0.0
H486 H 0.34253 0.89015 0.13147 0.0
H487 H 0.37658 0.87893 0.11655 0.0
C488 C 0.28444 0.79773 0.16109 0.0
C489 C 0.28132 0.7753 0.14221 0.0
C490 C 0.31516 0.82593 0.16655 0.0
C491 C 0.34337 0.83243 0.15325 0.0
C492 C 0.34017 0.8106 0.13418 0.0
H493 H 0.55608 0.98303 0.18291 0.0
H494 H 0.50578 0.93705 0.16408 0.0
C495 C 0.30931 0.78234 0.12866 0.0
C496 C 0.37681 0.86057 0.16017 0.0
H497 H 0.4309 0.94235 0.14991 0.0
C498 C 0.39471 0.85686 0.1786 0.0
C499 C 0.39022 0.89144 0.14945 0.0
C500 C 0.37157 0.89705 0.12982 0.0
C501 C 0.42523 0.88351 0.18685 0.0
C502 C 0.438 0.91488 0.17653 0.0
C503 C 0.42091 0.91819 0.15773 0.0
C504 C 0.46754 0.94542 0.18608 0.0
C505 C 0.4434 0.87824 0.20676 0.0
C506 C 0.46226 0.96593 0.20421 0.0
C507 C 0.49068 0.99205 0.21487 0.0
C508 C 0.525 0.99817 0.20763 0.0
C509 C 0.52993 0.97893 0.18882 0.0
C510 C 0.50132 0.95266 0.1781 0.0
H511 H 0.435 0.84959 0.21027 0.0
H512 H 0.47261 0.8868 0.20576 0.0
H513 H 0.43665 0.89525 0.22 0.0
H514 H 0.43626 0.96094 0.21045 0.0
H515 H 0.48594 0.00695 0.22909 0.0
H516 H 0.52925 0.12999 0.52774 0.0
H517 H 0.52992 0.19343 0.52808 0.0
H518 H 0.63018 0.21704 0.49923 0.0
H519 H 0.62929 0.15353 0.49825 0.0
H520 H 0.57705 0.25204 0.54819 0.0
H521 H 0.57519 0.26561 0.46329 0.0
H522 H 0.56542 0.22219 0.47349 0.0
H523 H 0.61058 0.24873 0.47205 0.0
C524 C 0.55136 0.14854 0.5213 0.0
C525 C 0.57931 0.1365 0.51305 0.0
C526 C 0.55167 0.18487 0.5215 0.0
C527 C 0.57983 0.20998 0.5134 0.0
C528 C 0.60775 0.19808 0.50513 0.0
H529 H 0.6392 0.44071 0.54931 0.0
H530 H 0.63842 0.37757 0.54021 0.0
C531 C 0.60739 0.16172 0.50483 0.0
C532 C 0.58096 0.24895 0.51481 0.0
H533 H 0.58864 0.32071 0.48617 0.0
C534 C 0.57939 0.26694 0.5346 0.0
C535 C 0.5836 0.2684 0.49705 0.0
C536 C 0.58344 0.25019 0.47524 0.0
C537 C 0.58112 0.30386 0.53719 0.0
C538 C 0.58528 0.32366 0.51957 0.0
C539 C 0.58598 0.3056 0.49969 0.0
C540 C 0.58884 0.36314 0.52177 0.0
C541 C 0.57813 0.32128 0.55881 0.0
C542 C 0.56236 0.37653 0.51332 0.0
C543 C 0.56298 0.41284 0.51832 0.0
C544 C 0.59007 0.43611 0.53186 0.0
C545 C 0.6179 0.42325 0.53895 0.0
C546 C 0.61737 0.38717 0.53387 0.0
H547 H 0.56609 0.30081 0.56949 0.0
H548 H 0.60496 0.33651 0.56553 0.0
H549 H 0.56196 0.34061 0.55828 0.0
H550 H 0.5402 0.35845 0.50385 0.0
H551 H 0.5411 0.42202 0.51278 0.0
H552 H 0.33009 0.54178 0.82068 0.0
H553 H 0.29303 0.58127 0.831 0.0
H554 H 0.38404 0.67479 0.83341 0.0
H555 H 0.42116 0.63558 0.82276 0.0
H556 H 0.30603 0.62906 0.8694 0.0
H557 H 0.30587 0.70171 0.79881 0.0
H558 H 0.31676 0.65921 0.79818 0.0
H559 H 0.34851 0.70049 0.80889 0.0
C560 C 0.34203 0.57081 0.82297 0.0
C561 C 0.37848 0.58563 0.82094 0.0
C562 C 0.32092 0.59326 0.82899 0.0
C563 C 0.33584 0.63085 0.83283 0.0
C564 C 0.37201 0.64585 0.83028 0.0
H565 H 0.24121 0.78211 0.90314 0.0
H566 H 0.28377 0.75079 0.88936 0.0
C567 C 0.39318 0.62342 0.82436 0.0
C568 C 0.31397 0.65411 0.84075 0.0
H569 H 0.27921 0.72166 0.82842 0.0
C570 C 0.3002 0.64938 0.86049 0.0
C571 C 0.30646 0.68043 0.829 0.0
C572 C 0.31989 0.68574 0.80746 0.0
C573 C 0.27894 0.67034 0.86882 0.0
C574 C 0.27163 0.69682 0.85712 0.0
C575 C 0.28537 0.70158 0.83738 0.0
C576 C 0.24755 0.71788 0.86457 0.0
C577 C 0.26367 0.6635 0.8898 0.0
C578 C 0.21372 0.71025 0.85479 0.0
C579 C 0.18961 0.72786 0.86263 0.0
C580 C 0.199 0.75334 0.88037 0.0
C581 C 0.23342 0.76226 0.88957 0.0
C582 C 0.25756 0.74439 0.88178 0.0
H583 H 0.2678 0.63863 0.89547 0.0
H584 H 0.27652 0.68687 0.90145 0.0
H585 H 0.23484 0.66086 0.88892 0.0
H586 H 0.2057 0.69003 0.8414 0.0
H587 H 0.16352 0.72134 0.85489 0.0
H588 H 0.93802 0.31473 0.14333 0.0
H589 H 0.881 0.27385 0.15092 0.0
H590 H 0.88951 0.3297 0.2129 0.0
H591 H 0.9464 0.37087 0.2054 0.0
H592 H 0.86811 0.22838 0.18565 0.0
H593 H 0.78986 0.32801 0.18724 0.0
H594 H 0.83133 0.33477 0.17468 0.0
H595 H 0.8311 0.34238 0.20262 0.0
C596 C 0.92756 0.31851 0.15851 0.0
C597 C 0.94659 0.34609 0.17376 0.0
C598 C 0.89513 0.29504 0.16284 0.0
C599 C 0.88096 0.29905 0.18237 0.0
C600 C 0.89987 0.32648 0.19764 0.0
H601 H 0.69774 0.19517 0.24607 0.0
H602 H 0.75195 0.23449 0.23398 0.0
C603 C 0.93244 0.34976 0.1934 0.0
C604 C 0.84677 0.27403 0.18701 0.0
H605 H 0.76221 0.27109 0.19896 0.0
C606 C 0.84481 0.23754 0.1884 0.0
C607 C 0.81656 0.28621 0.19057 0.0
C608 C 0.81702 0.32491 0.18856 0.0
C609 C 0.81365 0.21306 0.194 0.0
C610 C 0.78349 0.22533 0.19782 0.0
C611 C 0.78534 0.26173 0.19602 0.0
C612 C 0.75029 0.20137 0.20471 0.0
C613 C 0.81373 0.17466 0.19654 0.0
C614 C 0.73109 0.16991 0.19214 0.0
C615 C 0.70012 0.14729 0.19908 0.0
C616 C 0.68781 0.15603 0.21862 0.0
C617 C 0.70672 0.18783 0.23096 0.0
C618 C 0.73763 0.2103 0.22406 0.0
H619 H 0.84105 0.17199 0.19794 0.0
H620 H 0.7997 0.16516 0.21057 0.0
H621 H 0.79983 0.15658 0.18265 0.0
H622 H 0.73999 0.16289 0.17696 0.0
H623 H 0.68597 0.12303 0.18919 0.0
H624 H 0.17274 0.50794 0.07882 0.0
H625 H 0.19015 0.53437 0.04612 0.0
H626 H 0.12011 0.60189 0.05621 0.0
H627 H 0.10334 0.57627 0.08886 0.0
H628 H 0.14985 0.53144 0.01187 0.0
H629 H 0.20754 0.6752 0.04119 0.0
H630 H 0.19932 0.63969 0.05832 0.0
H631 H 0.16443 0.65869 0.05087 0.0
C632 C 0.16134 0.52863 0.07406 0.0
C633 C 0.13682 0.5402 0.08634 0.0
C634 C 0.1714 0.54381 0.05547 0.0
C635 C 0.15713 0.57079 0.04897 0.0
C636 C 0.13242 0.58205 0.06122 0.0
H637 H 0.08687 0.61599 0.93583 0.0
H638 H 0.10214 0.59357 0.96777 0.0
C639 C 0.12252 0.56707 0.07977 0.0
C640 C 0.1652 0.58499 0.02851 0.0
H641 H 0.18235 0.66331 0.00517 0.0
C642 C 0.15783 0.56028 0.01043 0.0
C643 C 0.17643 0.62261 0.02655 0.0
C644 C 0.18777 0.65049 0.04532 0.0
C645 C 0.1583 0.57219 0.99051 0.0
C646 C 0.16562 0.6097 0.98868 0.0
C647 C 0.17612 0.63452 0.00662 0.0
C648 C 0.15767 0.62314 0.96885 0.0
C649 C 0.14955 0.54438 0.97162 0.0
C650 C 0.18367 0.6482 0.95915 0.0
C651 C 0.17496 0.66119 0.94068 0.0
C652 C 0.1401 0.64936 0.93181 0.0
C653 C 0.11417 0.62483 0.94189 0.0
C654 C 0.12285 0.61196 0.96018 0.0
H655 H 0.15699 0.51957 0.97472 0.0
H656 H 0.12058 0.53639 0.96784 0.0
H657 H 0.16328 0.5553 0.95779 0.0
H658 H 0.21062 0.65751 0.96578 0.0
H659 H 0.19545 0.68012 0.93327 0.0
H660 H 0.50168 0.9832 0.44082 0.0
H661 H 0.51213 0.98849 0.40378 0.0
H662 H 0.62095 0.0485 0.41998 0.0
H663 H 0.61053 0.04298 0.45703 0.0
H664 H 0.53308 0.05115 0.38491 0.0
H665 H 0.63044 0.97196 0.37397 0.0
H666 H 0.60378 0.97008 0.39644 0.0
H667 H 0.64225 0.00777 0.39505 0.0
C668 C 0.52792 0.99716 0.43643 0.0
C669 C 0.55552 0.01222 0.4517 0.0
C670 C 0.53385 1.00019 0.4153 0.0
C671 C 0.56745 0.01839 0.4091 0.0
C672 C 0.59506 0.03354 0.42437 0.0
H673 H 0.60267 0.09851 0.28689 0.0
H674 H 0.60111 0.09375 0.32452 0.0
C675 C 0.58914 0.03035 0.44552 0.0
C676 C 0.57295 0.02294 0.38674 0.0
H677 H 0.62025 1.00369 0.34571 0.0
C678 C 0.55214 0.04079 0.37633 0.0
C679 C 0.59764 0.00913 0.37558 0.0
C680 C 0.61962 0.98837 0.38574 0.0
C681 C 0.55531 0.04521 0.35503 0.0
C682 C 0.58048 0.03202 0.34395 0.0
C683 C 0.60126 0.0141 0.35433 0.0
C684 C 0.58437 0.03514 0.32133 0.0
C685 C 0.53101 0.06308 0.34445 0.0
C686 C 0.57683 1.00377 0.30716 0.0
C687 C 0.57812 0.00639 0.28569 0.0
C688 C 0.58705 0.04047 0.27799 0.0
C689 C 0.59584 0.07187 0.2923 0.0
C690 C 0.59461 0.06921 0.31379 0.0
H691 H 0.50786 0.06378 0.3538 0.0
H692 H 0.54581 0.09142 0.34246 0.0
H693 H 0.52122 0.04873 0.32874 0.0
H694 H 0.56913 0.97722 0.31269 0.0
H695 H 0.57183 0.9817 0.2751 0.0
H696 H 0.54413 0.47351 0.77053 0.0
H697 H 0.53724 0.47231 0.73242 0.0
H698 H 0.63089 0.56292 0.73373 0.0
H699 H 0.63719 0.56492 0.77169 0.0
H700 H 0.57849 0.57122 0.70863 0.0
H701 H 0.59593 0.43406 0.69036 0.0
H702 H 0.56018 0.43534 0.70685 0.0
H703 H 0.60502 0.45811 0.71621 0.0
C704 C 0.5632 0.49308 0.76262 0.0
C705 C 0.59133 0.51912 0.77397 0.0
C706 C 0.55935 0.49229 0.74088 0.0
C707 C 0.58389 0.51717 0.7302 0.0
C708 C 0.6117 0.54342 0.74163 0.0
H709 H 0.63176 0.5001 0.60089 0.0
H710 H 0.63072 0.50385 0.63899 0.0
C711 C 0.61534 0.54445 0.7633 0.0
C712 C 0.58104 0.5161 0.70711 0.0
H713 H 0.58241 0.46301 0.66184 0.0
C714 C 0.57925 0.54754 0.69837 0.0
C715 C 0.58247 0.48531 0.69379 0.0
C716 C 0.58634 0.45139 0.70223 0.0
C717 C 0.57927 0.5492 0.67668 0.0
C718 C 0.58021 0.51825 0.66335 0.0
C719 C 0.58153 0.48667 0.67209 0.0
C720 C 0.58145 0.5183 0.64035 0.0
C721 C 0.57958 0.58448 0.66833 0.0
C722 C 0.55428 0.52553 0.62845 0.0
C723 C 0.55506 0.5238 0.60666 0.0
C724 C 0.5827 0.51417 0.59643 0.0
C725 C 0.61003 0.50735 0.60839 0.0
C726 C 0.60944 0.50946 0.63013 0.0
H727 H 0.58834 0.60779 0.68063 0.0
H728 H 0.59728 0.58968 0.65515 0.0
H729 H 0.5524 0.58309 0.66254 0.0
H730 H 0.53203 0.53162 0.63594 0.0
H731 H 0.53344 0.5287 0.59776 0.0
H732 H 0.62321 0.97526 0.57074 0.0
H733 H 0.61035 0.96668 0.60715 0.0
H734 H 0.55138 0.04567 0.60812 0.0
H735 H 0.56299 0.05315 0.57139 0.0
H736 H 0.63168 0.01455 0.63939 0.0
H737 H 0.48546 0.96907 0.63684 0.0
H738 H 0.50997 0.97048 0.6135 0.0
H739 H 0.50127 0.0109 0.62559 0.0
C740 C 0.60703 0.99035 0.57866 0.0
C741 C 0.59414 0.01492 0.56835 0.0
C742 C 0.59969 0.98543 0.59944 0.0
C743 C 0.57955 1.0052 0.61036 0.0
C744 C 0.56617 0.02937 0.59992 0.0
H745 H 0.59861 0.06953 0.7422 0.0
H746 H 0.60247 0.0629 0.70442 0.0
C747 C 0.57307 0.03389 0.579 0.0
C748 C 0.57537 1.00288 0.63308 0.0
H749 H 0.51484 0.99205 0.67068 0.0
C750 C 0.60604 0.00917 0.64617 0.0
C751 C 0.54194 0.9953 0.64196 0.0
C752 C 0.50779 0.98566 0.6287 0.0
C753 C 0.60436 0.00929 0.66789 0.0
C754 C 0.57118 1.00415 0.67688 0.0
C755 C 0.54033 0.99651 0.66379 0.0
C756 C 0.56816 0.00798 0.69984 0.0
C757 C 0.63822 0.01479 0.68095 0.0
C758 C 0.5466 0.97972 0.7098 0.0
C759 C 0.54367 0.98373 0.73146 0.0
C760 C 0.56218 0.01614 0.74352 0.0
C761 C 0.58364 0.04436 0.73341 0.0
C762 C 0.58631 0.04043 0.71181 0.0
H763 H 0.65846 0.00619 0.67172 0.0
H764 H 0.64926 0.04401 0.6864 0.0
H765 H 0.63356 0.99945 0.69484 0.0
H766 H 0.53212 0.95454 0.70082 0.0
H767 H 0.52651 0.96166 0.7387 0.0
H768 H 0.59373 0.54845 0.8918 0.0
H769 H 0.60344 0.55287 0.92983 0.0
H770 H 0.51417 0.45894 0.93212 0.0
H771 H 0.50429 0.45433 0.89404 0.0
H772 H 0.51551 0.52244 0.96088 0.0
H773 H 0.64134 0.484 0.96456 0.0
H774 H 0.6399 0.51829 0.94779 0.0
H775 H 0.61167 0.47303 0.94148 0.0
C776 C 0.57627 0.52866 0.90041 0.0
C777 C 0.5482 0.50109 0.89004 0.0
C778 C 0.58199 0.5311 0.92209 0.0
C779 C 0.55974 0.506 0.9337 0.0
C780 C 0.53171 0.47843 0.92337 0.0
H781 H 0.53573 0.48631 0.06606 0.0
H782 H 0.52958 0.47862 0.02787 0.0
C783 C 0.5261 0.47584 0.90167 0.0
C784 C 0.56477 0.5095 0.95673 0.0
H785 H 0.62183 0.50497 -0.00343 0.0
C786 C 0.53864 0.51846 0.96873 0.0
C787 C 0.59515 0.50459 0.96682 0.0
C788 C 0.62358 0.49418 0.95457 0.0
C789 C 0.54229 0.52315 0.99063 0.0
C790 C 0.57248 0.5178 0.00078 0.0
C791 C 0.59869 0.50896 0.98875 0.0
C792 C 0.57722 0.52122 0.02388 0.0
C793 C 0.51419 0.5347 0.00266 0.0
C794 C 0.6068 0.5467 0.03428 0.0
C795 C 0.61054 0.55092 0.05612 0.0
C796 C 0.58472 0.52971 0.0679 0.0
C797 C 0.55569 0.50348 0.0574 0.0
C798 C 0.5521 0.49913 0.03559 0.0
H799 H 0.4986 0.54748 0.99276 0.0
H800 H 0.4956 0.51053 0.00817 0.0
H801 H 0.52605 0.55413 0.01651 0.0
H802 H 0.62659 0.56387 0.02551 0.0
H803 H 0.6331 0.57143 0.0638 0.0
H804 H 0.16341 0.62702 0.21526 0.0
H805 H 0.1558 0.61791 0.2521 0.0
H806 H 0.0928 0.50781 0.23442 0.0
H807 H 0.10084 0.51683 0.19747 0.0
H808 H 0.09358 0.6017 0.27116 0.0
H809 H 0.16125 0.4951 0.27969 0.0
H810 H 0.16646 0.52108 0.25752 0.0
H811 H 0.12736 0.48412 0.25895 0.0
C812 C 0.14834 0.60072 0.21926 0.0
C813 C 0.13303 0.57244 0.20358 0.0
C814 C 0.14398 0.59556 0.24029 0.0
C815 C 0.1241 0.56206 0.24604 0.0
C816 C 0.10896 0.53361 0.23038 0.0
H817 H 1.03855 0.54249 0.36965 0.0
H818 H 1.04482 0.54052 0.3319 0.0
C819 C 0.11355 0.53874 0.20928 0.0
C820 C 0.11766 0.55794 0.26838 0.0
H821 H 0.13025 0.51045 0.30862 0.0
C822 C 0.10156 0.58172 0.27935 0.0
C823 C 0.12834 0.53203 0.27905 0.0
C824 C 0.14711 0.50681 0.26829 0.0
C825 C 0.09607 0.58052 0.30073 0.0
C826 C 0.1062 0.55423 0.31134 0.0
C827 C 0.1222 0.53033 0.30038 0.0
C828 C 0.1019 0.55234 0.33405 0.0
C829 C 0.08047 0.60818 0.31189 0.0
C830 C 0.13177 0.5582 0.34771 0.0
C831 C 0.12824 0.5588 0.36926 0.0
C832 C 0.09473 0.55353 0.37759 0.0
C833 C 1.06472 0.5465 0.36378 0.0
C834 C 0.06828 0.54575 0.34221 0.0
H835 H 0.08241 0.63168 0.30283 0.0
H836 H 1.05204 0.5954 0.31404 0.0
H837 H 0.09398 0.61831 0.32754 0.0
H838 H 0.15793 0.56309 0.34171 0.0
H839 H 0.15181 0.56356 0.37942 0.0
loop_
_geom_bond_atom_site_label_1
_geom_bond_atom_site_label_2
_geom_bond_distance
_geom_bond_site_symmetry_2
_ccdc_geom_bond_type
Nd0 C2 2.836 . S
Nd0 O20 2.500 . S
Nd0 O21 2.492 . S
Nd0 O22 2.487 . S
Nd0 O23 2.682 . S
Nd0 O24 2.410 . S
Nd0 O29 2.414 . S
Nd0 O31 2.424 . S
Nd1 C11 2.836 1_455 S
Nd1 O23 2.414 . S
Nd1 O25 2.424 . S
Nd1 O26 2.500 1_455 S
Nd1 O27 2.492 1_455 S
Nd1 O28 2.487 . S
Nd1 O29 2.682 . S
Nd1 O30 2.410 1_455 S
C2 Nd0 2.836 . S
C2 C3 1.498 . S
C2 O20 1.258 . S
C2 O21 1.239 . S
C3 C2 1.498 . S
C3 C4 1.366 . S
C3 C8 1.407 . S
C4 C3 1.366 . S
C4 C5 1.392 . S
C4 H32 0.930 . S
C5 C4 1.392 . S
C5 C6 1.398 . S
C5 H33 0.929 . S
C6 C5 1.398 . S
C6 C7 1.352 . S
C7 C6 1.352 . S
C7 C8 1.384 . S
C7 H34 0.930 . S
C8 C3 1.407 . S
C8 C7 1.384 . S
C8 H35 0.929 . S
C9 O22 1.241 . S
C9 O23 1.273 . S
C10 O24 1.251 . S
C10 O25 1.268 . S
C11 Nd1 2.836 1_655 S
C11 C12 1.498 . S
C11 O26 1.258 . S
C11 O27 1.239 . S
C12 C11 1.498 . S
C12 C13 1.366 . S
C12 C17 1.407 . S
C13 C12 1.366 . S
C13 C14 1.392 . S
C13 H36 0.930 . S
C14 C13 1.392 . S
C14 C15 1.398 . S
C14 H37 0.929 . S
C15 C14 1.398 . S
C15 C16 1.352 . S
C16 C15 1.352 . S
C16 C17 1.384 . S
C16 H38 0.930 . S
C17 C12 1.407 . S
C17 C16 1.384 . S
C17 H39 0.929 . S
C18 O28 1.241 . S
C18 O29 1.273 . S
C19 O30 1.251 . S
C19 O31 1.268 1_655 S
O20 Nd0 2.500 . S
O20 C2 1.258 . S
O21 Nd0 2.492 . S
O21 C2 1.239 . S
O22 Nd0 2.487 . S
O22 C9 1.241 . S
O23 Nd0 2.682 . S
O23 Nd1 2.414 . S
O23 C9 1.273 . S
O24 Nd0 2.410 . S
O24 C10 1.251 . S
O25 Nd1 2.424 . S
O25 C10 1.268 . S
O26 Nd1 2.500 1_655 S
O26 C11 1.258 . S
O27 Nd1 2.492 1_655 S
O27 C11 1.239 . S
O28 Nd1 2.487 . S
O28 C18 1.241 . S
O29 Nd0 2.414 . S
O29 Nd1 2.682 . S
O29 C18 1.273 . S
O30 Nd1 2.410 1_655 S
O30 C19 1.251 . S
O31 Nd0 2.424 . S
O31 C19 1.268 1_455 S
H32 C4 0.930 . S
H33 C5 0.929 . S
H34 C7 0.930 . S
H35 C8 0.929 . S
H36 C13 0.930 . S
H37 C14 0.929 . S
H38 C16 0.930 . S
H39 C17 0.929 . S
Nd40 C42 2.836 1_545 S
Nd40 O60 2.500 1_545 S
Nd40 O61 2.492 1_545 S
Nd40 O62 2.487 . S
Nd40 O63 2.682 . S
Nd40 O64 2.410 1_545 S
Nd40 O69 2.414 . S
Nd40 O71 2.424 . S
Nd41 C51 2.836 . S
Nd41 O63 2.414 . S
Nd41 O65 2.424 1_545 S
Nd41 O66 2.500 . S
Nd41 O67 2.492 . S
Nd41 O68 2.487 . S
Nd41 O69 2.682 . S
Nd41 O70 2.410 . S
C42 Nd40 2.836 1_565 S
C42 C43 1.498 . S
C42 O60 1.258 . S
C42 O61 1.239 . S
C43 C42 1.498 . S
C43 C44 1.366 . S
C43 C48 1.407 . S
C44 C43 1.366 . S
C44 C45 1.392 . S
C44 H72 0.930 . S
C45 C44 1.392 . S
C45 C46 1.398 . S
C45 H73 0.929 . S
C46 C45 1.398 . S
C46 C47 1.352 . S
C47 C46 1.352 . S
C47 C48 1.384 . S
C47 H74 0.930 . S
C48 C43 1.407 . S
C48 C47 1.384 . S
C48 H75 0.929 . S
C49 O62 1.241 . S
C49 O63 1.273 . S
C50 O64 1.251 . S
C50 O65 1.268 . S
C51 Nd41 2.836 . S
C51 C52 1.498 . S
C51 O66 1.258 . S
C51 O67 1.239 . S
C52 C51 1.498 . S
C52 C53 1.366 . S
C52 C57 1.407 . S
C53 C52 1.366 . S
C53 C54 1.392 . S
C53 H76 0.930 . S
C54 C53 1.392 . S
C54 C55 1.398 . S
C54 H77 0.929 . S
C55 C54 1.398 . S
C55 C56 1.352 . S
C56 C55 1.352 . S
C56 C57 1.384 . S
C56 H78 0.930 . S
C57 C52 1.407 . S
C57 C56 1.384 . S
C57 H79 0.929 . S
C58 O68 1.241 . S
C58 O69 1.273 . S
C59 O70 1.251 . S
C59 O71 1.268 . S
O60 Nd40 2.500 1_565 S
O60 C42 1.258 . S
O61 Nd40 2.492 1_565 S
O61 C42 1.239 . S
O62 Nd40 2.487 . S
O62 C49 1.241 . S
O63 Nd40 2.682 . S
O63 Nd41 2.414 . S
O63 C49 1.273 . S
O64 Nd40 2.410 1_565 S
O64 C50 1.251 . S
O65 Nd41 2.424 1_565 S
O65 C50 1.268 . S
O66 Nd41 2.500 . S
O66 C51 1.258 . S
O67 Nd41 2.492 . S
O67 C51 1.239 . S
O68 Nd41 2.487 . S
O68 C58 1.241 . S
O69 Nd40 2.414 . S
O69 Nd41 2.682 . S
O69 C58 1.273 . S
O70 Nd41 2.410 . S
O70 C59 1.251 . S
O71 Nd40 2.424 . S
O71 C59 1.268 . S
H72 C44 0.930 . S
H73 C45 0.929 . S
H74 C47 0.930 . S
H75 C48 0.929 . S
H76 C53 0.930 . S
H77 C54 0.929 . S
H78 C56 0.930 . S
H79 C57 0.929 . S
Nd80 C82 2.836 . S
Nd80 O100 2.500 . S
Nd80 O101 2.492 . S
Nd80 O102 2.487 . S
Nd80 O103 2.682 . S
Nd80 O104 2.410 . S
Nd80 O109 2.414 . S
Nd80 O111 2.424 . S
Nd81 C91 2.836 . S
Nd81 O103 2.414 . S
Nd81 O105 2.424 . S
Nd81 O106 2.500 . S
Nd81 O107 2.492 . S
Nd81 O108 2.487 . S
Nd81 O109 2.682 . S
Nd81 O110 2.410 . S
C82 Nd80 2.836 . S
C82 C83 1.498 . S
C82 O100 1.258 . S
C82 O101 1.239 . S
C83 C82 1.498 . S
C83 C84 1.366 . S
C83 C88 1.407 . S
C84 C83 1.366 . S
C84 C85 1.392 . S
C84 H112 0.930 . S
C85 C84 1.392 . S
C85 C86 1.398 . S
C85 H113 0.929 . S
C86 C85 1.398 . S
C86 C87 1.352 . S
C87 C86 1.352 . S
C87 C88 1.384 . S
C87 H114 0.930 . S
C88 C83 1.407 . S
C88 C87 1.384 . S
C88 H115 0.929 . S
C89 O102 1.241 . S
C89 O103 1.273 . S
C90 O104 1.251 . S
C90 O105 1.268 . S
C91 Nd81 2.836 . S
C91 C92 1.498 . S
C91 O106 1.258 . S
C91 O107 1.239 . S
C92 C91 1.498 . S
C92 C93 1.366 . S
C92 C97 1.407 . S
C93 C92 1.366 . S
C93 C94 1.392 . S
C93 H116 0.930 . S
C94 C93 1.392 . S
C94 C95 1.398 . S
C94 H117 0.929 . S
C95 C94 1.398 . S
C95 C96 1.352 . S
C96 C95 1.352 . S
C96 C97 1.384 . S
C96 H118 0.930 . S
C97 C92 1.407 . S
C97 C96 1.384 . S
C97 H119 0.929 . S
C98 O108 1.241 . S
C98 O109 1.273 . S
C99 O110 1.251 . S
C99 O111 1.268 . S
O100 Nd80 2.500 . S
O100 C82 1.258 . S
O101 Nd80 2.492 . S
O101 C82 1.239 . S
O102 Nd80 2.487 . S
O102 C89 1.241 . S
O103 Nd80 2.682 . S
O103 Nd81 2.414 . S
O103 C89 1.273 . S
O104 Nd80 2.410 . S
O104 C90 1.251 . S
O105 Nd81 2.424 . S
O105 C90 1.268 . S
O106 Nd81 2.500 . S
O106 C91 1.258 . S
O107 Nd81 2.492 . S
O107 C91 1.239 . S
O108 Nd81 2.487 . S
O108 C98 1.241 . S
O109 Nd80 2.414 . S
O109 Nd81 2.682 . S
O109 C98 1.273 . S
O110 Nd81 2.410 . S
O110 C99 1.251 . S
O111 Nd80 2.424 . S
O111 C99 1.268 . S
H112 C84 0.930 . S
H113 C85 0.929 . S
H114 C87 0.930 . S
H115 C88 0.929 . S
H116 C93 0.930 . S
H117 C94 0.929 . S
H118 C96 0.930 . S
H119 C97 0.929 . S
H120 C125 0.930 . S
H121 C128 0.930 . S
H122 C130 0.930 . S
H123 C124 1.016 . S
C124 H123 1.016 . S
C124 N131 1.286 . S
C125 H120 0.930 . S
C125 C126 1.397 . S
C125 C127 1.361 . S
C126 C125 1.397 . S
C126 C130 1.390 . S
C127 C125 1.361 . S
C127 C128 1.393 . S
C127 N131 1.413 . S
C128 H121 0.930 . S
C128 C127 1.393 . S
C128 C129 1.399 . S
C129 C128 1.399 . S
C129 C130 1.381 . S
C130 H122 0.930 . S
C130 C126 1.390 . S
C130 C129 1.381 . S
N131 C124 1.286 . S
N131 C127 1.413 . S
H132 C137 0.930 . S
H133 C140 0.930 . S
H134 C142 0.930 . S
H135 C136 1.016 . S
C136 H135 1.016 . S
C136 N143 1.286 . S
C137 H132 0.930 . S
C137 C138 1.397 . S
C137 C139 1.361 . S
C138 C137 1.397 . S
C138 C142 1.390 . S
C139 C137 1.361 . S
C139 C140 1.393 . S
C139 N143 1.413 . S
C140 H133 0.930 . S
C140 C139 1.393 . S
C140 C141 1.399 . S
C141 C140 1.399 . S
C141 C142 1.381 . S
C142 H134 0.930 . S
C142 C138 1.390 . S
C142 C141 1.381 . S
N143 C136 1.286 . S
N143 C139 1.413 . S
H144 C149 0.930 . S
H145 C152 0.930 . S
H146 C154 0.930 . S
H147 C148 1.016 . S
C148 H147 1.016 . S
C148 N155 1.286 . S
C149 H144 0.930 . S
C149 C150 1.397 . S
C149 C151 1.361 . S
C150 C149 1.397 . S
C150 C154 1.390 . S
C151 C149 1.361 . S
C151 C152 1.393 . S
C151 N155 1.413 . S
C152 H145 0.930 . S
C152 C151 1.393 . S
C152 C153 1.399 . S
C153 C152 1.399 . S
C153 C154 1.381 . S
C154 H146 0.930 . S
C154 C150 1.390 . S
C154 C153 1.381 . S
N155 C148 1.286 . S
N155 C151 1.413 . S
H156 C161 0.930 . S
H157 C164 0.930 . S
H158 C166 0.930 . S
H159 C160 1.016 . S
C160 H159 1.016 . S
C160 N167 1.286 . S
C161 H156 0.930 . S
C161 C162 1.397 . S
C161 C163 1.361 1_455 S
C162 C161 1.397 . S
C162 C166 1.390 . S
C163 C161 1.361 1_655 S
C163 C164 1.393 . S
C163 N167 1.413 . S
C164 H157 0.930 . S
C164 C163 1.393 . S
C164 C165 1.399 1_655 S
C165 C164 1.399 1_455 S
C165 C166 1.381 . S
C166 H158 0.930 . S
C166 C162 1.390 . S
C166 C165 1.381 . S
N167 C160 1.286 . S
N167 C163 1.413 . S
H168 C173 0.930 . S
H169 C176 0.930 . S
H170 C178 0.930 . S
H171 C172 1.016 . S
C172 H171 1.016 . S
C172 N179 1.286 . S
C173 H168 0.930 . S
C173 C174 1.397 . S
C173 C175 1.361 . S
C174 C173 1.397 . S
C174 C178 1.390 . S
C175 C173 1.361 . S
C175 C176 1.393 1_545 S
C175 N179 1.413 1_545 S
C176 H169 0.930 . S
C176 C175 1.393 1_565 S
C176 C177 1.399 1_565 S
C177 C176 1.399 1_545 S
C177 C178 1.381 . S
C178 H170 0.930 . S
C178 C174 1.390 . S
C178 C177 1.381 . S
N179 C172 1.286 . S
N179 C175 1.413 1_565 S
H180 C185 0.930 . S
H181 C188 0.930 . S
H182 C190 0.930 . S
H183 C184 1.016 . S
C184 H183 1.016 . S
C184 N191 1.286 . S
C185 H180 0.930 . S
C185 C186 1.397 . S
C185 C187 1.361 . S
C186 C185 1.397 . S
C186 C190 1.390 . S
C187 C185 1.361 . S
C187 C188 1.393 . S
C187 N191 1.413 . S
C188 H181 0.930 . S
C188 C187 1.393 . S
C188 C189 1.399 . S
C189 C188 1.399 . S
C189 C190 1.381 . S
C190 H182 0.930 . S
C190 C186 1.390 . S
C190 C189 1.381 . S
N191 C184 1.286 . S
N191 C187 1.413 . S
H192 C200 0.929 . S
H193 C202 0.930 . S
H194 C204 0.930 . S
H195 C207 0.929 . S
H196 C210 0.930 . S
H197 C212 0.960 . S
H198 C212 0.960 . S
H199 C212 0.960 . S
C200 H192 0.929 . S
C200 C201 1.377 . S
C200 C202 1.384 . S
C201 C200 1.377 . S
C201 C207 1.390 . S
C202 H193 0.930 . S
C202 C200 1.384 . S
C202 C203 1.372 . S
C203 C202 1.372 . S
C203 C204 1.400 . S
C203 C208 1.490 . S
C204 H194 0.930 . S
C204 C203 1.400 . S
C204 C207 1.386 . S
H205 C221 0.930 . S
H206 C222 0.931 . S
C207 H195 0.929 . S
C207 C201 1.390 . S
C207 C204 1.386 . S
C208 C203 1.490 . S
C208 C210 1.395 . S
C208 C211 1.403 . S
H209 C215 0.930 . S
C210 H196 0.930 . S
C210 C208 1.395 . S
C210 C213 1.403 . S
C211 C208 1.403 . S
C211 C212 1.524 . S
C211 C215 1.400 . S
C212 H197 0.960 . S
C212 H198 0.960 . S
C212 H199 0.960 . S
C212 C211 1.524 . S
C213 C210 1.403 . S
C213 C214 1.392 . S
C213 C217 1.495 . S
C214 C213 1.392 . S
C214 C215 1.385 . S
C214 C216 1.478 . S
C215 H209 0.930 . S
C215 C211 1.400 . S
C215 C214 1.385 . S
C216 C214 1.478 . S
C216 C218 1.381 . S
C216 C222 1.383 . S
C217 C213 1.495 . S
C217 H223 0.959 . S
C217 H224 0.961 . S
C217 H225 0.960 . S
C218 C216 1.381 . S
C218 C219 1.394 . S
C218 H226 0.930 . S
C219 C218 1.394 . S
C219 C220 1.383 . S
C219 H227 0.929 . S
C220 C219 1.383 . S
C220 C221 1.377 . S
C221 H205 0.930 . S
C221 C220 1.377 . S
C221 C222 1.379 . S
C222 H206 0.931 . S
C222 C216 1.383 . S
C222 C221 1.379 . S
H223 C217 0.959 . S
H224 C217 0.961 . S
H225 C217 0.960 . S
H226 C218 0.930 . S
H227 C219 0.929 . S
H228 C236 0.929 . S
H229 C238 0.930 . S
H230 C240 0.930 . S
H231 C243 0.929 . S
H232 C246 0.930 . S
H233 C248 0.960 . S
H234 C248 0.960 . S
H235 C248 0.960 . S
C236 H228 0.929 . S
C236 C237 1.377 . S
C236 C238 1.384 . S
C237 C236 1.377 . S
C237 C243 1.390 . S
C238 H229 0.930 . S
C238 C236 1.384 . S
C238 C239 1.372 . S
C239 C238 1.372 . S
C239 C240 1.400 . S
C239 C244 1.490 . S
C240 H230 0.930 . S
C240 C239 1.400 . S
C240 C243 1.386 . S
H241 C257 0.930 . S
H242 C258 0.931 . S
C243 H231 0.929 . S
C243 C237 1.390 . S
C243 C240 1.386 . S
C244 C239 1.490 . S
C244 C246 1.395 . S
C244 C247 1.403 . S
H245 C251 0.930 . S
C246 H232 0.930 . S
C246 C244 1.395 . S
C246 C249 1.403 . S
C247 C244 1.403 . S
C247 C248 1.524 . S
C247 C251 1.400 . S
C248 H233 0.960 . S
C248 H234 0.960 . S
C248 H235 0.960 . S
C248 C247 1.524 . S
C249 C246 1.403 . S
C249 C250 1.392 . S
C249 C253 1.495 . S
C250 C249 1.392 . S
C250 C251 1.385 . S
C250 C252 1.478 . S
C251 H245 0.930 . S
C251 C247 1.400 . S
C251 C250 1.385 . S
C252 C250 1.478 . S
C252 C254 1.381 . S
C252 C258 1.383 . S
C253 C249 1.495 . S
C253 H259 0.959 . S
C253 H260 0.961 . S
C253 H261 0.960 . S
C254 C252 1.381 . S
C254 C255 1.394 . S
C254 H262 0.930 . S
C255 C254 1.394 . S
C255 C256 1.383 . S
C255 H263 0.929 . S
C256 C255 1.383 . S
C256 C257 1.377 . S
C257 H241 0.930 . S
C257 C256 1.377 . S
C257 C258 1.379 . S
C258 H242 0.931 . S
C258 C252 1.383 . S
C258 C257 1.379 . S
H259 C253 0.959 . S
H260 C253 0.961 . S
H261 C253 0.960 . S
H262 C254 0.930 . S
H263 C255 0.929 . S
H264 C272 0.929 . S
H265 C274 0.930 . S
H266 C276 0.930 . S
H267 C279 0.929 . S
H268 C282 0.930 . S
H269 C284 0.960 . S
H270 C284 0.960 . S
H271 C284 0.960 . S
C272 H264 0.929 . S
C272 C273 1.377 . S
C272 C274 1.384 . S
C273 C272 1.377 . S
C273 C279 1.390 . S
C274 H265 0.930 . S
C274 C272 1.384 . S
C274 C275 1.372 . S
C275 C274 1.372 . S
C275 C276 1.400 . S
C275 C280 1.490 . S
C276 H266 0.930 . S
C276 C275 1.400 . S
C276 C279 1.386 . S
H277 C293 0.930 . S
H278 C294 0.931 . S
C279 H267 0.929 . S
C279 C273 1.390 . S
C279 C276 1.386 . S
C280 C275 1.490 . S
C280 C282 1.395 . S
C280 C283 1.403 . S
H281 C287 0.930 . S
C282 H268 0.930 . S
C282 C280 1.395 . S
C282 C285 1.403 . S
C283 C280 1.403 . S
C283 C284 1.524 . S
C283 C287 1.400 . S
C284 H269 0.960 . S
C284 H270 0.960 . S
C284 H271 0.960 . S
C284 C283 1.524 . S
C285 C282 1.403 . S
C285 C286 1.392 . S
C285 C289 1.495 . S
C286 C285 1.392 . S
C286 C287 1.385 . S
C286 C288 1.478 . S
C287 H281 0.930 . S
C287 C283 1.400 . S
C287 C286 1.385 . S
C288 C286 1.478 . S
C288 C290 1.381 . S
C288 C294 1.383 . S
C289 C285 1.495 . S
C289 H295 0.959 . S
C289 H296 0.961 . S
C289 H297 0.960 . S
C290 C288 1.381 . S
C290 C291 1.394 . S
C290 H298 0.930 . S
C291 C290 1.394 . S
C291 C292 1.383 . S
C291 H299 0.929 . S
C292 C291 1.383 . S
C292 C293 1.377 . S
C293 H277 0.930 . S
C293 C292 1.377 . S
C293 C294 1.379 . S
C294 H278 0.931 . S
C294 C288 1.383 . S
C294 C293 1.379 . S
H295 C289 0.959 . S
H296 C289 0.961 . S
H297 C289 0.960 . S
H298 C290 0.930 . S
H299 C291 0.929 . S
H300 C308 0.929 . S
H301 C310 0.930 . S
H302 C312 0.930 . S
H303 C315 0.929 . S
H304 C318 0.930 . S
H305 C320 0.960 . S
H306 C320 0.960 . S
H307 C320 0.960 . S
C308 H300 0.929 . S
C308 C309 1.377 . S
C308 C310 1.384 . S
C309 C308 1.377 . S
C309 C315 1.390 . S
C310 H301 0.930 . S
C310 C308 1.384 . S
C310 C311 1.372 . S
C311 C310 1.372 . S
C311 C312 1.400 . S
C311 C316 1.490 . S
C312 H302 0.930 . S
C312 C311 1.400 . S
C312 C315 1.386 . S
H313 C329 0.930 . S
H314 C330 0.931 . S
C315 H303 0.929 . S
C315 C309 1.390 . S
C315 C312 1.386 . S
C316 C311 1.490 . S
C316 C318 1.395 . S
C316 C319 1.403 . S
H317 C323 0.930 . S
C318 H304 0.930 . S
C318 C316 1.395 . S
C318 C321 1.403 . S
C319 C316 1.403 . S
C319 C320 1.524 . S
C319 C323 1.400 . S
C320 H305 0.960 . S
C320 H306 0.960 . S
C320 H307 0.960 . S
C320 C319 1.524 . S
C321 C318 1.403 . S
C321 C322 1.392 . S
C321 C325 1.495 . S
C322 C321 1.392 . S
C322 C323 1.385 . S
C322 C324 1.478 . S
C323 H317 0.930 . S
C323 C319 1.400 . S
C323 C322 1.385 . S
C324 C322 1.478 . S
C324 C326 1.381 . S
C324 C330 1.383 . S
C325 C321 1.495 . S
C325 H331 0.959 . S
C325 H332 0.961 . S
C325 H333 0.960 . S
C326 C324 1.381 . S
C326 C327 1.394 . S
C326 H334 0.930 . S
C327 C326 1.394 . S
C327 C328 1.383 . S
C327 H335 0.929 . S
C328 C327 1.383 . S
C328 C329 1.377 . S
C329 H313 0.930 . S
C329 C328 1.377 . S
C329 C330 1.379 . S
C330 H314 0.931 . S
C330 C324 1.383 . S
C330 C329 1.379 . S
H331 C325 0.959 . S
H332 C325 0.961 . S
H333 C325 0.960 . S
H334 C326 0.930 . S
H335 C327 0.929 . S
H336 C344 0.929 . S
H337 C346 0.930 . S
H338 C348 0.930 . S
H339 C351 0.929 . S
H340 C354 0.930 . S
H341 C356 0.960 . S
H342 C356 0.960 . S
H343 C356 0.960 . S
C344 H336 0.929 . S
C344 C345 1.377 . S
C344 C346 1.384 . S
C345 C344 1.377 . S
C345 C351 1.390 . S
C346 H337 0.930 . S
C346 C344 1.384 . S
C346 C347 1.372 . S
C347 C346 1.372 . S
C347 C348 1.400 . S
C347 C352 1.490 . S
C348 H338 0.930 . S
C348 C347 1.400 . S
C348 C351 1.386 . S
H349 C365 0.930 . S
H350 C366 0.931 . S
C351 H339 0.929 . S
C351 C345 1.390 . S
C351 C348 1.386 . S
C352 C347 1.490 . S
C352 C354 1.395 . S
C352 C355 1.403 . S
H353 C359 0.930 . S
C354 H340 0.930 . S
C354 C352 1.395 . S
C354 C357 1.403 . S
C355 C352 1.403 . S
C355 C356 1.524 . S
C355 C359 1.400 . S
C356 H341 0.960 . S
C356 H342 0.960 . S
C356 H343 0.960 . S
C356 C355 1.524 . S
C357 C354 1.403 . S
C357 C358 1.392 . S
C357 C361 1.495 . S
C358 C357 1.392 . S
C358 C359 1.385 . S
C358 C360 1.478 . S
C359 H353 0.930 . S
C359 C355 1.400 . S
C359 C358 1.385 . S
C360 C358 1.478 . S
C360 C362 1.381 . S
C360 C366 1.383 . S
C361 C357 1.495 . S
C361 H367 0.959 . S
C361 H368 0.961 . S
C361 H369 0.960 . S
C362 C360 1.381 . S
C362 C363 1.394 . S
C362 H370 0.930 . S
C363 C362 1.394 . S
C363 C364 1.383 . S
C363 H371 0.929 . S
C364 C363 1.383 . S
C364 C365 1.377 . S
C365 H349 0.930 . S
C365 C364 1.377 . S
C365 C366 1.379 . S
C366 H350 0.931 . S
C366 C360 1.383 . S
C366 C365 1.379 . S
H367 C361 0.959 . S
H368 C361 0.961 . S
H369 C361 0.960 . S
H370 C362 0.930 . S
H371 C363 0.929 . S
H372 C380 0.929 . S
H373 C382 0.930 . S
H374 C384 0.930 . S
H375 C387 0.929 . S
H376 C390 0.930 . S
H377 C392 0.960 . S
H378 C392 0.960 . S
H379 C392 0.960 . S
C380 H372 0.929 . S
C380 C381 1.377 . S
C380 C382 1.384 . S
C381 C380 1.377 . S
C381 C387 1.390 . S
C382 H373 0.930 . S
C382 C380 1.384 . S
C382 C383 1.372 . S
C383 C382 1.372 . S
C383 C384 1.400 . S
C383 C388 1.490 . S
C384 H374 0.930 . S
C384 C383 1.400 . S
C384 C387 1.386 . S
H385 C401 0.930 . S
H386 C402 0.931 . S
C387 H375 0.929 . S
C387 C381 1.390 . S
C387 C384 1.386 . S
C388 C383 1.490 . S
C388 C390 1.395 . S
C388 C391 1.403 . S
H389 C395 0.930 . S
C390 H376 0.930 . S
C390 C388 1.395 . S
C390 C393 1.403 . S
C391 C388 1.403 . S
C391 C392 1.524 . S
C391 C395 1.400 . S
C392 H377 0.960 . S
C392 H378 0.960 . S
C392 H379 0.960 . S
C392 C391 1.524 . S
C393 C390 1.403 . S
C393 C394 1.392 . S
C393 C397 1.495 . S
C394 C393 1.392 . S
C394 C395 1.385 . S
C394 C396 1.478 . S
C395 H389 0.930 . S
C395 C391 1.400 . S
C395 C394 1.385 . S
C396 C394 1.478 . S
C396 C398 1.381 . S
C396 C402 1.383 . S
C397 C393 1.495 . S
C397 H403 0.959 . S
C397 H404 0.961 . S
C397 H405 0.960 . S
C398 C396 1.381 . S
C398 C399 1.394 . S
C398 H406 0.930 . S
C399 C398 1.394 . S
C399 C400 1.383 . S
C399 H407 0.929 . S
C400 C399 1.383 . S
C400 C401 1.377 . S
C401 H385 0.930 . S
C401 C400 1.377 . S
C401 C402 1.379 . S
C402 H386 0.931 . S
C402 C396 1.383 . S
C402 C401 1.379 . S
H403 C397 0.959 . S
H404 C397 0.961 . S
H405 C397 0.960 . S
H406 C398 0.930 . S
H407 C399 0.929 . S
H408 C416 0.929 . S
H409 C418 0.930 . S
H410 C420 0.930 . S
H411 C423 0.929 . S
H412 C426 0.930 . S
H413 C428 0.960 . S
H414 C428 0.960 . S
H415 C428 0.960 . S
C416 H408 0.929 . S
C416 C417 1.377 . S
C416 C418 1.384 . S
C417 C416 1.377 . S
C417 C423 1.390 . S
C418 H409 0.930 . S
C418 C416 1.384 . S
C418 C419 1.372 . S
C419 C418 1.372 . S
C419 C420 1.400 . S
C419 C424 1.490 . S
C420 H410 0.930 . S
C420 C419 1.400 . S
C420 C423 1.386 . S
H421 C437 0.930 . S
H422 C438 0.931 . S
C423 H411 0.929 . S
C423 C417 1.390 . S
C423 C420 1.386 . S
C424 C419 1.490 . S
C424 C426 1.395 . S
C424 C427 1.403 . S
H425 C431 0.930 . S
C426 H412 0.930 . S
C426 C424 1.395 . S
C426 C429 1.403 . S
C427 C424 1.403 . S
C427 C428 1.524 . S
C427 C431 1.400 . S
C428 H413 0.960 . S
C428 H414 0.960 . S
C428 H415 0.960 . S
C428 C427 1.524 . S
C429 C426 1.403 . S
C429 C430 1.392 . S
C429 C433 1.495 . S
C430 C429 1.392 . S
C430 C431 1.385 . S
C430 C432 1.478 . S
C431 H425 0.930 . S
C431 C427 1.400 . S
C431 C430 1.385 . S
C432 C430 1.478 . S
C432 C434 1.381 . S
C432 C438 1.383 . S
C433 C429 1.495 . S
C433 H439 0.959 . S
C433 H440 0.961 . S
C433 H441 0.960 . S
C434 C432 1.381 . S
C434 C435 1.394 . S
C434 H442 0.930 . S
C435 C434 1.394 . S
C435 C436 1.383 . S
C435 H443 0.929 . S
C436 C435 1.383 . S
C436 C437 1.377 . S
C437 H421 0.930 . S
C437 C436 1.377 . S
C437 C438 1.379 . S
C438 H422 0.931 . S
C438 C432 1.383 . S
C438 C437 1.379 . S
H439 C433 0.959 . S
H440 C433 0.961 . S
H441 C433 0.960 . S
H442 C434 0.930 . S
H443 C435 0.929 . S
H444 C452 0.929 . S
H445 C454 0.930 . S
H446 C456 0.930 . S
H447 C459 0.929 . S
H448 C462 0.930 . S
H449 C464 0.960 . S
H450 C464 0.960 . S
H451 C464 0.960 . S
C452 H444 0.929 . S
C452 C453 1.377 . S
C452 C454 1.384 . S
C453 C452 1.377 . S
C453 C459 1.390 . S
C454 H445 0.930 . S
C454 C452 1.384 . S
C454 C455 1.372 . S
C455 C454 1.372 . S
C455 C456 1.400 . S
C455 C460 1.490 . S
C456 H446 0.930 . S
C456 C455 1.400 . S
C456 C459 1.386 . S
H457 C473 0.930 . S
H458 C474 0.931 . S
C459 H447 0.929 . S
C459 C453 1.390 . S
C459 C456 1.386 . S
C460 C455 1.490 . S
C460 C462 1.395 . S
C460 C463 1.403 . S
H461 C467 0.930 . S
C462 H448 0.930 . S
C462 C460 1.395 . S
C462 C465 1.403 . S
C463 C460 1.403 . S
C463 C464 1.524 . S
C463 C467 1.400 . S
C464 H449 0.960 . S
C464 H450 0.960 . S
C464 H451 0.960 . S
C464 C463 1.524 . S
C465 C462 1.403 . S
C465 C466 1.392 . S
C465 C469 1.495 . S
C466 C465 1.392 . S
C466 C467 1.385 . S
C466 C468 1.478 . S
C467 H461 0.930 . S
C467 C463 1.400 . S
C467 C466 1.385 . S
C468 C466 1.478 . S
C468 C470 1.381 . S
C468 C474 1.383 . S
C469 C465 1.495 . S
C469 H475 0.959 . S
C469 H476 0.961 . S
C469 H477 0.960 . S
C470 C468 1.381 . S
C470 C471 1.394 . S
C470 H478 0.930 . S
C471 C470 1.394 . S
C471 C472 1.383 . S
C471 H479 0.959 . S
C472 C471 1.383 . S
C472 C473 1.377 . S
C473 H457 0.930 . S
C473 C472 1.377 . S
C473 C474 1.379 . S
C474 H458 0.931 . S
C474 C468 1.383 . S
C474 C473 1.379 . S
H475 C469 0.959 . S
H476 C469 0.961 . S
H477 C469 0.960 . S
H478 C470 0.930 . S
H479 C471 0.959 . S
H480 C488 0.929 . S
H481 C490 0.930 . S
H482 C492 0.930 . S
H483 C495 0.929 . S
H484 C498 0.930 . S
H485 C500 0.960 . S
H486 C500 0.960 . S
H487 C500 0.960 . S
C488 H480 0.929 . S
C488 C489 1.377 . S
C488 C490 1.384 . S
C489 C488 1.377 . S
C489 C495 1.390 . S
C490 H481 0.930 . S
C490 C488 1.384 . S
C490 C491 1.372 . S
C491 C490 1.372 . S
C491 C492 1.400 . S
C491 C496 1.490 . S
C492 H482 0.930 . S
C492 C491 1.400 . S
C492 C495 1.386 . S
H493 C509 0.930 . S
H494 C510 0.931 . S
C495 H483 0.929 . S
C495 C489 1.390 . S
C495 C492 1.386 . S
C496 C491 1.490 . S
C496 C498 1.395 . S
C496 C499 1.403 . S
H497 C503 0.930 . S
C498 H484 0.930 . S
C498 C496 1.395 . S
C498 C501 1.403 . S
C499 C496 1.403 . S
C499 C500 1.524 . S
C499 C503 1.400 . S
C500 H485 0.960 . S
C500 H486 0.960 . S
C500 H487 0.960 . S
C500 C499 1.524 . S
C501 C498 1.403 . S
C501 C502 1.392 . S
C501 C505 1.495 . S
C502 C501 1.392 . S
C502 C503 1.385 . S
C502 C504 1.478 . S
C503 H497 0.930 . S
C503 C499 1.400 . S
C503 C502 1.385 . S
C504 C502 1.478 . S
C504 C506 1.381 . S
C504 C510 1.383 . S
C505 C501 1.495 . S
C505 H511 0.959 . S
C505 H512 0.961 . S
C505 H513 0.960 . S
C506 C504 1.381 . S
C506 C507 1.394 1_565 S
C506 H514 0.930 . S
C507 C506 1.394 1_545 S
C507 C508 1.387 . S
C507 H515 0.929 . S
C508 C507 1.387 . S
C508 C509 1.365 1_545 S
C509 H493 0.930 . S
C509 C508 1.365 1_565 S
C509 C510 1.379 . S
C510 H494 0.931 . S
C510 C504 1.383 . S
C510 C509 1.379 . S
H511 C505 0.959 . S
H512 C505 0.961 . S
H513 C505 0.960 . S
H514 C506 0.930 . S
H515 C507 0.929 . S
H516 C524 0.929 . S
H517 C526 0.930 . S
H518 C528 0.930 . S
H519 C531 0.929 . S
H520 C534 0.930 . S
H521 C536 0.960 . S
H522 C536 0.960 . S
H523 C536 0.960 . S
C524 H516 0.929 . S
C524 C525 1.377 . S
C524 C526 1.384 . S
C525 C524 1.377 . S
C525 C531 1.390 . S
C526 H517 0.930 . S
C526 C524 1.384 . S
C526 C527 1.372 . S
C527 C526 1.372 . S
C527 C528 1.400 . S
C527 C532 1.490 . S
C528 H518 0.930 . S
C528 C527 1.400 . S
C528 C531 1.386 . S
H529 C545 0.930 . S
H530 C546 0.931 . S
C531 H519 0.929 . S
C531 C525 1.390 . S
C531 C528 1.386 . S
C532 C527 1.490 . S
C532 C534 1.395 . S
C532 C535 1.403 . S
H533 C539 0.930 . S
C534 H520 0.930 . S
C534 C532 1.395 . S
C534 C537 1.403 . S
C535 C532 1.403 . S
C535 C536 1.524 . S
C535 C539 1.400 . S
C536 H521 0.960 . S
C536 H522 0.960 . S
C536 H523 0.960 . S
C536 C535 1.524 . S
C537 C534 1.403 . S
C537 C538 1.392 . S
C537 C541 1.495 . S
C538 C537 1.392 . S
C538 C539 1.385 . S
C538 C540 1.478 . S
C539 H533 0.930 . S
C539 C535 1.400 . S
C539 C538 1.385 . S
C540 C538 1.478 . S
C540 C542 1.381 . S
C540 C546 1.383 . S
C541 C537 1.495 . S
C541 H547 0.959 . S
C541 H548 0.961 . S
C541 H549 0.960 . S
C542 C540 1.381 . S
C542 C543 1.394 . S
C542 H550 0.930 . S
C543 C542 1.394 . S
C543 C544 1.383 . S
C543 H551 0.929 . S
C544 C543 1.383 . S
C544 C545 1.377 . S
C545 H529 0.930 . S
C545 C544 1.377 . S
C545 C546 1.379 . S
C546 H530 0.931 . S
C546 C540 1.383 . S
C546 C545 1.379 . S
H547 C541 0.959 . S
H548 C541 0.961 . S
H549 C541 0.960 . S
H550 C542 0.930 . S
H551 C543 0.929 . S
H552 C560 0.929 . S
H553 C562 0.930 . S
H554 C564 0.930 . S
H555 C567 0.929 . S
H556 C570 0.930 . S
H557 C572 0.960 . S
H558 C572 0.960 . S
H559 C572 0.960 . S
C560 H552 0.929 . S
C560 C561 1.377 . S
C560 C562 1.384 . S
C561 C560 1.377 . S
C561 C567 1.390 . S
C562 H553 0.930 . S
C562 C560 1.384 . S
C562 C563 1.372 . S
C563 C562 1.372 . S
C563 C564 1.400 . S
C563 C568 1.490 . S
C564 H554 0.930 . S
C564 C563 1.400 . S
C564 C567 1.386 . S
H565 C581 0.930 . S
H566 C582 0.931 . S
C567 H555 0.929 . S
C567 C561 1.390 . S
C567 C564 1.386 . S
C568 C563 1.490 . S
C568 C570 1.395 . S
C568 C571 1.403 . S
H569 C575 0.930 . S
C570 H556 0.930 . S
C570 C568 1.395 . S
C570 C573 1.403 . S
C571 C568 1.403 . S
C571 C572 1.524 . S
C571 C575 1.400 . S
C572 H557 0.960 . S
C572 H558 0.960 . S
C572 H559 0.960 . S
C572 C571 1.524 . S
C573 C570 1.403 . S
C573 C574 1.392 . S
C573 C577 1.495 . S
C574 C573 1.392 . S
C574 C575 1.385 . S
C574 C576 1.478 . S
C575 H569 0.930 . S
C575 C571 1.400 . S
C575 C574 1.385 . S
C576 C574 1.478 . S
C576 C578 1.381 . S
C576 C582 1.383 . S
C577 C573 1.495 . S
C577 H583 0.959 . S
C577 H584 0.961 . S
C577 H585 0.960 . S
C578 C576 1.381 . S
C578 C579 1.394 . S
C578 H586 0.930 . S
C579 C578 1.394 . S
C579 C580 1.383 . S
C579 H587 0.929 . S
C580 C579 1.383 . S
C580 C581 1.377 . S
C581 H565 0.930 . S
C581 C580 1.377 . S
C581 C582 1.379 . S
C582 H566 0.931 . S
C582 C576 1.383 . S
C582 C581 1.379 . S
H583 C577 0.959 . S
H584 C577 0.961 . S
H585 C577 0.960 . S
H586 C578 0.930 . S
H587 C579 0.929 . S
H588 C596 0.929 . S
H589 C598 0.930 . S
H590 C600 0.930 . S
H591 C603 0.929 . S
H592 C606 0.930 . S
H593 C608 0.960 . S
H594 C608 0.960 . S
H595 C608 0.960 . S
C596 H588 0.929 . S
C596 C597 1.377 . S
C596 C598 1.384 . S
C597 C596 1.377 . S
C597 C603 1.390 . S
C598 H589 0.930 . S
C598 C596 1.384 . S
C598 C599 1.372 . S
C599 C598 1.372 . S
C599 C600 1.400 . S
C599 C604 1.490 . S
C600 H590 0.930 . S
C600 C599 1.400 . S
C600 C603 1.386 . S
H601 C617 0.930 . S
H602 C618 0.931 . S
C603 H591 0.929 . S
C603 C597 1.390 . S
C603 C600 1.386 . S
C604 C599 1.490 . S
C604 C606 1.395 . S
C604 C607 1.403 . S
H605 C611 0.930 . S
C606 H592 0.930 . S
C606 C604 1.395 . S
C606 C609 1.403 . S
C607 C604 1.403 . S
C607 C608 1.524 . S
C607 C611 1.400 . S
C608 H593 0.960 . S
C608 H594 0.960 . S
C608 H595 0.960 . S
C608 C607 1.524 . S
C609 C606 1.403 . S
C609 C610 1.392 . S
C609 C613 1.495 . S
C610 C609 1.392 . S
C610 C611 1.385 . S
C610 C612 1.478 . S
C611 H605 0.930 . S
C611 C607 1.400 . S
C611 C610 1.385 . S
C612 C610 1.478 . S
C612 C614 1.381 . S
C612 C618 1.383 . S
C613 C609 1.495 . S
C613 H619 0.959 . S
C613 H620 0.961 . S
C613 H621 0.960 . S
C614 C612 1.381 . S
C614 C615 1.394 . S
C614 H622 0.930 . S
C615 C614 1.394 . S
C615 C616 1.383 . S
C615 H623 0.929 . S
C616 C615 1.383 . S
C616 C617 1.377 . S
C617 H601 0.930 . S
C617 C616 1.377 . S
C617 C618 1.379 . S
C618 H602 0.931 . S
C618 C612 1.383 . S
C618 C617 1.379 . S
H619 C613 0.959 . S
H620 C613 0.961 . S
H621 C613 0.960 . S
H622 C614 0.930 . S
H623 C615 0.929 . S
H624 C632 0.929 . S
H625 C634 0.930 . S
H626 C636 0.930 . S
H627 C639 0.929 . S
H628 C642 0.930 . S
H629 C644 0.960 . S
H630 C644 0.960 . S
H631 C644 0.960 . S
C632 H624 0.929 . S
C632 C633 1.377 . S
C632 C634 1.384 . S
C633 C632 1.377 . S
C633 C639 1.390 . S
C634 H625 0.930 . S
C634 C632 1.384 . S
C634 C635 1.372 . S
C635 C634 1.372 . S
C635 C636 1.400 . S
C635 C640 1.490 . S
C636 H626 0.930 . S
C636 C635 1.400 . S
C636 C639 1.386 . S
H637 C653 0.930 . S
H638 C654 0.931 . S
C639 H627 0.929 . S
C639 C633 1.390 . S
C639 C636 1.386 . S
C640 C635 1.490 . S
C640 C642 1.395 . S
C640 C643 1.403 . S
H641 C647 0.911 1_556 S
C642 H628 0.930 . S
C642 C640 1.395 . S
C642 C645 1.403 . S
C643 C640 1.403 . S
C643 C644 1.524 . S
C643 C647 1.400 . S
C644 H629 0.960 . S
C644 H630 0.960 . S
C644 H631 0.960 . S
C644 C643 1.524 . S
C645 C642 1.403 . S
C645 C646 1.392 1_554 S
C645 C649 1.495 1_454 S
C646 C645 1.392 1_556 S
C646 C647 1.385 1_556 S
C646 C648 1.478 . S
C647 H641 0.911 1_554 S
C647 C643 1.400 . S
C647 C646 1.385 1_554 S
C648 C646 1.478 . S
C648 C650 1.381 . S
C648 C654 1.383 . S
C649 C645 1.495 1_656 S
C649 H655 0.959 1_556 S
C649 H656 0.961 . S
C649 H657 0.960 1_655 S
C650 C648 1.381 . S
C650 C651 1.394 . S
C650 H658 0.930 . S
C651 C650 1.394 . S
C651 C652 1.383 . S
C651 H659 0.929 . S
C652 C651 1.383 . S
C652 C653 1.377 . S
C653 H637 0.930 . S
C653 C652 1.377 . S
C653 C654 1.379 . S
C654 H638 0.931 . S
C654 C648 1.383 . S
C654 C653 1.379 . S
H655 C649 0.959 1_554 S
H656 C649 0.961 . S
H657 C649 0.960 1_455 S
H658 C650 0.930 . S
H659 C651 0.929 . S
H660 C668 0.929 1_565 S
H661 C670 0.930 1_565 S
H662 C672 0.930 . S
H663 C675 0.929 . S
H664 C678 0.930 . S
H665 C680 0.960 . S
H666 C680 0.960 . S
H667 C680 0.960 . S
C668 H660 0.929 1_545 S
C668 C669 1.377 . S
C668 C670 1.384 . S
C669 C668 1.377 . S
C669 C675 1.390 . S
C670 H661 0.930 1_545 S
C670 C668 1.384 . S
C670 C671 1.372 . S
C671 C670 1.372 . S
C671 C672 1.400 . S
C671 C676 1.490 . S
C672 H662 0.930 . S
C672 C671 1.400 . S
C672 C675 1.386 . S
H673 C689 0.930 . S
H674 C690 0.931 . S
C675 H663 0.929 . S
C675 C669 1.390 . S
C675 C672 1.386 . S
C676 C671 1.490 . S
C676 C678 1.395 . S
C676 C679 1.403 . S
H677 C683 0.930 . S
C678 H664 0.930 . S
C678 C676 1.395 . S
C678 C681 1.403 . S
C679 C676 1.403 . S
C679 C680 1.524 . S
C679 C683 1.400 . S
C680 H665 0.960 . S
C680 H666 0.960 . S
C680 H667 0.960 . S
C680 C679 1.524 . S
C681 C678 1.403 . S
C681 C682 1.392 . S
C681 C685 1.495 . S
C682 C681 1.392 . S
C682 C683 1.385 . S
C682 C684 1.478 . S
C683 H677 0.930 . S
C683 C679 1.400 . S
C683 C682 1.385 . S
C684 C682 1.478 . S
C684 C686 1.381 . S
C684 C690 1.383 . S
C685 C681 1.495 . S
C685 H691 0.959 . S
C685 H692 0.961 . S
C685 H693 0.960 . S
C686 C684 1.381 . S
C686 C687 1.394 . S
C686 H694 0.930 . S
C687 C686 1.394 . S
C687 C688 1.383 . S
C687 H695 0.929 . S
C688 C687 1.383 . S
C688 C689 1.377 . S
C689 H673 0.930 . S
C689 C688 1.377 . S
C689 C690 1.379 . S
C690 H674 0.931 . S
C690 C684 1.383 . S
C690 C689 1.379 . S
H691 C685 0.959 . S
H692 C685 0.961 . S
H693 C685 0.960 . S
H694 C686 0.930 . S
H695 C687 0.929 . S
H696 C704 0.929 . S
H697 C706 0.930 . S
H698 C708 0.930 . S
H699 C711 0.929 . S
H700 C714 0.930 . S
H701 C716 0.960 . S
H702 C716 0.960 . S
H703 C716 0.960 . S
C704 H696 0.929 . S
C704 C705 1.377 . S
C704 C706 1.384 . S
C705 C704 1.377 . S
C705 C711 1.390 . S
C706 H697 0.930 . S
C706 C704 1.384 . S
C706 C707 1.372 . S
C707 C706 1.372 . S
C707 C708 1.400 . S
C707 C712 1.490 . S
C708 H698 0.930 . S
C708 C707 1.400 . S
C708 C711 1.386 . S
H709 C725 0.930 . S
H710 C726 0.931 . S
C711 H699 0.929 . S
C711 C705 1.390 . S
C711 C708 1.386 . S
C712 C707 1.490 . S
C712 C714 1.395 . S
C712 C715 1.403 . S
H713 C719 0.930 . S
C714 H700 0.930 . S
C714 C712 1.395 . S
C714 C717 1.403 . S
C715 C712 1.403 . S
C715 C716 1.524 . S
C715 C719 1.400 . S
C716 H701 0.960 . S
C716 H702 0.960 . S
C716 H703 0.960 . S
C716 C715 1.524 . S
C717 C714 1.403 . S
C717 C718 1.392 . S
C717 C721 1.495 . S
C718 C717 1.392 . S
C718 C719 1.385 . S
C718 C720 1.478 . S
C719 H713 0.930 . S
C719 C715 1.400 . S
C719 C718 1.385 . S
C720 C718 1.478 . S
C720 C722 1.381 . S
C720 C726 1.383 . S
C721 C717 1.495 . S
C721 H727 0.959 . S
C721 H728 0.961 . S
C721 H729 0.960 . S
C722 C720 1.381 . S
C722 C723 1.394 . S
C722 H730 0.930 . S
C723 C722 1.394 . S
C723 C724 1.383 . S
C723 H731 0.929 . S
C724 C723 1.383 . S
C724 C725 1.377 . S
C725 H709 0.930 . S
C725 C724 1.377 . S
C725 C726 1.379 . S
C726 H710 0.931 . S
C726 C720 1.383 . S
C726 C725 1.379 . S
H727 C721 0.959 . S
H728 C721 0.961 . S
H729 C721 0.960 . S
H730 C722 0.930 . S
H731 C723 0.929 . S
H732 C740 0.929 1_565 S
H733 C742 0.930 1_565 S
H734 C744 0.930 . S
H735 C747 0.929 . S
H736 C750 0.930 . S
H737 C752 0.960 . S
H738 C752 0.960 . S
H739 C752 0.960 . S
C740 H732 0.929 1_545 S
C740 C741 1.377 . S
C740 C742 1.384 . S
C741 C740 1.377 . S
C741 C747 1.390 . S
C742 H733 0.930 1_545 S
C742 C740 1.384 . S
C742 C743 1.372 . S
C743 C742 1.372 . S
C743 C744 1.400 . S
C743 C748 1.490 . S
C744 H734 0.930 . S
C744 C743 1.400 . S
C744 C747 1.386 . S
H745 C761 0.930 . S
H746 C762 0.931 . S
C747 H735 0.929 . S
C747 C741 1.390 . S
C747 C744 1.386 . S
C748 C743 1.490 . S
C748 C750 1.395 . S
C748 C751 1.403 . S
H749 C755 0.930 . S
C750 H736 0.930 . S
C750 C748 1.395 . S
C750 C753 1.403 . S
C751 C748 1.403 . S
C751 C752 1.524 . S
C751 C755 1.400 . S
C752 H737 0.960 . S
C752 H738 0.960 . S
C752 H739 0.960 . S
C752 C751 1.524 . S
C753 C750 1.403 . S
C753 C754 1.392 . S
C753 C757 1.495 . S
C754 C753 1.392 . S
C754 C755 1.385 . S
C754 C756 1.478 . S
C755 H749 0.930 . S
C755 C751 1.400 . S
C755 C754 1.385 . S
C756 C754 1.478 . S
C756 C758 1.381 1_545 S
C756 C762 1.383 . S
C757 C753 1.495 . S
C757 H763 0.959 . S
C757 H764 0.961 . S
C757 H765 0.960 1_545 S
C758 C756 1.381 1_565 S
C758 C759 1.394 . S
C758 H766 0.930 . S
C759 C758 1.394 . S
C759 C760 1.383 1_565 S
C759 H767 0.929 . S
C760 C759 1.383 1_545 S
C760 C761 1.377 . S
C761 H745 0.930 . S
C761 C760 1.377 . S
C761 C762 1.379 . S
C762 H746 0.931 . S
C762 C756 1.383 . S
C762 C761 1.379 . S
H763 C757 0.959 . S
H764 C757 0.961 . S
H765 C757 0.960 1_565 S
H766 C758 0.930 . S
H767 C759 0.929 . S
H768 C776 0.929 . S
H769 C778 0.930 . S
H770 C780 0.930 . S
H771 C783 0.929 . S
H772 C786 0.930 . S
H773 C788 0.960 . S
H774 C788 0.960 . S
H775 C788 0.960 . S
C776 H768 0.929 . S
C776 C777 1.377 . S
C776 C778 1.384 . S
C777 C776 1.377 . S
C777 C783 1.390 . S
C778 H769 0.930 . S
C778 C776 1.384 . S
C778 C779 1.372 . S
C779 C778 1.372 . S
C779 C780 1.400 . S
C779 C784 1.490 . S
C780 H770 0.930 . S
C780 C779 1.400 . S
C780 C783 1.386 . S
H781 C797 0.930 . S
H782 C798 0.931 . S
C783 H771 0.929 . S
C783 C777 1.390 . S
C783 C780 1.386 . S
C784 C779 1.490 . S
C784 C786 1.395 . S
C784 C787 1.403 . S
H785 C791 0.930 1_554 S
C786 H772 0.930 . S
C786 C784 1.395 . S
C786 C789 1.403 . S
C787 C784 1.403 . S
C787 C788 1.524 . S
C787 C791 1.400 . S
C788 H773 0.960 . S
C788 H774 0.960 . S
C788 H775 0.960 . S
C788 C787 1.524 . S
C789 C786 1.403 . S
C789 C790 1.392 1_556 S
C789 C793 1.495 1_556 S
C790 C789 1.392 1_554 S
C790 C791 1.385 1_554 S
C790 C792 1.478 . S
C791 H785 0.930 1_556 S
C791 C787 1.400 . S
C791 C790 1.385 1_556 S
C792 C790 1.478 . S
C792 C794 1.381 . S
C792 C798 1.383 . S
C793 C789 1.495 1_554 S
C793 H799 0.959 1_554 S
C793 H800 0.961 . S
C793 H801 0.960 . S
C794 C792 1.381 . S
C794 C795 1.394 . S
C794 H802 0.930 . S
C795 C794 1.394 . S
C795 C796 1.383 . S
C795 H803 0.929 . S
C796 C795 1.383 . S
C796 C797 1.377 . S
C797 H781 0.930 . S
C797 C796 1.377 . S
C797 C798 1.379 . S
C798 H782 0.931 . S
C798 C792 1.383 . S
C798 C797 1.379 . S
H799 C793 0.959 1_556 S
H800 C793 0.961 . S
H801 C793 0.960 . S
H802 C794 0.930 . S
H803 C795 0.929 . S
H804 C812 0.929 . S
H805 C814 0.930 . S
H806 C816 0.930 1_655 S
H807 C819 0.929 . S
H808 C822 0.930 . S
H809 C824 0.960 . S
H810 C824 0.960 . S
H811 C824 0.960 . S
C812 H804 0.929 . S
C812 C813 1.377 . S
C812 C814 1.384 . S
C813 C812 1.377 . S
C813 C819 1.390 . S
C814 H805 0.930 . S
C814 C812 1.384 . S
C814 C815 1.372 . S
C815 C814 1.372 . S
C815 C816 1.400 . S
C815 C820 1.490 . S
C816 H806 0.930 1_455 S
C816 C815 1.400 . S
C816 C819 1.386 . S
H817 C833 0.930 . S
H818 C834 0.931 . S
C819 H807 0.929 . S
C819 C813 1.390 . S
C819 C816 1.386 . S
C820 C815 1.490 . S
C820 C822 1.395 . S
C820 C823 1.403 . S
H821 C827 0.930 . S
C822 H808 0.930 . S
C822 C820 1.395 . S
C822 C825 1.403 . S
C823 C820 1.403 . S
C823 C824 1.524 . S
C823 C827 1.400 . S
C824 H809 0.960 . S
C824 H810 0.960 . S
C824 H811 0.960 . S
C824 C823 1.524 . S
C825 C822 1.403 . S
C825 C826 1.392 . S
C825 C829 1.495 . S
C826 C825 1.392 . S
C826 C827 1.385 . S
C826 C828 1.478 . S
C827 H821 0.930 . S
C827 C823 1.400 . S
C827 C826 1.385 . S
C828 C826 1.478 . S
C828 C830 1.381 . S
C828 C834 1.383 1_455 S
C829 C825 1.495 . S
C829 H835 0.959 . S
C829 H836 0.928 1_455 S
C829 H837 0.960 . S
C830 C828 1.381 . S
C830 C831 1.394 . S
C830 H838 0.930 . S
C831 C830 1.394 . S
C831 C832 1.383 . S
C831 H839 0.929 . S
C832 C831 1.383 . S
C832 C833 1.377 1_455 S
C833 H817 0.930 . S
C833 C832 1.377 1_655 S
C833 C834 1.379 . S
C834 H818 0.931 . S
C834 C828 1.383 1_655 S
C834 C833 1.379 . S
H835 C829 0.959 . S
H836 C829 0.928 1_655 S
H837 C829 0.960 . S
H838 C830 0.930 . S
H839 C831 0.929 . S
C201 C10 3.408 . S
C220 C186 3.379 . S
C237 C55 1.260 . S
C256 C160 1.238 . S
C273 C90 1.933 . S
C292 C172 1.891 . S
C309 C19 2.659 . S
C328 C184 2.581 . S
C364 C162 1.098 . S
C345 C46 1.117 . S
C400 C174 1.833 . S
C381 C99 1.856 . S
C417 C50 1.931 . S
C436 C136 1.873 . S
C453 C95 0.762 . S
C472 C150 0.788 1_655 S
C489 C6 1.111 . S
C508 C126 1.087 . S
C544 C138 1.815 . S
C525 C59 1.844 . S
C580 C148 0.318 . S
C561 C86 0.318 . S
C597 C15 1.249 . S
C616 C124 1.222 . S
C652 C153 1.268 . S
C633 C18 1.243 . S
C669 C49 1.523 . S
C688 C129 1.530 . S
C705 C98 1.416 . S
C724 C141 1.455 . S
C760 C177 1.482 . S
C741 C58 1.428 . S
C796 C189 1.745 . S
C777 C89 1.682 . S
C813 C9 1.500 . S
C832 C165 1.518 . S
