# Generated by pormake.
# Topology anh, (6,3)-cn, num edge types: 1
# Building blocks:
#     Node 0, Type 0, BuildingBlock: MIFKUJ_clean_sbu_0, # of connection points: 6
#     Node 1, Type 0, BuildingBlock: MIFKUJ_clean_sbu_0, # of connection points: 6
#     Node 2, Type 0, BuildingBlock: MIFKUJ_clean_sbu_0, # of connection points: 6
#     Node 3, Type 1, BuildingBlock: CUQRIR_clean_linker_1, # of connection points: 3
#     Node 4, Type 1, BuildingBlock: CUQRIR_clean_linker_1, # of connection points: 3
#     Node 5, Type 1, BuildingBlock: CUQRIR_clean_linker_1, # of connection points: 3
#     Node 6, Type 1, BuildingBlock: CUQRIR_clean_linker_1, # of connection points: 3
#     Node 7, Type 1, BuildingBlock: CUQRIR_clean_linker_1, # of connection points: 3
#     Node 8, Type 1, BuildingBlock: CUQRIR_clean_linker_1, # of connection points: 3
#     Edge 9, Type (0, 1), BuildingBlock: ZUJKAS_clean_linker_0, # of connection points: 2
#     Edge 10, Type (0, 1), BuildingBlock: ZUJKAS_clean_linker_0, # of connection points: 2
#     Edge 11, Type (0, 1), BuildingBlock: ZUJKAS_clean_linker_0, # of connection points: 2
#     Edge 12, Type (0, 1), BuildingBlock: ZUJKAS_clean_linker_0, # of connection points: 2
#     Edge 13, Type (0, 1), BuildingBlock: ZUJKAS_clean_linker_0, # of connection points: 2
#     Edge 14, Type (0, 1), BuildingBlock: ZUJKAS_clean_linker_0, # of connection points: 2
#     Edge 15, Type (0, 1), BuildingBlock: ZUJKAS_clean_linker_0, # of connection points: 2
#     Edge 16, Type (0, 1), BuildingBlock: ZUJKAS_clean_linker_0, # of connection points: 2
#     Edge 17, Type (0, 1), BuildingBlock: ZUJKAS_clean_linker_0, # of connection points: 2
#     Edge 18, Type (0, 1), BuildingBlock: ZUJKAS_clean_linker_0, # of connection points: 2
#     Edge 19, Type (0, 1), BuildingBlock: ZUJKAS_clean_linker_0, # of connection points: 2
#     Edge 20, Type (0, 1), BuildingBlock: ZUJKAS_clean_linker_0, # of connection points: 2
#     Edge 21, Type (0, 1), BuildingBlock: ZUJKAS_clean_linker_0, # of connection points: 2
#     Edge 22, Type (0, 1), BuildingBlock: ZUJKAS_clean_linker_0, # of connection points: 2
#     Edge 23, Type (0, 1), BuildingBlock: ZUJKAS_clean_linker_0, # of connection points: 2
#     Edge 24, Type (0, 1), BuildingBlock: ZUJKAS_clean_linker_0, # of connection points: 2
#     Edge 25, Type (0, 1), BuildingBlock: ZUJKAS_clean_linker_0, # of connection points: 2
#     Edge 26, Type (0, 1), BuildingBlock: ZUJKAS_clean_linker_0, # of connection points: 2
# Relax obj value: 0.119
# Max RMSD: 0.213
# Mean RMSD: 0.152
data_MOF--net-anh--node1-MIFKUJ_clean_sbu_0--node2-CUQRIR_clean_linker_1--edge1-ZUJKAS_clean_linker_0
_symmetry_space_group_name_H-M    P1
_symmetry_Int_Tables_number       1
_symmetry_cell_setting            triclinic
loop_
_symmetry_equiv_pos_as_xyz
'x, y, z'
_cell_length_a     38.105958
_cell_length_b     38.083539
_cell_length_c     58.862533
_cell_angle_alpha  89.712509
_cell_angle_beta   90.87255
_cell_angle_gamma 120.05408
loop_
_atom_site_label
_atom_site_type_symbol
_atom_site_fract_x
_atom_site_fract_y
_atom_site_fract_z
_atom_type_partial_charge
Zn0 Zn 0.0266 0.51741 0.16213 0.0
Zn1 Zn 0.91345 0.42738 0.1641 0.0
C2 C 0.09806 0.51529 0.16925 0.0
O3 O 0.09688 0.5354 0.18703 0.0
C4 C 0.85503 0.44317 0.14318 0.0
O5 O 0.85042 0.41258 0.13072 0.0
O6 O 0.05525 0.57818 0.16322 0.0
O7 O 0.98084 0.49536 0.13982 0.0
O8 O 0.94501 0.42962 0.13638 0.0
C9 C 0.0572 0.60195 0.14743 0.0
O10 O 0.03706 0.58684 0.12831 0.0
O11 O 0.06924 0.50257 0.15466 0.0
C12 C 0.84703 0.36147 0.18513 0.0
O13 O 0.85137 0.39145 0.19806 0.0
O14 O 0.87111 0.36921 0.16873 0.0
O15 O 0.94464 0.44528 0.19411 0.0
O16 O 0.00795 0.49732 0.19361 0.0
O17 O 0.88246 0.45706 0.15861 0.0
C18 C 0.97302 0.46338 0.12917 0.0
C19 C 0.9776 0.47017 0.20427 0.0
Zn20 Zn 0.62458 0.07903 0.49416 0.0
Zn21 Zn 0.6051 0.97346 0.49977 0.0
C22 C 0.70709 0.13883 0.50257 0.0
O23 O 0.69192 0.13637 0.52279 0.0
C24 C 0.53227 0.90655 0.4816 0.0
O25 O 0.55901 0.90324 0.46935 0.0
O26 O 0.60262 0.11669 0.49226 0.0
O27 O 0.5945 0.0373 0.46992 0.0
O28 O 0.62767 0.00373 0.47022 0.0
C29 C 0.60466 0.13523 0.4739 0.0
O30 O 0.62019 0.12826 0.45587 0.0
O31 O 0.6842 0.11491 0.48697 0.0
C32 C 0.61535 0.91417 0.5222 0.0
O33 O 0.59076 0.91815 0.53598 0.0
O34 O 0.62739 0.93614 0.50452 0.0
O35 O 0.61319 0.00173 0.52991 0.0
O36 O 0.61824 0.06197 0.52661 0.0
O37 O 0.54466 0.93593 0.49556 0.0
C38 C 0.60978 0.01933 0.45937 0.0
C39 C 0.616 0.03336 0.53876 0.0
Zn40 Zn 0.62992 0.61882 0.8307 0.0
Zn41 Zn 0.5425 0.64089 0.83781 0.0
C42 C 0.60132 0.53578 0.84023 0.0
O43 O 0.61833 0.55271 0.85977 0.0
C44 C 0.55369 0.71351 0.81528 0.0
O45 O 0.53665 0.68828 0.79816 0.0
O46 O 0.68855 0.63658 0.8263 0.0
O47 O 0.6139 0.64947 0.80929 0.0
O48 O 0.54756 0.61693 0.80832 0.0
C49 C 0.69802 0.6211 0.8101 0.0
O50 O 0.66967 0.59689 0.79561 0.0
O51 O 0.60014 0.55805 0.82436 0.0
C52 C 0.47236 0.62693 0.8613 0.0
O53 O 0.50041 0.65595 0.87404 0.0
O54 O 0.48312 0.61428 0.84432 0.0
O55 O 0.56905 0.63436 0.86638 0.0
O56 O 0.62302 0.62685 0.86353 0.0
O57 O 0.56078 0.70046 0.83372 0.0
C58 C 0.58091 0.62798 0.79851 0.0
C59 C 0.59753 0.63056 0.87544 0.0
C60 C 0.4591 0.9633 0.19485 0.0
N61 N 0.48759 0.97877 0.2116 0.0
N62 N 0.42467 0.93123 0.2026 0.0
C63 C 0.46466 0.98002 0.17115 0.0
C64 C 0.43306 0.92784 0.22466 0.0
N65 N 0.47129 0.95703 0.2302 0.0
C66 C 0.40371 0.89647 0.2408 0.0
H67 H 0.43524 0.9695 0.16221 0.0
H68 H 0.48245 0.96966 0.16134 0.0
H69 H 0.48191 0.01368 0.1716 0.0
H70 H 0.42 0.88895 0.25399 0.0
H71 H 0.38171 0.86834 0.23174 0.0
H72 H 0.38641 0.90882 0.24934 0.0
C73 C 0.6044 0.51712 0.53225 0.0
N74 N 0.60416 0.54011 0.54961 0.0
N75 N 0.59256 0.47909 0.53954 0.0
C76 C 0.61531 0.53125 0.50814 0.0
C77 C 0.58492 0.47973 0.56189 0.0
N78 N 0.59164 0.51681 0.56792 0.0
C79 C 0.57243 0.44464 0.5779 0.0
H80 H 0.58706 0.52272 0.49832 0.0
H81 H 0.63059 0.51626 0.50012 0.0
H82 H 0.63517 0.56458 0.50712 0.0
H83 H 0.59999 0.44733 0.58622 0.0
H84 H 0.55642 0.4153 0.56864 0.0
H85 H 0.55252 0.44475 0.59137 0.0
C86 C 0.04596 0.54692 0.86283 0.0
N87 N 0.0626 0.53537 0.87967 0.0
N88 N 0.00834 0.53861 0.86846 0.0
C89 C 0.06682 0.56788 0.84131 0.0
C90 C 0.00264 0.52166 0.88932 0.0
N91 N 0.03545 0.5192 0.89604 0.0
C92 C 0.96698 0.51162 0.90415 0.0
H93 H 0.08309 0.60117 0.84416 0.0
H94 H 0.04434 0.56072 0.82734 0.0
H95 H 0.08909 0.5588 0.83624 0.0
H96 H 0.9516 0.47903 0.90871 0.0
H97 H 0.94462 0.51796 0.89559 0.0
H98 H 0.97783 0.5294 0.92016 0.0
C99 C 0.10341 0.53698 0.47086 0.0
N100 N 0.07297 0.51135 0.45664 0.0
N101 N 0.13029 0.57085 0.45963 0.0
C102 C 0.10583 0.53016 0.49585 0.0
C103 C 0.11537 0.56483 0.43812 0.0
N104 N 0.0804 0.52892 0.43634 0.0
C105 C 0.1369 0.59244 0.41847 0.0
H106 H 0.12323 0.55945 0.50504 0.0
H107 H 0.12163 0.51261 0.49839 0.0
H108 H 0.07505 0.51254 0.50308 0.0
H109 H 0.17016 0.6098 0.42156 0.0
H110 H 0.12593 0.61432 0.41637 0.0
H111 H 0.13064 0.57494 0.40244 0.0
C112 C 0.58252 0.12948 0.80403 0.0
N113 N 0.58601 0.10353 0.78977 0.0
N114 N 0.58626 0.16207 0.79247 0.0
C115 C 0.5783 0.12454 0.82936 0.0
C116 C 0.59197 0.15496 0.77072 0.0
N117 N 0.59213 0.11964 0.76911 0.0
C118 C 0.59423 0.18094 0.7508 0.0
H119 H 0.54561 0.10713 0.83348 0.0
H120 H 0.59186 0.15449 0.83795 0.0
H121 H 0.59299 0.10762 0.83595 0.0
H122 H 0.6265 0.20332 0.74755 0.0
H123 H 0.57801 0.19768 0.75431 0.0
H124 H 0.58098 0.16225 0.73526 0.0
C125 C 0.49929 0.51955 0.14012 0.0
N126 N 0.53094 0.53038 0.12602 0.0
N127 N 0.47365 0.5313 0.13144 0.0
C128 C 0.49419 0.4992 0.16273 0.0
C129 C 0.49054 0.5493 0.11155 0.0
N130 N 0.52554 0.54916 0.10836 0.0
C131 C 0.4707 0.56332 0.09421 0.0
H132 H 0.47784 0.46585 0.16012 0.0
H133 H 0.47611 0.5067 0.17427 0.0
H134 H 0.52412 0.50839 0.17074 0.0
H135 H 0.48281 0.59634 0.09647 0.0
H136 H 0.43734 0.5474 0.09625 0.0
H137 H 0.47738 0.55805 0.07668 0.0
H138 H 0.11258 0.4772 0.13406 0.0
H139 H 0.17252 0.47004 0.129 0.0
H140 H 0.22311 0.53347 0.1922 0.0
H141 H 0.16345 0.54005 0.19759 0.0
H142 H 0.25042 0.53022 0.12471 0.0
H143 H 0.23978 0.43725 0.19955 0.0
H144 H 0.19787 0.44309 0.18972 0.0
H145 H 0.23741 0.48147 0.20733 0.0
C146 C 0.13627 0.48915 0.147 0.0
C147 C 0.13315 0.5091 0.16625 0.0
C148 C 0.17048 0.48504 0.1441 0.0
C149 C 0.20199 0.50054 0.16044 0.0
C150 C 0.19876 0.52026 0.17967 0.0
H151 H 0.45512 0.58849 0.14175 0.0
H152 H 0.38742 0.57777 0.14974 0.0
C153 C 0.16468 0.52432 0.18261 0.0
C154 C 0.23971 0.49906 0.15671 0.0
H155 H 0.30541 0.47403 0.18222 0.0
C156 C 0.26214 0.51744 0.13715 0.0
C157 C 0.25484 0.48194 0.17279 0.0
C158 C 0.23099 0.45945 0.1934 0.0
C159 C 0.30006 0.52077 0.13372 0.0
C160 C 0.31638 0.50605 0.15053 0.0
C161 C 0.29317 0.48595 0.16957 0.0
C162 C 0.35788 0.51222 0.14868 0.0
C163 C 0.3224 0.54022 0.11214 0.0
C164 C 0.36406 0.47895 0.14675 0.0
C165 C 0.40285 0.48518 0.14248 0.0
C166 C 0.43578 0.52469 0.14016 0.0
C167 C 0.42996 0.55785 0.14347 0.0
C168 C 0.39137 0.55169 0.14781 0.0
H169 H 0.30144 0.53922 0.09849 0.0
H170 H 0.34495 0.57253 0.11556 0.0
H171 H 0.3388 0.52501 0.10589 0.0
H172 H 0.33865 0.44826 0.14753 0.0
H173 H 0.40683 0.45929 0.13977 0.0
H174 H 0.76623 0.1873 0.53294 0.0
H175 H 0.83078 0.2483 0.52505 0.0
H176 H 0.80561 0.22902 0.4531 0.0
H177 H 0.74116 0.16721 0.46086 0.0
H178 H 0.88606 0.25579 0.46374 0.0
H179 H 0.83541 0.35284 0.50528 0.0
H180 H 0.83354 0.31416 0.5236 0.0
H181 H 0.80119 0.30008 0.49875 0.0
C182 C 0.77457 0.19574 0.51541 0.0
C183 C 0.74834 0.1726 0.49753 0.0
C184 C 0.8114 0.23079 0.51094 0.0
C185 C 0.82256 0.24382 0.48851 0.0
C186 C 0.79745 0.2197 0.47056 0.0
H187 H 0.99516 0.49016 0.44847 0.0
H188 H 0.93485 0.42411 0.45555 0.0
C189 C 0.76066 0.18435 0.47502 0.0
C190 C 0.85959 0.28334 0.48389 0.0
H191 H 0.90452 0.38494 0.49481 0.0
C192 C 0.89011 0.28406 0.47049 0.0
C193 C 0.86453 0.32032 0.49237 0.0
C194 C 0.83178 0.32201 0.5056 0.0
C195 C 0.92573 0.32068 0.46565 0.0
C196 C 0.9313 0.35745 0.47486 0.0
C197 C 0.90049 0.35672 0.48799 0.0
C198 C 0.96817 0.39727 0.47052 0.0
C199 C 0.95657 0.31972 0.45028 0.0
C200 C 0.00694 0.40443 0.47686 0.0
C201 C 0.04138 0.44207 0.4726 0.0
C202 C 0.03755 0.47325 0.46219 0.0
C203 C 0.99877 0.46637 0.45633 0.0
C204 C 0.96441 0.42876 0.46044 0.0
H205 H 0.94303 0.29161 0.43982 0.0
H206 H 0.96992 0.34632 0.43874 0.0
H207 H 0.9814 0.32059 0.4608 0.0
H208 H 0.01057 0.38096 0.48512 0.0
H209 H 0.07105 0.44668 0.47709 0.0
H210 H 0.57161 0.76799 0.84993 0.0
H211 H 0.57771 0.83502 0.84766 0.0
H212 H 0.55932 0.82154 0.77503 0.0
H213 H 0.55197 0.75408 0.77724 0.0
H214 H 0.62888 0.90397 0.82646 0.0
H215 H 0.47366 0.84823 0.79232 0.0
H216 H 0.49017 0.81449 0.80327 0.0
H217 H 0.50248 0.83386 0.77477 0.0
C218 C 0.56901 0.77935 0.83345 0.0
C219 C 0.56093 0.75552 0.81378 0.0
C220 C 0.57246 0.81768 0.83219 0.0
C221 C 0.56802 0.83298 0.81125 0.0
C222 C 0.56163 0.80992 0.79148 0.0
H223 H 0.64182 0.08278 0.77916 0.0
H224 H 0.63761 0.01723 0.78568 0.0
C225 C 0.55776 0.77145 0.79274 0.0
C226 C 0.57009 0.87303 0.81008 0.0
H227 H 0.51868 0.91975 0.79099 0.0
C228 C 0.60467 0.90738 0.81883 0.0
C229 C 0.53815 0.87745 0.80057 0.0
C230 C 0.49885 0.84148 0.79242 0.0
C231 C 0.60866 0.94611 0.81778 0.0
C232 C 0.57769 0.95082 0.80713 0.0
C233 C 0.54266 0.9163 0.79893 0.0
C234 C 0.58112 0.99122 0.80393 0.0
C235 C 0.64578 0.98142 0.82841 0.0
C236 C 0.55033 0.99827 0.81147 0.0
C237 C 0.55233 0.03544 0.80726 0.0
C238 C 0.58515 0.06621 0.79547 0.0
C239 C 0.61617 0.0594 0.78822 0.0
C240 C 0.614 0.02215 0.7922 0.0
H241 H 0.6592 0.97116 0.84195 0.0
H242 H 0.66906 0.99687 0.8152 0.0
H243 H 0.63859 0.00379 0.83583 0.0
H244 H 0.52449 0.97481 0.8204 0.0
H245 H 0.5278 0.03986 0.8127 0.0
H246 H 0.7936 0.41943 0.1119 0.0
H247 H 0.74226 0.43976 0.10956 0.0
H248 H 0.79868 0.52091 0.16638 0.0
H249 H 0.85013 0.50034 0.16905 0.0
H250 H 0.71537 0.47106 0.17084 0.0
H251 H 0.75112 0.5451 0.08643 0.0
H252 H 0.7442 0.49488 0.08604 0.0
H253 H 0.78585 0.53432 0.10197 0.0
C254 C 0.79547 0.44197 0.12376 0.0
C255 C 0.82608 0.4583 0.14065 0.0
C256 C 0.76615 0.45372 0.12231 0.0
C257 C 0.76689 0.48223 0.1376 0.0
C258 C 0.79766 0.499 0.15433 0.0
H259 H 0.60981 0.58743 0.12388 0.0
H260 H 0.6684 0.57731 0.12783 0.0
C261 C 0.82711 0.4873 0.15578 0.0
C262 C 0.73425 0.49275 0.13684 0.0
H263 H 0.68713 0.52882 0.1019 0.0
C264 C 0.70939 0.48401 0.15584 0.0
C265 C 0.72672 0.51003 0.11735 0.0
C266 C 0.75361 0.52202 0.09686 0.0
C267 C 0.6765 0.491 0.15564 0.0
C268 C 0.66789 0.50658 0.13579 0.0
C269 C 0.69347 0.51644 0.11703 0.0
C270 C 0.63243 0.51278 0.13406 0.0
C271 C 0.65145 0.4819 0.17676 0.0
C272 C 0.59277 0.47986 0.13606 0.0
C273 C 0.55942 0.48568 0.13377 0.0
C274 C 0.56518 0.52445 0.12935 0.0
C275 C 0.60478 0.5573 0.12728 0.0
C276 C 0.63812 0.55152 0.12955 0.0
H277 H 0.66825 0.48094 0.19212 0.0
H278 H 0.64216 0.50492 0.17945 0.0
H279 H 0.62363 0.4518 0.17486 0.0
H280 H 0.58759 0.44954 0.13898 0.0
H281 H 0.5291 0.45982 0.13493 0.0
H282 H 0.49681 0.84016 0.45375 0.0
H283 H 0.42618 0.78559 0.45307 0.0
H284 H 0.39856 0.84546 0.506 0.0
H285 H 0.46952 0.90019 0.50702 0.0
H286 H 0.36707 0.76211 0.51375 0.0
H287 H 0.32842 0.78999 0.42688 0.0
H288 H 0.37267 0.78474 0.42804 0.0
H289 H 0.37324 0.8268 0.44216 0.0
C290 C 0.47573 0.84199 0.46515 0.0
C291 C 0.48884 0.8747 0.48037 0.0
C292 C 0.43528 0.81078 0.46467 0.0
C293 C 0.40699 0.81168 0.47928 0.0
C294 C 0.41989 0.84425 0.49452 0.0
H295 H 0.14791 0.64843 0.459 0.0
H296 H 0.2142 0.70852 0.46699 0.0
C297 C 0.46041 0.87558 0.495 0.0
C298 C 0.36419 0.77811 0.4789 0.0
H299 H 0.28169 0.727 0.44384 0.0
C300 C 0.34822 0.75459 0.49854 0.0
C301 C 0.33949 0.76866 0.45914 0.0
C302 C 0.35412 0.79409 0.43792 0.0
C303 C 0.30858 0.7211 0.49871 0.0
C304 C 0.28454 0.71058 0.47862 0.0
C305 C 0.30019 0.73485 0.45921 0.0
C306 C 0.24326 0.67433 0.47704 0.0
C307 C 0.29274 0.69751 0.52044 0.0
C308 C 0.23725 0.63513 0.4805 0.0
C309 C 0.19928 0.60089 0.47611 0.0
C310 C 0.16698 0.6054 0.46796 0.0
C311 C 0.17254 0.64449 0.46535 0.0
C312 C 0.21032 0.67866 0.46984 0.0
H313 H 0.30965 0.71596 0.53554 0.0
H314 H 0.26001 0.68699 0.52246 0.0
H315 H 0.29653 0.67048 0.52 0.0
H316 H 0.26235 0.63095 0.48556 0.0
H317 H 0.19563 0.57093 0.47787 0.0
H318 H 0.5891 0.49622 0.79947 0.0
H319 H 0.57925 0.42819 0.79354 0.0
H320 H 0.5762 0.41025 0.86605 0.0
H321 H 0.58698 0.47833 0.87208 0.0
H322 H 0.62926 0.39395 0.84678 0.0
H323 H 0.48375 0.31444 0.79883 0.0
H324 H 0.51974 0.36144 0.78594 0.0
H325 H 0.50023 0.36178 0.81354 0.0
C326 C 0.58542 0.4774 0.81412 0.0
C327 C 0.58894 0.49269 0.83624 0.0
C328 C 0.57964 0.43843 0.81071 0.0
C329 C 0.57664 0.41388 0.82935 0.0
C330 C 0.57843 0.42857 0.85141 0.0
H331 H 0.52631 0.16283 0.81598 0.0
H332 H 0.52274 0.22318 0.82728 0.0
C333 C 0.58455 0.46752 0.85482 0.0
C334 C 0.5755 0.37461 0.82607 0.0
H335 H 0.52475 0.28303 0.79884 0.0
C336 C 0.60614 0.36958 0.83646 0.0
C337 C 0.5451 0.34253 0.81287 0.0
C338 C 0.51011 0.34507 0.80234 0.0
C339 C 0.6079 0.33395 0.8335 0.0
C340 C 0.57872 0.30273 0.81936 0.0
C341 C 0.54732 0.30714 0.80953 0.0
C342 C 0.58142 0.26618 0.81376 0.0
C343 C 0.64098 0.33007 0.84561 0.0
C344 C 0.61555 0.27034 0.80254 0.0
C345 C 0.61763 0.23611 0.79632 0.0
C346 C 0.5855 0.19706 0.80098 0.0
C347 C 0.55157 0.19274 0.81248 0.0
C348 C 0.54944 0.22709 0.81874 0.0
H349 H 0.65265 0.35015 0.86079 0.0
H350 H 0.63004 0.29833 0.85105 0.0
H351 H 0.66668 0.33918 0.83391 0.0
H352 H 0.64026 0.3001 0.79815 0.0
H353 H 0.64402 0.23998 0.78744 0.0
H354 H 0.5969 0.86504 0.55917 0.0
H355 H 0.60736 0.80734 0.56425 0.0
H356 H 0.66742 0.8327 0.49974 0.0
H357 H 0.65671 0.89048 0.49436 0.0
H358 H 0.60406 0.75375 0.50391 0.0
H359 H 0.70704 0.79683 0.57893 0.0
H360 H 0.66414 0.80333 0.58341 0.0
H361 H 0.70081 0.83347 0.56236 0.0
C362 C 0.6129 0.85879 0.5462 0.0
C363 C 0.62579 0.88219 0.5263 0.0
C364 C 0.61917 0.82599 0.54924 0.0
C365 C 0.63863 0.81613 0.53251 0.0
C366 C 0.65263 0.84011 0.51292 0.0
H367 H 0.67613 0.60717 0.54238 0.0
H368 H 0.68856 0.67691 0.53799 0.0
C369 C 0.64646 0.87305 0.50988 0.0
C370 C 0.64013 0.7782 0.53442 0.0
H371 H 0.66929 0.72568 0.56967 0.0
C372 C 0.61885 0.74783 0.51809 0.0
C373 C 0.65966 0.7707 0.55287 0.0
C374 C 0.68455 0.80296 0.57028 0.0
C375 C 0.61502 0.70944 0.52028 0.0
C376 C 0.63257 0.70123 0.5394 0.0
C377 C 0.65546 0.73209 0.55519 0.0
C378 C 0.62608 0.6602 0.54354 0.0
C379 C 0.59168 0.67769 0.50232 0.0
C380 C 0.58718 0.62833 0.54865 0.0
C381 C 0.58025 0.58893 0.55112 0.0
C382 C 0.61206 0.58101 0.54841 0.0
C383 C 0.65128 0.61302 0.54417 0.0
C384 C 0.65831 0.65254 0.54177 0.0
H385 H 0.58824 0.69137 0.48632 0.0
H386 H 0.60697 0.66012 0.49849 0.0
H387 H 0.56094 0.6562 0.50866 0.0
H388 H 0.56211 0.63389 0.55037 0.0
H389 H 0.54996 0.56439 0.55462 0.0
H390 H 0.72132 0.57577 0.78554 0.0
H391 H 0.7826 0.57134 0.79139 0.0
H392 H 0.82701 0.66861 0.84043 0.0
H393 H 0.76531 0.67259 0.83514 0.0
H394 H 0.86696 0.624 0.78954 0.0
H395 H 0.81527 0.57236 0.87752 0.0
H396 H 0.78324 0.57692 0.85625 0.0
H397 H 0.82179 0.62128 0.87079 0.0
C398 C 0.74444 0.59677 0.79726 0.0
C399 C 0.73816 0.62402 0.81022 0.0
C400 C 0.77947 0.5942 0.80055 0.0
C401 C 0.8088 0.61899 0.81673 0.0
C402 C 0.80422 0.64858 0.82825 0.0
H403 H 0.00812 0.60591 0.88075 0.0
H404 H 0.96336 0.62997 0.8657 0.0
C405 C 0.76904 0.6509 0.82515 0.0
C406 C 0.84191 0.6111 0.82312 0.0
H407 H 0.87826 0.57997 0.86746 0.0
C408 C 0.8696 0.61451 0.80658 0.0
C409 C 0.84486 0.59822 0.84531 0.0
C410 C 0.81453 0.59156 0.86346 0.0
C411 C 0.90061 0.60588 0.81177 0.0
C412 C 0.90358 0.59325 0.83398 0.0
C413 C 0.87601 0.59002 0.85049 0.0
C414 C 0.93429 0.58211 0.8406 0.0
C415 C 0.93014 0.61061 0.7936 0.0
C416 C 0.93292 0.54753 0.8313 0.0
C417 C 0.95838 0.5339 0.83994 0.0
C418 C 0.98521 0.55463 0.85796 0.0
C419 C 0.98752 0.58983 0.86676 0.0
C420 C 0.96213 0.60345 0.85819 0.0
H421 H 0.9296 0.6293 0.7792 0.0
H422 H 0.96149 0.62476 0.80068 0.0
H423 H 0.92193 0.58022 0.7869 0.0
H424 H 0.91105 0.53019 0.81805 0.0
H425 H 0.95628 0.50651 0.83317 0.0
H426 H 0.10018 0.64204 0.18529 0.0
H427 H 0.15625 0.71127 0.18786 0.0
H428 H 0.13753 0.73108 0.11757 0.0
H429 H 0.08141 0.66089 0.11467 0.0
H430 H 0.2143 0.75134 0.12579 0.0
H431 H 0.16971 0.82227 0.19192 0.0
H432 H 0.16196 0.77452 0.20207 0.0
H433 H 0.1333 0.77592 0.17774 0.0
C434 C 0.10731 0.66125 0.17046 0.0
C435 C 0.08649 0.64584 0.14972 0.0
C436 C 0.13921 0.7011 0.17203 0.0
C437 C 0.15074 0.72664 0.15302 0.0
C438 C 0.12888 0.71197 0.13251 0.0
H439 H 0.37142 0.95443 0.18976 0.0
H440 H 0.30427 0.91138 0.17192 0.0
C441 C 0.09682 0.6719 0.1309 0.0
C442 C 0.18886 0.76627 0.15411 0.0
H443 H 0.24271 0.84636 0.1899 0.0
C444 C 0.22023 0.77277 0.13941 0.0
C445 C 0.19652 0.79483 0.1715 0.0
C446 C 0.16334 0.79169 0.1865 0.0
C447 C 0.2599 0.80484 0.14305 0.0
C448 C 0.26847 0.83034 0.16219 0.0
C449 C 0.23638 0.82626 0.1755 0.0
C450 C 0.31053 0.85797 0.17027 0.0
C451 C 0.29242 0.81016 0.1268 0.0
C452 C 0.33623 0.84228 0.17519 0.0
C453 C 0.37434 0.86684 0.18513 0.0
C454 C 0.38706 0.90721 0.1906 0.0
C455 C 0.36187 0.92327 0.18544 0.0
C456 C 0.32376 0.89878 0.17534 0.0
H457 H 0.27963 0.80013 0.1094 0.0
H458 H 0.3173 0.84223 0.12608 0.0
H459 H 0.30531 0.79104 0.13242 0.0
H460 H 0.32626 0.81061 0.17212 0.0
H461 H 0.39351 0.85414 0.18921 0.0
H462 H 0.60914 0.18419 0.43842 0.0
H463 H 0.59882 0.24272 0.43993 0.0
H464 H 0.56654 0.21785 0.51048 0.0
H465 H 0.57585 0.15918 0.50906 0.0
H466 H 0.51878 0.24191 0.48622 0.0
H467 H 0.6839 0.34596 0.47256 0.0
H468 H 0.65642 0.30863 0.4509 0.0
H469 H 0.6633 0.29279 0.47859 0.0
C470 C 0.59929 0.1909 0.45416 0.0
C471 C 0.59388 0.16744 0.47372 0.0
C472 C 0.59355 0.22438 0.45499 0.0
C473 C 0.58262 0.23492 0.47542 0.0
C474 C 0.57507 0.21024 0.49456 0.0
H475 H 0.63379 0.44071 0.54888 0.0
H476 H 0.62914 0.38258 0.52845 0.0
C477 C 0.58059 0.17679 0.49373 0.0
C478 C 0.58205 0.27322 0.47783 0.0
H479 H 0.64542 0.37535 0.48303 0.0
C480 C 0.54621 0.27125 0.48509 0.0
C481 C 0.61806 0.31129 0.47643 0.0
C482 C 0.65774 0.31508 0.46934 0.0
C483 C 0.54595 0.30613 0.49236 0.0
C484 C 0.58239 0.34392 0.4919 0.0
C485 C 0.61759 0.34623 0.48328 0.0
C486 C 0.58608 0.38019 0.50317 0.0
C487 C 0.50748 0.30187 0.50193 0.0
C488 C 0.56378 0.39827 0.49553 0.0
C489 C 0.56616 0.43113 0.50738 0.0
C490 C 0.591 0.4463 0.52685 0.0
C491 C 0.61409 0.42894 0.53406 0.0
C492 C 0.61163 0.39609 0.52233 0.0
H493 H 0.48378 0.26962 0.5043 0.0
H494 H 0.51372 0.31775 0.51854 0.0
H495 H 0.4952 0.316 0.49011 0.0
H496 H 0.54436 0.38676 0.48059 0.0
H497 H 0.54818 0.44432 0.50164 0.0
H498 H 0.40678 0.56649 0.83864 0.0
H499 H 0.33526 0.54491 0.84406 0.0
H500 H 0.36818 0.63095 0.8989 0.0
H501 H 0.43968 0.65228 0.8939 0.0
H502 H 0.29899 0.55513 0.90766 0.0
H503 H 0.28928 0.6173 0.82364 0.0
H504 H 0.30611 0.58091 0.82275 0.0
H505 H 0.33699 0.62883 0.83676 0.0
C506 C 0.3988 0.58061 0.85197 0.0
C507 C 0.42894 0.61144 0.86567 0.0
C508 C 0.35794 0.56832 0.85499 0.0
C509 C 0.34659 0.58686 0.87161 0.0
C510 C 0.3764 0.61641 0.88592 0.0
H511 H 0.13186 0.6067 0.87572 0.0
H512 H 0.20092 0.61749 0.87524 0.0
C513 C 0.41724 0.62862 0.88298 0.0
C514 C 0.30394 0.57702 0.8734 0.0
H515 H 0.22883 0.58283 0.84439 0.0
C516 C 0.28351 0.56102 0.89384 0.0
C517 C 0.28416 0.58532 0.85541 0.0
C518 C 0.30527 0.60437 0.83346 0.0
C519 C 0.24366 0.55303 0.89676 0.0
C520 C 0.22375 0.56082 0.87863 0.0
C521 C 0.24418 0.5767 0.8582 0.0
C522 C 0.18224 0.55425 0.88062 0.0
C523 C 0.22359 0.53739 0.91936 0.0
C524 C 0.14899 0.51521 0.88398 0.0
C525 C 0.10964 0.50915 0.88419 0.0
C526 C 0.10312 0.5419 0.88073 0.0
C527 C 0.13639 0.581 0.87793 0.0
C528 C 0.17565 0.58712 0.87779 0.0
H529 H 0.24598 0.542 0.933 0.0
H530 H 0.20655 0.55264 0.92443 0.0
H531 H 0.20175 0.50438 0.91792 0.0
H532 H 0.15338 0.48936 0.88585 0.0
H533 H 0.08416 0.47882 0.8864 0.0
H534 H 0.83064 0.29235 0.16229 0.0
H535 H 0.77333 0.22386 0.16783 0.0
H536 H 0.73034 0.26769 0.22203 0.0
H537 H 0.78783 0.33608 0.21691 0.0
H538 H 0.72726 0.19377 0.23185 0.0
H539 H 0.65726 0.19021 0.14767 0.0
H540 H 0.70875 0.20082 0.14677 0.0
H541 H 0.69754 0.2364 0.16004 0.0
C542 C 0.80908 0.2874 0.17545 0.0
C543 C 0.81356 0.3197 0.18904 0.0
C544 C 0.7763 0.24829 0.17852 0.0
C545 C 0.74733 0.24094 0.19508 0.0
C546 C 0.75234 0.27284 0.20909 0.0
H547 H 0.51532 0.04609 0.23709 0.0
H548 H 0.58131 0.1085 0.23404 0.0
C549 C 0.78516 0.31191 0.2061 0.0
C550 C 0.71113 0.20026 0.19748 0.0
H551 H 0.62499 0.13069 0.16969 0.0
C552 C 0.7049 0.17986 0.21827 0.0
C553 C 0.6821 0.18233 0.1797 0.0
C554 C 0.68641 0.20362 0.15734 0.0
C555 C 0.6703 0.14184 0.22174 0.0
C556 C 0.64106 0.12422 0.20405 0.0
C557 C 0.64762 0.14431 0.18317 0.0
C558 C 0.60257 0.08571 0.20705 0.0
C559 C 0.66545 0.12075 0.24422 0.0
C560 C 0.59257 0.05257 0.1927 0.0
C561 C 0.55498 0.01716 0.19443 0.0
C562 C 0.52685 0.01459 0.21039 0.0
C563 C 0.53695 0.04753 0.22486 0.0
C564 C 0.57454 0.08293 0.22318 0.0
H565 H 0.69498 0.13242 0.25333 0.0
H566 H 0.64521 0.12626 0.25515 0.0
H567 H 0.65159 0.08747 0.24185 0.0
H568 H 0.61376 0.05426 0.18008 0.0
H569 H 0.54769 0.99179 0.18331 0.0
H570 H 0.04394 0.5254 0.11301 0.0
H571 H 0.06885 0.53447 0.07412 0.0
H572 H 0.96828 0.41709 0.05578 0.0
H573 H 0.94347 0.40763 0.0947 0.0
H574 H 0.04206 0.43485 0.03513 0.0
H575 H 0.00835 0.56035 0.02476 0.0
H576 H 0.0428 0.56678 0.04763 0.0
H577 H 0.99096 0.52643 0.04873 0.0
C578 C 0.02729 0.50145 0.10073 0.0
C579 C 0.99124 0.46625 0.10675 0.0
C580 C 0.0416 0.50662 0.07855 0.0
C581 C 0.01987 0.47685 0.06197 0.0
C582 C 0.98536 0.44053 0.06831 0.0
H583 H 0.99432 0.44838 0.9182 0.0
H584 H 0.99826 0.43782 0.9591 0.0
C585 C 0.9712 0.4352 0.09054 0.0
C586 C 0.03091 0.4848 0.03771 0.0
H587 H 0.03471 0.54441 0.99327 0.0
C588 C 0.04081 0.45899 0.02597 0.0
C589 C 0.02913 0.51628 0.02582 0.0
C590 C 0.01692 0.54389 0.03726 0.0
C591 C 0.04867 0.46366 0.00256 0.0
C592 C 0.04594 0.49453 0.99062 0.0
C593 C 0.03709 0.52095 0.0025 0.0
C594 C 0.04868 0.49829 0.96554 0.0
C595 C 0.05969 0.43546 0.99083 0.0
C596 C 0.07587 0.53558 0.95553 0.0
C597 C 0.07321 0.54163 0.93228 0.0
C598 C 0.04327 0.51055 0.91875 0.0
C599 C 0.0176 0.47261 0.92846 0.0
C600 C 0.02014 0.46653 0.95172 0.0
H601 H 0.07311 0.42286 0.00298 0.0
H602 H 0.03186 0.40966 0.98334 0.0
H603 H 0.08149 0.45118 0.97696 0.0
H604 H 0.09786 0.5606 0.96591 0.0
H605 H 0.09287 0.57127 0.92509 0.0
H606 H 0.57769 0.0533 0.4312 0.0
H607 H 0.56387 0.04227 0.39055 0.0
H608 H 0.61395 0.9628 0.39003 0.0
H609 H 0.62785 0.97348 0.43103 0.0
H610 H 0.61765 0.05484 0.3534 0.0
H611 H 0.49622 0.89367 0.36405 0.0
H612 H 0.51535 0.92901 0.38753 0.0
H613 H 0.54513 0.90862 0.37654 0.0
C614 C 0.58603 0.0336 0.42252 0.0
C615 C 0.60365 0.01403 0.43444 0.0
C616 C 0.57823 0.02748 0.39923 0.0
C617 C 0.58761 0.00153 0.38737 0.0
C618 C 0.60615 0.98267 0.39899 0.0
H619 H 0.54303 0.9618 0.23961 0.0
H620 H 0.57649 0.9732 0.27718 0.0
C621 C 0.61415 0.98889 0.42237 0.0
C622 C 0.57605 0.99316 0.36305 0.0
H623 H 0.50624 0.92083 0.32724 0.0
C624 C 0.59378 0.02539 0.34755 0.0
C625 C 0.54461 0.95477 0.35562 0.0
C626 C 0.5239 0.91947 0.37174 0.0
C627 C 0.58012 0.02045 0.32487 0.0
C628 C 0.54797 0.98241 0.31767 0.0
C629 C 0.53103 0.94988 0.33295 0.0
C630 C 0.52906 0.97673 0.29493 0.0
C631 C 0.59873 0.05619 0.30893 0.0
C632 C 0.49165 0.97522 0.29265 0.0
C633 C 0.4729 0.96913 0.27135 0.0
C634 C 0.49105 0.96395 0.25208 0.0
C635 C 0.52867 0.96579 0.25433 0.0
C636 C 0.54763 0.97219 0.27566 0.0
H637 H 0.62234 0.08429 0.31747 0.0
H638 H 0.61267 0.04929 0.29446 0.0
H639 H 0.5748 0.06179 0.30184 0.0
H640 H 0.47705 0.9789 0.30738 0.0
H641 H 0.4443 0.9686 0.26985 0.0
H642 H 0.64696 0.6504 0.77192 0.0
H643 H 0.64768 0.6326 0.73217 0.0
H644 H 0.51709 0.56128 0.73131 0.0
H645 H 0.51597 0.57933 0.771 0.0
H646 H 0.61794 0.55664 0.71267 0.0
H647 H 0.54033 0.63499 0.6762 0.0
H648 H 0.56072 0.64417 0.70483 0.0
H649 H 0.5129 0.59962 0.69838 0.0
C650 C 0.61835 0.63095 0.76329 0.0
C651 C 0.58138 0.61643 0.77461 0.0
C652 C 0.61884 0.62085 0.74058 0.0
C653 C 0.58242 0.59622 0.7287 0.0
C654 C 0.54549 0.5811 0.74002 0.0
H655 H 0.52493 0.49309 0.59285 0.0
H656 H 0.52271 0.51332 0.63224 0.0
C657 C 0.54494 0.59124 0.76275 0.0
C658 C 0.58326 0.58569 0.70462 0.0
H659 H 0.55165 0.59313 0.65111 0.0
C660 C 0.60362 0.56477 0.69919 0.0
C661 C 0.5645 0.59634 0.6871 0.0
C662 C 0.54368 0.62034 0.69182 0.0
C663 C 0.60523 0.55365 0.67671 0.0
C664 C 0.58645 0.56427 0.65922 0.0
C665 C 0.566 0.58509 0.66462 0.0
C666 C 0.58757 0.55371 0.63521 0.0
C667 C 0.62632 0.52993 0.6719 0.0
C668 C 0.62458 0.57053 0.62379 0.0
C669 C 0.62573 0.55893 0.60146 0.0
C670 C 0.58997 0.53038 0.59036 0.0
C671 C 0.5528 0.51469 0.60144 0.0
C672 C 0.55158 0.52631 0.62375 0.0
H673 H 0.63102 0.51634 0.68758 0.0
H674 H 0.60862 0.50533 0.6594 0.0
H675 H 0.65647 0.55055 0.66456 0.0
H676 H 0.65256 0.5923 0.63222 0.0
H677 H 0.65453 0.5715 0.59296 0.0
H678 H 0.61017 0.97814 0.5709 0.0
H679 H 0.60424 0.98207 0.61209 0.0
H680 H 0.61343 0.09902 0.60446 0.0
H681 H 0.61915 0.09546 0.56345 0.0
H682 H 0.65808 0.04294 0.64413 0.0
H683 H 0.5067 0.0301 0.63944 0.0
H684 H 0.52771 0.01646 0.61605 0.0
H685 H 0.54324 0.06878 0.62129 0.0
C686 C 0.61102 0.00475 0.57798 0.0
C687 C 0.61475 0.03632 0.5638 0.0
C688 C 0.60764 0.00691 0.60151 0.0
C689 C 0.60767 0.04048 0.6112 0.0
C690 C 0.61255 0.07248 0.59722 0.0
H691 H 0.65398 0.15295 0.74004 0.0
H692 H 0.65723 0.12608 0.70287 0.0
C693 C 0.616 0.07044 0.57377 0.0
C694 C 0.60258 0.04249 0.63593 0.0
H695 H 0.54372 0.05493 0.67445 0.0
C696 C 0.63281 0.04498 0.65085 0.0
C697 C 0.56917 0.04429 0.64467 0.0
C698 C 0.53462 0.03936 0.62957 0.0
C699 C 0.63168 0.05167 0.67421 0.0
C700 C 0.59978 0.05649 0.68267 0.0
C701 C 0.56835 0.05158 0.66791 0.0
C702 C 0.6 0.07008 0.70623 0.0
C703 C 0.66491 0.05412 0.68954 0.0
C704 C 0.56667 0.04769 0.72038 0.0
C705 C 0.5647 0.06333 0.74147 0.0
C706 C 0.59586 0.10162 0.74855 0.0
C707 C 0.62968 0.1234 0.73474 0.0
C708 C 0.63169 0.10785 0.7137 0.0
H709 H 0.67856 0.03682 0.68237 0.0
H710 H 0.68928 0.08628 0.69121 0.0
H711 H 0.65342 0.04228 0.70675 0.0
H712 H 0.54174 0.01866 0.71483 0.0
H713 H 0.53829 0.04631 0.75191 0.0
H714 H 0.65107 0.61798 0.90091 0.0
H715 H 0.64945 0.60591 0.94183 0.0
H716 H 0.54708 0.62419 0.94766 0.0
H717 H 0.54805 0.63593 0.9068 0.0
H718 H 0.6532 0.65353 0.98036 0.0
H719 H 0.50698 0.50893 0.97305 0.0
H720 H 0.53779 0.53437 0.94876 0.0
H721 H 0.50579 0.55153 0.96067 0.0
C722 C 0.6284 0.61983 0.91089 0.0
C723 C 0.5994 0.62754 0.90049 0.0
C724 C 0.62759 0.61295 0.93428 0.0
C725 C 0.59774 0.6135 0.94763 0.0
C726 C 0.56992 0.62295 0.93753 0.0
H727 H 0.56077 0.6227 0.08886 0.0
H728 H 0.58676 0.63873 0.05011 0.0
C729 C 0.57064 0.62981 0.91417 0.0
C730 C 0.5945 0.60263 0.97197 0.0
H731 H 0.52913 0.53521 0.01037 0.0
C732 C 0.62629 0.62747 0.98697 0.0
C733 C 0.55977 0.56808 0.9804 0.0
C734 C 0.52578 0.53892 0.96487 0.0
C735 C 0.62335 0.61968 0.01043 0.0
C736 C 0.5875 0.58653 0.019 0.0
C737 C 0.55657 0.56073 0.00382 0.0
C738 C 0.57962 0.57953 0.04365 0.0
C739 C 0.65853 0.64706 0.02579 0.0
C740 C 0.56744 0.54115 0.05302 0.0
C741 C 0.55213 0.53195 0.07501 0.0
C742 C 0.54872 0.56096 0.08787 0.0
C743 C 0.5633 0.60007 0.0791 0.0
C744 C 0.57842 0.60925 0.0571 0.0
H745 H 0.68757 0.6614 0.01646 0.0
H746 H 0.65385 0.67171 0.03227 0.0
H747 H 0.66114 0.63019 0.04054 0.0
H748 H 0.56788 0.5177 0.04288 0.0
H749 H 0.54061 0.5015 0.08146 0.0
H750 H 0.04098 0.52111 0.23185 0.0
H751 H 0.04743 0.51697 0.27283 0.0
H752 H 0.92935 0.40932 0.27462 0.0
H753 H 0.92213 0.41354 0.23339 0.0
H754 H 0.94037 0.46376 0.30842 0.0
H755 H 0.07074 0.43809 0.30717 0.0
H756 H 0.08062 0.48205 0.29099 0.0
H757 H 0.04055 0.43274 0.28209 0.0
C758 C 0.01633 0.49639 0.24085 0.0
C759 C 0.98111 0.46751 0.22925 0.0
C760 C 0.02023 0.49394 0.26431 0.0
C761 C 0.98928 0.46232 0.27669 0.0
C762 C 0.95376 0.43373 0.26531 0.0
H763 H 0.06046 0.45625 0.41824 0.0
H764 H 0.02842 0.43006 0.38089 0.0
C765 C 0.94972 0.43623 0.24177 0.0
C766 C 0.99398 0.46033 0.30161 0.0
H767 H 0.06103 0.46482 0.3421 0.0
C768 C 0.96633 0.46324 0.31585 0.0
C769 C 0.02725 0.45861 0.31133 0.0
C770 C 0.0562 0.45223 0.29708 0.0
C771 C 0.97271 0.46736 0.33948 0.0
C772 C 0.00809 0.46951 0.34897 0.0
C773 C 0.03415 0.46372 0.33485 0.0
C774 C 0.02095 0.48156 0.37293 0.0
C775 C 0.94179 0.47 0.35397 0.0
C776 C 0.02673 0.51876 0.38101 0.0
C777 C 0.04447 0.53331 0.40234 0.0
C778 C 0.05739 0.5113 0.41578 0.0
C779 C 0.05038 0.47347 0.40814 0.0
C780 C 0.03229 0.45868 0.38684 0.0
H781 H 0.91102 0.45295 0.3461 0.0
H782 H 0.94081 0.45795 0.37131 0.0
H783 H 0.94974 0.50221 0.35541 0.0
H784 H 0.01928 0.53751 0.37042 0.0
H785 H 0.04953 0.56248 0.40807 0.0
loop_
_geom_bond_atom_site_label_1
_geom_bond_atom_site_label_2
_geom_bond_distance
_geom_bond_site_symmetry_2
_ccdc_geom_bond_type
Zn0 O6 1.969 . S
Zn0 O7 1.965 . S
Zn0 O11 2.024 . S
Zn0 O16 1.969 . S
Zn1 O8 1.969 . S
Zn1 O14 1.969 . S
Zn1 O15 1.965 . S
Zn1 O17 2.024 . S
C2 O3 1.229 . S
C2 O11 1.058 . S
O3 C2 1.229 . S
C4 O5 1.229 . S
C4 O17 1.058 . S
O5 C4 1.229 . S
O6 Zn0 1.969 . S
O6 C9 1.267 . S
O7 Zn0 1.965 . S
O7 C18 1.260 1_455 S
O8 Zn1 1.969 . S
O8 C18 1.258 . S
C9 O6 1.267 . S
C9 O10 1.228 . S
O10 C9 1.228 . S
O11 Zn0 2.024 . S
O11 C2 1.058 . S
C12 O13 1.228 . S
C12 O14 1.267 . S
O13 C12 1.228 . S
O14 Zn1 1.969 . S
O14 C12 1.267 . S
O15 Zn1 1.965 . S
O15 C19 1.260 1_655 S
O16 Zn0 1.969 . S
O16 C19 1.258 . S
O17 Zn1 2.024 . S
O17 C4 1.058 . S
C18 O7 1.260 1_655 S
C18 O8 1.258 . S
C19 O15 1.260 1_455 S
C19 O16 1.258 . S
Zn20 O26 1.969 . S
Zn20 O27 1.965 . S
Zn20 O31 2.024 . S
Zn20 O36 1.969 . S
Zn21 O28 1.969 . S
Zn21 O34 1.969 . S
Zn21 O35 1.965 1_565 S
Zn21 O37 2.024 . S
C22 O23 1.229 . S
C22 O31 1.058 . S
O23 C22 1.229 . S
C24 O25 1.229 . S
C24 O37 1.058 . S
O25 C24 1.229 . S
O26 Zn20 1.969 . S
O26 C29 1.267 . S
O27 Zn20 1.965 . S
O27 C38 1.260 . S
O28 Zn21 1.969 . S
O28 C38 1.258 1_565 S
C29 O26 1.267 . S
C29 O30 1.228 . S
O30 C29 1.228 . S
O31 Zn20 2.024 . S
O31 C22 1.058 . S
C32 O33 1.228 . S
C32 O34 1.267 . S
O33 C32 1.228 . S
O34 Zn21 1.969 . S
O34 C32 1.267 . S
O35 Zn21 1.965 1_545 S
O35 C39 1.260 . S
O36 Zn20 1.969 . S
O36 C39 1.258 . S
O37 Zn21 2.024 . S
O37 C24 1.058 . S
C38 O27 1.260 . S
C38 O28 1.258 1_545 S
C39 O35 1.260 . S
C39 O36 1.258 . S
Zn40 O46 1.969 . S
Zn40 O47 1.965 . S
Zn40 O51 2.024 . S
Zn40 O56 1.969 . S
Zn41 O48 1.969 . S
Zn41 O54 1.969 . S
Zn41 O55 1.965 . S
Zn41 O57 2.024 . S
C42 O43 1.229 . S
C42 O51 1.058 . S
O43 C42 1.229 . S
C44 O45 1.229 . S
C44 O57 1.058 . S
O45 C44 1.229 . S
O46 Zn40 1.969 . S
O46 C49 1.267 . S
O47 Zn40 1.965 . S
O47 C58 1.260 . S
O48 Zn41 1.969 . S
O48 C58 1.258 . S
C49 O46 1.267 . S
C49 O50 1.228 . S
O50 C49 1.228 . S
O51 Zn40 2.024 . S
O51 C42 1.058 . S
C52 O53 1.228 . S
C52 O54 1.267 . S
O53 C52 1.228 . S
O54 Zn41 1.969 . S
O54 C52 1.267 . S
O55 Zn41 1.965 . S
O55 C59 1.260 . S
O56 Zn40 1.969 . S
O56 C59 1.258 . S
O57 Zn41 2.024 . S
O57 C44 1.058 . S
C58 O47 1.260 . S
C58 O48 1.258 . S
C59 O55 1.260 . S
C59 O56 1.258 . S
C60 N61 1.317 . S
C60 N62 1.348 1_545 S
C60 C63 1.485 . S
N61 C60 1.317 . S
N61 N65 1.370 . S
N62 C60 1.348 1_565 S
N62 C64 1.346 . S
C63 C60 1.485 . S
C63 H67 0.960 . S
C63 H68 0.961 1_545 S
C63 H69 0.960 . S
C64 N62 1.346 . S
C64 N65 1.307 1_565 S
C64 C66 1.486 . S
N65 N61 1.370 . S
N65 C64 1.307 1_545 S
C66 C64 1.486 . S
C66 H70 0.960 . S
C66 H71 0.960 . S
C66 H72 0.959 . S
H67 C63 0.960 . S
H68 C63 0.961 1_565 S
H69 C63 0.960 . S
H70 C66 0.960 . S
H71 C66 0.960 . S
H72 C66 0.959 . S
C73 N74 1.317 . S
C73 N75 1.348 . S
C73 C76 1.485 . S
N74 C73 1.317 . S
N74 N78 1.370 . S
N75 C73 1.348 . S
N75 C77 1.346 . S
C76 C73 1.485 . S
C76 H80 0.960 . S
C76 H81 0.961 . S
C76 H82 0.960 . S
C77 N75 1.346 . S
C77 N78 1.307 . S
C77 C79 1.486 . S
N78 N74 1.370 . S
N78 C77 1.307 . S
C79 C77 1.486 . S
C79 H83 0.960 . S
C79 H84 0.960 . S
C79 H85 0.959 . S
H80 C76 0.960 . S
H81 C76 0.961 . S
H82 C76 0.960 . S
H83 C79 0.960 . S
H84 C79 0.960 . S
H85 C79 0.959 . S
C86 N87 1.317 . S
C86 N88 1.348 . S
C86 C89 1.485 . S
N87 C86 1.317 . S
N87 N91 1.370 . S
N88 C86 1.348 . S
N88 C90 1.346 . S
C89 C86 1.485 . S
C89 H93 0.960 . S
C89 H94 0.961 . S
C89 H95 0.960 . S
C90 N88 1.346 . S
C90 N91 1.307 . S
C90 C92 1.486 1_455 S
N91 N87 1.370 . S
N91 C90 1.307 . S
C92 C90 1.486 1_655 S
C92 H96 0.960 . S
C92 H97 0.960 . S
C92 H98 0.959 . S
H93 C89 0.960 . S
H94 C89 0.961 . S
H95 C89 0.960 . S
H96 C92 0.960 . S
H97 C92 0.960 . S
H98 C92 0.959 . S
C99 N100 1.317 . S
C99 N101 1.348 . S
C99 C102 1.485 . S
N100 C99 1.317 . S
N100 N104 1.370 . S
N101 C99 1.348 . S
N101 C103 1.346 . S
C102 C99 1.485 . S
C102 H106 0.960 . S
C102 H107 0.961 . S
C102 H108 0.960 . S
C103 N101 1.346 . S
C103 N104 1.307 . S
C103 C105 1.486 . S
N104 N100 1.370 . S
N104 C103 1.307 . S
C105 C103 1.486 . S
C105 H109 0.960 . S
C105 H110 0.960 . S
C105 H111 0.959 . S
H106 C102 0.960 . S
H107 C102 0.961 . S
H108 C102 0.960 . S
H109 C105 0.960 . S
H110 C105 0.960 . S
H111 C105 0.959 . S
C112 N113 1.317 . S
C112 N114 1.348 . S
C112 C115 1.485 . S
N113 C112 1.317 . S
N113 N117 1.370 . S
N114 C112 1.348 . S
N114 C116 1.346 . S
C115 C112 1.485 . S
C115 H119 0.960 . S
C115 H120 0.961 . S
C115 H121 0.960 . S
C116 N114 1.346 . S
C116 N117 1.307 . S
C116 C118 1.486 . S
N117 N113 1.370 . S
N117 C116 1.307 . S
C118 C116 1.486 . S
C118 H122 0.960 . S
C118 H123 0.960 . S
C118 H124 0.959 . S
H119 C115 0.960 . S
H120 C115 0.961 . S
H121 C115 0.960 . S
H122 C118 0.960 . S
H123 C118 0.960 . S
H124 C118 0.959 . S
C125 N126 1.317 . S
C125 N127 1.348 . S
C125 C128 1.485 . S
N126 C125 1.317 . S
N126 N130 1.370 . S
N127 C125 1.348 . S
N127 C129 1.346 . S
C128 C125 1.485 . S
C128 H132 0.960 . S
C128 H133 0.961 . S
C128 H134 0.960 . S
C129 N127 1.346 . S
C129 N130 1.307 . S
C129 C131 1.486 . S
N130 N126 1.370 . S
N130 C129 1.307 . S
C131 C129 1.486 . S
C131 H135 0.960 . S
C131 H136 0.960 . S
C131 H137 0.959 . S
H132 C128 0.960 . S
H133 C128 0.961 . S
H134 C128 0.960 . S
H135 C131 0.960 . S
H136 C131 0.960 . S
H137 C131 0.959 . S
H138 C146 0.929 . S
H139 C148 0.930 . S
H140 C150 0.930 . S
H141 C153 0.929 . S
H142 C156 0.930 . S
H143 C158 0.960 . S
H144 C158 0.960 . S
H145 C158 0.960 . S
C146 H138 0.929 . S
C146 C147 1.377 . S
C146 C148 1.384 . S
C147 C146 1.377 . S
C147 C153 1.390 . S
C148 H139 0.930 . S
C148 C146 1.384 . S
C148 C149 1.372 . S
C149 C148 1.372 . S
C149 C150 1.400 . S
C149 C154 1.490 . S
C150 H140 0.930 . S
C150 C149 1.400 . S
C150 C153 1.386 . S
H151 C167 0.930 . S
H152 C168 0.931 . S
C153 H141 0.929 . S
C153 C147 1.390 . S
C153 C150 1.386 . S
C154 C149 1.490 . S
C154 C156 1.395 . S
C154 C157 1.403 . S
H155 C161 0.930 . S
C156 H142 0.930 . S
C156 C154 1.395 . S
C156 C159 1.403 . S
C157 C154 1.403 . S
C157 C158 1.524 . S
C157 C161 1.400 . S
C158 H143 0.960 . S
C158 H144 0.960 . S
C158 H145 0.960 . S
C158 C157 1.524 . S
C159 C156 1.403 . S
C159 C160 1.392 . S
C159 C163 1.495 . S
C160 C159 1.392 . S
C160 C161 1.385 . S
C160 C162 1.478 . S
C161 H155 0.930 . S
C161 C157 1.400 . S
C161 C160 1.385 . S
C162 C160 1.478 . S
C162 C164 1.381 . S
C162 C168 1.383 . S
C163 C159 1.495 . S
C163 H169 0.959 . S
C163 H170 0.961 . S
C163 H171 0.960 . S
C164 C162 1.381 . S
C164 C165 1.394 . S
C164 H172 0.930 . S
C165 C164 1.394 . S
C165 C166 1.383 . S
C165 H173 0.929 . S
C166 C165 1.383 . S
C166 C167 1.377 . S
C167 H151 0.930 . S
C167 C166 1.377 . S
C167 C168 1.379 . S
C168 H152 0.931 . S
C168 C162 1.383 . S
C168 C167 1.379 . S
H169 C163 0.959 . S
H170 C163 0.961 . S
H171 C163 0.960 . S
H172 C164 0.930 . S
H173 C165 0.929 . S
H174 C182 0.929 . S
H175 C184 0.930 . S
H176 C186 0.930 . S
H177 C189 0.929 . S
H178 C192 0.930 . S
H179 C194 0.960 . S
H180 C194 0.960 . S
H181 C194 0.960 . S
C182 H174 0.929 . S
C182 C183 1.377 . S
C182 C184 1.384 . S
C183 C182 1.377 . S
C183 C189 1.390 . S
C184 H175 0.930 . S
C184 C182 1.384 . S
C184 C185 1.372 . S
C185 C184 1.372 . S
C185 C186 1.400 . S
C185 C190 1.490 . S
C186 H176 0.930 . S
C186 C185 1.400 . S
C186 C189 1.386 . S
H187 C203 0.930 . S
H188 C204 0.931 . S
C189 H177 0.929 . S
C189 C183 1.390 . S
C189 C186 1.386 . S
C190 C185 1.490 . S
C190 C192 1.395 . S
C190 C193 1.403 . S
H191 C197 0.930 . S
C192 H178 0.930 . S
C192 C190 1.395 . S
C192 C195 1.403 . S
C193 C190 1.403 . S
C193 C194 1.524 . S
C193 C197 1.400 . S
C194 H179 0.960 . S
C194 H180 0.960 . S
C194 H181 0.960 . S
C194 C193 1.524 . S
C195 C192 1.403 . S
C195 C196 1.392 . S
C195 C199 1.495 . S
C196 C195 1.392 . S
C196 C197 1.385 . S
C196 C198 1.478 . S
C197 H191 0.930 . S
C197 C193 1.400 . S
C197 C196 1.385 . S
C198 C196 1.478 . S
C198 C200 1.381 . S
C198 C204 1.383 . S
C199 C195 1.495 . S
C199 H205 0.959 . S
C199 H206 0.961 . S
C199 H207 0.960 . S
C200 C198 1.381 . S
C200 C201 1.394 1_655 S
C200 H208 0.930 . S
C201 C200 1.394 1_455 S
C201 C202 1.383 . S
C201 H209 0.929 . S
C202 C201 1.383 . S
C202 C203 1.377 1_455 S
C203 H187 0.930 . S
C203 C202 1.377 1_655 S
C203 C204 1.379 . S
C204 H188 0.931 . S
C204 C198 1.383 . S
C204 C203 1.379 . S
H205 C199 0.959 . S
H206 C199 0.961 . S
H207 C199 0.960 . S
H208 C200 0.930 . S
H209 C201 0.929 . S
H210 C218 0.929 . S
H211 C220 0.930 . S
H212 C222 0.930 . S
H213 C225 0.929 . S
H214 C228 0.930 . S
H215 C230 0.960 . S
H216 C230 0.960 . S
H217 C230 0.960 . S
C218 H210 0.929 . S
C218 C219 1.377 . S
C218 C220 1.384 . S
C219 C218 1.377 . S
C219 C225 1.390 . S
C220 H211 0.930 . S
C220 C218 1.384 . S
C220 C221 1.372 . S
C221 C220 1.372 . S
C221 C222 1.400 . S
C221 C226 1.490 . S
C222 H212 0.930 . S
C222 C221 1.400 . S
C222 C225 1.386 . S
H223 C239 0.930 1_545 S
H224 C240 0.931 . S
C225 H213 0.929 . S
C225 C219 1.390 . S
C225 C222 1.386 . S
C226 C221 1.490 . S
C226 C228 1.395 . S
C226 C229 1.403 . S
H227 C233 0.930 . S
C228 H214 0.930 . S
C228 C226 1.395 . S
C228 C231 1.403 . S
C229 C226 1.403 . S
C229 C230 1.524 . S
C229 C233 1.400 . S
C230 H215 0.960 . S
C230 H216 0.960 . S
C230 H217 0.960 . S
C230 C229 1.524 . S
C231 C228 1.403 . S
C231 C232 1.392 . S
C231 C235 1.495 . S
C232 C231 1.392 . S
C232 C233 1.385 . S
C232 C234 1.478 . S
C233 H227 0.930 . S
C233 C229 1.400 . S
C233 C232 1.385 . S
C234 C232 1.478 . S
C234 C236 1.381 . S
C234 C240 1.383 . S
C235 C231 1.495 . S
C235 H241 0.959 . S
C235 H242 0.961 . S
C235 H243 0.960 . S
C236 C234 1.381 . S
C236 C237 1.394 1_565 S
C236 H244 0.930 . S
C237 C236 1.394 1_545 S
C237 C238 1.383 . S
C237 H245 0.929 . S
C238 C237 1.383 . S
C238 C239 1.377 1_545 S
C239 H223 0.930 1_565 S
C239 C238 1.377 1_565 S
C239 C240 1.379 . S
C240 H224 0.931 . S
C240 C234 1.383 . S
C240 C239 1.379 . S
H241 C235 0.959 . S
H242 C235 0.961 . S
H243 C235 0.960 . S
H244 C236 0.930 . S
H245 C237 0.929 . S
H246 C254 0.929 . S
H247 C256 0.930 . S
H248 C258 0.930 . S
H249 C261 0.929 . S
H250 C264 0.930 . S
H251 C266 0.960 . S
H252 C266 0.960 . S
H253 C266 0.960 . S
C254 H246 0.929 . S
C254 C255 1.377 . S
C254 C256 1.384 . S
C255 C254 1.377 . S
C255 C261 1.390 . S
C256 H247 0.930 . S
C256 C254 1.384 . S
C256 C257 1.372 . S
C257 C256 1.372 . S
C257 C258 1.400 . S
C257 C262 1.490 . S
C258 H248 0.930 . S
C258 C257 1.400 . S
C258 C261 1.386 . S
H259 C275 0.930 . S
H260 C276 0.931 . S
C261 H249 0.929 . S
C261 C255 1.390 . S
C261 C258 1.386 . S
C262 C257 1.490 . S
C262 C264 1.395 . S
C262 C265 1.403 . S
H263 C269 0.930 . S
C264 H250 0.930 . S
C264 C262 1.395 . S
C264 C267 1.403 . S
C265 C262 1.403 . S
C265 C266 1.524 . S
C265 C269 1.400 . S
C266 H251 0.960 . S
C266 H252 0.960 . S
C266 H253 0.960 . S
C266 C265 1.524 . S
C267 C264 1.403 . S
C267 C268 1.392 . S
C267 C271 1.495 . S
C268 C267 1.392 . S
C268 C269 1.385 . S
C268 C270 1.478 . S
C269 H263 0.930 . S
C269 C265 1.400 . S
C269 C268 1.385 . S
C270 C268 1.478 . S
C270 C272 1.381 . S
C270 C276 1.383 . S
C271 C267 1.495 . S
C271 H277 0.959 . S
C271 H278 0.961 . S
C271 H279 0.960 . S
C272 C270 1.381 . S
C272 C273 1.394 . S
C272 H280 0.930 . S
C273 C272 1.394 . S
C273 C274 1.383 . S
C273 H281 0.929 . S
C274 C273 1.383 . S
C274 C275 1.377 . S
C275 H259 0.930 . S
C275 C274 1.377 . S
C275 C276 1.379 . S
C276 H260 0.931 . S
C276 C270 1.383 . S
C276 C275 1.379 . S
H277 C271 0.959 . S
H278 C271 0.961 . S
H279 C271 0.960 . S
H280 C272 0.930 . S
H281 C273 0.929 . S
H282 C290 0.929 . S
H283 C292 0.930 . S
H284 C294 0.930 . S
H285 C297 0.929 . S
H286 C300 0.930 . S
H287 C302 0.960 . S
H288 C302 0.960 . S
H289 C302 0.960 . S
C290 H282 0.929 . S
C290 C291 1.377 . S
C290 C292 1.384 . S
C291 C290 1.377 . S
C291 C297 1.390 . S
C292 H283 0.930 . S
C292 C290 1.384 . S
C292 C293 1.372 . S
C293 C292 1.372 . S
C293 C294 1.400 . S
C293 C298 1.490 . S
C294 H284 0.930 . S
C294 C293 1.400 . S
C294 C297 1.386 . S
H295 C311 0.930 . S
H296 C312 0.931 . S
C297 H285 0.929 . S
C297 C291 1.390 . S
C297 C294 1.386 . S
C298 C293 1.490 . S
C298 C300 1.395 . S
C298 C301 1.403 . S
H299 C305 0.930 . S
C300 H286 0.930 . S
C300 C298 1.395 . S
C300 C303 1.403 . S
C301 C298 1.403 . S
C301 C302 1.524 . S
C301 C305 1.400 . S
C302 H287 0.960 . S
C302 H288 0.960 . S
C302 H289 0.960 . S
C302 C301 1.524 . S
C303 C300 1.403 . S
C303 C304 1.392 . S
C303 C307 1.495 . S
C304 C303 1.392 . S
C304 C305 1.385 . S
C304 C306 1.478 . S
C305 H299 0.930 . S
C305 C301 1.400 . S
C305 C304 1.385 . S
C306 C304 1.478 . S
C306 C308 1.381 . S
C306 C312 1.383 . S
C307 C303 1.495 . S
C307 H313 0.959 . S
C307 H314 0.961 . S
C307 H315 0.960 . S
C308 C306 1.381 . S
C308 C309 1.394 . S
C308 H316 0.930 . S
C309 C308 1.394 . S
C309 C310 1.383 . S
C309 H317 0.929 . S
C310 C309 1.383 . S
C310 C311 1.377 . S
C311 H295 0.930 . S
C311 C310 1.377 . S
C311 C312 1.379 . S
C312 H296 0.931 . S
C312 C306 1.383 . S
C312 C311 1.379 . S
H313 C307 0.959 . S
H314 C307 0.961 . S
H315 C307 0.960 . S
H316 C308 0.930 . S
H317 C309 0.929 . S
H318 C326 0.929 . S
H319 C328 0.930 . S
H320 C330 0.930 . S
H321 C333 0.929 . S
H322 C336 0.930 . S
H323 C338 0.960 . S
H324 C338 0.960 . S
H325 C338 0.960 . S
C326 H318 0.929 . S
C326 C327 1.377 . S
C326 C328 1.384 . S
C327 C326 1.377 . S
C327 C333 1.390 . S
C328 H319 0.930 . S
C328 C326 1.384 . S
C328 C329 1.372 . S
C329 C328 1.372 . S
C329 C330 1.400 . S
C329 C334 1.490 . S
C330 H320 0.930 . S
C330 C329 1.400 . S
C330 C333 1.386 . S
H331 C347 0.930 . S
H332 C348 0.931 . S
C333 H321 0.929 . S
C333 C327 1.390 . S
C333 C330 1.386 . S
C334 C329 1.490 . S
C334 C336 1.395 . S
C334 C337 1.403 . S
H335 C341 0.930 . S
C336 H322 0.930 . S
C336 C334 1.395 . S
C336 C339 1.403 . S
C337 C334 1.403 . S
C337 C338 1.524 . S
C337 C341 1.400 . S
C338 H323 0.960 . S
C338 H324 0.960 . S
C338 H325 0.960 . S
C338 C337 1.524 . S
C339 C336 1.403 . S
C339 C340 1.392 . S
C339 C343 1.495 . S
C340 C339 1.392 . S
C340 C341 1.385 . S
C340 C342 1.478 . S
C341 H335 0.930 . S
C341 C337 1.400 . S
C341 C340 1.385 . S
C342 C340 1.478 . S
C342 C344 1.381 . S
C342 C348 1.383 . S
C343 C339 1.495 . S
C343 H349 0.959 . S
C343 H350 0.961 . S
C343 H351 0.960 . S
C344 C342 1.381 . S
C344 C345 1.394 . S
C344 H352 0.930 . S
C345 C344 1.394 . S
C345 C346 1.383 . S
C345 H353 0.929 . S
C346 C345 1.383 . S
C346 C347 1.377 . S
C347 H331 0.930 . S
C347 C346 1.377 . S
C347 C348 1.379 . S
C348 H332 0.931 . S
C348 C342 1.383 . S
C348 C347 1.379 . S
H349 C343 0.959 . S
H350 C343 0.961 . S
H351 C343 0.960 . S
H352 C344 0.930 . S
H353 C345 0.929 . S
H354 C362 0.929 . S
H355 C364 0.930 . S
H356 C366 0.930 . S
H357 C369 0.929 . S
H358 C372 0.930 . S
H359 C374 0.960 . S
H360 C374 0.960 . S
H361 C374 0.960 . S
C362 H354 0.929 . S
C362 C363 1.377 . S
C362 C364 1.384 . S
C363 C362 1.377 . S
C363 C369 1.390 . S
C364 H355 0.930 . S
C364 C362 1.384 . S
C364 C365 1.372 . S
C365 C364 1.372 . S
C365 C366 1.400 . S
C365 C370 1.490 . S
C366 H356 0.930 . S
C366 C365 1.400 . S
C366 C369 1.386 . S
H367 C383 0.930 . S
H368 C384 0.931 . S
C369 H357 0.929 . S
C369 C363 1.390 . S
C369 C366 1.386 . S
C370 C365 1.490 . S
C370 C372 1.395 . S
C370 C373 1.403 . S
H371 C377 0.930 . S
C372 H358 0.930 . S
C372 C370 1.395 . S
C372 C375 1.403 . S
C373 C370 1.403 . S
C373 C374 1.524 . S
C373 C377 1.400 . S
C374 H359 0.960 . S
C374 H360 0.960 . S
C374 H361 0.960 . S
C374 C373 1.524 . S
C375 C372 1.403 . S
C375 C376 1.392 . S
C375 C379 1.495 . S
C376 C375 1.392 . S
C376 C377 1.385 . S
C376 C378 1.478 . S
C377 H371 0.930 . S
C377 C373 1.400 . S
C377 C376 1.385 . S
C378 C376 1.478 . S
C378 C380 1.381 . S
C378 C384 1.383 . S
C379 C375 1.495 . S
C379 H385 0.959 . S
C379 H386 0.961 . S
C379 H387 0.960 . S
C380 C378 1.381 . S
C380 C381 1.394 . S
C380 H388 0.930 . S
C381 C380 1.394 . S
C381 C382 1.383 . S
C381 H389 0.929 . S
C382 C381 1.383 . S
C382 C383 1.377 . S
C383 H367 0.930 . S
C383 C382 1.377 . S
C383 C384 1.379 . S
C384 H368 0.931 . S
C384 C378 1.383 . S
C384 C383 1.379 . S
H385 C379 0.959 . S
H386 C379 0.961 . S
H387 C379 0.960 . S
H388 C380 0.930 . S
H389 C381 0.929 . S
H390 C398 0.929 . S
H391 C400 0.930 . S
H392 C402 0.930 . S
H393 C405 0.929 . S
H394 C408 0.930 . S
H395 C410 0.960 . S
H396 C410 0.960 . S
H397 C410 0.960 . S
C398 H390 0.929 . S
C398 C399 1.377 . S
C398 C400 1.384 . S
C399 C398 1.377 . S
C399 C405 1.390 . S
C400 H391 0.930 . S
C400 C398 1.384 . S
C400 C401 1.372 . S
C401 C400 1.372 . S
C401 C402 1.400 . S
C401 C406 1.490 . S
C402 H392 0.930 . S
C402 C401 1.400 . S
C402 C405 1.386 . S
H403 C419 0.930 1_455 S
H404 C420 0.931 . S
C405 H393 0.929 . S
C405 C399 1.390 . S
C405 C402 1.386 . S
C406 C401 1.490 . S
C406 C408 1.395 . S
C406 C409 1.403 . S
H407 C413 0.930 . S
C408 H394 0.930 . S
C408 C406 1.395 . S
C408 C411 1.403 . S
C409 C406 1.403 . S
C409 C410 1.524 . S
C409 C413 1.400 . S
C410 H395 0.960 . S
C410 H396 0.960 . S
C410 H397 0.960 . S
C410 C409 1.524 . S
C411 C408 1.403 . S
C411 C412 1.392 . S
C411 C415 1.495 . S
C412 C411 1.392 . S
C412 C413 1.385 . S
C412 C414 1.478 . S
C413 H407 0.930 . S
C413 C409 1.400 . S
C413 C412 1.385 . S
C414 C412 1.478 . S
C414 C416 1.381 . S
C414 C420 1.383 . S
C415 C411 1.495 . S
C415 H421 0.959 . S
C415 H422 0.961 . S
C415 H423 0.960 . S
C416 C414 1.381 . S
C416 C417 1.394 . S
C416 H424 0.930 . S
C417 C416 1.394 . S
C417 C418 1.383 . S
C417 H425 0.929 . S
C418 C417 1.383 . S
C418 C419 1.377 . S
C419 H403 0.930 1_655 S
C419 C418 1.377 . S
C419 C420 1.379 . S
C420 H404 0.931 . S
C420 C414 1.383 . S
C420 C419 1.379 . S
H421 C415 0.959 . S
H422 C415 0.961 . S
H423 C415 0.960 . S
H424 C416 0.930 . S
H425 C417 0.929 . S
H426 C434 0.929 . S
H427 C436 0.930 . S
H428 C438 0.930 . S
H429 C441 0.929 . S
H430 C444 0.930 . S
H431 C446 0.960 . S
H432 C446 0.960 . S
H433 C446 0.960 . S
C434 H426 0.929 . S
C434 C435 1.377 . S
C434 C436 1.384 . S
C435 C434 1.377 . S
C435 C441 1.390 . S
C436 H427 0.930 . S
C436 C434 1.384 . S
C436 C437 1.372 . S
C437 C436 1.372 . S
C437 C438 1.400 . S
C437 C442 1.490 . S
C438 H428 0.930 . S
C438 C437 1.400 . S
C438 C441 1.386 . S
H439 C455 0.930 . S
H440 C456 0.931 . S
C441 H429 0.929 . S
C441 C435 1.390 . S
C441 C438 1.386 . S
C442 C437 1.490 . S
C442 C444 1.395 . S
C442 C445 1.403 . S
H443 C449 0.930 . S
C444 H430 0.930 . S
C444 C442 1.395 . S
C444 C447 1.403 . S
C445 C442 1.403 . S
C445 C446 1.524 . S
C445 C449 1.400 . S
C446 H431 0.960 . S
C446 H432 0.960 . S
C446 H433 0.960 . S
C446 C445 1.524 . S
C447 C444 1.403 . S
C447 C448 1.392 . S
C447 C451 1.495 . S
C448 C447 1.392 . S
C448 C449 1.385 . S
C448 C450 1.478 . S
C449 H443 0.930 . S
C449 C445 1.400 . S
C449 C448 1.385 . S
C450 C448 1.478 . S
C450 C452 1.381 . S
C450 C456 1.383 . S
C451 C447 1.495 . S
C451 H457 0.959 . S
C451 H458 0.961 . S
C451 H459 0.960 . S
C452 C450 1.381 . S
C452 C453 1.394 . S
C452 H460 0.930 . S
C453 C452 1.394 . S
C453 C454 1.383 . S
C453 H461 0.929 . S
C454 C453 1.383 . S
C454 C455 1.377 . S
C455 H439 0.930 . S
C455 C454 1.377 . S
C455 C456 1.379 . S
C456 H440 0.931 . S
C456 C450 1.383 . S
C456 C455 1.379 . S
H457 C451 0.959 . S
H458 C451 0.961 . S
H459 C451 0.960 . S
H460 C452 0.930 . S
H461 C453 0.929 . S
H462 C470 0.929 . S
H463 C472 0.930 . S
H464 C474 0.930 . S
H465 C477 0.929 . S
H466 C480 0.930 . S
H467 C482 0.960 . S
H468 C482 0.960 . S
H469 C482 0.960 . S
C470 H462 0.929 . S
C470 C471 1.377 . S
C470 C472 1.384 . S
C471 C470 1.377 . S
C471 C477 1.390 . S
C472 H463 0.930 . S
C472 C470 1.384 . S
C472 C473 1.372 . S
C473 C472 1.372 . S
C473 C474 1.400 . S
C473 C478 1.490 . S
C474 H464 0.930 . S
C474 C473 1.400 . S
C474 C477 1.386 . S
H475 C491 0.930 . S
H476 C492 0.931 . S
C477 H465 0.929 . S
C477 C471 1.390 . S
C477 C474 1.386 . S
C478 C473 1.490 . S
C478 C480 1.395 . S
C478 C481 1.403 . S
H479 C485 0.930 . S
C480 H466 0.930 . S
C480 C478 1.395 . S
C480 C483 1.403 . S
C481 C478 1.403 . S
C481 C482 1.524 . S
C481 C485 1.400 . S
C482 H467 0.960 . S
C482 H468 0.960 . S
C482 H469 0.960 . S
C482 C481 1.524 . S
C483 C480 1.403 . S
C483 C484 1.392 . S
C483 C487 1.495 . S
C484 C483 1.392 . S
C484 C485 1.385 . S
C484 C486 1.478 . S
C485 H479 0.930 . S
C485 C481 1.400 . S
C485 C484 1.385 . S
C486 C484 1.478 . S
C486 C488 1.381 . S
C486 C492 1.383 . S
C487 C483 1.495 . S
C487 H493 0.959 . S
C487 H494 0.961 . S
C487 H495 0.960 . S
C488 C486 1.381 . S
C488 C489 1.394 . S
C488 H496 0.930 . S
C489 C488 1.394 . S
C489 C490 1.383 . S
C489 H497 0.929 . S
C490 C489 1.383 . S
C490 C491 1.377 . S
C491 H475 0.930 . S
C491 C490 1.377 . S
C491 C492 1.379 . S
C492 H476 0.931 . S
C492 C486 1.383 . S
C492 C491 1.379 . S
H493 C487 0.959 . S
H494 C487 0.961 . S
H495 C487 0.960 . S
H496 C488 0.930 . S
H497 C489 0.929 . S
H498 C506 0.929 . S
H499 C508 0.930 . S
H500 C510 0.930 . S
H501 C513 0.929 . S
H502 C516 0.930 . S
H503 C518 0.960 . S
H504 C518 0.960 . S
H505 C518 0.960 . S
C506 H498 0.929 . S
C506 C507 1.377 . S
C506 C508 1.384 . S
C507 C506 1.377 . S
C507 C513 1.390 . S
C508 H499 0.930 . S
C508 C506 1.384 . S
C508 C509 1.372 . S
C509 C508 1.372 . S
C509 C510 1.400 . S
C509 C514 1.490 . S
C510 H500 0.930 . S
C510 C509 1.400 . S
C510 C513 1.386 . S
H511 C527 0.930 . S
H512 C528 0.931 . S
C513 H501 0.929 . S
C513 C507 1.390 . S
C513 C510 1.386 . S
C514 C509 1.490 . S
C514 C516 1.395 . S
C514 C517 1.403 . S
H515 C521 0.930 . S
C516 H502 0.930 . S
C516 C514 1.395 . S
C516 C519 1.403 . S
C517 C514 1.403 . S
C517 C518 1.524 . S
C517 C521 1.400 . S
C518 H503 0.960 . S
C518 H504 0.960 . S
C518 H505 0.960 . S
C518 C517 1.524 . S
C519 C516 1.403 . S
C519 C520 1.392 . S
C519 C523 1.495 . S
C520 C519 1.392 . S
C520 C521 1.385 . S
C520 C522 1.478 . S
C521 H515 0.930 . S
C521 C517 1.400 . S
C521 C520 1.385 . S
C522 C520 1.478 . S
C522 C524 1.381 . S
C522 C528 1.383 . S
C523 C519 1.495 . S
C523 H529 0.959 . S
C523 H530 0.961 . S
C523 H531 0.960 . S
C524 C522 1.381 . S
C524 C525 1.394 . S
C524 H532 0.930 . S
C525 C524 1.394 . S
C525 C526 1.383 . S
C525 H533 0.929 . S
C526 C525 1.383 . S
C526 C527 1.377 . S
C527 H511 0.930 . S
C527 C526 1.377 . S
C527 C528 1.379 . S
C528 H512 0.931 . S
C528 C522 1.383 . S
C528 C527 1.379 . S
H529 C523 0.959 . S
H530 C523 0.961 . S
H531 C523 0.960 . S
H532 C524 0.930 . S
H533 C525 0.929 . S
H534 C542 0.929 . S
H535 C544 0.930 . S
H536 C546 0.930 . S
H537 C549 0.929 . S
H538 C552 0.930 . S
H539 C554 0.960 . S
H540 C554 0.960 . S
H541 C554 0.960 . S
C542 H534 0.929 . S
C542 C543 1.377 . S
C542 C544 1.384 . S
C543 C542 1.377 . S
C543 C549 1.390 . S
C544 H535 0.930 . S
C544 C542 1.384 . S
C544 C545 1.372 . S
C545 C544 1.372 . S
C545 C546 1.400 . S
C545 C550 1.490 . S
C546 H536 0.930 . S
C546 C545 1.400 . S
C546 C549 1.386 . S
H547 C563 0.930 . S
H548 C564 0.931 . S
C549 H537 0.929 . S
C549 C543 1.390 . S
C549 C546 1.386 . S
C550 C545 1.490 . S
C550 C552 1.395 . S
C550 C553 1.403 . S
H551 C557 0.930 . S
C552 H538 0.930 . S
C552 C550 1.395 . S
C552 C555 1.403 . S
C553 C550 1.403 . S
C553 C554 1.524 . S
C553 C557 1.400 . S
C554 H539 0.960 . S
C554 H540 0.960 . S
C554 H541 0.960 . S
C554 C553 1.524 . S
C555 C552 1.403 . S
C555 C556 1.392 . S
C555 C559 1.495 . S
C556 C555 1.392 . S
C556 C557 1.385 . S
C556 C558 1.478 . S
C557 H551 0.930 . S
C557 C553 1.400 . S
C557 C556 1.385 . S
C558 C556 1.478 . S
C558 C560 1.381 . S
C558 C564 1.383 . S
C559 C555 1.495 . S
C559 H565 0.959 . S
C559 H566 0.961 . S
C559 H567 0.960 . S
C560 C558 1.381 . S
C560 C561 1.394 . S
C560 H568 0.930 . S
C561 C560 1.394 . S
C561 C562 1.383 . S
C561 H569 0.929 . S
C562 C561 1.383 . S
C562 C563 1.377 . S
C563 H547 0.930 . S
C563 C562 1.377 . S
C563 C564 1.379 . S
C564 H548 0.931 . S
C564 C558 1.383 . S
C564 C563 1.379 . S
H565 C559 0.959 . S
H566 C559 0.961 . S
H567 C559 0.960 . S
H568 C560 0.930 . S
H569 C561 0.929 . S
H570 C578 0.929 . S
H571 C580 0.930 . S
H572 C582 0.930 . S
H573 C585 0.929 . S
H574 C588 0.930 . S
H575 C590 0.960 . S
H576 C590 0.960 . S
H577 C590 0.960 1_655 S
C578 H570 0.929 . S
C578 C579 1.377 . S
C578 C580 1.384 . S
C579 C578 1.377 . S
C579 C585 1.390 1_455 S
C580 H571 0.930 . S
C580 C578 1.384 . S
C580 C581 1.372 . S
C581 C580 1.372 . S
C581 C582 1.400 1_455 S
C581 C586 1.490 . S
C582 H572 0.930 . S
C582 C581 1.400 1_655 S
C582 C585 1.386 . S
H583 C599 0.930 1_655 S
H584 C600 0.931 1_655 S
C585 H573 0.929 . S
C585 C579 1.390 1_655 S
C585 C582 1.386 . S
C586 C581 1.490 . S
C586 C588 1.395 . S
C586 C589 1.403 . S
H587 C593 0.953 . S
C588 H574 0.930 . S
C588 C586 1.395 . S
C588 C591 1.403 1_554 S
C589 C586 1.403 . S
C589 C590 1.524 . S
C589 C593 1.355 1_554 S
C590 H575 0.960 . S
C590 H576 0.960 . S
C590 H577 0.960 1_455 S
C590 C589 1.524 . S
C591 C588 1.403 1_556 S
C591 C592 1.392 . S
C591 C595 1.495 . S
C592 C591 1.392 . S
C592 C593 1.409 . S
C592 C594 1.478 . S
C593 H587 0.953 . S
C593 C589 1.355 1_556 S
C593 C592 1.409 . S
C594 C592 1.478 . S
C594 C596 1.381 . S
C594 C600 1.383 . S
C595 C591 1.495 . S
C595 H601 0.959 . S
C595 H602 0.961 . S
C595 H603 0.960 . S
C596 C594 1.381 . S
C596 C597 1.394 . S
C596 H604 0.930 . S
C597 C596 1.394 . S
C597 C598 1.383 . S
C597 H605 0.929 . S
C598 C597 1.383 . S
C598 C599 1.377 . S
C599 H583 0.930 1_455 S
C599 C598 1.377 . S
C599 C600 1.379 . S
C600 H584 0.931 1_455 S
C600 C594 1.383 . S
C600 C599 1.379 . S
H601 C595 0.959 . S
H602 C595 0.961 . S
H603 C595 0.960 . S
H604 C596 0.930 . S
H605 C597 0.929 . S
H606 C614 0.929 . S
H607 C616 0.930 . S
H608 C618 0.930 1_565 S
H609 C621 0.929 1_565 S
H610 C624 0.930 . S
H611 C626 0.960 . S
H612 C626 0.960 . S
H613 C626 0.960 . S
C614 H606 0.929 . S
C614 C615 1.377 . S
C614 C616 1.384 . S
C615 C614 1.377 . S
C615 C621 1.390 . S
C616 H607 0.930 . S
C616 C614 1.384 . S
C616 C617 1.372 . S
C617 C616 1.372 . S
C617 C618 1.400 . S
C617 C622 1.490 . S
C618 H608 0.930 1_545 S
C618 C617 1.400 . S
C618 C621 1.386 . S
H619 C635 0.930 1_565 S
H620 C636 0.931 1_565 S
C621 H609 0.929 1_545 S
C621 C615 1.390 . S
C621 C618 1.386 . S
C622 C617 1.490 . S
C622 C624 1.395 . S
C622 C625 1.403 1_545 S
H623 C629 0.929 1_565 S
C624 H610 0.930 . S
C624 C622 1.395 . S
C624 C627 1.403 . S
C625 C622 1.403 1_565 S
C625 C626 1.524 . S
C625 C629 1.399 1_565 S
C626 H611 0.960 . S
C626 H612 0.960 . S
C626 H613 0.960 . S
C626 C625 1.524 . S
C627 C624 1.403 . S
C627 C628 1.392 . S
C627 C631 1.495 . S
C628 C627 1.392 . S
C628 C629 1.387 . S
C628 C630 1.478 . S
C629 H623 0.929 1_545 S
C629 C625 1.399 1_545 S
C629 C628 1.387 . S
C630 C628 1.478 . S
C630 C632 1.381 . S
C630 C636 1.383 . S
C631 C627 1.495 . S
C631 H637 0.959 . S
C631 H638 0.961 . S
C631 H639 0.960 . S
C632 C630 1.381 . S
C632 C633 1.394 . S
C632 H640 0.930 . S
C633 C632 1.394 . S
C633 C634 1.383 . S
C633 H641 0.929 . S
C634 C633 1.383 . S
C634 C635 1.377 . S
C635 H619 0.930 1_545 S
C635 C634 1.377 . S
C635 C636 1.379 . S
C636 H620 0.931 1_545 S
C636 C630 1.383 . S
C636 C635 1.379 . S
H637 C631 0.959 . S
H638 C631 0.961 . S
H639 C631 0.960 . S
H640 C632 0.930 . S
H641 C633 0.929 . S
H642 C650 0.929 . S
H643 C652 0.930 . S
H644 C654 0.930 . S
H645 C657 0.929 . S
H646 C660 0.930 . S
H647 C662 0.960 . S
H648 C662 0.960 . S
H649 C662 0.960 . S
C650 H642 0.929 . S
C650 C651 1.377 . S
C650 C652 1.384 . S
C651 C650 1.377 . S
C651 C657 1.390 . S
C652 H643 0.930 . S
C652 C650 1.384 . S
C652 C653 1.372 . S
C653 C652 1.372 . S
C653 C654 1.400 . S
C653 C658 1.490 . S
C654 H644 0.930 . S
C654 C653 1.400 . S
C654 C657 1.386 . S
H655 C671 0.930 . S
H656 C672 0.931 . S
C657 H645 0.929 . S
C657 C651 1.390 . S
C657 C654 1.386 . S
C658 C653 1.490 . S
C658 C660 1.395 . S
C658 C661 1.403 . S
H659 C665 0.930 . S
C660 H646 0.930 . S
C660 C658 1.395 . S
C660 C663 1.403 . S
C661 C658 1.403 . S
C661 C662 1.524 . S
C661 C665 1.400 . S
C662 H647 0.960 . S
C662 H648 0.960 . S
C662 H649 0.960 . S
C662 C661 1.524 . S
C663 C660 1.403 . S
C663 C664 1.392 . S
C663 C667 1.495 . S
C664 C663 1.392 . S
C664 C665 1.385 . S
C664 C666 1.478 . S
C665 H659 0.930 . S
C665 C661 1.400 . S
C665 C664 1.385 . S
C666 C664 1.478 . S
C666 C668 1.381 . S
C666 C672 1.383 . S
C667 C663 1.495 . S
C667 H673 0.959 . S
C667 H674 0.961 . S
C667 H675 0.960 . S
C668 C666 1.381 . S
C668 C669 1.394 . S
C668 H676 0.930 . S
C669 C668 1.394 . S
C669 C670 1.383 . S
C669 H677 0.929 . S
C670 C669 1.383 . S
C670 C671 1.377 . S
C671 H655 0.930 . S
C671 C670 1.377 . S
C671 C672 1.379 . S
C672 H656 0.931 . S
C672 C666 1.383 . S
C672 C671 1.379 . S
H673 C667 0.959 . S
H674 C667 0.961 . S
H675 C667 0.960 . S
H676 C668 0.930 . S
H677 C669 0.929 . S
H678 C686 0.929 1_565 S
H679 C688 0.930 1_565 S
H680 C690 0.930 . S
H681 C693 0.929 . S
H682 C696 0.930 1_565 S
H683 C698 0.960 . S
H684 C698 0.960 . S
H685 C698 0.960 . S
C686 H678 0.929 1_545 S
C686 C687 1.377 . S
C686 C688 1.384 . S
C687 C686 1.377 . S
C687 C693 1.390 . S
C688 H679 0.930 1_545 S
C688 C686 1.384 . S
C688 C689 1.372 . S
C689 C688 1.372 . S
C689 C690 1.400 . S
C689 C694 1.490 . S
C690 H680 0.930 . S
C690 C689 1.400 . S
C690 C693 1.386 . S
H691 C707 0.930 . S
H692 C708 0.931 . S
C693 H681 0.929 . S
C693 C687 1.390 . S
C693 C690 1.386 . S
C694 C689 1.490 . S
C694 C696 1.395 . S
C694 C697 1.403 . S
H695 C701 0.930 . S
C696 H682 0.930 1_545 S
C696 C694 1.395 . S
C696 C699 1.403 . S
C697 C694 1.403 . S
C697 C698 1.524 . S
C697 C701 1.400 . S
C698 H683 0.960 . S
C698 H684 0.960 . S
C698 H685 0.960 . S
C698 C697 1.524 . S
C699 C696 1.403 . S
C699 C700 1.392 . S
C699 C703 1.495 1_545 S
C700 C699 1.392 . S
C700 C701 1.385 . S
C700 C702 1.478 . S
C701 H695 0.930 . S
C701 C697 1.400 . S
C701 C700 1.385 . S
C702 C700 1.478 . S
C702 C704 1.381 . S
C702 C708 1.383 . S
C703 C699 1.495 1_565 S
C703 H709 0.959 . S
C703 H710 0.961 . S
C703 H711 0.960 . S
C704 C702 1.381 . S
C704 C705 1.394 . S
C704 H712 0.930 . S
C705 C704 1.394 . S
C705 C706 1.383 . S
C705 H713 0.929 . S
C706 C705 1.383 . S
C706 C707 1.377 . S
C707 H691 0.930 . S
C707 C706 1.377 . S
C707 C708 1.379 . S
C708 H692 0.931 . S
C708 C702 1.383 . S
C708 C707 1.379 . S
H709 C703 0.959 . S
H710 C703 0.961 . S
H711 C703 0.960 . S
H712 C704 0.930 . S
H713 C705 0.929 . S
H714 C722 0.929 . S
H715 C724 0.930 . S
H716 C726 0.930 . S
H717 C729 0.929 . S
H718 C732 0.930 . S
H719 C734 0.960 . S
H720 C734 0.960 . S
H721 C734 0.960 . S
C722 H714 0.929 . S
C722 C723 1.377 . S
C722 C724 1.384 . S
C723 C722 1.377 . S
C723 C729 1.390 . S
C724 H715 0.930 . S
C724 C722 1.384 . S
C724 C725 1.372 . S
C725 C724 1.372 . S
C725 C726 1.400 . S
C725 C730 1.490 . S
C726 H716 0.930 . S
C726 C725 1.400 . S
C726 C729 1.386 . S
H727 C743 0.930 . S
H728 C744 0.931 . S
C729 H717 0.929 . S
C729 C723 1.390 . S
C729 C726 1.386 . S
C730 C725 1.490 . S
C730 C732 1.395 . S
C730 C733 1.403 . S
H731 C737 0.910 1_554 S
C732 H718 0.930 . S
C732 C730 1.395 . S
C732 C735 1.403 1_556 S
C733 C730 1.403 . S
C733 C734 1.524 . S
C733 C737 1.447 . S
C734 H719 0.960 . S
C734 H720 0.960 . S
C734 H721 0.960 . S
C734 C733 1.524 . S
C735 C732 1.403 1_554 S
C735 C736 1.392 . S
C735 C739 1.495 . S
C736 C735 1.392 . S
C736 C737 1.359 1_554 S
C736 C738 1.478 . S
C737 H731 0.910 1_556 S
C737 C733 1.447 . S
C737 C736 1.359 1_556 S
C738 C736 1.478 . S
C738 C740 1.381 . S
C738 C744 1.383 . S
C739 C735 1.495 . S
C739 H745 0.959 . S
C739 H746 0.961 . S
C739 H747 0.960 . S
C740 C738 1.381 . S
C740 C741 1.394 . S
C740 H748 0.930 . S
C741 C740 1.394 . S
C741 C742 1.383 . S
C741 H749 0.929 . S
C742 C741 1.383 . S
C742 C743 1.377 . S
C743 H727 0.930 . S
C743 C742 1.377 . S
C743 C744 1.379 . S
C744 H728 0.931 . S
C744 C738 1.383 . S
C744 C743 1.379 . S
H745 C739 0.959 . S
H746 C739 0.961 . S
H747 C739 0.960 . S
H748 C740 0.930 . S
H749 C741 0.929 . S
H750 C758 0.929 . S
H751 C760 0.930 . S
H752 C762 0.930 . S
H753 C765 0.929 . S
H754 C768 0.930 1_655 S
H755 C770 0.960 . S
H756 C770 0.960 . S
H757 C770 0.960 . S
C758 H750 0.929 . S
C758 C759 1.377 . S
C758 C760 1.384 . S
C759 C758 1.377 . S
C759 C765 1.390 1_455 S
C760 H751 0.930 . S
C760 C758 1.384 . S
C760 C761 1.372 . S
C761 C760 1.372 . S
C761 C762 1.400 1_455 S
C761 C766 1.490 . S
C762 H752 0.930 . S
C762 C761 1.400 1_655 S
C762 C765 1.386 . S
H763 C779 0.930 . S
H764 C780 0.931 . S
C765 H753 0.929 . S
C765 C759 1.390 1_655 S
C765 C762 1.386 . S
C766 C761 1.490 . S
C766 C768 1.395 . S
C766 C769 1.403 . S
H767 C773 0.930 . S
C768 H754 0.930 1_455 S
C768 C766 1.395 . S
C768 C771 1.403 . S
C769 C766 1.403 . S
C769 C770 1.524 . S
C769 C773 1.400 . S
C770 H755 0.960 . S
C770 H756 0.960 . S
C770 H757 0.960 . S
C770 C769 1.524 . S
C771 C768 1.403 . S
C771 C772 1.392 . S
C771 C775 1.495 1_455 S
C772 C771 1.392 . S
C772 C773 1.385 . S
C772 C774 1.478 . S
C773 H767 0.930 . S
C773 C769 1.400 . S
C773 C772 1.385 . S
C774 C772 1.478 . S
C774 C776 1.381 . S
C774 C780 1.383 . S
C775 C771 1.495 1_655 S
C775 H781 0.959 . S
C775 H782 0.961 . S
C775 H783 0.960 1_655 S
C776 C774 1.381 . S
C776 C777 1.394 . S
C776 H784 0.930 . S
C777 C776 1.394 . S
C777 C778 1.383 . S
C777 H785 0.929 . S
C778 C777 1.383 . S
C778 C779 1.377 . S
C779 H763 0.930 . S
C779 C778 1.377 . S
C779 C780 1.379 . S
C780 H764 0.931 . S
C780 C774 1.383 . S
C780 C779 1.379 . S
H781 C775 0.959 . S
H782 C775 0.961 . S
H783 C775 0.960 1_455 S
H784 C776 0.930 . S
H785 C777 0.929 . S
C147 C2 1.022 . S
C166 N127 1.053 . S
C183 C22 1.219 . S
C202 N100 1.307 . S
C219 C44 1.232 . S
C238 N113 1.323 . S
C255 C4 1.806 . S
C274 N126 1.911 . S
C310 N101 1.649 . S
C291 C24 1.567 . S
C346 N114 1.593 . S
C327 C42 1.510 . S
C363 C32 1.161 . S
C382 N74 1.210 . S
C399 C49 0.845 . S
C418 N88 0.892 1_655 S
C435 C9 1.272 . S
C454 N62 1.279 . S
C490 N75 1.247 . S
C471 C29 1.220 . S
C526 N87 1.581 . S
C507 C52 1.532 . S
C543 C12 1.130 . S
C562 N61 1.164 . S
C598 N91 1.502 . S
C579 C18 1.518 1_455 S
C615 C38 1.522 . S
C634 N65 1.560 . S
C651 C58 1.514 . S
C670 N78 1.494 . S
C706 N117 1.615 . S
C687 C39 1.592 . S
C742 N130 1.526 . S
C723 C59 1.508 . S
C759 C19 1.529 . S
C778 N104 1.554 . S
