# Generated by pormake.
# Topology anh, (6,3)-cn, num edge types: 1
# Building blocks:
#     Node 0, Type 0, BuildingBlock: PAMTOO_clean_sbu_0, # of connection points: 6
#     Node 1, Type 0, BuildingBlock: PAMTOO_clean_sbu_0, # of connection points: 6
#     Node 2, Type 0, BuildingBlock: PAMTOO_clean_sbu_0, # of connection points: 6
#     Node 3, Type 1, BuildingBlock: QEWDON_clean_linker_0, # of connection points: 3
#     Node 4, Type 1, BuildingBlock: QEWDON_clean_linker_0, # of connection points: 3
#     Node 5, Type 1, BuildingBlock: QEWDON_clean_linker_0, # of connection points: 3
#     Node 6, Type 1, BuildingBlock: QEWDON_clean_linker_0, # of connection points: 3
#     Node 7, Type 1, BuildingBlock: QEWDON_clean_linker_0, # of connection points: 3
#     Node 8, Type 1, BuildingBlock: QEWDON_clean_linker_0, # of connection points: 3
#     Edge 9, Type (0, 1), BuildingBlock: XIVTED_clean_linker_0, # of connection points: 2
#     Edge 10, Type (0, 1), BuildingBlock: XIVTED_clean_linker_0, # of connection points: 2
#     Edge 11, Type (0, 1), BuildingBlock: XIVTED_clean_linker_0, # of connection points: 2
#     Edge 12, Type (0, 1), BuildingBlock: XIVTED_clean_linker_0, # of connection points: 2
#     Edge 13, Type (0, 1), BuildingBlock: XIVTED_clean_linker_0, # of connection points: 2
#     Edge 14, Type (0, 1), BuildingBlock: XIVTED_clean_linker_0, # of connection points: 2
#     Edge 15, Type (0, 1), BuildingBlock: XIVTED_clean_linker_0, # of connection points: 2
#     Edge 16, Type (0, 1), BuildingBlock: XIVTED_clean_linker_0, # of connection points: 2
#     Edge 17, Type (0, 1), BuildingBlock: XIVTED_clean_linker_0, # of connection points: 2
#     Edge 18, Type (0, 1), BuildingBlock: XIVTED_clean_linker_0, # of connection points: 2
#     Edge 19, Type (0, 1), BuildingBlock: XIVTED_clean_linker_0, # of connection points: 2
#     Edge 20, Type (0, 1), BuildingBlock: XIVTED_clean_linker_0, # of connection points: 2
#     Edge 21, Type (0, 1), BuildingBlock: XIVTED_clean_linker_0, # of connection points: 2
#     Edge 22, Type (0, 1), BuildingBlock: XIVTED_clean_linker_0, # of connection points: 2
#     Edge 23, Type (0, 1), BuildingBlock: XIVTED_clean_linker_0, # of connection points: 2
#     Edge 24, Type (0, 1), BuildingBlock: XIVTED_clean_linker_0, # of connection points: 2
#     Edge 25, Type (0, 1), BuildingBlock: XIVTED_clean_linker_0, # of connection points: 2
#     Edge 26, Type (0, 1), BuildingBlock: XIVTED_clean_linker_0, # of connection points: 2
# Relax obj value: 0.129
# Max RMSD: 0.151
# Mean RMSD: 0.118
data_MOF--net-anh--node1-PAMTOO_clean_sbu_0--node2-QEWDON_clean_linker_0--edge1-XIVTED_clean_linker_0
_symmetry_space_group_name_H-M    P1
_symmetry_Int_Tables_number       1
_symmetry_cell_setting            triclinic
loop_
_symmetry_equiv_pos_as_xyz
'x, y, z'
_cell_length_a     31.682169
_cell_length_b     31.188571
_cell_length_c     48.583759
_cell_angle_alpha  92.392214
_cell_angle_beta   99.304296
_cell_angle_gamma 101.59141
loop_
_atom_site_label
_atom_site_type_symbol
_atom_site_fract_x
_atom_site_fract_y
_atom_site_fract_z
_atom_type_partial_charge
Dy0 Dy 0.10319 0.63613 0.15693 0.0
Dy1 Dy 1.07453 0.53205 0.13488 0.0
C2 C 0.09774 0.60655 0.09269 0.0
O3 O 1.03061 0.62464 0.14066 0.0
O4 O 1.0146 0.5512 0.1467 0.0
O5 O 0.10601 0.70482 0.15041 0.0
O6 O 0.13432 0.68536 0.19043 0.0
O7 O 0.09626 0.53652 0.18135 0.0
O8 O 1.0763 0.60085 0.19119 0.0
O9 O 0.14548 0.54951 0.13068 0.0
O10 O 0.16551 0.61004 0.16227 0.0
O11 O 1.08059 0.46462 0.13874 0.0
O12 O 1.02979 0.48008 0.10774 0.0
C13 C 1.00195 0.58851 0.14288 0.0
O14 O 0.11847 0.63357 0.11415 0.0
O15 O 1.07336 0.56817 0.09577 0.0
C16 C 0.17246 0.74978 0.17376 0.0
C17 C 0.25065 0.81074 0.17096 0.0
C18 C 0.20969 0.81893 0.15916 0.0
C19 C 0.17103 0.78883 0.16064 0.0
C20 C 0.21331 0.74135 0.18539 0.0
C21 C 0.25187 0.77156 0.18414 0.0
C22 C 0.13143 0.71771 0.17448 0.0
C23 C 0.08545 0.56365 0.19898 0.0
C24 C 0.17596 0.57957 0.1465 0.0
C25 C 1.0105 0.41826 0.13231 0.0
C26 C 0.93847 0.3655 0.15065 0.0
C27 C 0.96475 0.40177 0.16772 0.0
C28 C 1.00021 0.42798 0.15859 0.0
C29 C 0.98547 0.3813 0.11558 0.0
C30 C 0.94979 0.35503 0.12469 0.0
C31 C 1.04415 0.44927 0.12135 0.0
H32 H 0.20742 0.84841 0.14851 0.0
H33 H 0.13995 0.79591 0.15134 0.0
H34 H 0.21565 0.71143 0.19553 0.0
H35 H 0.28262 0.76438 0.19394 0.0
H36 H 0.95744 0.41044 0.18799 0.0
H37 H 1.01886 0.45664 0.17174 0.0
H38 H 0.9926 0.3736 0.09509 0.0
H39 H 0.93001 0.32767 0.11087 0.0
Dy40 Dy 0.61933 0.02271 0.51076 0.0
Dy41 Dy 0.72611 0.04534 0.51538 0.0
C42 C 0.68154 0.03887 0.56821 0.0
O43 O 0.63513 0.09297 0.50135 0.0
O44 O 0.70757 0.11022 0.52203 0.0
O45 O 0.564 1.00135 0.53111 0.0
O46 O 0.55382 0.01943 0.4883 0.0
O47 O 0.69701 0.0562 0.4718 0.0
O48 O 0.63398 0.00455 0.46903 0.0
O49 O 0.70717 0.97264 0.50527 0.0
O50 O 0.63977 0.95912 0.51896 0.0
O51 O 0.78488 0.0454 0.49816 0.0
O52 O 0.78921 0.07319 0.5404 0.0
C53 C 0.67125 0.122 0.51106 0.0
O54 O 0.65048 0.05402 0.55318 0.0
O55 O 0.70938 0.02236 0.55611 0.0
C56 C 0.50061 0.96307 0.50103 0.0
C57 C 0.43262 0.8881 0.48717 0.0
C58 C 0.47631 0.88377 0.49441 0.0
C59 C 0.51008 0.92099 0.50118 0.0
C60 C 0.45721 0.96755 0.49377 0.0
C61 C 0.42347 0.93041 0.48685 0.0
C62 C 0.53552 1.00249 0.50867 0.0
C63 C 0.66256 0.02995 0.45686 0.0
C64 C 0.67338 0.9454 0.51175 0.0
C65 C 0.83864 0.10944 0.51376 0.0
C66 C 0.89194 0.19066 0.50643 0.0
C67 C 0.84736 0.18051 0.49428 0.0
C68 C 0.82091 0.14033 0.49801 0.0
C69 C 0.88319 0.11893 0.52544 0.0
C70 C 0.90967 0.15924 0.52182 0.0
C71 C 0.81008 0.06891 0.51975 0.0
H72 H 0.48442 0.85165 0.49451 0.0
H73 H 0.54352 0.91694 0.50658 0.0
H74 H 0.44938 0.99981 0.4936 0.0
H75 H 0.39012 0.93479 0.48165 0.0
H76 H 0.83256 0.20422 0.48267 0.0
H77 H 0.78637 0.13375 0.48915 0.0
H78 H 0.8973 0.09553 0.5378 0.0
H79 H 0.94396 0.16594 0.53123 0.0
Dy80 Dy 0.63302 0.51235 0.8259 0.0
Dy81 Dy 0.52717 0.48642 0.80925 0.0
C82 C 0.58657 0.49738 0.76242 0.0
O83 O 0.61015 0.57405 0.83581 0.0
O84 O 0.54724 0.55775 0.80362 0.0
O85 O 0.6937 0.56002 0.83148 0.0
O86 O 0.69409 0.49245 0.84001 0.0
O87 O 0.54235 0.51144 0.85452 0.0
O88 O 0.60896 0.49303 0.86502 0.0
O89 O 0.54591 0.42296 0.81978 0.0
O90 O 0.61531 0.44132 0.80991 0.0
O91 O 0.46257 0.46701 0.81984 0.0
O92 O 0.46986 0.48166 0.77758 0.0
C93 C 0.57738 0.58644 0.82031 0.0
O94 O 0.61759 0.5226 0.78062 0.0
O95 O 0.55318 0.472 0.77052 0.0
C96 C 0.75343 0.53149 0.8214 0.0
C97 C 0.82739 0.54312 0.79517 0.0
C98 C 0.78788 0.55186 0.78129 0.0
C99 C 0.75103 0.54586 0.79426 0.0
C100 C 0.79183 0.52004 0.83448 0.0
C101 C 0.82848 0.52565 0.82147 0.0
C102 C 0.71746 0.53085 0.83709 0.0
C103 C 0.57416 0.50277 0.87288 0.0
C104 C 0.58193 0.4117 0.81477 0.0
C105 C 0.42128 0.51565 0.79791 0.0
C106 C 0.4019 0.59947 0.80492 0.0
C107 C 0.40433 0.57255 0.82738 0.0
C108 C 0.41385 0.53109 0.82392 0.0
C109 C 0.41509 0.54104 0.77488 0.0
C110 C 0.4057 0.58262 0.77839 0.0
C111 C 0.44414 0.47885 0.79614 0.0
H112 H 0.78606 0.56512 0.76097 0.0
H113 H 0.72133 0.55421 0.78359 0.0
H114 H 0.79413 0.50865 0.85533 0.0
H115 H 0.85855 0.51921 0.83294 0.0
H116 H 0.40005 0.58401 0.8479 0.0
H117 H 0.4179 0.51231 0.84207 0.0
H118 H 0.4204 0.53007 0.75451 0.0
H119 H 0.40375 0.60241 0.76062 0.0
H120 H 0.62332 0.1239 0.24995 0.0
C121 C 0.59864 0.09759 0.23808 0.0
C122 C 0.58353 0.05909 0.25085 0.0
C123 C 0.57931 0.10379 0.21073 0.0
H124 H 0.53866 0.99611 0.2449 0.0
C125 C 0.5505 0.02596 0.23534 0.0
C126 C 0.53032 0.03199 0.20835 0.0
C127 C 0.54498 0.0709 0.19612 0.0
C128 C 0.59164 0.14628 0.19838 0.0
H129 H 0.52917 0.07584 0.17532 0.0
C130 C 0.63578 0.16582 0.19823 0.0
C131 C 0.64673 0.20629 0.18644 0.0
C132 C 0.55869 0.16767 0.18672 0.0
H133 H 0.52454 0.15363 0.18684 0.0
C134 C 0.56939 0.20768 0.17512 0.0
H135 H 0.6614 0.14958 0.2072 0.0
C136 C 0.61302 0.22689 0.17493 0.0
H137 H 0.62035 0.25767 0.16537 0.0
H138 H 0.54375 0.22384 0.16618 0.0
H139 H 0.6221 0.54836 0.5498 0.0
C140 C 0.63168 0.51812 0.5443 0.0
C141 C 0.63141 0.48579 0.56359 0.0
C142 C 0.64204 0.51052 0.51759 0.0
H143 H 0.64143 0.42077 0.57112 0.0
C144 C 0.64208 0.44585 0.5563 0.0
C145 C 0.65274 0.43748 0.53002 0.0
C146 C 0.65293 0.46999 0.51084 0.0
C147 C 0.63974 0.54381 0.49636 0.0
H148 H 0.66196 0.46362 0.49073 0.0
C149 C 0.65055 0.58944 0.50423 0.0
C150 C 0.6483 0.62024 0.48387 0.0
C151 C 0.62592 0.52989 0.46777 0.0
H152 H 0.61583 0.49537 0.46082 0.0
C153 C 0.62404 0.5603 0.44762 0.0
H154 H 0.66157 0.60118 0.52602 0.0
C155 C 0.63528 0.60511 0.45553 0.0
H156 H 0.63283 0.62803 0.43948 0.0
H157 H 0.61336 0.54904 0.42575 0.0
H158 H 0.18642 0.77061 0.91728 0.0
C159 C 0.16284 0.75264 0.89988 0.0
C160 C 0.13362 0.71405 0.90411 0.0
C161 C 0.16246 0.7676 0.873 0.0
H162 H 1.08108 0.66157 0.88398 0.0
C163 C 0.10474 0.69054 0.88094 0.0
C164 C 0.10467 0.70483 0.85393 0.0
C165 C 0.13321 0.7438 0.85013 0.0
C166 C 0.19611 0.80488 0.8679 0.0
H167 H 0.13366 0.75489 0.8293 0.0
C168 C 0.23646 0.79702 0.86349 0.0
C169 C 0.26709 0.82991 0.85441 0.0
C170 C 0.18681 0.84657 0.86421 0.0
H171 H 0.15544 0.85297 0.86721 0.0
C172 C 0.21779 0.87992 0.85586 0.0
H173 H 0.24296 0.76431 0.86548 0.0
C174 C 0.25762 0.87148 0.8505 0.0
H175 H 0.28063 0.89697 0.84301 0.0
H176 H 0.21042 0.91197 0.85277 0.0
H177 H 1.0795 0.53355 0.4185 0.0
C178 C 0.10947 0.55805 0.42487 0.0
C179 C 0.13485 0.57336 0.40473 0.0
C180 C 0.12213 0.57505 0.45296 0.0
H181 H 0.19186 0.61864 0.39704 0.0
C182 C 0.17278 0.60619 0.41272 0.0
C183 C 0.18538 0.62435 0.44045 0.0
C184 C 0.16035 0.60804 0.46056 0.0
C185 C 0.0946 0.55976 0.47417 0.0
H186 H 0.1701 0.62184 0.48203 0.0
C187 C 1.07567 0.51492 0.47464 0.0
C188 C 1.05007 0.50049 0.49495 0.0
C189 C 0.0871 0.59008 0.49412 0.0
H190 H 0.10042 0.62487 0.494 0.0
C191 C 1.0617 0.57595 0.51424 0.0
H192 H 1.08176 0.49112 0.45968 0.0
C193 C 1.04336 0.53149 0.51475 0.0
H194 H 1.02336 0.52144 0.53039 0.0
H195 H 1.05602 0.5996 0.52943 0.0
H196 H 0.59945 0.9745 0.76786 0.0
C197 C 0.60123 0.00783 0.77582 0.0
C198 C 0.62118 0.04286 0.76173 0.0
C199 C 0.58226 0.01566 0.79943 0.0
H200 H 0.63431 0.11314 0.75975 0.0
C201 C 0.62169 0.08606 0.77144 0.0
C202 C 0.60373 0.095 0.795 0.0
C203 C 0.5846 0.05972 0.8091 0.0
C204 C 0.55715 0.97822 0.81263 0.0
H205 H 0.57143 0.06687 0.82758 0.0
C206 C 0.56791 0.93614 0.81283 0.0
C207 C 0.54168 0.90072 0.82356 0.0
C208 C 0.52021 0.98395 0.82395 0.0
H209 H 0.5096 0.01482 0.82344 0.0
C210 C 0.49529 0.94952 0.83542 0.0
H211 H 0.59595 0.93054 0.80422 0.0
C212 C 0.50577 0.9083 0.83521 0.0
H213 H 0.4855 0.88212 0.84409 0.0
H214 H 0.46715 0.95464 0.84411 0.0
H215 H 0.55122 0.54884 0.09043 0.0
C216 C 0.58596 0.55868 0.0984 0.0
C217 C 0.61545 0.55716 0.07982 0.0
C218 C 0.60119 0.56993 0.12726 0.0
H219 H 0.68323 0.56686 0.07545 0.0
C220 C 0.66062 0.56811 0.08988 0.0
C221 C 0.67724 0.57937 0.11828 0.0
C222 C 0.64743 0.58033 0.13692 0.0
C223 C 0.56906 0.56771 0.14739 0.0
H224 H 0.66056 0.58963 0.15881 0.0
C225 C 0.52579 0.57535 0.13965 0.0
C226 C 0.49674 0.57256 0.1593 0.0
C227 C 0.58143 0.55615 0.1748 0.0
H228 H 0.61296 0.54808 0.18151 0.0
C229 C 0.55302 0.55356 0.19404 0.0
H230 H 0.51493 0.58436 0.11883 0.0
C231 C 0.51132 0.56185 0.18648 0.0
H232 H 0.48996 0.55914 0.20193 0.0
H233 H 0.56332 0.54464 0.21499 0.0
H234 H 0.21213 0.52508 0.11507 0.0
H235 H 0.46055 0.63047 0.18653 0.0
H236 H 0.24889 0.63478 0.17733 0.0
H237 H 0.42793 0.53032 0.11831 0.0
H238 H 0.38328 0.63379 0.18197 0.0
H239 H 0.28993 0.52667 0.11507 0.0
C240 C 0.2364 0.54949 0.1288 0.0
C241 C 0.22344 0.57969 0.14636 0.0
C242 C 0.39282 0.61139 0.16771 0.0
C243 C 0.31328 0.58174 0.14634 0.0
C244 C 0.43713 0.60968 0.1702 0.0
C245 C 0.451 0.58027 0.15266 0.0
C246 C 0.36141 0.58303 0.14772 0.0
C247 C 0.41892 0.55387 0.13205 0.0
C248 C 0.28098 0.55045 0.12869 0.0
C249 C 0.25686 0.61063 0.1635 0.0
N250 N 0.37569 0.55553 0.13035 0.0
N251 N 0.29988 0.61071 0.16311 0.0
H252 H 0.95138 0.24325 0.54753 0.0
H253 H 1.0076 0.44158 0.45082 0.0
H254 H 0.89422 0.23854 0.46029 0.0
H255 H 1.04712 0.45196 0.54052 0.0
H256 H 0.97214 0.36463 0.45278 0.0
H257 H 0.99309 0.31715 0.54416 0.0
C258 C 0.94797 0.25757 0.52757 0.0
C259 C 0.9192 0.23466 0.50416 0.0
C260 C 0.98868 0.38373 0.47202 0.0
C261 C 0.96655 0.31959 0.50023 0.0
C262 C 1.00914 0.42755 0.47089 0.0
C263 C 1.03014 0.45327 0.49557 0.0
C264 C 0.9895 0.36541 0.49799 0.0
C265 C 1.03077 0.43352 0.52103 0.0
C266 C 0.97156 0.29992 0.52571 0.0
C267 C 0.91563 0.25519 0.47894 0.0
N268 N 1.01073 0.39083 0.52158 0.0
N269 N 0.93898 0.2965 0.47765 0.0
H270 H 0.5053 0.61868 0.8009 0.0
H271 H 0.61994 0.87321 0.83598 0.0
H272 H 0.63981 0.6608 0.84179 0.0
H273 H 0.4817 0.82433 0.80736 0.0
H274 H 0.63025 0.79698 0.83557 0.0
H275 H 0.49818 0.69482 0.80103 0.0
C276 C 0.5335 0.64398 0.80989 0.0
C277 C 0.57333 0.63315 0.82126 0.0
C278 C 0.59771 0.80308 0.82939 0.0
C279 C 0.56535 0.72127 0.82138 0.0
C280 C 0.59187 0.84655 0.82942 0.0
C281 C 0.54985 0.85525 0.82189 0.0
C282 C 0.56133 0.76813 0.82149 0.0
C283 C 0.51461 0.81933 0.81374 0.0
C284 C 0.52935 0.68764 0.81 0.0
C285 C 0.60849 0.6676 0.83283 0.0
N286 N 0.52115 0.77762 0.81378 0.0
N287 N 0.60376 0.71015 0.83248 0.0
H288 H 0.9371 0.52549 0.15773 0.0
H289 H 0.73999 0.64128 0.10124 0.0
H290 H 0.95804 0.65383 0.12608 0.0
H291 H 0.72534 0.53446 0.15463 0.0
H292 H 0.81934 0.64603 0.10937 0.0
H293 H 0.85959 0.52686 0.15548 0.0
C294 C 0.92553 0.55406 0.15031 0.0
C295 C 0.95456 0.5896 0.14202 0.0
C296 C 0.79898 0.62195 0.11969 0.0
C297 C 0.86495 0.59118 0.13924 0.0
C298 C 0.75364 0.61939 0.11517 0.0
C299 C 0.7259 0.58778 0.12754 0.0
C300 C 0.81708 0.59199 0.13625 0.0
C301 C 0.74545 0.55977 0.14502 0.0
C302 C 0.88112 0.55485 0.14916 0.0
C303 C 0.9372 0.62566 0.13272 0.0
N304 N 0.78962 0.56216 0.14856 0.0
N305 N 0.89369 0.62534 0.13137 0.0
H306 H 0.36266 0.87516 0.44436 0.0
H307 H 0.25131 0.63854 0.48633 0.0
H308 H 0.42063 0.81147 0.51347 0.0
H309 H 0.20444 0.69686 0.41151 0.0
H310 H 0.31217 0.70243 0.49794 0.0
H311 H 0.30289 0.81083 0.43322 0.0
C312 C 0.36271 0.84766 0.45727 0.0
C313 C 0.39663 0.84873 0.47992 0.0
C314 C 0.28863 0.70111 0.47894 0.0
C315 C 0.32835 0.77472 0.46719 0.0
C316 C 0.25383 0.66478 0.47238 0.0
C317 C 0.22294 0.66226 0.44783 0.0
C318 C 0.29229 0.73529 0.46093 0.0
C319 C 0.22788 0.69707 0.43041 0.0
C320 C 0.32869 0.81082 0.45081 0.0
C321 C 0.39534 0.81186 0.49566 0.0
N322 N 0.26178 0.73211 0.43733 0.0
N323 N 0.36166 0.7764 0.48907 0.0
H324 H 0.51903 0.3397 0.82145 0.0
H325 H 0.66997 0.16767 0.79895 0.0
H326 H 0.65192 0.37617 0.80682 0.0
H327 H 0.53528 0.12831 0.80922 0.0
H328 H 0.66525 0.24445 0.80576 0.0
H329 H 0.52528 0.26264 0.82024 0.0
C330 C 0.54953 0.33161 0.81798 0.0
C331 C 0.58492 0.36466 0.81408 0.0
C332 C 0.63675 0.21912 0.80674 0.0
C333 C 0.59235 0.27629 0.81285 0.0
C334 C 0.63945 0.1752 0.80287 0.0
C335 C 0.60286 0.1414 0.80328 0.0
C336 C 0.5971 0.22967 0.81099 0.0
C337 C 0.56436 0.15322 0.80886 0.0
C338 C 0.55308 0.28754 0.81735 0.0
C339 C 0.62364 0.35199 0.80979 0.0
N340 N 0.56236 0.19634 0.81224 0.0
N341 N 0.62625 0.30896 0.80925 0.0
H342 H 0.6169 0.88005 0.53158 0.0
H343 H 0.70139 0.68499 0.46171 0.0
H344 H 0.7282 0.9015 0.48918 0.0
H345 H 0.61689 0.66465 0.52329 0.0
H346 H 0.71064 0.76437 0.4708 0.0
H347 H 0.61477 0.80117 0.52787 0.0
C348 C 0.641 0.86826 0.52156 0.0
C349 C 0.67273 0.8976 0.51059 0.0
C350 C 0.69042 0.74263 0.48256 0.0
C351 C 0.67026 0.80709 0.50617 0.0
C352 C 0.68508 0.69733 0.47734 0.0
C353 C 0.65822 0.66823 0.49172 0.0
C354 C 0.66819 0.75912 0.502 0.0
C355 C 0.63807 0.68596 0.51187 0.0
C356 C 0.63984 0.82318 0.51956 0.0
C357 C 0.70317 0.88025 0.49795 0.0
N358 N 0.64303 0.73026 0.51618 0.0
N359 N 0.70094 0.83618 0.49589 0.0
H360 H 0.89602 0.50176 0.79424 0.0
H361 H 1.04941 0.7353 0.8138 0.0
H362 H 0.85432 0.6219 0.77422 0.0
H363 H 0.08794 0.61655 0.84045 0.0
H364 H 0.98541 0.69091 0.78298 0.0
H365 H 0.97156 0.53886 0.79396 0.0
C366 C 0.90264 0.53559 0.78897 0.0
C367 C 0.86912 0.55922 0.78521 0.0
C368 C 1.00845 0.67452 0.79502 0.0
C369 C 0.95529 0.60204 0.78536 0.0
C370 C 1.04504 0.69988 0.81253 0.0
C371 C 1.07305 0.67941 0.83027 0.0
C372 C 0.99986 0.62855 0.79556 0.0
C373 C 1.0662 0.63348 0.82769 0.0
C374 C 0.94576 0.5568 0.78883 0.0
C375 C 0.87925 0.60259 0.77771 0.0
N376 N 1.02976 0.60955 0.81115 0.0
N377 N 0.92163 0.62301 0.77882 0.0
H378 H 0.33108 0.79492 0.16458 0.0
H379 H 0.45122 0.04839 0.18528 0.0
H380 H 0.26473 0.90096 0.17574 0.0
H381 H 0.5186 0.94248 0.20159 0.0
H382 H 0.38254 0.99446 0.17058 0.0
H383 H 0.39975 0.84866 0.16793 0.0
C384 C 0.33081 0.82943 0.16771 0.0
C385 C 0.29193 0.84323 0.1703 0.0
C386 C 0.41247 0.98304 0.17701 0.0
C387 C 0.37049 0.90498 0.17348 0.0
C388 C 0.4517 0.01375 0.18513 0.0
C389 C 0.49054 0.9998 0.19478 0.0
C390 C 0.41217 0.93809 0.17836 0.0
C391 C 0.48924 0.95453 0.19452 0.0
C392 C 0.37004 0.86009 0.16942 0.0
C393 C 0.29363 0.8886 0.17346 0.0
N394 N 0.45063 0.92527 0.18662 0.0
N395 N 0.33227 0.91779 0.17512 0.0
H396 H 0.607 0.15938 0.48343 0.0
H397 H 0.61906 0.38414 0.48195 0.0
H398 H 0.73387 0.19276 0.53655 0.0
H399 H 0.70508 0.39078 0.56117 0.0
H400 H 0.62549 0.30811 0.4729 0.0
H401 H 0.6048 0.23702 0.48375 0.0
C402 C 0.63464 0.18306 0.49496 0.0
C403 C 0.67063 0.16937 0.51006 0.0
C404 C 0.64276 0.32605 0.49234 0.0
C405 C 0.66873 0.25887 0.51006 0.0
C406 C 0.63966 0.36971 0.4973 0.0
C407 C 0.6611 0.39361 0.52251 0.0
C408 C 0.66751 0.30617 0.51278 0.0
C409 C 0.68737 0.37325 0.54168 0.0
C410 C 0.63359 0.2276 0.49484 0.0
C411 C 0.70544 0.20171 0.5246 0.0
N412 N 0.6897 0.3307 0.53647 0.0
N413 N 0.70338 0.24488 0.5245 0.0
H414 H 0.44064 0.65912 0.84927 0.0
H415 H 0.28445 0.82273 0.80177 0.0
H416 H 0.35133 0.64454 0.77067 0.0
H417 H 0.33479 0.80583 0.88752 0.0
H418 H 0.33237 0.77715 0.78651 0.0
H419 H 0.42386 0.73074 0.85929 0.0
C420 C 0.41761 0.67103 0.83407 0.0
C421 C 0.39621 0.64515 0.8095 0.0
C422 C 0.334 0.78467 0.80867 0.0
C423 C 0.37783 0.72742 0.82057 0.0
C424 C 0.30709 0.81101 0.81735 0.0
C425 C 0.30578 0.8176 0.84587 0.0
C426 C 0.35951 0.76505 0.82874 0.0
C427 C 0.33503 0.80124 0.86534 0.0
C428 C 0.40848 0.71207 0.83968 0.0
C429 C 0.36819 0.66308 0.79002 0.0
N430 N 0.36029 0.77504 0.85641 0.0
N431 N 0.35927 0.70286 0.79617 0.0
H432 H 0.87953 0.39832 0.1762 0.0
H433 H 0.71141 0.1678 0.17145 0.0
H434 H 0.90426 0.27627 0.14409 0.0
H435 H 0.68702 0.2925 0.19888 0.0
H436 H 0.78496 0.20501 0.16538 0.0
H437 H 0.81182 0.35833 0.1885 0.0
C438 C 0.87105 0.36298 0.17204 0.0
C439 C 0.89789 0.34069 0.15913 0.0
C440 C 0.76358 0.22414 0.1729 0.0
C441 C 0.81943 0.2945 0.17278 0.0
C442 C 0.72174 0.20288 0.17656 0.0
C443 C 0.69291 0.22716 0.18544 0.0
C444 C 0.77667 0.26994 0.17832 0.0
C445 C 0.70788 0.27259 0.19154 0.0
C446 C 0.83209 0.34014 0.1789 0.0
C447 C 0.88443 0.29491 0.15373 0.0
N448 N 0.74854 0.29246 0.18775 0.0
N449 N 0.8461 0.27333 0.16051 0.0
H450 H 1.07602 0.55695 0.04208 0.0
H451 H 0.14244 0.7631 0.95376 0.0
H452 H 0.13148 0.68866 0.07909 0.0
H453 H 0.12096 0.62903 0.91933 0.0
H454 H 0.13457 0.73628 -0.00047 0.0
H455 H 0.08687 0.5826 -0.0039 0.0
C456 C 0.09034 0.59116 0.04056 0.0
C457 C 0.10292 0.62061 0.06449 0.0
C458 C 0.13174 0.71273 0.98196 0.0
C459 C 0.1153 0.65012 0.01215 0.0
C460 C 0.13657 0.72806 0.95584 0.0
C461 C 0.13215 0.69836 0.93253 0.0
C462 C 0.1221 0.66731 0.98486 0.0
C463 C 0.12379 0.65319 0.93653 0.0
C464 C 0.09671 0.60574 0.01437 0.0
C465 C 0.12146 0.66462 0.06129 0.0
N466 N 0.11876 0.63905 0.96212 0.0
N467 N 0.12693 0.67799 0.03566 0.0
H468 H 0.59066 0.98623 0.42025 0.0
H469 H 0.66676 0.08434 0.28233 0.0
H470 H 0.71411 0.07688 0.4232 0.0
H471 H 0.53357 0.02532 0.28884 0.0
H472 H 0.68867 0.07604 0.33244 0.0
H473 H 0.57376 0.99249 0.37013 0.0
C474 C 0.61442 0.00728 0.41036 0.0
C475 C 0.65379 0.03126 0.42606 0.0
C476 C 0.65473 0.06479 0.32273 0.0
C477 C 0.63442 0.03874 0.3684 0.0
C478 C 0.64218 0.06964 0.2942 0.0
C479 C 0.59836 0.05485 0.28114 0.0
C480 C 0.62324 0.04488 0.33818 0.0
C481 C 0.56795 0.03601 0.29762 0.0
C482 C 0.60463 0.01098 0.38168 0.0
C483 C 0.68327 0.05794 0.41193 0.0
N484 N 0.58099 0.03145 0.3251 0.0
N485 N 0.67295 0.06106 0.38386 0.0
H486 H 0.53384 0.44408 0.7186 0.0
H487 H 0.66382 0.55567 0.60249 0.0
H488 H 0.64596 0.55187 0.73765 0.0
H489 H 0.57219 0.43111 0.58795 0.0
H490 H 0.64973 0.56152 0.6506 0.0
H491 H 0.54035 0.44497 0.66915 0.0
C492 C 0.55976 0.46799 0.71241 0.0
C493 C 0.58957 0.49773 0.73235 0.0
C494 C 0.63248 0.53308 0.63679 0.0
C495 C 0.597 0.49912 0.67576 0.0
C496 C 0.64028 0.52993 0.60934 0.0
C497 C 0.61943 0.49269 0.59142 0.0
C498 C 0.60336 0.4989 0.64619 0.0
C499 C 0.58937 0.46009 0.60129 0.0
C500 C 0.56345 0.46849 0.68417 0.0
C501 C 0.6224 0.5281 0.72305 0.0
N502 N 0.58237 0.46385 0.62804 0.0
N503 N 0.62526 0.52798 0.69545 0.0
H504 H 0.68708 0.10761 0.60549 0.0
H505 H 0.58969 0.97662 0.71932 0.0
H506 H 0.67613 0.96747 0.59889 0.0
H507 H 0.69272 0.09193 0.74405 0.0
H508 H 0.61285 0.97216 0.67376 0.0
H509 H 0.68037 0.10445 0.65507 0.0
C510 C 0.68384 0.07631 0.61469 0.0
C511 C 0.68258 0.03781 0.59847 0.0
C512 C 0.63061 0.99798 0.68943 0.0
C513 C 0.67337 0.03372 0.65441 0.0
C514 C 0.61762 1.00051 0.71553 0.0
C515 C 0.63867 0.03525 0.73559 0.0
C516 C 0.66409 0.03091 0.68316 0.0
C517 C 0.67442 0.06544 0.72904 0.0
C518 C 0.68009 0.07451 0.64284 0.0
C519 C 0.67778 0.99786 0.61104 0.0
N520 N 0.68533 0.06317 0.70321 0.0
N521 N 0.67246 0.99664 0.63827 0.0
H522 H 0.52126 0.54299 0.90052 0.0
H523 H 0.64039 0.49337 0.0506 0.0
H524 H 0.62307 0.46881 0.91425 0.0
H525 H 0.55605 0.58632 0.04107 0.0
H526 H 0.62374 0.47493 0.00028 0.0
H527 H 0.52395 0.5511 0.95142 0.0
C528 C 0.54382 0.52808 0.91417 0.0
C529 C 0.5723 0.50555 0.90314 0.0
C530 C 0.60854 0.49919 0.00907 0.0
C531 C 0.57531 0.51446 0.96109 0.0
C532 C 0.61803 0.50967 0.03782 0.0
C533 C 0.60008 0.54188 0.04988 0.0
C534 C 0.581 0.52121 -0.00796 0.0
C535 C 0.57067 0.56142 0.03248 0.0
C536 C 0.54539 0.53281 0.94317 0.0
C537 C 0.60086 0.4869 0.92177 0.0
N538 N 0.56241 0.55118 0.00429 0.0
N539 N 0.60168 0.49188 0.94972 0.0
H540 H 0.1316 0.51063 0.22921 0.0
H541 H 1.05584 0.57266 0.37241 0.0
H542 H 1.04021 0.5946 0.23575 0.0
H543 H 0.18158 0.54154 0.36906 0.0
H544 H 1.0373 0.56033 0.32128 0.0
H545 H 0.13784 0.50218 0.27966 0.0
C546 C 0.11236 0.52669 0.24117 0.0
C547 C 0.08581 0.55383 0.22845 0.0
C548 C 1.06864 0.55549 0.33182 0.0
C549 C 0.09238 0.5439 0.28576 0.0
C550 C 1.07906 0.56217 0.36092 0.0
C551 C 0.12036 0.55834 0.37479 0.0
C552 C 0.09957 0.54443 0.31662 0.0
C553 C 0.14953 0.54515 0.359 0.0
C554 C 0.11604 0.52197 0.26989 0.0
C555 C 1.06155 0.5739 0.24486 0.0
N556 N 0.13869 0.53889 0.33068 0.0
N557 N 1.06552 0.56865 0.2727 0.0
loop_
_geom_bond_atom_site_label_1
_geom_bond_atom_site_label_2
_geom_bond_distance
_geom_bond_site_symmetry_2
_ccdc_geom_bond_type
Dy0 O3 2.307 1_455 S
Dy0 O5 2.395 . S
Dy0 O6 2.379 . S
Dy0 O8 2.339 . S
Dy0 O10 2.298 . S
Dy0 O14 2.275 . S
Dy0 C22 2.738 . S
Dy1 O4 2.298 1_455 S
Dy1 O7 2.275 . S
Dy1 O9 2.307 . S
Dy1 O11 2.395 1_455 S
Dy1 O12 2.379 1_455 S
Dy1 O15 2.339 . S
Dy1 C31 2.738 1_455 S
C2 O14 1.254 . S
C2 O15 1.257 . S
O3 Dy0 2.307 1_655 S
O3 C13 1.266 . S
O4 Dy1 2.298 1_655 S
O4 C13 1.236 . S
O5 Dy0 2.395 . S
O5 C22 1.255 . S
O6 Dy0 2.379 . S
O6 C22 1.249 . S
O7 Dy1 2.275 . S
O7 C23 1.254 . S
O8 Dy0 2.339 . S
O8 C23 1.257 . S
O9 Dy1 2.307 . S
O9 C24 1.266 . S
O10 Dy0 2.298 . S
O10 C24 1.236 . S
O11 Dy1 2.395 1_655 S
O11 C31 1.255 . S
O12 Dy1 2.379 1_655 S
O12 C31 1.249 . S
C13 O3 1.266 . S
C13 O4 1.236 . S
O14 Dy0 2.275 . S
O14 C2 1.254 . S
O15 Dy1 2.339 . S
O15 C2 1.257 . S
C16 C19 1.344 . S
C16 C20 1.328 . S
C16 C22 1.516 . S
C17 C18 1.304 . S
C17 C21 1.323 . S
C18 C17 1.304 . S
C18 C19 1.371 . S
C18 H32 0.930 . S
C19 C16 1.344 . S
C19 C18 1.371 . S
C19 H33 0.931 . S
C20 C16 1.328 . S
C20 C21 1.433 . S
C20 H34 0.931 . S
C21 C17 1.323 . S
C21 C20 1.433 . S
C21 H35 0.933 . S
C22 Dy0 2.738 . S
C22 O5 1.255 . S
C22 O6 1.249 . S
C22 C16 1.516 . S
C23 O7 1.254 . S
C23 O8 1.257 . S
C24 O9 1.266 . S
C24 O10 1.236 . S
C25 C28 1.344 . S
C25 C29 1.328 . S
C25 C31 1.516 . S
C26 C27 1.304 . S
C26 C30 1.323 . S
C27 C26 1.304 . S
C27 C28 1.371 . S
C27 H36 0.930 . S
C28 C25 1.344 . S
C28 C27 1.371 . S
C28 H37 0.931 . S
C29 C25 1.328 . S
C29 C30 1.433 . S
C29 H38 0.931 . S
C30 C26 1.323 . S
C30 C29 1.433 . S
C30 H39 0.933 . S
C31 Dy1 2.738 1_655 S
C31 O11 1.255 . S
C31 O12 1.249 . S
C31 C25 1.516 . S
H32 C18 0.930 . S
H33 C19 0.931 . S
H34 C20 0.931 . S
H35 C21 0.933 . S
H36 C27 0.930 . S
H37 C28 0.931 . S
H38 C29 0.931 . S
H39 C30 0.933 . S
Dy40 O43 2.307 . S
Dy40 O45 2.395 1_545 S
Dy40 O46 2.379 1_545 S
Dy40 O48 2.339 . S
Dy40 O50 2.298 1_545 S
Dy40 O54 2.275 . S
Dy40 C62 2.738 1_545 S
Dy41 O44 2.298 . S
Dy41 O47 2.275 . S
Dy41 O49 2.307 . S
Dy41 O51 2.395 . S
Dy41 O52 2.379 . S
Dy41 O55 2.339 . S
Dy41 C71 2.738 . S
C42 O54 1.254 . S
C42 O55 1.257 . S
O43 Dy40 2.307 . S
O43 C53 1.266 . S
O44 Dy41 2.298 . S
O44 C53 1.236 . S
O45 Dy40 2.395 1_565 S
O45 C62 1.255 . S
O46 Dy40 2.379 1_565 S
O46 C62 1.249 . S
O47 Dy41 2.275 . S
O47 C63 1.254 . S
O48 Dy40 2.339 . S
O48 C63 1.257 . S
O49 Dy41 2.307 . S
O49 C64 1.266 1_545 S
O50 Dy40 2.298 1_565 S
O50 C64 1.236 . S
O51 Dy41 2.395 . S
O51 C71 1.255 . S
O52 Dy41 2.379 . S
O52 C71 1.249 . S
C53 O43 1.266 . S
C53 O44 1.236 . S
O54 Dy40 2.275 . S
O54 C42 1.254 . S
O55 Dy41 2.339 . S
O55 C42 1.257 . S
C56 C59 1.344 . S
C56 C60 1.328 . S
C56 C62 1.516 . S
C57 C58 1.304 . S
C57 C61 1.323 . S
C58 C57 1.304 . S
C58 C59 1.371 . S
C58 H72 0.930 . S
C59 C56 1.344 . S
C59 C58 1.371 . S
C59 H73 0.931 . S
C60 C56 1.328 . S
C60 C61 1.433 . S
C60 H74 0.931 . S
C61 C57 1.323 . S
C61 C60 1.433 . S
C61 H75 0.933 . S
C62 Dy40 2.738 1_565 S
C62 O45 1.255 . S
C62 O46 1.249 . S
C62 C56 1.516 . S
C63 O47 1.254 . S
C63 O48 1.257 . S
C64 O49 1.266 1_565 S
C64 O50 1.236 . S
C65 C68 1.344 . S
C65 C69 1.328 . S
C65 C71 1.516 . S
C66 C67 1.304 . S
C66 C70 1.323 . S
C67 C66 1.304 . S
C67 C68 1.371 . S
C67 H76 0.930 . S
C68 C65 1.344 . S
C68 C67 1.371 . S
C68 H77 0.931 . S
C69 C65 1.328 . S
C69 C70 1.433 . S
C69 H78 0.931 . S
C70 C66 1.323 . S
C70 C69 1.433 . S
C70 H79 0.933 . S
C71 Dy41 2.738 . S
C71 O51 1.255 . S
C71 O52 1.249 . S
C71 C65 1.516 . S
H72 C58 0.930 . S
H73 C59 0.931 . S
H74 C60 0.931 . S
H75 C61 0.933 . S
H76 C67 0.930 . S
H77 C68 0.931 . S
H78 C69 0.931 . S
H79 C70 0.933 . S
Dy80 O83 2.307 . S
Dy80 O85 2.395 . S
Dy80 O86 2.379 . S
Dy80 O88 2.339 . S
Dy80 O90 2.298 . S
Dy80 O94 2.275 . S
Dy80 C102 2.738 . S
Dy81 O84 2.298 . S
Dy81 O87 2.275 . S
Dy81 O89 2.307 . S
Dy81 O91 2.395 . S
Dy81 O92 2.379 . S
Dy81 O95 2.339 . S
Dy81 C111 2.738 . S
C82 O94 1.254 . S
C82 O95 1.257 . S
O83 Dy80 2.307 . S
O83 C93 1.266 . S
O84 Dy81 2.298 . S
O84 C93 1.236 . S
O85 Dy80 2.395 . S
O85 C102 1.255 . S
O86 Dy80 2.379 . S
O86 C102 1.249 . S
O87 Dy81 2.275 . S
O87 C103 1.254 . S
O88 Dy80 2.339 . S
O88 C103 1.257 . S
O89 Dy81 2.307 . S
O89 C104 1.266 . S
O90 Dy80 2.298 . S
O90 C104 1.236 . S
O91 Dy81 2.395 . S
O91 C111 1.255 . S
O92 Dy81 2.379 . S
O92 C111 1.249 . S
C93 O83 1.266 . S
C93 O84 1.236 . S
O94 Dy80 2.275 . S
O94 C82 1.254 . S
O95 Dy81 2.339 . S
O95 C82 1.257 . S
C96 C99 1.344 . S
C96 C100 1.328 . S
C96 C102 1.516 . S
C97 C98 1.304 . S
C97 C101 1.323 . S
C98 C97 1.304 . S
C98 C99 1.371 . S
C98 H112 0.930 . S
C99 C96 1.344 . S
C99 C98 1.371 . S
C99 H113 0.931 . S
C100 C96 1.328 . S
C100 C101 1.433 . S
C100 H114 0.931 . S
C101 C97 1.323 . S
C101 C100 1.433 . S
C101 H115 0.933 . S
C102 Dy80 2.738 . S
C102 O85 1.255 . S
C102 O86 1.249 . S
C102 C96 1.516 . S
C103 O87 1.254 . S
C103 O88 1.257 . S
C104 O89 1.266 . S
C104 O90 1.236 . S
C105 C108 1.344 . S
C105 C109 1.328 . S
C105 C111 1.516 . S
C106 C107 1.304 . S
C106 C110 1.323 . S
C107 C106 1.304 . S
C107 C108 1.371 . S
C107 H116 0.930 . S
C108 C105 1.344 . S
C108 C107 1.371 . S
C108 H117 0.931 . S
C109 C105 1.328 . S
C109 C110 1.433 . S
C109 H118 0.931 . S
C110 C106 1.323 . S
C110 C109 1.433 . S
C110 H119 0.933 . S
C111 Dy81 2.738 . S
C111 O91 1.255 . S
C111 O92 1.249 . S
C111 C105 1.516 . S
H112 C98 0.930 . S
H113 C99 0.931 . S
H114 C100 0.931 . S
H115 C101 0.933 . S
H116 C107 0.930 . S
H117 C108 0.931 . S
H118 C109 0.931 . S
H119 C110 0.933 . S
H120 C121 0.949 . S
C121 H120 0.949 . S
C121 C122 1.395 . S
C121 C123 1.391 . S
C122 C121 1.395 . S
C122 C125 1.390 . S
C123 C121 1.391 . S
C123 C127 1.387 . S
C123 C128 1.491 . S
H124 C125 0.950 . S
C125 C122 1.390 . S
C125 H124 0.950 . S
C125 C126 1.378 . S
C126 C125 1.378 . S
C126 C127 1.409 . S
C127 C123 1.387 . S
C127 C126 1.409 . S
C127 H129 0.951 . S
C128 C123 1.491 . S
C128 C130 1.382 . S
C128 C132 1.404 . S
H129 C127 0.951 . S
C130 C128 1.382 . S
C130 C131 1.390 . S
C130 H135 0.949 . S
C131 C130 1.390 . S
C131 C136 1.399 . S
C132 C128 1.404 . S
C132 H133 0.950 . S
C132 C134 1.375 . S
H133 C132 0.950 . S
C134 C132 1.375 . S
C134 C136 1.382 . S
C134 H138 0.950 . S
H135 C130 0.949 . S
C136 C131 1.399 . S
C136 C134 1.382 . S
C136 H137 0.952 . S
H137 C136 0.952 . S
H138 C134 0.950 . S
H139 C140 0.949 . S
C140 H139 0.949 . S
C140 C141 1.395 . S
C140 C142 1.391 . S
C141 C140 1.395 . S
C141 C144 1.390 . S
C142 C140 1.391 . S
C142 C146 1.387 . S
C142 C147 1.491 . S
H143 C144 0.950 . S
C144 C141 1.390 . S
C144 H143 0.950 . S
C144 C145 1.378 . S
C145 C144 1.378 . S
C145 C146 1.409 . S
C146 C142 1.387 . S
C146 C145 1.409 . S
C146 H148 0.951 . S
C147 C142 1.491 . S
C147 C149 1.382 . S
C147 C151 1.404 . S
H148 C146 0.951 . S
C149 C147 1.382 . S
C149 C150 1.390 . S
C149 H154 0.949 . S
C150 C149 1.390 . S
C150 C155 1.399 . S
C151 C147 1.404 . S
C151 H152 0.950 . S
C151 C153 1.375 . S
H152 C151 0.950 . S
C153 C151 1.375 . S
C153 C155 1.382 . S
C153 H157 0.950 . S
H154 C149 0.949 . S
C155 C150 1.399 . S
C155 C153 1.382 . S
C155 H156 0.952 . S
H156 C155 0.952 . S
H157 C153 0.950 . S
H158 C159 0.949 . S
C159 H158 0.949 . S
C159 C160 1.395 . S
C159 C161 1.391 . S
C160 C159 1.395 . S
C160 C163 1.390 1_455 S
C161 C159 1.391 . S
C161 C165 1.387 . S
C161 C166 1.491 . S
H162 C163 0.950 . S
C163 C160 1.390 1_655 S
C163 H162 0.950 . S
C163 C164 1.378 . S
C164 C163 1.378 . S
C164 C165 1.409 1_655 S
C165 C161 1.387 . S
C165 C164 1.409 1_455 S
C165 H167 0.951 . S
C166 C161 1.491 . S
C166 C168 1.382 . S
C166 C170 1.404 . S
H167 C165 0.951 . S
C168 C166 1.382 . S
C168 C169 1.390 . S
C168 H173 0.949 . S
C169 C168 1.390 . S
C169 C174 1.399 . S
C170 C166 1.404 . S
C170 H171 0.950 . S
C170 C172 1.375 . S
H171 C170 0.950 . S
C172 C170 1.375 . S
C172 C174 1.382 . S
C172 H176 0.950 . S
H173 C168 0.949 . S
C174 C169 1.399 . S
C174 C172 1.382 . S
C174 H175 0.952 . S
H175 C174 0.952 . S
H176 C172 0.950 . S
H177 C178 0.949 1_655 S
C178 H177 0.949 1_455 S
C178 C179 1.395 . S
C178 C180 1.391 . S
C179 C178 1.395 . S
C179 C182 1.390 . S
C180 C178 1.391 . S
C180 C184 1.387 . S
C180 C185 1.491 1_455 S
H181 C182 0.950 . S
C182 C179 1.390 . S
C182 H181 0.950 . S
C182 C183 1.378 . S
C183 C182 1.378 . S
C183 C184 1.409 . S
C184 C180 1.387 . S
C184 C183 1.409 . S
C184 H186 0.951 . S
C185 C180 1.491 1_655 S
C185 C187 1.382 . S
C185 C189 1.404 . S
H186 C184 0.951 . S
C187 C185 1.382 . S
C187 C188 1.390 . S
C187 H192 0.949 . S
C188 C187 1.390 . S
C188 C193 1.399 . S
C189 C185 1.404 . S
C189 H190 0.950 1_655 S
C189 C191 1.375 . S
H190 C189 0.950 1_455 S
C191 C189 1.375 . S
C191 C193 1.382 . S
C191 H195 0.950 . S
H192 C187 0.949 . S
C193 C188 1.399 . S
C193 C191 1.382 . S
C193 H194 0.952 . S
H194 C193 0.952 . S
H195 C191 0.950 . S
H196 C197 0.949 1_565 S
C197 H196 0.949 1_545 S
C197 C198 1.395 . S
C197 C199 1.391 . S
C198 C197 1.395 . S
C198 C201 1.390 . S
C199 C197 1.391 . S
C199 C203 1.387 . S
C199 C204 1.491 1_545 S
H200 C201 0.950 . S
C201 C198 1.390 . S
C201 H200 0.950 . S
C201 C202 1.378 . S
C202 C201 1.378 . S
C202 C203 1.409 . S
C203 C199 1.387 . S
C203 C202 1.409 . S
C203 H205 0.951 . S
C204 C199 1.491 1_565 S
C204 C206 1.382 . S
C204 C208 1.404 . S
H205 C203 0.951 . S
C206 C204 1.382 . S
C206 C207 1.390 . S
C206 H211 0.949 . S
C207 C206 1.390 . S
C207 C212 1.399 . S
C208 C204 1.404 . S
C208 H209 0.950 . S
C208 C210 1.375 . S
H209 C208 0.950 . S
C210 C208 1.375 . S
C210 C212 1.382 . S
C210 H214 0.950 . S
H211 C206 0.949 . S
C212 C207 1.399 . S
C212 C210 1.382 . S
C212 H213 0.952 . S
H213 C212 0.952 . S
H214 C210 0.950 . S
H215 C216 0.949 . S
C216 H215 0.949 . S
C216 C217 1.395 . S
C216 C218 1.391 . S
C217 C216 1.395 . S
C217 C220 1.390 . S
C218 C216 1.391 . S
C218 C222 1.387 . S
C218 C223 1.491 . S
H219 C220 0.950 . S
C220 C217 1.390 . S
C220 H219 0.950 . S
C220 C221 1.378 . S
C221 C220 1.378 . S
C221 C222 1.409 . S
C222 C218 1.387 . S
C222 C221 1.409 . S
C222 H224 0.951 . S
C223 C218 1.491 . S
C223 C225 1.382 . S
C223 C227 1.404 . S
H224 C222 0.951 . S
C225 C223 1.382 . S
C225 C226 1.390 . S
C225 H230 0.949 . S
C226 C225 1.390 . S
C226 C231 1.399 . S
C227 C223 1.404 . S
C227 H228 0.950 . S
C227 C229 1.375 . S
H228 C227 0.950 . S
C229 C227 1.375 . S
C229 C231 1.382 . S
C229 H233 0.950 . S
H230 C225 0.949 . S
C231 C226 1.399 . S
C231 C229 1.382 . S
C231 H232 0.952 . S
H232 C231 0.952 . S
H233 C229 0.950 . S
H234 C240 0.930 . S
H235 C244 0.930 . S
H236 C249 0.929 . S
H237 C247 0.929 . S
H238 C242 0.929 . S
H239 C248 0.929 . S
C240 H234 0.930 . S
C240 C241 1.367 . S
C240 C248 1.378 . S
C241 C240 1.367 . S
C241 C249 1.433 . S
C242 H238 0.929 . S
C242 C244 1.378 . S
C242 C246 1.350 . S
C243 C246 1.463 . S
C243 C248 1.350 . S
C243 N251 1.427 . S
C244 H235 0.930 . S
C244 C242 1.378 . S
C244 C245 1.367 . S
C245 C244 1.367 . S
C245 C247 1.433 . S
C246 C242 1.350 . S
C246 C243 1.463 . S
C246 N250 1.427 . S
C247 H237 0.929 . S
C247 C245 1.433 . S
C247 N250 1.384 . S
C248 H239 0.929 . S
C248 C240 1.378 . S
C248 C243 1.350 . S
C249 H236 0.929 . S
C249 C241 1.433 . S
C249 N251 1.384 . S
N250 C246 1.427 . S
N250 C247 1.384 . S
N251 C243 1.427 . S
N251 C249 1.384 . S
H252 C258 0.930 . S
H253 C262 0.930 . S
H254 C267 0.929 . S
H255 C265 0.929 . S
H256 C260 0.929 . S
H257 C266 0.929 . S
C258 H252 0.930 . S
C258 C259 1.367 . S
C258 C266 1.378 . S
C259 C258 1.367 . S
C259 C267 1.433 . S
C260 H256 0.929 . S
C260 C262 1.378 . S
C260 C264 1.350 . S
C261 C264 1.463 . S
C261 C266 1.350 . S
C261 N269 1.427 . S
C262 H253 0.930 . S
C262 C260 1.378 . S
C262 C263 1.367 . S
C263 C262 1.367 . S
C263 C265 1.433 . S
C264 C260 1.350 . S
C264 C261 1.463 . S
C264 N268 1.427 . S
C265 H255 0.929 . S
C265 C263 1.433 . S
C265 N268 1.384 . S
C266 H257 0.929 . S
C266 C258 1.378 . S
C266 C261 1.350 . S
C267 H254 0.929 . S
C267 C259 1.433 . S
C267 N269 1.384 . S
N268 C264 1.427 . S
N268 C265 1.384 . S
N269 C261 1.427 . S
N269 C267 1.384 . S
H270 C276 0.930 . S
H271 C280 0.930 . S
H272 C285 0.929 . S
H273 C283 0.929 . S
H274 C278 0.929 . S
H275 C284 0.929 . S
C276 H270 0.930 . S
C276 C277 1.367 . S
C276 C284 1.378 . S
C277 C276 1.367 . S
C277 C285 1.433 . S
C278 H274 0.929 . S
C278 C280 1.378 . S
C278 C282 1.350 . S
C279 C282 1.463 . S
C279 C284 1.350 . S
C279 N287 1.427 . S
C280 H271 0.930 . S
C280 C278 1.378 . S
C280 C281 1.367 . S
C281 C280 1.367 . S
C281 C283 1.433 . S
C282 C278 1.350 . S
C282 C279 1.463 . S
C282 N286 1.427 . S
C283 H273 0.929 . S
C283 C281 1.433 . S
C283 N286 1.384 . S
C284 H275 0.929 . S
C284 C276 1.378 . S
C284 C279 1.350 . S
C285 H272 0.929 . S
C285 C277 1.433 . S
C285 N287 1.384 . S
N286 C282 1.427 . S
N286 C283 1.384 . S
N287 C279 1.427 . S
N287 C285 1.384 . S
H288 C294 0.930 . S
H289 C298 0.930 . S
H290 C303 0.929 . S
H291 C301 0.929 . S
H292 C296 0.929 . S
H293 C302 0.929 . S
C294 H288 0.930 . S
C294 C295 1.367 . S
C294 C302 1.378 . S
C295 C294 1.367 . S
C295 C303 1.433 . S
C296 H292 0.929 . S
C296 C298 1.378 . S
C296 C300 1.350 . S
C297 C300 1.463 . S
C297 C302 1.350 . S
C297 N305 1.427 . S
C298 H289 0.930 . S
C298 C296 1.378 . S
C298 C299 1.367 . S
C299 C298 1.367 . S
C299 C301 1.433 . S
C300 C296 1.350 . S
C300 C297 1.463 . S
C300 N304 1.427 . S
C301 H291 0.929 . S
C301 C299 1.433 . S
C301 N304 1.384 . S
C302 H293 0.929 . S
C302 C294 1.378 . S
C302 C297 1.350 . S
C303 H290 0.929 . S
C303 C295 1.433 . S
C303 N305 1.384 . S
N304 C300 1.427 . S
N304 C301 1.384 . S
N305 C297 1.427 . S
N305 C303 1.384 . S
H306 C312 0.930 . S
H307 C316 0.930 . S
H308 C321 0.929 . S
H309 C319 0.929 . S
H310 C314 0.929 . S
H311 C320 0.929 . S
C312 H306 0.930 . S
C312 C313 1.367 . S
C312 C320 1.378 . S
C313 C312 1.367 . S
C313 C321 1.433 . S
C314 H310 0.929 . S
C314 C316 1.378 . S
C314 C318 1.350 . S
C315 C318 1.463 . S
C315 C320 1.350 . S
C315 N323 1.427 . S
C316 H307 0.930 . S
C316 C314 1.378 . S
C316 C317 1.367 . S
C317 C316 1.367 . S
C317 C319 1.433 . S
C318 C314 1.350 . S
C318 C315 1.463 . S
C318 N322 1.427 . S
C319 H309 0.929 . S
C319 C317 1.433 . S
C319 N322 1.384 . S
C320 H311 0.929 . S
C320 C312 1.378 . S
C320 C315 1.350 . S
C321 H308 0.929 . S
C321 C313 1.433 . S
C321 N323 1.384 . S
N322 C318 1.427 . S
N322 C319 1.384 . S
N323 C315 1.427 . S
N323 C321 1.384 . S
H324 C330 0.930 . S
H325 C334 0.930 . S
H326 C339 0.929 . S
H327 C337 0.929 . S
H328 C332 0.929 . S
H329 C338 0.929 . S
C330 H324 0.930 . S
C330 C331 1.367 . S
C330 C338 1.378 . S
C331 C330 1.367 . S
C331 C339 1.433 . S
C332 H328 0.929 . S
C332 C334 1.378 . S
C332 C336 1.350 . S
C333 C336 1.463 . S
C333 C338 1.350 . S
C333 N341 1.427 . S
C334 H325 0.930 . S
C334 C332 1.378 . S
C334 C335 1.367 . S
C335 C334 1.367 . S
C335 C337 1.433 . S
C336 C332 1.350 . S
C336 C333 1.463 . S
C336 N340 1.427 . S
C337 H327 0.929 . S
C337 C335 1.433 . S
C337 N340 1.384 . S
C338 H329 0.929 . S
C338 C330 1.378 . S
C338 C333 1.350 . S
C339 H326 0.929 . S
C339 C331 1.433 . S
C339 N341 1.384 . S
N340 C336 1.427 . S
N340 C337 1.384 . S
N341 C333 1.427 . S
N341 C339 1.384 . S
H342 C348 0.930 . S
H343 C352 0.930 . S
H344 C357 0.929 . S
H345 C355 0.929 . S
H346 C350 0.929 . S
H347 C356 0.929 . S
C348 H342 0.930 . S
C348 C349 1.367 . S
C348 C356 1.378 . S
C349 C348 1.367 . S
C349 C357 1.433 . S
C350 H346 0.929 . S
C350 C352 1.378 . S
C350 C354 1.350 . S
C351 C354 1.463 . S
C351 C356 1.350 . S
C351 N359 1.427 . S
C352 H343 0.930 . S
C352 C350 1.378 . S
C352 C353 1.367 . S
C353 C352 1.367 . S
C353 C355 1.433 . S
C354 C350 1.350 . S
C354 C351 1.463 . S
C354 N358 1.427 . S
C355 H345 0.929 . S
C355 C353 1.433 . S
C355 N358 1.384 . S
C356 H347 0.929 . S
C356 C348 1.378 . S
C356 C351 1.350 . S
C357 H344 0.929 . S
C357 C349 1.433 . S
C357 N359 1.384 . S
N358 C354 1.427 . S
N358 C355 1.384 . S
N359 C351 1.427 . S
N359 C357 1.384 . S
H360 C366 0.930 . S
H361 C370 0.930 . S
H362 C375 0.929 . S
H363 C373 0.929 . S
H364 C368 0.929 . S
H365 C374 0.929 . S
C366 H360 0.930 . S
C366 C367 1.367 . S
C366 C374 1.378 . S
C367 C366 1.367 . S
C367 C375 1.433 . S
C368 H364 0.929 . S
C368 C370 1.378 . S
C368 C372 1.350 . S
C369 C372 1.463 . S
C369 C374 1.350 . S
C369 N377 1.427 . S
C370 H361 0.930 . S
C370 C368 1.378 . S
C370 C371 1.367 . S
C371 C370 1.367 . S
C371 C373 1.433 . S
C372 C368 1.350 . S
C372 C369 1.463 . S
C372 N376 1.427 . S
C373 H363 0.929 . S
C373 C371 1.433 . S
C373 N376 1.384 . S
C374 H365 0.929 . S
C374 C366 1.378 . S
C374 C369 1.350 . S
C375 H362 0.929 . S
C375 C367 1.433 . S
C375 N377 1.384 . S
N376 C372 1.427 . S
N376 C373 1.384 . S
N377 C369 1.427 . S
N377 C375 1.384 . S
H378 C384 0.930 . S
H379 C388 0.930 . S
H380 C393 0.929 . S
H381 C391 0.929 . S
H382 C386 0.929 . S
H383 C392 0.929 . S
C384 H378 0.930 . S
C384 C385 1.367 . S
C384 C392 1.378 . S
C385 C384 1.367 . S
C385 C393 1.433 . S
C386 H382 0.929 . S
C386 C388 1.378 1_565 S
C386 C390 1.350 . S
C387 C390 1.463 . S
C387 C392 1.350 . S
C387 N395 1.427 . S
C388 H379 0.930 . S
C388 C386 1.378 1_545 S
C388 C389 1.367 . S
C389 C388 1.367 . S
C389 C391 1.433 1_545 S
C390 C386 1.350 . S
C390 C387 1.463 . S
C390 N394 1.427 . S
C391 H381 0.929 . S
C391 C389 1.433 1_565 S
C391 N394 1.384 . S
C392 H383 0.929 . S
C392 C384 1.378 . S
C392 C387 1.350 . S
C393 H380 0.929 . S
C393 C385 1.433 . S
C393 N395 1.384 . S
N394 C390 1.427 . S
N394 C391 1.384 . S
N395 C387 1.427 . S
N395 C393 1.384 . S
H396 C402 0.930 . S
H397 C406 0.930 . S
H398 C411 0.929 . S
H399 C409 0.929 . S
H400 C404 0.929 . S
H401 C410 0.929 . S
C402 H396 0.930 . S
C402 C403 1.367 . S
C402 C410 1.378 . S
C403 C402 1.367 . S
C403 C411 1.433 . S
C404 H400 0.929 . S
C404 C406 1.378 . S
C404 C408 1.350 . S
C405 C408 1.463 . S
C405 C410 1.350 . S
C405 N413 1.427 . S
C406 H397 0.930 . S
C406 C404 1.378 . S
C406 C407 1.367 . S
C407 C406 1.367 . S
C407 C409 1.433 . S
C408 C404 1.350 . S
C408 C405 1.463 . S
C408 N412 1.427 . S
C409 H399 0.929 . S
C409 C407 1.433 . S
C409 N412 1.384 . S
C410 H401 0.929 . S
C410 C402 1.378 . S
C410 C405 1.350 . S
C411 H398 0.929 . S
C411 C403 1.433 . S
C411 N413 1.384 . S
N412 C408 1.427 . S
N412 C409 1.384 . S
N413 C405 1.427 . S
N413 C411 1.384 . S
H414 C420 0.930 . S
H415 C424 0.930 . S
H416 C429 0.929 . S
H417 C427 0.929 . S
H418 C422 0.929 . S
H419 C428 0.929 . S
C420 H414 0.930 . S
C420 C421 1.367 . S
C420 C428 1.378 . S
C421 C420 1.367 . S
C421 C429 1.433 . S
C422 H418 0.929 . S
C422 C424 1.378 . S
C422 C426 1.350 . S
C423 C426 1.463 . S
C423 C428 1.350 . S
C423 N431 1.427 . S
C424 H415 0.930 . S
C424 C422 1.378 . S
C424 C425 1.367 . S
C425 C424 1.367 . S
C425 C427 1.433 . S
C426 C422 1.350 . S
C426 C423 1.463 . S
C426 N430 1.427 . S
C427 H417 0.929 . S
C427 C425 1.433 . S
C427 N430 1.384 . S
C428 H419 0.929 . S
C428 C420 1.378 . S
C428 C423 1.350 . S
C429 H416 0.929 . S
C429 C421 1.433 . S
C429 N431 1.384 . S
N430 C426 1.427 . S
N430 C427 1.384 . S
N431 C423 1.427 . S
N431 C429 1.384 . S
H432 C438 0.930 . S
H433 C442 0.930 . S
H434 C447 0.929 . S
H435 C445 0.929 . S
H436 C440 0.929 . S
H437 C446 0.929 . S
C438 H432 0.930 . S
C438 C439 1.367 . S
C438 C446 1.378 . S
C439 C438 1.367 . S
C439 C447 1.433 . S
C440 H436 0.929 . S
C440 C442 1.378 . S
C440 C444 1.350 . S
C441 C444 1.463 . S
C441 C446 1.350 . S
C441 N449 1.427 . S
C442 H433 0.930 . S
C442 C440 1.378 . S
C442 C443 1.367 . S
C443 C442 1.367 . S
C443 C445 1.433 . S
C444 C440 1.350 . S
C444 C441 1.463 . S
C444 N448 1.427 . S
C445 H435 0.929 . S
C445 C443 1.433 . S
C445 N448 1.384 . S
C446 H437 0.929 . S
C446 C438 1.378 . S
C446 C441 1.350 . S
C447 H434 0.929 . S
C447 C439 1.433 . S
C447 N449 1.384 . S
N448 C444 1.427 . S
N448 C445 1.384 . S
N449 C441 1.427 . S
N449 C447 1.384 . S
H450 C456 0.930 . S
H451 C460 0.930 . S
H452 C465 0.929 . S
H453 C463 0.929 1_655 S
H454 C458 0.929 1_554 S
H455 C464 0.943 . S
C456 H450 0.930 . S
C456 C457 1.367 1_655 S
C456 C464 1.389 . S
C457 C456 1.367 1_455 S
C457 C465 1.433 . S
C458 H454 0.929 1_556 S
C458 C460 1.378 . S
C458 C462 1.350 1_556 S
C459 C462 1.463 . S
C459 C464 1.326 1_455 S
C459 N467 1.427 . S
C460 H451 0.930 . S
C460 C458 1.378 . S
C460 C461 1.367 . S
C461 C460 1.367 . S
C461 C463 1.433 . S
C462 C458 1.350 1_554 S
C462 C459 1.463 . S
C462 N466 1.427 1_554 S
C463 H453 0.929 1_455 S
C463 C461 1.433 . S
C463 N466 1.384 . S
C464 H455 0.943 . S
C464 C456 1.389 . S
C464 C459 1.326 1_655 S
C465 H452 0.929 . S
C465 C457 1.433 . S
C465 N467 1.384 . S
N466 C462 1.427 1_556 S
N466 C463 1.384 . S
N467 C459 1.427 . S
N467 C465 1.384 . S
H468 C474 0.930 . S
H469 C478 0.930 . S
H470 C483 0.929 . S
H471 C481 0.929 . S
H472 C476 0.929 . S
H473 C482 0.929 . S
C474 H468 0.930 . S
C474 C475 1.367 . S
C474 C482 1.378 . S
C475 C474 1.367 . S
C475 C483 1.433 . S
C476 H472 0.929 . S
C476 C478 1.378 . S
C476 C480 1.350 . S
C477 C480 1.463 . S
C477 C482 1.350 . S
C477 N485 1.427 . S
C478 H469 0.930 . S
C478 C476 1.378 . S
C478 C479 1.367 . S
C479 C478 1.367 . S
C479 C481 1.433 . S
C480 C476 1.350 . S
C480 C477 1.463 . S
C480 N484 1.427 . S
C481 H471 0.929 . S
C481 C479 1.433 . S
C481 N484 1.384 . S
C482 H473 0.929 . S
C482 C474 1.378 . S
C482 C477 1.350 . S
C483 H470 0.929 . S
C483 C475 1.433 . S
C483 N485 1.384 . S
N484 C480 1.427 . S
N484 C481 1.384 . S
N485 C477 1.427 . S
N485 C483 1.384 . S
H486 C492 0.930 . S
H487 C496 0.930 . S
H488 C501 0.929 . S
H489 C499 0.929 . S
H490 C494 0.929 . S
H491 C500 0.929 . S
C492 H486 0.930 . S
C492 C493 1.367 . S
C492 C500 1.378 . S
C493 C492 1.367 . S
C493 C501 1.433 . S
C494 H490 0.929 . S
C494 C496 1.378 . S
C494 C498 1.350 . S
C495 C498 1.463 . S
C495 C500 1.350 . S
C495 N503 1.427 . S
C496 H487 0.930 . S
C496 C494 1.378 . S
C496 C497 1.367 . S
C497 C496 1.367 . S
C497 C499 1.433 . S
C498 C494 1.350 . S
C498 C495 1.463 . S
C498 N502 1.427 . S
C499 H489 0.929 . S
C499 C497 1.433 . S
C499 N502 1.384 . S
C500 H491 0.929 . S
C500 C492 1.378 . S
C500 C495 1.350 . S
C501 H488 0.929 . S
C501 C493 1.433 . S
C501 N503 1.384 . S
N502 C498 1.427 . S
N502 C499 1.384 . S
N503 C495 1.427 . S
N503 C501 1.384 . S
H504 C510 0.930 . S
H505 C514 0.930 1_565 S
H506 C519 0.929 1_565 S
H507 C517 0.929 . S
H508 C512 0.929 1_565 S
H509 C518 0.929 . S
C510 H504 0.930 . S
C510 C511 1.367 . S
C510 C518 1.378 . S
C511 C510 1.367 . S
C511 C519 1.433 . S
C512 H508 0.929 1_545 S
C512 C514 1.378 . S
C512 C516 1.350 . S
C513 C516 1.463 . S
C513 C518 1.350 . S
C513 N521 1.427 . S
C514 H505 0.930 1_545 S
C514 C512 1.378 . S
C514 C515 1.367 . S
C515 C514 1.367 . S
C515 C517 1.433 . S
C516 C512 1.350 . S
C516 C513 1.463 . S
C516 N520 1.427 . S
C517 H507 0.929 . S
C517 C515 1.433 . S
C517 N520 1.384 . S
C518 H509 0.929 . S
C518 C510 1.378 . S
C518 C513 1.350 . S
C519 H506 0.929 1_545 S
C519 C511 1.433 . S
C519 N521 1.384 . S
N520 C516 1.427 . S
N520 C517 1.384 . S
N521 C513 1.427 . S
N521 C519 1.384 . S
H522 C528 0.930 . S
H523 C532 0.930 . S
H524 C537 0.929 . S
H525 C535 0.929 . S
H526 C530 0.929 . S
H527 C536 0.929 . S
C528 H522 0.930 . S
C528 C529 1.367 . S
C528 C536 1.378 . S
C529 C528 1.367 . S
C529 C537 1.433 . S
C530 H526 0.929 . S
C530 C532 1.378 . S
C530 C534 1.350 . S
C531 C534 1.463 1_556 S
C531 C536 1.350 . S
C531 N539 1.427 . S
C532 H523 0.930 . S
C532 C530 1.378 . S
C532 C533 1.367 . S
C533 C532 1.367 . S
C533 C535 1.433 . S
C534 C530 1.350 . S
C534 C531 1.463 1_554 S
C534 N538 1.427 . S
C535 H525 0.929 . S
C535 C533 1.433 . S
C535 N538 1.384 . S
C536 H527 0.929 . S
C536 C528 1.378 . S
C536 C531 1.350 . S
C537 H524 0.929 . S
C537 C529 1.433 . S
C537 N539 1.384 . S
N538 C534 1.427 . S
N538 C535 1.384 . S
N539 C531 1.427 . S
N539 C537 1.384 . S
H540 C546 0.930 . S
H541 C550 0.917 1_655 S
H542 C555 0.929 1_655 S
H543 C553 0.929 . S
H544 C548 0.929 1_655 S
H545 C554 0.929 . S
C546 H540 0.930 . S
C546 C547 1.367 . S
C546 C554 1.378 . S
C547 C546 1.367 . S
C547 C555 1.433 . S
C548 H544 0.929 1_455 S
C548 C550 1.378 . S
C548 C552 1.350 . S
C549 C552 1.463 . S
C549 C554 1.350 . S
C549 N557 1.427 . S
C550 H541 0.917 1_455 S
C550 C548 1.378 . S
C550 C551 1.367 . S
C551 C550 1.367 . S
C551 C553 1.433 . S
C552 C548 1.350 . S
C552 C549 1.463 . S
C552 N556 1.427 . S
C553 H543 0.929 . S
C553 C551 1.433 . S
C553 N556 1.384 . S
C554 H545 0.929 . S
C554 C546 1.378 . S
C554 C549 1.350 . S
C555 H542 0.929 1_455 S
C555 C547 1.433 . S
C555 N557 1.384 . S
N556 C552 1.427 . S
N556 C553 1.384 . S
N557 C549 1.427 . S
N557 C555 1.384 . S
C241 C24 3.093 . S
C245 C226 3.013 . S
C259 C66 1.223 . S
C263 C188 1.173 . S
C277 C93 1.887 . S
C281 C207 1.829 . S
C295 C13 3.017 . S
C299 C221 2.981 . S
C317 C183 1.052 . S
C313 C57 1.056 . S
C335 C202 1.846 . S
C331 C104 1.878 . S
C349 C64 2.058 . S
C353 C150 1.977 . S
C367 C97 0.291 . S
C371 C164 0.281 . S
C385 C17 1.169 . S
C389 C126 1.179 . S
C407 C145 1.698 . S
C403 C53 1.735 . S
C425 C169 0.532 . S
C421 C106 0.329 . S
C439 C26 1.226 . S
C443 C131 1.195 . S
C461 C160 1.342 . S
C457 C2 1.298 . S
C475 C63 1.515 . S
C479 C122 1.514 . S
C493 C82 1.507 . S
C497 C141 1.547 . S
C515 C198 1.513 . S
C511 C42 1.481 . S
C533 C217 1.732 . S
C529 C103 1.735 . S
C547 C23 1.598 . S
C551 C179 1.584 . S
