# Generated by pormake.
# Topology nom, (4,4)-cn, num edge types: 1
# Building blocks:
#     Node 0, Type 0, BuildingBlock: GIZVER_clean_linker_0, # of connection points: 4
#     Node 1, Type 0, BuildingBlock: GIZVER_clean_linker_0, # of connection points: 4
#     Node 2, Type 0, BuildingBlock: GIZVER_clean_linker_0, # of connection points: 4
#     Node 3, Type 0, BuildingBlock: GIZVER_clean_linker_0, # of connection points: 4
#     Node 4, Type 0, BuildingBlock: GIZVER_clean_linker_0, # of connection points: 4
#     Node 5, Type 0, BuildingBlock: GIZVER_clean_linker_0, # of connection points: 4
#     Node 6, Type 1, BuildingBlock: NAHDIM_clean_sbu_0, # of connection points: 4
#     Node 7, Type 1, BuildingBlock: NAHDIM_clean_sbu_0, # of connection points: 4
#     Node 8, Type 1, BuildingBlock: NAHDIM_clean_sbu_0, # of connection points: 4
#     Node 9, Type 1, BuildingBlock: NAHDIM_clean_sbu_0, # of connection points: 4
#     Node 10, Type 1, BuildingBlock: NAHDIM_clean_sbu_0, # of connection points: 4
#     Node 11, Type 1, BuildingBlock: NAHDIM_clean_sbu_0, # of connection points: 4
#     Edge 12, Type (0, 1), BuildingBlock: UVAHIK_clean_linker_0, # of connection points: 2
#     Edge 13, Type (0, 1), BuildingBlock: UVAHIK_clean_linker_0, # of connection points: 2
#     Edge 14, Type (0, 1), BuildingBlock: UVAHIK_clean_linker_0, # of connection points: 2
#     Edge 15, Type (0, 1), BuildingBlock: UVAHIK_clean_linker_0, # of connection points: 2
#     Edge 16, Type (0, 1), BuildingBlock: UVAHIK_clean_linker_0, # of connection points: 2
#     Edge 17, Type (0, 1), BuildingBlock: UVAHIK_clean_linker_0, # of connection points: 2
#     Edge 18, Type (0, 1), BuildingBlock: UVAHIK_clean_linker_0, # of connection points: 2
#     Edge 19, Type (0, 1), BuildingBlock: UVAHIK_clean_linker_0, # of connection points: 2
#     Edge 20, Type (0, 1), BuildingBlock: UVAHIK_clean_linker_0, # of connection points: 2
#     Edge 21, Type (0, 1), BuildingBlock: UVAHIK_clean_linker_0, # of connection points: 2
#     Edge 22, Type (0, 1), BuildingBlock: UVAHIK_clean_linker_0, # of connection points: 2
#     Edge 23, Type (0, 1), BuildingBlock: UVAHIK_clean_linker_0, # of connection points: 2
#     Edge 24, Type (0, 1), BuildingBlock: UVAHIK_clean_linker_0, # of connection points: 2
#     Edge 25, Type (0, 1), BuildingBlock: UVAHIK_clean_linker_0, # of connection points: 2
#     Edge 26, Type (0, 1), BuildingBlock: UVAHIK_clean_linker_0, # of connection points: 2
#     Edge 27, Type (0, 1), BuildingBlock: UVAHIK_clean_linker_0, # of connection points: 2
#     Edge 28, Type (0, 1), BuildingBlock: UVAHIK_clean_linker_0, # of connection points: 2
#     Edge 29, Type (0, 1), BuildingBlock: UVAHIK_clean_linker_0, # of connection points: 2
#     Edge 30, Type (0, 1), BuildingBlock: UVAHIK_clean_linker_0, # of connection points: 2
#     Edge 31, Type (0, 1), BuildingBlock: UVAHIK_clean_linker_0, # of connection points: 2
#     Edge 32, Type (0, 1), BuildingBlock: UVAHIK_clean_linker_0, # of connection points: 2
#     Edge 33, Type (0, 1), BuildingBlock: UVAHIK_clean_linker_0, # of connection points: 2
#     Edge 34, Type (0, 1), BuildingBlock: UVAHIK_clean_linker_0, # of connection points: 2
#     Edge 35, Type (0, 1), BuildingBlock: UVAHIK_clean_linker_0, # of connection points: 2
# Relax obj value: 0.022
# Max RMSD: 0.124
# Mean RMSD: 0.093
data_MOF--net-nom--node1-NAHDIM_clean_sbu_0--node2-GIZVER_clean_linker_0--edge1-UVAHIK_clean_linker_0
_symmetry_space_group_name_H-M    P1
_symmetry_Int_Tables_number       1
_symmetry_cell_setting            triclinic
loop_
_symmetry_equiv_pos_as_xyz
'x, y, z'
_cell_length_a     58.846111
_cell_length_b     60.49028
_cell_length_c     59.308693
_cell_angle_alpha  89.988709
_cell_angle_beta   90.558489
_cell_angle_gamma 120.92103
loop_
_atom_site_label
_atom_site_type_symbol
_atom_site_fract_x
_atom_site_fract_y
_atom_site_fract_z
_atom_type_partial_charge
H0 H 0.9605 0.55334 0.34049 0.0
H1 H 0.9974 0.55391 0.27788 0.0
H2 H 0.91921 0.49157 0.29257 0.0
H3 H 1.00329 0.58889 0.3329 0.0
H4 H 0.00837 0.5957 0.30349 0.0
H5 H 0.02245 0.56343 0.35121 0.0
H6 H 0.09671 0.57996 0.32348 0.0
H7 H 0.04573 0.59798 0.28558 0.0
C8 C 0.96023 0.54395 0.32484 0.0
C9 C 0.93715 0.52103 0.31825 0.0
C10 C 0.98232 0.55571 0.31053 0.0
C11 C 0.98106 0.54434 0.28949 0.0
C12 C 0.95846 0.521 0.28316 0.0
C13 C 0.93696 0.50925 0.29781 0.0
C14 C 0.00613 0.58157 0.3166 0.0
C15 C 0.03103 0.58025 0.31801 0.0
C16 C 0.03635 0.57026 0.3374 0.0
C17 C 0.0599 0.56981 0.33931 0.0
C18 C 0.07792 0.57908 0.3215 0.0
C19 C 0.07317 0.58949 0.30213 0.0
C20 C 0.04952 0.58982 0.3004 0.0
H21 H 0.43457 0.97377 0.51231 0.0
H22 H 0.46155 0.99504 0.44409 0.0
H23 H 0.45532 0.92709 0.47331 0.0
H24 H 0.43115 0.00759 0.49442 0.0
H25 H 0.43449 0.01092 0.46447 0.0
H26 H 0.47571 0.02614 0.51783 0.0
H27 H 0.53534 0.10066 0.49385 0.0
H28 H 0.46995 0.05023 0.45069 0.0
C29 C 0.44228 0.97053 0.49693 0.0
C30 C 0.44508 0.94892 0.49515 0.0
C31 C 0.44871 0.98755 0.47869 0.0
C32 C 0.4575 0.98248 0.45844 0.0
C33 C 0.46019 0.9608 0.45646 0.0
C34 C 0.4545 0.94452 0.47506 0.0
C35 C 0.44445 0.01006 0.48021 0.0
C36 C 0.47043 0.03499 0.4836 0.0
C37 C 0.48393 0.04022 0.50442 0.0
C38 C 0.50755 0.06379 0.50817 0.0
C39 C 0.51777 0.08195 0.49076 0.0
C40 C 0.50427 0.0773 0.47011 0.0
C41 C 0.48063 0.05373 0.46653 0.0
H42 H 0.43655 0.47978 0.60796 0.0
H43 H 0.45665 0.47901 0.67787 0.0
H44 H 0.44373 0.53849 0.65338 0.0
H45 H 0.43368 0.4414 0.62401 0.0
H46 H 0.43876 0.43983 0.65363 0.0
H47 H 0.47721 0.47574 0.60171 0.0
H48 H 0.54266 0.46622 0.6184 0.0
H49 H 0.47559 0.43594 0.66242 0.0
C50 C 0.44114 0.48861 0.62456 0.0
C51 C 0.44012 0.51103 0.62831 0.0
C52 C 0.44746 0.47715 0.64231 0.0
C53 C 0.45255 0.48817 0.664 0.0
C54 C 0.45162 0.51056 0.66793 0.0
C55 C 0.44577 0.52198 0.65 0.0
C56 C 0.44696 0.45223 0.63849 0.0
C57 C 0.4743 0.45711 0.63357 0.0
C58 C 0.48695 0.46949 0.61348 0.0
C59 C 0.51167 0.47289 0.60808 0.0
C60 C 0.52373 0.46386 0.62289 0.0
C61 C 0.51058 0.44967 0.64214 0.0
C62 C 0.48614 0.44704 0.64776 0.0
H63 H 0.97444 0.42642 0.78224 0.0
H64 H 0.99631 0.44634 0.85205 0.0
H65 H 0.92273 0.43572 0.82664 0.0
H66 H 0.01113 0.42437 0.79773 0.0
H67 H 0.0149 0.42459 0.82763 0.0
H68 H 0.03473 0.46494 0.77608 0.0
H69 H 0.10346 0.52761 0.80822 0.0
H70 H 0.04718 0.46351 0.8477 0.0
C71 C 0.97055 0.43157 0.79865 0.0
C72 C 0.94686 0.43133 0.80216 0.0
C73 C 0.98872 0.43742 0.81654 0.0
C74 C 0.98286 0.44281 0.83805 0.0
C75 C 0.9592 0.44256 0.84175 0.0
C76 C 0.94167 0.43734 0.82361 0.0
C77 C 0.013 0.43544 0.81331 0.0
C78 C 0.03766 0.46178 0.81214 0.0
C79 C 0.04611 0.47428 0.79124 0.0
C80 C 0.07013 0.49783 0.78969 0.0
C81 C 0.08479 0.5095 0.80941 0.0
C82 C 0.07682 0.4973 0.83035 0.0
C83 C 0.05316 0.47337 0.83166 0.0
H84 H 0.5848 0.05454 0.02174 0.0
H85 H 0.56154 0.03471 0.95211 0.0
H86 H 0.56973 0.10391 0.98024 0.0
H87 H 0.5875 0.01998 0.00489 0.0
H88 H 0.58685 0.01771 0.97481 0.0
H89 H 0.54158 1.00139 0.02467 0.0
H90 H 0.48272 0.92867 -0.00415 0.0
H91 H 0.5516 0.97997 0.95782 0.0
C92 C 0.57853 0.05848 0.00577 0.0
C93 C 0.57714 0.08086 0.00337 0.0
C94 C 0.57256 0.04156 0.98738 0.0
C95 C 0.56538 0.0473 0.96647 0.0
C96 C 0.5639 0.06961 0.9639 0.0
C97 C 0.56944 0.08598 0.9825 0.0
C98 C 0.5757 0.01843 0.98956 0.0
C99 C 0.54909 0.99386 0.99081 0.0
C100 C 0.53408 0.98799 0.01058 0.0
C101 C 0.50993 0.96456 0.01249 0.0
C102 C 0.50068 0.94732 0.99418 0.0
C103 C 0.51559 0.95266 0.97452 0.0
C104 C 0.53979 0.976 0.97285 0.0
H105 H 0.59309 0.55789 0.11694 0.0
H106 H 0.56353 0.54221 0.18475 0.0
H107 H 0.5703 0.48504 0.14712 0.0
H108 H 0.59657 0.59237 0.14046 0.0
H109 H 0.58803 0.58678 0.16963 0.0
H110 H 0.55688 0.57121 0.11129 0.0
H111 H 0.49259 0.58071 0.13135 0.0
H112 H 0.54985 0.58747 0.18077 0.0
C113 C 0.58472 0.54473 0.13098 0.0
C114 C 0.58202 0.52035 0.12968 0.0
C115 C 0.57721 0.55236 0.1506 0.0
C116 C 0.56788 0.53571 0.16924 0.0
C117 C 0.56587 0.51154 0.16833 0.0
C118 C 0.57189 0.50369 0.1481 0.0
C119 C 0.58105 0.57896 0.15232 0.0
C120 C 0.55562 0.57833 0.14684 0.0
C121 C 0.54608 0.57415 0.12449 0.0
C122 C 0.52303 0.57447 0.11902 0.0
C123 C 0.50956 0.57911 0.13595 0.0
C124 C 0.51925 0.58423 0.15822 0.0
C125 C 0.54214 0.58343 0.16364 0.0
C126 C 0.614 0.33415 0.39319 0.0
O127 O 0.63683 0.34741 0.38294 0.0
O128 O 0.65798 0.40133 0.39104 0.0
Zn129 Zn 0.61847 0.38399 0.3953 0.0
O130 O 0.60982 0.39997 0.42107 0.0
C131 C 0.58247 0.39187 0.36773 0.0
O132 O 0.57072 0.38941 0.38706 0.0
O133 O 0.60242 0.34572 0.4001 0.0
C134 C 0.62302 0.4241 0.42487 0.0
O135 O 0.64401 0.43886 0.41272 0.0
C136 C 0.67517 0.40658 0.40651 0.0
O137 O 0.6675 0.40081 0.42751 0.0
O138 O 0.60283 0.38968 0.36714 0.0
C139 C 0.30725 0.69216 0.56902 0.0
O140 O 0.31743 0.6793 0.57809 0.0
O141 O 0.28289 0.62428 0.56327 0.0
Zn142 Zn 0.26085 0.64106 0.56135 0.0
O143 O 0.23697 0.62902 0.53389 0.0
C144 C 0.21939 0.60636 0.58986 0.0
O145 O 0.21834 0.59016 0.57455 0.0
O146 O 0.28381 0.67988 0.56097 0.0
C147 C 0.23091 0.60885 0.52255 0.0
O148 O 0.24174 0.59519 0.52786 0.0
C149 C 0.29988 0.62693 0.54876 0.0
O150 O 0.30388 0.64154 0.53108 0.0
O151 O 0.23688 0.63012 0.58818 0.0
C152 C 0.61401 0.29373 0.71422 0.0
O153 O 0.63008 0.29309 0.69935 0.0
O154 O 0.66434 0.28145 0.7366 0.0
Zn155 Zn 0.6247 0.25758 0.73412 0.0
O156 O 0.61557 0.23497 0.70646 0.0
C157 C 0.62113 0.23983 0.78057 0.0
O158 O 0.64234 0.26256 0.78421 0.0
O159 O 0.60797 0.27939 0.73146 0.0
C160 C 0.61249 0.2126 0.708 0.0
O161 O 0.61584 0.20465 0.72768 0.0
C162 C 0.68083 0.27408 0.73376 0.0
O163 O 0.672 0.24968 0.72938 0.0
O164 O 0.61048 0.23434 0.76108 0.0
C165 C 0.40655 0.69302 0.91218 0.0
O166 O 0.39306 0.67809 0.92907 0.0
O167 O 0.35288 0.62859 0.89707 0.0
Zn168 Zn 0.39264 0.64411 0.89488 0.0
O169 O 0.40795 0.63481 0.92137 0.0
C170 C 0.38731 0.61001 0.85821 0.0
O171 O 0.36436 0.59449 0.86759 0.0
O172 O 0.40951 0.68276 0.89463 0.0
C173 C 0.4059 0.61292 0.92335 0.0
O174 O 0.39246 0.59492 0.90817 0.0
C175 C 0.33678 0.60837 0.9078 0.0
O176 O 0.34567 0.59545 0.91878 0.0
O177 O 0.40217 0.63241 0.86649 0.0
C178 C 0.71661 0.40142 0.0522 0.0
O179 O 0.7057 0.37884 0.04214 0.0
O180 O 0.73013 0.35194 0.06566 0.0
Zn181 Zn 0.75739 0.38985 0.06237 0.0
O182 O 0.7837 0.40202 0.08839 0.0
C183 C 0.78895 0.38306 0.02987 0.0
O184 O 0.78658 0.36593 0.04474 0.0
O185 O 0.739 0.4103 0.06195 0.0
C186 C 0.80836 0.41721 0.08523 0.0
O187 O 0.81681 0.42573 0.06484 0.0
C188 C 0.73458 0.33629 0.07636 0.0
O189 O 0.7577 0.34487 0.08628 0.0
O190 O 0.77721 0.39546 0.03332 0.0
C191 C 0.39456 0.71931 0.22658 0.0
O192 O 0.36875 0.70782 0.22396 0.0
O193 O 0.35232 0.7451 0.2366 0.0
Zn194 Zn 0.39175 0.76603 0.23127 0.0
O195 O 0.39905 0.78658 0.20275 0.0
C196 C 0.4022 0.78675 0.27685 0.0
O197 O 0.38314 0.76342 0.28211 0.0
O198 O 0.40796 0.74356 0.22978 0.0
C199 C 0.39638 0.80615 0.20329 0.0
O200 O 0.38808 0.81136 0.22191 0.0
C201 C 0.33546 0.73563 0.22054 0.0
O202 O 0.34383 0.7391 0.19966 0.0
O203 O 0.40928 0.79183 0.25644 0.0
C204 C 0.10947 0.59158 0.2787 0.0
C205 C 0.0946 0.60264 0.28535 0.0
C206 C 0.13299 0.60603 0.26682 0.0
C207 C 0.186 0.67325 0.26165 0.0
H208 H 0.214 0.64579 0.21811 0.0
C209 C 0.29777 0.71886 0.24758 0.0
C210 C 0.30673 0.72089 0.22537 0.0
C211 C 0.2707 0.70513 0.25219 0.0
C212 C 0.20638 0.65385 0.23007 0.0
H213 H 0.09179 0.63694 0.28338 0.0
H214 H 0.13266 0.66205 0.26227 0.0
H215 H 0.16748 0.62019 0.2289 0.0
H216 H 0.2942 0.70995 0.19058 0.0
H217 H 0.24685 0.68589 0.1987 0.0
H218 H 0.22488 0.70673 0.26306 0.0
C219 C 0.12632 0.64232 0.26657 0.0
C220 C 0.17979 0.63912 0.23637 0.0
C221 C 0.10273 0.62783 0.27842 0.0
C222 C 0.28797 0.70876 0.20788 0.0
C223 C 0.26084 0.69488 0.21253 0.0
C224 C 0.21255 0.6879 0.25543 0.0
C225 C 0.14219 0.63187 0.26135 0.0
C226 C 0.16941 0.64849 0.2525 0.0
C227 C 0.25192 0.693 0.23474 0.0
C228 C 0.22317 0.6782 0.23988 0.0
H229 H 0.10354 0.57212 0.28366 0.0
H230 H 0.14475 0.59739 0.26317 0.0
H231 H 0.17878 0.68096 0.27432 0.0
H232 H 0.31167 0.72791 0.26146 0.0
H233 H 0.26449 0.70371 0.26953 0.0
C234 C 0.54005 0.11182 0.44682 0.0
C235 C 0.51358 0.09864 0.45378 0.0
C236 C 0.55047 0.13519 0.43538 0.0
C237 C 0.5327 0.18061 0.40863 0.0
H238 H 0.6031 0.23191 0.4297 0.0
C239 C 0.57578 0.29085 0.40396 0.0
C240 C 0.60213 0.30613 0.39682 0.0
C241 C 0.56479 0.26446 0.40768 0.0
C242 C 0.58356 0.21775 0.42343 0.0
H243 H 0.4769 0.09878 0.45348 0.0
H244 H 0.49512 0.13991 0.43412 0.0
H245 H 0.58416 0.18729 0.44099 0.0
H246 H 0.6375 0.30562 0.3878 0.0
H247 H 0.61841 0.25965 0.39468 0.0
H248 H 0.53191 0.21169 0.39194 0.0
C249 C 0.50781 0.13207 0.43689 0.0
C250 C 0.57269 0.19205 0.42977 0.0
C251 C 0.49729 0.10846 0.44801 0.0
C252 C 0.61716 0.29441 0.39331 0.0
C253 C 0.60628 0.26811 0.39731 0.0
C254 C 0.54349 0.20644 0.40252 0.0
C255 C 0.53479 0.14618 0.4311 0.0
C256 C 0.54702 0.17312 0.42262 0.0
C257 C 0.58002 0.25288 0.40462 0.0
C258 C 0.56895 0.22528 0.41001 0.0
H259 H 0.55295 0.10453 0.45106 0.0
H260 H 0.57112 0.14509 0.43064 0.0
H261 H 0.51307 0.16658 0.40249 0.0
H262 H 0.56365 0.29928 0.40673 0.0
H263 H 0.54458 0.25323 0.41351 0.0
C264 C 0.44134 0.54838 0.60872 0.0
C265 C 0.43022 0.52161 0.61069 0.0
C266 C 0.42867 0.55836 0.59589 0.0
C267 C 0.36104 0.53894 0.57799 0.0
H268 H 0.3961 0.60673 0.55084 0.0
C269 C 0.31063 0.59831 0.57107 0.0
C270 C 0.31483 0.61353 0.55188 0.0
C271 C 0.3247 0.58572 0.57427 0.0
C272 C 0.38593 0.58761 0.55805 0.0
H273 H 0.39826 0.48439 0.5991 0.0
H274 H 0.37662 0.50182 0.57609 0.0
H275 H 0.42187 0.58695 0.56119 0.0
H276 H 0.33708 0.62732 0.52092 0.0
H277 H 0.36158 0.6051 0.52647 0.0
H278 H 0.32516 0.53957 0.57494 0.0
C279 C 0.39477 0.5151 0.58499 0.0
C280 C 0.40076 0.57636 0.56419 0.0
C281 C 0.40739 0.50511 0.59794 0.0
C282 C 0.33341 0.61579 0.53591 0.0
C283 C 0.34753 0.60314 0.53913 0.0
C284 C 0.34625 0.55012 0.57179 0.0
C285 C 0.40465 0.5418 0.58457 0.0
C286 C 0.3886 0.55216 0.57477 0.0
C287 C 0.34331 0.58793 0.55836 0.0
C288 C 0.35861 0.57488 0.56233 0.0
H289 H 0.45915 0.56162 0.61806 0.0
H290 H 0.43687 0.579 0.59608 0.0
H291 H 0.35097 0.52042 0.5863 0.0
H292 H 0.29656 0.59622 0.58377 0.0
H293 H 0.32131 0.5746 0.5895 0.0
C294 C 0.91115 0.4336 0.78102 0.0
C295 C 0.92539 0.42111 0.78492 0.0
C296 C 0.88677 0.42089 0.76966 0.0
C297 C 0.83974 0.36154 0.73727 0.0
H298 H 0.78713 0.36726 0.77146 0.0
C299 C 0.72799 0.28456 0.73408 0.0
C300 C 0.70967 0.29282 0.73554 0.0
C301 C 0.75517 0.30218 0.73642 0.0
C302 C 0.80152 0.36571 0.76141 0.0
H303 H 0.92635 0.38636 0.7785 0.0
H304 H 0.88372 0.36405 0.75879 0.0
H305 H 0.83375 0.39543 0.78041 0.0
H306 H 0.7056 0.32624 0.73993 0.0
H307 H 0.75294 0.35695 0.74377 0.0
H308 H 0.8072 0.33123 0.71868 0.0
C309 C 0.89142 0.38373 0.76428 0.0
C310 C 0.82836 0.38196 0.76652 0.0
C311 C 0.91591 0.39654 0.77554 0.0
C312 C 0.71916 0.31917 0.73891 0.0
C313 C 0.74631 0.33679 0.74119 0.0
C314 C 0.8128 0.34525 0.73213 0.0
C315 C 0.87603 0.39534 0.76213 0.0
C316 C 0.84781 0.37988 0.75472 0.0
C317 C 0.76464 0.32848 0.74023 0.0
C318 C 0.79336 0.34692 0.74437 0.0
H319 H 0.91816 0.45265 0.78793 0.0
H320 H 0.87572 0.43062 0.76779 0.0
H321 H 0.85422 0.35959 0.72773 0.0
H322 H 0.72135 0.2644 0.73148 0.0
H323 H 0.76869 0.29506 0.73588 0.0
C324 C 0.5229 0.92137 0.95319 0.0
C325 C 0.50702 0.93197 0.95745 0.0
C326 C 0.51226 0.89763 0.94207 0.0
C327 C 0.48645 0.84754 0.91517 0.0
H328 H 0.41596 0.79938 0.93686 0.0
C329 C 0.43146 0.73751 0.89554 0.0
C330 C 0.41788 0.72124 0.91373 0.0
C331 C 0.4419 0.76413 0.89722 0.0
C332 C 0.43568 0.81253 0.93068 0.0
H333 H 0.46854 0.92756 0.95173 0.0
H334 H 0.45022 0.88671 0.93139 0.0
H335 H 0.4357 0.84495 0.94474 0.0
H336 H 0.40491 0.72027 0.94803 0.0
H337 H 0.42335 0.76644 0.95107 0.0
H338 H 0.4868 0.81462 0.90224 0.0
C339 C 0.47059 0.89614 0.93727 0.0
C340 C 0.44689 0.83883 0.93487 0.0
C341 C 0.48111 0.91966 0.94868 0.0
C342 C 0.4151 0.73218 0.93363 0.0
C343 C 0.42552 0.75869 0.93532 0.0
C344 C 0.47524 0.82111 0.91107 0.0
C345 C 0.48559 0.88418 0.93483 0.0
C346 C 0.47264 0.85669 0.92757 0.0
C347 C 0.43894 0.77501 0.91712 0.0
C348 C 0.44995 0.80326 0.91926 0.0
H349 H 0.54286 0.93039 0.96004 0.0
H350 H 0.52441 0.88903 0.94067 0.0
H351 H 0.50618 0.86074 0.90906 0.0
H352 H 0.43392 0.72967 0.87995 0.0
H353 H 0.45198 0.77614 0.88285 0.0
C354 C 0.57777 0.48946 0.09968 0.0
C355 C 0.59327 0.51313 0.11087 0.0
C356 C 0.58973 0.47921 0.08647 0.0
C357 C 0.655 0.49252 0.06382 0.0
H358 H 0.62535 0.41997 0.07666 0.0
C359 C 0.71484 0.44086 0.06205 0.0
C360 C 0.70236 0.41569 0.05319 0.0
C361 C 0.70085 0.45371 0.06419 0.0
C362 C 0.63368 0.44013 0.07257 0.0
H363 H 0.63307 0.5454 0.11604 0.0
H364 H 0.65413 0.52736 0.09356 0.0
H365 H 0.60167 0.44109 0.08806 0.0
H366 H 0.66561 0.38459 0.039 0.0
H367 H 0.64117 0.40694 0.04299 0.0
H368 H 0.68779 0.49155 0.04941 0.0
C369 C 0.63272 0.51684 0.0944 0.0
C370 C 0.62001 0.45229 0.07901 0.0
C371 C 0.62068 0.52727 0.10731 0.0
C372 C 0.6758 0.40392 0.04597 0.0
C373 C 0.66176 0.41668 0.0483 0.0
C374 C 0.66884 0.48036 0.05761 0.0
C375 C 0.6175 0.49215 0.08461 0.0
C376 C 0.63064 0.47876 0.07506 0.0
C377 C 0.67404 0.44158 0.05769 0.0
C378 C 0.65848 0.45412 0.06223 0.0
H379 H 0.55656 0.47824 0.10222 0.0
H380 H 0.57727 0.46051 0.07867 0.0
H381 H 0.66364 0.51281 0.06017 0.0
H382 H 0.73531 0.45051 0.0677 0.0
H383 H 0.71077 0.47279 0.07169 0.0
C384 C 0.45044 0.91881 0.52044 0.0
C385 C 0.43485 0.92871 0.51264 0.0
C386 C 0.43905 0.89594 0.53276 0.0
C387 C 0.37611 0.84577 0.55995 0.0
H388 H 0.39955 0.79999 0.53921 0.0
C389 C 0.31112 0.73469 0.56124 0.0
C390 C 0.32313 0.72063 0.56759 0.0
C391 C 0.32625 0.76146 0.55901 0.0
C392 C 0.39302 0.81262 0.54547 0.0
H393 H 0.39557 0.92338 0.51256 0.0
H394 H 0.37542 0.88315 0.53349 0.0
H395 H 0.42377 0.84498 0.52823 0.0
H396 H 0.36039 0.72375 0.57702 0.0
H397 H 0.38686 0.77053 0.57277 0.0
H398 H 0.34445 0.81272 0.5762 0.0
C399 C 0.39656 0.89319 0.53066 0.0
C400 C 0.407 0.83854 0.53927 0.0
C401 C 0.40807 0.91629 0.51863 0.0
C402 C 0.35053 0.734 0.57206 0.0
C403 C 0.36572 0.76076 0.56958 0.0
C404 C 0.36194 0.81972 0.56593 0.0
C405 C 0.41169 0.8822 0.53714 0.0
C406 C 0.39852 0.85542 0.54612 0.0
C407 C 0.35375 0.77474 0.56286 0.0
C408 C 0.37004 0.80282 0.55845 0.0
H409 H 0.47119 0.92815 0.51608 0.0
H410 H 0.4515 0.88849 0.538 0.0
H411 H 0.36923 0.85823 0.56588 0.0
H412 H 0.29003 0.72499 0.55776 0.0
H413 H 0.31653 0.77169 0.55357 0.0
C414 C 0.5329 0.42387 0.64206 0.0
C415 C 0.52113 0.43521 0.65438 0.0
C416 C 0.54356 0.41083 0.65295 0.0
C417 C 0.53861 0.37193 0.69975 0.0
H418 H 0.61116 0.39314 0.68527 0.0
C419 C 0.58823 0.31391 0.72752 0.0
C420 C 0.6036 0.31121 0.71095 0.0
C421 C 0.57889 0.33085 0.72428 0.0
C422 C 0.59084 0.38686 0.68942 0.0
H423 H 0.51033 0.44052 0.68797 0.0
H424 H 0.52838 0.41658 0.70708 0.0
H425 H 0.593 0.41956 0.67335 0.0
H426 H 0.62087 0.32392 0.67788 0.0
H427 H 0.60427 0.35283 0.67207 0.0
H428 H 0.53594 0.3384 0.7147 0.0
C429 C 0.5297 0.41855 0.68891 0.0
C430 C 0.58056 0.40213 0.68277 0.0
C431 C 0.51934 0.43213 0.67797 0.0
C432 C 0.60926 0.32564 0.69107 0.0
C433 C 0.5999 0.34243 0.68782 0.0
C434 C 0.54883 0.35642 0.70625 0.0
C435 C 0.54227 0.4082 0.67644 0.0
C436 C 0.55417 0.39445 0.6873 0.0
C437 C 0.58475 0.34541 0.70442 0.0
C438 C 0.57483 0.36334 0.7005 0.0
H439 H 0.53372 0.4248 0.62384 0.0
H440 H 0.55263 0.4025 0.64293 0.0
H441 H 0.51812 0.36557 0.70328 0.0
H442 H 0.58356 0.30309 0.74306 0.0
H443 H 0.56738 0.33277 0.73745 0.0
C444 C 0.10486 0.49369 0.86033 0.0
C445 C 0.09563 0.50836 0.84964 0.0
C446 C 0.12816 0.50581 0.87336 0.0
C447 C 0.1901 0.56694 0.87201 0.0
H448 H 0.20964 0.54139 0.92412 0.0
C449 C 0.2989 0.61513 0.90011 0.0
C450 C 0.30804 0.59875 0.9068 0.0
C451 C 0.27178 0.60572 0.89781 0.0
C452 C 0.20455 0.54868 0.90945 0.0
H453 H 0.10158 0.54663 0.84628 0.0
H454 H 0.14204 0.56777 0.86921 0.0
H455 H 0.16296 0.5215 0.91311 0.0
H456 H 0.29591 0.5598 0.91689 0.0
H457 H 0.24866 0.54307 0.91199 0.0
H458 H 0.23137 0.59308 0.86739 0.0
C459 C 0.13167 0.54702 0.86717 0.0
C460 C 0.17779 0.53736 0.90326 0.0
C461 C 0.10845 0.53492 0.85417 0.0
C462 C 0.28947 0.57292 0.91174 0.0
C463 C 0.26232 0.56337 0.90909 0.0
C464 C 0.21675 0.57802 0.87801 0.0
C465 C 0.14252 0.53278 0.87588 0.0
C466 C 0.17033 0.54625 0.88433 0.0
C467 C 0.25311 0.57956 0.90173 0.0
C468 C 0.22443 0.56889 0.89666 0.0
H469 H 0.09548 0.47321 0.85698 0.0
H470 H 0.13604 0.49432 0.87982 0.0
H471 H 0.18511 0.57386 0.85702 0.0
H472 H 0.31273 0.63524 0.8965 0.0
H473 H 0.26549 0.61894 0.89267 0.0
C474 C 0.57319 0.11383 0.02567 0.0
C475 C 0.58687 0.10091 0.0213 0.0
C476 C 0.58536 0.13689 0.0379 0.0
C477 C 0.64359 0.18174 0.07309 0.0
H478 H 0.6407 0.234 0.03745 0.0
C479 C 0.72211 0.29024 0.08088 0.0
C480 C 0.71466 0.30839 0.07602 0.0
C481 C 0.70386 0.26385 0.07849 0.0
C482 C 0.64136 0.21973 0.04801 0.0
H483 H 0.62307 0.10079 0.02801 0.0
H484 H 0.6443 0.14105 0.04954 0.0
H485 H 0.61271 0.189 0.02722 0.0
H486 H 0.68185 0.31313 0.06618 0.0
H487 H 0.64978 0.26719 0.0628 0.0
H488 H 0.67255 0.21264 0.09377 0.0
C489 C 0.62416 0.13333 0.04352 0.0
C490 C 0.62527 0.19383 0.04208 0.0
C491 C 0.61198 0.11023 0.03123 0.0
C492 C 0.68828 0.29961 0.06976 0.0
C493 C 0.66993 0.27324 0.0677 0.0
C494 C 0.65956 0.20774 0.07922 0.0
C495 C 0.61144 0.14749 0.04606 0.0
C496 C 0.62646 0.17455 0.05431 0.0
C497 C 0.67763 0.255 0.07146 0.0
C498 C 0.65897 0.22713 0.0665 0.0
H499 H 0.55366 0.10688 0.01847 0.0
H500 H 0.57488 0.14713 0.03998 0.0
H501 H 0.64483 0.16727 0.0829 0.0
H502 H 0.74233 0.29641 0.0857 0.0
H503 H 0.71068 0.2505 0.08127 0.0
C504 C 0.47957 0.58228 0.1756 0.0
C505 C 0.50724 0.59375 0.1746 0.0
C506 C 0.46831 0.59447 0.18702 0.0
C507 C 0.48499 0.65999 0.20091 0.0
H508 H 0.4174 0.62572 0.23128 0.0
C509 C 0.43537 0.71614 0.22949 0.0
C510 C 0.40801 0.70429 0.22523 0.0
C511 C 0.44821 0.70219 0.22739 0.0
C512 C 0.43622 0.63555 0.22272 0.0
H513 H 0.54472 0.62607 0.18618 0.0
H514 H 0.52504 0.64716 0.20647 0.0
H515 H 0.43872 0.60143 0.22161 0.0
H516 H 0.3726 0.66831 0.21584 0.0
H517 H 0.39505 0.64416 0.21172 0.0
H518 H 0.4822 0.69383 0.20124 0.0
C519 C 0.51207 0.62892 0.19811 0.0
C520 C 0.44848 0.62165 0.21726 0.0
C521 C 0.52334 0.61667 0.18673 0.0
C522 C 0.3937 0.67804 0.21926 0.0
C523 C 0.40656 0.66412 0.21707 0.0
C524 C 0.47273 0.67384 0.20629 0.0
C525 C 0.48449 0.61844 0.19766 0.0
C526 C 0.47282 0.63363 0.20598 0.0
C527 C 0.43403 0.67608 0.22088 0.0
C528 C 0.44799 0.66173 0.21694 0.0
H529 H 0.46667 0.56451 0.16655 0.0
H530 H 0.44701 0.5859 0.18626 0.0
H531 H 0.50349 0.66972 0.19184 0.0
H532 H 0.44697 0.73627 0.23431 0.0
H533 H 0.46931 0.71192 0.23081 0.0
C534 C 0.88835 0.50276 0.31916 0.0
C535 C 0.9121 0.51056 0.33102 0.0
C536 C 0.86427 0.49125 0.33031 0.0
C537 C 0.83187 0.48351 0.38418 0.0
H538 H 0.77501 0.42267 0.35457 0.0
C539 C 0.72317 0.42523 0.41725 0.0
C540 C 0.70348 0.41847 0.40056 0.0
C541 C 0.74977 0.43592 0.41126 0.0
C542 C 0.79062 0.43968 0.36302 0.0
H543 H 0.92936 0.51368 0.36416 0.0
H544 H 0.88673 0.49352 0.38394 0.0
H545 H 0.81976 0.44269 0.33999 0.0
H546 H 0.69642 0.41805 0.36452 0.0
H547 H 0.74249 0.43662 0.35419 0.0
H548 H 0.80232 0.48071 0.40692 0.0
C549 C 0.88702 0.4962 0.36587 0.0
C550 C 0.81626 0.45111 0.35469 0.0
C551 C 0.91133 0.50771 0.35459 0.0
C552 C 0.71099 0.42287 0.37783 0.0
C553 C 0.73743 0.43339 0.37188 0.0
C554 C 0.80604 0.47202 0.39255 0.0
C555 C 0.86321 0.48734 0.35369 0.0
C556 C 0.83701 0.47356 0.36475 0.0
C557 C 0.75711 0.43983 0.38846 0.0
C558 C 0.78504 0.45041 0.38162 0.0
H559 H 0.88832 0.50543 0.3011 0.0
H560 H 0.84635 0.48529 0.32056 0.0
H561 H 0.84751 0.50082 0.39224 0.0
H562 H 0.71803 0.42213 0.43492 0.0
H563 H 0.76451 0.44065 0.4244 0.0
C564 C 0.06803 0.5755 0.38085 0.0
C565 C 0.06782 0.56308 0.3608 0.0
C566 C 0.08108 0.57397 0.40005 0.0
C567 C 0.13652 0.56449 0.41403 0.0
H568 H 0.11933 0.57221 0.47535 0.0
C569 C 0.20536 0.57935 0.49029 0.0
C570 C 0.21034 0.5999 0.50464 0.0
C571 C 0.18544 0.57059 0.47375 0.0
C572 C 0.12435 0.57005 0.45829 0.0
H573 H 0.07892 0.53751 0.34556 0.0
H574 H 0.10101 0.5341 0.37932 0.0
H575 H 0.08691 0.56221 0.44514 0.0
H576 H 0.19818 0.62722 0.51301 0.0
H577 H 0.16349 0.61191 0.48422 0.0
H578 H 0.17408 0.57265 0.42719 0.0
C579 C 0.09185 0.54569 0.38007 0.0
C580 C 0.10582 0.56436 0.44099 0.0
C581 C 0.07904 0.54744 0.3608 0.0
C582 C 0.19492 0.6114 0.50219 0.0
C583 C 0.17486 0.60248 0.48584 0.0
C584 C 0.15493 0.56994 0.43136 0.0
C585 C 0.09399 0.55981 0.39964 0.0
C586 C 0.11192 0.56212 0.41854 0.0
C587 C 0.16993 0.58202 0.47144 0.0
C588 C 0.14927 0.57339 0.45357 0.0
H589 H 0.0598 0.58792 0.38122 0.0
H590 H 0.0825 0.58531 0.4147 0.0
H591 H 0.14217 0.56337 0.39694 0.0
H592 H 0.21687 0.57005 0.49179 0.0
H593 H 0.182 0.55474 0.4629 0.0
C594 C 0.50461 0.06824 0.54982 0.0
C595 C 0.52007 0.07121 0.53088 0.0
C596 C 0.51669 0.08004 0.57031 0.0
C597 C 0.54735 0.10192 0.6143 0.0
H598 H 0.60418 0.17276 0.60674 0.0
C599 C 0.60021 0.17036 0.69004 0.0
C600 C 0.6045 0.19539 0.68806 0.0
C601 C 0.59185 0.15376 0.67141 0.0
C602 C 0.58831 0.15304 0.60914 0.0
H603 H 0.56016 0.08687 0.51901 0.0
H604 H 0.58128 0.10718 0.55489 0.0
H605 H 0.58579 0.14469 0.57391 0.0
H606 H 0.60366 0.22272 0.66489 0.0
H607 H 0.58889 0.19372 0.63245 0.0
H608 H 0.54921 0.11069 0.64949 0.0
C609 C 0.55985 0.09629 0.55377 0.0
C610 C 0.578 0.13681 0.59036 0.0
C611 C 0.54778 0.08457 0.53328 0.0
C612 C 0.60058 0.20358 0.66698 0.0
C613 C 0.59227 0.187 0.64835 0.0
C614 C 0.5577 0.11817 0.63313 0.0
C615 C 0.54445 0.09498 0.57227 0.0
C616 C 0.55713 0.11116 0.59265 0.0
C617 C 0.58768 0.16186 0.65037 0.0
C618 C 0.578 0.14404 0.63069 0.0
H619 H 0.48322 0.0583 0.54842 0.0
H620 H 0.50423 0.07879 0.58416 0.0
H621 H 0.53142 0.08222 0.61666 0.0
H622 H 0.60312 0.16346 0.70603 0.0
H623 H 0.58877 0.13462 0.67345 0.0
C624 C 0.46933 0.54712 0.69548 0.0
C625 C 0.45336 0.52061 0.69102 0.0
C626 C 0.46682 0.5575 0.71568 0.0
C627 C 0.43464 0.54046 0.77217 0.0
H628 H 0.43317 0.60329 0.76358 0.0
C629 C 0.38305 0.57448 0.83351 0.0
C630 C 0.39675 0.60073 0.83948 0.0
C631 C 0.39263 0.56543 0.8166 0.0
C632 C 0.43383 0.58592 0.76633 0.0
H633 H 0.42326 0.48397 0.70452 0.0
H634 H 0.41838 0.50202 0.7396 0.0
H635 H 0.44654 0.58615 0.73272 0.0
H636 H 0.43114 0.63812 0.83222 0.0
H637 H 0.44764 0.62231 0.80243 0.0
H638 H 0.42087 0.53988 0.80562 0.0
C639 C 0.43325 0.51484 0.72779 0.0
C640 C 0.44165 0.57612 0.74868 0.0
C641 C 0.43602 0.50443 0.70769 0.0
C642 C 0.42009 0.61779 0.82799 0.0
C643 C 0.42953 0.60876 0.81092 0.0
C644 C 0.42658 0.55016 0.78978 0.0
C645 C 0.44797 0.54163 0.7317 0.0
C646 C 0.44192 0.55312 0.75127 0.0
C647 C 0.41598 0.58246 0.80515 0.0
C648 C 0.42584 0.57285 0.78694 0.0
H649 H 0.48297 0.55995 0.6829 0.0
H650 H 0.47898 0.57811 0.71836 0.0
H651 H 0.43499 0.52293 0.7749 0.0
H652 H 0.36506 0.56082 0.84207 0.0
H653 H 0.3816 0.54512 0.8123 0.0
C654 C 0.93743 0.45736 0.86903 0.0
C655 C 0.95043 0.44374 0.86484 0.0
C656 C 0.92373 0.45371 0.88909 0.0
C657 C 0.88804 0.40267 0.93012 0.0
H658 H 0.88102 0.45444 0.96258 0.0
C659 C 0.82239 0.37787 0.00855 0.0
C660 C 0.80755 0.38996 0.01093 0.0
C661 C 0.8413 0.38549 0.99167 0.0
C662 C 0.88258 0.43974 0.95353 0.0
H663 H 0.96088 0.41708 0.87906 0.0
H664 H 0.93736 0.41107 0.91429 0.0
H665 H 0.91375 0.4676 0.93269 0.0
H666 H 0.80062 0.41924 -0.00285 0.0
H667 H 0.83331 0.4322 0.96736 0.0
H668 H 0.85656 0.37475 0.95046 0.0
C669 C 0.93743 0.42425 0.90189 0.0
C670 C 0.90141 0.44729 0.93651 0.0
C671 C 0.95119 0.42796 0.88185 0.0
C672 C 0.81174 0.40956 -0.00421 0.0
C673 C 0.83065 0.41715 0.97885 0.0
C674 C 0.86919 0.39512 0.94704 0.0
C675 C 0.92271 0.43632 0.90534 0.0
C676 C 0.90426 0.42881 0.92457 0.0
C677 C 0.84579 0.40532 0.97669 0.0
C678 C 0.86613 0.41353 0.95888 0.0
H679 H 0.93669 0.46978 0.85625 0.0
H680 H 0.91256 0.46326 0.89122 0.0
H681 H 0.88931 0.3879 0.9209 0.0
H682 H 0.81975 0.36279 0.01999 0.0
H683 H 0.8528 0.37616 0.99065 0.0
C684 C 0.50992 0.95846 0.05427 0.0
C685 C 0.49582 0.95614 0.03427 0.0
C686 C 0.49647 0.94557 0.07377 0.0
C687 C 0.46217 0.92106 0.11521 0.0
H688 H 0.40953 0.84951 0.10268 0.0
C689 C 0.40513 0.84745 0.18577 0.0
C690 C 0.40412 0.82379 0.18381 0.0
C691 C 0.4139 0.86482 0.16785 0.0
C692 C 0.42415 0.86944 0.10645 0.0
H693 H 0.45658 0.94056 0.01962 0.0
H694 H 0.4331 0.91808 0.05369 0.0
H695 H 0.42947 0.87959 0.07157 0.0
H696 H 0.41096 0.79957 0.16132 0.0
H697 H 0.42618 0.82986 0.13002 0.0
H698 H 0.45742 0.91059 0.1501 0.0
C699 C 0.45455 0.92943 0.05415 0.0
C700 C 0.43535 0.88676 0.08865 0.0
C701 C 0.46798 0.94235 0.03469 0.0
C702 C 0.4115 0.81763 0.16337 0.0
C703 C 0.42009 0.83492 0.1454 0.0
C704 C 0.45082 0.90374 0.13304 0.0
C705 C 0.46868 0.93011 0.07363 0.0
C706 C 0.45479 0.91267 0.0928 0.0
C707 C 0.42163 0.85881 0.14753 0.0
C708 C 0.43204 0.87765 0.1288 0.0
H709 H 0.53137 0.96871 0.05444 0.0
H710 H 0.50794 0.94636 0.08846 0.0
H711 H 0.47701 0.94092 0.11893 0.0
H712 H 0.39956 0.85278 0.20129 0.0
H713 H 0.41464 0.88298 0.16989 0.0
C714 C 0.57534 0.48362 0.19295 0.0
C715 C 0.56063 0.49565 0.18893 0.0
C716 C 0.5711 0.46882 0.21213 0.0
C717 C 0.54954 0.46103 0.27012 0.0
H718 H 0.55042 0.39752 0.26498 0.0
C719 C 0.5537 0.4056 0.34826 0.0
C720 C 0.57328 0.39889 0.34712 0.0
C721 C 0.54645 0.41401 0.32902 0.0
C722 C 0.55012 0.4152 0.2667 0.0
H723 H 0.53018 0.50186 0.20233 0.0
H724 H 0.52315 0.47618 0.23647 0.0
H725 H 0.54764 0.41876 0.23101 0.0
H726 H 0.6 0.395 0.32477 0.0
H727 H 0.58744 0.40967 0.29133 0.0
H728 H 0.5531 0.45797 0.30581 0.0
C729 C 0.53775 0.47813 0.22439 0.0
C730 C 0.54847 0.42732 0.24728 0.0
C731 C 0.54183 0.49285 0.20493 0.0
C732 C 0.58487 0.40004 0.32624 0.0
C733 C 0.57752 0.40828 0.30702 0.0
C734 C 0.55123 0.44888 0.28961 0.0
C735 C 0.55227 0.46584 0.22805 0.0
C736 C 0.54907 0.4508 0.24874 0.0
C737 C 0.55846 0.41564 0.30823 0.0
C738 C 0.55242 0.42629 0.28803 0.0
H739 H 0.59065 0.48605 0.18147 0.0
H740 H 0.58313 0.46021 0.21478 0.0
H741 H 0.55019 0.47918 0.27173 0.0
H742 H 0.54437 0.4049 0.36411 0.0
H743 H 0.53157 0.41939 0.33042 0.0
C744 C 0.4821 0.94276 0.43298 0.0
C745 C 0.46513 0.95263 0.43438 0.0
C746 C 0.48196 0.92937 0.41375 0.0
C747 C 0.45857 0.88328 0.38252 0.0
H748 H 0.44429 0.89598 0.32143 0.0
C749 C 0.40607 0.80213 0.3167 0.0
C750 C 0.41433 0.80734 0.2942 0.0
C751 C 0.41659 0.82186 0.33283 0.0
C752 C 0.4486 0.89228 0.33834 0.0
H753 H 0.43613 0.95784 0.41617 0.0
H754 H 0.43573 0.93437 0.38267 0.0
H755 H 0.45733 0.92931 0.35024 0.0
H756 H 0.44056 0.8373 0.27107 0.0
H757 H 0.45904 0.87166 0.29929 0.0
H758 H 0.44967 0.84623 0.37072 0.0
C759 C 0.44937 0.93715 0.39628 0.0
C760 C 0.45585 0.91131 0.35488 0.0
C761 C 0.44961 0.95066 0.41549 0.0
C762 C 0.43369 0.83263 0.28826 0.0
C763 C 0.4442 0.85237 0.3044 0.0
C764 C 0.45133 0.8643 0.36601 0.0
C765 C 0.46473 0.92544 0.39557 0.0
C766 C 0.46044 0.90684 0.37727 0.0
C767 C 0.43563 0.84725 0.32684 0.0
C768 C 0.44574 0.86836 0.34383 0.0
H769 H 0.49448 0.94427 0.44724 0.0
H770 H 0.49449 0.9211 0.41353 0.0
H771 H 0.46161 0.879 0.39963 0.0
H772 H 0.39115 0.78289 0.32183 0.0
H773 H 0.40928 0.81732 0.34991 0.0
C774 C 0.50814 0.46668 0.56652 0.0
C775 C 0.52295 0.48113 0.58533 0.0
C776 C 0.52064 0.46857 0.54612 0.0
C777 C 0.58685 0.48419 0.52754 0.0
H778 H 0.55079 0.4621 0.46964 0.0
C779 C 0.63061 0.46051 0.4502 0.0
C780 C 0.61354 0.43562 0.44152 0.0
C781 C 0.62134 0.47144 0.46569 0.0
C782 C 0.56114 0.46846 0.4857 0.0
H783 H 0.56174 0.51086 0.59707 0.0
H784 H 0.58348 0.51525 0.56108 0.0
H785 H 0.53151 0.4747 0.49965 0.0
H786 H 0.57331 0.40291 0.44183 0.0
H787 H 0.55711 0.42218 0.46858 0.0
H788 H 0.61636 0.47772 0.51349 0.0
C789 C 0.56241 0.50167 0.56224 0.0
C790 C 0.55009 0.47558 0.50293 0.0
C791 C 0.54995 0.49945 0.58277 0.0
C792 C 0.58699 0.42204 0.44836 0.0
C793 C 0.57764 0.43315 0.46347 0.0
C794 C 0.5981 0.4775 0.51019 0.0
C795 C 0.5482 0.48522 0.54403 0.0
C796 C 0.56231 0.48266 0.52436 0.0
C797 C 0.59473 0.45789 0.47234 0.0
C798 C 0.5849 0.46876 0.48938 0.0
H799 H 0.48735 0.45219 0.56815 0.0
H800 H 0.50895 0.4554 0.53266 0.0
H801 H 0.59673 0.48909 0.54384 0.0
H802 H 0.65117 0.47142 0.4452 0.0
H803 H 0.6349 0.49053 0.47236 0.0
C804 C 0.06691 0.51175 0.75022 0.0
C805 C 0.08184 0.50915 0.76754 0.0
C806 C 0.07898 0.52366 0.72988 0.0
C807 C 0.14509 0.56857 0.70675 0.0
H808 H 0.11382 0.53859 0.64859 0.0
C809 C 0.20047 0.61423 0.62455 0.0
C810 C 0.20051 0.59695 0.60875 0.0
C811 C 0.18308 0.60513 0.64272 0.0
C812 C 0.12279 0.5472 0.66472 0.0
H813 H 0.12054 0.51539 0.7766 0.0
H814 H 0.14139 0.53604 0.74149 0.0
H815 H 0.08879 0.51918 0.68298 0.0
H816 H 0.18187 0.5566 0.59932 0.0
H817 H 0.15204 0.54074 0.63123 0.0
H818 H 0.17948 0.59582 0.68883 0.0
C819 C 0.12066 0.52968 0.74373 0.0
C820 C 0.10834 0.53624 0.68437 0.0
C821 C 0.10869 0.51782 0.76385 0.0
C822 C 0.18239 0.57044 0.61122 0.0
C823 C 0.16508 0.56134 0.62942 0.0
C824 C 0.15949 0.57949 0.68719 0.0
C825 C 0.10612 0.53311 0.72664 0.0
C826 C 0.11966 0.54644 0.70561 0.0
C827 C 0.16542 0.57855 0.64553 0.0
C828 C 0.14877 0.56861 0.66597 0.0
H829 H 0.04616 0.50515 0.75261 0.0
H830 H 0.06728 0.52599 0.71693 0.0
H831 H 0.15418 0.57709 0.72288 0.0
H832 H 0.21401 0.63479 0.62301 0.0
H833 H 0.18362 0.61892 0.65468 0.0
C834 C 0.54395 0.08889 0.93918 0.0
C835 C 0.56003 0.07808 0.94146 0.0
C836 C 0.54509 0.10246 0.91977 0.0
C837 C 0.57092 0.14831 0.88866 0.0
H838 H 0.58118 0.13238 0.82765 0.0
C839 C 0.62132 0.2261 0.82043 0.0
C840 C 0.6105 0.22012 0.79852 0.0
C841 C 0.6119 0.20715 0.83708 0.0
C842 C 0.57809 0.13699 0.84457 0.0
H843 H 0.58841 0.07133 0.92455 0.0
H844 H 0.59038 0.09498 0.89058 0.0
H845 H 0.56827 0.09989 0.8571 0.0
H846 H 0.58109 0.18956 0.77696 0.0
H847 H 0.56471 0.15657 0.80606 0.0
H848 H 0.58101 0.18545 0.87626 0.0
C849 C 0.57679 0.09289 0.90375 0.0
C850 C 0.57088 0.11846 0.86144 0.0
C851 C 0.57562 0.07927 0.92319 0.0
C852 C 0.58988 0.19484 0.79368 0.0
C853 C 0.58058 0.17586 0.8103 0.0
C854 C 0.57824 0.16684 0.87185 0.0
C855 C 0.56235 0.10552 0.90224 0.0
C856 C 0.56748 0.12402 0.88373 0.0
C857 C 0.59156 0.18179 0.83216 0.0
C858 C 0.58224 0.16152 0.84968 0.0
H859 H 0.53149 0.08797 0.95292 0.0
H860 H 0.53329 0.1115 0.91889 0.0
H861 H 0.56884 0.15337 0.90572 0.0
H862 H 0.63724 0.24537 0.8247 0.0
H863 H 0.62097 0.21224 0.85371 0.0
C864 C 0.4885 0.55564 0.08859 0.0
C865 C 0.51461 0.57351 0.09535 0.0
C866 C 0.47893 0.55798 0.06761 0.0
C867 C 0.48406 0.60719 0.03202 0.0
H868 H 0.45022 0.55584 0.98473 0.0
C869 C 0.44191 0.62838 0.95244 0.0
C870 C 0.41922 0.60797 0.94218 0.0
C871 C 0.45507 0.62363 0.96976 0.0
C872 C 0.4592 0.57027 -0.00208 0.0
H873 H 0.55148 0.60723 0.08548 0.0
H874 H 0.53447 0.61176 0.04894 0.0
H875 H 0.47066 0.54727 0.017 0.0
H876 H 0.39216 0.56667 0.94216 0.0
H877 H 0.41406 0.55843 0.97326 0.0
H878 H 0.47145 0.62963 0.01412 0.0
C879 C 0.52165 0.59573 0.0597 0.0
C880 C 0.47113 0.5654 0.01624 0.0
C881 C 0.53139 0.59305 0.08045 0.0
C882 C 0.40973 0.58275 0.94971 0.0
C883 C 0.4225 0.57804 0.96743 0.0
C884 C 0.47164 0.61183 0.01404 0.0
C885 C 0.49518 0.57858 0.05338 0.0
C886 C 0.48369 0.58387 0.03336 0.0
C887 C 0.44545 0.59841 0.97766 0.0
C888 C 0.45903 0.59347 -0.00332 0.0
H889 H 0.47521 0.54057 0.09995 0.0
H890 H 0.45839 0.54467 0.06311 0.0
H891 H 0.49328 0.62153 0.04529 0.0
H892 H 0.44986 0.648 0.94674 0.0
H893 H 0.47298 0.63981 0.97674 0.0
C894 C 0.94583 0.48421 0.25678 0.0
C895 C 0.95501 0.51046 0.26009 0.0
C896 C 0.93587 0.47267 0.23575 0.0
C897 C 0.89461 0.45014 0.19885 0.0
H898 H 0.91362 0.48613 0.1418 0.0
C899 C 0.8188 0.42199 0.1266 0.0
C900 C 0.82748 0.42532 0.10423 0.0
C901 C 0.83705 0.43049 0.14448 0.0
C902 C 0.90819 0.47553 0.15747 0.0
H903 H 0.96266 0.54565 0.24388 0.0
H904 H 0.9447 0.52558 0.20738 0.0
H905 H 0.9437 0.50435 0.17394 0.0
H906 H 0.86199 0.43931 0.08302 0.0
H907 H 0.89374 0.4534 0.11418 0.0
H908 H 0.85936 0.42111 0.18234 0.0
C909 C 0.94563 0.51383 0.2207 0.0
C910 C 0.92534 0.48618 0.17602 0.0
C911 C 0.95597 0.52542 0.24165 0.0
C912 C 0.85471 0.43675 0.1001 0.0
C913 C 0.87294 0.44494 0.11798 0.0
C914 C 0.87764 0.43935 0.18025 0.0
C915 C 0.93441 0.48708 0.21775 0.0
C916 C 0.91844 0.47398 0.19712 0.0
C917 C 0.86438 0.44217 0.14041 0.0
C918 C 0.88383 0.45224 0.15948 0.0
H919 H 0.94502 0.47234 0.27079 0.0
H920 H 0.9281 0.45219 0.23395 0.0
H921 H 0.88835 0.44024 0.21482 0.0
H922 H 0.79795 0.41335 0.13031 0.0
H923 H 0.8297 0.42845 0.16148 0.0
loop_
_geom_bond_atom_site_label_1
_geom_bond_atom_site_label_2
_geom_bond_distance
_geom_bond_site_symmetry_2
_ccdc_geom_bond_type
H0 C8 0.930 . S
H1 C11 0.930 . S
H2 C13 0.930 . S
H3 C14 0.970 . S
H4 C14 0.970 . S
H5 C16 0.930 . S
H6 C18 0.930 . S
H7 C20 0.930 . S
C8 H0 0.930 . S
C8 C9 1.382 . S
C8 C10 1.426 . S
C9 C8 1.382 . S
C9 C13 1.389 . S
C10 C8 1.426 . S
C10 C11 1.375 . S
C10 C14 1.532 1_655 S
C11 H1 0.930 . S
C11 C10 1.375 . S
C11 C12 1.416 . S
C12 C11 1.416 . S
C12 C13 1.371 . S
C13 H2 0.930 . S
C13 C9 1.389 . S
C13 C12 1.371 . S
C14 H3 0.970 . S
C14 H4 0.970 . S
C14 C10 1.532 1_455 S
C14 C15 1.499 . S
C15 C14 1.499 . S
C15 C16 1.370 . S
C15 C20 1.415 . S
C16 H5 0.930 . S
C16 C15 1.370 . S
C16 C17 1.407 . S
C17 C16 1.407 . S
C17 C18 1.365 . S
C18 H6 0.930 . S
C18 C17 1.365 . S
C18 C19 1.393 . S
C19 C18 1.393 . S
C19 C20 1.387 . S
C20 H7 0.930 . S
C20 C15 1.415 . S
C20 C19 1.387 . S
H21 C29 0.930 . S
H22 C32 0.930 . S
H23 C34 0.930 . S
H24 C35 0.970 . S
H25 C35 0.970 . S
H26 C37 0.930 . S
H27 C39 0.930 . S
H28 C41 0.930 . S
C29 H21 0.930 . S
C29 C30 1.382 . S
C29 C31 1.426 . S
C30 C29 1.382 . S
C30 C34 1.389 . S
C31 C29 1.426 . S
C31 C32 1.375 . S
C31 C35 1.532 1_565 S
C32 H22 0.930 . S
C32 C31 1.375 . S
C32 C33 1.416 . S
C33 C32 1.416 . S
C33 C34 1.371 . S
C34 H23 0.930 . S
C34 C30 1.389 . S
C34 C33 1.371 . S
C35 H24 0.970 . S
C35 H25 0.970 . S
C35 C31 1.532 1_545 S
C35 C36 1.499 . S
C36 C35 1.499 . S
C36 C37 1.370 . S
C36 C41 1.415 . S
C37 H26 0.930 . S
C37 C36 1.370 . S
C37 C38 1.407 . S
C38 C37 1.407 . S
C38 C39 1.365 . S
C39 H27 0.930 . S
C39 C38 1.365 . S
C39 C40 1.393 . S
C40 C39 1.393 . S
C40 C41 1.387 . S
C41 H28 0.930 . S
C41 C36 1.415 . S
C41 C40 1.387 . S
H42 C50 0.930 . S
H43 C53 0.930 . S
H44 C55 0.930 . S
H45 C56 0.970 . S
H46 C56 0.970 . S
H47 C58 0.930 . S
H48 C60 0.930 . S
H49 C62 0.930 . S
C50 H42 0.930 . S
C50 C51 1.382 . S
C50 C52 1.426 . S
C51 C50 1.382 . S
C51 C55 1.389 . S
C52 C50 1.426 . S
C52 C53 1.375 . S
C52 C56 1.532 . S
C53 H43 0.930 . S
C53 C52 1.375 . S
C53 C54 1.416 . S
C54 C53 1.416 . S
C54 C55 1.371 . S
C55 H44 0.930 . S
C55 C51 1.389 . S
C55 C54 1.371 . S
C56 H45 0.970 . S
C56 H46 0.970 . S
C56 C52 1.532 . S
C56 C57 1.499 . S
C57 C56 1.499 . S
C57 C58 1.370 . S
C57 C62 1.415 . S
C58 H47 0.930 . S
C58 C57 1.370 . S
C58 C59 1.407 . S
C59 C58 1.407 . S
C59 C60 1.365 . S
C60 H48 0.930 . S
C60 C59 1.365 . S
C60 C61 1.393 . S
C61 C60 1.393 . S
C61 C62 1.387 . S
C62 H49 0.930 . S
C62 C57 1.415 . S
C62 C61 1.387 . S
H63 C71 0.930 . S
H64 C74 0.930 . S
H65 C76 0.930 . S
H66 C77 0.967 . S
H67 C77 0.970 . S
H68 C79 0.930 . S
H69 C81 0.930 . S
H70 C83 0.930 . S
C71 H63 0.930 . S
C71 C72 1.382 . S
C71 C73 1.426 . S
C72 C71 1.382 . S
C72 C76 1.389 . S
C73 C71 1.426 . S
C73 C74 1.375 . S
C73 C77 1.532 1_655 S
C74 H64 0.930 . S
C74 C73 1.375 . S
C74 C75 1.416 . S
C75 C74 1.416 . S
C75 C76 1.371 . S
C76 H65 0.930 . S
C76 C72 1.389 . S
C76 C75 1.371 . S
C77 H66 0.967 . S
C77 H67 0.970 . S
C77 C73 1.532 1_455 S
C77 C78 1.499 . S
C78 C77 1.499 . S
C78 C79 1.370 . S
C78 C83 1.415 . S
C79 H68 0.930 . S
C79 C78 1.370 . S
C79 C80 1.407 . S
C80 C79 1.407 . S
C80 C81 1.365 . S
C81 H69 0.930 . S
C81 C80 1.365 . S
C81 C82 1.393 . S
C82 C81 1.393 . S
C82 C83 1.387 . S
C83 H70 0.930 . S
C83 C78 1.415 . S
C83 C82 1.387 . S
H84 C92 0.930 . S
H85 C95 0.930 . S
H86 C97 0.930 . S
H87 C98 0.970 1_554 S
H88 C98 0.970 . S
H89 C100 0.930 . S
H90 C102 0.930 . S
H91 C104 0.930 . S
C92 H84 0.930 . S
C92 C93 1.382 1_554 S
C92 C94 1.426 1_554 S
C93 C92 1.382 1_556 S
C93 C97 1.389 . S
C94 C92 1.426 1_556 S
C94 C95 1.375 . S
C94 C98 1.532 . S
C95 H85 0.930 . S
C95 C94 1.375 . S
C95 C96 1.416 . S
C96 C95 1.416 . S
C96 C97 1.371 . S
C97 H86 0.930 . S
C97 C93 1.389 . S
C97 C96 1.371 . S
C98 H87 0.970 1_556 S
C98 H88 0.970 . S
C98 C94 1.532 . S
C98 C99 1.499 1_545 S
C99 C98 1.499 1_565 S
C99 C100 1.370 1_556 S
C99 C104 1.415 . S
C100 H89 0.930 . S
C100 C99 1.370 1_554 S
C100 C101 1.407 . S
C101 C100 1.407 . S
C101 C102 1.365 . S
C102 H90 0.930 . S
C102 C101 1.365 . S
C102 C103 1.393 1_554 S
C103 C102 1.393 1_556 S
C103 C104 1.387 . S
C104 H91 0.930 . S
C104 C99 1.415 . S
C104 C103 1.387 . S
H105 C113 0.930 . S
H106 C116 0.930 . S
H107 C118 0.930 . S
H108 C119 0.970 . S
H109 C119 0.970 . S
H110 C121 0.930 . S
H111 C123 0.930 . S
H112 C125 0.930 . S
C113 H105 0.930 . S
C113 C114 1.382 . S
C113 C115 1.426 . S
C114 C113 1.382 . S
C114 C118 1.389 . S
C115 C113 1.426 . S
C115 C116 1.375 . S
C115 C119 1.532 . S
C116 H106 0.930 . S
C116 C115 1.375 . S
C116 C117 1.416 . S
C117 C116 1.416 . S
C117 C118 1.371 . S
C118 H107 0.930 . S
C118 C114 1.389 . S
C118 C117 1.371 . S
C119 H108 0.970 . S
C119 H109 0.970 . S
C119 C115 1.532 . S
C119 C120 1.499 . S
C120 C119 1.499 . S
C120 C121 1.370 . S
C120 C125 1.415 . S
C121 H110 0.930 . S
C121 C120 1.370 . S
C121 C122 1.407 . S
C122 C121 1.407 . S
C122 C123 1.365 . S
C123 H111 0.930 . S
C123 C122 1.365 . S
C123 C124 1.393 . S
C124 C123 1.393 . S
C124 C125 1.387 . S
C125 H112 0.930 . S
C125 C120 1.415 . S
C125 C124 1.387 . S
C126 O127 1.160 . S
C126 O133 1.185 . S
O127 C126 1.160 . S
O128 Zn129 1.899 . S
O128 C136 1.284 . S
Zn129 O128 1.899 . S
Zn129 O130 2.032 . S
Zn129 O133 2.086 . S
Zn129 O138 1.977 . S
O130 Zn129 2.032 . S
O130 C134 1.278 . S
C131 O132 1.203 . S
C131 O138 1.267 . S
O132 C131 1.203 . S
O133 C126 1.185 . S
O133 Zn129 2.086 . S
C134 O130 1.278 . S
C134 O135 1.211 . S
O135 C134 1.211 . S
C136 O128 1.284 . S
C136 O137 1.273 . S
O137 C136 1.273 . S
O138 Zn129 1.977 . S
O138 C131 1.267 . S
C139 O140 1.160 . S
C139 O146 1.185 . S
O140 C139 1.160 . S
O141 Zn142 1.899 . S
O141 C149 1.284 . S
Zn142 O141 1.899 . S
Zn142 O143 2.032 . S
Zn142 O146 2.086 . S
Zn142 O151 1.977 . S
O143 Zn142 2.032 . S
O143 C147 1.278 . S
C144 O145 1.203 . S
C144 O151 1.267 . S
O145 C144 1.203 . S
O146 C139 1.185 . S
O146 Zn142 2.086 . S
C147 O143 1.278 . S
C147 O148 1.211 . S
O148 C147 1.211 . S
C149 O141 1.284 . S
C149 O150 1.273 . S
O150 C149 1.273 . S
O151 Zn142 1.977 . S
O151 C144 1.267 . S
C152 O153 1.160 . S
C152 O159 1.185 . S
O153 C152 1.160 . S
O154 Zn155 1.899 . S
O154 C162 1.284 . S
Zn155 O154 1.899 . S
Zn155 O156 2.032 . S
Zn155 O159 2.086 . S
Zn155 O164 1.977 . S
O156 Zn155 2.032 . S
O156 C160 1.278 . S
C157 O158 1.203 . S
C157 O164 1.267 . S
O158 C157 1.203 . S
O159 C152 1.185 . S
O159 Zn155 2.086 . S
C160 O156 1.278 . S
C160 O161 1.211 . S
O161 C160 1.211 . S
C162 O154 1.284 . S
C162 O163 1.273 . S
O163 C162 1.273 . S
O164 Zn155 1.977 . S
O164 C157 1.267 . S
C165 O166 1.160 . S
C165 O172 1.185 . S
O166 C165 1.160 . S
O167 Zn168 1.899 . S
O167 C175 1.284 . S
Zn168 O167 1.899 . S
Zn168 O169 2.032 . S
Zn168 O172 2.086 . S
Zn168 O177 1.977 . S
O169 Zn168 2.032 . S
O169 C173 1.278 . S
C170 O171 1.203 . S
C170 O177 1.267 . S
O171 C170 1.203 . S
O172 C165 1.185 . S
O172 Zn168 2.086 . S
C173 O169 1.278 . S
C173 O174 1.211 . S
O174 C173 1.211 . S
C175 O167 1.284 . S
C175 O176 1.273 . S
O176 C175 1.273 . S
O177 Zn168 1.977 . S
O177 C170 1.267 . S
C178 O179 1.160 . S
C178 O185 1.185 . S
O179 C178 1.160 . S
O180 Zn181 1.899 . S
O180 C188 1.284 . S
Zn181 O180 1.899 . S
Zn181 O182 2.032 . S
Zn181 O185 2.086 . S
Zn181 O190 1.977 . S
O182 Zn181 2.032 . S
O182 C186 1.278 . S
C183 O184 1.203 . S
C183 O190 1.267 . S
O184 C183 1.203 . S
O185 C178 1.185 . S
O185 Zn181 2.086 . S
C186 O182 1.278 . S
C186 O187 1.211 . S
O187 C186 1.211 . S
C188 O180 1.284 . S
C188 O189 1.273 . S
O189 C188 1.273 . S
O190 Zn181 1.977 . S
O190 C183 1.267 . S
C191 O192 1.160 . S
C191 O198 1.185 . S
O192 C191 1.160 . S
O193 Zn194 1.899 . S
O193 C201 1.284 . S
Zn194 O193 1.899 . S
Zn194 O195 2.032 . S
Zn194 O198 2.086 . S
Zn194 O203 1.977 . S
O195 Zn194 2.032 . S
O195 C199 1.278 . S
C196 O197 1.203 . S
C196 O203 1.267 . S
O197 C196 1.203 . S
O198 C191 1.185 . S
O198 Zn194 2.086 . S
C199 O195 1.278 . S
C199 O200 1.211 . S
O200 C199 1.211 . S
C201 O193 1.284 . S
C201 O202 1.273 . S
O202 C201 1.273 . S
O203 Zn194 1.977 . S
O203 C196 1.267 . S
C204 C205 1.349 . S
C204 C206 1.327 . S
C204 H229 0.950 . S
C205 C204 1.349 . S
C205 C221 1.349 . S
C206 C204 1.327 . S
C206 C225 1.429 . S
C206 H230 0.950 . S
C207 C224 1.574 . S
C207 C226 1.368 . S
C207 H231 0.949 . S
H208 C212 0.949 . S
C209 C210 1.349 . S
C209 C211 1.327 . S
C209 H232 0.950 . S
C210 C209 1.349 . S
C210 C222 1.349 . S
C211 C209 1.327 . S
C211 C227 1.429 . S
C211 H233 0.950 . S
C212 H208 0.949 . S
C212 C220 1.574 . S
C212 C228 1.368 . S
H213 C221 0.950 . S
H214 C219 0.950 . S
H215 C220 0.949 . S
H216 C222 0.950 . S
H217 C223 0.950 . S
H218 C224 0.949 . S
C219 H214 0.950 . S
C219 C221 1.327 . S
C219 C225 1.429 . S
C220 C212 1.574 . S
C220 H215 0.949 . S
C220 C226 1.368 . S
C221 C205 1.349 . S
C221 H213 0.950 . S
C221 C219 1.327 . S
C222 C210 1.349 . S
C222 H216 0.950 . S
C222 C223 1.327 . S
C223 H217 0.950 . S
C223 C222 1.327 . S
C223 C227 1.429 . S
C224 C207 1.574 . S
C224 H218 0.949 . S
C224 C228 1.368 . S
C225 C206 1.429 . S
C225 C219 1.429 . S
C225 C226 1.523 . S
C226 C207 1.368 . S
C226 C220 1.368 . S
C226 C225 1.523 . S
C227 C211 1.429 . S
C227 C223 1.429 . S
C227 C228 1.523 . S
C228 C212 1.368 . S
C228 C224 1.368 . S
C228 C227 1.523 . S
H229 C204 0.950 . S
H230 C206 0.950 . S
H231 C207 0.949 . S
H232 C209 0.950 . S
H233 C211 0.950 . S
C234 C235 1.349 . S
C234 C236 1.327 . S
C234 H259 0.950 . S
C235 C234 1.349 . S
C235 C251 1.349 . S
C236 C234 1.327 . S
C236 C255 1.429 . S
C236 H260 0.950 . S
C237 C254 1.574 . S
C237 C256 1.368 . S
C237 H261 0.949 . S
H238 C242 0.949 . S
C239 C240 1.349 . S
C239 C241 1.327 . S
C239 H262 0.950 . S
C240 C239 1.349 . S
C240 C252 1.349 . S
C241 C239 1.327 . S
C241 C257 1.429 . S
C241 H263 0.950 . S
C242 H238 0.949 . S
C242 C250 1.574 . S
C242 C258 1.368 . S
H243 C251 0.950 . S
H244 C249 0.950 . S
H245 C250 0.949 . S
H246 C252 0.950 . S
H247 C253 0.950 . S
H248 C254 0.949 . S
C249 H244 0.950 . S
C249 C251 1.327 . S
C249 C255 1.429 . S
C250 C242 1.574 . S
C250 H245 0.949 . S
C250 C256 1.368 . S
C251 C235 1.349 . S
C251 H243 0.950 . S
C251 C249 1.327 . S
C252 C240 1.349 . S
C252 H246 0.950 . S
C252 C253 1.327 . S
C253 H247 0.950 . S
C253 C252 1.327 . S
C253 C257 1.429 . S
C254 C237 1.574 . S
C254 H248 0.949 . S
C254 C258 1.368 . S
C255 C236 1.429 . S
C255 C249 1.429 . S
C255 C256 1.523 . S
C256 C237 1.368 . S
C256 C250 1.368 . S
C256 C255 1.523 . S
C257 C241 1.429 . S
C257 C253 1.429 . S
C257 C258 1.523 . S
C258 C242 1.368 . S
C258 C254 1.368 . S
C258 C257 1.523 . S
H259 C234 0.950 . S
H260 C236 0.950 . S
H261 C237 0.949 . S
H262 C239 0.950 . S
H263 C241 0.950 . S
C264 C265 1.349 . S
C264 C266 1.327 . S
C264 H289 0.950 . S
C265 C264 1.349 . S
C265 C281 1.349 . S
C266 C264 1.327 . S
C266 C285 1.429 . S
C266 H290 0.950 . S
C267 C284 1.574 . S
C267 C286 1.368 . S
C267 H291 0.949 . S
H268 C272 0.949 . S
C269 C270 1.349 . S
C269 C271 1.327 . S
C269 H292 0.950 . S
C270 C269 1.349 . S
C270 C282 1.349 . S
C271 C269 1.327 . S
C271 C287 1.429 . S
C271 H293 0.950 . S
C272 H268 0.949 . S
C272 C280 1.574 . S
C272 C288 1.368 . S
H273 C281 0.950 . S
H274 C279 0.950 . S
H275 C280 0.949 . S
H276 C282 0.950 . S
H277 C283 0.950 . S
H278 C284 0.949 . S
C279 H274 0.950 . S
C279 C281 1.327 . S
C279 C285 1.429 . S
C280 C272 1.574 . S
C280 H275 0.949 . S
C280 C286 1.368 . S
C281 C265 1.349 . S
C281 H273 0.950 . S
C281 C279 1.327 . S
C282 C270 1.349 . S
C282 H276 0.950 . S
C282 C283 1.327 . S
C283 H277 0.950 . S
C283 C282 1.327 . S
C283 C287 1.429 . S
C284 C267 1.574 . S
C284 H278 0.949 . S
C284 C288 1.368 . S
C285 C266 1.429 . S
C285 C279 1.429 . S
C285 C286 1.523 . S
C286 C267 1.368 . S
C286 C280 1.368 . S
C286 C285 1.523 . S
C287 C271 1.429 . S
C287 C283 1.429 . S
C287 C288 1.523 . S
C288 C272 1.368 . S
C288 C284 1.368 . S
C288 C287 1.523 . S
H289 C264 0.950 . S
H290 C266 0.950 . S
H291 C267 0.949 . S
H292 C269 0.950 . S
H293 C271 0.950 . S
C294 C295 1.349 . S
C294 C296 1.327 . S
C294 H319 0.950 . S
C295 C294 1.349 . S
C295 C311 1.349 . S
C296 C294 1.327 . S
C296 C315 1.429 . S
C296 H320 0.950 . S
C297 C314 1.574 . S
C297 C316 1.368 . S
C297 H321 0.949 . S
H298 C302 0.949 . S
C299 C300 1.349 . S
C299 C301 1.327 . S
C299 H322 0.950 . S
C300 C299 1.349 . S
C300 C312 1.349 . S
C301 C299 1.327 . S
C301 C317 1.429 . S
C301 H323 0.950 . S
C302 H298 0.949 . S
C302 C310 1.574 . S
C302 C318 1.368 . S
H303 C311 0.950 . S
H304 C309 0.950 . S
H305 C310 0.949 . S
H306 C312 0.950 . S
H307 C313 0.950 . S
H308 C314 0.949 . S
C309 H304 0.950 . S
C309 C311 1.327 . S
C309 C315 1.429 . S
C310 C302 1.574 . S
C310 H305 0.949 . S
C310 C316 1.368 . S
C311 C295 1.349 . S
C311 H303 0.950 . S
C311 C309 1.327 . S
C312 C300 1.349 . S
C312 H306 0.950 . S
C312 C313 1.327 . S
C313 H307 0.950 . S
C313 C312 1.327 . S
C313 C317 1.429 . S
C314 C297 1.574 . S
C314 H308 0.949 . S
C314 C318 1.368 . S
C315 C296 1.429 . S
C315 C309 1.429 . S
C315 C316 1.523 . S
C316 C297 1.368 . S
C316 C310 1.368 . S
C316 C315 1.523 . S
C317 C301 1.429 . S
C317 C313 1.429 . S
C317 C318 1.523 . S
C318 C302 1.368 . S
C318 C314 1.368 . S
C318 C317 1.523 . S
H319 C294 0.950 . S
H320 C296 0.950 . S
H321 C297 0.949 . S
H322 C299 0.950 . S
H323 C301 0.950 . S
C324 C325 1.349 . S
C324 C326 1.327 . S
C324 H349 0.962 . S
C325 C324 1.349 . S
C325 C341 1.349 . S
C326 C324 1.327 . S
C326 C345 1.429 . S
C326 H350 0.950 . S
C327 C344 1.574 . S
C327 C346 1.368 . S
C327 H351 0.949 . S
H328 C332 0.949 . S
C329 C330 1.349 . S
C329 C331 1.327 . S
C329 H352 0.950 . S
C330 C329 1.349 . S
C330 C342 1.349 . S
C331 C329 1.327 . S
C331 C347 1.429 . S
C331 H353 0.950 . S
C332 H328 0.949 . S
C332 C340 1.574 . S
C332 C348 1.368 . S
H333 C341 0.950 . S
H334 C339 0.950 . S
H335 C340 0.949 . S
H336 C342 0.950 . S
H337 C343 0.950 . S
H338 C344 0.949 . S
C339 H334 0.950 . S
C339 C341 1.327 . S
C339 C345 1.429 . S
C340 C332 1.574 . S
C340 H335 0.949 . S
C340 C346 1.368 . S
C341 C325 1.349 . S
C341 H333 0.950 . S
C341 C339 1.327 . S
C342 C330 1.349 . S
C342 H336 0.950 . S
C342 C343 1.327 . S
C343 H337 0.950 . S
C343 C342 1.327 . S
C343 C347 1.429 . S
C344 C327 1.574 . S
C344 H338 0.949 . S
C344 C348 1.368 . S
C345 C326 1.429 . S
C345 C339 1.429 . S
C345 C346 1.523 . S
C346 C327 1.368 . S
C346 C340 1.368 . S
C346 C345 1.523 . S
C347 C331 1.429 . S
C347 C343 1.429 . S
C347 C348 1.523 . S
C348 C332 1.368 . S
C348 C344 1.368 . S
C348 C347 1.523 . S
H349 C324 0.962 . S
H350 C326 0.950 . S
H351 C327 0.949 . S
H352 C329 0.950 . S
H353 C331 0.950 . S
C354 C355 1.349 . S
C354 C356 1.327 . S
C354 H379 0.950 . S
C355 C354 1.349 . S
C355 C371 1.349 . S
C356 C354 1.327 . S
C356 C375 1.429 . S
C356 H380 0.950 . S
C357 C374 1.574 . S
C357 C376 1.368 . S
C357 H381 0.949 . S
H358 C362 0.949 . S
C359 C360 1.349 . S
C359 C361 1.327 . S
C359 H382 0.950 . S
C360 C359 1.349 . S
C360 C372 1.349 . S
C361 C359 1.327 . S
C361 C377 1.429 . S
C361 H383 0.950 . S
C362 H358 0.949 . S
C362 C370 1.574 . S
C362 C378 1.368 . S
H363 C371 0.950 . S
H364 C369 0.950 . S
H365 C370 0.949 . S
H366 C372 0.950 . S
H367 C373 0.950 . S
H368 C374 0.949 . S
C369 H364 0.950 . S
C369 C371 1.327 . S
C369 C375 1.429 . S
C370 C362 1.574 . S
C370 H365 0.949 . S
C370 C376 1.368 . S
C371 C355 1.349 . S
C371 H363 0.950 . S
C371 C369 1.327 . S
C372 C360 1.349 . S
C372 H366 0.950 . S
C372 C373 1.327 . S
C373 H367 0.950 . S
C373 C372 1.327 . S
C373 C377 1.429 . S
C374 C357 1.574 . S
C374 H368 0.949 . S
C374 C378 1.368 . S
C375 C356 1.429 . S
C375 C369 1.429 . S
C375 C376 1.523 . S
C376 C357 1.368 . S
C376 C370 1.368 . S
C376 C375 1.523 . S
C377 C361 1.429 . S
C377 C373 1.429 . S
C377 C378 1.523 . S
C378 C362 1.368 . S
C378 C374 1.368 . S
C378 C377 1.523 . S
H379 C354 0.950 . S
H380 C356 0.950 . S
H381 C357 0.949 . S
H382 C359 0.950 . S
H383 C361 0.950 . S
C384 C385 1.349 . S
C384 C386 1.327 . S
C384 H409 0.950 . S
C385 C384 1.349 . S
C385 C401 1.349 . S
C386 C384 1.327 . S
C386 C405 1.429 . S
C386 H410 0.950 . S
C387 C404 1.574 . S
C387 C406 1.368 . S
C387 H411 0.949 . S
H388 C392 0.949 . S
C389 C390 1.349 . S
C389 C391 1.327 . S
C389 H412 0.950 . S
C390 C389 1.349 . S
C390 C402 1.349 . S
C391 C389 1.327 . S
C391 C407 1.429 . S
C391 H413 0.950 . S
C392 H388 0.949 . S
C392 C400 1.574 . S
C392 C408 1.368 . S
H393 C401 0.950 . S
H394 C399 0.950 . S
H395 C400 0.949 . S
H396 C402 0.950 . S
H397 C403 0.950 . S
H398 C404 0.949 . S
C399 H394 0.950 . S
C399 C401 1.327 . S
C399 C405 1.429 . S
C400 C392 1.574 . S
C400 H395 0.949 . S
C400 C406 1.368 . S
C401 C385 1.349 . S
C401 H393 0.950 . S
C401 C399 1.327 . S
C402 C390 1.349 . S
C402 H396 0.950 . S
C402 C403 1.327 . S
C403 H397 0.950 . S
C403 C402 1.327 . S
C403 C407 1.429 . S
C404 C387 1.574 . S
C404 H398 0.949 . S
C404 C408 1.368 . S
C405 C386 1.429 . S
C405 C399 1.429 . S
C405 C406 1.523 . S
C406 C387 1.368 . S
C406 C400 1.368 . S
C406 C405 1.523 . S
C407 C391 1.429 . S
C407 C403 1.429 . S
C407 C408 1.523 . S
C408 C392 1.368 . S
C408 C404 1.368 . S
C408 C407 1.523 . S
H409 C384 0.950 . S
H410 C386 0.950 . S
H411 C387 0.949 . S
H412 C389 0.950 . S
H413 C391 0.950 . S
C414 C415 1.349 . S
C414 C416 1.327 . S
C414 H439 0.950 . S
C415 C414 1.349 . S
C415 C431 1.349 . S
C416 C414 1.327 . S
C416 C435 1.429 . S
C416 H440 0.950 . S
C417 C434 1.574 . S
C417 C436 1.368 . S
C417 H441 0.949 . S
H418 C422 0.949 . S
C419 C420 1.349 . S
C419 C421 1.327 . S
C419 H442 0.950 . S
C420 C419 1.349 . S
C420 C432 1.349 . S
C421 C419 1.327 . S
C421 C437 1.429 . S
C421 H443 0.950 . S
C422 H418 0.949 . S
C422 C430 1.574 . S
C422 C438 1.368 . S
H423 C431 0.950 . S
H424 C429 0.950 . S
H425 C430 0.949 . S
H426 C432 0.950 . S
H427 C433 0.950 . S
H428 C434 0.949 . S
C429 H424 0.950 . S
C429 C431 1.327 . S
C429 C435 1.429 . S
C430 C422 1.574 . S
C430 H425 0.949 . S
C430 C436 1.368 . S
C431 C415 1.349 . S
C431 H423 0.950 . S
C431 C429 1.327 . S
C432 C420 1.349 . S
C432 H426 0.950 . S
C432 C433 1.327 . S
C433 H427 0.950 . S
C433 C432 1.327 . S
C433 C437 1.429 . S
C434 C417 1.574 . S
C434 H428 0.949 . S
C434 C438 1.368 . S
C435 C416 1.429 . S
C435 C429 1.429 . S
C435 C436 1.523 . S
C436 C417 1.368 . S
C436 C430 1.368 . S
C436 C435 1.523 . S
C437 C421 1.429 . S
C437 C433 1.429 . S
C437 C438 1.523 . S
C438 C422 1.368 . S
C438 C434 1.368 . S
C438 C437 1.523 . S
H439 C414 0.950 . S
H440 C416 0.950 . S
H441 C417 0.949 . S
H442 C419 0.950 . S
H443 C421 0.950 . S
C444 C445 1.349 . S
C444 C446 1.327 . S
C444 H469 0.950 . S
C445 C444 1.349 . S
C445 C461 1.349 . S
C446 C444 1.327 . S
C446 C465 1.429 . S
C446 H470 0.950 . S
C447 C464 1.574 . S
C447 C466 1.368 . S
C447 H471 0.949 . S
H448 C452 0.949 . S
C449 C450 1.349 . S
C449 C451 1.327 . S
C449 H472 0.950 . S
C450 C449 1.349 . S
C450 C462 1.349 . S
C451 C449 1.327 . S
C451 C467 1.429 . S
C451 H473 0.950 . S
C452 H448 0.949 . S
C452 C460 1.574 . S
C452 C468 1.368 . S
H453 C461 0.950 . S
H454 C459 0.950 . S
H455 C460 0.949 . S
H456 C462 0.950 . S
H457 C463 0.950 . S
H458 C464 0.949 . S
C459 H454 0.950 . S
C459 C461 1.327 . S
C459 C465 1.429 . S
C460 C452 1.574 . S
C460 H455 0.949 . S
C460 C466 1.368 . S
C461 C445 1.349 . S
C461 H453 0.950 . S
C461 C459 1.327 . S
C462 C450 1.349 . S
C462 H456 0.950 . S
C462 C463 1.327 . S
C463 H457 0.950 . S
C463 C462 1.327 . S
C463 C467 1.429 . S
C464 C447 1.574 . S
C464 H458 0.949 . S
C464 C468 1.368 . S
C465 C446 1.429 . S
C465 C459 1.429 . S
C465 C466 1.523 . S
C466 C447 1.368 . S
C466 C460 1.368 . S
C466 C465 1.523 . S
C467 C451 1.429 . S
C467 C463 1.429 . S
C467 C468 1.523 . S
C468 C452 1.368 . S
C468 C464 1.368 . S
C468 C467 1.523 . S
H469 C444 0.950 . S
H470 C446 0.950 . S
H471 C447 0.949 . S
H472 C449 0.950 . S
H473 C451 0.950 . S
C474 C475 1.349 1_556 S
C474 C476 1.327 1_556 S
C474 H499 0.950 . S
C475 C474 1.349 1_554 S
C475 C491 1.349 . S
C476 C474 1.327 1_554 S
C476 C495 1.429 . S
C476 H500 0.950 1_554 S
C477 C494 1.574 . S
C477 C496 1.368 . S
C477 H501 0.949 . S
H478 C482 0.949 . S
C479 C480 1.349 . S
C479 C481 1.327 . S
C479 H502 0.950 . S
C480 C479 1.349 . S
C480 C492 1.349 . S
C481 C479 1.327 . S
C481 C497 1.429 . S
C481 H503 0.950 . S
C482 H478 0.949 . S
C482 C490 1.574 . S
C482 C498 1.368 . S
H483 C491 0.950 . S
H484 C489 0.950 . S
H485 C490 0.982 . S
H486 C492 0.950 . S
H487 C493 0.950 . S
H488 C494 0.949 . S
C489 H484 0.950 . S
C489 C491 1.327 . S
C489 C495 1.429 . S
C490 C482 1.574 . S
C490 H485 0.982 . S
C490 C496 1.368 . S
C491 C475 1.349 . S
C491 H483 0.950 . S
C491 C489 1.327 . S
C492 C480 1.349 . S
C492 H486 0.950 . S
C492 C493 1.327 . S
C493 H487 0.950 . S
C493 C492 1.327 . S
C493 C497 1.429 . S
C494 C477 1.574 . S
C494 H488 0.949 . S
C494 C498 1.368 . S
C495 C476 1.429 . S
C495 C489 1.429 . S
C495 C496 1.523 . S
C496 C477 1.368 . S
C496 C490 1.368 . S
C496 C495 1.523 . S
C497 C481 1.429 . S
C497 C493 1.429 . S
C497 C498 1.523 . S
C498 C482 1.368 . S
C498 C494 1.368 . S
C498 C497 1.523 . S
H499 C474 0.950 . S
H500 C476 0.950 1_556 S
H501 C477 0.949 . S
H502 C479 0.950 . S
H503 C481 0.950 . S
C504 C505 1.349 . S
C504 C506 1.327 . S
C504 H529 0.950 . S
C505 C504 1.349 . S
C505 C521 1.349 . S
C506 C504 1.327 . S
C506 C525 1.429 . S
C506 H530 0.950 . S
C507 C524 1.574 . S
C507 C526 1.368 . S
C507 H531 0.949 . S
H508 C512 0.949 . S
C509 C510 1.349 . S
C509 C511 1.327 . S
C509 H532 0.950 . S
C510 C509 1.349 . S
C510 C522 1.349 . S
C511 C509 1.327 . S
C511 C527 1.429 . S
C511 H533 0.950 . S
C512 H508 0.949 . S
C512 C520 1.574 . S
C512 C528 1.368 . S
H513 C521 0.950 . S
H514 C519 0.950 . S
H515 C520 0.949 . S
H516 C522 0.950 . S
H517 C523 0.950 . S
H518 C524 0.949 . S
C519 H514 0.950 . S
C519 C521 1.327 . S
C519 C525 1.429 . S
C520 C512 1.574 . S
C520 H515 0.949 . S
C520 C526 1.368 . S
C521 C505 1.349 . S
C521 H513 0.950 . S
C521 C519 1.327 . S
C522 C510 1.349 . S
C522 H516 0.950 . S
C522 C523 1.327 . S
C523 H517 0.950 . S
C523 C522 1.327 . S
C523 C527 1.429 . S
C524 C507 1.574 . S
C524 H518 0.949 . S
C524 C528 1.368 . S
C525 C506 1.429 . S
C525 C519 1.429 . S
C525 C526 1.523 . S
C526 C507 1.368 . S
C526 C520 1.368 . S
C526 C525 1.523 . S
C527 C511 1.429 . S
C527 C523 1.429 . S
C527 C528 1.523 . S
C528 C512 1.368 . S
C528 C524 1.368 . S
C528 C527 1.523 . S
H529 C504 0.950 . S
H530 C506 0.950 . S
H531 C507 0.949 . S
H532 C509 0.950 . S
H533 C511 0.950 . S
C534 C535 1.349 . S
C534 C536 1.327 . S
C534 H559 0.950 . S
C535 C534 1.349 . S
C535 C551 1.349 . S
C536 C534 1.327 . S
C536 C555 1.429 . S
C536 H560 0.950 . S
C537 C554 1.574 . S
C537 C556 1.368 . S
C537 H561 0.949 . S
H538 C542 0.949 . S
C539 C540 1.349 . S
C539 C541 1.327 . S
C539 H562 0.950 . S
C540 C539 1.349 . S
C540 C552 1.349 . S
C541 C539 1.327 . S
C541 C557 1.429 . S
C541 H563 0.950 . S
C542 H538 0.949 . S
C542 C550 1.574 . S
C542 C558 1.368 . S
H543 C551 0.950 . S
H544 C549 0.950 . S
H545 C550 0.949 . S
H546 C552 0.950 . S
H547 C553 0.950 . S
H548 C554 0.949 . S
C549 H544 0.950 . S
C549 C551 1.327 . S
C549 C555 1.429 . S
C550 C542 1.574 . S
C550 H545 0.949 . S
C550 C556 1.368 . S
C551 C535 1.349 . S
C551 H543 0.950 . S
C551 C549 1.327 . S
C552 C540 1.349 . S
C552 H546 0.950 . S
C552 C553 1.327 . S
C553 H547 0.950 . S
C553 C552 1.327 . S
C553 C557 1.429 . S
C554 C537 1.574 . S
C554 H548 0.949 . S
C554 C558 1.368 . S
C555 C536 1.429 . S
C555 C549 1.429 . S
C555 C556 1.523 . S
C556 C537 1.368 . S
C556 C550 1.368 . S
C556 C555 1.523 . S
C557 C541 1.429 . S
C557 C553 1.429 . S
C557 C558 1.523 . S
C558 C542 1.368 . S
C558 C554 1.368 . S
C558 C557 1.523 . S
H559 C534 0.950 . S
H560 C536 0.950 . S
H561 C537 0.949 . S
H562 C539 0.950 . S
H563 C541 0.950 . S
C564 C565 1.349 . S
C564 C566 1.327 . S
C564 H589 0.950 . S
C565 C564 1.349 . S
C565 C581 1.349 . S
C566 C564 1.327 . S
C566 C585 1.429 . S
C566 H590 0.950 . S
C567 C584 1.574 . S
C567 C586 1.368 . S
C567 H591 0.949 . S
H568 C572 0.949 . S
C569 C570 1.349 . S
C569 C571 1.327 . S
C569 H592 0.950 . S
C570 C569 1.349 . S
C570 C582 1.349 . S
C571 C569 1.327 . S
C571 C587 1.429 . S
C571 H593 0.950 . S
C572 H568 0.949 . S
C572 C580 1.574 . S
C572 C588 1.368 . S
H573 C581 0.950 . S
H574 C579 0.950 . S
H575 C580 0.949 . S
H576 C582 0.950 . S
H577 C583 0.950 . S
H578 C584 0.949 . S
C579 H574 0.950 . S
C579 C581 1.327 . S
C579 C585 1.429 . S
C580 C572 1.574 . S
C580 H575 0.949 . S
C580 C586 1.368 . S
C581 C565 1.349 . S
C581 H573 0.950 . S
C581 C579 1.327 . S
C582 C570 1.349 . S
C582 H576 0.950 . S
C582 C583 1.327 . S
C583 H577 0.950 . S
C583 C582 1.327 . S
C583 C587 1.429 . S
C584 C567 1.574 . S
C584 H578 0.949 . S
C584 C588 1.368 . S
C585 C566 1.429 . S
C585 C579 1.429 . S
C585 C586 1.523 . S
C586 C567 1.368 . S
C586 C580 1.368 . S
C586 C585 1.523 . S
C587 C571 1.429 . S
C587 C583 1.429 . S
C587 C588 1.523 . S
C588 C572 1.368 . S
C588 C584 1.368 . S
C588 C587 1.523 . S
H589 C564 0.950 . S
H590 C566 0.950 . S
H591 C567 0.949 . S
H592 C569 0.950 . S
H593 C571 0.950 . S
C594 C595 1.349 . S
C594 C596 1.327 . S
C594 H619 0.950 . S
C595 C594 1.349 . S
C595 C611 1.349 . S
C596 C594 1.327 . S
C596 C615 1.429 . S
C596 H620 0.950 . S
C597 C614 1.574 . S
C597 C616 1.368 . S
C597 H621 0.949 . S
H598 C602 0.949 . S
C599 C600 1.349 . S
C599 C601 1.327 . S
C599 H622 0.950 . S
C600 C599 1.349 . S
C600 C612 1.349 . S
C601 C599 1.327 . S
C601 C617 1.429 . S
C601 H623 0.950 . S
C602 H598 0.949 . S
C602 C610 1.574 . S
C602 C618 1.368 . S
H603 C611 0.950 . S
H604 C609 0.950 . S
H605 C610 0.949 . S
H606 C612 0.950 . S
H607 C613 0.950 . S
H608 C614 0.949 . S
C609 H604 0.950 . S
C609 C611 1.327 . S
C609 C615 1.429 . S
C610 C602 1.574 . S
C610 H605 0.949 . S
C610 C616 1.368 . S
C611 C595 1.349 . S
C611 H603 0.950 . S
C611 C609 1.327 . S
C612 C600 1.349 . S
C612 H606 0.950 . S
C612 C613 1.327 . S
C613 H607 0.950 . S
C613 C612 1.327 . S
C613 C617 1.429 . S
C614 C597 1.574 . S
C614 H608 0.949 . S
C614 C618 1.368 . S
C615 C596 1.429 . S
C615 C609 1.429 . S
C615 C616 1.523 . S
C616 C597 1.368 . S
C616 C610 1.368 . S
C616 C615 1.523 . S
C617 C601 1.429 . S
C617 C613 1.429 . S
C617 C618 1.523 . S
C618 C602 1.368 . S
C618 C614 1.368 . S
C618 C617 1.523 . S
H619 C594 0.950 . S
H620 C596 0.950 . S
H621 C597 0.949 . S
H622 C599 0.950 . S
H623 C601 0.950 . S
C624 C625 1.349 . S
C624 C626 1.327 . S
C624 H649 0.950 . S
C625 C624 1.349 . S
C625 C641 1.349 . S
C626 C624 1.327 . S
C626 C645 1.429 . S
C626 H650 0.950 . S
C627 C644 1.574 . S
C627 C646 1.368 . S
C627 H651 0.949 . S
H628 C632 0.949 . S
C629 C630 1.349 . S
C629 C631 1.327 . S
C629 H652 0.950 . S
C630 C629 1.349 . S
C630 C642 1.349 . S
C631 C629 1.327 . S
C631 C647 1.429 . S
C631 H653 0.950 . S
C632 H628 0.949 . S
C632 C640 1.574 . S
C632 C648 1.368 . S
H633 C641 0.950 . S
H634 C639 0.950 . S
H635 C640 0.949 . S
H636 C642 0.950 . S
H637 C643 0.950 . S
H638 C644 0.949 . S
C639 H634 0.950 . S
C639 C641 1.327 . S
C639 C645 1.429 . S
C640 C632 1.574 . S
C640 H635 0.949 . S
C640 C646 1.368 . S
C641 C625 1.349 . S
C641 H633 0.950 . S
C641 C639 1.327 . S
C642 C630 1.349 . S
C642 H636 0.950 . S
C642 C643 1.327 . S
C643 H637 0.950 . S
C643 C642 1.327 . S
C643 C647 1.429 . S
C644 C627 1.574 . S
C644 H638 0.949 . S
C644 C648 1.368 . S
C645 C626 1.429 . S
C645 C639 1.429 . S
C645 C646 1.523 . S
C646 C627 1.368 . S
C646 C640 1.368 . S
C646 C645 1.523 . S
C647 C631 1.429 . S
C647 C643 1.429 . S
C647 C648 1.523 . S
C648 C632 1.368 . S
C648 C644 1.368 . S
C648 C647 1.523 . S
H649 C624 0.950 . S
H650 C626 0.950 . S
H651 C627 0.949 . S
H652 C629 0.950 . S
H653 C631 0.950 . S
C654 C655 1.349 . S
C654 C656 1.327 . S
C654 H679 0.950 . S
C655 C654 1.349 . S
C655 C671 1.349 . S
C656 C654 1.327 . S
C656 C675 1.429 . S
C656 H680 0.950 . S
C657 C674 1.574 . S
C657 C676 1.368 . S
C657 H681 0.949 . S
H658 C662 0.949 . S
C659 C660 1.349 . S
C659 C661 1.327 1_554 S
C659 H682 0.950 . S
C660 C659 1.349 . S
C660 C672 1.349 1_554 S
C661 C659 1.327 1_556 S
C661 C677 1.429 . S
C661 H683 0.950 . S
C662 H658 0.949 . S
C662 C670 1.574 . S
C662 C678 1.368 . S
H663 C671 0.950 . S
H664 C669 0.950 . S
H665 C670 0.949 . S
H666 C672 0.950 1_554 S
H667 C673 0.950 . S
H668 C674 0.949 . S
C669 H664 0.950 . S
C669 C671 1.327 . S
C669 C675 1.429 . S
C670 C662 1.574 . S
C670 H665 0.949 . S
C670 C676 1.368 . S
C671 C655 1.349 . S
C671 H663 0.950 . S
C671 C669 1.327 . S
C672 C660 1.349 1_556 S
C672 H666 0.950 1_556 S
C672 C673 1.327 . S
C673 H667 0.950 . S
C673 C672 1.327 . S
C673 C677 1.429 . S
C674 C657 1.574 . S
C674 H668 0.949 . S
C674 C678 1.368 . S
C675 C656 1.429 . S
C675 C669 1.429 . S
C675 C676 1.523 . S
C676 C657 1.368 . S
C676 C670 1.368 . S
C676 C675 1.523 . S
C677 C661 1.429 . S
C677 C673 1.429 . S
C677 C678 1.523 . S
C678 C662 1.368 . S
C678 C674 1.368 . S
C678 C677 1.523 . S
H679 C654 0.950 . S
H680 C656 0.950 . S
H681 C657 0.949 . S
H682 C659 0.950 . S
H683 C661 0.950 . S
C684 C685 1.349 . S
C684 C686 1.327 . S
C684 H709 0.950 . S
C685 C684 1.349 . S
C685 C701 1.349 . S
C686 C684 1.327 . S
C686 C705 1.429 . S
C686 H710 0.950 . S
C687 C704 1.574 . S
C687 C706 1.368 . S
C687 H711 0.949 . S
H688 C692 0.949 . S
C689 C690 1.349 . S
C689 C691 1.327 . S
C689 H712 0.950 . S
C690 C689 1.349 . S
C690 C702 1.349 . S
C691 C689 1.327 . S
C691 C707 1.429 . S
C691 H713 0.950 . S
C692 H688 0.949 . S
C692 C700 1.574 . S
C692 C708 1.368 . S
H693 C701 0.950 . S
H694 C699 0.950 . S
H695 C700 0.949 . S
H696 C702 0.950 . S
H697 C703 0.950 . S
H698 C704 0.949 . S
C699 H694 0.950 . S
C699 C701 1.327 . S
C699 C705 1.429 . S
C700 C692 1.574 . S
C700 H695 0.949 . S
C700 C706 1.368 . S
C701 C685 1.349 . S
C701 H693 0.950 . S
C701 C699 1.327 . S
C702 C690 1.349 . S
C702 H696 0.950 . S
C702 C703 1.327 . S
C703 H697 0.950 . S
C703 C702 1.327 . S
C703 C707 1.429 . S
C704 C687 1.574 . S
C704 H698 0.949 . S
C704 C708 1.368 . S
C705 C686 1.429 . S
C705 C699 1.429 . S
C705 C706 1.523 . S
C706 C687 1.368 . S
C706 C700 1.368 . S
C706 C705 1.523 . S
C707 C691 1.429 . S
C707 C703 1.429 . S
C707 C708 1.523 . S
C708 C692 1.368 . S
C708 C704 1.368 . S
C708 C707 1.523 . S
H709 C684 0.950 . S
H710 C686 0.950 . S
H711 C687 0.949 . S
H712 C689 0.950 . S
H713 C691 0.950 . S
C714 C715 1.349 . S
C714 C716 1.327 . S
C714 H739 0.950 . S
C715 C714 1.349 . S
C715 C731 1.349 . S
C716 C714 1.327 . S
C716 C735 1.429 . S
C716 H740 0.950 . S
C717 C734 1.574 . S
C717 C736 1.368 . S
C717 H741 0.949 . S
H718 C722 0.949 . S
C719 C720 1.349 . S
C719 C721 1.327 . S
C719 H742 0.950 . S
C720 C719 1.349 . S
C720 C732 1.349 . S
C721 C719 1.327 . S
C721 C737 1.429 . S
C721 H743 0.950 . S
C722 H718 0.949 . S
C722 C730 1.574 . S
C722 C738 1.368 . S
H723 C731 0.950 . S
H724 C729 0.950 . S
H725 C730 0.949 . S
H726 C732 0.950 . S
H727 C733 0.950 . S
H728 C734 0.949 . S
C729 H724 0.950 . S
C729 C731 1.327 . S
C729 C735 1.429 . S
C730 C722 1.574 . S
C730 H725 0.949 . S
C730 C736 1.368 . S
C731 C715 1.349 . S
C731 H723 0.950 . S
C731 C729 1.327 . S
C732 C720 1.349 . S
C732 H726 0.950 . S
C732 C733 1.327 . S
C733 H727 0.950 . S
C733 C732 1.327 . S
C733 C737 1.429 . S
C734 C717 1.574 . S
C734 H728 0.949 . S
C734 C738 1.368 . S
C735 C716 1.429 . S
C735 C729 1.429 . S
C735 C736 1.523 . S
C736 C717 1.368 . S
C736 C730 1.368 . S
C736 C735 1.523 . S
C737 C721 1.429 . S
C737 C733 1.429 . S
C737 C738 1.523 . S
C738 C722 1.368 . S
C738 C734 1.368 . S
C738 C737 1.523 . S
H739 C714 0.950 . S
H740 C716 0.950 . S
H741 C717 0.949 . S
H742 C719 0.950 . S
H743 C721 0.950 . S
C744 C745 1.349 . S
C744 C746 1.327 . S
C744 H769 0.950 . S
C745 C744 1.349 . S
C745 C761 1.349 . S
C746 C744 1.327 . S
C746 C765 1.429 . S
C746 H770 0.950 . S
C747 C764 1.574 . S
C747 C766 1.368 . S
C747 H771 0.949 . S
H748 C752 0.949 . S
C749 C750 1.349 . S
C749 C751 1.327 . S
C749 H772 0.950 . S
C750 C749 1.349 . S
C750 C762 1.349 . S
C751 C749 1.327 . S
C751 C767 1.429 . S
C751 H773 0.950 . S
C752 H748 0.949 . S
C752 C760 1.574 . S
C752 C768 1.368 . S
H753 C761 0.950 . S
H754 C759 0.950 . S
H755 C760 0.949 . S
H756 C762 0.950 . S
H757 C763 0.950 . S
H758 C764 0.949 . S
C759 H754 0.950 . S
C759 C761 1.327 . S
C759 C765 1.429 . S
C760 C752 1.574 . S
C760 H755 0.949 . S
C760 C766 1.368 . S
C761 C745 1.349 . S
C761 H753 0.950 . S
C761 C759 1.327 . S
C762 C750 1.349 . S
C762 H756 0.950 . S
C762 C763 1.327 . S
C763 H757 0.950 . S
C763 C762 1.327 . S
C763 C767 1.429 . S
C764 C747 1.574 . S
C764 H758 0.949 . S
C764 C768 1.368 . S
C765 C746 1.429 . S
C765 C759 1.429 . S
C765 C766 1.523 . S
C766 C747 1.368 . S
C766 C760 1.368 . S
C766 C765 1.523 . S
C767 C751 1.429 . S
C767 C763 1.429 . S
C767 C768 1.523 . S
C768 C752 1.368 . S
C768 C764 1.368 . S
C768 C767 1.523 . S
H769 C744 0.950 . S
H770 C746 0.950 . S
H771 C747 0.949 . S
H772 C749 0.950 . S
H773 C751 0.950 . S
C774 C775 1.349 . S
C774 C776 1.327 . S
C774 H799 0.950 . S
C775 C774 1.349 . S
C775 C791 1.349 . S
C776 C774 1.327 . S
C776 C795 1.429 . S
C776 H800 0.950 . S
C777 C794 1.574 . S
C777 C796 1.368 . S
C777 H801 0.949 . S
H778 C782 0.949 . S
C779 C780 1.349 . S
C779 C781 1.327 . S
C779 H802 0.950 . S
C780 C779 1.349 . S
C780 C792 1.349 . S
C781 C779 1.327 . S
C781 C797 1.429 . S
C781 H803 0.950 . S
C782 H778 0.949 . S
C782 C790 1.574 . S
C782 C798 1.368 . S
H783 C791 0.950 . S
H784 C789 0.950 . S
H785 C790 0.949 . S
H786 C792 0.950 . S
H787 C793 0.950 . S
H788 C794 0.949 . S
C789 H784 0.950 . S
C789 C791 1.327 . S
C789 C795 1.429 . S
C790 C782 1.574 . S
C790 H785 0.949 . S
C790 C796 1.368 . S
C791 C775 1.349 . S
C791 H783 0.950 . S
C791 C789 1.327 . S
C792 C780 1.349 . S
C792 H786 0.950 . S
C792 C793 1.327 . S
C793 H787 0.950 . S
C793 C792 1.327 . S
C793 C797 1.429 . S
C794 C777 1.574 . S
C794 H788 0.949 . S
C794 C798 1.368 . S
C795 C776 1.429 . S
C795 C789 1.429 . S
C795 C796 1.523 . S
C796 C777 1.368 . S
C796 C790 1.368 . S
C796 C795 1.523 . S
C797 C781 1.429 . S
C797 C793 1.429 . S
C797 C798 1.523 . S
C798 C782 1.368 . S
C798 C794 1.368 . S
C798 C797 1.523 . S
H799 C774 0.950 . S
H800 C776 0.950 . S
H801 C777 0.949 . S
H802 C779 0.950 . S
H803 C781 0.950 . S
C804 C805 1.349 . S
C804 C806 1.327 . S
C804 H829 0.950 . S
C805 C804 1.349 . S
C805 C821 1.349 . S
C806 C804 1.327 . S
C806 C825 1.429 . S
C806 H830 0.950 . S
C807 C824 1.574 . S
C807 C826 1.368 . S
C807 H831 0.949 . S
H808 C812 0.949 . S
C809 C810 1.349 . S
C809 C811 1.327 . S
C809 H832 0.950 . S
C810 C809 1.349 . S
C810 C822 1.349 . S
C811 C809 1.327 . S
C811 C827 1.429 . S
C811 H833 0.950 . S
C812 H808 0.949 . S
C812 C820 1.574 . S
C812 C828 1.368 . S
H813 C821 0.950 . S
H814 C819 0.950 . S
H815 C820 0.949 . S
H816 C822 0.950 . S
H817 C823 0.950 . S
H818 C824 0.949 . S
C819 H814 0.950 . S
C819 C821 1.327 . S
C819 C825 1.429 . S
C820 C812 1.574 . S
C820 H815 0.949 . S
C820 C826 1.368 . S
C821 C805 1.349 . S
C821 H813 0.950 . S
C821 C819 1.327 . S
C822 C810 1.349 . S
C822 H816 0.950 . S
C822 C823 1.327 . S
C823 H817 0.950 . S
C823 C822 1.327 . S
C823 C827 1.429 . S
C824 C807 1.574 . S
C824 H818 0.949 . S
C824 C828 1.368 . S
C825 C806 1.429 . S
C825 C819 1.429 . S
C825 C826 1.523 . S
C826 C807 1.368 . S
C826 C820 1.368 . S
C826 C825 1.523 . S
C827 C811 1.429 . S
C827 C823 1.429 . S
C827 C828 1.523 . S
C828 C812 1.368 . S
C828 C824 1.368 . S
C828 C827 1.523 . S
H829 C804 0.950 . S
H830 C806 0.950 . S
H831 C807 0.949 . S
H832 C809 0.950 . S
H833 C811 0.950 . S
C834 C835 1.349 . S
C834 C836 1.327 . S
C834 H859 0.950 . S
C835 C834 1.349 . S
C835 C851 1.349 . S
C836 C834 1.327 . S
C836 C855 1.429 . S
C836 H860 0.950 . S
C837 C854 1.574 . S
C837 C856 1.368 . S
C837 H861 0.949 . S
H838 C842 0.949 . S
C839 C840 1.349 . S
C839 C841 1.327 . S
C839 H862 0.950 . S
C840 C839 1.349 . S
C840 C852 1.349 . S
C841 C839 1.327 . S
C841 C857 1.429 . S
C841 H863 0.950 . S
C842 H838 0.949 . S
C842 C850 1.574 . S
C842 C858 1.368 . S
H843 C851 0.950 . S
H844 C849 0.950 . S
H845 C850 0.949 . S
H846 C852 0.950 . S
H847 C853 0.950 . S
H848 C854 0.949 . S
C849 H844 0.950 . S
C849 C851 1.327 . S
C849 C855 1.429 . S
C850 C842 1.574 . S
C850 H845 0.949 . S
C850 C856 1.368 . S
C851 C835 1.349 . S
C851 H843 0.950 . S
C851 C849 1.327 . S
C852 C840 1.349 . S
C852 H846 0.950 . S
C852 C853 1.327 . S
C853 H847 0.950 . S
C853 C852 1.327 . S
C853 C857 1.429 . S
C854 C837 1.574 . S
C854 H848 0.949 . S
C854 C858 1.368 . S
C855 C836 1.429 . S
C855 C849 1.429 . S
C855 C856 1.523 . S
C856 C837 1.368 . S
C856 C850 1.368 . S
C856 C855 1.523 . S
C857 C841 1.429 . S
C857 C853 1.429 . S
C857 C858 1.523 . S
C858 C842 1.368 . S
C858 C854 1.368 . S
C858 C857 1.523 . S
H859 C834 0.950 . S
H860 C836 0.950 . S
H861 C837 0.949 . S
H862 C839 0.950 . S
H863 C841 0.950 . S
C864 C865 1.349 . S
C864 C866 1.327 . S
C864 H889 0.950 . S
C865 C864 1.349 . S
C865 C881 1.349 . S
C866 C864 1.327 . S
C866 C885 1.429 . S
C866 H890 0.950 . S
C867 C884 1.574 . S
C867 C886 1.368 . S
C867 H891 0.949 . S
H868 C872 0.949 1_556 S
C869 C870 1.349 . S
C869 C871 1.327 . S
C869 H892 0.950 . S
C870 C869 1.349 . S
C870 C882 1.349 . S
C871 C869 1.327 . S
C871 C887 1.429 . S
C871 H893 0.950 . S
C872 H868 0.949 1_554 S
C872 C880 1.574 . S
C872 C888 1.368 . S
H873 C881 0.950 . S
H874 C879 0.950 . S
H875 C880 0.949 . S
H876 C882 0.950 . S
H877 C883 0.950 . S
H878 C884 0.949 . S
C879 H874 0.950 . S
C879 C881 1.327 . S
C879 C885 1.429 . S
C880 C872 1.574 . S
C880 H875 0.949 . S
C880 C886 1.368 . S
C881 C865 1.349 . S
C881 H873 0.950 . S
C881 C879 1.327 . S
C882 C870 1.349 . S
C882 H876 0.950 . S
C882 C883 1.327 . S
C883 H877 0.950 . S
C883 C882 1.327 . S
C883 C887 1.429 . S
C884 C867 1.574 . S
C884 H878 0.949 . S
C884 C888 1.368 . S
C885 C866 1.429 . S
C885 C879 1.429 . S
C885 C886 1.523 . S
C886 C867 1.368 . S
C886 C880 1.368 . S
C886 C885 1.523 . S
C887 C871 1.429 . S
C887 C883 1.429 . S
C887 C888 1.523 1_556 S
C888 C872 1.368 . S
C888 C884 1.368 . S
C888 C887 1.523 1_554 S
H889 C864 0.950 . S
H890 C866 0.950 . S
H891 C867 0.949 . S
H892 C869 0.950 . S
H893 C871 0.950 . S
C894 C895 1.349 . S
C894 C896 1.327 . S
C894 H919 0.950 . S
C895 C894 1.349 . S
C895 C911 1.349 . S
C896 C894 1.327 . S
C896 C915 1.429 . S
C896 H920 0.950 . S
C897 C914 1.574 . S
C897 C916 1.368 . S
C897 H921 0.949 . S
H898 C902 0.949 . S
C899 C900 1.349 . S
C899 C901 1.327 . S
C899 H922 0.950 . S
C900 C899 1.349 . S
C900 C912 1.349 . S
C901 C899 1.327 . S
C901 C917 1.429 . S
C901 H923 0.950 . S
C902 H898 0.949 . S
C902 C910 1.574 . S
C902 C918 1.368 . S
H903 C911 0.950 . S
H904 C909 0.950 . S
H905 C910 0.949 . S
H906 C912 0.950 . S
H907 C913 0.950 . S
H908 C914 0.949 . S
C909 H904 0.950 . S
C909 C911 1.327 . S
C909 C915 1.429 . S
C910 C902 1.574 . S
C910 H905 0.949 . S
C910 C916 1.368 . S
C911 C895 1.349 . S
C911 H903 0.950 . S
C911 C909 1.327 . S
C912 C900 1.349 . S
C912 H906 0.950 . S
C912 C913 1.327 . S
C913 H907 0.950 . S
C913 C912 1.327 . S
C913 C917 1.429 . S
C914 C897 1.574 . S
C914 H908 0.949 . S
C914 C918 1.368 . S
C915 C896 1.429 . S
C915 C909 1.429 . S
C915 C916 1.523 . S
C916 C897 1.368 . S
C916 C910 1.368 . S
C916 C915 1.523 . S
C917 C901 1.429 . S
C917 C913 1.429 . S
C917 C918 1.523 . S
C918 C902 1.368 . S
C918 C914 1.368 . S
C918 C917 1.523 . S
H919 C894 0.950 . S
H920 C896 0.950 . S
H921 C897 0.949 . S
H922 C899 0.950 . S
H923 C901 0.950 . S
C210 C201 1.560 . S
C205 C19 1.473 . S
C235 C40 1.451 . S
C240 C126 1.491 . S
C265 C51 1.470 . S
C270 C149 1.586 . S
C295 C72 1.384 . S
C300 C162 1.472 . S
C330 C165 1.521 . S
C325 C103 1.480 . S
C355 C114 1.381 . S
C360 C178 1.445 . S
C385 C30 1.389 . S
C390 C139 1.453 . S
C415 C61 1.482 . S
C420 C152 1.524 . S
C445 C82 1.394 . S
C450 C175 1.467 . S
C480 C188 1.577 . S
C475 C93 1.462 1_554 S
C510 C191 1.489 . S
C505 C124 1.450 . S
C540 C136 1.566 . S
C535 C9 1.462 . S
C565 C17 1.425 . S
C570 C147 1.463 . S
C595 C38 1.404 . S
C600 C160 1.447 . S
C630 C170 1.477 . S
C625 C54 1.423 . S
C655 C75 1.409 . S
C660 C183 1.453 . S
C690 C199 1.484 . S
C685 C101 1.440 . S
C720 C131 1.445 . S
C715 C117 1.388 . S
C750 C196 1.443 . S
C745 C33 1.387 . S
C775 C59 1.441 . S
C780 C134 1.485 . S
C810 C144 1.454 . S
C805 C80 1.414 . S
C835 C96 1.424 . S
C840 C157 1.479 . S
C865 C122 1.403 . S
C870 C173 1.446 . S
C895 C12 1.419 . S
C900 C186 1.462 . S
