# Generated by pormake.
# Topology zzz, (3,6)-cn, num edge types: 1
# Building blocks:
#     Node 0, Type 0, BuildingBlock: BELTOD_clean_linker_0, # of connection points: 3
#     Node 1, Type 0, BuildingBlock: BELTOD_clean_linker_0, # of connection points: 3
#     Node 2, Type 0, BuildingBlock: BELTOD_clean_linker_0, # of connection points: 3
#     Node 3, Type 0, BuildingBlock: BELTOD_clean_linker_0, # of connection points: 3
#     Node 4, Type 0, BuildingBlock: BELTOD_clean_linker_0, # of connection points: 3
#     Node 5, Type 0, BuildingBlock: BELTOD_clean_linker_0, # of connection points: 3
#     Node 6, Type 0, BuildingBlock: BELTOD_clean_linker_0, # of connection points: 3
#     Node 7, Type 0, BuildingBlock: BELTOD_clean_linker_0, # of connection points: 3
#     Node 8, Type 1, BuildingBlock: PAMTOO_clean_sbu_0, # of connection points: 6
#     Node 9, Type 1, BuildingBlock: PAMTOO_clean_sbu_0, # of connection points: 6
#     Node 10, Type 1, BuildingBlock: PAMTOO_clean_sbu_0, # of connection points: 6
#     Node 11, Type 1, BuildingBlock: PAMTOO_clean_sbu_0, # of connection points: 6
#     Edge 12, Type (0, 1), BuildingBlock: UVAHIK_clean_linker_0, # of connection points: 2
#     Edge 13, Type (0, 1), BuildingBlock: UVAHIK_clean_linker_0, # of connection points: 2
#     Edge 14, Type (0, 1), BuildingBlock: UVAHIK_clean_linker_0, # of connection points: 2
#     Edge 15, Type (0, 1), BuildingBlock: UVAHIK_clean_linker_0, # of connection points: 2
#     Edge 16, Type (0, 1), BuildingBlock: UVAHIK_clean_linker_0, # of connection points: 2
#     Edge 17, Type (0, 1), BuildingBlock: UVAHIK_clean_linker_0, # of connection points: 2
#     Edge 18, Type (0, 1), BuildingBlock: UVAHIK_clean_linker_0, # of connection points: 2
#     Edge 19, Type (0, 1), BuildingBlock: UVAHIK_clean_linker_0, # of connection points: 2
#     Edge 20, Type (0, 1), BuildingBlock: UVAHIK_clean_linker_0, # of connection points: 2
#     Edge 21, Type (0, 1), BuildingBlock: UVAHIK_clean_linker_0, # of connection points: 2
#     Edge 22, Type (0, 1), BuildingBlock: UVAHIK_clean_linker_0, # of connection points: 2
#     Edge 23, Type (0, 1), BuildingBlock: UVAHIK_clean_linker_0, # of connection points: 2
#     Edge 24, Type (0, 1), BuildingBlock: UVAHIK_clean_linker_0, # of connection points: 2
#     Edge 25, Type (0, 1), BuildingBlock: UVAHIK_clean_linker_0, # of connection points: 2
#     Edge 26, Type (0, 1), BuildingBlock: UVAHIK_clean_linker_0, # of connection points: 2
#     Edge 27, Type (0, 1), BuildingBlock: UVAHIK_clean_linker_0, # of connection points: 2
#     Edge 28, Type (0, 1), BuildingBlock: UVAHIK_clean_linker_0, # of connection points: 2
#     Edge 29, Type (0, 1), BuildingBlock: UVAHIK_clean_linker_0, # of connection points: 2
#     Edge 30, Type (0, 1), BuildingBlock: UVAHIK_clean_linker_0, # of connection points: 2
#     Edge 31, Type (0, 1), BuildingBlock: UVAHIK_clean_linker_0, # of connection points: 2
#     Edge 32, Type (0, 1), BuildingBlock: UVAHIK_clean_linker_0, # of connection points: 2
#     Edge 33, Type (0, 1), BuildingBlock: UVAHIK_clean_linker_0, # of connection points: 2
#     Edge 34, Type (0, 1), BuildingBlock: UVAHIK_clean_linker_0, # of connection points: 2
#     Edge 35, Type (0, 1), BuildingBlock: UVAHIK_clean_linker_0, # of connection points: 2
# Relax obj value: 0.312
# Max RMSD: 0.258
# Mean RMSD: 0.207
data_MOF--net-zzz--node1-PAMTOO_clean_sbu_0--node2-BELTOD_clean_linker_0--edge1-UVAHIK_clean_linker_0
_symmetry_space_group_name_H-M    P1
_symmetry_Int_Tables_number       1
_symmetry_cell_setting            triclinic
loop_
_symmetry_equiv_pos_as_xyz
'x, y, z'
_cell_length_a     74.985947
_cell_length_b     65.656468
_cell_length_c     24.353386
_cell_angle_alpha  90.642557
_cell_angle_beta   82.78121
_cell_angle_gamma 85.057423
loop_
_atom_site_label
_atom_site_type_symbol
_atom_site_fract_x
_atom_site_fract_y
_atom_site_fract_z
_atom_type_partial_charge
P0 P 0.74837 0.47869 0.41817 0.0
H1 H 0.7589 0.47217 0.52829 0.0
H2 H 0.78516 0.48173 0.56866 0.0
H3 H 0.79613 0.52398 0.43685 0.0
H4 H 0.76972 0.51413 0.39581 0.0
H5 H 0.70898 0.48383 0.44186 0.0
H6 H 0.68586 0.49469 0.38382 0.0
H7 H 0.72674 0.51592 0.26219 0.0
H8 H 0.74982 0.50544 0.32142 0.0
H9 H 0.78718 0.46522 0.4077 0.0
H10 H 0.74306 0.46004 0.31151 0.0
O11 O 0.73833 0.46137 0.45794 0.0
H12 H 0.80846 0.45219 0.32918 0.0
H13 H 0.7646 0.4468 0.2324 0.0
C14 C 0.76213 0.49254 0.45912 0.0
C15 C 0.76641 0.48412 0.50906 0.0
C16 C 0.78162 0.48942 0.5319 0.0
C17 C 0.79286 0.50337 0.5055 0.0
C18 C 0.78767 0.51323 0.45823 0.0
C19 C 0.77247 0.50775 0.435 0.0
C20 C 0.73121 0.49354 0.38577 0.0
C21 C 0.71296 0.4914 0.40356 0.0
C22 C 0.69973 0.49741 0.36988 0.0
C23 C 0.70445 0.50565 0.31745 0.0
C24 C 0.72256 0.5096 0.30215 0.0
C25 C 0.73581 0.50367 0.33617 0.0
C26 C 0.76356 0.4648 0.36453 0.0
C27 C 0.78197 0.46128 0.36992 0.0
C28 C 0.79418 0.45365 0.32511 0.0
C29 C 0.78815 0.44899 0.27457 0.0
C30 C 0.76955 0.45046 0.27092 0.0
C31 C 0.7573 0.45823 0.31589 0.0
P32 P 0.02023 0.69972 0.35801 0.0
H33 H 0.02051 0.71275 0.47303 0.0
H34 H 0.01031 0.74517 0.52044 0.0
H35 H 0.98054 0.76311 0.38521 0.0
H36 H 0.99186 0.73117 0.33641 0.0
H37 H 0.03278 0.65951 0.31292 0.0
H38 H 0.02037 0.63603 0.25288 0.0
H39 H 0.97044 0.67489 0.26784 0.0
H40 H 0.9829 0.69829 0.32898 0.0
H41 H 0.05241 0.72185 0.35462 0.0
H42 H 0.01309 0.71028 0.24577 0.0
O43 O 0.03527 0.68767 0.3942 0.0
H44 H 0.06488 0.74679 0.28994 0.0
H45 H 0.02508 0.73535 0.18203 0.0
C46 C 0.00679 0.71927 0.40132 0.0
C47 C 0.01129 0.72332 0.45429 0.0
C48 C 0.00539 0.74201 0.48157 0.0
C49 C 0.99478 0.75704 0.45643 0.0
C50 C 0.98901 0.75214 0.40542 0.0
C51 C 0.99515 0.73357 0.37787 0.0
C52 C 0.00878 0.68063 0.32586 0.0
C53 C 0.01895 0.6627 0.30481 0.0
C54 C 0.01183 0.64926 0.27035 0.0
C55 C 0.99442 0.65361 0.25546 0.0
C56 C 0.98394 0.67121 0.27829 0.0
C57 C 0.99105 0.68458 0.31345 0.0
C58 C 0.03207 0.7139 0.30455 0.0
C59 C 0.0468 0.72423 0.31608 0.0
C60 C 0.05377 0.73865 0.27938 0.0
C61 C 0.04595 0.74312 0.23085 0.0
C62 C 0.03167 0.73205 0.21843 0.0
C63 C 0.02475 0.71765 0.25506 0.0
P64 P 0.76883 0.0348 0.28225 0.0
H65 H 0.76609 0.02078 0.39673 0.0
H66 H 0.74224 0.00436 0.45248 0.0
H67 H 0.71735 0.9938 0.30497 0.0
H68 H 0.74181 0.00888 0.24966 0.0
H69 H 0.80475 0.04888 0.26472 0.0
H70 H 0.83221 0.03692 0.20485 0.0
H71 H 0.80599 0.98563 0.15048 0.0
H72 H 0.77834 0.99768 0.21159 0.0
H73 H 0.73778 0.06422 0.30748 0.0
H74 H 0.76662 0.03299 0.16184 0.0
O75 O 0.77375 0.05187 0.32811 0.0
H76 H 0.71303 0.07504 0.25508 0.0
H77 H 0.74184 0.04347 0.1096 0.0
C78 C 0.75549 0.01654 0.31926 0.0
C79 C 0.75583 0.01427 0.37624 0.0
C80 C 0.74199 0.00511 0.4082 0.0
C81 C 0.7274 0.99834 0.38378 0.0
C82 C 0.72821 0.99879 0.3257 0.0
C83 C 0.74223 0.00759 0.29376 0.0
C84 C 0.78958 0.02401 0.24324 0.0
C85 C 0.80496 0.03481 0.24093 0.0
C86 C 0.8207 0.02795 0.20664 0.0
C87 C 0.82131 0.01028 0.17312 0.0
C88 C 0.8059 0.99931 0.17581 0.0
C89 C 0.79017 0.00608 0.21092 0.0
C90 C 0.7541 0.0479 0.23863 0.0
C91 C 0.73907 0.06028 0.26377 0.0
C92 C 0.72485 0.06626 0.23395 0.0
C93 C 0.72541 0.05989 0.17844 0.0
C94 C 0.74108 0.04875 0.1522 0.0
C95 C 0.75529 0.0427 0.18218 0.0
P96 P 0.5036 0.75076 0.24517 0.0
H97 H 0.50325 0.74333 0.36337 0.0
H98 H 0.51893 0.71622 0.4108 0.0
H99 H 0.55427 0.70022 0.25958 0.0
H100 H 0.53831 0.72747 0.21208 0.0
H101 H 0.48875 0.77324 0.15787 0.0
H102 H 0.49925 0.8005 0.0982 0.0
H103 H 0.54688 0.80106 0.18093 0.0
H104 H 0.53637 0.77327 0.24041 0.0
H105 H 0.47953 0.71865 0.2704 0.0
H106 H 0.51367 0.73822 0.12833 0.0
O107 O 0.48577 0.76075 0.28788 0.0
H108 H 0.47271 0.68915 0.21627 0.0
H109 H 0.50642 0.70933 0.07399 0.0
C110 C 0.51959 0.73738 0.28416 0.0
C111 C 0.51485 0.7346 0.34089 0.0
C112 C 0.52388 0.71904 0.36809 0.0
C113 C 0.53769 0.70585 0.33876 0.0
C114 C 0.54353 0.70997 0.28312 0.0
C115 C 0.53454 0.72566 0.25604 0.0
C116 C 0.51199 0.77093 0.20254 0.0
C117 C 0.50155 0.77906 0.16287 0.0
C118 C 0.50758 0.79459 0.12872 0.0
C119 C 0.524 0.80266 0.13445 0.0
C120 C 0.53423 0.79498 0.17552 0.0
C121 C 0.52828 0.77911 0.20929 0.0
C122 C 0.49656 0.73105 0.20287 0.0
C123 C 0.48515 0.71692 0.22723 0.0
C124 C 0.48137 0.70004 0.19652 0.0
C125 C 0.48888 0.69718 0.14088 0.0
C126 C 0.50018 0.71145 0.1165 0.0
C127 C 0.50422 0.72806 0.14749 0.0
P128 P 0.26348 0.44666 0.99995 0.0
H129 H 0.2565 0.43668 0.88734 0.0
H130 H 0.23072 0.44661 0.83868 0.0
H131 H 0.2125 0.49397 0.96246 0.0
H132 H 0.23855 0.48411 0.01062 0.0
H133 H 0.29854 0.42796 0.01938 0.0
H134 H 0.32249 0.44026 0.06545 0.0
H135 H 0.29662 0.5017 0.06755 0.0
H136 H 0.27236 0.48906 0.02089 0.0
H137 H 0.23009 0.42733 0.02472 0.0
H138 H 0.26321 0.46297 0.11418 0.0
O139 O 0.26934 0.42282 0.97575 0.0
H140 H 0.20572 0.4323 0.10159 0.0
H141 H 0.23893 0.46872 0.18901 0.0
C142 C 0.24954 0.45958 0.95289 0.0
C143 C 0.24737 0.4497 0.90308 0.0
C144 C 0.2324 0.45521 0.87559 0.0
C145 C 0.21921 0.47077 0.89729 0.0
C146 C 0.22233 0.48192 0.94442 0.0
C147 C 0.23736 0.47638 0.97189 0.0
C148 C 0.2837 0.45759 0.01572 0.0
C149 C 0.29828 0.44423 0.02764 0.0
C150 C 0.31205 0.45132 0.05438 0.0
C151 C 0.31153 0.472 0.0707 0.0
C152 C 0.29739 0.48564 0.05606 0.0
C153 C 0.28364 0.4785 0.02857 0.0
C154 C 0.24838 0.44505 0.06301 0.0
C155 C 0.2323 0.43578 0.06137 0.0
C156 C 0.21833 0.4388 0.10509 0.0
C157 C 0.22022 0.45126 0.15099 0.0
C158 C 0.23697 0.45897 0.15452 0.0
C159 C 0.25092 0.45585 0.11099 0.0
P160 P 0.07264 0.28461 0.02023 0.0
H161 H 0.076 0.27175 0.90305 0.0
H162 H 0.062 0.24472 0.85851 0.0
H163 H 0.02407 0.24081 0.00587 0.0
H164 H 0.03789 0.26798 0.04998 0.0
H165 H 0.0919 0.3189 0.04828 0.0
H166 H 0.08245 0.34946 0.10552 0.0
H167 H 0.02674 0.33688 0.10796 0.0
H168 H 0.0364 0.30605 0.05084 0.0
H169 H 0.08583 0.24201 0.02879 0.0
H170 H 0.06211 0.29119 0.14096 0.0
O171 O 0.09308 0.28469 0.98414 0.0
H172 H 0.07981 0.21746 0.10199 0.0
H173 H 0.05637 0.26686 0.21396 0.0
C174 C 0.05806 0.27188 0.97997 0.0
C175 C 0.06418 0.26574 0.92496 0.0
C176 C 0.05621 0.25022 0.89955 0.0
C177 C 0.04215 0.24046 0.92914 0.0
C178 C 0.035 0.24795 0.98234 0.0
C179 C 0.04278 0.26366 0.00734 0.0
C180 C 0.06487 0.31027 0.04466 0.0
C181 C 0.0776 0.32311 0.05924 0.0
C182 C 0.07215 0.34064 0.0922 0.0
C183 C 0.05383 0.34558 0.11184 0.0
C184 C 0.04098 0.33338 0.09411 0.0
C185 C 0.04647 0.31584 0.06087 0.0
C186 C 0.07428 0.26842 0.07894 0.0
C187 C 0.07999 0.24763 0.06967 0.0
C188 C 0.07651 0.2336 0.11156 0.0
C189 C 0.06731 0.24022 0.16339 0.0
C190 C 0.06315 0.26128 0.17403 0.0
C191 C 0.06655 0.27526 0.13213 0.0
P192 P 0.24968 0.05627 0.15549 0.0
H193 H 0.25455 0.06361 0.03605 0.0
H194 H 0.27864 0.05114 0.96369 0.0
H195 H 0.29873 0.00708 0.07712 0.0
H196 H 0.27386 0.01846 0.14672 0.0
H197 H 0.21633 0.07917 0.20172 0.0
H198 H 0.18748 0.06904 0.24465 0.0
H199 H 0.20537 0.00575 0.20367 0.0
H200 H 0.23452 0.01616 0.16032 0.0
H201 H 0.28243 0.07406 0.17502 0.0
H202 H 0.2478 0.03124 0.25577 0.0
O203 O 0.24768 0.08097 0.1397 0.0
H204 H 0.30528 0.06412 0.23517 0.0
H205 H 0.27065 0.021 0.3151 0.0
C206 C 0.26266 0.04236 0.0973 0.0
C207 C 0.26377 0.05075 0.04449 0.0
C208 C 0.27782 0.04379 0.00337 0.0
C209 C 0.29124 0.02857 0.01474 0.0
C210 C 0.28887 0.01883 0.06612 0.0
C211 C 0.27458 0.02547 0.10657 0.0
C212 C 0.22745 0.04846 0.17689 0.0
C213 C 0.21393 0.06315 0.20052 0.0
C214 C 0.19738 0.05732 0.22514 0.0
C215 C 0.19406 0.03658 0.22743 0.0
C216 C 0.20754 0.02185 0.20269 0.0
C217 C 0.22411 0.02777 0.17746 0.0
C218 C 0.26334 0.05356 0.21112 0.0
C219 C 0.27949 0.06302 0.20688 0.0
C220 C 0.29262 0.05713 0.2408 0.0
C221 C 0.28985 0.04158 0.27936 0.0
C222 C 0.27314 0.03313 0.28609 0.0
C223 C 0.26002 0.03901 0.25204 0.0
P224 P 0.42624 0.25987 0.24422 0.0
H225 H 0.40462 0.271 0.15493 0.0
H226 H 0.41145 0.29066 0.07147 0.0
H227 H 0.4675 0.28746 0.09829 0.0
H228 H 0.46064 0.26761 0.18082 0.0
H229 H 0.40971 0.23076 0.31887 0.0
H230 H 0.42025 0.19702 0.34865 0.0
H231 H 0.4685 0.19755 0.23154 0.0
H232 H 0.45773 0.2314 0.20134 0.0
H233 H 0.418 0.30263 0.27545 0.0
H234 H 0.45886 0.25453 0.3012 0.0
O235 O 0.40394 0.26417 0.26117 0.0
H236 H 0.43505 0.32746 0.31698 0.0
H237 H 0.47609 0.27932 0.34198 0.0
C238 C 0.43211 0.26786 0.17424 0.0
C239 C 0.41848 0.27395 0.14186 0.0
C240 C 0.42237 0.28538 0.09439 0.0
C241 C 0.43997 0.29095 0.07863 0.0
C242 C 0.45383 0.28336 0.10882 0.0
C243 C 0.44992 0.27192 0.15616 0.0
C244 C 0.43281 0.23351 0.25735 0.0
C245 C 0.42233 0.22343 0.29843 0.0
C246 C 0.42837 0.2041 0.31545 0.0
C247 C 0.44519 0.19461 0.29237 0.0
C248 C 0.4555 0.20453 0.25015 0.0
C249 C 0.44931 0.22382 0.23261 0.0
C250 C 0.43697 0.27669 0.28598 0.0
C251 C 0.43043 0.29733 0.29121 0.0
C252 C 0.44031 0.31154 0.31427 0.0
C253 C 0.45701 0.30536 0.3322 0.0
C254 C 0.46321 0.28451 0.3289 0.0
C255 C 0.45332 0.2703 0.30561 0.0
Dy256 Dy 0.99559 0.01065 0.64973 0.0
Dy257 Dy 0.02257 0.99138 0.73635 0.0
C258 C 0.03786 0.00582 0.61639 0.0
O259 O 1.00182 0.97748 0.62686 0.0
O260 O 0.00815 0.96519 0.71062 0.0
O261 O 0.98954 0.01312 0.56559 0.0
O262 O 0.97222 0.02982 0.6319 0.0
O263 O 0.99533 0.99771 0.78568 0.0
O264 O 0.97719 0.99735 0.7164 0.0
O265 O 0.02627 0.0248 0.73561 0.0
O266 O 0.99941 0.03652 0.70619 0.0
O267 O 0.03153 0.99015 0.81743 0.0
O268 O 0.04562 0.97104 0.7499 0.0
C269 C 0.00373 0.96226 0.66084 0.0
O270 O 0.02328 0.01836 0.61724 0.0
O271 O 0.03876 0.99126 0.6526 0.0
C272 C 0.98001 0.04702 0.54991 0.0
C273 C 0.98878 0.08224 0.49127 0.0
C274 C 0.99775 0.07615 0.53648 0.0
C275 C 0.99341 0.05873 0.56542 0.0
C276 C 0.97079 0.05307 0.50542 0.0
C277 C 0.97514 0.07061 0.47622 0.0
C278 C 0.97687 0.02789 0.57851 0.0
C279 C 0.9794 0.99663 0.76904 0.0
C280 C 0.01389 0.03969 0.72917 0.0
C281 C 0.04471 0.95784 0.83908 0.0
C282 C 0.04757 0.92313 0.90518 0.0
C283 C 0.03425 0.92535 0.86927 0.0
C284 C 0.03281 0.94261 0.83652 0.0
C285 C 0.05782 0.95586 0.87527 0.0
C286 C 0.05924 0.93865 0.90817 0.0
C287 C 0.04407 0.97543 0.80267 0.0
H288 H 0.00856 0.08445 0.5485 0.0
H289 H 1.00084 0.0541 0.59923 0.0
H290 H 0.96049 0.04408 0.49277 0.0
H291 H 0.96793 0.075 0.44175 0.0
H292 H 0.02492 0.91378 0.86662 0.0
H293 H 0.02257 0.94396 0.80877 0.0
H294 H 0.06715 0.96748 0.87748 0.0
H295 H 0.06974 0.93728 0.93498 0.0
Dy296 Dy 0.50539 0.98102 0.65461 0.0
Dy297 Dy 0.51548 0.01626 0.74044 0.0
C298 C 0.50075 0.02781 0.62721 0.0
O299 O 0.53365 0.98797 0.62425 0.0
O300 O 0.54188 0.00017 0.70526 0.0
O301 O 0.50427 0.97118 0.57027 0.0
O302 O 0.49469 0.95237 0.63832 0.0
O303 O 0.51652 0.98707 0.78678 0.0
O304 O 0.52051 0.96352 0.71458 0.0
O305 O 0.48531 0.01862 0.74906 0.0
O306 O 0.4816 0.98609 0.71982 0.0
O307 O 0.51307 0.03075 0.82144 0.0
O308 O 0.52891 0.04351 0.75172 0.0
C309 C 0.54608 0.99288 0.65441 0.0
O310 O 0.49264 0.01092 0.62984 0.0
O311 O 0.51328 0.0307 0.6587 0.0
C312 C 0.47736 0.95628 0.56495 0.0
C313 C 0.44407 0.9599 0.52234 0.0
C314 C 0.44657 0.97152 0.56912 0.0
C315 C 0.46308 0.96981 0.58995 0.0
C316 C 0.47494 0.94438 0.51883 0.0
C317 C 0.45838 0.94621 0.49749 0.0
C318 C 0.49493 0.95589 0.5856 0.0
C319 C 0.5208 0.96832 0.76699 0.0
C320 C 0.47521 0.00338 0.74545 0.0
C321 C 0.53921 0.0465 0.83827 0.0
C322 C 0.56887 0.05119 0.89626 0.0
C323 C 0.56109 0.03245 0.89643 0.0
C324 C 0.54645 0.03007 0.86735 0.0
C325 C 0.54681 0.06526 0.8386 0.0
C326 C 0.56156 0.06758 0.86718 0.0
C327 C 0.52438 0.04415 0.80517 0.0
H328 H 0.43597 0.9825 0.58847 0.0
H329 H 0.46487 0.97944 0.62486 0.0
H330 H 0.4859 0.934 0.49881 0.0
H331 H 0.4568 0.93708 0.46141 0.0
H332 H 0.56659 0.01949 0.918 0.0
H333 H 0.54095 0.01534 0.86704 0.0
H334 H 0.54146 0.07807 0.81616 0.0
H335 H 0.5672 0.08223 0.86674 0.0
Dy336 Dy 0.52559 0.4886 0.72325 0.0
Dy337 Dy 0.48566 0.49871 0.67431 0.0
C338 C 0.49276 0.46219 0.75369 0.0
O339 O 0.52925 0.47139 0.64203 0.0
O340 O 0.49981 0.47333 0.62047 0.0
O341 O 0.53987 0.47362 0.78528 0.0
O342 O 0.55433 0.49114 0.72203 0.0
O343 O 0.50682 0.51233 0.61705 0.0
O344 O 0.526 0.51858 0.68045 0.0
O345 O 0.48758 0.52336 0.73628 0.0
O346 O 0.50746 0.50689 0.78922 0.0
O347 O 0.4663 0.51925 0.63855 0.0
O348 O 0.45975 0.48867 0.6609 0.0
C349 C 0.51689 0.46627 0.61169 0.0
O350 O 0.50982 0.46144 0.7335 0.0
O351 O 0.48187 0.47857 0.7479 0.0
C352 C 0.56657 0.48657 0.80779 0.0
C353 C 0.58722 0.49605 0.89289 0.0
C354 C 0.57421 0.5107 0.87616 0.0
C355 C 0.56386 0.50594 0.83413 0.0
C356 C 0.57982 0.47222 0.82348 0.0
C357 C 0.59 0.47686 0.86549 0.0
C358 C 0.55532 0.48019 0.76619 0.0
C359 C 0.51968 0.52243 0.63331 0.0
C360 C 0.49535 0.52196 0.78167 0.0
C361 C 0.44521 0.50403 0.58862 0.0
C362 C 0.42599 0.50152 0.49585 0.0
C363 C 0.44483 0.50277 0.48865 0.0
C364 C 0.45436 0.50403 0.53461 0.0
C365 C 0.42653 0.50254 0.59589 0.0
C366 C 0.41704 0.50128 0.55022 0.0
C367 C 0.45453 0.50571 0.63833 0.0
H368 H 0.57168 0.52558 0.89665 0.0
H369 H 0.55359 0.5172 0.8229 0.0
H370 H 0.58212 0.45718 0.80374 0.0
H371 H 0.60007 0.46534 0.87667 0.0
H372 H 0.45219 0.50313 0.44752 0.0
H373 H 0.4688 0.50511 0.528 0.0
H374 H 0.41921 0.50238 0.63717 0.0
H375 H 0.40265 0.4999 0.55765 0.0
Dy376 Dy 0.01156 0.52191 0.65459 0.0
Dy377 Dy 1.00183 0.48116 0.72374 0.0
C378 C 0.01793 0.47824 0.59594 0.0
O379 O 0.98469 0.51444 0.6326 0.0
O380 O 0.97517 0.49749 0.71102 0.0
O381 O 0.01362 0.53857 0.57838 0.0
O382 O 0.02063 0.55226 0.65313 0.0
O383 O 1.00093 0.50665 0.78584 0.0
O384 O 0.99387 0.53345 0.73118 0.0
O385 O 0.03207 0.47942 0.71269 0.0
O386 O 0.03471 0.51369 0.70269 0.0
O387 O 1.0018 0.46307 0.79738 0.0
O388 O 0.99041 0.45208 0.72665 0.0
C389 C 0.97175 0.50697 0.66574 0.0
O390 O 0.0252 0.49547 0.60202 0.0
O391 O 0.00582 0.47213 0.63431 0.0
C392 C 0.03949 0.55616 0.57001 0.0
C393 C 0.07292 0.55428 0.50248 0.0
C394 C 0.07144 0.54512 0.55455 0.0
C395 C 0.05489 0.54601 0.58787 0.0
C396 C 0.04106 0.56645 0.51978 0.0
C397 C 0.0577 0.56557 0.48623 0.0
C398 C 0.02164 0.55311 0.59934 0.0
C399 C 0.99481 0.52575 0.78032 0.0
C400 C 0.04158 0.49531 0.71375 0.0
C401 C 0.97516 0.44668 0.81383 0.0
C402 C 0.94199 0.44124 0.87736 0.0
C403 C 0.94531 0.4603 0.8543 0.0
C404 C 0.96175 0.463 0.82304 0.0
C405 C 0.97199 0.42757 0.83623 0.0
C406 C 0.95548 0.42485 0.86791 0.0
C407 C 0.99203 0.44968 0.77883 0.0
H408 H 0.08274 0.53598 0.56805 0.0
H409 H 0.05395 0.53768 0.62613 0.0
H410 H 0.02927 0.57422 0.5052 0.0
H411 H 0.05847 0.57294 0.44655 0.0
H412 H 0.9351 0.47313 0.85985 0.0
H413 H 0.96395 0.47782 0.80562 0.0
H414 H 0.98222 0.41481 0.82913 0.0
H415 H 0.95335 0.41005 0.88549 0.0
C416 C 0.16056 0.04215 0.25556 0.0
C417 C 0.17704 0.03058 0.25893 0.0
C418 C 0.14498 0.03824 0.29027 0.0
C419 C 0.12467 0.00018 0.38515 0.0
H420 H 0.09597 0.04798 0.45299 0.0
C421 C 0.06947 0.99507 0.57245 0.0
C422 C 0.05349 0.00805 0.57365 0.0
C423 C 0.08417 0.99717 0.53204 0.0
C424 C 0.10366 0.03445 0.43393 0.0
H425 H 0.18989 0.00531 0.30027 0.0
H426 H 0.16269 0.99844 0.36086 0.0
H427 H 0.12193 0.05228 0.38484 0.0
H428 H 0.04043 0.03335 0.53275 0.0
H429 H 0.06595 0.03686 0.46215 0.0
H430 H 0.10641 0.98236 0.4347 0.0
C431 C 0.16177 0.01046 0.331 0.0
C432 C 0.11857 0.03691 0.39473 0.0
C433 C 0.17738 0.01438 0.29617 0.0
C434 C 0.05255 0.02314 0.53332 0.0
C435 C 0.06724 0.02522 0.49292 0.0
C436 C 0.10971 0.99771 0.42439 0.0
C437 C 0.14547 0.02265 0.32933 0.0
C438 C 0.12929 0.01982 0.36987 0.0
C439 C 0.08326 0.0123 0.49181 0.0
C440 C 0.09904 0.01482 0.44938 0.0
H441 H 0.15977 0.05452 0.22666 0.0
H442 H 0.13257 0.04762 0.28698 0.0
H443 H 0.1325 0.98668 0.36639 0.0
H444 H 0.07069 0.9833 0.6029 0.0
H445 H 0.09637 0.98713 0.53293 0.0
C446 C 0.44133 0.15939 0.32865 0.0
C447 C 0.45244 0.17531 0.31587 0.0
C448 C 0.44751 0.14227 0.35681 0.0
C449 C 0.47894 0.12788 0.45555 0.0
H450 H 0.47063 0.07214 0.41901 0.0
C451 C 0.50662 0.06013 0.57721 0.0
C452 C 0.49579 0.04386 0.58824 0.0
C453 C 0.50196 0.07541 0.54083 0.0
C454 C 0.47286 0.08764 0.43022 0.0
H455 H 0.4789 0.18554 0.32132 0.0
H456 H 0.48971 0.15563 0.37047 0.0
H457 H 0.46154 0.0999 0.35964 0.0
H458 H 0.47157 0.03084 0.56955 0.0
H459 H 0.46312 0.05783 0.50732 0.0
H460 H 0.48973 0.11593 0.52684 0.0
C461 C 0.4762 0.15642 0.35878 0.0
C462 C 0.46773 0.10351 0.39602 0.0
C463 C 0.47008 0.17344 0.33015 0.0
C464 C 0.48023 0.04315 0.5618 0.0
C465 C 0.47546 0.05857 0.5258 0.0
C466 C 0.48391 0.11208 0.49 0.0
C467 C 0.46487 0.14084 0.37329 0.0
C468 C 0.47075 0.12379 0.40831 0.0
C469 C 0.48623 0.07496 0.51499 0.0
C470 C 0.48097 0.09173 0.47781 0.0
H471 H 0.4277 0.16038 0.31785 0.0
H472 H 0.43845 0.13055 0.36764 0.0
H473 H 0.48113 0.14341 0.46668 0.0
H474 H 0.5188 0.06104 0.59642 0.0
H475 H 0.51079 0.08753 0.53272 0.0
C476 C 0.34293 0.47033 0.09875 0.0
C477 C 0.32481 0.47859 0.10694 0.0
C478 C 0.35482 0.47438 0.13676 0.0
C479 C 0.3611 0.50879 0.25454 0.0
H480 H 0.39239 0.46272 0.29473 0.0
C481 C 0.3982 0.5107 0.44932 0.0
C482 C 0.41557 0.50045 0.44737 0.0
C483 C 0.38804 0.50905 0.40524 0.0
C484 C 0.38398 0.47587 0.28353 0.0
H485 H 0.30523 0.4981 0.16136 0.0
H486 H 0.32594 0.50525 0.22734 0.0
H487 H 0.37325 0.45845 0.22247 0.0
H488 H 0.43585 0.4806 0.39638 0.0
H489 H 0.4183 0.47808 0.31905 0.0
H490 H 0.37174 0.52616 0.31593 0.0
C491 C 0.33103 0.49575 0.19118 0.0
C492 C 0.37295 0.47341 0.24193 0.0
C493 C 0.31913 0.49169 0.15313 0.0
C494 C 0.42261 0.48882 0.39939 0.0
C495 C 0.41242 0.48718 0.35521 0.0
C496 C 0.37216 0.51126 0.2961 0.0
C497 C 0.34896 0.48683 0.18413 0.0
C498 C 0.36126 0.48979 0.22702 0.0
C499 C 0.39491 0.49715 0.35763 0.0
C500 C 0.38368 0.49479 0.31154 0.0
H501 H 0.3479 0.46044 0.06325 0.0
H502 H 0.36861 0.46758 0.1292 0.0
H503 H 0.3525 0.52184 0.24373 0.0
H504 H 0.39239 0.52005 0.48508 0.0
H505 H 0.37458 0.51681 0.40911 0.0
C506 C 0.03608 0.3581 0.20191 0.0
C507 C 0.04855 0.36176 0.15572 0.0
C508 C 0.03289 0.37186 0.24698 0.0
C509 C 0.03822 0.42461 0.29376 0.0
H510 H 0.03674 0.39971 0.43771 0.0
C511 C 0.03471 0.47187 0.49984 0.0
C512 C 0.02279 0.46557 0.54445 0.0
C513 C 0.03864 0.45989 0.451 0.0
C514 C 0.03694 0.40695 0.39792 0.0
H515 H 0.06671 0.38339 0.11965 0.0
H516 H 0.0612 0.40739 0.19872 0.0
H517 H 0.04113 0.37811 0.35455 0.0
H518 H 0.00568 0.44169 0.57239 0.0
H519 H 0.01237 0.42115 0.48792 0.0
H520 H 0.03389 0.45351 0.33757 0.0
C521 C 0.0539 0.39384 0.19992 0.0
C522 C 0.03943 0.39454 0.35017 0.0
C523 C 0.05715 0.38001 0.15478 0.0
C524 C 0.015 0.44703 0.53914 0.0
C525 C 0.01892 0.43513 0.49063 0.0
C526 C 0.03567 0.43708 0.34174 0.0
C527 C 0.04206 0.38966 0.24713 0.0
C528 C 0.03987 0.40317 0.29751 0.0
C529 C 0.0308 0.44134 0.44592 0.0
C530 C 0.03476 0.42837 0.39446 0.0
H531 H 0.02936 0.34413 0.20448 0.0
H532 H 0.02345 0.36834 0.28229 0.0
H533 H 0.03845 0.43173 0.25382 0.0
H534 H 0.04093 0.48608 0.50249 0.0
H535 H 0.04796 0.46505 0.41748 0.0
C536 C 0.83641 0.99949 0.07798 0.0
C537 C 0.83774 0.00418 0.13368 0.0
C538 C 0.85195 0.99625 0.03944 0.0
C539 C 0.89949 0.00887 0.01904 0.0
H540 H 0.90399 0.97053 0.8948 0.0
C541 C 0.9652 0.99565 0.86789 0.0
C542 C 0.96344 0.99503 0.81108 0.0
C543 C 0.95009 0.99508 0.90763 0.0
C544 C 0.90287 0.98141 0.92909 0.0
H545 H 0.85642 0.00789 0.19334 0.0
H546 H 0.8835 0.00184 0.12662 0.0
H547 H 0.8773 0.97195 0.96403 0.0
H548 H 0.94436 0.99282 0.75169 0.0
H549 H 0.918 0.99188 0.82114 0.0
H550 H 0.92498 0.01838 0.98416 0.0
C551 C 0.87047 0.00125 0.11217 0.0
C552 C 0.88756 0.98223 0.96877 0.0
C553 C 0.85496 0.00462 0.15052 0.0
C554 C 0.94623 0.99337 0.79505 0.0
C555 C 0.93112 0.9927 0.83487 0.0
C556 C 0.91479 0.00798 0.9796 0.0
C557 C 0.86918 0.99752 0.05585 0.0
C558 C 0.88566 0.99602 0.01423 0.0
C559 C 0.93284 0.99379 0.89164 0.0
C560 C 0.91666 0.99428 0.93406 0.0
H561 H 0.82332 0.99924 0.06367 0.0
H562 H 0.8504 0.9936 0.9964 0.0
H563 H 0.89835 0.02001 0.0527 0.0
H564 H 0.97824 0.99683 0.88185 0.0
H565 H 0.95192 0.99565 0.95101 0.0
C566 C 0.52955 0.81748 0.04048 0.0
C567 C 0.52999 0.81928 0.0978 0.0
C568 C 0.53295 0.83397 0.00624 0.0
C569 C 0.52818 0.88955 0.0107 0.0
H570 H 0.5537 0.88374 0.86193 0.0
C571 C 0.52839 0.9568 0.85992 0.0
C572 C 0.52577 0.95199 0.80526 0.0
C573 C 0.53221 0.9413 0.89675 0.0
C574 C 0.54643 0.8856 0.90325 0.0
H575 H 0.53503 0.83942 0.16409 0.0
H576 H 0.54088 0.86849 0.10403 0.0
H577 H 0.55506 0.85508 0.92469 0.0
H578 H 0.52545 0.92706 0.74623 0.0
H579 H 0.53166 0.90011 0.81055 0.0
H580 H 0.51889 0.9197 0.9888 0.0
C581 C 0.53787 0.85427 0.08573 0.0
C582 C 0.54728 0.86921 0.93925 0.0
C583 C 0.53467 0.83763 0.11998 0.0
C584 C 0.52743 0.93134 0.78796 0.0
C585 C 0.53114 0.91586 0.82484 0.0
C586 C 0.52722 0.9059 0.9746 0.0
C587 C 0.53671 0.85271 0.02864 0.0
C588 C 0.53787 0.87087 0.99299 0.0
C589 C 0.5334 0.92061 0.87988 0.0
C590 C 0.53602 0.90399 0.92001 0.0
H591 H 0.52609 0.80343 0.02233 0.0
H592 H 0.53179 0.83232 0.96256 0.0
H593 H 0.52058 0.89122 0.05161 0.0
H594 H 0.52738 0.97256 0.87451 0.0
H595 H 0.53414 0.94554 0.93855 0.0
C596 C 0.69043 0.52457 0.24089 0.0
C597 C 0.69095 0.50802 0.27711 0.0
C598 C 0.6782 0.52593 0.20152 0.0
C599 C 0.6362 0.50463 0.16636 0.0
H600 H 0.65194 0.52208 0.01792 0.0
C601 C 0.59994 0.48536 0.97982 0.0
C602 C 0.5976 0.50025 0.93965 0.0
C603 C 0.61029 0.48862 0.02253 0.0
C604 C 0.64723 0.51744 0.05938 0.0
H605 H 0.67921 0.47966 0.29885 0.0
H606 H 0.65819 0.48195 0.23082 0.0
H607 H 0.67196 0.52357 0.08943 0.0
H608 H 0.60422 0.53041 0.91344 0.0
H609 H 0.62245 0.53611 0.98827 0.0
H610 H 0.6117 0.49797 0.13597 0.0
C611 C 0.66681 0.49424 0.23356 0.0
C612 C 0.65872 0.51831 0.10051 0.0
C613 C 0.67893 0.49293 0.27283 0.0
C614 C 0.60569 0.51867 0.94383 0.0
C615 C 0.61625 0.52186 0.98641 0.0
C616 C 0.6248 0.50364 0.12526 0.0
C617 C 0.66624 0.51073 0.19721 0.0
C618 C 0.65349 0.51156 0.15439 0.0
C619 C 0.61871 0.50683 0.02624 0.0
C620 C 0.63027 0.50969 0.07097 0.0
H621 H 0.69941 0.53652 0.24313 0.0
H622 H 0.67807 0.53896 0.1747 0.0
H623 H 0.63146 0.49978 0.20758 0.0
H624 H 0.59376 0.47109 0.97822 0.0
H625 H 0.61201 0.47662 0.05205 0.0
C626 C 0.99141 0.61932 0.21244 0.0
C627 C 0.98812 0.64073 0.21242 0.0
C628 C 0.98797 0.60739 0.16769 0.0
C629 C 0.98619 0.61115 0.01858 0.0
H630 H 0.96891 0.55725 0.03268 0.0
C631 C 0.98353 0.55971 0.82637 0.0
C632 C 0.98983 0.53906 0.83051 0.0
C633 C 0.98009 0.57253 0.87353 0.0
C634 C 0.97386 0.57222 0.02801 0.0
H635 H 0.97792 0.66631 0.16637 0.0
H636 H 0.97173 0.64544 0.08843 0.0
H637 H 0.96829 0.57892 0.11514 0.0
H638 H 0.99698 0.51559 0.88794 0.0
H639 H 0.99134 0.53792 0.96959 0.0
H640 H 0.99235 0.60429 0.9319 0.0
C641 C 0.97713 0.63792 0.12291 0.0
C642 C 0.97346 0.58466 0.07528 0.0
C643 C 0.98048 0.64985 0.16785 0.0
C644 C 0.99213 0.53141 0.8831 0.0
C645 C 0.98876 0.54422 0.93014 0.0
C646 C 0.98667 0.5987 0.97138 0.0
C647 C 0.98123 0.61659 0.12173 0.0
C648 C 0.97988 0.60415 0.07122 0.0
C649 C 0.98292 0.56502 0.92593 0.0
C650 C 0.98079 0.57894 0.97555 0.0
H651 H 0.99716 0.61184 0.24639 0.0
H652 H 0.99139 0.59103 0.168 0.0
H653 H 0.99149 0.62596 0.01404 0.0
H654 H 0.9815 0.5661 0.78658 0.0
H655 H 0.97535 0.58839 0.86883 0.0
C656 C 0.07029 0.20709 0.21368 0.0
C657 C 0.06 0.22522 0.20331 0.0
C658 C 0.06259 0.19224 0.24749 0.0
C659 C 0.02324 0.18412 0.35134 0.0
H660 H 0.03424 0.12732 0.30449 0.0
C661 C 0.9992 0.11751 0.4855 0.0
C662 C 0.99447 0.10006 0.45868 0.0
C663 C 0.00656 0.13331 0.45497 0.0
C664 C 0.03086 0.14313 0.3178 0.0
H665 H 0.03357 0.24192 0.21989 0.0
H666 H 0.02018 0.21611 0.27822 0.0
H667 H 0.04892 0.15381 0.2515 0.0
H668 H 0.99316 0.08588 0.37859 0.0
H669 H 0.00543 0.1138 0.32517 0.0
H670 H 0.00474 0.17351 0.41655 0.0
C671 C 0.03429 0.21349 0.26153 0.0
C672 C 0.03952 0.15829 0.28794 0.0
C673 C 0.04199 0.22833 0.22809 0.0
C674 C 0.99654 0.09917 0.40053 0.0
C675 C 0.00383 0.11503 0.36993 0.0
C676 C 0.01451 0.16897 0.381 0.0
C677 C 0.04442 0.19517 0.27122 0.0
C678 C 0.03579 0.17897 0.30429 0.0
C679 C 0.00925 0.13211 0.39683 0.0
C680 C 0.01821 0.14829 0.36457 0.0
H681 H 0.08423 0.20434 0.19535 0.0
H682 H 0.07085 0.17842 0.25481 0.0
H683 H 0.02018 0.19988 0.36542 0.0
H684 H 0.99753 0.1188 0.53027 0.0
H685 H 0.01067 0.14615 0.47709 0.0
C686 C 0.32218 0.02837 0.27795 0.0
C687 C 0.30495 0.03267 0.30789 0.0
C688 C 0.33621 0.01861 0.30301 0.0
C689 C 0.35168 0.00822 0.43765 0.0
H690 H 0.38314 0.96541 0.35501 0.0
C691 C 0.41033 0.96556 0.53225 0.0
C692 C 0.42694 0.96328 0.49795 0.0
C693 C 0.3944 0.97146 0.51021 0.0
C694 C 0.37455 0.97741 0.37849 0.0
H695 H 0.289 0.03036 0.38786 0.0
H696 H 0.31364 0.01323 0.43187 0.0
H697 H 0.35734 0.98146 0.31496 0.0
H698 H 0.43983 0.9647 0.41346 0.0
H699 H 0.41208 0.97509 0.37495 0.0
H700 H 0.36908 0.00455 0.50062 0.0
C701 C 0.31623 0.01751 0.38897 0.0
C702 C 0.35978 0.9866 0.35557 0.0
C703 C 0.30213 0.02721 0.36375 0.0
C704 C 0.4272 0.9661 0.4408 0.0
C705 C 0.41128 0.97207 0.41877 0.0
C706 C 0.36649 0.99908 0.46051 0.0
C707 C 0.33337 0.01292 0.35862 0.0
C708 C 0.34834 0.0023 0.38457 0.0
C709 C 0.39476 0.97526 0.45343 0.0
C710 C 0.37823 0.98375 0.4309 0.0
H711 H 0.32473 0.03208 0.2346 0.0
H712 H 0.34932 0.01554 0.27877 0.0
H713 H 0.3432 0.02041 0.46074 0.0
H714 H 0.4097 0.96319 0.57637 0.0
H715 H 0.38185 0.97337 0.53784 0.0
C716 C 0.47003 0.33915 0.32304 0.0
C717 C 0.46824 0.32082 0.35165 0.0
C718 C 0.47993 0.35418 0.34213 0.0
C719 C 0.51327 0.36478 0.43648 0.0
H720 H 0.48817 0.41905 0.44359 0.0
C721 C 0.52618 0.43017 0.58344 0.0
C722 C 0.52151 0.45031 0.56854 0.0
C723 C 0.52448 0.41387 0.54749 0.0
C724 C 0.49569 0.40416 0.44075 0.0
H725 H 0.47595 0.30358 0.42164 0.0
H726 H 0.49314 0.33007 0.45554 0.0
H727 H 0.47559 0.39133 0.39985 0.0
H728 H 0.5132 0.4696 0.50334 0.0
H729 H 0.51131 0.44134 0.43908 0.0
H730 H 0.5332 0.37772 0.47878 0.0
C731 C 0.48702 0.33266 0.41794 0.0
C732 C 0.48838 0.38819 0.4158 0.0
C733 C 0.47712 0.31755 0.39871 0.0
C734 C 0.51693 0.45413 0.51538 0.0
C735 C 0.51562 0.43792 0.47904 0.0
C736 C 0.52068 0.38087 0.46135 0.0
C737 C 0.48824 0.35129 0.39037 0.0
C738 C 0.49694 0.36828 0.41386 0.0
C739 C 0.51825 0.41758 0.496 0.0
C740 C 0.51186 0.40074 0.46428 0.0
H741 H 0.46373 0.3419 0.28582 0.0
H742 H 0.4809 0.36821 0.31938 0.0
H743 H 0.52025 0.34961 0.43516 0.0
H744 H 0.52943 0.42694 0.62476 0.0
H745 H 0.52655 0.39844 0.56209 0.0
C746 C 0.1878 0.46468 0.17128 0.0
C747 C 0.2043 0.45875 0.19076 0.0
C748 C 0.17375 0.47524 0.20597 0.0
C749 C 0.15753 0.49018 0.3521 0.0
H750 H 0.13241 0.53561 0.28461 0.0
C751 C 0.10655 0.54735 0.48164 0.0
C752 C 0.0895 0.54941 0.46292 0.0
C753 C 0.12157 0.5384 0.44743 0.0
C754 C 0.13932 0.52297 0.30391 0.0
H755 H 0.21847 0.45796 0.26319 0.0
H756 H 0.19412 0.47695 0.32335 0.0
H757 H 0.15596 0.51383 0.2285 0.0
H758 H 0.07515 0.54491 0.39223 0.0
H759 H 0.10145 0.52981 0.33227 0.0
H760 H 0.1409 0.49949 0.42763 0.0
C761 C 0.192 0.47332 0.2813 0.0
C762 C 0.15269 0.51038 0.27179 0.0
C763 C 0.20602 0.46258 0.24668 0.0
C764 C 0.0881 0.54382 0.40782 0.0
C765 C 0.10315 0.53505 0.37348 0.0
C766 C 0.14425 0.50288 0.38432 0.0
C767 C 0.17591 0.4803 0.2608 0.0
C768 C 0.16181 0.4937 0.29537 0.0
C769 C 0.11986 0.53157 0.39367 0.0
C770 C 0.13493 0.51928 0.36039 0.0
H771 H 0.18602 0.46219 0.12835 0.0
H772 H 0.16135 0.47996 0.18929 0.0
H773 H 0.16416 0.47735 0.37141 0.0
H774 H 0.10812 0.55185 0.52357 0.0
H775 H 0.1344 0.5362 0.46358 0.0
C776 C 0.05416 0.77923 0.22146 0.0
C777 C 0.05122 0.76065 0.19626 0.0
C778 C 0.05656 0.79663 0.1899 0.0
C779 C 0.06554 0.81494 0.04611 0.0
H780 H 0.03769 0.8642 0.10833 0.0
C781 C 0.04842 0.8851 0.91536 0.0
C782 C 0.04948 0.90455 0.9388 0.0
C783 C 0.05034 0.86758 0.94686 0.0
C784 C 0.04574 0.85066 0.09065 0.0
H785 H 0.04964 0.74549 0.11766 0.0
H786 H 0.0534 0.77597 0.06272 0.0
H787 H 0.03886 0.83343 0.16293 0.0
H788 H 0.0533 0.92089 0.01371 0.0
H789 H 0.0568 0.89028 0.06863 0.0
H790 H 0.07205 0.83219 0.97328 0.0
C791 C 0.05398 0.77707 0.10685 0.0
C792 C 0.04646 0.83302 0.122 0.0
C793 C 0.05164 0.75964 0.13841 0.0
C794 C 0.05255 0.90611 0.99438 0.0
C795 C 0.0544 0.8886 0.02595 0.0
C796 C 0.06477 0.8326 0.01466 0.0
C797 C 0.05601 0.79589 0.13244 0.0
C798 C 0.05627 0.81491 0.10001 0.0
C799 C 0.05329 0.86915 0.00255 0.0
C800 C 0.05475 0.85061 0.03649 0.0
H801 H 0.05375 0.78063 0.26596 0.0
H802 H 0.0584 0.81081 0.21076 0.0
H803 H 0.07339 0.80131 0.02822 0.0
H804 H 0.04627 0.88339 0.87245 0.0
H805 H 0.04923 0.85283 0.92785 0.0
C806 C 0.69231 0.05787 0.17845 0.0
C807 C 0.70895 0.06253 0.15033 0.0
C808 C 0.67706 0.05809 0.151 0.0
C809 C 0.65673 0.07746 0.03056 0.0
H810 H 0.63003 0.02943 0.04859 0.0
C811 C 0.59973 0.06268 0.89956 0.0
C812 C 0.58474 0.05353 0.92564 0.0
C813 C 0.61486 0.06452 0.92682 0.0
C814 C 0.63713 0.04311 0.04371 0.0
H815 H 0.72252 0.07175 0.07188 0.0
H816 H 0.69567 0.07229 0.02372 0.0
H817 H 0.65628 0.03201 0.09685 0.0
H818 H 0.57358 0.03962 0.00105 0.0
H819 H 0.59977 0.04322 0.04925 0.0
H820 H 0.63742 0.08874 0.97809 0.0
C821 C 0.69453 0.06846 0.06709 0.0
C822 C 0.65221 0.04454 0.07125 0.0
C823 C 0.70988 0.06805 0.0945 0.0
C824 C 0.58506 0.04649 0.97973 0.0
C825 C 0.6001 0.0485 0.0072 0.0
C826 C 0.6415 0.07614 0.00336 0.0
C827 C 0.67807 0.06308 0.09487 0.0
C828 C 0.66214 0.06173 0.06509 0.0
C829 C 0.61526 0.0574 0.98095 0.0
C830 C 0.63148 0.05894 0.0097 0.0
H831 H 0.6912 0.05326 0.22124 0.0
H832 H 0.6645 0.05408 0.17354 0.0
H833 H 0.66409 0.09095 0.02543 0.0
H834 H 0.59992 0.06803 0.8576 0.0
H835 H 0.62637 0.07114 0.90497 0.0
C836 C 0.48049 0.68085 0.05571 0.0
C837 C 0.48579 0.67886 0.10873 0.0
C838 C 0.47907 0.66352 0.02332 0.0
C839 C 0.4783 0.6067 0.02772 0.0
H840 H 0.4948 0.6104 0.87102 0.0
C841 C 0.49782 0.53712 0.87533 0.0
C842 C 0.49127 0.53872 0.82375 0.0
C843 C 0.4952 0.55371 0.91289 0.0
C844 C 0.48998 0.6092 0.91461 0.0
H845 H 0.49354 0.65734 0.17005 0.0
H846 H 0.49169 0.62701 0.11294 0.0
H847 H 0.49389 0.64036 0.93113 0.0
H848 H 0.47639 0.55884 0.77195 0.0
H849 H 0.47209 0.58775 0.83718 0.0
H850 H 0.47513 0.57515 0.01075 0.0
C851 C 0.48812 0.64188 0.09669 0.0
C852 C 0.48936 0.62641 0.94914 0.0
C853 C 0.48924 0.65924 0.12942 0.0
C854 C 0.48163 0.55705 0.81125 0.0
C855 C 0.47922 0.57367 0.84845 0.0
C856 C 0.47917 0.58938 0.99315 0.0
C857 C 0.48328 0.6438 0.04284 0.0
C858 C 0.48347 0.62544 0.00617 0.0
C859 C 0.4862 0.57227 0.89925 0.0
C860 C 0.48498 0.59051 0.93626 0.0
H861 H 0.47758 0.69584 0.03914 0.0
H862 H 0.47486 0.66563 0.9827 0.0
H863 H 0.47346 0.60542 0.07122 0.0
H864 H 0.50527 0.5232 0.88629 0.0
H865 H 0.5008 0.55229 0.95172 0.0
C866 C 0.80124 0.42822 0.18925 0.0
C867 C 0.80139 0.44526 0.22458 0.0
C868 C 0.81411 0.42516 0.14223 0.0
C869 C 0.84429 0.45302 0.04637 0.0
H870 H 0.87766 0.40417 0.0336 0.0
C871 C 0.91669 0.45454 0.94865 0.0
C872 C 0.92452 0.43881 0.91149 0.0
C873 C 0.8998 0.45311 0.97857 0.0
C874 C 0.86823 0.41769 0.03587 0.0
H875 H 0.81446 0.47274 0.23801 0.0
H876 H 0.83666 0.46756 0.15617 0.0
H877 H 0.85025 0.40563 0.10063 0.0
H878 H 0.92095 0.40894 0.87766 0.0
H879 H 0.89132 0.40626 0.93137 0.0
H880 H 0.8625 0.4655 0.98368 0.0
C881 C 0.82679 0.4565 0.16466 0.0
C882 C 0.85257 0.41851 0.07406 0.0
C883 C 0.81423 0.45936 0.21174 0.0
C884 C 0.91529 0.42126 0.90623 0.0
C885 C 0.89833 0.41975 0.93666 0.0
C886 C 0.85983 0.4522 0.00832 0.0
C887 C 0.8269 0.4394 0.12953 0.0
C888 C 0.84091 0.43652 0.08115 0.0
C889 C 0.89034 0.43585 0.9724 0.0
C890 C 0.87234 0.43489 0.00444 0.0
H891 H 0.79139 0.4172 0.19845 0.0
H892 H 0.814 0.41184 0.11567 0.0
H893 H 0.83533 0.46697 0.0506 0.0
H894 H 0.92364 0.46803 0.95474 0.0
H895 H 0.89418 0.4655 0.00701 0.0
C896 C 0.03733 0.20358 0.94148 0.0
C897 C 0.03681 0.22086 0.90809 0.0
C898 C 0.03384 0.18455 0.92113 0.0
C899 C 0.03113 0.15616 0.78876 0.0
H900 H 0.01129 0.11625 0.88993 0.0
C901 C 0.00809 0.07773 0.72317 0.0
C902 C 0.01626 0.06071 0.74797 0.0
C903 C 0.01022 0.09761 0.74108 0.0
C904 C 0.01689 0.12725 0.8613 0.0
H905 H 0.03192 0.2319 0.8275 0.0
H906 H 0.02488 0.19885 0.79248 0.0
H907 H 0.01434 0.15061 0.92412 0.0
H908 H 0.03292 0.05117 0.81123 0.0
H909 H 0.03609 0.08597 0.84384 0.0
H910 H 0.03292 0.13269 0.72563 0.0
C911 C 0.02854 0.19977 0.83396 0.0
C912 C 0.01878 0.14696 0.88085 0.0
C913 C 0.0324 0.21879 0.85409 0.0
C914 C 0.02653 0.06398 0.79122 0.0
C915 C 0.02827 0.08385 0.81002 0.0
C916 C 0.02885 0.13655 0.76902 0.0
C917 C 0.0294 0.18228 0.86702 0.0
C918 C 0.02622 0.16166 0.84512 0.0
C919 C 0.02017 0.10083 0.78503 0.0
C920 C 0.02195 0.12185 0.80529 0.0
H921 H 0.04107 0.20463 0.9829 0.0
H922 H 0.03517 0.17153 0.94761 0.0
H923 H 0.03718 0.16678 0.75992 0.0
H924 H 1.00016 0.07571 0.68959 0.0
H925 H 0.0038 0.11047 0.72128 0.0
C926 C 0.31586 0.04046 0.94521 0.0
C927 C 0.30854 0.02455 0.97652 0.0
C928 C 0.33307 0.03764 0.91512 0.0
C929 C 0.37107 0.99778 0.86719 0.0
H930 H 0.39885 0.04499 0.85958 0.0
C931 C 0.44348 0.99355 0.75067 0.0
C932 C 0.45599 0.00578 0.76988 0.0
C933 C 0.42529 0.99588 0.77308 0.0
C934 C 0.39146 0.03151 0.86191 0.0
H935 H 0.31359 0.99264 0.99719 0.0
H936 H 0.34388 0.98821 0.94826 0.0
H937 H 0.36795 0.04839 0.90329 0.0
H938 H 0.45928 0.02974 0.82864 0.0
H939 H 0.42786 0.0331 0.86992 0.0
H940 H 0.39501 0.98059 0.82927 0.0
C941 C 0.33619 0.00281 0.9458 0.0
C942 C 0.37346 0.03357 0.8861 0.0
C943 C 0.31878 0.00548 0.97489 0.0
C944 C 0.44994 0.02023 0.81254 0.0
C945 C 0.43182 0.02224 0.83591 0.0
C946 C 0.38921 0.99562 0.84403 0.0
C947 C 0.34377 0.01899 0.91632 0.0
C948 C 0.36292 0.01676 0.88908 0.0
C949 C 0.41916 0.01018 0.81635 0.0
C950 C 0.39972 0.01246 0.84095 0.0
H951 H 0.30868 0.05548 0.9455 0.0
H952 H 0.33808 0.05034 0.89175 0.0
H953 H 0.36347 0.98448 0.86776 0.0
H954 H 0.44767 0.98233 0.71763 0.0
H955 H 0.41605 0.98658 0.7558 0.0
C956 C 0.43137 0.32387 0.0332 0.0
C957 C 0.44354 0.30642 0.03529 0.0
C958 C 0.43572 0.33981 0.99776 0.0
C959 C 0.47544 0.36254 0.92923 0.0
H960 H 0.44092 0.3939 0.8504 0.0
C961 C 0.49729 0.42581 0.78156 0.0
C962 C 0.48599 0.44409 0.78255 0.0
C963 C 0.49139 0.40872 0.80947 0.0
C964 C 0.45066 0.38542 0.87265 0.0
H965 H 0.46938 0.29157 0.99928 0.0
H966 H 0.47697 0.31941 0.93741 0.0
H967 H 0.43184 0.36398 0.90218 0.0
H968 H 0.45946 0.45859 0.81299 0.0
H969 H 0.44922 0.42869 0.86278 0.0
H970 H 0.49417 0.38402 0.90073 0.0
C971 C 0.46418 0.32089 0.96395 0.0
C972 C 0.44548 0.36825 0.90215 0.0
C973 C 0.45982 0.30492 0.99932 0.0
C974 C 0.4685 0.44475 0.81147 0.0
C975 C 0.4626 0.42758 0.83973 0.0
C976 C 0.48059 0.37969 0.89998 0.0
C977 C 0.45236 0.33871 0.96367 0.0
C978 C 0.45784 0.35659 0.93067 0.0
C979 C 0.47407 0.40942 0.83947 0.0
C980 C 0.4683 0.39133 0.87114 0.0
H981 H 0.41884 0.32572 0.06093 0.0
H982 H 0.42639 0.3534 0.999 0.0
H983 H 0.48518 0.3542 0.95177 0.0
H984 H 0.51077 0.42463 0.75915 0.0
H985 H 0.50045 0.39488 0.80733 0.0
C986 C 0.19289 0.49356 0.86945 0.0
C987 C 0.2016 0.47389 0.87414 0.0
C988 C 0.17595 0.49612 0.8502 0.0
C989 C 0.13555 0.4685 0.83607 0.0
H990 H 0.12459 0.51075 0.73253 0.0
C991 C 0.06862 0.47327 0.73845 0.0
C992 C 0.06027 0.49274 0.72938 0.0
C993 C 0.08602 0.47104 0.7545 0.0
C994 C 0.12728 0.49902 0.76203 0.0
H995 H 0.19898 0.44151 0.86273 0.0
H996 H 0.16971 0.44598 0.82898 0.0
H997 H 0.15432 0.50715 0.764 0.0
H998 H 0.06391 0.52518 0.73001 0.0
H999 H 0.09387 0.52135 0.75902 0.0
H1000 H 0.10852 0.46053 0.83506 0.0
C1001 C 0.17594 0.45946 0.84019 0.0
C1002 C 0.1444 0.49695 0.78002 0.0
C1003 C 0.19289 0.45691 0.85891 0.0
C1004 C 0.06987 0.5099 0.7364 0.0
C1005 C 0.0872 0.50769 0.75277 0.0
C1006 C 0.1184 0.47066 0.81845 0.0
C1007 C 0.16716 0.47908 0.83582 0.0
C1008 C 0.14881 0.4816 0.81713 0.0
C1009 C 0.09555 0.48823 0.76231 0.0
C1010 C 0.11397 0.48592 0.78098 0.0
H1011 H 0.19918 0.50699 0.88063 0.0
H1012 H 0.16956 0.51146 0.84774 0.0
H1013 H 0.13833 0.45672 0.86537 0.0
H1014 H 0.06173 0.45968 0.73316 0.0
H1015 H 0.09203 0.45576 0.76035 0.0
C1016 C 0.99256 0.79511 0.44413 0.0
C1017 C 0.99177 0.77839 0.47975 0.0
C1018 C 0.99201 0.81506 0.4652 0.0
C1019 C 0.98218 0.84733 0.59428 0.0
H1020 H 0.01452 0.88221 0.51123 0.0
C1021 C 1.00088 0.92494 0.67896 0.0
C1022 C 1.00105 0.94128 0.64204 0.0
C1023 C 0.99866 0.90513 0.66063 0.0
C1024 C 0.00529 0.87274 0.53465 0.0
H1025 H 0.98884 0.76991 0.56609 0.0
H1026 H 0.98859 0.80464 0.60272 0.0
H1027 H 0.01224 0.84776 0.47696 0.0
H1028 H 0.99884 0.94955 0.55695 0.0
H1029 H 0.99511 0.91507 0.52514 0.0
H1030 H 0.97564 0.87242 0.65268 0.0
C1031 C 0.9894 0.80232 0.55836 0.0
C1032 C 0.0039 0.85297 0.51489 0.0
C1033 C 0.98975 0.78232 0.53726 0.0
C1034 C 0.99882 0.93736 0.58654 0.0
C1035 C 0.99676 0.91756 0.56818 0.0
C1036 C 0.9837 0.86712 0.61433 0.0
C1037 C 0.99092 0.81891 0.52249 0.0
C1038 C 0.99224 0.84001 0.54416 0.0
C1039 C 0.99674 0.9012 0.6049 0.0
C1040 C 0.9952 0.88008 0.58451 0.0
H1041 H 0.99437 0.79284 0.39962 0.0
H1042 H 0.99281 0.82745 0.43627 0.0
H1043 H 0.97293 0.8379 0.61768 0.0
H1044 H 1.00253 0.92742 0.72202 0.0
H1045 H 0.99883 0.89281 0.68981 0.0
C1046 C 0.69927 0.97934 0.40003 0.0
C1047 C 0.7105 0.99338 0.41864 0.0
C1048 C 0.68216 0.97721 0.42877 0.0
C1049 C 0.64732 0.00641 0.52826 0.0
H1050 H 0.62402 0.95587 0.53342 0.0
C1051 C 0.57838 0.99955 0.65723 0.0
C1052 C 0.56534 0.9907 0.63017 0.0
C1053 C 0.59639 0.99844 0.63338 0.0
C1054 C 0.63036 0.97011 0.53202 0.0
H1055 H 0.71254 0.01546 0.48424 0.0
H1056 H 0.68346 0.01085 0.5355 0.0
H1057 H 0.65528 0.95598 0.49023 0.0
H1058 H 0.56119 0.97322 0.55742 0.0
H1059 H 0.59278 0.97113 0.51603 0.0
H1060 H 0.62249 0.02046 0.57056 0.0
C1061 C 0.68757 0.00197 0.4976 0.0
C1062 C 0.64826 0.9702 0.50716 0.0
C1063 C 0.70452 0.00431 0.46856 0.0
C1064 C 0.57086 0.98026 0.57929 0.0
C1065 C 0.58897 0.97895 0.55571 0.0
C1066 C 0.62956 0.00625 0.55357 0.0
C1067 C 0.67589 0.98889 0.47725 0.0
C1068 C 0.65699 0.98839 0.50491 0.0
C1069 C 0.60187 0.98827 0.58218 0.0
C1070 C 0.62086 0.98813 0.55569 0.0
H1071 H 0.70347 0.97034 0.3624 0.0
H1072 H 0.6736 0.96699 0.41164 0.0
H1073 H 0.65333 0.02085 0.52612 0.0
H1074 H 0.57464 0.0077 0.69647 0.0
H1075 H 0.60607 0.00558 0.65503 0.0
C1076 C 0.54398 0.66783 0.33248 0.0
C1077 C 0.54353 0.68614 0.36335 0.0
C1078 C 0.54557 0.64896 0.35807 0.0
C1079 C 0.55653 0.62188 0.48302 0.0
H1080 H 0.51721 0.59003 0.45568 0.0
C1081 C 0.53408 0.55546 0.62284 0.0
C1082 C 0.52639 0.53928 0.59901 0.0
C1083 C 0.53888 0.5723 0.59133 0.0
C1084 C 0.52854 0.59839 0.46308 0.0
H1085 H 0.54588 0.69891 0.44433 0.0
H1086 H 0.54873 0.66579 0.48913 0.0
H1087 H 0.52195 0.62103 0.4048 0.0
H1088 H 0.51871 0.52742 0.52282 0.0
H1089 H 0.52776 0.55624 0.46732 0.0
H1090 H 0.56318 0.59913 0.54125 0.0
C1091 C 0.54779 0.66613 0.44512 0.0
C1092 C 0.53121 0.61626 0.43392 0.0
C1093 C 0.54605 0.68507 0.41957 0.0
C1094 C 0.52436 0.53981 0.54253 0.0
C1095 C 0.52945 0.55644 0.51081 0.0
C1096 C 0.55403 0.60377 0.51179 0.0
C1097 C 0.54685 0.64795 0.41503 0.0
C1098 C 0.54512 0.62829 0.44382 0.0
C1099 C 0.53635 0.57317 0.53504 0.0
C1100 C 0.53988 0.59186 0.50253 0.0
H1101 H 0.54187 0.66806 0.28929 0.0
H1102 H 0.54501 0.63516 0.33377 0.0
H1103 H 0.5674 0.63086 0.4913 0.0
H1104 H 0.53573 0.55551 0.6664 0.0
H1105 H 0.54393 0.58494 0.61175 0.0
C1106 C 0.82242 0.48789 0.53024 0.0
C1107 C 0.81091 0.50552 0.52344 0.0
C1108 C 0.83963 0.48943 0.54547 0.0
C1109 C 0.86692 0.52147 0.6177 0.0
H1110 H 0.90769 0.49084 0.53119 0.0
C1111 C 0.93818 0.50536 0.68988 0.0
C1112 C 0.95304 0.50877 0.65071 0.0
C1113 C 0.92066 0.50649 0.67483 0.0
C1114 C 0.89647 0.49953 0.55567 0.0
H1115 H 0.80845 0.53861 0.52769 0.0
H1116 H 0.83856 0.54131 0.5561 0.0
H1117 H 0.87747 0.49006 0.50378 0.0
H1118 H 0.96101 0.51608 0.56495 0.0
H1119 H 0.93056 0.51756 0.53863 0.0
H1120 H 0.88594 0.53049 0.67045 0.0
C1121 C 0.83417 0.52631 0.54913 0.0
C1122 C 0.87915 0.49901 0.54012 0.0
C1123 C 0.81701 0.52478 0.53269 0.0
C1124 C 0.94991 0.51342 0.59627 0.0
C1125 C 0.93247 0.51418 0.58106 0.0
C1126 C 0.88423 0.52166 0.63394 0.0
C1127 C 0.84572 0.50862 0.5552 0.0
C1128 C 0.86418 0.50994 0.57094 0.0
C1129 C 0.91764 0.51067 0.62006 0.0
C1130 C 0.89921 0.5107 0.60303 0.0
H1131 H 0.8182 0.47284 0.52279 0.0
H1132 H 0.84816 0.47553 0.55007 0.0
H1133 H 0.85562 0.52994 0.64242 0.0
H1134 H 0.94009 0.50176 0.73217 0.0
H1135 H 0.90952 0.50358 0.70573 0.0
loop_
_geom_bond_atom_site_label_1
_geom_bond_atom_site_label_2
_geom_bond_distance
_geom_bond_site_symmetry_2
_ccdc_geom_bond_type
P0 O11 1.490 . S
P0 C14 1.812 . S
P0 C20 1.803 . S
P0 C26 1.819 . S
H1 C15 0.941 . S
H2 C16 0.939 . S
H3 C18 0.940 . S
H4 C19 0.940 . S
H5 C21 0.939 . S
H6 C22 0.942 . S
H7 C24 0.940 . S
H8 C25 0.939 . S
H9 C27 0.941 . S
H10 C31 0.939 . S
O11 P0 1.490 . S
H12 C28 0.939 . S
H13 C30 0.940 . S
C14 P0 1.812 . S
C14 C15 1.389 . S
C14 C19 1.391 . S
C15 H1 0.941 . S
C15 C14 1.389 . S
C15 C16 1.397 . S
C16 H2 0.939 . S
C16 C15 1.397 . S
C16 C17 1.378 . S
C17 C16 1.378 . S
C17 C18 1.378 . S
C18 H3 0.940 . S
C18 C17 1.378 . S
C18 C19 1.396 . S
C19 H4 0.940 . S
C19 C14 1.391 . S
C19 C18 1.396 . S
C20 P0 1.803 . S
C20 C21 1.378 . S
C20 C25 1.400 . S
C21 H5 0.939 . S
C21 C20 1.378 . S
C21 C22 1.361 . S
C22 H6 0.942 . S
C22 C21 1.361 . S
C22 C23 1.369 . S
C23 C22 1.369 . S
C23 C24 1.404 . S
C24 H7 0.940 . S
C24 C23 1.404 . S
C24 C25 1.389 . S
C25 H8 0.939 . S
C25 C20 1.400 . S
C25 C24 1.389 . S
C26 P0 1.819 . S
C26 C27 1.391 . S
C26 C31 1.391 . S
C27 H9 0.941 . S
C27 C26 1.391 . S
C27 C28 1.396 . S
C28 H12 0.939 . S
C28 C27 1.396 . S
C28 C29 1.397 . S
C29 C28 1.397 . S
C29 C30 1.385 . S
C30 H13 0.940 . S
C30 C29 1.385 . S
C30 C31 1.388 . S
C31 H10 0.939 . S
C31 C26 1.391 . S
C31 C30 1.388 . S
P32 O43 1.490 . S
P32 C46 1.812 . S
P32 C52 1.803 . S
P32 C58 1.819 . S
H33 C47 0.941 . S
H34 C48 0.939 . S
H35 C50 0.940 . S
H36 C51 0.940 . S
H37 C53 0.939 . S
H38 C54 0.942 . S
H39 C56 0.940 . S
H40 C57 0.939 . S
H41 C59 0.941 . S
H42 C63 0.939 . S
O43 P32 1.490 . S
H44 C60 0.939 . S
H45 C62 0.940 . S
C46 P32 1.812 . S
C46 C47 1.389 . S
C46 C51 1.391 1_455 S
C47 H33 0.941 . S
C47 C46 1.389 . S
C47 C48 1.397 . S
C48 H34 0.939 . S
C48 C47 1.397 . S
C48 C49 1.378 1_455 S
C49 C48 1.378 1_655 S
C49 C50 1.378 . S
C50 H35 0.940 . S
C50 C49 1.378 . S
C50 C51 1.396 . S
C51 H36 0.940 . S
C51 C46 1.391 1_655 S
C51 C50 1.396 . S
C52 P32 1.803 . S
C52 C53 1.378 . S
C52 C57 1.400 1_455 S
C53 H37 0.939 . S
C53 C52 1.378 . S
C53 C54 1.361 . S
C54 H38 0.942 . S
C54 C53 1.361 . S
C54 C55 1.369 1_455 S
C55 C54 1.369 1_655 S
C55 C56 1.404 . S
C56 H39 0.940 . S
C56 C55 1.404 . S
C56 C57 1.389 . S
C57 H40 0.939 . S
C57 C52 1.400 1_655 S
C57 C56 1.389 . S
C58 P32 1.819 . S
C58 C59 1.391 . S
C58 C63 1.391 1_455 S
C59 H41 0.941 . S
C59 C58 1.391 . S
C59 C60 1.396 . S
C60 H44 0.939 . S
C60 C59 1.396 . S
C60 C61 1.397 1_455 S
C61 C60 1.397 1_655 S
C61 C62 1.385 . S
C62 H45 0.940 . S
C62 C61 1.385 . S
C62 C63 1.388 . S
C63 H42 0.939 . S
C63 C58 1.391 1_655 S
C63 C62 1.388 . S
P64 O75 1.490 . S
P64 C78 1.812 . S
P64 C84 1.803 . S
P64 C90 1.819 . S
H65 C79 0.941 . S
H66 C80 0.939 . S
H67 C82 0.940 . S
H68 C83 0.950 . S
H69 C85 0.939 . S
H70 C86 0.942 . S
H71 C88 0.940 . S
H72 C89 0.961 . S
H73 C91 0.941 . S
H74 C95 0.932 1_565 S
O75 P64 1.490 . S
H76 C92 0.939 . S
H77 C94 0.940 . S
C78 P64 1.812 . S
C78 C79 1.389 . S
C78 C83 1.374 1_545 S
C79 H65 0.941 . S
C79 C78 1.389 . S
C79 C80 1.397 . S
C80 H66 0.939 . S
C80 C79 1.397 . S
C80 C81 1.378 . S
C81 C80 1.378 . S
C81 C82 1.378 1_545 S
C82 H67 0.940 . S
C82 C81 1.378 1_565 S
C82 C83 1.403 . S
C83 H68 0.950 . S
C83 C78 1.374 1_565 S
C83 C82 1.403 . S
C84 P64 1.803 . S
C84 C85 1.378 . S
C84 C89 1.369 1_545 S
C85 H69 0.939 . S
C85 C84 1.378 . S
C85 C86 1.361 . S
C86 H70 0.942 . S
C86 C85 1.361 . S
C86 C87 1.369 . S
C87 C86 1.369 . S
C87 C88 1.404 1_545 S
C88 H71 0.940 . S
C88 C87 1.404 1_565 S
C88 C89 1.399 . S
C89 H72 0.961 . S
C89 C84 1.369 1_565 S
C89 C88 1.399 . S
C90 P64 1.819 . S
C90 C91 1.391 . S
C90 C95 1.391 . S
C91 H73 0.941 . S
C91 C90 1.391 . S
C91 C92 1.396 . S
C92 H76 0.939 . S
C92 C91 1.396 . S
C92 C93 1.397 . S
C93 C92 1.397 . S
C93 C94 1.385 1_545 S
C94 H77 0.940 . S
C94 C93 1.385 1_565 S
C94 C95 1.388 1_565 S
C95 H74 0.932 1_545 S
C95 C90 1.391 . S
C95 C94 1.388 1_545 S
P96 O107 1.490 . S
P96 C110 1.812 . S
P96 C116 1.803 . S
P96 C122 1.819 . S
H97 C111 0.941 . S
H98 C112 0.939 . S
H99 C114 0.940 . S
H100 C115 0.940 . S
H101 C117 0.939 . S
H102 C118 0.942 . S
H103 C120 0.940 . S
H104 C121 0.939 . S
H105 C123 0.941 . S
H106 C127 0.939 . S
O107 P96 1.490 . S
H108 C124 0.939 . S
H109 C126 0.940 . S
C110 P96 1.812 . S
C110 C111 1.389 . S
C110 C115 1.391 . S
C111 H97 0.941 . S
C111 C110 1.389 . S
C111 C112 1.397 . S
C112 H98 0.939 . S
C112 C111 1.397 . S
C112 C113 1.378 . S
C113 C112 1.378 . S
C113 C114 1.378 . S
C114 H99 0.940 . S
C114 C113 1.378 . S
C114 C115 1.396 . S
C115 H100 0.940 . S
C115 C110 1.391 . S
C115 C114 1.396 . S
C116 P96 1.803 . S
C116 C117 1.378 . S
C116 C121 1.400 . S
C117 H101 0.939 . S
C117 C116 1.378 . S
C117 C118 1.361 . S
C118 H102 0.942 . S
C118 C117 1.361 . S
C118 C119 1.369 . S
C119 C118 1.369 . S
C119 C120 1.404 . S
C120 H103 0.940 . S
C120 C119 1.404 . S
C120 C121 1.389 . S
C121 H104 0.939 . S
C121 C116 1.400 . S
C121 C120 1.389 . S
C122 P96 1.819 . S
C122 C123 1.391 . S
C122 C127 1.391 1_554 S
C123 H105 0.941 . S
C123 C122 1.391 . S
C123 C124 1.396 1_554 S
C124 H108 0.939 . S
C124 C123 1.396 1_556 S
C124 C125 1.397 . S
C125 C124 1.397 . S
C125 C126 1.385 . S
C126 H109 0.940 . S
C126 C125 1.385 . S
C126 C127 1.388 . S
C127 H106 0.939 . S
C127 C122 1.391 1_556 S
C127 C126 1.388 . S
P128 O139 1.490 . S
P128 C142 1.812 . S
P128 C148 1.803 1_556 S
P128 C154 1.819 1_556 S
H129 C143 0.941 . S
H130 C144 0.939 . S
H131 C146 0.940 . S
H132 C147 0.940 . S
H133 C149 0.939 . S
H134 C150 0.942 . S
H135 C152 0.940 1_556 S
H136 C153 0.939 . S
H137 C155 0.941 . S
H138 C159 0.939 . S
O139 P128 1.490 . S
H140 C156 0.939 . S
H141 C158 0.940 . S
C142 P128 1.812 . S
C142 C143 1.389 . S
C142 C147 1.391 . S
C143 H129 0.941 . S
C143 C142 1.389 . S
C143 C144 1.397 . S
C144 H130 0.939 . S
C144 C143 1.397 . S
C144 C145 1.378 . S
C145 C144 1.378 . S
C145 C146 1.378 . S
C146 H131 0.940 . S
C146 C145 1.378 . S
C146 C147 1.396 . S
C147 H132 0.940 . S
C147 C142 1.391 . S
C147 C146 1.396 . S
C148 P128 1.803 1_554 S
C148 C149 1.378 . S
C148 C153 1.400 1_554 S
C149 H133 0.939 . S
C149 C148 1.378 . S
C149 C150 1.361 . S
C150 H134 0.942 . S
C150 C149 1.361 . S
C150 C151 1.369 . S
C151 C150 1.369 . S
C151 C152 1.404 . S
C152 H135 0.940 1_554 S
C152 C151 1.404 . S
C152 C153 1.389 1_554 S
C153 H136 0.939 . S
C153 C148 1.400 1_556 S
C153 C152 1.389 1_556 S
C154 P128 1.819 1_554 S
C154 C155 1.391 . S
C154 C159 1.391 . S
C155 H137 0.941 . S
C155 C154 1.391 . S
C155 C156 1.396 . S
C156 H140 0.939 . S
C156 C155 1.396 . S
C156 C157 1.397 . S
C157 C156 1.397 . S
C157 C158 1.385 . S
C158 H141 0.940 . S
C158 C157 1.385 . S
C158 C159 1.388 . S
C159 H138 0.939 . S
C159 C154 1.391 . S
C159 C158 1.388 . S
P160 O171 1.490 . S
P160 C174 1.812 . S
P160 C180 1.803 . S
P160 C186 1.819 . S
H161 C175 0.941 . S
H162 C176 0.939 . S
H163 C178 0.940 . S
H164 C179 0.940 . S
H165 C181 0.939 . S
H166 C182 0.942 . S
H167 C184 0.940 . S
H168 C185 0.939 . S
H169 C187 0.941 . S
H170 C191 0.939 . S
O171 P160 1.490 . S
H172 C188 0.939 . S
H173 C190 0.940 . S
C174 P160 1.812 . S
C174 C175 1.389 1_554 S
C174 C179 1.391 . S
C175 H161 0.941 . S
C175 C174 1.389 1_556 S
C175 C176 1.397 . S
C176 H162 0.939 . S
C176 C175 1.397 . S
C176 C177 1.378 . S
C177 C176 1.378 . S
C177 C178 1.378 . S
C178 H163 0.940 . S
C178 C177 1.378 . S
C178 C179 1.396 1_556 S
C179 H164 0.940 . S
C179 C174 1.391 . S
C179 C178 1.396 1_554 S
C180 P160 1.803 . S
C180 C181 1.378 . S
C180 C185 1.400 . S
C181 H165 0.939 . S
C181 C180 1.378 . S
C181 C182 1.361 . S
C182 H166 0.942 . S
C182 C181 1.361 . S
C182 C183 1.369 . S
C183 C182 1.369 . S
C183 C184 1.404 . S
C184 H167 0.940 . S
C184 C183 1.404 . S
C184 C185 1.389 . S
C185 H168 0.939 . S
C185 C180 1.400 . S
C185 C184 1.389 . S
C186 P160 1.819 . S
C186 C187 1.391 . S
C186 C191 1.391 . S
C187 H169 0.941 . S
C187 C186 1.391 . S
C187 C188 1.396 . S
C188 H172 0.939 . S
C188 C187 1.396 . S
C188 C189 1.397 . S
C189 C188 1.397 . S
C189 C190 1.385 . S
C190 H173 0.940 . S
C190 C189 1.385 . S
C190 C191 1.388 . S
C191 H170 0.939 . S
C191 C186 1.391 . S
C191 C190 1.388 . S
P192 O203 1.490 . S
P192 C206 1.812 . S
P192 C212 1.803 . S
P192 C218 1.819 . S
H193 C207 0.941 . S
H194 C208 0.939 1_556 S
H195 C210 0.940 . S
H196 C211 0.943 . S
H197 C213 0.939 . S
H198 C214 0.942 . S
H199 C216 0.940 . S
H200 C217 0.950 . S
H201 C219 0.941 . S
H202 C223 0.932 1_565 S
O203 P192 1.490 . S
H204 C220 0.939 . S
H205 C222 0.940 . S
C206 P192 1.812 . S
C206 C207 1.389 . S
C206 C211 1.387 1_545 S
C207 H193 0.941 . S
C207 C206 1.389 . S
C207 C208 1.397 . S
C208 H194 0.939 1_554 S
C208 C207 1.397 . S
C208 C209 1.378 . S
C209 C208 1.378 . S
C209 C210 1.378 1_545 S
C210 H195 0.940 . S
C210 C209 1.378 1_565 S
C210 C211 1.398 . S
C211 H196 0.943 . S
C211 C206 1.387 1_565 S
C211 C210 1.398 . S
C212 P192 1.803 . S
C212 C213 1.378 . S
C212 C217 1.380 1_545 S
C213 H197 0.939 . S
C213 C212 1.378 . S
C213 C214 1.361 . S
C214 H198 0.942 . S
C214 C213 1.361 . S
C214 C215 1.369 . S
C215 C214 1.369 . S
C215 C216 1.404 1_545 S
C216 H199 0.940 . S
C216 C215 1.404 1_565 S
C216 C217 1.399 . S
C217 H200 0.950 . S
C217 C212 1.380 1_565 S
C217 C216 1.399 . S
C218 P192 1.819 . S
C218 C219 1.391 . S
C218 C223 1.391 . S
C219 H201 0.941 . S
C219 C218 1.391 . S
C219 C220 1.396 . S
C220 H204 0.939 . S
C220 C219 1.396 . S
C220 C221 1.397 . S
C221 C220 1.397 . S
C221 C222 1.385 1_545 S
C222 H205 0.940 . S
C222 C221 1.385 1_565 S
C222 C223 1.388 1_565 S
C223 H202 0.932 1_545 S
C223 C218 1.391 . S
C223 C222 1.388 1_545 S
P224 O235 1.490 . S
P224 C238 1.812 . S
P224 C244 1.803 . S
P224 C250 1.819 . S
H225 C239 0.941 . S
H226 C240 0.939 . S
H227 C242 0.940 . S
H228 C243 0.940 . S
H229 C245 0.939 . S
H230 C246 0.942 . S
H231 C248 0.940 . S
H232 C249 0.939 . S
H233 C251 0.941 . S
H234 C255 0.939 . S
O235 P224 1.490 . S
H236 C252 0.939 . S
H237 C254 0.940 . S
C238 P224 1.812 . S
C238 C239 1.389 . S
C238 C243 1.391 . S
C239 H225 0.941 . S
C239 C238 1.389 . S
C239 C240 1.397 . S
C240 H226 0.939 . S
C240 C239 1.397 . S
C240 C241 1.378 . S
C241 C240 1.378 . S
C241 C242 1.378 . S
C242 H227 0.940 . S
C242 C241 1.378 . S
C242 C243 1.396 . S
C243 H228 0.940 . S
C243 C238 1.391 . S
C243 C242 1.396 . S
C244 P224 1.803 . S
C244 C245 1.378 . S
C244 C249 1.400 . S
C245 H229 0.939 . S
C245 C244 1.378 . S
C245 C246 1.361 . S
C246 H230 0.942 . S
C246 C245 1.361 . S
C246 C247 1.369 . S
C247 C246 1.369 . S
C247 C248 1.404 . S
C248 H231 0.940 . S
C248 C247 1.404 . S
C248 C249 1.389 . S
C249 H232 0.939 . S
C249 C244 1.400 . S
C249 C248 1.389 . S
C250 P224 1.819 . S
C250 C251 1.391 . S
C250 C255 1.391 . S
C251 H233 0.941 . S
C251 C250 1.391 . S
C251 C252 1.396 . S
C252 H236 0.939 . S
C252 C251 1.396 . S
C252 C253 1.397 . S
C253 C252 1.397 . S
C253 C254 1.385 . S
C254 H237 0.940 . S
C254 C253 1.385 . S
C254 C255 1.388 . S
C255 H234 0.939 . S
C255 C250 1.391 . S
C255 C254 1.388 . S
Dy256 O259 2.307 1_545 S
Dy256 O261 2.395 1_655 S
Dy256 O262 2.379 . S
Dy256 O264 2.339 . S
Dy256 O266 2.283 1_655 S
Dy256 O270 2.275 1_655 S
Dy256 C278 2.738 . S
Dy257 O260 2.298 . S
Dy257 O263 2.275 1_455 S
Dy257 O265 2.307 1_565 S
Dy257 O267 2.395 . S
Dy257 O268 2.379 . S
Dy257 O271 2.339 . S
Dy257 C287 2.738 . S
C258 O270 1.254 1_565 S
C258 O271 1.257 . S
O259 Dy256 2.307 1_565 S
O259 C269 1.266 . S
O260 Dy257 2.298 . S
O260 C269 1.236 1_455 S
O261 Dy256 2.395 1_455 S
O261 C278 1.255 1_455 S
O262 Dy256 2.379 . S
O262 C278 1.249 . S
O263 Dy257 2.275 1_655 S
O263 C279 1.254 1_565 S
O264 Dy256 2.339 . S
O264 C279 1.257 . S
O265 Dy257 2.307 1_545 S
O265 C280 1.266 . S
O266 Dy256 2.283 1_455 S
O266 C280 1.267 . S
O267 Dy257 2.395 . S
O267 C287 1.255 . S
O268 Dy257 2.379 . S
O268 C287 1.249 . S
C269 O259 1.266 . S
C269 O260 1.236 1_655 S
O270 Dy256 2.275 1_455 S
O270 C258 1.254 1_545 S
O271 Dy257 2.339 . S
O271 C258 1.257 . S
C272 C275 1.344 1_655 S
C272 C276 1.328 . S
C272 C278 1.516 . S
C273 C274 1.304 1_655 S
C273 C277 1.323 . S
C274 C273 1.304 1_455 S
C274 C275 1.371 . S
C274 H288 0.930 . S
C275 C272 1.344 1_455 S
C275 C274 1.371 . S
C275 H289 0.931 . S
C276 C272 1.328 . S
C276 C277 1.433 . S
C276 H290 0.931 . S
C277 C273 1.323 . S
C277 C276 1.433 . S
C277 H291 0.933 . S
C278 Dy256 2.738 . S
C278 O261 1.255 1_655 S
C278 O262 1.249 . S
C278 C272 1.516 . S
C279 O263 1.254 1_545 S
C279 O264 1.257 . S
C280 O265 1.266 . S
C280 O266 1.267 . S
C281 C284 1.401 . S
C281 C285 1.328 . S
C281 C287 1.516 . S
C282 C283 1.304 . S
C282 C286 1.323 . S
C283 C282 1.304 . S
C283 C284 1.373 . S
C283 H292 0.930 1_455 S
C284 C281 1.401 . S
C284 C283 1.373 . S
C284 H293 0.874 1_455 S
C285 C281 1.328 . S
C285 C286 1.433 . S
C285 H294 0.931 . S
C286 C282 1.323 . S
C286 C285 1.433 . S
C286 H295 0.933 . S
C287 Dy257 2.738 . S
C287 O267 1.255 . S
C287 O268 1.249 . S
C287 C281 1.516 . S
H288 C274 0.930 . S
H289 C275 0.931 . S
H290 C276 0.931 . S
H291 C277 0.933 . S
H292 C283 0.930 1_655 S
H293 C284 0.874 1_655 S
H294 C285 0.931 . S
H295 C286 0.933 . S
Dy296 O299 2.307 . S
Dy296 O301 2.395 1_565 S
Dy296 O302 2.379 . S
Dy296 O304 2.339 . S
Dy296 O306 2.298 . S
Dy296 O310 2.275 1_565 S
Dy296 C318 2.738 . S
Dy297 O300 2.298 . S
Dy297 O303 2.275 1_545 S
Dy297 O305 2.307 . S
Dy297 O307 2.395 1_545 S
Dy297 O308 2.379 . S
Dy297 O311 2.339 . S
Dy297 C327 2.738 . S
C298 O310 1.254 . S
C298 O311 1.257 . S
O299 Dy296 2.307 . S
O299 C309 1.266 . S
O300 Dy297 2.298 . S
O300 C309 1.236 1_545 S
O301 Dy296 2.395 1_545 S
O301 C318 1.255 1_545 S
O302 Dy296 2.379 . S
O302 C318 1.249 . S
O303 Dy297 2.275 1_565 S
O303 C319 1.254 . S
O304 Dy296 2.339 . S
O304 C319 1.257 . S
O305 Dy297 2.307 . S
O305 C320 1.266 . S
O306 Dy296 2.298 . S
O306 C320 1.236 1_565 S
O307 Dy297 2.395 1_565 S
O307 C327 1.255 1_565 S
O308 Dy297 2.379 . S
O308 C327 1.249 . S
C309 O299 1.266 . S
C309 O300 1.236 1_565 S
O310 Dy296 2.275 1_545 S
O310 C298 1.254 . S
O311 Dy297 2.339 . S
O311 C298 1.257 . S
C312 C315 1.344 1_565 S
C312 C316 1.328 . S
C312 C318 1.516 . S
C313 C314 1.301 . S
C313 C317 1.323 . S
C314 C313 1.301 . S
C314 C315 1.371 1_565 S
C314 H328 0.934 1_565 S
C315 C312 1.344 1_545 S
C315 C314 1.371 1_545 S
C315 H329 0.931 . S
C316 C312 1.328 . S
C316 C317 1.433 . S
C316 H330 0.931 . S
C317 C313 1.323 . S
C317 C316 1.433 . S
C317 H331 0.933 . S
C318 Dy296 2.738 . S
C318 O301 1.255 1_565 S
C318 O302 1.249 . S
C318 C312 1.516 . S
C319 O303 1.254 . S
C319 O304 1.257 . S
C320 O305 1.266 . S
C320 O306 1.236 1_545 S
C321 C324 1.301 1_545 S
C321 C325 1.328 . S
C321 C327 1.516 . S
C322 C323 1.312 . S
C322 C326 1.323 . S
C323 C322 1.312 . S
C323 C324 1.364 1_545 S
C323 H332 0.923 1_545 S
C324 C321 1.301 1_565 S
C324 C323 1.364 1_565 S
C324 H333 0.982 . S
C325 C321 1.328 . S
C325 C326 1.433 . S
C325 H334 0.931 . S
C326 C322 1.323 . S
C326 C325 1.433 . S
C326 H335 0.933 . S
C327 Dy297 2.738 . S
C327 O307 1.255 1_545 S
C327 O308 1.249 . S
C327 C321 1.516 . S
H328 C314 0.934 1_545 S
H329 C315 0.931 . S
H330 C316 0.931 . S
H331 C317 0.933 . S
H332 C323 0.923 1_565 S
H333 C324 0.982 . S
H334 C325 0.931 . S
H335 C326 0.933 . S
Dy336 O339 2.307 . S
Dy336 O341 2.395 . S
Dy336 O342 2.379 . S
Dy336 O344 2.339 . S
Dy336 O346 2.298 . S
Dy336 O350 2.275 . S
Dy336 C358 2.738 . S
Dy337 O340 2.298 . S
Dy337 O343 2.275 . S
Dy337 O345 2.307 . S
Dy337 O347 2.395 . S
Dy337 O348 2.379 . S
Dy337 O351 2.339 . S
Dy337 C367 2.738 . S
C338 O350 1.254 . S
C338 O351 1.257 . S
O339 Dy336 2.307 . S
O339 C349 1.266 . S
O340 Dy337 2.298 . S
O340 C349 1.236 . S
O341 Dy336 2.395 . S
O341 C358 1.255 . S
O342 Dy336 2.379 . S
O342 C358 1.249 . S
O343 Dy337 2.275 . S
O343 C359 1.254 . S
O344 Dy336 2.339 . S
O344 C359 1.257 . S
O345 Dy337 2.307 . S
O345 C360 1.266 . S
O346 Dy336 2.298 . S
O346 C360 1.236 . S
O347 Dy337 2.395 . S
O347 C367 1.255 . S
O348 Dy337 2.379 . S
O348 C367 1.249 . S
C349 O339 1.266 . S
C349 O340 1.236 . S
O350 Dy336 2.275 . S
O350 C338 1.254 . S
O351 Dy337 2.339 . S
O351 C338 1.257 . S
C352 C355 1.344 . S
C352 C356 1.328 . S
C352 C358 1.516 . S
C353 C354 1.304 . S
C353 C357 1.323 . S
C354 C353 1.304 . S
C354 C355 1.371 . S
C354 H368 0.930 . S
C355 C352 1.344 . S
C355 C354 1.371 . S
C355 H369 0.931 . S
C356 C352 1.328 . S
C356 C357 1.433 . S
C356 H370 0.931 . S
C357 C353 1.323 . S
C357 C356 1.433 . S
C357 H371 0.933 . S
C358 Dy336 2.738 . S
C358 O341 1.255 . S
C358 O342 1.249 . S
C358 C352 1.516 . S
C359 O343 1.254 . S
C359 O344 1.257 . S
C360 O345 1.266 . S
C360 O346 1.236 . S
C361 C364 1.344 . S
C361 C365 1.328 . S
C361 C367 1.516 . S
C362 C363 1.304 . S
C362 C366 1.323 . S
C363 C362 1.304 . S
C363 C364 1.371 . S
C363 H372 0.930 . S
C364 C361 1.344 . S
C364 C363 1.371 . S
C364 H373 0.931 . S
C365 C361 1.328 . S
C365 C366 1.433 . S
C365 H374 0.931 . S
C366 C362 1.323 . S
C366 C365 1.433 . S
C366 H375 0.933 . S
C367 Dy337 2.738 . S
C367 O347 1.255 . S
C367 O348 1.249 . S
C367 C361 1.516 . S
H368 C354 0.930 . S
H369 C355 0.931 . S
H370 C356 0.931 . S
H371 C357 0.933 . S
H372 C363 0.930 . S
H373 C364 0.931 . S
H374 C365 0.931 . S
H375 C366 0.933 . S
Dy376 O379 2.307 1_455 S
Dy376 O381 2.395 . S
Dy376 O382 2.379 . S
Dy376 O384 2.339 . S
Dy376 O386 2.298 . S
Dy376 O390 2.275 . S
Dy376 C398 2.738 . S
Dy377 O380 2.298 . S
Dy377 O383 2.275 1_655 S
Dy377 O385 2.307 1_655 S
Dy377 O387 2.395 . S
Dy377 O388 2.379 . S
Dy377 O391 2.339 . S
Dy377 C407 2.738 . S
C378 O390 1.254 . S
C378 O391 1.257 1_455 S
O379 Dy376 2.307 1_655 S
O379 C389 1.266 . S
O380 Dy377 2.298 . S
O380 C389 1.236 . S
O381 Dy376 2.395 . S
O381 C398 1.255 . S
O382 Dy376 2.379 . S
O382 C398 1.249 . S
O383 Dy377 2.275 1_455 S
O383 C399 1.254 . S
O384 Dy376 2.339 . S
O384 C399 1.257 . S
O385 Dy377 2.307 1_455 S
O385 C400 1.266 . S
O386 Dy376 2.298 . S
O386 C400 1.236 . S
O387 Dy377 2.395 . S
O387 C407 1.255 . S
O388 Dy377 2.379 . S
O388 C407 1.249 . S
C389 O379 1.266 . S
C389 O380 1.236 . S
O390 Dy376 2.275 . S
O390 C378 1.254 . S
O391 Dy377 2.339 . S
O391 C378 1.257 1_655 S
C392 C395 1.344 . S
C392 C396 1.328 . S
C392 C398 1.516 . S
C393 C394 1.304 . S
C393 C397 1.323 . S
C394 C393 1.304 . S
C394 C395 1.371 . S
C394 H408 0.930 . S
C395 C392 1.344 . S
C395 C394 1.371 . S
C395 H409 0.931 . S
C396 C392 1.328 . S
C396 C397 1.433 . S
C396 H410 0.931 . S
C397 C393 1.323 . S
C397 C396 1.433 . S
C397 H411 0.933 . S
C398 Dy376 2.738 . S
C398 O381 1.255 . S
C398 O382 1.249 . S
C398 C392 1.516 . S
C399 O383 1.254 . S
C399 O384 1.257 . S
C400 O385 1.266 . S
C400 O386 1.236 . S
C401 C404 1.344 . S
C401 C405 1.328 . S
C401 C407 1.516 . S
C402 C403 1.304 . S
C402 C406 1.323 . S
C403 C402 1.304 . S
C403 C404 1.371 . S
C403 H412 0.930 . S
C404 C401 1.344 . S
C404 C403 1.371 . S
C404 H413 0.931 . S
C405 C401 1.328 . S
C405 C406 1.433 . S
C405 H414 0.931 . S
C406 C402 1.323 . S
C406 C405 1.433 . S
C406 H415 0.933 . S
C407 Dy377 2.738 . S
C407 O387 1.255 . S
C407 O388 1.249 . S
C407 C401 1.516 . S
H408 C394 0.930 . S
H409 C395 0.931 . S
H410 C396 0.931 . S
H411 C397 0.933 . S
H412 C403 0.930 . S
H413 C404 0.931 . S
H414 C405 0.931 . S
H415 C406 0.933 . S
C416 C417 1.349 . S
C416 C418 1.327 . S
C416 H441 0.950 . S
C417 C416 1.349 . S
C417 C433 1.349 1_545 S
C418 C416 1.327 . S
C418 C437 1.427 . S
C418 H442 0.950 . S
C419 C436 1.574 . S
C419 C438 1.370 1_565 S
C419 H443 0.949 . S
H420 C424 0.949 . S
C421 C422 1.352 1_565 S
C421 C423 1.327 . S
C421 H444 0.950 . S
C422 C421 1.352 1_545 S
C422 C434 1.345 . S
C423 C421 1.327 . S
C423 C439 1.431 1_565 S
C423 H445 0.950 . S
C424 H420 0.949 . S
C424 C432 1.574 . S
C424 C440 1.366 . S
H425 C433 0.950 . S
H426 C431 0.950 . S
H427 C432 0.949 . S
H428 C434 0.950 . S
H429 C435 0.950 . S
H430 C436 0.949 . S
C431 H426 0.950 . S
C431 C433 1.327 . S
C431 C437 1.430 1_565 S
C432 C424 1.574 . S
C432 H427 0.949 . S
C432 C438 1.367 . S
C433 C417 1.349 1_565 S
C433 H425 0.950 . S
C433 C431 1.327 . S
C434 C422 1.345 . S
C434 H428 0.950 . S
C434 C435 1.327 . S
C435 H429 0.950 . S
C435 C434 1.327 . S
C435 C439 1.426 . S
C436 C419 1.574 . S
C436 H430 0.949 . S
C436 C440 1.371 1_565 S
C437 C418 1.427 . S
C437 C431 1.430 1_545 S
C437 C438 1.523 . S
C438 C419 1.370 1_545 S
C438 C432 1.367 . S
C438 C437 1.523 . S
C439 C423 1.431 1_545 S
C439 C435 1.426 . S
C439 C440 1.523 . S
C440 C424 1.366 . S
C440 C436 1.371 1_545 S
C440 C439 1.523 . S
H441 C416 0.950 . S
H442 C418 0.950 . S
H443 C419 0.949 . S
H444 C421 0.950 . S
H445 C423 0.950 . S
C446 C447 1.349 . S
C446 C448 1.327 . S
C446 H471 0.950 . S
C447 C446 1.349 . S
C447 C463 1.349 . S
C448 C446 1.327 . S
C448 C467 1.429 . S
C448 H472 0.950 . S
C449 C466 1.574 . S
C449 C468 1.368 . S
C449 H473 0.949 . S
H450 C454 0.949 . S
C451 C452 1.349 . S
C451 C453 1.327 . S
C451 H474 0.950 . S
C452 C451 1.349 . S
C452 C464 1.349 . S
C453 C451 1.327 . S
C453 C469 1.429 . S
C453 H475 0.950 . S
C454 H450 0.949 . S
C454 C462 1.574 . S
C454 C470 1.368 . S
H455 C463 0.950 . S
H456 C461 0.950 . S
H457 C462 0.949 . S
H458 C464 0.950 . S
H459 C465 0.950 . S
H460 C466 0.949 . S
C461 H456 0.950 . S
C461 C463 1.327 . S
C461 C467 1.429 . S
C462 C454 1.574 . S
C462 H457 0.949 . S
C462 C468 1.368 . S
C463 C447 1.349 . S
C463 H455 0.950 . S
C463 C461 1.327 . S
C464 C452 1.349 . S
C464 H458 0.950 . S
C464 C465 1.327 . S
C465 H459 0.950 . S
C465 C464 1.327 . S
C465 C469 1.429 . S
C466 C449 1.574 . S
C466 H460 0.949 . S
C466 C470 1.368 . S
C467 C448 1.429 . S
C467 C461 1.429 . S
C467 C468 1.523 . S
C468 C449 1.368 . S
C468 C462 1.368 . S
C468 C467 1.523 . S
C469 C453 1.429 . S
C469 C465 1.429 . S
C469 C470 1.523 . S
C470 C454 1.368 . S
C470 C466 1.368 . S
C470 C469 1.523 . S
H471 C446 0.950 . S
H472 C448 0.950 . S
H473 C449 0.949 . S
H474 C451 0.950 . S
H475 C453 0.950 . S
C476 C477 1.349 . S
C476 C478 1.327 . S
C476 H501 0.950 . S
C477 C476 1.349 . S
C477 C493 1.349 . S
C478 C476 1.327 . S
C478 C497 1.429 . S
C478 H502 0.950 . S
C479 C496 1.574 . S
C479 C498 1.368 . S
C479 H503 0.949 . S
H480 C484 0.949 . S
C481 C482 1.349 . S
C481 C483 1.327 . S
C481 H504 0.950 . S
C482 C481 1.349 . S
C482 C494 1.349 . S
C483 C481 1.327 . S
C483 C499 1.429 . S
C483 H505 0.950 . S
C484 H480 0.949 . S
C484 C492 1.574 . S
C484 C500 1.368 . S
H485 C493 0.950 . S
H486 C491 0.950 . S
H487 C492 0.949 . S
H488 C494 0.950 . S
H489 C495 0.950 . S
H490 C496 0.949 . S
C491 H486 0.950 . S
C491 C493 1.327 . S
C491 C497 1.429 . S
C492 C484 1.574 . S
C492 H487 0.949 . S
C492 C498 1.368 . S
C493 C477 1.349 . S
C493 H485 0.950 . S
C493 C491 1.327 . S
C494 C482 1.349 . S
C494 H488 0.950 . S
C494 C495 1.327 . S
C495 H489 0.950 . S
C495 C494 1.327 . S
C495 C499 1.429 . S
C496 C479 1.574 . S
C496 H490 0.949 . S
C496 C500 1.368 . S
C497 C478 1.429 . S
C497 C491 1.429 . S
C497 C498 1.523 . S
C498 C479 1.368 . S
C498 C492 1.368 . S
C498 C497 1.523 . S
C499 C483 1.429 . S
C499 C495 1.429 . S
C499 C500 1.523 . S
C500 C484 1.368 . S
C500 C496 1.368 . S
C500 C499 1.523 . S
H501 C476 0.950 . S
H502 C478 0.950 . S
H503 C479 0.949 . S
H504 C481 0.950 . S
H505 C483 0.950 . S
C506 C507 1.349 . S
C506 C508 1.327 . S
C506 H531 0.950 . S
C507 C506 1.349 . S
C507 C523 1.349 . S
C508 C506 1.327 . S
C508 C527 1.429 . S
C508 H532 0.950 . S
C509 C526 1.574 . S
C509 C528 1.368 . S
C509 H533 0.949 1_455 S
H510 C514 0.949 . S
C511 C512 1.339 1_655 S
C511 C513 1.336 1_655 S
C511 H534 0.959 . S
C512 C511 1.339 1_455 S
C512 C524 1.349 . S
C513 C511 1.336 1_455 S
C513 C529 1.458 . S
C513 H535 0.916 1_455 S
C514 H510 0.949 . S
C514 C522 1.574 . S
C514 C530 1.368 . S
H515 C523 0.950 . S
H516 C521 0.987 . S
H517 C522 0.949 . S
H518 C524 0.950 . S
H519 C525 0.950 . S
H520 C526 0.949 1_655 S
C521 H516 0.987 . S
C521 C523 1.327 . S
C521 C527 1.429 . S
C522 C514 1.574 . S
C522 H517 0.949 . S
C522 C528 1.368 . S
C523 C507 1.349 . S
C523 H515 0.950 . S
C523 C521 1.327 . S
C524 C512 1.349 . S
C524 H518 0.950 . S
C524 C525 1.327 . S
C525 H519 0.950 . S
C525 C524 1.327 . S
C525 C529 1.429 . S
C526 C509 1.574 . S
C526 H520 0.949 1_455 S
C526 C530 1.368 . S
C527 C508 1.429 . S
C527 C521 1.429 . S
C527 C528 1.523 . S
C528 C509 1.368 . S
C528 C522 1.368 . S
C528 C527 1.523 . S
C529 C513 1.458 . S
C529 C525 1.429 . S
C529 C530 1.523 . S
C530 C514 1.368 . S
C530 C526 1.368 . S
C530 C529 1.523 . S
H531 C506 0.950 . S
H532 C508 0.950 . S
H533 C509 0.949 1_655 S
H534 C511 0.959 . S
H535 C513 0.916 1_655 S
C536 C537 1.349 1_565 S
C536 C538 1.327 . S
C536 H561 0.950 . S
C537 C536 1.349 1_545 S
C537 C553 1.349 . S
C538 C536 1.327 . S
C538 C557 1.428 1_565 S
C538 H562 0.950 . S
C539 C556 1.574 1_554 S
C539 C558 1.370 . S
C539 H563 0.949 . S
H540 C544 0.949 . S
C541 C542 1.352 . S
C541 C543 1.327 . S
C541 H564 0.950 . S
C542 C541 1.352 . S
C542 C554 1.346 1_545 S
C543 C541 1.327 . S
C543 C559 1.431 . S
C543 H565 0.950 . S
C544 H540 0.949 . S
C544 C552 1.574 . S
C544 C560 1.366 1_565 S
H545 C553 0.950 . S
H546 C551 0.950 . S
H547 C552 0.949 . S
H548 C554 0.950 . S
H549 C555 0.950 . S
H550 C556 0.949 . S
C551 H546 0.950 . S
C551 C553 1.327 . S
C551 C557 1.429 . S
C552 C544 1.574 . S
C552 H547 0.949 . S
C552 C558 1.367 1_566 S
C553 C537 1.349 . S
C553 H545 0.950 . S
C553 C551 1.327 . S
C554 C542 1.346 1_565 S
C554 H548 0.950 . S
C554 C555 1.327 . S
C555 H549 0.950 . S
C555 C554 1.327 . S
C555 C559 1.426 1_565 S
C556 C539 1.574 1_556 S
C556 H550 0.949 . S
C556 C560 1.370 . S
C557 C538 1.428 1_545 S
C557 C551 1.429 . S
C557 C558 1.523 . S
C558 C539 1.370 . S
C558 C552 1.367 1_544 S
C558 C557 1.523 . S
C559 C543 1.431 . S
C559 C555 1.426 1_545 S
C559 C560 1.523 . S
C560 C544 1.366 1_545 S
C560 C556 1.370 . S
C560 C559 1.523 . S
H561 C536 0.950 . S
H562 C538 0.950 . S
H563 C539 0.949 . S
H564 C541 0.950 . S
H565 C543 0.950 . S
C566 C567 1.356 . S
C566 C568 1.327 . S
C566 H591 0.950 . S
C567 C566 1.356 . S
C567 C583 1.346 1_556 S
C568 C566 1.327 . S
C568 C587 1.429 . S
C568 H592 0.950 . S
C569 C586 1.574 . S
C569 C588 1.368 . S
C569 H593 0.949 . S
H570 C574 0.949 . S
C571 C572 1.349 . S
C571 C573 1.327 . S
C571 H594 0.950 . S
C572 C571 1.349 . S
C572 C584 1.349 . S
C573 C571 1.327 . S
C573 C589 1.429 . S
C573 H595 0.950 . S
C574 H570 0.949 . S
C574 C582 1.574 . S
C574 C590 1.368 . S
H575 C583 0.950 . S
H576 C581 0.942 1_554 S
H577 C582 0.949 . S
H578 C584 0.950 . S
H579 C585 0.950 . S
H580 C586 0.949 . S
C581 H576 0.942 1_556 S
C581 C583 1.317 1_556 S
C581 C587 1.446 . S
C582 C574 1.574 . S
C582 H577 0.949 . S
C582 C588 1.368 . S
C583 C567 1.346 1_554 S
C583 H575 0.950 . S
C583 C581 1.317 1_554 S
C584 C572 1.349 . S
C584 H578 0.950 . S
C584 C585 1.327 . S
C585 H579 0.950 . S
C585 C584 1.327 . S
C585 C589 1.429 . S
C586 C569 1.574 . S
C586 H580 0.949 . S
C586 C590 1.368 . S
C587 C568 1.429 . S
C587 C581 1.446 . S
C587 C588 1.523 . S
C588 C569 1.368 . S
C588 C582 1.368 . S
C588 C587 1.523 . S
C589 C573 1.429 . S
C589 C585 1.429 . S
C589 C590 1.523 . S
C590 C574 1.368 . S
C590 C586 1.368 . S
C590 C589 1.523 . S
H591 C566 0.950 . S
H592 C568 0.950 . S
H593 C569 0.949 . S
H594 C571 0.950 . S
H595 C573 0.950 . S
C596 C597 1.349 . S
C596 C598 1.327 . S
C596 H621 0.950 . S
C597 C596 1.349 . S
C597 C613 1.349 . S
C598 C596 1.327 . S
C598 C617 1.429 . S
C598 H622 0.950 . S
C599 C616 1.574 . S
C599 C618 1.368 . S
C599 H623 0.949 . S
H600 C604 0.949 . S
C601 C602 1.349 . S
C601 C603 1.327 . S
C601 H624 0.950 . S
C602 C601 1.349 . S
C602 C614 1.349 . S
C603 C601 1.327 . S
C603 C619 1.429 1_556 S
C603 H625 0.950 . S
C604 H600 0.949 . S
C604 C612 1.574 . S
C604 C620 1.368 . S
H605 C613 0.950 . S
H606 C611 0.950 . S
H607 C612 0.949 . S
H608 C614 0.950 . S
H609 C615 0.950 . S
H610 C616 0.949 . S
C611 H606 0.950 . S
C611 C613 1.327 . S
C611 C617 1.429 . S
C612 C604 1.574 . S
C612 H607 0.949 . S
C612 C618 1.368 . S
C613 C597 1.349 . S
C613 H605 0.950 . S
C613 C611 1.327 . S
C614 C602 1.349 . S
C614 H608 0.950 . S
C614 C615 1.327 1_556 S
C615 H609 0.950 . S
C615 C614 1.327 1_554 S
C615 C619 1.429 . S
C616 C599 1.574 . S
C616 H610 0.949 . S
C616 C620 1.368 . S
C617 C598 1.429 . S
C617 C611 1.429 . S
C617 C618 1.523 . S
C618 C599 1.368 . S
C618 C612 1.368 . S
C618 C617 1.523 . S
C619 C603 1.429 1_554 S
C619 C615 1.429 . S
C619 C620 1.523 . S
C620 C604 1.368 . S
C620 C616 1.368 . S
C620 C619 1.523 . S
H621 C596 0.950 . S
H622 C598 0.950 . S
H623 C599 0.949 . S
H624 C601 0.950 . S
H625 C603 0.950 . S
C626 C627 1.349 . S
C626 C628 1.327 . S
C626 H651 0.950 . S
C627 C626 1.349 . S
C627 C643 1.349 1_655 S
C628 C626 1.327 . S
C628 C647 1.429 . S
C628 H652 0.950 . S
C629 C646 1.574 1_554 S
C629 C648 1.368 1_455 S
C629 H653 0.949 . S
H630 C634 0.949 . S
C631 C632 1.393 . S
C631 C633 1.327 . S
C631 H654 0.950 . S
C632 C631 1.393 . S
C632 C644 1.309 1_455 S
C633 C631 1.327 . S
C633 C649 1.429 1_455 S
C633 H655 0.950 . S
C634 H630 0.949 . S
C634 C642 1.574 1_556 S
C634 C650 1.368 . S
H635 C643 0.950 . S
H636 C641 0.950 . S
H637 C642 0.949 . S
H638 C644 0.950 . S
H639 C645 0.950 . S
H640 C646 0.949 . S
C641 H636 0.950 . S
C641 C643 1.327 . S
C641 C647 1.429 1_455 S
C642 C634 1.574 1_554 S
C642 H637 0.949 . S
C642 C648 1.368 . S
C643 C627 1.349 1_455 S
C643 H635 0.950 . S
C643 C641 1.327 . S
C644 C632 1.309 1_655 S
C644 H638 0.950 . S
C644 C645 1.327 . S
C645 H639 0.950 . S
C645 C644 1.327 . S
C645 C649 1.429 . S
C646 C629 1.574 1_556 S
C646 H640 0.949 . S
C646 C650 1.368 1_455 S
C647 C628 1.429 . S
C647 C641 1.429 1_655 S
C647 C648 1.523 . S
C648 C629 1.368 1_655 S
C648 C642 1.368 . S
C648 C647 1.523 . S
C649 C633 1.429 1_655 S
C649 C645 1.429 . S
C649 C650 1.523 . S
C650 C634 1.368 . S
C650 C646 1.368 1_655 S
C650 C649 1.523 . S
H651 C626 0.950 . S
H652 C628 0.950 . S
H653 C629 0.949 . S
H654 C631 0.950 . S
H655 C633 0.950 . S
C656 C657 1.349 . S
C656 C658 1.327 . S
C656 H681 0.950 . S
C657 C656 1.349 . S
C657 C673 1.349 . S
C658 C656 1.327 . S
C658 C677 1.429 . S
C658 H682 0.950 . S
C659 C676 1.574 . S
C659 C678 1.368 1_655 S
C659 H683 0.949 . S
H660 C664 0.949 . S
C661 C662 1.349 . S
C661 C663 1.327 . S
C661 H684 0.950 . S
C662 C661 1.349 . S
C662 C674 1.349 1_655 S
C663 C661 1.327 . S
C663 C679 1.429 . S
C663 H685 0.950 . S
C664 H660 0.949 . S
C664 C672 1.574 . S
C664 C680 1.368 . S
H665 C673 0.975 . S
H666 C671 0.950 1_655 S
H667 C672 0.949 . S
H668 C674 0.950 . S
H669 C675 0.950 . S
H670 C676 0.949 . S
C671 H666 0.950 1_455 S
C671 C673 1.327 . S
C671 C677 1.429 . S
C672 C664 1.574 . S
C672 H667 0.949 . S
C672 C678 1.368 . S
C673 C657 1.349 . S
C673 H665 0.975 . S
C673 C671 1.327 . S
C674 C662 1.349 1_455 S
C674 H668 0.950 . S
C674 C675 1.327 . S
C675 H669 0.950 . S
C675 C674 1.327 . S
C675 C679 1.429 1_455 S
C676 C659 1.574 . S
C676 H670 0.949 . S
C676 C680 1.368 1_655 S
C677 C658 1.429 . S
C677 C671 1.429 . S
C677 C678 1.523 . S
C678 C659 1.368 1_455 S
C678 C672 1.368 . S
C678 C677 1.523 . S
C679 C663 1.429 . S
C679 C675 1.429 1_655 S
C679 C680 1.523 1_655 S
C680 C664 1.368 . S
C680 C676 1.368 1_455 S
C680 C679 1.523 1_455 S
H681 C656 0.950 . S
H682 C658 0.950 . S
H683 C659 0.949 . S
H684 C661 0.950 . S
H685 C663 0.950 . S
C686 C687 1.315 1_565 S
C686 C688 1.327 . S
C686 H711 0.950 . S
C687 C686 1.315 1_545 S
C687 C703 1.381 . S
C688 C686 1.327 . S
C688 C707 1.429 . S
C688 H712 0.950 . S
C689 C706 1.574 . S
C689 C708 1.368 1_545 S
C689 H713 0.949 . S
H690 C694 0.949 . S
C691 C692 1.349 . S
C691 C693 1.327 . S
C691 H714 0.950 1_565 S
C692 C691 1.349 . S
C692 C704 1.349 . S
C693 C691 1.327 . S
C693 C709 1.429 . S
C693 H715 0.950 1_565 S
C694 H690 0.949 . S
C694 C702 1.574 . S
C694 C710 1.368 . S
H695 C703 0.950 . S
H696 C701 0.950 . S
H697 C702 0.949 . S
H698 C704 0.950 . S
H699 C705 0.950 . S
H700 C706 0.949 . S
C701 H696 0.950 . S
C701 C703 1.327 . S
C701 C707 1.429 1_545 S
C702 C694 1.574 . S
C702 H697 0.949 . S
C702 C708 1.368 . S
C703 C687 1.381 . S
C703 H695 0.950 . S
C703 C701 1.327 . S
C704 C692 1.349 . S
C704 H698 0.950 . S
C704 C705 1.327 . S
C705 H699 0.950 . S
C705 C704 1.327 . S
C705 C709 1.429 . S
C706 C689 1.574 . S
C706 H700 0.949 . S
C706 C710 1.368 1_545 S
C707 C688 1.429 . S
C707 C701 1.429 1_565 S
C707 C708 1.523 . S
C708 C689 1.368 1_565 S
C708 C702 1.368 . S
C708 C707 1.523 . S
C709 C693 1.429 . S
C709 C705 1.429 . S
C709 C710 1.523 . S
C710 C694 1.368 . S
C710 C706 1.368 1_565 S
C710 C709 1.523 . S
H711 C686 0.950 . S
H712 C688 0.950 . S
H713 C689 0.949 . S
H714 C691 0.950 1_545 S
H715 C693 0.950 1_545 S
C716 C717 1.349 . S
C716 C718 1.327 . S
C716 H741 0.950 . S
C717 C716 1.349 . S
C717 C733 1.349 . S
C718 C716 1.327 . S
C718 C737 1.429 . S
C718 H742 0.950 . S
C719 C736 1.574 . S
C719 C738 1.368 . S
C719 H743 0.949 . S
H720 C724 0.949 . S
C721 C722 1.349 . S
C721 C723 1.327 . S
C721 H744 0.950 . S
C722 C721 1.349 . S
C722 C734 1.349 . S
C723 C721 1.327 . S
C723 C739 1.429 . S
C723 H745 0.950 . S
C724 H720 0.949 . S
C724 C732 1.574 . S
C724 C740 1.368 . S
H725 C733 0.950 . S
H726 C731 0.950 . S
H727 C732 0.949 . S
H728 C734 0.950 . S
H729 C735 0.950 . S
H730 C736 0.949 . S
C731 H726 0.950 . S
C731 C733 1.327 . S
C731 C737 1.429 . S
C732 C724 1.574 . S
C732 H727 0.949 . S
C732 C738 1.368 . S
C733 C717 1.349 . S
C733 H725 0.950 . S
C733 C731 1.327 . S
C734 C722 1.349 . S
C734 H728 0.950 . S
C734 C735 1.327 . S
C735 H729 0.950 . S
C735 C734 1.327 . S
C735 C739 1.429 . S
C736 C719 1.574 . S
C736 H730 0.949 . S
C736 C740 1.368 . S
C737 C718 1.429 . S
C737 C731 1.429 . S
C737 C738 1.523 . S
C738 C719 1.368 . S
C738 C732 1.368 . S
C738 C737 1.523 . S
C739 C723 1.429 . S
C739 C735 1.429 . S
C739 C740 1.523 . S
C740 C724 1.368 . S
C740 C736 1.368 . S
C740 C739 1.523 . S
H741 C716 0.950 . S
H742 C718 0.950 . S
H743 C719 0.949 . S
H744 C721 0.950 . S
H745 C723 0.950 . S
C746 C747 1.349 . S
C746 C748 1.327 . S
C746 H771 0.950 . S
C747 C746 1.349 . S
C747 C763 1.349 . S
C748 C746 1.327 . S
C748 C767 1.429 . S
C748 H772 0.950 . S
C749 C766 1.574 . S
C749 C768 1.368 . S
C749 H773 0.949 . S
H750 C754 0.949 . S
C751 C752 1.349 . S
C751 C753 1.327 . S
C751 H774 0.950 . S
C752 C751 1.349 . S
C752 C764 1.349 . S
C753 C751 1.327 . S
C753 C769 1.429 . S
C753 H775 0.950 . S
C754 H750 0.949 . S
C754 C762 1.574 . S
C754 C770 1.368 . S
H755 C763 0.950 . S
H756 C761 0.950 . S
H757 C762 0.949 . S
H758 C764 0.950 . S
H759 C765 0.950 . S
H760 C766 0.949 . S
C761 H756 0.950 . S
C761 C763 1.327 . S
C761 C767 1.429 . S
C762 C754 1.574 . S
C762 H757 0.949 . S
C762 C768 1.368 . S
C763 C747 1.349 . S
C763 H755 0.950 . S
C763 C761 1.327 . S
C764 C752 1.349 . S
C764 H758 0.950 . S
C764 C765 1.327 . S
C765 H759 0.950 . S
C765 C764 1.327 . S
C765 C769 1.429 . S
C766 C749 1.574 . S
C766 H760 0.949 . S
C766 C770 1.368 . S
C767 C748 1.429 . S
C767 C761 1.429 . S
C767 C768 1.523 . S
C768 C749 1.368 . S
C768 C762 1.368 . S
C768 C767 1.523 . S
C769 C753 1.429 . S
C769 C765 1.429 . S
C769 C770 1.523 . S
C770 C754 1.368 . S
C770 C766 1.368 . S
C770 C769 1.523 . S
H771 C746 0.950 . S
H772 C748 0.950 . S
H773 C749 0.949 . S
H774 C751 0.950 . S
H775 C753 0.950 . S
C776 C777 1.349 . S
C776 C778 1.327 . S
C776 H801 0.950 . S
C777 C776 1.349 . S
C777 C793 1.349 . S
C778 C776 1.327 . S
C778 C797 1.429 . S
C778 H802 0.950 . S
C779 C796 1.574 1_554 S
C779 C798 1.368 1_455 S
C779 H803 0.949 . S
H780 C784 0.949 . S
C781 C782 1.349 . S
C781 C783 1.327 . S
C781 H804 0.950 . S
C782 C781 1.349 . S
C782 C794 1.349 . S
C783 C781 1.327 . S
C783 C799 1.429 . S
C783 H805 0.950 . S
C784 H780 0.949 . S
C784 C792 1.574 . S
C784 C800 1.368 1_654 S
H785 C793 0.950 . S
H786 C791 0.950 1_455 S
H787 C792 0.949 . S
H788 C794 0.950 . S
H789 C795 0.950 1_554 S
H790 C796 0.949 . S
C791 H786 0.950 1_655 S
C791 C793 1.327 . S
C791 C797 1.429 . S
C792 C784 1.574 . S
C792 H787 0.949 . S
C792 C798 1.368 . S
C793 C777 1.349 . S
C793 H785 0.950 . S
C793 C791 1.327 . S
C794 C782 1.349 . S
C794 H788 0.950 . S
C794 C795 1.327 . S
C795 H789 0.950 1_556 S
C795 C794 1.327 . S
C795 C799 1.429 . S
C796 C779 1.574 1_556 S
C796 H790 0.949 . S
C796 C800 1.368 . S
C797 C778 1.429 . S
C797 C791 1.429 . S
C797 C798 1.523 . S
C798 C779 1.368 1_655 S
C798 C792 1.368 . S
C798 C797 1.523 . S
C799 C783 1.429 . S
C799 C795 1.429 . S
C799 C800 1.523 . S
C800 C784 1.368 1_456 S
C800 C796 1.368 . S
C800 C799 1.523 . S
H801 C776 0.950 . S
H802 C778 0.950 . S
H803 C779 0.949 . S
H804 C781 0.950 . S
H805 C783 0.950 . S
C806 C807 1.379 . S
C806 C808 1.327 . S
C806 H831 0.950 . S
C807 C806 1.379 . S
C807 C823 1.317 1_565 S
C808 C806 1.327 . S
C808 C827 1.429 1_565 S
C808 H832 0.950 . S
C809 C826 1.570 1_554 S
C809 C828 1.370 . S
C809 H833 0.951 . S
H810 C814 0.949 . S
C811 C812 1.349 . S
C811 C813 1.327 . S
C811 H834 0.950 . S
C812 C811 1.349 . S
C812 C824 1.349 . S
C813 C811 1.327 . S
C813 C829 1.429 . S
C813 H835 0.950 . S
C814 H810 0.949 . S
C814 C822 1.574 1_556 S
C814 C830 1.368 1_565 S
H815 C823 0.950 . S
H816 C821 0.950 . S
H817 C822 0.949 . S
H818 C824 0.950 1_565 S
H819 C825 0.950 . S
H820 C826 0.949 . S
C821 H816 0.950 . S
C821 C823 1.327 . S
C821 C827 1.429 . S
C822 C814 1.574 1_554 S
C822 H817 0.949 . S
C822 C828 1.368 1_565 S
C823 C807 1.317 1_545 S
C823 H815 0.950 . S
C823 C821 1.327 . S
C824 C812 1.349 . S
C824 H818 0.950 1_545 S
C824 C825 1.327 1_545 S
C825 H819 0.950 . S
C825 C824 1.327 1_565 S
C825 C829 1.429 1_565 S
C826 C809 1.570 1_556 S
C826 H820 0.949 . S
C826 C830 1.368 . S
C827 C808 1.429 1_545 S
C827 C821 1.429 . S
C827 C828 1.523 . S
C828 C809 1.370 . S
C828 C822 1.368 1_545 S
C828 C827 1.523 . S
C829 C813 1.429 . S
C829 C825 1.429 1_545 S
C829 C830 1.523 . S
C830 C814 1.368 1_545 S
C830 C826 1.368 . S
C830 C829 1.523 . S
H831 C806 0.950 . S
H832 C808 0.950 . S
H833 C809 0.951 . S
H834 C811 0.950 . S
H835 C813 0.950 . S
C836 C837 1.349 . S
C836 C838 1.327 . S
C836 H861 0.950 . S
C837 C836 1.349 . S
C837 C853 1.349 . S
C838 C836 1.327 . S
C838 C857 1.429 . S
C838 H862 0.950 . S
C839 C856 1.574 . S
C839 C858 1.368 . S
C839 H863 0.949 . S
H840 C844 0.949 . S
C841 C842 1.349 . S
C841 C843 1.327 . S
C841 H864 0.950 . S
C842 C841 1.349 . S
C842 C854 1.349 . S
C843 C841 1.327 . S
C843 C859 1.429 . S
C843 H865 0.950 . S
C844 H840 0.949 . S
C844 C852 1.574 . S
C844 C860 1.368 . S
H845 C853 0.950 1_554 S
H846 C851 0.950 . S
H847 C852 0.949 . S
H848 C854 0.950 . S
H849 C855 0.950 . S
H850 C856 0.949 . S
C851 H846 0.950 . S
C851 C853 1.327 . S
C851 C857 1.429 . S
C852 C844 1.574 . S
C852 H847 0.949 . S
C852 C858 1.368 . S
C853 C837 1.349 . S
C853 H845 0.950 1_556 S
C853 C851 1.327 . S
C854 C842 1.349 . S
C854 H848 0.950 . S
C854 C855 1.327 . S
C855 H849 0.950 . S
C855 C854 1.327 . S
C855 C859 1.429 . S
C856 C839 1.574 . S
C856 H850 0.949 . S
C856 C860 1.368 . S
C857 C838 1.429 . S
C857 C851 1.429 . S
C857 C858 1.523 . S
C858 C839 1.368 . S
C858 C852 1.368 . S
C858 C857 1.523 . S
C859 C843 1.429 . S
C859 C855 1.429 . S
C859 C860 1.523 . S
C860 C844 1.368 . S
C860 C856 1.368 . S
C860 C859 1.523 . S
H861 C836 0.950 . S
H862 C838 0.950 . S
H863 C839 0.949 . S
H864 C841 0.950 . S
H865 C843 0.950 . S
C866 C867 1.349 . S
C866 C868 1.327 . S
C866 H891 0.950 . S
C867 C866 1.349 . S
C867 C883 1.349 . S
C868 C866 1.327 . S
C868 C887 1.429 . S
C868 H892 0.950 . S
C869 C886 1.574 . S
C869 C888 1.368 . S
C869 H893 0.949 . S
H870 C874 0.949 . S
C871 C872 1.349 . S
C871 C873 1.327 1_556 S
C871 H894 0.950 . S
C872 C871 1.349 . S
C872 C884 1.349 . S
C873 C871 1.327 1_554 S
C873 C889 1.429 . S
C873 H895 0.950 . S
C874 H870 0.949 . S
C874 C882 1.574 . S
C874 C890 1.368 . S
H875 C883 0.950 . S
H876 C881 0.950 . S
H877 C882 0.949 . S
H878 C884 0.950 . S
H879 C885 0.950 . S
H880 C886 0.949 . S
C881 H876 0.950 . S
C881 C883 1.327 . S
C881 C887 1.429 . S
C882 C874 1.574 . S
C882 H877 0.949 . S
C882 C888 1.368 . S
C883 C867 1.349 . S
C883 H875 0.950 . S
C883 C881 1.327 . S
C884 C872 1.349 . S
C884 H878 0.950 . S
C884 C885 1.327 . S
C885 H879 0.950 . S
C885 C884 1.327 . S
C885 C889 1.429 1_556 S
C886 C869 1.574 . S
C886 H880 0.949 . S
C886 C890 1.368 . S
C887 C868 1.429 . S
C887 C881 1.429 . S
C887 C888 1.523 . S
C888 C869 1.368 . S
C888 C882 1.368 . S
C888 C887 1.523 . S
C889 C873 1.429 . S
C889 C885 1.429 1_554 S
C889 C890 1.523 . S
C890 C874 1.368 . S
C890 C886 1.368 . S
C890 C889 1.523 . S
H891 C866 0.950 . S
H892 C868 0.950 . S
H893 C869 0.949 . S
H894 C871 0.950 . S
H895 C873 0.950 . S
C896 C897 1.349 . S
C896 C898 1.327 . S
C896 H921 0.950 . S
C897 C896 1.349 . S
C897 C913 1.349 . S
C898 C896 1.327 . S
C898 C917 1.429 . S
C898 H922 0.950 . S
C899 C916 1.574 . S
C899 C918 1.368 . S
C899 H923 0.949 . S
H900 C904 0.949 . S
C901 C902 1.349 . S
C901 C903 1.327 . S
C901 H924 0.950 . S
C902 C901 1.349 . S
C902 C914 1.349 . S
C903 C901 1.327 . S
C903 C919 1.429 . S
C903 H925 0.950 . S
C904 H900 0.949 . S
C904 C912 1.574 . S
C904 C920 1.368 . S
H905 C913 0.950 . S
H906 C911 0.950 . S
H907 C912 0.949 . S
H908 C914 0.955 . S
H909 C915 0.950 . S
H910 C916 0.949 . S
C911 H906 0.950 . S
C911 C913 1.327 . S
C911 C917 1.429 . S
C912 C904 1.574 . S
C912 H907 0.949 . S
C912 C918 1.368 . S
C913 C897 1.349 . S
C913 H905 0.950 . S
C913 C911 1.327 . S
C914 C902 1.349 . S
C914 H908 0.955 . S
C914 C915 1.327 . S
C915 H909 0.950 . S
C915 C914 1.327 . S
C915 C919 1.429 . S
C916 C899 1.574 . S
C916 H910 0.949 . S
C916 C920 1.368 . S
C917 C898 1.429 . S
C917 C911 1.429 . S
C917 C918 1.523 . S
C918 C899 1.368 . S
C918 C912 1.368 . S
C918 C917 1.523 . S
C919 C903 1.429 . S
C919 C915 1.429 . S
C919 C920 1.523 . S
C920 C904 1.368 . S
C920 C916 1.368 . S
C920 C919 1.523 . S
H921 C896 0.950 . S
H922 C898 0.950 . S
H923 C899 0.949 . S
H924 C901 0.950 . S
H925 C903 0.950 . S
C926 C927 1.394 . S
C926 C928 1.327 . S
C926 H951 0.950 . S
C927 C926 1.394 . S
C927 C943 1.310 1_545 S
C928 C926 1.327 . S
C928 C947 1.429 . S
C928 H952 0.950 . S
C929 C946 1.574 . S
C929 C948 1.368 1_565 S
C929 H953 0.949 . S
H930 C934 0.949 . S
C931 C932 1.349 1_565 S
C931 C933 1.327 . S
C931 H954 0.950 . S
C932 C931 1.349 1_545 S
C932 C944 1.349 . S
C933 C931 1.327 . S
C933 C949 1.429 1_565 S
C933 H955 0.950 . S
C934 H930 0.949 . S
C934 C942 1.574 . S
C934 C950 1.368 . S
H935 C943 0.950 . S
H936 C941 0.950 . S
H937 C942 0.949 . S
H938 C944 0.950 . S
H939 C945 0.950 . S
H940 C946 0.949 . S
C941 H936 0.950 . S
C941 C943 1.327 . S
C941 C947 1.429 1_565 S
C942 C934 1.574 . S
C942 H937 0.949 . S
C942 C948 1.368 . S
C943 C927 1.310 1_565 S
C943 H935 0.950 . S
C943 C941 1.327 . S
C944 C932 1.349 . S
C944 H938 0.950 . S
C944 C945 1.327 . S
C945 H939 0.950 . S
C945 C944 1.327 . S
C945 C949 1.429 . S
C946 C929 1.574 . S
C946 H940 0.949 . S
C946 C950 1.368 1_565 S
C947 C928 1.429 . S
C947 C941 1.429 1_545 S
C947 C948 1.523 . S
C948 C929 1.368 1_545 S
C948 C942 1.368 . S
C948 C947 1.523 . S
C949 C933 1.429 1_545 S
C949 C945 1.429 . S
C949 C950 1.523 . S
C950 C934 1.368 . S
C950 C946 1.368 1_545 S
C950 C949 1.523 . S
H951 C926 0.950 . S
H952 C928 0.950 . S
H953 C929 0.949 . S
H954 C931 0.950 . S
H955 C933 0.950 . S
C956 C957 1.349 . S
C956 C958 1.327 . S
C956 H981 0.950 . S
C957 C956 1.349 . S
C957 C973 1.349 . S
C958 C956 1.327 . S
C958 C977 1.429 . S
C958 H982 0.950 . S
C959 C976 1.574 1_554 S
C959 C978 1.368 . S
C959 H983 0.949 . S
H960 C964 0.949 . S
C961 C962 1.349 . S
C961 C963 1.327 . S
C961 H984 0.950 . S
C962 C961 1.349 . S
C962 C974 1.349 . S
C963 C961 1.327 . S
C963 C979 1.429 . S
C963 H985 0.950 . S
C964 H960 0.949 . S
C964 C972 1.574 . S
C964 C980 1.368 . S
H965 C973 0.950 . S
H966 C971 0.950 . S
H967 C972 0.949 . S
H968 C974 0.950 . S
H969 C975 0.950 . S
H970 C976 0.949 . S
C971 H966 0.950 . S
C971 C973 1.327 . S
C971 C977 1.429 . S
C972 C964 1.574 . S
C972 H967 0.949 . S
C972 C978 1.369 1_556 S
C973 C957 1.349 . S
C973 H965 0.950 . S
C973 C971 1.327 . S
C974 C962 1.349 . S
C974 H968 0.950 . S
C974 C975 1.327 . S
C975 H969 0.950 . S
C975 C974 1.327 . S
C975 C979 1.429 . S
C976 C959 1.574 1_556 S
C976 H970 0.949 . S
C976 C980 1.368 . S
C977 C958 1.429 . S
C977 C971 1.429 . S
C977 C978 1.523 . S
C978 C959 1.368 . S
C978 C972 1.369 1_554 S
C978 C977 1.523 . S
C979 C963 1.429 . S
C979 C975 1.429 . S
C979 C980 1.523 . S
C980 C964 1.368 . S
C980 C976 1.368 . S
C980 C979 1.523 . S
H981 C956 0.950 . S
H982 C958 0.950 . S
H983 C959 0.949 . S
H984 C961 0.950 . S
H985 C963 0.950 . S
C986 C987 1.349 . S
C986 C988 1.327 . S
C986 H1011 0.950 . S
C987 C986 1.349 . S
C987 C1003 1.349 . S
C988 C986 1.327 . S
C988 C1007 1.429 . S
C988 H1012 0.950 . S
C989 C1006 1.574 . S
C989 C1008 1.368 . S
C989 H1013 0.949 . S
H990 C994 0.949 . S
C991 C992 1.349 . S
C991 C993 1.327 . S
C991 H1014 0.950 . S
C992 C991 1.349 . S
C992 C1004 1.349 . S
C993 C991 1.327 . S
C993 C1009 1.429 . S
C993 H1015 0.950 . S
C994 H990 0.949 . S
C994 C1002 1.574 . S
C994 C1010 1.368 . S
H995 C1003 0.950 . S
H996 C1001 0.950 . S
H997 C1002 0.949 . S
H998 C1004 0.950 . S
H999 C1005 0.950 . S
H1000 C1006 0.949 . S
C1001 H996 0.950 . S
C1001 C1003 1.327 . S
C1001 C1007 1.429 . S
C1002 C994 1.574 . S
C1002 H997 0.949 . S
C1002 C1008 1.368 . S
C1003 C987 1.349 . S
C1003 H995 0.950 . S
C1003 C1001 1.327 . S
C1004 C992 1.349 . S
C1004 H998 0.950 . S
C1004 C1005 1.327 . S
C1005 H999 0.950 . S
C1005 C1004 1.327 . S
C1005 C1009 1.429 . S
C1006 C989 1.574 . S
C1006 H1000 0.949 . S
C1006 C1010 1.368 . S
C1007 C988 1.429 . S
C1007 C1001 1.429 . S
C1007 C1008 1.523 . S
C1008 C989 1.368 . S
C1008 C1002 1.368 . S
C1008 C1007 1.523 . S
C1009 C993 1.429 . S
C1009 C1005 1.429 . S
C1009 C1010 1.523 . S
C1010 C994 1.368 . S
C1010 C1006 1.368 . S
C1010 C1009 1.523 . S
H1011 C986 0.950 . S
H1012 C988 0.950 . S
H1013 C989 0.949 . S
H1014 C991 0.950 . S
H1015 C993 0.950 . S
C1016 C1017 1.349 . S
C1016 C1018 1.327 . S
C1016 H1041 0.950 . S
C1017 C1016 1.349 . S
C1017 C1033 1.349 . S
C1018 C1016 1.327 . S
C1018 C1037 1.429 . S
C1018 H1042 0.950 . S
C1019 C1036 1.574 . S
C1019 C1038 1.368 . S
C1019 H1043 0.949 . S
H1020 C1024 0.949 . S
C1021 C1022 1.349 . S
C1021 C1023 1.327 . S
C1021 H1044 0.950 . S
C1022 C1021 1.349 . S
C1022 C1034 1.349 . S
C1023 C1021 1.327 . S
C1023 C1039 1.429 . S
C1023 H1045 0.950 . S
C1024 H1020 0.949 . S
C1024 C1032 1.574 . S
C1024 C1040 1.368 . S
H1025 C1033 0.950 . S
H1026 C1031 0.950 . S
H1027 C1032 0.949 . S
H1028 C1034 0.950 . S
H1029 C1035 0.950 . S
H1030 C1036 0.949 . S
C1031 H1026 0.950 . S
C1031 C1033 1.327 . S
C1031 C1037 1.429 . S
C1032 C1024 1.574 . S
C1032 H1027 0.949 . S
C1032 C1038 1.368 . S
C1033 C1017 1.349 . S
C1033 H1025 0.950 . S
C1033 C1031 1.327 . S
C1034 C1022 1.349 . S
C1034 H1028 0.950 . S
C1034 C1035 1.327 . S
C1035 H1029 0.950 . S
C1035 C1034 1.327 . S
C1035 C1039 1.429 . S
C1036 C1019 1.574 . S
C1036 H1030 0.949 . S
C1036 C1040 1.368 . S
C1037 C1018 1.429 . S
C1037 C1031 1.429 . S
C1037 C1038 1.523 . S
C1038 C1019 1.368 . S
C1038 C1032 1.368 . S
C1038 C1037 1.523 . S
C1039 C1023 1.429 . S
C1039 C1035 1.429 . S
C1039 C1040 1.523 . S
C1040 C1024 1.368 . S
C1040 C1036 1.368 . S
C1040 C1039 1.523 . S
H1041 C1016 0.950 . S
H1042 C1018 0.950 . S
H1043 C1019 0.949 . S
H1044 C1021 0.950 . S
H1045 C1023 0.950 . S
C1046 C1047 1.381 . S
C1046 C1048 1.327 . S
C1046 H1071 0.950 . S
C1047 C1046 1.381 . S
C1047 C1063 1.321 1_565 S
C1048 C1046 1.327 . S
C1048 C1067 1.429 . S
C1048 H1072 0.950 . S
C1049 C1066 1.574 . S
C1049 C1068 1.368 1_545 S
C1049 H1073 0.949 . S
H1050 C1054 0.949 . S
C1051 C1052 1.349 1_545 S
C1051 C1053 1.327 . S
C1051 H1074 0.950 . S
C1052 C1051 1.349 1_565 S
C1052 C1064 1.349 . S
C1053 C1051 1.327 . S
C1053 C1069 1.429 1_545 S
C1053 H1075 0.950 . S
C1054 H1050 0.949 . S
C1054 C1062 1.574 . S
C1054 C1070 1.368 . S
H1055 C1063 0.950 . S
H1056 C1061 0.950 . S
H1057 C1062 0.949 . S
H1058 C1064 0.950 . S
H1059 C1065 0.950 . S
H1060 C1066 0.949 . S
C1061 H1056 0.950 . S
C1061 C1063 1.327 . S
C1061 C1067 1.429 1_545 S
C1062 C1054 1.574 . S
C1062 H1057 0.949 . S
C1062 C1068 1.368 . S
C1063 C1047 1.321 1_545 S
C1063 H1055 0.950 . S
C1063 C1061 1.327 . S
C1064 C1052 1.349 . S
C1064 H1058 0.950 . S
C1064 C1065 1.327 . S
C1065 H1059 0.950 . S
C1065 C1064 1.327 . S
C1065 C1069 1.429 . S
C1066 C1049 1.574 . S
C1066 H1060 0.949 . S
C1066 C1070 1.368 1_545 S
C1067 C1048 1.429 . S
C1067 C1061 1.429 1_565 S
C1067 C1068 1.523 . S
C1068 C1049 1.368 1_565 S
C1068 C1062 1.368 . S
C1068 C1067 1.523 . S
C1069 C1053 1.429 1_565 S
C1069 C1065 1.429 . S
C1069 C1070 1.523 . S
C1070 C1054 1.368 . S
C1070 C1066 1.368 1_565 S
C1070 C1069 1.523 . S
H1071 C1046 0.950 . S
H1072 C1048 0.950 . S
H1073 C1049 0.949 . S
H1074 C1051 0.950 . S
H1075 C1053 0.950 . S
C1076 C1077 1.349 . S
C1076 C1078 1.327 . S
C1076 H1101 0.950 . S
C1077 C1076 1.349 . S
C1077 C1093 1.349 . S
C1078 C1076 1.327 . S
C1078 C1097 1.429 . S
C1078 H1102 0.950 . S
C1079 C1096 1.574 . S
C1079 C1098 1.368 . S
C1079 H1103 0.949 . S
H1080 C1084 0.949 . S
C1081 C1082 1.349 . S
C1081 C1083 1.327 . S
C1081 H1104 0.950 . S
C1082 C1081 1.349 . S
C1082 C1094 1.349 . S
C1083 C1081 1.327 . S
C1083 C1099 1.429 . S
C1083 H1105 0.950 . S
C1084 H1080 0.949 . S
C1084 C1092 1.574 . S
C1084 C1100 1.368 . S
H1085 C1093 0.950 . S
H1086 C1091 0.950 . S
H1087 C1092 0.949 . S
H1088 C1094 0.950 . S
H1089 C1095 0.950 . S
H1090 C1096 0.949 . S
C1091 H1086 0.950 . S
C1091 C1093 1.327 . S
C1091 C1097 1.429 . S
C1092 C1084 1.574 . S
C1092 H1087 0.949 . S
C1092 C1098 1.368 . S
C1093 C1077 1.349 . S
C1093 H1085 0.950 . S
C1093 C1091 1.327 . S
C1094 C1082 1.349 . S
C1094 H1088 0.950 . S
C1094 C1095 1.327 . S
C1095 H1089 0.950 . S
C1095 C1094 1.327 . S
C1095 C1099 1.429 . S
C1096 C1079 1.574 . S
C1096 H1090 0.949 . S
C1096 C1100 1.368 . S
C1097 C1078 1.429 . S
C1097 C1091 1.429 . S
C1097 C1098 1.523 . S
C1098 C1079 1.368 . S
C1098 C1092 1.368 . S
C1098 C1097 1.523 . S
C1099 C1083 1.429 . S
C1099 C1095 1.429 . S
C1099 C1100 1.523 . S
C1100 C1084 1.368 . S
C1100 C1096 1.368 . S
C1100 C1099 1.523 . S
H1101 C1076 0.950 . S
H1102 C1078 0.950 . S
H1103 C1079 0.949 . S
H1104 C1081 0.950 . S
H1105 C1083 0.950 . S
C1106 C1107 1.349 . S
C1106 C1108 1.327 . S
C1106 H1131 0.950 . S
C1107 C1106 1.349 . S
C1107 C1123 1.349 . S
C1108 C1106 1.327 . S
C1108 C1127 1.429 . S
C1108 H1132 0.950 . S
C1109 C1126 1.574 . S
C1109 C1128 1.368 . S
C1109 H1133 0.949 . S
H1110 C1114 0.949 . S
C1111 C1112 1.349 . S
C1111 C1113 1.327 . S
C1111 H1134 0.950 . S
C1112 C1111 1.349 . S
C1112 C1124 1.349 . S
C1113 C1111 1.327 . S
C1113 C1129 1.429 . S
C1113 H1135 0.950 . S
C1114 H1110 0.949 . S
C1114 C1122 1.574 . S
C1114 C1130 1.368 . S
H1115 C1123 0.950 . S
H1116 C1121 0.950 . S
H1117 C1122 0.949 . S
H1118 C1124 0.950 . S
H1119 C1125 0.950 . S
H1120 C1126 0.949 . S
C1121 H1116 0.950 . S
C1121 C1123 1.327 . S
C1121 C1127 1.429 . S
C1122 C1114 1.574 . S
C1122 H1117 0.949 . S
C1122 C1128 1.368 . S
C1123 C1107 1.349 . S
C1123 H1115 0.950 . S
C1123 C1121 1.327 . S
C1124 C1112 1.349 . S
C1124 H1118 0.950 . S
C1124 C1125 1.327 . S
C1125 H1119 0.950 . S
C1125 C1124 1.327 . S
C1125 C1129 1.429 . S
C1126 C1109 1.574 . S
C1126 H1120 0.949 . S
C1126 C1130 1.368 . S
C1127 C1108 1.429 . S
C1127 C1121 1.429 . S
C1127 C1128 1.523 . S
C1128 C1109 1.368 . S
C1128 C1122 1.368 . S
C1128 C1127 1.523 . S
C1129 C1113 1.429 . S
C1129 C1125 1.429 . S
C1129 C1130 1.523 . S
C1130 C1114 1.368 . S
C1130 C1126 1.368 . S
C1130 C1129 1.523 . S
H1131 C1106 0.950 . S
H1132 C1108 0.950 . S
H1133 C1109 0.949 . S
H1134 C1111 0.950 . S
H1135 C1113 0.950 . S
C417 C215 1.752 . S
C422 C258 1.814 1_545 S
C452 C298 2.041 . S
C447 C247 2.026 . S
C482 C362 2.115 . S
C477 C151 2.080 . S
C512 C378 1.641 . S
C507 C183 1.538 . S
C542 C279 1.814 . S
C537 C87 1.751 . S
C567 C119 1.945 1_556 S
C572 C319 2.046 . S
C597 C23 2.007 . S
C602 C353 2.115 . S
C627 C55 1.512 . S
C632 C399 1.644 . S
C662 C273 0.319 . S
C657 C189 0.143 . S
C692 C313 0.409 . S
C687 C221 0.435 . S
C722 C349 0.455 . S
C717 C253 0.205 . S
C747 C157 0.332 . S
C752 C393 0.486 . S
C777 C61 0.470 . S
C782 C282 0.320 . S
C812 C322 0.409 . S
C807 C93 0.435 1_565 S
C842 C360 0.455 . S
C837 C125 0.667 . S
C867 C29 0.558 . S
C872 C402 0.486 . S
C897 C177 2.190 . S
C902 C280 2.375 . S
C927 C209 1.989 1_556 S
C932 C320 2.159 . S
C962 C338 1.648 . S
C957 C241 1.654 . S
C992 C400 2.691 . S
C987 C145 2.477 . S
C1017 C49 2.174 . S
C1022 C269 2.388 . S
C1052 C309 2.158 . S
C1047 C81 1.988 1_565 S
C1082 C359 1.648 . S
C1077 C113 1.585 . S
C1107 C17 2.428 . S
C1112 C389 2.691 . S
