# Generated by pormake.
# Topology eea, (3,6)-cn, num edge types: 1
# Building blocks:
#     Node 0, Type 0, BuildingBlock: BETDAH_clean_linker_0, # of connection points: 3
#     Node 1, Type 0, BuildingBlock: BETDAH_clean_linker_0, # of connection points: 3
#     Node 2, Type 0, BuildingBlock: BETDAH_clean_linker_0, # of connection points: 3
#     Node 3, Type 0, BuildingBlock: BETDAH_clean_linker_0, # of connection points: 3
#     Node 4, Type 0, BuildingBlock: BETDAH_clean_linker_0, # of connection points: 3
#     Node 5, Type 0, BuildingBlock: BETDAH_clean_linker_0, # of connection points: 3
#     Node 6, Type 0, BuildingBlock: BETDAH_clean_linker_0, # of connection points: 3
#     Node 7, Type 0, BuildingBlock: BETDAH_clean_linker_0, # of connection points: 3
#     Node 8, Type 0, BuildingBlock: BETDAH_clean_linker_0, # of connection points: 3
#     Node 9, Type 0, BuildingBlock: BETDAH_clean_linker_0, # of connection points: 3
#     Node 10, Type 0, BuildingBlock: BETDAH_clean_linker_0, # of connection points: 3
#     Node 11, Type 0, BuildingBlock: BETDAH_clean_linker_0, # of connection points: 3
#     Node 12, Type 0, BuildingBlock: BETDAH_clean_linker_0, # of connection points: 3
#     Node 13, Type 0, BuildingBlock: BETDAH_clean_linker_0, # of connection points: 3
#     Node 14, Type 0, BuildingBlock: BETDAH_clean_linker_0, # of connection points: 3
#     Node 15, Type 0, BuildingBlock: BETDAH_clean_linker_0, # of connection points: 3
#     Node 16, Type 0, BuildingBlock: BETDAH_clean_linker_0, # of connection points: 3
#     Node 17, Type 0, BuildingBlock: BETDAH_clean_linker_0, # of connection points: 3
#     Node 18, Type 1, BuildingBlock: CUWYAW_clean_sbu_0, # of connection points: 6
#     Node 19, Type 1, BuildingBlock: CUWYAW_clean_sbu_0, # of connection points: 6
#     Node 20, Type 1, BuildingBlock: CUWYAW_clean_sbu_0, # of connection points: 6
#     Node 21, Type 1, BuildingBlock: CUWYAW_clean_sbu_0, # of connection points: 6
#     Node 22, Type 1, BuildingBlock: CUWYAW_clean_sbu_0, # of connection points: 6
#     Node 23, Type 1, BuildingBlock: CUWYAW_clean_sbu_0, # of connection points: 6
#     Node 24, Type 1, BuildingBlock: CUWYAW_clean_sbu_0, # of connection points: 6
#     Node 25, Type 1, BuildingBlock: CUWYAW_clean_sbu_0, # of connection points: 6
#     Node 26, Type 1, BuildingBlock: CUWYAW_clean_sbu_0, # of connection points: 6
#     Edge 27, Type (0, 1), BuildingBlock: XUDNAN_clean_linker_2, # of connection points: 2
#     Edge 28, Type (0, 1), BuildingBlock: XUDNAN_clean_linker_2, # of connection points: 2
#     Edge 29, Type (0, 1), BuildingBlock: XUDNAN_clean_linker_2, # of connection points: 2
#     Edge 30, Type (0, 1), BuildingBlock: XUDNAN_clean_linker_2, # of connection points: 2
#     Edge 31, Type (0, 1), BuildingBlock: XUDNAN_clean_linker_2, # of connection points: 2
#     Edge 32, Type (0, 1), BuildingBlock: XUDNAN_clean_linker_2, # of connection points: 2
#     Edge 33, Type (0, 1), BuildingBlock: XUDNAN_clean_linker_2, # of connection points: 2
#     Edge 34, Type (0, 1), BuildingBlock: XUDNAN_clean_linker_2, # of connection points: 2
#     Edge 35, Type (0, 1), BuildingBlock: XUDNAN_clean_linker_2, # of connection points: 2
#     Edge 36, Type (0, 1), BuildingBlock: XUDNAN_clean_linker_2, # of connection points: 2
#     Edge 37, Type (0, 1), BuildingBlock: XUDNAN_clean_linker_2, # of connection points: 2
#     Edge 38, Type (0, 1), BuildingBlock: XUDNAN_clean_linker_2, # of connection points: 2
#     Edge 39, Type (0, 1), BuildingBlock: XUDNAN_clean_linker_2, # of connection points: 2
#     Edge 40, Type (0, 1), BuildingBlock: XUDNAN_clean_linker_2, # of connection points: 2
#     Edge 41, Type (0, 1), BuildingBlock: XUDNAN_clean_linker_2, # of connection points: 2
#     Edge 42, Type (0, 1), BuildingBlock: XUDNAN_clean_linker_2, # of connection points: 2
#     Edge 43, Type (0, 1), BuildingBlock: XUDNAN_clean_linker_2, # of connection points: 2
#     Edge 44, Type (0, 1), BuildingBlock: XUDNAN_clean_linker_2, # of connection points: 2
#     Edge 45, Type (0, 1), BuildingBlock: XUDNAN_clean_linker_2, # of connection points: 2
#     Edge 46, Type (0, 1), BuildingBlock: XUDNAN_clean_linker_2, # of connection points: 2
#     Edge 47, Type (0, 1), BuildingBlock: XUDNAN_clean_linker_2, # of connection points: 2
#     Edge 48, Type (0, 1), BuildingBlock: XUDNAN_clean_linker_2, # of connection points: 2
#     Edge 49, Type (0, 1), BuildingBlock: XUDNAN_clean_linker_2, # of connection points: 2
#     Edge 50, Type (0, 1), BuildingBlock: XUDNAN_clean_linker_2, # of connection points: 2
#     Edge 51, Type (0, 1), BuildingBlock: XUDNAN_clean_linker_2, # of connection points: 2
#     Edge 52, Type (0, 1), BuildingBlock: XUDNAN_clean_linker_2, # of connection points: 2
#     Edge 53, Type (0, 1), BuildingBlock: XUDNAN_clean_linker_2, # of connection points: 2
#     Edge 54, Type (0, 1), BuildingBlock: XUDNAN_clean_linker_2, # of connection points: 2
#     Edge 55, Type (0, 1), BuildingBlock: XUDNAN_clean_linker_2, # of connection points: 2
#     Edge 56, Type (0, 1), BuildingBlock: XUDNAN_clean_linker_2, # of connection points: 2
#     Edge 57, Type (0, 1), BuildingBlock: XUDNAN_clean_linker_2, # of connection points: 2
#     Edge 58, Type (0, 1), BuildingBlock: XUDNAN_clean_linker_2, # of connection points: 2
#     Edge 59, Type (0, 1), BuildingBlock: XUDNAN_clean_linker_2, # of connection points: 2
#     Edge 60, Type (0, 1), BuildingBlock: XUDNAN_clean_linker_2, # of connection points: 2
#     Edge 61, Type (0, 1), BuildingBlock: XUDNAN_clean_linker_2, # of connection points: 2
#     Edge 62, Type (0, 1), BuildingBlock: XUDNAN_clean_linker_2, # of connection points: 2
#     Edge 63, Type (0, 1), BuildingBlock: XUDNAN_clean_linker_2, # of connection points: 2
#     Edge 64, Type (0, 1), BuildingBlock: XUDNAN_clean_linker_2, # of connection points: 2
#     Edge 65, Type (0, 1), BuildingBlock: XUDNAN_clean_linker_2, # of connection points: 2
#     Edge 66, Type (0, 1), BuildingBlock: XUDNAN_clean_linker_2, # of connection points: 2
#     Edge 67, Type (0, 1), BuildingBlock: XUDNAN_clean_linker_2, # of connection points: 2
#     Edge 68, Type (0, 1), BuildingBlock: XUDNAN_clean_linker_2, # of connection points: 2
#     Edge 69, Type (0, 1), BuildingBlock: XUDNAN_clean_linker_2, # of connection points: 2
#     Edge 70, Type (0, 1), BuildingBlock: XUDNAN_clean_linker_2, # of connection points: 2
#     Edge 71, Type (0, 1), BuildingBlock: XUDNAN_clean_linker_2, # of connection points: 2
#     Edge 72, Type (0, 1), BuildingBlock: XUDNAN_clean_linker_2, # of connection points: 2
#     Edge 73, Type (0, 1), BuildingBlock: XUDNAN_clean_linker_2, # of connection points: 2
#     Edge 74, Type (0, 1), BuildingBlock: XUDNAN_clean_linker_2, # of connection points: 2
#     Edge 75, Type (0, 1), BuildingBlock: XUDNAN_clean_linker_2, # of connection points: 2
#     Edge 76, Type (0, 1), BuildingBlock: XUDNAN_clean_linker_2, # of connection points: 2
#     Edge 77, Type (0, 1), BuildingBlock: XUDNAN_clean_linker_2, # of connection points: 2
#     Edge 78, Type (0, 1), BuildingBlock: XUDNAN_clean_linker_2, # of connection points: 2
#     Edge 79, Type (0, 1), BuildingBlock: XUDNAN_clean_linker_2, # of connection points: 2
#     Edge 80, Type (0, 1), BuildingBlock: XUDNAN_clean_linker_2, # of connection points: 2
# Relax obj value: 0.056
# Max RMSD: 0.205
# Mean RMSD: 0.144
data_MOF--net-eea--node1-CUWYAW_clean_sbu_0--node2-BETDAH_clean_linker_0--edge1-XUDNAN_clean_linker_2
_symmetry_space_group_name_H-M    P1
_symmetry_Int_Tables_number       1
_symmetry_cell_setting            triclinic
loop_
_symmetry_equiv_pos_as_xyz
'x, y, z'
_cell_length_a     54.514282
_cell_length_b     54.306516
_cell_length_c     69.597276
_cell_angle_alpha  93.312777
_cell_angle_beta   93.273691
_cell_angle_gamma 119.90367
loop_
_atom_site_label
_atom_site_type_symbol
_atom_site_fract_x
_atom_site_fract_y
_atom_site_fract_z
_atom_type_partial_charge
H0 H 0.21942 0.06506 0.43143 0.0
H1 H 0.2381 0.15229 0.43217 0.0
H2 H 0.24398 0.10918 0.38047 0.0
C3 C 0.22457 0.08383 0.42401 0.0
C4 C 0.23024 0.08392 0.40462 0.0
C5 C 0.22792 0.10861 0.43427 0.0
C6 C 0.23532 0.13302 0.42446 0.0
C7 C 0.24075 0.13307 0.40497 0.0
C8 C 0.23884 0.10876 0.39532 0.0
N9 N 0.25042 0.158 0.39521 0.0
C10 C 0.237 0.17404 0.39505 0.0
H11 H 0.94575 0.18247 0.44055 0.0
H12 H 0.86016 0.11613 0.42132 0.0
H13 H 0.91956 0.15674 0.37969 0.0
C14 C 0.92971 0.16898 0.42886 0.0
C15 C 0.93649 0.17202 0.40957 0.0
C16 C 0.90228 0.14898 0.43329 0.0
C17 C 0.88129 0.13177 0.41812 0.0
C18 C 0.88763 0.13484 0.39878 0.0
C19 C 0.91494 0.15515 0.39465 0.0
N20 N 0.86698 0.11799 0.3831 0.0
C21 C 0.84725 0.08917 0.38333 0.0
H22 H 0.8462 0.77863 0.4397 0.0
H23 H 0.92646 0.7887 0.46124 0.0
H24 H 0.91936 0.82206 0.40797 0.0
C25 C 0.8685 0.78637 0.43823 0.0
C26 C 0.8807 0.80109 0.42223 0.0
C27 C 0.88459 0.78145 0.45232 0.0
C28 C 0.91359 0.79214 0.45048 0.0
C29 C 0.92619 0.8064 0.4345 0.0
C30 C 0.90962 0.81058 0.42016 0.0
N31 N 0.95585 0.81724 0.43406 0.0
C32 C 0.97038 0.82214 0.41761 0.0
H33 H 0.07312 0.25123 0.5739 0.0
H34 H 0.13662 0.22621 0.57721 0.0
H35 H 0.0726 0.19688 0.61682 0.0
C36 C 0.08242 0.24013 0.58096 0.0
C37 C 0.06988 0.22457 0.59664 0.0
C38 C 0.1066 0.24113 0.57389 0.0
C39 C 0.11811 0.22578 0.58249 0.0
C40 C 0.10544 0.20956 0.59782 0.0
C41 C 0.08149 0.20897 0.60469 0.0
N42 N 0.11537 0.19247 0.60612 0.0
C43 C 0.14389 0.20118 0.61075 0.0
H44 H 0.79192 0.83703 0.5906 0.0
H45 H 0.75728 0.89325 0.59055 0.0
H46 H 0.78184 0.87337 0.64417 0.0
C47 C 0.78552 0.85043 0.59836 0.0
C48 C 0.78907 0.85382 0.61872 0.0
C49 C 0.77375 0.86426 0.58792 0.0
C50 C 0.76691 0.88284 0.59815 0.0
C51 C 0.7703 0.88631 0.6184 0.0
C52 C 0.78064 0.87135 0.62852 0.0
N53 N 0.76069 0.90244 0.6289 0.0
C54 C 0.77132 0.93138 0.62754 0.0
H55 H 0.17004 0.96079 0.5886 0.0
H56 H 0.11293 0.87032 0.57739 0.0
H57 H 0.12913 0.91054 0.63512 0.0
C58 C 0.1558 0.94051 0.5938 0.0
C59 C 0.15182 0.93911 0.61367 0.0
C60 C 0.14196 0.91588 0.58055 0.0
C61 C 0.12363 0.88956 0.58734 0.0
C62 C 0.1182 0.88775 0.6068 0.0
C63 C 0.13232 0.91248 0.61995 0.0
N64 N 0.10046 0.86029 0.61292 0.0
C65 C 0.07917 0.85374 0.62523 0.0
H66 H 0.88436 0.39745 0.7793 0.0
H67 H 0.88788 0.47638 0.76825 0.0
H68 H 0.88114 0.418 0.72085 0.0
C69 C 0.8844 0.41191 0.76915 0.0
C70 C 0.88246 0.40461 0.74926 0.0
C71 C 0.88613 0.43761 0.77608 0.0
C72 C 0.88634 0.45648 0.76291 0.0
C73 C 0.88447 0.44929 0.74286 0.0
C74 C 0.88238 0.42336 0.73626 0.0
N75 N 0.88502 0.46738 0.7287 0.0
C76 C 0.88401 0.4924 0.7318 0.0
H77 H 0.61948 0.52181 0.76739 0.0
H78 H 0.54655 0.43648 0.7629 0.0
H79 H 0.59764 0.46539 0.71549 0.0
C80 C 0.60598 0.5011 0.75936 0.0
C81 C 0.61157 0.49634 0.74046 0.0
C82 C 0.58241 0.47977 0.76766 0.0
C83 C 0.56503 0.45285 0.75697 0.0
C84 C 0.57063 0.44783 0.73807 0.0
C85 C 0.59371 0.46955 0.73009 0.0
N86 N 0.55283 0.42217 0.72588 0.0
C87 C 0.53225 0.39594 0.7312 0.0
H88 H 0.50533 0.09811 0.77675 0.0
H89 H 0.58657 0.10515 0.76829 0.0
H90 H 0.53615 0.11041 0.72075 0.0
C91 C 0.52176 0.10107 0.76752 0.0
C92 C 0.51781 0.10416 0.74791 0.0
C93 C 0.54632 0.10096 0.77513 0.0
C94 C 0.5677 0.10538 0.7628 0.0
C95 C 0.56394 0.10891 0.74313 0.0
C96 C 0.53899 0.108 0.73594 0.0
N97 N 0.5838 0.11241 0.72961 0.0
C98 C 0.61107 0.1166 0.73324 0.0
H99 H 0.7247 0.58876 0.91973 0.0
H100 H 0.79141 0.57377 0.90363 0.0
H101 H 0.75224 0.54289 0.95547 0.0
C102 C 0.73838 0.57994 0.92261 0.0
C103 C 0.73582 0.56532 0.93914 0.0
C104 C 0.75891 0.58377 0.91 0.0
C105 C 0.77626 0.57202 0.91368 0.0
C106 C 0.77423 0.5576 0.93 0.0
C107 C 0.7543 0.55462 0.94301 0.0
N108 N 0.79117 0.54463 0.93174 0.0
C109 C 0.80145 0.53947 0.94883 0.0
H110 H 0.44765 0.17037 0.92451 0.0
H111 H 0.47076 0.25767 0.9401 0.0
H112 H 0.49896 0.21539 0.97796 0.0
C113 C 0.45862 0.18955 0.93449 0.0
C114 C 0.47372 0.18971 0.95166 0.0
C115 C 0.45715 0.21388 0.93026 0.0
C116 C 0.47134 0.2387 0.94336 0.0
C117 C 0.48668 0.2392 0.96044 0.0
C118 C 0.48776 0.21483 0.96442 0.0
N119 N 0.5012 0.26371 0.97408 0.0
C120 C 0.49788 0.28746 0.974 0.0
H121 H 0.83964 0.28951 0.92305 0.0
H122 H 0.77268 0.20529 0.90156 0.0
H123 H 0.77618 0.23758 0.96004 0.0
C124 C 0.82088 0.26971 0.92545 0.0
C125 C 0.80995 0.26639 0.94361 0.0
C126 C 0.80777 0.24776 0.91025 0.0
C127 C 0.78324 0.2223 0.91325 0.0
C128 C 0.77148 0.21858 0.93094 0.0
C129 C 0.78491 0.24062 0.94621 0.0
N130 N 0.74625 0.19219 0.93248 0.0
C131 C 0.7295 0.18463 0.94788 0.0
H132 H 0.58163 0.73968 0.09066 0.0
H133 H 0.6032 0.82633 0.08284 0.0
H134 H 0.5582 0.76029 0.03637 0.0
C135 C 0.58119 0.75523 0.08178 0.0
C136 C 0.56748 0.74629 0.06287 0.0
C137 C 0.59446 0.7842 0.08914 0.0
C138 C 0.59337 0.80403 0.07741 0.0
C139 C 0.58042 0.79533 0.05839 0.0
C140 C 0.56791 0.7667 0.05118 0.0
N141 N 0.58102 0.8152 0.04583 0.0
C142 C 0.57377 0.83568 0.051 0.0
H143 H 0.29076 0.83295 0.10188 0.0
H144 H 0.20507 0.76154 0.09324 0.0
H145 H 0.2502 0.79551 0.04422 0.0
C146 C 0.27262 0.81752 0.09211 0.0
C147 C 0.27456 0.81627 0.07193 0.0
C148 C 0.24744 0.79791 0.09983 0.0
C149 C 0.2243 0.77675 0.08734 0.0
C150 C 0.22555 0.77593 0.06729 0.0
C151 C 0.25018 0.7961 0.0598 0.0
N152 N 0.20247 0.75552 0.05402 0.0
C153 C 0.17985 0.72982 0.05845 0.0
H154 H 0.16395 0.43157 0.10644 0.0
H155 H 0.24902 0.44499 0.10548 0.0
H156 H 0.21975 0.48563 0.06686 0.0
C157 C 0.18421 0.44084 0.10039 0.0
C158 C 0.18905 0.45879 0.08558 0.0
C159 C 0.20579 0.43588 0.10799 0.0
C160 C 0.23191 0.4479 0.09963 0.0
C161 C 0.23677 0.46571 0.08469 0.0
C162 C 0.21551 0.4713 0.07804 0.0
N163 N 0.26376 0.48112 0.07754 0.0
C164 C 0.28145 0.47036 0.07319 0.0
H165 H 0.40659 0.90036 0.2484 0.0
H166 H 0.49327 0.9221 0.26348 0.0
H167 H 0.4368 0.90652 0.30786 0.0
C168 C 0.42358 0.90421 0.2592 0.0
C169 C 0.41828 0.90214 0.27873 0.0
C170 C 0.45056 0.91163 0.2535 0.0
C171 C 0.47247 0.91669 0.26769 0.0
C172 C 0.46745 0.91483 0.28735 0.0
C173 C 0.4406 0.90824 0.29275 0.0
N174 N 0.48884 0.91944 0.30209 0.0
C175 C 0.51035 0.91322 0.29944 0.0
H176 H 0.12434 0.51016 0.26312 0.0
H177 H 0.13823 0.59466 0.27738 0.0
H178 H 0.15395 0.55045 0.32133 0.0
C179 C 0.13045 0.52822 0.27367 0.0
C180 C 0.13911 0.5273 0.2929 0.0
C181 C 0.13049 0.55264 0.26786 0.0
C182 C 0.13871 0.57604 0.28167 0.0
C183 C 0.14711 0.57522 0.30099 0.0
C184 C 0.14759 0.55101 0.30639 0.0
N185 N 0.15495 0.59813 0.31544 0.0
C186 C 0.15351 0.62252 0.31254 0.0
H187 H 0.49563 0.61833 0.25491 0.0
H188 H 0.43307 0.52922 0.25451 0.0
H189 H 0.47931 0.57784 0.30791 0.0
C190 C 0.48407 0.5998 0.26269 0.0
C191 C 0.48963 0.60204 0.28292 0.0
C192 C 0.46418 0.5735 0.25226 0.0
C193 C 0.44849 0.54952 0.26235 0.0
C194 C 0.45368 0.55148 0.28253 0.0
C195 C 0.47471 0.57731 0.2925 0.0
N196 N 0.43971 0.52742 0.29313 0.0
C197 C 0.41081 0.50736 0.29022 0.0
C198 C 0.52848 0.02157 0.0745 0.0
Eu199 Eu 0.51624 0.01703 0.03721 0.0
C200 C 0.51735 0.00525 0.09127 0.0
C201 C 0.52005 0.01997 0.10921 0.0
C202 C 0.51039 0.00519 0.12548 0.0
C203 C 0.49788 0.97528 0.12421 0.0
C204 C 0.49503 0.96056 0.1061 0.0
C205 C 0.50459 0.97538 0.08979 0.0
C206 C 0.49933 0.04801 0.01704 0.0
C207 C 0.45166 0.96346 0.02368 0.0
C208 C 0.48546 0.99216 0.95652 0.0
Eu209 Eu 0.49697 0.99657 0.99394 0.0
C210 C 0.49717 0.00751 0.93946 0.0
C211 C 0.48843 0.99215 0.92112 0.0
C212 C 0.49872 0.00592 0.90457 0.0
C213 C 0.51806 0.03549 0.90593 0.0
C214 C 0.52713 0.05085 0.92444 0.0
C215 C 0.51672 0.03698 0.94105 0.0
C216 C 0.51228 0.96446 0.01392 0.0
C217 C 0.56159 0.05004 0.00777 0.0
O218 O 0.53882 0.01139 0.0618 0.0
O219 O 0.51352 0.03174 0.06649 0.0
O220 O 0.52015 0.05934 0.03074 0.0
O221 O 0.48774 0.02126 0.01541 0.0
O222 O 0.47277 0.97705 0.03765 0.0
O223 O 0.45475 0.96949 0.00549 0.0
O224 O 0.47603 1.00367 0.96899 0.0
O225 O 0.49935 0.98111 0.96485 0.0
O226 O 0.4917 0.95393 1.00011 0.0
O227 O 0.52491 0.99136 0.01583 0.0
O228 O 0.54023 0.03686 0.99394 0.0
O229 O 0.55857 0.04358 0.02583 0.0
H230 H 0.52972 0.043 0.11064 0.0
H231 H 0.51245 0.01724 0.13903 0.0
H232 H 0.48578 0.9376 0.10456 0.0
H233 H 0.50221 0.96352 0.07607 0.0
H234 H 0.47351 0.96937 0.91958 0.0
H235 H 0.49166 0.99325 0.89068 0.0
H236 H 0.54185 0.07365 0.92607 0.0
H237 H 0.52377 0.04927 0.95509 0.0
C238 C 0.9796 0.505 0.0862 0.0
Eu239 Eu 0.97617 0.4921 0.04909 0.0
C240 C 0.99981 0.5132 0.1035 0.0
C241 C 0.9893 0.5072 0.12157 0.0
C242 C 0.00788 0.51443 0.13829 0.0
C243 C 0.03741 0.52785 0.13724 0.0
C244 C 0.04792 0.5338 0.11904 0.0
C245 C 0.02925 0.52644 0.10227 0.0
C246 C 0.93672 0.44075 0.03061 0.0
C247 C 0.02521 0.47719 0.03944 0.0
C248 C 0.98094 0.46662 0.97063 0.0
Eu249 Eu 0.98538 0.48257 0.00748 0.0
C250 C 0.96669 0.46602 0.9518 0.0
C251 C 0.97919 0.4651 0.93494 0.0
C252 C 0.96607 0.46389 0.91678 0.0
C253 C 0.9401 0.46365 0.91505 0.0
C254 C 0.92773 0.46489 0.93208 0.0
C255 C 0.94091 0.46603 0.95029 0.0
C256 C 0.02348 0.53497 0.02554 0.0
C257 C 0.93977 0.5034 0.01751 0.0
O258 O 0.98607 0.52365 0.07349 0.0
O259 O 0.96903 0.4789 0.0782 0.0
O260 O 0.9312 0.45564 0.04297 0.0
O261 O 0.96318 0.45283 0.02911 0.0
O262 O 0.01747 0.49151 0.05115 0.0
O263 O 0.01221 0.4665 0.02188 0.0
O264 O 0.96507 0.44984 0.983 0.0
O265 O 1.00038 0.49165 0.97887 0.0
O266 O 0.02994 0.52093 0.01308 0.0
O267 O 0.99712 0.52155 0.02709 0.0
O268 O 0.94849 0.49122 0.00463 0.0
O269 O 0.95007 0.5093 0.03586 0.0
H270 H 0.96663 0.49695 0.12277 0.0
H271 H 0.99911 0.50991 0.15208 0.0
H272 H 0.07053 0.54387 0.11774 0.0
H273 H 0.03775 0.53102 0.08839 0.0
H274 H 0.99905 0.46498 0.9358 0.0
H275 H 0.976 0.46241 0.90406 0.0
H276 H 0.9079 0.46502 0.93135 0.0
H277 H 0.93091 0.46672 0.96314 0.0
C278 C 0.48276 0.4812 0.95121 0.0
Eu279 Eu 0.49497 0.50226 0.98748 0.0
C280 C 0.49624 0.48548 0.93276 0.0
C281 C 0.48783 0.49699 0.91793 0.0
C282 C 0.49931 0.50024 0.90016 0.0
C283 C 0.51936 0.49183 0.89663 0.0
C284 C 0.5277 0.4801 0.9114 0.0
C285 C 0.51633 0.47702 0.9293 0.0
C286 C 0.50548 0.55427 1.00179 0.0
C287 C 0.56395 0.53086 0.99969 0.0
C288 C 0.53245 0.53957 0.06652 0.0
Eu289 Eu 0.51909 0.51933 0.03017 0.0
C290 C 0.51909 0.54241 0.0837 0.0
C291 C 0.52984 0.54025 0.10189 0.0
C292 C 0.5182 0.54342 0.11858 0.0
C293 C 0.49549 0.54883 0.11744 0.0
C294 C 0.48455 0.55076 0.0991 0.0
C295 C 0.4962 0.54749 0.08236 0.0
C296 C 0.50778 0.46714 0.01527 0.0
C297 C 0.45075 0.4907 0.01855 0.0
O298 O 0.49131 0.47074 0.96484 0.0
O299 O 0.47786 0.50113 0.95808 0.0
O300 O 0.48462 0.53763 0.98887 0.0
O301 O 0.52112 0.54379 0.00548 0.0
O302 O 0.54189 0.51641 0.98648 0.0
O303 O 0.56097 0.5377 0.01758 0.0
O304 O 0.53363 0.55494 0.0524 0.0
O305 O 0.52626 0.51372 0.06037 0.0
O306 O 0.52953 0.48376 0.02761 0.0
O307 O 0.49252 0.47811 0.01221 0.0
O308 O 0.47314 0.50853 0.03072 0.0
O309 O 0.45368 0.4811 1.00139 0.0
H310 H 0.47211 0.5033 0.92002 0.0
H311 H 0.49211 0.50898 0.88902 0.0
H312 H 0.54326 0.47362 0.9092 0.0
H313 H 0.52321 0.46791 0.94035 0.0
H314 H 0.54752 0.53641 0.10323 0.0
H315 H 0.52749 0.54229 0.13244 0.0
H316 H 0.46693 0.55468 0.09771 0.0
H317 H 0.48747 0.54911 0.06842 0.0
C318 C 0.21034 0.35068 0.39737 0.0
Eu319 Eu 0.18826 0.34677 0.36223 0.0
C320 C 0.20072 0.34087 0.41639 0.0
C321 C 0.21279 0.36046 0.43293 0.0
C322 C 0.20359 0.35227 0.45105 0.0
C323 C 0.18197 0.32424 0.4531 0.0
C324 C 0.17032 0.30438 0.43654 0.0
C325 C 0.1796 0.31261 0.41835 0.0
C326 C 0.17023 0.38095 0.34777 0.0
C327 C 0.11916 0.30108 0.35911 0.0
C328 C 0.13115 0.32093 0.28711 0.0
Eu329 Eu 0.1527 0.32486 0.32243 0.0
C330 C 0.14193 0.33229 0.26868 0.0
C331 C 0.16931 0.33897 0.26438 0.0
C332 C 0.1789 0.34902 0.24663 0.0
C333 C 0.16135 0.35265 0.23281 0.0
C334 C 0.1341 0.34638 0.23737 0.0
C335 C 0.12452 0.33629 0.25511 0.0
C336 C 0.16815 0.28939 0.33756 0.0
C337 C 0.22213 0.36998 0.32582 0.0
O338 O 0.20691 0.33141 0.38362 0.0
O339 O 0.20459 0.36965 0.39106 0.0
O340 O 0.1948 0.39068 0.35759 0.0
O341 O 0.15605 0.35413 0.34694 0.0
O342 O 0.1446 0.31247 0.36887 0.0
O343 O 0.11592 0.3059 0.34094 0.0
O344 O 0.13317 0.33939 0.30095 0.0
O345 O 0.13779 0.30256 0.29345 0.0
O346 O 0.14407 0.2807 0.32736 0.0
O347 O 0.18373 0.31618 0.33813 0.0
O348 O 0.19685 0.35913 0.31588 0.0
O349 O 0.22483 0.36503 0.34396 0.0
H350 H 0.22928 0.38228 0.43181 0.0
H351 H 0.21345 0.36801 0.4635 0.0
H352 H 0.15353 0.28268 0.43755 0.0
H353 H 0.17006 0.29699 0.40583 0.0
H354 H 0.18322 0.33625 0.27468 0.0
H355 H 0.20015 0.35406 0.24377 0.0
H356 H 0.1199 0.34864 0.22704 0.0
H357 H 0.10334 0.33131 0.25815 0.0
C358 C 0.67692 0.85407 0.39388 0.0
Eu359 Eu 0.68329 0.83944 0.35898 0.0
C360 C 0.68789 0.85333 0.41371 0.0
C361 C 0.67048 0.83161 0.42491 0.0
C362 C 0.68082 0.82976 0.44327 0.0
C363 C 0.70873 0.84976 0.45099 0.0
C364 C 0.72595 0.87199 0.44005 0.0
C365 C 0.71568 0.87373 0.42156 0.0
C366 C 0.65262 0.78547 0.34109 0.0
C367 C 0.73052 0.82218 0.35319 0.0
C368 C 0.70355 0.81832 0.28388 0.0
Eu369 Eu 0.69621 0.83404 0.31819 0.0
C370 C 0.69341 0.81668 0.26353 0.0
C371 C 0.71242 0.82239 0.24945 0.0
C372 C 0.70386 0.822 0.23009 0.0
C373 C 0.67604 0.81581 0.2244 0.0
C374 C 0.65681 0.80961 0.23851 0.0
C375 C 0.66547 0.81019 0.25796 0.0
C376 C 0.72618 0.88742 0.33693 0.0
C377 C 0.6509 0.85339 0.3237 0.0
O378 O 0.69501 0.87215 0.38302 0.0
O379 O 0.65941 0.82934 0.38423 0.0
O380 O 0.66379 0.79195 0.35891 0.0
O381 O 0.65807 0.80797 0.3334 0.0
O382 O 0.72104 0.83387 0.36569 0.0
O383 O 0.72128 0.81713 0.33458 0.0
O384 O 0.68526 0.80068 0.29485 0.0
O385 O 0.71962 0.84398 0.29268 0.0
O386 O 0.71632 0.88238 0.31884 0.0
O387 O 0.72077 0.86455 0.34378 0.0
O388 O 0.65954 0.84076 0.31129 0.0
O389 O 0.65961 0.85786 0.34242 0.0
H390 H 0.64888 0.81581 0.41938 0.0
H391 H 0.66687 0.81268 0.4515 0.0
H392 H 0.74757 0.88767 0.44562 0.0
H393 H 0.72964 0.89086 0.41338 0.0
H394 H 0.73403 0.82738 0.25346 0.0
H395 H 0.71904 0.82648 0.21953 0.0
H396 H 0.63531 0.80498 0.23458 0.0
H397 H 0.65049 0.80588 0.26865 0.0
C398 C 0.15605 0.83634 0.27814 0.0
Eu399 Eu 0.17081 0.8522 0.31512 0.0
C400 C 0.16849 0.83053 0.26132 0.0
C401 C 0.16354 0.83804 0.24316 0.0
C402 C 0.17524 0.83296 0.22704 0.0
C403 C 0.19223 0.82024 0.22872 0.0
C404 C 0.19737 0.81299 0.24705 0.0
C405 C 0.18562 0.81806 0.26316 0.0
C406 C 0.19137 0.90612 0.3315 0.0
C407 C 0.23633 0.86591 0.32426 0.0
C408 C 0.21572 0.88635 0.39289 0.0
Eu409 Eu 0.19811 0.86556 0.3568 0.0
C410 C 0.20448 0.89049 0.41088 0.0
C411 C 0.2157 0.8873 0.42858 0.0
C412 C 0.2061 0.8917 0.44595 0.0
C413 C 0.18501 0.89942 0.44606 0.0
C414 C 0.17352 0.90232 0.42822 0.0
C415 C 0.18314 0.89785 0.4108 0.0
C416 C 0.18003 0.81192 0.34135 0.0
C417 C 0.13032 0.8466 0.34732 0.0
O418 O 0.14869 0.81841 0.2914 0.0
O419 O 0.16848 0.86291 0.28556 0.0
O420 O 0.16726 0.89197 0.32084 0.0
O421 O 0.20332 0.89154 0.33277 0.0
O422 O 0.21215 0.85235 0.31293 0.0
O423 O 0.23783 0.87765 0.34181 0.0
O424 O 0.2166 0.90183 0.37891 0.0
O425 O 0.20772 0.86002 0.38659 0.0
O426 O 0.20242 0.82653 0.35363 0.0
O427 O 0.16681 0.82532 0.33886 0.0
O428 O 0.15378 0.85955 0.35955 0.0
O429 O 0.13061 0.83815 0.32919 0.0
H430 H 0.15044 0.84774 0.24141 0.0
H431 H 0.17046 0.83848 0.21316 0.0
H432 H 0.21063 0.80352 0.24899 0.0
H433 H 0.18985 0.81217 0.27704 0.0
H434 H 0.2322 0.88169 0.42898 0.0
H435 H 0.21574 0.88968 0.45937 0.0
H436 H 0.15702 0.90792 0.42773 0.0
H437 H 0.17402 0.90032 0.39731 0.0
C438 C 0.86985 0.70824 0.74229 0.0
Eu439 Eu 0.85241 0.69513 0.70559 0.0
C440 C 0.85561 0.69578 0.75945 0.0
C441 C 0.86454 0.71201 0.77748 0.0
C442 C 0.84963 0.70085 0.79349 0.0
C443 C 0.82539 0.67335 0.79165 0.0
C444 C 0.81668 0.65712 0.77354 0.0
C445 C 0.83167 0.66823 0.75762 0.0
C446 C 0.82954 0.72032 0.68393 0.0
C447 C 0.78837 0.64525 0.69386 0.0
C448 C 0.81702 0.65581 0.62791 0.0
Eu449 Eu 0.83761 0.67205 0.66405 0.0
C450 C 0.82103 0.66784 0.60919 0.0
C451 C 0.8122 0.64934 0.59218 0.0
C452 C 0.81545 0.66003 0.57416 0.0
C453 C 0.82758 0.68952 0.57278 0.0
C454 C 0.83674 0.70812 0.58993 0.0
C455 C 0.83348 0.69735 0.60801 0.0
C456 C 0.85801 0.64545 0.68671 0.0
C457 C 0.89998 0.72486 0.67532 0.0
O458 O 0.87571 0.69209 0.73101 0.0
O459 O 0.85891 0.72096 0.73259 0.0
O460 O 0.82472 0.71476 0.70165 0.0
O461 O 0.84737 0.71357 0.67875 0.0
O462 O 0.80869 0.65789 0.70825 0.0
O463 O 0.7941 0.6498 0.67573 0.0
O464 O 0.80594 0.66508 0.64061 0.0
O465 O 0.83792 0.65315 0.63561 0.0
O466 O 0.86401 0.65053 0.66911 0.0
O467 O 0.84074 0.6533 0.69094 0.0
O468 O 0.87874 0.71257 0.6615 0.0
O469 O 0.89584 0.71873 0.69343 0.0
H470 H 0.88278 0.73343 0.7791 0.0
H471 H 0.85673 0.71394 0.80722 0.0
H472 H 0.79841 0.63572 0.7717 0.0
H473 H 0.82436 0.65535 0.74384 0.0
H474 H 0.80274 0.62653 0.59283 0.0
H475 H 0.80866 0.64516 0.56128 0.0
H476 H 0.84597 0.73091 0.58937 0.0
H477 H 0.84049 0.71199 0.62104 0.0
C478 C 0.34689 0.201 0.73911 0.0
Eu479 Eu 0.33412 0.17367 0.70477 0.0
C480 C 0.35382 0.1983 0.75951 0.0
C481 C 0.33427 0.19372 0.77311 0.0
C482 C 0.34164 0.19404 0.79275 0.0
C483 C 0.36888 0.19923 0.7993 0.0
C484 C 0.38818 0.20306 0.78559 0.0
C485 C 0.38077 0.20263 0.76595 0.0
C486 C 0.29202 0.1194 0.69109 0.0
C487 C 0.36705 0.1379 0.69589 0.0
C488 C 0.33763 0.14236 0.62458 0.0
Eu489 Eu 0.34145 0.15741 0.6613 0.0
C490 C 0.31931 0.13684 0.60664 0.0
C491 C 0.33126 0.14016 0.58903 0.0
C492 C 0.31487 0.13589 0.57169 0.0
C493 C 0.28611 0.12818 0.57159 0.0
C494 C 0.27404 0.12463 0.58931 0.0
C495 C 0.29059 0.12911 0.60675 0.0
C496 C 0.38478 0.20577 0.68091 0.0
C497 C 0.30122 0.18501 0.66966 0.0
O498 O 0.36575 0.20457 0.72703 0.0
O499 O 0.32059 0.1845 0.73137 0.0
O500 O 0.29356 0.13119 0.70828 0.0
O501 O 0.31291 0.13695 0.68305 0.0
O502 O 0.36347 0.15521 0.70823 0.0
O503 O 0.35676 0.13215 0.67744 0.0
O504 O 0.32734 0.12398 0.63748 0.0
O505 O 0.35194 0.16893 0.63223 0.0
O506 O 0.38855 0.18862 0.66929 0.0
O507 O 0.35864 0.19702 0.6812 0.0
O508 O 0.30673 0.16875 0.65782 0.0
O509 O 0.31249 0.19305 0.68789 0.0
H510 H 0.31344 0.19051 0.76862 0.0
H511 H 0.32607 0.19054 0.80284 0.0
H512 H 0.40945 0.20749 0.79009 0.0
H513 H 0.3965 0.20648 0.75592 0.0
H514 H 0.35338 0.14613 0.58868 0.0
H515 H 0.32469 0.1383 0.5583 0.0
H516 H 0.25197 0.11881 0.5897 0.0
H517 H 0.28105 0.12664 0.62026 0.0
C518 C 0.81444 0.16975 0.61741 0.0
Eu519 Eu 0.83243 0.17951 0.65408 0.0
C520 C 0.82507 0.16478 0.59934 0.0
C521 C 0.85439 0.17741 0.59775 0.0
C522 C 0.86434 0.17297 0.58055 0.0
C523 C 0.84524 0.15573 0.5645 0.0
C524 C 0.81585 0.14308 0.56615 0.0
C525 C 0.8059 0.14753 0.58342 0.0
C526 C 0.84808 0.22631 0.67891 0.0
C527 C 0.90038 0.19655 0.65853 0.0
C528 C 0.88849 0.19888 0.7308 0.0
Eu529 Eu 0.86462 0.18275 0.69539 0.0
C530 C 0.88407 0.21168 0.74852 0.0
C531 C 0.89485 0.20884 0.76648 0.0
C532 C 0.88855 0.21828 0.7836 0.0
C533 C 0.87141 0.23087 0.78307 0.0
C534 C 0.86119 0.23435 0.76499 0.0
C535 C 0.86728 0.22461 0.74784 0.0
C536 C 0.84342 0.13056 0.67477 0.0
C537 C 0.79687 0.16324 0.69094 0.0
O538 O 0.80594 0.14957 0.62913 0.0
O539 O 0.82935 0.1954 0.6266 0.0
O540 O 0.82586 0.21519 0.66627 0.0
O541 O 0.86193 0.21351 0.67684 0.0
O542 O 0.87718 0.19095 0.64748 0.0
O543 O 0.90149 0.19566 0.67751 0.0
O544 O 0.89792 0.21498 0.71659 0.0
O545 O 0.86814 0.1729 0.7249 0.0
O546 O 0.85774 0.1374 0.69165 0.0
O547 O 0.84172 0.15173 0.67031 0.0
O548 O 0.82159 0.17632 0.70182 0.0
O549 O 0.79499 0.1581 0.67185 0.0
H550 H 0.8697 0.19097 0.60973 0.0
H551 H 0.88709 0.18348 0.57977 0.0
H552 H 0.80053 0.12945 0.55418 0.0
H553 H 0.78319 0.13753 0.58433 0.0
H554 H 0.90766 0.19871 0.76727 0.0
H555 H 0.89696 0.21557 0.7973 0.0
H556 H 0.8477 0.24371 0.76411 0.0
H557 H 0.85831 0.2265 0.73409 0.0
H558 H 0.3187 0.87212 0.0843 0.0
H559 H 0.29343 0.80207 0.03969 0.0
H560 H 0.33446 0.83248 0.02274 0.0
H561 H 0.34673 0.92939 0.05476 0.0
H562 H 0.3773 0.95335 0.07136 0.0
H563 H 0.34544 0.92652 0.08041 0.0
H564 H 0.3742 0.90684 0.09801 0.0
H565 H 0.40622 0.93379 0.08915 0.0
H566 H 0.3955 0.89662 0.08447 0.0
H567 H 0.37547 0.87093 0.00874 0.0
H568 H 0.41919 0.91353 1.00124 0.0
H569 H 0.42318 0.95766 0.05634 0.0
C570 C 0.32188 0.86299 0.07111 0.0
C571 C 0.30171 0.83474 0.06308 0.0
C572 C 0.30733 0.8239 0.04582 0.0
C573 C 0.33093 0.84095 0.03609 0.0
C574 C 0.34965 0.86877 0.04398 0.0
C575 C 0.34601 0.87959 0.06135 0.0
C576 C 0.37037 0.91002 0.06687 0.0
C577 C 0.35929 0.93106 0.06844 0.0
C578 C 0.38759 0.91192 0.08574 0.0
C579 C 0.38769 0.9146 0.04964 0.0
C580 C 0.37501 0.89054 0.03654 0.0
C581 C 0.38587 0.8898 0.019 0.0
C582 C 0.41058 0.91416 0.01479 0.0
C583 C 0.42458 0.93883 0.02818 0.0
C584 C 0.413 0.93898 0.0459 0.0
H585 H 0.13192 0.4228 0.0736 0.0
H586 H 0.19767 0.51213 0.08242 0.0
H587 H 0.16305 0.52585 0.07068 0.0
H588 H 0.09694 0.42791 0.02946 0.0
H589 H 0.06154 0.40306 0.03508 0.0
H590 H 0.09124 0.3999 0.04447 0.0
H591 H 0.0779 0.40265 0.07934 0.0
H592 H 0.04807 0.40564 0.07005 0.0
H593 H 0.07425 0.43243 0.08813 0.0
H594 H 0.12168 0.53034 0.05925 0.0
H595 H 0.07556 0.52528 0.04778 0.0
H596 H 0.03607 0.43313 0.04431 0.0
C597 C 0.1389 0.44522 0.07312 0.0
C598 C 0.16752 0.46644 0.07887 0.0
C599 C 0.17595 0.49555 0.07791 0.0
C600 C 0.15642 0.50355 0.07131 0.0
C601 C 0.1285 0.48219 0.06557 0.0
C602 C 0.11966 0.45361 0.06631 0.0
C603 C 0.08834 0.43508 0.05904 0.0
C604 C 0.08429 0.41532 0.04094 0.0
C605 C 0.07113 0.41794 0.0751 0.0
C606 C 0.08103 0.45774 0.05418 0.0
C607 C 0.10459 0.48476 0.05823 0.0
C608 C 0.10316 0.50931 0.05585 0.0
C609 C 0.07693 0.50624 0.04932 0.0
C610 C 0.05256 0.47887 0.04494 0.0
C611 C 0.05462 0.45426 0.04722 0.0
H612 H 0.58682 0.70796 0.063 0.0
H613 H 0.51389 0.71602 0.04483 0.0
H614 H 0.48935 0.66679 0.02898 0.0
H615 H 0.58581 0.66988 0.02023 0.0
H616 H 0.59561 0.64662 0.03162 0.0
H617 H 0.60659 0.6814 0.04344 0.0
H618 H 0.58264 0.65848 0.07382 0.0
H619 H 0.57179 0.62361 0.06211 0.0
H620 H 0.54566 0.63101 0.07131 0.0
H621 H 0.47409 0.61875 0.01313 0.0
H622 H 0.46847 0.57366 0.99836 0.0
H623 H 0.55115 0.59578 0.02613 0.0
C624 C 0.56544 0.69905 0.05604 0.0
C625 C 0.5522 0.71575 0.05511 0.0
C626 C 0.52444 0.70362 0.04558 0.0
C627 C 0.51029 0.67566 0.03662 0.0
C628 C 0.52413 0.65998 0.03737 0.0
C629 C 0.55099 0.67105 0.0469 0.0
C630 C 0.56153 0.65 0.0445 0.0
C631 C 0.58901 0.66274 0.03434 0.0
C632 C 0.56565 0.6402 0.0641 0.0
C633 C 0.53673 0.62582 0.03168 0.0
C634 C 0.5153 0.63199 0.02798 0.0
C635 C 0.4906 0.61353 0.01606 0.0
C636 C 0.48766 0.58804 0.00766 0.0
C637 C 0.50932 0.58122 0.01116 0.0
C638 C 0.53414 0.60034 0.02339 0.0
H639 H 0.86771 0.3028 0.95293 0.0
H640 H 0.78538 0.28471 0.97001 0.0
H641 H 0.80927 0.32602 0.99478 0.0
H642 H 0.90654 0.3273 1.00061 0.0
H643 H 0.93835 0.35513 0.9921 0.0
H644 H 0.91497 0.32319 0.97638 0.0
H645 H 0.91066 0.35385 0.95064 0.0
H646 H 0.93402 0.38584 0.9663 0.0
H647 H 0.89928 0.37889 0.95731 0.0
H648 H 0.84159 0.37066 0.01632 0.0
H649 H 0.88023 0.41501 0.034 0.0
H650 H 0.94219 0.40482 1.00328 0.0
C651 C 0.85462 0.30747 0.96184 0.0
C652 C 0.82451 0.29029 0.95945 0.0
C653 C 0.80838 0.2971 0.97168 0.0
C654 C 0.82178 0.3207 0.98572 0.0
C655 C 0.85137 0.33736 0.98742 0.0
C656 C 0.86764 0.33104 0.97587 0.0
C657 C 0.89909 0.3529 0.98036 0.0
C658 C 0.91571 0.33878 0.98781 0.0
C659 C 0.91148 0.3688 0.9626 0.0
C660 C 0.89794 0.37257 0.99622 0.0
C661 C 0.87015 0.36317 0.99999 0.0
C662 C 0.86342 0.37809 0.01358 0.0
C663 C 0.88559 0.40331 0.02356 0.0
C664 C 0.91427 0.41348 0.02 0.0
C665 C 0.9205 0.3977 0.00624 0.0
H666 H 0.67953 0.5457 0.92842 0.0
H667 H 0.7414 0.57494 0.97868 0.0
H668 H 0.70431 0.56987 0.99974 0.0
H669 H 0.64191 0.58038 0.94361 0.0
H670 H 0.60743 0.55132 0.93397 0.0
H671 H 0.63871 0.55691 0.923 0.0
H672 H 0.62587 0.50496 0.92769 0.0
H673 H 0.59448 0.49926 0.93856 0.0
H674 H 0.62005 0.49285 0.95147 0.0
H675 H 0.66069 0.56343 0.01505 0.0
H676 H 0.61333 0.55274 0.02379 0.0
H677 H 0.57981 0.52646 0.96341 0.0
C678 C 0.68526 0.55105 0.94387 0.0
C679 C 0.71336 0.56088 0.95196 0.0
C680 C 0.71996 0.56726 0.97224 0.0
C681 C 0.69909 0.56457 0.98427 0.0
C682 C 0.67166 0.55517 0.97579 0.0
C683 C 0.66464 0.54818 0.95607 0.0
C684 C 0.63354 0.53815 0.95058 0.0
C685 C 0.63022 0.55788 0.93699 0.0
C686 C 0.61755 0.50695 0.94155 0.0
C687 C 0.62419 0.5409 0.97028 0.0
C688 C 0.64649 0.55087 0.98462 0.0
C689 C 0.64305 0.55548 1.00394 0.0
C690 C 0.61606 0.54945 0.00875 0.0
C691 C 0.59276 0.53874 0.99432 0.0
C692 C 0.59709 0.53457 0.97483 0.0
H693 H 0.51745 0.18593 0.97053 0.0
H694 H 0.42981 0.13401 0.94542 0.0
H695 H 0.42843 0.09136 0.95703 0.0
H696 H 0.53868 0.13149 0.96287 0.0
H697 H 0.5601 0.14257 0.98579 0.0
H698 H 0.55571 0.16822 0.97294 0.0
H699 H 0.53729 0.18151 1.00313 0.0
H700 H 0.54145 0.15582 0.01599 0.0
H701 H 0.50741 0.15385 0.0135 0.0
H702 H 0.43526 0.0549 0.97353 0.0
H703 H 0.44947 0.02786 0.99441 0.0
H704 H 0.53119 0.10424 0.01082 0.0
C705 C 0.49797 0.1656 0.96731 0.0
C706 C 0.47376 0.16348 0.95693 0.0
C707 C 0.44886 0.13628 0.95295 0.0
C708 C 0.4478 0.11188 0.9596 0.0
C709 C 0.47177 0.11496 0.97024 0.0
C710 C 0.49643 0.14114 0.97404 0.0
C711 C 0.51846 0.13913 0.9871 0.0
C712 C 0.54479 0.14575 0.97654 0.0
C713 C 0.52661 0.15874 0.00605 0.0
C714 C 0.50198 0.10795 0.99061 0.0
C715 C 0.47532 0.09423 0.98041 0.0
C716 C 0.45612 0.0654 0.98151 0.0
C717 C 0.46433 0.05025 0.99341 0.0
C718 C 0.49129 0.06409 1.00428 0.0
C719 C 0.51036 0.09325 1.00277 0.0
H720 H 0.67305 0.15247 0.93821 0.0
H721 H 0.73796 0.1837 0.98663 0.0
H722 H 0.70136 0.15416 0.00795 0.0
H723 H 0.61493 0.14792 0.9659 0.0
H724 H 0.58834 0.11575 0.95165 0.0
H725 H 0.61909 0.14147 0.94092 0.0
H726 H 0.63062 0.10193 0.9309 0.0
H727 H 0.60004 0.07626 0.94172 0.0
H728 H 0.63474 0.08159 0.9491 0.0
H729 H 0.65795 0.11842 0.02324 0.0
H730 H 0.61152 0.08038 0.03155 0.0
H731 H 0.5751 0.07218 0.97277 0.0
C732 C 0.67933 0.15355 0.95343 0.0
C733 C 0.70807 0.17056 0.961 0.0
C734 C 0.71588 0.17106 0.98077 0.0
C735 C 0.69527 0.15431 0.9929 0.0
C736 C 0.66704 0.13728 0.98495 0.0
C737 C 0.65902 0.13697 0.96568 0.0
C738 C 0.6276 0.1158 0.96046 0.0
C739 C 0.61155 0.13116 0.95438 0.0
C740 C 0.623 0.09252 0.94462 0.0
C741 C 0.61932 0.10372 0.97966 0.0
C742 C 0.64225 0.11654 0.99366 0.0
C743 C 0.63983 0.10841 0.01241 0.0
C744 C 0.61333 0.08669 0.01699 0.0
C745 C 0.58953 0.07314 1.00285 0.0
C746 C 0.59275 0.08199 0.98396 0.0
H747 H 0.83003 0.5125 0.94163 0.0
H748 H 0.81041 0.55493 0.98773 0.0
H749 H 0.84288 0.5489 0.0111 0.0
H750 H 0.83639 0.46083 0.97003 0.0
H751 H 0.86546 0.4632 0.95755 0.0
H752 H 0.83905 0.46895 0.94522 0.0
H753 H 0.87886 0.51829 0.93712 0.0
H754 H 0.90526 0.5127 0.94959 0.0
H755 H 0.90312 0.54405 0.95646 0.0
H756 H 0.87972 0.54019 0.02877 0.0
H757 H 0.91687 0.52914 0.03947 0.0
H758 H 0.91234 0.49313 0.98115 0.0
C759 C 0.8322 0.51998 0.95676 0.0
C760 C 0.81763 0.53374 0.96314 0.0
C761 C 0.82124 0.54394 0.9828 0.0
C762 C 0.83965 0.54067 0.99607 0.0
C763 C 0.85414 0.52726 0.98927 0.0
C764 C 0.85048 0.51697 0.97006 0.0
C765 C 0.86935 0.50454 0.96613 0.0
C766 C 0.85149 0.47247 0.95934 0.0
C767 C 0.89039 0.52088 0.95146 0.0
C768 C 0.88449 0.50966 0.98609 0.0
C769 C 0.87541 0.52265 0.99928 0.0
C770 C 0.88685 0.52988 0.01856 0.0
C771 C 0.90801 0.52357 0.02449 0.0
C772 C 0.91761 0.51025 0.01116 0.0
C773 C 0.90556 0.50327 0.99173 0.0
H774 H 0.53532 0.33756 0.99413 0.0
H775 H 0.4544 0.29331 0.95892 0.0
H776 H 0.44866 0.33567 0.96461 0.0
H777 H 0.51514 0.37094 0.02979 0.0
H778 H 0.54882 0.40383 0.03319 0.0
H779 H 0.54737 0.37098 0.02516 0.0
H780 H 0.57271 0.39341 0.99508 0.0
H781 H 0.57439 0.42641 1.00309 0.0
H782 H 0.55798 0.40897 0.97928 0.0
H783 H 0.4509 0.382 0.97579 0.0
H784 H 0.46111 0.42886 0.99105 0.0
H785 H 0.54077 0.44259 0.01889 0.0
C786 C 0.51664 0.33709 0.98741 0.0
C787 C 0.49535 0.31261 0.97599 0.0
C788 C 0.47095 0.3122 0.96759 0.0
C789 C 0.46756 0.33607 0.97076 0.0
C790 C 0.48884 0.35998 0.98233 0.0
C791 C 0.51298 0.36069 0.99043 0.0
C792 C 0.53222 0.3885 1.00284 0.0
C793 C 0.5361 0.38323 0.02399 0.0
C794 C 0.56103 0.40531 0.99457 0.0
C795 C 0.51496 0.40317 1.00073 0.0
C796 C 0.49008 0.38648 0.98877 0.0
C797 C 0.47042 0.39532 0.98505 0.0
C798 C 0.47637 0.42193 0.99379 0.0
C799 C 0.50174 0.43929 0.00607 0.0
C800 C 0.52123 0.42975 0.00952 0.0
H801 H 0.17237 0.68021 0.04191 0.0
H802 H 0.13204 0.71675 0.0758 0.0
H803 H 0.08786 0.66936 0.07322 0.0
H804 H 0.11383 0.63673 0.00883 0.0
H805 H 0.12025 0.60724 0.00654 0.0
H806 H 0.14948 0.64289 0.01312 0.0
H807 H 0.16357 0.6266 0.04406 0.0
H808 H 0.13444 0.59077 0.0375 0.0
H809 H 0.1375 0.60898 0.06077 0.0
H810 H 0.04671 0.61862 0.06416 0.0
H811 H 0.01263 0.56923 0.0499 0.0
H812 H 0.08033 0.56631 0.02195 0.0
C813 C 0.15442 0.67794 0.0492 0.0
C814 C 0.15548 0.70175 0.05931 0.0
C815 C 0.13156 0.69847 0.06826 0.0
C816 C 0.10645 0.67169 0.06683 0.0
C817 C 0.10579 0.64855 0.05641 0.0
C818 C 0.12929 0.65141 0.04789 0.0
C819 C 0.12265 0.62381 0.03649 0.0
C820 C 0.12679 0.62793 0.01497 0.0
C821 C 0.14061 0.61184 0.04523 0.0
C822 C 0.09156 0.60517 0.03943 0.0
C823 C 0.08223 0.61965 0.05112 0.0
C824 C 0.05391 0.60702 0.05518 0.0
C825 C 0.0347 0.57899 0.04701 0.0
C826 C 0.04386 0.56397 0.03487 0.0
C827 C 0.07272 0.57724 0.03124 0.0
H828 H 0.33809 0.49796 0.08383 0.0
H829 H 0.2713 0.43074 0.04386 0.0
H830 H 0.30748 0.42643 0.02624 0.0
H831 H 0.38528 0.53236 0.04999 0.0
H832 H 0.41724 0.54156 0.06508 0.0
H833 H 0.38623 0.53691 0.07595 0.0
H834 H 0.38718 0.49897 0.09637 0.0
H835 H 0.41837 0.50368 0.08565 0.0
H836 H 0.38728 0.46866 0.08446 0.0
H837 H 0.35132 0.4334 0.01092 0.0
H838 H 0.39904 0.4488 1.0004 0.0
H839 H 0.43715 0.51123 0.05072 0.0
C840 C 0.33117 0.48169 0.07176 0.0
C841 C 0.30204 0.46419 0.06535 0.0
C842 C 0.29358 0.44383 0.04915 0.0
C843 C 0.31398 0.44138 0.03903 0.0
C844 C 0.3427 0.45943 0.04539 0.0
C845 C 0.3513 0.47895 0.06156 0.0
C846 C 0.38347 0.49693 0.06474 0.0
C847 C 0.39363 0.52882 0.06388 0.0
C848 C 0.39473 0.49174 0.08394 0.0
C849 C 0.39159 0.48503 0.04757 0.0
C850 C 0.36784 0.46335 0.03662 0.0
C851 C 0.37008 0.45009 0.01956 0.0
C852 C 0.39729 0.45908 0.01364 0.0
C853 C 0.42194 0.48113 0.02474 0.0
C854 C 0.41884 0.49412 0.04195 0.0
H855 H 0.60043 0.89131 0.04419 0.0
H856 H 0.52217 0.82253 0.06111 0.0
H857 H 0.49967 0.85224 0.05843 0.0
H858 H 0.59293 0.9522 0.06788 0.0
H859 H 0.60786 0.97356 0.04823 0.0
H860 H 0.61943 0.94922 0.05522 0.0
H861 H 0.60644 0.92518 0.02004 0.0
H862 H 0.59464 0.94919 0.013 0.0
H863 H 0.5708 0.91116 0.00877 0.0
H864 H 0.48312 0.88462 0.04744 0.0
H865 H 0.47442 0.91905 0.03095 0.0
H866 H 0.56388 0.96894 0.02291 0.0
C867 C 0.57895 0.88313 0.0481 0.0
C868 C 0.56301 0.85502 0.0532 0.0
C869 C 0.53471 0.8443 0.05755 0.0
C870 C 0.52182 0.86102 0.05606 0.0
C871 C 0.53774 0.88847 0.05041 0.0
C872 C 0.56588 0.8997 0.04682 0.0
C873 C 0.57728 0.9286 0.03907 0.0
C874 C 0.60077 0.9523 0.05346 0.0
C875 C 0.58789 0.9285 0.01904 0.0
C876 C 0.55075 0.93107 0.03778 0.0
C877 C 0.52827 0.90781 0.04461 0.0
C878 C 0.50072 0.90337 0.04264 0.0
C879 C 0.49594 0.92291 0.0332 0.0
C880 C 0.51862 0.94675 0.02611 0.0
C881 C 0.54645 0.9513 0.02884 0.0
H882 H 0.95496 0.20493 0.37863 0.0
H883 H 0.9859 0.18302 0.43011 0.0
H884 H 0.03507 0.21432 0.42292 0.0
H885 H 1.00684 0.20489 0.3487 0.0
H886 H 0.01064 0.23439 0.33596 0.0
H887 H 0.97752 0.21132 0.34547 0.0
H888 H 0.98017 0.25505 0.36461 0.0
H889 H 0.01331 0.27827 0.35515 0.0
H890 H 0.01131 0.27856 0.38092 0.0
H891 H 0.0806 0.247 0.41039 0.0
H892 H 0.12045 0.2789 0.39292 0.0
H893 H 0.06141 0.27903 0.34829 0.0
C894 C 0.97202 0.20659 0.38838 0.0
C895 C 0.96629 0.19162 0.40514 0.0
C896 C 0.98947 0.1947 0.41749 0.0
C897 C 0.01758 0.21228 0.41344 0.0
C898 C 0.02238 0.22658 0.39687 0.0
C899 C 1.00035 0.22392 0.38446 0.0
C900 C 0.01164 0.24127 0.36737 0.0
C901 C 1.00103 0.2218 0.34824 0.0
C902 C 1.00363 0.26468 0.367 0.0
C903 C 0.04346 0.25401 0.37216 0.0
C904 C 0.049 0.24524 0.38931 0.0
C905 C 0.07654 0.25404 0.39696 0.0
C906 C 0.09911 0.27232 0.38687 0.0
C907 C 0.09425 0.28172 0.36919 0.0
C908 C 0.06591 0.27227 0.36172 0.0
H909 H 0.84394 0.82009 0.42996 0.0
H910 H 0.87594 0.79287 0.38249 0.0
H911 H 0.84121 0.79563 0.3594 0.0
H912 H 0.77134 0.78024 0.41248 0.0
H913 H 0.76317 0.80715 0.42079 0.0
H914 H 0.79184 0.80509 0.43328 0.0
H915 H 0.82684 0.85798 0.42851 0.0
H916 H 0.79816 0.86026 0.41621 0.0
H917 H 0.82987 0.86939 0.40451 0.0
H918 H 0.80029 0.79814 0.34185 0.0
H919 H 0.75959 0.80382 0.33104 0.0
H920 H 0.75463 0.82917 0.39036 0.0
C921 C 0.84382 0.81492 0.41468 0.0
C922 C 0.86259 0.80615 0.40801 0.0
C923 C 0.86195 0.79987 0.3879 0.0
C924 C 0.84215 0.80118 0.37471 0.0
C925 C 0.82335 0.80904 0.38188 0.0
C926 C 0.82431 0.81615 0.4014 0.0
C927 C 0.80154 0.82342 0.40554 0.0
C928 C 0.78074 0.80274 0.4188 0.0
C929 C 0.81491 0.85462 0.4142 0.0
C930 C 0.78729 0.81897 0.38532 0.0
C931 C 0.80012 0.81065 0.37186 0.0
C932 C 0.79025 0.80483 0.35228 0.0
C933 C 0.76699 0.808 0.34629 0.0
C934 C 0.75381 0.81697 0.35982 0.0
C935 C 0.76414 0.82231 0.37961 0.0
H936 H 0.18375 0.03183 0.39185 0.0
H937 H 0.27569 0.08046 0.39448 0.0
H938 H 0.27571 0.03951 0.37689 0.0
H939 H 0.17676 0.96164 0.3967 0.0
H940 H 0.1454 0.94301 0.37975 0.0
H941 H 0.15272 0.97523 0.39388 0.0
H942 H 0.15005 0.99745 0.36237 0.0
H943 H 0.14288 0.96535 0.3482 0.0
H944 H 0.17247 0.99929 0.34379 0.0
H945 H 0.26587 0.99345 0.35956 0.0
H946 H 0.24662 0.94624 0.34103 0.0
H947 H 0.16076 0.92862 0.34699 0.0
C948 C 0.2038 0.03357 0.38883 0.0
C949 C 0.22978 0.05901 0.39454 0.0
C950 C 0.25568 0.06098 0.3902 0.0
C951 C 0.25586 0.03787 0.3803 0.0
C952 C 0.22991 0.01309 0.3747 0.0
C953 C 0.20431 0.01079 0.37866 0.0
C954 C 0.17942 0.98226 0.37007 0.0
C955 C 0.16259 0.96449 0.38605 0.0
C956 C 0.16007 0.98635 0.35522 0.0
C957 C 0.19503 0.96915 0.36039 0.0
C958 C 0.22415 0.98708 0.36362 0.0
C959 C 0.24312 0.97933 0.35678 0.0
C960 C 0.23203 0.95256 0.34628 0.0
C961 C 0.20233 0.93423 0.34235 0.0
C962 C 0.18358 0.94261 0.34948 0.0
H963 H 0.53988 0.64626 0.27156 0.0
H964 H 0.48801 0.62158 0.31989 0.0
H965 H 0.52434 0.66495 0.33954 0.0
H966 H 0.60765 0.67824 0.29811 0.0
H967 H 0.62465 0.70778 0.28369 0.0
H968 H 0.59483 0.67443 0.27304 0.0
H969 H 0.56816 0.70055 0.26261 0.0
H970 H 0.59802 0.73403 0.2731 0.0
H971 H 0.56306 0.72253 0.2805 0.0
H972 H 0.56723 0.7087 0.3549 0.0
H973 H 0.61196 0.75407 0.36396 0.0
H974 H 0.63429 0.75461 0.30509 0.0
C975 C 0.53579 0.65005 0.28615 0.0
C976 C 0.51105 0.62976 0.29417 0.0
C977 C 0.50703 0.63593 0.31346 0.0
C978 C 0.52748 0.66077 0.32476 0.0
C979 C 0.55169 0.67983 0.31654 0.0
C980 C 0.55574 0.67521 0.29757 0.0
C981 C 0.58347 0.69981 0.29225 0.0
C982 C 0.60385 0.68943 0.28643 0.0
C983 C 0.57783 0.71514 0.27616 0.0
C984 C 0.59449 0.71865 0.31131 0.0
C985 C 0.57586 0.70641 0.32514 0.0
C986 C 0.58181 0.71873 0.34415 0.0
C987 C 0.60735 0.7444 0.34918 0.0
C988 C 0.62648 0.75782 0.33521 0.0
C989 C 0.61989 0.74486 0.31598 0.0
H990 H 0.40074 0.92463 0.30809 0.0
H991 H 0.3696 0.85628 0.26157 0.0
H992 H 0.32052 0.83884 0.26953 0.0
H993 H 0.3495 0.88366 0.34186 0.0
H994 H 0.34533 0.9131 0.35067 0.0
H995 H 0.37848 0.9198 0.34206 0.0
H996 H 0.37498 0.95259 0.31781 0.0
H997 H 0.34187 0.94602 0.32635 0.0
H998 H 0.34359 0.93886 0.301 0.0
H999 H 0.27532 0.82926 0.28151 0.0
H1000 H 0.23528 0.82858 0.29627 0.0
H1001 H 0.29396 0.90333 0.33529 0.0
C1002 C 0.38356 0.90584 0.29974 0.0
C1003 C 0.38896 0.89184 0.28414 0.0
C1004 C 0.36593 0.86751 0.27341 0.0
C1005 C 0.338 0.85734 0.2779 0.0
C1006 C 0.33334 0.87169 0.29319 0.0
C1007 C 0.35534 0.89544 0.30397 0.0
C1008 C 0.344 0.90737 0.31917 0.0
C1009 C 0.35499 0.90589 0.33966 0.0
C1010 C 0.35156 0.93803 0.31588 0.0
C1011 C 0.31221 0.88672 0.31508 0.0
C1012 C 0.30676 0.86626 0.3001 0.0
C1013 C 0.27928 0.84515 0.29324 0.0
C1014 C 0.25662 0.84509 0.30169 0.0
C1015 C 0.26138 0.86608 0.31683 0.0
C1016 C 0.28964 0.88695 0.32382 0.0
H1017 H 0.18147 0.52429 0.31405 0.0
H1018 H 0.09591 0.47195 0.28569 0.0
H1019 H 0.09443 0.42885 0.29687 0.0
H1020 H 0.20481 0.47371 0.30268 0.0
H1021 H 0.22628 0.48236 0.32541 0.0
H1022 H 0.22051 0.509 0.3152 0.0
H1023 H 0.201 0.51631 0.34681 0.0
H1024 H 0.20661 0.48962 0.35709 0.0
H1025 H 0.17185 0.48605 0.35584 0.0
H1026 H 0.10149 0.39186 0.31243 0.0
H1027 H 0.11787 0.36296 0.32914 0.0
H1028 H 0.19979 0.43893 0.34601 0.0
C1029 C 0.16243 0.50373 0.31024 0.0
C1030 C 0.13874 0.5014 0.29905 0.0
C1031 C 0.11433 0.47414 0.29413 0.0
C1032 C 0.11326 0.4496 0.3005 0.0
C1033 C 0.1369 0.45265 0.3116 0.0
C1034 C 0.16115 0.47898 0.31626 0.0
C1035 C 0.18382 0.47631 0.32806 0.0
C1036 C 0.21042 0.48591 0.31718 0.0
C1037 C 0.19124 0.49306 0.34814 0.0
C1038 C 0.16843 0.4444 0.32948 0.0
C1039 C 0.14133 0.43119 0.31999 0.0
C1040 C 0.12279 0.40192 0.3197 0.0
C1041 C 0.13231 0.38567 0.32917 0.0
C1042 C 0.16024 0.39863 0.33855 0.0
C1043 C 0.1784 0.42842 0.33881 0.0
H1044 H 0.38804 0.47776 0.32033 0.0
H1045 H 0.36724 0.48986 0.26196 0.0
H1046 H 0.3163 0.45455 0.26421 0.0
H1047 H 0.33769 0.40159 0.3178 0.0
H1048 H 0.32943 0.40324 0.34239 0.0
H1049 H 0.364 0.42855 0.33574 0.0
H1050 H 0.35737 0.47026 0.34892 0.0
H1051 H 0.32279 0.44509 0.35559 0.0
H1052 H 0.32654 0.47184 0.33995 0.0
H1053 H 0.26742 0.41882 0.27358 0.0
H1054 H 0.22482 0.38604 0.28893 0.0
H1055 H 0.27808 0.39744 0.34135 0.0
C1056 C 0.37269 0.47273 0.308 0.0
C1057 C 0.38124 0.48619 0.29093 0.0
C1058 C 0.36085 0.4795 0.27509 0.0
C1059 C 0.33199 0.45953 0.27628 0.0
C1060 C 0.3241 0.44659 0.29341 0.0
C1061 C 0.34391 0.45292 0.30898 0.0
C1062 C 0.32998 0.43662 0.32589 0.0
C1063 C 0.34093 0.41629 0.33073 0.0
C1064 C 0.33444 0.45718 0.34363 0.0
C1065 C 0.29914 0.42024 0.31753 0.0
C1066 C 0.29617 0.42619 0.29877 0.0
C1067 C 0.26958 0.41393 0.28822 0.0
C1068 C 0.24546 0.39526 0.2971 0.0
C1069 C 0.24797 0.38893 0.31637 0.0
C1070 C 0.27531 0.40162 0.32659 0.0
H1071 H 0.542 0.91161 0.33006 0.0
H1072 H 0.52677 0.89658 0.26759 0.0
H1073 H 0.56227 0.88067 0.2669 0.0
H1074 H 0.61826 0.93783 0.33333 0.0
H1075 H 0.61803 0.92071 0.35481 0.0
H1076 H 0.59238 0.9319 0.35019 0.0
H1077 H 0.55147 0.88041 0.35285 0.0
H1078 H 0.57698 0.86906 0.35741 0.0
H1079 H 0.54928 0.85116 0.33771 0.0
H1080 H 0.59803 0.86483 0.27332 0.0
H1081 H 0.63189 0.85074 0.28595 0.0
H1082 H 0.62407 0.87628 0.34455 0.0
C1083 C 0.54646 0.90523 0.31626 0.0
C1084 C 0.53204 0.9054 0.29883 0.0
C1085 C 0.53792 0.8967 0.28102 0.0
C1086 C 0.55797 0.88764 0.28053 0.0
C1087 C 0.57182 0.8875 0.29801 0.0
C1088 C 0.5664 0.89616 0.31554 0.0
C1089 C 0.58369 0.89338 0.33226 0.0
C1090 C 0.60431 0.9227 0.34329 0.0
C1091 C 0.56418 0.87224 0.34585 0.0
C1092 C 0.59954 0.88157 0.32143 0.0
C1093 C 0.5924 0.87839 0.3017 0.0
C1094 C 0.60386 0.86736 0.28873 0.0
C1095 C 0.62309 0.85936 0.29609 0.0
C1096 C 0.63077 0.8624 0.31628 0.0
C1097 C 0.6188 0.87377 0.32905 0.0
H1098 H 0.19581 0.67489 0.3261 0.0
H1099 H 0.10989 0.62876 0.29798 0.0
H1100 H 0.108 0.67364 0.29981 0.0
H1101 H 0.18518 0.71787 0.3596 0.0
H1102 H 0.21957 0.74923 0.35905 0.0
H1103 H 0.21505 0.71438 0.35342 0.0
H1104 H 0.23477 0.72885 0.32032 0.0
H1105 H 0.23946 0.76385 0.32591 0.0
H1106 H 0.21858 0.74247 0.304 0.0
H1107 H 0.11486 0.72361 0.30724 0.0
H1108 H 0.1296 0.77329 0.31986 0.0
H1109 H 0.21071 0.78533 0.34321 0.0
C1110 C 0.17687 0.67448 0.31997 0.0
C1111 C 0.15309 0.64878 0.31173 0.0
C1112 C 0.12838 0.64856 0.30417 0.0
C1113 C 0.12716 0.67389 0.30515 0.0
C1114 C 0.15092 0.69905 0.31368 0.0
C1115 C 0.17537 0.69948 0.32085 0.0
C1116 C 0.19735 0.72867 0.3304 0.0
C1117 C 0.2047 0.72745 0.35189 0.0
C1118 C 0.22412 0.74173 0.3195 0.0
C1119 C 0.18125 0.74446 0.32802 0.0
C1120 C 0.15465 0.72728 0.31813 0.0
C1121 C 0.13574 0.73728 0.31486 0.0
C1122 C 0.14422 0.76544 0.32207 0.0
C1123 C 0.17119 0.78298 0.33256 0.0
C1124 C 0.18992 0.77236 0.33528 0.0
H1125 H 0.81184 0.058 0.3517 0.0
H1126 H 0.84036 0.05209 0.40972 0.0
H1127 H 0.81042 0.99925 0.40467 0.0
H1128 H 0.73844 0.99802 0.35057 0.0
H1129 H 0.73703 0.98658 0.3255 0.0
H1130 H 0.75896 0.02375 0.33433 0.0
H1131 H 0.80277 0.02389 0.32159 0.0
H1132 H 0.78105 0.98672 0.31285 0.0
H1133 H 0.81241 0.99845 0.32933 0.0
H1134 H 0.78001 0.94718 0.39233 0.0
H1135 H 0.75054 0.89971 0.37411 0.0
H1136 H 0.7413 0.93955 0.32408 0.0
C1137 C 0.81128 0.04548 0.36342 0.0
C1138 C 0.82795 0.05874 0.38116 0.0
C1139 C 0.82735 0.04203 0.39612 0.0
C1140 C 0.81049 0.01213 0.39335 0.0
C1141 C 0.79444 0.9995 0.37554 0.0
C1142 C 0.79456 0.01566 0.36087 0.0
C1143 C 0.77633 0.99686 0.34286 0.0
C1144 C 0.7512 1.00159 0.33804 0.0
C1145 C 0.79422 1.00178 0.32565 0.0
C1146 C 0.76631 0.96756 0.34954 0.0
C1147 C 0.7769 0.96956 0.36847 0.0
C1148 C 0.77136 0.94539 0.37759 0.0
C1149 C 0.75458 0.91851 0.36712 0.0
C1150 C 0.74345 0.91597 0.34775 0.0
C1151 C 0.74937 0.94086 0.33891 0.0
H1152 H 0.02751 0.85038 0.42369 0.0
H1153 H 0.95699 0.80223 0.37956 0.0
H1154 H 0.99072 0.80507 0.35605 0.0
H1155 H 0.0792 0.89751 0.39146 0.0
H1156 H 0.1086 0.89713 0.40437 0.0
H1157 H 0.0792 0.89351 0.417 0.0
H1158 H 0.07216 0.84626 0.42889 0.0
H1159 H 0.10142 0.84975 0.4162 0.0
H1160 H 0.06704 0.81783 0.41144 0.0
H1161 H 0.03207 0.81058 0.33818 0.0
H1162 H 0.07747 0.81891 0.32696 0.0
H1163 H 0.12115 0.86329 0.38309 0.0
C1164 C 0.01935 0.84102 0.40892 0.0
C1165 C 0.98986 0.82645 0.40318 0.0
C1166 C 0.97962 0.81382 0.384 0.0
C1167 C 0.99861 0.81529 0.37064 0.0
C1168 C 0.02767 0.82948 0.37679 0.0
C1169 C 0.03802 0.84232 0.39546 0.0
C1170 C 0.07002 0.85513 0.39868 0.0
C1171 C 0.08514 0.88775 0.40313 0.0
C1172 C 0.07812 0.84141 0.41475 0.0
C1173 C 0.076 0.84693 0.37906 0.0
C1174 C 0.05136 0.83237 0.36659 0.0
C1175 C 0.0515 0.82213 0.34779 0.0
C1176 C 0.07745 0.82694 0.34156 0.0
C1177 C 0.10301 0.84175 0.3541 0.0
C1178 C 0.1021 0.8519 0.37309 0.0
H1179 H 0.26041 0.22879 0.38651 0.0
H1180 H 0.18078 0.1536 0.3949 0.0
H1181 H 0.15452 0.17744 0.38402 0.0
H1182 H 0.23829 0.28254 0.40083 0.0
H1183 H 0.25767 0.3052 0.38275 0.0
H1184 H 0.27033 0.28396 0.39395 0.0
H1185 H 0.27019 0.26133 0.36009 0.0
H1186 H 0.25726 0.28223 0.34884 0.0
H1187 H 0.23783 0.24389 0.34398 0.0
H1188 H 0.1369 0.20637 0.36811 0.0
H1189 H 0.12877 0.23948 0.34963 0.0
H1190 H 0.2198 0.2971 0.35209 0.0
C1191 C 0.23751 0.21785 0.38663 0.0
C1192 C 0.22242 0.18966 0.39177 0.0
C1193 C 0.19252 0.17542 0.39128 0.0
C1194 C 0.17752 0.18879 0.38511 0.0
C1195 C 0.19288 0.21643 0.37966 0.0
C1196 C 0.22225 0.23101 0.3806 0.0
C1197 C 0.2334 0.2597 0.37255 0.0
C1198 C 0.25096 0.28431 0.38848 0.0
C1199 C 0.25068 0.26189 0.35534 0.0
C1200 C 0.2057 0.25839 0.36613 0.0
C1201 C 0.18262 0.23336 0.37057 0.0
C1202 C 0.15479 0.22625 0.36487 0.0
C1203 C 0.15039 0.24509 0.35426 0.0
C1204 C 0.17368 0.27079 0.34951 0.0
C1205 C 0.20167 0.27773 0.35577 0.0
H1206 H 0.66714 0.53501 0.75551 0.0
H1207 H 0.60862 0.51038 0.70368 0.0
H1208 H 0.64689 0.54656 0.68677 0.0
H1209 H 0.70648 0.61175 0.74988 0.0
H1210 H 0.7404 0.61626 0.75858 0.0
H1211 H 0.70828 0.5891 0.76719 0.0
H1212 H 0.72085 0.55068 0.75635 0.0
H1213 H 0.75306 0.57775 0.74782 0.0
H1214 H 0.72787 0.54712 0.73164 0.0
H1215 H 0.6916 0.58366 0.67477 0.0
H1216 H 0.74003 0.6201 0.66867 0.0
H1217 H 0.77019 0.62213 0.72819 0.0
C1218 C 0.66232 0.5375 0.74068 0.0
C1219 C 0.63482 0.51955 0.7309 0.0
C1220 C 0.62954 0.52341 0.71142 0.0
C1221 C 0.65113 0.54408 0.7017 0.0
C1222 C 0.67802 0.56104 0.7116 0.0
C1223 C 0.68375 0.55816 0.73069 0.0
C1224 C 0.71483 0.57879 0.73771 0.0
C1225 C 0.71764 0.60025 0.75433 0.0
C1226 C 0.73004 0.56261 0.74373 0.0
C1227 C 0.72559 0.59339 0.71953 0.0
C1228 C 0.70394 0.58283 0.70468 0.0
C1229 C 0.70871 0.59226 0.68632 0.0
C1230 C 0.73635 0.61297 0.68298 0.0
C1231 C 0.759 0.62416 0.69792 0.0
C1232 C 0.75336 0.61427 0.71648 0.0
H1233 H 0.49278 0.1352 0.75957 0.0
H1234 H 0.48327 0.0691 0.71667 0.0
H1235 H 0.44121 0.06788 0.70036 0.0
H1236 H 0.41593 0.10937 0.76142 0.0
H1237 H 0.42112 0.14493 0.76367 0.0
H1238 H 0.44876 0.13867 0.77322 0.0
H1239 H 0.48439 0.17668 0.75279 0.0
H1240 H 0.45685 0.18297 0.74316 0.0
H1241 H 0.47598 0.17325 0.72699 0.0
H1242 H 0.40281 0.07619 0.68723 0.0
H1243 H 0.37048 0.09381 0.67782 0.0
H1244 H 0.4044 0.15502 0.72891 0.0
C1245 C 0.48141 0.12008 0.74699 0.0
C1246 C 0.49114 0.10212 0.7394 0.0
C1247 C 0.47615 0.08304 0.72267 0.0
C1248 C 0.45219 0.08213 0.71336 0.0
C1249 C 0.44341 0.10045 0.72094 0.0
C1250 C 0.45747 0.11907 0.73738 0.0
C1251 C 0.44466 0.13781 0.74166 0.0
C1252 C 0.43185 0.13236 0.76115 0.0
C1253 C 0.46679 0.16955 0.74111 0.0
C1254 C 0.4216 0.12711 0.72488 0.0
C1255 C 0.42116 0.1054 0.71322 0.0
C1256 C 0.40274 0.09298 0.69635 0.0
C1257 C 0.38448 0.10321 0.6911 0.0
C1258 C 0.38472 0.12571 0.70265 0.0
C1259 C 0.40334 0.1375 0.71991 0.0
H1260 H 0.8416 0.36161 0.72352 0.0
H1261 H 0.92038 0.38725 0.75855 0.0
H1262 H 0.91977 0.34368 0.74503 0.0
H1263 H 0.80973 0.28509 0.72872 0.0
H1264 H 0.79236 0.27463 0.70442 0.0
H1265 H 0.79886 0.30747 0.71719 0.0
H1266 H 0.8259 0.33538 0.68915 0.0
H1267 H 0.81958 0.30265 0.67635 0.0
H1268 H 0.8554 0.33221 0.68163 0.0
H1269 H 0.91271 0.29964 0.72522 0.0
H1270 H 0.89736 0.25619 0.7031 0.0
H1271 H 0.82076 0.25667 0.68347 0.0
C1272 C 0.85859 0.35788 0.72838 0.0
C1273 C 0.88112 0.37772 0.74198 0.0
C1274 C 0.90292 0.37217 0.74818 0.0
C1275 C 0.90276 0.34757 0.74055 0.0
C1276 C 0.88037 0.32851 0.72701 0.0
C1277 C 0.85843 0.33314 0.72122 0.0
C1278 C 0.83673 0.30919 0.70664 0.0
C1279 C 0.8077 0.29315 0.71473 0.0
C1280 C 0.83428 0.32055 0.6873 0.0
C1281 C 0.85022 0.29072 0.70475 0.0
C1282 C 0.87545 0.30229 0.71654 0.0
C1283 C 0.89261 0.29 0.71632 0.0
C1284 C 0.88363 0.26516 0.70383 0.0
C1285 C 0.85744 0.25245 0.6921 0.0
C1286 C 0.84063 0.26554 0.69258 0.0
H1287 H 0.20723 0.98325 0.61268 0.0
H1288 H 0.13516 0.95466 0.64679 0.0
H1289 H 0.16341 0.99703 0.67027 0.0
H1290 H 0.26199 0.01248 0.65169 0.0
H1291 H 0.2862 0.04273 0.63976 0.0
H1292 H 0.26057 0.00997 0.62566 0.0
H1293 H 0.24092 0.03721 0.6066 0.0
H1294 H 0.26692 0.06997 0.62052 0.0
H1295 H 0.22971 0.05891 0.6197 0.0
H1296 H 0.19988 0.04218 0.6905 0.0
H1297 H 0.24103 0.08773 0.70515 0.0
H1298 H 0.28845 0.0885 0.65707 0.0
C1299 C 0.19705 0.98596 0.62488 0.0
C1300 C 0.16873 0.96524 0.62775 0.0
C1301 C 0.15683 0.9697 0.64429 0.0
C1302 C 0.17269 0.9939 0.65768 0.0
C1303 C 0.20041 0.01374 0.65434 0.0
C1304 C 0.21242 0.01018 0.63825 0.0
C1305 C 0.24259 0.03486 0.63795 0.0
C1306 C 0.2641 0.02437 0.63882 0.0
C1307 C 0.24516 0.0512 0.62013 0.0
C1308 C 0.24571 0.05281 0.65645 0.0
C1309 C 0.22117 0.04014 0.66572 0.0
C1310 C 0.21911 0.05234 0.68329 0.0
C1311 C 0.24264 0.07819 0.69152 0.0
C1312 C 0.26786 0.09178 0.68216 0.0
C1313 C 0.26935 0.07881 0.66441 0.0
H1314 H 0.02537 0.18225 0.61424 0.0
H1315 H 0.05849 0.26876 0.59834 0.0
H1316 H 0.01836 0.27016 0.61158 0.0
H1317 H 0.95101 0.15847 0.6057 0.0
H1318 H 0.94151 0.13868 0.62659 0.0
H1319 H 0.97192 0.14354 0.61474 0.0
H1320 H 1.00386 0.16575 0.64713 0.0
H1321 H 0.97354 0.16095 0.65909 0.0
H1322 H 1.00479 0.19586 0.66025 0.0
H1323 H 0.97393 0.26205 0.62589 0.0
H1324 H 0.93025 0.24605 0.64257 0.0
H1325 H 0.92878 0.16736 0.65255 0.0
C1326 C 0.02454 0.20169 0.61364 0.0
C1327 C 0.04527 0.22523 0.60483 0.0
C1328 C 0.0427 0.24998 0.60434 0.0
C1329 C 0.02003 0.25115 0.61204 0.0
C1330 C 1.00017 0.22764 0.62057 0.0
C1331 C 1.00235 0.20349 0.62164 0.0
C1332 C 0.97873 0.18162 0.63232 0.0
C1333 C 0.95967 0.15394 0.61904 0.0
C1334 C 0.99097 0.17571 0.65079 0.0
C1335 C 0.96296 0.19728 0.63708 0.0
C1336 C 0.97549 0.22366 0.62992 0.0
C1337 C 0.96414 0.24161 0.63176 0.0
C1338 C 0.93941 0.23241 0.64123 0.0
C1339 C 0.92666 0.20582 0.64904 0.0
C1340 C 0.93857 0.18804 0.64698 0.0
H1341 H 0.78082 0.79938 0.61047 0.0
H1342 H 0.82435 0.87413 0.65249 0.0
H1343 H 0.84018 0.84827 0.67292 0.0
H1344 H 0.75671 0.7473 0.6431 0.0
H1345 H 0.76311 0.7223 0.62928 0.0
H1346 H 0.75605 0.74684 0.61714 0.0
H1347 H 0.80329 0.76579 0.6013 0.0
H1348 H 0.81015 0.74092 0.61321 0.0
H1349 H 0.83611 0.7785 0.61639 0.0
H1350 H 0.84737 0.81352 0.69034 0.0
H1351 H 0.84959 0.77273 0.70244 0.0
H1352 H 0.80557 0.72135 0.64835 0.0
C1353 C 0.7942 0.81058 0.62374 0.0
C1354 C 0.80089 0.83878 0.62994 0.0
C1355 C 0.81821 0.85236 0.64759 0.0
C1356 C 0.82757 0.83793 0.65926 0.0
C1357 C 0.82 0.81004 0.65297 0.0
C1358 C 0.80419 0.7966 0.63548 0.0
C1359 C 0.7988 0.7663 0.63237 0.0
C1360 C 0.76676 0.7444 0.63036 0.0
C1361 C 0.81294 0.76268 0.61477 0.0
C1362 C 0.81343 0.76467 0.65109 0.0
C1363 C 0.82541 0.79019 0.66274 0.0
C1364 C 0.8385 0.79358 0.68125 0.0
C1365 C 0.83951 0.7703 0.68803 0.0
C1366 C 0.82781 0.74414 0.67627 0.0
C1367 C 0.81486 0.74131 0.65749 0.0
H1368 H 0.05895 0.80702 0.64513 0.0
H1369 H 0.04202 0.87278 0.62762 0.0
H1370 H 0.99557 0.8487 0.64134 0.0
H1371 H 0.99007 0.74938 0.63329 0.0
H1372 H 0.98985 0.72992 0.65347 0.0
H1373 H 0.02296 0.75389 0.64435 0.0
H1374 H 0.04295 0.78128 0.67843 0.0
H1375 H 0.00991 0.75726 0.6877 0.0
H1376 H 0.02361 0.79523 0.69079 0.0
H1377 H 0.94898 0.81463 0.65334 0.0
H1378 H 0.90622 0.77417 0.6642 0.0
H1379 H 0.95332 0.73075 0.6752 0.0
C1380 C 0.04572 0.81669 0.64472 0.0
C1381 C 0.05407 0.84197 0.63568 0.0
C1382 C 0.03607 0.85369 0.63482 0.0
C1383 C 0.00967 0.8401 0.64252 0.0
C1384 C 1.00172 0.81488 0.6511 0.0
C1385 C 0.01933 0.80341 0.65243 0.0
C1386 C 1.005 0.77523 0.66137 0.0
C1387 C 1.00178 0.75066 0.64728 0.0
C1388 C 0.02134 0.77739 0.68072 0.0
C1389 C 0.97631 0.77225 0.66441 0.0
C1390 C 0.97495 0.79545 0.65842 0.0
C1391 C 0.95002 0.79669 0.65843 0.0
C1392 C 0.92585 0.77364 0.6646 0.0
C1393 C 0.92675 0.74976 0.67087 0.0
C1394 C 0.95238 0.74916 0.67097 0.0
H1395 H 0.17075 0.17184 0.60212 0.0
H1396 H 0.17808 0.24305 0.63853 0.0
H1397 H 0.22155 0.24892 0.65649 0.0
H1398 H 0.19008 0.14137 0.63827 0.0
H1399 H 0.21011 0.13044 0.62389 0.0
H1400 H 0.18175 0.13396 0.6124 0.0
H1401 H 0.2165 0.16917 0.59014 0.0
H1402 H 0.24493 0.16552 0.60148 0.0
H1403 H 0.24879 0.2004 0.60074 0.0
H1404 H 0.26058 0.24323 0.67283 0.0
H1405 H 0.29445 0.22868 0.68501 0.0
H1406 H 0.26261 0.16181 0.6374 0.0
C1407 C 0.18212 0.18919 0.61349 0.0
C1408 C 0.17162 0.20739 0.61884 0.0
C1409 C 0.18629 0.22932 0.6341 0.0
C1410 C 0.21088 0.2327 0.64438 0.0
C1411 C 0.22049 0.21403 0.6391 0.0
C1412 C 0.20681 0.19293 0.62382 0.0
C1413 C 0.22061 0.1747 0.6218 0.0
C1414 C 0.19937 0.14327 0.62424 0.0
C1415 C 0.23347 0.17764 0.60239 0.0
C1416 C 0.24363 0.18834 0.63862 0.0
C1417 C 0.24325 0.21101 0.64838 0.0
C1418 C 0.26138 0.22581 0.66511 0.0
C1419 C 0.28045 0.21729 0.67198 0.0
C1420 C 0.28138 0.19425 0.66212 0.0
C1421 C 0.26277 0.17979 0.64513 0.0
H1422 H 0.79745 0.96639 0.6599 0.0
H1423 H 0.76894 0.96427 0.60017 0.0
H1424 H 0.78544 0.01617 0.60516 0.0
H1425 H 0.77609 0.01349 0.67974 0.0
H1426 H 0.80617 0.03175 0.69778 0.0
H1427 H 0.7935 0.99518 0.689 0.0
H1428 H 0.8437 0.00895 0.67938 0.0
H1429 H 0.85656 0.04556 0.68823 0.0
H1430 H 0.86069 0.03683 0.66369 0.0
H1431 H 0.8043 0.06864 0.6176 0.0
H1432 H 0.82369 0.11609 0.63608 0.0
H1433 H 0.83854 0.08234 0.68753 0.0
C1434 C 0.79502 0.97703 0.64785 0.0
C1435 C 0.78224 0.96177 0.62965 0.0
C1436 C 0.77896 0.97595 0.61418 0.0
C1437 C 0.78822 0.00531 0.61692 0.0
C1438 C 0.80062 0.01988 0.6352 0.0
C1439 C 0.80407 0.00613 0.65036 0.0
C1440 C 0.81725 0.02615 0.66871 0.0
C1441 C 0.79704 0.01604 0.68475 0.0
C1442 C 0.84627 0.02957 0.67539 0.0
C1443 C 0.82052 0.05333 0.66165 0.0
C1444 C 0.81093 0.04947 0.64229 0.0
C1445 C 0.81173 0.07178 0.63278 0.0
C1446 C 0.82249 0.09859 0.64339 0.0
C1447 C 0.83211 0.10271 0.66325 0.0
C1448 C 0.83125 0.07979 0.67235 0.0
H1449 H 0.47499 0.36954 0.72236 0.0
H1450 H 0.54421 0.35469 0.73796 0.0
H1451 H 0.51191 0.30271 0.73006 0.0
H1452 H 0.41659 0.30112 0.73956 0.0
H1453 H 0.39164 0.29685 0.7197 0.0
H1454 H 0.41883 0.33212 0.72976 0.0
H1455 H 0.43571 0.34389 0.69571 0.0
H1456 H 0.40894 0.30863 0.68562 0.0
H1457 H 0.4458 0.32136 0.68244 0.0
H1458 H 0.47497 0.25415 0.71483 0.0
H1459 H 0.43449 0.21153 0.69635 0.0
H1460 H 0.38766 0.25648 0.69218 0.0
C1461 C 0.48288 0.35512 0.72492 0.0
C1462 C 0.51182 0.36583 0.7312 0.0
C1463 C 0.5219 0.34667 0.73363 0.0
C1464 C 0.50373 0.31716 0.72909 0.0
C1465 C 0.47545 0.30718 0.7223 0.0
C1466 C 0.46486 0.32549 0.72061 0.0
C1467 C 0.43423 0.30948 0.71156 0.0
C1468 C 0.41413 0.30992 0.72601 0.0
C1469 C 0.43101 0.32156 0.69272 0.0
C1470 C 0.42973 0.27965 0.70758 0.0
C1471 C 0.45375 0.27879 0.71398 0.0
C1472 C 0.45581 0.25439 0.71021 0.0
C1473 C 0.43281 0.23036 0.6996 0.0
C1474 C 0.40796 0.23071 0.69307 0.0
C1475 C 0.40623 0.25552 0.6974 0.0
H1476 H 0.63303 0.11442 0.70007 0.0
H1477 H 0.65347 0.13196 0.76218 0.0
H1478 H 0.70322 0.14421 0.75811 0.0
H1479 H 0.67761 0.08324 0.69086 0.0
H1480 H 0.6877 0.09906 0.66848 0.0
H1481 H 0.65371 0.09041 0.6765 0.0
H1482 H 0.66589 0.14273 0.67443 0.0
H1483 H 0.69992 0.15156 0.66647 0.0
H1484 H 0.69805 0.17134 0.68748 0.0
H1485 H 0.75102 0.15643 0.74687 0.0
H1486 H 0.79315 0.16739 0.72993 0.0
H1487 H 0.74148 0.14183 0.67471 0.0
C1488 C 0.64798 0.1205 0.7128 0.0
C1489 C 0.63965 0.12206 0.73146 0.0
C1490 C 0.6596 0.13045 0.74782 0.0
C1491 C 0.68781 0.13744 0.7456 0.0
C1492 C 0.6955 0.1359 0.72693 0.0
C1493 C 0.67612 0.12754 0.71081 0.0
C1494 C 0.68992 0.12845 0.69232 0.0
C1495 C 0.67643 0.09851 0.6814 0.0
C1496 C 0.68835 0.14979 0.67942 0.0
C1497 C 0.72024 0.13887 0.70047 0.0
C1498 C 0.72296 0.14296 0.72046 0.0
C1499 C 0.74904 0.15313 0.73125 0.0
C1500 C 0.77293 0.15934 0.72141 0.0
C1501 C 0.7708 0.15544 0.70089 0.0
C1502 C 0.74392 0.1449 0.69036 0.0
H1503 H 0.89992 0.52614 0.70285 0.0
H1504 H 0.86262 0.51495 0.75724 0.0
H1505 H 0.8551 0.55588 0.75275 0.0
H1506 H 0.93549 0.6049 0.70641 0.0
H1507 H 0.928 0.60526 0.6809 0.0
H1508 H 0.93282 0.5771 0.68945 0.0
H1509 H 0.88361 0.53944 0.6721 0.0
H1510 H 0.87858 0.56742 0.66358 0.0
H1511 H 0.85255 0.54132 0.67736 0.0
H1512 H 0.84825 0.59545 0.74079 0.0
H1513 H 0.8427 0.63045 0.72268 0.0
H1514 H 0.88479 0.61595 0.67599 0.0
C1515 C 0.89074 0.5328 0.71398 0.0
C1516 C 0.88214 0.5179 0.73051 0.0
C1517 C 0.86962 0.52652 0.74463 0.0
C1518 C 0.86529 0.54966 0.74216 0.0
C1519 C 0.87367 0.56382 0.72551 0.0
C1520 C 0.88628 0.55579 0.71171 0.0
C1521 C 0.89189 0.57336 0.69462 0.0
C1522 C 0.92396 0.59122 0.69274 0.0
C1523 C 0.87568 0.55424 0.67581 0.0
C1524 C 0.87992 0.59217 0.7007 0.0
C1525 C 0.8697 0.58649 0.71863 0.0
C1526 C 0.85649 0.60027 0.72687 0.0
C1527 C 0.85344 0.62014 0.71646 0.0
C1528 C 0.86349 0.62607 0.698 0.0
C1529 C 0.87718 0.61209 0.69016 0.0
H1530 H 0.49522 0.95468 0.23737 0.0
H1531 H 0.41631 0.87453 0.22254 0.0
H1532 H 0.42103 0.88095 0.18785 0.0
H1533 H 0.48397 0.99221 0.2018 0.0
H1534 H 0.52043 0.01187 0.19638 0.0
H1535 H 0.5124 0.99994 0.22002 0.0
H1536 H 0.54062 0.97341 0.21662 0.0
H1537 H 0.549 0.98552 0.19302 0.0
H1538 H 0.53185 0.94792 0.19592 0.0
H1539 H 0.4322 0.89783 0.15495 0.0
H1540 H 0.44979 0.92329 0.12611 0.0
H1541 H 0.52235 0.99189 0.16201 0.0
C1542 C 0.47931 0.93818 0.2268 0.0
C1543 C 0.45537 0.91411 0.23267 0.0
C1544 C 0.4347 0.89326 0.21838 0.0
C1545 C 0.43725 0.89665 0.19864 0.0
C1546 C 0.46069 0.92096 0.19334 0.0
C1547 C 0.48151 0.94127 0.20697 0.0
C1548 C 0.50387 0.96605 0.1974 0.0
C1549 C 0.50523 0.99417 0.20431 0.0
C1550 C 0.53307 0.96835 0.20095 0.0
C1551 C 0.49207 0.95674 0.17633 0.0
C1552 C 0.46724 0.9306 0.1743 0.0
C1553 C 0.45187 0.91812 0.15633 0.0
C1554 C 0.46214 0.93272 0.13998 0.0
C1555 C 0.48761 0.95959 0.14164 0.0
C1556 C 0.50273 0.97153 0.16015 0.0
H1557 H 0.08477 0.51099 0.2441 0.0
H1558 H 0.15679 0.59688 0.24549 0.0
H1559 H 0.14208 0.59919 0.2117 0.0
H1560 H 0.08614 0.48805 0.19413 0.0
H1561 H 0.04793 0.46748 0.18964 0.0
H1562 H 0.06486 0.47223 0.21365 0.0
H1563 H 0.03471 0.49287 0.22702 0.0
H1564 H 0.01772 0.48822 0.20307 0.0
H1565 H 0.03545 0.52289 0.21667 0.0
H1566 H 0.11883 0.59245 0.17792 0.0
H1567 H 0.08774 0.57787 0.14725 0.0
H1568 H 0.03116 0.4963 0.16796 0.0
C1569 C 0.09765 0.53014 0.23721 0.0
C1570 C 0.12196 0.55375 0.24741 0.0
C1571 C 0.13796 0.57864 0.238 0.0
C1572 C 0.12988 0.58008 0.21877 0.0
C1573 C 0.10574 0.55646 0.20916 0.0
C1574 C 0.08983 0.53198 0.21807 0.0
C1575 C 0.06423 0.50998 0.20478 0.0
C1576 C 0.0659 0.48283 0.20028 0.0
C1577 C 0.03638 0.5031 0.2134 0.0
C1578 C 0.06802 0.52603 0.18709 0.0
C1579 C 0.09223 0.5527 0.18982 0.0
C1580 C 0.0999 0.57155 0.17558 0.0
C1581 C 0.0822 0.56303 0.15816 0.0
C1582 C 0.05702 0.53597 0.15519 0.0
C1583 C 0.05012 0.51723 0.16984 0.0
H1584 H 0.46662 0.53343 0.22816 0.0
H1585 H 0.45776 0.60843 0.22802 0.0
H1586 H 0.45977 0.60728 0.19255 0.0
H1587 H 0.51737 0.55403 0.19554 0.0
H1588 H 0.50454 0.51883 0.18361 0.0
H1589 H 0.49821 0.523 0.20835 0.0
H1590 H 0.44401 0.48984 0.1994 0.0
H1591 H 0.45019 0.48539 0.1746 0.0
H1592 H 0.42618 0.49792 0.1803 0.0
H1593 H 0.46723 0.60046 0.15757 0.0
H1594 H 0.48101 0.58957 0.12638 0.0
H1595 H 0.48534 0.51919 0.14953 0.0
C1596 C 0.4642 0.54906 0.22056 0.0
C1597 C 0.46167 0.57082 0.23077 0.0
C1598 C 0.45958 0.59152 0.22043 0.0
C1599 C 0.46059 0.59095 0.20029 0.0
C1600 C 0.46374 0.56957 0.19071 0.0
C1601 C 0.46544 0.54895 0.20051 0.0
C1602 C 0.47135 0.52986 0.18718 0.0
C1603 C 0.49954 0.53155 0.19408 0.0
C1604 C 0.44644 0.49892 0.18526 0.0
C1605 C 0.47346 0.54339 0.16847 0.0
C1606 C 0.46858 0.56599 0.17069 0.0
C1607 C 0.47071 0.58256 0.1556 0.0
C1608 C 0.47844 0.57613 0.13789 0.0
C1609 C 0.48425 0.55351 0.13546 0.0
C1610 C 0.48119 0.53671 0.15093 0.0
H1611 H 0.93278 0.47401 0.801 0.0
H1612 H 0.84262 0.41337 0.79851 0.0
H1613 H 0.84561 0.41741 0.83431 0.0
H1614 H 0.95317 0.44725 0.83872 0.0
H1615 H 0.98116 0.48109 0.85031 0.0
H1616 H 0.97124 0.47716 0.82475 0.0
H1617 H 0.96194 0.51943 0.82889 0.0
H1618 H 0.97211 0.5237 0.8545 0.0
H1619 H 0.93795 0.51872 0.84593 0.0
H1620 H 0.85946 0.42388 0.87009 0.0
H1621 H 0.88296 0.43188 0.90305 0.0
H1622 H 0.96447 0.48851 0.88251 0.0
C1623 C 0.91358 0.46244 0.80809 0.0
C1624 C 0.88732 0.44391 0.79717 0.0
C1625 C 0.86275 0.42811 0.80676 0.0
C1626 C 0.86429 0.43025 0.82704 0.0
C1627 C 0.89063 0.44825 0.8375 0.0
C1628 C 0.91483 0.46422 0.82836 0.0
C1629 C 0.94092 0.47988 0.84291 0.0
C1630 C 0.9629 0.47079 0.83893 0.0
C1631 C 0.954 0.51236 0.84307 0.0
C1632 C 0.92777 0.46952 0.86154 0.0
C1633 C 0.89869 0.45162 0.85815 0.0
C1634 C 0.88216 0.43825 0.87297 0.0
C1635 C 0.89572 0.44304 0.89171 0.0
C1636 C 0.92561 0.46091 0.89551 0.0
C1637 C 0.94163 0.4746 0.88016 0.0
H1638 H 0.56347 0.44613 0.79814 0.0
H1639 H 0.58359 0.52897 0.78033 0.0
H1640 H 0.57151 0.54132 0.81159 0.0
H1641 H 0.50315 0.43468 0.8232 0.0
H1642 H 0.51051 0.41764 0.84237 0.0
H1643 H 0.52156 0.41537 0.81875 0.0
H1644 H 0.57341 0.4364 0.83391 0.0
H1645 H 0.56253 0.43884 0.85758 0.0
H1646 H 0.59051 0.47015 0.84865 0.0
H1647 H 0.5563 0.5447 0.84427 0.0
H1648 H 0.53848 0.53862 0.87645 0.0
H1649 H 0.52753 0.45363 0.87371 0.0
C1650 C 0.5653 0.46684 0.80082 0.0
C1651 C 0.57489 0.4867 0.78677 0.0
C1652 C 0.57697 0.5136 0.79093 0.0
C1653 C 0.56997 0.52079 0.80864 0.0
C1654 C 0.56083 0.50089 0.82218 0.0
C1655 C 0.55843 0.47446 0.81854 0.0
C1656 C 0.54766 0.45697 0.83561 0.0
C1657 C 0.51902 0.42954 0.82962 0.0
C1658 C 0.56986 0.45019 0.84446 0.0
C1659 C 0.5442 0.47765 0.84928 0.0
C1660 C 0.55197 0.50286 0.84119 0.0
C1661 C 0.55016 0.52506 0.85076 0.0
C1662 C 0.53989 0.52136 0.86901 0.0
C1663 C 0.53152 0.49565 0.87762 0.0
C1664 C 0.53403 0.47364 0.86762 0.0
H1665 H 0.50418 0.06185 0.79504 0.0
H1666 H 0.59371 0.12645 0.80186 0.0
H1667 H 0.59664 0.11719 0.83613 0.0
H1668 H 0.48797 0.07839 0.8416 0.0
H1669 H 0.46318 0.04165 0.8447 0.0
H1670 H 0.46859 0.05313 0.82077 0.0
H1671 H 0.48119 0.01427 0.81104 0.0
H1672 H 0.47582 1.00267 0.83493 0.0
H1673 H 0.50919 0.01297 0.82521 0.0
H1674 H 0.58898 0.10098 0.87034 0.0
H1675 H 0.57207 0.07829 0.9004 0.0
H1676 H 0.48733 0.02556 0.87075 0.0
C1677 C 0.52441 0.0743 0.80372 0.0
C1678 C 0.54869 0.09507 0.79569 0.0
C1679 C 0.57484 0.11031 0.80757 0.0
C1680 C 0.57666 0.1053 0.82711 0.0
C1681 C 0.55216 0.08492 0.83457 0.0
C1682 C 0.52657 0.06961 0.82316 0.0
C1683 C 0.5033 0.04883 0.83449 0.0
C1684 C 0.47935 0.05594 0.83545 0.0
C1685 C 0.4917 0.01786 0.82591 0.0
C1686 C 0.51969 0.05475 0.85412 0.0
C1687 C 0.54784 0.07565 0.85397 0.0
C1688 C 0.56697 0.08461 0.87056 0.0
C1689 C 0.55711 0.07171 0.88763 0.0
C1690 C 0.52836 0.04999 0.88803 0.0
C1691 C 0.50953 0.04172 0.87097 0.0
H1692 H 0.12441 0.22626 0.54097 0.0
H1693 H 0.11807 0.29545 0.57005 0.0
H1694 H 0.13685 0.3239 0.54257 0.0
H1695 H 0.19014 0.27121 0.51933 0.0
H1696 H 0.17907 0.24811 0.49709 0.0
H1697 H 0.16606 0.23342 0.51936 0.0
H1698 H 0.11426 0.21116 0.50375 0.0
H1699 H 0.12711 0.22595 0.48148 0.0
H1700 H 0.10283 0.23379 0.49324 0.0
H1701 H 0.1548 0.34439 0.51181 0.0
H1702 H 0.17172 0.35621 0.47973 0.0
H1703 H 0.16724 0.27428 0.47005 0.0
C1704 C 0.12736 0.24754 0.54164 0.0
C1705 C 0.11968 0.2586 0.55767 0.0
C1706 C 0.1235 0.28641 0.55786 0.0
C1707 C 0.13425 0.30279 0.54235 0.0
C1708 C 0.14115 0.29113 0.52666 0.0
C1709 C 0.13798 0.26421 0.52615 0.0
C1710 C 0.1465 0.25665 0.50726 0.0
C1711 C 0.17196 0.25208 0.51099 0.0
C1712 C 0.12116 0.23032 0.49576 0.0
C1713 C 0.1548 0.28347 0.49724 0.0
C1714 C 0.1516 0.30306 0.50876 0.0
C1715 C 0.15763 0.32933 0.50272 0.0
C1716 C 0.16739 0.3359 0.48447 0.0
C1717 C 0.17113 0.31636 0.47235 0.0
C1718 C 0.16452 0.28967 0.47888 0.0
H1719 H 0.77775 0.90073 0.56055 0.0
H1720 H 0.75203 0.81221 0.56697 0.0
H1721 H 0.73605 0.79982 0.53219 0.0
H1722 H 0.71856 0.88597 0.52858 0.0
H1723 H 0.738 0.91501 0.5142 0.0
H1724 H 0.75036 0.91773 0.5392 0.0
H1725 H 0.79936 0.92768 0.52931 0.0
H1726 H 0.78716 0.92505 0.50425 0.0
H1727 H 0.80106 0.90285 0.51186 0.0
H1728 H 0.71911 0.79602 0.49745 0.0
H1729 H 0.7032 0.80138 0.46482 0.0
H1730 H 0.73874 0.892 0.48084 0.0
C1731 C 0.76898 0.87877 0.55464 0.0
C1732 C 0.76645 0.85753 0.56658 0.0
C1733 C 0.75486 0.82905 0.55815 0.0
C1734 C 0.74552 0.82173 0.53839 0.0
C1735 C 0.74789 0.84307 0.52716 0.0
C1736 C 0.75945 0.87104 0.53493 0.0
C1737 C 0.75818 0.88957 0.51986 0.0
C1738 C 0.7402 0.90284 0.52582 0.0
C1739 C 0.78823 0.91265 0.5161 0.0
C1740 C 0.74355 0.8675 0.50252 0.0
C1741 C 0.73797 0.84086 0.50704 0.0
C1742 C 0.72356 0.81681 0.49369 0.0
C1743 C 0.71445 0.82003 0.47525 0.0
C1744 C 0.71972 0.84708 0.47031 0.0
C1745 C 0.73476 0.87114 0.48412 0.0
H1746 H 0.15147 0.87999 0.55653 0.0
H1747 H 0.14372 0.95575 0.55729 0.0
H1748 H 0.1522 0.95893 0.52276 0.0
H1749 H 0.2076 0.90324 0.52579 0.0
H1750 H 0.19445 0.8684 0.51316 0.0
H1751 H 0.18687 0.87163 0.53773 0.0
H1752 H 0.13291 0.83983 0.52722 0.0
H1753 H 0.14032 0.8365 0.50261 0.0
H1754 H 0.11674 0.84966 0.50809 0.0
H1755 H 0.16193 0.95393 0.48799 0.0
H1756 H 0.17428 0.94252 0.45638 0.0
H1757 H 0.1754 0.86983 0.47831 0.0
C1758 C 0.15124 0.89708 0.54939 0.0
C1759 C 0.14686 0.91761 0.55966 0.0
C1760 C 0.14727 0.93993 0.54981 0.0
C1761 C 0.15189 0.9418 0.53015 0.0
C1762 C 0.15615 0.92122 0.52049 0.0
C1763 C 0.15597 0.89934 0.5298 0.0
C1764 C 0.16193 0.88045 0.51628 0.0
C1765 C 0.18934 0.88098 0.52368 0.0
C1766 C 0.13645 0.84979 0.51338 0.0
C1767 C 0.16566 0.89519 0.49793 0.0
C1768 C 0.16204 0.91854 0.5006 0.0
C1769 C 0.1647 0.93562 0.48574 0.0
C1770 C 0.17155 0.92885 0.46776 0.0
C1771 C 0.17584 0.90527 0.46477 0.0
C1772 C 0.17256 0.88816 0.48012 0.0
H1773 H 0.57918 0.75849 0.12297 0.0
H1774 H 0.64615 0.83209 0.09951 0.0
H1775 H 0.67321 0.84878 0.1317 0.0
H1776 H 0.58358 0.7945 0.16957 0.0
H1777 H 0.57732 0.76458 0.18273 0.0
H1778 H 0.56262 0.75863 0.15792 0.0
H1779 H 0.58738 0.72991 0.1491 0.0
H1780 H 0.60207 0.7357 0.17388 0.0
H1781 H 0.62526 0.74611 0.15479 0.0
H1782 H 0.69371 0.85697 0.16597 0.0
H1783 H 0.7064 0.85619 0.20043 0.0
H1784 H 0.62666 0.77712 0.20196 0.0
C1785 C 0.59957 0.77807 0.1246 0.0
C1786 C 0.61043 0.79409 0.1087 0.0
C1787 C 0.63713 0.81972 0.1115 0.0
C1788 C 0.65275 0.82931 0.12972 0.0
C1789 C 0.64144 0.81307 0.14505 0.0
C1790 C 0.61548 0.78802 0.14273 0.0
C1791 C 0.60843 0.77447 0.1616 0.0
C1792 C 0.58138 0.77297 0.16835 0.0
C1793 C 0.60563 0.74479 0.15973 0.0
C1794 C 0.6346 0.79573 0.17482 0.0
C1795 C 0.65332 0.81783 0.16494 0.0
C1796 C 0.67923 0.83979 0.17388 0.0
C1797 C 0.68631 0.83908 0.19342 0.0
C1798 C 0.66758 0.81656 0.20386 0.0
C1799 C 0.64127 0.79475 0.19441 0.0
H1800 H 0.24831 0.84071 0.12335 0.0
H1801 H 0.23831 0.75643 0.12329 0.0
H1802 H 0.22675 0.7546 0.15724 0.0
H1803 H 0.27762 0.86586 0.17487 0.0
H1804 H 0.25809 0.88432 0.17795 0.0
H1805 H 0.26927 0.88056 0.15462 0.0
H1806 H 0.21716 0.85707 0.13939 0.0
H1807 H 0.20578 0.86049 0.16267 0.0
H1808 H 0.18992 0.82597 0.14901 0.0
H1809 H 0.21236 0.76017 0.1901 0.0
H1810 H 0.1957 0.77234 0.21942 0.0
H1811 H 0.21407 0.85292 0.19829 0.0
C1812 C 0.24452 0.82231 0.13076 0.0
C1813 C 0.2447 0.7989 0.12092 0.0
C1814 C 0.23865 0.77469 0.13074 0.0
C1815 C 0.23205 0.77348 0.14999 0.0
C1816 C 0.23139 0.79661 0.1592 0.0
C1817 C 0.23753 0.82063 0.14995 0.0
C1818 C 0.23305 0.8415 0.16262 0.0
C1819 C 0.26119 0.86973 0.16783 0.0
C1820 C 0.21011 0.84654 0.15283 0.0
C1821 C 0.22292 0.82523 0.18024 0.0
C1822 C 0.22244 0.79955 0.17804 0.0
C1823 C 0.21299 0.78039 0.19208 0.0
C1824 C 0.20367 0.78759 0.20877 0.0
C1825 C 0.20365 0.81368 0.21133 0.0
C1826 C 0.21363 0.83275 0.19681 0.0
H1827 H 0.17929 0.43852 0.13994 0.0
H1828 H 0.22334 0.39757 0.11598 0.0
H1829 H 0.21747 0.37243 0.14538 0.0
H1830 H 0.20777 0.44848 0.18915 0.0
H1831 H 0.17516 0.44104 0.19899 0.0
H1832 H 0.18298 0.45586 0.17613 0.0
H1833 H 0.13521 0.4138 0.15987 0.0
H1834 H 0.1272 0.3989 0.18269 0.0
H1835 H 0.12728 0.37765 0.16184 0.0
H1836 H 0.20663 0.35168 0.17768 0.0
H1837 H 0.19107 0.33642 0.20969 0.0
H1838 H 0.15362 0.39063 0.21223 0.0
C1839 C 0.18738 0.42396 0.14067 0.0
C1840 C 0.20169 0.41998 0.12548 0.0
C1841 C 0.21251 0.40122 0.12741 0.0
C1842 C 0.20917 0.38673 0.14404 0.0
C1843 C 0.19494 0.39119 0.15868 0.0
C1844 C 0.18416 0.40931 0.15712 0.0
C1845 C 0.16972 0.41044 0.17487 0.0
C1846 C 0.18482 0.44076 0.18541 0.0
C1847 C 0.13797 0.39954 0.16949 0.0
C1848 C 0.17394 0.39002 0.18669 0.0
C1849 C 0.18863 0.37922 0.17714 0.0
C1850 C 0.19517 0.36006 0.18527 0.0
C1851 C 0.18638 0.35166 0.20355 0.0
C1852 C 0.17112 0.36231 0.21358 0.0
C1853 C 0.16495 0.38181 0.20492 0.0
H1854 H 0.80831 0.62492 0.89792 0.0
H1855 H 0.71712 0.57691 0.88265 0.0
H1856 H 0.72377 0.59823 0.85147 0.0
H1857 H 0.82204 0.68962 0.87415 0.0
H1858 H 0.85528 0.69485 0.86665 0.0
H1859 H 0.8428 0.67875 0.88863 0.0
H1860 H 0.84652 0.63498 0.87604 0.0
H1861 H 0.85879 0.65079 0.854 0.0
H1862 H 0.82791 0.61565 0.85304 0.0
H1863 H 0.74117 0.62025 0.82042 0.0
H1864 H 0.7675 0.64293 0.79276 0.0
H1865 H 0.84728 0.6761 0.82864 0.0
C1866 C 0.78971 0.6193 0.88815 0.0
C1867 C 0.7622 0.5993 0.89263 0.0
C1868 C 0.73834 0.59245 0.87954 0.0
C1869 C 0.74194 0.60438 0.86181 0.0
C1870 C 0.7695 0.62337 0.85757 0.0
C1871 C 0.79293 0.63108 0.87051 0.0
C1872 C 0.82038 0.65051 0.86212 0.0
C1873 C 0.83604 0.68019 0.87357 0.0
C1874 C 0.8395 0.63717 0.86125 0.0
C1875 C 0.80885 0.65169 0.84213 0.0
C1876 C 0.77946 0.63616 0.83982 0.0
C1877 C 0.76416 0.63279 0.82217 0.0
C1878 C 0.7793 0.64554 0.80651 0.0
C1879 C 0.80945 0.66136 0.80856 0.0
C1880 C 0.82426 0.66464 0.82671 0.0
H1881 H 0.45473 0.19054 0.89347 0.0
H1882 H 0.42172 0.2359 0.92657 0.0
H1883 H 0.39463 0.23588 0.89692 0.0
H1884 H 0.46311 0.22639 0.85096 0.0
H1885 H 0.45224 0.19512 0.83445 0.0
H1886 H 0.46853 0.19804 0.85836 0.0
H1887 H 0.42506 0.14996 0.86474 0.0
H1888 H 0.40867 0.14687 0.84083 0.0
H1889 H 0.38992 0.14539 0.86164 0.0
H1890 H 0.37206 0.232 0.86361 0.0
H1891 H 0.35601 0.22511 0.8289 0.0
H1892 H 0.40231 0.18076 0.81749 0.0
C1893 C 0.44154 0.20017 0.89454 0.0
C1894 C 0.44044 0.2133 0.91238 0.0
C1895 C 0.42324 0.22606 0.91305 0.0
C1896 C 0.40761 0.22598 0.8963 0.0
C1897 C 0.40929 0.21298 0.87897 0.0
C1898 C 0.42578 0.20028 0.87796 0.0
C1899 C 0.42429 0.18828 0.85743 0.0
C1900 C 0.45379 0.20284 0.84986 0.0
C1901 C 0.4112 0.15569 0.85609 0.0
C1902 C 0.40457 0.19644 0.84704 0.0
C1903 C 0.39608 0.21057 0.85976 0.0
C1904 C 0.37835 0.22073 0.85354 0.0
C1905 C 0.36916 0.21651 0.83377 0.0
C1906 C 0.37767 0.20219 0.82038 0.0
C1907 C 0.39551 0.19193 0.82726 0.0
H1908 H 0.81611 0.20973 0.88799 0.0
H1909 H 0.8254 0.29393 0.88924 0.0
H1910 H 0.84315 0.29924 0.85691 0.0
H1911 H 0.87902 0.22663 0.86418 0.0
H1912 H 0.86284 0.19236 0.85016 0.0
H1913 H 0.85123 0.1955 0.87342 0.0
H1914 H 0.79938 0.17282 0.85772 0.0
H1915 H 0.81084 0.16962 0.83441 0.0
H1916 H 0.79174 0.18848 0.83776 0.0
H1917 H 0.85811 0.2943 0.82367 0.0
H1918 H 0.87147 0.28056 0.79314 0.0
H1919 H 0.8529 0.19995 0.81414 0.0
C1920 C 0.82182 0.22926 0.88144 0.0
C1921 C 0.81934 0.25141 0.89111 0.0
C1922 C 0.82738 0.2768 0.88217 0.0
C1923 C 0.83733 0.27993 0.86377 0.0
C1924 C 0.83931 0.25757 0.85458 0.0
C1925 C 0.83197 0.23282 0.86319 0.0
C1926 C 0.83619 0.21202 0.85036 0.0
C1927 C 0.85866 0.2063 0.86011 0.0
C1928 C 0.80785 0.18409 0.84473 0.0
C1929 C 0.84689 0.22883 0.83311 0.0
C1930 C 0.84844 0.255 0.83574 0.0
C1931 C 0.85712 0.27392 0.82151 0.0
C1932 C 0.86454 0.2659 0.8042 0.0
C1933 C 0.86343 0.23931 0.80133 0.0
C1934 C 0.85443 0.22063 0.81604 0.0
H1935 H 0.26747 0.14999 0.46118 0.0
H1936 H 0.18812 0.06926 0.45544 0.0
H1937 H 0.19143 0.06827 0.49099 0.0
H1938 H 0.30204 0.13219 0.49549 0.0
H1939 H 0.32159 0.16693 0.50893 0.0
H1940 H 0.31057 0.16378 0.48364 0.0
H1941 H 0.28432 0.19143 0.49122 0.0
H1942 H 0.29551 0.19492 0.51659 0.0
H1943 H 0.25828 0.17911 0.5085 0.0
H1944 H 0.20634 0.07367 0.52685 0.0
H1945 H 0.23215 0.08423 0.55943 0.0
H1946 H 0.30188 0.16115 0.54132 0.0
C1947 C 0.25025 0.13264 0.46747 0.0
C1948 C 0.2273 0.10991 0.4556 0.0
C1949 C 0.20577 0.08698 0.46431 0.0
C1950 C 0.20743 0.0863 0.48448 0.0
C1951 C 0.23078 0.10872 0.49573 0.0
C1952 C 0.25174 0.13153 0.48751 0.0
C1953 C 0.27609 0.15142 0.50244 0.0
C1954 C 0.30422 0.15369 0.49731 0.0
C1955 C 0.27869 0.18097 0.50483 0.0
C1956 C 0.26602 0.13583 0.52024 0.0
C1957 C 0.23963 0.11151 0.51621 0.0
C1958 C 0.22682 0.0929 0.53022 0.0
C1959 C 0.24158 0.0991 0.5487 0.0
C1960 C 0.26902 0.12348 0.55291 0.0
C1961 C 0.28099 0.14228 0.53853 0.0
H1962 H 0.85755 0.1487 0.45007 0.0
H1963 H 0.93343 0.14335 0.46298 0.0
H1964 H 0.92545 0.14172 0.49759 0.0
H1965 H 0.86815 0.19508 0.49161 0.0
H1966 H 0.83105 0.17897 0.49542 0.0
H1967 H 0.84125 0.17728 0.47144 0.0
H1968 H 0.80998 0.12215 0.46815 0.0
H1969 H 0.79964 0.12367 0.49213 0.0
H1970 H 0.81539 0.10224 0.48611 0.0
H1971 H 0.91059 0.14275 0.53086 0.0
H1972 H 0.89047 0.1474 0.56076 0.0
H1973 H 0.82489 0.15375 0.52674 0.0
C1974 C 0.87216 0.14667 0.46017 0.0
C1975 C 0.89607 0.14604 0.45385 0.0
C1976 C 0.91505 0.14396 0.46753 0.0
C1977 C 0.91063 0.14291 0.4872 0.0
C1978 C 0.88713 0.14402 0.49302 0.0
C1979 C 0.86819 0.14587 0.47994 0.0
C1980 C 0.84555 0.14833 0.49021 0.0
C1981 C 0.84658 0.1766 0.48698 0.0
C1982 C 0.81588 0.12256 0.48377 0.0
C1983 C 0.85495 0.14792 0.5111 0.0
C1984 C 0.87883 0.14517 0.51234 0.0
C1985 C 0.89187 0.1449 0.53007 0.0
C1986 C 0.88038 0.14778 0.54701 0.0
C1987 C 0.85616 0.15113 0.54622 0.0
C1988 C 0.84319 0.15088 0.52791 0.0
H1989 H 0.90607 0.79092 0.49069 0.0
H1990 H 0.83208 0.73339 0.45086 0.0
H1991 H 0.80887 0.7053 0.4776 0.0
H1992 H 0.90553 0.73665 0.51806 0.0
H1993 H 0.91673 0.75843 0.54089 0.0
H1994 H 0.92712 0.77493 0.51879 0.0
H1995 H 0.90501 0.80633 0.52718 0.0
H1996 H 0.89443 0.78981 0.54927 0.0
H1997 H 0.86827 0.78952 0.53206 0.0
H1998 H 0.79388 0.68282 0.50829 0.0
H1999 H 0.78859 0.66655 0.54093 0.0
H2000 H 0.87288 0.73733 0.56085 0.0
C2001 C 0.88503 0.77236 0.48755 0.0
C2002 C 0.87083 0.76459 0.46863 0.0
C2003 C 0.84321 0.7402 0.46525 0.0
C2004 C 0.82987 0.72398 0.48034 0.0
C2005 C 0.84442 0.73227 0.49877 0.0
C2006 C 0.87141 0.7558 0.50246 0.0
C2007 C 0.88258 0.75958 0.52352 0.0
C2008 C 0.90959 0.75725 0.52542 0.0
C2009 C 0.88788 0.788 0.5336 0.0
C2010 C 0.85773 0.73434 0.53103 0.0
C2011 C 0.8359 0.71899 0.51651 0.0
C2012 C 0.81085 0.69461 0.51978 0.0
C2013 C 0.80813 0.68545 0.53835 0.0
C2014 C 0.83037 0.70052 0.55345 0.0
C2015 C 0.85537 0.72549 0.5497 0.0
loop_
_geom_bond_atom_site_label_1
_geom_bond_atom_site_label_2
_geom_bond_distance
_geom_bond_site_symmetry_2
_ccdc_geom_bond_type
H0 C3 0.929 . S
H1 C6 0.929 . S
H2 C8 0.930 . S
C3 H0 0.929 . S
C3 C4 1.398 . S
C3 C5 1.396 . S
C4 C3 1.398 . S
C4 C8 1.407 . S
C5 C3 1.396 . S
C5 C6 1.394 . S
C6 H1 0.929 . S
C6 C5 1.394 . S
C6 C7 1.382 . S
C7 C6 1.382 . S
C7 C8 1.392 . S
C7 N9 1.420 . S
C8 H2 0.930 . S
C8 C4 1.407 . S
C8 C7 1.392 . S
N9 C7 1.420 . S
N9 C10 1.244 . S
C10 N9 1.244 . S
H11 C14 0.929 . S
H12 C17 0.929 . S
H13 C19 0.930 . S
C14 H11 0.929 . S
C14 C15 1.398 . S
C14 C16 1.396 . S
C15 C14 1.398 . S
C15 C19 1.407 . S
C16 C14 1.396 . S
C16 C17 1.394 . S
C17 H12 0.929 . S
C17 C16 1.394 . S
C17 C18 1.382 . S
C18 C17 1.382 . S
C18 C19 1.392 . S
C18 N20 1.420 . S
C19 H13 0.930 . S
C19 C15 1.407 . S
C19 C18 1.392 . S
N20 C18 1.420 . S
N20 C21 1.244 . S
C21 N20 1.244 . S
H22 C25 0.929 . S
H23 C28 0.929 . S
H24 C30 0.930 . S
C25 H22 0.929 . S
C25 C26 1.398 . S
C25 C27 1.396 . S
C26 C25 1.398 . S
C26 C30 1.407 . S
C27 C25 1.396 . S
C27 C28 1.394 . S
C28 H23 0.929 . S
C28 C27 1.394 . S
C28 C29 1.382 . S
C29 C28 1.382 . S
C29 C30 1.392 . S
C29 N31 1.420 . S
C30 H24 0.930 . S
C30 C26 1.407 . S
C30 C29 1.392 . S
N31 C29 1.420 . S
N31 C32 1.244 . S
C32 N31 1.244 . S
H33 C36 0.929 . S
H34 C39 0.929 . S
H35 C41 0.930 . S
C36 H33 0.929 . S
C36 C37 1.398 . S
C36 C38 1.396 . S
C37 C36 1.398 . S
C37 C41 1.407 . S
C38 C36 1.396 . S
C38 C39 1.394 . S
C39 H34 0.929 . S
C39 C38 1.394 . S
C39 C40 1.382 . S
C40 C39 1.382 . S
C40 C41 1.392 . S
C40 N42 1.420 . S
C41 H35 0.930 . S
C41 C37 1.407 . S
C41 C40 1.392 . S
N42 C40 1.420 . S
N42 C43 1.244 . S
C43 N42 1.244 . S
H44 C47 0.929 . S
H45 C50 0.929 . S
H46 C52 0.930 . S
C47 H44 0.929 . S
C47 C48 1.398 . S
C47 C49 1.396 . S
C48 C47 1.398 . S
C48 C52 1.407 . S
C49 C47 1.396 . S
C49 C50 1.394 . S
C50 H45 0.929 . S
C50 C49 1.394 . S
C50 C51 1.382 . S
C51 C50 1.382 . S
C51 C52 1.392 . S
C51 N53 1.420 . S
C52 H46 0.930 . S
C52 C48 1.407 . S
C52 C51 1.392 . S
N53 C51 1.420 . S
N53 C54 1.244 . S
C54 N53 1.244 . S
H55 C58 0.929 . S
H56 C61 0.929 . S
H57 C63 0.930 . S
C58 H55 0.929 . S
C58 C59 1.398 . S
C58 C60 1.396 . S
C59 C58 1.398 . S
C59 C63 1.407 . S
C60 C58 1.396 . S
C60 C61 1.394 . S
C61 H56 0.929 . S
C61 C60 1.394 . S
C61 C62 1.382 . S
C62 C61 1.382 . S
C62 C63 1.392 . S
C62 N64 1.420 . S
C63 H57 0.930 . S
C63 C59 1.407 . S
C63 C62 1.392 . S
N64 C62 1.420 . S
N64 C65 1.244 . S
C65 N64 1.244 . S
H66 C69 0.929 . S
H67 C72 0.929 . S
H68 C74 0.930 . S
C69 H66 0.929 . S
C69 C70 1.398 . S
C69 C71 1.396 . S
C70 C69 1.398 . S
C70 C74 1.407 . S
C71 C69 1.396 . S
C71 C72 1.394 . S
C72 H67 0.929 . S
C72 C71 1.394 . S
C72 C73 1.382 . S
C73 C72 1.382 . S
C73 C74 1.392 . S
C73 N75 1.420 . S
C74 H68 0.930 . S
C74 C70 1.407 . S
C74 C73 1.392 . S
N75 C73 1.420 . S
N75 C76 1.244 . S
C76 N75 1.244 . S
H77 C80 0.929 . S
H78 C83 0.929 . S
H79 C85 0.930 . S
C80 H77 0.929 . S
C80 C81 1.398 . S
C80 C82 1.396 . S
C81 C80 1.398 . S
C81 C85 1.407 . S
C82 C80 1.396 . S
C82 C83 1.394 . S
C83 H78 0.929 . S
C83 C82 1.394 . S
C83 C84 1.382 . S
C84 C83 1.382 . S
C84 C85 1.392 . S
C84 N86 1.420 . S
C85 H79 0.930 . S
C85 C81 1.407 . S
C85 C84 1.392 . S
N86 C84 1.420 . S
N86 C87 1.244 . S
C87 N86 1.244 . S
H88 C91 0.929 . S
H89 C94 0.929 . S
H90 C96 0.930 . S
C91 H88 0.929 . S
C91 C92 1.398 . S
C91 C93 1.396 . S
C92 C91 1.398 . S
C92 C96 1.407 . S
C93 C91 1.396 . S
C93 C94 1.394 . S
C94 H89 0.929 . S
C94 C93 1.394 . S
C94 C95 1.382 . S
C95 C94 1.382 . S
C95 C96 1.392 . S
C95 N97 1.420 . S
C96 H90 0.930 . S
C96 C92 1.407 . S
C96 C95 1.392 . S
N97 C95 1.420 . S
N97 C98 1.244 . S
C98 N97 1.244 . S
H99 C102 0.929 . S
H100 C105 0.929 . S
H101 C107 0.930 . S
C102 H99 0.929 . S
C102 C103 1.398 . S
C102 C104 1.396 . S
C103 C102 1.398 . S
C103 C107 1.407 . S
C104 C102 1.396 . S
C104 C105 1.394 . S
C105 H100 0.929 . S
C105 C104 1.394 . S
C105 C106 1.382 . S
C106 C105 1.382 . S
C106 C107 1.392 . S
C106 N108 1.420 . S
C107 H101 0.930 . S
C107 C103 1.407 . S
C107 C106 1.392 . S
N108 C106 1.420 . S
N108 C109 1.244 . S
C109 N108 1.244 . S
H110 C113 0.929 . S
H111 C116 0.929 . S
H112 C118 0.930 . S
C113 H110 0.929 . S
C113 C114 1.398 . S
C113 C115 1.396 . S
C114 C113 1.398 . S
C114 C118 1.407 . S
C115 C113 1.396 . S
C115 C116 1.394 . S
C116 H111 0.929 . S
C116 C115 1.394 . S
C116 C117 1.382 . S
C117 C116 1.382 . S
C117 C118 1.392 . S
C117 N119 1.420 . S
C118 H112 0.930 . S
C118 C114 1.407 . S
C118 C117 1.392 . S
N119 C117 1.420 . S
N119 C120 1.244 . S
C120 N119 1.244 . S
H121 C124 0.929 . S
H122 C127 0.929 . S
H123 C129 0.930 . S
C124 H121 0.929 . S
C124 C125 1.398 . S
C124 C126 1.396 . S
C125 C124 1.398 . S
C125 C129 1.407 . S
C126 C124 1.396 . S
C126 C127 1.394 . S
C127 H122 0.929 . S
C127 C126 1.394 . S
C127 C128 1.382 . S
C128 C127 1.382 . S
C128 C129 1.392 . S
C128 N130 1.420 . S
C129 H123 0.930 . S
C129 C125 1.407 . S
C129 C128 1.392 . S
N130 C128 1.420 . S
N130 C131 1.244 . S
C131 N130 1.244 . S
H132 C135 0.929 . S
H133 C138 0.929 . S
H134 C140 0.930 . S
C135 H132 0.929 . S
C135 C136 1.398 . S
C135 C137 1.396 . S
C136 C135 1.398 . S
C136 C140 1.407 . S
C137 C135 1.396 . S
C137 C138 1.394 . S
C138 H133 0.929 . S
C138 C137 1.394 . S
C138 C139 1.382 . S
C139 C138 1.382 . S
C139 C140 1.392 . S
C139 N141 1.420 . S
C140 H134 0.930 . S
C140 C136 1.407 . S
C140 C139 1.392 . S
N141 C139 1.420 . S
N141 C142 1.244 . S
C142 N141 1.244 . S
H143 C146 0.929 . S
H144 C149 0.929 . S
H145 C151 0.930 . S
C146 H143 0.929 . S
C146 C147 1.398 . S
C146 C148 1.396 . S
C147 C146 1.398 . S
C147 C151 1.407 . S
C148 C146 1.396 . S
C148 C149 1.394 . S
C149 H144 0.929 . S
C149 C148 1.394 . S
C149 C150 1.382 . S
C150 C149 1.382 . S
C150 C151 1.392 . S
C150 N152 1.420 . S
C151 H145 0.930 . S
C151 C147 1.407 . S
C151 C150 1.392 . S
N152 C150 1.420 . S
N152 C153 1.244 . S
C153 N152 1.244 . S
H154 C157 0.929 . S
H155 C160 0.929 . S
H156 C162 0.930 . S
C157 H154 0.929 . S
C157 C158 1.398 . S
C157 C159 1.396 . S
C158 C157 1.398 . S
C158 C162 1.407 . S
C159 C157 1.396 . S
C159 C160 1.394 . S
C160 H155 0.929 . S
C160 C159 1.394 . S
C160 C161 1.382 . S
C161 C160 1.382 . S
C161 C162 1.392 . S
C161 N163 1.420 . S
C162 H156 0.930 . S
C162 C158 1.407 . S
C162 C161 1.392 . S
N163 C161 1.420 . S
N163 C164 1.244 . S
C164 N163 1.244 . S
H165 C168 0.929 . S
H166 C171 0.929 . S
H167 C173 0.930 . S
C168 H165 0.929 . S
C168 C169 1.398 . S
C168 C170 1.396 . S
C169 C168 1.398 . S
C169 C173 1.407 . S
C170 C168 1.396 . S
C170 C171 1.394 . S
C171 H166 0.929 . S
C171 C170 1.394 . S
C171 C172 1.382 . S
C172 C171 1.382 . S
C172 C173 1.392 . S
C172 N174 1.420 . S
C173 H167 0.930 . S
C173 C169 1.407 . S
C173 C172 1.392 . S
N174 C172 1.420 . S
N174 C175 1.244 . S
C175 N174 1.244 . S
H176 C179 0.929 . S
H177 C182 0.929 . S
H178 C184 0.930 . S
C179 H176 0.929 . S
C179 C180 1.398 . S
C179 C181 1.396 . S
C180 C179 1.398 . S
C180 C184 1.407 . S
C181 C179 1.396 . S
C181 C182 1.394 . S
C182 H177 0.929 . S
C182 C181 1.394 . S
C182 C183 1.382 . S
C183 C182 1.382 . S
C183 C184 1.392 . S
C183 N185 1.420 . S
C184 H178 0.930 . S
C184 C180 1.407 . S
C184 C183 1.392 . S
N185 C183 1.420 . S
N185 C186 1.244 . S
C186 N185 1.244 . S
H187 C190 0.929 . S
H188 C193 0.929 . S
H189 C195 0.930 . S
C190 H187 0.929 . S
C190 C191 1.398 . S
C190 C192 1.396 . S
C191 C190 1.398 . S
C191 C195 1.407 . S
C192 C190 1.396 . S
C192 C193 1.394 . S
C193 H188 0.929 . S
C193 C192 1.394 . S
C193 C194 1.382 . S
C194 C193 1.382 . S
C194 C195 1.392 . S
C194 N196 1.420 . S
C195 H189 0.930 . S
C195 C191 1.407 . S
C195 C194 1.392 . S
N196 C194 1.420 . S
N196 C197 1.244 . S
C197 N196 1.244 . S
C198 Eu199 2.835 . S
C198 C200 1.500 1_545 S
C198 O218 1.257 1_545 S
C198 O219 1.260 . S
Eu199 C198 2.835 . S
Eu199 O218 2.473 1_545 S
Eu199 O219 2.480 . S
Eu199 O220 2.430 . S
Eu199 O221 2.670 1_554 S
Eu199 O222 2.394 1_545 S
Eu199 O227 2.355 1_545 S
Eu199 O229 2.374 . S
C200 C198 1.500 1_565 S
C200 C201 1.377 1_565 S
C200 C205 1.377 . S
C201 C200 1.377 1_545 S
C201 C202 1.400 . S
C201 H230 0.931 . S
C202 C201 1.400 . S
C202 C203 1.360 1_545 S
C202 H231 0.949 . S
C203 C202 1.360 1_565 S
C203 C204 1.394 . S
C204 C203 1.394 . S
C204 C205 1.378 . S
C204 H232 0.931 . S
C205 C200 1.377 . S
C205 C204 1.378 . S
C205 H233 0.931 . S
C206 O220 1.259 . S
C206 O221 1.270 1_554 S
C207 O222 1.251 . S
C207 O223 1.251 1_554 S
C208 Eu209 2.835 1_545 S
C208 C210 1.500 . S
C208 O224 1.257 . S
C208 O225 1.260 1_545 S
Eu209 C208 2.835 1_565 S
Eu209 O221 2.355 1_565 S
Eu209 O223 2.374 . S
Eu209 O224 2.473 1_565 S
Eu209 O225 2.480 . S
Eu209 O226 2.430 . S
Eu209 O227 2.670 1_556 S
Eu209 O228 2.394 1_565 S
C210 C208 1.500 . S
C210 C211 1.377 . S
C210 C215 1.377 . S
C211 C210 1.377 . S
C211 C212 1.395 . S
C211 H234 0.931 1_545 S
C212 C211 1.395 . S
C212 C213 1.383 . S
C212 H235 0.931 1_545 S
C213 C212 1.383 . S
C213 C214 1.394 . S
C214 C213 1.394 . S
C214 C215 1.378 . S
C214 H236 0.931 . S
C215 C210 1.377 . S
C215 C214 1.378 . S
C215 H237 0.931 . S
C216 O226 1.259 1_554 S
C216 O227 1.270 . S
C217 O228 1.251 . S
C217 O229 1.251 1_556 S
O218 C198 1.257 1_565 S
O218 Eu199 2.473 1_565 S
O219 C198 1.260 . S
O219 Eu199 2.480 . S
O220 Eu199 2.430 . S
O220 C206 1.259 . S
O221 Eu199 2.670 1_556 S
O221 C206 1.270 1_556 S
O221 Eu209 2.355 1_545 S
O222 Eu199 2.394 1_565 S
O222 C207 1.251 . S
O223 C207 1.251 1_556 S
O223 Eu209 2.374 . S
O224 C208 1.257 . S
O224 Eu209 2.473 1_545 S
O225 C208 1.260 1_565 S
O225 Eu209 2.480 . S
O226 Eu209 2.430 . S
O226 C216 1.259 1_556 S
O227 Eu199 2.355 1_565 S
O227 Eu209 2.670 1_554 S
O227 C216 1.270 . S
O228 Eu209 2.394 1_545 S
O228 C217 1.251 . S
O229 Eu199 2.374 . S
O229 C217 1.251 1_554 S
H230 C201 0.931 . S
H231 C202 0.949 . S
H232 C204 0.931 . S
H233 C205 0.931 . S
H234 C211 0.931 1_565 S
H235 C212 0.931 1_565 S
H236 C214 0.931 . S
H237 C215 0.931 . S
C238 Eu239 2.835 1_455 S
C238 C240 1.500 . S
C238 O258 1.257 . S
C238 O259 1.260 1_455 S
Eu239 C238 2.835 1_655 S
Eu239 O258 2.473 1_655 S
Eu239 O259 2.480 . S
Eu239 O260 2.430 . S
Eu239 O261 2.670 1_554 S
Eu239 O262 2.394 1_655 S
Eu239 O267 2.355 1_655 S
Eu239 O269 2.374 . S
C240 C238 1.500 . S
C240 C241 1.377 . S
C240 C245 1.377 . S
C241 C240 1.377 . S
C241 C242 1.395 . S
C241 H270 0.931 1_455 S
C242 C241 1.395 . S
C242 C243 1.383 . S
C242 H271 0.944 . S
C243 C242 1.383 . S
C243 C244 1.394 . S
C244 C243 1.394 . S
C244 C245 1.378 . S
C244 H272 0.931 . S
C245 C240 1.377 . S
C245 C244 1.378 . S
C245 H273 0.931 . S
C246 O260 1.259 . S
C246 O261 1.270 1_554 S
C247 O262 1.251 . S
C247 O263 1.251 . S
C248 Eu249 2.835 1_655 S
C248 C250 1.500 . S
C248 O264 1.257 . S
C248 O265 1.260 1_655 S
Eu249 C248 2.835 1_455 S
Eu249 O261 2.355 1_455 S
Eu249 O263 2.374 1_556 S
Eu249 O264 2.473 1_455 S
Eu249 O265 2.480 . S
Eu249 O266 2.430 . S
Eu249 O267 2.670 1_556 S
Eu249 O268 2.394 1_455 S
C250 C248 1.500 . S
C250 C251 1.379 . S
C250 C255 1.377 . S
C251 C250 1.379 . S
C251 C252 1.398 . S
C251 H274 0.925 1_655 S
C252 C251 1.398 . S
C252 C253 1.383 . S
C252 H275 0.931 1_655 S
C253 C252 1.383 . S
C253 C254 1.394 . S
C254 C253 1.394 . S
C254 C255 1.378 . S
C254 H276 0.931 . S
C255 C250 1.377 . S
C255 C254 1.378 . S
C255 H277 0.931 . S
C256 O266 1.259 1_554 S
C256 O267 1.270 . S
C257 O268 1.251 . S
C257 O269 1.251 1_556 S
O258 C238 1.257 . S
O258 Eu239 2.473 1_455 S
O259 C238 1.260 1_655 S
O259 Eu239 2.480 . S
O260 Eu239 2.430 . S
O260 C246 1.259 . S
O261 Eu239 2.670 1_556 S
O261 C246 1.270 1_556 S
O261 Eu249 2.355 1_655 S
O262 Eu239 2.394 1_455 S
O262 C247 1.251 . S
O263 C247 1.251 . S
O263 Eu249 2.374 1_554 S
O264 C248 1.257 . S
O264 Eu249 2.473 1_655 S
O265 C248 1.260 1_455 S
O265 Eu249 2.480 . S
O266 Eu249 2.430 . S
O266 C256 1.259 1_556 S
O267 Eu239 2.355 1_455 S
O267 Eu249 2.670 1_554 S
O267 C256 1.270 . S
O268 Eu249 2.394 1_655 S
O268 C257 1.251 . S
O269 Eu239 2.374 . S
O269 C257 1.251 1_554 S
H270 C241 0.931 1_655 S
H271 C242 0.944 . S
H272 C244 0.931 . S
H273 C245 0.931 . S
H274 C251 0.925 1_455 S
H275 C252 0.931 1_455 S
H276 C254 0.931 . S
H277 C255 0.931 . S
C278 Eu279 2.835 . S
C278 C280 1.500 . S
C278 O298 1.257 . S
C278 O299 1.260 . S
Eu279 C278 2.835 . S
Eu279 O298 2.473 . S
Eu279 O299 2.480 . S
Eu279 O300 2.430 . S
Eu279 O301 2.670 1_556 S
Eu279 O302 2.394 . S
Eu279 O307 2.355 1_556 S
Eu279 O309 2.374 1_556 S
C280 C278 1.500 . S
C280 C281 1.377 . S
C280 C285 1.377 . S
C281 C280 1.377 . S
C281 C282 1.395 . S
C281 H310 0.931 . S
C282 C281 1.395 . S
C282 C283 1.383 . S
C282 H311 0.931 . S
C283 C282 1.383 . S
C283 C284 1.394 . S
C284 C283 1.394 . S
C284 C285 1.378 . S
C284 H312 0.931 . S
C285 C280 1.377 . S
C285 C284 1.378 . S
C285 H313 0.931 . S
C286 O300 1.259 1_554 S
C286 O301 1.270 . S
C287 O302 1.251 . S
C287 O303 1.251 1_556 S
C288 Eu289 2.835 . S
C288 C290 1.500 . S
C288 O304 1.257 . S
C288 O305 1.260 . S
Eu289 C288 2.835 . S
Eu289 O301 2.355 . S
Eu289 O303 2.374 . S
Eu289 O304 2.473 . S
Eu289 O305 2.480 . S
Eu289 O306 2.430 . S
Eu289 O307 2.670 . S
Eu289 O308 2.394 . S
C290 C288 1.500 . S
C290 C291 1.377 . S
C290 C295 1.377 . S
C291 C290 1.377 . S
C291 C292 1.395 . S
C291 H314 0.931 . S
C292 C291 1.395 . S
C292 C293 1.383 . S
C292 H315 0.931 . S
C293 C292 1.383 . S
C293 C294 1.394 . S
C294 C293 1.394 . S
C294 C295 1.378 . S
C294 H316 0.931 . S
C295 C290 1.377 . S
C295 C294 1.378 . S
C295 H317 0.931 . S
C296 O306 1.259 . S
C296 O307 1.270 . S
C297 O308 1.251 . S
C297 O309 1.251 . S
O298 C278 1.257 . S
O298 Eu279 2.473 . S
O299 C278 1.260 . S
O299 Eu279 2.480 . S
O300 Eu279 2.430 . S
O300 C286 1.259 1_556 S
O301 Eu279 2.670 1_554 S
O301 C286 1.270 . S
O301 Eu289 2.355 . S
O302 Eu279 2.394 . S
O302 C287 1.251 . S
O303 C287 1.251 1_554 S
O303 Eu289 2.374 . S
O304 C288 1.257 . S
O304 Eu289 2.473 . S
O305 C288 1.260 . S
O305 Eu289 2.480 . S
O306 Eu289 2.430 . S
O306 C296 1.259 . S
O307 Eu279 2.355 1_554 S
O307 Eu289 2.670 . S
O307 C296 1.270 . S
O308 Eu289 2.394 . S
O308 C297 1.251 . S
O309 Eu279 2.374 1_554 S
O309 C297 1.251 . S
H310 C281 0.931 . S
H311 C282 0.931 . S
H312 C284 0.931 . S
H313 C285 0.931 . S
H314 C291 0.931 . S
H315 C292 0.931 . S
H316 C294 0.931 . S
H317 C295 0.931 . S
C318 Eu319 2.835 . S
C318 C320 1.500 . S
C318 O338 1.257 . S
C318 O339 1.260 . S
Eu319 C318 2.835 . S
Eu319 O338 2.473 . S
Eu319 O339 2.480 . S
Eu319 O340 2.430 . S
Eu319 O341 2.670 . S
Eu319 O342 2.394 . S
Eu319 O347 2.355 . S
Eu319 O349 2.374 . S
C320 C318 1.500 . S
C320 C321 1.377 . S
C320 C325 1.377 . S
C321 C320 1.377 . S
C321 C322 1.395 . S
C321 H350 0.931 . S
C322 C321 1.395 . S
C322 C323 1.383 . S
C322 H351 0.931 . S
C323 C322 1.383 . S
C323 C324 1.394 . S
C324 C323 1.394 . S
C324 C325 1.378 . S
C324 H352 0.931 . S
C325 C320 1.377 . S
C325 C324 1.378 . S
C325 H353 0.931 . S
C326 O340 1.259 . S
C326 O341 1.270 . S
C327 O342 1.251 . S
C327 O343 1.251 . S
C328 Eu329 2.835 . S
C328 C330 1.500 . S
C328 O344 1.257 . S
C328 O345 1.260 . S
Eu329 C328 2.835 . S
Eu329 O341 2.355 . S
Eu329 O343 2.374 . S
Eu329 O344 2.473 . S
Eu329 O345 2.480 . S
Eu329 O346 2.430 . S
Eu329 O347 2.670 . S
Eu329 O348 2.394 . S
C330 C328 1.500 . S
C330 C331 1.377 . S
C330 C335 1.377 . S
C331 C330 1.377 . S
C331 C332 1.395 . S
C331 H354 0.931 . S
C332 C331 1.395 . S
C332 C333 1.383 . S
C332 H355 0.931 . S
C333 C332 1.383 . S
C333 C334 1.394 . S
C334 C333 1.394 . S
C334 C335 1.378 . S
C334 H356 0.931 . S
C335 C330 1.377 . S
C335 C334 1.378 . S
C335 H357 0.931 . S
C336 O346 1.259 . S
C336 O347 1.270 . S
C337 O348 1.251 . S
C337 O349 1.251 . S
O338 C318 1.257 . S
O338 Eu319 2.473 . S
O339 C318 1.260 . S
O339 Eu319 2.480 . S
O340 Eu319 2.430 . S
O340 C326 1.259 . S
O341 Eu319 2.670 . S
O341 C326 1.270 . S
O341 Eu329 2.355 . S
O342 Eu319 2.394 . S
O342 C327 1.251 . S
O343 C327 1.251 . S
O343 Eu329 2.374 . S
O344 C328 1.257 . S
O344 Eu329 2.473 . S
O345 C328 1.260 . S
O345 Eu329 2.480 . S
O346 Eu329 2.430 . S
O346 C336 1.259 . S
O347 Eu319 2.355 . S
O347 Eu329 2.670 . S
O347 C336 1.270 . S
O348 Eu329 2.394 . S
O348 C337 1.251 . S
O349 Eu319 2.374 . S
O349 C337 1.251 . S
H350 C321 0.931 . S
H351 C322 0.931 . S
H352 C324 0.931 . S
H353 C325 0.931 . S
H354 C331 0.931 . S
H355 C332 0.931 . S
H356 C334 0.931 . S
H357 C335 0.931 . S
C358 Eu359 2.835 . S
C358 C360 1.500 . S
C358 O378 1.257 . S
C358 O379 1.260 . S
Eu359 C358 2.835 . S
Eu359 O378 2.473 . S
Eu359 O379 2.480 . S
Eu359 O380 2.430 . S
Eu359 O381 2.670 . S
Eu359 O382 2.394 . S
Eu359 O387 2.355 . S
Eu359 O389 2.374 . S
C360 C358 1.500 . S
C360 C361 1.377 . S
C360 C365 1.377 . S
C361 C360 1.377 . S
C361 C362 1.395 . S
C361 H390 0.931 . S
C362 C361 1.395 . S
C362 C363 1.383 . S
C362 H391 0.931 . S
C363 C362 1.383 . S
C363 C364 1.394 . S
C364 C363 1.394 . S
C364 C365 1.378 . S
C364 H392 0.931 . S
C365 C360 1.377 . S
C365 C364 1.378 . S
C365 H393 0.931 . S
C366 O380 1.259 . S
C366 O381 1.270 . S
C367 O382 1.251 . S
C367 O383 1.251 . S
C368 Eu369 2.835 . S
C368 C370 1.500 . S
C368 O384 1.257 . S
C368 O385 1.260 . S
Eu369 C368 2.835 . S
Eu369 O381 2.355 . S
Eu369 O383 2.374 . S
Eu369 O384 2.473 . S
Eu369 O385 2.480 . S
Eu369 O386 2.430 . S
Eu369 O387 2.670 . S
Eu369 O388 2.394 . S
C370 C368 1.500 . S
C370 C371 1.377 . S
C370 C375 1.377 . S
C371 C370 1.377 . S
C371 C372 1.395 . S
C371 H394 0.931 . S
C372 C371 1.395 . S
C372 C373 1.383 . S
C372 H395 0.931 . S
C373 C372 1.383 . S
C373 C374 1.394 . S
C374 C373 1.394 . S
C374 C375 1.378 . S
C374 H396 0.931 . S
C375 C370 1.377 . S
C375 C374 1.378 . S
C375 H397 0.931 . S
C376 O386 1.259 . S
C376 O387 1.270 . S
C377 O388 1.251 . S
C377 O389 1.251 . S
O378 C358 1.257 . S
O378 Eu359 2.473 . S
O379 C358 1.260 . S
O379 Eu359 2.480 . S
O380 Eu359 2.430 . S
O380 C366 1.259 . S
O381 Eu359 2.670 . S
O381 C366 1.270 . S
O381 Eu369 2.355 . S
O382 Eu359 2.394 . S
O382 C367 1.251 . S
O383 C367 1.251 . S
O383 Eu369 2.374 . S
O384 C368 1.257 . S
O384 Eu369 2.473 . S
O385 C368 1.260 . S
O385 Eu369 2.480 . S
O386 Eu369 2.430 . S
O386 C376 1.259 . S
O387 Eu359 2.355 . S
O387 Eu369 2.670 . S
O387 C376 1.270 . S
O388 Eu369 2.394 . S
O388 C377 1.251 . S
O389 Eu359 2.374 . S
O389 C377 1.251 . S
H390 C361 0.931 . S
H391 C362 0.931 . S
H392 C364 0.931 . S
H393 C365 0.931 . S
H394 C371 0.931 . S
H395 C372 0.931 . S
H396 C374 0.931 . S
H397 C375 0.931 . S
C398 Eu399 2.835 . S
C398 C400 1.500 . S
C398 O418 1.257 . S
C398 O419 1.260 . S
Eu399 C398 2.835 . S
Eu399 O418 2.473 . S
Eu399 O419 2.480 . S
Eu399 O420 2.430 . S
Eu399 O421 2.670 . S
Eu399 O422 2.394 . S
Eu399 O427 2.355 . S
Eu399 O429 2.374 . S
C400 C398 1.500 . S
C400 C401 1.377 . S
C400 C405 1.377 . S
C401 C400 1.377 . S
C401 C402 1.395 . S
C401 H430 0.931 . S
C402 C401 1.395 . S
C402 C403 1.383 . S
C402 H431 0.931 . S
C403 C402 1.383 . S
C403 C404 1.394 . S
C404 C403 1.394 . S
C404 C405 1.378 . S
C404 H432 0.931 . S
C405 C400 1.377 . S
C405 C404 1.378 . S
C405 H433 0.931 . S
C406 O420 1.259 . S
C406 O421 1.270 . S
C407 O422 1.251 . S
C407 O423 1.251 . S
C408 Eu409 2.835 . S
C408 C410 1.500 . S
C408 O424 1.257 . S
C408 O425 1.260 . S
Eu409 C408 2.835 . S
Eu409 O421 2.355 . S
Eu409 O423 2.374 . S
Eu409 O424 2.473 . S
Eu409 O425 2.480 . S
Eu409 O426 2.430 . S
Eu409 O427 2.670 . S
Eu409 O428 2.394 . S
C410 C408 1.500 . S
C410 C411 1.377 . S
C410 C415 1.377 . S
C411 C410 1.377 . S
C411 C412 1.395 . S
C411 H434 0.931 . S
C412 C411 1.395 . S
C412 C413 1.383 . S
C412 H435 0.931 . S
C413 C412 1.383 . S
C413 C414 1.394 . S
C414 C413 1.394 . S
C414 C415 1.378 . S
C414 H436 0.931 . S
C415 C410 1.377 . S
C415 C414 1.378 . S
C415 H437 0.931 . S
C416 O426 1.259 . S
C416 O427 1.270 . S
C417 O428 1.251 . S
C417 O429 1.251 . S
O418 C398 1.257 . S
O418 Eu399 2.473 . S
O419 C398 1.260 . S
O419 Eu399 2.480 . S
O420 Eu399 2.430 . S
O420 C406 1.259 . S
O421 Eu399 2.670 . S
O421 C406 1.270 . S
O421 Eu409 2.355 . S
O422 Eu399 2.394 . S
O422 C407 1.251 . S
O423 C407 1.251 . S
O423 Eu409 2.374 . S
O424 C408 1.257 . S
O424 Eu409 2.473 . S
O425 C408 1.260 . S
O425 Eu409 2.480 . S
O426 Eu409 2.430 . S
O426 C416 1.259 . S
O427 Eu399 2.355 . S
O427 Eu409 2.670 . S
O427 C416 1.270 . S
O428 Eu409 2.394 . S
O428 C417 1.251 . S
O429 Eu399 2.374 . S
O429 C417 1.251 . S
H430 C401 0.931 . S
H431 C402 0.931 . S
H432 C404 0.931 . S
H433 C405 0.931 . S
H434 C411 0.931 . S
H435 C412 0.931 . S
H436 C414 0.931 . S
H437 C415 0.931 . S
C438 Eu439 2.835 . S
C438 C440 1.500 . S
C438 O458 1.257 . S
C438 O459 1.260 . S
Eu439 C438 2.835 . S
Eu439 O458 2.473 . S
Eu439 O459 2.480 . S
Eu439 O460 2.430 . S
Eu439 O461 2.670 . S
Eu439 O462 2.394 . S
Eu439 O467 2.355 . S
Eu439 O469 2.374 . S
C440 C438 1.500 . S
C440 C441 1.377 . S
C440 C445 1.377 . S
C441 C440 1.377 . S
C441 C442 1.395 . S
C441 H470 0.931 . S
C442 C441 1.395 . S
C442 C443 1.383 . S
C442 H471 0.931 . S
C443 C442 1.383 . S
C443 C444 1.394 . S
C444 C443 1.394 . S
C444 C445 1.378 . S
C444 H472 0.931 . S
C445 C440 1.377 . S
C445 C444 1.378 . S
C445 H473 0.931 . S
C446 O460 1.259 . S
C446 O461 1.270 . S
C447 O462 1.251 . S
C447 O463 1.251 . S
C448 Eu449 2.835 . S
C448 C450 1.500 . S
C448 O464 1.257 . S
C448 O465 1.260 . S
Eu449 C448 2.835 . S
Eu449 O461 2.355 . S
Eu449 O463 2.374 . S
Eu449 O464 2.473 . S
Eu449 O465 2.480 . S
Eu449 O466 2.430 . S
Eu449 O467 2.670 . S
Eu449 O468 2.394 . S
C450 C448 1.500 . S
C450 C451 1.377 . S
C450 C455 1.377 . S
C451 C450 1.377 . S
C451 C452 1.395 . S
C451 H474 0.931 . S
C452 C451 1.395 . S
C452 C453 1.383 . S
C452 H475 0.931 . S
C453 C452 1.383 . S
C453 C454 1.394 . S
C454 C453 1.394 . S
C454 C455 1.378 . S
C454 H476 0.931 . S
C455 C450 1.377 . S
C455 C454 1.378 . S
C455 H477 0.931 . S
C456 O466 1.259 . S
C456 O467 1.270 . S
C457 O468 1.251 . S
C457 O469 1.251 . S
O458 C438 1.257 . S
O458 Eu439 2.473 . S
O459 C438 1.260 . S
O459 Eu439 2.480 . S
O460 Eu439 2.430 . S
O460 C446 1.259 . S
O461 Eu439 2.670 . S
O461 C446 1.270 . S
O461 Eu449 2.355 . S
O462 Eu439 2.394 . S
O462 C447 1.251 . S
O463 C447 1.251 . S
O463 Eu449 2.374 . S
O464 C448 1.257 . S
O464 Eu449 2.473 . S
O465 C448 1.260 . S
O465 Eu449 2.480 . S
O466 Eu449 2.430 . S
O466 C456 1.259 . S
O467 Eu439 2.355 . S
O467 Eu449 2.670 . S
O467 C456 1.270 . S
O468 Eu449 2.394 . S
O468 C457 1.251 . S
O469 Eu439 2.374 . S
O469 C457 1.251 . S
H470 C441 0.931 . S
H471 C442 0.931 . S
H472 C444 0.931 . S
H473 C445 0.931 . S
H474 C451 0.931 . S
H475 C452 0.931 . S
H476 C454 0.931 . S
H477 C455 0.931 . S
C478 Eu479 2.835 . S
C478 C480 1.500 . S
C478 O498 1.257 . S
C478 O499 1.260 . S
Eu479 C478 2.835 . S
Eu479 O498 2.473 . S
Eu479 O499 2.480 . S
Eu479 O500 2.430 . S
Eu479 O501 2.670 . S
Eu479 O502 2.394 . S
Eu479 O507 2.355 . S
Eu479 O509 2.374 . S
C480 C478 1.500 . S
C480 C481 1.377 . S
C480 C485 1.377 . S
C481 C480 1.377 . S
C481 C482 1.395 . S
C481 H510 0.931 . S
C482 C481 1.395 . S
C482 C483 1.383 . S
C482 H511 0.931 . S
C483 C482 1.383 . S
C483 C484 1.394 . S
C484 C483 1.394 . S
C484 C485 1.378 . S
C484 H512 0.931 . S
C485 C480 1.377 . S
C485 C484 1.378 . S
C485 H513 0.931 . S
C486 O500 1.259 . S
C486 O501 1.270 . S
C487 O502 1.251 . S
C487 O503 1.251 . S
C488 Eu489 2.835 . S
C488 C490 1.500 . S
C488 O504 1.257 . S
C488 O505 1.260 . S
Eu489 C488 2.835 . S
Eu489 O501 2.355 . S
Eu489 O503 2.374 . S
Eu489 O504 2.473 . S
Eu489 O505 2.480 . S
Eu489 O506 2.430 . S
Eu489 O507 2.670 . S
Eu489 O508 2.394 . S
C490 C488 1.500 . S
C490 C491 1.377 . S
C490 C495 1.377 . S
C491 C490 1.377 . S
C491 C492 1.395 . S
C491 H514 0.931 . S
C492 C491 1.395 . S
C492 C493 1.383 . S
C492 H515 0.931 . S
C493 C492 1.383 . S
C493 C494 1.394 . S
C494 C493 1.394 . S
C494 C495 1.378 . S
C494 H516 0.931 . S
C495 C490 1.377 . S
C495 C494 1.378 . S
C495 H517 0.931 . S
C496 O506 1.259 . S
C496 O507 1.270 . S
C497 O508 1.251 . S
C497 O509 1.251 . S
O498 C478 1.257 . S
O498 Eu479 2.473 . S
O499 C478 1.260 . S
O499 Eu479 2.480 . S
O500 Eu479 2.430 . S
O500 C486 1.259 . S
O501 Eu479 2.670 . S
O501 C486 1.270 . S
O501 Eu489 2.355 . S
O502 Eu479 2.394 . S
O502 C487 1.251 . S
O503 C487 1.251 . S
O503 Eu489 2.374 . S
O504 C488 1.257 . S
O504 Eu489 2.473 . S
O505 C488 1.260 . S
O505 Eu489 2.480 . S
O506 Eu489 2.430 . S
O506 C496 1.259 . S
O507 Eu479 2.355 . S
O507 Eu489 2.670 . S
O507 C496 1.270 . S
O508 Eu489 2.394 . S
O508 C497 1.251 . S
O509 Eu479 2.374 . S
O509 C497 1.251 . S
H510 C481 0.931 . S
H511 C482 0.931 . S
H512 C484 0.931 . S
H513 C485 0.931 . S
H514 C491 0.931 . S
H515 C492 0.931 . S
H516 C494 0.931 . S
H517 C495 0.931 . S
C518 Eu519 2.835 . S
C518 C520 1.500 . S
C518 O538 1.257 . S
C518 O539 1.260 . S
Eu519 C518 2.835 . S
Eu519 O538 2.473 . S
Eu519 O539 2.480 . S
Eu519 O540 2.430 . S
Eu519 O541 2.670 . S
Eu519 O542 2.394 . S
Eu519 O547 2.355 . S
Eu519 O549 2.374 . S
C520 C518 1.500 . S
C520 C521 1.377 . S
C520 C525 1.377 . S
C521 C520 1.377 . S
C521 C522 1.395 . S
C521 H550 0.931 . S
C522 C521 1.395 . S
C522 C523 1.383 . S
C522 H551 0.931 . S
C523 C522 1.383 . S
C523 C524 1.394 . S
C524 C523 1.394 . S
C524 C525 1.378 . S
C524 H552 0.931 . S
C525 C520 1.377 . S
C525 C524 1.378 . S
C525 H553 0.931 . S
C526 O540 1.259 . S
C526 O541 1.270 . S
C527 O542 1.251 . S
C527 O543 1.251 . S
C528 Eu529 2.835 . S
C528 C530 1.500 . S
C528 O544 1.257 . S
C528 O545 1.260 . S
Eu529 C528 2.835 . S
Eu529 O541 2.355 . S
Eu529 O543 2.374 . S
Eu529 O544 2.473 . S
Eu529 O545 2.480 . S
Eu529 O546 2.430 . S
Eu529 O547 2.670 . S
Eu529 O548 2.394 . S
C530 C528 1.500 . S
C530 C531 1.377 . S
C530 C535 1.377 . S
C531 C530 1.377 . S
C531 C532 1.395 . S
C531 H554 0.931 . S
C532 C531 1.395 . S
C532 C533 1.383 . S
C532 H555 0.931 . S
C533 C532 1.383 . S
C533 C534 1.394 . S
C534 C533 1.394 . S
C534 C535 1.378 . S
C534 H556 0.931 . S
C535 C530 1.377 . S
C535 C534 1.378 . S
C535 H557 0.931 . S
C536 O546 1.259 . S
C536 O547 1.270 . S
C537 O548 1.251 . S
C537 O549 1.251 . S
O538 C518 1.257 . S
O538 Eu519 2.473 . S
O539 C518 1.260 . S
O539 Eu519 2.480 . S
O540 Eu519 2.430 . S
O540 C526 1.259 . S
O541 Eu519 2.670 . S
O541 C526 1.270 . S
O541 Eu529 2.355 . S
O542 Eu519 2.394 . S
O542 C527 1.251 . S
O543 C527 1.251 . S
O543 Eu529 2.374 . S
O544 C528 1.257 . S
O544 Eu529 2.473 . S
O545 C528 1.260 . S
O545 Eu529 2.480 . S
O546 Eu529 2.430 . S
O546 C536 1.259 . S
O547 Eu519 2.355 . S
O547 Eu529 2.670 . S
O547 C536 1.270 . S
O548 Eu529 2.394 . S
O548 C537 1.251 . S
O549 Eu519 2.374 . S
O549 C537 1.251 . S
H550 C521 0.931 . S
H551 C522 0.931 . S
H552 C524 0.931 . S
H553 C525 0.931 . S
H554 C531 0.931 . S
H555 C532 0.931 . S
H556 C534 0.931 . S
H557 C535 0.931 . S
H558 C570 0.930 . S
H559 C572 0.930 . S
H560 C573 0.930 . S
H561 C577 0.959 . S
H562 C577 0.959 . S
H563 C577 0.961 . S
H564 C578 0.960 . S
H565 C578 0.961 . S
H566 C578 0.959 . S
H567 C581 0.929 1_556 S
H568 C582 0.931 1_556 S
H569 C584 0.930 . S
C570 H558 0.930 . S
C570 C571 1.399 . S
C570 C575 1.399 . S
C571 C570 1.399 . S
C571 C572 1.376 . S
C572 H559 0.930 . S
C572 C571 1.376 . S
C572 C573 1.388 . S
C573 H560 0.930 . S
C573 C572 1.388 . S
C573 C574 1.390 . S
C574 C573 1.390 . S
C574 C575 1.394 . S
C574 C580 1.465 . S
C575 C570 1.399 . S
C575 C574 1.394 . S
C575 C576 1.516 . S
C576 C575 1.516 . S
C576 C577 1.502 . S
C576 C578 1.561 . S
C576 C579 1.526 . S
C577 H561 0.959 . S
C577 H562 0.959 . S
C577 H563 0.961 . S
C577 C576 1.502 . S
C578 H564 0.960 . S
C578 H565 0.961 . S
C578 H566 0.959 . S
C578 C576 1.561 . S
C579 C576 1.526 . S
C579 C580 1.396 . S
C579 C584 1.390 . S
C580 C574 1.465 . S
C580 C579 1.396 . S
C580 C581 1.399 . S
C581 H567 0.929 1_554 S
C581 C580 1.399 . S
C581 C582 1.385 . S
C582 H568 0.931 1_554 S
C582 C581 1.385 . S
C582 C583 1.389 . S
C583 C582 1.389 . S
C583 C584 1.387 . S
C584 H569 0.930 . S
C584 C579 1.390 . S
C584 C583 1.387 . S
H585 C597 0.930 . S
H586 C599 0.930 . S
H587 C600 0.930 . S
H588 C604 0.959 . S
H589 C604 0.959 . S
H590 C604 0.961 . S
H591 C605 0.960 . S
H592 C605 0.961 . S
H593 C605 0.959 . S
H594 C608 0.929 . S
H595 C609 0.931 . S
H596 C611 0.930 . S
C597 H585 0.930 . S
C597 C598 1.399 . S
C597 C602 1.399 . S
C598 C597 1.399 . S
C598 C599 1.376 . S
C599 H586 0.930 . S
C599 C598 1.376 . S
C599 C600 1.388 . S
C600 H587 0.930 . S
C600 C599 1.388 . S
C600 C601 1.390 . S
C601 C600 1.390 . S
C601 C602 1.394 . S
C601 C607 1.465 . S
C602 C597 1.399 . S
C602 C601 1.394 . S
C602 C603 1.516 . S
C603 C602 1.516 . S
C603 C604 1.502 . S
C603 C605 1.561 . S
C603 C606 1.526 . S
C604 H588 0.959 . S
C604 H589 0.959 . S
C604 H590 0.961 . S
C604 C603 1.502 . S
C605 H591 0.960 . S
C605 H592 0.961 . S
C605 H593 0.959 . S
C605 C603 1.561 . S
C606 C603 1.526 . S
C606 C607 1.396 . S
C606 C611 1.390 . S
C607 C601 1.465 . S
C607 C606 1.396 . S
C607 C608 1.399 . S
C608 H594 0.929 . S
C608 C607 1.399 . S
C608 C609 1.385 . S
C609 H595 0.931 . S
C609 C608 1.385 . S
C609 C610 1.389 . S
C610 C609 1.389 . S
C610 C611 1.387 . S
C611 H596 0.930 . S
C611 C606 1.390 . S
C611 C610 1.387 . S
H612 C624 0.930 . S
H613 C626 0.930 . S
H614 C627 0.930 1_556 S
H615 C631 0.959 . S
H616 C631 0.959 . S
H617 C631 0.961 . S
H618 C632 0.960 . S
H619 C632 0.961 . S
H620 C632 0.959 . S
H621 C635 0.933 1_556 S
H622 C636 0.896 1_556 S
H623 C638 0.930 . S
C624 H612 0.930 . S
C624 C625 1.399 . S
C624 C629 1.399 . S
C625 C624 1.399 . S
C625 C626 1.376 . S
C626 H613 0.930 . S
C626 C625 1.376 . S
C626 C627 1.388 . S
C627 H614 0.930 1_554 S
C627 C626 1.388 . S
C627 C628 1.390 . S
C628 C627 1.390 . S
C628 C629 1.394 . S
C628 C634 1.465 . S
C629 C624 1.399 . S
C629 C628 1.394 . S
C629 C630 1.516 . S
C630 C629 1.516 . S
C630 C631 1.502 . S
C630 C632 1.561 . S
C630 C633 1.526 . S
C631 H615 0.959 . S
C631 H616 0.959 . S
C631 H617 0.961 . S
C631 C630 1.502 . S
C632 H618 0.960 . S
C632 H619 0.961 . S
C632 H620 0.959 . S
C632 C630 1.561 . S
C633 C630 1.526 . S
C633 C634 1.396 . S
C633 C638 1.390 . S
C634 C628 1.465 . S
C634 C633 1.396 . S
C634 C635 1.395 . S
C635 H621 0.933 1_554 S
C635 C634 1.395 . S
C635 C636 1.380 . S
C636 H622 0.896 1_554 S
C636 C635 1.380 . S
C636 C637 1.429 . S
C637 C636 1.429 . S
C637 C638 1.387 . S
C638 H623 0.930 . S
C638 C633 1.390 . S
C638 C637 1.387 . S
H639 C651 0.930 . S
H640 C653 0.930 . S
H641 C654 0.930 . S
H642 C658 0.959 1_554 S
H643 C658 0.959 . S
H644 C658 0.961 . S
H645 C659 0.960 . S
H646 C659 0.961 . S
H647 C659 0.959 . S
H648 C662 0.929 . S
H649 C663 0.931 . S
H650 C665 0.930 . S
C651 H639 0.930 . S
C651 C652 1.399 . S
C651 C656 1.399 . S
C652 C651 1.399 . S
C652 C653 1.376 . S
C653 H640 0.930 . S
C653 C652 1.376 . S
C653 C654 1.388 . S
C654 H641 0.930 . S
C654 C653 1.388 . S
C654 C655 1.390 . S
C655 C654 1.390 . S
C655 C656 1.394 . S
C655 C661 1.465 . S
C656 C651 1.399 . S
C656 C655 1.394 . S
C656 C657 1.516 . S
C657 C656 1.516 . S
C657 C658 1.502 . S
C657 C659 1.561 . S
C657 C660 1.526 . S
C658 H642 0.959 1_556 S
C658 H643 0.959 . S
C658 H644 0.961 . S
C658 C657 1.502 . S
C659 H645 0.960 . S
C659 H646 0.961 . S
C659 H647 0.959 . S
C659 C657 1.561 . S
C660 C657 1.526 . S
C660 C661 1.396 . S
C660 C665 1.390 . S
C661 C655 1.465 . S
C661 C660 1.396 . S
C661 C662 1.399 . S
C662 H648 0.929 . S
C662 C661 1.399 . S
C662 C663 1.385 . S
C663 H649 0.931 . S
C663 C662 1.385 . S
C663 C664 1.389 . S
C664 C663 1.389 . S
C664 C665 1.387 . S
C665 H650 0.930 . S
C665 C660 1.390 . S
C665 C664 1.387 . S
H666 C678 0.930 . S
H667 C680 0.930 . S
H668 C681 0.930 . S
H669 C685 0.959 . S
H670 C685 0.959 . S
H671 C685 0.961 . S
H672 C686 0.960 . S
H673 C686 0.961 . S
H674 C686 0.959 . S
H675 C689 0.929 . S
H676 C690 0.931 . S
H677 C692 0.930 . S
C678 H666 0.930 . S
C678 C679 1.399 . S
C678 C683 1.399 . S
C679 C678 1.399 . S
C679 C680 1.376 . S
C680 H667 0.930 . S
C680 C679 1.376 . S
C680 C681 1.388 . S
C681 H668 0.930 . S
C681 C680 1.388 . S
C681 C682 1.390 . S
C682 C681 1.390 . S
C682 C683 1.394 . S
C682 C688 1.465 . S
C683 C678 1.399 . S
C683 C682 1.394 . S
C683 C684 1.516 . S
C684 C683 1.516 . S
C684 C685 1.502 . S
C684 C686 1.561 . S
C684 C687 1.526 . S
C685 H669 0.959 . S
C685 H670 0.959 . S
C685 H671 0.961 . S
C685 C684 1.502 . S
C686 H672 0.960 . S
C686 H673 0.961 . S
C686 H674 0.959 . S
C686 C684 1.561 . S
C687 C684 1.526 . S
C687 C688 1.396 . S
C687 C692 1.390 . S
C688 C682 1.465 . S
C688 C687 1.396 . S
C688 C689 1.399 1_556 S
C689 H675 0.929 . S
C689 C688 1.399 1_554 S
C689 C690 1.385 . S
C690 H676 0.931 . S
C690 C689 1.385 . S
C690 C691 1.389 1_554 S
C691 C690 1.389 1_556 S
C691 C692 1.387 . S
C692 H677 0.930 . S
C692 C687 1.390 . S
C692 C691 1.387 . S
H693 C705 0.930 1_554 S
H694 C707 0.930 . S
H695 C708 0.930 . S
H696 C712 0.959 . S
H697 C712 0.959 . S
H698 C712 0.961 . S
H699 C713 0.960 . S
H700 C713 0.961 . S
H701 C713 0.959 . S
H702 C716 0.929 . S
H703 C717 0.931 . S
H704 C719 0.930 . S
C705 H693 0.930 1_556 S
C705 C706 1.399 . S
C705 C710 1.399 . S
C706 C705 1.399 . S
C706 C707 1.376 . S
C707 H694 0.930 . S
C707 C706 1.376 . S
C707 C708 1.388 . S
C708 H695 0.930 . S
C708 C707 1.388 . S
C708 C709 1.390 . S
C709 C708 1.390 . S
C709 C710 1.394 . S
C709 C715 1.465 . S
C710 C705 1.399 . S
C710 C709 1.394 . S
C710 C711 1.516 1_556 S
C711 C710 1.516 1_554 S
C711 C712 1.502 . S
C711 C713 1.561 . S
C711 C714 1.526 . S
C712 H696 0.959 . S
C712 H697 0.959 . S
C712 H698 0.961 . S
C712 C711 1.502 . S
C713 H699 0.960 . S
C713 H700 0.961 . S
C713 H701 0.959 . S
C713 C711 1.561 . S
C714 C711 1.526 . S
C714 C715 1.396 1_554 S
C714 C719 1.390 . S
C715 C709 1.465 . S
C715 C714 1.396 1_556 S
C715 C716 1.399 . S
C716 H702 0.929 . S
C716 C715 1.399 . S
C716 C717 1.385 . S
C717 H703 0.931 . S
C717 C716 1.385 . S
C717 C718 1.389 . S
C718 C717 1.389 . S
C718 C719 1.387 1_556 S
C719 H704 0.930 . S
C719 C714 1.390 . S
C719 C718 1.387 1_554 S
H720 C732 0.930 . S
H721 C734 0.930 . S
H722 C735 0.930 1_554 S
H723 C739 0.959 . S
H724 C739 0.959 . S
H725 C739 0.961 . S
H726 C740 0.960 . S
H727 C740 0.961 . S
H728 C740 0.959 . S
H729 C743 0.929 . S
H730 C744 0.931 . S
H731 C746 0.930 . S
C732 H720 0.930 . S
C732 C733 1.399 . S
C732 C737 1.399 . S
C733 C732 1.399 . S
C733 C734 1.376 . S
C734 H721 0.930 . S
C734 C733 1.376 . S
C734 C735 1.388 . S
C735 H722 0.930 1_556 S
C735 C734 1.388 . S
C735 C736 1.390 . S
C736 C735 1.390 . S
C736 C737 1.394 . S
C736 C742 1.465 . S
C737 C732 1.399 . S
C737 C736 1.394 . S
C737 C738 1.516 . S
C738 C737 1.516 . S
C738 C739 1.502 . S
C738 C740 1.561 . S
C738 C741 1.526 . S
C739 H723 0.959 . S
C739 H724 0.959 . S
C739 H725 0.961 . S
C739 C738 1.502 . S
C740 H726 0.960 . S
C740 H727 0.961 . S
C740 H728 0.959 . S
C740 C738 1.561 . S
C741 C738 1.526 . S
C741 C742 1.396 . S
C741 C746 1.390 . S
C742 C736 1.465 . S
C742 C741 1.396 . S
C742 C743 1.399 1_556 S
C743 H729 0.929 . S
C743 C742 1.399 1_554 S
C743 C744 1.385 . S
C744 H730 0.931 . S
C744 C743 1.385 . S
C744 C745 1.389 1_554 S
C745 C744 1.389 1_556 S
C745 C746 1.387 . S
C746 H731 0.930 . S
C746 C741 1.390 . S
C746 C745 1.387 . S
H747 C759 0.930 . S
H748 C761 0.930 . S
H749 C762 0.930 . S
H750 C766 0.959 . S
H751 C766 0.959 . S
H752 C766 0.961 . S
H753 C767 0.960 . S
H754 C767 0.961 . S
H755 C767 0.959 . S
H756 C770 0.929 . S
H757 C771 0.931 . S
H758 C773 0.930 . S
C759 H747 0.930 . S
C759 C760 1.399 . S
C759 C764 1.399 . S
C760 C759 1.399 . S
C760 C761 1.376 . S
C761 H748 0.930 . S
C761 C760 1.376 . S
C761 C762 1.388 . S
C762 H749 0.930 . S
C762 C761 1.388 . S
C762 C763 1.390 . S
C763 C762 1.390 . S
C763 C764 1.394 . S
C763 C769 1.465 . S
C764 C759 1.399 . S
C764 C763 1.394 . S
C764 C765 1.516 . S
C765 C764 1.516 . S
C765 C766 1.502 . S
C765 C767 1.561 . S
C765 C768 1.526 . S
C766 H750 0.959 . S
C766 H751 0.959 . S
C766 H752 0.961 . S
C766 C765 1.502 . S
C767 H753 0.960 . S
C767 H754 0.961 . S
C767 H755 0.959 . S
C767 C765 1.561 . S
C768 C765 1.526 . S
C768 C769 1.396 . S
C768 C773 1.390 . S
C769 C763 1.465 . S
C769 C768 1.396 . S
C769 C770 1.399 . S
C770 H756 0.929 . S
C770 C769 1.399 . S
C770 C771 1.385 . S
C771 H757 0.931 . S
C771 C770 1.385 . S
C771 C772 1.389 . S
C772 C771 1.389 . S
C772 C773 1.387 . S
C773 H758 0.930 . S
C773 C768 1.390 . S
C773 C772 1.387 . S
H774 C786 0.930 . S
H775 C788 0.930 . S
H776 C789 0.930 . S
H777 C793 0.959 . S
H778 C793 0.959 . S
H779 C793 0.961 . S
H780 C794 0.960 . S
H781 C794 0.961 . S
H782 C794 0.959 . S
H783 C797 0.929 . S
H784 C798 0.931 . S
H785 C800 0.930 . S
C786 H774 0.930 . S
C786 C787 1.399 . S
C786 C791 1.399 . S
C787 C786 1.399 . S
C787 C788 1.376 1_556 S
C788 H775 0.930 . S
C788 C787 1.376 1_554 S
C788 C789 1.388 . S
C789 H776 0.930 . S
C789 C788 1.388 . S
C789 C790 1.390 . S
C790 C789 1.390 . S
C790 C791 1.394 1_554 S
C790 C796 1.465 . S
C791 C786 1.399 . S
C791 C790 1.394 1_556 S
C791 C792 1.516 . S
C792 C791 1.516 . S
C792 C793 1.502 . S
C792 C794 1.561 . S
C792 C795 1.526 . S
C793 H777 0.959 . S
C793 H778 0.959 . S
C793 H779 0.961 . S
C793 C792 1.502 . S
C794 H780 0.960 . S
C794 H781 0.961 . S
C794 H782 0.959 . S
C794 C792 1.561 . S
C795 C792 1.526 . S
C795 C796 1.396 1_556 S
C795 C800 1.390 . S
C796 C790 1.465 . S
C796 C795 1.396 1_554 S
C796 C797 1.399 . S
C797 H783 0.929 . S
C797 C796 1.399 . S
C797 C798 1.385 . S
C798 H784 0.931 . S
C798 C797 1.385 . S
C798 C799 1.389 . S
C799 C798 1.389 . S
C799 C800 1.387 1_554 S
C800 H785 0.930 . S
C800 C795 1.390 . S
C800 C799 1.387 1_556 S
H801 C813 0.930 . S
H802 C815 0.930 . S
H803 C816 0.930 1_556 S
H804 C820 0.959 . S
H805 C820 0.959 . S
H806 C820 0.961 . S
H807 C821 0.960 . S
H808 C821 0.961 . S
H809 C821 0.959 . S
H810 C824 0.925 . S
H811 C825 0.930 1_556 S
H812 C827 0.930 . S
C813 H801 0.930 . S
C813 C814 1.399 . S
C813 C818 1.399 . S
C814 C813 1.399 . S
C814 C815 1.376 . S
C815 H802 0.930 . S
C815 C814 1.376 . S
C815 C816 1.388 . S
C816 H803 0.930 1_554 S
C816 C815 1.388 . S
C816 C817 1.390 . S
C817 C816 1.390 . S
C817 C818 1.394 . S
C817 C823 1.465 . S
C818 C813 1.399 . S
C818 C817 1.394 . S
C818 C819 1.516 . S
C819 C818 1.516 . S
C819 C820 1.502 . S
C819 C821 1.561 . S
C819 C822 1.526 . S
C820 H804 0.959 . S
C820 H805 0.959 . S
C820 H806 0.961 . S
C820 C819 1.502 . S
C821 H807 0.960 . S
C821 H808 0.961 . S
C821 H809 0.959 . S
C821 C819 1.561 . S
C822 C819 1.526 . S
C822 C823 1.396 . S
C822 C827 1.390 . S
C823 C817 1.465 . S
C823 C822 1.396 . S
C823 C824 1.403 1_554 S
C824 H810 0.925 . S
C824 C823 1.403 1_556 S
C824 C825 1.386 1_556 S
C825 H811 0.930 1_554 S
C825 C824 1.386 1_554 S
C825 C826 1.390 . S
C826 C825 1.390 . S
C826 C827 1.387 . S
C827 H812 0.930 . S
C827 C822 1.390 . S
C827 C826 1.387 . S
H828 C840 0.930 . S
H829 C842 0.930 . S
H830 C843 0.930 . S
H831 C847 0.959 . S
H832 C847 0.959 . S
H833 C847 0.961 . S
H834 C848 0.960 . S
H835 C848 0.961 . S
H836 C848 0.959 . S
H837 C851 0.929 . S
H838 C852 0.931 . S
H839 C854 0.930 . S
C840 H828 0.930 . S
C840 C841 1.399 . S
C840 C845 1.399 . S
C841 C840 1.399 . S
C841 C842 1.376 . S
C842 H829 0.930 . S
C842 C841 1.376 . S
C842 C843 1.388 . S
C843 H830 0.930 . S
C843 C842 1.388 . S
C843 C844 1.390 . S
C844 C843 1.390 . S
C844 C845 1.394 . S
C844 C850 1.465 . S
C845 C840 1.399 . S
C845 C844 1.394 . S
C845 C846 1.516 . S
C846 C845 1.516 . S
C846 C847 1.502 . S
C846 C848 1.561 . S
C846 C849 1.526 . S
C847 H831 0.959 . S
C847 H832 0.959 . S
C847 H833 0.961 . S
C847 C846 1.502 . S
C848 H834 0.960 . S
C848 H835 0.961 . S
C848 H836 0.959 . S
C848 C846 1.561 . S
C849 C846 1.526 . S
C849 C850 1.396 . S
C849 C854 1.390 . S
C850 C844 1.465 . S
C850 C849 1.396 . S
C850 C851 1.399 . S
C851 H837 0.929 . S
C851 C850 1.399 . S
C851 C852 1.385 . S
C852 H838 0.931 . S
C852 C851 1.385 . S
C852 C853 1.389 . S
C853 C852 1.389 . S
C853 C854 1.387 . S
C854 H839 0.930 . S
C854 C849 1.390 . S
C854 C853 1.387 . S
H855 C867 0.930 . S
H856 C869 0.929 . S
H857 C870 0.889 1_556 S
H858 C874 0.959 . S
H859 C874 0.959 . S
H860 C874 0.961 . S
H861 C875 0.960 . S
H862 C875 0.961 . S
H863 C875 0.959 . S
H864 C878 0.929 . S
H865 C879 0.931 . S
H866 C881 0.930 . S
C867 H855 0.930 . S
C867 C868 1.399 . S
C867 C872 1.399 . S
C868 C867 1.399 . S
C868 C869 1.376 . S
C869 H856 0.929 . S
C869 C868 1.376 . S
C869 C870 1.405 . S
C870 H857 0.889 1_554 S
C870 C869 1.405 . S
C870 C871 1.416 . S
C871 C870 1.416 . S
C871 C872 1.394 . S
C871 C877 1.465 . S
C872 C867 1.399 . S
C872 C871 1.394 . S
C872 C873 1.516 . S
C873 C872 1.516 . S
C873 C874 1.502 . S
C873 C875 1.561 . S
C873 C876 1.526 . S
C874 H858 0.959 . S
C874 H859 0.959 . S
C874 H860 0.961 . S
C874 C873 1.502 . S
C875 H861 0.960 . S
C875 H862 0.961 . S
C875 H863 0.959 . S
C875 C873 1.561 . S
C876 C873 1.526 . S
C876 C877 1.396 . S
C876 C881 1.390 . S
C877 C871 1.465 . S
C877 C876 1.396 . S
C877 C878 1.399 1_554 S
C878 H864 0.929 . S
C878 C877 1.399 1_556 S
C878 C879 1.385 . S
C879 H865 0.931 . S
C879 C878 1.385 . S
C879 C880 1.389 1_556 S
C880 C879 1.389 1_554 S
C880 C881 1.387 . S
C881 H866 0.930 . S
C881 C876 1.390 . S
C881 C880 1.387 . S
H882 C894 0.930 . S
H883 C896 0.930 . S
H884 C897 0.930 . S
H885 C901 0.959 . S
H886 C901 0.959 . S
H887 C901 0.961 . S
H888 C902 0.960 . S
H889 C902 0.961 . S
H890 C902 0.959 . S
H891 C905 0.929 . S
H892 C906 0.931 . S
H893 C908 0.930 . S
C894 H882 0.930 . S
C894 C895 1.399 . S
C894 C899 1.399 . S
C895 C894 1.399 . S
C895 C896 1.376 . S
C896 H883 0.930 . S
C896 C895 1.376 . S
C896 C897 1.388 . S
C897 H884 0.930 . S
C897 C896 1.388 . S
C897 C898 1.390 . S
C898 C897 1.390 . S
C898 C899 1.394 . S
C898 C904 1.465 1_655 S
C899 C894 1.399 . S
C899 C898 1.394 . S
C899 C900 1.516 . S
C900 C899 1.516 . S
C900 C901 1.502 . S
C900 C902 1.561 . S
C900 C903 1.526 1_655 S
C901 H885 0.959 . S
C901 H886 0.959 . S
C901 H887 0.961 . S
C901 C900 1.502 . S
C902 H888 0.960 . S
C902 H889 0.961 . S
C902 H890 0.959 . S
C902 C900 1.561 . S
C903 C900 1.526 1_455 S
C903 C904 1.396 . S
C903 C908 1.390 . S
C904 C898 1.465 1_455 S
C904 C903 1.396 . S
C904 C905 1.399 . S
C905 H891 0.929 . S
C905 C904 1.399 . S
C905 C906 1.385 . S
C906 H892 0.931 . S
C906 C905 1.385 . S
C906 C907 1.389 . S
C907 C906 1.389 . S
C907 C908 1.387 . S
C908 H893 0.930 . S
C908 C903 1.390 . S
C908 C907 1.387 . S
H909 C921 0.930 . S
H910 C923 0.930 . S
H911 C924 0.930 . S
H912 C928 0.959 . S
H913 C928 0.959 . S
H914 C928 0.961 . S
H915 C929 0.960 . S
H916 C929 0.961 . S
H917 C929 0.959 . S
H918 C932 0.929 . S
H919 C933 0.931 . S
H920 C935 0.930 . S
C921 H909 0.930 . S
C921 C922 1.399 . S
C921 C926 1.399 . S
C922 C921 1.399 . S
C922 C923 1.376 . S
C923 H910 0.930 . S
C923 C922 1.376 . S
C923 C924 1.388 . S
C924 H911 0.930 . S
C924 C923 1.388 . S
C924 C925 1.390 . S
C925 C924 1.390 . S
C925 C926 1.394 . S
C925 C931 1.465 . S
C926 C921 1.399 . S
C926 C925 1.394 . S
C926 C927 1.516 . S
C927 C926 1.516 . S
C927 C928 1.502 . S
C927 C929 1.561 . S
C927 C930 1.526 . S
C928 H912 0.959 . S
C928 H913 0.959 . S
C928 H914 0.961 . S
C928 C927 1.502 . S
C929 H915 0.960 . S
C929 H916 0.961 . S
C929 H917 0.959 . S
C929 C927 1.561 . S
C930 C927 1.526 . S
C930 C931 1.396 . S
C930 C935 1.390 . S
C931 C925 1.465 . S
C931 C930 1.396 . S
C931 C932 1.399 . S
C932 H918 0.929 . S
C932 C931 1.399 . S
C932 C933 1.385 . S
C933 H919 0.931 . S
C933 C932 1.385 . S
C933 C934 1.389 . S
C934 C933 1.389 . S
C934 C935 1.387 . S
C935 H920 0.930 . S
C935 C930 1.390 . S
C935 C934 1.387 . S
H936 C948 0.930 . S
H937 C950 0.930 . S
H938 C951 0.930 . S
H939 C955 0.959 . S
H940 C955 0.959 1_565 S
H941 C955 0.961 . S
H942 C956 0.960 . S
H943 C956 0.961 1_565 S
H944 C956 0.959 . S
H945 C959 0.929 1_545 S
H946 C960 0.931 . S
H947 C962 0.930 . S
C948 H936 0.930 . S
C948 C949 1.399 . S
C948 C953 1.399 . S
C949 C948 1.399 . S
C949 C950 1.376 . S
C950 H937 0.930 . S
C950 C949 1.376 . S
C950 C951 1.388 . S
C951 H938 0.930 . S
C951 C950 1.388 . S
C951 C952 1.390 . S
C952 C951 1.390 . S
C952 C953 1.394 . S
C952 C958 1.465 . S
C953 C948 1.399 . S
C953 C952 1.394 . S
C953 C954 1.516 . S
C954 C953 1.516 . S
C954 C955 1.502 . S
C954 C956 1.561 . S
C954 C957 1.526 1_545 S
C955 H939 0.959 . S
C955 H940 0.959 1_545 S
C955 H941 0.961 . S
C955 C954 1.502 . S
C956 H942 0.960 . S
C956 H943 0.961 1_545 S
C956 H944 0.959 . S
C956 C954 1.561 . S
C957 C954 1.526 1_565 S
C957 C958 1.396 1_565 S
C957 C962 1.390 . S
C958 C952 1.465 . S
C958 C957 1.396 1_545 S
C958 C959 1.399 1_545 S
C959 H945 0.929 1_565 S
C959 C958 1.399 1_565 S
C959 C960 1.385 . S
C960 H946 0.931 . S
C960 C959 1.385 . S
C960 C961 1.389 . S
C961 C960 1.389 . S
C961 C962 1.387 . S
C962 H947 0.930 . S
C962 C957 1.390 . S
C962 C961 1.387 . S
H963 C975 0.930 . S
H964 C977 0.930 . S
H965 C978 0.930 . S
H966 C982 0.959 . S
H967 C982 0.959 . S
H968 C982 0.961 . S
H969 C983 0.960 . S
H970 C983 0.961 . S
H971 C983 0.959 . S
H972 C986 0.929 . S
H973 C987 0.931 . S
H974 C989 0.930 . S
C975 H963 0.930 . S
C975 C976 1.399 . S
C975 C980 1.399 . S
C976 C975 1.399 . S
C976 C977 1.376 . S
C977 H964 0.930 . S
C977 C976 1.376 . S
C977 C978 1.388 . S
C978 H965 0.930 . S
C978 C977 1.388 . S
C978 C979 1.390 . S
C979 C978 1.390 . S
C979 C980 1.394 . S
C979 C985 1.465 . S
C980 C975 1.399 . S
C980 C979 1.394 . S
C980 C981 1.516 . S
C981 C980 1.516 . S
C981 C982 1.502 . S
C981 C983 1.561 . S
C981 C984 1.526 . S
C982 H966 0.959 . S
C982 H967 0.959 . S
C982 H968 0.961 . S
C982 C981 1.502 . S
C983 H969 0.960 . S
C983 H970 0.961 . S
C983 H971 0.959 . S
C983 C981 1.561 . S
C984 C981 1.526 . S
C984 C985 1.396 . S
C984 C989 1.390 . S
C985 C979 1.465 . S
C985 C984 1.396 . S
C985 C986 1.399 . S
C986 H972 0.929 . S
C986 C985 1.399 . S
C986 C987 1.385 . S
C987 H973 0.931 . S
C987 C986 1.385 . S
C987 C988 1.389 . S
C988 C987 1.389 . S
C988 C989 1.387 . S
C989 H974 0.930 . S
C989 C984 1.390 . S
C989 C988 1.387 . S
H990 C1002 0.930 . S
H991 C1004 0.930 . S
H992 C1005 0.930 . S
H993 C1009 0.959 . S
H994 C1009 0.959 . S
H995 C1009 0.961 . S
H996 C1010 0.960 . S
H997 C1010 0.961 . S
H998 C1010 0.959 . S
H999 C1013 0.929 . S
H1000 C1014 0.931 . S
H1001 C1016 0.930 . S
C1002 H990 0.930 . S
C1002 C1003 1.399 . S
C1002 C1007 1.399 . S
C1003 C1002 1.399 . S
C1003 C1004 1.376 . S
C1004 H991 0.930 . S
C1004 C1003 1.376 . S
C1004 C1005 1.388 . S
C1005 H992 0.930 . S
C1005 C1004 1.388 . S
C1005 C1006 1.390 . S
C1006 C1005 1.390 . S
C1006 C1007 1.394 . S
C1006 C1012 1.465 . S
C1007 C1002 1.399 . S
C1007 C1006 1.394 . S
C1007 C1008 1.516 . S
C1008 C1007 1.516 . S
C1008 C1009 1.502 . S
C1008 C1010 1.561 . S
C1008 C1011 1.526 . S
C1009 H993 0.959 . S
C1009 H994 0.959 . S
C1009 H995 0.961 . S
C1009 C1008 1.502 . S
C1010 H996 0.960 . S
C1010 H997 0.961 . S
C1010 H998 0.959 . S
C1010 C1008 1.561 . S
C1011 C1008 1.526 . S
C1011 C1012 1.396 . S
C1011 C1016 1.390 . S
C1012 C1006 1.465 . S
C1012 C1011 1.396 . S
C1012 C1013 1.399 . S
C1013 H999 0.929 . S
C1013 C1012 1.399 . S
C1013 C1014 1.385 . S
C1014 H1000 0.931 . S
C1014 C1013 1.385 . S
C1014 C1015 1.389 . S
C1015 C1014 1.389 . S
C1015 C1016 1.387 . S
C1016 H1001 0.930 . S
C1016 C1011 1.390 . S
C1016 C1015 1.387 . S
H1017 C1029 0.930 . S
H1018 C1031 0.930 . S
H1019 C1032 0.930 . S
H1020 C1036 0.959 . S
H1021 C1036 0.959 . S
H1022 C1036 0.961 . S
H1023 C1037 0.960 . S
H1024 C1037 0.961 . S
H1025 C1037 0.959 . S
H1026 C1040 0.929 . S
H1027 C1041 0.931 . S
H1028 C1043 0.930 . S
C1029 H1017 0.930 . S
C1029 C1030 1.399 . S
C1029 C1034 1.399 . S
C1030 C1029 1.399 . S
C1030 C1031 1.376 . S
C1031 H1018 0.930 . S
C1031 C1030 1.376 . S
C1031 C1032 1.388 . S
C1032 H1019 0.930 . S
C1032 C1031 1.388 . S
C1032 C1033 1.390 . S
C1033 C1032 1.390 . S
C1033 C1034 1.394 . S
C1033 C1039 1.465 . S
C1034 C1029 1.399 . S
C1034 C1033 1.394 . S
C1034 C1035 1.516 . S
C1035 C1034 1.516 . S
C1035 C1036 1.502 . S
C1035 C1037 1.561 . S
C1035 C1038 1.526 . S
C1036 H1020 0.959 . S
C1036 H1021 0.959 . S
C1036 H1022 0.961 . S
C1036 C1035 1.502 . S
C1037 H1023 0.960 . S
C1037 H1024 0.961 . S
C1037 H1025 0.959 . S
C1037 C1035 1.561 . S
C1038 C1035 1.526 . S
C1038 C1039 1.396 . S
C1038 C1043 1.390 . S
C1039 C1033 1.465 . S
C1039 C1038 1.396 . S
C1039 C1040 1.399 . S
C1040 H1026 0.929 . S
C1040 C1039 1.399 . S
C1040 C1041 1.385 . S
C1041 H1027 0.931 . S
C1041 C1040 1.385 . S
C1041 C1042 1.389 . S
C1042 C1041 1.389 . S
C1042 C1043 1.387 . S
C1043 H1028 0.930 . S
C1043 C1038 1.390 . S
C1043 C1042 1.387 . S
H1044 C1056 0.930 . S
H1045 C1058 0.930 . S
H1046 C1059 0.930 . S
H1047 C1063 0.959 . S
H1048 C1063 0.959 . S
H1049 C1063 0.961 . S
H1050 C1064 0.960 . S
H1051 C1064 0.961 . S
H1052 C1064 0.959 . S
H1053 C1067 0.929 . S
H1054 C1068 0.931 . S
H1055 C1070 0.930 . S
C1056 H1044 0.930 . S
C1056 C1057 1.399 . S
C1056 C1061 1.399 . S
C1057 C1056 1.399 . S
C1057 C1058 1.376 . S
C1058 H1045 0.930 . S
C1058 C1057 1.376 . S
C1058 C1059 1.388 . S
C1059 H1046 0.930 . S
C1059 C1058 1.388 . S
C1059 C1060 1.390 . S
C1060 C1059 1.390 . S
C1060 C1061 1.394 . S
C1060 C1066 1.465 . S
C1061 C1056 1.399 . S
C1061 C1060 1.394 . S
C1061 C1062 1.516 . S
C1062 C1061 1.516 . S
C1062 C1063 1.502 . S
C1062 C1064 1.561 . S
C1062 C1065 1.526 . S
C1063 H1047 0.959 . S
C1063 H1048 0.959 . S
C1063 H1049 0.961 . S
C1063 C1062 1.502 . S
C1064 H1050 0.960 . S
C1064 H1051 0.961 . S
C1064 H1052 0.959 . S
C1064 C1062 1.561 . S
C1065 C1062 1.526 . S
C1065 C1066 1.396 . S
C1065 C1070 1.390 . S
C1066 C1060 1.465 . S
C1066 C1065 1.396 . S
C1066 C1067 1.399 . S
C1067 H1053 0.929 . S
C1067 C1066 1.399 . S
C1067 C1068 1.385 . S
C1068 H1054 0.931 . S
C1068 C1067 1.385 . S
C1068 C1069 1.389 . S
C1069 C1068 1.389 . S
C1069 C1070 1.387 . S
C1070 H1055 0.930 . S
C1070 C1065 1.390 . S
C1070 C1069 1.387 . S
H1071 C1083 0.930 . S
H1072 C1085 0.930 . S
H1073 C1086 0.930 . S
H1074 C1090 0.959 . S
H1075 C1090 0.959 . S
H1076 C1090 0.961 . S
H1077 C1091 0.960 . S
H1078 C1091 0.961 . S
H1079 C1091 0.959 . S
H1080 C1094 0.929 . S
H1081 C1095 0.931 . S
H1082 C1097 0.930 . S
C1083 H1071 0.930 . S
C1083 C1084 1.399 . S
C1083 C1088 1.399 . S
C1084 C1083 1.399 . S
C1084 C1085 1.376 . S
C1085 H1072 0.930 . S
C1085 C1084 1.376 . S
C1085 C1086 1.388 . S
C1086 H1073 0.930 . S
C1086 C1085 1.388 . S
C1086 C1087 1.390 . S
C1087 C1086 1.390 . S
C1087 C1088 1.394 . S
C1087 C1093 1.465 . S
C1088 C1083 1.399 . S
C1088 C1087 1.394 . S
C1088 C1089 1.516 . S
C1089 C1088 1.516 . S
C1089 C1090 1.502 . S
C1089 C1091 1.561 . S
C1089 C1092 1.526 . S
C1090 H1074 0.959 . S
C1090 H1075 0.959 . S
C1090 H1076 0.961 . S
C1090 C1089 1.502 . S
C1091 H1077 0.960 . S
C1091 H1078 0.961 . S
C1091 H1079 0.959 . S
C1091 C1089 1.561 . S
C1092 C1089 1.526 . S
C1092 C1093 1.396 . S
C1092 C1097 1.390 . S
C1093 C1087 1.465 . S
C1093 C1092 1.396 . S
C1093 C1094 1.399 . S
C1094 H1080 0.929 . S
C1094 C1093 1.399 . S
C1094 C1095 1.385 . S
C1095 H1081 0.931 . S
C1095 C1094 1.385 . S
C1095 C1096 1.389 . S
C1096 C1095 1.389 . S
C1096 C1097 1.387 . S
C1097 H1082 0.930 . S
C1097 C1092 1.390 . S
C1097 C1096 1.387 . S
H1098 C1110 0.930 . S
H1099 C1112 0.930 . S
H1100 C1113 0.930 . S
H1101 C1117 0.959 . S
H1102 C1117 0.959 . S
H1103 C1117 0.961 . S
H1104 C1118 0.960 . S
H1105 C1118 0.961 . S
H1106 C1118 0.959 . S
H1107 C1121 0.929 . S
H1108 C1122 0.931 . S
H1109 C1124 0.930 . S
C1110 H1098 0.930 . S
C1110 C1111 1.399 . S
C1110 C1115 1.399 . S
C1111 C1110 1.399 . S
C1111 C1112 1.376 . S
C1112 H1099 0.930 . S
C1112 C1111 1.376 . S
C1112 C1113 1.388 . S
C1113 H1100 0.930 . S
C1113 C1112 1.388 . S
C1113 C1114 1.390 . S
C1114 C1113 1.390 . S
C1114 C1115 1.394 . S
C1114 C1120 1.465 . S
C1115 C1110 1.399 . S
C1115 C1114 1.394 . S
C1115 C1116 1.516 . S
C1116 C1115 1.516 . S
C1116 C1117 1.502 . S
C1116 C1118 1.561 . S
C1116 C1119 1.526 . S
C1117 H1101 0.959 . S
C1117 H1102 0.959 . S
C1117 H1103 0.961 . S
C1117 C1116 1.502 . S
C1118 H1104 0.960 . S
C1118 H1105 0.961 . S
C1118 H1106 0.959 . S
C1118 C1116 1.561 . S
C1119 C1116 1.526 . S
C1119 C1120 1.396 . S
C1119 C1124 1.390 . S
C1120 C1114 1.465 . S
C1120 C1119 1.396 . S
C1120 C1121 1.399 . S
C1121 H1107 0.929 . S
C1121 C1120 1.399 . S
C1121 C1122 1.385 . S
C1122 H1108 0.931 . S
C1122 C1121 1.385 . S
C1122 C1123 1.389 . S
C1123 C1122 1.389 . S
C1123 C1124 1.387 . S
C1124 H1109 0.930 . S
C1124 C1119 1.390 . S
C1124 C1123 1.387 . S
H1125 C1137 0.930 . S
H1126 C1139 0.930 . S
H1127 C1140 0.930 . S
H1128 C1144 0.959 . S
H1129 C1144 0.959 . S
H1130 C1144 0.961 . S
H1131 C1145 0.960 . S
H1132 C1145 0.961 . S
H1133 C1145 0.959 . S
H1134 C1148 0.929 . S
H1135 C1149 0.931 . S
H1136 C1151 0.930 . S
C1137 H1125 0.930 . S
C1137 C1138 1.399 . S
C1137 C1142 1.399 1_545 S
C1138 C1137 1.399 . S
C1138 C1139 1.376 . S
C1139 H1126 0.930 . S
C1139 C1138 1.376 . S
C1139 C1140 1.388 1_545 S
C1140 H1127 0.930 . S
C1140 C1139 1.388 1_565 S
C1140 C1141 1.390 . S
C1141 C1140 1.390 . S
C1141 C1142 1.394 . S
C1141 C1147 1.465 . S
C1142 C1137 1.399 1_565 S
C1142 C1141 1.394 . S
C1142 C1143 1.516 . S
C1143 C1142 1.516 . S
C1143 C1144 1.502 . S
C1143 C1145 1.561 . S
C1143 C1146 1.526 . S
C1144 H1128 0.959 . S
C1144 H1129 0.959 . S
C1144 H1130 0.961 . S
C1144 C1143 1.502 . S
C1145 H1131 0.960 . S
C1145 H1132 0.961 . S
C1145 H1133 0.959 . S
C1145 C1143 1.561 . S
C1146 C1143 1.526 . S
C1146 C1147 1.396 . S
C1146 C1151 1.390 . S
C1147 C1141 1.465 . S
C1147 C1146 1.396 . S
C1147 C1148 1.399 . S
C1148 H1134 0.929 . S
C1148 C1147 1.399 . S
C1148 C1149 1.385 . S
C1149 H1135 0.931 . S
C1149 C1148 1.385 . S
C1149 C1150 1.389 . S
C1150 C1149 1.389 . S
C1150 C1151 1.387 . S
C1151 H1136 0.930 . S
C1151 C1146 1.390 . S
C1151 C1150 1.387 . S
H1152 C1164 0.930 . S
H1153 C1166 0.930 . S
H1154 C1167 0.930 . S
H1155 C1171 0.959 . S
H1156 C1171 0.959 . S
H1157 C1171 0.961 . S
H1158 C1172 0.960 . S
H1159 C1172 0.961 . S
H1160 C1172 0.959 . S
H1161 C1175 0.929 . S
H1162 C1176 0.931 . S
H1163 C1178 0.930 . S
C1164 H1152 0.930 . S
C1164 C1165 1.399 1_455 S
C1164 C1169 1.399 . S
C1165 C1164 1.399 1_655 S
C1165 C1166 1.376 . S
C1166 H1153 0.930 . S
C1166 C1165 1.376 . S
C1166 C1167 1.388 1_655 S
C1167 H1154 0.930 . S
C1167 C1166 1.388 1_455 S
C1167 C1168 1.390 . S
C1168 C1167 1.390 . S
C1168 C1169 1.394 . S
C1168 C1174 1.465 . S
C1169 C1164 1.399 . S
C1169 C1168 1.394 . S
C1169 C1170 1.516 . S
C1170 C1169 1.516 . S
C1170 C1171 1.502 . S
C1170 C1172 1.561 . S
C1170 C1173 1.526 . S
C1171 H1155 0.959 . S
C1171 H1156 0.959 . S
C1171 H1157 0.961 . S
C1171 C1170 1.502 . S
C1172 H1158 0.960 . S
C1172 H1159 0.961 . S
C1172 H1160 0.959 . S
C1172 C1170 1.561 . S
C1173 C1170 1.526 . S
C1173 C1174 1.396 . S
C1173 C1178 1.390 . S
C1174 C1168 1.465 . S
C1174 C1173 1.396 . S
C1174 C1175 1.399 . S
C1175 H1161 0.929 . S
C1175 C1174 1.399 . S
C1175 C1176 1.385 . S
C1176 H1162 0.931 . S
C1176 C1175 1.385 . S
C1176 C1177 1.389 . S
C1177 C1176 1.389 . S
C1177 C1178 1.387 . S
C1178 H1163 0.930 . S
C1178 C1173 1.390 . S
C1178 C1177 1.387 . S
H1179 C1191 0.930 . S
H1180 C1193 0.930 . S
H1181 C1194 0.930 . S
H1182 C1198 0.959 . S
H1183 C1198 0.959 . S
H1184 C1198 0.961 . S
H1185 C1199 0.960 . S
H1186 C1199 0.961 . S
H1187 C1199 0.959 . S
H1188 C1202 0.929 . S
H1189 C1203 0.931 . S
H1190 C1205 0.930 . S
C1191 H1179 0.930 . S
C1191 C1192 1.399 . S
C1191 C1196 1.399 . S
C1192 C1191 1.399 . S
C1192 C1193 1.376 . S
C1193 H1180 0.930 . S
C1193 C1192 1.376 . S
C1193 C1194 1.388 . S
C1194 H1181 0.930 . S
C1194 C1193 1.388 . S
C1194 C1195 1.390 . S
C1195 C1194 1.390 . S
C1195 C1196 1.394 . S
C1195 C1201 1.465 . S
C1196 C1191 1.399 . S
C1196 C1195 1.394 . S
C1196 C1197 1.516 . S
C1197 C1196 1.516 . S
C1197 C1198 1.502 . S
C1197 C1199 1.561 . S
C1197 C1200 1.526 . S
C1198 H1182 0.959 . S
C1198 H1183 0.959 . S
C1198 H1184 0.961 . S
C1198 C1197 1.502 . S
C1199 H1185 0.960 . S
C1199 H1186 0.961 . S
C1199 H1187 0.959 . S
C1199 C1197 1.561 . S
C1200 C1197 1.526 . S
C1200 C1201 1.396 . S
C1200 C1205 1.390 . S
C1201 C1195 1.465 . S
C1201 C1200 1.396 . S
C1201 C1202 1.399 . S
C1202 H1188 0.929 . S
C1202 C1201 1.399 . S
C1202 C1203 1.385 . S
C1203 H1189 0.931 . S
C1203 C1202 1.385 . S
C1203 C1204 1.389 . S
C1204 C1203 1.389 . S
C1204 C1205 1.387 . S
C1205 H1190 0.930 . S
C1205 C1200 1.390 . S
C1205 C1204 1.387 . S
H1206 C1218 0.930 . S
H1207 C1220 0.930 . S
H1208 C1221 0.930 . S
H1209 C1225 0.959 . S
H1210 C1225 0.959 . S
H1211 C1225 0.961 . S
H1212 C1226 0.960 . S
H1213 C1226 0.961 . S
H1214 C1226 0.959 . S
H1215 C1229 0.929 . S
H1216 C1230 0.931 . S
H1217 C1232 0.930 . S
C1218 H1206 0.930 . S
C1218 C1219 1.399 . S
C1218 C1223 1.399 . S
C1219 C1218 1.399 . S
C1219 C1220 1.376 . S
C1220 H1207 0.930 . S
C1220 C1219 1.376 . S
C1220 C1221 1.388 . S
C1221 H1208 0.930 . S
C1221 C1220 1.388 . S
C1221 C1222 1.390 . S
C1222 C1221 1.390 . S
C1222 C1223 1.394 . S
C1222 C1228 1.465 . S
C1223 C1218 1.399 . S
C1223 C1222 1.394 . S
C1223 C1224 1.516 . S
C1224 C1223 1.516 . S
C1224 C1225 1.502 . S
C1224 C1226 1.561 . S
C1224 C1227 1.526 . S
C1225 H1209 0.959 . S
C1225 H1210 0.959 . S
C1225 H1211 0.961 . S
C1225 C1224 1.502 . S
C1226 H1212 0.960 . S
C1226 H1213 0.961 . S
C1226 H1214 0.959 . S
C1226 C1224 1.561 . S
C1227 C1224 1.526 . S
C1227 C1228 1.396 . S
C1227 C1232 1.390 . S
C1228 C1222 1.465 . S
C1228 C1227 1.396 . S
C1228 C1229 1.399 . S
C1229 H1215 0.929 . S
C1229 C1228 1.399 . S
C1229 C1230 1.385 . S
C1230 H1216 0.931 . S
C1230 C1229 1.385 . S
C1230 C1231 1.389 . S
C1231 C1230 1.389 . S
C1231 C1232 1.387 . S
C1232 H1217 0.930 . S
C1232 C1227 1.390 . S
C1232 C1231 1.387 . S
H1233 C1245 0.930 . S
H1234 C1247 0.930 . S
H1235 C1248 0.930 . S
H1236 C1252 0.959 . S
H1237 C1252 0.959 . S
H1238 C1252 0.961 . S
H1239 C1253 0.960 . S
H1240 C1253 0.961 . S
H1241 C1253 0.959 . S
H1242 C1256 0.929 . S
H1243 C1257 0.931 . S
H1244 C1259 0.930 . S
C1245 H1233 0.930 . S
C1245 C1246 1.399 . S
C1245 C1250 1.399 . S
C1246 C1245 1.399 . S
C1246 C1247 1.376 . S
C1247 H1234 0.930 . S
C1247 C1246 1.376 . S
C1247 C1248 1.388 . S
C1248 H1235 0.930 . S
C1248 C1247 1.388 . S
C1248 C1249 1.390 . S
C1249 C1248 1.390 . S
C1249 C1250 1.394 . S
C1249 C1255 1.465 . S
C1250 C1245 1.399 . S
C1250 C1249 1.394 . S
C1250 C1251 1.516 . S
C1251 C1250 1.516 . S
C1251 C1252 1.502 . S
C1251 C1253 1.561 . S
C1251 C1254 1.526 . S
C1252 H1236 0.959 . S
C1252 H1237 0.959 . S
C1252 H1238 0.961 . S
C1252 C1251 1.502 . S
C1253 H1239 0.960 . S
C1253 H1240 0.961 . S
C1253 H1241 0.959 . S
C1253 C1251 1.561 . S
C1254 C1251 1.526 . S
C1254 C1255 1.396 . S
C1254 C1259 1.390 . S
C1255 C1249 1.465 . S
C1255 C1254 1.396 . S
C1255 C1256 1.399 . S
C1256 H1242 0.929 . S
C1256 C1255 1.399 . S
C1256 C1257 1.385 . S
C1257 H1243 0.931 . S
C1257 C1256 1.385 . S
C1257 C1258 1.389 . S
C1258 C1257 1.389 . S
C1258 C1259 1.387 . S
C1259 H1244 0.930 . S
C1259 C1254 1.390 . S
C1259 C1258 1.387 . S
H1260 C1272 0.930 . S
H1261 C1274 0.930 . S
H1262 C1275 0.930 . S
H1263 C1279 0.959 . S
H1264 C1279 0.959 . S
H1265 C1279 0.961 . S
H1266 C1280 0.960 . S
H1267 C1280 0.961 . S
H1268 C1280 0.959 . S
H1269 C1283 0.929 . S
H1270 C1284 0.931 . S
H1271 C1286 0.930 . S
C1272 H1260 0.930 . S
C1272 C1273 1.399 . S
C1272 C1277 1.399 . S
C1273 C1272 1.399 . S
C1273 C1274 1.376 . S
C1274 H1261 0.930 . S
C1274 C1273 1.376 . S
C1274 C1275 1.388 . S
C1275 H1262 0.930 . S
C1275 C1274 1.388 . S
C1275 C1276 1.390 . S
C1276 C1275 1.390 . S
C1276 C1277 1.394 . S
C1276 C1282 1.465 . S
C1277 C1272 1.399 . S
C1277 C1276 1.394 . S
C1277 C1278 1.516 . S
C1278 C1277 1.516 . S
C1278 C1279 1.502 . S
C1278 C1280 1.561 . S
C1278 C1281 1.526 . S
C1279 H1263 0.959 . S
C1279 H1264 0.959 . S
C1279 H1265 0.961 . S
C1279 C1278 1.502 . S
C1280 H1266 0.960 . S
C1280 H1267 0.961 . S
C1280 H1268 0.959 . S
C1280 C1278 1.561 . S
C1281 C1278 1.526 . S
C1281 C1282 1.396 . S
C1281 C1286 1.390 . S
C1282 C1276 1.465 . S
C1282 C1281 1.396 . S
C1282 C1283 1.399 . S
C1283 H1269 0.929 . S
C1283 C1282 1.399 . S
C1283 C1284 1.385 . S
C1284 H1270 0.931 . S
C1284 C1283 1.385 . S
C1284 C1285 1.389 . S
C1285 C1284 1.389 . S
C1285 C1286 1.387 . S
C1286 H1271 0.930 . S
C1286 C1281 1.390 . S
C1286 C1285 1.387 . S
H1287 C1299 0.930 . S
H1288 C1301 0.930 . S
H1289 C1302 0.930 . S
H1290 C1306 0.959 . S
H1291 C1306 0.959 1_545 S
H1292 C1306 0.961 . S
H1293 C1307 0.960 1_565 S
H1294 C1307 0.961 . S
H1295 C1307 0.959 . S
H1296 C1310 0.929 . S
H1297 C1311 0.931 . S
H1298 C1313 0.930 . S
C1299 H1287 0.930 . S
C1299 C1300 1.399 . S
C1299 C1304 1.399 . S
C1300 C1299 1.399 . S
C1300 C1301 1.376 . S
C1301 H1288 0.930 . S
C1301 C1300 1.376 . S
C1301 C1302 1.388 . S
C1302 H1289 0.930 . S
C1302 C1301 1.388 . S
C1302 C1303 1.390 . S
C1303 C1302 1.390 . S
C1303 C1304 1.394 . S
C1303 C1309 1.465 1_565 S
C1304 C1299 1.399 . S
C1304 C1303 1.394 . S
C1304 C1305 1.516 . S
C1305 C1304 1.516 . S
C1305 C1306 1.502 . S
C1305 C1307 1.561 1_565 S
C1305 C1308 1.526 1_565 S
C1306 H1290 0.959 . S
C1306 H1291 0.959 1_565 S
C1306 H1292 0.961 . S
C1306 C1305 1.502 . S
C1307 H1293 0.960 1_545 S
C1307 H1294 0.961 . S
C1307 H1295 0.959 . S
C1307 C1305 1.561 1_545 S
C1308 C1305 1.526 1_545 S
C1308 C1309 1.396 . S
C1308 C1313 1.390 . S
C1309 C1303 1.465 1_545 S
C1309 C1308 1.396 . S
C1309 C1310 1.399 . S
C1310 H1296 0.929 . S
C1310 C1309 1.399 . S
C1310 C1311 1.385 . S
C1311 H1297 0.931 . S
C1311 C1310 1.385 . S
C1311 C1312 1.389 . S
C1312 C1311 1.389 . S
C1312 C1313 1.387 . S
C1313 H1298 0.930 . S
C1313 C1308 1.390 . S
C1313 C1312 1.387 . S
H1314 C1326 0.930 . S
H1315 C1328 0.930 . S
H1316 C1329 0.930 . S
H1317 C1333 0.959 1_655 S
H1318 C1333 0.959 1_655 S
H1319 C1333 0.961 . S
H1320 C1334 0.960 . S
H1321 C1334 0.961 . S
H1322 C1334 0.959 . S
H1323 C1337 0.929 . S
H1324 C1338 0.931 . S
H1325 C1340 0.930 . S
C1326 H1314 0.930 . S
C1326 C1327 1.399 . S
C1326 C1331 1.399 . S
C1327 C1326 1.399 . S
C1327 C1328 1.376 . S
C1328 H1315 0.930 . S
C1328 C1327 1.376 . S
C1328 C1329 1.388 . S
C1329 H1316 0.930 . S
C1329 C1328 1.388 . S
C1329 C1330 1.390 . S
C1330 C1329 1.390 . S
C1330 C1331 1.394 . S
C1330 C1336 1.465 1_455 S
C1331 C1326 1.399 . S
C1331 C1330 1.394 . S
C1331 C1332 1.516 . S
C1332 C1331 1.516 . S
C1332 C1333 1.502 . S
C1332 C1334 1.561 . S
C1332 C1335 1.526 1_455 S
C1333 H1317 0.959 1_455 S
C1333 H1318 0.959 1_455 S
C1333 H1319 0.961 . S
C1333 C1332 1.502 . S
C1334 H1320 0.960 . S
C1334 H1321 0.961 . S
C1334 H1322 0.959 . S
C1334 C1332 1.561 . S
C1335 C1332 1.526 1_655 S
C1335 C1336 1.396 . S
C1335 C1340 1.390 . S
C1336 C1330 1.465 1_655 S
C1336 C1335 1.396 . S
C1336 C1337 1.399 . S
C1337 H1323 0.929 . S
C1337 C1336 1.399 . S
C1337 C1338 1.385 . S
C1338 H1324 0.931 . S
C1338 C1337 1.385 . S
C1338 C1339 1.389 . S
C1339 C1338 1.389 . S
C1339 C1340 1.387 . S
C1340 H1325 0.930 . S
C1340 C1335 1.390 . S
C1340 C1339 1.387 . S
H1341 C1353 0.930 . S
H1342 C1355 0.930 . S
H1343 C1356 0.930 . S
H1344 C1360 0.959 . S
H1345 C1360 0.959 . S
H1346 C1360 0.961 . S
H1347 C1361 0.960 . S
H1348 C1361 0.961 . S
H1349 C1361 0.959 . S
H1350 C1364 0.929 . S
H1351 C1365 0.931 . S
H1352 C1367 0.930 . S
C1353 H1341 0.930 . S
C1353 C1354 1.399 . S
C1353 C1358 1.399 . S
C1354 C1353 1.399 . S
C1354 C1355 1.376 . S
C1355 H1342 0.930 . S
C1355 C1354 1.376 . S
C1355 C1356 1.388 . S
C1356 H1343 0.930 . S
C1356 C1355 1.388 . S
C1356 C1357 1.390 . S
C1357 C1356 1.390 . S
C1357 C1358 1.394 . S
C1357 C1363 1.465 . S
C1358 C1353 1.399 . S
C1358 C1357 1.394 . S
C1358 C1359 1.516 . S
C1359 C1358 1.516 . S
C1359 C1360 1.502 . S
C1359 C1361 1.561 . S
C1359 C1362 1.526 . S
C1360 H1344 0.959 . S
C1360 H1345 0.959 . S
C1360 H1346 0.961 . S
C1360 C1359 1.502 . S
C1361 H1347 0.960 . S
C1361 H1348 0.961 . S
C1361 H1349 0.959 . S
C1361 C1359 1.561 . S
C1362 C1359 1.526 . S
C1362 C1363 1.396 . S
C1362 C1367 1.390 . S
C1363 C1357 1.465 . S
C1363 C1362 1.396 . S
C1363 C1364 1.399 . S
C1364 H1350 0.929 . S
C1364 C1363 1.399 . S
C1364 C1365 1.385 . S
C1365 H1351 0.931 . S
C1365 C1364 1.385 . S
C1365 C1366 1.389 . S
C1366 C1365 1.389 . S
C1366 C1367 1.387 . S
C1367 H1352 0.930 . S
C1367 C1362 1.390 . S
C1367 C1366 1.387 . S
H1368 C1380 0.930 . S
H1369 C1382 0.930 . S
H1370 C1383 0.930 . S
H1371 C1387 0.959 . S
H1372 C1387 0.959 . S
H1373 C1387 0.961 . S
H1374 C1388 0.960 . S
H1375 C1388 0.961 . S
H1376 C1388 0.959 . S
H1377 C1391 0.929 . S
H1378 C1392 0.931 . S
H1379 C1394 0.930 . S
C1380 H1368 0.930 . S
C1380 C1381 1.399 . S
C1380 C1385 1.399 1_455 S
C1381 C1380 1.399 . S
C1381 C1382 1.376 . S
C1382 H1369 0.930 . S
C1382 C1381 1.376 . S
C1382 C1383 1.388 1_455 S
C1383 H1370 0.930 . S
C1383 C1382 1.388 1_655 S
C1383 C1384 1.390 . S
C1384 C1383 1.390 . S
C1384 C1385 1.394 . S
C1384 C1390 1.465 . S
C1385 C1380 1.399 1_655 S
C1385 C1384 1.394 . S
C1385 C1386 1.516 . S
C1386 C1385 1.516 . S
C1386 C1387 1.502 . S
C1386 C1388 1.561 . S
C1386 C1389 1.526 . S
C1387 H1371 0.959 . S
C1387 H1372 0.959 . S
C1387 H1373 0.961 . S
C1387 C1386 1.502 . S
C1388 H1374 0.960 . S
C1388 H1375 0.961 . S
C1388 H1376 0.959 . S
C1388 C1386 1.561 . S
C1389 C1386 1.526 . S
C1389 C1390 1.396 . S
C1389 C1394 1.390 . S
C1390 C1384 1.465 . S
C1390 C1389 1.396 . S
C1390 C1391 1.399 . S
C1391 H1377 0.929 . S
C1391 C1390 1.399 . S
C1391 C1392 1.385 . S
C1392 H1378 0.931 . S
C1392 C1391 1.385 . S
C1392 C1393 1.389 . S
C1393 C1392 1.389 . S
C1393 C1394 1.387 . S
C1394 H1379 0.930 . S
C1394 C1389 1.390 . S
C1394 C1393 1.387 . S
H1395 C1407 0.930 . S
H1396 C1409 0.930 . S
H1397 C1410 0.930 . S
H1398 C1414 0.959 . S
H1399 C1414 0.959 . S
H1400 C1414 0.961 . S
H1401 C1415 0.960 . S
H1402 C1415 0.961 . S
H1403 C1415 0.959 . S
H1404 C1418 0.929 . S
H1405 C1419 0.931 . S
H1406 C1421 0.930 . S
C1407 H1395 0.930 . S
C1407 C1408 1.399 . S
C1407 C1412 1.399 . S
C1408 C1407 1.399 . S
C1408 C1409 1.376 . S
C1409 H1396 0.930 . S
C1409 C1408 1.376 . S
C1409 C1410 1.388 . S
C1410 H1397 0.930 . S
C1410 C1409 1.388 . S
C1410 C1411 1.390 . S
C1411 C1410 1.390 . S
C1411 C1412 1.394 . S
C1411 C1417 1.465 . S
C1412 C1407 1.399 . S
C1412 C1411 1.394 . S
C1412 C1413 1.516 . S
C1413 C1412 1.516 . S
C1413 C1414 1.502 . S
C1413 C1415 1.561 . S
C1413 C1416 1.526 . S
C1414 H1398 0.959 . S
C1414 H1399 0.959 . S
C1414 H1400 0.961 . S
C1414 C1413 1.502 . S
C1415 H1401 0.960 . S
C1415 H1402 0.961 . S
C1415 H1403 0.959 . S
C1415 C1413 1.561 . S
C1416 C1413 1.526 . S
C1416 C1417 1.396 . S
C1416 C1421 1.390 . S
C1417 C1411 1.465 . S
C1417 C1416 1.396 . S
C1417 C1418 1.399 . S
C1418 H1404 0.929 . S
C1418 C1417 1.399 . S
C1418 C1419 1.385 . S
C1419 H1405 0.931 . S
C1419 C1418 1.385 . S
C1419 C1420 1.389 . S
C1420 C1419 1.389 . S
C1420 C1421 1.387 . S
C1421 H1406 0.930 . S
C1421 C1416 1.390 . S
C1421 C1420 1.387 . S
H1422 C1434 0.930 . S
H1423 C1436 0.930 . S
H1424 C1437 0.930 . S
H1425 C1441 0.959 . S
H1426 C1441 0.959 . S
H1427 C1441 0.961 . S
H1428 C1442 0.960 . S
H1429 C1442 0.961 . S
H1430 C1442 0.959 . S
H1431 C1445 0.929 . S
H1432 C1446 0.931 . S
H1433 C1448 0.930 . S
C1434 H1422 0.930 . S
C1434 C1435 1.399 . S
C1434 C1439 1.399 1_565 S
C1435 C1434 1.399 . S
C1435 C1436 1.376 . S
C1436 H1423 0.930 . S
C1436 C1435 1.376 . S
C1436 C1437 1.388 1_565 S
C1437 H1424 0.930 . S
C1437 C1436 1.388 1_545 S
C1437 C1438 1.390 . S
C1438 C1437 1.390 . S
C1438 C1439 1.394 . S
C1438 C1444 1.465 . S
C1439 C1434 1.399 1_545 S
C1439 C1438 1.394 . S
C1439 C1440 1.516 . S
C1440 C1439 1.516 . S
C1440 C1441 1.502 . S
C1440 C1442 1.561 . S
C1440 C1443 1.526 . S
C1441 H1425 0.959 . S
C1441 H1426 0.959 . S
C1441 H1427 0.961 . S
C1441 C1440 1.502 . S
C1442 H1428 0.960 . S
C1442 H1429 0.961 . S
C1442 H1430 0.959 . S
C1442 C1440 1.561 . S
C1443 C1440 1.526 . S
C1443 C1444 1.396 . S
C1443 C1448 1.390 . S
C1444 C1438 1.465 . S
C1444 C1443 1.396 . S
C1444 C1445 1.399 . S
C1445 H1431 0.929 . S
C1445 C1444 1.399 . S
C1445 C1446 1.385 . S
C1446 H1432 0.931 . S
C1446 C1445 1.385 . S
C1446 C1447 1.389 . S
C1447 C1446 1.389 . S
C1447 C1448 1.387 . S
C1448 H1433 0.930 . S
C1448 C1443 1.390 . S
C1448 C1447 1.387 . S
H1449 C1461 0.930 . S
H1450 C1463 0.930 . S
H1451 C1464 0.930 . S
H1452 C1468 0.959 . S
H1453 C1468 0.959 . S
H1454 C1468 0.961 . S
H1455 C1469 0.960 . S
H1456 C1469 0.961 . S
H1457 C1469 0.959 . S
H1458 C1472 0.929 . S
H1459 C1473 0.931 . S
H1460 C1475 0.930 . S
C1461 H1449 0.930 . S
C1461 C1462 1.399 . S
C1461 C1466 1.399 . S
C1462 C1461 1.399 . S
C1462 C1463 1.376 . S
C1463 H1450 0.930 . S
C1463 C1462 1.376 . S
C1463 C1464 1.388 . S
C1464 H1451 0.930 . S
C1464 C1463 1.388 . S
C1464 C1465 1.390 . S
C1465 C1464 1.390 . S
C1465 C1466 1.394 . S
C1465 C1471 1.465 . S
C1466 C1461 1.399 . S
C1466 C1465 1.394 . S
C1466 C1467 1.516 . S
C1467 C1466 1.516 . S
C1467 C1468 1.502 . S
C1467 C1469 1.561 . S
C1467 C1470 1.526 . S
C1468 H1452 0.959 . S
C1468 H1453 0.959 . S
C1468 H1454 0.961 . S
C1468 C1467 1.502 . S
C1469 H1455 0.960 . S
C1469 H1456 0.961 . S
C1469 H1457 0.959 . S
C1469 C1467 1.561 . S
C1470 C1467 1.526 . S
C1470 C1471 1.396 . S
C1470 C1475 1.390 . S
C1471 C1465 1.465 . S
C1471 C1470 1.396 . S
C1471 C1472 1.399 . S
C1472 H1458 0.929 . S
C1472 C1471 1.399 . S
C1472 C1473 1.385 . S
C1473 H1459 0.931 . S
C1473 C1472 1.385 . S
C1473 C1474 1.389 . S
C1474 C1473 1.389 . S
C1474 C1475 1.387 . S
C1475 H1460 0.930 . S
C1475 C1470 1.390 . S
C1475 C1474 1.387 . S
H1476 C1488 0.930 . S
H1477 C1490 0.930 . S
H1478 C1491 0.930 . S
H1479 C1495 0.959 . S
H1480 C1495 0.959 . S
H1481 C1495 0.961 . S
H1482 C1496 0.960 . S
H1483 C1496 0.961 . S
H1484 C1496 0.959 . S
H1485 C1499 0.929 . S
H1486 C1500 0.931 . S
H1487 C1502 0.930 . S
C1488 H1476 0.930 . S
C1488 C1489 1.399 . S
C1488 C1493 1.399 . S
C1489 C1488 1.399 . S
C1489 C1490 1.376 . S
C1490 H1477 0.930 . S
C1490 C1489 1.376 . S
C1490 C1491 1.388 . S
C1491 H1478 0.930 . S
C1491 C1490 1.388 . S
C1491 C1492 1.390 . S
C1492 C1491 1.390 . S
C1492 C1493 1.394 . S
C1492 C1498 1.465 . S
C1493 C1488 1.399 . S
C1493 C1492 1.394 . S
C1493 C1494 1.516 . S
C1494 C1493 1.516 . S
C1494 C1495 1.502 . S
C1494 C1496 1.561 . S
C1494 C1497 1.526 . S
C1495 H1479 0.959 . S
C1495 H1480 0.959 . S
C1495 H1481 0.961 . S
C1495 C1494 1.502 . S
C1496 H1482 0.960 . S
C1496 H1483 0.961 . S
C1496 H1484 0.959 . S
C1496 C1494 1.561 . S
C1497 C1494 1.526 . S
C1497 C1498 1.396 . S
C1497 C1502 1.390 . S
C1498 C1492 1.465 . S
C1498 C1497 1.396 . S
C1498 C1499 1.399 . S
C1499 H1485 0.929 . S
C1499 C1498 1.399 . S
C1499 C1500 1.385 . S
C1500 H1486 0.931 . S
C1500 C1499 1.385 . S
C1500 C1501 1.389 . S
C1501 C1500 1.389 . S
C1501 C1502 1.387 . S
C1502 H1487 0.930 . S
C1502 C1497 1.390 . S
C1502 C1501 1.387 . S
H1503 C1515 0.930 . S
H1504 C1517 0.930 . S
H1505 C1518 0.930 . S
H1506 C1522 0.959 . S
H1507 C1522 0.959 . S
H1508 C1522 0.961 . S
H1509 C1523 0.960 . S
H1510 C1523 0.961 . S
H1511 C1523 0.959 . S
H1512 C1526 0.929 . S
H1513 C1527 0.931 . S
H1514 C1529 0.930 . S
C1515 H1503 0.930 . S
C1515 C1516 1.399 . S
C1515 C1520 1.399 . S
C1516 C1515 1.399 . S
C1516 C1517 1.376 . S
C1517 H1504 0.930 . S
C1517 C1516 1.376 . S
C1517 C1518 1.388 . S
C1518 H1505 0.930 . S
C1518 C1517 1.388 . S
C1518 C1519 1.390 . S
C1519 C1518 1.390 . S
C1519 C1520 1.394 . S
C1519 C1525 1.465 . S
C1520 C1515 1.399 . S
C1520 C1519 1.394 . S
C1520 C1521 1.516 . S
C1521 C1520 1.516 . S
C1521 C1522 1.502 . S
C1521 C1523 1.561 . S
C1521 C1524 1.526 . S
C1522 H1506 0.959 . S
C1522 H1507 0.959 . S
C1522 H1508 0.961 . S
C1522 C1521 1.502 . S
C1523 H1509 0.960 . S
C1523 H1510 0.961 . S
C1523 H1511 0.959 . S
C1523 C1521 1.561 . S
C1524 C1521 1.526 . S
C1524 C1525 1.396 . S
C1524 C1529 1.390 . S
C1525 C1519 1.465 . S
C1525 C1524 1.396 . S
C1525 C1526 1.399 . S
C1526 H1512 0.929 . S
C1526 C1525 1.399 . S
C1526 C1527 1.385 . S
C1527 H1513 0.931 . S
C1527 C1526 1.385 . S
C1527 C1528 1.389 . S
C1528 C1527 1.389 . S
C1528 C1529 1.387 . S
C1529 H1514 0.930 . S
C1529 C1524 1.390 . S
C1529 C1528 1.387 . S
H1530 C1542 0.930 . S
H1531 C1544 0.930 . S
H1532 C1545 0.930 . S
H1533 C1549 0.959 . S
H1534 C1549 0.959 . S
H1535 C1549 0.961 . S
H1536 C1550 0.960 . S
H1537 C1550 0.961 . S
H1538 C1550 0.959 . S
H1539 C1553 0.929 . S
H1540 C1554 0.931 . S
H1541 C1556 0.930 . S
C1542 H1530 0.930 . S
C1542 C1543 1.399 . S
C1542 C1547 1.399 . S
C1543 C1542 1.399 . S
C1543 C1544 1.376 . S
C1544 H1531 0.930 . S
C1544 C1543 1.376 . S
C1544 C1545 1.388 . S
C1545 H1532 0.930 . S
C1545 C1544 1.388 . S
C1545 C1546 1.390 . S
C1546 C1545 1.390 . S
C1546 C1547 1.394 . S
C1546 C1552 1.465 . S
C1547 C1542 1.399 . S
C1547 C1546 1.394 . S
C1547 C1548 1.516 . S
C1548 C1547 1.516 . S
C1548 C1549 1.502 1_565 S
C1548 C1550 1.561 . S
C1548 C1551 1.526 . S
C1549 H1533 0.959 . S
C1549 H1534 0.959 . S
C1549 H1535 0.961 . S
C1549 C1548 1.502 1_545 S
C1550 H1536 0.960 . S
C1550 H1537 0.961 . S
C1550 H1538 0.959 . S
C1550 C1548 1.561 . S
C1551 C1548 1.526 . S
C1551 C1552 1.396 . S
C1551 C1556 1.390 . S
C1552 C1546 1.465 . S
C1552 C1551 1.396 . S
C1552 C1553 1.399 . S
C1553 H1539 0.929 . S
C1553 C1552 1.399 . S
C1553 C1554 1.385 . S
C1554 H1540 0.931 . S
C1554 C1553 1.385 . S
C1554 C1555 1.389 . S
C1555 C1554 1.389 . S
C1555 C1556 1.387 . S
C1556 H1541 0.930 . S
C1556 C1551 1.390 . S
C1556 C1555 1.387 . S
H1557 C1569 0.930 . S
H1558 C1571 0.930 . S
H1559 C1572 0.930 . S
H1560 C1576 0.959 . S
H1561 C1576 0.959 . S
H1562 C1576 0.961 . S
H1563 C1577 0.960 . S
H1564 C1577 0.961 . S
H1565 C1577 0.959 1_655 S
H1566 C1580 0.929 . S
H1567 C1581 0.931 . S
H1568 C1583 0.930 . S
C1569 H1557 0.930 . S
C1569 C1570 1.399 . S
C1569 C1574 1.399 . S
C1570 C1569 1.399 . S
C1570 C1571 1.376 . S
C1571 H1558 0.930 . S
C1571 C1570 1.376 . S
C1571 C1572 1.388 . S
C1572 H1559 0.930 . S
C1572 C1571 1.388 . S
C1572 C1573 1.390 . S
C1573 C1572 1.390 . S
C1573 C1574 1.394 . S
C1573 C1579 1.465 . S
C1574 C1569 1.399 . S
C1574 C1573 1.394 . S
C1574 C1575 1.516 . S
C1575 C1574 1.516 . S
C1575 C1576 1.502 . S
C1575 C1577 1.561 . S
C1575 C1578 1.526 . S
C1576 H1560 0.959 . S
C1576 H1561 0.959 . S
C1576 H1562 0.961 . S
C1576 C1575 1.502 . S
C1577 H1563 0.960 . S
C1577 H1564 0.961 . S
C1577 H1565 0.959 1_455 S
C1577 C1575 1.561 . S
C1578 C1575 1.526 . S
C1578 C1579 1.396 . S
C1578 C1583 1.390 . S
C1579 C1573 1.465 . S
C1579 C1578 1.396 . S
C1579 C1580 1.399 . S
C1580 H1566 0.929 . S
C1580 C1579 1.399 . S
C1580 C1581 1.385 . S
C1581 H1567 0.931 . S
C1581 C1580 1.385 . S
C1581 C1582 1.389 . S
C1582 C1581 1.389 . S
C1582 C1583 1.387 . S
C1583 H1568 0.930 . S
C1583 C1578 1.390 . S
C1583 C1582 1.387 . S
H1584 C1596 0.930 . S
H1585 C1598 0.930 . S
H1586 C1599 0.930 . S
H1587 C1603 0.959 . S
H1588 C1603 0.959 . S
H1589 C1603 0.961 . S
H1590 C1604 0.960 . S
H1591 C1604 0.961 . S
H1592 C1604 0.959 . S
H1593 C1607 0.929 . S
H1594 C1608 0.931 . S
H1595 C1610 0.930 . S
C1596 H1584 0.930 . S
C1596 C1597 1.399 . S
C1596 C1601 1.399 . S
C1597 C1596 1.399 . S
C1597 C1598 1.376 . S
C1598 H1585 0.930 . S
C1598 C1597 1.376 . S
C1598 C1599 1.388 . S
C1599 H1586 0.930 . S
C1599 C1598 1.388 . S
C1599 C1600 1.390 . S
C1600 C1599 1.390 . S
C1600 C1601 1.394 . S
C1600 C1606 1.465 . S
C1601 C1596 1.399 . S
C1601 C1600 1.394 . S
C1601 C1602 1.516 . S
C1602 C1601 1.516 . S
C1602 C1603 1.502 . S
C1602 C1604 1.561 . S
C1602 C1605 1.526 . S
C1603 H1587 0.959 . S
C1603 H1588 0.959 . S
C1603 H1589 0.961 . S
C1603 C1602 1.502 . S
C1604 H1590 0.960 . S
C1604 H1591 0.961 . S
C1604 H1592 0.959 . S
C1604 C1602 1.561 . S
C1605 C1602 1.526 . S
C1605 C1606 1.396 . S
C1605 C1610 1.390 . S
C1606 C1600 1.465 . S
C1606 C1605 1.396 . S
C1606 C1607 1.399 . S
C1607 H1593 0.929 . S
C1607 C1606 1.399 . S
C1607 C1608 1.385 . S
C1608 H1594 0.931 . S
C1608 C1607 1.385 . S
C1608 C1609 1.389 . S
C1609 C1608 1.389 . S
C1609 C1610 1.387 . S
C1610 H1595 0.930 . S
C1610 C1605 1.390 . S
C1610 C1609 1.387 . S
H1611 C1623 0.930 . S
H1612 C1625 0.930 . S
H1613 C1626 0.930 . S
H1614 C1630 0.959 . S
H1615 C1630 0.959 . S
H1616 C1630 0.961 . S
H1617 C1631 0.960 . S
H1618 C1631 0.961 . S
H1619 C1631 0.959 . S
H1620 C1634 0.929 . S
H1621 C1635 0.931 . S
H1622 C1637 0.930 . S
C1623 H1611 0.930 . S
C1623 C1624 1.399 . S
C1623 C1628 1.399 . S
C1624 C1623 1.399 . S
C1624 C1625 1.376 . S
C1625 H1612 0.930 . S
C1625 C1624 1.376 . S
C1625 C1626 1.388 . S
C1626 H1613 0.930 . S
C1626 C1625 1.388 . S
C1626 C1627 1.390 . S
C1627 C1626 1.390 . S
C1627 C1628 1.394 . S
C1627 C1633 1.465 . S
C1628 C1623 1.399 . S
C1628 C1627 1.394 . S
C1628 C1629 1.516 . S
C1629 C1628 1.516 . S
C1629 C1630 1.502 1_655 S
C1629 C1631 1.561 . S
C1629 C1632 1.526 . S
C1630 H1614 0.959 . S
C1630 H1615 0.959 . S
C1630 H1616 0.961 . S
C1630 C1629 1.502 1_455 S
C1631 H1617 0.960 . S
C1631 H1618 0.961 . S
C1631 H1619 0.959 . S
C1631 C1629 1.561 . S
C1632 C1629 1.526 . S
C1632 C1633 1.396 . S
C1632 C1637 1.390 . S
C1633 C1627 1.465 . S
C1633 C1632 1.396 . S
C1633 C1634 1.399 . S
C1634 H1620 0.929 . S
C1634 C1633 1.399 . S
C1634 C1635 1.385 . S
C1635 H1621 0.931 . S
C1635 C1634 1.385 . S
C1635 C1636 1.389 . S
C1636 C1635 1.389 . S
C1636 C1637 1.387 . S
C1637 H1622 0.930 . S
C1637 C1632 1.390 . S
C1637 C1636 1.387 . S
H1638 C1650 0.930 . S
H1639 C1652 0.930 . S
H1640 C1653 0.930 . S
H1641 C1657 0.959 . S
H1642 C1657 0.959 . S
H1643 C1657 0.961 . S
H1644 C1658 0.960 . S
H1645 C1658 0.961 . S
H1646 C1658 0.959 . S
H1647 C1661 0.929 . S
H1648 C1662 0.931 . S
H1649 C1664 0.930 . S
C1650 H1638 0.930 . S
C1650 C1651 1.399 . S
C1650 C1655 1.399 . S
C1651 C1650 1.399 . S
C1651 C1652 1.376 . S
C1652 H1639 0.930 . S
C1652 C1651 1.376 . S
C1652 C1653 1.388 . S
C1653 H1640 0.930 . S
C1653 C1652 1.388 . S
C1653 C1654 1.390 . S
C1654 C1653 1.390 . S
C1654 C1655 1.394 . S
C1654 C1660 1.465 . S
C1655 C1650 1.399 . S
C1655 C1654 1.394 . S
C1655 C1656 1.516 . S
C1656 C1655 1.516 . S
C1656 C1657 1.502 . S
C1656 C1658 1.561 . S
C1656 C1659 1.526 . S
C1657 H1641 0.959 . S
C1657 H1642 0.959 . S
C1657 H1643 0.961 . S
C1657 C1656 1.502 . S
C1658 H1644 0.960 . S
C1658 H1645 0.961 . S
C1658 H1646 0.959 . S
C1658 C1656 1.561 . S
C1659 C1656 1.526 . S
C1659 C1660 1.396 . S
C1659 C1664 1.390 . S
C1660 C1654 1.465 . S
C1660 C1659 1.396 . S
C1660 C1661 1.399 . S
C1661 H1647 0.929 . S
C1661 C1660 1.399 . S
C1661 C1662 1.385 . S
C1662 H1648 0.931 . S
C1662 C1661 1.385 . S
C1662 C1663 1.389 . S
C1663 C1662 1.389 . S
C1663 C1664 1.387 . S
C1664 H1649 0.930 . S
C1664 C1659 1.390 . S
C1664 C1663 1.387 . S
H1665 C1677 0.930 . S
H1666 C1679 0.930 . S
H1667 C1680 0.930 . S
H1668 C1684 0.959 . S
H1669 C1684 0.959 1_565 S
H1670 C1684 0.961 1_565 S
H1671 C1685 0.960 . S
H1672 C1685 0.985 . S
H1673 C1685 0.959 . S
H1674 C1688 0.929 . S
H1675 C1689 0.931 . S
H1676 C1691 0.930 . S
C1677 H1665 0.930 . S
C1677 C1678 1.399 . S
C1677 C1682 1.399 . S
C1678 C1677 1.399 . S
C1678 C1679 1.376 . S
C1679 H1666 0.930 . S
C1679 C1678 1.376 . S
C1679 C1680 1.388 . S
C1680 H1667 0.930 . S
C1680 C1679 1.388 . S
C1680 C1681 1.390 . S
C1681 C1680 1.390 . S
C1681 C1682 1.394 . S
C1681 C1687 1.465 . S
C1682 C1677 1.399 . S
C1682 C1681 1.394 . S
C1682 C1683 1.516 . S
C1683 C1682 1.516 . S
C1683 C1684 1.502 . S
C1683 C1685 1.561 . S
C1683 C1686 1.526 . S
C1684 H1668 0.959 . S
C1684 H1669 0.959 1_545 S
C1684 H1670 0.961 1_545 S
C1684 C1683 1.502 . S
C1685 H1671 0.960 . S
C1685 H1672 0.985 . S
C1685 H1673 0.959 . S
C1685 C1683 1.561 . S
C1686 C1683 1.526 . S
C1686 C1687 1.396 . S
C1686 C1691 1.390 . S
C1687 C1681 1.465 . S
C1687 C1686 1.396 . S
C1687 C1688 1.399 . S
C1688 H1674 0.929 . S
C1688 C1687 1.399 . S
C1688 C1689 1.385 . S
C1689 H1675 0.931 . S
C1689 C1688 1.385 . S
C1689 C1690 1.389 . S
C1690 C1689 1.389 . S
C1690 C1691 1.387 . S
C1691 H1676 0.930 . S
C1691 C1686 1.390 . S
C1691 C1690 1.387 . S
H1692 C1704 0.930 . S
H1693 C1706 0.930 . S
H1694 C1707 0.930 . S
H1695 C1711 0.959 . S
H1696 C1711 0.959 . S
H1697 C1711 0.961 . S
H1698 C1712 0.960 . S
H1699 C1712 0.961 . S
H1700 C1712 0.959 . S
H1701 C1715 0.929 . S
H1702 C1716 0.931 . S
H1703 C1718 0.930 . S
C1704 H1692 0.930 . S
C1704 C1705 1.399 . S
C1704 C1709 1.399 . S
C1705 C1704 1.399 . S
C1705 C1706 1.376 . S
C1706 H1693 0.930 . S
C1706 C1705 1.376 . S
C1706 C1707 1.388 . S
C1707 H1694 0.930 . S
C1707 C1706 1.388 . S
C1707 C1708 1.390 . S
C1708 C1707 1.390 . S
C1708 C1709 1.394 . S
C1708 C1714 1.465 . S
C1709 C1704 1.399 . S
C1709 C1708 1.394 . S
C1709 C1710 1.516 . S
C1710 C1709 1.516 . S
C1710 C1711 1.502 . S
C1710 C1712 1.561 . S
C1710 C1713 1.526 . S
C1711 H1695 0.959 . S
C1711 H1696 0.959 . S
C1711 H1697 0.961 . S
C1711 C1710 1.502 . S
C1712 H1698 0.960 . S
C1712 H1699 0.961 . S
C1712 H1700 0.959 . S
C1712 C1710 1.561 . S
C1713 C1710 1.526 . S
C1713 C1714 1.396 . S
C1713 C1718 1.390 . S
C1714 C1708 1.465 . S
C1714 C1713 1.396 . S
C1714 C1715 1.399 . S
C1715 H1701 0.929 . S
C1715 C1714 1.399 . S
C1715 C1716 1.385 . S
C1716 H1702 0.931 . S
C1716 C1715 1.385 . S
C1716 C1717 1.389 . S
C1717 C1716 1.389 . S
C1717 C1718 1.387 . S
C1718 H1703 0.930 . S
C1718 C1713 1.390 . S
C1718 C1717 1.387 . S
H1719 C1731 0.930 . S
H1720 C1733 0.930 . S
H1721 C1734 0.930 . S
H1722 C1738 0.959 . S
H1723 C1738 0.959 . S
H1724 C1738 0.961 . S
H1725 C1739 0.960 . S
H1726 C1739 0.961 . S
H1727 C1739 0.959 . S
H1728 C1742 0.929 . S
H1729 C1743 0.931 . S
H1730 C1745 0.930 . S
C1731 H1719 0.930 . S
C1731 C1732 1.399 . S
C1731 C1736 1.399 . S
C1732 C1731 1.399 . S
C1732 C1733 1.376 . S
C1733 H1720 0.930 . S
C1733 C1732 1.376 . S
C1733 C1734 1.388 . S
C1734 H1721 0.930 . S
C1734 C1733 1.388 . S
C1734 C1735 1.390 . S
C1735 C1734 1.390 . S
C1735 C1736 1.394 . S
C1735 C1741 1.465 . S
C1736 C1731 1.399 . S
C1736 C1735 1.394 . S
C1736 C1737 1.516 . S
C1737 C1736 1.516 . S
C1737 C1738 1.502 . S
C1737 C1739 1.561 . S
C1737 C1740 1.526 . S
C1738 H1722 0.959 . S
C1738 H1723 0.959 . S
C1738 H1724 0.961 . S
C1738 C1737 1.502 . S
C1739 H1725 0.960 . S
C1739 H1726 0.961 . S
C1739 H1727 0.959 . S
C1739 C1737 1.561 . S
C1740 C1737 1.526 . S
C1740 C1741 1.396 . S
C1740 C1745 1.390 . S
C1741 C1735 1.465 . S
C1741 C1740 1.396 . S
C1741 C1742 1.399 . S
C1742 H1728 0.929 . S
C1742 C1741 1.399 . S
C1742 C1743 1.385 . S
C1743 H1729 0.931 . S
C1743 C1742 1.385 . S
C1743 C1744 1.389 . S
C1744 C1743 1.389 . S
C1744 C1745 1.387 . S
C1745 H1730 0.930 . S
C1745 C1740 1.390 . S
C1745 C1744 1.387 . S
H1746 C1758 0.930 . S
H1747 C1760 0.930 . S
H1748 C1761 0.930 . S
H1749 C1765 0.959 . S
H1750 C1765 0.959 . S
H1751 C1765 0.961 . S
H1752 C1766 0.960 . S
H1753 C1766 0.961 . S
H1754 C1766 0.959 . S
H1755 C1769 0.929 . S
H1756 C1770 0.931 . S
H1757 C1772 0.930 . S
C1758 H1746 0.930 . S
C1758 C1759 1.399 . S
C1758 C1763 1.399 . S
C1759 C1758 1.399 . S
C1759 C1760 1.376 . S
C1760 H1747 0.930 . S
C1760 C1759 1.376 . S
C1760 C1761 1.388 . S
C1761 H1748 0.930 . S
C1761 C1760 1.388 . S
C1761 C1762 1.390 . S
C1762 C1761 1.390 . S
C1762 C1763 1.394 . S
C1762 C1768 1.465 . S
C1763 C1758 1.399 . S
C1763 C1762 1.394 . S
C1763 C1764 1.516 . S
C1764 C1763 1.516 . S
C1764 C1765 1.502 . S
C1764 C1766 1.561 . S
C1764 C1767 1.526 . S
C1765 H1749 0.959 . S
C1765 H1750 0.959 . S
C1765 H1751 0.961 . S
C1765 C1764 1.502 . S
C1766 H1752 0.960 . S
C1766 H1753 0.961 . S
C1766 H1754 0.959 . S
C1766 C1764 1.561 . S
C1767 C1764 1.526 . S
C1767 C1768 1.396 . S
C1767 C1772 1.390 . S
C1768 C1762 1.465 . S
C1768 C1767 1.396 . S
C1768 C1769 1.399 . S
C1769 H1755 0.929 . S
C1769 C1768 1.399 . S
C1769 C1770 1.385 . S
C1770 H1756 0.931 . S
C1770 C1769 1.385 . S
C1770 C1771 1.389 . S
C1771 C1770 1.389 . S
C1771 C1772 1.387 . S
C1772 H1757 0.930 . S
C1772 C1767 1.390 . S
C1772 C1771 1.387 . S
H1773 C1785 0.930 . S
H1774 C1787 0.930 . S
H1775 C1788 0.930 . S
H1776 C1792 0.959 . S
H1777 C1792 0.959 . S
H1778 C1792 0.961 . S
H1779 C1793 0.960 . S
H1780 C1793 0.961 . S
H1781 C1793 0.959 . S
H1782 C1796 0.929 . S
H1783 C1797 0.931 . S
H1784 C1799 0.930 . S
C1785 H1773 0.930 . S
C1785 C1786 1.399 . S
C1785 C1790 1.399 . S
C1786 C1785 1.399 . S
C1786 C1787 1.376 . S
C1787 H1774 0.930 . S
C1787 C1786 1.376 . S
C1787 C1788 1.388 . S
C1788 H1775 0.930 . S
C1788 C1787 1.388 . S
C1788 C1789 1.390 . S
C1789 C1788 1.390 . S
C1789 C1790 1.394 . S
C1789 C1795 1.465 . S
C1790 C1785 1.399 . S
C1790 C1789 1.394 . S
C1790 C1791 1.516 . S
C1791 C1790 1.516 . S
C1791 C1792 1.502 . S
C1791 C1793 1.561 . S
C1791 C1794 1.526 . S
C1792 H1776 0.959 . S
C1792 H1777 0.959 . S
C1792 H1778 0.961 . S
C1792 C1791 1.502 . S
C1793 H1779 0.960 . S
C1793 H1780 0.961 . S
C1793 H1781 0.959 . S
C1793 C1791 1.561 . S
C1794 C1791 1.526 . S
C1794 C1795 1.396 . S
C1794 C1799 1.390 . S
C1795 C1789 1.465 . S
C1795 C1794 1.396 . S
C1795 C1796 1.399 . S
C1796 H1782 0.929 . S
C1796 C1795 1.399 . S
C1796 C1797 1.385 . S
C1797 H1783 0.931 . S
C1797 C1796 1.385 . S
C1797 C1798 1.389 . S
C1798 C1797 1.389 . S
C1798 C1799 1.387 . S
C1799 H1784 0.930 . S
C1799 C1794 1.390 . S
C1799 C1798 1.387 . S
H1800 C1812 0.930 . S
H1801 C1814 0.930 . S
H1802 C1815 0.930 . S
H1803 C1819 0.959 . S
H1804 C1819 0.959 . S
H1805 C1819 0.961 . S
H1806 C1820 0.960 . S
H1807 C1820 0.961 . S
H1808 C1820 0.959 . S
H1809 C1823 0.929 . S
H1810 C1824 0.931 . S
H1811 C1826 0.930 . S
C1812 H1800 0.930 . S
C1812 C1813 1.399 . S
C1812 C1817 1.399 . S
C1813 C1812 1.399 . S
C1813 C1814 1.376 . S
C1814 H1801 0.930 . S
C1814 C1813 1.376 . S
C1814 C1815 1.388 . S
C1815 H1802 0.930 . S
C1815 C1814 1.388 . S
C1815 C1816 1.390 . S
C1816 C1815 1.390 . S
C1816 C1817 1.394 . S
C1816 C1822 1.465 . S
C1817 C1812 1.399 . S
C1817 C1816 1.394 . S
C1817 C1818 1.516 . S
C1818 C1817 1.516 . S
C1818 C1819 1.502 . S
C1818 C1820 1.561 . S
C1818 C1821 1.526 . S
C1819 H1803 0.959 . S
C1819 H1804 0.959 . S
C1819 H1805 0.961 . S
C1819 C1818 1.502 . S
C1820 H1806 0.960 . S
C1820 H1807 0.961 . S
C1820 H1808 0.959 . S
C1820 C1818 1.561 . S
C1821 C1818 1.526 . S
C1821 C1822 1.396 . S
C1821 C1826 1.390 . S
C1822 C1816 1.465 . S
C1822 C1821 1.396 . S
C1822 C1823 1.399 . S
C1823 H1809 0.929 . S
C1823 C1822 1.399 . S
C1823 C1824 1.385 . S
C1824 H1810 0.931 . S
C1824 C1823 1.385 . S
C1824 C1825 1.389 . S
C1825 C1824 1.389 . S
C1825 C1826 1.387 . S
C1826 H1811 0.930 . S
C1826 C1821 1.390 . S
C1826 C1825 1.387 . S
H1827 C1839 0.930 . S
H1828 C1841 0.930 . S
H1829 C1842 0.930 . S
H1830 C1846 0.959 . S
H1831 C1846 0.959 . S
H1832 C1846 0.961 . S
H1833 C1847 0.960 . S
H1834 C1847 0.961 . S
H1835 C1847 0.959 . S
H1836 C1850 0.929 . S
H1837 C1851 0.931 . S
H1838 C1853 0.930 . S
C1839 H1827 0.930 . S
C1839 C1840 1.399 . S
C1839 C1844 1.399 . S
C1840 C1839 1.399 . S
C1840 C1841 1.376 . S
C1841 H1828 0.930 . S
C1841 C1840 1.376 . S
C1841 C1842 1.388 . S
C1842 H1829 0.930 . S
C1842 C1841 1.388 . S
C1842 C1843 1.390 . S
C1843 C1842 1.390 . S
C1843 C1844 1.394 . S
C1843 C1849 1.465 . S
C1844 C1839 1.399 . S
C1844 C1843 1.394 . S
C1844 C1845 1.516 . S
C1845 C1844 1.516 . S
C1845 C1846 1.502 . S
C1845 C1847 1.561 . S
C1845 C1848 1.526 . S
C1846 H1830 0.959 . S
C1846 H1831 0.959 . S
C1846 H1832 0.961 . S
C1846 C1845 1.502 . S
C1847 H1833 0.960 . S
C1847 H1834 0.961 . S
C1847 H1835 0.959 . S
C1847 C1845 1.561 . S
C1848 C1845 1.526 . S
C1848 C1849 1.396 . S
C1848 C1853 1.390 . S
C1849 C1843 1.465 . S
C1849 C1848 1.396 . S
C1849 C1850 1.399 . S
C1850 H1836 0.929 . S
C1850 C1849 1.399 . S
C1850 C1851 1.385 . S
C1851 H1837 0.931 . S
C1851 C1850 1.385 . S
C1851 C1852 1.389 . S
C1852 C1851 1.389 . S
C1852 C1853 1.387 . S
C1853 H1838 0.930 . S
C1853 C1848 1.390 . S
C1853 C1852 1.387 . S
H1854 C1866 0.930 . S
H1855 C1868 0.930 . S
H1856 C1869 0.930 . S
H1857 C1873 0.959 . S
H1858 C1873 0.959 . S
H1859 C1873 0.961 . S
H1860 C1874 0.960 . S
H1861 C1874 0.961 . S
H1862 C1874 0.959 . S
H1863 C1877 0.929 . S
H1864 C1878 0.931 . S
H1865 C1880 0.930 . S
C1866 H1854 0.930 . S
C1866 C1867 1.399 . S
C1866 C1871 1.399 . S
C1867 C1866 1.399 . S
C1867 C1868 1.376 . S
C1868 H1855 0.930 . S
C1868 C1867 1.376 . S
C1868 C1869 1.388 . S
C1869 H1856 0.930 . S
C1869 C1868 1.388 . S
C1869 C1870 1.390 . S
C1870 C1869 1.390 . S
C1870 C1871 1.394 . S
C1870 C1876 1.465 . S
C1871 C1866 1.399 . S
C1871 C1870 1.394 . S
C1871 C1872 1.516 . S
C1872 C1871 1.516 . S
C1872 C1873 1.502 . S
C1872 C1874 1.561 . S
C1872 C1875 1.526 . S
C1873 H1857 0.959 . S
C1873 H1858 0.959 . S
C1873 H1859 0.961 . S
C1873 C1872 1.502 . S
C1874 H1860 0.960 . S
C1874 H1861 0.961 . S
C1874 H1862 0.959 . S
C1874 C1872 1.561 . S
C1875 C1872 1.526 . S
C1875 C1876 1.396 . S
C1875 C1880 1.390 . S
C1876 C1870 1.465 . S
C1876 C1875 1.396 . S
C1876 C1877 1.399 . S
C1877 H1863 0.929 . S
C1877 C1876 1.399 . S
C1877 C1878 1.385 . S
C1878 H1864 0.931 . S
C1878 C1877 1.385 . S
C1878 C1879 1.389 . S
C1879 C1878 1.389 . S
C1879 C1880 1.387 . S
C1880 H1865 0.930 . S
C1880 C1875 1.390 . S
C1880 C1879 1.387 . S
H1881 C1893 0.930 . S
H1882 C1895 0.930 . S
H1883 C1896 0.930 . S
H1884 C1900 0.959 . S
H1885 C1900 0.959 . S
H1886 C1900 0.961 . S
H1887 C1901 0.960 . S
H1888 C1901 0.961 . S
H1889 C1901 0.959 . S
H1890 C1904 0.929 . S
H1891 C1905 0.931 . S
H1892 C1907 0.930 . S
C1893 H1881 0.930 . S
C1893 C1894 1.399 . S
C1893 C1898 1.399 . S
C1894 C1893 1.399 . S
C1894 C1895 1.376 . S
C1895 H1882 0.930 . S
C1895 C1894 1.376 . S
C1895 C1896 1.388 . S
C1896 H1883 0.930 . S
C1896 C1895 1.388 . S
C1896 C1897 1.390 . S
C1897 C1896 1.390 . S
C1897 C1898 1.394 . S
C1897 C1903 1.465 . S
C1898 C1893 1.399 . S
C1898 C1897 1.394 . S
C1898 C1899 1.516 . S
C1899 C1898 1.516 . S
C1899 C1900 1.502 . S
C1899 C1901 1.561 . S
C1899 C1902 1.526 . S
C1900 H1884 0.959 . S
C1900 H1885 0.959 . S
C1900 H1886 0.961 . S
C1900 C1899 1.502 . S
C1901 H1887 0.960 . S
C1901 H1888 0.961 . S
C1901 H1889 0.959 . S
C1901 C1899 1.561 . S
C1902 C1899 1.526 . S
C1902 C1903 1.396 . S
C1902 C1907 1.390 . S
C1903 C1897 1.465 . S
C1903 C1902 1.396 . S
C1903 C1904 1.399 . S
C1904 H1890 0.929 . S
C1904 C1903 1.399 . S
C1904 C1905 1.385 . S
C1905 H1891 0.931 . S
C1905 C1904 1.385 . S
C1905 C1906 1.389 . S
C1906 C1905 1.389 . S
C1906 C1907 1.387 . S
C1907 H1892 0.930 . S
C1907 C1902 1.390 . S
C1907 C1906 1.387 . S
H1908 C1920 0.930 . S
H1909 C1922 0.930 . S
H1910 C1923 0.930 . S
H1911 C1927 0.959 . S
H1912 C1927 0.959 . S
H1913 C1927 0.961 . S
H1914 C1928 0.960 . S
H1915 C1928 0.961 . S
H1916 C1928 0.959 . S
H1917 C1931 0.929 . S
H1918 C1932 0.931 . S
H1919 C1934 0.930 . S
C1920 H1908 0.930 . S
C1920 C1921 1.399 . S
C1920 C1925 1.399 . S
C1921 C1920 1.399 . S
C1921 C1922 1.376 . S
C1922 H1909 0.930 . S
C1922 C1921 1.376 . S
C1922 C1923 1.388 . S
C1923 H1910 0.930 . S
C1923 C1922 1.388 . S
C1923 C1924 1.390 . S
C1924 C1923 1.390 . S
C1924 C1925 1.394 . S
C1924 C1930 1.465 . S
C1925 C1920 1.399 . S
C1925 C1924 1.394 . S
C1925 C1926 1.516 . S
C1926 C1925 1.516 . S
C1926 C1927 1.502 . S
C1926 C1928 1.561 . S
C1926 C1929 1.526 . S
C1927 H1911 0.959 . S
C1927 H1912 0.959 . S
C1927 H1913 0.961 . S
C1927 C1926 1.502 . S
C1928 H1914 0.960 . S
C1928 H1915 0.961 . S
C1928 H1916 0.959 . S
C1928 C1926 1.561 . S
C1929 C1926 1.526 . S
C1929 C1930 1.396 . S
C1929 C1934 1.390 . S
C1930 C1924 1.465 . S
C1930 C1929 1.396 . S
C1930 C1931 1.399 . S
C1931 H1917 0.929 . S
C1931 C1930 1.399 . S
C1931 C1932 1.385 . S
C1932 H1918 0.931 . S
C1932 C1931 1.385 . S
C1932 C1933 1.389 . S
C1933 C1932 1.389 . S
C1933 C1934 1.387 . S
C1934 H1919 0.930 . S
C1934 C1929 1.390 . S
C1934 C1933 1.387 . S
H1935 C1947 0.930 . S
H1936 C1949 0.930 . S
H1937 C1950 0.930 . S
H1938 C1954 0.959 . S
H1939 C1954 0.959 . S
H1940 C1954 0.961 . S
H1941 C1955 0.960 . S
H1942 C1955 0.961 . S
H1943 C1955 0.959 . S
H1944 C1958 0.929 . S
H1945 C1959 0.931 . S
H1946 C1961 0.930 . S
C1947 H1935 0.930 . S
C1947 C1948 1.399 . S
C1947 C1952 1.399 . S
C1948 C1947 1.399 . S
C1948 C1949 1.376 . S
C1949 H1936 0.930 . S
C1949 C1948 1.376 . S
C1949 C1950 1.388 . S
C1950 H1937 0.930 . S
C1950 C1949 1.388 . S
C1950 C1951 1.390 . S
C1951 C1950 1.390 . S
C1951 C1952 1.394 . S
C1951 C1957 1.465 . S
C1952 C1947 1.399 . S
C1952 C1951 1.394 . S
C1952 C1953 1.516 . S
C1953 C1952 1.516 . S
C1953 C1954 1.502 . S
C1953 C1955 1.561 . S
C1953 C1956 1.526 . S
C1954 H1938 0.959 . S
C1954 H1939 0.959 . S
C1954 H1940 0.961 . S
C1954 C1953 1.502 . S
C1955 H1941 0.960 . S
C1955 H1942 0.961 . S
C1955 H1943 0.959 . S
C1955 C1953 1.561 . S
C1956 C1953 1.526 . S
C1956 C1957 1.396 . S
C1956 C1961 1.390 . S
C1957 C1951 1.465 . S
C1957 C1956 1.396 . S
C1957 C1958 1.399 . S
C1958 H1944 0.929 . S
C1958 C1957 1.399 . S
C1958 C1959 1.385 . S
C1959 H1945 0.931 . S
C1959 C1958 1.385 . S
C1959 C1960 1.389 . S
C1960 C1959 1.389 . S
C1960 C1961 1.387 . S
C1961 H1946 0.930 . S
C1961 C1956 1.390 . S
C1961 C1960 1.387 . S
H1962 C1974 0.930 . S
H1963 C1976 0.930 . S
H1964 C1977 0.930 . S
H1965 C1981 0.959 . S
H1966 C1981 0.959 . S
H1967 C1981 0.961 . S
H1968 C1982 0.960 . S
H1969 C1982 0.961 . S
H1970 C1982 0.959 . S
H1971 C1985 0.929 . S
H1972 C1986 0.931 . S
H1973 C1988 0.930 . S
C1974 H1962 0.930 . S
C1974 C1975 1.399 . S
C1974 C1979 1.399 . S
C1975 C1974 1.399 . S
C1975 C1976 1.376 . S
C1976 H1963 0.930 . S
C1976 C1975 1.376 . S
C1976 C1977 1.388 . S
C1977 H1964 0.930 . S
C1977 C1976 1.388 . S
C1977 C1978 1.390 . S
C1978 C1977 1.390 . S
C1978 C1979 1.394 . S
C1978 C1984 1.465 . S
C1979 C1974 1.399 . S
C1979 C1978 1.394 . S
C1979 C1980 1.516 . S
C1980 C1979 1.516 . S
C1980 C1981 1.502 . S
C1980 C1982 1.561 . S
C1980 C1983 1.526 . S
C1981 H1965 0.959 . S
C1981 H1966 0.959 . S
C1981 H1967 0.961 . S
C1981 C1980 1.502 . S
C1982 H1968 0.960 . S
C1982 H1969 0.961 . S
C1982 H1970 0.959 . S
C1982 C1980 1.561 . S
C1983 C1980 1.526 . S
C1983 C1984 1.396 . S
C1983 C1988 1.390 . S
C1984 C1978 1.465 . S
C1984 C1983 1.396 . S
C1984 C1985 1.399 . S
C1985 H1971 0.929 . S
C1985 C1984 1.399 . S
C1985 C1986 1.385 . S
C1986 H1972 0.931 . S
C1986 C1985 1.385 . S
C1986 C1987 1.389 . S
C1987 C1986 1.389 . S
C1987 C1988 1.387 . S
C1988 H1973 0.930 . S
C1988 C1983 1.390 . S
C1988 C1987 1.387 . S
H1989 C2001 0.930 . S
H1990 C2003 0.930 . S
H1991 C2004 0.930 . S
H1992 C2008 0.959 . S
H1993 C2008 0.959 . S
H1994 C2008 0.961 . S
H1995 C2009 0.960 . S
H1996 C2009 0.961 . S
H1997 C2009 0.959 . S
H1998 C2012 0.929 . S
H1999 C2013 0.931 . S
H2000 C2015 0.930 . S
C2001 H1989 0.930 . S
C2001 C2002 1.399 . S
C2001 C2006 1.399 . S
C2002 C2001 1.399 . S
C2002 C2003 1.376 . S
C2003 H1990 0.930 . S
C2003 C2002 1.376 . S
C2003 C2004 1.388 . S
C2004 H1991 0.930 . S
C2004 C2003 1.388 . S
C2004 C2005 1.390 . S
C2005 C2004 1.390 . S
C2005 C2006 1.394 . S
C2005 C2011 1.465 . S
C2006 C2001 1.399 . S
C2006 C2005 1.394 . S
C2006 C2007 1.516 . S
C2007 C2006 1.516 . S
C2007 C2008 1.502 . S
C2007 C2009 1.561 . S
C2007 C2010 1.526 . S
C2008 H1992 0.959 . S
C2008 H1993 0.959 . S
C2008 H1994 0.961 . S
C2008 C2007 1.502 . S
C2009 H1995 0.960 . S
C2009 H1996 0.961 . S
C2009 H1997 0.959 . S
C2009 C2007 1.561 . S
C2010 C2007 1.526 . S
C2010 C2011 1.396 . S
C2010 C2015 1.390 . S
C2011 C2005 1.465 . S
C2011 C2010 1.396 . S
C2011 C2012 1.399 . S
C2012 H1998 0.929 . S
C2012 C2011 1.399 . S
C2012 C2013 1.385 . S
C2013 H1999 0.931 . S
C2013 C2012 1.385 . S
C2013 C2014 1.389 . S
C2014 C2013 1.389 . S
C2014 C2015 1.387 . S
C2015 H2000 0.930 . S
C2015 C2010 1.390 . S
C2015 C2014 1.387 . S
C571 C147 1.652 . S
C583 C207 1.645 . S
C598 C158 1.768 . S
C610 C247 1.768 . S
C625 C136 1.599 . S
C637 C286 1.522 . S
C652 C125 1.460 . S
C664 C246 1.412 1_556 S
C691 C287 1.481 . S
C679 C103 1.498 . S
C706 C114 1.347 . S
C718 C206 1.371 1_556 S
C745 C217 1.594 . S
C733 C131 1.664 . S
C772 C257 1.640 . S
C760 C109 1.661 . S
C787 C120 1.673 . S
C799 C296 1.637 . S
C814 C153 1.527 . S
C826 C256 1.476 . S
C841 C164 1.471 . S
C853 C297 1.402 . S
C880 C216 1.441 . S
C868 C142 1.483 . S
C907 C327 1.656 . S
C895 C15 1.642 . S
C922 C26 1.778 . S
C934 C367 1.753 . S
C949 C4 1.611 . S
C961 C406 1.541 . S
C976 C191 1.467 . S
C988 C366 1.401 . S
C1003 C169 1.491 . S
C1015 C407 1.503 . S
C1030 C180 1.360 . S
C1042 C326 1.372 . S
C1057 C197 1.617 . S
C1069 C337 1.652 . S
C1084 C175 1.632 . S
C1096 C377 1.660 . S
C1123 C416 1.635 . S
C1111 C186 1.674 . S
C1138 C21 1.470 . S
C1150 C376 1.515 . S
C1177 C417 1.406 . S
C1165 C32 1.473 . S
C1192 C10 1.486 . S
C1204 C336 1.441 . S
C1231 C447 1.643 . S
C1219 C81 1.654 . S
C1246 C92 1.779 . S
C1258 C487 1.749 . S
C1285 C526 1.523 . S
C1273 C70 1.601 . S
C1312 C486 1.397 . S
C1300 C59 1.483 . S
C1339 C527 1.491 . S
C1327 C37 1.494 . S
C1354 C48 1.357 . S
C1366 C446 1.304 . S
C1381 C65 1.612 . S
C1393 C457 1.646 . S
C1408 C43 1.646 . S
C1420 C497 1.613 . S
C1447 C536 1.672 . S
C1435 C54 1.614 . S
C1462 C87 1.466 . S
C1474 C496 1.522 . S
C1489 C98 1.437 . S
C1501 C537 1.438 . S
C1516 C76 1.416 . S
C1528 C456 1.495 . S
C1543 C170 1.492 . S
C1555 C203 1.486 . S
C1582 C243 1.894 . S
C1570 C181 1.931 . S
C1597 C192 1.534 . S
C1609 C293 1.576 . S
C1624 C71 1.741 . S
C1636 C253 1.783 . S
C1651 C82 1.648 . S
C1663 C283 1.683 . S
C1690 C213 1.315 . S
C1678 C93 1.316 . S
C1705 C38 1.469 . S
C1717 C323 1.507 . S
C1732 C49 1.893 . S
C1744 C363 1.929 . S
C1759 C60 1.534 . S
C1771 C413 1.576 . S
C1786 C137 1.772 . S
C1798 C373 1.761 . S
C1825 C403 1.659 . S
C1813 C148 1.676 . S
C1840 C159 1.302 . S
C1852 C333 1.325 . S
C1867 C104 1.502 . S
C1879 C443 1.474 . S
C1894 C115 1.932 . S
C1906 C483 1.891 . S
C1933 C533 1.576 . S
C1921 C126 1.536 . S
C1948 C5 1.740 . S
C1960 C493 1.783 . S
C1975 C16 1.647 . S
C1987 C523 1.684 . S
C2002 C27 1.295 . S
C2014 C453 1.326 . S
