# Generated by pormake.
# Topology ssa, (4,4)-cn, num edge types: 1
# Building blocks:
#     Node 0, Type 0, BuildingBlock: ESEHIV_clean_sbu_0, # of connection points: 4
#     Node 1, Type 0, BuildingBlock: ESEHIV_clean_sbu_0, # of connection points: 4
#     Node 2, Type 0, BuildingBlock: ESEHIV_clean_sbu_0, # of connection points: 4
#     Node 3, Type 0, BuildingBlock: ESEHIV_clean_sbu_0, # of connection points: 4
#     Node 4, Type 0, BuildingBlock: ESEHIV_clean_sbu_0, # of connection points: 4
#     Node 5, Type 0, BuildingBlock: ESEHIV_clean_sbu_0, # of connection points: 4
#     Node 6, Type 1, BuildingBlock: NAWXER_clean_linker_0, # of connection points: 4
#     Node 7, Type 1, BuildingBlock: NAWXER_clean_linker_0, # of connection points: 4
#     Node 8, Type 1, BuildingBlock: NAWXER_clean_linker_0, # of connection points: 4
#     Node 9, Type 1, BuildingBlock: NAWXER_clean_linker_0, # of connection points: 4
#     Node 10, Type 1, BuildingBlock: NAWXER_clean_linker_0, # of connection points: 4
#     Node 11, Type 1, BuildingBlock: NAWXER_clean_linker_0, # of connection points: 4
#     Edge 12, Type (0, 1), BuildingBlock: XUDNAN_clean_linker_2, # of connection points: 2
#     Edge 13, Type (0, 1), BuildingBlock: XUDNAN_clean_linker_2, # of connection points: 2
#     Edge 14, Type (0, 1), BuildingBlock: XUDNAN_clean_linker_2, # of connection points: 2
#     Edge 15, Type (0, 1), BuildingBlock: XUDNAN_clean_linker_2, # of connection points: 2
#     Edge 16, Type (0, 1), BuildingBlock: XUDNAN_clean_linker_2, # of connection points: 2
#     Edge 17, Type (0, 1), BuildingBlock: XUDNAN_clean_linker_2, # of connection points: 2
#     Edge 18, Type (0, 1), BuildingBlock: XUDNAN_clean_linker_2, # of connection points: 2
#     Edge 19, Type (0, 1), BuildingBlock: XUDNAN_clean_linker_2, # of connection points: 2
#     Edge 20, Type (0, 1), BuildingBlock: XUDNAN_clean_linker_2, # of connection points: 2
#     Edge 21, Type (0, 1), BuildingBlock: XUDNAN_clean_linker_2, # of connection points: 2
#     Edge 22, Type (0, 1), BuildingBlock: XUDNAN_clean_linker_2, # of connection points: 2
#     Edge 23, Type (0, 1), BuildingBlock: XUDNAN_clean_linker_2, # of connection points: 2
#     Edge 24, Type (0, 1), BuildingBlock: XUDNAN_clean_linker_2, # of connection points: 2
#     Edge 25, Type (0, 1), BuildingBlock: XUDNAN_clean_linker_2, # of connection points: 2
#     Edge 26, Type (0, 1), BuildingBlock: XUDNAN_clean_linker_2, # of connection points: 2
#     Edge 27, Type (0, 1), BuildingBlock: XUDNAN_clean_linker_2, # of connection points: 2
#     Edge 28, Type (0, 1), BuildingBlock: XUDNAN_clean_linker_2, # of connection points: 2
#     Edge 29, Type (0, 1), BuildingBlock: XUDNAN_clean_linker_2, # of connection points: 2
#     Edge 30, Type (0, 1), BuildingBlock: XUDNAN_clean_linker_2, # of connection points: 2
#     Edge 31, Type (0, 1), BuildingBlock: XUDNAN_clean_linker_2, # of connection points: 2
#     Edge 32, Type (0, 1), BuildingBlock: XUDNAN_clean_linker_2, # of connection points: 2
#     Edge 33, Type (0, 1), BuildingBlock: XUDNAN_clean_linker_2, # of connection points: 2
#     Edge 34, Type (0, 1), BuildingBlock: XUDNAN_clean_linker_2, # of connection points: 2
#     Edge 35, Type (0, 1), BuildingBlock: XUDNAN_clean_linker_2, # of connection points: 2
# Relax obj value: 0.009
# Max RMSD: 0.106
# Mean RMSD: 0.056
data_MOF--net-ssa--node1-ESEHIV_clean_sbu_0--node2-NAWXER_clean_linker_0--edge1-XUDNAN_clean_linker_2
_symmetry_space_group_name_H-M    P1
_symmetry_Int_Tables_number       1
_symmetry_cell_setting            triclinic
loop_
_symmetry_equiv_pos_as_xyz
'x, y, z'
_cell_length_a     58.503441
_cell_length_b     61.755524
_cell_length_c     41.942561
_cell_angle_alpha  88.672961
_cell_angle_beta   90.889383
_cell_angle_gamma 122.26468
loop_
_atom_site_label
_atom_site_type_symbol
_atom_site_fract_x
_atom_site_fract_y
_atom_site_fract_z
_atom_type_partial_charge
Cu0 Cu 0.98757 0.51051 0.01874 0.0
N1 N 0.96044 0.47637 0.02581 0.0
N2 N 0.93086 0.43541 0.01448 0.0
C3 C 0.94704 0.45936 1.00262 0.0
C4 C 0.9341 0.43742 0.04642 0.0
C5 C 0.95231 0.46281 0.05338 0.0
O6 O 0.97862 0.51945 0.97745 0.0
C7 C 0.0294 0.50814 0.04684 0.0
O8 O 0.01438 0.50369 0.07204 0.0
H9 H 0.95019 0.46424 0.97744 0.0
H10 H 0.95975 0.47065 0.07675 0.0
N11 N 0.98806 0.53067 0.05171 0.0
N12 N 1.00417 0.55563 0.09445 0.0
C13 C 0.01031 0.54891 0.06699 0.0
C14 C 0.96704 0.52621 0.06959 0.0
C15 C 0.9769 0.54157 0.09598 0.0
C16 C 0.97111 0.53525 0.97316 0.0
O17 O 0.97329 0.54994 0.99666 0.0
H18 H 0.03066 0.55525 0.05969 0.0
H19 H 0.94617 0.51153 0.06493 0.0
O20 O 0.02171 0.5118 0.01973 0.0
H21 H 0.92442 0.42162 0.06342 0.0
H22 H 0.96497 0.54138 0.11557 0.0
Cu23 Cu 0.51883 0.02 0.49331 0.0
N24 N 0.53809 0.02007 0.45789 0.0
N25 N 0.55569 1.006 0.42309 0.0
C26 C 0.54162 1.00092 0.45038 0.0
C27 C 0.56106 0.02914 0.41291 0.0
C28 C 0.54993 0.03764 0.43422 0.0
O29 O 0.48147 0.99329 0.48472 0.0
C30 C 0.56008 0.02952 0.53401 0.0
O31 O 0.57359 0.04256 0.50849 0.0
H32 H 0.53413 0.98366 0.46478 0.0
H33 H 0.55003 0.05516 0.43214 0.0
N34 N 0.52203 0.05157 0.49942 0.0
N35 N 0.51784 0.08066 0.52532 0.0
C36 C 0.50685 0.0555 0.51956 0.0
C37 C 0.54339 0.07508 0.49231 0.0
C38 C 0.54076 0.09301 0.508 0.0
C39 C 0.47086 0.99851 0.46145 0.0
O40 O 0.48461 0.02163 0.44858 0.0
H41 H 0.48929 0.04009 0.53173 0.0
H42 H 0.56077 0.07891 0.47877 0.0
O43 O 0.5344 0.01531 0.53212 0.0
H44 H 0.5717 0.03892 0.3912 0.0
H45 H 0.55525 0.11347 0.50774 0.0
Cu46 Cu 0.52622 0.51091 0.03629 0.0
N47 N 0.51993 0.47779 0.03935 0.0
N48 N 0.5142 0.44074 0.02339 0.0
C49 C 0.51477 0.46224 0.01455 0.0
C50 C 0.51903 0.44298 0.0552 0.0
C51 C 0.52256 0.46577 0.0649 0.0
O52 O 0.54451 0.52541 0.99613 0.0
C53 C 0.48217 0.50322 0.06793 0.0
O54 O 0.49385 0.49692 0.09007 0.0
H55 H 0.5122 0.46708 0.99038 0.0
H56 H 0.52763 0.47345 0.08867 0.0
N57 N 0.54868 0.5325 0.0687 0.0
N58 N 0.56806 0.56609 0.10107 0.0
C59 C 0.54848 0.55286 0.07927 0.0
C60 C 0.56902 0.53277 0.08449 0.0
C61 C 0.58111 0.55356 0.10439 0.0
C62 C 0.565 0.52364 0.99245 0.0
O63 O 0.57203 0.51369 0.01568 0.0
H64 H 0.53484 0.5584 0.07024 0.0
H65 H 0.57502 0.51916 0.08126 0.0
O66 O 0.4924 0.50919 0.04013 0.0
H67 H 0.52098 0.42967 0.07041 0.0
H68 H 0.59832 0.55918 0.11985 0.0
Cu69 Cu 0.986 0.47411 0.50806 0.0
N70 N 0.98497 0.4564 0.47209 0.0
N71 N 0.99973 0.44617 0.42975 0.0
C72 C 1.00624 0.46298 0.45335 0.0
C73 C 0.97332 0.42815 0.43385 0.0
C74 C 0.96432 0.43439 0.46024 0.0
O75 O 0.02047 0.50715 0.50619 0.0
C76 C 0.96718 0.45016 0.56983 0.0
O77 O 0.96132 0.46763 0.57435 0.0
H78 H 0.02618 0.47979 0.457 0.0
H79 H 0.94434 0.42328 0.47049 0.0
N80 N 0.95805 0.48024 0.50636 0.0
N81 N 0.93317 0.49607 0.51996 0.0
C82 C 0.95768 0.49896 0.52167 0.0
C83 C 0.93311 0.46532 0.49399 0.0
C84 C 0.91767 0.47499 0.50246 0.0
C85 C 0.02302 0.52101 0.48176 0.0
O86 O 1.00238 0.51267 0.46211 0.0
H87 H 0.97438 0.51317 0.53591 0.0
H88 H 0.92613 0.4479 0.48117 0.0
O89 O 0.98 0.45149 0.54477 0.0
H90 H 0.9616 0.41133 0.41942 0.0
H91 H 0.89638 0.46657 0.49736 0.0
Cu92 Cu 0.50531 0.01181 0.04847 0.0
N93 N 0.49801 0.03741 0.04161 0.0
N94 N 0.48961 0.06348 0.01317 0.0
C95 C 0.49096 0.04236 0.01302 0.0
C96 C 0.49604 0.07217 0.04328 0.0
C97 C 0.50123 0.056 0.06082 0.0
O98 O 0.53008 0.01689 0.01456 0.0
C99 C 0.46844 0.95943 0.06512 0.0
O100 O 0.49031 0.95967 0.0734 0.0
H101 H 0.48824 0.03134 0.99209 0.0
H102 H 0.50777 0.05819 0.08542 0.0
N103 N 0.52292 0.01564 0.08716 0.0
N104 N 0.54424 1.00545 0.12326 0.0
C105 C 0.54127 0.00912 0.09204 0.0
C106 C 0.5143 0.01664 0.11632 0.0
C107 C 0.52744 0.01034 0.13869 0.0
C108 C 0.52371 0.0103 0.98569 0.0
O109 O 0.49814 0.995 0.97795 0.0
H110 H 0.5495 1.00384 0.07292 0.0
H111 H 0.49764 0.01906 0.12077 0.0
O112 O 0.47089 0.979 0.05077 0.0
H113 H 0.49744 0.08922 0.05191 0.0
H114 H 0.52327 0.00744 0.16401 0.0
Cu115 Cu 0.50993 0.50886 0.49104 0.0
N116 N 0.53371 0.52655 0.45788 0.0
N117 N 0.5598 0.56079 0.42696 0.0
C118 C 0.54869 0.55221 0.45601 0.0
C119 C 0.55155 0.53957 0.40984 0.0
C120 C 0.53543 0.51837 0.42909 0.0
O121 O 0.47872 0.51151 0.48081 0.0
C122 C 0.52494 0.51804 0.55731 0.0
O123 O 0.50334 0.49529 0.56305 0.0
H124 H 0.54926 0.5643 0.4747 0.0
H125 H 0.52424 0.49856 0.42196 0.0
N126 N 0.50351 0.47573 0.49442 0.0
N127 N 0.5062 0.44365 0.51564 0.0
C128 C 0.51679 0.46907 0.51487 0.0
C129 C 0.48468 0.45377 0.48049 0.0
C130 C 0.48594 0.43382 0.49405 0.0
C131 C 0.45385 0.49415 0.47714 0.0
O132 O 0.44521 0.47029 0.4849 0.0
H133 H 0.53309 0.48246 0.53018 0.0
H134 H 0.47063 0.45218 0.46228 0.0
O135 O 0.52927 0.52751 0.52915 0.0
H136 H 0.55561 0.53939 0.38478 0.0
H137 H 0.4727 0.41367 0.48897 0.0
C138 C 0.34182 0.52293 0.19782 0.0
C139 C 0.33569 0.50701 0.17146 0.0
C140 C 0.32105 0.52045 0.21689 0.0
C141 C 0.29396 0.50162 0.21024 0.0
C142 C 0.30865 0.48804 0.1652 0.0
C143 C 0.28805 0.48539 0.18436 0.0
C144 C 0.27115 0.49996 0.22734 0.0
C145 C 0.31961 0.48835 0.30431 0.0
C146 C 0.32811 0.50596 0.32927 0.0
C147 C 0.30049 0.48614 0.28181 0.0
C148 C 0.28959 0.5016 0.28372 0.0
C149 C 0.31672 0.52099 0.33136 0.0
C150 C 0.29764 0.51873 0.30899 0.0
C151 C 0.2687 0.49929 0.26093 0.0
C152 C 0.15093 0.45792 0.27542 0.0
C153 C 0.15034 0.47368 0.29868 0.0
C154 C 0.17527 0.46431 0.26136 0.0
C155 C 0.19955 0.4865 0.27036 0.0
C156 C 0.17489 0.49568 0.30805 0.0
C157 C 0.1993 0.50184 0.29426 0.0
C158 C 0.22512 0.49366 0.25471 0.0
C159 C 0.176 0.50811 0.1839 0.0
C160 C 0.1726 0.4979 0.15321 0.0
C161 C 0.19424 0.50798 0.20576 0.0
C162 C 0.20862 0.49637 0.19839 0.0
C163 C 0.188 0.48734 0.14542 0.0
C164 C 0.20547 0.48637 0.16775 0.0
C165 C 0.22837 0.4961 0.22122 0.0
H166 H 0.36254 0.5378 0.20301 0.0
H167 H 0.32612 0.5337 0.23612 0.0
H168 H 0.30339 0.47525 0.14536 0.0
H169 H 0.26732 0.47079 0.17864 0.0
H170 H 0.32798 0.4765 0.30193 0.0
H171 H 0.29409 0.47223 0.2631 0.0
H172 H 0.32235 0.53438 0.35057 0.0
H173 H 0.28924 0.53057 0.31135 0.0
H174 H 0.1326 0.44051 0.26818 0.0
H175 H 0.17516 0.45194 0.24338 0.0
H176 H 0.17525 0.50845 0.32557 0.0
H177 H 0.21789 0.519 0.30157 0.0
H178 H 0.16456 0.51621 0.19143 0.0
H179 H 0.19719 0.51734 0.22826 0.0
H180 H 0.18695 0.48002 0.12192 0.0
H181 H 0.21669 0.47784 0.16087 0.0
N182 N 0.25107 0.49866 0.20906 0.0
N183 N 0.2456 0.49597 0.27321 0.0
C184 C 0.8373 0.28748 0.84142 0.0
C185 C 0.82836 0.30072 0.85888 0.0
C186 C 0.82028 0.26929 0.81911 0.0
C187 C 0.79394 0.26383 0.81424 0.0
C188 C 0.80237 0.29596 0.85303 0.0
C189 C 0.78516 0.2774 0.83117 0.0
C190 C 0.77463 0.2421 0.79435 0.0
C191 C 0.82341 0.30398 0.71724 0.0
C192 C 0.84469 0.30152 0.70667 0.0
C193 C 0.80238 0.28463 0.73587 0.0
C194 C 0.8019 0.26223 0.74393 0.0
C195 C 0.84438 0.27922 0.71587 0.0
C196 C 0.82305 0.25969 0.73386 0.0
C197 C 0.77874 0.24094 0.76156 0.0
C198 C 0.67108 0.14917 0.7236 0.0
C199 C 0.67881 0.13611 0.70377 0.0
C200 C 0.69038 0.17009 0.7412 0.0
C201 C 0.71783 0.1783 0.73962 0.0
C202 C 0.70644 0.14482 0.70161 0.0
C203 C 0.72577 0.16581 0.71924 0.0
C204 C 0.7381 0.1996 0.75962 0.0
C205 C 0.68575 0.13218 0.82291 0.0
C206 C 0.66996 0.13567 0.84462 0.0
C207 C 0.70711 0.15314 0.80675 0.0
C208 C 0.71279 0.17806 0.81124 0.0
C209 C 0.67642 0.16071 0.85024 0.0
C210 C 0.69764 0.18169 0.83372 0.0
C211 C 0.73466 0.20026 0.79286 0.0
H212 H 0.85727 0.29085 0.84553 0.0
H213 H 0.82726 0.2587 0.80668 0.0
H214 H 0.79495 0.30576 0.86641 0.0
H215 H 0.76479 0.27323 0.82794 0.0
H216 H 0.82245 0.32048 0.71043 0.0
H217 H 0.7861 0.28686 0.74326 0.0
H218 H 0.86058 0.2767 0.70915 0.0
H219 H 0.8231 0.24258 0.74 0.0
H220 H 0.65011 0.14345 0.72521 0.0
H221 H 0.68384 0.17982 0.7562 0.0
H222 H 0.7131 0.13516 0.68668 0.0
H223 H 0.74685 0.17189 0.71757 0.0
H224 H 0.68169 0.11321 0.81858 0.0
H225 H 0.71913 0.1498 0.7906 0.0
H226 H 0.66464 0.16403 0.86682 0.0
H227 H 0.7018 0.20071 0.83798 0.0
N228 N 0.75287 0.22171 0.80883 0.0
N229 N 0.76022 0.21979 0.74529 0.0
C230 C 0.59957 0.7307 0.2233 0.0
C231 C 0.58089 0.71527 0.19967 0.0
C232 C 0.59723 0.74927 0.23858 0.0
C233 C 0.57567 0.75248 0.2315 0.0
C234 C 0.55967 0.71901 0.19191 0.0
C235 C 0.55716 0.73749 0.20761 0.0
C236 C 0.57259 0.77138 0.24924 0.0
C237 C 0.55808 0.70868 0.3171 0.0
C238 C 0.58101 0.7162 0.33634 0.0
C239 C 0.55523 0.72692 0.30037 0.0
C240 C 0.57508 0.75304 0.30282 0.0
C241 C 0.60051 0.74252 0.33924 0.0
C242 C 0.5974 0.76077 0.32291 0.0
C243 C 0.5735 0.77224 0.28299 0.0
C244 C 0.55151 0.85509 0.3099 0.0
C245 C 0.57442 0.87259 0.32762 0.0
C246 C 0.5503 0.8343 0.29542 0.0
C247 C 0.57186 0.83049 0.29862 0.0
C248 C 0.59566 0.86832 0.33147 0.0
C249 C 0.59427 0.84733 0.31733 0.0
C250 C 0.57171 0.80983 0.2811 0.0
C251 C 0.59834 0.87537 0.21362 0.0
C252 C 0.57526 0.87298 0.19929 0.0
C253 C 0.597 0.85419 0.2282 0.0
C254 C 0.57268 0.83023 0.22839 0.0
C255 C 0.55105 0.84878 0.19883 0.0
C256 C 0.54983 0.82747 0.21309 0.0
C257 C 0.57073 0.809 0.2475 0.0
H258 H 0.61597 0.72831 0.23042 0.0
H259 H 0.6123 0.76105 0.25619 0.0
H260 H 0.54514 0.70784 0.17352 0.0
H261 H 0.54053 0.7398 0.20143 0.0
H262 H 0.54225 0.68869 0.31492 0.0
H263 H 0.5377 0.72064 0.28521 0.0
H264 H 0.61859 0.74909 0.35344 0.0
H265 H 0.61298 0.78087 0.32494 0.0
H266 H 0.53491 0.85795 0.30638 0.0
H267 H 0.5327 0.82139 0.2813 0.0
H268 H 0.61346 0.88136 0.34522 0.0
H269 H 0.6111 0.84472 0.32012 0.0
H270 H 0.61717 0.89381 0.21457 0.0
H271 H 0.61476 0.85664 0.24017 0.0
H272 H 0.53303 0.84642 0.18772 0.0
H273 H 0.53085 0.80912 0.21329 0.0
N274 N 0.57118 0.78985 0.23264 0.0
N275 N 0.57329 0.79152 0.29771 0.0
C276 C 0.8537 0.56711 0.68882 0.0
C277 C 0.84338 0.55035 0.66291 0.0
C278 C 0.8362 0.56852 0.70983 0.0
C279 C 0.80806 0.55272 0.70575 0.0
C280 C 0.81524 0.53548 0.65817 0.0
C281 C 0.79782 0.53661 0.67937 0.0
C282 C 0.78889 0.55332 0.72777 0.0
C283 C 0.8364 0.52875 0.78718 0.0
C284 C 0.84779 0.54181 0.8159 0.0
C285 C 0.81791 0.53216 0.76975 0.0
C286 C 0.8113 0.54981 0.77941 0.0
C287 C 0.84038 0.55885 0.82606 0.0
C288 C 0.82259 0.56289 0.80798 0.0
C289 C 0.79113 0.55331 0.76158 0.0
C290 C 0.68546 0.53343 0.80514 0.0
C291 C 0.69182 0.55482 0.82319 0.0
C292 C 0.70515 0.53377 0.78646 0.0
C293 C 0.73156 0.55537 0.78593 0.0
C294 C 0.71823 0.5765 0.82253 0.0
C295 C 0.7381 0.57665 0.80426 0.0
C296 C 0.75194 0.55591 0.76527 0.0
C297 C 0.69994 0.57417 0.70527 0.0
C298 C 0.68318 0.55462 0.68391 0.0
C299 C 0.72149 0.57446 0.72063 0.0
C300 C 0.72672 0.55515 0.71512 0.0
C301 C 0.68861 0.53542 0.67822 0.0
C302 C 0.71029 0.53581 0.6935 0.0
C303 C 0.74919 0.55499 0.73186 0.0
H304 H 0.87525 0.57882 0.69323 0.0
H305 H 0.84466 0.58176 0.72938 0.0
H306 H 0.80655 0.52293 0.63799 0.0
H307 H 0.77623 0.52461 0.6753 0.0
H308 H 0.84159 0.51573 0.77791 0.0
H309 H 0.80863 0.52066 0.74885 0.0
H310 H 0.84781 0.56881 0.84835 0.0
H311 H 0.81743 0.57616 0.81659 0.0
H312 H 0.66521 0.5165 0.80541 0.0
H313 H 0.69982 0.51719 0.77241 0.0
H314 H 0.72357 0.59307 0.8366 0.0
H315 H 0.75842 0.59348 0.80397 0.0
H316 H 0.69628 0.58919 0.71029 0.0
H317 H 0.73417 0.58987 0.73673 0.0
H318 H 0.67635 0.52031 0.66157 0.0
H319 H 0.71403 0.5208 0.68873 0.0
N320 N 0.76778 0.55378 0.7144 0.0
N321 N 0.77262 0.55494 0.77892 0.0
C322 C 0.17044 0.66437 0.2557 0.0
C323 C 0.15743 0.67003 0.23151 0.0
C324 C 0.1937 0.68407 0.27059 0.0
C325 C 0.20377 0.70985 0.26235 0.0
C326 C 0.16819 0.69567 0.2223 0.0
C327 C 0.19103 0.71535 0.23761 0.0
C328 C 0.22772 0.73145 0.27845 0.0
C329 C 0.16738 0.68549 0.35625 0.0
C330 C 0.17634 0.67349 0.37747 0.0
C331 C 0.18539 0.70497 0.33521 0.0
C332 C 0.21277 0.71281 0.33473 0.0
C333 C 0.20398 0.68193 0.37745 0.0
C334 C 0.22199 0.70149 0.35647 0.0
C335 C 0.23191 0.73293 0.31191 0.0
C336 C 0.30477 0.84286 0.33307 0.0
C337 C 0.32733 0.84637 0.3504 0.0
C338 C 0.287 0.81975 0.31814 0.0
C339 C 0.29084 0.79926 0.32077 0.0
C340 C 0.33086 0.82551 0.35327 0.0
C341 C 0.31253 0.80206 0.33899 0.0
C342 C 0.27144 0.77485 0.3052 0.0
C343 C 0.33171 0.82576 0.22973 0.0
C344 C 0.32095 0.83071 0.20223 0.0
C345 C 0.3147 0.80729 0.25244 0.0
C346 C 0.28643 0.79362 0.24866 0.0
C347 C 0.29267 0.81666 0.19827 0.0
C348 C 0.2757 0.79844 0.22114 0.0
C349 C 0.26788 0.77305 0.27172 0.0
H350 H 0.16274 0.64469 0.26289 0.0
H351 H 0.20371 0.67908 0.28851 0.0
H352 H 0.15849 0.70057 0.2038 0.0
H353 H 0.19845 0.73498 0.23046 0.0
H354 H 0.14644 0.67999 0.356 0.0
H355 H 0.17791 0.71384 0.3192 0.0
H356 H 0.21165 0.67307 0.39315 0.0
H357 H 0.24306 0.70737 0.3567 0.0
H358 H 0.30055 0.85791 0.33111 0.0
H359 H 0.27 0.81776 0.30477 0.0
H360 H 0.34802 0.82734 0.36601 0.0
H361 H 0.31567 0.78633 0.34146 0.0
H362 H 0.35331 0.8362 0.23385 0.0
H363 H 0.32382 0.80337 0.27255 0.0
H364 H 0.28351 0.81937 0.17718 0.0
H365 H 0.25405 0.78799 0.21718 0.0
N366 N 0.24598 0.75151 0.25986 0.0
N367 N 0.25357 0.75465 0.32395 0.0
C368 C 0.47461 0.1712 0.8175 0.0
C369 C 0.49443 0.17535 0.8403 0.0
C370 C 0.47804 0.19123 0.79768 0.0
C371 C 0.50129 0.21583 0.80033 0.0
C372 C 0.518 0.19996 0.84226 0.0
C373 C 0.52122 0.22004 0.82273 0.0
C374 C 0.50358 0.23773 0.78229 0.0
C375 C 0.51335 0.19111 0.70842 0.0
C376 C 0.49339 0.18118 0.68441 0.0
C377 C 0.51521 0.20908 0.72986 0.0
C378 C 0.49717 0.21755 0.72777 0.0
C379 C 0.47536 0.18967 0.68242 0.0
C380 C 0.47739 0.20779 0.70367 0.0
C381 C 0.49995 0.23783 0.749 0.0
C382 C 0.52842 0.34449 0.71708 0.0
C383 C 0.51126 0.33833 0.69035 0.0
C384 C 0.52543 0.32529 0.7383 0.0
C385 C 0.50481 0.29959 0.73364 0.0
C386 C 0.49026 0.31265 0.68633 0.0
C387 C 0.48706 0.29361 0.70772 0.0
C388 C 0.50369 0.27835 0.75228 0.0
C389 C 0.49375 0.32325 0.83069 0.0
C390 C 0.51087 0.32897 0.85729 0.0
C391 C 0.49334 0.30777 0.80632 0.0
C392 C 0.5105 0.29823 0.80785 0.0
C393 C 0.52863 0.32022 0.85814 0.0
C394 C 0.52848 0.30512 0.83375 0.0
C395 C 0.50758 0.27831 0.78573 0.0
H396 H 0.45597 0.1527 0.81565 0.0
H397 H 0.46206 0.1877 0.78111 0.0
H398 H 0.53396 0.20382 0.85902 0.0
H399 H 0.53924 0.23894 0.82527 0.0
H400 H 0.5275 0.18494 0.7107 0.0
H401 H 0.53115 0.21676 0.74763 0.0
H402 H 0.46 0.18272 0.66396 0.0
H403 H 0.46345 0.21421 0.70124 0.0
H404 H 0.54461 0.36407 0.72126 0.0
H405 H 0.53996 0.33047 0.75747 0.0
H406 H 0.47692 0.30692 0.66583 0.0
H407 H 0.47118 0.27392 0.7033 0.0
H408 H 0.47966 0.32954 0.82961 0.0
H409 H 0.47868 0.30225 0.78724 0.0
H410 H 0.54217 0.32446 0.87823 0.0
H411 H 0.54187 0.29804 0.83574 0.0
N412 N 0.50737 0.25793 0.79916 0.0
N413 N 0.50002 0.25808 0.73546 0.0
H414 H 0.07077 0.53724 0.08718 0.0
H415 H 0.04269 0.47735 0.01767 0.0
H416 H 0.07904 0.47017 0.03445 0.0
H417 H 0.14521 0.5616 0.07826 0.0
H418 H 0.15109 0.56886 0.12008 0.0
H419 H 0.12533 0.57114 0.09904 0.0
H420 H 0.09043 0.54034 0.14113 0.0
H421 H 0.11582 0.53724 0.16154 0.0
H422 H 0.08529 0.50907 0.14773 0.0
H423 H 0.11255 0.46434 0.06617 0.0
H424 H 0.14472 0.46414 0.10419 0.0
H425 H 0.15506 0.53185 0.14861 0.0
C426 C 0.073 0.52329 0.07474 0.0
C427 C 0.05433 0.50801 0.05092 0.0
C428 C 0.05726 0.48954 0.0355 0.0
C429 C 0.07769 0.48526 0.04505 0.0
C430 C 0.09531 0.50009 0.06945 0.0
C431 C 0.09368 0.51929 0.0834 0.0
C432 C 0.11435 0.53188 0.10989 0.0
C433 C 0.13524 0.56004 0.1013 0.0
C434 C 0.10063 0.52947 0.14195 0.0
C435 C 0.12692 0.51587 0.10986 0.0
C436 C 0.11569 0.49765 0.08641 0.0
C437 C 0.12219 0.47911 0.08388 0.0
C438 C 0.14077 0.47931 0.10567 0.0
C439 C 0.15317 0.49821 0.12959 0.0
C440 C 0.14613 0.51687 0.13115 0.0
H441 H 0.61418 0.06054 0.54412 0.0
H442 H 0.53798 0.01527 0.59428 0.0
H443 H 0.5615 0.03429 0.64519 0.0
H444 H 0.65914 0.06109 0.60871 0.0
H445 H 0.68506 0.09379 0.59918 0.0
H446 H 0.66316 0.07297 0.5682 0.0
H447 H 0.64982 0.10578 0.55333 0.0
H448 H 0.67132 0.12651 0.58441 0.0
H449 H 0.63601 0.11584 0.58356 0.0
H450 H 0.59243 0.06295 0.68918 0.0
H451 H 0.62783 0.09753 0.72232 0.0
H452 H 0.68281 0.12497 0.64196 0.0
C453 C 0.60248 0.05395 0.56589 0.0
C454 C 0.57423 0.03629 0.56521 0.0
C455 C 0.55968 0.02854 0.59424 0.0
C456 C 0.57288 0.03931 0.62326 0.0
C457 C 0.60061 0.05759 0.62279 0.0
C458 C 0.61525 0.06461 0.59482 0.0
C459 C 0.64412 0.08652 0.59985 0.0
C460 C 0.66404 0.07808 0.59362 0.0
C461 C 0.65068 0.11004 0.57907 0.0
C462 C 0.64331 0.09139 0.63482 0.0
C463 C 0.61819 0.07433 0.64782 0.0
C464 C 0.61225 0.07618 0.67931 0.0
C465 C 0.63242 0.09605 0.69786 0.0
C466 C 0.65817 0.114 0.68479 0.0
C467 C 0.66361 0.1113 0.65293 0.0
H468 H 0.53341 0.57984 0.12058 0.0
H469 H 0.6183 0.60604 0.11428 0.0
H470 H 0.63059 0.64733 0.13752 0.0
H471 H 0.54003 0.64017 0.10168 0.0
H472 H 0.51495 0.63583 0.12994 0.0
H473 H 0.51262 0.60836 0.11241 0.0
H474 H 0.51181 0.58978 0.16859 0.0
H475 H 0.51398 0.61709 0.18636 0.0
H476 H 0.53857 0.60893 0.19652 0.0
H477 H 0.63381 0.68617 0.15924 0.0
H478 H 0.62806 0.71904 0.18273 0.0
H479 H 0.5408 0.66707 0.1788 0.0
C480 C 0.55456 0.59436 0.12404 0.0
C481 C 0.57496 0.58981 0.11556 0.0
C482 C 0.6024 0.60907 0.12084 0.0
C483 C 0.60956 0.63262 0.13383 0.0
C484 C 0.58901 0.63655 0.14179 0.0
C485 C 0.56205 0.61788 0.13749 0.0
C486 C 0.544 0.62681 0.14914 0.0
C487 C 0.5269 0.62786 0.12165 0.0
C488 C 0.52604 0.60963 0.1768 0.0
C489 C 0.56507 0.65349 0.16042 0.0
C490 C 0.59087 0.65871 0.15565 0.0
C491 C 0.61371 0.68218 0.16352 0.0
C492 C 0.61018 0.70071 0.17712 0.0
C493 C 0.58397 0.69569 0.18328 0.0
C494 C 0.56113 0.67172 0.17439 0.0
H495 H 0.88523 0.47541 0.54991 0.0
H496 H 0.96132 0.54674 0.5326 0.0
H497 H 0.9467 0.56927 0.56709 0.0
H498 H 0.84244 0.50118 0.55192 0.0
H499 H 0.82174 0.47975 0.58367 0.0
H500 H 0.83788 0.46999 0.55634 0.0
H501 H 0.86062 0.46089 0.6039 0.0
H502 H 0.84465 0.47073 0.63135 0.0
H503 H 0.88087 0.48592 0.63181 0.0
H504 H 0.92322 0.58356 0.60395 0.0
H505 H 0.89356 0.58831 0.64067 0.0
H506 H 0.83452 0.50657 0.63573 0.0
C507 C 0.89858 0.49586 0.55288 0.0
C508 C 0.92421 0.5095 0.53832 0.0
C509 C 0.94154 0.53608 0.54355 0.0
C510 C 0.93339 0.54897 0.563 0.0
C511 C 0.908 0.53485 0.57725 0.0
C512 C 0.89094 0.50885 0.5725 0.0
C513 C 0.86526 0.49774 0.5916 0.0
C514 C 0.84036 0.48651 0.56956 0.0
C515 C 0.86272 0.47764 0.61612 0.0
C516 C 0.87037 0.52157 0.60772 0.0
C517 C 0.89504 0.54283 0.59911 0.0
C518 C 0.9039 0.567 0.61095 0.0
C519 C 0.887 0.56947 0.63198 0.0
C520 C 0.86161 0.54785 0.64109 0.0
C521 C 0.8535 0.52362 0.62886 0.0
H522 H 0.45688 0.91716 0.10152 0.0
H523 H 0.41986 0.95617 0.05952 0.0
H524 H 0.3775 0.92626 0.08811 0.0
H525 H 0.39515 0.85183 0.1007 0.0
H526 H 0.40368 0.84302 0.13824 0.0
H527 H 0.43009 0.86589 0.11197 0.0
H528 H 0.45006 0.8985 0.15755 0.0
H529 H 0.42363 0.87601 0.18395 0.0
H530 H 0.42911 0.90738 0.17716 0.0
H531 H 0.34086 0.89514 0.1258 0.0
H532 H 0.31158 0.86323 0.16651 0.0
H533 H 0.37166 0.84315 0.18249 0.0
C534 C 0.43969 0.91908 0.09769 0.0
C535 C 0.44177 0.93905 0.07811 0.0
C536 C 0.41881 0.941 0.07418 0.0
C537 C 0.39464 0.92412 0.09043 0.0
C538 C 0.39358 0.90519 0.11031 0.0
C539 C 0.41536 0.90233 0.11362 0.0
C540 C 0.40932 0.88105 0.13744 0.0
C541 C 0.40957 0.85915 0.12111 0.0
C542 C 0.42921 0.89136 0.16571 0.0
C543 C 0.38101 0.87285 0.14764 0.0
C544 C 0.37228 0.88696 0.13162 0.0
C545 C 0.34729 0.88364 0.13803 0.0
C546 C 0.33071 0.8653 0.16117 0.0
C547 C 0.33899 0.85028 0.17772 0.0
C548 C 0.3646 0.85427 0.17062 0.0
H549 H 0.47071 0.40041 0.54839 0.0
H550 H 0.55598 0.45722 0.53637 0.0
H551 H 0.5669 0.43659 0.5802 0.0
H552 H 0.47251 0.39835 0.63312 0.0
H553 H 0.44786 0.36448 0.63666 0.0
H554 H 0.44691 0.38247 0.60282 0.0
H555 H 0.44961 0.35161 0.56444 0.0
H556 H 0.45027 0.33335 0.59816 0.0
H557 H 0.4768 0.34607 0.56886 0.0
H558 H 0.56821 0.41005 0.62594 0.0
H559 H 0.56011 0.37926 0.66942 0.0
H560 H 0.4735 0.34193 0.65424 0.0
C561 C 0.49168 0.4081 0.55458 0.0
C562 C 0.51259 0.43011 0.53879 0.0
C563 C 0.53977 0.44022 0.54813 0.0
C564 C 0.54611 0.42867 0.57296 0.0
C565 C 0.52497 0.40728 0.58853 0.0
C566 C 0.4983 0.3971 0.57971 0.0
C567 C 0.47931 0.37469 0.60119 0.0
C568 C 0.46055 0.38035 0.61953 0.0
C569 C 0.46305 0.34997 0.58202 0.0
C570 C 0.49946 0.37374 0.62332 0.0
C571 C 0.52568 0.39264 0.61559 0.0
C572 C 0.54774 0.39525 0.63234 0.0
C573 C 0.54288 0.37779 0.6573 0.0
C574 C 0.51613 0.35807 0.66557 0.0
C575 C 0.49423 0.35645 0.64845 0.0
H576 H 0.52616 0.95402 0.41924 0.0
H577 H 0.60243 0.02209 0.39216 0.0
H578 H 0.61585 0.99521 0.3656 0.0
H579 H 0.55117 0.91235 0.4344 0.0
H580 H 0.52194 0.8846 0.41757 0.0
H581 H 0.51867 0.90911 0.43528 0.0
H582 H 0.49789 0.91407 0.38276 0.0
H583 H 0.5011 0.88959 0.36488 0.0
H584 H 0.51617 0.92074 0.34594 0.0
H585 H 0.6213 0.96097 0.34285 0.0
H586 H 0.61734 0.92187 0.32245 0.0
H587 H 0.53669 0.87588 0.36214 0.0
C588 C 0.54577 0.96318 0.40794 0.0
C589 C 0.56338 0.99013 0.40787 0.0
C590 C 0.58865 1.00151 0.39232 0.0
C591 C 0.59646 0.98639 0.37732 0.0
C592 C 0.57863 0.95989 0.37774 0.0
C593 C 0.5537 0.94836 0.39239 0.0
C594 C 0.53795 0.91954 0.38832 0.0
C595 C 0.5321 0.90558 0.42083 0.0
C596 C 0.51173 0.91046 0.36934 0.0
C597 C 0.558 0.91668 0.36928 0.0
C598 C 0.58141 0.94018 0.36368 0.0
C599 C 0.60305 0.94246 0.34704 0.0
C600 C 0.60067 0.92015 0.33569 0.0
C601 C 0.57675 0.89586 0.34074 0.0
C602 C 0.55515 0.8942 0.35774 0.0
H603 H 0.58976 0.50153 0.96781 0.0
H604 H 0.57435 0.56203 0.94967 0.0
H605 H 0.60412 0.57615 0.90208 0.0
H606 H 0.65819 0.53614 0.94804 0.0
H607 H 0.65749 0.5097 0.92966 0.0
H608 H 0.63374 0.50371 0.96059 0.0
H609 H 0.59416 0.47435 0.92306 0.0
H610 H 0.61754 0.48013 0.89169 0.0
H611 H 0.59114 0.48646 0.88472 0.0
H612 H 0.6399 0.58608 0.86004 0.0
H613 H 0.67449 0.5882 0.8242 0.0
H614 H 0.66345 0.51948 0.86944 0.0
C615 C 0.59244 0.51762 0.95365 0.0
C616 C 0.58007 0.5309 0.96234 0.0
C617 C 0.58371 0.55164 0.94316 0.0
C618 C 0.6006 0.55978 0.91626 0.0
C619 C 0.61308 0.54658 0.90879 0.0
C620 C 0.60874 0.52565 0.9267 0.0
C621 C 0.62467 0.51484 0.91433 0.0
C622 C 0.64471 0.5162 0.93966 0.0
C623 C 0.60574 0.48732 0.90273 0.0
C624 C 0.63917 0.53323 0.88691 0.0
C625 C 0.63245 0.55154 0.88408 0.0
C626 C 0.64491 0.57157 0.8617 0.0
C627 C 0.66456 0.57272 0.84163 0.0
C628 C 0.67119 0.5538 0.844 0.0
C629 C 0.65826 0.53385 0.86682 0.0
H630 H 0.03539 0.54793 0.42559 0.0
H631 H 0.06972 0.54782 0.518 0.0
H632 H 0.11289 0.58721 0.5019 0.0
H633 H 0.09495 0.56804 0.3802 0.0
H634 H 0.08882 0.58711 0.3524 0.0
H635 H 0.06084 0.55952 0.37177 0.0
H636 H 0.0442 0.58787 0.39294 0.0
H637 H 0.07213 0.61555 0.37366 0.0
H638 H 0.06693 0.61576 0.41586 0.0
H639 H 0.15248 0.62729 0.47478 0.0
H640 H 0.18458 0.66317 0.43956 0.0
H641 H 0.12385 0.63499 0.36459 0.0
C642 C 0.05186 0.55618 0.44267 0.0
C643 C 0.04905 0.54483 0.47323 0.0
C644 C 0.07133 0.5562 0.49453 0.0
C645 C 0.09591 0.57857 0.48556 0.0
C646 C 0.09791 0.58919 0.45515 0.0
C647 C 0.07642 0.57822 0.43404 0.0
C648 C 0.08364 0.59279 0.40252 0.0
C649 C 0.08197 0.57586 0.37511 0.0
C650 C 0.06565 0.60363 0.39587 0.0
C651 C 0.11255 0.61394 0.4091 0.0
C652 C 0.1205 0.61163 0.43956 0.0
C653 C 0.14643 0.62913 0.45086 0.0
C654 C 0.16461 0.6494 0.43055 0.0
C655 C 0.1569 0.65206 0.39914 0.0
C656 C 0.13042 0.63391 0.38852 0.0
H657 H 0.50696 0.11396 1.00452 0.0
H658 H 0.46196 0.03988 0.95925 0.0
H659 H 0.45799 0.06039 0.91027 0.0
H660 H 0.46795 0.13906 0.96841 0.0
H661 H 0.49722 0.17108 0.96433 0.0
H662 H 0.49562 0.15033 0.99631 0.0
H663 H 0.54104 0.15705 0.97763 0.0
H664 H 0.54261 0.17755 0.94537 0.0
H665 H 0.54423 0.14988 0.93713 0.0
H666 H 0.46154 0.08919 0.86499 0.0
H667 H 0.46969 0.12402 0.82769 0.0
H668 H 0.50964 0.17898 0.9035 0.0
C669 C 0.49582 0.10194 0.98459 0.0
C670 C 0.48502 0.07528 0.98578 0.0
C671 C 0.47089 0.06038 0.95884 0.0
C672 C 0.46838 0.07183 0.9309 0.0
C673 C 0.47983 0.0982 0.9303 0.0
C674 C 0.49296 0.11305 0.95653 0.0
C675 C 0.50376 0.14105 0.9494 0.0
C676 C 0.49033 0.15096 0.97089 0.0
C677 C 0.53475 0.15733 0.95257 0.0
C678 C 0.49492 0.13961 0.91497 0.0
C679 C 0.4812 0.11474 0.9044 0.0
C680 C 0.4719 0.10872 0.87312 0.0
C681 C 0.47651 0.12867 0.85214 0.0
C682 C 0.49017 0.15435 0.86254 0.0
C683 C 0.49942 0.1597 0.8945 0.0
H684 H 0.40536 0.46129 0.44725 0.0
H685 H 0.46229 0.54174 0.46627 0.0
H686 H 0.43552 0.55319 0.43197 0.0
H687 H 0.39561 0.46962 0.36583 0.0
H688 H 0.36011 0.44513 0.36502 0.0
H689 H 0.38212 0.44279 0.39342 0.0
H690 H 0.35176 0.43972 0.43982 0.0
H691 H 0.32946 0.44176 0.41153 0.0
H692 H 0.34407 0.46419 0.44364 0.0
H693 H 0.40432 0.55624 0.39311 0.0
H694 H 0.37022 0.55067 0.35328 0.0
H695 H 0.33342 0.46827 0.3587 0.0
C696 C 0.41187 0.48128 0.44479 0.0
C697 C 0.43586 0.50061 0.45974 0.0
C698 C 0.44396 0.52657 0.45525 0.0
C699 C 0.42888 0.53328 0.43576 0.0
C700 C 0.40574 0.51384 0.42079 0.0
C701 C 0.39716 0.48835 0.42516 0.0
C702 C 0.37226 0.47131 0.40504 0.0
C703 C 0.37788 0.45633 0.3809 0.0
C704 C 0.34795 0.45318 0.42628 0.0
C705 C 0.3684 0.49124 0.38841 0.0
C706 C 0.38786 0.51562 0.39801 0.0
C707 C 0.38882 0.53722 0.38566 0.0
C708 C 0.36927 0.53383 0.36309 0.0
C709 C 0.34895 0.50903 0.35292 0.0
C710 C 0.34872 0.48749 0.36577 0.0
H711 H 0.90341 0.42947 0.95941 0.0
H712 H 0.92451 0.38949 0.0283 0.0
H713 H 0.90099 0.35066 0.99537 0.0
H714 H 0.8364 0.37508 0.94167 0.0
H715 H 0.83797 0.38368 0.90004 0.0
H716 H 0.85651 0.40822 0.92906 0.0
H717 H 0.90073 0.42436 0.89771 0.0
H718 H 0.88239 0.39978 0.86869 0.0
H719 H 0.91103 0.40231 0.88912 0.0
H720 H 0.87741 0.31715 0.95353 0.0
H721 H 0.85117 0.28954 0.90836 0.0
H722 H 0.84324 0.3505 0.86797 0.0
C723 C 0.90299 0.41249 0.9675 0.0
C724 C 0.91577 0.4124 0.99632 0.0
C725 C 0.91461 0.38981 1.00644 0.0
C726 C 0.90148 0.36778 0.9878 0.0
C727 C 0.88932 0.36858 0.95932 0.0
C728 C 0.88959 0.39022 0.94943 0.0
C729 C 0.87441 0.38584 0.91824 0.0
C730 C 0.84986 0.38835 0.92253 0.0
C731 C 0.89328 0.40416 0.89189 0.0
C732 C 0.86575 0.35841 0.91199 0.0
C733 C 0.87482 0.34893 0.93581 0.0
C734 C 0.87003 0.3243 0.93486 0.0
C735 C 0.85528 0.30883 0.90908 0.0
C736 C 0.84523 0.31794 0.88484 0.0
C737 C 0.85058 0.34306 0.88635 0.0
H738 H 0.95969 0.57061 0.95007 0.0
H739 H 0.94605 0.49574 0.93132 0.0
H740 H 0.91453 0.49001 0.88783 0.0
H741 H 0.8934 0.55509 0.93752 0.0
H742 H 0.90222 0.58476 0.91766 0.0
H743 H 0.92534 0.58404 0.94585 0.0
H744 H 0.96298 0.60312 0.90307 0.0
H745 H 0.94007 0.60423 0.87484 0.0
H746 H 0.9566 0.58757 0.86523 0.0
H747 H 0.88012 0.49009 0.85132 0.0
H748 H 0.84937 0.49776 0.81991 0.0
H749 H 0.88874 0.57468 0.85778 0.0
C750 C 0.95048 0.55323 0.9364 0.0
C751 C 0.95543 0.53365 0.94413 0.0
C752 C 0.94284 0.51113 0.92573 0.0
C753 C 0.92476 0.50763 0.90104 0.0
C754 C 0.91982 0.52702 0.89456 0.0
C755 C 0.93274 0.54962 0.91122 0.0
C756 C 0.92355 0.56726 0.89965 0.0
C757 C 0.91034 0.57312 0.92679 0.0
C758 C 0.94721 0.59201 0.88481 0.0
C759 C 0.9029 0.55075 0.87455 0.0
C760 C 0.90098 0.52758 0.87214 0.0
C761 C 0.88199 0.50847 0.85231 0.0
C762 C 0.86466 0.51319 0.83423 0.0
C763 C 0.86659 0.53711 0.83543 0.0
C764 C 0.88625 0.5561 0.85601 0.0
H765 H 0.44248 0.94578 0.47099 0.0
H766 H 0.44298 1.00603 0.41481 0.0
H767 H 0.4057 0.97365 0.38196 0.0
H768 H 0.43035 0.90482 0.40754 0.0
H769 H 0.40781 0.87531 0.42878 0.0
H770 H 0.43314 0.9029 0.45024 0.0
H771 H 0.39624 0.90049 0.48624 0.0
H772 H 0.37081 0.87264 0.4652 0.0
H773 H 0.36789 0.90014 0.46817 0.0
H774 H 0.37285 0.93587 0.35108 0.0
H775 H 0.34194 0.89413 0.32733 0.0
H776 H 0.35882 0.85693 0.40535 0.0
C777 C 0.43429 0.95211 0.45228 0.0
C778 C 0.44576 0.97852 0.4455 0.0
C779 C 0.43467 0.98598 0.42049 0.0
C780 C 0.41346 0.96772 0.40161 0.0
C781 C 0.40323 0.94196 0.40816 0.0
C782 C 0.41284 0.93402 0.43318 0.0
C783 C 0.3985 0.905 0.43424 0.0
C784 C 0.41866 0.89652 0.42994 0.0
C785 C 0.3824 0.89391 0.46531 0.0
C786 C 0.37981 0.89806 0.40555 0.0
C787 C 0.38307 0.91976 0.39087 0.0
C788 C 0.3695 0.91863 0.36285 0.0
C789 C 0.35172 0.89464 0.34965 0.0
C790 C 0.34709 0.8718 0.36469 0.0
C791 C 0.36161 0.87376 0.39305 0.0
H792 H 0.51754 0.44131 0.95784 0.0
H793 H 0.50318 0.39352 0.04225 0.0
H794 H 0.49993 0.36 0.00864 0.0
H795 H 0.47025 0.38857 0.90636 0.0
H796 H 0.49123 0.40243 0.87153 0.0
H797 H 0.49209 0.42286 0.90213 0.0
H798 H 0.54375 0.44406 0.9074 0.0
H799 H 0.54322 0.42365 0.87705 0.0
H800 H 0.55749 0.4244 0.91571 0.0
H801 H 0.50047 0.33233 0.96673 0.0
H802 H 0.50278 0.31143 0.91851 0.0
H803 H 0.51418 0.37538 0.86022 0.0
C804 C 0.51335 0.42375 0.96942 0.0
C805 C 0.5109 0.42048 1.00312 0.0
C806 C 0.50568 0.39702 0.01681 0.0
C807 C 0.50359 0.37765 0.99781 0.0
C808 C 0.5064 0.38167 0.96494 0.0
C809 C 0.51088 0.40399 0.95074 0.0
C810 C 0.5132 0.40334 0.91474 0.0
C811 C 0.49032 0.40436 0.89769 0.0
C812 C 0.54108 0.42515 0.90305 0.0
C813 C 0.50982 0.37736 0.91107 0.0
C814 C 0.50593 0.36525 0.94043 0.0
C815 C 0.50329 0.34152 0.94359 0.0
C816 C 0.50474 0.32985 0.91609 0.0
C817 C 0.50864 0.34176 0.88567 0.0
C818 C 0.51093 0.36575 0.88314 0.0
H819 H 0.05324 0.465 0.43661 0.0
H820 H 0.98684 0.42953 0.36897 0.0
H821 H 0.01819 0.43255 0.32755 0.0
H822 H 0.10377 0.5097 0.38207 0.0
H823 H 0.13037 0.50687 0.39971 0.0
H824 H 0.10262 0.50165 0.42385 0.0
H825 H 0.09252 0.4567 0.44069 0.0
H826 H 0.1203 0.46181 0.41672 0.0
H827 H 0.08692 0.43409 0.41042 0.0
H828 H 0.05742 0.44121 0.29319 0.0
H829 H 0.10074 0.45256 0.26916 0.0
H830 H 0.14073 0.4804 0.36064 0.0
C831 C 0.04531 0.45801 0.41304 0.0
C832 C 0.01766 0.44716 0.40587 0.0
C833 C 0.00794 0.43774 0.37493 0.0
C834 C 0.02561 0.43951 0.35128 0.0
C835 C 0.05283 0.45054 0.35912 0.0
C836 C 0.06257 0.45943 0.38934 0.0
C837 C 0.09257 0.47014 0.39186 0.0
C838 C 0.10825 0.49879 0.39984 0.0
C839 C 0.09841 0.45476 0.41637 0.0
C840 C 0.09828 0.46602 0.35825 0.0
C841 C 0.07516 0.45483 0.33967 0.0
C842 C 0.0756 0.44971 0.30761 0.0
C843 C 0.10031 0.45607 0.29425 0.0
C844 C 0.12425 0.46722 0.313 0.0
C845 C 0.123 0.47218 0.34545 0.0
H846 H 0.57237 0.05573 0.99044 0.0
H847 H 0.5214 0.99604 0.9236 0.0
H848 H 0.55419 0.02088 0.88052 0.0
H849 H 0.58953 0.10743 0.93751 0.0
H850 H 0.62362 0.12752 0.95212 0.0
H851 H 0.59762 0.10401 0.97823 0.0
H852 H 0.62605 0.08386 0.98999 0.0
H853 H 0.65228 0.10745 0.96413 0.0
H854 H 0.63774 0.07384 0.9573 0.0
H855 H 0.59206 0.05319 0.84437 0.0
H856 H 0.63105 0.0906 0.81782 0.0
H857 H 0.65605 0.12989 0.90806 0.0
C858 C 0.56834 0.04756 0.96691 0.0
C859 C 0.54447 0.0237 0.96049 0.0
C860 C 0.53965 0.01413 0.92913 0.0
C861 C 0.55816 0.02812 0.90453 0.0
C862 C 0.58126 0.05179 0.9116 0.0
C863 C 0.58635 0.06145 0.94204 0.0
C864 C 0.61173 0.08802 0.94305 0.0
C865 C 0.60522 0.10791 0.95333 0.0
C866 C 0.63322 0.0883 0.96491 0.0
C867 C 0.62016 0.09189 0.90839 0.0
C868 C 0.60246 0.07069 0.89068 0.0
C869 C 0.60607 0.06983 0.85806 0.0
C870 C 0.62833 0.09114 0.84321 0.0
C871 C 0.64662 0.11316 0.86085 0.0
C872 C 0.64233 0.11343 0.89388 0.0
H873 H 0.55424 0.57696 0.3682 0.0
H874 H 0.59208 0.60344 0.46069 0.0
H875 H 0.60568 0.64757 0.44541 0.0
H876 H 0.60418 0.6366 0.32166 0.0
H877 H 0.57781 0.63412 0.29617 0.0
H878 H 0.57509 0.60556 0.31247 0.0
H879 H 0.52851 0.59164 0.33634 0.0
H880 H 0.53129 0.62031 0.32071 0.0
H881 H 0.52592 0.61285 0.36278 0.0
H882 H 0.6084 0.68678 0.42378 0.0
H883 H 0.60343 0.71944 0.39558 0.0
H884 H 0.56613 0.66831 0.31559 0.0
C885 C 0.56634 0.59221 0.38471 0.0
C886 C 0.57219 0.58684 0.41562 0.0
C887 C 0.58734 0.6072 0.43696 0.0
C888 C 0.59521 0.63231 0.42845 0.0
C889 C 0.58806 0.63679 0.39834 0.0
C890 C 0.57438 0.61742 0.37654 0.0
C891 C 0.56721 0.62697 0.34679 0.0
C892 C 0.58196 0.62574 0.31754 0.0
C893 C 0.53641 0.61206 0.34137 0.0
C894 C 0.57802 0.65441 0.35584 0.0
C895 C 0.59014 0.65973 0.38555 0.0
C896 C 0.59964 0.6831 0.4001 0.0
C897 C 0.59678 0.7016 0.38379 0.0
C898 C 0.58459 0.69668 0.35314 0.0
C899 C 0.57539 0.67277 0.33902 0.0
H900 H 0.54915 0.12392 0.55973 0.0
H901 H 0.46615 0.06239 0.54328 0.0
H902 H 0.45071 0.081 0.58279 0.0
H903 H 0.54297 0.12804 0.6442 0.0
H904 H 0.56514 0.16241 0.64476 0.0
H905 H 0.56956 0.1443 0.61512 0.0
H906 H 0.56551 0.17166 0.57027 0.0
H907 H 0.56119 0.18991 0.59977 0.0
H908 H 0.53621 0.17421 0.56879 0.0
H909 H 0.44438 0.10707 0.62352 0.0
H910 H 0.44768 0.13775 0.66298 0.0
H911 H 0.53495 0.18204 0.65305 0.0
C912 C 0.5277 0.11446 0.56414 0.0
C913 C 0.50882 0.0917 0.54818 0.0
C914 C 0.48098 0.07971 0.55529 0.0
C915 C 0.47203 0.09021 0.57762 0.0
C916 C 0.49119 0.11265 0.59288 0.0
C917 C 0.51846 0.12457 0.58652 0.0
C918 C 0.53495 0.14833 0.60642 0.0
C919 C 0.55429 0.1456 0.62896 0.0
C920 C 0.55037 0.17245 0.58503 0.0
C921 C 0.51271 0.14807 0.62482 0.0
C922 C 0.4876 0.12736 0.61664 0.0
C923 C 0.46396 0.12333 0.63011 0.0
C924 C 0.46602 0.14093 0.65241 0.0
C925 C 0.49155 0.16232 0.66121 0.0
C926 C 0.51515 0.16574 0.64721 0.0
H927 H 0.46699 0.50649 0.1277 0.0
H928 H 0.44603 0.50579 0.02785 0.0
H929 H 0.40757 0.5095 0.04343 0.0
H930 H 0.40089 0.46933 0.15802 0.0
H931 H 0.4083 0.48749 0.1939 0.0
H932 H 0.43458 0.48587 0.17457 0.0
H933 H 0.46404 0.53547 0.17111 0.0
H934 H 0.43778 0.53727 0.19033 0.0
H935 H 0.45056 0.55282 0.15211 0.0
H936 H 0.3699 0.51047 0.0704 0.0
H937 H 0.33621 0.50934 0.1064 0.0
H938 H 0.38308 0.51081 0.18838 0.0
C939 C 0.45434 0.50711 0.10904 0.0
C940 C 0.45929 0.50563 0.07655 0.0
C941 C 0.4425 0.50684 0.05287 0.0
C942 C 0.4207 0.509 0.06151 0.0
C943 C 0.41635 0.51032 0.09384 0.0
C944 C 0.43284 0.5096 0.11719 0.0
C945 C 0.42373 0.51099 0.15024 0.0
C946 C 0.41644 0.48699 0.17035 0.0
C947 C 0.44531 0.5356 0.16692 0.0
C948 C 0.39894 0.51179 0.14196 0.0
C949 C 0.39512 0.51154 0.10929 0.0
C950 C 0.37283 0.51091 0.09597 0.0
C951 C 0.35378 0.51016 0.11658 0.0
C952 C 0.35716 0.51005 0.1501 0.0
C953 C 0.38026 0.51129 0.16285 0.0
H954 H 0.93784 0.44058 0.62482 0.0
H955 H 0.96721 0.40626 0.56122 0.0
H956 H 0.94098 0.36528 0.59103 0.0
H957 H 0.93734 0.40534 0.69796 0.0
H958 H 0.90701 0.40239 0.71272 0.0
H959 H 0.93003 0.42962 0.68816 0.0
H960 H 0.89086 0.4192 0.6491 0.0
H961 H 0.8678 0.39178 0.67327 0.0
H962 H 0.87172 0.38793 0.63164 0.0
H963 H 0.90747 0.32681 0.62366 0.0
H964 H 0.87217 0.29451 0.6592 0.0
H965 H 0.86649 0.35415 0.70434 0.0
C966 C 0.93925 0.42462 0.61754 0.0
C967 C 0.95472 0.42676 0.59062 0.0
C968 C 0.95572 0.40526 0.58181 0.0
C969 C 0.94079 0.38183 0.59857 0.0
C970 C 0.92517 0.38019 0.62437 0.0
C971 C 0.92462 0.40112 0.63417 0.0
C972 C 0.90545 0.39399 0.66202 0.0
C973 C 0.92088 0.40871 0.69199 0.0
C974 C 0.88261 0.39849 0.65348 0.0
C975 C 0.89476 0.36563 0.66582 0.0
C976 C 0.90643 0.35811 0.64387 0.0
C977 C 0.89868 0.33261 0.64146 0.0
C978 C 0.87863 0.31435 0.66208 0.0
C979 C 0.86652 0.32151 0.68529 0.0
C980 C 0.875 0.3477 0.68702 0.0
H981 H 0.52314 0.96738 0.16803 0.0
H982 H 0.59118 0.01133 0.10453 0.0
H983 H 0.60821 0.98334 0.11934 0.0
H984 H 0.55914 0.95257 0.23026 0.0
H985 H 0.53007 0.9208 0.23705 0.0
H986 H 0.52557 0.94644 0.22469 0.0
H987 H 0.49668 0.91958 0.17697 0.0
H988 H 0.50137 0.89398 0.18858 0.0
H989 H 0.51061 0.90792 0.14902 0.0
H990 H 0.61578 0.94865 0.13807 0.0
H991 H 0.61353 0.90989 0.15952 0.0
H992 H 0.53958 0.88791 0.20937 0.0
C993 C 0.54212 0.97165 0.15813 0.0
C994 C 0.55616 0.99174 0.13553 0.0
C995 C 0.58036 0.99613 0.12209 0.0
C996 C 0.59013 0.98037 0.13037 0.0
C997 C 0.57538 0.96026 0.15207 0.0
C998 C 0.55198 0.95595 0.16592 0.0
C999 C 0.53878 0.9319 0.18663 0.0
C1000 C 0.53838 0.93832 0.22174 0.0
C1001 C 0.51017 0.91217 0.17455 0.0
C1002 C 0.55804 0.923 0.18164 0.0
C1003 C 0.57923 0.9398 0.162 0.0
C1004 C 0.5994 0.93546 0.15366 0.0
C1005 C 0.59796 0.91343 0.16591 0.0
C1006 C 0.57633 0.89592 0.18593 0.0
C1007 C 0.55616 0.90083 0.19381 0.0
H1008 H 0.53754 0.49296 0.60191 0.0
H1009 H 0.56456 0.56854 0.56294 0.0
H1010 H 0.6066 0.58667 0.59481 0.0
H1011 H 0.56884 0.5133 0.6827 0.0
H1012 H 0.57791 0.48961 0.68415 0.0
H1013 H 0.54821 0.48339 0.66245 0.0
H1014 H 0.56641 0.47452 0.61202 0.0
H1015 H 0.59639 0.48105 0.6331 0.0
H1016 H 0.59925 0.49857 0.59683 0.0
H1017 H 0.64733 0.5959 0.62682 0.0
H1018 H 0.68405 0.59564 0.65624 0.0
H1019 H 0.6314 0.51372 0.6729 0.0
C1020 C 0.55185 0.51347 0.60103 0.0
C1021 C 0.54757 0.52948 0.58049 0.0
C1022 C 0.5673 0.55604 0.57891 0.0
C1023 C 0.59122 0.56649 0.59689 0.0
C1024 C 0.59522 0.55007 0.61616 0.0
C1025 C 0.57604 0.52413 0.61845 0.0
C1026 C 0.58641 0.51032 0.63846 0.0
C1027 C 0.56933 0.49846 0.66874 0.0
C1028 C 0.58718 0.48993 0.61892 0.0
C1029 C 0.61463 0.53243 0.64641 0.0
C1030 C 0.61914 0.55524 0.63374 0.0
C1031 C 0.64392 0.5782 0.63718 0.0
C1032 C 0.66465 0.57787 0.65402 0.0
C1033 C 0.66063 0.5547 0.66701 0.0
C1034 C 0.63518 0.53172 0.66314 0.0
H1035 H 0.05614 0.5955 0.08747 0.0
H1036 H 0.99508 0.54908 0.15836 0.0
H1037 H 0.0281 0.57252 0.20121 0.0
H1038 H 0.11202 0.59888 0.12989 0.0
H1039 H 0.13598 0.63148 0.11752 0.0
H1040 H 0.10747 0.61101 0.0924 0.0
H1041 H 0.09307 0.64416 0.09238 0.0
H1042 H 0.12159 0.66471 0.1174 0.0
H1043 H 0.08792 0.65466 0.12984 0.0
H1044 H 0.06838 0.60002 0.23647 0.0
H1045 H 0.11178 0.63239 0.26142 0.0
H1046 H 0.1462 0.66158 0.16769 0.0
C1047 C 0.04972 0.59029 0.112 0.0
C1048 C 0.02295 0.57049 0.11948 0.0
C1049 C 0.0153 0.5644 0.15194 0.0
C1050 C 0.03401 0.57745 0.17649 0.0
C1051 C 0.06029 0.59665 0.16825 0.0
C1052 C 0.06809 0.60323 0.13679 0.0
C1053 C 0.09745 0.62486 0.13436 0.0
C1054 C 0.11422 0.61603 0.11754 0.0
C1055 C 0.10015 0.6485 0.1175 0.0
C1056 C 0.10486 0.62965 0.16937 0.0
C1057 C 0.08326 0.61289 0.18854 0.0
C1058 C 0.08539 0.61331 0.22171 0.0
C1059 C 0.1101 0.63163 0.23566 0.0
C1060 C 0.1322 0.64945 0.21646 0.0
C1061 C 0.12952 0.64827 0.1829 0.0
loop_
_geom_bond_atom_site_label_1
_geom_bond_atom_site_label_2
_geom_bond_distance
_geom_bond_site_symmetry_2
_ccdc_geom_bond_type
Cu0 N1 1.999 1_454 S
Cu0 O6 1.974 1_454 S
Cu0 N11 1.985 . S
Cu0 O20 1.959 . S
N1 Cu0 1.999 1_656 S
N1 C3 1.263 . S
N1 C5 1.389 1_556 S
N2 C3 1.358 . S
N2 C4 1.400 . S
C3 N1 1.263 . S
C3 N2 1.358 . S
C3 H9 0.930 . S
C4 N2 1.400 . S
C4 C5 1.351 1_556 S
C4 H21 0.930 . S
C5 N1 1.389 1_554 S
C5 C4 1.351 1_554 S
C5 H10 0.930 . S
O6 Cu0 1.974 1_656 S
O6 C16 1.282 . S
C7 O8 1.261 1_554 S
C7 O20 1.251 . S
O8 C7 1.261 1_556 S
H9 C3 0.930 . S
H10 C5 0.930 . S
N11 Cu0 1.985 . S
N11 C13 1.335 . S
N11 C14 1.390 . S
N12 C13 1.345 . S
N12 C15 1.336 . S
C13 N11 1.335 . S
C13 N12 1.345 . S
C13 H18 0.930 . S
C14 N11 1.390 . S
C14 C15 1.346 . S
C14 H19 0.930 1_554 S
C15 N12 1.336 . S
C15 C14 1.346 . S
C15 H22 0.929 . S
C16 O6 1.282 . S
C16 O17 1.216 1_655 S
O17 C16 1.216 1_455 S
H18 C13 0.930 . S
H19 C14 0.930 1_556 S
O20 Cu0 1.959 . S
O20 C7 1.251 . S
H21 C4 0.930 . S
H22 C15 0.929 . S
Cu23 N24 1.999 . S
Cu23 O29 1.974 . S
Cu23 N34 1.985 1_565 S
Cu23 O43 1.959 1_565 S
N24 Cu23 1.999 . S
N24 C26 1.263 . S
N24 C28 1.389 . S
N25 C26 1.358 . S
N25 C27 1.400 . S
C26 N24 1.263 . S
C26 N25 1.358 . S
C26 H32 0.930 . S
C27 N25 1.400 . S
C27 C28 1.351 . S
C27 H44 0.930 . S
C28 N24 1.389 . S
C28 C27 1.351 . S
C28 H33 0.930 . S
O29 Cu23 1.974 . S
O29 C39 1.282 . S
C30 O31 1.261 . S
C30 O43 1.251 . S
O31 C30 1.261 . S
H32 C26 0.930 . S
H33 C28 0.930 . S
N34 Cu23 1.985 1_545 S
N34 C36 1.335 . S
N34 C37 1.390 . S
N35 C36 1.345 . S
N35 C38 1.336 . S
C36 N34 1.335 . S
C36 N35 1.345 . S
C36 H41 0.930 . S
C37 N34 1.390 . S
C37 C38 1.346 . S
C37 H42 0.930 . S
C38 N35 1.336 . S
C38 C37 1.346 . S
C38 H45 0.929 . S
C39 O29 1.282 . S
C39 O40 1.216 . S
O40 C39 1.216 . S
H41 C36 0.930 . S
H42 C37 0.930 . S
O43 Cu23 1.959 1_545 S
O43 C30 1.251 . S
H44 C27 0.930 . S
H45 C38 0.929 . S
Cu46 N47 1.999 1_554 S
Cu46 O52 1.974 1_554 S
Cu46 N57 1.985 . S
Cu46 O66 1.959 . S
N47 Cu46 1.999 1_556 S
N47 C49 1.263 . S
N47 C51 1.389 . S
N48 C49 1.358 . S
N48 C50 1.400 . S
C49 N47 1.263 . S
C49 N48 1.358 . S
C49 H55 0.930 . S
C50 N48 1.400 . S
C50 C51 1.351 . S
C50 H67 0.930 . S
C51 N47 1.389 . S
C51 C50 1.351 . S
C51 H56 0.930 . S
O52 Cu46 1.974 1_556 S
O52 C62 1.282 . S
C53 O54 1.261 . S
C53 O66 1.251 . S
O54 C53 1.261 . S
H55 C49 0.930 . S
H56 C51 0.930 . S
N57 Cu46 1.985 . S
N57 C59 1.335 . S
N57 C60 1.390 . S
N58 C59 1.345 . S
N58 C61 1.336 . S
C59 N57 1.335 . S
C59 N58 1.345 . S
C59 H64 0.930 . S
C60 N57 1.390 . S
C60 C61 1.346 . S
C60 H65 0.930 . S
C61 N58 1.336 . S
C61 C60 1.346 . S
C61 H68 0.929 . S
C62 O52 1.282 . S
C62 O63 1.216 1_556 S
O63 C62 1.216 1_554 S
H64 C59 0.930 . S
H65 C60 0.930 . S
O66 Cu46 1.959 . S
O66 C53 1.251 . S
H67 C50 0.930 . S
H68 C61 0.929 . S
Cu69 N70 1.999 1_655 S
Cu69 O75 1.974 1_655 S
Cu69 N80 1.985 . S
Cu69 O89 1.959 . S
N70 Cu69 1.999 1_455 S
N70 C72 1.263 . S
N70 C74 1.389 1_455 S
N71 C72 1.358 . S
N71 C73 1.400 . S
C72 N70 1.263 . S
C72 N71 1.358 . S
C72 H78 0.930 . S
C73 N71 1.400 . S
C73 C74 1.351 1_455 S
C73 H90 0.930 . S
C74 N70 1.389 1_655 S
C74 C73 1.351 1_655 S
C74 H79 0.930 . S
O75 Cu69 1.974 1_455 S
O75 C85 1.282 . S
C76 O77 1.255 1_655 S
C76 O89 1.251 . S
O77 C76 1.255 1_455 S
H78 C72 0.930 . S
H79 C74 0.930 . S
N80 Cu69 1.985 . S
N80 C82 1.335 . S
N80 C83 1.390 . S
N81 C82 1.345 . S
N81 C84 1.336 . S
C82 N80 1.335 . S
C82 N81 1.345 . S
C82 H87 0.930 . S
C83 N80 1.390 . S
C83 C84 1.346 . S
C83 H88 0.930 1_655 S
C84 N81 1.336 . S
C84 C83 1.346 . S
C84 H91 0.929 . S
C85 O75 1.282 . S
C85 O86 1.216 . S
O86 C85 1.216 . S
H87 C82 0.930 . S
H88 C83 0.930 1_455 S
O89 Cu69 1.959 . S
O89 C76 1.251 . S
H90 C73 0.930 . S
H91 C84 0.929 . S
Cu92 N93 1.999 . S
Cu92 O98 1.974 1_554 S
Cu92 N103 1.985 1_545 S
Cu92 O112 1.959 1_545 S
N93 Cu92 1.999 . S
N93 C95 1.263 1_554 S
N93 C97 1.389 . S
N94 C95 1.358 . S
N94 C96 1.400 1_556 S
C95 N93 1.263 1_556 S
C95 N94 1.358 . S
C95 H101 0.930 . S
C96 N94 1.400 1_554 S
C96 C97 1.351 . S
C96 H113 0.930 . S
C97 N93 1.389 . S
C97 C96 1.351 . S
C97 H102 0.930 . S
O98 Cu92 1.974 1_556 S
O98 C108 1.282 . S
C99 O100 1.261 . S
C99 O112 1.251 . S
O100 C99 1.261 . S
H101 C95 0.930 . S
H102 C97 0.930 . S
N103 Cu92 1.985 1_565 S
N103 C105 1.335 . S
N103 C106 1.390 . S
N104 C105 1.345 . S
N104 C107 1.336 . S
C105 N103 1.335 . S
C105 N104 1.345 . S
C105 H110 0.930 . S
C106 N103 1.390 . S
C106 C107 1.346 . S
C106 H111 0.924 1_565 S
C107 N104 1.336 . S
C107 C106 1.346 . S
C107 H114 0.929 . S
C108 O98 1.282 . S
C108 O109 1.216 . S
O109 C108 1.216 . S
H110 C105 0.930 . S
H111 C106 0.924 1_545 S
O112 Cu92 1.959 1_565 S
O112 C99 1.251 . S
H113 C96 0.930 . S
H114 C107 0.929 . S
Cu115 N116 1.999 . S
Cu115 O121 1.974 . S
Cu115 N126 1.985 . S
Cu115 O135 1.959 . S
N116 Cu115 1.999 . S
N116 C118 1.263 . S
N116 C120 1.389 . S
N117 C118 1.358 . S
N117 C119 1.400 . S
C118 N116 1.263 . S
C118 N117 1.358 . S
C118 H124 0.930 . S
C119 N117 1.400 . S
C119 C120 1.351 . S
C119 H136 0.930 . S
C120 N116 1.389 . S
C120 C119 1.351 . S
C120 H125 0.930 . S
O121 Cu115 1.974 . S
O121 C131 1.282 . S
C122 O123 1.261 . S
C122 O135 1.251 . S
O123 C122 1.261 . S
H124 C118 0.930 . S
H125 C120 0.930 . S
N126 Cu115 1.985 . S
N126 C128 1.335 . S
N126 C129 1.390 . S
N127 C128 1.345 . S
N127 C130 1.336 . S
C128 N126 1.335 . S
C128 N127 1.345 . S
C128 H133 0.930 . S
C129 N126 1.390 . S
C129 C130 1.346 . S
C129 H134 0.930 . S
C130 N127 1.336 . S
C130 C129 1.346 . S
C130 H137 0.929 . S
C131 O121 1.282 . S
C131 O132 1.216 . S
O132 C131 1.216 . S
H133 C128 0.930 . S
H134 C129 0.930 . S
O135 Cu115 1.959 . S
O135 C122 1.251 . S
H136 C119 0.930 . S
H137 C130 0.929 . S
C138 C139 1.384 . S
C138 C140 1.384 . S
C138 H166 0.931 . S
C139 C138 1.384 . S
C139 C142 1.382 . S
C140 C138 1.384 . S
C140 C141 1.381 . S
C140 H167 0.930 . S
C141 C140 1.381 . S
C141 C143 1.381 . S
C141 C144 1.487 . S
C142 C139 1.382 . S
C142 C143 1.387 . S
C142 H168 0.930 . S
C143 C141 1.381 . S
C143 C142 1.387 . S
C143 H169 0.931 . S
C144 C141 1.487 . S
C144 C151 1.399 . S
C144 N182 1.343 . S
C145 C146 1.384 . S
C145 C147 1.384 . S
C145 H170 0.931 . S
C146 C145 1.384 . S
C146 C149 1.382 . S
C147 C145 1.384 . S
C147 C148 1.381 . S
C147 H171 0.930 . S
C148 C147 1.381 . S
C148 C150 1.381 . S
C148 C151 1.487 . S
C149 C146 1.382 . S
C149 C150 1.387 . S
C149 H172 0.930 . S
C150 C148 1.381 . S
C150 C149 1.387 . S
C150 H173 0.931 . S
C151 C144 1.399 . S
C151 C148 1.487 . S
C151 N183 1.343 . S
C152 C153 1.384 . S
C152 C154 1.384 . S
C152 H174 0.931 . S
C153 C152 1.384 . S
C153 C156 1.382 . S
C154 C152 1.384 . S
C154 C155 1.381 . S
C154 H175 0.930 . S
C155 C154 1.381 . S
C155 C157 1.381 . S
C155 C158 1.487 . S
C156 C153 1.382 . S
C156 C157 1.387 . S
C156 H176 0.930 . S
C157 C155 1.381 . S
C157 C156 1.387 . S
C157 H177 0.931 . S
C158 C155 1.487 . S
C158 C165 1.399 . S
C158 N183 1.343 . S
C159 C160 1.384 . S
C159 C161 1.384 . S
C159 H178 0.931 . S
C160 C159 1.384 . S
C160 C163 1.382 . S
C161 C159 1.384 . S
C161 C162 1.381 . S
C161 H179 0.930 . S
C162 C161 1.381 . S
C162 C164 1.381 . S
C162 C165 1.487 . S
C163 C160 1.382 . S
C163 C164 1.387 . S
C163 H180 0.930 . S
C164 C162 1.381 . S
C164 C163 1.387 . S
C164 H181 0.931 . S
C165 C158 1.399 . S
C165 C162 1.487 . S
C165 N182 1.343 . S
H166 C138 0.931 . S
H167 C140 0.930 . S
H168 C142 0.930 . S
H169 C143 0.931 . S
H170 C145 0.931 . S
H171 C147 0.930 . S
H172 C149 0.930 . S
H173 C150 0.931 . S
H174 C152 0.931 . S
H175 C154 0.930 . S
H176 C156 0.930 . S
H177 C157 0.931 . S
H178 C159 0.931 . S
H179 C161 0.930 . S
H180 C163 0.930 . S
H181 C164 0.931 . S
N182 C144 1.343 . S
N182 C165 1.343 . S
N183 C151 1.343 . S
N183 C158 1.343 . S
C184 C185 1.384 . S
C184 C186 1.384 . S
C184 H212 0.931 . S
C185 C184 1.384 . S
C185 C188 1.382 . S
C186 C184 1.384 . S
C186 C187 1.381 . S
C186 H213 0.930 . S
C187 C186 1.381 . S
C187 C189 1.381 . S
C187 C190 1.487 . S
C188 C185 1.382 . S
C188 C189 1.387 . S
C188 H214 0.930 . S
C189 C187 1.381 . S
C189 C188 1.387 . S
C189 H215 0.931 . S
C190 C187 1.487 . S
C190 C197 1.399 . S
C190 N228 1.343 . S
C191 C192 1.384 . S
C191 C193 1.384 . S
C191 H216 0.931 . S
C192 C191 1.384 . S
C192 C195 1.382 . S
C193 C191 1.384 . S
C193 C194 1.381 . S
C193 H217 0.930 . S
C194 C193 1.381 . S
C194 C196 1.381 . S
C194 C197 1.487 . S
C195 C192 1.382 . S
C195 C196 1.387 . S
C195 H218 0.930 . S
C196 C194 1.381 . S
C196 C195 1.387 . S
C196 H219 0.931 . S
C197 C190 1.399 . S
C197 C194 1.487 . S
C197 N229 1.343 . S
C198 C199 1.384 . S
C198 C200 1.384 . S
C198 H220 0.931 . S
C199 C198 1.384 . S
C199 C202 1.382 . S
C200 C198 1.384 . S
C200 C201 1.381 . S
C200 H221 0.930 . S
C201 C200 1.381 . S
C201 C203 1.381 . S
C201 C204 1.487 . S
C202 C199 1.382 . S
C202 C203 1.387 . S
C202 H222 0.930 . S
C203 C201 1.381 . S
C203 C202 1.387 . S
C203 H223 0.931 . S
C204 C201 1.487 . S
C204 C211 1.399 . S
C204 N229 1.343 . S
C205 C206 1.384 . S
C205 C207 1.384 . S
C205 H224 0.931 . S
C206 C205 1.384 . S
C206 C209 1.382 . S
C207 C205 1.384 . S
C207 C208 1.381 . S
C207 H225 0.930 . S
C208 C207 1.381 . S
C208 C210 1.381 . S
C208 C211 1.487 . S
C209 C206 1.382 . S
C209 C210 1.387 . S
C209 H226 0.930 . S
C210 C208 1.381 . S
C210 C209 1.387 . S
C210 H227 0.931 . S
C211 C204 1.399 . S
C211 C208 1.487 . S
C211 N228 1.343 . S
H212 C184 0.931 . S
H213 C186 0.930 . S
H214 C188 0.930 . S
H215 C189 0.931 . S
H216 C191 0.931 . S
H217 C193 0.930 . S
H218 C195 0.930 . S
H219 C196 0.931 . S
H220 C198 0.931 . S
H221 C200 0.930 . S
H222 C202 0.930 . S
H223 C203 0.931 . S
H224 C205 0.931 . S
H225 C207 0.930 . S
H226 C209 0.930 . S
H227 C210 0.931 . S
N228 C190 1.343 . S
N228 C211 1.343 . S
N229 C197 1.343 . S
N229 C204 1.343 . S
C230 C231 1.384 . S
C230 C232 1.384 . S
C230 H258 0.931 . S
C231 C230 1.384 . S
C231 C234 1.382 . S
C232 C230 1.384 . S
C232 C233 1.381 . S
C232 H259 0.930 . S
C233 C232 1.381 . S
C233 C235 1.381 . S
C233 C236 1.487 . S
C234 C231 1.382 . S
C234 C235 1.387 . S
C234 H260 0.930 . S
C235 C233 1.381 . S
C235 C234 1.387 . S
C235 H261 0.931 . S
C236 C233 1.487 . S
C236 C243 1.399 . S
C236 N274 1.343 . S
C237 C238 1.384 . S
C237 C239 1.384 . S
C237 H262 0.931 . S
C238 C237 1.384 . S
C238 C241 1.382 . S
C239 C237 1.384 . S
C239 C240 1.381 . S
C239 H263 0.930 . S
C240 C239 1.381 . S
C240 C242 1.381 . S
C240 C243 1.487 . S
C241 C238 1.382 . S
C241 C242 1.387 . S
C241 H264 0.930 . S
C242 C240 1.381 . S
C242 C241 1.387 . S
C242 H265 0.931 . S
C243 C236 1.399 . S
C243 C240 1.487 . S
C243 N275 1.343 . S
C244 C245 1.384 . S
C244 C246 1.384 . S
C244 H266 0.931 . S
C245 C244 1.384 . S
C245 C248 1.382 . S
C246 C244 1.384 . S
C246 C247 1.381 . S
C246 H267 0.930 . S
C247 C246 1.381 . S
C247 C249 1.381 . S
C247 C250 1.487 . S
C248 C245 1.382 . S
C248 C249 1.387 . S
C248 H268 0.930 . S
C249 C247 1.381 . S
C249 C248 1.387 . S
C249 H269 0.931 . S
C250 C247 1.487 . S
C250 C257 1.399 . S
C250 N275 1.343 . S
C251 C252 1.384 . S
C251 C253 1.384 . S
C251 H270 0.931 . S
C252 C251 1.384 . S
C252 C255 1.382 . S
C253 C251 1.384 . S
C253 C254 1.381 . S
C253 H271 0.930 . S
C254 C253 1.381 . S
C254 C256 1.381 . S
C254 C257 1.487 . S
C255 C252 1.382 . S
C255 C256 1.387 . S
C255 H272 0.930 . S
C256 C254 1.381 . S
C256 C255 1.387 . S
C256 H273 0.931 . S
C257 C250 1.399 . S
C257 C254 1.487 . S
C257 N274 1.343 . S
H258 C230 0.931 . S
H259 C232 0.930 . S
H260 C234 0.930 . S
H261 C235 0.931 . S
H262 C237 0.931 . S
H263 C239 0.930 . S
H264 C241 0.930 . S
H265 C242 0.931 . S
H266 C244 0.931 . S
H267 C246 0.930 . S
H268 C248 0.930 . S
H269 C249 0.931 . S
H270 C251 0.931 . S
H271 C253 0.930 . S
H272 C255 0.930 . S
H273 C256 0.931 . S
N274 C236 1.343 . S
N274 C257 1.343 . S
N275 C243 1.343 . S
N275 C250 1.343 . S
C276 C277 1.384 . S
C276 C278 1.384 . S
C276 H304 0.931 . S
C277 C276 1.384 . S
C277 C280 1.382 . S
C278 C276 1.384 . S
C278 C279 1.381 . S
C278 H305 0.930 . S
C279 C278 1.381 . S
C279 C281 1.381 . S
C279 C282 1.487 . S
C280 C277 1.382 . S
C280 C281 1.387 . S
C280 H306 0.930 . S
C281 C279 1.381 . S
C281 C280 1.387 . S
C281 H307 0.931 . S
C282 C279 1.487 . S
C282 C289 1.399 . S
C282 N320 1.343 . S
C283 C284 1.384 . S
C283 C285 1.384 . S
C283 H308 0.931 . S
C284 C283 1.384 . S
C284 C287 1.382 . S
C285 C283 1.384 . S
C285 C286 1.381 . S
C285 H309 0.930 . S
C286 C285 1.381 . S
C286 C288 1.381 . S
C286 C289 1.487 . S
C287 C284 1.382 . S
C287 C288 1.387 . S
C287 H310 0.930 . S
C288 C286 1.381 . S
C288 C287 1.387 . S
C288 H311 0.931 . S
C289 C282 1.399 . S
C289 C286 1.487 . S
C289 N321 1.343 . S
C290 C291 1.384 . S
C290 C292 1.384 . S
C290 H312 0.931 . S
C291 C290 1.384 . S
C291 C294 1.382 . S
C292 C290 1.384 . S
C292 C293 1.381 . S
C292 H313 0.930 . S
C293 C292 1.381 . S
C293 C295 1.381 . S
C293 C296 1.487 . S
C294 C291 1.382 . S
C294 C295 1.387 . S
C294 H314 0.930 . S
C295 C293 1.381 . S
C295 C294 1.387 . S
C295 H315 0.931 . S
C296 C293 1.487 . S
C296 C303 1.399 . S
C296 N321 1.343 . S
C297 C298 1.384 . S
C297 C299 1.384 . S
C297 H316 0.931 . S
C298 C297 1.384 . S
C298 C301 1.382 . S
C299 C297 1.384 . S
C299 C300 1.381 . S
C299 H317 0.930 . S
C300 C299 1.381 . S
C300 C302 1.381 . S
C300 C303 1.487 . S
C301 C298 1.382 . S
C301 C302 1.387 . S
C301 H318 0.930 . S
C302 C300 1.381 . S
C302 C301 1.387 . S
C302 H319 0.931 . S
C303 C296 1.399 . S
C303 C300 1.487 . S
C303 N320 1.343 . S
H304 C276 0.931 . S
H305 C278 0.930 . S
H306 C280 0.930 . S
H307 C281 0.931 . S
H308 C283 0.931 . S
H309 C285 0.930 . S
H310 C287 0.930 . S
H311 C288 0.931 . S
H312 C290 0.931 . S
H313 C292 0.930 . S
H314 C294 0.930 . S
H315 C295 0.931 . S
H316 C297 0.931 . S
H317 C299 0.930 . S
H318 C301 0.930 . S
H319 C302 0.931 . S
N320 C282 1.343 . S
N320 C303 1.343 . S
N321 C289 1.343 . S
N321 C296 1.343 . S
C322 C323 1.384 . S
C322 C324 1.384 . S
C322 H350 0.931 . S
C323 C322 1.384 . S
C323 C326 1.382 . S
C324 C322 1.384 . S
C324 C325 1.381 . S
C324 H351 0.930 . S
C325 C324 1.381 . S
C325 C327 1.381 . S
C325 C328 1.487 . S
C326 C323 1.382 . S
C326 C327 1.387 . S
C326 H352 0.930 . S
C327 C325 1.381 . S
C327 C326 1.387 . S
C327 H353 0.931 . S
C328 C325 1.487 . S
C328 C335 1.399 . S
C328 N366 1.343 . S
C329 C330 1.384 . S
C329 C331 1.384 . S
C329 H354 0.931 . S
C330 C329 1.384 . S
C330 C333 1.382 . S
C331 C329 1.384 . S
C331 C332 1.381 . S
C331 H355 0.930 . S
C332 C331 1.381 . S
C332 C334 1.381 . S
C332 C335 1.487 . S
C333 C330 1.382 . S
C333 C334 1.387 . S
C333 H356 0.930 . S
C334 C332 1.381 . S
C334 C333 1.387 . S
C334 H357 0.931 . S
C335 C328 1.399 . S
C335 C332 1.487 . S
C335 N367 1.343 . S
C336 C337 1.384 . S
C336 C338 1.384 . S
C336 H358 0.931 . S
C337 C336 1.384 . S
C337 C340 1.382 . S
C338 C336 1.384 . S
C338 C339 1.381 . S
C338 H359 0.930 . S
C339 C338 1.381 . S
C339 C341 1.381 . S
C339 C342 1.487 . S
C340 C337 1.382 . S
C340 C341 1.387 . S
C340 H360 0.930 . S
C341 C339 1.381 . S
C341 C340 1.387 . S
C341 H361 0.931 . S
C342 C339 1.487 . S
C342 C349 1.399 . S
C342 N367 1.343 . S
C343 C344 1.384 . S
C343 C345 1.384 . S
C343 H362 0.931 . S
C344 C343 1.384 . S
C344 C347 1.382 . S
C345 C343 1.384 . S
C345 C346 1.381 . S
C345 H363 0.930 . S
C346 C345 1.381 . S
C346 C348 1.381 . S
C346 C349 1.487 . S
C347 C344 1.382 . S
C347 C348 1.387 . S
C347 H364 0.930 . S
C348 C346 1.381 . S
C348 C347 1.387 . S
C348 H365 0.931 . S
C349 C342 1.399 . S
C349 C346 1.487 . S
C349 N366 1.343 . S
H350 C322 0.931 . S
H351 C324 0.930 . S
H352 C326 0.930 . S
H353 C327 0.931 . S
H354 C329 0.931 . S
H355 C331 0.930 . S
H356 C333 0.930 . S
H357 C334 0.931 . S
H358 C336 0.931 . S
H359 C338 0.930 . S
H360 C340 0.930 . S
H361 C341 0.931 . S
H362 C343 0.931 . S
H363 C345 0.930 . S
H364 C347 0.930 . S
H365 C348 0.931 . S
N366 C328 1.343 . S
N366 C349 1.343 . S
N367 C335 1.343 . S
N367 C342 1.343 . S
C368 C369 1.384 . S
C368 C370 1.384 . S
C368 H396 0.931 . S
C369 C368 1.384 . S
C369 C372 1.382 . S
C370 C368 1.384 . S
C370 C371 1.381 . S
C370 H397 0.930 . S
C371 C370 1.381 . S
C371 C373 1.381 . S
C371 C374 1.487 . S
C372 C369 1.382 . S
C372 C373 1.387 . S
C372 H398 0.930 . S
C373 C371 1.381 . S
C373 C372 1.387 . S
C373 H399 0.931 . S
C374 C371 1.487 . S
C374 C381 1.399 . S
C374 N412 1.343 . S
C375 C376 1.384 . S
C375 C377 1.384 . S
C375 H400 0.931 . S
C376 C375 1.384 . S
C376 C379 1.382 . S
C377 C375 1.384 . S
C377 C378 1.381 . S
C377 H401 0.930 . S
C378 C377 1.381 . S
C378 C380 1.381 . S
C378 C381 1.487 . S
C379 C376 1.382 . S
C379 C380 1.387 . S
C379 H402 0.930 . S
C380 C378 1.381 . S
C380 C379 1.387 . S
C380 H403 0.931 . S
C381 C374 1.399 . S
C381 C378 1.487 . S
C381 N413 1.343 . S
C382 C383 1.384 . S
C382 C384 1.384 . S
C382 H404 0.931 . S
C383 C382 1.384 . S
C383 C386 1.382 . S
C384 C382 1.384 . S
C384 C385 1.381 . S
C384 H405 0.930 . S
C385 C384 1.381 . S
C385 C387 1.381 . S
C385 C388 1.487 . S
C386 C383 1.382 . S
C386 C387 1.387 . S
C386 H406 0.930 . S
C387 C385 1.381 . S
C387 C386 1.387 . S
C387 H407 0.931 . S
C388 C385 1.487 . S
C388 C395 1.399 . S
C388 N413 1.343 . S
C389 C390 1.384 . S
C389 C391 1.384 . S
C389 H408 0.931 . S
C390 C389 1.384 . S
C390 C393 1.382 . S
C391 C389 1.384 . S
C391 C392 1.381 . S
C391 H409 0.930 . S
C392 C391 1.381 . S
C392 C394 1.381 . S
C392 C395 1.487 . S
C393 C390 1.382 . S
C393 C394 1.387 . S
C393 H410 0.930 . S
C394 C392 1.381 . S
C394 C393 1.387 . S
C394 H411 0.931 . S
C395 C388 1.399 . S
C395 C392 1.487 . S
C395 N412 1.343 . S
H396 C368 0.931 . S
H397 C370 0.930 . S
H398 C372 0.930 . S
H399 C373 0.931 . S
H400 C375 0.931 . S
H401 C377 0.930 . S
H402 C379 0.930 . S
H403 C380 0.931 . S
H404 C382 0.931 . S
H405 C384 0.930 . S
H406 C386 0.930 . S
H407 C387 0.931 . S
H408 C389 0.931 . S
H409 C391 0.930 . S
H410 C393 0.930 . S
H411 C394 0.931 . S
N412 C374 1.343 . S
N412 C395 1.343 . S
N413 C381 1.343 . S
N413 C388 1.343 . S
H414 C426 0.930 . S
H415 C428 0.930 . S
H416 C429 0.930 . S
H417 C433 0.959 . S
H418 C433 0.959 . S
H419 C433 0.961 . S
H420 C434 0.960 . S
H421 C434 0.961 . S
H422 C434 0.959 . S
H423 C437 0.929 . S
H424 C438 0.931 . S
H425 C440 0.930 . S
C426 H414 0.930 . S
C426 C427 1.399 . S
C426 C431 1.399 . S
C427 C426 1.399 . S
C427 C428 1.376 . S
C428 H415 0.930 . S
C428 C427 1.376 . S
C428 C429 1.388 . S
C429 H416 0.930 . S
C429 C428 1.388 . S
C429 C430 1.390 . S
C430 C429 1.390 . S
C430 C431 1.394 . S
C430 C436 1.465 . S
C431 C426 1.399 . S
C431 C430 1.394 . S
C431 C432 1.516 . S
C432 C431 1.516 . S
C432 C433 1.502 . S
C432 C434 1.561 . S
C432 C435 1.526 . S
C433 H417 0.959 . S
C433 H418 0.959 . S
C433 H419 0.961 . S
C433 C432 1.502 . S
C434 H420 0.960 . S
C434 H421 0.961 . S
C434 H422 0.959 . S
C434 C432 1.561 . S
C435 C432 1.526 . S
C435 C436 1.396 . S
C435 C440 1.390 . S
C436 C430 1.465 . S
C436 C435 1.396 . S
C436 C437 1.399 . S
C437 H423 0.929 . S
C437 C436 1.399 . S
C437 C438 1.385 . S
C438 H424 0.931 . S
C438 C437 1.385 . S
C438 C439 1.389 . S
C439 C438 1.389 . S
C439 C440 1.387 . S
C440 H425 0.930 . S
C440 C435 1.390 . S
C440 C439 1.387 . S
H441 C453 0.930 . S
H442 C455 0.930 . S
H443 C456 0.930 . S
H444 C460 0.959 . S
H445 C460 0.959 . S
H446 C460 0.961 . S
H447 C461 0.960 . S
H448 C461 0.961 . S
H449 C461 0.959 . S
H450 C464 0.929 . S
H451 C465 0.931 . S
H452 C467 0.930 . S
C453 H441 0.930 . S
C453 C454 1.399 . S
C453 C458 1.399 . S
C454 C453 1.399 . S
C454 C455 1.376 . S
C455 H442 0.930 . S
C455 C454 1.376 . S
C455 C456 1.388 . S
C456 H443 0.930 . S
C456 C455 1.388 . S
C456 C457 1.390 . S
C457 C456 1.390 . S
C457 C458 1.394 . S
C457 C463 1.465 . S
C458 C453 1.399 . S
C458 C457 1.394 . S
C458 C459 1.516 . S
C459 C458 1.516 . S
C459 C460 1.502 . S
C459 C461 1.561 . S
C459 C462 1.526 . S
C460 H444 0.959 . S
C460 H445 0.959 . S
C460 H446 0.961 . S
C460 C459 1.502 . S
C461 H447 0.960 . S
C461 H448 0.961 . S
C461 H449 0.959 . S
C461 C459 1.561 . S
C462 C459 1.526 . S
C462 C463 1.396 . S
C462 C467 1.390 . S
C463 C457 1.465 . S
C463 C462 1.396 . S
C463 C464 1.399 . S
C464 H450 0.929 . S
C464 C463 1.399 . S
C464 C465 1.385 . S
C465 H451 0.931 . S
C465 C464 1.385 . S
C465 C466 1.389 . S
C466 C465 1.389 . S
C466 C467 1.387 . S
C467 H452 0.930 . S
C467 C462 1.390 . S
C467 C466 1.387 . S
H468 C480 0.930 . S
H469 C482 0.930 . S
H470 C483 0.930 . S
H471 C487 0.959 . S
H472 C487 0.959 . S
H473 C487 0.961 . S
H474 C488 0.960 . S
H475 C488 0.961 . S
H476 C488 0.959 . S
H477 C491 0.929 . S
H478 C492 0.931 . S
H479 C494 0.930 . S
C480 H468 0.930 . S
C480 C481 1.399 . S
C480 C485 1.399 . S
C481 C480 1.399 . S
C481 C482 1.376 . S
C482 H469 0.930 . S
C482 C481 1.376 . S
C482 C483 1.388 . S
C483 H470 0.930 . S
C483 C482 1.388 . S
C483 C484 1.390 . S
C484 C483 1.390 . S
C484 C485 1.394 . S
C484 C490 1.465 . S
C485 C480 1.399 . S
C485 C484 1.394 . S
C485 C486 1.516 . S
C486 C485 1.516 . S
C486 C487 1.502 . S
C486 C488 1.561 . S
C486 C489 1.526 . S
C487 H471 0.959 . S
C487 H472 0.959 . S
C487 H473 0.961 . S
C487 C486 1.502 . S
C488 H474 0.960 . S
C488 H475 0.961 . S
C488 H476 0.959 . S
C488 C486 1.561 . S
C489 C486 1.526 . S
C489 C490 1.396 . S
C489 C494 1.390 . S
C490 C484 1.465 . S
C490 C489 1.396 . S
C490 C491 1.399 . S
C491 H477 0.929 . S
C491 C490 1.399 . S
C491 C492 1.385 . S
C492 H478 0.931 . S
C492 C491 1.385 . S
C492 C493 1.389 . S
C493 C492 1.389 . S
C493 C494 1.387 . S
C494 H479 0.930 . S
C494 C489 1.390 . S
C494 C493 1.387 . S
H495 C507 0.930 . S
H496 C509 0.930 . S
H497 C510 0.930 . S
H498 C514 0.959 . S
H499 C514 0.959 . S
H500 C514 0.961 . S
H501 C515 0.960 . S
H502 C515 0.961 . S
H503 C515 0.959 . S
H504 C518 0.929 . S
H505 C519 0.931 . S
H506 C521 0.930 . S
C507 H495 0.930 . S
C507 C508 1.399 . S
C507 C512 1.399 . S
C508 C507 1.399 . S
C508 C509 1.376 . S
C509 H496 0.930 . S
C509 C508 1.376 . S
C509 C510 1.388 . S
C510 H497 0.930 . S
C510 C509 1.388 . S
C510 C511 1.390 . S
C511 C510 1.390 . S
C511 C512 1.394 . S
C511 C517 1.465 . S
C512 C507 1.399 . S
C512 C511 1.394 . S
C512 C513 1.516 . S
C513 C512 1.516 . S
C513 C514 1.502 . S
C513 C515 1.561 . S
C513 C516 1.526 . S
C514 H498 0.959 . S
C514 H499 0.959 . S
C514 H500 0.961 . S
C514 C513 1.502 . S
C515 H501 0.960 . S
C515 H502 0.961 . S
C515 H503 0.959 . S
C515 C513 1.561 . S
C516 C513 1.526 . S
C516 C517 1.396 . S
C516 C521 1.390 . S
C517 C511 1.465 . S
C517 C516 1.396 . S
C517 C518 1.399 . S
C518 H504 0.929 . S
C518 C517 1.399 . S
C518 C519 1.385 . S
C519 H505 0.931 . S
C519 C518 1.385 . S
C519 C520 1.389 . S
C520 C519 1.389 . S
C520 C521 1.387 . S
C521 H506 0.930 . S
C521 C516 1.390 . S
C521 C520 1.387 . S
H522 C534 0.930 . S
H523 C536 0.930 . S
H524 C537 0.930 . S
H525 C541 0.959 . S
H526 C541 0.959 . S
H527 C541 0.961 . S
H528 C542 0.960 . S
H529 C542 0.961 . S
H530 C542 0.959 . S
H531 C545 0.929 . S
H532 C546 0.931 . S
H533 C548 0.930 . S
C534 H522 0.930 . S
C534 C535 1.399 . S
C534 C539 1.399 . S
C535 C534 1.399 . S
C535 C536 1.376 . S
C536 H523 0.930 . S
C536 C535 1.376 . S
C536 C537 1.388 . S
C537 H524 0.930 . S
C537 C536 1.388 . S
C537 C538 1.390 . S
C538 C537 1.390 . S
C538 C539 1.394 . S
C538 C544 1.465 . S
C539 C534 1.399 . S
C539 C538 1.394 . S
C539 C540 1.516 . S
C540 C539 1.516 . S
C540 C541 1.502 . S
C540 C542 1.561 . S
C540 C543 1.526 . S
C541 H525 0.959 . S
C541 H526 0.959 . S
C541 H527 0.961 . S
C541 C540 1.502 . S
C542 H528 0.960 . S
C542 H529 0.961 . S
C542 H530 0.959 . S
C542 C540 1.561 . S
C543 C540 1.526 . S
C543 C544 1.396 . S
C543 C548 1.390 . S
C544 C538 1.465 . S
C544 C543 1.396 . S
C544 C545 1.399 . S
C545 H531 0.929 . S
C545 C544 1.399 . S
C545 C546 1.385 . S
C546 H532 0.931 . S
C546 C545 1.385 . S
C546 C547 1.389 . S
C547 C546 1.389 . S
C547 C548 1.387 . S
C548 H533 0.930 . S
C548 C543 1.390 . S
C548 C547 1.387 . S
H549 C561 0.930 . S
H550 C563 0.930 . S
H551 C564 0.930 . S
H552 C568 0.959 . S
H553 C568 0.959 . S
H554 C568 0.961 . S
H555 C569 0.960 . S
H556 C569 0.961 . S
H557 C569 0.959 . S
H558 C572 0.929 . S
H559 C573 0.931 . S
H560 C575 0.930 . S
C561 H549 0.930 . S
C561 C562 1.399 . S
C561 C566 1.399 . S
C562 C561 1.399 . S
C562 C563 1.376 . S
C563 H550 0.930 . S
C563 C562 1.376 . S
C563 C564 1.388 . S
C564 H551 0.930 . S
C564 C563 1.388 . S
C564 C565 1.390 . S
C565 C564 1.390 . S
C565 C566 1.394 . S
C565 C571 1.465 . S
C566 C561 1.399 . S
C566 C565 1.394 . S
C566 C567 1.516 . S
C567 C566 1.516 . S
C567 C568 1.502 . S
C567 C569 1.561 . S
C567 C570 1.526 . S
C568 H552 0.959 . S
C568 H553 0.959 . S
C568 H554 0.961 . S
C568 C567 1.502 . S
C569 H555 0.960 . S
C569 H556 0.961 . S
C569 H557 0.959 . S
C569 C567 1.561 . S
C570 C567 1.526 . S
C570 C571 1.396 . S
C570 C575 1.390 . S
C571 C565 1.465 . S
C571 C570 1.396 . S
C571 C572 1.399 . S
C572 H558 0.929 . S
C572 C571 1.399 . S
C572 C573 1.385 . S
C573 H559 0.931 . S
C573 C572 1.385 . S
C573 C574 1.389 . S
C574 C573 1.389 . S
C574 C575 1.387 . S
C575 H560 0.930 . S
C575 C570 1.390 . S
C575 C574 1.387 . S
H576 C588 0.930 . S
H577 C590 0.930 . S
H578 C591 0.930 . S
H579 C595 0.959 . S
H580 C595 0.959 . S
H581 C595 0.961 . S
H582 C596 0.960 . S
H583 C596 0.961 . S
H584 C596 0.959 . S
H585 C599 0.929 . S
H586 C600 0.931 . S
H587 C602 0.930 . S
C588 H576 0.930 . S
C588 C589 1.399 . S
C588 C593 1.399 . S
C589 C588 1.399 . S
C589 C590 1.376 . S
C590 H577 0.930 . S
C590 C589 1.376 . S
C590 C591 1.388 . S
C591 H578 0.930 . S
C591 C590 1.388 . S
C591 C592 1.390 . S
C592 C591 1.390 . S
C592 C593 1.394 . S
C592 C598 1.465 . S
C593 C588 1.399 . S
C593 C592 1.394 . S
C593 C594 1.516 . S
C594 C593 1.516 . S
C594 C595 1.502 . S
C594 C596 1.561 . S
C594 C597 1.526 . S
C595 H579 0.959 . S
C595 H580 0.959 . S
C595 H581 0.961 . S
C595 C594 1.502 . S
C596 H582 0.960 . S
C596 H583 0.961 . S
C596 H584 0.959 . S
C596 C594 1.561 . S
C597 C594 1.526 . S
C597 C598 1.396 . S
C597 C602 1.390 . S
C598 C592 1.465 . S
C598 C597 1.396 . S
C598 C599 1.399 . S
C599 H585 0.929 . S
C599 C598 1.399 . S
C599 C600 1.385 . S
C600 H586 0.931 . S
C600 C599 1.385 . S
C600 C601 1.389 . S
C601 C600 1.389 . S
C601 C602 1.387 . S
C602 H587 0.930 . S
C602 C597 1.390 . S
C602 C601 1.387 . S
H603 C615 0.930 . S
H604 C617 0.930 . S
H605 C618 0.930 . S
H606 C622 0.959 . S
H607 C622 0.959 . S
H608 C622 0.961 . S
H609 C623 0.960 . S
H610 C623 0.961 . S
H611 C623 0.959 . S
H612 C626 0.929 . S
H613 C627 0.931 . S
H614 C629 0.930 . S
C615 H603 0.930 . S
C615 C616 1.399 . S
C615 C620 1.399 . S
C616 C615 1.399 . S
C616 C617 1.376 . S
C617 H604 0.930 . S
C617 C616 1.376 . S
C617 C618 1.388 . S
C618 H605 0.930 . S
C618 C617 1.388 . S
C618 C619 1.390 . S
C619 C618 1.390 . S
C619 C620 1.394 . S
C619 C625 1.465 . S
C620 C615 1.399 . S
C620 C619 1.394 . S
C620 C621 1.516 . S
C621 C620 1.516 . S
C621 C622 1.502 . S
C621 C623 1.561 . S
C621 C624 1.526 . S
C622 H606 0.959 . S
C622 H607 0.959 . S
C622 H608 0.961 . S
C622 C621 1.502 . S
C623 H609 0.960 . S
C623 H610 0.961 . S
C623 H611 0.959 . S
C623 C621 1.561 . S
C624 C621 1.526 . S
C624 C625 1.396 . S
C624 C629 1.390 . S
C625 C619 1.465 . S
C625 C624 1.396 . S
C625 C626 1.399 . S
C626 H612 0.929 . S
C626 C625 1.399 . S
C626 C627 1.385 . S
C627 H613 0.931 . S
C627 C626 1.385 . S
C627 C628 1.389 . S
C628 C627 1.389 . S
C628 C629 1.387 . S
C629 H614 0.930 . S
C629 C624 1.390 . S
C629 C628 1.387 . S
H630 C642 0.930 . S
H631 C644 0.930 . S
H632 C645 0.930 . S
H633 C649 0.959 . S
H634 C649 0.959 . S
H635 C649 0.961 . S
H636 C650 0.960 . S
H637 C650 0.961 . S
H638 C650 0.959 . S
H639 C653 0.929 . S
H640 C654 0.931 . S
H641 C656 0.930 . S
C642 H630 0.930 . S
C642 C643 1.399 . S
C642 C647 1.399 . S
C643 C642 1.399 . S
C643 C644 1.376 . S
C644 H631 0.930 . S
C644 C643 1.376 . S
C644 C645 1.388 . S
C645 H632 0.930 . S
C645 C644 1.388 . S
C645 C646 1.390 . S
C646 C645 1.390 . S
C646 C647 1.394 . S
C646 C652 1.465 . S
C647 C642 1.399 . S
C647 C646 1.394 . S
C647 C648 1.516 . S
C648 C647 1.516 . S
C648 C649 1.502 . S
C648 C650 1.561 . S
C648 C651 1.526 . S
C649 H633 0.959 . S
C649 H634 0.959 . S
C649 H635 0.961 . S
C649 C648 1.502 . S
C650 H636 0.960 . S
C650 H637 0.961 . S
C650 H638 0.959 . S
C650 C648 1.561 . S
C651 C648 1.526 . S
C651 C652 1.396 . S
C651 C656 1.390 . S
C652 C646 1.465 . S
C652 C651 1.396 . S
C652 C653 1.399 . S
C653 H639 0.929 . S
C653 C652 1.399 . S
C653 C654 1.385 . S
C654 H640 0.931 . S
C654 C653 1.385 . S
C654 C655 1.389 . S
C655 C654 1.389 . S
C655 C656 1.387 . S
C656 H641 0.930 . S
C656 C651 1.390 . S
C656 C655 1.387 . S
H657 C669 0.930 . S
H658 C671 0.930 . S
H659 C672 0.930 . S
H660 C676 0.959 . S
H661 C676 0.959 . S
H662 C676 0.961 . S
H663 C677 0.960 . S
H664 C677 0.961 . S
H665 C677 0.959 . S
H666 C680 0.929 . S
H667 C681 0.931 . S
H668 C683 0.930 . S
C669 H657 0.930 . S
C669 C670 1.399 . S
C669 C674 1.399 . S
C670 C669 1.399 . S
C670 C671 1.376 . S
C671 H658 0.930 . S
C671 C670 1.376 . S
C671 C672 1.388 . S
C672 H659 0.930 . S
C672 C671 1.388 . S
C672 C673 1.390 . S
C673 C672 1.390 . S
C673 C674 1.394 . S
C673 C679 1.465 . S
C674 C669 1.399 . S
C674 C673 1.394 . S
C674 C675 1.516 . S
C675 C674 1.516 . S
C675 C676 1.502 . S
C675 C677 1.561 . S
C675 C678 1.526 . S
C676 H660 0.959 . S
C676 H661 0.959 . S
C676 H662 0.961 . S
C676 C675 1.502 . S
C677 H663 0.960 . S
C677 H664 0.961 . S
C677 H665 0.959 . S
C677 C675 1.561 . S
C678 C675 1.526 . S
C678 C679 1.396 . S
C678 C683 1.390 . S
C679 C673 1.465 . S
C679 C678 1.396 . S
C679 C680 1.399 . S
C680 H666 0.929 . S
C680 C679 1.399 . S
C680 C681 1.385 . S
C681 H667 0.931 . S
C681 C680 1.385 . S
C681 C682 1.389 . S
C682 C681 1.389 . S
C682 C683 1.387 . S
C683 H668 0.930 . S
C683 C678 1.390 . S
C683 C682 1.387 . S
H684 C696 0.930 . S
H685 C698 0.930 . S
H686 C699 0.930 . S
H687 C703 0.959 . S
H688 C703 0.959 . S
H689 C703 0.961 . S
H690 C704 0.960 . S
H691 C704 0.961 . S
H692 C704 0.959 . S
H693 C707 0.929 . S
H694 C708 0.931 . S
H695 C710 0.930 . S
C696 H684 0.930 . S
C696 C697 1.399 . S
C696 C701 1.399 . S
C697 C696 1.399 . S
C697 C698 1.376 . S
C698 H685 0.930 . S
C698 C697 1.376 . S
C698 C699 1.388 . S
C699 H686 0.930 . S
C699 C698 1.388 . S
C699 C700 1.390 . S
C700 C699 1.390 . S
C700 C701 1.394 . S
C700 C706 1.465 . S
C701 C696 1.399 . S
C701 C700 1.394 . S
C701 C702 1.516 . S
C702 C701 1.516 . S
C702 C703 1.502 . S
C702 C704 1.561 . S
C702 C705 1.526 . S
C703 H687 0.959 . S
C703 H688 0.959 . S
C703 H689 0.961 . S
C703 C702 1.502 . S
C704 H690 0.960 . S
C704 H691 0.961 . S
C704 H692 0.959 . S
C704 C702 1.561 . S
C705 C702 1.526 . S
C705 C706 1.396 . S
C705 C710 1.390 . S
C706 C700 1.465 . S
C706 C705 1.396 . S
C706 C707 1.399 . S
C707 H693 0.929 . S
C707 C706 1.399 . S
C707 C708 1.385 . S
C708 H694 0.931 . S
C708 C707 1.385 . S
C708 C709 1.389 . S
C709 C708 1.389 . S
C709 C710 1.387 . S
C710 H695 0.930 . S
C710 C705 1.390 . S
C710 C709 1.387 . S
H711 C723 0.930 . S
H712 C725 0.930 . S
H713 C726 0.930 . S
H714 C730 0.959 . S
H715 C730 0.959 . S
H716 C730 0.961 . S
H717 C731 0.960 . S
H718 C731 0.961 . S
H719 C731 0.959 . S
H720 C734 0.929 . S
H721 C735 0.931 . S
H722 C737 0.930 . S
C723 H711 0.930 . S
C723 C724 1.399 . S
C723 C728 1.399 . S
C724 C723 1.399 . S
C724 C725 1.376 . S
C725 H712 0.930 . S
C725 C724 1.376 . S
C725 C726 1.388 . S
C726 H713 0.930 . S
C726 C725 1.388 . S
C726 C727 1.390 . S
C727 C726 1.390 . S
C727 C728 1.394 . S
C727 C733 1.465 . S
C728 C723 1.399 . S
C728 C727 1.394 . S
C728 C729 1.516 . S
C729 C728 1.516 . S
C729 C730 1.502 . S
C729 C731 1.561 . S
C729 C732 1.526 . S
C730 H714 0.959 . S
C730 H715 0.959 . S
C730 H716 0.961 . S
C730 C729 1.502 . S
C731 H717 0.960 . S
C731 H718 0.961 . S
C731 H719 0.959 . S
C731 C729 1.561 . S
C732 C729 1.526 . S
C732 C733 1.396 . S
C732 C737 1.390 . S
C733 C727 1.465 . S
C733 C732 1.396 . S
C733 C734 1.399 . S
C734 H720 0.929 . S
C734 C733 1.399 . S
C734 C735 1.385 . S
C735 H721 0.931 . S
C735 C734 1.385 . S
C735 C736 1.389 . S
C736 C735 1.389 . S
C736 C737 1.387 . S
C737 H722 0.930 . S
C737 C732 1.390 . S
C737 C736 1.387 . S
H738 C750 0.930 . S
H739 C752 0.930 . S
H740 C753 0.930 . S
H741 C757 0.959 . S
H742 C757 0.959 . S
H743 C757 0.961 . S
H744 C758 0.960 . S
H745 C758 0.961 . S
H746 C758 0.959 . S
H747 C761 0.929 . S
H748 C762 0.931 . S
H749 C764 0.930 . S
C750 H738 0.930 . S
C750 C751 1.399 . S
C750 C755 1.399 . S
C751 C750 1.399 . S
C751 C752 1.376 . S
C752 H739 0.930 . S
C752 C751 1.376 . S
C752 C753 1.388 . S
C753 H740 0.930 . S
C753 C752 1.388 . S
C753 C754 1.390 . S
C754 C753 1.390 . S
C754 C755 1.394 . S
C754 C760 1.465 . S
C755 C750 1.399 . S
C755 C754 1.394 . S
C755 C756 1.516 . S
C756 C755 1.516 . S
C756 C757 1.502 . S
C756 C758 1.561 . S
C756 C759 1.526 . S
C757 H741 0.959 . S
C757 H742 0.959 . S
C757 H743 0.961 . S
C757 C756 1.502 . S
C758 H744 0.960 . S
C758 H745 0.961 . S
C758 H746 0.959 . S
C758 C756 1.561 . S
C759 C756 1.526 . S
C759 C760 1.396 . S
C759 C764 1.390 . S
C760 C754 1.465 . S
C760 C759 1.396 . S
C760 C761 1.399 . S
C761 H747 0.929 . S
C761 C760 1.399 . S
C761 C762 1.385 . S
C762 H748 0.931 . S
C762 C761 1.385 . S
C762 C763 1.389 . S
C763 C762 1.389 . S
C763 C764 1.387 . S
C764 H749 0.930 . S
C764 C759 1.390 . S
C764 C763 1.387 . S
H765 C777 0.930 . S
H766 C779 0.930 . S
H767 C780 0.930 . S
H768 C784 0.959 . S
H769 C784 0.959 . S
H770 C784 0.961 . S
H771 C785 0.960 . S
H772 C785 0.961 . S
H773 C785 0.959 . S
H774 C788 0.929 . S
H775 C789 0.931 . S
H776 C791 0.930 . S
C777 H765 0.930 . S
C777 C778 1.399 . S
C777 C782 1.399 . S
C778 C777 1.399 . S
C778 C779 1.376 . S
C779 H766 0.930 . S
C779 C778 1.376 . S
C779 C780 1.388 . S
C780 H767 0.930 . S
C780 C779 1.388 . S
C780 C781 1.390 . S
C781 C780 1.390 . S
C781 C782 1.394 . S
C781 C787 1.465 . S
C782 C777 1.399 . S
C782 C781 1.394 . S
C782 C783 1.516 . S
C783 C782 1.516 . S
C783 C784 1.502 . S
C783 C785 1.561 . S
C783 C786 1.526 . S
C784 H768 0.959 . S
C784 H769 0.959 . S
C784 H770 0.961 . S
C784 C783 1.502 . S
C785 H771 0.960 . S
C785 H772 0.961 . S
C785 H773 0.959 . S
C785 C783 1.561 . S
C786 C783 1.526 . S
C786 C787 1.396 . S
C786 C791 1.390 . S
C787 C781 1.465 . S
C787 C786 1.396 . S
C787 C788 1.399 . S
C788 H774 0.929 . S
C788 C787 1.399 . S
C788 C789 1.385 . S
C789 H775 0.931 . S
C789 C788 1.385 . S
C789 C790 1.389 . S
C790 C789 1.389 . S
C790 C791 1.387 . S
C791 H776 0.930 . S
C791 C786 1.390 . S
C791 C790 1.387 . S
H792 C804 0.930 . S
H793 C806 0.930 . S
H794 C807 0.930 . S
H795 C811 0.959 . S
H796 C811 0.959 . S
H797 C811 0.961 . S
H798 C812 0.960 . S
H799 C812 0.961 . S
H800 C812 0.959 . S
H801 C815 0.929 . S
H802 C816 0.931 . S
H803 C818 0.930 . S
C804 H792 0.930 . S
C804 C805 1.399 . S
C804 C809 1.399 . S
C805 C804 1.399 . S
C805 C806 1.376 . S
C806 H793 0.930 . S
C806 C805 1.376 . S
C806 C807 1.388 . S
C807 H794 0.930 . S
C807 C806 1.388 . S
C807 C808 1.390 . S
C808 C807 1.390 . S
C808 C809 1.394 . S
C808 C814 1.465 . S
C809 C804 1.399 . S
C809 C808 1.394 . S
C809 C810 1.516 . S
C810 C809 1.516 . S
C810 C811 1.502 . S
C810 C812 1.561 . S
C810 C813 1.526 . S
C811 H795 0.959 . S
C811 H796 0.959 . S
C811 H797 0.961 . S
C811 C810 1.502 . S
C812 H798 0.960 . S
C812 H799 0.961 . S
C812 H800 0.959 . S
C812 C810 1.561 . S
C813 C810 1.526 . S
C813 C814 1.396 . S
C813 C818 1.390 . S
C814 C808 1.465 . S
C814 C813 1.396 . S
C814 C815 1.399 . S
C815 H801 0.929 . S
C815 C814 1.399 . S
C815 C816 1.385 . S
C816 H802 0.931 . S
C816 C815 1.385 . S
C816 C817 1.389 . S
C817 C816 1.389 . S
C817 C818 1.387 . S
C818 H803 0.930 . S
C818 C813 1.390 . S
C818 C817 1.387 . S
H819 C831 0.930 . S
H820 C833 0.930 . S
H821 C834 0.930 . S
H822 C838 0.959 . S
H823 C838 0.959 . S
H824 C838 0.961 . S
H825 C839 0.960 . S
H826 C839 0.961 . S
H827 C839 0.959 . S
H828 C842 0.929 . S
H829 C843 0.931 . S
H830 C845 0.930 . S
C831 H819 0.930 . S
C831 C832 1.399 . S
C831 C836 1.399 . S
C832 C831 1.399 . S
C832 C833 1.376 . S
C833 H820 0.930 . S
C833 C832 1.376 . S
C833 C834 1.388 . S
C834 H821 0.930 . S
C834 C833 1.388 . S
C834 C835 1.390 . S
C835 C834 1.390 . S
C835 C836 1.394 . S
C835 C841 1.465 . S
C836 C831 1.399 . S
C836 C835 1.394 . S
C836 C837 1.516 . S
C837 C836 1.516 . S
C837 C838 1.502 . S
C837 C839 1.561 . S
C837 C840 1.526 . S
C838 H822 0.959 . S
C838 H823 0.959 . S
C838 H824 0.961 . S
C838 C837 1.502 . S
C839 H825 0.960 . S
C839 H826 0.961 . S
C839 H827 0.959 . S
C839 C837 1.561 . S
C840 C837 1.526 . S
C840 C841 1.396 . S
C840 C845 1.390 . S
C841 C835 1.465 . S
C841 C840 1.396 . S
C841 C842 1.399 . S
C842 H828 0.929 . S
C842 C841 1.399 . S
C842 C843 1.385 . S
C843 H829 0.931 . S
C843 C842 1.385 . S
C843 C844 1.389 . S
C844 C843 1.389 . S
C844 C845 1.387 . S
C845 H830 0.930 . S
C845 C840 1.390 . S
C845 C844 1.387 . S
H846 C858 0.930 . S
H847 C860 0.930 . S
H848 C861 0.930 . S
H849 C865 0.959 . S
H850 C865 0.959 . S
H851 C865 0.961 . S
H852 C866 0.960 . S
H853 C866 0.961 . S
H854 C866 0.959 . S
H855 C869 0.929 . S
H856 C870 0.931 . S
H857 C872 0.930 . S
C858 H846 0.930 . S
C858 C859 1.399 . S
C858 C863 1.399 . S
C859 C858 1.399 . S
C859 C860 1.376 . S
C860 H847 0.930 . S
C860 C859 1.376 . S
C860 C861 1.388 . S
C861 H848 0.930 . S
C861 C860 1.388 . S
C861 C862 1.390 . S
C862 C861 1.390 . S
C862 C863 1.394 . S
C862 C868 1.465 . S
C863 C858 1.399 . S
C863 C862 1.394 . S
C863 C864 1.516 . S
C864 C863 1.516 . S
C864 C865 1.502 . S
C864 C866 1.561 . S
C864 C867 1.526 . S
C865 H849 0.959 . S
C865 H850 0.959 . S
C865 H851 0.961 . S
C865 C864 1.502 . S
C866 H852 0.960 . S
C866 H853 0.961 . S
C866 H854 0.959 . S
C866 C864 1.561 . S
C867 C864 1.526 . S
C867 C868 1.396 . S
C867 C872 1.390 . S
C868 C862 1.465 . S
C868 C867 1.396 . S
C868 C869 1.399 . S
C869 H855 0.929 . S
C869 C868 1.399 . S
C869 C870 1.385 . S
C870 H856 0.931 . S
C870 C869 1.385 . S
C870 C871 1.389 . S
C871 C870 1.389 . S
C871 C872 1.387 . S
C872 H857 0.930 . S
C872 C867 1.390 . S
C872 C871 1.387 . S
H873 C885 0.930 . S
H874 C887 0.930 . S
H875 C888 0.930 . S
H876 C892 0.959 . S
H877 C892 0.959 . S
H878 C892 0.961 . S
H879 C893 0.960 . S
H880 C893 0.961 . S
H881 C893 0.959 . S
H882 C896 0.929 . S
H883 C897 0.931 . S
H884 C899 0.930 . S
C885 H873 0.930 . S
C885 C886 1.399 . S
C885 C890 1.399 . S
C886 C885 1.399 . S
C886 C887 1.376 . S
C887 H874 0.930 . S
C887 C886 1.376 . S
C887 C888 1.388 . S
C888 H875 0.930 . S
C888 C887 1.388 . S
C888 C889 1.390 . S
C889 C888 1.390 . S
C889 C890 1.394 . S
C889 C895 1.465 . S
C890 C885 1.399 . S
C890 C889 1.394 . S
C890 C891 1.516 . S
C891 C890 1.516 . S
C891 C892 1.502 . S
C891 C893 1.561 . S
C891 C894 1.526 . S
C892 H876 0.959 . S
C892 H877 0.959 . S
C892 H878 0.961 . S
C892 C891 1.502 . S
C893 H879 0.960 . S
C893 H880 0.961 . S
C893 H881 0.959 . S
C893 C891 1.561 . S
C894 C891 1.526 . S
C894 C895 1.396 . S
C894 C899 1.390 . S
C895 C889 1.465 . S
C895 C894 1.396 . S
C895 C896 1.399 . S
C896 H882 0.929 . S
C896 C895 1.399 . S
C896 C897 1.385 . S
C897 H883 0.931 . S
C897 C896 1.385 . S
C897 C898 1.389 . S
C898 C897 1.389 . S
C898 C899 1.387 . S
C899 H884 0.930 . S
C899 C894 1.390 . S
C899 C898 1.387 . S
H900 C912 0.930 . S
H901 C914 0.930 . S
H902 C915 0.930 . S
H903 C919 0.959 . S
H904 C919 0.959 . S
H905 C919 0.961 . S
H906 C920 0.960 . S
H907 C920 0.961 . S
H908 C920 0.959 . S
H909 C923 0.929 . S
H910 C924 0.931 . S
H911 C926 0.930 . S
C912 H900 0.930 . S
C912 C913 1.399 . S
C912 C917 1.399 . S
C913 C912 1.399 . S
C913 C914 1.376 . S
C914 H901 0.930 . S
C914 C913 1.376 . S
C914 C915 1.388 . S
C915 H902 0.930 . S
C915 C914 1.388 . S
C915 C916 1.390 . S
C916 C915 1.390 . S
C916 C917 1.394 . S
C916 C922 1.465 . S
C917 C912 1.399 . S
C917 C916 1.394 . S
C917 C918 1.516 . S
C918 C917 1.516 . S
C918 C919 1.502 . S
C918 C920 1.561 . S
C918 C921 1.526 . S
C919 H903 0.959 . S
C919 H904 0.959 . S
C919 H905 0.961 . S
C919 C918 1.502 . S
C920 H906 0.960 . S
C920 H907 0.961 . S
C920 H908 0.959 . S
C920 C918 1.561 . S
C921 C918 1.526 . S
C921 C922 1.396 . S
C921 C926 1.390 . S
C922 C916 1.465 . S
C922 C921 1.396 . S
C922 C923 1.399 . S
C923 H909 0.929 . S
C923 C922 1.399 . S
C923 C924 1.385 . S
C924 H910 0.931 . S
C924 C923 1.385 . S
C924 C925 1.389 . S
C925 C924 1.389 . S
C925 C926 1.387 . S
C926 H911 0.930 . S
C926 C921 1.390 . S
C926 C925 1.387 . S
H927 C939 0.930 . S
H928 C941 0.930 . S
H929 C942 0.930 . S
H930 C946 0.959 . S
H931 C946 0.959 . S
H932 C946 0.961 . S
H933 C947 0.960 . S
H934 C947 0.961 . S
H935 C947 0.959 . S
H936 C950 0.929 . S
H937 C951 0.931 . S
H938 C953 0.930 . S
C939 H927 0.930 . S
C939 C940 1.399 . S
C939 C944 1.399 . S
C940 C939 1.399 . S
C940 C941 1.376 . S
C941 H928 0.930 . S
C941 C940 1.376 . S
C941 C942 1.388 . S
C942 H929 0.930 . S
C942 C941 1.388 . S
C942 C943 1.390 . S
C943 C942 1.390 . S
C943 C944 1.394 . S
C943 C949 1.465 . S
C944 C939 1.399 . S
C944 C943 1.394 . S
C944 C945 1.516 . S
C945 C944 1.516 . S
C945 C946 1.502 . S
C945 C947 1.561 . S
C945 C948 1.526 . S
C946 H930 0.959 . S
C946 H931 0.959 . S
C946 H932 0.961 . S
C946 C945 1.502 . S
C947 H933 0.960 . S
C947 H934 0.961 . S
C947 H935 0.959 . S
C947 C945 1.561 . S
C948 C945 1.526 . S
C948 C949 1.396 . S
C948 C953 1.390 . S
C949 C943 1.465 . S
C949 C948 1.396 . S
C949 C950 1.399 . S
C950 H936 0.929 . S
C950 C949 1.399 . S
C950 C951 1.385 . S
C951 H937 0.931 . S
C951 C950 1.385 . S
C951 C952 1.389 . S
C952 C951 1.389 . S
C952 C953 1.387 . S
C953 H938 0.930 . S
C953 C948 1.390 . S
C953 C952 1.387 . S
H954 C966 0.930 . S
H955 C968 0.930 . S
H956 C969 0.930 . S
H957 C973 0.959 . S
H958 C973 0.959 . S
H959 C973 0.961 . S
H960 C974 0.960 . S
H961 C974 0.961 . S
H962 C974 0.959 . S
H963 C977 0.929 . S
H964 C978 0.931 . S
H965 C980 0.930 . S
C966 H954 0.930 . S
C966 C967 1.399 . S
C966 C971 1.399 . S
C967 C966 1.399 . S
C967 C968 1.376 . S
C968 H955 0.930 . S
C968 C967 1.376 . S
C968 C969 1.388 . S
C969 H956 0.930 . S
C969 C968 1.388 . S
C969 C970 1.390 . S
C970 C969 1.390 . S
C970 C971 1.394 . S
C970 C976 1.465 . S
C971 C966 1.399 . S
C971 C970 1.394 . S
C971 C972 1.516 . S
C972 C971 1.516 . S
C972 C973 1.502 . S
C972 C974 1.561 . S
C972 C975 1.526 . S
C973 H957 0.959 . S
C973 H958 0.959 . S
C973 H959 0.961 . S
C973 C972 1.502 . S
C974 H960 0.960 . S
C974 H961 0.961 . S
C974 H962 0.959 . S
C974 C972 1.561 . S
C975 C972 1.526 . S
C975 C976 1.396 . S
C975 C980 1.390 . S
C976 C970 1.465 . S
C976 C975 1.396 . S
C976 C977 1.399 . S
C977 H963 0.929 . S
C977 C976 1.399 . S
C977 C978 1.385 . S
C978 H964 0.931 . S
C978 C977 1.385 . S
C978 C979 1.389 . S
C979 C978 1.389 . S
C979 C980 1.387 . S
C980 H965 0.930 . S
C980 C975 1.390 . S
C980 C979 1.387 . S
H981 C993 0.930 . S
H982 C995 0.930 . S
H983 C996 0.930 . S
H984 C1000 0.959 . S
H985 C1000 0.959 . S
H986 C1000 0.961 . S
H987 C1001 0.960 . S
H988 C1001 0.961 . S
H989 C1001 0.959 . S
H990 C1004 0.929 . S
H991 C1005 0.931 . S
H992 C1007 0.930 . S
C993 H981 0.930 . S
C993 C994 1.399 . S
C993 C998 1.399 . S
C994 C993 1.399 . S
C994 C995 1.376 . S
C995 H982 0.930 . S
C995 C994 1.376 . S
C995 C996 1.388 . S
C996 H983 0.930 . S
C996 C995 1.388 . S
C996 C997 1.390 . S
C997 C996 1.390 . S
C997 C998 1.394 . S
C997 C1003 1.465 . S
C998 C993 1.399 . S
C998 C997 1.394 . S
C998 C999 1.516 . S
C999 C998 1.516 . S
C999 C1000 1.502 . S
C999 C1001 1.561 . S
C999 C1002 1.526 . S
C1000 H984 0.959 . S
C1000 H985 0.959 . S
C1000 H986 0.961 . S
C1000 C999 1.502 . S
C1001 H987 0.960 . S
C1001 H988 0.961 . S
C1001 H989 0.959 . S
C1001 C999 1.561 . S
C1002 C999 1.526 . S
C1002 C1003 1.396 . S
C1002 C1007 1.390 . S
C1003 C997 1.465 . S
C1003 C1002 1.396 . S
C1003 C1004 1.399 . S
C1004 H990 0.929 . S
C1004 C1003 1.399 . S
C1004 C1005 1.385 . S
C1005 H991 0.931 . S
C1005 C1004 1.385 . S
C1005 C1006 1.389 . S
C1006 C1005 1.389 . S
C1006 C1007 1.387 . S
C1007 H992 0.930 . S
C1007 C1002 1.390 . S
C1007 C1006 1.387 . S
H1008 C1020 0.930 . S
H1009 C1022 0.930 . S
H1010 C1023 0.930 . S
H1011 C1027 0.959 . S
H1012 C1027 0.959 . S
H1013 C1027 0.961 . S
H1014 C1028 0.960 . S
H1015 C1028 0.961 . S
H1016 C1028 0.959 . S
H1017 C1031 0.929 . S
H1018 C1032 0.931 . S
H1019 C1034 0.930 . S
C1020 H1008 0.930 . S
C1020 C1021 1.399 . S
C1020 C1025 1.399 . S
C1021 C1020 1.399 . S
C1021 C1022 1.376 . S
C1022 H1009 0.930 . S
C1022 C1021 1.376 . S
C1022 C1023 1.388 . S
C1023 H1010 0.930 . S
C1023 C1022 1.388 . S
C1023 C1024 1.390 . S
C1024 C1023 1.390 . S
C1024 C1025 1.394 . S
C1024 C1030 1.465 . S
C1025 C1020 1.399 . S
C1025 C1024 1.394 . S
C1025 C1026 1.516 . S
C1026 C1025 1.516 . S
C1026 C1027 1.502 . S
C1026 C1028 1.561 . S
C1026 C1029 1.526 . S
C1027 H1011 0.959 . S
C1027 H1012 0.959 . S
C1027 H1013 0.961 . S
C1027 C1026 1.502 . S
C1028 H1014 0.960 . S
C1028 H1015 0.961 . S
C1028 H1016 0.959 . S
C1028 C1026 1.561 . S
C1029 C1026 1.526 . S
C1029 C1030 1.396 . S
C1029 C1034 1.390 . S
C1030 C1024 1.465 . S
C1030 C1029 1.396 . S
C1030 C1031 1.399 . S
C1031 H1017 0.929 . S
C1031 C1030 1.399 . S
C1031 C1032 1.385 . S
C1032 H1018 0.931 . S
C1032 C1031 1.385 . S
C1032 C1033 1.389 . S
C1033 C1032 1.389 . S
C1033 C1034 1.387 . S
C1034 H1019 0.930 . S
C1034 C1029 1.390 . S
C1034 C1033 1.387 . S
H1035 C1047 0.930 . S
H1036 C1049 0.930 . S
H1037 C1050 0.930 . S
H1038 C1054 0.959 . S
H1039 C1054 0.959 . S
H1040 C1054 0.961 . S
H1041 C1055 0.960 . S
H1042 C1055 0.961 . S
H1043 C1055 0.959 . S
H1044 C1058 0.929 . S
H1045 C1059 0.931 . S
H1046 C1061 0.930 . S
C1047 H1035 0.930 . S
C1047 C1048 1.399 . S
C1047 C1052 1.399 . S
C1048 C1047 1.399 . S
C1048 C1049 1.376 . S
C1049 H1036 0.930 . S
C1049 C1048 1.376 . S
C1049 C1050 1.388 . S
C1050 H1037 0.930 . S
C1050 C1049 1.388 . S
C1050 C1051 1.390 . S
C1051 C1050 1.390 . S
C1051 C1052 1.394 . S
C1051 C1057 1.465 . S
C1052 C1047 1.399 . S
C1052 C1051 1.394 . S
C1052 C1053 1.516 . S
C1053 C1052 1.516 . S
C1053 C1054 1.502 . S
C1053 C1055 1.561 . S
C1053 C1056 1.526 . S
C1054 H1038 0.959 . S
C1054 H1039 0.959 . S
C1054 H1040 0.961 . S
C1054 C1053 1.502 . S
C1055 H1041 0.960 . S
C1055 H1042 0.961 . S
C1055 H1043 0.959 . S
C1055 C1053 1.561 . S
C1056 C1053 1.526 . S
C1056 C1057 1.396 . S
C1056 C1061 1.390 . S
C1057 C1051 1.465 . S
C1057 C1056 1.396 . S
C1057 C1058 1.399 . S
C1058 H1044 0.929 . S
C1058 C1057 1.399 . S
C1058 C1059 1.385 . S
C1059 H1045 0.931 . S
C1059 C1058 1.385 . S
C1059 C1060 1.389 . S
C1060 C1059 1.389 . S
C1060 C1061 1.387 . S
C1061 H1046 0.930 . S
C1061 C1056 1.390 . S
C1061 C1060 1.387 . S
C427 C7 1.854 . S
C439 C160 1.872 . S
C454 C30 1.653 . S
C466 C199 1.611 . S
C493 C231 1.754 . S
C481 N58 1.666 . S
C520 C277 1.516 . S
C508 N81 1.419 . S
C547 C344 1.774 . S
C535 C99 1.776 . S
C574 C383 1.502 . S
C562 N127 1.537 . S
C589 N25 1.710 . S
C601 C245 1.760 . S
C616 C62 1.622 . S
C628 C291 1.641 . S
C655 C330 1.803 . S
C643 C85 1.792 . S
C682 C369 1.535 . S
C670 N94 1.541 . S
C697 C131 1.828 . S
C709 C146 1.762 . S
C736 C185 1.518 . S
C724 N2 1.452 . S
C763 C284 1.779 . S
C751 C16 1.820 . S
C778 C39 1.577 . S
C790 C337 1.584 . S
C817 C390 1.718 . S
C805 N48 1.711 . S
C832 N71 1.427 . S
C844 C153 1.473 . S
C859 C108 1.758 . S
C871 C206 1.756 . S
C886 N117 1.523 . S
C898 C238 1.517 . S
C913 N35 1.659 . S
C925 C376 1.752 . S
C952 C139 1.639 . S
C940 C53 1.625 . S
C967 C76 1.849 . S
C979 C192 1.833 . S
C994 N104 1.493 . S
C1006 C252 1.493 . S
C1021 C122 1.758 . S
C1033 C298 1.753 . S
C1048 N12 1.434 . S
C1060 C323 1.473 . S
