# Generated by pormake.
# Topology zzz, (3,6)-cn, num edge types: 1
# Building blocks:
#     Node 0, Type 0, BuildingBlock: KAKCAD_clean_linker_0, # of connection points: 3
#     Node 1, Type 0, BuildingBlock: KAKCAD_clean_linker_0, # of connection points: 3
#     Node 2, Type 0, BuildingBlock: KAKCAD_clean_linker_0, # of connection points: 3
#     Node 3, Type 0, BuildingBlock: KAKCAD_clean_linker_0, # of connection points: 3
#     Node 4, Type 0, BuildingBlock: KAKCAD_clean_linker_0, # of connection points: 3
#     Node 5, Type 0, BuildingBlock: KAKCAD_clean_linker_0, # of connection points: 3
#     Node 6, Type 0, BuildingBlock: KAKCAD_clean_linker_0, # of connection points: 3
#     Node 7, Type 0, BuildingBlock: KAKCAD_clean_linker_0, # of connection points: 3
#     Node 8, Type 1, BuildingBlock: BETFAJ_clean_sbu_0, # of connection points: 6
#     Node 9, Type 1, BuildingBlock: BETFAJ_clean_sbu_0, # of connection points: 6
#     Node 10, Type 1, BuildingBlock: BETFAJ_clean_sbu_0, # of connection points: 6
#     Node 11, Type 1, BuildingBlock: BETFAJ_clean_sbu_0, # of connection points: 6
#     Edge 12, Type (0, 1), BuildingBlock: AJUNOK_clean_linker_0, # of connection points: 2
#     Edge 13, Type (0, 1), BuildingBlock: AJUNOK_clean_linker_0, # of connection points: 2
#     Edge 14, Type (0, 1), BuildingBlock: AJUNOK_clean_linker_0, # of connection points: 2
#     Edge 15, Type (0, 1), BuildingBlock: AJUNOK_clean_linker_0, # of connection points: 2
#     Edge 16, Type (0, 1), BuildingBlock: AJUNOK_clean_linker_0, # of connection points: 2
#     Edge 17, Type (0, 1), BuildingBlock: AJUNOK_clean_linker_0, # of connection points: 2
#     Edge 18, Type (0, 1), BuildingBlock: AJUNOK_clean_linker_0, # of connection points: 2
#     Edge 19, Type (0, 1), BuildingBlock: AJUNOK_clean_linker_0, # of connection points: 2
#     Edge 20, Type (0, 1), BuildingBlock: AJUNOK_clean_linker_0, # of connection points: 2
#     Edge 21, Type (0, 1), BuildingBlock: AJUNOK_clean_linker_0, # of connection points: 2
#     Edge 22, Type (0, 1), BuildingBlock: AJUNOK_clean_linker_0, # of connection points: 2
#     Edge 23, Type (0, 1), BuildingBlock: AJUNOK_clean_linker_0, # of connection points: 2
#     Edge 24, Type (0, 1), BuildingBlock: AJUNOK_clean_linker_0, # of connection points: 2
#     Edge 25, Type (0, 1), BuildingBlock: AJUNOK_clean_linker_0, # of connection points: 2
#     Edge 26, Type (0, 1), BuildingBlock: AJUNOK_clean_linker_0, # of connection points: 2
#     Edge 27, Type (0, 1), BuildingBlock: AJUNOK_clean_linker_0, # of connection points: 2
#     Edge 28, Type (0, 1), BuildingBlock: AJUNOK_clean_linker_0, # of connection points: 2
#     Edge 29, Type (0, 1), BuildingBlock: AJUNOK_clean_linker_0, # of connection points: 2
#     Edge 30, Type (0, 1), BuildingBlock: AJUNOK_clean_linker_0, # of connection points: 2
#     Edge 31, Type (0, 1), BuildingBlock: AJUNOK_clean_linker_0, # of connection points: 2
#     Edge 32, Type (0, 1), BuildingBlock: AJUNOK_clean_linker_0, # of connection points: 2
#     Edge 33, Type (0, 1), BuildingBlock: AJUNOK_clean_linker_0, # of connection points: 2
#     Edge 34, Type (0, 1), BuildingBlock: AJUNOK_clean_linker_0, # of connection points: 2
#     Edge 35, Type (0, 1), BuildingBlock: AJUNOK_clean_linker_0, # of connection points: 2
# Relax obj value: 0.500
# Max RMSD: 0.265
# Mean RMSD: 0.255
data_MOF--net-zzz--node1-BETFAJ_clean_sbu_0--node2-KAKCAD_clean_linker_0--edge1-AJUNOK_clean_linker_0
_symmetry_space_group_name_H-M    P1
_symmetry_Int_Tables_number       1
_symmetry_cell_setting            triclinic
loop_
_symmetry_equiv_pos_as_xyz
'x, y, z'
_cell_length_a     45.897346
_cell_length_b     45.876255
_cell_length_c     14.278477
_cell_angle_alpha  89.740044
_cell_angle_beta   89.935392
_cell_angle_gamma 90.038576
loop_
_atom_site_label
_atom_site_type_symbol
_atom_site_fract_x
_atom_site_fract_y
_atom_site_fract_z
_atom_type_partial_charge
C0 C 0.78793 0.51665 0.12208 0.0
C1 C 0.81145 0.49777 0.13526 0.0
C2 C 0.76938 0.52227 0.19671 0.0
C3 C 0.77453 0.50885 0.2837 0.0
C4 C 0.79811 0.48996 0.29595 0.0
C5 C 0.81673 0.48485 0.22263 0.0
C6 C 0.75592 0.51468 0.36338 0.0
C7 C 0.72599 0.51444 0.35343 0.0
C8 C 0.70773 0.52066 0.42871 0.0
C9 C 0.72068 0.52435 0.52023 0.0
C10 C 0.75196 0.52259 0.53023 0.0
C11 C 0.76859 0.51947 0.44975 0.0
C12 C 0.7708 0.52436 0.61675 0.0
C13 C 0.7845 0.5511 0.63565 0.0
C14 C 0.78622 0.49902 0.64386 0.0
C15 C 0.8149 0.50034 0.68022 0.0
C16 C 0.83018 0.52712 0.68956 0.0
C17 C 0.67676 0.52619 0.39784 0.0
C18 C 0.67235 0.55105 0.34133 0.0
C19 C 0.65735 0.50267 0.38434 0.0
C20 C 0.63521 0.50375 0.31488 0.0
C21 C 0.63239 0.52789 0.25291 0.0
C22 C 0.65154 0.55152 0.26906 0.0
C23 C 0.81344 0.5525 0.66929 0.0
H24 H 0.78412 0.52704 0.05493 0.0
H25 H 0.7514 0.53727 0.18703 0.0
H26 H 0.80225 0.47918 0.36235 0.0
H27 H 0.83543 0.47086 0.23431 0.0
H28 H 0.71674 0.51045 0.28462 0.0
H29 H 0.79222 0.52023 0.45473 0.0
H30 H 0.7071 0.52873 0.5805 0.0
H31 H 0.77422 0.57113 0.61257 0.0
H32 H 0.77727 0.47779 0.62738 0.0
H33 H 0.82525 0.47982 0.69649 0.0
H34 H 0.68781 0.56889 0.34465 0.0
H35 H 0.66069 0.48251 0.4226 0.0
H36 H 0.8227 0.57398 0.67066 0.0
H37 H 0.65254 0.56986 0.22171 0.0
H38 H 0.62124 0.48491 0.3073 0.0
C39 C 1.01518 0.7877 0.12047 0.0
C40 C 0.02923 0.81358 0.14469 0.0
C41 C 1.00356 0.77008 0.19097 0.0
C42 C 1.00664 0.77818 0.28552 0.0
C43 C 1.01897 0.80541 0.30727 0.0
C44 C 0.02942 0.82317 0.23737 0.0
C45 C 1.00228 0.75705 0.36208 0.0
C46 C 1.00967 0.72794 0.34947 0.0
C47 C 1.01454 0.70943 0.42568 0.0
C48 C 1.01623 0.72221 0.51761 0.0
C49 C 1.00808 0.7523 0.52969 0.0
C50 C 0.99752 0.76737 0.45208 0.0
C51 C 1.01343 0.7722 0.61208 0.0
C52 C 0.98944 0.78722 0.6502 0.0
C53 C 0.04057 0.78625 0.6187 0.0
C54 C 0.04313 0.81511 0.65259 0.0
C55 C 1.01845 0.83205 0.67966 0.0
C56 C 1.0174 0.67785 0.39795 0.0
C57 C 0.99247 0.6646 0.35837 0.0
C58 C 0.04477 0.66648 0.37147 0.0
C59 C 0.04707 0.64432 0.30288 0.0
C60 C 1.02209 0.63303 0.25822 0.0
C61 C 0.99477 0.64281 0.28951 0.0
C62 C 0.99179 0.81621 0.68247 0.0
H63 H 1.0143 0.78064 0.04825 0.0
H64 H 0.99352 0.74963 0.17165 0.0
H65 H 1.02277 0.81251 0.3784 0.0
H66 H 0.03945 0.84372 0.25649 0.0
H67 H 1.01266 0.71946 0.27938 0.0
H68 H 0.98969 0.78951 0.46073 0.0
H69 H 1.02321 0.70928 0.57703 0.0
H70 H 0.9679 0.77772 0.64467 0.0
H71 H 0.05967 0.776 0.58876 0.0
H72 H 0.0649 0.82347 0.65234 0.0
H73 H 0.97109 0.6735 0.373 0.0
H74 H 0.0645 0.67665 0.39703 0.0
H75 H 0.97171 0.82608 0.70485 0.0
H76 H 0.97511 0.63498 0.25605 0.0
H77 H 0.06849 0.63732 0.28054 0.0
C78 C 0.7495 1.01199 0.15154 0.0
C79 C 0.74008 0.04091 0.14597 0.0
C80 C 0.77105 1.00464 0.21512 0.0
C81 C 0.78272 0.02638 0.27182 0.0
C82 C 0.7754 0.05571 0.25943 0.0
C83 C 0.75396 0.06303 0.19599 0.0
C84 C 0.79764 1.01846 0.35611 0.0
C85 C 0.82749 1.01848 0.35646 0.0
C86 C 0.8429 1.01656 0.44001 0.0
C87 C 0.82678 1.01539 0.52711 0.0
C88 C 0.79527 1.01535 0.52504 0.0
C89 C 0.78166 1.01601 0.43793 0.0
C90 C 0.7738 1.01735 0.6054 0.0
C91 C 0.76098 0.99169 0.64209 0.0
C92 C 0.75712 0.0432 0.61195 0.0
C93 C 0.72806 0.0429 0.64446 0.0
C94 C 0.71466 1.01697 0.67521 0.0
C95 C 0.87525 1.01616 0.4232 0.0
C96 C 0.88682 0.99021 0.3857 0.0
C97 C 0.8888 0.04253 0.39525 0.0
C98 C 0.91073 0.0431 0.32538 0.0
C99 C 0.9196 1.0173 0.28035 0.0
C100 C 0.90822 0.9908 0.3148 0.0
C101 C 0.73206 0.99159 0.67773 0.0
H102 H 0.73816 0.99488 0.11421 0.0
H103 H 0.77664 0.98194 0.22613 0.0
H104 H 0.78422 0.07239 0.30495 0.0
H105 H 0.746 0.08527 0.19357 0.0
H106 H 0.8389 1.02075 0.28998 0.0
H107 H 0.75801 1.01663 0.43355 0.0
H108 H 0.83822 1.01493 0.59331 0.0
H109 H 0.77229 0.9711 0.63509 0.0
H110 H 0.7654 0.06318 0.58113 0.0
H111 H 0.71551 0.06286 0.64101 0.0
H112 H 0.87638 0.96958 0.40159 0.0
H113 H 0.87977 0.06308 0.41846 0.0
H114 H 0.72257 0.97112 0.70037 0.0
H115 H 0.9144 0.97046 0.28209 0.0
H116 H 0.91866 0.064 0.30058 0.0
C117 C 0.50396 0.73216 0.68961 0.0
C118 C 0.53019 0.71667 0.67718 0.0
C119 C 0.50099 0.76123 0.65826 0.0
C120 C 0.52393 0.77596 0.6116 0.0
C121 C 0.55096 0.7615 0.60741 0.0
C122 C 0.55415 0.73259 0.64079 0.0
C123 C 0.51586 0.79718 0.53485 0.0
C124 C 0.5248 0.8271 0.52286 0.0
C125 C 0.51588 0.843 0.44025 0.0
C126 C 0.49982 0.82844 0.37217 0.0
C127 C 0.49554 0.79886 0.37887 0.0
C128 C 0.50113 0.78391 0.46125 0.0
C129 C 0.4964 0.78235 0.2935 0.0
C130 C 0.47121 0.77789 0.24151 0.0
C131 C 0.52265 0.7686 0.26995 0.0
C132 C 0.52281 0.74758 0.20128 0.0
C133 C 0.49661 0.74007 0.15767 0.0
C134 C 0.52736 0.87161 0.40436 0.0
C135 C 0.50868 0.89601 0.40101 0.0
C136 C 0.54903 0.86993 0.3349 0.0
C137 C 0.55012 0.8899 0.26006 0.0
C138 C 0.5312 0.91422 0.25448 0.0
C139 C 0.51099 0.91727 0.32903 0.0
C140 C 0.47125 0.75651 0.1733 0.0
H141 H 0.48487 0.72116 0.71681 0.0
H142 H 0.47953 0.77102 0.66029 0.0
H143 H 0.56897 0.77149 0.57012 0.0
H144 H 0.57521 0.72227 0.63352 0.0
H145 H 0.53861 0.83738 0.57445 0.0
H146 H 0.49725 0.76052 0.46294 0.0
H147 H 0.49511 0.83907 0.30562 0.0
H148 H 0.45112 0.78898 0.25918 0.0
H149 H 0.54238 0.77252 0.30973 0.0
H150 H 0.5425 0.73505 0.18962 0.0
H151 H 0.49064 0.89729 0.44956 0.0
H152 H 0.56252 0.85059 0.33069 0.0
H153 H 0.45073 0.75074 0.14087 0.0
H154 H 0.49581 0.93529 0.32994 0.0
H155 H 0.56451 0.88429 0.20328 0.0
C156 C 0.26071 0.5572 0.36786 0.0
C157 C 0.23703 0.53843 0.38086 0.0
C158 C 0.28324 0.54878 0.30955 0.0
C159 C 0.2817 0.52182 0.26385 0.0
C160 C 0.25992 0.50173 0.28612 0.0
C161 C 0.23765 0.50996 0.34565 0.0
C162 C 0.29778 0.51856 0.17748 0.0
C163 C 0.32751 0.52223 0.17863 0.0
C164 C 0.34299 0.52788 0.09668 0.0
C165 C 0.3273 0.52884 1.00905 0.0
C166 C 0.29625 0.52365 1.0084 0.0
C167 C 0.28243 0.51843 0.09379 0.0
C168 C 0.27517 0.52524 0.92709 0.0
C169 C 0.25926 0.55126 0.91324 0.0
C170 C 0.26182 0.49915 0.89651 0.0
C171 C 0.23319 0.49887 0.85951 0.0
C172 C 0.21659 0.52463 0.85294 0.0
C173 C 0.37475 0.53356 0.11565 0.0
C174 C 0.38165 0.55824 0.17048 0.0
C175 C 0.39349 0.50939 0.12382 0.0
C176 C 0.41597 0.50865 0.19138 0.0
C177 C 0.42004 0.53169 0.25578 0.0
C178 C 0.40353 0.5572 0.23995 0.0
C179 C 0.2305 0.55093 0.87747 0.0
H180 H 0.26022 0.57939 0.39359 0.0
H181 H 0.29989 0.56463 0.29143 0.0
H182 H 0.25859 0.481 0.25025 0.0
H183 H 0.21933 0.49535 0.3557 0.0
H184 H 0.33852 0.52236 0.24605 0.0
H185 H 0.25885 0.51628 0.09595 0.0
H186 H 0.33869 0.53376 0.94448 0.0
H187 H 0.2679 0.57163 0.93935 0.0
H188 H 0.27244 0.47848 0.91007 0.0
H189 H 0.22325 0.47812 0.84271 0.0
H190 H 0.36735 0.57702 0.16884 0.0
H191 H 0.3888 0.48973 0.08493 0.0
H192 H 0.21849 0.57122 0.87375 0.0
H193 H 0.40574 0.5757 0.28622 0.0
H194 H 0.42912 0.48915 0.19609 0.0
C195 C 1.02172 0.26381 0.39413 0.0
C196 C 0.03181 0.23583 0.37025 0.0
C197 C 0.02829 0.28737 0.33637 0.0
C198 C 0.04706 0.28339 0.25994 0.0
C199 C 0.06328 0.25787 0.25328 0.0
C200 C 0.0544 0.23374 0.30314 0.0
C201 C 0.04229 0.30017 0.17433 0.0
C202 C 0.03753 0.32979 0.17827 0.0
C203 C 0.02687 0.34513 0.10109 0.0
C204 C 1.02259 0.32971 1.01389 0.0
C205 C 0.02899 0.29891 1.00928 0.0
C206 C 0.03782 0.2851 0.09113 0.0
C207 C 0.02669 0.2778 0.92789 0.0
C208 C 1.00047 0.26217 0.91475 0.0
C209 C 0.05264 0.26362 0.89899 0.0
C210 C 0.05265 0.23441 0.86734 0.0
C211 C 0.02664 0.21825 0.86107 0.0
C212 C 1.02022 0.37642 0.12481 0.0
C213 C 0.99562 0.38187 0.18194 0.0
C214 C 0.04394 0.39576 0.13414 0.0
C215 C 0.04434 0.41744 0.20416 0.0
C216 C 1.02114 0.42054 0.26858 0.0
C217 C 0.99607 0.40348 0.25245 0.0
C218 C 1.00045 0.23301 0.88167 0.0
H219 H 1.00723 0.26755 0.45233 0.0
H220 H 1.01632 0.30749 0.34573 0.0
H221 H 0.07892 0.25495 0.19707 0.0
H222 H 0.06368 0.21342 0.28016 0.0
H223 H 0.04093 0.3409 0.24445 0.0
H224 H 0.04019 0.26154 0.09047 0.0
H225 H 1.01458 0.34115 0.9527 0.0
H226 H 0.98017 0.27137 0.93941 0.0
H227 H 0.07347 0.27397 0.91183 0.0
H228 H 0.0733 0.22384 0.85348 0.0
H229 H 0.97733 0.36695 0.18008 0.0
H230 H 0.06368 0.39195 0.09438 0.0
H231 H 0.97998 0.22132 0.87827 0.0
H232 H 0.9776 0.40506 0.29943 0.0
H233 H 0.06374 0.43068 0.21122 0.0
C234 C 0.28448 1.00706 0.37411 0.0
C235 C 0.31062 1.02254 0.37936 0.0
C236 C 0.2621 1.01796 0.31934 0.0
C237 C 0.26618 0.04411 0.26915 0.0
C238 C 0.29068 0.06141 0.28538 0.0
C239 C 0.31291 0.05065 0.34098 0.0
C240 C 0.25013 0.04767 0.18223 0.0
C241 C 0.22037 0.0437 0.18389 0.0
C242 C 0.20556 0.03338 0.10574 0.0
C243 C 0.22161 0.0294 1.0196 0.0
C244 C 0.25219 0.03679 1.01591 0.0
C245 C 0.26555 0.04581 0.09855 0.0
C246 C 0.2735 0.03324 0.93553 0.0
C247 C 0.28884 1.00673 0.9264 0.0
C248 C 0.28729 0.05851 0.89921 0.0
C249 C 0.31581 0.05764 0.8614 0.0
C250 C 0.33186 0.03149 0.85925 0.0
C251 C 0.17479 0.02453 0.12943 0.0
C252 C 0.17124 0.99964 0.18697 0.0
C253 C 0.15367 0.04666 0.13863 0.0
C254 C 0.13164 0.04517 0.20789 0.0
C255 C 0.13002 1.02169 0.27236 0.0
C256 C 0.14974 0.99844 0.25782 0.0
C257 C 0.31749 1.0059 0.88937 0.0
H258 H 0.28262 0.9852 0.40264 0.0
H259 H 0.24342 1.00407 0.30648 0.0
H260 H 0.29406 0.08147 0.24645 0.0
H261 H 0.33315 0.06275 0.34525 0.0
H262 H 0.2092 0.04533 0.25089 0.0
H263 H 0.28906 0.04862 0.0997 0.0
H264 H 0.21085 1.02063 0.9585 0.0
H265 H 0.27984 0.98699 0.95666 0.0
H266 H 0.2771 0.07959 0.90873 0.0
H267 H 0.32612 0.07788 0.84024 0.0
H268 H 0.1877 0.98272 0.18593 0.0
H269 H 0.15607 0.06669 0.09887 0.0
H270 H 0.32908 0.98535 0.88904 0.0
H271 H 0.15055 0.98023 0.30599 0.0
H272 H 0.11685 0.06342 0.21412 0.0
C273 C 0.50477 0.3113 0.82079 0.0
C274 C 0.52646 0.33177 0.84594 0.0
C275 C 0.50494 0.28249 0.85663 0.0
C276 C 0.52732 0.27249 0.91628 0.0
C277 C 0.55068 0.2919 0.93235 0.0
C278 C 0.55015 0.32092 0.89879 0.0
C279 C 0.51981 0.25117 0.99346 0.0
C280 C 0.53056 0.22199 1.0072 0.0
C281 C 0.52745 0.20833 0.09769 0.0
C282 C 0.51811 0.22549 0.17241 0.0
C283 C 0.50972 0.25426 0.15844 0.0
C284 C 0.50546 0.2645 0.06778 0.0
C285 C 0.51634 0.2756 0.23166 0.0
C286 C 0.51229 0.26902 0.32701 0.0
C287 C 0.53202 0.30075 0.20574 0.0
C288 C 0.54366 0.31859 0.27289 0.0
C289 C 0.5407 0.31138 0.36755 0.0
C290 C 0.53473 0.17751 0.12567 0.0
C291 C 0.51163 0.15729 0.13059 0.0
C292 C 0.55872 0.1727 0.18592 0.0
C293 C 0.55832 0.15029 0.25425 0.0
C294 C 0.53388 0.13198 0.26469 0.0
C295 C 0.51115 0.13502 0.19915 0.0
C296 C 0.52457 0.28688 0.39497 0.0
H297 H 0.48683 0.31765 0.77621 0.0
H298 H 0.4861 0.2688 0.84446 0.0
H299 H 0.56778 0.28575 0.98078 0.0
H300 H 0.56748 0.3354 0.92047 0.0
H301 H 0.54124 0.2106 0.95056 0.0
H302 H 0.49709 0.28649 0.05855 0.0
H303 H 0.51981 0.21693 0.24315 0.0
H304 H 0.50043 0.24974 0.34887 0.0
H305 H 0.5367 0.30624 0.13346 0.0
H306 H 0.55535 0.33796 0.25046 0.0
H307 H 0.49228 0.16077 0.08865 0.0
H308 H 0.57631 0.18846 0.18768 0.0
H309 H 0.52185 0.28142 0.46833 0.0
H310 H 0.49186 0.12154 0.20553 0.0
H311 H 0.576 0.14899 0.30426 0.0
Sm312 Sm 0.04969 1.02344 0.81742 0.0
Sm313 Sm 0.99473 0.0282 0.72743 0.0
C314 C 0.08649 1.00443 0.94268 0.0
C315 C 0.08427 0.97487 0.9811 0.0
C316 C 0.0573 0.96502 1.01595 0.0
C317 C 0.05186 0.93542 0.02457 0.0
C318 C 0.0731 0.91517 0.9977 0.0
C319 C 0.10044 0.92481 0.96694 0.0
C320 C 0.10605 0.95455 0.95916 0.0
C321 C 0.06616 0.0288 0.6327 0.0
C322 C 1.01799 0.9618 0.74469 0.0
C323 C 0.95707 0.04483 0.60066 0.0
C324 C 0.96394 0.06973 0.54148 0.0
C325 C 0.99329 0.07764 0.53763 0.0
C326 C 1.00124 0.10521 0.51057 0.0
C327 C 0.98036 0.1252 0.4783 0.0
C328 C 0.95082 0.11675 0.47642 0.0
C329 C 0.94257 0.08937 0.51115 0.0
C330 C 0.978 1.0206 0.91079 0.0
C331 C 0.02763 0.0898 0.7997 0.0
O332 O 0.06552 1.02249 0.96455 0.0
O333 O 0.09278 1.00499 0.85364 0.0
O334 O 0.03954 0.02803 0.65895 0.0
O335 O 0.08368 0.03106 0.70292 0.0
O336 O 0.03966 0.97424 0.79025 0.0
O337 O 0.99679 0.97797 0.71041 0.0
O338 O 0.97382 1.022 0.58842 0.0
O339 O 0.95465 0.05214 0.68852 0.0
O340 O 1.00467 1.02189 0.8853 0.0
O341 O 0.96074 1.02004 0.83972 0.0
O342 O 1.0074 0.07777 0.7464 0.0
O343 O 0.04684 0.07307 0.84214 0.0
H344 H 0.03974 0.98002 0.03147 0.0
H345 H 0.03081 0.92833 0.05072 0.0
H346 H 0.11707 0.9094 0.94606 0.0
H347 H 0.12665 0.96165 0.92978 0.0
H348 H 1.01017 0.0633 0.56321 0.0
H349 H 0.02404 0.1108 0.51799 0.0
H350 H 0.93407 0.13108 0.44975 0.0
H351 H 0.9197 0.08394 0.51724 0.0
Sm352 Sm 0.52617 0.05149 0.80894 0.0
Sm353 Sm 0.51976 0.99728 0.71258 0.0
C354 C 0.54182 0.08886 0.93665 0.0
C355 C 0.5679 0.08552 0.99362 0.0
C356 C 0.57412 0.05812 0.03335 0.0
C357 C 0.6024 0.0512 0.05845 0.0
C358 C 0.62473 0.07149 0.04385 0.0
C359 C 0.61845 0.09937 1.00929 0.0
C360 C 0.59006 0.10639 0.98445 0.0
C361 C 0.52139 0.06962 0.62502 0.0
C362 C 0.58666 1.01775 0.73847 0.0
C363 C 0.50344 0.95938 0.587 0.0
C364 C 0.47703 0.96192 0.53098 0.0
C365 C 0.47021 0.98884 0.48931 0.0
C366 C 0.44205 0.99441 0.45988 0.0
C367 C 0.42034 0.97322 0.47166 0.0
C368 C 0.42715 0.94599 0.51009 0.0
C369 C 0.45545 0.94039 0.53989 0.0
C370 C 0.52588 0.97961 0.89692 0.0
C371 C 0.45933 0.03052 0.78551 0.0
O372 O 0.52081 0.07004 0.95137 0.0
O373 O 0.54782 0.09253 0.84805 0.0
O374 O 0.52109 0.04282 0.64926 0.0
O375 O 0.52034 0.08641 0.69697 0.0
O376 O 0.57512 0.03697 0.79644 0.0
O377 O 0.56959 1.00045 0.68966 0.0
O378 O 0.52414 0.97841 0.57023 0.0
O379 O 0.49798 0.95605 0.67603 0.0
O380 O 0.52598 1.00612 0.87054 0.0
O381 O 0.5259 0.96238 0.82606 0.0
O382 O 0.47078 1.01154 0.72667 0.0
O383 O 0.47647 0.04791 0.83348 0.0
H384 H 0.55767 0.04124 0.03873 0.0
H385 H 0.60705 0.02953 0.08514 0.0
H386 H 0.63557 0.11537 0.99933 0.0
H387 H 0.58578 0.12728 0.95153 0.0
H388 H 0.48606 1.00631 0.48482 0.0
H389 H 0.43693 1.01579 0.43163 0.0
H390 H 0.4105 0.92947 0.51926 0.0
H391 H 0.4601 0.91995 0.5751 0.0
Sm392 Sm 0.49601 0.52673 0.80589 0.0
Sm393 Sm 0.55289 0.52107 0.70636 0.0
C394 C 0.45917 0.54016 0.93783 0.0
C395 C 0.46261 0.56619 0.99412 0.0
C396 C 0.49101 0.57514 1.01693 0.0
C397 C 0.49629 0.6037 0.04191 0.0
C398 C 0.47331 0.62366 0.04436 0.0
C399 C 0.44473 0.61464 0.02588 0.0
C400 C 0.43941 0.58589 1.00046 0.0
C401 C 0.48172 0.5211 0.61895 0.0
C402 C 0.53016 0.58777 0.73657 0.0
C403 C 0.58842 0.50587 0.57324 0.0
C404 C 0.58667 0.47669 0.53281 0.0
C405 C 0.56001 0.46692 0.49577 0.0
C406 C 0.55476 0.43734 0.48609 0.0
C407 C 0.57581 0.41708 0.51473 0.0
C408 C 0.60303 0.42669 0.54621 0.0
C409 C 0.60846 0.45637 0.55496 0.0
C410 C 0.56822 0.52594 0.89327 0.0
C411 C 0.5205 0.45999 0.77752 0.0
O412 O 0.47888 0.51985 0.95002 0.0
O413 O 0.45431 0.5462 0.84985 0.0
O414 O 0.50687 0.52834 0.64938 0.0
O415 O 0.46309 0.5205 0.68717 0.0
O416 O 0.50961 0.57585 0.78996 0.0
O417 O 0.54948 0.57117 0.69343 0.0
O418 O 0.56628 0.52311 0.55687 0.0
O419 O 0.59642 0.50591 0.66097 0.0
O420 O 0.54221 0.52622 0.86167 0.0
O421 O 0.58668 0.52596 0.82484 0.0
O422 O 0.54191 0.47229 0.73011 0.0
O423 O 0.49963 0.4761 0.81479 0.0
H424 H 0.50952 0.56068 1.00913 0.0
H425 H 0.5185 0.6105 0.05567 0.0
H426 H 0.42676 0.6299 0.02913 0.0
H427 H 0.4176 0.5795 0.98003 0.0
H428 H 0.5425 0.48191 0.47922 0.0
H429 H 0.53403 0.43034 0.45762 0.0
H430 H 0.6197 0.41125 0.56689 0.0
H431 H 0.6289 0.46338 0.58534 0.0
Sm432 Sm 1.02355 0.50038 0.81386 0.0
Sm433 Sm 0.02558 0.54971 0.72194 0.0
C434 C 1.00734 0.45995 0.9326 0.0
C435 C 0.97716 0.45781 0.9661 0.0
C436 C 0.96767 0.47693 0.03652 0.0
C437 C 0.93838 0.48375 0.04465 0.0
C438 C 0.91818 0.47107 0.98374 0.0
C439 C 0.92703 0.4497 0.9204 0.0
C440 C 0.95641 0.44306 0.91156 0.0
C441 C 0.03152 0.48706 0.62523 0.0
C442 C 0.95968 0.52914 0.75106 0.0
C443 C 0.04141 0.59014 0.60247 0.0
C444 C 0.06793 0.58799 0.54709 0.0
C445 C 0.07645 0.56038 0.51488 0.0
C446 C 0.10462 0.55586 0.48442 0.0
C447 C 0.12465 0.57883 0.48538 0.0
C448 C 0.11617 0.60666 0.51451 0.0
C449 C 0.08775 0.61123 0.54558 0.0
C450 C 1.01763 0.56379 0.90991 0.0
C451 C 0.08888 0.52044 0.7855 0.0
O452 O 1.02111 0.48341 0.9588 0.0
O453 O 1.01121 0.45445 0.84382 0.0
O454 O 1.01363 0.50575 0.65691 0.0
O455 O 0.04722 0.47667 0.69333 0.0
O456 O 0.97312 0.50914 0.80168 0.0
O457 O 0.97545 0.54892 0.70771 0.0
O458 O 1.02128 0.571 0.58292 0.0
O459 O 0.04621 0.59244 0.69206 0.0
O460 O 0.03497 0.54445 0.87899 0.0
O461 O 1.00349 0.5754 0.84071 0.0
O462 O 0.07556 0.53678 0.72229 0.0
O463 O 0.07279 0.50437 0.84119 0.0
H464 H 0.98301 0.4882 0.08095 0.0
H465 H 0.93159 0.49932 0.09725 0.0
H466 H 0.91137 0.43911 0.87509 0.0
H467 H 0.96302 0.42807 0.85716 0.0
H468 H 0.06195 0.54175 0.51846 0.0
H469 H 0.11106 0.53412 0.4632 0.0
H470 H 0.13159 0.62455 0.51494 0.0
H471 H 0.08167 0.63237 0.57279 0.0
C472 C 0.10474 0.04999 0.40388 0.0
C473 C 0.11018 1.02304 0.35878 0.0
C474 C 0.08895 0.05189 0.489 0.0
C475 C 0.07728 0.02706 0.53355 0.0
H476 H 0.11392 0.06993 0.37581 0.0
H477 H 0.08672 0.07299 0.522 0.0
S478 S 0.08333 0.95124 0.44655 0.0
N479 N 0.10055 0.97081 0.36638 0.0
N480 N 0.07181 0.97463 0.526 0.0
C481 C 0.0817 1.00011 0.48897 0.0
C482 C 0.0978 0.99804 0.40217 0.0
C483 C 0.54644 0.08899 0.37381 0.0
C484 C 0.52955 0.11395 0.35262 0.0
C485 C 0.54256 0.07315 0.45903 0.0
C486 C 0.52207 0.08206 0.52718 0.0
H487 H 0.56293 0.08184 0.32471 0.0
H488 H 0.55659 0.05469 0.47343 0.0
S489 S 0.47308 0.14605 0.50672 0.0
N490 N 0.49163 0.14635 0.40762 0.0
N491 N 0.48503 0.11759 0.56638 0.0
C492 C 0.5052 0.10683 0.506 0.0
C493 C 0.50873 0.12247 0.41945 0.0
C494 C 0.45445 0.55229 0.38225 0.0
C495 C 0.43915 0.52834 0.34306 0.0
C496 C 0.47002 0.54994 0.4683 0.0
C497 C 0.47113 0.52342 0.51916 0.0
H498 H 0.45399 0.57326 0.34718 0.0
H499 H 0.48013 0.56928 0.49692 0.0
S500 S 0.43498 0.45459 0.45296 0.0
N501 N 0.42631 0.4773 0.36747 0.0
N502 N 0.45575 0.47332 0.52497 0.0
C503 C 0.45658 0.49954 0.48049 0.0
C504 C 0.4407 0.50178 0.3939 0.0
C505 C 1.00133 0.45686 0.39057 0.0
C506 C 0.02424 0.43905 0.35677 0.0
C507 C 1.0039 0.47312 0.47499 0.0
C508 C 0.02931 0.47196 0.53098 0.0
H509 H 0.98119 0.4583 0.35142 0.0
H510 H 0.98554 0.48612 0.49765 0.0
S511 S 0.09532 0.4284 0.47701 0.0
N512 N 0.07307 0.42132 0.38932 0.0
N513 N 0.07771 0.45138 0.5452 0.0
C514 C 0.05222 0.45434 0.49786 0.0
C515 C 0.04976 0.4381 0.41201 0.0
C516 C 0.92489 1.00396 0.11002 0.0
C517 C 0.93663 1.01787 0.18928 0.0
C518 C 0.93906 1.0045 0.02253 0.0
C519 C 0.96614 1.01846 1.00906 0.0
H520 H 0.90401 0.99305 0.11495 0.0
H521 H 0.92838 0.99396 0.96413 0.0
S522 S 1.00675 0.0584 0.19301 0.0
N523 N 0.97725 0.04651 0.24782 0.0
N524 N 1.00425 0.04681 0.08377 0.0
C525 C 0.97855 0.0322 0.08773 0.0
C526 C 0.96369 0.03218 0.17724 0.0
C527 C 0.50554 0.94948 0.13956 0.0
C528 C 0.53119 0.93462 0.16871 0.0
C529 C 0.50436 0.96599 0.05523 0.0
C530 C 0.52864 0.96832 0.99517 0.0
H531 H 0.48562 0.94744 0.17958 0.0
H532 H 0.48384 0.97574 0.03462 0.0
S533 S 0.6016 0.93691 0.03756 0.0
N534 N 0.58257 0.92717 0.13062 0.0
N535 N 0.57897 0.95552 0.97069 0.0
C536 C 0.55436 0.95455 0.02358 0.0
C537 C 0.556 0.93851 0.11027 0.0
C538 C 0.60392 0.50118 0.1231 0.0
C539 C 0.61165 0.52763 0.16806 0.0
C540 C 0.58772 0.50062 0.03835 0.0
C541 C 0.57804 0.52638 0.99389 0.0
H542 H 0.61162 0.48056 0.15049 0.0
H543 H 0.58397 0.47981 1.00489 0.0
S544 S 0.58974 0.60129 0.08097 0.0
N545 N 0.6051 0.58045 0.1614 0.0
N546 N 0.57689 0.57887 1.00104 0.0
C547 C 0.58467 0.55273 0.03837 0.0
C548 C 0.60073 0.55348 0.12526 0.0
C549 C 0.02786 0.62707 0.08287 0.0
C550 C 0.02411 0.61413 0.17187 0.0
C551 C 0.02648 0.61052 0.99948 0.0
C552 C 1.0218 0.58008 1.00073 0.0
H553 H 0.03101 0.65042 0.07744 0.0
H554 H 0.02877 0.6218 0.93307 0.0
S555 S 1.01144 0.53536 0.21534 0.0
N556 N 1.01568 0.56881 0.25568 0.0
N557 N 1.01427 0.53774 0.10009 0.0
C558 C 1.01901 0.56675 0.08941 0.0
C559 C 1.01979 0.58372 0.17439 0.0
C560 C 0.03252 0.18235 0.39645 0.0
C561 C 1.01738 0.20879 0.40487 0.0
C562 C 1.01886 0.15598 0.40941 0.0
C563 C 0.99074 0.15419 0.44741 0.0
H564 H 0.05533 0.18124 0.37866 0.0
H565 H 0.03133 0.13671 0.39228 0.0
S566 S 0.94087 0.21639 0.49031 0.0
N567 N 0.97061 0.23124 0.44615 0.0
N568 N 0.94777 0.18118 0.49706 0.0
C569 C 0.97521 0.18023 0.46142 0.0
C570 C 0.98806 0.20754 0.4363 0.0
C571 C 0.35951 1.00613 0.33632 0.0
C572 C 0.33713 1.00703 0.40321 0.0
C573 C 0.38589 0.99309 0.35735 0.0
C574 C 0.39058 0.98063 0.44574 0.0
H575 H 0.3568 1.0161 0.2679 0.0
H576 H 0.40318 0.99382 0.30559 0.0
S577 S 0.33723 0.97433 0.64003 0.0
N578 N 0.31965 0.99199 0.55639 0.0
N579 N 0.37014 0.96769 0.59802 0.0
C580 C 0.36768 0.97959 0.51109 0.0
C581 C 0.34061 0.99281 0.48915 0.0
C582 C 0.58135 0.34186 0.42002 0.0
C583 C 0.55293 0.3315 0.43526 0.0
C584 C 0.58969 0.36896 0.45364 0.0
C585 C 0.56993 0.38596 0.50457 0.0
H586 H 0.59599 0.33047 0.37313 0.0
H587 H 0.6106 0.37769 0.43211 0.0
S588 S 0.49572 0.36491 0.58186 0.0
N589 N 0.5069 0.33749 0.5167 0.0
N590 N 0.52306 0.38832 0.5842 0.0
C591 C 0.54294 0.374 0.53092 0.0
C592 C 0.53434 0.34655 0.49558 0.0
C593 C 0.18569 0.54789 0.34695 0.0
C594 C 0.20924 0.55058 0.40886 0.0
C595 C 0.15861 0.55883 0.37048 0.0
C596 C 0.15437 0.57281 0.45637 0.0
H597 H 0.18817 0.53702 0.28014 0.0
H598 H 0.14061 0.55557 0.32255 0.0
S599 S 0.20986 0.58713 0.63873 0.0
N600 N 0.22765 0.56969 0.55547 0.0
N601 N 0.17586 0.5901 0.60177 0.0
C602 C 0.17802 0.57686 0.51716 0.0
C603 C 0.20579 0.56575 0.49272 0.0
C604 C 0.02872 0.84713 1.01093 0.0
C605 C 0.04484 0.83117 0.07646 0.0
C606 C 0.03969 0.87335 0.97609 0.0
C607 C 0.0667 0.88409 1.0075 0.0
H608 H 1.00643 0.84113 0.99504 0.0
H609 H 0.02584 0.88662 0.93167 0.0
S610 S 0.11874 0.84692 0.16589 0.0
N611 N 0.09065 0.82458 0.15871 0.0
N612 N 0.11076 0.87487 0.09736 0.0
C613 C 0.08436 0.86642 0.06397 0.0
C614 C 0.07351 0.83947 0.09725 0.0
C615 C 0.68827 0.04295 0.17809 0.0
C616 C 0.71105 0.04661 0.11386 0.0
C617 C 0.66024 0.05124 0.1544 0.0
C618 C 0.6545 0.06332 0.06603 0.0
H619 H 0.69236 0.03431 0.24768 0.0
H620 H 0.64304 0.04862 0.20587 0.0
S621 S 0.70737 0.07542 0.8731 0.0
N622 N 0.727 0.06189 0.95983 0.0
N623 N 0.67353 0.07715 0.91247 0.0
C624 C 0.67723 0.06658 1.00067 0.0
C625 C 0.70585 0.05819 0.0254 0.0
C626 C 0.50275 0.68733 0.17468 0.0
C627 C 0.49371 0.71101 0.11916 0.0
C628 C 0.49589 0.6591 0.14934 0.0
C629 C 0.47965 0.65375 0.0683 0.0
H630 H 0.51406 0.69064 0.2404 0.0
H631 H 0.50273 0.64136 0.19464 0.0
S632 S 0.45186 0.70842 0.8987 0.0
N633 N 0.46889 0.72772 0.97912 0.0
N634 N 0.45538 0.67394 0.93093 0.0
C635 C 0.47087 0.67714 1.01125 0.0
C636 C 0.47814 0.70601 0.03685 0.0
C637 C 0.84002 0.4632 0.04488 0.0
C638 C 0.83236 0.4923 0.06163 0.0
C639 C 0.8675 0.45644 1.01111 0.0
C640 C 0.88754 0.47869 0.99182 0.0
H641 H 0.82605 0.44559 0.06868 0.0
H642 H 0.87398 0.43374 1.00874 0.0
S643 S 0.87486 0.55829 1.00227 0.0
N644 N 0.84445 0.54354 0.0423 0.0
N645 N 0.89627 0.53076 0.97401 0.0
C646 C 0.87865 0.50792 0.99611 0.0
C647 C 0.85075 0.51479 0.03175 0.0
C648 C 0.02577 0.17332 0.75403 0.0
C649 C 0.0272 0.1855 0.8447 0.0
C650 C 0.02585 0.14261 0.73968 0.0
C651 C 0.02798 0.12256 0.81498 0.0
H652 H 0.02439 0.18762 0.69362 0.0
H653 H 0.02461 0.13456 0.66885 0.0
S654 S 0.03157 0.14296 0.066 0.0
N655 N 0.03014 0.17464 1.01068 0.0
N656 N 0.03104 0.11771 0.98386 0.0
C657 C 0.02969 0.13456 0.90554 0.0
C658 C 0.0291 0.16568 0.92024 0.0
C659 C 0.38471 0.02515 0.90827 0.0
C660 C 0.36427 0.03142 0.83709 0.0
C661 C 0.41515 0.02549 0.89134 0.0
C662 C 0.42678 0.03121 0.8016 0.0
H663 H 0.37707 1.0203 0.97843 0.0
H664 H 0.42975 1.02073 0.94896 0.0
S665 S 0.3833 0.04997 0.59094 0.0
N666 N 0.35847 0.04502 0.67352 0.0
N667 N 0.41521 0.04383 0.64079 0.0
C668 C 0.40668 0.03737 0.72956 0.0
C669 C 0.37567 0.038 0.74749 0.0
C670 C 0.54915 0.38141 0.80542 0.0
C671 C 0.52398 0.36433 0.82275 0.0
C672 C 0.54769 0.41188 0.78959 0.0
C673 C 0.52103 0.42724 0.79097 0.0
H674 H 0.57039 0.37121 0.80353 0.0
H675 H 0.56788 0.42357 0.77752 0.0
S676 S 0.44826 0.39368 0.82529 0.0
N677 N 0.47105 0.36606 0.83603 0.0
N678 N 0.46864 0.42266 0.80475 0.0
C679 C 0.49566 0.4106 0.80573 0.0
C680 C 0.49704 0.37951 0.82171 0.0
C681 C 0.16376 0.53204 0.90094 0.0
C682 C 0.18415 0.52378 0.83179 0.0
C683 C 0.1333 0.53058 0.88539 0.0
C684 C 0.12154 0.52163 0.79886 0.0
H685 H 0.17146 0.53926 0.96867 0.0
H686 H 0.11877 0.53686 0.9416 0.0
S687 S 0.16496 0.49783 0.59365 0.0
N688 N 0.18987 0.50581 0.67312 0.0
N689 N 0.133 0.50436 0.64283 0.0
C690 C 0.14158 0.51368 0.72857 0.0
C691 C 0.17266 0.51438 0.74528 0.0
C692 C 0.99368 0.88139 0.72313 0.0
C693 C 1.0195 0.86552 0.70004 0.0
C694 C 0.99317 0.91203 0.73626 0.0
C695 C 1.0185 0.92912 0.72982 0.0
H696 H 0.97295 0.8707 0.73091 0.0
H697 H 0.97262 0.92238 0.75299 0.0
S698 S 0.09226 0.90191 0.67158 0.0
N699 N 0.07171 0.87247 0.67036 0.0
N700 N 0.07018 0.9288 0.69916 0.0
C701 C 0.04447 0.91435 0.70885 0.0
C702 C 0.04513 0.88318 0.69311 0.0
C703 C 0.6622 1.02341 0.62201 0.0
C704 C 0.68205 1.01615 0.69402 0.0
C705 C 0.63164 1.02322 0.6365 0.0
C706 C 0.61929 1.01666 0.7246 0.0
H707 H 0.67039 0.0291 0.55314 0.0
H708 H 0.61753 0.02884 0.57839 0.0
S709 S 0.66102 0.99547 0.93666 0.0
N710 N 0.68652 1.00105 0.85662 0.0
N711 N 0.62954 1.00227 0.88486 0.0
C712 C 0.63879 1.00949 0.79743 0.0
C713 C 0.66992 1.00878 0.78193 0.0
C714 C 0.51651 0.67044 0.77001 0.0
C715 C 0.53162 0.68381 0.69471 0.0
C716 C 0.51611 0.63975 0.78348 0.0
C717 C 0.53121 0.62064 0.72306 0.0
H718 H 0.50502 0.68387 0.81969 0.0
H719 H 0.50394 0.63099 0.84224 0.0
S720 S 0.57303 0.64369 0.51209 0.0
N721 N 0.5609 0.67454 0.55618 0.0
N722 N 0.56119 0.6178 0.5831 0.0
C723 C 0.54651 0.63369 0.64787 0.0
C724 C 0.54653 0.66483 0.63347 0.0
C725 C 0.8811 0.50269 0.70433 0.0
C726 C 0.8633 0.52802 0.71275 0.0
C727 C 0.91166 0.503 0.7197 0.0
C728 C 0.92682 0.52882 0.74096 0.0
H729 H 0.8719 0.4821 0.68329 0.0
H730 H 0.92371 0.48287 0.71151 0.0
S731 S 0.89287 0.60072 0.78358 0.0
N732 N 0.86511 0.57939 0.75784 0.0
N733 N 0.92208 0.57998 0.7759 0.0
C734 C 0.90996 0.55412 0.75114 0.0
C735 C 0.8786 0.55373 0.73976 0.0
loop_
_geom_bond_atom_site_label_1
_geom_bond_atom_site_label_2
_geom_bond_distance
_geom_bond_site_symmetry_2
_ccdc_geom_bond_type
C0 C1 1.386 . S
C0 C2 1.397 . S
C0 H24 0.931 . S
C1 C0 1.386 . S
C1 C5 1.397 . S
C2 C0 1.397 . S
C2 C3 1.384 . S
C2 H25 0.930 . S
C3 C2 1.384 . S
C3 C4 1.377 . S
C3 C6 1.481 . S
C4 C3 1.377 . S
C4 C5 1.389 . S
C4 H26 0.929 . S
C5 C1 1.397 . S
C5 C4 1.389 . S
C5 H27 0.931 . S
C6 C3 1.481 . S
C6 C7 1.387 . S
C6 C11 1.390 . S
C7 C6 1.387 . S
C7 C8 1.401 . S
C7 H28 0.930 . S
C8 C7 1.401 . S
C8 C9 1.376 . S
C8 C17 1.511 . S
C9 C8 1.376 . S
C9 C10 1.392 . S
C9 H30 0.931 . S
C10 C9 1.392 . S
C10 C11 1.361 . S
C10 C12 1.500 . S
C11 C6 1.390 . S
C11 C10 1.361 . S
C11 H29 0.931 . S
C12 C10 1.500 . S
C12 C13 1.371 . S
C12 C14 1.365 . S
C13 C12 1.371 . S
C13 C23 1.386 . S
C13 H31 0.931 . S
C14 C12 1.365 . S
C14 C15 1.409 . S
C14 H32 0.929 . S
C15 C14 1.409 . S
C15 C16 1.380 . S
C15 H33 0.930 . S
C16 C15 1.380 . S
C16 C23 1.357 . S
C17 C8 1.511 . S
C17 C18 1.341 . S
C17 C19 1.371 . S
C18 C17 1.341 . S
C18 C22 1.394 . S
C18 H34 0.930 . S
C19 C17 1.371 . S
C19 C20 1.392 . S
C19 H35 0.931 . S
C20 C19 1.392 . S
C20 C21 1.331 . S
C20 H38 0.932 . S
C21 C20 1.331 . S
C21 C22 1.336 . S
C22 C18 1.394 . S
C22 C21 1.336 . S
C22 H37 0.929 . S
C23 C13 1.386 . S
C23 C16 1.357 . S
C23 H36 0.928 . S
H24 C0 0.931 . S
H25 C2 0.930 . S
H26 C4 0.929 . S
H27 C5 0.931 . S
H28 C7 0.930 . S
H29 C11 0.931 . S
H30 C9 0.931 . S
H31 C13 0.931 . S
H32 C14 0.929 . S
H33 C15 0.930 . S
H34 C18 0.930 . S
H35 C19 0.931 . S
H36 C23 0.928 . S
H37 C22 0.929 . S
H38 C20 0.932 . S
C39 C40 1.394 . S
C39 C41 1.397 . S
C39 H63 0.931 . S
C40 C39 1.394 . S
C40 C44 1.389 1_655 S
C41 C39 1.397 . S
C41 C42 1.389 . S
C41 H64 0.930 . S
C42 C41 1.389 . S
C42 C43 1.373 1_655 S
C42 C45 1.480 . S
C43 C42 1.373 1_455 S
C43 C44 1.389 . S
C43 H65 0.929 . S
C44 C40 1.389 1_455 S
C44 C43 1.389 . S
C44 H66 0.931 . S
C45 C42 1.480 . S
C45 C46 1.388 . S
C45 C50 1.390 . S
C46 C45 1.388 . S
C46 C47 1.402 . S
C46 H67 0.930 . S
C47 C46 1.402 . S
C47 C48 1.377 . S
C47 C56 1.513 . S
C48 C47 1.377 . S
C48 C49 1.392 . S
C48 H69 0.931 . S
C49 C48 1.392 . S
C49 C50 1.361 . S
C49 C51 1.499 1_655 S
C50 C45 1.390 . S
C50 C49 1.361 . S
C50 H68 0.931 . S
C51 C49 1.499 1_455 S
C51 C52 1.361 1_455 S
C51 C53 1.376 . S
C52 C51 1.361 1_655 S
C52 C62 1.386 . S
C52 H70 0.931 . S
C53 C51 1.376 . S
C53 C54 1.409 . S
C53 H71 0.929 . S
C54 C53 1.409 . S
C54 C55 1.380 . S
C54 H72 0.930 . S
C55 C54 1.380 . S
C55 C62 1.357 1_455 S
C56 C47 1.513 . S
C56 C57 1.341 . S
C56 C58 1.371 1_655 S
C57 C56 1.341 . S
C57 C61 1.394 . S
C57 H73 0.930 . S
C58 C56 1.371 1_455 S
C58 C59 1.392 . S
C58 H74 0.931 . S
C59 C58 1.392 . S
C59 C60 1.322 1_455 S
C59 H77 0.932 . S
C60 C59 1.322 1_655 S
C60 C61 1.345 . S
C61 C57 1.394 . S
C61 C60 1.345 . S
C61 H76 0.929 . S
C62 C52 1.386 . S
C62 C55 1.357 1_655 S
C62 H75 0.928 . S
H63 C39 0.931 . S
H64 C41 0.930 . S
H65 C43 0.929 . S
H66 C44 0.931 . S
H67 C46 0.930 . S
H68 C50 0.931 . S
H69 C48 0.931 . S
H70 C52 0.931 . S
H71 C53 0.929 . S
H72 C54 0.930 . S
H73 C57 0.930 . S
H74 C58 0.931 . S
H75 C62 0.928 . S
H76 C61 0.929 . S
H77 C59 0.932 . S
C78 C79 1.394 . S
C78 C80 1.397 . S
C78 H102 0.931 . S
C79 C78 1.394 . S
C79 C83 1.389 1_565 S
C80 C78 1.397 . S
C80 C81 1.389 . S
C80 H103 0.930 . S
C81 C80 1.389 . S
C81 C82 1.373 1_565 S
C81 C84 1.481 . S
C82 C81 1.373 1_545 S
C82 C83 1.389 . S
C82 H104 0.929 . S
C83 C79 1.389 1_545 S
C83 C82 1.389 . S
C83 H105 0.931 . S
C84 C81 1.481 . S
C84 C85 1.389 . S
C84 C89 1.390 . S
C85 C84 1.389 . S
C85 C86 1.403 . S
C85 H106 0.930 . S
C86 C85 1.403 . S
C86 C87 1.377 . S
C86 C95 1.513 . S
C87 C86 1.377 . S
C87 C88 1.392 . S
C87 H108 0.931 . S
C88 C87 1.392 . S
C88 C89 1.361 . S
C88 C90 1.499 1_565 S
C89 C84 1.390 . S
C89 C88 1.361 . S
C89 H107 0.931 . S
C90 C88 1.499 1_545 S
C90 C91 1.361 1_545 S
C90 C92 1.376 . S
C91 C90 1.361 1_565 S
C91 C101 1.386 . S
C91 H109 0.931 . S
C92 C90 1.376 . S
C92 C93 1.409 . S
C92 H110 0.929 . S
C93 C92 1.409 . S
C93 C94 1.380 . S
C93 H111 0.930 . S
C94 C93 1.380 . S
C94 C101 1.357 1_545 S
C95 C86 1.513 . S
C95 C96 1.341 . S
C95 C97 1.371 1_565 S
C96 C95 1.341 . S
C96 C100 1.394 . S
C96 H112 0.930 . S
C97 C95 1.371 1_545 S
C97 C98 1.392 . S
C97 H113 0.931 . S
C98 C97 1.392 . S
C98 C99 1.322 1_545 S
C98 H116 0.932 . S
C99 C98 1.322 1_565 S
C99 C100 1.345 . S
C100 C96 1.394 . S
C100 C99 1.345 . S
C100 H115 0.929 . S
C101 C91 1.386 . S
C101 C94 1.357 1_565 S
C101 H114 0.928 . S
H102 C78 0.931 . S
H103 C80 0.930 . S
H104 C82 0.929 . S
H105 C83 0.931 . S
H106 C85 0.930 . S
H107 C89 0.931 . S
H108 C87 0.931 . S
H109 C91 0.931 . S
H110 C92 0.929 . S
H111 C93 0.930 . S
H112 C96 0.930 . S
H113 C97 0.931 . S
H114 C101 0.928 . S
H115 C100 0.929 . S
H116 C98 0.932 . S
C117 C118 1.386 . S
C117 C119 1.397 . S
C117 H141 0.931 . S
C118 C117 1.386 . S
C118 C122 1.397 . S
C119 C117 1.397 . S
C119 C120 1.384 . S
C119 H142 0.930 . S
C120 C119 1.384 . S
C120 C121 1.377 . S
C120 C123 1.481 . S
C121 C120 1.377 . S
C121 C122 1.389 . S
C121 H143 0.929 . S
C122 C118 1.397 . S
C122 C121 1.389 . S
C122 H144 0.931 . S
C123 C120 1.481 . S
C123 C124 1.387 . S
C123 C128 1.390 . S
C124 C123 1.387 . S
C124 C125 1.401 . S
C124 H145 0.930 . S
C125 C124 1.401 . S
C125 C126 1.376 . S
C125 C134 1.511 . S
C126 C125 1.376 . S
C126 C127 1.392 . S
C126 H147 0.931 . S
C127 C126 1.392 . S
C127 C128 1.361 . S
C127 C129 1.500 . S
C128 C123 1.390 . S
C128 C127 1.361 . S
C128 H146 0.931 . S
C129 C127 1.500 . S
C129 C130 1.371 . S
C129 C131 1.365 . S
C130 C129 1.371 . S
C130 C140 1.386 . S
C130 H148 0.931 . S
C131 C129 1.365 . S
C131 C132 1.409 . S
C131 H149 0.929 . S
C132 C131 1.409 . S
C132 C133 1.380 . S
C132 H150 0.930 . S
C133 C132 1.380 . S
C133 C140 1.357 . S
C134 C125 1.511 . S
C134 C135 1.341 . S
C134 C136 1.371 . S
C135 C134 1.341 . S
C135 C139 1.394 . S
C135 H151 0.930 . S
C136 C134 1.371 . S
C136 C137 1.392 . S
C136 H152 0.931 . S
C137 C136 1.392 . S
C137 C138 1.331 . S
C137 H155 0.932 . S
C138 C137 1.331 . S
C138 C139 1.336 . S
C139 C135 1.394 . S
C139 C138 1.336 . S
C139 H154 0.929 . S
C140 C130 1.386 . S
C140 C133 1.357 . S
C140 H153 0.928 . S
H141 C117 0.931 . S
H142 C119 0.930 . S
H143 C121 0.929 . S
H144 C122 0.931 . S
H145 C124 0.930 . S
H146 C128 0.931 . S
H147 C126 0.931 . S
H148 C130 0.931 . S
H149 C131 0.929 . S
H150 C132 0.930 . S
H151 C135 0.930 . S
H152 C136 0.931 . S
H153 C140 0.928 . S
H154 C139 0.929 . S
H155 C137 0.932 . S
C156 C157 1.386 . S
C156 C158 1.397 . S
C156 H180 0.931 . S
C157 C156 1.386 . S
C157 C161 1.397 . S
C158 C156 1.397 . S
C158 C159 1.384 . S
C158 H181 0.930 . S
C159 C158 1.384 . S
C159 C160 1.377 . S
C159 C162 1.481 . S
C160 C159 1.377 . S
C160 C161 1.389 . S
C160 H182 0.929 . S
C161 C157 1.397 . S
C161 C160 1.389 . S
C161 H183 0.931 . S
C162 C159 1.481 . S
C162 C163 1.387 . S
C162 C167 1.390 . S
C163 C162 1.387 . S
C163 C164 1.401 . S
C163 H184 0.930 . S
C164 C163 1.401 . S
C164 C165 1.376 1_554 S
C164 C173 1.511 . S
C165 C164 1.376 1_556 S
C165 C166 1.392 . S
C165 H186 0.931 . S
C166 C165 1.392 . S
C166 C167 1.361 1_556 S
C166 C168 1.500 . S
C167 C162 1.390 . S
C167 C166 1.361 1_554 S
C167 H185 0.931 . S
C168 C166 1.500 . S
C168 C169 1.371 . S
C168 C170 1.365 . S
C169 C168 1.371 . S
C169 C179 1.386 . S
C169 H187 0.931 . S
C170 C168 1.365 . S
C170 C171 1.409 . S
C170 H188 0.929 . S
C171 C170 1.409 . S
C171 C172 1.380 . S
C171 H189 0.930 . S
C172 C171 1.380 . S
C172 C179 1.357 . S
C173 C164 1.511 . S
C173 C174 1.341 . S
C173 C175 1.371 . S
C174 C173 1.341 . S
C174 C178 1.394 . S
C174 H190 0.930 . S
C175 C173 1.371 . S
C175 C176 1.392 . S
C175 H191 0.931 1_554 S
C176 C175 1.392 . S
C176 C177 1.331 . S
C176 H194 0.932 . S
C177 C176 1.331 . S
C177 C178 1.336 . S
C178 C174 1.394 . S
C178 C177 1.336 . S
C178 H193 0.929 . S
C179 C169 1.386 . S
C179 C172 1.357 . S
C179 H192 0.928 . S
H180 C156 0.931 . S
H181 C158 0.930 . S
H182 C160 0.929 . S
H183 C161 0.931 . S
H184 C163 0.930 . S
H185 C167 0.931 . S
H186 C165 0.931 . S
H187 C169 0.931 . S
H188 C170 0.929 . S
H189 C171 0.930 . S
H190 C174 0.930 . S
H191 C175 0.931 1_556 S
H192 C179 0.928 . S
H193 C178 0.929 . S
H194 C176 0.932 . S
C195 C196 1.389 . S
C195 C197 1.397 . S
C195 H219 0.931 . S
C196 C195 1.389 . S
C196 C200 1.395 1_655 S
C197 C195 1.397 . S
C197 C198 1.383 . S
C197 H220 0.930 . S
C198 C197 1.383 . S
C198 C199 1.378 1_655 S
C198 C201 1.480 . S
C199 C198 1.378 1_455 S
C199 C200 1.389 . S
C199 H221 0.929 . S
C200 C196 1.395 1_455 S
C200 C199 1.389 . S
C200 H222 0.931 . S
C201 C198 1.480 . S
C201 C202 1.388 . S
C201 C206 1.390 . S
C202 C201 1.388 . S
C202 C203 1.402 . S
C202 H223 0.930 . S
C203 C202 1.402 . S
C203 C204 1.376 1_554 S
C203 C212 1.512 . S
C204 C203 1.376 1_556 S
C204 C205 1.392 1_655 S
C204 H225 0.933 . S
C205 C204 1.392 1_455 S
C205 C206 1.361 1_456 S
C205 C207 1.499 . S
C206 C201 1.390 . S
C206 C205 1.361 1_654 S
C206 H224 0.931 . S
C207 C205 1.499 . S
C207 C208 1.357 1_455 S
C207 C209 1.380 . S
C208 C207 1.357 1_655 S
C208 C218 1.386 . S
C208 H226 0.931 . S
C209 C207 1.380 . S
C209 C210 1.409 . S
C209 H227 0.929 . S
C210 C209 1.409 . S
C210 C211 1.384 . S
C210 H228 0.930 . S
C211 C210 1.384 . S
C211 C218 1.353 1_455 S
C212 C203 1.512 . S
C212 C213 1.341 . S
C212 C214 1.371 1_655 S
C213 C212 1.341 . S
C213 C217 1.394 . S
C213 H229 0.930 . S
C214 C212 1.371 1_455 S
C214 C215 1.392 . S
C214 H230 0.931 1_554 S
C215 C214 1.392 . S
C215 C216 1.325 1_455 S
C215 H233 0.932 . S
C216 C215 1.325 1_655 S
C216 C217 1.342 . S
C217 C213 1.394 . S
C217 C216 1.342 . S
C217 H232 0.929 . S
C218 C208 1.386 . S
C218 C211 1.353 1_655 S
C218 H231 0.928 . S
H219 C195 0.931 . S
H220 C197 0.930 . S
H221 C199 0.929 . S
H222 C200 0.931 . S
H223 C202 0.930 . S
H224 C206 0.931 . S
H225 C204 0.933 . S
H226 C208 0.931 . S
H227 C209 0.929 . S
H228 C210 0.930 . S
H229 C213 0.930 . S
H230 C214 0.931 1_556 S
H231 C218 0.928 . S
H232 C217 0.929 . S
H233 C215 0.932 . S
C234 C235 1.389 . S
C234 C236 1.397 . S
C234 H258 0.931 . S
C235 C234 1.389 . S
C235 C239 1.394 1_565 S
C236 C234 1.397 . S
C236 C237 1.383 . S
C236 H259 0.930 . S
C237 C236 1.383 . S
C237 C238 1.378 1_565 S
C237 C240 1.480 . S
C238 C237 1.378 1_545 S
C238 C239 1.389 . S
C238 H260 0.929 . S
C239 C235 1.394 1_545 S
C239 C238 1.389 . S
C239 H261 0.931 . S
C240 C237 1.480 . S
C240 C241 1.388 . S
C240 C245 1.390 . S
C241 C240 1.388 . S
C241 C242 1.402 . S
C241 H262 0.930 . S
C242 C241 1.402 . S
C242 C243 1.376 1_554 S
C242 C251 1.512 . S
C243 C242 1.376 1_556 S
C243 C244 1.392 1_565 S
C243 H264 0.934 . S
C244 C243 1.392 1_545 S
C244 C245 1.361 1_546 S
C244 C246 1.499 . S
C245 C240 1.390 . S
C245 C244 1.361 1_564 S
C245 H263 0.931 . S
C246 C244 1.499 . S
C246 C247 1.357 1_545 S
C246 C248 1.380 . S
C247 C246 1.357 1_565 S
C247 C257 1.386 . S
C247 H265 0.931 . S
C248 C246 1.380 . S
C248 C249 1.409 . S
C248 H266 0.929 . S
C249 C248 1.409 . S
C249 C250 1.384 . S
C249 H267 0.930 . S
C250 C249 1.384 . S
C250 C257 1.353 1_545 S
C251 C242 1.512 . S
C251 C252 1.341 . S
C251 C253 1.371 1_565 S
C252 C251 1.341 . S
C252 C256 1.394 . S
C252 H268 0.930 . S
C253 C251 1.371 1_545 S
C253 C254 1.392 . S
C253 H269 0.931 1_554 S
C254 C253 1.392 . S
C254 C255 1.325 1_545 S
C254 H272 0.932 . S
C255 C254 1.325 1_565 S
C255 C256 1.342 . S
C256 C252 1.394 . S
C256 C255 1.342 . S
C256 H271 0.929 . S
C257 C247 1.386 . S
C257 C250 1.353 1_565 S
C257 H270 0.928 . S
H258 C234 0.931 . S
H259 C236 0.930 . S
H260 C238 0.929 . S
H261 C239 0.931 . S
H262 C241 0.930 . S
H263 C245 0.931 . S
H264 C243 0.934 . S
H265 C247 0.931 . S
H266 C248 0.929 . S
H267 C249 0.930 . S
H268 C252 0.930 . S
H269 C253 0.931 1_556 S
H270 C257 0.928 . S
H271 C256 0.929 . S
H272 C254 0.932 . S
C273 C274 1.386 . S
C273 C275 1.397 . S
C273 H297 0.931 . S
C274 C273 1.386 . S
C274 C278 1.397 . S
C275 C273 1.397 . S
C275 C276 1.384 . S
C275 H298 0.930 . S
C276 C275 1.384 . S
C276 C277 1.377 . S
C276 C279 1.481 . S
C277 C276 1.377 . S
C277 C278 1.389 . S
C277 H299 0.929 . S
C278 C274 1.397 . S
C278 C277 1.389 . S
C278 H300 0.931 . S
C279 C276 1.481 . S
C279 C280 1.387 . S
C279 C284 1.390 1_556 S
C280 C279 1.387 . S
C280 C281 1.401 1_556 S
C280 H301 0.930 . S
C281 C280 1.401 1_554 S
C281 C282 1.376 . S
C281 C290 1.511 . S
C282 C281 1.376 . S
C282 C283 1.392 . S
C282 H303 0.931 . S
C283 C282 1.392 . S
C283 C284 1.361 . S
C283 C285 1.500 . S
C284 C279 1.390 1_554 S
C284 C283 1.361 . S
C284 H302 0.931 . S
C285 C283 1.500 . S
C285 C286 1.371 . S
C285 C287 1.365 . S
C286 C285 1.371 . S
C286 C296 1.386 . S
C286 H304 0.931 . S
C287 C285 1.365 . S
C287 C288 1.409 . S
C287 H305 0.929 . S
C288 C287 1.409 . S
C288 C289 1.380 . S
C288 H306 0.930 . S
C289 C288 1.380 . S
C289 C296 1.357 . S
C290 C281 1.511 . S
C290 C291 1.341 . S
C290 C292 1.371 . S
C291 C290 1.341 . S
C291 C295 1.394 . S
C291 H307 0.930 1_554 S
C292 C290 1.371 . S
C292 C293 1.392 . S
C292 H308 0.931 . S
C293 C292 1.392 . S
C293 C294 1.331 . S
C293 H311 0.932 . S
C294 C293 1.331 . S
C294 C295 1.336 . S
C295 C291 1.394 . S
C295 C294 1.336 . S
C295 H310 0.929 . S
C296 C286 1.386 . S
C296 C289 1.357 . S
C296 H309 0.928 . S
H297 C273 0.931 . S
H298 C275 0.930 . S
H299 C277 0.929 . S
H300 C278 0.931 . S
H301 C280 0.930 . S
H302 C284 0.931 . S
H303 C282 0.931 . S
H304 C286 0.931 . S
H305 C287 0.929 . S
H306 C288 0.930 . S
H307 C291 0.930 1_556 S
H308 C292 0.931 . S
H309 C296 0.928 . S
H310 C295 0.929 . S
H311 C293 0.932 . S
Sm312 C314 2.846 . S
Sm312 O332 2.543 . S
Sm312 O333 2.450 . S
Sm312 O334 2.681 1_565 S
Sm312 O335 2.464 . S
Sm312 O336 2.396 . S
Sm312 O340 2.386 1_455 S
Sm312 O343 2.408 1_565 S
Sm313 C323 2.846 . S
Sm313 O334 2.386 1_655 S
Sm313 O337 2.408 1_545 S
Sm313 O338 2.543 . S
Sm313 O339 2.450 . S
Sm313 O340 2.681 1_545 S
Sm313 O341 2.464 . S
Sm313 O342 2.396 . S
C314 Sm312 2.846 . S
C314 C315 1.506 . S
C314 O332 1.261 . S
C314 O333 1.242 . S
C315 C314 1.506 . S
C315 C316 1.358 1_556 S
C315 C320 1.382 . S
C316 C315 1.358 1_554 S
C316 C317 1.385 . S
C316 H344 0.930 1_455 S
C317 C316 1.385 . S
C317 C318 1.395 . S
C317 H345 0.929 . S
C318 C317 1.395 . S
C318 C319 1.335 . S
C319 C318 1.335 . S
C319 C320 1.398 1_554 S
C319 H346 0.930 . S
C320 C315 1.382 . S
C320 C319 1.398 1_556 S
C320 H347 0.929 . S
C321 O334 1.271 1_565 S
C321 O335 1.251 . S
C322 O336 1.252 1_655 S
C322 O337 1.272 . S
C323 Sm313 2.846 . S
C323 C324 1.506 . S
C323 O338 1.261 . S
C323 O339 1.242 . S
C324 C323 1.506 . S
C324 C325 1.358 . S
C324 C329 1.382 . S
C325 C324 1.358 . S
C325 C326 1.385 . S
C325 H348 0.930 1_655 S
C326 C325 1.385 . S
C326 C327 1.395 . S
C326 H349 0.929 . S
C327 C326 1.395 . S
C327 C328 1.335 . S
C328 C327 1.335 . S
C328 C329 1.398 . S
C328 H350 0.930 . S
C329 C324 1.382 . S
C329 C328 1.398 . S
C329 H351 0.929 . S
C330 O340 1.271 1_545 S
C330 O341 1.251 . S
C331 O342 1.252 1_455 S
C331 O343 1.272 . S
O332 Sm312 2.543 . S
O332 C314 1.261 . S
O333 Sm312 2.450 . S
O333 C314 1.242 . S
O334 Sm312 2.681 1_545 S
O334 Sm313 2.386 1_455 S
O334 C321 1.271 1_545 S
O335 Sm312 2.464 . S
O335 C321 1.251 . S
O336 Sm312 2.396 . S
O336 C322 1.252 1_455 S
O337 Sm313 2.408 1_565 S
O337 C322 1.272 . S
O338 Sm313 2.543 . S
O338 C323 1.261 . S
O339 Sm313 2.450 . S
O339 C323 1.242 . S
O340 Sm312 2.386 1_655 S
O340 Sm313 2.681 1_565 S
O340 C330 1.271 1_565 S
O341 Sm313 2.464 . S
O341 C330 1.251 . S
O342 Sm313 2.396 . S
O342 C331 1.252 1_655 S
O343 Sm312 2.408 1_545 S
O343 C331 1.272 . S
H344 C316 0.930 1_655 S
H345 C317 0.929 . S
H346 C319 0.930 . S
H347 C320 0.929 . S
H348 C325 0.930 1_455 S
H349 C326 0.929 . S
H350 C328 0.930 . S
H351 C329 0.929 . S
Sm352 C354 2.846 . S
Sm352 O372 2.543 . S
Sm352 O373 2.450 . S
Sm352 O374 2.681 . S
Sm352 O375 2.464 . S
Sm352 O376 2.396 . S
Sm352 O380 2.386 1_545 S
Sm352 O383 2.408 . S
Sm353 C363 2.846 . S
Sm353 O374 2.386 1_565 S
Sm353 O377 2.408 . S
Sm353 O378 2.543 . S
Sm353 O379 2.450 . S
Sm353 O380 2.681 . S
Sm353 O381 2.464 . S
Sm353 O382 2.396 . S
C354 Sm352 2.846 . S
C354 C355 1.506 . S
C354 O372 1.261 . S
C354 O373 1.242 . S
C355 C354 1.506 . S
C355 C356 1.358 1_556 S
C355 C360 1.382 . S
C356 C355 1.358 1_554 S
C356 C357 1.385 . S
C356 H384 0.930 1_545 S
C357 C356 1.385 . S
C357 C358 1.395 . S
C357 H385 0.929 . S
C358 C357 1.395 . S
C358 C359 1.335 . S
C359 C358 1.335 . S
C359 C360 1.398 1_554 S
C359 H386 0.930 . S
C360 C355 1.382 . S
C360 C359 1.398 1_556 S
C360 H387 0.929 . S
C361 O374 1.271 . S
C361 O375 1.251 . S
C362 O376 1.252 1_565 S
C362 O377 1.272 . S
C363 Sm353 2.846 . S
C363 C364 1.506 . S
C363 O378 1.261 . S
C363 O379 1.242 . S
C364 C363 1.506 . S
C364 C365 1.358 . S
C364 C369 1.382 . S
C365 C364 1.358 . S
C365 C366 1.385 . S
C365 H388 0.930 1_565 S
C366 C365 1.385 . S
C366 C367 1.395 . S
C366 H389 0.929 . S
C367 C366 1.395 . S
C367 C368 1.335 . S
C368 C367 1.335 . S
C368 C369 1.398 . S
C368 H390 0.930 . S
C369 C364 1.382 . S
C369 C368 1.398 . S
C369 H391 0.929 . S
C370 O380 1.271 . S
C370 O381 1.251 . S
C371 O382 1.252 1_545 S
C371 O383 1.272 . S
O372 Sm352 2.543 . S
O372 C354 1.261 . S
O373 Sm352 2.450 . S
O373 C354 1.242 . S
O374 Sm352 2.681 . S
O374 Sm353 2.386 1_545 S
O374 C361 1.271 . S
O375 Sm352 2.464 . S
O375 C361 1.251 . S
O376 Sm352 2.396 . S
O376 C362 1.252 1_545 S
O377 Sm353 2.408 . S
O377 C362 1.272 . S
O378 Sm353 2.543 . S
O378 C363 1.261 . S
O379 Sm353 2.450 . S
O379 C363 1.242 . S
O380 Sm352 2.386 1_565 S
O380 Sm353 2.681 . S
O380 C370 1.271 . S
O381 Sm353 2.464 . S
O381 C370 1.251 . S
O382 Sm353 2.396 . S
O382 C371 1.252 1_565 S
O383 Sm352 2.408 . S
O383 C371 1.272 . S
H384 C356 0.930 1_565 S
H385 C357 0.929 . S
H386 C359 0.930 . S
H387 C360 0.929 . S
H388 C365 0.930 1_545 S
H389 C366 0.929 . S
H390 C368 0.930 . S
H391 C369 0.929 . S
Sm392 C394 2.846 . S
Sm392 O412 2.543 . S
Sm392 O413 2.450 . S
Sm392 O414 2.681 . S
Sm392 O415 2.464 . S
Sm392 O416 2.396 . S
Sm392 O420 2.386 . S
Sm392 O423 2.408 . S
Sm393 C403 2.846 . S
Sm393 O414 2.386 . S
Sm393 O417 2.408 . S
Sm393 O418 2.543 . S
Sm393 O419 2.450 . S
Sm393 O420 2.681 . S
Sm393 O421 2.464 . S
Sm393 O422 2.396 . S
C394 Sm392 2.846 . S
C394 C395 1.506 . S
C394 O412 1.261 . S
C394 O413 1.242 . S
C395 C394 1.506 . S
C395 C396 1.358 1_556 S
C395 C400 1.382 . S
C396 C395 1.358 1_554 S
C396 C397 1.385 . S
C396 H424 0.930 . S
C397 C396 1.385 . S
C397 C398 1.395 . S
C397 H425 0.929 . S
C398 C397 1.395 . S
C398 C399 1.335 . S
C399 C398 1.335 . S
C399 C400 1.398 1_554 S
C399 H426 0.930 . S
C400 C395 1.382 . S
C400 C399 1.398 1_556 S
C400 H427 0.929 . S
C401 O414 1.271 . S
C401 O415 1.251 . S
C402 O416 1.252 . S
C402 O417 1.272 . S
C403 Sm393 2.846 . S
C403 C404 1.506 . S
C403 O418 1.261 . S
C403 O419 1.242 . S
C404 C403 1.506 . S
C404 C405 1.358 . S
C404 C409 1.382 . S
C405 C404 1.358 . S
C405 C406 1.385 . S
C405 H428 0.930 . S
C406 C405 1.385 . S
C406 C407 1.395 . S
C406 H429 0.929 . S
C407 C406 1.395 . S
C407 C408 1.335 . S
C408 C407 1.335 . S
C408 C409 1.398 . S
C408 H430 0.930 . S
C409 C404 1.382 . S
C409 C408 1.398 . S
C409 H431 0.929 . S
C410 O420 1.271 . S
C410 O421 1.251 . S
C411 O422 1.252 . S
C411 O423 1.272 . S
O412 Sm392 2.543 . S
O412 C394 1.261 . S
O413 Sm392 2.450 . S
O413 C394 1.242 . S
O414 Sm392 2.681 . S
O414 Sm393 2.386 . S
O414 C401 1.271 . S
O415 Sm392 2.464 . S
O415 C401 1.251 . S
O416 Sm392 2.396 . S
O416 C402 1.252 . S
O417 Sm393 2.408 . S
O417 C402 1.272 . S
O418 Sm393 2.543 . S
O418 C403 1.261 . S
O419 Sm393 2.450 . S
O419 C403 1.242 . S
O420 Sm392 2.386 . S
O420 Sm393 2.681 . S
O420 C410 1.271 . S
O421 Sm393 2.464 . S
O421 C410 1.251 . S
O422 Sm393 2.396 . S
O422 C411 1.252 . S
O423 Sm392 2.408 . S
O423 C411 1.272 . S
H424 C396 0.930 . S
H425 C397 0.929 . S
H426 C399 0.930 . S
H427 C400 0.929 . S
H428 C405 0.930 . S
H429 C406 0.929 . S
H430 C408 0.930 . S
H431 C409 0.929 . S
Sm432 C434 2.846 . S
Sm432 O452 2.543 . S
Sm432 O453 2.450 . S
Sm432 O454 2.681 1_655 S
Sm432 O455 2.464 . S
Sm432 O456 2.396 . S
Sm432 O460 2.386 . S
Sm432 O463 2.408 1_655 S
Sm433 C443 2.846 . S
Sm433 O454 2.386 . S
Sm433 O457 2.408 1_455 S
Sm433 O458 2.543 . S
Sm433 O459 2.450 . S
Sm433 O460 2.681 1_455 S
Sm433 O461 2.464 . S
Sm433 O462 2.396 . S
C434 Sm432 2.846 . S
C434 C435 1.506 . S
C434 O452 1.261 . S
C434 O453 1.242 . S
C435 C434 1.506 . S
C435 C436 1.358 1_556 S
C435 C440 1.382 . S
C436 C435 1.358 1_554 S
C436 C437 1.385 . S
C436 H464 0.930 . S
C437 C436 1.385 . S
C437 C438 1.395 . S
C437 H465 0.929 . S
C438 C437 1.395 . S
C438 C439 1.335 . S
C439 C438 1.335 . S
C439 C440 1.398 1_554 S
C439 H466 0.930 . S
C440 C435 1.382 . S
C440 C439 1.398 1_556 S
C440 H467 0.929 . S
C441 O454 1.267 1_655 S
C441 O455 1.259 . S
C442 O456 1.252 . S
C442 O457 1.272 . S
C443 Sm433 2.846 . S
C443 C444 1.506 . S
C443 O458 1.261 . S
C443 O459 1.242 . S
C444 C443 1.506 . S
C444 C445 1.358 . S
C444 C449 1.382 . S
C445 C444 1.358 . S
C445 C446 1.385 . S
C445 H468 0.930 . S
C446 C445 1.385 . S
C446 C447 1.395 . S
C446 H469 0.929 . S
C447 C446 1.395 . S
C447 C448 1.335 . S
C448 C447 1.335 . S
C448 C449 1.398 . S
C448 H470 0.930 . S
C449 C444 1.382 . S
C449 C448 1.398 . S
C449 H471 0.929 . S
C450 O460 1.264 1_455 S
C450 O461 1.264 . S
C451 O462 1.252 . S
C451 O463 1.272 . S
O452 Sm432 2.543 . S
O452 C434 1.261 . S
O453 Sm432 2.450 . S
O453 C434 1.242 . S
O454 Sm432 2.681 1_455 S
O454 Sm433 2.386 . S
O454 C441 1.267 1_455 S
O455 Sm432 2.464 . S
O455 C441 1.259 . S
O456 Sm432 2.396 . S
O456 C442 1.252 . S
O457 Sm433 2.408 1_655 S
O457 C442 1.272 . S
O458 Sm433 2.543 . S
O458 C443 1.261 . S
O459 Sm433 2.450 . S
O459 C443 1.242 . S
O460 Sm432 2.386 . S
O460 Sm433 2.681 1_655 S
O460 C450 1.264 1_655 S
O461 Sm433 2.464 . S
O461 C450 1.264 . S
O462 Sm433 2.396 . S
O462 C451 1.252 . S
O463 Sm432 2.408 1_455 S
O463 C451 1.272 . S
H464 C436 0.930 . S
H465 C437 0.929 . S
H466 C439 0.930 . S
H467 C440 0.929 . S
H468 C445 0.930 . S
H469 C446 0.929 . S
H470 C448 0.930 . S
H471 C449 0.929 . S
C472 C473 1.368 . S
C472 C474 1.419 . S
C472 H476 0.930 . S
C473 C472 1.368 . S
C473 C482 1.430 1_545 S
C474 C472 1.419 . S
C474 C475 1.382 . S
C474 H477 0.929 . S
C475 C474 1.382 . S
C475 C481 1.409 1_545 S
H476 C472 0.930 . S
H477 C474 0.929 . S
S478 N479 1.613 . S
S478 N480 1.610 . S
N479 S478 1.613 . S
N479 C482 1.350 . S
N480 S478 1.610 . S
N480 C481 1.351 . S
C481 C475 1.409 1_565 S
C481 N480 1.351 . S
C481 C482 1.434 . S
C482 C473 1.430 1_565 S
C482 N479 1.350 . S
C482 C481 1.434 . S
C483 C484 1.369 . S
C483 C485 1.419 . S
C483 H487 0.930 . S
C484 C483 1.369 . S
C484 C493 1.429 . S
C485 C483 1.419 . S
C485 C486 1.363 . S
C485 H488 0.929 . S
C486 C485 1.363 . S
C486 C492 1.428 . S
H487 C483 0.930 . S
H488 C485 0.929 . S
S489 N490 1.613 . S
S489 N491 1.610 . S
N490 S489 1.613 . S
N490 C493 1.350 . S
N491 S489 1.610 . S
N491 C492 1.351 . S
C492 C486 1.428 . S
C492 N491 1.351 . S
C492 C493 1.434 . S
C493 C484 1.429 . S
C493 N490 1.350 . S
C493 C492 1.434 . S
C494 C495 1.369 . S
C494 C496 1.419 . S
C494 H498 0.930 . S
C495 C494 1.369 . S
C495 C504 1.429 . S
C496 C494 1.419 . S
C496 C497 1.363 . S
C496 H499 0.929 . S
C497 C496 1.363 . S
C497 C503 1.428 . S
H498 C494 0.930 . S
H499 C496 0.929 . S
S500 N501 1.613 . S
S500 N502 1.610 . S
N501 S500 1.613 . S
N501 C504 1.350 . S
N502 S500 1.610 . S
N502 C503 1.351 . S
C503 C497 1.428 . S
C503 N502 1.351 . S
C503 C504 1.434 . S
C504 C495 1.429 . S
C504 N501 1.350 . S
C504 C503 1.434 . S
C505 C506 1.369 1_655 S
C505 C507 1.419 . S
C505 H509 0.930 . S
C506 C505 1.369 1_455 S
C506 C515 1.429 . S
C507 C505 1.419 . S
C507 C508 1.363 1_655 S
C507 H510 0.929 . S
C508 C507 1.363 1_455 S
C508 C514 1.428 . S
H509 C505 0.930 . S
H510 C507 0.929 . S
S511 N512 1.613 . S
S511 N513 1.610 . S
N512 S511 1.613 . S
N512 C515 1.350 . S
N513 S511 1.610 . S
N513 C514 1.351 . S
C514 C508 1.428 . S
C514 N513 1.351 . S
C514 C515 1.434 . S
C515 C506 1.429 . S
C515 N512 1.350 . S
C515 C514 1.434 . S
C516 C517 1.369 1_565 S
C516 C518 1.419 . S
C516 H520 0.930 . S
C517 C516 1.369 1_545 S
C517 C526 1.428 . S
C518 C516 1.419 . S
C518 C519 1.370 . S
C518 H521 0.929 . S
C519 C518 1.370 . S
C519 C525 1.421 1_565 S
H520 C516 0.930 . S
H521 C518 0.929 . S
S522 N523 1.613 . S
S522 N524 1.610 . S
N523 S522 1.613 . S
N523 C526 1.350 . S
N524 S522 1.610 . S
N524 C525 1.351 . S
C525 C519 1.421 1_545 S
C525 N524 1.351 . S
C525 C526 1.434 . S
C526 C517 1.428 . S
C526 N523 1.350 . S
C526 C525 1.434 . S
C527 C528 1.369 . S
C527 C529 1.419 . S
C527 H531 0.930 . S
C528 C527 1.369 . S
C528 C537 1.429 . S
C529 C527 1.419 . S
C529 C530 1.363 . S
C529 H532 0.929 . S
C530 C529 1.363 . S
C530 C536 1.428 . S
H531 C527 0.930 . S
H532 C529 0.929 . S
S533 N534 1.613 . S
S533 N535 1.610 . S
N534 S533 1.613 . S
N534 C537 1.350 . S
N535 S533 1.610 . S
N535 C536 1.351 . S
C536 C530 1.428 . S
C536 N535 1.351 . S
C536 C537 1.434 . S
C537 C528 1.429 . S
C537 N534 1.350 . S
C537 C536 1.434 . S
C538 C539 1.369 . S
C538 C540 1.419 . S
C538 H542 0.930 . S
C539 C538 1.369 . S
C539 C548 1.429 . S
C540 C538 1.419 . S
C540 C541 1.363 . S
C540 H543 0.929 . S
C541 C540 1.363 . S
C541 C547 1.428 . S
H542 C538 0.930 . S
H543 C540 0.929 . S
S544 N545 1.613 . S
S544 N546 1.610 . S
N545 S544 1.613 . S
N545 C548 1.350 . S
N546 S544 1.610 . S
N546 C547 1.351 . S
C547 C541 1.428 . S
C547 N546 1.351 . S
C547 C548 1.434 . S
C548 C539 1.429 . S
C548 N545 1.350 . S
C548 C547 1.434 . S
C549 C550 1.358 1_455 S
C549 C551 1.419 . S
C549 H553 0.930 . S
C550 C549 1.358 1_655 S
C550 C559 1.441 . S
C551 C549 1.419 . S
C551 C552 1.363 1_455 S
C551 H554 0.929 . S
C552 C551 1.363 1_655 S
C552 C558 1.428 . S
H553 C549 0.930 . S
H554 C551 0.929 . S
S555 N556 1.613 . S
S555 N557 1.610 . S
N556 S555 1.613 . S
N556 C559 1.350 . S
N557 S555 1.610 . S
N557 C558 1.351 . S
C558 C552 1.428 . S
C558 N557 1.351 . S
C558 C559 1.434 . S
C559 C550 1.441 . S
C559 N556 1.350 . S
C559 C558 1.434 . S
C560 C561 1.369 1_455 S
C560 C562 1.419 1_455 S
C560 H564 0.930 . S
C561 C560 1.369 1_655 S
C561 C570 1.429 . S
C562 C560 1.419 1_655 S
C562 C563 1.363 . S
C562 H565 0.929 . S
C563 C562 1.363 . S
C563 C569 1.428 . S
H564 C560 0.930 . S
H565 C562 0.929 . S
S566 N567 1.613 . S
S566 N568 1.610 . S
N567 S566 1.613 . S
N567 C570 1.350 . S
N568 S566 1.610 . S
N568 C569 1.351 . S
C569 C563 1.428 . S
C569 N568 1.351 . S
C569 C570 1.434 . S
C570 C561 1.429 . S
C570 N567 1.350 . S
C570 C569 1.434 . S
C571 C572 1.382 . S
C571 C573 1.419 . S
C571 H575 0.935 . S
C572 C571 1.382 . S
C572 C581 1.448 . S
C573 C571 1.419 . S
C573 C574 1.363 . S
C573 H576 0.929 . S
C574 C573 1.363 . S
C574 C580 1.428 . S
H575 C571 0.935 . S
H576 C573 0.929 . S
S577 N578 1.613 . S
S577 N579 1.610 . S
N578 S577 1.613 . S
N578 C581 1.350 . S
N579 S577 1.610 . S
N579 C580 1.351 . S
C580 C574 1.428 . S
C580 N579 1.351 . S
C580 C581 1.434 . S
C581 C572 1.448 . S
C581 N578 1.350 . S
C581 C580 1.434 . S
C582 C583 1.369 . S
C582 C584 1.419 . S
C582 H586 0.930 . S
C583 C582 1.369 . S
C583 C592 1.429 . S
C584 C582 1.419 . S
C584 C585 1.363 . S
C584 H587 0.929 . S
C585 C584 1.363 . S
C585 C591 1.428 . S
H586 C582 0.930 . S
H587 C584 0.929 . S
S588 N589 1.613 . S
S588 N590 1.610 . S
N589 S588 1.613 . S
N589 C592 1.350 . S
N590 S588 1.610 . S
N590 C591 1.351 . S
C591 C585 1.428 . S
C591 N590 1.351 . S
C591 C592 1.434 . S
C592 C583 1.429 . S
C592 N589 1.350 . S
C592 C591 1.434 . S
C593 C594 1.369 . S
C593 C595 1.419 . S
C593 H597 0.930 . S
C594 C593 1.369 . S
C594 C603 1.429 . S
C595 C593 1.419 . S
C595 C596 1.363 . S
C595 H598 0.929 . S
C596 C595 1.363 . S
C596 C602 1.428 . S
H597 C593 0.930 . S
H598 C595 0.929 . S
S599 N600 1.613 . S
S599 N601 1.610 . S
N600 S599 1.613 . S
N600 C603 1.350 . S
N601 S599 1.610 . S
N601 C602 1.351 . S
C602 C596 1.428 . S
C602 N601 1.351 . S
C602 C603 1.434 . S
C603 C594 1.429 . S
C603 N600 1.350 . S
C603 C602 1.434 . S
C604 C605 1.369 . S
C604 C606 1.418 . S
C604 H608 0.930 1_455 S
C605 C604 1.369 . S
C605 C614 1.429 . S
C606 C604 1.418 . S
C606 C607 1.363 . S
C606 H609 0.929 1_554 S
C607 C606 1.363 . S
C607 C613 1.428 . S
H608 C604 0.930 1_655 S
H609 C606 0.929 1_556 S
S610 N611 1.613 . S
S610 N612 1.610 . S
N611 S610 1.613 . S
N611 C614 1.350 . S
N612 S610 1.610 . S
N612 C613 1.351 . S
C613 C607 1.428 . S
C613 N612 1.351 . S
C613 C614 1.434 . S
C614 C605 1.429 . S
C614 N611 1.350 . S
C614 C613 1.434 . S
C615 C616 1.369 . S
C615 C617 1.419 . S
C615 H619 0.930 . S
C616 C615 1.369 . S
C616 C625 1.429 . S
C617 C615 1.419 . S
C617 C618 1.363 . S
C617 H620 0.929 . S
C618 C617 1.363 . S
C618 C624 1.428 . S
H619 C615 0.930 . S
H620 C617 0.929 . S
S621 N622 1.613 1_545 S
S621 N623 1.610 . S
N622 S621 1.613 1_565 S
N622 C625 1.350 1_566 S
N623 S621 1.610 . S
N623 C624 1.351 1_556 S
C624 C618 1.428 . S
C624 N623 1.351 1_554 S
C624 C625 1.434 . S
C625 C616 1.429 . S
C625 N622 1.350 1_544 S
C625 C624 1.434 . S
C626 C627 1.369 . S
C626 C628 1.419 . S
C626 H630 0.930 . S
C627 C626 1.369 . S
C627 C636 1.429 . S
C628 C626 1.419 . S
C628 C629 1.363 . S
C628 H631 0.929 . S
C629 C628 1.363 . S
C629 C635 1.428 . S
H630 C626 0.930 . S
H631 C628 0.929 . S
S632 N633 1.613 . S
S632 N634 1.610 . S
N633 S632 1.613 . S
N633 C636 1.350 1_556 S
N634 S632 1.610 . S
N634 C635 1.351 1_556 S
C635 C629 1.428 . S
C635 N634 1.351 1_554 S
C635 C636 1.434 . S
C636 C627 1.429 . S
C636 N633 1.350 1_554 S
C636 C635 1.434 . S
C637 C638 1.369 . S
C637 C639 1.419 . S
C637 H641 0.930 . S
C638 C637 1.369 . S
C638 C647 1.429 . S
C639 C637 1.419 . S
C639 C640 1.363 . S
C639 H642 0.929 . S
C640 C639 1.363 . S
C640 C646 1.428 . S
H641 C637 0.930 . S
H642 C639 0.929 . S
S643 N644 1.613 . S
S643 N645 1.610 . S
N644 S643 1.613 . S
N644 C647 1.350 . S
N645 S643 1.610 . S
N645 C646 1.351 . S
C646 C640 1.428 . S
C646 N645 1.351 . S
C646 C647 1.434 . S
C647 C638 1.429 . S
C647 N644 1.350 . S
C647 C646 1.434 . S
C648 C649 1.369 . S
C648 C650 1.419 . S
C648 H652 0.930 . S
C649 C648 1.369 . S
C649 C658 1.429 . S
C650 C648 1.419 . S
C650 C651 1.363 . S
C650 H653 0.929 . S
C651 C650 1.363 . S
C651 C657 1.428 . S
H652 C648 0.930 . S
H653 C650 0.929 . S
S654 N655 1.613 . S
S654 N656 1.610 . S
N655 S654 1.613 . S
N655 C658 1.350 . S
N656 S654 1.610 . S
N656 C657 1.351 . S
C657 C651 1.428 . S
C657 N656 1.351 . S
C657 C658 1.434 . S
C658 C649 1.429 . S
C658 N655 1.350 . S
C658 C657 1.434 . S
C659 C660 1.369 . S
C659 C661 1.419 . S
C659 H663 0.930 . S
C660 C659 1.369 . S
C660 C669 1.429 . S
C661 C659 1.419 . S
C661 C662 1.363 . S
C661 H664 0.929 . S
C662 C661 1.363 . S
C662 C668 1.428 . S
H663 C659 0.930 . S
H664 C661 0.929 . S
S665 N666 1.613 . S
S665 N667 1.610 . S
N666 S665 1.613 . S
N666 C669 1.350 . S
N667 S665 1.610 . S
N667 C668 1.351 . S
C668 C662 1.428 . S
C668 N667 1.351 . S
C668 C669 1.434 . S
C669 C660 1.429 . S
C669 N666 1.350 . S
C669 C668 1.434 . S
C670 C671 1.369 . S
C670 C672 1.419 . S
C670 H674 0.930 . S
C671 C670 1.369 . S
C671 C680 1.429 . S
C672 C670 1.419 . S
C672 C673 1.363 . S
C672 H675 0.929 . S
C673 C672 1.363 . S
C673 C679 1.428 . S
H674 C670 0.930 . S
H675 C672 0.929 . S
S676 N677 1.613 . S
S676 N678 1.610 . S
N677 S676 1.613 . S
N677 C680 1.350 . S
N678 S676 1.610 . S
N678 C679 1.351 . S
C679 C673 1.428 . S
C679 N678 1.351 . S
C679 C680 1.434 . S
C680 C671 1.429 . S
C680 N677 1.350 . S
C680 C679 1.434 . S
C681 C682 1.369 . S
C681 C683 1.419 . S
C681 H685 0.930 . S
C682 C681 1.369 . S
C682 C691 1.429 . S
C683 C681 1.419 . S
C683 C684 1.363 . S
C683 H686 0.929 . S
C684 C683 1.363 . S
C684 C690 1.428 . S
H685 C681 0.930 . S
H686 C683 0.929 . S
S687 N688 1.613 . S
S687 N689 1.610 . S
N688 S687 1.613 . S
N688 C691 1.350 . S
N689 S687 1.610 . S
N689 C690 1.351 . S
C690 C684 1.428 . S
C690 N689 1.351 . S
C690 C691 1.434 . S
C691 C682 1.429 . S
C691 N688 1.350 . S
C691 C690 1.434 . S
C692 C693 1.369 . S
C692 C694 1.419 . S
C692 H696 0.930 . S
C693 C692 1.369 . S
C693 C702 1.429 1_655 S
C694 C692 1.419 . S
C694 C695 1.363 . S
C694 H697 0.929 . S
C695 C694 1.363 . S
C695 C701 1.428 1_655 S
H696 C692 0.930 . S
H697 C694 0.929 . S
S698 N699 1.613 . S
S698 N700 1.610 . S
N699 S698 1.613 . S
N699 C702 1.350 . S
N700 S698 1.610 . S
N700 C701 1.351 . S
C701 C695 1.428 1_455 S
C701 N700 1.351 . S
C701 C702 1.434 . S
C702 C693 1.429 1_455 S
C702 N699 1.350 . S
C702 C701 1.434 . S
C703 C704 1.369 . S
C703 C705 1.419 . S
C703 H707 0.930 . S
C704 C703 1.369 . S
C704 C713 1.428 1_565 S
C705 C703 1.419 . S
C705 C706 1.363 . S
C705 H708 0.929 . S
C706 C705 1.363 . S
C706 C712 1.428 . S
H707 C703 0.930 . S
H708 C705 0.929 . S
S709 N710 1.613 . S
S709 N711 1.610 . S
N710 S709 1.613 . S
N710 C713 1.351 . S
N711 S709 1.610 . S
N711 C712 1.351 1_545 S
C712 C706 1.428 . S
C712 N711 1.351 1_565 S
C712 C713 1.434 1_565 S
C713 C704 1.428 1_545 S
C713 N710 1.351 . S
C713 C712 1.434 1_545 S
C714 C715 1.369 . S
C714 C716 1.419 . S
C714 H718 0.930 . S
C715 C714 1.369 . S
C715 C724 1.429 . S
C716 C714 1.419 . S
C716 C717 1.363 . S
C716 H719 0.929 . S
C717 C716 1.363 . S
C717 C723 1.428 . S
H718 C714 0.930 . S
H719 C716 0.929 . S
S720 N721 1.613 . S
S720 N722 1.610 . S
N721 S720 1.613 . S
N721 C724 1.350 . S
N722 S720 1.610 . S
N722 C723 1.351 . S
C723 C717 1.428 . S
C723 N722 1.351 . S
C723 C724 1.434 . S
C724 C715 1.429 . S
C724 N721 1.350 . S
C724 C723 1.434 . S
C725 C726 1.369 . S
C725 C727 1.419 . S
C725 H729 0.930 . S
C726 C725 1.369 . S
C726 C735 1.429 . S
C727 C725 1.419 . S
C727 C728 1.363 . S
C727 H730 0.929 . S
C728 C727 1.363 . S
C728 C734 1.428 . S
H729 C725 0.930 . S
H730 C727 0.929 . S
S731 N732 1.613 . S
S731 N733 1.610 . S
N732 S731 1.613 . S
N732 C735 1.350 . S
N733 S731 1.610 . S
N733 C734 1.351 . S
C734 C728 1.428 . S
C734 N733 1.351 . S
C734 C735 1.434 . S
C735 C726 1.429 . S
C735 N732 1.350 . S
C735 C734 1.434 . S
C473 C255 2.509 1_545 S
C475 C321 2.828 1_545 S
C486 C361 2.863 . S
C484 C294 2.495 . S
C497 C401 2.854 . S
C495 C177 2.534 . S
C508 C441 2.841 1_455 S
C506 C216 2.516 1_455 S
C519 C330 2.829 1_564 S
C517 C99 2.512 1_545 S
C528 C138 2.505 . S
C530 C370 2.865 1_554 S
C539 C21 2.533 . S
C541 C410 2.853 1_554 S
C550 C60 2.523 . S
C552 C450 2.837 1_654 S
C563 C327 0.802 . S
C561 C196 0.792 . S
C574 C367 0.786 . S
C572 C235 0.805 . S
C585 C407 0.745 . S
C583 C289 0.769 . S
C594 C157 0.767 . S
C596 C447 0.763 . S
C605 C40 0.788 1_455 S
C607 C318 0.805 . S
C618 C358 0.788 . S
C616 C79 0.803 1_545 S
C629 C398 0.762 . S
C627 C133 0.755 . S
C638 C1 0.779 . S
C640 C438 0.757 . S
C649 C211 3.222 . S
C651 C331 3.744 . S
C660 C250 3.192 . S
C662 C371 3.710 . S
C673 C411 3.709 . S
C671 C274 3.193 . S
C684 C451 3.733 . S
C682 C172 3.211 . S
C693 C55 3.226 1_655 S
C695 C322 3.750 . S
C706 C362 3.711 . S
C704 C94 3.193 1_565 S
C717 C402 3.710 . S
C715 C118 3.192 . S
C726 C16 3.214 . S
C728 C442 3.740 . S
