# Generated by pormake.
# Topology pyr, (3,6)-cn, num edge types: 1
# Building blocks:
#     Node 0, Type 0, BuildingBlock: INOVEN_clean_linker_0, # of connection points: 3
#     Node 1, Type 0, BuildingBlock: INOVEN_clean_linker_0, # of connection points: 3
#     Node 2, Type 0, BuildingBlock: INOVEN_clean_linker_0, # of connection points: 3
#     Node 3, Type 0, BuildingBlock: INOVEN_clean_linker_0, # of connection points: 3
#     Node 4, Type 0, BuildingBlock: INOVEN_clean_linker_0, # of connection points: 3
#     Node 5, Type 0, BuildingBlock: INOVEN_clean_linker_0, # of connection points: 3
#     Node 6, Type 0, BuildingBlock: INOVEN_clean_linker_0, # of connection points: 3
#     Node 7, Type 0, BuildingBlock: INOVEN_clean_linker_0, # of connection points: 3
#     Node 8, Type 1, BuildingBlock: BETDAH_clean_sbu_0, # of connection points: 6
#     Node 9, Type 1, BuildingBlock: BETDAH_clean_sbu_0, # of connection points: 6
#     Node 10, Type 1, BuildingBlock: BETDAH_clean_sbu_0, # of connection points: 6
#     Node 11, Type 1, BuildingBlock: BETDAH_clean_sbu_0, # of connection points: 6
#     Edge 12, Type (0, 1), None
#     Edge 13, Type (0, 1), None
#     Edge 14, Type (0, 1), None
#     Edge 15, Type (0, 1), None
#     Edge 16, Type (0, 1), None
#     Edge 17, Type (0, 1), None
#     Edge 18, Type (0, 1), None
#     Edge 19, Type (0, 1), None
#     Edge 20, Type (0, 1), None
#     Edge 21, Type (0, 1), None
#     Edge 22, Type (0, 1), None
#     Edge 23, Type (0, 1), None
#     Edge 24, Type (0, 1), None
#     Edge 25, Type (0, 1), None
#     Edge 26, Type (0, 1), None
#     Edge 27, Type (0, 1), None
#     Edge 28, Type (0, 1), None
#     Edge 29, Type (0, 1), None
#     Edge 30, Type (0, 1), None
#     Edge 31, Type (0, 1), None
#     Edge 32, Type (0, 1), None
#     Edge 33, Type (0, 1), None
#     Edge 34, Type (0, 1), None
#     Edge 35, Type (0, 1), None
# Relax obj value: 0.430
# Max RMSD: 0.254
# Mean RMSD: 0.151
data_MOF--net-pyr--node1-BETDAH_clean_sbu_0--node2-INOVEN_clean_linker_0--edge1-none
_symmetry_space_group_name_H-M    P1
_symmetry_Int_Tables_number       1
_symmetry_cell_setting            triclinic
loop_
_symmetry_equiv_pos_as_xyz
'x, y, z'
_cell_length_a     17.015766
_cell_length_b     17.834269
_cell_length_c     16.852575
_cell_angle_alpha  91.415172
_cell_angle_beta   89.898124
_cell_angle_gamma 113.23602
loop_
_atom_site_label
_atom_site_type_symbol
_atom_site_fract_x
_atom_site_fract_y
_atom_site_fract_z
_atom_type_partial_charge
H0 H 0.42038 0.41447 0.49653 0.0
H1 H 0.6186 0.32631 0.45398 0.0
H2 H 0.53514 0.43936 0.26926 0.0
N3 N 0.42231 0.47232 0.35211 0.0
N4 N 0.37684 0.49486 0.39662 0.0
C5 C 0.47144 0.41154 0.45977 0.0
C6 C 0.52402 0.37318 0.48744 0.0
C7 C 0.48083 0.44195 0.38308 0.0
C8 C 0.53738 0.42707 0.33181 0.0
C9 C 0.58287 0.3811 0.35691 0.0
C10 C 0.58318 0.36216 0.4361 0.0
H11 H 0.14112 0.94662 0.70274 0.0
H12 H 0.24636 0.96482 0.93716 0.0
H13 H 1.03267 1.02878 0.89929 0.0
N14 N 1.02666 1.0052 0.74108 0.0
N15 N 1.01726 1.07391 0.74053 0.0
C16 C 0.13963 0.95863 0.76595 0.0
C17 C 0.20026 0.95027 0.81719 0.0
C18 C 0.08031 0.98834 0.79535 0.0
C19 C 0.08028 1.00822 0.87602 0.0
C20 C 0.14299 1.00427 0.9266 0.0
C21 C 0.19944 0.97084 0.89767 0.0
H22 H 0.58649 0.42474 0.95668 0.0
H23 H 0.7749 0.4579 0.13909 0.0
H24 H 0.80372 0.65444 0.97993 0.0
N25 N 0.65622 0.56944 0.89015 0.0
N26 N 0.66405 0.64127 0.87568 0.0
C27 C 0.6451 0.46327 0.98714 0.0
C28 C 0.67431 0.43145 1.05241 0.0
C29 C 0.68908 0.54433 0.96064 0.0
C30 C 0.76726 0.59356 1.00069 0.0
C31 C 0.80039 0.56246 1.06496 0.0
C32 C 0.7516 0.48215 1.0903 0.0
H33 H 0.77244 0.74229 0.48019 0.0
H34 H 0.83601 0.9608 0.6218 0.0
H35 H 1.0126 0.94907 0.44375 0.0
N36 N 0.91325 0.78803 0.39007 0.0
N37 N 0.97617 0.81032 0.34305 0.0
C38 C 0.81591 0.80435 0.49469 0.0
C39 C 0.79364 0.84787 0.5573 0.0
C40 C 0.89495 0.83897 0.45174 0.0
C41 C 0.95209 0.92108 0.47383 0.0
C42 C 0.9299 0.967 0.53488 0.0
C43 C 0.85168 0.92807 0.57461 0.0
H44 H 0.59407 1.01789 0.88953 0.0
H45 H 0.72045 0.86254 0.83642 0.0
H46 H 0.70049 0.93948 1.07855 0.0
N47 N 0.60355 1.01899 1.03822 0.0
N48 N 0.54684 1.04098 1.01401 0.0
C49 C 0.61953 0.97477 0.90847 0.0
C50 C 0.66051 0.94494 0.85418 0.0
C51 C 0.62822 0.96746 0.9892 0.0
C52 C 0.68333 0.93211 1.01632 0.0
C53 C 0.72113 0.89539 0.96093 0.0
C54 C 0.69795 0.89323 0.88066 0.0
H55 H 0.95469 0.39593 0.34253 0.0
H56 H 0.11528 0.27731 0.4172 0.0
H57 H 0.08625 0.46717 0.56284 0.0
N58 N 0.96031 0.47207 0.48108 0.0
N59 N 0.90002 0.47042 0.43834 0.0
C60 C 1.00395 0.39444 0.38241 0.0
C61 C 1.04579 0.34222 0.36512 0.0
C62 C 1.01869 0.43904 0.45364 0.0
C63 C 0.07833 0.43398 0.50653 0.0
C64 C 0.10638 0.36963 0.49768 0.0
C65 C 0.09584 0.3281 0.42422 0.0
H66 H 0.53122 0.99349 0.37538 0.0
H67 H 0.34545 0.96239 0.19091 0.0
H68 H 0.32664 0.7581 0.33483 0.0
N69 N 0.46927 0.84321 0.42824 0.0
N70 N 0.45834 0.77024 0.44006 0.0
C71 C 0.47466 0.95487 0.34213 0.0
C72 C 0.444 0.98903 0.28021 0.0
C73 C 0.43491 0.8713 0.36159 0.0
C74 C 0.3597 0.82121 0.3186 0.0
C75 C 0.32513 0.85358 0.25714 0.0
C76 C 0.36974 0.93706 0.23798 0.0
H77 H 0.12174 0.4555 0.88004 0.0
H78 H 0.2996 0.45194 0.69736 0.0
H79 H 0.35276 0.67036 0.83582 0.0
N80 N 0.21456 0.62096 0.92983 0.0
N81 N 0.15258 0.59859 0.97814 0.0
C82 C 0.18077 0.48594 0.84834 0.0
C83 C 0.2051 0.44162 0.78661 0.0
C84 C 0.23423 0.57014 0.86839 0.0
C85 C 0.3116 0.60712 0.8232 0.0
C86 C 0.33491 0.56411 0.7607 0.0
C87 C 0.28104 0.48325 0.74502 0.0
Ho88 Ho 0.14071 0.18959 0.66184 0.0
Ho89 Ho 0.99539 0.21906 0.66686 0.0
C90 C 0.15617 0.35338 0.75734 0.0
C91 C 0.27702 0.16118 0.64389 0.0
C92 C 0.36717 0.21245 0.6424 0.0
C93 C 0.3941 0.29563 0.66273 0.0
C94 C 0.46191 0.35218 0.62213 0.0
C95 C 0.49906 0.32481 0.55941 0.0
C96 C 0.48402 0.24138 0.55265 0.0
C97 C 0.4178 0.18512 0.59459 0.0
C98 C 0.05468 0.14009 0.79959 0.0
C99 C 0.98567 1.05398 0.56436 0.0
C100 C 0.84103 0.20632 0.67539 0.0
C101 C 0.77822 0.12606 0.6919 0.0
C102 C 0.81263 1.0695 0.70963 0.0
C103 C 0.76919 1.00268 0.75293 0.0
C104 C 0.68765 0.98961 0.77935 0.0
C105 C 0.64615 1.03835 0.74856 0.0
C106 C 0.69283 1.10886 0.70735 0.0
C107 C 0.10698 0.32687 0.57064 0.0
O108 O 0.1963 0.32054 0.70855 0.0
O109 O 0.07191 0.31472 0.76294 0.0
O110 O 0.23923 0.15657 0.71164 0.0
O111 O 0.23399 0.17335 0.58511 0.0
O112 O 0.13351 0.18949 0.79463 0.0
O113 O 1.02259 0.12724 0.73063 0.0
O114 O 0.94867 1.1053 0.58203 0.0
O115 O 0.06425 1.07262 0.59008 0.0
O116 O 0.87918 0.21017 0.60741 0.0
O117 O 0.89521 0.23546 0.73455 0.0
O118 O 0.06613 0.3433 0.62807 0.0
O119 O 0.09256 0.25139 0.57146 0.0
H120 H 0.35561 0.31736 0.7006 0.0
H121 H 0.47456 0.41636 0.63024 0.0
H122 H 0.51199 0.21767 0.50573 0.0
H123 H 0.39751 1.12078 0.57923 0.0
H124 H 0.87813 1.08267 0.70058 0.0
H125 H 0.8055 0.96888 0.77344 0.0
H126 H 0.5811 1.02801 0.76333 0.0
H127 H 0.66474 0.15196 0.69357 0.0
Ho128 Ho 0.62866 0.20584 0.19532 0.0
Ho129 Ho 0.49008 0.22107 0.15035 0.0
C130 C 0.5835 0.31893 0.30171 0.0
C131 C 0.76448 0.17411 0.20198 0.0
C132 C 0.85527 0.20533 0.22113 0.0
C133 C 0.91383 0.27853 0.19094 0.0
C134 C 0.99366 0.31662 0.22743 0.0
C135 C 1.01088 0.28493 0.29789 0.0
C136 C 0.95969 0.20438 0.31725 0.0
C137 C 0.88148 0.16478 0.27894 0.0
C138 C 0.49109 1.07827 0.25894 0.0
C139 C 0.543 1.11203 1.04522 0.0
C140 C 0.34151 0.2268 0.14078 0.0
C141 C 0.2608 0.16314 0.1161 0.0
C142 C 0.25269 1.08215 0.11998 0.0
C143 C 0.20345 1.02533 1.06383 0.0
C144 C 0.16123 1.04883 1.00381 0.0
C145 C 0.15735 0.12618 1.00962 0.0
C146 C 0.20787 0.18355 1.06542 0.0
C147 C 0.6236 0.34537 1.08078 0.0
O148 O 0.6531 0.31571 0.27239 0.0
O149 O 0.5092 0.26937 0.27393 0.0
O150 O 0.7146 0.16941 0.262 0.0
O151 O 0.74017 0.19934 0.13832 0.0
O152 O 0.5577 0.12718 0.29758 0.0
O153 O 0.49594 1.1046 0.18928 0.0
O154 O 0.47316 1.10957 1.07871 0.0
O155 O 0.61439 0.17002 1.06813 0.0
O156 O 0.39732 0.24813 1.08376 0.0
O157 O 0.37385 0.21524 0.20716 0.0
O158 O 0.55417 0.29702 1.04545 0.0
O159 O 0.62286 0.3221 0.15187 0.0
H160 H 0.89547 0.30987 0.14484 0.0
H161 H 1.03371 0.37791 0.21051 0.0
H162 H 0.97208 0.17772 0.37044 0.0
H163 H 0.83746 1.10675 0.30092 0.0
H164 H 0.29349 1.06548 0.15879 0.0
H165 H 0.20729 0.9662 1.06223 0.0
H166 H 0.12554 0.14674 0.96478 0.0
H167 H 0.21437 0.24629 1.06159 0.0
Ho168 Ho 0.56001 0.64028 0.6207 0.0
Ho169 Ho 0.56208 0.76957 0.69061 0.0
C170 C 0.62996 0.66228 0.80375 0.0
C171 C 0.64998 0.56971 0.56181 0.0
C172 C 0.70135 0.52941 0.52824 0.0
C173 C 0.74715 0.50081 0.57954 0.0
C174 C 0.81359 0.48179 0.55028 0.0
C175 C 0.83433 0.49124 0.46936 0.0
C176 C 0.78664 0.51734 0.41782 0.0
C177 C 0.72157 0.53847 0.44757 0.0
C178 C 0.41261 0.59909 0.70681 0.0
C179 C 0.49349 0.74776 0.5096 0.0
C180 C 0.45644 0.83314 0.72672 0.0
C181 C 0.39347 0.86734 0.74487 0.0
C182 C 0.31483 0.83864 0.70403 0.0
C183 C 0.25213 0.86679 0.72594 0.0
C184 C 0.26828 0.92533 0.7877 0.0
C185 C 0.34932 0.95712 0.82476 0.0
C186 C 0.40973 0.92615 0.8053 0.0
C187 C 0.71293 0.81233 0.60875 0.0
O188 O 0.60781 0.61271 0.7405 0.0
O189 O 0.61663 0.73083 0.80061 0.0
O190 O 0.56786 0.54465 0.54663 0.0
O191 O 0.68202 0.63014 0.61325 0.0
O192 O 0.41809 0.56738 0.63716 0.0
O193 O 0.48748 0.64537 0.72894 0.0
O194 O 0.52633 0.80057 0.56872 0.0
O195 O 0.49593 0.67472 0.51526 0.0
O196 O 0.53543 0.86394 0.75263 0.0
O197 O 0.43547 0.76722 0.68192 0.0
O198 O 0.70461 0.84309 0.67802 0.0
O199 O 0.63853 0.76521 0.58451 0.0
H200 H 0.73396 0.49669 0.64262 0.0
H201 H 0.84897 0.4602 0.59075 0.0
H202 H 0.80171 0.52376 0.35524 0.0
H203 H 0.68866 0.56387 0.40824 0.0
H204 H 0.30077 0.79281 0.65678 0.0
H205 H 0.19049 0.84081 0.69628 0.0
H206 H 0.36609 1.00473 0.87042 0.0
H207 H 0.46798 0.94675 0.83909 0.0
Ho208 Ho 0.05251 0.64936 0.21087 0.0
Ho209 Ho 0.07546 0.76034 0.11085 0.0
C210 C 0.23964 0.80296 0.21672 0.0
C211 C 0.08515 0.54503 0.29141 0.0
C212 C 0.16669 0.54068 0.31493 0.0
C213 C 0.20769 0.50486 0.26325 0.0
C214 C 0.27968 0.49299 0.28848 0.0
C215 C 0.31148 0.51626 0.36608 0.0
C216 C 0.2728 0.5546 0.41665 0.0
C217 C 0.20169 0.56801 0.39091 0.0
C218 C 0.99061 0.75545 0.28341 0.0
C219 C 0.88781 0.61054 1.1034 0.0
C220 C 1.03678 0.86455 1.03786 0.0
C221 C 0.95212 0.86342 1.01997 0.0
C222 C 0.89597 0.86577 1.08041 0.0
C223 C 0.81815 0.87024 1.0615 0.0
C224 C 0.79609 0.87522 0.98188 0.0
C225 C 0.85211 0.86864 0.92212 0.0
C226 C 0.92695 0.85979 0.9412 0.0
C227 C 0.13758 0.65407 1.03732 0.0
O228 O 0.19458 0.72716 0.23722 0.0
O229 O 0.20552 0.83499 0.16441 0.0
O230 O 0.06619 0.60226 0.32486 0.0
O231 O 0.06567 0.53454 0.21616 0.0
O232 O 0.95161 0.67634 0.28269 0.0
O233 O 0.05923 0.77407 0.24272 0.0
O234 O 0.93421 0.68534 1.08217 0.0
O235 O 0.92135 0.57768 0.15582 0.0
O236 O 0.05861 0.81116 0.99987 0.0
O237 O 0.05879 0.87344 0.11251 0.0
O238 O 0.17508 0.73341 1.03661 0.0
O239 O 0.06936 0.63508 1.07906 0.0
H240 H 0.18295 0.48379 0.20402 0.0
H241 H 0.30813 0.46254 0.24844 0.0
H242 H 0.29644 0.57215 0.47679 0.0
H243 H 0.17183 0.59636 0.43181 0.0
H244 H 0.91226 0.86504 0.14241 0.0
H245 H 0.77707 0.87172 0.10991 0.0
H246 H 0.84264 0.87358 0.85968 0.0
H247 H 0.96713 0.85352 0.89378 0.0
loop_
_geom_bond_atom_site_label_1
_geom_bond_atom_site_label_2
_geom_bond_distance
_geom_bond_site_symmetry_2
_ccdc_geom_bond_type
H0 C5 0.929 . S
H1 C10 0.931 . S
H2 C8 0.930 . S
N3 N4 1.234 . S
N3 C7 1.453 . S
N4 N3 1.234 . S
C5 H0 0.929 . S
C5 C6 1.373 . S
C5 C7 1.368 . S
C6 C5 1.373 . S
C6 C10 1.397 . S
C7 N3 1.453 . S
C7 C5 1.368 . S
C7 C8 1.373 . S
C8 H2 0.930 . S
C8 C7 1.373 . S
C8 C9 1.371 . S
C9 C8 1.371 . S
C9 C10 1.383 . S
C10 H1 0.931 . S
C10 C6 1.397 . S
C10 C9 1.383 . S
H11 C16 0.929 . S
H12 C21 0.931 . S
H13 C19 0.930 . S
N14 N15 1.234 1_455 S
N14 C18 1.453 . S
N15 N14 1.234 1_655 S
C16 H11 0.929 . S
C16 C17 1.373 . S
C16 C18 1.368 . S
C17 C16 1.373 . S
C17 C21 1.397 . S
C18 N14 1.453 . S
C18 C16 1.368 . S
C18 C19 1.373 . S
C19 H13 0.930 . S
C19 C18 1.373 . S
C19 C20 1.371 . S
C20 C19 1.371 . S
C20 C21 1.383 . S
C21 H12 0.931 . S
C21 C17 1.397 . S
C21 C20 1.383 . S
H22 C27 0.929 . S
H23 C32 0.931 1_554 S
H24 C30 0.930 . S
N25 N26 1.234 . S
N25 C29 1.453 . S
N26 N25 1.234 . S
C27 H22 0.929 . S
C27 C28 1.373 . S
C27 C29 1.368 . S
C28 C27 1.373 . S
C28 C32 1.397 . S
C29 N25 1.453 . S
C29 C27 1.368 . S
C29 C30 1.373 . S
C30 H24 0.930 . S
C30 C29 1.373 . S
C30 C31 1.371 . S
C31 C30 1.371 . S
C31 C32 1.383 . S
C32 H23 0.931 1_556 S
C32 C28 1.397 . S
C32 C31 1.383 . S
H33 C38 0.929 . S
H34 C43 0.931 . S
H35 C41 0.930 . S
N36 N37 1.234 . S
N36 C40 1.453 . S
N37 N36 1.234 . S
C38 H33 0.929 . S
C38 C39 1.373 . S
C38 C40 1.368 . S
C39 C38 1.373 . S
C39 C43 1.397 . S
C40 N36 1.453 . S
C40 C38 1.368 . S
C40 C41 1.373 . S
C41 H35 0.930 . S
C41 C40 1.373 . S
C41 C42 1.371 . S
C42 C41 1.371 . S
C42 C43 1.383 . S
C43 H34 0.931 . S
C43 C39 1.397 . S
C43 C42 1.383 . S
H44 C49 0.929 . S
H45 C54 0.931 . S
H46 C52 0.930 . S
N47 N48 1.234 . S
N47 C51 1.453 . S
N48 N47 1.234 . S
C49 H44 0.929 . S
C49 C50 1.373 . S
C49 C51 1.368 . S
C50 C49 1.373 . S
C50 C54 1.397 . S
C51 N47 1.453 . S
C51 C49 1.368 . S
C51 C52 1.373 . S
C52 H46 0.930 . S
C52 C51 1.373 . S
C52 C53 1.371 . S
C53 C52 1.371 . S
C53 C54 1.383 . S
C54 H45 0.931 . S
C54 C50 1.397 . S
C54 C53 1.383 . S
H55 C60 0.929 . S
H56 C65 0.931 . S
H57 C63 0.930 . S
N58 N59 1.234 . S
N58 C62 1.453 . S
N59 N58 1.234 . S
C60 H55 0.929 . S
C60 C61 1.373 . S
C60 C62 1.368 . S
C61 C60 1.373 . S
C61 C65 1.397 . S
C62 N58 1.453 . S
C62 C60 1.368 . S
C62 C63 1.373 . S
C63 H57 0.930 . S
C63 C62 1.373 . S
C63 C64 1.371 . S
C64 C63 1.371 . S
C64 C65 1.383 . S
C65 H56 0.931 . S
C65 C61 1.397 . S
C65 C64 1.383 . S
H66 C71 0.929 . S
H67 C76 0.931 . S
H68 C74 0.930 . S
N69 N70 1.234 . S
N69 C73 1.453 . S
N70 N69 1.234 . S
C71 H66 0.929 . S
C71 C72 1.373 . S
C71 C73 1.368 . S
C72 C71 1.373 . S
C72 C76 1.397 . S
C73 N69 1.453 . S
C73 C71 1.368 . S
C73 C74 1.373 . S
C74 H68 0.930 . S
C74 C73 1.373 . S
C74 C75 1.371 . S
C75 C74 1.371 . S
C75 C76 1.383 . S
C76 H67 0.931 . S
C76 C72 1.397 . S
C76 C75 1.383 . S
H77 C82 0.929 . S
H78 C87 0.931 . S
H79 C85 0.930 . S
N80 N81 1.234 . S
N80 C84 1.453 . S
N81 N80 1.234 . S
C82 H77 0.929 . S
C82 C83 1.373 . S
C82 C84 1.368 . S
C83 C82 1.373 . S
C83 C87 1.397 . S
C84 N80 1.453 . S
C84 C82 1.368 . S
C84 C85 1.373 . S
C85 H79 0.930 . S
C85 C84 1.373 . S
C85 C86 1.371 . S
C86 C85 1.371 . S
C86 C87 1.383 . S
C87 H78 0.931 . S
C87 C83 1.397 . S
C87 C86 1.383 . S
Ho88 C91 2.811 . S
Ho88 O108 2.322 . S
Ho88 O110 2.378 . S
Ho88 O111 2.524 . S
Ho88 O112 2.370 1_545 S
Ho88 O113 2.669 . S
Ho88 O115 2.346 1_445 S
Ho88 O119 2.305 1_455 S
Ho89 C100 2.811 1_545 S
Ho89 O109 2.346 1_655 S
Ho89 O113 2.304 1_655 S
Ho89 O114 2.322 1_545 S
Ho89 O116 2.378 1_545 S
Ho89 O117 2.524 1_545 S
Ho89 O118 2.381 . S
Ho89 O119 2.669 . S
C90 O108 1.259 . S
C90 O109 1.268 . S
C91 Ho88 2.811 . S
C91 C92 1.488 . S
C91 O110 1.215 . S
C91 O111 1.289 . S
C92 C91 1.488 . S
C92 C93 1.348 . S
C92 C97 1.413 . S
C93 C92 1.348 . S
C93 C94 1.442 . S
C93 H120 0.930 . S
C94 C93 1.442 . S
C94 C95 1.381 . S
C94 H121 0.931 . S
C95 C94 1.381 . S
C95 C96 1.321 . S
C96 C95 1.321 . S
C96 C97 1.403 . S
C96 H122 0.934 . S
C97 C92 1.413 . S
C97 C96 1.403 . S
C97 H123 0.930 . S
C98 O112 1.276 . S
C98 O113 1.257 1_565 S
C99 O114 1.259 . S
C99 O115 1.268 . S
C100 Ho89 2.811 1_565 S
C100 C101 1.488 . S
C100 O116 1.215 . S
C100 O117 1.289 . S
C101 C100 1.488 . S
C101 C102 1.348 . S
C101 C106 1.413 . S
C102 C101 1.348 . S
C102 C103 1.442 . S
C102 H124 0.930 . S
C103 C102 1.442 . S
C103 C104 1.381 . S
C103 H125 0.931 . S
C104 C103 1.381 . S
C104 C105 1.321 . S
C105 C104 1.321 . S
C105 C106 1.403 . S
C105 H126 0.934 . S
C106 C101 1.413 . S
C106 C105 1.403 . S
C106 H127 0.930 . S
C107 O118 1.275 . S
C107 O119 1.256 . S
O108 Ho88 2.322 . S
O108 C90 1.259 . S
O109 Ho89 2.346 1_455 S
O109 C90 1.268 . S
O110 Ho88 2.378 . S
O110 C91 1.215 . S
O111 Ho88 2.524 . S
O111 C91 1.289 . S
O112 Ho88 2.370 1_565 S
O112 C98 1.276 . S
O113 Ho88 2.669 . S
O113 Ho89 2.304 1_455 S
O113 C98 1.257 1_545 S
O114 Ho89 2.322 1_565 S
O114 C99 1.259 . S
O115 Ho88 2.346 1_665 S
O115 C99 1.268 . S
O116 Ho89 2.378 1_565 S
O116 C100 1.215 . S
O117 Ho89 2.524 1_565 S
O117 C100 1.289 . S
O118 Ho89 2.381 . S
O118 C107 1.275 . S
O119 Ho88 2.305 1_655 S
O119 Ho89 2.669 . S
O119 C107 1.256 . S
H120 C93 0.930 . S
H121 C94 0.931 . S
H122 C96 0.934 . S
H123 C97 0.930 . S
H124 C102 0.930 . S
H125 C103 0.931 . S
H126 C105 0.934 . S
H127 C106 0.930 . S
Ho128 C131 2.811 . S
Ho128 O148 2.322 . S
Ho128 O150 2.378 . S
Ho128 O151 2.524 . S
Ho128 O152 2.381 1_545 S
Ho128 O153 2.669 1_545 S
Ho128 O155 2.346 1_545 S
Ho128 O159 2.305 . S
Ho129 C140 2.811 1_544 S
Ho129 O149 2.346 . S
Ho129 O153 2.305 1_545 S
Ho129 O154 2.322 1_544 S
Ho129 O156 2.378 1_554 S
Ho129 O157 2.524 1_544 S
Ho129 O158 2.381 1_554 S
Ho129 O159 2.669 . S
C130 O148 1.259 . S
C130 O149 1.268 . S
C131 Ho128 2.811 . S
C131 C132 1.488 . S
C131 O150 1.215 . S
C131 O151 1.289 . S
C132 C131 1.488 . S
C132 C133 1.348 . S
C132 C137 1.413 . S
C133 C132 1.348 . S
C133 C134 1.442 . S
C133 H160 0.930 . S
C134 C133 1.442 . S
C134 C135 1.381 . S
C134 H161 0.931 . S
C135 C134 1.381 . S
C135 C136 1.321 . S
C136 C135 1.321 . S
C136 C137 1.403 . S
C136 H162 0.934 . S
C137 C132 1.413 . S
C137 C136 1.403 . S
C137 H163 0.930 . S
C138 O152 1.275 . S
C138 O153 1.256 . S
C139 O154 1.259 . S
C139 O155 1.268 1_556 S
C140 Ho129 2.811 1_566 S
C140 C141 1.488 . S
C140 O156 1.215 1_565 S
C140 O157 1.289 . S
C141 C140 1.488 . S
C141 C142 1.348 . S
C141 C146 1.413 . S
C142 C141 1.348 . S
C142 C143 1.442 . S
C142 H164 0.930 . S
C143 C142 1.442 . S
C143 C144 1.381 . S
C143 H165 0.931 . S
C144 C143 1.381 . S
C144 C145 1.321 . S
C145 C144 1.321 . S
C145 C146 1.403 . S
C145 H166 0.934 . S
C146 C141 1.413 . S
C146 C145 1.403 . S
C146 H167 0.930 1_565 S
C147 O158 1.275 . S
C147 O159 1.256 1_556 S
O148 Ho128 2.322 . S
O148 C130 1.259 . S
O149 Ho129 2.346 . S
O149 C130 1.268 . S
O150 Ho128 2.378 . S
O150 C131 1.215 . S
O151 Ho128 2.524 . S
O151 C131 1.289 . S
O152 Ho128 2.381 1_565 S
O152 C138 1.275 . S
O153 Ho128 2.669 1_565 S
O153 Ho129 2.305 1_565 S
O153 C138 1.256 . S
O154 Ho129 2.322 1_566 S
O154 C139 1.259 . S
O155 Ho128 2.346 1_565 S
O155 C139 1.268 1_554 S
O156 Ho129 2.378 1_556 S
O156 C140 1.215 1_545 S
O157 Ho129 2.524 1_566 S
O157 C140 1.289 . S
O158 Ho129 2.381 1_556 S
O158 C147 1.275 . S
O159 Ho128 2.305 . S
O159 Ho129 2.669 . S
O159 C147 1.256 1_554 S
H160 C133 0.930 . S
H161 C134 0.931 . S
H162 C136 0.934 . S
H163 C137 0.930 . S
H164 C142 0.930 . S
H165 C143 0.931 . S
H166 C145 0.934 . S
H167 C146 0.930 1_545 S
Ho168 C171 2.811 . S
Ho168 O188 2.322 . S
Ho168 O190 2.378 . S
Ho168 O191 2.524 . S
Ho168 O192 2.381 . S
Ho168 O193 2.669 . S
Ho168 O195 2.346 . S
Ho168 O199 2.305 . S
Ho169 C180 2.811 . S
Ho169 O189 2.346 . S
Ho169 O193 2.305 . S
Ho169 O194 2.322 . S
Ho169 O196 2.378 . S
Ho169 O197 2.524 . S
Ho169 O198 2.381 . S
Ho169 O199 2.669 . S
C170 O188 1.259 . S
C170 O189 1.268 . S
C171 Ho168 2.811 . S
C171 C172 1.488 . S
C171 O190 1.215 . S
C171 O191 1.289 . S
C172 C171 1.488 . S
C172 C173 1.348 . S
C172 C177 1.413 . S
C173 C172 1.348 . S
C173 C174 1.442 . S
C173 H200 0.930 . S
C174 C173 1.442 . S
C174 C175 1.381 . S
C174 H201 0.931 . S
C175 C174 1.381 . S
C175 C176 1.321 . S
C176 C175 1.321 . S
C176 C177 1.403 . S
C176 H202 0.934 . S
C177 C172 1.413 . S
C177 C176 1.403 . S
C177 H203 0.930 . S
C178 O192 1.275 . S
C178 O193 1.256 . S
C179 O194 1.259 . S
C179 O195 1.268 . S
C180 Ho169 2.811 . S
C180 C181 1.488 . S
C180 O196 1.215 . S
C180 O197 1.289 . S
C181 C180 1.488 . S
C181 C182 1.348 . S
C181 C186 1.413 . S
C182 C181 1.348 . S
C182 C183 1.442 . S
C182 H204 0.930 . S
C183 C182 1.442 . S
C183 C184 1.381 . S
C183 H205 0.931 . S
C184 C183 1.381 . S
C184 C185 1.321 . S
C185 C184 1.321 . S
C185 C186 1.403 . S
C185 H206 0.934 . S
C186 C181 1.413 . S
C186 C185 1.403 . S
C186 H207 0.930 . S
C187 O198 1.275 . S
C187 O199 1.256 . S
O188 Ho168 2.322 . S
O188 C170 1.259 . S
O189 Ho169 2.346 . S
O189 C170 1.268 . S
O190 Ho168 2.378 . S
O190 C171 1.215 . S
O191 Ho168 2.524 . S
O191 C171 1.289 . S
O192 Ho168 2.381 . S
O192 C178 1.275 . S
O193 Ho168 2.669 . S
O193 Ho169 2.305 . S
O193 C178 1.256 . S
O194 Ho169 2.322 . S
O194 C179 1.259 . S
O195 Ho168 2.346 . S
O195 C179 1.268 . S
O196 Ho169 2.378 . S
O196 C180 1.215 . S
O197 Ho169 2.524 . S
O197 C180 1.289 . S
O198 Ho169 2.381 . S
O198 C187 1.275 . S
O199 Ho168 2.305 . S
O199 Ho169 2.669 . S
O199 C187 1.256 . S
H200 C173 0.930 . S
H201 C174 0.931 . S
H202 C176 0.934 . S
H203 C177 0.930 . S
H204 C182 0.930 . S
H205 C183 0.931 . S
H206 C185 0.934 . S
H207 C186 0.930 . S
Ho208 C211 2.811 . S
Ho208 O228 2.322 . S
Ho208 O230 2.378 . S
Ho208 O231 2.524 . S
Ho208 O232 2.381 1_455 S
Ho208 O233 2.669 1_455 S
Ho208 O235 2.346 1_455 S
Ho208 O239 2.305 1_554 S
Ho209 C220 2.811 1_455 S
Ho209 O229 2.346 1_556 S
Ho209 O233 2.305 1_456 S
Ho209 O234 2.322 1_455 S
Ho209 O236 2.378 1_455 S
Ho209 O237 2.524 1_455 S
Ho209 O238 2.381 . S
Ho209 O239 2.669 . S
C210 O228 1.259 . S
C210 O229 1.268 . S
C211 Ho208 2.811 . S
C211 C212 1.488 . S
C211 O230 1.215 . S
C211 O231 1.289 . S
C212 C211 1.488 . S
C212 C213 1.348 . S
C212 C217 1.413 . S
C213 C212 1.348 . S
C213 C214 1.442 . S
C213 H240 0.930 . S
C214 C213 1.442 . S
C214 C215 1.381 . S
C214 H241 0.931 . S
C215 C214 1.381 . S
C215 C216 1.321 . S
C216 C215 1.321 . S
C216 C217 1.403 . S
C216 H242 0.934 . S
C217 C212 1.413 . S
C217 C216 1.403 . S
C217 H243 0.930 . S
C218 O232 1.275 . S
C218 O233 1.256 . S
C219 O234 1.259 . S
C219 O235 1.268 1_556 S
C220 Ho209 2.811 1_655 S
C220 C221 1.488 . S
C220 O236 1.215 . S
C220 O237 1.289 . S
C221 C220 1.488 . S
C221 C222 1.348 . S
C221 C226 1.413 . S
C222 C221 1.348 . S
C222 C223 1.442 . S
C222 H244 0.930 . S
C223 C222 1.442 . S
C223 C224 1.381 . S
C223 H245 0.931 . S
C224 C223 1.381 . S
C224 C225 1.321 . S
C225 C224 1.321 . S
C225 C226 1.403 . S
C225 H246 0.934 . S
C226 C221 1.413 . S
C226 C225 1.403 . S
C226 H247 0.930 . S
C227 O238 1.275 . S
C227 O239 1.256 . S
O228 Ho208 2.322 . S
O228 C210 1.259 . S
O229 Ho209 2.346 1_554 S
O229 C210 1.268 . S
O230 Ho208 2.378 . S
O230 C211 1.215 . S
O231 Ho208 2.524 . S
O231 C211 1.289 . S
O232 Ho208 2.381 1_655 S
O232 C218 1.275 . S
O233 Ho208 2.669 1_655 S
O233 Ho209 2.305 1_654 S
O233 C218 1.256 . S
O234 Ho209 2.322 1_655 S
O234 C219 1.259 . S
O235 Ho208 2.346 1_655 S
O235 C219 1.268 1_554 S
O236 Ho209 2.378 1_655 S
O236 C220 1.215 . S
O237 Ho209 2.524 1_655 S
O237 C220 1.289 . S
O238 Ho209 2.381 . S
O238 C227 1.275 . S
O239 Ho208 2.305 1_556 S
O239 Ho209 2.669 . S
O239 C227 1.256 . S
H240 C213 0.930 . S
H241 C214 0.931 . S
H242 C216 0.934 . S
H243 C217 0.930 . S
H244 C222 0.930 . S
H245 C223 0.931 . S
H246 C225 0.934 . S
H247 C226 0.930 . S
C6 C95 1.473 . S
C20 C144 1.697 . S
C170 N26 3.209 . S
N37 C218 3.446 . S
C130 C9 3.318 . S
C98 N15 2.097 1_455 S
C219 C31 2.781 . S
C187 C39 2.610 . S
N4 C215 2.011 . S
C147 C28 3.733 . S
C42 C99 3.164 . S
C17 C184 2.878 . S
C104 C50 1.129 . S
C61 C135 1.864 . S
N70 C179 3.550 . S
N81 C227 3.306 . S
N48 C139 3.350 . S
C107 C64 1.441 . S
C210 C75 2.525 . S
C178 C86 2.447 . S
C53 C224 2.466 . S
C138 C72 2.896 . S
C90 C83 3.855 . S
N59 C175 1.980 . S
