# Generated by pormake.
# Topology pyr, (3,6)-cn, num edge types: 1
# Building blocks:
#     Node 0, Type 0, BuildingBlock: PAMTOO_clean_linker_0, # of connection points: 3
#     Node 1, Type 0, BuildingBlock: PAMTOO_clean_linker_0, # of connection points: 3
#     Node 2, Type 0, BuildingBlock: PAMTOO_clean_linker_0, # of connection points: 3
#     Node 3, Type 0, BuildingBlock: PAMTOO_clean_linker_0, # of connection points: 3
#     Node 4, Type 0, BuildingBlock: PAMTOO_clean_linker_0, # of connection points: 3
#     Node 5, Type 0, BuildingBlock: PAMTOO_clean_linker_0, # of connection points: 3
#     Node 6, Type 0, BuildingBlock: PAMTOO_clean_linker_0, # of connection points: 3
#     Node 7, Type 0, BuildingBlock: PAMTOO_clean_linker_0, # of connection points: 3
#     Node 8, Type 1, BuildingBlock: BETDEL_clean_sbu_0, # of connection points: 6
#     Node 9, Type 1, BuildingBlock: BETDEL_clean_sbu_0, # of connection points: 6
#     Node 10, Type 1, BuildingBlock: BETDEL_clean_sbu_0, # of connection points: 6
#     Node 11, Type 1, BuildingBlock: BETDEL_clean_sbu_0, # of connection points: 6
#     Edge 12, Type (0, 1), BuildingBlock: XIVTED_clean_linker_0, # of connection points: 2
#     Edge 13, Type (0, 1), BuildingBlock: XIVTED_clean_linker_0, # of connection points: 2
#     Edge 14, Type (0, 1), BuildingBlock: XIVTED_clean_linker_0, # of connection points: 2
#     Edge 15, Type (0, 1), BuildingBlock: XIVTED_clean_linker_0, # of connection points: 2
#     Edge 16, Type (0, 1), BuildingBlock: XIVTED_clean_linker_0, # of connection points: 2
#     Edge 17, Type (0, 1), BuildingBlock: XIVTED_clean_linker_0, # of connection points: 2
#     Edge 18, Type (0, 1), BuildingBlock: XIVTED_clean_linker_0, # of connection points: 2
#     Edge 19, Type (0, 1), BuildingBlock: XIVTED_clean_linker_0, # of connection points: 2
#     Edge 20, Type (0, 1), BuildingBlock: XIVTED_clean_linker_0, # of connection points: 2
#     Edge 21, Type (0, 1), BuildingBlock: XIVTED_clean_linker_0, # of connection points: 2
#     Edge 22, Type (0, 1), BuildingBlock: XIVTED_clean_linker_0, # of connection points: 2
#     Edge 23, Type (0, 1), BuildingBlock: XIVTED_clean_linker_0, # of connection points: 2
#     Edge 24, Type (0, 1), BuildingBlock: XIVTED_clean_linker_0, # of connection points: 2
#     Edge 25, Type (0, 1), BuildingBlock: XIVTED_clean_linker_0, # of connection points: 2
#     Edge 26, Type (0, 1), BuildingBlock: XIVTED_clean_linker_0, # of connection points: 2
#     Edge 27, Type (0, 1), BuildingBlock: XIVTED_clean_linker_0, # of connection points: 2
#     Edge 28, Type (0, 1), BuildingBlock: XIVTED_clean_linker_0, # of connection points: 2
#     Edge 29, Type (0, 1), BuildingBlock: XIVTED_clean_linker_0, # of connection points: 2
#     Edge 30, Type (0, 1), BuildingBlock: XIVTED_clean_linker_0, # of connection points: 2
#     Edge 31, Type (0, 1), BuildingBlock: XIVTED_clean_linker_0, # of connection points: 2
#     Edge 32, Type (0, 1), BuildingBlock: XIVTED_clean_linker_0, # of connection points: 2
#     Edge 33, Type (0, 1), BuildingBlock: XIVTED_clean_linker_0, # of connection points: 2
#     Edge 34, Type (0, 1), BuildingBlock: XIVTED_clean_linker_0, # of connection points: 2
#     Edge 35, Type (0, 1), BuildingBlock: XIVTED_clean_linker_0, # of connection points: 2
# Relax obj value: 0.086
# Max RMSD: 0.194
# Mean RMSD: 0.138
data_MOF--net-pyr--node1-BETDEL_clean_sbu_0--node2-PAMTOO_clean_linker_0--edge1-XIVTED_clean_linker_0
_symmetry_space_group_name_H-M    P1
_symmetry_Int_Tables_number       1
_symmetry_cell_setting            triclinic
loop_
_symmetry_equiv_pos_as_xyz
'x, y, z'
_cell_length_a     35.985833
_cell_length_b     39.198693
_cell_length_c     35.465839
_cell_angle_alpha  92.044745
_cell_angle_beta   90.419152
_cell_angle_gamma 100.29878
loop_
_atom_site_label
_atom_site_type_symbol
_atom_site_fract_x
_atom_site_fract_y
_atom_site_fract_z
_atom_type_partial_charge
H0 H 0.14772 0.22412 0.216 0.0
H1 H 0.22887 0.15556 0.21409 0.0
H2 H 0.232 0.23096 0.12952 0.0
H3 H 0.24191 0.1628 0.10034 0.0
C4 C 0.25303 0.15274 0.12628 0.0
O5 O 0.26151 0.17955 0.15294 0.0
H6 H 0.23111 0.13172 0.13701 0.0
C7 C 0.17214 0.21566 0.20363 0.0
C8 C 0.18855 0.23162 0.17138 0.0
C9 C 0.18614 0.18794 0.21913 0.0
C10 C 0.21759 0.17697 0.20274 0.0
C11 C 0.23385 0.19258 0.1706 0.0
C12 C 0.21968 0.21996 0.15515 0.0
H13 H 0.28917 0.89627 0.71679 0.0
H14 H 0.26861 0.82144 0.6234 0.0
H15 H 0.35441 0.81443 0.70549 0.0
H16 H 0.36699 0.81575 0.61748 0.0
C17 C 0.34652 0.79084 0.61405 0.0
O18 O 0.32114 0.7871 0.64329 0.0
H19 H 0.33087 0.79167 0.58706 0.0
C20 C 0.29482 0.873 0.70219 0.0
C21 C 0.3238 0.85659 0.71561 0.0
C22 C 0.27501 0.86091 0.66854 0.0
C23 C 0.28356 0.83131 0.64928 0.0
C24 C 0.31211 0.81472 0.66269 0.0
C25 C 0.33213 0.82735 0.69566 0.0
H26 H 0.71292 0.30978 0.93772 0.0
H27 H 0.61954 0.30134 0.85887 0.0
H28 H 0.71224 0.38603 0.85336 0.0
H29 H 0.6314 0.39937 0.85291 0.0
C30 C 0.62205 0.38073 0.82879 0.0
O31 O 0.64696 0.3579 0.82426 0.0
H32 H 0.59356 0.36595 0.83496 0.0
C33 C 0.69946 0.31925 0.91379 0.0
C34 C 0.71719 0.34984 0.8971 0.0
C35 C 0.66408 0.30137 0.9005 0.0
C36 C 0.64643 0.31481 0.87022 0.0
C37 C 0.66369 0.34548 0.85376 0.0
C38 C 0.69894 0.36278 0.86704 0.0
H39 H 0.855 0.70989 0.42529 0.0
H40 H 0.84843 0.6261 0.34207 0.0
H41 H 0.93614 0.71546 0.33613 0.0
H42 H 0.90267 0.68918 0.26241 0.0
C43 C 0.89516 0.66106 0.26807 0.0
O44 O 0.9069 0.65537 0.30411 0.0
H45 H 0.86391 0.65339 0.26551 0.0
C46 C 0.86612 0.69823 0.40067 0.0
C47 C 0.89809 0.71657 0.38302 0.0
C48 C 0.84779 0.6655 0.38644 0.0
C49 C 0.86162 0.65142 0.35343 0.0
C50 C 0.89318 0.66962 0.33521 0.0
C51 C 0.91134 0.70203 0.35003 0.0
H52 H 0.83718 0.91572 0.87295 0.0
H53 H 0.82496 0.86412 0.97839 0.0
H54 H 0.90796 0.84179 0.89969 0.0
H55 H 0.84014 0.7867 0.93501 0.0
C56 C 0.85428 0.79319 0.96309 0.0
O57 O 0.87578 0.8261 0.96431 0.0
H58 H 0.83181 0.79208 0.98459 0.0
C59 C 0.84569 0.89745 0.89206 0.0
C60 C 0.87513 0.8798 0.88218 0.0
C61 C 0.82767 0.89224 0.92683 0.0
C62 C 0.83924 0.86917 0.95182 0.0
C63 C 0.86771 0.85079 0.94173 0.0
C64 C 0.88604 0.85638 0.90726 0.0
H65 H 0.79605 0.13144 0.35344 0.0
H66 H 0.73875 0.21885 0.34884 0.0
H67 H 0.82001 0.21586 0.43659 0.0
H68 H 0.76006 0.24906 0.46631 0.0
C69 C 0.74492 0.24935 0.43891 0.0
O70 O 0.77048 0.25008 0.40997 0.0
H71 H 0.72306 0.22528 0.43669 0.0
C72 C 0.79181 0.15657 0.36449 0.0
C73 C 0.81156 0.17133 0.39733 0.0
C74 C 0.76585 0.17374 0.34635 0.0
C75 C 0.75955 0.20577 0.36154 0.0
C76 C 0.77881 0.22053 0.39414 0.0
C77 C 0.8052 0.20377 0.41148 0.0
H78 H 0.36319 0.72176 0.10798 0.0
H79 H 0.36567 0.63911 0.1846 0.0
H80 H 0.45502 0.72698 0.18791 0.0
H81 H 0.47798 0.65652 0.19899 0.0
C82 C 0.45148 0.64389 0.2125 0.0
O83 O 0.42829 0.66807 0.21805 0.0
H84 H 0.4372 0.62213 0.1936 0.0
C85 C 0.3768 0.71044 0.13048 0.0
C86 C 0.41146 0.72831 0.14563 0.0
C87 C 0.35962 0.67819 0.14422 0.0
C88 C 0.37768 0.66408 0.17369 0.0
C89 C 0.41197 0.68162 0.18905 0.0
C90 C 0.4288 0.71353 0.1751 0.0
H91 H 0.11628 0.31493 0.74042 0.0
H92 H 0.2058 0.40422 0.74244 0.0
H93 H 0.20668 0.32194 0.66004 0.0
H94 H 0.27874 0.35096 0.69583 0.0
C95 C 0.27692 0.379 0.69531 0.0
O96 O 0.24113 0.38291 0.68426 0.0
H97 H 0.28299 0.39038 0.72437 0.0
C98 C 0.14249 0.32859 0.72921 0.0
C99 C 0.15944 0.31392 0.69833 0.0
C100 C 0.15915 0.36113 0.74546 0.0
C101 C 0.19292 0.37897 0.73059 0.0
C102 C 0.20962 0.3649 0.6996 0.0
C103 C 0.19299 0.33257 0.68368 0.0
Dy104 Dy 0.05235 0.02728 0.50309 0.0
C105 C 0.99113 0.96328 0.64147 0.0
C106 C 0.06444 0.05967 0.43684 0.0
Dy107 Dy 0.01678 0.99933 0.58009 0.0
O108 O 0.06866 0.02798 0.44232 0.0
O109 O 0.05312 0.07361 0.4675 0.0
O110 O 0.11009 0.01266 0.51069 0.0
O111 O 0.06976 0.00281 0.55178 0.0
C112 C 0.1027 0.9993 0.54339 0.0
C113 C 0.97752 0.03837 0.54045 0.0
O114 O 0.05252 0.04927 0.60091 0.0
O115 O 0.06229 0.0745 0.54232 0.0
O116 O 0.97122 0.96598 0.61141 0.0
O117 O 0.02535 0.98047 0.63821 0.0
O118 O 0.97678 0.03717 0.577 0.0
O119 O 0.99622 0.01661 0.52713 0.0
O120 O 0.01845 0.97592 0.48375 0.0
O121 O 0.01109 0.95115 0.54261 0.0
C122 C 0.06386 0.07646 0.57984 0.0
C123 C 0.00904 0.94866 0.50515 0.0
Dy124 Dy 0.5621 0.03334 0.06763 0.0
C125 C 0.47894 0.96312 0.93962 0.0
C126 C 0.60082 0.06987 0.12717 0.0
Dy127 Dy 0.51724 0.00228 0.99762 0.0
O128 O 0.57681 0.04113 0.12936 0.0
O129 O 0.6032 0.07925 0.09235 0.0
O130 O 0.56751 0.97977 0.08411 0.0
O131 O 0.51832 0.98742 0.05606 0.0
C132 C 0.53549 0.96495 0.06903 0.0
C133 C 0.54396 0.07056 0.99541 0.0
O134 O 0.47087 0.0183 0.03083 0.0
O135 O 0.50873 0.05508 0.07408 0.0
O136 O 0.50913 0.98639 0.93609 0.0
O137 O 0.46994 0.96082 0.97494 0.0
O138 O 0.51247 0.05542 0.97943 0.0
O139 O 0.56095 0.04819 0.00896 0.0
O140 O 0.60871 0.01971 0.03296 0.0
O141 O 0.57058 0.98018 0.99265 0.0
C142 C 0.4754 0.04266 0.05808 0.0
C143 C 0.60425 0.99438 0.00679 0.0
Dy144 Dy 0.56146 0.49158 0.50257 0.0
C145 C 0.49662 0.60084 0.57251 0.0
C146 C 0.60296 0.44505 0.47391 0.0
Dy147 Dy 0.53839 0.55431 0.54411 0.0
O148 O 0.56646 0.44174 0.47096 0.0
O149 O 0.61673 0.4739 0.49213 0.0
O150 O 0.50082 0.46383 0.50063 0.0
O151 O 0.52011 0.49861 0.5454 0.0
C152 C 0.4912 0.48009 0.53059 0.0
C153 C 0.60901 0.56526 0.51738 0.0
O154 O 0.55488 0.52672 0.59424 0.0
O155 O 0.58696 0.48943 0.56056 0.0
O156 O 0.53327 0.60497 0.57406 0.0
O157 O 0.48291 0.57118 0.55589 0.0
O158 O 0.5992 0.58093 0.54767 0.0
O159 O 0.58017 0.54744 0.50154 0.0
O160 O 0.54537 0.51905 0.45256 0.0
O161 O 0.51282 0.55614 0.48587 0.0
C162 C 0.57767 0.50352 0.59298 0.0
C163 C 0.52227 0.54189 0.45359 0.0
Dy164 Dy 0.04912 0.47572 0.03491 0.0
C165 C 0.00064 0.60238 0.99668 0.0
C166 C 0.07742 0.41893 0.0541 0.0
Dy167 Dy 0.03187 0.54464 0.99965 0.0
O168 O 0.04468 0.42542 0.06399 0.0
O169 O 0.09474 0.44335 0.03343 0.0
O170 O 0.0075 0.48101 0.08071 0.0
O171 O 0.03693 0.52548 0.0562 0.0
C172 C 0.01092 0.51442 0.07866 0.0
C173 C 0.05631 0.50308 0.94634 0.0
O174 O 0.08943 0.56452 0.02449 0.0
O175 O 0.10325 0.51286 0.04778 0.0
O176 O 0.98713 0.57506 0.01525 0.0
O177 O 0.03141 0.59825 0.97932 0.0
O178 O 0.04678 0.53268 0.93876 0.0
O179 O 0.05163 0.49866 0.98096 0.0
O180 O -0.00038 0.45527 0.99702 0.0
O181 O 0.97709 0.50716 0.99376 0.0
C182 C 0.11245 0.54654 0.04128 0.0
C183 C 0.97244 0.4729 0.98923 0.0
H184 H 0.16935 0.11781 0.22625 0.0
H185 H 0.0669 0.12841 0.42466 0.0
H186 H 0.15679 0.21439 0.28276 0.0
H187 H 0.08932 0.0335 0.37175 0.0
H188 H 0.09408 0.16015 0.37016 0.0
H189 H 0.13567 0.08631 0.27731 0.0
C190 C 0.15979 0.13241 0.24962 0.0
C191 C 0.16623 0.16879 0.25047 0.0
C192 C 0.09277 0.13235 0.37036 0.0
C193 C 0.12696 0.13284 0.30875 0.0
C194 C 0.07713 0.11425 0.40132 0.0
C195 C 0.07616 0.07842 0.4026 0.0
C196 C 0.10744 0.11435 0.34066 0.0
C197 C 0.08974 0.06119 0.37182 0.0
C198 C 0.14026 0.11439 0.27862 0.0
C199 C 0.1523 0.18633 0.28095 0.0
N200 N 0.10504 0.07937 0.34216 0.0
N201 N 0.13339 0.16816 0.30899 0.0
H202 H 0.40061 0.87035 0.72201 0.0
H203 H 0.40697 0.92626 0.94094 0.0
H204 H 0.29971 0.87572 0.78515 0.0
H205 H 0.49964 0.95833 0.86618 0.0
H206 H 0.36864 0.89905 0.88667 0.0
H207 H 0.43884 0.89432 0.77731 0.0
C208 C 0.38654 0.87641 0.74765 0.0
C209 C 0.34698 0.87104 0.74912 0.0
C210 C 0.39741 0.91196 0.88224 0.0
C211 C 0.39049 0.89833 0.81243 0.0
C212 C 0.41932 0.92727 0.91314 0.0
C213 C 0.45643 0.94454 0.90787 0.0
C214 C 0.41302 0.91353 0.84603 0.0
C215 C 0.47109 0.9453 0.87135 0.0
C216 C 0.40834 0.89023 0.77908 0.0
C217 C 0.33015 0.87968 0.78287 0.0
N218 N 0.44938 0.92993 0.8418 0.0
N219 N 0.35201 0.89275 0.81333 0.0
H220 H 0.63002 0.35955 0.75442 0.0
H221 H 0.56494 0.5242 0.66601 0.0
H222 H 0.60586 0.44597 0.82272 0.0
H223 H 0.61578 0.44968 0.60121 0.0
H224 H 0.57846 0.49594 0.72376 0.0
H225 H 0.62292 0.39166 0.69779 0.0
C226 C 0.62374 0.3855 0.75752 0.0
C227 C 0.61955 0.40055 0.79339 0.0
C228 C 0.58691 0.486 0.69689 0.0
C229 C 0.61028 0.4371 0.72856 0.0
C230 C 0.57924 0.50214 0.66389 0.0
C231 C 0.58905 0.48925 0.62859 0.0
C232 C 0.60415 0.45655 0.69455 0.0
C233 C 0.60756 0.46056 0.62769 0.0
C234 C 0.6196 0.40381 0.72516 0.0
C235 C 0.61011 0.43379 0.7956 0.0
N236 N 0.61418 0.44504 0.66008 0.0
N237 N 0.60574 0.45096 0.76365 0.0
H238 H 0.95214 0.68335 0.21823 0.0
H239 H 0.95544 0.49301 0.12868 0.0
H240 H 0.8794 0.59081 0.25357 0.0
H241 H 0.02496 0.5855 0.08866 0.0
H242 H 0.92735 0.52861 0.17441 0.0
H243 H 0.97974 0.64831 0.17102 0.0
C244 C 0.94203 0.65561 0.216 0.0
C245 C 0.91328 0.63989 0.23955 0.0
C246 C 0.94865 0.54123 0.15561 0.0
C247 C 0.94472 0.59961 0.18578 0.0
C248 C 0.96468 0.52089 0.12944 0.0
C249 C 0.99259 0.53633 0.10488 0.0
C250 C 0.96066 0.57739 0.15743 0.0
C251 C 0.00345 0.57257 0.10706 0.0
C252 C 0.95772 0.63563 0.18904 0.0
C253 C 0.90138 0.60386 0.23575 0.0
N254 N 0.98755 0.59188 0.13297 0.0
N255 N 0.91708 0.58496 0.20936 0.0
H256 H 0.31288 0.14639 0.17325 0.0
H257 H 0.40658 0.03335 0.02277 0.0
H258 H 0.26961 0.12229 0.05983 0.0
H259 H 0.46849 0.08585 0.11931 0.0
H260 H 0.35267 0.0599 0.04015 0.0
H261 H 0.36714 0.11893 0.15772 0.0
C262 C 0.31511 0.13573 0.14493 0.0
C263 C 0.28746 0.13752 0.1173 0.0
C264 C 0.37804 0.0656 0.05754 0.0
C265 C 0.34847 0.10516 0.0999 0.0
C266 C 0.40881 0.0503 0.04779 0.0
C267 C 0.44216 0.05745 0.06961 0.0
C268 C 0.38044 0.08797 0.08954 0.0
C269 C 0.44337 0.07975 0.10162 0.0
C270 C 0.34593 0.11998 0.13617 0.0
C271 C 0.29088 0.12214 0.08155 0.0
N272 N 0.41285 0.09422 0.1107 0.0
N273 N 0.32088 0.10661 0.07383 0.0
H274 H 0.21844 0.8887 0.70361 0.0
H275 H 0.16951 0.98485 0.5197 0.0
H276 H 0.27014 0.8788 0.59535 0.0
H277 H 0.093 0.96977 0.61307 0.0
H278 H 0.21051 0.9512 0.55098 0.0
H279 H 0.17551 0.92296 0.67466 0.0
C280 C 0.22071 0.89369 0.6738 0.0
C281 C 0.24776 0.88071 0.6518 0.0
C282 C 0.18477 0.95516 0.56475 0.0
C283 C 0.19919 0.91999 0.61875 0.0
C284 C 0.16139 0.97452 0.54696 0.0
C285 C 0.12776 0.98001 0.56381 0.0
C286 C 0.17475 0.9413 0.59996 0.0
C287 C 0.11868 0.96603 0.59916 0.0
C288 C 0.19615 0.91308 0.65732 0.0
C289 C 0.24941 0.88783 0.61329 0.0
N290 N 0.14214 0.9473 0.6162 0.0
N291 N 0.22567 0.90709 0.59812 0.0
H292 H 0.74147 0.41981 0.90826 0.0
H293 H 0.9497 0.40256 0.97696 0.0
H294 H 0.77863 0.32161 0.91726 0.0
H295 H 0.9105 0.50004 0.96929 0.0
H296 H 0.88768 0.37225 0.95453 0.0
H297 H 0.80378 0.44953 0.92994 0.0
C298 C 0.76281 0.4045 0.91465 0.0
C299 C 0.75481 0.36816 0.91088 0.0
C300 C 0.89272 0.40028 0.95775 0.0
C301 C 0.82626 0.40203 0.93607 0.0
C302 C 0.92815 0.41762 0.97053 0.0
C303 C 0.9354 0.45394 0.97508 0.0
C304 C 0.86435 0.41939 0.94945 0.0
C305 C 0.90631 0.47204 0.96628 0.0
C306 C 0.79835 0.42147 0.92721 0.0
C307 C 0.78341 0.34964 0.92015 0.0
N308 N 0.87214 0.45458 0.95394 0.0
N309 N 0.81788 0.36678 0.93225 0.0
H310 H 0.83673 0.66112 0.46276 0.0
H311 H 0.62803 0.54831 0.44532 0.0
H312 H 0.78254 0.62614 0.35579 0.0
H313 H 0.67329 0.60531 0.54665 0.0
H314 H 0.68755 0.56933 0.4134 0.0
H315 H 0.78015 0.63377 0.49501 0.0
C316 C 0.81292 0.64777 0.44596 0.0
C317 C 0.81437 0.64647 0.40634 0.0
C318 C 0.68451 0.57709 0.44266 0.0
C319 C 0.74941 0.61441 0.44341 0.0
C320 C 0.65062 0.56502 0.46093 0.0
C321 C 0.64569 0.57532 0.49861 0.0
C322 C 0.71378 0.59935 0.46234 0.0
C323 C 0.67586 0.59693 0.51751 0.0
C324 C 0.78064 0.63198 0.46448 0.0
C325 C 0.78289 0.62779 0.38632 0.0
N326 N 0.70856 0.60827 0.49918 0.0
N327 N 0.75166 0.61266 0.40505 0.0
H328 H 0.11358 0.23368 0.161 0.0
H329 H 0.14961 0.40769 0.0458 0.0
H330 H 0.22506 0.29093 0.13949 0.0
H331 H 0.0421 0.3644 0.09312 0.0
H332 H 0.1771 0.36105 0.073 0.0
H333 H 0.08623 0.27811 0.13011 0.0
C334 C 0.13234 0.25578 0.15013 0.0
C335 C 0.17169 0.25877 0.15317 0.0
C336 C 0.14747 0.36173 0.07728 0.0
C337 C 0.14051 0.30928 0.11696 0.0
C338 C 0.13179 0.38816 0.06164 0.0
C339 C 0.09368 0.38977 0.06745 0.0
C340 C 0.12468 0.33676 0.09852 0.0
C341 C 0.07169 0.36403 0.08817 0.0
C342 C 0.11668 0.28099 0.13223 0.0
C343 C 0.19457 0.28748 0.13756 0.0
N344 N 0.08754 0.33855 0.10304 0.0
N345 N 0.17863 0.31168 0.1201 0.0
H346 H 0.58874 0.27902 0.91445 0.0
H347 H 0.61821 0.10136 0.00554 0.0
H348 H 0.69783 0.24897 0.92674 0.0
H349 H 0.51029 0.12108 0.96716 0.0
H350 H 0.64778 0.1592 0.98573 0.0
H351 H 0.55944 0.22451 0.94164 0.0
C352 C 0.60657 0.26097 0.92271 0.0
C353 C 0.64587 0.26866 0.91802 0.0
C354 C 0.61759 0.15091 0.98187 0.0
C355 C 0.61244 0.20634 0.9499 0.0
C356 C 0.60073 0.11803 0.99332 0.0
C357 C 0.56186 0.10643 0.98762 0.0
C358 C 0.59531 0.17234 0.96495 0.0
C359 C 0.54043 0.12898 0.97174 0.0
C360 C 0.58981 0.22992 0.93848 0.0
C361 C 0.66751 0.24446 0.93015 0.0
N362 N 0.55744 0.1608 0.96084 0.0
N363 N 0.65051 0.21441 0.94544 0.0
H364 H 0.92669 0.77639 0.34656 0.0
H365 H 0.98714 0.88668 0.53905 0.0
H366 H 0.91388 0.73441 0.45751 0.0
H367 H 0.99852 0.93144 0.4293 0.0
H368 H 0.96262 0.83029 0.50889 0.0
H369 H 0.95583 0.83271 0.37546 0.0
C370 C 0.93026 0.77892 0.37694 0.0
C371 C 0.91751 0.75064 0.39964 0.0
C372 C 0.97053 0.85239 0.49132 0.0
C373 C 0.95058 0.81508 0.43291 0.0
C374 C 0.98458 0.88473 0.50857 0.0
C375 C 0.99488 0.91406 0.48677 0.0
C376 C 0.9666 0.84911 0.45185 0.0
C377 C 0.99091 0.90965 0.44732 0.0
C378 C 0.9467 0.81113 0.39344 0.0
C379 C 0.92262 0.75557 0.4389 0.0
N380 N 0.97701 0.87783 0.43115 0.0
N381 N 0.93862 0.78709 0.45421 0.0
H382 H 0.32069 0.72427 0.5876 0.0
H383 H 0.5216 0.66484 0.60599 0.0
H384 H 0.41932 0.78937 0.63726 0.0
H385 H 0.42048 0.59697 0.56521 0.0
H386 H 0.48417 0.70997 0.62035 0.0
H387 H 0.35604 0.67636 0.58177 0.0
C388 C 0.34981 0.72832 0.59735 0.0
C389 C 0.3674 0.76081 0.61231 0.0
C390 C 0.47008 0.68513 0.60853 0.0
C391 C 0.40803 0.70637 0.60589 0.0
C392 C 0.49144 0.65937 0.60038 0.0
C393 C 0.47408 0.62725 0.58428 0.0
C394 C 0.43112 0.67874 0.60029 0.0
C395 C 0.43496 0.62146 0.57755 0.0
C396 C 0.36997 0.70105 0.59409 0.0
C397 C 0.40497 0.76478 0.62506 0.0
N398 N 0.41483 0.64703 0.58534 0.0
N399 N 0.42416 0.73797 0.62126 0.0
H400 H 0.951 0.89235 0.86825 0.0
H401 H 0.92019 0.92753 0.65044 0.0
H402 H 0.84206 0.88105 0.813 0.0
H403 H 0.02736 0.95785 0.7086 0.0
H404 H 0.89313 0.90142 0.70772 0.0
H405 H 0.98134 0.90749 0.8079 0.0
C406 C 0.93354 0.89266 0.8433 0.0
C407 C 0.89402 0.88587 0.84556 0.0
C408 C 0.92263 0.91359 0.70799 0.0
C409 C 0.92832 0.90316 0.77682 0.0
C410 C 0.93808 0.92846 0.67529 0.0
C411 C 0.97589 0.94512 0.67507 0.0
C412 C 0.94515 0.91546 0.74074 0.0
C413 C 0.99796 0.9454 0.70784 0.0
C414 C 0.95082 0.90146 0.80899 0.0
C415 C 0.87262 0.88671 0.81253 0.0
N416 N 0.98217 0.93097 0.73957 0.0
N417 N 0.89005 0.89536 0.77957 0.0
H418 H 0.72884 0.10667 0.33592 0.0
H419 H 0.65085 0.13153 0.12851 0.0
H420 H 0.75175 0.20439 0.28077 0.0
H421 H 0.6054 0.04619 0.19784 0.0
H422 H 0.69258 0.15698 0.18125 0.0
H423 H 0.68889 0.08171 0.28213 0.0
C424 C 0.72579 0.12275 0.31228 0.0
C425 C 0.74361 0.15765 0.3128 0.0
C426 C 0.67334 0.13276 0.18491 0.0
C427 C 0.69767 0.12939 0.2513 0.0
C428 C 0.64955 0.1183 0.15489 0.0
C429 C 0.62464 0.08682 0.15896 0.0
C430 C 0.67246 0.11532 0.21896 0.0
C431 C 0.62411 0.07059 0.19361 0.0
C432 C 0.70272 0.1086 0.28174 0.0
C433 C 0.73825 0.17744 0.28162 0.0
N434 N 0.6478 0.08492 0.22219 0.0
N435 N 0.7158 0.16304 0.25209 0.0
H436 H 0.41077 0.63828 0.27907 0.0
H437 H 0.54842 0.5312 0.38261 0.0
H438 H 0.51192 0.61357 0.22875 0.0
H439 H 0.46794 0.5817 0.44242 0.0
H440 H 0.53027 0.55519 0.32406 0.0
H441 H 0.42661 0.61215 0.33737 0.0
C442 C 0.43656 0.62774 0.28042 0.0
C443 C 0.46077 0.62906 0.24939 0.0
C444 C 0.51652 0.56095 0.34998 0.0
C445 C 0.47832 0.5981 0.3156 0.0
C446 C 0.52671 0.5471 0.38344 0.0
C447 C 0.50974 0.5545 0.41758 0.0
C448 C 0.48888 0.5821 0.35049 0.0
C449 C 0.48189 0.57542 0.41682 0.0
C450 C 0.44548 0.61269 0.31366 0.0
C451 C 0.49303 0.6138 0.25235 0.0
N452 N 0.47231 0.58847 0.38381 0.0
N453 N 0.50091 0.59901 0.28485 0.0
H454 H 0.08917 0.37884 0.74586 0.0
H455 H 0.09846 0.45274 0.9589 0.0
H456 H 0.18799 0.3813 0.81594 0.0
H457 H 0.04349 0.49862 0.87048 0.0
H458 H 0.12181 0.41486 0.91116 0.0
H459 H 0.06183 0.41119 0.79608 0.0
C460 C 0.10479 0.38576 0.77208 0.0
C461 C 0.14081 0.37749 0.7769 0.0
C462 C 0.10444 0.43311 0.90236 0.0
C463 C 0.10975 0.41401 0.83431 0.0
C464 C 0.09101 0.45455 0.92953 0.0
C465 C 0.06916 0.47884 0.91853 0.0
C466 C 0.09508 0.43544 0.86412 0.0
C467 C 0.06046 0.48035 0.88006 0.0
C468 C 0.08934 0.40433 0.80053 0.0
C469 C 0.16014 0.3873 0.81122 0.0
N470 N 0.07323 0.45881 0.85425 0.0
N471 N 0.14431 0.40492 0.83873 0.0
H472 H 0.7663 0.89708 0.88298 0.0
H473 H 0.67497 0.0078 0.03831 0.0
H474 H 0.81658 0.9267 0.99279 0.0
H475 H 0.61048 0.9511 0.94558 0.0
H476 H 0.73035 0.98501 0.01734 0.0
H477 H 0.71208 0.92376 0.90092 0.0
C478 C 0.76602 0.90952 0.91072 0.0
C479 C 0.79578 0.90974 0.93654 0.0
C480 C 0.70408 0.97758 0.00158 0.0
C481 C 0.73416 0.94002 0.95717 0.0
C482 C 0.67246 0.99065 0.01343 0.0
C483 C 0.63799 0.98122 0.99372 0.0
C484 C 0.70137 0.95515 0.96959 0.0
C485 C 0.63644 0.95886 0.96173 0.0
C486 C 0.73505 0.92447 0.92101 0.0
C487 C 0.79399 0.92579 0.97225 0.0
N488 N 0.66777 0.94659 0.95059 0.0
N489 N 0.76367 0.94036 0.98152 0.0
H490 H 0.81905 0.16649 0.47374 0.0
H491 H 0.97178 0.04069 0.46332 0.0
H492 H 0.86227 0.13233 0.36843 0.0
H493 H 0.93307 0.08292 0.56674 0.0
H494 H 0.93255 0.07379 0.42747 0.0
H495 H 0.86105 0.13575 0.5077 0.0
C496 C 0.83765 0.15279 0.45767 0.0
C497 C 0.83724 0.15232 0.41806 0.0
C498 C 0.93274 0.07586 0.45799 0.0
C499 C 0.88526 0.11627 0.45706 0.0
C500 C 0.95513 0.05703 0.47843 0.0
C501 C 0.9555 0.05902 0.51802 0.0
C502 C 0.91053 0.09668 0.47738 0.0
C503 C 0.93349 0.08055 0.53624 0.0
C504 C 0.86153 0.135 0.47716 0.0
C505 C 0.86138 0.13325 0.39893 0.0
N506 N 0.91185 0.0984 0.51581 0.0
N507 N 0.88441 0.11599 0.4186 0.0
H508 H 0.33358 0.67553 0.07049 0.0
H509 H 0.15456 0.52945 0.09968 0.0
H510 H 0.30152 0.63731 0.18062 0.0
H511 H 0.15434 0.60638 0.01561 0.0
H512 H 0.21481 0.56182 0.12444 0.0
H513 H 0.27333 0.64415 0.04494 0.0
C514 C 0.31396 0.66086 0.08946 0.0
C515 C 0.32298 0.65925 0.12796 0.0
C516 C 0.20152 0.57154 0.10055 0.0
C517 C 0.25451 0.62233 0.09832 0.0
C518 C 0.16731 0.55302 0.08626 0.0
C519 C 0.14942 0.56531 0.05558 0.0
C520 C 0.21836 0.60215 0.08356 0.0
C521 C 0.16711 0.59613 0.03945 0.0
C522 C 0.27967 0.64278 0.07469 0.0
C523 C 0.29648 0.6389 0.15069 0.0
N524 N 0.20081 0.61342 0.05347 0.0
N525 N 0.26364 0.62107 0.13548 0.0
H526 H 0.29114 0.35704 0.62348 0.0
H527 H 0.47059 0.50746 0.59728 0.0
H528 H 0.32721 0.44051 0.70528 0.0
H529 H 0.43214 0.42731 0.51219 0.0
H530 H 0.41579 0.48538 0.63529 0.0
H531 H 0.34012 0.38401 0.58052 0.0
C532 C 0.30938 0.38114 0.63223 0.0
C533 C 0.30562 0.39636 0.66806 0.0
C534 C 0.41908 0.47273 0.60819 0.0
C535 C 0.36153 0.42745 0.61928 0.0
C536 C 0.45036 0.48539 0.58642 0.0
C537 C 0.456 0.46906 0.55162 0.0
C538 C 0.39328 0.44332 0.59523 0.0
C539 C 0.42889 0.44059 0.53892 0.0
C540 C 0.33726 0.39654 0.60778 0.0
C541 C 0.32953 0.42776 0.67804 0.0
N542 N 0.39886 0.42843 0.56086 0.0
N543 N 0.35663 0.44212 0.65391 0.0
H544 H 0.91292 0.77911 0.92048 0.0
H545 H 0.94229 0.61646 0.0387 0.0
H546 H 0.85141 0.7484 0.02121 0.0
H547 H 0.01731 0.6571 0.95025 0.0
H548 H 0.90899 0.66505 0.03283 0.0
H549 H 0.95192 0.73489 0.93066 0.0
C550 C 0.90791 0.76311 0.94485 0.0
C551 C 0.8791 0.76718 0.97006 0.0
C552 C 0.93287 0.66354 0.01483 0.0
C553 C 0.92305 0.71667 0.98179 0.0
C554 C 0.95181 0.63579 0.01813 0.0
C555 C 0.98233 0.63283 0.99473 0.0
C556 C 0.94434 0.68831 0.98766 0.0
C557 C 0.99378 0.65856 0.96873 0.0
C558 C 0.93009 0.73798 0.95069 0.0
C559 C 0.87339 0.74592 0.00115 0.0
N560 N 0.97453 0.68518 0.96564 0.0
N561 N 0.89508 0.72141 0.00605 0.0
H562 H 0.3769 0.78171 0.1234 0.0
H563 H 0.56971 0.91373 0.09494 0.0
H564 H 0.48681 0.7531 0.13447 0.0
H565 H 0.46154 0.9339 0.05791 0.0
H566 H 0.53971 0.85505 0.11059 0.0
H567 H 0.40699 0.83781 0.10041 0.0
C568 C 0.40732 0.78701 0.12069 0.0
C569 C 0.4293 0.76248 0.13101 0.0
C570 C 0.52253 0.87217 0.09879 0.0
C571 C 0.46399 0.82712 0.10527 0.0
C572 C 0.53964 0.90566 0.08989 0.0
C573 C 0.51799 0.92866 0.07535 0.0
C574 C 0.48336 0.86172 0.09352 0.0
C575 C 0.4792 0.91692 0.06916 0.0
C576 C 0.42449 0.81917 0.10769 0.0
C577 C 0.46869 0.7713 0.12752 0.0
N578 N 0.46302 0.88432 0.07863 0.0
N579 N 0.48474 0.8029 0.11514 0.0
H580 H 0.15163 0.29477 0.62327 0.0
H581 H 0.06872 0.09419 0.65599 0.0
H582 H 0.1289 0.2541 0.73383 0.0
H583 H 0.0903 0.13794 0.54656 0.0
H584 H 0.0901 0.15197 0.68547 0.0
H585 H 0.12824 0.2372 0.59518 0.0
C586 C 0.14174 0.27369 0.6417 0.0
C587 C 0.14255 0.27932 0.68104 0.0
C588 C 0.09013 0.14885 0.65502 0.0
C589 C 0.1154 0.21295 0.64888 0.0
C590 C 0.07802 0.11582 0.63812 0.0
C591 C 0.07769 0.111 0.59864 0.0
C592 C 0.10206 0.17733 0.6323 0.0
C593 C 0.08999 0.14017 0.57706 0.0
C594 C 0.12823 0.24076 0.6256 0.0
C595 C 0.12862 0.25104 0.70337 0.0
N596 N 0.10162 0.17192 0.59414 0.0
N597 N 0.11582 0.21905 0.68701 0.0
H598 H 0.77315 0.31567 0.46475 0.0
H599 H 0.5776 0.38266 0.43726 0.0
H600 H 0.67462 0.25396 0.41103 0.0
H601 H 0.67845 0.44669 0.48419 0.0
H602 H 0.61379 0.33655 0.4233 0.0
H603 H 0.74041 0.36545 0.46801 0.0
C604 C 0.74465 0.31279 0.45349 0.0
C605 C 0.72619 0.28069 0.4383 0.0
C606 C 0.62812 0.36078 0.43635 0.0
C607 C 0.68855 0.33722 0.4418 0.0
C608 C 0.60746 0.38709 0.44427 0.0
C609 C 0.62507 0.41836 0.46207 0.0
C610 C 0.6666 0.36575 0.44653 0.0
C611 C 0.6638 0.42286 0.47055 0.0
C612 C 0.72596 0.34111 0.45531 0.0
C613 C 0.68952 0.27822 0.42352 0.0
N614 N 0.68322 0.39673 0.46298 0.0
N615 N 0.67173 0.30602 0.42599 0.0
loop_
_geom_bond_atom_site_label_1
_geom_bond_atom_site_label_2
_geom_bond_distance
_geom_bond_site_symmetry_2
_ccdc_geom_bond_type
H0 C7 0.929 . S
H1 C10 0.930 . S
H2 C12 0.929 . S
H3 C4 0.969 . S
C4 H3 0.969 . S
C4 O5 1.550 . S
C4 H6 0.973 . S
O5 C4 1.550 . S
O5 C11 1.412 . S
H6 C4 0.973 . S
C7 H0 0.929 . S
C7 C8 1.400 . S
C7 C9 1.364 . S
C8 C7 1.400 . S
C8 C12 1.377 . S
C9 C7 1.364 . S
C9 C10 1.374 . S
C10 H1 0.930 . S
C10 C9 1.374 . S
C10 C11 1.383 . S
C11 O5 1.412 . S
C11 C10 1.383 . S
C11 C12 1.394 . S
C12 H2 0.929 . S
C12 C8 1.377 . S
C12 C11 1.394 . S
H13 C20 0.929 . S
H14 C23 0.930 . S
H15 C25 0.929 . S
H16 C17 0.969 . S
C17 H16 0.969 . S
C17 O18 1.550 . S
C17 H19 0.973 . S
O18 C17 1.550 . S
O18 C24 1.412 . S
H19 C17 0.973 . S
C20 H13 0.929 . S
C20 C21 1.400 . S
C20 C22 1.364 . S
C21 C20 1.400 . S
C21 C25 1.377 . S
C22 C20 1.364 . S
C22 C23 1.374 . S
C23 H14 0.930 . S
C23 C22 1.374 . S
C23 C24 1.383 . S
C24 O18 1.412 . S
C24 C23 1.383 . S
C24 C25 1.394 . S
C25 H15 0.929 . S
C25 C21 1.377 . S
C25 C24 1.394 . S
H26 C33 0.929 . S
H27 C36 0.930 . S
H28 C38 0.929 . S
H29 C30 0.969 . S
C30 H29 0.969 . S
C30 O31 1.550 . S
C30 H32 0.973 . S
O31 C30 1.550 . S
O31 C37 1.412 . S
H32 C30 0.973 . S
C33 H26 0.929 . S
C33 C34 1.400 . S
C33 C35 1.364 . S
C34 C33 1.400 . S
C34 C38 1.377 . S
C35 C33 1.364 . S
C35 C36 1.374 . S
C36 H27 0.930 . S
C36 C35 1.374 . S
C36 C37 1.383 . S
C37 O31 1.412 . S
C37 C36 1.383 . S
C37 C38 1.394 . S
C38 H28 0.929 . S
C38 C34 1.377 . S
C38 C37 1.394 . S
H39 C46 0.929 . S
H40 C49 0.930 . S
H41 C51 0.929 . S
H42 C43 0.969 . S
C43 H42 0.969 . S
C43 O44 1.550 . S
C43 H45 0.973 . S
O44 C43 1.550 . S
O44 C50 1.412 . S
H45 C43 0.973 . S
C46 H39 0.929 . S
C46 C47 1.400 . S
C46 C48 1.364 . S
C47 C46 1.400 . S
C47 C51 1.377 . S
C48 C46 1.364 . S
C48 C49 1.374 . S
C49 H40 0.930 . S
C49 C48 1.374 . S
C49 C50 1.383 . S
C50 O44 1.412 . S
C50 C49 1.383 . S
C50 C51 1.394 . S
C51 H41 0.929 . S
C51 C47 1.377 . S
C51 C50 1.394 . S
H52 C59 0.929 . S
H53 C62 0.930 . S
H54 C64 0.929 . S
H55 C56 0.969 . S
C56 H55 0.969 . S
C56 O57 1.550 . S
C56 H58 0.973 . S
O57 C56 1.550 . S
O57 C63 1.412 . S
H58 C56 0.973 . S
C59 H52 0.929 . S
C59 C60 1.400 . S
C59 C61 1.364 . S
C60 C59 1.400 . S
C60 C64 1.377 . S
C61 C59 1.364 . S
C61 C62 1.374 . S
C62 H53 0.930 . S
C62 C61 1.374 . S
C62 C63 1.383 . S
C63 O57 1.412 . S
C63 C62 1.383 . S
C63 C64 1.394 . S
C64 H54 0.929 . S
C64 C60 1.377 . S
C64 C63 1.394 . S
H65 C72 0.929 . S
H66 C75 0.930 . S
H67 C77 0.929 . S
H68 C69 0.969 . S
C69 H68 0.969 . S
C69 O70 1.550 . S
C69 H71 0.973 . S
O70 C69 1.550 . S
O70 C76 1.412 . S
H71 C69 0.973 . S
C72 H65 0.929 . S
C72 C73 1.400 . S
C72 C74 1.364 . S
C73 C72 1.400 . S
C73 C77 1.377 . S
C74 C72 1.364 . S
C74 C75 1.374 . S
C75 H66 0.930 . S
C75 C74 1.374 . S
C75 C76 1.383 . S
C76 O70 1.412 . S
C76 C75 1.383 . S
C76 C77 1.394 . S
C77 H67 0.929 . S
C77 C73 1.377 . S
C77 C76 1.394 . S
H78 C85 0.929 . S
H79 C88 0.930 . S
H80 C90 0.929 . S
H81 C82 0.969 . S
C82 H81 0.969 . S
C82 O83 1.550 . S
C82 H84 0.973 . S
O83 C82 1.550 . S
O83 C89 1.412 . S
H84 C82 0.973 . S
C85 H78 0.929 . S
C85 C86 1.400 . S
C85 C87 1.364 . S
C86 C85 1.400 . S
C86 C90 1.377 . S
C87 C85 1.364 . S
C87 C88 1.374 . S
C88 H79 0.930 . S
C88 C87 1.374 . S
C88 C89 1.383 . S
C89 O83 1.412 . S
C89 C88 1.383 . S
C89 C90 1.394 . S
C90 H80 0.929 . S
C90 C86 1.377 . S
C90 C89 1.394 . S
H91 C98 0.929 . S
H92 C101 0.930 . S
H93 C103 0.929 . S
H94 C95 0.969 . S
C95 H94 0.969 . S
C95 O96 1.550 . S
C95 H97 0.973 . S
O96 C95 1.550 . S
O96 C102 1.412 . S
H97 C95 0.973 . S
C98 H91 0.929 . S
C98 C99 1.400 . S
C98 C100 1.364 . S
C99 C98 1.400 . S
C99 C103 1.377 . S
C100 C98 1.364 . S
C100 C101 1.374 . S
C101 H92 0.930 . S
C101 C100 1.374 . S
C101 C102 1.383 . S
C102 O96 1.412 . S
C102 C101 1.383 . S
C102 C103 1.394 . S
C103 H93 0.929 . S
C103 C99 1.377 . S
C103 C102 1.394 . S
Dy104 O108 2.398 . S
Dy104 O109 2.491 . S
Dy104 O110 2.403 . S
Dy104 O111 2.664 . S
Dy104 O115 2.326 . S
Dy104 O119 2.310 1_455 S
Dy104 O120 2.351 1_545 S
C105 O116 1.185 . S
C105 O117 1.355 . S
C106 O108 1.185 . S
C106 O109 1.355 . S
Dy107 O111 2.310 1_655 S
Dy107 O114 2.351 1_655 S
Dy107 O116 2.398 1_545 S
Dy107 O117 2.491 1_545 S
Dy107 O118 2.403 . S
Dy107 O119 2.664 . S
Dy107 O121 2.326 1_545 S
O108 Dy104 2.398 . S
O108 C106 1.185 . S
O109 Dy104 2.491 . S
O109 C106 1.355 . S
O110 Dy104 2.403 . S
O110 C112 1.254 . S
O111 Dy104 2.664 . S
O111 Dy107 2.310 1_455 S
O111 C112 1.268 . S
C112 O110 1.254 . S
C112 O111 1.268 . S
C113 O118 1.254 . S
C113 O119 1.268 . S
O114 Dy107 2.351 1_455 S
O114 C122 1.249 . S
O115 Dy104 2.326 . S
O115 C122 1.267 . S
O116 C105 1.185 . S
O116 Dy107 2.398 1_565 S
O117 C105 1.355 . S
O117 Dy107 2.491 1_565 S
O118 Dy107 2.403 . S
O118 C113 1.254 . S
O119 Dy104 2.310 1_655 S
O119 Dy107 2.664 . S
O119 C113 1.268 . S
O120 Dy104 2.351 1_565 S
O120 C123 1.249 1_455 S
O121 Dy107 2.326 1_565 S
O121 C123 1.267 . S
C122 O114 1.249 . S
C122 O115 1.267 . S
C123 O120 1.249 1_655 S
C123 O121 1.267 . S
Dy124 O128 2.398 . S
Dy124 O129 2.491 . S
Dy124 O130 2.403 1_545 S
Dy124 O131 2.664 1_545 S
Dy124 O135 2.326 . S
Dy124 O139 2.310 . S
Dy124 O140 2.351 1_545 S
C125 O136 1.185 1_565 S
C125 O137 1.355 . S
C126 O128 1.185 . S
C126 O129 1.355 . S
Dy127 O131 2.310 1_546 S
Dy127 O134 2.351 1_556 S
Dy127 O136 2.398 . S
Dy127 O137 2.491 1_545 S
Dy127 O138 2.403 . S
Dy127 O139 2.664 1_556 S
Dy127 O141 2.326 1_545 S
O128 Dy124 2.398 . S
O128 C126 1.185 . S
O129 Dy124 2.491 . S
O129 C126 1.355 . S
O130 Dy124 2.403 1_565 S
O130 C132 1.254 . S
O131 Dy124 2.664 1_565 S
O131 Dy127 2.310 1_564 S
O131 C132 1.268 . S
C132 O130 1.254 . S
C132 O131 1.268 . S
C133 O138 1.254 . S
C133 O139 1.268 1_556 S
O134 Dy127 2.351 1_554 S
O134 C142 1.249 . S
O135 Dy124 2.326 . S
O135 C142 1.267 . S
O136 C125 1.185 1_545 S
O136 Dy127 2.398 . S
O137 C125 1.355 . S
O137 Dy127 2.491 1_565 S
O138 Dy127 2.403 . S
O138 C133 1.254 . S
O139 Dy124 2.310 . S
O139 Dy127 2.664 1_554 S
O139 C133 1.268 1_554 S
O140 Dy124 2.351 1_565 S
O140 C143 1.249 1_554 S
O141 Dy127 2.326 1_565 S
O141 C143 1.267 . S
C142 O134 1.249 . S
C142 O135 1.267 . S
C143 O140 1.249 1_556 S
C143 O141 1.267 . S
Dy144 O148 2.398 . S
Dy144 O149 2.491 . S
Dy144 O150 2.403 . S
Dy144 O151 2.664 . S
Dy144 O155 2.326 . S
Dy144 O159 2.310 . S
Dy144 O160 2.351 . S
C145 O156 1.185 . S
C145 O157 1.355 . S
C146 O148 1.185 . S
C146 O149 1.355 . S
Dy147 O151 2.310 . S
Dy147 O154 2.351 . S
Dy147 O156 2.398 . S
Dy147 O157 2.491 . S
Dy147 O158 2.403 . S
Dy147 O159 2.664 . S
Dy147 O161 2.326 . S
O148 Dy144 2.398 . S
O148 C146 1.185 . S
O149 Dy144 2.491 . S
O149 C146 1.355 . S
O150 Dy144 2.403 . S
O150 C152 1.254 . S
O151 Dy144 2.664 . S
O151 Dy147 2.310 . S
O151 C152 1.268 . S
C152 O150 1.254 . S
C152 O151 1.268 . S
C153 O158 1.254 . S
C153 O159 1.268 . S
O154 Dy147 2.351 . S
O154 C162 1.249 . S
O155 Dy144 2.326 . S
O155 C162 1.267 . S
O156 C145 1.185 . S
O156 Dy147 2.398 . S
O157 C145 1.355 . S
O157 Dy147 2.491 . S
O158 Dy147 2.403 . S
O158 C153 1.254 . S
O159 Dy144 2.310 . S
O159 Dy147 2.664 . S
O159 C153 1.268 . S
O160 Dy144 2.351 . S
O160 C163 1.249 . S
O161 Dy147 2.326 . S
O161 C163 1.267 . S
C162 O154 1.249 . S
C162 O155 1.267 . S
C163 O160 1.249 . S
C163 O161 1.267 . S
Dy164 O168 2.398 . S
Dy164 O169 2.491 . S
Dy164 O170 2.403 . S
Dy164 O171 2.664 . S
Dy164 O175 2.326 . S
Dy164 O179 2.310 . S
Dy164 O180 2.351 1_455 S
C165 O176 1.185 . S
C165 O177 1.355 1_556 S
C166 O168 1.185 . S
C166 O169 1.355 . S
Dy167 O171 2.310 . S
Dy167 O174 2.351 . S
Dy167 O176 2.398 1_454 S
Dy167 O177 2.491 1_455 S
Dy167 O178 2.403 1_554 S
Dy167 O179 2.664 . S
Dy167 O181 2.326 1_454 S
O168 Dy164 2.398 . S
O168 C166 1.185 . S
O169 Dy164 2.491 . S
O169 C166 1.355 . S
O170 Dy164 2.403 . S
O170 C172 1.254 . S
O171 Dy164 2.664 . S
O171 Dy167 2.310 . S
O171 C172 1.268 . S
C172 O170 1.254 . S
C172 O171 1.268 . S
C173 O178 1.254 . S
C173 O179 1.268 1_556 S
O174 Dy167 2.351 . S
O174 C182 1.249 . S
O175 Dy164 2.326 . S
O175 C182 1.267 . S
O176 C165 1.185 . S
O176 Dy167 2.398 1_656 S
O177 C165 1.355 1_554 S
O177 Dy167 2.491 1_655 S
O178 Dy167 2.403 1_556 S
O178 C173 1.254 . S
O179 Dy164 2.310 . S
O179 Dy167 2.664 . S
O179 C173 1.268 1_554 S
O180 Dy164 2.351 1_655 S
O180 C183 1.249 . S
O181 Dy167 2.326 1_656 S
O181 C183 1.267 1_556 S
C182 O174 1.249 . S
C182 O175 1.267 . S
C183 O180 1.249 . S
C183 O181 1.267 1_554 S
H184 C190 0.930 . S
H185 C194 0.930 . S
H186 C199 0.929 . S
H187 C197 0.929 . S
H188 C192 0.929 . S
H189 C198 0.929 . S
C190 H184 0.930 . S
C190 C191 1.367 . S
C190 C198 1.378 . S
C191 C190 1.367 . S
C191 C199 1.433 . S
C192 H188 0.929 . S
C192 C194 1.378 . S
C192 C196 1.350 . S
C193 C196 1.463 . S
C193 C198 1.350 . S
C193 N201 1.427 . S
C194 H185 0.930 . S
C194 C192 1.378 . S
C194 C195 1.367 . S
C195 C194 1.367 . S
C195 C197 1.433 . S
C196 C192 1.350 . S
C196 C193 1.463 . S
C196 N200 1.427 . S
C197 H187 0.929 . S
C197 C195 1.433 . S
C197 N200 1.384 . S
C198 H189 0.929 . S
C198 C190 1.378 . S
C198 C193 1.350 . S
C199 H186 0.929 . S
C199 C191 1.433 . S
C199 N201 1.384 . S
N200 C196 1.427 . S
N200 C197 1.384 . S
N201 C193 1.427 . S
N201 C199 1.384 . S
H202 C208 0.930 . S
H203 C212 0.930 . S
H204 C217 0.929 . S
H205 C215 0.929 . S
H206 C210 0.929 . S
H207 C216 0.929 . S
C208 H202 0.930 . S
C208 C209 1.367 . S
C208 C216 1.378 . S
C209 C208 1.367 . S
C209 C217 1.433 . S
C210 H206 0.929 . S
C210 C212 1.378 . S
C210 C214 1.350 . S
C211 C214 1.463 . S
C211 C216 1.350 . S
C211 N219 1.427 . S
C212 H203 0.930 . S
C212 C210 1.378 . S
C212 C213 1.367 . S
C213 C212 1.367 . S
C213 C215 1.433 . S
C214 C210 1.350 . S
C214 C211 1.463 . S
C214 N218 1.427 . S
C215 H205 0.929 . S
C215 C213 1.433 . S
C215 N218 1.384 . S
C216 H207 0.929 . S
C216 C208 1.378 . S
C216 C211 1.350 . S
C217 H204 0.929 . S
C217 C209 1.433 . S
C217 N219 1.384 . S
N218 C214 1.427 . S
N218 C215 1.384 . S
N219 C211 1.427 . S
N219 C217 1.384 . S
H220 C226 0.930 . S
H221 C230 0.930 . S
H222 C235 0.929 . S
H223 C233 0.929 . S
H224 C228 0.929 . S
H225 C234 0.929 . S
C226 H220 0.930 . S
C226 C227 1.367 . S
C226 C234 1.378 . S
C227 C226 1.367 . S
C227 C235 1.433 . S
C228 H224 0.929 . S
C228 C230 1.378 . S
C228 C232 1.350 . S
C229 C232 1.463 . S
C229 C234 1.350 . S
C229 N237 1.427 . S
C230 H221 0.930 . S
C230 C228 1.378 . S
C230 C231 1.367 . S
C231 C230 1.367 . S
C231 C233 1.433 . S
C232 C228 1.350 . S
C232 C229 1.463 . S
C232 N236 1.427 . S
C233 H223 0.929 . S
C233 C231 1.433 . S
C233 N236 1.384 . S
C234 H225 0.929 . S
C234 C226 1.378 . S
C234 C229 1.350 . S
C235 H222 0.929 . S
C235 C227 1.433 . S
C235 N237 1.384 . S
N236 C232 1.427 . S
N236 C233 1.384 . S
N237 C229 1.427 . S
N237 C235 1.384 . S
H238 C244 0.930 . S
H239 C248 0.930 . S
H240 C253 0.929 . S
H241 C251 0.929 . S
H242 C246 0.929 . S
H243 C252 0.929 . S
C244 H238 0.930 . S
C244 C245 1.367 . S
C244 C252 1.378 . S
C245 C244 1.367 . S
C245 C253 1.433 . S
C246 H242 0.929 . S
C246 C248 1.378 . S
C246 C250 1.350 . S
C247 C250 1.463 . S
C247 C252 1.350 . S
C247 N255 1.427 . S
C248 H239 0.930 . S
C248 C246 1.378 . S
C248 C249 1.367 . S
C249 C248 1.367 . S
C249 C251 1.433 1_655 S
C250 C246 1.350 . S
C250 C247 1.463 . S
C250 N254 1.427 . S
C251 H241 0.929 . S
C251 C249 1.433 1_455 S
C251 N254 1.384 1_455 S
C252 H243 0.929 . S
C252 C244 1.378 . S
C252 C247 1.350 . S
C253 H240 0.929 . S
C253 C245 1.433 . S
C253 N255 1.384 . S
N254 C250 1.427 . S
N254 C251 1.384 1_655 S
N255 C247 1.427 . S
N255 C253 1.384 . S
H256 C262 0.930 . S
H257 C266 0.930 . S
H258 C271 0.929 . S
H259 C269 0.929 . S
H260 C264 0.929 . S
H261 C270 0.929 . S
C262 H256 0.930 . S
C262 C263 1.367 . S
C262 C270 1.378 . S
C263 C262 1.367 . S
C263 C271 1.433 . S
C264 H260 0.929 . S
C264 C266 1.378 . S
C264 C268 1.350 . S
C265 C268 1.463 . S
C265 C270 1.350 . S
C265 N273 1.427 . S
C266 H257 0.930 . S
C266 C264 1.378 . S
C266 C267 1.367 . S
C267 C266 1.367 . S
C267 C269 1.433 . S
C268 C264 1.350 . S
C268 C265 1.463 . S
C268 N272 1.427 . S
C269 H259 0.929 . S
C269 C267 1.433 . S
C269 N272 1.384 . S
C270 H261 0.929 . S
C270 C262 1.378 . S
C270 C265 1.350 . S
C271 H258 0.929 . S
C271 C263 1.433 . S
C271 N273 1.384 . S
N272 C268 1.427 . S
N272 C269 1.384 . S
N273 C265 1.427 . S
N273 C271 1.384 . S
H274 C280 0.930 . S
H275 C284 0.930 1_545 S
H276 C289 0.929 . S
H277 C287 0.929 . S
H278 C282 0.929 . S
H279 C288 0.929 . S
C280 H274 0.930 . S
C280 C281 1.367 . S
C280 C288 1.378 . S
C281 C280 1.367 . S
C281 C289 1.433 . S
C282 H278 0.929 . S
C282 C284 1.378 . S
C282 C286 1.350 . S
C283 C286 1.463 . S
C283 C288 1.350 . S
C283 N291 1.427 . S
C284 H275 0.930 1_565 S
C284 C282 1.378 . S
C284 C285 1.367 . S
C285 C284 1.367 . S
C285 C287 1.433 . S
C286 C282 1.350 . S
C286 C283 1.463 . S
C286 N290 1.427 . S
C287 H277 0.929 . S
C287 C285 1.433 . S
C287 N290 1.384 . S
C288 H279 0.929 . S
C288 C280 1.378 . S
C288 C283 1.350 . S
C289 H276 0.929 . S
C289 C281 1.433 . S
C289 N291 1.384 . S
N290 C286 1.427 . S
N290 C287 1.384 . S
N291 C283 1.427 . S
N291 C289 1.384 . S
H292 C298 0.930 . S
H293 C302 0.930 . S
H294 C307 0.929 . S
H295 C305 0.929 . S
H296 C300 0.929 . S
H297 C306 0.929 . S
C298 H292 0.930 . S
C298 C299 1.367 . S
C298 C306 1.378 . S
C299 C298 1.367 . S
C299 C307 1.433 . S
C300 H296 0.929 . S
C300 C302 1.378 . S
C300 C304 1.350 . S
C301 C304 1.463 . S
C301 C306 1.350 . S
C301 N309 1.427 . S
C302 H293 0.930 . S
C302 C300 1.378 . S
C302 C303 1.372 . S
C303 C302 1.372 . S
C303 C305 1.431 1_556 S
C304 C300 1.350 . S
C304 C301 1.463 . S
C304 N308 1.415 1_556 S
C305 H295 0.929 . S
C305 C303 1.431 1_554 S
C305 N308 1.390 . S
C306 H297 0.929 . S
C306 C298 1.378 . S
C306 C301 1.350 . S
C307 H294 0.929 . S
C307 C299 1.433 . S
C307 N309 1.384 . S
N308 C304 1.415 1_554 S
N308 C305 1.390 . S
N309 C301 1.427 . S
N309 C307 1.384 . S
H310 C316 0.930 . S
H311 C320 0.930 . S
H312 C325 0.929 . S
H313 C323 0.929 . S
H314 C318 0.929 . S
H315 C324 0.929 . S
C316 H310 0.930 . S
C316 C317 1.367 . S
C316 C324 1.378 . S
C317 C316 1.367 . S
C317 C325 1.433 . S
C318 H314 0.929 . S
C318 C320 1.378 . S
C318 C322 1.350 . S
C319 C322 1.463 . S
C319 C324 1.350 . S
C319 N327 1.427 . S
C320 H311 0.930 . S
C320 C318 1.378 . S
C320 C321 1.367 . S
C321 C320 1.367 . S
C321 C323 1.433 . S
C322 C318 1.350 . S
C322 C319 1.463 . S
C322 N326 1.427 . S
C323 H313 0.929 . S
C323 C321 1.433 . S
C323 N326 1.384 . S
C324 H315 0.929 . S
C324 C316 1.378 . S
C324 C319 1.350 . S
C325 H312 0.929 . S
C325 C317 1.433 . S
C325 N327 1.384 . S
N326 C322 1.427 . S
N326 C323 1.384 . S
N327 C319 1.427 . S
N327 C325 1.384 . S
H328 C334 0.930 . S
H329 C338 0.930 . S
H330 C343 0.929 . S
H331 C341 0.929 . S
H332 C336 0.929 . S
H333 C342 0.929 . S
C334 H328 0.930 . S
C334 C335 1.367 . S
C334 C342 1.378 . S
C335 C334 1.367 . S
C335 C343 1.433 . S
C336 H332 0.929 . S
C336 C338 1.378 . S
C336 C340 1.350 . S
C337 C340 1.463 . S
C337 C342 1.350 . S
C337 N345 1.427 . S
C338 H329 0.930 . S
C338 C336 1.378 . S
C338 C339 1.367 . S
C339 C338 1.367 . S
C339 C341 1.433 . S
C340 C336 1.350 . S
C340 C337 1.463 . S
C340 N344 1.427 . S
C341 H331 0.929 . S
C341 C339 1.433 . S
C341 N344 1.384 . S
C342 H333 0.929 . S
C342 C334 1.378 . S
C342 C337 1.350 . S
C343 H330 0.929 . S
C343 C335 1.433 . S
C343 N345 1.384 . S
N344 C340 1.427 . S
N344 C341 1.384 . S
N345 C337 1.427 . S
N345 C343 1.384 . S
H346 C352 0.930 . S
H347 C356 0.930 . S
H348 C361 0.929 . S
H349 C359 0.929 1_554 S
H350 C354 0.929 . S
H351 C360 0.929 . S
C352 H346 0.930 . S
C352 C353 1.367 . S
C352 C360 1.378 . S
C353 C352 1.367 . S
C353 C361 1.433 . S
C354 H350 0.929 . S
C354 C356 1.378 . S
C354 C358 1.350 . S
C355 C358 1.463 . S
C355 C360 1.350 . S
C355 N363 1.427 . S
C356 H347 0.930 . S
C356 C354 1.378 . S
C356 C357 1.367 . S
C357 C356 1.367 . S
C357 C359 1.433 . S
C358 C354 1.350 . S
C358 C355 1.463 . S
C358 N362 1.427 . S
C359 H349 0.929 1_556 S
C359 C357 1.433 . S
C359 N362 1.384 . S
C360 H351 0.929 . S
C360 C352 1.378 . S
C360 C355 1.350 . S
C361 H348 0.929 . S
C361 C353 1.433 . S
C361 N363 1.384 . S
N362 C358 1.427 . S
N362 C359 1.384 . S
N363 C355 1.427 . S
N363 C361 1.384 . S
H364 C370 0.930 . S
H365 C374 0.930 . S
H366 C379 0.929 . S
H367 C377 0.929 . S
H368 C372 0.929 . S
H369 C378 0.929 . S
C370 H364 0.930 . S
C370 C371 1.367 . S
C370 C378 1.378 . S
C371 C370 1.367 . S
C371 C379 1.433 . S
C372 H368 0.929 . S
C372 C374 1.378 . S
C372 C376 1.350 . S
C373 C376 1.463 . S
C373 C378 1.350 . S
C373 N381 1.427 . S
C374 H365 0.930 . S
C374 C372 1.378 . S
C374 C375 1.367 . S
C375 C374 1.367 . S
C375 C377 1.433 . S
C376 C372 1.350 . S
C376 C373 1.463 . S
C376 N380 1.427 . S
C377 H367 0.929 . S
C377 C375 1.433 . S
C377 N380 1.384 . S
C378 H369 0.929 . S
C378 C370 1.378 . S
C378 C373 1.350 . S
C379 H366 0.929 . S
C379 C371 1.433 . S
C379 N381 1.384 . S
N380 C376 1.427 . S
N380 C377 1.384 . S
N381 C373 1.427 . S
N381 C379 1.384 . S
H382 C388 0.930 . S
H383 C392 0.930 . S
H384 C397 0.929 . S
H385 C395 0.929 . S
H386 C390 0.929 . S
H387 C396 0.929 . S
C388 H382 0.930 . S
C388 C389 1.367 . S
C388 C396 1.378 . S
C389 C388 1.367 . S
C389 C397 1.433 . S
C390 H386 0.929 . S
C390 C392 1.378 . S
C390 C394 1.350 . S
C391 C394 1.463 . S
C391 C396 1.350 . S
C391 N399 1.427 . S
C392 H383 0.930 . S
C392 C390 1.378 . S
C392 C393 1.367 . S
C393 C392 1.367 . S
C393 C395 1.433 . S
C394 C390 1.350 . S
C394 C391 1.463 . S
C394 N398 1.427 . S
C395 H385 0.929 . S
C395 C393 1.433 . S
C395 N398 1.384 . S
C396 H387 0.929 . S
C396 C388 1.378 . S
C396 C391 1.350 . S
C397 H384 0.929 . S
C397 C389 1.433 . S
C397 N399 1.384 . S
N398 C394 1.427 . S
N398 C395 1.384 . S
N399 C391 1.427 . S
N399 C397 1.384 . S
H400 C406 0.930 . S
H401 C410 0.930 . S
H402 C415 0.929 . S
H403 C413 0.929 . S
H404 C408 0.929 . S
H405 C414 0.929 . S
C406 H400 0.930 . S
C406 C407 1.367 . S
C406 C414 1.378 . S
C407 C406 1.367 . S
C407 C415 1.433 . S
C408 H404 0.929 . S
C408 C410 1.378 . S
C408 C412 1.350 . S
C409 C412 1.463 . S
C409 C414 1.350 . S
C409 N417 1.427 . S
C410 H401 0.930 . S
C410 C408 1.378 . S
C410 C411 1.367 . S
C411 C410 1.367 . S
C411 C413 1.433 . S
C412 C408 1.350 . S
C412 C409 1.463 . S
C412 N416 1.427 . S
C413 H403 0.929 . S
C413 C411 1.433 . S
C413 N416 1.384 . S
C414 H405 0.929 . S
C414 C406 1.378 . S
C414 C409 1.350 . S
C415 H402 0.929 . S
C415 C407 1.433 . S
C415 N417 1.384 . S
N416 C412 1.427 . S
N416 C413 1.384 . S
N417 C409 1.427 . S
N417 C415 1.384 . S
H418 C424 0.930 . S
H419 C428 0.930 . S
H420 C433 0.929 . S
H421 C431 0.929 . S
H422 C426 0.929 . S
H423 C432 0.929 . S
C424 H418 0.930 . S
C424 C425 1.367 . S
C424 C432 1.378 . S
C425 C424 1.367 . S
C425 C433 1.433 . S
C426 H422 0.929 . S
C426 C428 1.378 . S
C426 C430 1.350 . S
C427 C430 1.463 . S
C427 C432 1.350 . S
C427 N435 1.427 . S
C428 H419 0.930 . S
C428 C426 1.378 . S
C428 C429 1.367 . S
C429 C428 1.367 . S
C429 C431 1.433 . S
C430 C426 1.350 . S
C430 C427 1.463 . S
C430 N434 1.427 . S
C431 H421 0.929 . S
C431 C429 1.433 . S
C431 N434 1.384 . S
C432 H423 0.929 . S
C432 C424 1.378 . S
C432 C427 1.350 . S
C433 H420 0.929 . S
C433 C425 1.433 . S
C433 N435 1.384 . S
N434 C430 1.427 . S
N434 C431 1.384 . S
N435 C427 1.427 . S
N435 C433 1.384 . S
H436 C442 0.930 . S
H437 C446 0.930 . S
H438 C451 0.929 . S
H439 C449 0.929 . S
H440 C444 0.929 . S
H441 C450 0.929 . S
C442 H436 0.930 . S
C442 C443 1.367 . S
C442 C450 1.378 . S
C443 C442 1.367 . S
C443 C451 1.433 . S
C444 H440 0.929 . S
C444 C446 1.378 . S
C444 C448 1.350 . S
C445 C448 1.463 . S
C445 C450 1.350 . S
C445 N453 1.427 . S
C446 H437 0.930 . S
C446 C444 1.378 . S
C446 C447 1.367 . S
C447 C446 1.367 . S
C447 C449 1.433 . S
C448 C444 1.350 . S
C448 C445 1.463 . S
C448 N452 1.427 . S
C449 H439 0.929 . S
C449 C447 1.433 . S
C449 N452 1.384 . S
C450 H441 0.929 . S
C450 C442 1.378 . S
C450 C445 1.350 . S
C451 H438 0.929 . S
C451 C443 1.433 . S
C451 N453 1.384 . S
N452 C448 1.427 . S
N452 C449 1.384 . S
N453 C445 1.427 . S
N453 C451 1.384 . S
H454 C460 0.930 . S
H455 C464 0.930 . S
H456 C469 0.929 . S
H457 C467 0.929 . S
H458 C462 0.929 . S
H459 C468 0.929 . S
C460 H454 0.930 . S
C460 C461 1.367 . S
C460 C468 1.378 . S
C461 C460 1.367 . S
C461 C469 1.433 . S
C462 H458 0.929 . S
C462 C464 1.378 . S
C462 C466 1.350 . S
C463 C466 1.463 . S
C463 C468 1.350 . S
C463 N471 1.427 . S
C464 H455 0.930 . S
C464 C462 1.378 . S
C464 C465 1.367 . S
C465 C464 1.367 . S
C465 C467 1.433 . S
C466 C462 1.350 . S
C466 C463 1.463 . S
C466 N470 1.427 . S
C467 H457 0.929 . S
C467 C465 1.433 . S
C467 N470 1.384 . S
C468 H459 0.929 . S
C468 C460 1.378 . S
C468 C463 1.350 . S
C469 H456 0.929 . S
C469 C461 1.433 . S
C469 N471 1.384 . S
N470 C466 1.427 . S
N470 C467 1.384 . S
N471 C463 1.427 . S
N471 C469 1.384 . S
H472 C478 0.930 . S
H473 C482 0.930 . S
H474 C487 0.929 . S
H475 C485 0.929 . S
H476 C480 0.929 . S
H477 C486 0.929 . S
C478 H472 0.930 . S
C478 C479 1.367 . S
C478 C486 1.378 . S
C479 C478 1.367 . S
C479 C487 1.433 . S
C480 H476 0.929 . S
C480 C482 1.378 . S
C480 C484 1.350 . S
C481 C484 1.463 . S
C481 C486 1.350 . S
C481 N489 1.427 . S
C482 H473 0.930 . S
C482 C480 1.378 . S
C482 C483 1.367 . S
C483 C482 1.367 . S
C483 C485 1.433 . S
C484 C480 1.350 . S
C484 C481 1.463 . S
C484 N488 1.427 . S
C485 H475 0.929 . S
C485 C483 1.433 . S
C485 N488 1.384 . S
C486 H477 0.929 . S
C486 C478 1.378 . S
C486 C481 1.350 . S
C487 H474 0.929 . S
C487 C479 1.433 . S
C487 N489 1.384 . S
N488 C484 1.427 . S
N488 C485 1.384 . S
N489 C481 1.427 . S
N489 C487 1.384 . S
H490 C496 0.930 . S
H491 C500 0.930 . S
H492 C505 0.929 . S
H493 C503 0.929 . S
H494 C498 0.929 . S
H495 C504 0.929 . S
C496 H490 0.930 . S
C496 C497 1.367 . S
C496 C504 1.378 . S
C497 C496 1.367 . S
C497 C505 1.433 . S
C498 H494 0.929 . S
C498 C500 1.378 . S
C498 C502 1.350 . S
C499 C502 1.463 . S
C499 C504 1.350 . S
C499 N507 1.427 . S
C500 H491 0.930 . S
C500 C498 1.378 . S
C500 C501 1.367 . S
C501 C500 1.367 . S
C501 C503 1.433 . S
C502 C498 1.350 . S
C502 C499 1.463 . S
C502 N506 1.427 . S
C503 H493 0.929 . S
C503 C501 1.433 . S
C503 N506 1.384 . S
C504 H495 0.929 . S
C504 C496 1.378 . S
C504 C499 1.350 . S
C505 H492 0.929 . S
C505 C497 1.433 . S
C505 N507 1.384 . S
N506 C502 1.427 . S
N506 C503 1.384 . S
N507 C499 1.427 . S
N507 C505 1.384 . S
H508 C514 0.930 . S
H509 C518 0.930 . S
H510 C523 0.929 . S
H511 C521 0.929 . S
H512 C516 0.929 . S
H513 C522 0.929 . S
C514 H508 0.930 . S
C514 C515 1.367 . S
C514 C522 1.378 . S
C515 C514 1.367 . S
C515 C523 1.433 . S
C516 H512 0.929 . S
C516 C518 1.378 . S
C516 C520 1.350 . S
C517 C520 1.463 . S
C517 C522 1.350 . S
C517 N525 1.427 . S
C518 H509 0.930 . S
C518 C516 1.378 . S
C518 C519 1.367 . S
C519 C518 1.367 . S
C519 C521 1.433 . S
C520 C516 1.350 . S
C520 C517 1.463 . S
C520 N524 1.427 . S
C521 H511 0.929 . S
C521 C519 1.433 . S
C521 N524 1.384 . S
C522 H513 0.929 . S
C522 C514 1.378 . S
C522 C517 1.350 . S
C523 H510 0.929 . S
C523 C515 1.433 . S
C523 N525 1.384 . S
N524 C520 1.427 . S
N524 C521 1.384 . S
N525 C517 1.427 . S
N525 C523 1.384 . S
H526 C532 0.930 . S
H527 C536 0.930 . S
H528 C541 0.929 . S
H529 C539 0.929 . S
H530 C534 0.929 . S
H531 C540 0.929 . S
C532 H526 0.930 . S
C532 C533 1.367 . S
C532 C540 1.378 . S
C533 C532 1.367 . S
C533 C541 1.433 . S
C534 H530 0.929 . S
C534 C536 1.378 . S
C534 C538 1.350 . S
C535 C538 1.463 . S
C535 C540 1.350 . S
C535 N543 1.427 . S
C536 H527 0.930 . S
C536 C534 1.378 . S
C536 C537 1.367 . S
C537 C536 1.367 . S
C537 C539 1.433 . S
C538 C534 1.350 . S
C538 C535 1.463 . S
C538 N542 1.427 . S
C539 H529 0.929 . S
C539 C537 1.433 . S
C539 N542 1.384 . S
C540 H531 0.929 . S
C540 C532 1.378 . S
C540 C535 1.350 . S
C541 H528 0.929 . S
C541 C533 1.433 . S
C541 N543 1.384 . S
N542 C538 1.427 . S
N542 C539 1.384 . S
N543 C535 1.427 . S
N543 C541 1.384 . S
H544 C550 0.930 . S
H545 C554 0.930 . S
H546 C559 0.929 . S
H547 C557 0.929 . S
H548 C552 0.929 . S
H549 C558 0.929 . S
C550 H544 0.930 . S
C550 C551 1.367 . S
C550 C558 1.378 . S
C551 C550 1.367 . S
C551 C559 1.433 . S
C552 H548 0.929 . S
C552 C554 1.378 . S
C552 C556 1.350 . S
C553 C556 1.463 . S
C553 C558 1.350 . S
C553 N561 1.427 . S
C554 H545 0.930 . S
C554 C552 1.378 . S
C554 C555 1.367 . S
C555 C554 1.367 . S
C555 C557 1.433 . S
C556 C552 1.350 . S
C556 C553 1.463 . S
C556 N560 1.427 . S
C557 H547 0.929 . S
C557 C555 1.433 . S
C557 N560 1.384 . S
C558 H549 0.929 . S
C558 C550 1.378 . S
C558 C553 1.350 . S
C559 H546 0.929 . S
C559 C551 1.433 . S
C559 N561 1.384 . S
N560 C556 1.427 . S
N560 C557 1.384 . S
N561 C553 1.427 . S
N561 C559 1.384 . S
H562 C568 0.930 . S
H563 C572 0.930 . S
H564 C577 0.929 . S
H565 C575 0.929 . S
H566 C570 0.929 . S
H567 C576 0.929 . S
C568 H562 0.930 . S
C568 C569 1.367 . S
C568 C576 1.378 . S
C569 C568 1.367 . S
C569 C577 1.433 . S
C570 H566 0.929 . S
C570 C572 1.378 . S
C570 C574 1.350 . S
C571 C574 1.463 . S
C571 C576 1.350 . S
C571 N579 1.427 . S
C572 H563 0.930 . S
C572 C570 1.378 . S
C572 C573 1.367 . S
C573 C572 1.367 . S
C573 C575 1.433 . S
C574 C570 1.350 . S
C574 C571 1.463 . S
C574 N578 1.427 . S
C575 H565 0.929 . S
C575 C573 1.433 . S
C575 N578 1.384 . S
C576 H567 0.929 . S
C576 C568 1.378 . S
C576 C571 1.350 . S
C577 H564 0.929 . S
C577 C569 1.433 . S
C577 N579 1.384 . S
N578 C574 1.427 . S
N578 C575 1.384 . S
N579 C571 1.427 . S
N579 C577 1.384 . S
H580 C586 0.930 . S
H581 C590 0.930 . S
H582 C595 0.929 . S
H583 C593 0.929 . S
H584 C588 0.929 . S
H585 C594 0.929 . S
C586 H580 0.930 . S
C586 C587 1.367 . S
C586 C594 1.378 . S
C587 C586 1.367 . S
C587 C595 1.433 . S
C588 H584 0.929 . S
C588 C590 1.378 . S
C588 C592 1.350 . S
C589 C592 1.463 . S
C589 C594 1.350 . S
C589 N597 1.427 . S
C590 H581 0.930 . S
C590 C588 1.378 . S
C590 C591 1.367 . S
C591 C590 1.367 . S
C591 C593 1.433 . S
C592 C588 1.350 . S
C592 C589 1.463 . S
C592 N596 1.427 . S
C593 H583 0.929 . S
C593 C591 1.433 . S
C593 N596 1.384 . S
C594 H585 0.929 . S
C594 C586 1.378 . S
C594 C589 1.350 . S
C595 H582 0.929 . S
C595 C587 1.433 . S
C595 N597 1.384 . S
N596 C592 1.427 . S
N596 C593 1.384 . S
N597 C589 1.427 . S
N597 C595 1.384 . S
H598 C604 0.930 . S
H599 C608 0.930 . S
H600 C613 0.929 . S
H601 C611 0.929 . S
H602 C606 0.929 . S
H603 C612 0.929 . S
C604 H598 0.930 . S
C604 C605 1.367 . S
C604 C612 1.378 . S
C605 C604 1.367 . S
C605 C613 1.433 . S
C606 H602 0.929 . S
C606 C608 1.378 . S
C606 C610 1.350 . S
C607 C610 1.463 . S
C607 C612 1.350 . S
C607 N615 1.427 . S
C608 H599 0.930 . S
C608 C606 1.378 . S
C608 C609 1.367 . S
C609 C608 1.367 . S
C609 C611 1.433 . S
C610 C606 1.350 . S
C610 C607 1.463 . S
C610 N614 1.427 . S
C611 H601 0.929 . S
C611 C609 1.433 . S
C611 N614 1.384 . S
C612 H603 0.929 . S
C612 C604 1.378 . S
C612 C607 1.350 . S
C613 H600 0.929 . S
C613 C605 1.433 . S
C613 N615 1.384 . S
N614 C610 1.427 . S
N614 C611 1.384 . S
N615 C607 1.427 . S
N615 C613 1.384 . S
C191 C9 1.733 . S
C195 C106 1.727 . S
C209 C21 1.417 . S
C213 C125 1.372 . S
C231 C162 1.491 . S
C227 C30 1.491 . S
C245 C43 1.481 . S
C249 C172 1.530 1_655 S
C267 C142 1.735 . S
C263 C4 1.610 . S
C285 C112 1.918 1_565 S
C281 C22 1.992 . S
C303 C183 1.199 1_556 S
C299 C34 1.228 . S
C321 C153 1.277 . S
C317 C48 1.300 . S
C335 C8 1.661 . S
C339 C166 1.683 . S
C357 C133 1.706 . S
C353 C35 1.759 . S
C371 C47 1.880 . S
C375 C123 1.883 . S
C389 C17 1.176 . S
C393 C145 1.177 . S
C411 C105 1.415 . S
C407 C60 1.412 . S
C425 C74 1.541 . S
C429 C126 1.514 . S
C443 C82 1.293 . S
C447 C163 1.311 . S
C461 C100 1.976 . S
C465 C173 1.920 . S
C479 C61 2.132 . S
C483 C143 2.178 . S
C501 C113 1.479 . S
C497 C73 1.518 . S
C519 C182 1.708 . S
C515 C87 1.749 . S
C537 C152 1.073 . S
C533 C95 1.054 . S
C551 C56 1.660 . S
C555 C165 1.660 . S
C573 C132 1.808 . S
C569 C86 1.856 . S
C591 C122 1.699 . S
C587 C99 1.700 . S
C605 C69 1.127 . S
C609 C146 1.145 . S
