# Generated by pormake.
# Topology rtl, (3,6)-cn, num edge types: 1
# Building blocks:
#     Node 0, Type 0, BuildingBlock: MIDCAF_clean_linker_0, # of connection points: 3
#     Node 1, Type 0, BuildingBlock: MIDCAF_clean_linker_0, # of connection points: 3
#     Node 2, Type 0, BuildingBlock: MIDCAF_clean_linker_0, # of connection points: 3
#     Node 3, Type 0, BuildingBlock: MIDCAF_clean_linker_0, # of connection points: 3
#     Node 4, Type 1, BuildingBlock: KUMJIN_clean_sbu_1, # of connection points: 6
#     Node 5, Type 1, BuildingBlock: KUMJIN_clean_sbu_1, # of connection points: 6
#     Edge 6, Type (0, 1), None
#     Edge 7, Type (0, 1), None
#     Edge 8, Type (0, 1), None
#     Edge 9, Type (0, 1), None
#     Edge 10, Type (0, 1), None
#     Edge 11, Type (0, 1), None
#     Edge 12, Type (0, 1), None
#     Edge 13, Type (0, 1), None
#     Edge 14, Type (0, 1), None
#     Edge 15, Type (0, 1), None
#     Edge 16, Type (0, 1), None
#     Edge 17, Type (0, 1), None
# Relax obj value: 0.020
# Max RMSD: 0.145
# Mean RMSD: 0.087
data_MOF--net-rtl--node1-KUMJIN_clean_sbu_1--node2-MIDCAF_clean_linker_0--edge1-none
_symmetry_space_group_name_H-M    P1
_symmetry_Int_Tables_number       1
_symmetry_cell_setting            triclinic
loop_
_symmetry_equiv_pos_as_xyz
'x, y, z'
_cell_length_a     21.765857
_cell_length_b     22.651833
_cell_length_c     21.070178
_cell_angle_alpha  72.289509
_cell_angle_beta   99.267453
_cell_angle_gamma 90.785643
loop_
_atom_site_label
_atom_site_type_symbol
_atom_site_fract_x
_atom_site_fract_y
_atom_site_fract_z
_atom_type_partial_charge
C0 C 0.12522 0.94584 0.16292 0.0
C1 C 0.12987 0.90086 0.22633 0.0
C2 C 0.17044 0.84885 0.24158 0.0
C3 C 0.20213 0.83978 0.19215 0.0
H4 H 0.33438 0.72336 0.14459 0.0
H5 H 0.40523 0.63658 0.15517 0.0
H6 H 0.38453 0.6864 0.93777 0.0
H7 H 0.31429 0.7718 0.92698 0.0
H8 H 0.1345 0.8173 0.88033 0.0
H9 H 0.07063 0.85679 0.76958 0.0
H10 H 0.11982 0.04388 0.7629 0.0
H11 H 0.17961 0.004 0.87766 0.0
H12 H 0.15023 0.97181 0.06474 0.0
H13 H 0.09521 0.98694 0.15037 0.0
H14 H 0.17485 0.81355 0.2903 0.0
H15 H 0.23016 0.79753 0.20386 0.0
N16 N 0.25845 0.82154 0.08027 0.0
N17 N 0.24234 0.83572 0.96368 0.0
N18 N 0.18696 0.89854 0.00616 0.0
C19 C 0.27266 0.80572 0.02661 0.0
C20 C 0.20009 0.88222 0.95315 0.0
C21 C 0.21568 0.8685 0.06999 0.0
C22 C 0.31807 0.75446 0.03505 0.0
C23 C 0.34514 0.71584 0.09916 0.0
C24 C 0.38572 0.66615 0.10517 0.0
C25 C 0.39978 0.65413 0.04723 0.0
C26 C 0.37384 0.6936 0.98341 0.0
C27 C 0.33354 0.74292 0.97738 0.0
C28 C 0.16233 0.90777 0.88638 0.0
C29 C 0.13134 0.86688 0.85517 0.0
C30 C 0.09525 0.88952 0.79162 0.0
C31 C 0.09175 0.95327 0.75667 0.0
C32 C 0.12173 0.99452 0.78863 0.0
C33 C 0.15622 0.97186 0.85375 0.0
C34 C 0.19376 0.88278 0.12696 0.0
C35 C 0.15694 0.93707 0.11395 0.0
C36 C 0.57488 0.57535 0.52913 0.0
C37 C 0.61163 0.57422 0.48027 0.0
C38 C 0.66719 0.60667 0.47879 0.0
C39 C 0.68577 0.63895 0.52512 0.0
H40 H 0.79767 0.7737 0.55209 0.0
H41 H 0.87364 0.85215 0.5238 0.0
H42 H 0.86746 0.89506 0.70891 0.0
H43 H 0.78987 0.81612 0.73747 0.0
H44 H 0.7303 0.61902 0.85612 0.0
H45 H 0.68294 0.56894 0.95607 0.0
H46 H 0.50602 0.66015 0.85141 0.0
H47 H 0.55275 0.70628 0.75017 0.0
H48 H 0.56478 0.60658 0.61334 0.0
H49 H 0.53118 0.55203 0.53089 0.0
H50 H 0.69732 0.60603 0.4428 0.0
H51 H 0.72929 0.66268 0.52286 0.0
N52 N 0.71652 0.71297 0.61522 0.0
N53 N 0.71553 0.72653 0.72117 0.0
N54 N 0.64762 0.65756 0.68397 0.0
C55 C 0.73871 0.74137 0.66207 0.0
C56 C 0.66969 0.68477 0.7319 0.0
C57 C 0.67122 0.6711 0.62562 0.0
C58 C 0.78718 0.78836 0.6472 0.0
C59 C 0.81218 0.79957 0.58716 0.0
C60 C 0.85612 0.84471 0.57082 0.0
C61 C 0.87659 0.88012 0.61392 0.0
C62 C 0.85228 0.86882 0.67435 0.0
C63 C 0.80802 0.82339 0.69086 0.0
C64 C 0.64495 0.6662 0.79585 0.0
C65 C 0.68155 0.62893 0.85519 0.0
C66 C 0.6543 0.60021 0.91223 0.0
C67 C 0.59016 0.60908 0.91103 0.0
C68 C 0.55496 0.65047 0.85316 0.0
C69 C 0.58178 0.67767 0.79559 0.0
C70 C 0.6497 0.639 0.57479 0.0
C71 C 0.59392 0.60699 0.57614 0.0
C72 C 0.9479 0.12803 0.95944 0.0
C73 C 0.92476 0.16209 0.89235 0.0
C74 C 0.87033 0.19971 0.87854 0.0
C75 C 0.84061 0.20429 0.93132 0.0
H76 H 0.70172 0.30591 0.98496 0.0
H77 H 0.62534 0.38725 0.97674 0.0
H78 H 0.63155 0.32042 0.19277 0.0
H79 H 0.70705 0.23967 0.2014 0.0
H80 H 0.77875 0.08375 0.2798 0.0
H81 H 0.82939 0.03533 0.39711 0.0
H82 H 0.00887 0.08508 0.33953 0.0
H83 H 0.95912 0.12923 0.22129 0.0
H84 H 0.93817 0.10527 0.06279 0.0
H85 H 0.98911 0.09783 0.97157 0.0
H86 H 0.8516 0.2266 0.82715 0.0
H87 H 0.7993 0.23426 0.91935 0.0
N88 N 0.78601 0.21575 0.04681 0.0
N89 N 0.78608 0.18343 0.16385 0.0
N90 N 0.85996 0.1409 0.11964 0.0
C91 C 0.76123 0.21975 0.101 0.0
C92 C 0.83526 0.14415 0.17339 0.0
C93 C 0.83531 0.1757 0.05604 0.0
C94 C 0.7111 0.26633 0.09378 0.0
C95 C 0.68645 0.30826 0.0306 0.0
C96 C 0.64269 0.35484 0.0259 0.0
C97 C 0.6232 0.36066 0.08429 0.0
C98 C 0.64643 0.31776 0.14702 0.0
C99 C 0.68968 0.27119 0.15174 0.0
C100 C 0.86525 0.11015 0.2421 0.0
C101 C 0.82907 0.08321 0.29216 0.0
C102 C 0.85773 0.05607 0.35887 0.0
C103 C 0.92231 0.05833 0.3764 0.0
C104 C 0.95876 0.08355 0.32638 0.0
C105 C 0.93042 0.10848 0.25922 0.0
C106 C 0.86457 0.17084 0.99871 0.0
C107 C 0.91826 0.13222 0.01181 0.0
C108 C 0.44329 0.43667 0.60488 0.0
C109 C 0.40636 0.43838 0.65338 0.0
C110 C 0.35012 0.40706 0.65414 0.0
C111 C 0.33108 0.37529 0.60745 0.0
H112 H 0.20824 0.25199 0.57177 0.0
H113 H 0.13125 0.17456 0.60017 0.0
H114 H 0.1523 0.11617 0.42753 0.0
H115 H 0.2305 0.19433 0.39883 0.0
H116 H 0.28783 0.39484 0.27622 0.0
H117 H 0.33613 0.44428 0.17688 0.0
H118 H 0.51214 0.35193 0.28306 0.0
H119 H 0.46453 0.30664 0.38388 0.0
H120 H 0.45313 0.40543 0.52062 0.0
H121 H 0.48747 0.45914 0.6037 0.0
H122 H 0.31987 0.40822 0.68986 0.0
H123 H 0.28706 0.35244 0.60916 0.0
N124 N 0.29868 0.30269 0.51637 0.0
N125 N 0.30014 0.2888 0.41065 0.0
N126 N 0.36982 0.35575 0.44919 0.0
C127 C 0.27602 0.27489 0.46913 0.0
C128 C 0.34732 0.32911 0.40089 0.0
C129 C 0.34535 0.34307 0.50696 0.0
C130 C 0.22612 0.22943 0.48304 0.0
C131 C 0.19667 0.22293 0.53947 0.0
C132 C 0.15216 0.17838 0.55585 0.0
C133 C 0.13574 0.13878 0.51643 0.0
C134 C 0.16419 0.14573 0.45923 0.0
C135 C 0.20884 0.1907 0.4426 0.0
C136 C 0.37268 0.34722 0.33731 0.0
C137 C 0.33659 0.38456 0.27765 0.0
C138 C 0.36439 0.41291 0.22093 0.0
C139 C 0.42855 0.40352 0.2227 0.0
C140 C 0.46324 0.36205 0.28089 0.0
C141 C 0.43589 0.3353 0.3382 0.0
C142 C 0.36736 0.37462 0.55816 0.0
C143 C 0.42382 0.40551 0.55752 0.0
Eu144 Eu 0.05778 0.94412 0.54571 0.0
C145 C 0.87195 0.16669 0.4546 0.0
N146 N 0.93076 0.16232 0.48978 0.0
C147 C 0.95511 0.25874 0.41351 0.0
C148 C 0.85306 0.21704 0.39591 0.0
C149 C 0.97186 0.20796 0.47127 0.0
C150 C 0.89564 0.26307 0.37535 0.0
C151 C 0.76932 0.12435 0.44187 0.0
C152 C 0.83096 0.12006 0.4769 0.0
C153 C 0.75069 0.17394 0.38279 0.0
C154 C 0.7925 0.22 0.35976 0.0
Eu155 Eu 0.95571 0.07375 0.58483 0.0
N156 N 0.85061 0.07157 0.53344 0.0
C157 C 0.72787 0.07906 0.46772 0.0
C158 C 0.80867 0.03061 0.56176 0.0
C159 C 0.74735 0.03268 0.52857 0.0
H160 H 0.01754 0.20502 0.50114 0.0
H161 H 0.71481 0.99915 0.55066 0.0
H162 H 0.98827 0.80939 0.59648 0.0
H163 H 0.29135 0.01078 0.63628 0.0
H164 H 0.82134 0.99729 0.61097 0.0
H165 H 0.68021 0.08071 0.44232 0.0
H166 H 0.19254 0.02218 0.55872 0.0
H167 H 0.98802 0.29454 0.39852 0.0
H168 H 0.7038 0.17743 0.35489 0.0
H169 H 0.77729 0.25813 0.31432 0.0
H170 H 0.00885 0.70795 0.6851 0.0
H171 H 0.88284 0.30245 0.33053 0.0
H172 H 0.31654 0.91484 0.73215 0.0
N173 N 0.07474 0.84542 0.62676 0.0
C174 C 0.13018 0.83477 0.66937 0.0
C175 C 0.04327 0.74326 0.68135 0.0
C176 C 0.1439 0.77759 0.72071 0.0
C177 C 0.03154 0.80078 0.63157 0.0
C178 C 0.09963 0.73163 0.72623 0.0
N179 N 0.15725 0.93733 0.61401 0.0
C180 C 0.20051 0.98187 0.60228 0.0
C181 C 0.22966 0.87267 0.70783 0.0
C182 C 0.17229 0.88216 0.66328 0.0
C183 C 0.27202 0.92031 0.69903 0.0
C184 C 0.25777 0.97471 0.64532 0.0
H185 H 0.1084 0.68715 0.76505 0.0
H186 H 0.21177 0.72503 0.80559 0.0
H187 H 0.287 0.80806 0.79398 0.0
O188 O 0.11245 0.95426 0.46486 0.0
O189 O 0.04861 0.93413 0.65377 0.0
O190 O 0.04454 0.03415 0.65722 0.0
O191 O 0.06497 0.86954 0.50132 0.0
O192 O 0.08442 0.04552 0.50744 0.0
O193 O 0.05782 0.09234 0.58334 0.0
O194 O 0.91326 0.07465 0.67211 0.0
O195 O 0.96562 0.08047 0.47728 0.0
O196 O 0.96728 0.97994 0.47611 0.0
O197 O 0.9486 0.15867 0.61176 0.0
O198 O 0.92937 0.97232 0.6246 0.0
O199 O 0.95523 0.92588 0.54785 0.0
C200 C 0.05926 0.97508 0.6863 0.0
C201 C 0.07099 0.90478 0.38539 0.0
C202 C 0.08815 0.90609 0.27353 0.0
C203 C 0.02401 0.91861 0.24968 0.0
C204 C 0.00701 0.91648 0.36078 0.0
C205 C 0.98377 0.92353 0.2932 0.0
C206 C 0.11143 0.89897 0.34179 0.0
C207 C 0.08971 0.09028 0.53592 0.0
C208 C 0.09601 0.90167 0.45542 0.0
C209 C 0.20059 0.7685 0.76559 0.0
C210 C 0.24332 0.81589 0.75917 0.0
C211 C 0.95114 0.03841 0.44713 0.0
C212 C 0.95997 0.14334 0.72835 0.0
C213 C 0.95867 0.15866 0.83779 0.0
C214 C 0.02397 0.16208 0.84669 0.0
C215 C 0.02514 0.14673 0.73833 0.0
C216 C 0.9268 0.14968 0.77798 0.0
C217 C 0.05684 0.15621 0.79718 0.0
C218 C 0.92311 0.92818 0.5952 0.0
C219 C 0.92678 0.13191 0.66693 0.0
H220 H 0.00486 0.92388 0.19742 0.0
H221 H 0.97495 0.92035 0.39363 0.0
H222 H 0.93446 0.93292 0.27447 0.0
H223 H 0.16091 0.89029 0.36053 0.0
H224 H 0.04965 0.16945 0.89198 0.0
H225 H 0.05156 0.14192 0.70068 0.0
H226 H 0.87659 0.14612 0.77075 0.0
H227 H 0.10707 0.15873 0.8046 0.0
Eu228 Eu 0.4451 0.48259 1.00001 0.0
C229 C 0.70952 0.5697 0.09998 0.0
N230 N 0.68148 0.51715 0.13092 0.0
C231 C 0.77778 0.45848 0.15518 0.0
C232 C 0.77316 0.5682 0.0945 0.0
C233 C 0.71456 0.46218 0.1593 0.0
C234 C 0.80718 0.51165 0.12241 0.0
C235 C 0.70178 0.67994 0.03895 0.0
C236 C 0.6741 0.62504 0.07237 0.0
C237 C 0.76516 0.67852 0.03347 0.0
C238 C 0.80072 0.62285 0.06113 0.0
Eu239 Eu 0.57472 0.52809 0.1344 0.0
N240 N 0.61219 0.62469 0.07633 0.0
C241 C 0.66482 0.73467 0.01176 0.0
C242 C 0.57669 0.6784 0.05249 0.0
C243 C 0.60218 0.73397 0.01912 0.0
H244 H 0.69246 0.42142 0.18631 0.0
H245 H 0.57358 0.77634 0.99953 0.0
H246 H 0.32553 0.58694 0.9512 0.0
H247 H 0.45199 0.23377 0.13447 0.0
H248 H 0.52902 0.67899 0.05977 0.0
H249 H 0.68435 0.77781 0.98572 0.0
H250 H 0.4941 0.33217 0.07345 0.0
H251 H 0.80386 0.41473 0.1776 0.0
H252 H 0.78713 0.72024 0.00782 0.0
H253 H 0.84953 0.62254 0.05634 0.0
H254 H 0.21427 0.59101 0.9614 0.0
H255 H 0.85617 0.50862 0.11924 0.0
H256 H 0.3417 0.22986 0.15026 0.0
N257 N 0.33857 0.49112 0.00562 0.0
C258 C 0.31182 0.43779 0.03676 0.0
C259 C 0.24126 0.54773 0.98318 0.0
C260 C 0.24833 0.43783 0.04322 0.0
C261 C 0.30439 0.54551 0.97818 0.0
C262 C 0.21313 0.49372 0.01604 0.0
N263 N 0.41019 0.38489 0.05879 0.0
C264 C 0.44672 0.33184 0.08183 0.0
C265 C 0.32213 0.32754 0.09754 0.0
C266 C 0.34847 0.38318 0.0638 0.0
C267 C 0.3602 0.27352 0.12402 0.0
C268 C 0.42258 0.27561 0.11556 0.0
H269 H 0.16421 0.49562 0.01995 0.0
H270 H 0.17346 0.38163 0.08241 0.0
H271 H 0.23795 0.28518 0.12984 0.0
O272 O 0.45885 0.43303 0.92878 0.0
O273 O 0.4251 0.46666 0.10702 0.0
O274 O 0.5205 0.4424 0.17528 0.0
O275 O 0.38401 0.50208 0.9025 0.0
O276 O 0.54232 0.43732 0.02268 0.0
O277 O 0.57805 0.42843 0.13448 0.0
O278 O 0.55937 0.57751 0.20528 0.0
O279 O 0.59438 0.54609 0.02688 0.0
O280 O 0.49879 0.56845 0.95841 0.0
O281 O 0.63528 0.50953 0.23211 0.0
O282 O 0.47817 0.57516 0.11044 0.0
O283 O 0.44093 0.58242 0.99915 0.0
C284 C 0.45957 0.43894 0.16564 0.0
C285 C 0.42826 0.48703 0.81323 0.0
C286 C 0.42529 0.47401 0.70181 0.0
C287 C 0.45349 0.5315 0.68089 0.0
C288 C 0.456 0.54416 0.79126 0.0
C289 C 0.46894 0.56611 0.72552 0.0
C290 C 0.41341 0.4519 0.76871 0.0
C291 C 0.57962 0.41169 0.08017 0.0
C292 C 0.41396 0.46376 0.88217 0.0
C293 C 0.22213 0.38244 0.07689 0.0
C294 C 0.25889 0.3275 0.10395 0.0
C295 C 0.5596 0.57308 0.96821 0.0
C296 C 0.59042 0.52444 0.32108 0.0
C297 C 0.59321 0.53804 0.43224 0.0
C298 C 0.5659 0.48012 0.45371 0.0
C299 C 0.56366 0.46687 0.34364 0.0
C300 C 0.6047 0.56008 0.36518 0.0
C301 C 0.55103 0.44501 0.4095 0.0
C302 C 0.44101 0.60076 0.05278 0.0
C303 C 0.60455 0.54758 0.25206 0.0
H304 H 0.46225 0.55051 0.62957 0.0
H305 H 0.46687 0.57175 0.82491 0.0
H306 H 0.49018 0.61047 0.7088 0.0
H307 H 0.39259 0.40736 0.78638 0.0
H308 H 0.55741 0.46115 0.50514 0.0
H309 H 0.55335 0.43885 0.31034 0.0
H310 H 0.62481 0.60492 0.34707 0.0
H311 H 0.53052 0.40031 0.42666 0.0
loop_
_geom_bond_atom_site_label_1
_geom_bond_atom_site_label_2
_geom_bond_distance
_geom_bond_site_symmetry_2
_ccdc_geom_bond_type
C0 C1 1.384 . S
C0 H13 0.947 . S
C0 C35 1.382 . S
C1 C0 1.384 . S
C1 C2 1.378 . S
C2 C1 1.378 . S
C2 C3 1.378 . S
C2 H14 0.952 . S
C3 C2 1.378 . S
C3 H15 0.950 . S
C3 C34 1.383 . S
H4 C23 0.947 . S
H5 C24 0.946 . S
H6 C26 0.953 . S
H7 C27 0.945 . S
H8 C29 0.952 . S
H9 C30 0.949 . S
H10 C32 0.950 . S
H11 C33 0.948 1_545 S
H12 C35 0.951 . S
H13 C0 0.947 . S
H14 C2 0.952 . S
H15 C3 0.950 . S
N16 C19 1.382 . S
N16 C21 1.363 . S
N17 C19 1.371 1_556 S
N17 C20 1.372 . S
N18 C20 1.361 . S
N18 C21 1.377 1_556 S
C19 N16 1.382 . S
C19 N17 1.371 1_554 S
C19 C22 1.480 . S
C20 N17 1.372 . S
C20 N18 1.361 . S
C20 C28 1.457 . S
C21 N16 1.363 . S
C21 N18 1.377 1_554 S
C21 C34 1.479 . S
C22 C19 1.480 . S
C22 C23 1.383 . S
C22 C27 1.385 1_554 S
C23 H4 0.947 . S
C23 C22 1.383 . S
C23 C24 1.388 . S
C24 H5 0.946 . S
C24 C23 1.388 . S
C24 C25 1.384 . S
C25 C24 1.384 . S
C25 C26 1.377 1_554 S
C26 H6 0.953 . S
C26 C25 1.377 1_556 S
C26 C27 1.369 . S
C27 H7 0.945 . S
C27 C22 1.385 1_556 S
C27 C26 1.369 . S
C28 C20 1.457 . S
C28 C29 1.372 . S
C28 C33 1.364 . S
C29 H8 0.952 . S
C29 C28 1.372 . S
C29 C30 1.389 . S
C30 H9 0.949 . S
C30 C29 1.389 . S
C30 C31 1.387 . S
C31 C30 1.387 . S
C31 C32 1.372 1_565 S
C32 H10 0.950 . S
C32 C31 1.372 1_545 S
C32 C33 1.379 1_545 S
C33 H11 0.948 1_565 S
C33 C28 1.364 . S
C33 C32 1.379 1_565 S
C34 C3 1.383 . S
C34 C21 1.479 . S
C34 C35 1.398 . S
C35 C0 1.382 . S
C35 H12 0.951 . S
C35 C34 1.398 . S
C36 C37 1.384 . S
C36 H49 0.947 . S
C36 C71 1.382 . S
C37 C36 1.384 . S
C37 C38 1.378 . S
C38 C37 1.378 . S
C38 C39 1.378 . S
C38 H50 0.952 . S
C39 C38 1.378 . S
C39 H51 0.950 . S
C39 C70 1.383 . S
H40 C59 0.947 . S
H41 C60 0.946 . S
H42 C62 0.953 . S
H43 C63 0.945 . S
H44 C65 0.952 . S
H45 C66 0.949 . S
H46 C68 0.950 . S
H47 C69 0.948 . S
H48 C71 0.951 . S
H49 C36 0.947 . S
H50 C38 0.952 . S
H51 C39 0.950 . S
N52 C55 1.382 . S
N52 C57 1.363 . S
N53 C55 1.371 . S
N53 C56 1.372 . S
N54 C56 1.361 . S
N54 C57 1.377 . S
C55 N52 1.382 . S
C55 N53 1.371 . S
C55 C58 1.480 . S
C56 N53 1.372 . S
C56 N54 1.361 . S
C56 C64 1.457 . S
C57 N52 1.363 . S
C57 N54 1.377 . S
C57 C70 1.479 . S
C58 C55 1.480 . S
C58 C59 1.383 . S
C58 C63 1.385 . S
C59 H40 0.947 . S
C59 C58 1.383 . S
C59 C60 1.388 . S
C60 H41 0.946 . S
C60 C59 1.388 . S
C60 C61 1.384 . S
C61 C60 1.384 . S
C61 C62 1.377 . S
C62 H42 0.953 . S
C62 C61 1.377 . S
C62 C63 1.369 . S
C63 H43 0.945 . S
C63 C58 1.385 . S
C63 C62 1.369 . S
C64 C56 1.457 . S
C64 C65 1.372 . S
C64 C69 1.364 . S
C65 H44 0.952 . S
C65 C64 1.372 . S
C65 C66 1.389 . S
C66 H45 0.949 . S
C66 C65 1.389 . S
C66 C67 1.387 . S
C67 C66 1.387 . S
C67 C68 1.372 . S
C68 H46 0.950 . S
C68 C67 1.372 . S
C68 C69 1.379 . S
C69 H47 0.948 . S
C69 C64 1.364 . S
C69 C68 1.379 . S
C70 C39 1.383 . S
C70 C57 1.479 . S
C70 C71 1.398 . S
C71 C36 1.382 . S
C71 H48 0.951 . S
C71 C70 1.398 . S
C72 C73 1.384 . S
C72 H85 0.947 . S
C72 C107 1.382 1_556 S
C73 C72 1.384 . S
C73 C74 1.378 . S
C74 C73 1.378 . S
C74 C75 1.378 . S
C74 H86 0.952 . S
C75 C74 1.378 . S
C75 H87 0.950 . S
C75 C106 1.383 1_556 S
H76 C95 0.947 1_556 S
H77 C96 0.946 1_556 S
H78 C98 0.953 . S
H79 C99 0.945 . S
H80 C101 0.952 . S
H81 C102 0.949 . S
H82 C104 0.950 1_565 S
H83 C105 0.948 . S
H84 C107 0.951 . S
H85 C72 0.947 . S
H86 C74 0.952 . S
H87 C75 0.950 . S
N88 C91 1.382 . S
N88 C93 1.363 . S
N89 C91 1.371 . S
N89 C92 1.372 . S
N90 C92 1.361 . S
N90 C93 1.377 . S
C91 N88 1.382 . S
C91 N89 1.371 . S
C91 C94 1.480 . S
C92 N89 1.372 . S
C92 N90 1.361 . S
C92 C100 1.457 . S
C93 N88 1.363 . S
C93 N90 1.377 . S
C93 C106 1.479 . S
C94 C91 1.480 . S
C94 C95 1.383 . S
C94 C99 1.385 . S
C95 H76 0.947 1_554 S
C95 C94 1.383 . S
C95 C96 1.388 . S
C96 H77 0.946 1_554 S
C96 C95 1.388 . S
C96 C97 1.384 . S
C97 C96 1.384 . S
C97 C98 1.377 . S
C98 H78 0.953 . S
C98 C97 1.377 . S
C98 C99 1.369 . S
C99 H79 0.945 . S
C99 C94 1.385 . S
C99 C98 1.369 . S
C100 C92 1.457 . S
C100 C101 1.372 . S
C100 C105 1.364 . S
C101 H80 0.952 . S
C101 C100 1.372 . S
C101 C102 1.389 . S
C102 H81 0.949 . S
C102 C101 1.389 . S
C102 C103 1.387 . S
C103 C102 1.387 . S
C103 C104 1.372 . S
C104 H82 0.950 1_545 S
C104 C103 1.372 . S
C104 C105 1.379 . S
C105 H83 0.948 . S
C105 C100 1.364 . S
C105 C104 1.379 . S
C106 C75 1.383 1_554 S
C106 C93 1.479 . S
C106 C107 1.398 . S
C107 C72 1.382 1_554 S
C107 H84 0.951 . S
C107 C106 1.398 . S
C108 C109 1.384 . S
C108 H121 0.947 . S
C108 C143 1.382 . S
C109 C108 1.384 . S
C109 C110 1.378 . S
C110 C109 1.378 . S
C110 C111 1.378 . S
C110 H122 0.952 . S
C111 C110 1.378 . S
C111 H123 0.950 . S
C111 C142 1.383 . S
H112 C131 0.947 . S
H113 C132 0.946 . S
H114 C134 0.953 . S
H115 C135 0.945 . S
H116 C137 0.952 . S
H117 C138 0.949 . S
H118 C140 0.950 . S
H119 C141 0.948 . S
H120 C143 0.951 . S
H121 C108 0.947 . S
H122 C110 0.952 . S
H123 C111 0.950 . S
N124 C127 1.382 . S
N124 C129 1.363 . S
N125 C127 1.371 . S
N125 C128 1.372 . S
N126 C128 1.361 . S
N126 C129 1.377 . S
C127 N124 1.382 . S
C127 N125 1.371 . S
C127 C130 1.480 . S
C128 N125 1.372 . S
C128 N126 1.361 . S
C128 C136 1.457 . S
C129 N124 1.363 . S
C129 N126 1.377 . S
C129 C142 1.479 . S
C130 C127 1.480 . S
C130 C131 1.383 . S
C130 C135 1.385 . S
C131 H112 0.947 . S
C131 C130 1.383 . S
C131 C132 1.388 . S
C132 H113 0.946 . S
C132 C131 1.388 . S
C132 C133 1.384 . S
C133 C132 1.384 . S
C133 C134 1.377 . S
C134 H114 0.953 . S
C134 C133 1.377 . S
C134 C135 1.369 . S
C135 H115 0.945 . S
C135 C130 1.385 . S
C135 C134 1.369 . S
C136 C128 1.457 . S
C136 C137 1.372 . S
C136 C141 1.364 . S
C137 H116 0.952 . S
C137 C136 1.372 . S
C137 C138 1.389 . S
C138 H117 0.949 . S
C138 C137 1.389 . S
C138 C139 1.387 . S
C139 C138 1.387 . S
C139 C140 1.372 . S
C140 H118 0.950 . S
C140 C139 1.372 . S
C140 C141 1.379 . S
C141 H119 0.948 . S
C141 C136 1.364 . S
C141 C140 1.379 . S
C142 C111 1.383 . S
C142 C129 1.479 . S
C142 C143 1.398 . S
C143 C108 1.382 . S
C143 H120 0.951 . S
C143 C142 1.398 . S
Eu144 N173 2.600 . S
Eu144 N179 2.562 . S
Eu144 O188 2.462 . S
Eu144 O189 2.373 . S
Eu144 O191 2.432 . S
Eu144 O192 2.291 1_565 S
Eu144 O196 2.335 1_465 S
Eu144 O199 2.372 1_455 S
Eu144 C208 2.787 . S
C145 N146 1.365 . S
C145 C148 1.405 . S
C145 C152 1.448 . S
N146 C145 1.365 . S
N146 C149 1.319 . S
N146 Eu155 2.600 . S
C147 C149 1.397 . S
C147 C150 1.367 . S
C147 H167 0.931 1_655 S
C148 C145 1.405 . S
C148 C150 1.403 . S
C148 C154 1.439 . S
C149 N146 1.319 . S
C149 C147 1.397 . S
C149 H160 0.930 1_655 S
C150 C147 1.367 . S
C150 C148 1.403 . S
C150 H171 0.929 . S
C151 C152 1.430 . S
C151 C153 1.387 . S
C151 C157 1.404 . S
C152 C145 1.448 . S
C152 C151 1.430 . S
C152 N156 1.351 . S
C153 C151 1.387 . S
C153 C154 1.374 . S
C153 H168 0.931 . S
C154 C148 1.439 . S
C154 C153 1.374 . S
C154 H169 0.931 . S
Eu155 N146 2.600 . S
Eu155 N156 2.562 . S
Eu155 O190 2.335 1_655 S
Eu155 O193 2.372 1_655 S
Eu155 O194 2.462 . S
Eu155 O195 2.373 . S
Eu155 O197 2.432 . S
Eu155 O198 2.291 1_545 S
Eu155 C219 2.787 . S
N156 C152 1.351 . S
N156 Eu155 2.562 . S
N156 C158 1.325 . S
C157 C151 1.404 . S
C157 C159 1.366 . S
C157 H165 0.930 . S
C158 N156 1.325 . S
C158 C159 1.416 . S
C158 H164 0.929 . S
C159 C157 1.366 . S
C159 C158 1.416 . S
C159 H161 0.930 . S
H160 C149 0.930 1_455 S
H161 C159 0.930 . S
H162 C177 0.930 1_655 S
H163 C184 0.930 . S
H164 C158 0.929 . S
H165 C157 0.930 . S
H166 C180 0.929 . S
H167 C147 0.931 1_455 S
H168 C153 0.931 . S
H169 C154 0.931 . S
H170 C175 0.931 1_655 S
H171 C150 0.929 . S
H172 C183 0.930 . S
N173 Eu144 2.600 . S
N173 C174 1.365 . S
N173 C177 1.319 . S
C174 N173 1.365 . S
C174 C176 1.405 . S
C174 C182 1.448 . S
C175 H170 0.931 1_455 S
C175 C177 1.397 . S
C175 C178 1.367 . S
C176 C174 1.405 . S
C176 C178 1.403 . S
C176 C209 1.439 . S
C177 H162 0.930 1_455 S
C177 N173 1.319 . S
C177 C175 1.397 . S
C178 C175 1.367 . S
C178 C176 1.403 . S
C178 H185 0.929 . S
N179 Eu144 2.562 . S
N179 C180 1.325 . S
N179 C182 1.351 . S
C180 H166 0.929 . S
C180 N179 1.325 . S
C180 C184 1.416 . S
C181 C182 1.430 . S
C181 C183 1.404 . S
C181 C210 1.387 . S
C182 C174 1.448 . S
C182 N179 1.351 . S
C182 C181 1.430 . S
C183 H172 0.930 . S
C183 C181 1.404 . S
C183 C184 1.366 . S
C184 H163 0.930 . S
C184 C180 1.416 . S
C184 C183 1.366 . S
H185 C178 0.929 . S
H186 C209 0.931 . S
H187 C210 0.931 . S
O188 Eu144 2.462 . S
O188 C208 1.252 . S
O189 Eu144 2.373 . S
O189 C200 1.249 . S
O190 Eu155 2.335 1_455 S
O190 C200 1.264 1_545 S
O191 Eu144 2.432 . S
O191 C208 1.268 . S
O192 Eu144 2.291 1_545 S
O192 C207 1.255 . S
O193 Eu155 2.372 1_455 S
O193 C207 1.257 . S
O194 Eu155 2.462 . S
O194 C219 1.252 . S
O195 Eu155 2.373 . S
O195 C211 1.249 . S
O196 Eu144 2.335 1_645 S
O196 C211 1.264 . S
O197 Eu155 2.432 . S
O197 C219 1.268 . S
O198 Eu155 2.291 1_565 S
O198 C218 1.255 . S
O199 Eu144 2.372 1_655 S
O199 C218 1.257 . S
C200 O189 1.249 . S
C200 O190 1.264 1_565 S
C201 C204 1.382 . S
C201 C206 1.390 . S
C201 C208 1.506 . S
C202 C203 1.398 . S
C202 C206 1.392 . S
C203 C202 1.398 . S
C203 C205 1.372 . S
C203 H220 0.931 . S
C204 C201 1.382 . S
C204 C205 1.390 . S
C204 H221 0.931 . S
C205 C203 1.372 . S
C205 C204 1.390 . S
C205 H222 0.929 . S
C206 C201 1.390 . S
C206 C202 1.392 . S
C206 H223 0.930 . S
C207 O192 1.255 . S
C207 O193 1.257 . S
C208 Eu144 2.787 . S
C208 O188 1.252 . S
C208 O191 1.268 . S
C208 C201 1.506 . S
C209 C176 1.439 . S
C209 H186 0.931 . S
C209 C210 1.374 . S
C210 C181 1.387 . S
C210 H187 0.931 . S
C210 C209 1.374 . S
C211 O195 1.249 . S
C211 O196 1.264 . S
C212 C215 1.382 . S
C212 C216 1.390 . S
C212 C219 1.506 . S
C213 C214 1.398 . S
C213 C216 1.392 . S
C214 C213 1.398 . S
C214 C217 1.372 . S
C214 H224 0.931 . S
C215 C212 1.382 . S
C215 C217 1.390 . S
C215 H225 0.931 . S
C216 C212 1.390 . S
C216 C213 1.392 . S
C216 H226 0.930 . S
C217 C214 1.372 . S
C217 C215 1.390 . S
C217 H227 0.929 . S
C218 O198 1.255 . S
C218 O199 1.257 . S
C219 Eu155 2.787 . S
C219 O194 1.252 . S
C219 O197 1.268 . S
C219 C212 1.506 . S
H220 C203 0.931 . S
H221 C204 0.931 . S
H222 C205 0.929 . S
H223 C206 0.930 . S
H224 C214 0.931 . S
H225 C215 0.931 . S
H226 C216 0.930 . S
H227 C217 0.929 . S
Eu228 N257 2.600 . S
Eu228 N263 2.562 . S
Eu228 O272 2.462 1_554 S
Eu228 O273 2.373 . S
Eu228 O275 2.432 1_554 S
Eu228 O276 2.291 . S
Eu228 O280 2.335 1_554 S
Eu228 O283 2.372 . S
Eu228 C292 2.787 1_554 S
C229 N230 1.365 . S
C229 C232 1.405 . S
C229 C236 1.448 . S
N230 C229 1.365 . S
N230 C233 1.319 . S
N230 Eu239 2.600 . S
C231 C233 1.397 . S
C231 C234 1.367 . S
C231 H251 0.931 . S
C232 C229 1.405 . S
C232 C234 1.403 . S
C232 C238 1.439 . S
C233 N230 1.319 . S
C233 C231 1.397 . S
C233 H244 0.930 . S
C234 C231 1.367 . S
C234 C232 1.403 . S
C234 H255 0.929 . S
C235 C236 1.430 . S
C235 C237 1.387 . S
C235 C241 1.404 . S
C236 C229 1.448 . S
C236 C235 1.430 . S
C236 N240 1.351 . S
C237 C235 1.387 . S
C237 C238 1.374 . S
C237 H252 0.931 . S
C238 C232 1.439 . S
C238 C237 1.374 . S
C238 H253 0.931 . S
Eu239 N230 2.600 . S
Eu239 N240 2.562 . S
Eu239 O274 2.335 . S
Eu239 O277 2.372 . S
Eu239 O278 2.462 . S
Eu239 O279 2.373 . S
Eu239 O281 2.432 . S
Eu239 O282 2.291 . S
Eu239 C303 2.787 . S
N240 C236 1.351 . S
N240 Eu239 2.562 . S
N240 C242 1.325 . S
C241 C235 1.404 . S
C241 C243 1.366 . S
C241 H249 0.930 . S
C242 N240 1.325 . S
C242 C243 1.416 . S
C242 H248 0.929 . S
C243 C241 1.366 . S
C243 C242 1.416 . S
C243 H245 0.930 . S
H244 C233 0.930 . S
H245 C243 0.930 . S
H246 C261 0.930 . S
H247 C268 0.930 . S
H248 C242 0.929 . S
H249 C241 0.930 . S
H250 C264 0.929 . S
H251 C231 0.931 . S
H252 C237 0.931 . S
H253 C238 0.931 . S
H254 C259 0.931 . S
H255 C234 0.929 . S
H256 C267 0.930 . S
N257 Eu228 2.600 . S
N257 C258 1.365 . S
N257 C261 1.319 1_554 S
C258 N257 1.365 . S
C258 C260 1.405 . S
C258 C266 1.448 . S
C259 H254 0.931 . S
C259 C261 1.397 . S
C259 C262 1.367 1_556 S
C260 C258 1.405 . S
C260 C262 1.403 . S
C260 C293 1.439 . S
C261 H246 0.930 . S
C261 N257 1.319 1_556 S
C261 C259 1.397 . S
C262 C259 1.367 1_554 S
C262 C260 1.403 . S
C262 H269 0.929 . S
N263 Eu228 2.562 . S
N263 C264 1.325 . S
N263 C266 1.351 . S
C264 H250 0.929 . S
C264 N263 1.325 . S
C264 C268 1.416 . S
C265 C266 1.430 . S
C265 C267 1.404 . S
C265 C294 1.387 . S
C266 C258 1.448 . S
C266 N263 1.351 . S
C266 C265 1.430 . S
C267 H256 0.930 . S
C267 C265 1.404 . S
C267 C268 1.366 . S
C268 H247 0.930 . S
C268 C264 1.416 . S
C268 C267 1.366 . S
H269 C262 0.929 . S
H270 C293 0.931 . S
H271 C294 0.931 . S
O272 Eu228 2.462 1_556 S
O272 C292 1.252 . S
O273 Eu228 2.373 . S
O273 C284 1.249 . S
O274 Eu239 2.335 . S
O274 C284 1.264 . S
O275 Eu228 2.432 1_556 S
O275 C292 1.268 . S
O276 Eu228 2.291 . S
O276 C291 1.255 . S
O277 Eu239 2.372 . S
O277 C291 1.257 . S
O278 Eu239 2.462 . S
O278 C303 1.252 . S
O279 Eu239 2.373 . S
O279 C295 1.249 1_554 S
O280 Eu228 2.335 1_556 S
O280 C295 1.264 . S
O281 Eu239 2.432 . S
O281 C303 1.268 . S
O282 Eu239 2.291 . S
O282 C302 1.255 . S
O283 Eu228 2.372 . S
O283 C302 1.257 . S
C284 O273 1.249 . S
C284 O274 1.264 . S
C285 C288 1.382 . S
C285 C290 1.390 . S
C285 C292 1.506 . S
C286 C287 1.398 . S
C286 C290 1.392 . S
C287 C286 1.398 . S
C287 C289 1.372 . S
C287 H304 0.931 . S
C288 C285 1.382 . S
C288 C289 1.390 . S
C288 H305 0.931 . S
C289 C287 1.372 . S
C289 C288 1.390 . S
C289 H306 0.929 . S
C290 C285 1.390 . S
C290 C286 1.392 . S
C290 H307 0.930 . S
C291 O276 1.255 . S
C291 O277 1.257 . S
C292 Eu228 2.787 1_556 S
C292 O272 1.252 . S
C292 O275 1.268 . S
C292 C285 1.506 . S
C293 C260 1.439 . S
C293 H270 0.931 . S
C293 C294 1.374 . S
C294 C265 1.387 . S
C294 H271 0.931 . S
C294 C293 1.374 . S
C295 O279 1.249 1_556 S
C295 O280 1.264 . S
C296 C299 1.382 . S
C296 C300 1.390 . S
C296 C303 1.506 . S
C297 C298 1.398 . S
C297 C300 1.392 . S
C298 C297 1.398 . S
C298 C301 1.372 . S
C298 H308 0.931 . S
C299 C296 1.382 . S
C299 C301 1.390 . S
C299 H309 0.931 . S
C300 C296 1.390 . S
C300 C297 1.392 . S
C300 H310 0.930 . S
C301 C298 1.372 . S
C301 C299 1.390 . S
C301 H311 0.929 . S
C302 O282 1.255 . S
C302 O283 1.257 . S
C303 Eu239 2.787 . S
C303 O278 1.252 . S
C303 O281 1.268 . S
C303 C296 1.506 . S
H304 C287 0.931 . S
H305 C288 0.931 . S
H306 C289 0.929 . S
H307 C290 0.930 . S
H308 C298 0.931 . S
H309 C299 0.931 . S
H310 C300 0.930 . S
H311 C301 0.929 . S
C207 C133 2.183 . S
C25 C302 2.170 . S
C61 C218 2.107 . S
C97 C291 2.021 . S
C202 C1 1.626 . S
C295 C67 1.842 . S
C103 C211 2.105 . S
C109 C286 1.553 . S
C297 C37 1.466 . S
C213 C73 1.518 . S
C284 C139 1.934 . S
C31 C200 2.266 . S
