# Generated by pormake.
# Topology ssa, (4,4)-cn, num edge types: 1
# Building blocks:
#     Node 0, Type 0, BuildingBlock: NAWXER_clean_sbu_0, # of connection points: 4
#     Node 1, Type 0, BuildingBlock: NAWXER_clean_sbu_0, # of connection points: 4
#     Node 2, Type 0, BuildingBlock: NAWXER_clean_sbu_0, # of connection points: 4
#     Node 3, Type 0, BuildingBlock: NAWXER_clean_sbu_0, # of connection points: 4
#     Node 4, Type 0, BuildingBlock: NAWXER_clean_sbu_0, # of connection points: 4
#     Node 5, Type 0, BuildingBlock: NAWXER_clean_sbu_0, # of connection points: 4
#     Node 6, Type 1, BuildingBlock: MUDLON_clean_linker_0, # of connection points: 4
#     Node 7, Type 1, BuildingBlock: MUDLON_clean_linker_0, # of connection points: 4
#     Node 8, Type 1, BuildingBlock: MUDLON_clean_linker_0, # of connection points: 4
#     Node 9, Type 1, BuildingBlock: MUDLON_clean_linker_0, # of connection points: 4
#     Node 10, Type 1, BuildingBlock: MUDLON_clean_linker_0, # of connection points: 4
#     Node 11, Type 1, BuildingBlock: MUDLON_clean_linker_0, # of connection points: 4
#     Edge 12, Type (0, 1), BuildingBlock: KIFKEQ_clean_linker_1, # of connection points: 2
#     Edge 13, Type (0, 1), BuildingBlock: KIFKEQ_clean_linker_1, # of connection points: 2
#     Edge 14, Type (0, 1), BuildingBlock: KIFKEQ_clean_linker_1, # of connection points: 2
#     Edge 15, Type (0, 1), BuildingBlock: KIFKEQ_clean_linker_1, # of connection points: 2
#     Edge 16, Type (0, 1), BuildingBlock: KIFKEQ_clean_linker_1, # of connection points: 2
#     Edge 17, Type (0, 1), BuildingBlock: KIFKEQ_clean_linker_1, # of connection points: 2
#     Edge 18, Type (0, 1), BuildingBlock: KIFKEQ_clean_linker_1, # of connection points: 2
#     Edge 19, Type (0, 1), BuildingBlock: KIFKEQ_clean_linker_1, # of connection points: 2
#     Edge 20, Type (0, 1), BuildingBlock: KIFKEQ_clean_linker_1, # of connection points: 2
#     Edge 21, Type (0, 1), BuildingBlock: KIFKEQ_clean_linker_1, # of connection points: 2
#     Edge 22, Type (0, 1), BuildingBlock: KIFKEQ_clean_linker_1, # of connection points: 2
#     Edge 23, Type (0, 1), BuildingBlock: KIFKEQ_clean_linker_1, # of connection points: 2
#     Edge 24, Type (0, 1), BuildingBlock: KIFKEQ_clean_linker_1, # of connection points: 2
#     Edge 25, Type (0, 1), BuildingBlock: KIFKEQ_clean_linker_1, # of connection points: 2
#     Edge 26, Type (0, 1), BuildingBlock: KIFKEQ_clean_linker_1, # of connection points: 2
#     Edge 27, Type (0, 1), BuildingBlock: KIFKEQ_clean_linker_1, # of connection points: 2
#     Edge 28, Type (0, 1), BuildingBlock: KIFKEQ_clean_linker_1, # of connection points: 2
#     Edge 29, Type (0, 1), BuildingBlock: KIFKEQ_clean_linker_1, # of connection points: 2
#     Edge 30, Type (0, 1), BuildingBlock: KIFKEQ_clean_linker_1, # of connection points: 2
#     Edge 31, Type (0, 1), BuildingBlock: KIFKEQ_clean_linker_1, # of connection points: 2
#     Edge 32, Type (0, 1), BuildingBlock: KIFKEQ_clean_linker_1, # of connection points: 2
#     Edge 33, Type (0, 1), BuildingBlock: KIFKEQ_clean_linker_1, # of connection points: 2
#     Edge 34, Type (0, 1), BuildingBlock: KIFKEQ_clean_linker_1, # of connection points: 2
#     Edge 35, Type (0, 1), BuildingBlock: KIFKEQ_clean_linker_1, # of connection points: 2
# Relax obj value: 0.010
# Max RMSD: 0.048
# Mean RMSD: 0.034
data_MOF--net-ssa--node1-NAWXER_clean_sbu_0--node2-MUDLON_clean_linker_0--edge1-KIFKEQ_clean_linker_1
_symmetry_space_group_name_H-M    P1
_symmetry_Int_Tables_number       1
_symmetry_cell_setting            triclinic
loop_
_symmetry_equiv_pos_as_xyz
'x, y, z'
_cell_length_a     69.496696
_cell_length_b     69.577525
_cell_length_c     38.268012
_cell_angle_alpha  89.999924
_cell_angle_beta   89.888542
_cell_angle_gamma 120.07309
loop_
_atom_site_label
_atom_site_type_symbol
_atom_site_fract_x
_atom_site_fract_y
_atom_site_fract_z
_atom_type_partial_charge
C0 C 0.06554 0.53752 0.03742 0.0
C1 C 0.02416 0.46484 0.98189 0.0
O2 O 0.04848 0.52364 0.05513 0.0
Zn3 Zn 0.0222 0.48955 0.0516 0.0
O4 O 0.07023 0.53138 0.00891 0.0
Zn5 Zn 0.04552 0.50121 0.00972 0.0
O6 O 0.01758 0.50616 0.00363 0.0
O7 O 0.9961 0.49289 0.05024 0.0
O8 O 0.0418 0.4818 0.97109 0.0
O9 O 0.01555 0.46571 0.0111 0.0
O10 O 0.02719 0.476 0.09207 0.0
O11 O 0.05406 0.48727 0.05291 0.0
C12 C 1.00009 0.5024 0.02059 0.0
C13 C 0.04577 0.47832 0.08256 0.0
C14 C 0.53211 0.03755 0.5149 0.0
C15 C 0.55897 0.99381 0.45376 0.0
O16 O 0.52928 0.02052 0.53217 0.0
Zn17 Zn 0.53554 0.9934 0.52641 0.0
O18 O 0.5413 0.04156 0.48495 0.0
Zn19 Zn 0.54599 0.01633 0.48396 0.0
O20 O 0.51243 0.98932 0.48129 0.0
O21 O 0.50565 0.96784 0.52745 0.0
O22 O 0.5597 0.01152 0.44339 0.0
O23 O 0.55057 0.98575 0.48378 0.0
O24 O 0.5555 0.99841 0.56485 0.0
O25 O 0.5702 0.02452 0.52445 0.0
C26 C 0.49902 0.97214 0.49912 0.0
C27 C 0.5718 0.01651 0.55379 0.0
C28 C 0.4897 0.45855 0.96025 0.0
C29 C 0.51551 0.52823 0.02345 0.0
O30 O 0.48879 0.47557 0.95077 0.0
Zn31 Zn 0.50198 0.49344 0.99205 0.0
O32 O 0.49788 0.45845 0.9902 0.0
Zn33 Zn 0.51236 0.48059 0.03347 0.0
O34 O 0.49267 0.46511 0.0717 0.0
O35 O 0.47754 0.47677 0.03259 0.0
O36 O 0.51853 0.51401 0.04035 0.0
O37 O 0.5062 0.52311 0.99365 0.0
O38 O 0.53604 0.50093 0.98961 0.0
O39 O 0.54203 0.4848 0.03469 0.0
C40 C 0.47623 0.46688 0.06156 0.0
C41 C 0.54914 0.4967 0.00733 0.0
C42 C 0.04159 0.55269 0.48969 0.0
C43 C 0.99713 0.48315 0.55326 0.0
O44 O 0.05005 0.55248 0.51934 0.0
Zn45 Zn 0.04192 0.5305 0.56322 0.0
O46 O 0.0231 0.53615 0.48066 0.0
Zn47 Zn 0.01853 0.5181 0.52166 0.0
O48 O 0.01153 0.53535 0.56148 0.0
O49 O 0.03788 0.54646 0.60125 0.0
O50 O 0.99278 0.4885 0.52378 0.0
O51 O 0.01455 0.49721 0.56994 0.0
O52 O 0.06709 0.52579 0.56419 0.0
O53 O 0.04529 0.51099 0.51836 0.0
C54 C 0.02007 0.54531 0.59035 0.0
C55 C 0.06253 0.51471 0.53596 0.0
C56 C 0.52076 0.9807 0.01184 0.0
C57 C 0.49591 0.02695 0.95442 0.0
O58 O 0.52425 0.99753 0.03037 0.0
Zn59 Zn 0.51914 0.02565 0.02611 0.0
O60 O 0.51184 0.97784 0.9819 0.0
Zn61 Zn 0.50839 0.00365 0.98311 0.0
O62 O 0.54253 0.02988 0.98102 0.0
O63 O 0.54905 0.05084 0.02776 0.0
O64 O 0.49512 0.00939 0.94324 0.0
O65 O 0.50426 0.03449 0.98462 0.0
O66 O 0.49982 0.02073 0.06526 0.0
O67 O 0.48407 0.99524 0.02419 0.0
C68 C 0.55589 0.04669 -0.00048 0.0
C69 C 0.48309 0.00306 0.05411 0.0
C70 C 0.58616 0.55002 0.55619 0.0
C71 C 0.51476 0.52216 0.49738 0.0
O72 O 0.56926 0.55092 0.56663 0.0
Zn73 Zn 0.55066 0.537 0.52657 0.0
O74 O 0.58579 0.54174 0.52606 0.0
Zn75 Zn 0.56271 0.52698 0.4834 0.0
O76 O 0.57722 0.5471 0.44503 0.0
O77 O 0.5662 0.56161 0.48622 0.0
O78 O 0.52895 0.51982 0.47912 0.0
O79 O 0.52036 0.53137 0.52719 0.0
O80 O 0.54585 0.50399 0.52951 0.0
O81 O 0.55898 0.49752 0.48105 0.0
C82 C 0.57557 0.56333 0.45655 0.0
C83 C 0.54964 0.49097 0.51069 0.0
H84 H 0.33131 0.46911 0.3435 0.0
N85 N 0.31093 0.42722 0.31551 0.0
H86 H 0.36239 0.484 0.38438 0.0
H87 H 0.32326 0.40388 0.35468 0.0
H88 H 0.35337 0.41824 0.3974 0.0
H89 H 0.30839 0.39594 0.27267 0.0
H90 H 0.33309 0.40101 0.22325 0.0
H91 H 0.34028 0.46701 0.2847 0.0
H92 H 0.36477 0.4721 0.23582 0.0
H93 H 0.30472 0.46129 0.29268 0.0
H94 H 0.27225 0.3967 0.34127 0.0
H95 H 0.27001 0.462 0.29443 0.0
H96 H 0.23763 0.3976 0.34457 0.0
H97 H 0.17822 0.47168 0.33932 0.0
H98 H 0.16646 0.48665 0.38697 0.0
H99 H 0.13948 0.42397 0.44159 0.0
H100 H 0.15073 0.40888 0.3929 0.0
H101 H 0.12472 0.40433 0.3169 0.0
H102 H 0.1045 0.41099 0.27097 0.0
H103 H 0.16665 0.46453 0.23101 0.0
H104 H 0.18647 0.45849 0.27834 0.0
H105 H 0.20952 0.46491 0.33741 0.0
H106 H 0.24464 0.46515 0.33284 0.0
H107 H 0.20868 0.39498 0.30886 0.0
N108 N 0.1676 0.42834 0.33185 0.0
H109 H 0.17358 0.39477 0.31516 0.0
C110 C 0.32534 0.43542 0.34547 0.0
C111 C 0.33585 0.45787 0.35548 0.0
C112 C 0.35355 0.46633 0.37918 0.0
C113 C 0.36079 0.45243 0.39364 0.0
C114 C 0.34873 0.42957 0.386 0.0
C115 C 0.33133 0.42125 0.36194 0.0
C116 C 0.32241 0.43096 0.28257 0.0
C117 C 0.32024 0.4126 0.26405 0.0
C118 C 0.33436 0.41552 0.23591 0.0
C119 C 0.35103 0.43695 0.22606 0.0
C120 C 0.35226 0.45538 0.2432 0.0
C121 C 0.33808 0.45245 0.2711 0.0
C122 C 0.291 0.42871 0.31651 0.0
C123 C 0.29017 0.44726 0.30381 0.0
C124 C 0.27027 0.44772 0.3051 0.0
C125 C 0.25088 0.42978 0.3194 0.0
C126 C 0.252 0.41149 0.33261 0.0
C127 C 0.27181 0.41099 0.33104 0.0
C128 C 0.16506 0.43899 0.36243 0.0
C129 C 0.17023 0.4613 0.36186 0.0
C130 C 0.16359 0.4699 0.38934 0.0
C131 C 0.15175 0.45642 0.41797 0.0
C132 C 0.14818 0.43467 0.41963 0.0
C133 C 0.15473 0.42606 0.39203 0.0
C134 C 0.15704 0.43071 0.30101 0.0
C135 C 0.13396 0.41725 0.29781 0.0
C136 C 0.12245 0.42107 0.27138 0.0
C137 C 0.13386 0.43839 0.24715 0.0
C138 C 0.15721 0.45132 0.24952 0.0
C139 C 0.16867 0.44767 0.27636 0.0
C140 C 0.18882 0.42963 0.32723 0.0
C141 C 0.20915 0.44956 0.33134 0.0
C142 C 0.2293 0.44971 0.32837 0.0
C143 C 0.22957 0.43003 0.32085 0.0
C144 C 0.20917 0.41035 0.31554 0.0
C145 C 0.18908 0.41019 0.31883 0.0
H146 H 0.73071 0.11052 0.83207 0.0
N147 N 0.74658 0.14671 0.79319 0.0
H148 H 0.7037 0.09932 0.87925 0.0
H149 H 0.7337 0.17377 0.82559 0.0
H150 H 0.70755 0.16329 0.87417 0.0
H151 H 0.71408 0.15404 0.76757 0.0
H152 H 0.68752 0.13279 0.72184 0.0
H153 H 0.74744 0.11663 0.75145 0.0
H154 H 0.72102 0.09538 0.70497 0.0
H155 H 0.78737 0.15607 0.80924 0.0
H156 H 0.7506 0.18528 0.76641 0.0
H157 H 0.82215 0.19094 0.7999 0.0
H158 H 0.78522 0.22035 0.75753 0.0
H159 H 0.93249 0.29555 0.7702 0.0
H160 H 0.95577 0.32271 0.81432 0.0
H161 H 0.90261 0.33628 0.8361 0.0
H162 H 0.87919 0.3082 0.79362 0.0
H163 H 0.87371 0.3117 0.73426 0.0
H164 H 0.88742 0.34092 0.69012 0.0
H165 H 0.93126 0.31878 0.65014 0.0
H166 H 0.91818 0.29027 0.69568 0.0
H167 H 0.87885 0.2607 0.80803 0.0
H168 H 0.84288 0.22854 0.82059 0.0
H169 H 0.81857 0.23563 0.72051 0.0
N170 N 0.89203 0.28571 0.74947 0.0
H171 H 0.85428 0.26811 0.70803 0.0
C172 C 0.73429 0.1429 0.8253 0.0
C173 C 0.72608 0.12228 0.84174 0.0
C174 C 0.71067 0.11598 0.86891 0.0
C175 C 0.70323 0.13034 0.88065 0.0
C176 C 0.71253 0.15161 0.86547 0.0
C177 C 0.72776 0.15778 0.83786 0.0
C178 C 0.73284 0.13693 0.76284 0.0
C179 C 0.71606 0.14164 0.75355 0.0
C180 C 0.70084 0.12943 0.72732 0.0
C181 C 0.70204 0.11226 0.70989 0.0
C182 C 0.71943 0.10826 0.71825 0.0
C183 C 0.73466 0.1205 0.74448 0.0
C184 C 0.76644 0.16798 0.78855 0.0
C185 C 0.78683 0.17011 0.79814 0.0
C186 C 0.80665 0.19009 0.79294 0.0
C187 C 0.80649 0.2085 0.77804 0.0
C188 C 0.78595 0.20643 0.76872 0.0
C189 C 0.76609 0.18637 0.77397 0.0
C190 C 0.90425 0.29997 0.77841 0.0
C191 C 0.92582 0.30414 0.78505 0.0
C192 C 0.93915 0.31987 0.80998 0.0
C193 C 0.93123 0.33198 0.82856 0.0
C194 C 0.90927 0.3272 0.82264 0.0
C195 C 0.89587 0.31128 0.798 0.0
C196 C 0.89526 0.29901 0.71863 0.0
C197 C 0.88602 0.31291 0.71569 0.0
C198 C 0.89375 0.32952 0.69013 0.0
C199 C 0.91078 0.3325 0.66694 0.0
C200 C 0.91852 0.31729 0.66808 0.0
C201 C 0.9109 0.30082 0.69379 0.0
C202 C 0.86954 0.26804 0.75775 0.0
C203 C 0.86569 0.25594 0.78906 0.0
C204 C 0.8451 0.23721 0.79609 0.0
C205 C 0.82777 0.22953 0.77164 0.0
C206 C 0.83141 0.2414 0.74029 0.0
C207 C 0.85205 0.26022 0.73321 0.0
H208 H 0.56802 0.85928 0.23836 0.0
N209 N 0.6074 0.87123 0.20498 0.0
H210 H 0.56264 0.87934 0.28577 0.0
H211 H 0.63883 0.90385 0.24268 0.0
H212 H 0.63366 0.9239 0.29109 0.0
H213 H 0.62774 0.90576 0.16233 0.0
H214 H 0.61048 0.91768 0.11816 0.0
H215 H 0.56492 0.84597 0.17947 0.0
H216 H 0.54764 0.85769 0.13552 0.0
H217 H 0.57348 0.82992 0.22469 0.0
H218 H 0.64175 0.86607 0.19058 0.0
H219 H 0.57453 0.79552 0.22434 0.0
H220 H 0.64357 0.83196 0.19248 0.0
H221 H 0.57757 0.70212 0.24329 0.0
H222 H 0.57457 0.67833 0.29183 0.0
H223 H 0.64622 0.71057 0.29704 0.0
H224 H 0.64905 0.73411 0.24731 0.0
H225 H 0.63734 0.718 0.16721 0.0
H226 H 0.62107 0.68752 0.12515 0.0
H227 H 0.5562 0.67966 0.14479 0.0
H228 H 0.57298 0.71107 0.18525 0.0
H229 H 0.5899 0.7411 0.25262 0.0
H230 H 0.58791 0.77484 0.25246 0.0
H231 H 0.63215 0.79873 0.16327 0.0
N232 N 0.61588 0.73141 0.20891 0.0
H233 H 0.63519 0.76534 0.16503 0.0
C234 C 0.60394 0.88006 0.23693 0.0
C235 C 0.58252 0.87298 0.25014 0.0
C236 C 0.57945 0.88454 0.27741 0.0
C237 C 0.59771 0.90339 0.2921 0.0
C238 C 0.61921 0.90969 0.28 0.0
C239 C 0.62224 0.89813 0.25266 0.0
C240 C 0.59773 0.87512 0.17444 0.0
C241 C 0.61041 0.89491 0.1558 0.0
C242 C 0.60052 0.90165 0.13055 0.0
C243 C 0.57764 0.8887 0.12363 0.0
C244 C 0.56525 0.86813 0.14064 0.0
C245 C 0.57519 0.86136 0.16577 0.0
C246 C 0.60751 0.85061 0.20697 0.0
C247 C 0.58875 0.83053 0.21715 0.0
C248 C 0.58948 0.81079 0.21739 0.0
C249 C 0.60909 0.81076 0.20812 0.0
C250 C 0.62797 0.83108 0.19888 0.0
C251 C 0.62708 0.85068 0.1981 0.0
C252 C 0.61364 0.72001 0.24155 0.0
C253 C 0.59269 0.70441 0.2551 0.0
C254 C 0.59098 0.69083 0.28316 0.0
C255 C 0.61016 0.69243 0.29829 0.0
C256 C 0.63112 0.70871 0.2857 0.0
C257 C 0.63279 0.72233 0.25759 0.0
C258 C 0.60637 0.71648 0.17973 0.0
C259 C 0.61973 0.71006 0.16161 0.0
C260 C 0.61033 0.69249 0.13791 0.0
C261 C 0.58721 0.68071 0.13225 0.0
C262 C 0.57404 0.6883 0.14848 0.0
C263 C 0.58357 0.70615 0.17187 0.0
C264 C 0.61299 0.7506 0.20887 0.0
C265 C 0.59928 0.75345 0.233 0.0
C266 C 0.59798 0.77289 0.23273 0.0
C267 C 0.60998 0.78975 0.20801 0.0
C268 C 0.6231 0.78648 0.18332 0.0
C269 C 0.6247 0.76726 0.184 0.0
H270 H 0.92884 0.6195 0.87165 0.0
N271 N 0.89488 0.59669 0.82887 0.0
H272 H 0.94296 0.60452 0.91604 0.0
H273 H 0.87241 0.55432 0.85491 0.0
H274 H 0.88709 0.5388 0.89756 0.0
H275 H 0.88446 0.55743 0.79681 0.0
H276 H 0.90573 0.55234 0.75096 0.0
H277 H 0.92781 0.62835 0.79137 0.0
H278 H 0.949 0.62347 0.7443 0.0
H279 H 0.87727 0.61219 0.87471 0.0
H280 H 0.86187 0.57456 0.77882 0.0
H281 H 0.84109 0.60979 0.87279 0.0
H282 H 0.82639 0.57303 0.77609 0.0
H283 H 0.72902 0.61162 0.84928 0.0
H284 H 0.69933 0.59512 0.89254 0.0
H285 H 0.70533 0.53616 0.89438 0.0
H286 H 0.73408 0.55238 0.84969 0.0
H287 H 0.71896 0.55276 0.78694 0.0
H288 H 0.6954 0.54767 0.73663 0.0
H289 H 0.72918 0.61879 0.72154 0.0
H290 H 0.75242 0.6237 0.77261 0.0
H291 H 0.78763 0.62483 0.83835 0.0
H292 H 0.82281 0.62499 0.84125 0.0
H293 H 0.79025 0.55797 0.80071 0.0
N294 N 0.74864 0.59251 0.81665 0.0
H295 H 0.75547 0.55848 0.79645 0.0
C296 C 0.89993 0.58801 0.85953 0.0
C297 C 0.91935 0.60199 0.87804 0.0
C298 C 0.92749 0.59332 0.90307 0.0
C299 C 0.91653 0.57032 0.90967 0.0
C300 C 0.89602 0.55656 0.89315 0.0
C301 C 0.88769 0.56537 0.86845 0.0
C302 C 0.90454 0.59337 0.79759 0.0
C303 C 0.89832 0.57198 0.78529 0.0
C304 C 0.91046 0.56909 0.75878 0.0
C305 C 0.92916 0.5875 0.74401 0.0
C306 C 0.93485 0.60893 0.75541 0.0
C307 C 0.92264 0.61178 0.78197 0.0
C308 C 0.8726 0.59347 0.82736 0.0
C309 C 0.86611 0.6033 0.85337 0.0
C310 C 0.84547 0.60213 0.85199 0.0
C311 C 0.83081 0.59137 0.8241 0.0
C312 C 0.83709 0.5812 0.79823 0.0
C313 C 0.85768 0.58217 0.79981 0.0
C314 C 0.7339 0.58343 0.84628 0.0
C315 C 0.72417 0.59531 0.85957 0.0
C316 C 0.70725 0.58582 0.8845 0.0
C317 C 0.69978 0.56419 0.8971 0.0
C318 C 0.71034 0.55268 0.88493 0.0
C319 C 0.72707 0.56209 0.85954 0.0
C320 C 0.73748 0.5887 0.78353 0.0
C321 C 0.7217 0.56723 0.77233 0.0
C322 C 0.7082 0.56435 0.74347 0.0
C323 C 0.71022 0.58285 0.72525 0.0
C324 C 0.72692 0.60422 0.73536 0.0
C325 C 0.74037 0.60706 0.76424 0.0
C326 C 0.76895 0.59172 0.8174 0.0
C327 C 0.78819 0.61024 0.83001 0.0
C328 C 0.80821 0.61017 0.83193 0.0
C329 C 0.8094 0.59138 0.82157 0.0
C330 C 0.79005 0.57281 0.80863 0.0
C331 C 0.77004 0.57301 0.80639 0.0
H332 H 0.18346 0.71335 0.2978 0.0
N333 N 0.16703 0.72709 0.24424 0.0
H334 H 0.16144 0.68584 0.34268 0.0
H335 H 0.12368 0.70855 0.25586 0.0
H336 H 0.10152 0.68073 0.30029 0.0
H337 H 0.15128 0.73061 0.1828 0.0
H338 H 0.14079 0.70486 0.13345 0.0
H339 H 0.17861 0.69512 0.23596 0.0
H340 H 0.16767 0.66902 0.18759 0.0
H341 H 0.20945 0.73388 0.23516 0.0
H342 H 0.17227 0.76437 0.27144 0.0
H343 H 0.24411 0.76809 0.2466 0.0
H344 H 0.20688 0.79827 0.28516 0.0
H345 H 0.34035 0.8568 0.30467 0.0
H346 H 0.36624 0.86826 0.3531 0.0
H347 H 0.33142 0.89753 0.4038 0.0
H348 H 0.30588 0.88659 0.35412 0.0
H349 H 0.31881 0.90948 0.27491 0.0
H350 H 0.34463 0.93242 0.22902 0.0
H351 H 0.35579 0.87833 0.20228 0.0
H352 H 0.32869 0.85516 0.24651 0.0
H353 H 0.30299 0.82678 0.29988 0.0
H354 H 0.26874 0.79197 0.28906 0.0
H355 H 0.23645 0.82875 0.25849 0.0
N356 N 0.30877 0.86888 0.2942 0.0
H357 H 0.27044 0.86341 0.27158 0.0
C358 C 0.15516 0.71316 0.27366 0.0
C359 C 0.16567 0.70673 0.29867 0.0
C360 C 0.15308 0.69098 0.32424 0.0
C361 C 0.12979 0.68112 0.32478 0.0
C362 C 0.11943 0.68797 0.30029 0.0
C363 C 0.13203 0.70392 0.27514 0.0
C364 C 0.16552 0.71473 0.21309 0.0
C365 C 0.1555 0.7176 0.18339 0.0
C366 C 0.14936 0.70276 0.15542 0.0
C367 C 0.15306 0.68465 0.15679 0.0
C368 C 0.16469 0.68283 0.18547 0.0
C369 C 0.17089 0.69773 0.21334 0.0
C370 C 0.1881 0.74667 0.2518 0.0
C371 C 0.20866 0.74787 0.24572 0.0
C372 C 0.2286 0.76749 0.2527 0.0
C373 C 0.22845 0.78618 0.26652 0.0
C374 C 0.2078 0.78455 0.2736 0.0
C375 C 0.18794 0.76511 0.26608 0.0
C376 C 0.32124 0.8711 0.32552 0.0
C377 C 0.33791 0.86526 0.3264 0.0
C378 C 0.3527 0.87172 0.35444 0.0
C379 C 0.35113 0.88409 0.38225 0.0
C380 C 0.33337 0.88838 0.38252 0.0
C381 C 0.31865 0.882 0.35434 0.0
C382 C 0.3221 0.88083 0.2644 0.0
C383 C 0.32658 0.90254 0.2586 0.0
C384 C 0.34156 0.91568 0.23263 0.0
C385 C 0.35275 0.90747 0.21222 0.0
C386 C 0.34747 0.88527 0.21719 0.0
C387 C 0.33213 0.87201 0.24279 0.0
C388 C 0.28916 0.84781 0.28718 0.0
C389 C 0.28853 0.82741 0.29123 0.0
C390 C 0.26887 0.8074 0.28462 0.0
C391 C 0.2496 0.80738 0.27318 0.0
C392 C 0.25064 0.82793 0.2682 0.0
C393 C 0.27012 0.84782 0.27536 0.0
H394 H 0.4167 0.10999 0.6698 0.0
N395 N 0.44043 0.14569 0.70905 0.0
H396 H 0.43057 0.09442 0.62582 0.0
H397 H 0.48241 0.16665 0.68107 0.0
H398 H 0.49681 0.15065 0.63881 0.0
H399 H 0.48046 0.15901 0.74099 0.0
H400 H 0.48727 0.13962 0.78801 0.0
H401 H 0.41006 0.11302 0.74842 0.0
H402 H 0.41659 0.09392 0.79676 0.0
H403 H 0.43159 0.16505 0.65602 0.0
H404 H 0.45705 0.17769 0.76167 0.0
H405 H 0.43532 0.20171 0.65414 0.0
H406 H 0.46019 0.21389 0.75989 0.0
H407 H 0.43374 0.31172 0.65805 0.0
H408 H 0.45389 0.34046 0.61403 0.0
H409 H 0.51348 0.33785 0.63617 0.0
H410 H 0.49327 0.30927 0.68017 0.0
H411 H 0.48906 0.32303 0.73669 0.0
H412 H 0.49275 0.34729 0.78499 0.0
H413 H 0.42134 0.3183 0.78838 0.0
H414 H 0.41784 0.29425 0.73909 0.0
H415 H 0.41901 0.25612 0.67755 0.0
H416 H 0.41742 0.22023 0.67939 0.0
H417 H 0.48035 0.25064 0.7337 0.0
N418 N 0.45047 0.29463 0.70225 0.0
H419 H 0.48144 0.28622 0.73257 0.0
C420 C 0.44852 0.13918 0.67913 0.0
C421 C 0.43408 0.11917 0.66239 0.0
C422 C 0.44212 0.11023 0.63757 0.0
C423 C 0.46494 0.121 0.62935 0.0
C424 C 0.47916 0.14188 0.6444 0.0
C425 C 0.471 0.15096 0.66892 0.0
C426 C 0.44466 0.13735 0.741 0.0
C427 C 0.4664 0.14496 0.75317 0.0
C428 C 0.47026 0.13393 0.78038 0.0
C429 C 0.45249 0.11506 0.79603 0.0
C430 C 0.43069 0.10816 0.78492 0.0
C431 C 0.42687 0.11918 0.75762 0.0
C432 C 0.4447 0.1684 0.70834 0.0
C433 C 0.43835 0.17575 0.67861 0.0
C434 C 0.4402 0.19667 0.67771 0.0
C435 C 0.44807 0.21078 0.70688 0.0
C436 C 0.45447 0.20361 0.73672 0.0
C437 C 0.45267 0.18266 0.73761 0.0
C438 C 0.46192 0.30844 0.67256 0.0
C439 C 0.451 0.31697 0.6527 0.0
C440 C 0.46253 0.33332 0.62749 0.0
C441 C 0.48533 0.34153 0.62179 0.0
C442 C 0.49597 0.33202 0.64027 0.0
C443 C 0.48438 0.31558 0.66539 0.0
C444 C 0.45306 0.3067 0.73419 0.0
C445 C 0.47412 0.32148 0.74813 0.0
C446 C 0.47622 0.3354 0.77595 0.0
C447 C 0.45735 0.33488 0.79048 0.0
C448 C 0.43625 0.31939 0.77746 0.0
C449 C 0.43417 0.30548 0.74959 0.0
C450 C 0.45022 0.27384 0.70483 0.0
C451 C 0.43239 0.25496 0.68995 0.0
C452 C 0.43163 0.23453 0.69078 0.0
C453 C 0.44886 0.23256 0.70646 0.0
C454 C 0.46672 0.25152 0.72168 0.0
C455 C 0.46741 0.27197 0.7209 0.0
H456 H 0.08966 0.49096 0.07824 0.0
H457 H 0.03042 0.45042 0.13925 0.0
H458 H 0.11095 0.48076 0.11695 0.0
H459 H 0.05185 0.44001 0.17781 0.0
H460 H 0.09555 0.40944 0.212 0.0
H461 H 0.07378 0.41853 0.17236 0.0
H462 H 0.12208 0.4882 0.18217 0.0
H463 H 0.14339 0.47942 0.22302 0.0
C464 C 0.08114 0.47975 0.09978 0.0
C465 C 0.05834 0.4715 0.10571 0.0
C466 C 0.09338 0.47402 0.12201 0.0
C467 C 0.08304 0.45963 0.15033 0.0
C468 C 0.06017 0.45103 0.15599 0.0
C469 C 0.04796 0.45707 0.13406 0.0
C470 C 0.10148 0.42673 0.20608 0.0
C471 C 0.12131 0.44367 0.22092 0.0
C472 C 0.089 0.43189 0.18327 0.0
C473 C 0.09626 0.45404 0.17428 0.0
C474 C 0.11624 0.47095 0.18843 0.0
C475 C 0.12853 0.46585 0.21166 0.0
H476 H 0.57964 0.00756 0.62042 0.0
H477 H 0.61005 0.05414 0.53534 0.0
H478 H 0.61213 0.0303 0.65672 0.0
H479 H 0.64258 0.07653 0.57128 0.0
H480 H 0.68232 0.12466 0.65975 0.0
H481 H 0.65158 0.10066 0.62146 0.0
H482 H 0.65157 0.04312 0.66398 0.0
H483 H 0.68175 0.06709 0.70327 0.0
C484 C 0.59335 0.02247 0.60931 0.0
C485 C 0.59216 0.02909 0.57507 0.0
C486 C 0.61202 0.03547 0.63006 0.0
C487 C 0.6299 0.05533 0.61697 0.0
C488 C 0.62894 0.06155 0.58238 0.0
C489 C 0.61031 0.04862 0.5617 0.0
C490 C 0.67573 0.10689 0.66097 0.0
C491 C 0.68448 0.09781 0.68461 0.0
C492 C 0.65826 0.09313 0.63877 0.0
C493 C 0.6491 0.06995 0.63965 0.0
C494 C 0.65809 0.06089 0.66288 0.0
C495 C 0.67559 0.07466 0.68508 0.0
H496 H 0.51988 0.56562 0.99133 0.0
H497 H 0.52997 0.54152 0.08975 0.0
H498 H 0.53692 0.60321 0.01564 0.0
H499 H 0.54638 0.57863 0.114 0.0
H500 H 0.59898 0.64879 0.13396 0.0
H501 H 0.58101 0.61283 0.10577 0.0
H502 H 0.53266 0.62695 0.06 0.0
H503 H 0.55145 0.66379 0.08711 0.0
C504 C 0.52547 0.56827 0.01821 0.0
C505 C 0.52381 0.55063 0.03847 0.0
C506 C 0.53516 0.58977 0.03215 0.0
C507 C 0.54333 0.59397 0.06657 0.0
C508 C 0.54079 0.5761 0.08711 0.0
C509 C 0.53124 0.55476 0.07323 0.0
C510 C 0.58484 0.64457 0.11727 0.0
C511 C 0.57676 0.65932 0.11274 0.0
C512 C 0.57429 0.62372 0.10154 0.0
C513 C 0.55519 0.61687 0.08106 0.0
C514 C 0.54736 0.63176 0.07561 0.0
C515 C 0.55802 0.65277 0.09138 0.0
H516 H 0.02864 0.56101 0.65761 0.0
H517 H 0.98536 0.55044 0.56991 0.0
H518 H 0.00743 0.57322 0.69284 0.0
H519 H 0.96463 0.5632 0.60469 0.0
H520 H 0.91576 0.55769 0.69009 0.0
H521 H 0.93884 0.54942 0.65227 0.0
H522 H 0.99785 0.6018 0.70134 0.0
H523 H 0.97466 0.60936 0.74038 0.0
C524 C 0.01481 0.56159 0.6457 0.0
C525 C 0.00857 0.55455 0.61106 0.0
C526 C 0.00271 0.5687 0.66584 0.0
C527 C 0.9842 0.56904 0.65169 0.0
C528 C 0.9785 0.56273 0.61665 0.0
C529 C 0.99048 0.55551 0.59664 0.0
C530 C 0.93365 0.56743 0.69285 0.0
C531 C 0.94333 0.5841 0.71842 0.0
C532 C 0.94693 0.56287 0.67087 0.0
C533 C 0.97024 0.57492 0.67377 0.0
C534 C 0.97995 0.59201 0.69868 0.0
C535 C 0.96665 0.59655 0.72075 0.0
H536 H 0.44147 0.97147 0.03354 0.0
H537 H 0.47946 0.00653 0.12458 0.0
H538 H 0.409 0.94952 0.07025 0.0
H539 H 0.44746 0.98389 0.1616 0.0
H540 H 0.38265 0.95202 0.21909 0.0
H541 H 0.41229 0.97608 0.17958 0.0
H542 H 0.39466 0.92044 0.1107 0.0
H543 H 0.36372 0.89676 0.14877 0.0
C544 C 0.44287 0.97446 0.06145 0.0
C545 C 0.46302 0.99074 0.07617 0.0
C546 C 0.4243 0.96174 0.08258 0.0
C547 C 0.42551 0.96473 0.11906 0.0
C548 C 0.44565 0.98129 0.13363 0.0
C549 C 0.46411 0.99425 0.11241 0.0
C550 C 0.38466 0.94495 0.19512 0.0
C551 C 0.3706 0.92233 0.18726 0.0
C552 C 0.40202 0.95875 0.17266 0.0
C553 C 0.40613 0.95028 0.14194 0.0
C554 C 0.39193 0.92772 0.13385 0.0
C555 C 0.37433 0.91398 0.15607 0.0
H556 H 0.54217 0.47738 0.57821 0.0
H557 H 0.54223 0.45405 0.47358 0.0
H558 H 0.52961 0.44036 0.60109 0.0
H559 H 0.52934 0.41659 0.49677 0.0
H560 H 0.47444 0.35121 0.5578 0.0
H561 H 0.4929 0.38712 0.52768 0.0
H562 H 0.54385 0.41329 0.60692 0.0
H563 H 0.52536 0.3777 0.63724 0.0
C564 C 0.53959 0.46434 0.56009 0.0
C565 C 0.54312 0.4686 0.52408 0.0
C566 C 0.53257 0.44317 0.57325 0.0
C567 C 0.52863 0.42565 0.55071 0.0
C568 C 0.53227 0.42984 0.51466 0.0
C569 C 0.5397 0.45124 0.50147 0.0
C570 C 0.48978 0.36455 0.56842 0.0
C571 C 0.49835 0.36168 0.60002 0.0
C572 C 0.50042 0.38501 0.55105 0.0
C573 C 0.51967 0.403 0.56519 0.0
C574 C 0.52892 0.39973 0.59564 0.0
C575 C 0.51842 0.37928 0.61281 0.0
H576 H 0.56343 0.95825 0.4713 0.0
H577 H 0.57254 0.00231 0.38532 0.0
H578 H 0.57466 0.93729 0.43398 0.0
H579 H 0.58325 0.98092 0.34761 0.0
H580 H 0.61902 0.94877 0.29621 0.0
H581 H 0.61169 0.97142 0.33658 0.0
H582 H 0.55997 0.91193 0.38585 0.0
H583 H 0.56802 0.88931 0.34659 0.0
C584 C 0.56783 0.96348 0.4444 0.0
C585 C 0.56699 0.98192 0.43125 0.0
C586 C 0.57416 0.95136 0.42293 0.0
C587 C 0.5797 0.95728 0.3877 0.0
C588 C 0.57932 0.97602 0.37472 0.0
C589 C 0.57307 0.98824 0.39628 0.0
C590 C 0.60639 0.94051 0.31612 0.0
C591 C 0.59413 0.91718 0.31816 0.0
C592 C 0.60197 0.95352 0.33895 0.0
C593 C 0.58516 0.94353 0.36437 0.0
C594 C 0.57319 0.92022 0.36684 0.0
C595 C 0.57764 0.90721 0.34406 0.0
H596 H 0.57737 0.48051 0.01863 0.0
H597 H 0.5736 0.53473 0.97068 0.0
H598 H 0.61574 0.49626 0.99712 0.0
H599 H 0.61185 0.5506 0.95019 0.0
H600 H 0.68748 0.58303 0.94939 0.0
H601 H 0.65199 0.56637 0.98037 0.0
H602 H 0.63183 0.50364 0.93013 0.0
H603 H 0.66669 0.52037 0.89758 0.0
C604 C 0.58482 0.49587 0.00387 0.0
C605 C 0.57252 0.50635 0.99611 0.0
C606 C 0.60667 0.50481 0.99159 0.0
C607 C 0.61667 0.52467 0.97226 0.0
C608 C 0.60455 0.53539 0.96535 0.0
C609 C 0.58263 0.52622 0.97684 0.0
C610 C 0.67555 0.56568 0.94485 0.0
C611 C 0.67993 0.5532 0.92045 0.0
C612 C 0.65532 0.55614 0.96284 0.0
C613 C 0.63925 0.5338 0.95744 0.0
C614 C 0.64409 0.52087 0.93492 0.0
C615 C 0.66415 0.5305 0.9164 0.0
H616 H 0.08542 0.58417 0.4925 0.0
H617 H 0.02554 0.56463 0.43339 0.0
H618 H 0.1062 0.61519 0.45305 0.0
H619 H 0.04609 0.59644 0.39471 0.0
H620 H 0.09409 0.64074 0.30982 0.0
H621 H 0.07248 0.61004 0.34975 0.0
H622 H 0.11282 0.65014 0.43595 0.0
H623 H 0.13502 0.68042 0.39542 0.0
C624 C 0.07662 0.5867 0.47129 0.0
C625 C 0.05383 0.57193 0.46603 0.0
C626 C 0.08853 0.60463 0.44874 0.0
C627 C 0.0779 0.60851 0.42061 0.0
C628 C 0.05498 0.59383 0.41566 0.0
C629 C 0.04313 0.57565 0.43796 0.0
C630 C 0.09821 0.64296 0.33737 0.0
C631 C 0.11621 0.66291 0.34958 0.0
C632 C 0.08575 0.62541 0.36036 0.0
C633 C 0.09081 0.62749 0.39624 0.0
C634 C 0.10866 0.64769 0.40845 0.0
C635 C 0.12133 0.66512 0.38532 0.0
H636 H 0.49221 0.06292 0.97281 0.0
H637 H 0.48132 0.01841 0.88674 0.0
H638 H 0.47999 0.08356 0.93663 0.0
H639 H 0.46967 0.03942 0.85023 0.0
H640 H 0.43189 0.06979 0.80178 0.0
H641 H 0.44059 0.04803 0.84176 0.0
H642 H 0.49275 0.10851 0.88768 0.0
H643 H 0.48328 0.13027 0.84889 0.0
C644 C 0.48723 0.05754 0.94614 0.0
C645 C 0.48779 0.03902 0.93265 0.0
C646 C 0.48034 0.06946 0.92532 0.0
C647 C 0.47391 0.06323 0.89045 0.0
C648 C 0.4742 0.04453 0.87711 0.0
C649 C 0.48102 0.03254 0.89799 0.0
C650 C 0.4449 0.07847 0.82089 0.0
C651 C 0.45688 0.10182 0.82208 0.0
C652 C 0.45011 0.06597 0.8435 0.0
C653 C 0.46749 0.07649 0.86778 0.0
C654 C 0.47913 0.09983 0.86952 0.0
C655 C 0.47387 0.11233 0.84699 0.0
H656 H 0.47778 0.5173 0.53195 0.0
H657 H 0.50011 0.50728 0.43168 0.0
H658 H 0.43971 0.50023 0.5095 0.0
H659 H 0.46255 0.49087 0.40927 0.0
H660 H 0.39207 0.43976 0.38986 0.0
H661 H 0.4282 0.45667 0.41742 0.0
H662 H 0.41544 0.50489 0.46725 0.0
H663 H 0.37839 0.48709 0.44092 0.0
C664 C 0.47463 0.51168 0.50508 0.0
C665 C 0.49194 0.51344 0.48373 0.0
C666 C 0.45285 0.50196 0.49221 0.0
C667 C 0.44803 0.49387 0.45775 0.0
C668 C 0.46554 0.49639 0.4362 0.0
C669 C 0.48716 0.50595 0.44903 0.0
C670 C 0.39659 0.4536 0.40736 0.0
C671 C 0.38217 0.46197 0.41317 0.0
C672 C 0.41756 0.46357 0.42274 0.0
C673 C 0.42489 0.48238 0.44409 0.0
C674 C 0.41028 0.49041 0.45095 0.0
C675 C 0.38914 0.48032 0.43559 0.0
H676 H 0.99367 0.4232 0.00359 0.0
H677 H 0.02875 0.46049 0.91179 0.0
H678 H 0.97277 0.39012 0.96803 0.0
H679 H 0.00712 0.42769 0.87578 0.0
H680 H 0.97592 0.36151 0.82143 0.0
H681 H 0.99983 0.39205 0.85976 0.0
H682 H 0.94374 0.37554 0.92744 0.0
H683 H 0.92026 0.34399 0.89061 0.0
C684 C 0.9969 0.42431 0.97575 0.0
C685 C 0.01279 0.44446 0.96046 0.0
C686 C 0.98479 0.40537 0.95527 0.0
C687 C 0.988 0.40618 0.91887 0.0
C688 C 0.00434 0.42627 0.90374 0.0
C689 C 0.01671 0.44515 0.92435 0.0
C690 C 0.96876 0.36404 0.84491 0.0
C691 C 0.94607 0.35018 0.85281 0.0
C692 C 0.98245 0.38185 0.86666 0.0
C693 C 0.97378 0.38646 0.89669 0.0
C694 C 0.95116 0.37241 0.90484 0.0
C695 C 0.93754 0.35445 0.88333 0.0
H696 H 0.96648 0.50584 0.053 0.0
H697 H 1.00054 0.51626 0.95417 0.0
H698 H 0.94511 0.522 0.02862 0.0
H699 H 0.9791 0.53182 0.92993 0.0
H700 H 0.96062 0.58338 0.9094 0.0
H701 H 0.97912 0.56629 0.93853 0.0
H702 H 0.91667 0.51695 0.98371 0.0
H703 H 0.89804 0.53485 0.95562 0.0
C704 C 0.96921 0.5113 0.02603 0.0
C705 C 0.98542 0.51004 0.00567 0.0
C706 C 0.95695 0.5205 0.01207 0.0
C707 C 0.96071 0.52856 0.97754 0.0
C708 C 0.97622 0.52633 0.9569 0.0
C709 C 0.98844 0.51728 0.97078 0.0
C710 C 0.95079 0.56924 0.9262 0.0
C711 C 0.92778 0.56058 0.93019 0.0
C712 C 0.9614 0.55919 0.94248 0.0
C713 C 0.94932 0.54003 0.96297 0.0
C714 C 0.92643 0.5317 0.96806 0.0
C715 C 0.91575 0.54185 0.95173 0.0
H716 H 0.46656 0.9314 0.52403 0.0
H717 H 0.47916 0.98111 0.44562 0.0
H718 H 0.42848 0.9087 0.50189 0.0
H719 H 0.44165 0.95864 0.42377 0.0
H720 H 0.36941 0.92601 0.40882 0.0
H721 H 0.40325 0.94605 0.4428 0.0
H722 H 0.40961 0.88747 0.44648 0.0
H723 H 0.37504 0.86694 0.41343 0.0
C724 C 0.46123 0.9375 0.50222 0.0
C725 C 0.47591 0.95805 0.48659 0.0
C726 C 0.43948 0.9245 0.48953 0.0
C727 C 0.43202 0.93201 0.46135 0.0
C728 C 0.44673 0.95257 0.44595 0.0
C729 C 0.46835 0.96538 0.45833 0.0
C730 C 0.37753 0.91709 0.41776 0.0
C731 C 0.36954 0.89487 0.40806 0.0
C732 C 0.39712 0.9287 0.4369 0.0
C733 C 0.4093 0.91845 0.44675 0.0
C734 C 0.40059 0.89582 0.43923 0.0
C735 C 0.38091 0.88414 0.42001 0.0
H736 H 0.48606 0.41853 0.97539 0.0
H737 H 0.47686 0.45483 0.89168 0.0
H738 H 0.47623 0.38751 0.93609 0.0
H739 H 0.46757 0.42394 0.85202 0.0
H740 H 0.43462 0.35749 0.79607 0.0
H741 H 0.44023 0.38599 0.83843 0.0
H742 H 0.49238 0.37898 0.88733 0.0
H743 H 0.48605 0.34978 0.84604 0.0
C744 C 0.48191 0.4199 0.94858 0.0
C745 C 0.48235 0.43923 0.93665 0.0
C746 C 0.4764 0.40213 0.92597 0.0
C747 C 0.47128 0.40325 0.89079 0.0
C748 C 0.47119 0.42239 0.87904 0.0
C749 C 0.47663 0.44016 0.90174 0.0
C750 C 0.44698 0.36171 0.81628 0.0
C751 C 0.45988 0.35131 0.81763 0.0
C752 C 0.45041 0.37829 0.84029 0.0
C753 C 0.46683 0.38489 0.86622 0.0
C754 C 0.47942 0.37418 0.86797 0.0
C755 C 0.47597 0.35759 0.84402 0.0
H756 H 0.05306 0.48518 0.48327 0.0
H757 H 0.10375 0.52396 0.55937 0.0
H758 H 0.07582 0.47063 0.46064 0.0
H759 H 0.12671 0.5091 0.5365 0.0
H760 H 0.16817 0.49793 0.44714 0.0
H761 H 0.14729 0.5116 0.4802 0.0
H762 H 0.08964 0.44578 0.47938 0.0
H763 H 0.11004 0.43231 0.44548 0.0
C764 C 0.06906 0.49056 0.49531 0.0
C765 C 0.07659 0.50577 0.52313 0.0
C766 C 0.08204 0.48205 0.48249 0.0
C767 C 0.10297 0.48856 0.497 0.0
C768 C 0.11064 0.50382 0.5248 0.0
C769 C 0.09748 0.51224 0.53793 0.0
C770 C 0.15111 0.48635 0.45434 0.0
C771 C 0.14075 0.46407 0.44334 0.0
C772 C 0.13923 0.49414 0.47354 0.0
C773 C 0.11675 0.47981 0.48195 0.0
C774 C 0.10685 0.45728 0.47283 0.0
C775 C 0.11868 0.44951 0.45373 0.0
H776 H 0.5837 0.09122 0.01067 0.0
H777 H 0.58042 0.03367 0.96192 0.0
H778 H 0.62159 0.11446 0.98754 0.0
H779 H 0.61828 0.05667 0.93995 0.0
H780 H 0.6939 0.10182 0.93625 0.0
H781 H 0.6594 0.08303 0.96985 0.0
H782 H 0.63557 0.12196 0.91765 0.0
H783 H 0.66935 0.13991 0.8824 0.0
C784 C 0.59119 0.08353 0.99548 0.0
C785 C 0.57914 0.0607 0.98789 0.0
C786 C 0.61276 0.09679 0.98227 0.0
C787 C 0.62277 0.08725 0.96223 0.0
C788 C 0.61096 0.06434 0.95563 0.0
C789 C 0.58928 0.05124 0.96799 0.0
C790 C 0.68139 0.10648 0.93185 0.0
C791 C 0.68437 0.12216 0.906 0.0
C792 C 0.66174 0.09584 0.95137 0.0
C793 C 0.64491 0.10105 0.94613 0.0
C794 C 0.64845 0.11783 0.92231 0.0
C795 C 0.6679 0.12817 0.90224 0.0
H796 H 0.57783 0.60215 0.47619 0.0
H797 H 0.59124 0.5709 0.3893 0.0
H798 H 0.58884 0.63513 0.44074 0.0
H799 H 0.60167 0.60366 0.35351 0.0
H800 H 0.63457 0.67159 0.30412 0.0
H801 H 0.62885 0.64219 0.34471 0.0
H802 H 0.57431 0.64575 0.39242 0.0
H803 H 0.58074 0.67586 0.353 0.0
C804 C 0.58317 0.60232 0.44953 0.0
C805 C 0.58355 0.58383 0.43553 0.0
C806 C 0.58938 0.62121 0.42914 0.0
C807 C 0.59603 0.62204 0.39419 0.0
C808 C 0.59692 0.60373 0.38045 0.0
C809 C 0.5908 0.58487 0.40092 0.0
C810 C 0.6217 0.66647 0.32381 0.0
C811 C 0.60807 0.67606 0.32521 0.0
C812 C 0.61822 0.64938 0.34677 0.0
C813 C 0.60099 0.64144 0.37165 0.0
C814 C 0.58785 0.65155 0.37381 0.0
C815 C 0.59138 0.66867 0.35093 0.0
H816 H 0.52717 0.07022 0.48259 0.0
H817 H 0.51865 0.03704 0.58167 0.0
H818 H 0.51072 0.09118 0.50763 0.0
H819 H 0.50285 0.0581 0.60656 0.0
H820 H 0.45197 0.07695 0.63072 0.0
H821 H 0.46836 0.05808 0.60047 0.0
H822 H 0.5163 0.1198 0.55175 0.0
H823 H 0.49903 0.13872 0.58088 0.0
C824 C 0.52202 0.06757 0.50972 0.0
C825 C 0.52397 0.05177 0.53 0.0
C826 C 0.51266 0.0796 0.52407 0.0
C827 C 0.50513 0.07603 0.55891 0.0
C828 C 0.50791 0.06084 0.57938 0.0
C829 C 0.51712 0.04883 0.56511 0.0
C830 C 0.46564 0.08651 0.61293 0.0
C831 C 0.47412 0.10942 0.60828 0.0
C832 C 0.47529 0.07571 0.59597 0.0
C833 C 0.49388 0.0875 0.57414 0.0
C834 C 0.50199 0.11025 0.56841 0.0
C835 C 0.49222 0.12111 0.58536 0.0
H836 H 0.43631 0.46321 0.04456 0.0
H837 H 0.47122 0.45321 0.1296 0.0
H838 H 0.40498 0.45415 0.08353 0.0
H839 H 0.43992 0.44424 0.16842 0.0
H840 H 0.39571 0.46312 0.23326 0.0
H841 H 0.42481 0.46796 0.19253 0.0
H842 H 0.37502 0.42237 0.12063 0.0
H843 H 0.34568 0.41754 0.16162 0.0
C844 C 0.4372 0.45884 0.07143 0.0
C845 C 0.45633 0.45908 0.08405 0.0
C846 C 0.41922 0.45356 0.09367 0.0
C847 C 0.42011 0.44868 0.12902 0.0
C848 C 0.4389 0.44819 0.14134 0.0
C849 C 0.45677 0.45322 0.11906 0.0
C850 C 0.39094 0.45426 0.20864 0.0
C851 C 0.36843 0.44008 0.20046 0.0
C852 C 0.40761 0.45683 0.18552 0.0
C853 C 0.40217 0.44544 0.15353 0.0
C854 C 0.37965 0.43138 0.14511 0.0
C855 C 0.36291 0.42857 0.16854 0.0
H856 H 0.00285 0.46734 0.61503 0.0
H857 H 0.9593 0.44798 0.52541 0.0
H858 H 0.98108 0.43022 0.63901 0.0
H859 H 0.93746 0.4104 0.5496 0.0
H860 H 0.89253 0.35356 0.63006 0.0
H861 H 0.91247 0.38965 0.60061 0.0
H862 H 0.97492 0.39328 0.62439 0.0
H863 H 0.95529 0.35795 0.6547 0.0
C864 C 0.9886 0.45517 0.60038 0.0
C865 C 0.98291 0.46065 0.56815 0.0
C866 C 0.97619 0.4338 0.61407 0.0
C867 C 0.95773 0.41728 0.59597 0.0
C868 C 0.9516 0.4228 0.56415 0.0
C869 C 0.96414 0.44429 0.55028 0.0
C870 C 0.91051 0.36204 0.62882 0.0
C871 C 0.92228 0.35284 0.64488 0.0
C872 C 0.92191 0.38261 0.61172 0.0
C873 C 0.94527 0.39442 0.61056 0.0
C874 C 0.95692 0.38476 0.62531 0.0
C875 C 0.94561 0.3643 0.64229 0.0
H876 H 0.52734 0.95039 0.97565 0.0
H877 H 0.52864 0.9753 0.07958 0.0
H878 H 0.53913 0.92516 -0.00049 0.0
H879 H 0.54011 0.95012 0.10315 0.0
H880 H 0.53928 0.88838 0.13919 0.0
H881 H 0.52344 0.90815 0.1093 0.0
H882 H 0.575 0.9306 0.0309 0.0
H883 H 0.59087 0.91056 0.06073 0.0
C884 C 0.52997 0.95036 0.00354 0.0
C885 C 0.52711 0.96484 0.02575 0.0
C886 C 0.53678 0.93602 0.0171 0.0
C887 C 0.54038 0.93563 0.05315 0.0
C888 C 0.53718 0.94988 0.07532 0.0
C889 C 0.53076 0.96441 0.06176 0.0
C890 C 0.54693 0.89703 0.11509 0.0
C891 C 0.56636 0.89796 0.10233 0.0
C892 C 0.53797 0.90851 0.09818 0.0
C893 C 0.54812 0.92103 0.068 0.0
C894 C 0.56682 0.921 0.05407 0.0
C895 C 0.57596 0.90967 0.07123 0.0
H896 H 0.62474 0.5502 0.54144 0.0
H897 H 0.59185 0.56596 0.62312 0.0
H898 H 0.65597 0.55976 0.58031 0.0
H899 H 0.62294 0.57511 0.66221 0.0
H900 H 0.69274 0.55108 0.67394 0.0
H901 H 0.6636 0.54457 0.63219 0.0
H902 H 0.66193 0.60181 0.67205 0.0
H903 H 0.69038 0.60779 0.71465 0.0
C904 C 0.62419 0.55579 0.56765 0.0
C905 C 0.60574 0.55727 0.57918 0.0
C906 C 0.64206 0.56113 0.59 0.0
C907 C 0.64193 0.56809 0.62443 0.0
C908 C 0.6237 0.57005 0.63572 0.0
C909 C 0.60581 0.5647 0.61335 0.0
C910 C 0.68614 0.56226 0.67379 0.0
C911 C 0.6939 0.57994 0.69769 0.0
C912 C 0.66959 0.55867 0.64963 0.0
C913 C 0.66038 0.57265 0.64882 0.0
C914 C 0.66847 0.59059 0.67222 0.0
C915 C 0.68502 0.59419 0.69635 0.0
H916 H 0.05557 0.55697 0.09053 0.0
H917 H 0.10655 0.57011 0.01397 0.0
H918 H 0.07789 0.59427 0.11347 0.0
H919 H 0.12905 0.60787 0.03717 0.0
H920 H 0.16995 0.66013 0.12704 0.0
H921 H 0.14942 0.62571 0.09363 0.0
H922 H 0.09133 0.63307 0.09517 0.0
H923 H 0.11141 0.66684 0.12933 0.0
C924 C 0.07154 0.56786 0.07846 0.0
C925 C 0.07929 0.56053 0.05043 0.0
C926 C 0.08426 0.58934 0.09146 0.0
C927 C 0.10514 0.60407 0.07693 0.0
C928 C 0.11301 0.59683 0.04889 0.0
C929 C 0.10012 0.57528 0.03558 0.0
C930 C 0.15287 0.65451 0.11988 0.0
C931 C 0.1423 0.66617 0.13115 0.0
C932 C 0.14119 0.63491 0.1005 0.0
C933 C 0.11869 0.62656 0.0922 0.0
C934 C 0.10857 0.63894 0.10162 0.0
C935 C 0.1202 0.65848 0.12086 0.0
loop_
_geom_bond_atom_site_label_1
_geom_bond_atom_site_label_2
_geom_bond_distance
_geom_bond_site_symmetry_2
_ccdc_geom_bond_type
C0 O2 1.247 . S
C0 O4 1.258 . S
C1 O8 1.247 . S
C1 O9 1.258 . S
O2 C0 1.247 . S
O2 Zn3 2.028 1_455 S
Zn3 O2 2.028 1_655 S
Zn3 O7 2.035 . S
Zn3 O9 2.035 . S
Zn3 O10 2.028 1_655 S
O4 C0 1.258 . S
O4 Zn5 2.035 . S
Zn5 O4 2.035 . S
Zn5 O6 2.028 1_455 S
Zn5 O8 2.028 1_455 S
Zn5 O11 2.035 . S
O6 Zn5 2.028 1_655 S
O6 C12 1.247 . S
O7 Zn3 2.035 . S
O7 C12 1.258 . S
O8 C1 1.247 . S
O8 Zn5 2.028 1_655 S
O9 C1 1.258 . S
O9 Zn3 2.035 . S
O10 Zn3 2.028 1_455 S
O10 C13 1.247 . S
O11 Zn5 2.035 . S
O11 C13 1.258 . S
C12 O6 1.247 . S
C12 O7 1.258 . S
C13 O10 1.247 . S
C13 O11 1.258 . S
C14 O16 1.247 . S
C14 O18 1.258 . S
C15 O22 1.247 . S
C15 O23 1.258 . S
O16 C14 1.247 . S
O16 Zn17 2.028 1_545 S
Zn17 O16 2.028 1_565 S
Zn17 O21 2.035 . S
Zn17 O23 2.035 . S
Zn17 O24 2.028 1_565 S
O18 C14 1.258 . S
O18 Zn19 2.035 . S
Zn19 O18 2.035 . S
Zn19 O20 2.028 1_545 S
Zn19 O22 2.028 1_545 S
Zn19 O25 2.035 . S
O20 Zn19 2.028 1_565 S
O20 C26 1.247 . S
O21 Zn17 2.035 . S
O21 C26 1.258 . S
O22 C15 1.247 . S
O22 Zn19 2.028 1_565 S
O23 C15 1.258 . S
O23 Zn17 2.035 . S
O24 Zn17 2.028 1_545 S
O24 C27 1.247 . S
O25 Zn19 2.035 . S
O25 C27 1.258 . S
C26 O20 1.247 . S
C26 O21 1.258 . S
C27 O24 1.247 . S
C27 O25 1.258 . S
C28 O30 1.247 . S
C28 O32 1.258 1_556 S
C29 O36 1.247 . S
C29 O37 1.258 . S
O30 C28 1.247 . S
O30 Zn31 2.028 . S
Zn31 O30 2.028 . S
Zn31 O35 2.035 1_556 S
Zn31 O37 2.035 1_556 S
Zn31 O38 2.028 . S
O32 C28 1.258 1_554 S
O32 Zn33 2.035 . S
Zn33 O32 2.035 . S
Zn33 O34 2.028 . S
Zn33 O36 2.028 . S
Zn33 O39 2.035 . S
O34 Zn33 2.028 . S
O34 C40 1.247 . S
O35 Zn31 2.035 1_554 S
O35 C40 1.258 . S
O36 C29 1.247 . S
O36 Zn33 2.028 . S
O37 C29 1.258 . S
O37 Zn31 2.035 1_554 S
O38 Zn31 2.028 . S
O38 C41 1.247 . S
O39 Zn33 2.035 . S
O39 C41 1.258 1_554 S
C40 O34 1.247 . S
C40 O35 1.258 . S
C41 O38 1.247 . S
C41 O39 1.258 1_556 S
C42 O44 1.247 . S
C42 O46 1.258 . S
C43 O50 1.247 . S
C43 O51 1.258 . S
O44 C42 1.247 . S
O44 Zn45 2.028 . S
Zn45 O44 2.028 . S
Zn45 O49 2.035 . S
Zn45 O51 2.035 . S
Zn45 O52 2.028 . S
O46 C42 1.258 . S
O46 Zn47 2.035 . S
Zn47 O46 2.035 . S
Zn47 O48 2.028 . S
Zn47 O50 2.028 . S
Zn47 O53 2.035 . S
O48 Zn47 2.028 . S
O48 C54 1.247 . S
O49 Zn45 2.035 . S
O49 C54 1.258 . S
O50 C43 1.247 . S
O50 Zn47 2.028 . S
O51 C43 1.258 . S
O51 Zn45 2.035 . S
O52 Zn45 2.028 . S
O52 C55 1.247 . S
O53 Zn47 2.035 . S
O53 C55 1.258 . S
C54 O48 1.247 . S
C54 O49 1.258 . S
C55 O52 1.247 . S
C55 O53 1.258 . S
C56 O58 1.247 1_565 S
C56 O60 1.258 . S
C57 O64 1.247 . S
C57 O65 1.258 1_556 S
O58 C56 1.247 1_545 S
O58 Zn59 2.028 . S
Zn59 O58 2.028 . S
Zn59 O63 2.035 . S
Zn59 O65 2.035 . S
Zn59 O66 2.028 . S
O60 C56 1.258 . S
O60 Zn61 2.035 1_554 S
Zn61 O60 2.035 1_556 S
Zn61 O62 2.028 1_565 S
Zn61 O64 2.028 1_565 S
Zn61 O67 2.035 1_556 S
O62 Zn61 2.028 1_545 S
O62 C68 1.247 . S
O63 Zn59 2.035 . S
O63 C68 1.258 1_554 S
O64 C57 1.247 . S
O64 Zn61 2.028 1_545 S
O65 C57 1.258 1_554 S
O65 Zn59 2.035 . S
O66 Zn59 2.028 . S
O66 C69 1.247 1_545 S
O67 Zn61 2.035 1_554 S
O67 C69 1.258 . S
C68 O62 1.247 . S
C68 O63 1.258 1_556 S
C69 O66 1.247 1_565 S
C69 O67 1.258 . S
C70 O72 1.247 . S
C70 O74 1.258 . S
C71 O78 1.247 . S
C71 O79 1.258 . S
O72 C70 1.247 . S
O72 Zn73 2.028 . S
Zn73 O72 2.028 . S
Zn73 O77 2.035 . S
Zn73 O79 2.035 . S
Zn73 O80 2.028 . S
O74 C70 1.258 . S
O74 Zn75 2.035 . S
Zn75 O74 2.035 . S
Zn75 O76 2.028 . S
Zn75 O78 2.028 . S
Zn75 O81 2.035 . S
O76 Zn75 2.028 . S
O76 C82 1.247 . S
O77 Zn73 2.035 . S
O77 C82 1.258 . S
O78 C71 1.247 . S
O78 Zn75 2.028 . S
O79 C71 1.258 . S
O79 Zn73 2.035 . S
O80 Zn73 2.028 . S
O80 C83 1.247 . S
O81 Zn75 2.035 . S
O81 C83 1.258 . S
C82 O76 1.247 . S
C82 O77 1.258 . S
C83 O80 1.247 . S
C83 O81 1.258 . S
H84 C111 0.929 . S
N85 C110 1.433 . S
N85 C116 1.435 . S
N85 C122 1.423 . S
H86 C112 0.930 . S
H87 C115 0.931 . S
H88 C114 0.929 . S
H89 C117 0.930 . S
H90 C118 0.932 . S
H91 C121 0.929 . S
H92 C120 0.931 . S
H93 C123 0.929 . S
H94 C127 0.932 . S
H95 C124 0.931 . S
H96 C126 0.929 . S
H97 C129 0.929 . S
H98 C130 0.930 . S
H99 C132 0.929 . S
H100 C133 0.931 . S
H101 C135 0.930 . S
H102 C136 0.932 . S
H103 C138 0.931 . S
H104 C139 0.929 . S
H105 C141 0.929 . S
H106 C142 0.931 . S
H107 C144 0.929 . S
N108 C128 1.433 . S
N108 C134 1.435 . S
N108 C140 1.423 . S
H109 C145 0.932 . S
C110 N85 1.433 . S
C110 C111 1.363 . S
C110 C115 1.370 . S
C111 H84 0.929 . S
C111 C110 1.363 . S
C111 C112 1.385 . S
C112 H86 0.930 . S
C112 C111 1.385 . S
C112 C113 1.357 . S
C113 C112 1.357 . S
C113 C114 1.406 . S
C114 H88 0.929 . S
C114 C113 1.406 . S
C114 C115 1.391 . S
C115 H87 0.931 . S
C115 C110 1.370 . S
C115 C114 1.391 . S
C116 N85 1.435 . S
C116 C117 1.358 . S
C116 C121 1.371 . S
C117 H89 0.930 . S
C117 C116 1.358 . S
C117 C118 1.405 . S
C118 H90 0.932 . S
C118 C117 1.405 . S
C118 C119 1.383 . S
C119 C118 1.383 . S
C119 C120 1.393 . S
C120 H92 0.931 . S
C120 C119 1.393 . S
C120 C121 1.382 . S
C121 H91 0.929 . S
C121 C116 1.371 . S
C121 C120 1.382 . S
C122 N85 1.423 . S
C122 C123 1.362 . S
C122 C127 1.388 . S
C123 H93 0.929 . S
C123 C122 1.362 . S
C123 C124 1.376 . S
C124 H95 0.931 . S
C124 C123 1.376 . S
C124 C125 1.396 . S
C125 C124 1.396 . S
C125 C126 1.348 . S
C125 C143 1.472 . S
C126 H96 0.929 . S
C126 C125 1.348 . S
C126 C127 1.443 . S
C127 H94 0.932 . S
C127 C122 1.388 . S
C127 C126 1.443 . S
C128 N108 1.433 . S
C128 C129 1.363 . S
C128 C133 1.370 . S
C129 H97 0.929 . S
C129 C128 1.363 . S
C129 C130 1.385 . S
C130 H98 0.930 . S
C130 C129 1.385 . S
C130 C131 1.357 . S
C131 C130 1.357 . S
C131 C132 1.406 . S
C132 H99 0.929 . S
C132 C131 1.406 . S
C132 C133 1.391 . S
C133 H100 0.931 . S
C133 C128 1.370 . S
C133 C132 1.391 . S
C134 N108 1.435 . S
C134 C135 1.358 . S
C134 C139 1.371 . S
C135 H101 0.930 . S
C135 C134 1.358 . S
C135 C136 1.405 . S
C136 H102 0.932 . S
C136 C135 1.405 . S
C136 C137 1.383 . S
C137 C136 1.383 . S
C137 C138 1.393 . S
C138 H103 0.931 . S
C138 C137 1.393 . S
C138 C139 1.382 . S
C139 H104 0.929 . S
C139 C134 1.371 . S
C139 C138 1.382 . S
C140 N108 1.423 . S
C140 C141 1.362 . S
C140 C145 1.388 . S
C141 H105 0.929 . S
C141 C140 1.362 . S
C141 C142 1.376 . S
C142 H106 0.931 . S
C142 C141 1.376 . S
C142 C143 1.396 . S
C143 C125 1.472 . S
C143 C142 1.396 . S
C143 C144 1.348 . S
C144 H107 0.929 . S
C144 C143 1.348 . S
C144 C145 1.443 . S
C145 H109 0.932 . S
C145 C140 1.388 . S
C145 C144 1.443 . S
H146 C173 0.929 . S
N147 C172 1.433 . S
N147 C178 1.435 . S
N147 C184 1.423 . S
H148 C174 0.930 . S
H149 C177 0.931 . S
H150 C176 0.929 . S
H151 C179 0.930 . S
H152 C180 0.932 . S
H153 C183 0.929 . S
H154 C182 0.931 . S
H155 C185 0.929 . S
H156 C189 0.932 . S
H157 C186 0.931 . S
H158 C188 0.929 . S
H159 C191 0.929 . S
H160 C192 0.930 . S
H161 C194 0.929 . S
H162 C195 0.931 . S
H163 C197 0.930 . S
H164 C198 0.932 . S
H165 C200 0.931 . S
H166 C201 0.929 . S
H167 C203 0.929 . S
H168 C204 0.931 . S
H169 C206 0.929 . S
N170 C190 1.433 . S
N170 C196 1.435 . S
N170 C202 1.423 . S
H171 C207 0.932 . S
C172 N147 1.433 . S
C172 C173 1.363 . S
C172 C177 1.370 . S
C173 H146 0.929 . S
C173 C172 1.363 . S
C173 C174 1.385 . S
C174 H148 0.930 . S
C174 C173 1.385 . S
C174 C175 1.357 . S
C175 C174 1.357 . S
C175 C176 1.406 . S
C176 H150 0.929 . S
C176 C175 1.406 . S
C176 C177 1.391 . S
C177 H149 0.931 . S
C177 C172 1.370 . S
C177 C176 1.391 . S
C178 N147 1.435 . S
C178 C179 1.358 . S
C178 C183 1.371 . S
C179 H151 0.930 . S
C179 C178 1.358 . S
C179 C180 1.405 . S
C180 H152 0.932 . S
C180 C179 1.405 . S
C180 C181 1.383 . S
C181 C180 1.383 . S
C181 C182 1.393 . S
C182 H154 0.931 . S
C182 C181 1.393 . S
C182 C183 1.382 . S
C183 H153 0.929 . S
C183 C178 1.371 . S
C183 C182 1.382 . S
C184 N147 1.423 . S
C184 C185 1.362 . S
C184 C189 1.388 . S
C185 H155 0.929 . S
C185 C184 1.362 . S
C185 C186 1.376 . S
C186 H157 0.931 . S
C186 C185 1.376 . S
C186 C187 1.396 . S
C187 C186 1.396 . S
C187 C188 1.348 . S
C187 C205 1.472 . S
C188 H158 0.929 . S
C188 C187 1.348 . S
C188 C189 1.443 . S
C189 H156 0.932 . S
C189 C184 1.388 . S
C189 C188 1.443 . S
C190 N170 1.433 . S
C190 C191 1.363 . S
C190 C195 1.370 . S
C191 H159 0.929 . S
C191 C190 1.363 . S
C191 C192 1.385 . S
C192 H160 0.930 . S
C192 C191 1.385 . S
C192 C193 1.357 . S
C193 C192 1.357 . S
C193 C194 1.406 . S
C194 H161 0.929 . S
C194 C193 1.406 . S
C194 C195 1.391 . S
C195 H162 0.931 . S
C195 C190 1.370 . S
C195 C194 1.391 . S
C196 N170 1.435 . S
C196 C197 1.358 . S
C196 C201 1.371 . S
C197 H163 0.930 . S
C197 C196 1.358 . S
C197 C198 1.405 . S
C198 H164 0.932 . S
C198 C197 1.405 . S
C198 C199 1.383 . S
C199 C198 1.383 . S
C199 C200 1.393 . S
C200 H165 0.931 . S
C200 C199 1.393 . S
C200 C201 1.382 . S
C201 H166 0.929 . S
C201 C196 1.371 . S
C201 C200 1.382 . S
C202 N170 1.423 . S
C202 C203 1.362 . S
C202 C207 1.388 . S
C203 H167 0.929 . S
C203 C202 1.362 . S
C203 C204 1.376 . S
C204 H168 0.931 . S
C204 C203 1.376 . S
C204 C205 1.396 . S
C205 C187 1.472 . S
C205 C204 1.396 . S
C205 C206 1.348 . S
C206 H169 0.929 . S
C206 C205 1.348 . S
C206 C207 1.443 . S
C207 H171 0.932 . S
C207 C202 1.388 . S
C207 C206 1.443 . S
H208 C235 0.929 . S
N209 C234 1.433 . S
N209 C240 1.435 . S
N209 C246 1.423 . S
H210 C236 0.930 . S
H211 C239 0.931 . S
H212 C238 0.929 . S
H213 C241 0.930 . S
H214 C242 0.932 . S
H215 C245 0.929 . S
H216 C244 0.931 . S
H217 C247 0.929 . S
H218 C251 0.932 . S
H219 C248 0.931 . S
H220 C250 0.929 . S
H221 C253 0.929 . S
H222 C254 0.930 . S
H223 C256 0.929 . S
H224 C257 0.931 . S
H225 C259 0.930 . S
H226 C260 0.932 . S
H227 C262 0.931 . S
H228 C263 0.929 . S
H229 C265 0.929 . S
H230 C266 0.931 . S
H231 C268 0.929 . S
N232 C252 1.433 . S
N232 C258 1.435 . S
N232 C264 1.423 . S
H233 C269 0.932 . S
C234 N209 1.433 . S
C234 C235 1.363 . S
C234 C239 1.370 . S
C235 H208 0.929 . S
C235 C234 1.363 . S
C235 C236 1.385 . S
C236 H210 0.930 . S
C236 C235 1.385 . S
C236 C237 1.357 . S
C237 C236 1.357 . S
C237 C238 1.406 . S
C238 H212 0.929 . S
C238 C237 1.406 . S
C238 C239 1.391 . S
C239 H211 0.931 . S
C239 C234 1.370 . S
C239 C238 1.391 . S
C240 N209 1.435 . S
C240 C241 1.358 . S
C240 C245 1.371 . S
C241 H213 0.930 . S
C241 C240 1.358 . S
C241 C242 1.405 . S
C242 H214 0.932 . S
C242 C241 1.405 . S
C242 C243 1.383 . S
C243 C242 1.383 . S
C243 C244 1.393 . S
C244 H216 0.931 . S
C244 C243 1.393 . S
C244 C245 1.382 . S
C245 H215 0.929 . S
C245 C240 1.371 . S
C245 C244 1.382 . S
C246 N209 1.423 . S
C246 C247 1.362 . S
C246 C251 1.388 . S
C247 H217 0.929 . S
C247 C246 1.362 . S
C247 C248 1.376 . S
C248 H219 0.931 . S
C248 C247 1.376 . S
C248 C249 1.396 . S
C249 C248 1.396 . S
C249 C250 1.348 . S
C249 C267 1.472 . S
C250 H220 0.929 . S
C250 C249 1.348 . S
C250 C251 1.443 . S
C251 H218 0.932 . S
C251 C246 1.388 . S
C251 C250 1.443 . S
C252 N232 1.433 . S
C252 C253 1.363 . S
C252 C257 1.370 . S
C253 H221 0.929 . S
C253 C252 1.363 . S
C253 C254 1.385 . S
C254 H222 0.930 . S
C254 C253 1.385 . S
C254 C255 1.357 . S
C255 C254 1.357 . S
C255 C256 1.406 . S
C256 H223 0.929 . S
C256 C255 1.406 . S
C256 C257 1.391 . S
C257 H224 0.931 . S
C257 C252 1.370 . S
C257 C256 1.391 . S
C258 N232 1.435 . S
C258 C259 1.358 . S
C258 C263 1.371 . S
C259 H225 0.930 . S
C259 C258 1.358 . S
C259 C260 1.405 . S
C260 H226 0.932 . S
C260 C259 1.405 . S
C260 C261 1.383 . S
C261 C260 1.383 . S
C261 C262 1.393 . S
C262 H227 0.931 . S
C262 C261 1.393 . S
C262 C263 1.382 . S
C263 H228 0.929 . S
C263 C258 1.371 . S
C263 C262 1.382 . S
C264 N232 1.423 . S
C264 C265 1.362 . S
C264 C269 1.388 . S
C265 H229 0.929 . S
C265 C264 1.362 . S
C265 C266 1.376 . S
C266 H230 0.931 . S
C266 C265 1.376 . S
C266 C267 1.396 . S
C267 C249 1.472 . S
C267 C266 1.396 . S
C267 C268 1.348 . S
C268 H231 0.929 . S
C268 C267 1.348 . S
C268 C269 1.443 . S
C269 H233 0.932 . S
C269 C264 1.388 . S
C269 C268 1.443 . S
H270 C297 0.929 . S
N271 C296 1.433 . S
N271 C302 1.435 . S
N271 C308 1.423 . S
H272 C298 0.930 . S
H273 C301 0.931 . S
H274 C300 0.929 . S
H275 C303 0.930 . S
H276 C304 0.932 . S
H277 C307 0.929 . S
H278 C306 0.931 . S
H279 C309 0.929 . S
H280 C313 0.932 . S
H281 C310 0.931 . S
H282 C312 0.929 . S
H283 C315 0.929 . S
H284 C316 0.930 . S
H285 C318 0.929 . S
H286 C319 0.931 . S
H287 C321 0.930 . S
H288 C322 0.932 . S
H289 C324 0.931 . S
H290 C325 0.929 . S
H291 C327 0.929 . S
H292 C328 0.931 . S
H293 C330 0.929 . S
N294 C314 1.433 . S
N294 C320 1.435 . S
N294 C326 1.423 . S
H295 C331 0.932 . S
C296 N271 1.433 . S
C296 C297 1.363 . S
C296 C301 1.370 . S
C297 H270 0.929 . S
C297 C296 1.363 . S
C297 C298 1.385 . S
C298 H272 0.930 . S
C298 C297 1.385 . S
C298 C299 1.357 . S
C299 C298 1.357 . S
C299 C300 1.406 . S
C300 H274 0.929 . S
C300 C299 1.406 . S
C300 C301 1.391 . S
C301 H273 0.931 . S
C301 C296 1.370 . S
C301 C300 1.391 . S
C302 N271 1.435 . S
C302 C303 1.358 . S
C302 C307 1.371 . S
C303 H275 0.930 . S
C303 C302 1.358 . S
C303 C304 1.405 . S
C304 H276 0.932 . S
C304 C303 1.405 . S
C304 C305 1.383 . S
C305 C304 1.383 . S
C305 C306 1.393 . S
C306 H278 0.931 . S
C306 C305 1.393 . S
C306 C307 1.382 . S
C307 H277 0.929 . S
C307 C302 1.371 . S
C307 C306 1.382 . S
C308 N271 1.423 . S
C308 C309 1.362 . S
C308 C313 1.388 . S
C309 H279 0.929 . S
C309 C308 1.362 . S
C309 C310 1.376 . S
C310 H281 0.931 . S
C310 C309 1.376 . S
C310 C311 1.396 . S
C311 C310 1.396 . S
C311 C312 1.348 . S
C311 C329 1.472 . S
C312 H282 0.929 . S
C312 C311 1.348 . S
C312 C313 1.443 . S
C313 H280 0.932 . S
C313 C308 1.388 . S
C313 C312 1.443 . S
C314 N294 1.433 . S
C314 C315 1.363 . S
C314 C319 1.370 . S
C315 H283 0.929 . S
C315 C314 1.363 . S
C315 C316 1.385 . S
C316 H284 0.930 . S
C316 C315 1.385 . S
C316 C317 1.357 . S
C317 C316 1.357 . S
C317 C318 1.406 . S
C318 H285 0.929 . S
C318 C317 1.406 . S
C318 C319 1.391 . S
C319 H286 0.931 . S
C319 C314 1.370 . S
C319 C318 1.391 . S
C320 N294 1.435 . S
C320 C321 1.358 . S
C320 C325 1.371 . S
C321 H287 0.930 . S
C321 C320 1.358 . S
C321 C322 1.405 . S
C322 H288 0.932 . S
C322 C321 1.405 . S
C322 C323 1.383 . S
C323 C322 1.383 . S
C323 C324 1.393 . S
C324 H289 0.931 . S
C324 C323 1.393 . S
C324 C325 1.382 . S
C325 H290 0.929 . S
C325 C320 1.371 . S
C325 C324 1.382 . S
C326 N294 1.423 . S
C326 C327 1.362 . S
C326 C331 1.388 . S
C327 H291 0.929 . S
C327 C326 1.362 . S
C327 C328 1.376 . S
C328 H292 0.931 . S
C328 C327 1.376 . S
C328 C329 1.396 . S
C329 C311 1.472 . S
C329 C328 1.396 . S
C329 C330 1.348 . S
C330 H293 0.929 . S
C330 C329 1.348 . S
C330 C331 1.443 . S
C331 H295 0.932 . S
C331 C326 1.388 . S
C331 C330 1.443 . S
H332 C359 0.929 . S
N333 C358 1.433 . S
N333 C364 1.435 . S
N333 C370 1.423 . S
H334 C360 0.930 . S
H335 C363 0.931 . S
H336 C362 0.929 . S
H337 C365 0.930 . S
H338 C366 0.932 . S
H339 C369 0.929 . S
H340 C368 0.931 . S
H341 C371 0.929 . S
H342 C375 0.932 . S
H343 C372 0.931 . S
H344 C374 0.929 . S
H345 C377 0.929 . S
H346 C378 0.930 . S
H347 C380 0.929 . S
H348 C381 0.931 . S
H349 C383 0.930 . S
H350 C384 0.932 . S
H351 C386 0.931 . S
H352 C387 0.929 . S
H353 C389 0.929 . S
H354 C390 0.931 . S
H355 C392 0.929 . S
N356 C376 1.433 . S
N356 C382 1.435 . S
N356 C388 1.423 . S
H357 C393 0.932 . S
C358 N333 1.433 . S
C358 C359 1.363 . S
C358 C363 1.370 . S
C359 H332 0.929 . S
C359 C358 1.363 . S
C359 C360 1.385 . S
C360 H334 0.930 . S
C360 C359 1.385 . S
C360 C361 1.357 . S
C361 C360 1.357 . S
C361 C362 1.406 . S
C362 H336 0.929 . S
C362 C361 1.406 . S
C362 C363 1.391 . S
C363 H335 0.931 . S
C363 C358 1.370 . S
C363 C362 1.391 . S
C364 N333 1.435 . S
C364 C365 1.358 . S
C364 C369 1.371 . S
C365 H337 0.930 . S
C365 C364 1.358 . S
C365 C366 1.405 . S
C366 H338 0.932 . S
C366 C365 1.405 . S
C366 C367 1.383 . S
C367 C366 1.383 . S
C367 C368 1.393 . S
C368 H340 0.931 . S
C368 C367 1.393 . S
C368 C369 1.382 . S
C369 H339 0.929 . S
C369 C364 1.371 . S
C369 C368 1.382 . S
C370 N333 1.423 . S
C370 C371 1.362 . S
C370 C375 1.388 . S
C371 H341 0.929 . S
C371 C370 1.362 . S
C371 C372 1.376 . S
C372 H343 0.931 . S
C372 C371 1.376 . S
C372 C373 1.396 . S
C373 C372 1.396 . S
C373 C374 1.348 . S
C373 C391 1.472 . S
C374 H344 0.929 . S
C374 C373 1.348 . S
C374 C375 1.443 . S
C375 H342 0.932 . S
C375 C370 1.388 . S
C375 C374 1.443 . S
C376 N356 1.433 . S
C376 C377 1.363 . S
C376 C381 1.370 . S
C377 H345 0.929 . S
C377 C376 1.363 . S
C377 C378 1.385 . S
C378 H346 0.930 . S
C378 C377 1.385 . S
C378 C379 1.357 . S
C379 C378 1.357 . S
C379 C380 1.406 . S
C380 H347 0.929 . S
C380 C379 1.406 . S
C380 C381 1.391 . S
C381 H348 0.931 . S
C381 C376 1.370 . S
C381 C380 1.391 . S
C382 N356 1.435 . S
C382 C383 1.358 . S
C382 C387 1.371 . S
C383 H349 0.930 . S
C383 C382 1.358 . S
C383 C384 1.405 . S
C384 H350 0.932 . S
C384 C383 1.405 . S
C384 C385 1.383 . S
C385 C384 1.383 . S
C385 C386 1.393 . S
C386 H351 0.931 . S
C386 C385 1.393 . S
C386 C387 1.382 . S
C387 H352 0.929 . S
C387 C382 1.371 . S
C387 C386 1.382 . S
C388 N356 1.423 . S
C388 C389 1.362 . S
C388 C393 1.388 . S
C389 H353 0.929 . S
C389 C388 1.362 . S
C389 C390 1.376 . S
C390 H354 0.931 . S
C390 C389 1.376 . S
C390 C391 1.396 . S
C391 C373 1.472 . S
C391 C390 1.396 . S
C391 C392 1.348 . S
C392 H355 0.929 . S
C392 C391 1.348 . S
C392 C393 1.443 . S
C393 H357 0.932 . S
C393 C388 1.388 . S
C393 C392 1.443 . S
H394 C421 0.929 . S
N395 C420 1.433 . S
N395 C426 1.435 . S
N395 C432 1.423 . S
H396 C422 0.930 . S
H397 C425 0.931 . S
H398 C424 0.929 . S
H399 C427 0.930 . S
H400 C428 0.932 . S
H401 C431 0.929 . S
H402 C430 0.931 . S
H403 C433 0.929 . S
H404 C437 0.932 . S
H405 C434 0.931 . S
H406 C436 0.929 . S
H407 C439 0.929 . S
H408 C440 0.930 . S
H409 C442 0.929 . S
H410 C443 0.931 . S
H411 C445 0.930 . S
H412 C446 0.932 . S
H413 C448 0.931 . S
H414 C449 0.929 . S
H415 C451 0.929 . S
H416 C452 0.931 . S
H417 C454 0.929 . S
N418 C438 1.433 . S
N418 C444 1.435 . S
N418 C450 1.423 . S
H419 C455 0.932 . S
C420 N395 1.433 . S
C420 C421 1.363 . S
C420 C425 1.370 . S
C421 H394 0.929 . S
C421 C420 1.363 . S
C421 C422 1.385 . S
C422 H396 0.930 . S
C422 C421 1.385 . S
C422 C423 1.357 . S
C423 C422 1.357 . S
C423 C424 1.406 . S
C424 H398 0.929 . S
C424 C423 1.406 . S
C424 C425 1.391 . S
C425 H397 0.931 . S
C425 C420 1.370 . S
C425 C424 1.391 . S
C426 N395 1.435 . S
C426 C427 1.358 . S
C426 C431 1.371 . S
C427 H399 0.930 . S
C427 C426 1.358 . S
C427 C428 1.405 . S
C428 H400 0.932 . S
C428 C427 1.405 . S
C428 C429 1.383 . S
C429 C428 1.383 . S
C429 C430 1.393 . S
C430 H402 0.931 . S
C430 C429 1.393 . S
C430 C431 1.382 . S
C431 H401 0.929 . S
C431 C426 1.371 . S
C431 C430 1.382 . S
C432 N395 1.423 . S
C432 C433 1.362 . S
C432 C437 1.388 . S
C433 H403 0.929 . S
C433 C432 1.362 . S
C433 C434 1.376 . S
C434 H405 0.931 . S
C434 C433 1.376 . S
C434 C435 1.396 . S
C435 C434 1.396 . S
C435 C436 1.348 . S
C435 C453 1.472 . S
C436 H406 0.929 . S
C436 C435 1.348 . S
C436 C437 1.443 . S
C437 H404 0.932 . S
C437 C432 1.388 . S
C437 C436 1.443 . S
C438 N418 1.433 . S
C438 C439 1.363 . S
C438 C443 1.370 . S
C439 H407 0.929 . S
C439 C438 1.363 . S
C439 C440 1.385 . S
C440 H408 0.930 . S
C440 C439 1.385 . S
C440 C441 1.357 . S
C441 C440 1.357 . S
C441 C442 1.406 . S
C442 H409 0.929 . S
C442 C441 1.406 . S
C442 C443 1.391 . S
C443 H410 0.931 . S
C443 C438 1.370 . S
C443 C442 1.391 . S
C444 N418 1.435 . S
C444 C445 1.358 . S
C444 C449 1.371 . S
C445 H411 0.930 . S
C445 C444 1.358 . S
C445 C446 1.405 . S
C446 H412 0.932 . S
C446 C445 1.405 . S
C446 C447 1.383 . S
C447 C446 1.383 . S
C447 C448 1.393 . S
C448 H413 0.931 . S
C448 C447 1.393 . S
C448 C449 1.382 . S
C449 H414 0.929 . S
C449 C444 1.371 . S
C449 C448 1.382 . S
C450 N418 1.423 . S
C450 C451 1.362 . S
C450 C455 1.388 . S
C451 H415 0.929 . S
C451 C450 1.362 . S
C451 C452 1.376 . S
C452 H416 0.931 . S
C452 C451 1.376 . S
C452 C453 1.396 . S
C453 C435 1.472 . S
C453 C452 1.396 . S
C453 C454 1.348 . S
C454 H417 0.929 . S
C454 C453 1.348 . S
C454 C455 1.443 . S
C455 H419 0.932 . S
C455 C450 1.388 . S
C455 C454 1.443 . S
H456 C464 0.950 . S
H457 C469 0.950 . S
H458 C466 0.950 . S
H459 C468 0.950 . S
H460 C470 0.950 . S
H461 C472 0.950 . S
H462 C474 0.950 . S
H463 C475 0.950 . S
C464 H456 0.950 . S
C464 C465 1.386 . S
C464 C466 1.391 . S
C465 C464 1.386 . S
C465 C469 1.393 . S
C466 H458 0.950 . S
C466 C464 1.391 . S
C466 C467 1.400 . S
C467 C466 1.400 . S
C467 C468 1.398 . S
C467 C473 1.491 . S
C468 H459 0.950 . S
C468 C467 1.398 . S
C468 C469 1.391 . S
C469 H457 0.950 . S
C469 C465 1.393 . S
C469 C468 1.391 . S
C470 H460 0.950 . S
C470 C471 1.386 . S
C470 C472 1.391 . S
C471 C470 1.386 . S
C471 C475 1.393 . S
C472 H461 0.950 . S
C472 C470 1.391 . S
C472 C473 1.400 . S
C473 C467 1.491 . S
C473 C472 1.400 . S
C473 C474 1.398 . S
C474 H462 0.950 . S
C474 C473 1.398 . S
C474 C475 1.391 . S
C475 H463 0.950 . S
C475 C471 1.393 . S
C475 C474 1.391 . S
H476 C484 0.950 . S
H477 C489 0.950 . S
H478 C486 0.950 . S
H479 C488 0.950 . S
H480 C490 0.950 . S
H481 C492 0.950 . S
H482 C494 0.950 . S
H483 C495 0.950 . S
C484 H476 0.950 . S
C484 C485 1.386 . S
C484 C486 1.391 . S
C485 C484 1.386 . S
C485 C489 1.393 . S
C486 H478 0.950 . S
C486 C484 1.391 . S
C486 C487 1.400 . S
C487 C486 1.400 . S
C487 C488 1.398 . S
C487 C493 1.491 . S
C488 H479 0.950 . S
C488 C487 1.398 . S
C488 C489 1.391 . S
C489 H477 0.950 . S
C489 C485 1.393 . S
C489 C488 1.391 . S
C490 H480 0.950 . S
C490 C491 1.386 . S
C490 C492 1.391 . S
C491 C490 1.386 . S
C491 C495 1.393 . S
C492 H481 0.950 . S
C492 C490 1.391 . S
C492 C493 1.400 . S
C493 C487 1.491 . S
C493 C492 1.400 . S
C493 C494 1.398 . S
C494 H482 0.950 . S
C494 C493 1.398 . S
C494 C495 1.391 . S
C495 H483 0.950 . S
C495 C491 1.393 . S
C495 C494 1.391 . S
H496 C504 0.950 . S
H497 C509 0.950 . S
H498 C506 0.950 . S
H499 C508 0.950 . S
H500 C510 0.950 . S
H501 C512 0.950 . S
H502 C514 0.950 . S
H503 C515 0.950 . S
C504 H496 0.950 . S
C504 C505 1.386 . S
C504 C506 1.391 . S
C505 C504 1.386 . S
C505 C509 1.393 . S
C506 H498 0.950 . S
C506 C504 1.391 . S
C506 C507 1.400 . S
C507 C506 1.400 . S
C507 C508 1.398 . S
C507 C513 1.491 . S
C508 H499 0.950 . S
C508 C507 1.398 . S
C508 C509 1.391 . S
C509 H497 0.950 . S
C509 C505 1.393 . S
C509 C508 1.391 . S
C510 H500 0.950 . S
C510 C511 1.386 . S
C510 C512 1.391 . S
C511 C510 1.386 . S
C511 C515 1.393 . S
C512 H501 0.950 . S
C512 C510 1.391 . S
C512 C513 1.400 . S
C513 C507 1.491 . S
C513 C512 1.400 . S
C513 C514 1.398 . S
C514 H502 0.950 . S
C514 C513 1.398 . S
C514 C515 1.391 . S
C515 H503 0.950 . S
C515 C511 1.393 . S
C515 C514 1.391 . S
H516 C524 0.950 . S
H517 C529 0.950 . S
H518 C526 0.950 . S
H519 C528 0.950 . S
H520 C530 0.950 . S
H521 C532 0.950 . S
H522 C534 0.950 1_455 S
H523 C535 0.950 . S
C524 H516 0.950 . S
C524 C525 1.386 . S
C524 C526 1.391 . S
C525 C524 1.386 . S
C525 C529 1.393 1_455 S
C526 H518 0.950 . S
C526 C524 1.391 . S
C526 C527 1.400 1_455 S
C527 C526 1.400 1_655 S
C527 C528 1.398 . S
C527 C533 1.491 . S
C528 H519 0.950 . S
C528 C527 1.398 . S
C528 C529 1.391 . S
C529 H517 0.950 . S
C529 C525 1.393 1_655 S
C529 C528 1.391 . S
C530 H520 0.950 . S
C530 C531 1.386 . S
C530 C532 1.391 . S
C531 C530 1.386 . S
C531 C535 1.393 . S
C532 H521 0.950 . S
C532 C530 1.391 . S
C532 C533 1.400 . S
C533 C527 1.491 . S
C533 C532 1.400 . S
C533 C534 1.398 . S
C534 H522 0.950 1_655 S
C534 C533 1.398 . S
C534 C535 1.391 . S
C535 H523 0.950 . S
C535 C531 1.393 . S
C535 C534 1.391 . S
H536 C544 0.950 . S
H537 C549 0.950 . S
H538 C546 0.950 . S
H539 C548 0.950 . S
H540 C550 0.950 . S
H541 C552 0.950 . S
H542 C554 0.950 . S
H543 C555 0.950 . S
C544 H536 0.950 . S
C544 C545 1.386 . S
C544 C546 1.391 . S
C545 C544 1.386 . S
C545 C549 1.393 . S
C546 H538 0.950 . S
C546 C544 1.391 . S
C546 C547 1.400 . S
C547 C546 1.400 . S
C547 C548 1.398 . S
C547 C553 1.491 . S
C548 H539 0.950 . S
C548 C547 1.398 . S
C548 C549 1.391 . S
C549 H537 0.950 . S
C549 C545 1.393 . S
C549 C548 1.391 . S
C550 H540 0.950 . S
C550 C551 1.386 . S
C550 C552 1.391 . S
C551 C550 1.386 . S
C551 C555 1.393 . S
C552 H541 0.950 . S
C552 C550 1.391 . S
C552 C553 1.400 . S
C553 C547 1.491 . S
C553 C552 1.400 . S
C553 C554 1.398 . S
C554 H542 0.950 . S
C554 C553 1.398 . S
C554 C555 1.391 . S
C555 H543 0.950 . S
C555 C551 1.393 . S
C555 C554 1.391 . S
H556 C564 0.950 . S
H557 C569 0.950 . S
H558 C566 0.950 . S
H559 C568 0.950 . S
H560 C570 0.950 . S
H561 C572 0.950 . S
H562 C574 0.950 . S
H563 C575 0.950 . S
C564 H556 0.950 . S
C564 C565 1.386 . S
C564 C566 1.391 . S
C565 C564 1.386 . S
C565 C569 1.393 . S
C566 H558 0.950 . S
C566 C564 1.391 . S
C566 C567 1.400 . S
C567 C566 1.400 . S
C567 C568 1.398 . S
C567 C573 1.491 . S
C568 H559 0.950 . S
C568 C567 1.398 . S
C568 C569 1.391 . S
C569 H557 0.950 . S
C569 C565 1.393 . S
C569 C568 1.391 . S
C570 H560 0.950 . S
C570 C571 1.386 . S
C570 C572 1.391 . S
C571 C570 1.386 . S
C571 C575 1.393 . S
C572 H561 0.950 . S
C572 C570 1.391 . S
C572 C573 1.400 . S
C573 C567 1.491 . S
C573 C572 1.400 . S
C573 C574 1.398 . S
C574 H562 0.950 . S
C574 C573 1.398 . S
C574 C575 1.391 . S
C575 H563 0.950 . S
C575 C571 1.393 . S
C575 C574 1.391 . S
H576 C584 0.950 . S
H577 C589 0.950 . S
H578 C586 0.950 . S
H579 C588 0.950 . S
H580 C590 0.950 . S
H581 C592 0.950 . S
H582 C594 0.950 . S
H583 C595 0.950 . S
C584 H576 0.950 . S
C584 C585 1.386 . S
C584 C586 1.391 . S
C585 C584 1.386 . S
C585 C589 1.393 . S
C586 H578 0.950 . S
C586 C584 1.391 . S
C586 C587 1.400 . S
C587 C586 1.400 . S
C587 C588 1.398 . S
C587 C593 1.491 . S
C588 H579 0.950 . S
C588 C587 1.398 . S
C588 C589 1.391 . S
C589 H577 0.950 . S
C589 C585 1.393 . S
C589 C588 1.391 . S
C590 H580 0.950 . S
C590 C591 1.386 . S
C590 C592 1.391 . S
C591 C590 1.386 . S
C591 C595 1.393 . S
C592 H581 0.950 . S
C592 C590 1.391 . S
C592 C593 1.400 . S
C593 C587 1.491 . S
C593 C592 1.400 . S
C593 C594 1.398 . S
C594 H582 0.950 . S
C594 C593 1.398 . S
C594 C595 1.391 . S
C595 H583 0.950 . S
C595 C591 1.393 . S
C595 C594 1.391 . S
H596 C604 0.950 . S
H597 C609 0.950 . S
H598 C606 0.950 . S
H599 C608 0.950 . S
H600 C610 0.950 . S
H601 C612 0.950 . S
H602 C614 0.950 . S
H603 C615 0.950 . S
C604 H596 0.950 . S
C604 C605 1.386 . S
C604 C606 1.391 . S
C605 C604 1.386 . S
C605 C609 1.393 . S
C606 H598 0.950 . S
C606 C604 1.391 . S
C606 C607 1.400 . S
C607 C606 1.400 . S
C607 C608 1.398 . S
C607 C613 1.491 . S
C608 H599 0.950 . S
C608 C607 1.398 . S
C608 C609 1.391 . S
C609 H597 0.950 . S
C609 C605 1.393 . S
C609 C608 1.391 . S
C610 H600 0.950 . S
C610 C611 1.386 . S
C610 C612 1.391 . S
C611 C610 1.386 . S
C611 C615 1.393 . S
C612 H601 0.950 . S
C612 C610 1.391 . S
C612 C613 1.400 . S
C613 C607 1.491 . S
C613 C612 1.400 . S
C613 C614 1.398 . S
C614 H602 0.950 . S
C614 C613 1.398 . S
C614 C615 1.391 . S
C615 H603 0.950 . S
C615 C611 1.393 . S
C615 C614 1.391 . S
H616 C624 0.950 . S
H617 C629 0.950 . S
H618 C626 0.950 . S
H619 C628 0.950 . S
H620 C630 0.950 . S
H621 C632 0.950 . S
H622 C634 0.950 . S
H623 C635 0.950 . S
C624 H616 0.950 . S
C624 C625 1.386 . S
C624 C626 1.391 . S
C625 C624 1.386 . S
C625 C629 1.393 . S
C626 H618 0.950 . S
C626 C624 1.391 . S
C626 C627 1.400 . S
C627 C626 1.400 . S
C627 C628 1.398 . S
C627 C633 1.491 . S
C628 H619 0.950 . S
C628 C627 1.398 . S
C628 C629 1.391 . S
C629 H617 0.950 . S
C629 C625 1.393 . S
C629 C628 1.391 . S
C630 H620 0.950 . S
C630 C631 1.386 . S
C630 C632 1.391 . S
C631 C630 1.386 . S
C631 C635 1.393 . S
C632 H621 0.950 . S
C632 C630 1.391 . S
C632 C633 1.400 . S
C633 C627 1.491 . S
C633 C632 1.400 . S
C633 C634 1.398 . S
C634 H622 0.950 . S
C634 C633 1.398 . S
C634 C635 1.391 . S
C635 H623 0.950 . S
C635 C631 1.393 . S
C635 C634 1.391 . S
H636 C644 0.950 . S
H637 C649 0.950 . S
H638 C646 0.950 . S
H639 C648 0.950 . S
H640 C650 0.950 . S
H641 C652 0.950 . S
H642 C654 0.950 . S
H643 C655 0.950 . S
C644 H636 0.950 . S
C644 C645 1.386 . S
C644 C646 1.391 . S
C645 C644 1.386 . S
C645 C649 1.393 . S
C646 H638 0.950 . S
C646 C644 1.391 . S
C646 C647 1.400 . S
C647 C646 1.400 . S
C647 C648 1.398 . S
C647 C653 1.491 . S
C648 H639 0.950 . S
C648 C647 1.398 . S
C648 C649 1.391 . S
C649 H637 0.950 . S
C649 C645 1.393 . S
C649 C648 1.391 . S
C650 H640 0.950 . S
C650 C651 1.386 . S
C650 C652 1.391 . S
C651 C650 1.386 . S
C651 C655 1.393 . S
C652 H641 0.950 . S
C652 C650 1.391 . S
C652 C653 1.400 . S
C653 C647 1.491 . S
C653 C652 1.400 . S
C653 C654 1.398 . S
C654 H642 0.950 . S
C654 C653 1.398 . S
C654 C655 1.391 . S
C655 H643 0.950 . S
C655 C651 1.393 . S
C655 C654 1.391 . S
H656 C664 0.950 . S
H657 C669 0.950 . S
H658 C666 0.950 . S
H659 C668 0.950 . S
H660 C670 0.950 . S
H661 C672 0.950 . S
H662 C674 0.950 . S
H663 C675 0.950 . S
C664 H656 0.950 . S
C664 C665 1.386 . S
C664 C666 1.391 . S
C665 C664 1.386 . S
C665 C669 1.393 . S
C666 H658 0.950 . S
C666 C664 1.391 . S
C666 C667 1.400 . S
C667 C666 1.400 . S
C667 C668 1.398 . S
C667 C673 1.491 . S
C668 H659 0.950 . S
C668 C667 1.398 . S
C668 C669 1.391 . S
C669 H657 0.950 . S
C669 C665 1.393 . S
C669 C668 1.391 . S
C670 H660 0.950 . S
C670 C671 1.386 . S
C670 C672 1.391 . S
C671 C670 1.386 . S
C671 C675 1.393 . S
C672 H661 0.950 . S
C672 C670 1.391 . S
C672 C673 1.400 . S
C673 C667 1.491 . S
C673 C672 1.400 . S
C673 C674 1.398 . S
C674 H662 0.950 . S
C674 C673 1.398 . S
C674 C675 1.391 . S
C675 H663 0.950 . S
C675 C671 1.393 . S
C675 C674 1.391 . S
H676 C684 0.950 . S
H677 C689 0.950 . S
H678 C686 0.950 . S
H679 C688 0.950 . S
H680 C690 0.950 . S
H681 C692 0.950 . S
H682 C694 0.950 . S
H683 C695 0.950 . S
C684 H676 0.950 . S
C684 C685 1.386 . S
C684 C686 1.391 1_554 S
C685 C684 1.386 . S
C685 C689 1.393 1_554 S
C686 H678 0.950 . S
C686 C684 1.391 1_556 S
C686 C687 1.400 . S
C687 C686 1.400 . S
C687 C688 1.398 . S
C687 C693 1.491 . S
C688 H679 0.950 . S
C688 C687 1.398 . S
C688 C689 1.391 . S
C689 H677 0.950 . S
C689 C685 1.393 1_556 S
C689 C688 1.391 . S
C690 H680 0.950 . S
C690 C691 1.386 . S
C690 C692 1.391 . S
C691 C690 1.386 . S
C691 C695 1.393 . S
C692 H681 0.950 . S
C692 C690 1.391 . S
C692 C693 1.400 . S
C693 C687 1.491 . S
C693 C692 1.400 . S
C693 C694 1.398 . S
C694 H682 0.950 . S
C694 C693 1.398 . S
C694 C695 1.391 . S
C695 H683 0.950 . S
C695 C691 1.393 . S
C695 C694 1.391 . S
H696 C704 0.950 . S
H697 C709 0.950 . S
H698 C706 0.948 1_554 S
H699 C708 0.950 . S
H700 C710 0.950 . S
H701 C712 0.950 . S
H702 C714 0.950 . S
H703 C715 0.950 . S
C704 H696 0.950 . S
C704 C705 1.386 . S
C704 C706 1.391 1_554 S
C705 C704 1.386 . S
C705 C709 1.393 1_554 S
C706 H698 0.948 1_556 S
C706 C704 1.391 1_556 S
C706 C707 1.400 . S
C707 C706 1.400 . S
C707 C708 1.398 . S
C707 C713 1.491 . S
C708 H699 0.950 . S
C708 C707 1.398 . S
C708 C709 1.391 . S
C709 H697 0.950 . S
C709 C705 1.393 1_556 S
C709 C708 1.391 . S
C710 H700 0.950 . S
C710 C711 1.386 . S
C710 C712 1.391 . S
C711 C710 1.386 . S
C711 C715 1.393 . S
C712 H701 0.950 . S
C712 C710 1.391 . S
C712 C713 1.400 . S
C713 C707 1.491 . S
C713 C712 1.400 . S
C713 C714 1.398 . S
C714 H702 0.950 . S
C714 C713 1.398 . S
C714 C715 1.391 . S
C715 H703 0.950 . S
C715 C711 1.393 . S
C715 C714 1.391 . S
H716 C724 0.950 . S
H717 C729 0.950 . S
H718 C726 0.950 . S
H719 C728 0.950 . S
H720 C730 0.950 . S
H721 C732 0.950 . S
H722 C734 0.950 . S
H723 C735 0.950 . S
C724 H716 0.950 . S
C724 C725 1.386 . S
C724 C726 1.391 . S
C725 C724 1.386 . S
C725 C729 1.393 . S
C726 H718 0.950 . S
C726 C724 1.391 . S
C726 C727 1.400 . S
C727 C726 1.400 . S
C727 C728 1.398 . S
C727 C733 1.491 . S
C728 H719 0.950 . S
C728 C727 1.398 . S
C728 C729 1.391 . S
C729 H717 0.950 . S
C729 C725 1.393 . S
C729 C728 1.391 . S
C730 H720 0.950 . S
C730 C731 1.386 . S
C730 C732 1.391 . S
C731 C730 1.386 . S
C731 C735 1.393 . S
C732 H721 0.950 . S
C732 C730 1.391 . S
C732 C733 1.400 . S
C733 C727 1.491 . S
C733 C732 1.400 . S
C733 C734 1.398 . S
C734 H722 0.950 . S
C734 C733 1.398 . S
C734 C735 1.391 . S
C735 H723 0.950 . S
C735 C731 1.393 . S
C735 C734 1.391 . S
H736 C744 0.950 . S
H737 C749 0.950 . S
H738 C746 0.950 . S
H739 C748 0.950 . S
H740 C750 0.950 . S
H741 C752 0.950 . S
H742 C754 0.950 . S
H743 C755 0.950 . S
C744 H736 0.950 . S
C744 C745 1.386 . S
C744 C746 1.391 . S
C745 C744 1.386 . S
C745 C749 1.393 . S
C746 H738 0.950 . S
C746 C744 1.391 . S
C746 C747 1.400 . S
C747 C746 1.400 . S
C747 C748 1.398 . S
C747 C753 1.491 . S
C748 H739 0.950 . S
C748 C747 1.398 . S
C748 C749 1.391 . S
C749 H737 0.950 . S
C749 C745 1.393 . S
C749 C748 1.391 . S
C750 H740 0.950 . S
C750 C751 1.386 . S
C750 C752 1.391 . S
C751 C750 1.386 . S
C751 C755 1.393 . S
C752 H741 0.950 . S
C752 C750 1.391 . S
C752 C753 1.400 . S
C753 C747 1.491 . S
C753 C752 1.400 . S
C753 C754 1.398 . S
C754 H742 0.950 . S
C754 C753 1.398 . S
C754 C755 1.391 . S
C755 H743 0.950 . S
C755 C751 1.393 . S
C755 C754 1.391 . S
H756 C764 0.950 . S
H757 C769 0.950 . S
H758 C766 0.950 . S
H759 C768 0.950 . S
H760 C770 0.950 . S
H761 C772 0.950 . S
H762 C774 0.950 . S
H763 C775 0.950 . S
C764 H756 0.950 . S
C764 C765 1.386 . S
C764 C766 1.391 . S
C765 C764 1.386 . S
C765 C769 1.393 . S
C766 H758 0.950 . S
C766 C764 1.391 . S
C766 C767 1.400 . S
C767 C766 1.400 . S
C767 C768 1.398 . S
C767 C773 1.491 . S
C768 H759 0.950 . S
C768 C767 1.398 . S
C768 C769 1.391 . S
C769 H757 0.950 . S
C769 C765 1.393 . S
C769 C768 1.391 . S
C770 H760 0.950 . S
C770 C771 1.386 . S
C770 C772 1.391 . S
C771 C770 1.386 . S
C771 C775 1.393 . S
C772 H761 0.950 . S
C772 C770 1.391 . S
C772 C773 1.400 . S
C773 C767 1.491 . S
C773 C772 1.400 . S
C773 C774 1.398 . S
C774 H762 0.950 . S
C774 C773 1.398 . S
C774 C775 1.391 . S
C775 H763 0.950 . S
C775 C771 1.393 . S
C775 C774 1.391 . S
H776 C784 0.950 . S
H777 C789 0.950 . S
H778 C786 0.950 . S
H779 C788 0.950 . S
H780 C790 0.950 . S
H781 C792 0.950 . S
H782 C794 0.950 . S
H783 C795 0.950 . S
C784 H776 0.950 . S
C784 C785 1.386 . S
C784 C786 1.391 . S
C785 C784 1.386 . S
C785 C789 1.393 . S
C786 H778 0.950 . S
C786 C784 1.391 . S
C786 C787 1.400 . S
C787 C786 1.400 . S
C787 C788 1.398 . S
C787 C793 1.491 . S
C788 H779 0.950 . S
C788 C787 1.398 . S
C788 C789 1.391 . S
C789 H777 0.950 . S
C789 C785 1.393 . S
C789 C788 1.391 . S
C790 H780 0.950 . S
C790 C791 1.386 . S
C790 C792 1.391 . S
C791 C790 1.386 . S
C791 C795 1.393 . S
C792 H781 0.950 . S
C792 C790 1.391 . S
C792 C793 1.400 . S
C793 C787 1.491 . S
C793 C792 1.400 . S
C793 C794 1.398 . S
C794 H782 0.950 . S
C794 C793 1.398 . S
C794 C795 1.391 . S
C795 H783 0.950 . S
C795 C791 1.393 . S
C795 C794 1.391 . S
H796 C804 0.950 . S
H797 C809 0.950 . S
H798 C806 0.950 . S
H799 C808 0.950 . S
H800 C810 0.950 . S
H801 C812 0.950 . S
H802 C814 0.950 . S
H803 C815 0.950 . S
C804 H796 0.950 . S
C804 C805 1.386 . S
C804 C806 1.391 . S
C805 C804 1.386 . S
C805 C809 1.393 . S
C806 H798 0.950 . S
C806 C804 1.391 . S
C806 C807 1.400 . S
C807 C806 1.400 . S
C807 C808 1.398 . S
C807 C813 1.491 . S
C808 H799 0.950 . S
C808 C807 1.398 . S
C808 C809 1.391 . S
C809 H797 0.950 . S
C809 C805 1.393 . S
C809 C808 1.391 . S
C810 H800 0.950 . S
C810 C811 1.386 . S
C810 C812 1.391 . S
C811 C810 1.386 . S
C811 C815 1.393 . S
C812 H801 0.950 . S
C812 C810 1.391 . S
C812 C813 1.400 . S
C813 C807 1.491 . S
C813 C812 1.400 . S
C813 C814 1.398 . S
C814 H802 0.950 . S
C814 C813 1.398 . S
C814 C815 1.391 . S
C815 H803 0.950 . S
C815 C811 1.393 . S
C815 C814 1.391 . S
H816 C824 0.950 . S
H817 C829 0.950 . S
H818 C826 0.950 . S
H819 C828 0.950 . S
H820 C830 0.950 . S
H821 C832 0.950 . S
H822 C834 0.950 . S
H823 C835 0.950 . S
C824 H816 0.950 . S
C824 C825 1.386 . S
C824 C826 1.391 . S
C825 C824 1.386 . S
C825 C829 1.393 . S
C826 H818 0.950 . S
C826 C824 1.391 . S
C826 C827 1.400 . S
C827 C826 1.400 . S
C827 C828 1.398 . S
C827 C833 1.491 . S
C828 H819 0.950 . S
C828 C827 1.398 . S
C828 C829 1.391 . S
C829 H817 0.950 . S
C829 C825 1.393 . S
C829 C828 1.391 . S
C830 H820 0.950 . S
C830 C831 1.386 . S
C830 C832 1.391 . S
C831 C830 1.386 . S
C831 C835 1.393 . S
C832 H821 0.950 . S
C832 C830 1.391 . S
C832 C833 1.400 . S
C833 C827 1.491 . S
C833 C832 1.400 . S
C833 C834 1.398 . S
C834 H822 0.950 . S
C834 C833 1.398 . S
C834 C835 1.391 . S
C835 H823 0.950 . S
C835 C831 1.393 . S
C835 C834 1.391 . S
H836 C844 0.950 . S
H837 C849 0.950 . S
H838 C846 0.950 . S
H839 C848 0.950 . S
H840 C850 0.950 . S
H841 C852 0.950 . S
H842 C854 0.950 . S
H843 C855 0.950 . S
C844 H836 0.950 . S
C844 C845 1.386 . S
C844 C846 1.391 . S
C845 C844 1.386 . S
C845 C849 1.393 . S
C846 H838 0.950 . S
C846 C844 1.391 . S
C846 C847 1.400 . S
C847 C846 1.400 . S
C847 C848 1.398 . S
C847 C853 1.491 . S
C848 H839 0.950 . S
C848 C847 1.398 . S
C848 C849 1.391 . S
C849 H837 0.950 . S
C849 C845 1.393 . S
C849 C848 1.391 . S
C850 H840 0.950 . S
C850 C851 1.386 . S
C850 C852 1.391 . S
C851 C850 1.386 . S
C851 C855 1.393 . S
C852 H841 0.950 . S
C852 C850 1.391 . S
C852 C853 1.400 . S
C853 C847 1.491 . S
C853 C852 1.400 . S
C853 C854 1.398 . S
C854 H842 0.950 . S
C854 C853 1.398 . S
C854 C855 1.391 . S
C855 H843 0.950 . S
C855 C851 1.393 . S
C855 C854 1.391 . S
H856 C864 0.950 . S
H857 C869 0.950 . S
H858 C866 0.950 . S
H859 C868 0.950 . S
H860 C870 0.950 . S
H861 C872 0.950 . S
H862 C874 0.950 . S
H863 C875 0.950 . S
C864 H856 0.950 . S
C864 C865 1.386 . S
C864 C866 1.391 . S
C865 C864 1.386 . S
C865 C869 1.393 1_455 S
C866 H858 0.950 . S
C866 C864 1.391 . S
C866 C867 1.400 1_455 S
C867 C866 1.400 1_655 S
C867 C868 1.398 . S
C867 C873 1.491 . S
C868 H859 0.950 . S
C868 C867 1.398 . S
C868 C869 1.391 . S
C869 H857 0.950 . S
C869 C865 1.393 1_655 S
C869 C868 1.391 . S
C870 H860 0.950 . S
C870 C871 1.386 . S
C870 C872 1.391 . S
C871 C870 1.386 . S
C871 C875 1.393 . S
C872 H861 0.950 . S
C872 C870 1.391 . S
C872 C873 1.400 . S
C873 C867 1.491 . S
C873 C872 1.400 . S
C873 C874 1.398 . S
C874 H862 0.950 . S
C874 C873 1.398 . S
C874 C875 1.391 . S
C875 H863 0.950 . S
C875 C871 1.393 . S
C875 C874 1.391 . S
H876 C884 0.950 . S
H877 C889 0.950 . S
H878 C886 0.950 . S
H879 C888 0.950 . S
H880 C890 0.950 . S
H881 C892 0.950 . S
H882 C894 0.950 . S
H883 C895 0.950 . S
C884 H876 0.950 . S
C884 C885 1.386 . S
C884 C886 1.391 . S
C885 C884 1.386 . S
C885 C889 1.393 . S
C886 H878 0.950 . S
C886 C884 1.391 . S
C886 C887 1.400 . S
C887 C886 1.400 . S
C887 C888 1.398 . S
C887 C893 1.491 . S
C888 H879 0.950 . S
C888 C887 1.398 . S
C888 C889 1.391 . S
C889 H877 0.950 . S
C889 C885 1.393 . S
C889 C888 1.391 . S
C890 H880 0.950 . S
C890 C891 1.386 . S
C890 C892 1.391 . S
C891 C890 1.386 . S
C891 C895 1.393 . S
C892 H881 0.950 . S
C892 C890 1.391 . S
C892 C893 1.400 . S
C893 C887 1.491 . S
C893 C892 1.400 . S
C893 C894 1.398 . S
C894 H882 0.950 . S
C894 C893 1.398 . S
C894 C895 1.391 . S
C895 H883 0.950 . S
C895 C891 1.393 . S
C895 C894 1.391 . S
H896 C904 0.950 . S
H897 C909 0.950 . S
H898 C906 0.950 . S
H899 C908 0.950 . S
H900 C910 0.950 . S
H901 C912 0.950 . S
H902 C914 0.950 . S
H903 C915 0.950 . S
C904 H896 0.950 . S
C904 C905 1.386 . S
C904 C906 1.391 . S
C905 C904 1.386 . S
C905 C909 1.393 . S
C906 H898 0.950 . S
C906 C904 1.391 . S
C906 C907 1.400 . S
C907 C906 1.400 . S
C907 C908 1.398 . S
C907 C913 1.491 . S
C908 H899 0.950 . S
C908 C907 1.398 . S
C908 C909 1.391 . S
C909 H897 0.950 . S
C909 C905 1.393 . S
C909 C908 1.391 . S
C910 H900 0.950 . S
C910 C911 1.386 . S
C910 C912 1.391 . S
C911 C910 1.386 . S
C911 C915 1.393 . S
C912 H901 0.950 . S
C912 C910 1.391 . S
C912 C913 1.400 . S
C913 C907 1.491 . S
C913 C912 1.400 . S
C913 C914 1.398 . S
C914 H902 0.950 . S
C914 C913 1.398 . S
C914 C915 1.391 . S
C915 H903 0.950 . S
C915 C911 1.393 . S
C915 C914 1.391 . S
H916 C924 0.950 . S
H917 C929 0.950 . S
H918 C926 0.950 . S
H919 C928 0.950 . S
H920 C930 0.950 . S
H921 C932 0.950 . S
H922 C934 0.950 . S
H923 C935 0.950 . S
C924 H916 0.950 . S
C924 C925 1.386 . S
C924 C926 1.391 . S
C925 C924 1.386 . S
C925 C929 1.393 . S
C926 H918 0.950 . S
C926 C924 1.391 . S
C926 C927 1.400 . S
C927 C926 1.400 . S
C927 C928 1.398 . S
C927 C933 1.491 . S
C928 H919 0.950 . S
C928 C927 1.398 . S
C928 C929 1.391 . S
C929 H917 0.950 . S
C929 C925 1.393 . S
C929 C928 1.391 . S
C930 H920 0.950 . S
C930 C931 1.386 . S
C930 C932 1.391 . S
C931 C930 1.386 . S
C931 C935 1.393 . S
C932 H921 0.950 . S
C932 C930 1.391 . S
C932 C933 1.400 . S
C933 C927 1.491 . S
C933 C932 1.400 . S
C933 C934 1.398 . S
C934 H922 0.950 . S
C934 C933 1.398 . S
C934 C935 1.391 . S
C935 H923 0.950 . S
C935 C931 1.393 . S
C935 C934 1.391 . S
C465 C13 1.725 . S
C471 C137 1.637 . S
C485 C27 1.848 . S
C491 C181 1.778 . S
C511 C261 1.576 . S
C505 C29 1.654 . S
C531 C305 1.643 . S
C525 C54 1.713 . S
C551 C385 1.723 . S
C545 C69 1.833 . S
C571 C441 1.789 . S
C565 C83 1.937 . S
C585 C15 1.979 . S
C591 C237 1.756 . S
C605 C41 1.736 . S
C611 C317 1.639 . S
C631 C361 1.757 . S
C625 C42 1.925 . S
C651 C429 1.658 . S
C645 C57 1.688 . S
C665 C71 1.771 . S
C671 C113 1.606 . S
C691 C193 1.840 . S
C685 C1 1.928 . S
C711 C299 1.819 . S
C705 C12 1.920 . S
C725 C26 1.761 . S
C731 C379 1.581 . S
C751 C447 1.637 . S
C745 C28 1.679 . S
C765 C55 1.934 . S
C771 C131 1.757 . S
C785 C68 1.729 . S
C791 C175 1.608 . S
C805 C82 1.968 . S
C811 C255 1.729 . S
C825 C14 1.934 . S
C831 C423 1.773 . S
C851 C119 1.715 . S
C845 C40 1.822 . S
C865 C43 1.722 . S
C871 C199 1.662 . S
C885 C56 1.645 . S
C891 C243 1.573 . S
C905 C70 1.851 . S
C911 C323 1.791 . S
C925 C0 1.724 . S
C931 C367 1.629 . S
