# Generated by pormake.
# Topology tsx, (6,3)-cn, num edge types: 1
# Building blocks:
#     Node 0, Type 0, BuildingBlock: VOLQOD_clean_sbu_1, # of connection points: 6
#     Node 1, Type 0, BuildingBlock: VOLQOD_clean_sbu_1, # of connection points: 6
#     Node 2, Type 1, BuildingBlock: KAKCAD_clean_linker_0, # of connection points: 3
#     Node 3, Type 1, BuildingBlock: KAKCAD_clean_linker_0, # of connection points: 3
#     Node 4, Type 1, BuildingBlock: KAKCAD_clean_linker_0, # of connection points: 3
#     Node 5, Type 1, BuildingBlock: KAKCAD_clean_linker_0, # of connection points: 3
#     Edge 6, Type (0, 1), BuildingBlock: KIFKEQ_clean_linker_1, # of connection points: 2
#     Edge 7, Type (0, 1), BuildingBlock: KIFKEQ_clean_linker_1, # of connection points: 2
#     Edge 8, Type (0, 1), BuildingBlock: KIFKEQ_clean_linker_1, # of connection points: 2
#     Edge 9, Type (0, 1), BuildingBlock: KIFKEQ_clean_linker_1, # of connection points: 2
#     Edge 10, Type (0, 1), BuildingBlock: KIFKEQ_clean_linker_1, # of connection points: 2
#     Edge 11, Type (0, 1), BuildingBlock: KIFKEQ_clean_linker_1, # of connection points: 2
#     Edge 12, Type (0, 1), BuildingBlock: KIFKEQ_clean_linker_1, # of connection points: 2
#     Edge 13, Type (0, 1), BuildingBlock: KIFKEQ_clean_linker_1, # of connection points: 2
#     Edge 14, Type (0, 1), BuildingBlock: KIFKEQ_clean_linker_1, # of connection points: 2
#     Edge 15, Type (0, 1), BuildingBlock: KIFKEQ_clean_linker_1, # of connection points: 2
#     Edge 16, Type (0, 1), BuildingBlock: KIFKEQ_clean_linker_1, # of connection points: 2
#     Edge 17, Type (0, 1), BuildingBlock: KIFKEQ_clean_linker_1, # of connection points: 2
# Relax obj value: 0.075
# Max RMSD: 0.108
# Mean RMSD: 0.083
data_MOF--net-tsx--node1-VOLQOD_clean_sbu_1--node2-KAKCAD_clean_linker_0--edge1-KIFKEQ_clean_linker_1
_symmetry_space_group_name_H-M    P1
_symmetry_Int_Tables_number       1
_symmetry_cell_setting            triclinic
loop_
_symmetry_equiv_pos_as_xyz
'x, y, z'
_cell_length_a     25.388264
_cell_length_b     26.271116
_cell_length_c     50.173264
_cell_angle_alpha  90.633092
_cell_angle_beta   89.988032
_cell_angle_gamma 90.176794
loop_
_atom_site_label
_atom_site_type_symbol
_atom_site_fract_x
_atom_site_fract_y
_atom_site_fract_z
_atom_type_partial_charge
O0 O 0.04267 0.98905 0.07426 0.0
Zn1 Zn 0.06517 0.99107 0.0358 0.0
O2 O 0.00543 0.00426 0.01244 0.0
Zn3 Zn 0.99297 0.94543 0.98915 0.0
Zn4 Zn 0.94316 0.01719 0.03433 0.0
Zn5 Zn 0.02036 0.06342 0.99051 0.0
O6 O 0.9942 0.96498 0.95038 0.0
O7 O 0.02549 0.04406 0.95158 0.0
O8 O 0.10007 0.92466 0.0265 0.0
O9 O 0.04964 0.89298 0.99417 0.0
O10 O 0.92388 0.91161 0.99751 0.0
O11 O 0.89016 0.96071 0.02945 0.0
O12 O 0.90786 0.08255 0.02413 0.0
O13 O 0.11942 0.04685 0.03288 0.0
O14 O 0.96162 0.11448 0.99363 0.0
O15 O 0.0878 0.0978 0.00175 0.0
C16 C 0.00128 0.00413 0.08628 0.0
C17 C 0.01087 0.00458 0.93856 0.0
C18 C 0.88747 0.92174 0.01418 0.0
C19 C 0.08931 0.88967 0.00958 0.0
C20 C 0.91976 0.11714 0.00758 0.0
C21 C 0.1231 0.08668 0.01873 0.0
O22 O 0.96114 0.01953 0.07348 0.0
O23 O 0.53819 0.48542 0.57469 0.0
Zn24 Zn 0.56075 0.48773 0.53624 0.0
O25 O 0.50155 0.50251 0.51286 0.0
Zn26 Zn 0.48864 0.44423 0.48924 0.0
Zn27 Zn 0.43933 0.51523 0.53471 0.0
Zn28 Zn 0.51728 0.56258 0.49152 0.0
O29 O 0.48984 0.46524 0.45076 0.0
O30 O 0.52213 0.54399 0.4524 0.0
O31 O 0.59508 0.42129 0.52649 0.0
O32 O 0.54516 0.39118 0.49359 0.0
O33 O 0.41923 0.41055 0.49736 0.0
O34 O 0.38577 0.45931 0.52951 0.0
O35 O 0.40493 0.58109 0.52498 0.0
O36 O 0.61572 0.54266 0.5337 0.0
O37 O 0.45895 0.61447 0.49504 0.0
O38 O 0.58542 0.59582 0.50325 0.0
C39 C 0.49697 0.50108 0.58666 0.0
C40 C 0.50689 0.50494 0.43918 0.0
C41 C 0.38281 0.42063 0.51405 0.0
C42 C 0.58456 0.38707 0.50912 0.0
C43 C 0.41701 0.61654 0.50898 0.0
C44 C 0.62038 0.58311 0.52012 0.0
O45 O 0.45715 0.51704 0.57382 0.0
C46 C 0.00453 0.9505 0.30084 0.0
C47 C 0.99175 0.99531 0.28716 0.0
C48 C 0.00359 0.94928 0.32867 0.0
C49 C 0.99095 0.99311 0.34369 0.0
C50 C 0.97858 0.038 0.33002 0.0
C51 C 0.97837 0.03891 0.3022 0.0
C52 C 0.99098 0.9922 0.37343 0.0
C53 C 0.02723 0.96207 0.38734 0.0
C54 C 0.0277 0.96137 0.41534 0.0
C55 C 0.9921 0.99202 0.42963 0.0
C56 C 0.95604 0.02278 0.41612 0.0
C57 C 0.9552 0.02207 0.38814 0.0
C58 C 0.91989 0.05686 0.43102 0.0
C59 C 0.88986 0.03882 0.45249 0.0
C60 C 0.91468 0.10784 0.42337 0.0
C61 C 0.87975 0.14007 0.43669 0.0
C62 C 0.84896 0.12198 0.45786 0.0
C63 C 0.06584 0.92872 0.42947 0.0
C64 C 0.07313 0.87798 0.42122 0.0
C65 C 0.09599 0.94814 0.45079 0.0
C66 C 0.13349 0.9176 0.46326 0.0
C67 C 0.14099 0.86694 0.45483 0.0
C68 C 0.11017 0.84739 0.4338 0.0
C69 C 0.85435 0.07105 0.46569 0.0
H70 H 0.01589 0.91628 0.29012 0.0
H71 H 0.01253 0.9137 0.33835 0.0
H72 H 0.96952 0.07287 0.34074 0.0
H73 H 0.96734 0.07395 0.29255 0.0
H74 H 0.05625 0.93998 0.37645 0.0
H75 H 0.92596 0.04452 0.37788 0.0
H76 H 0.99268 0.99217 0.45123 0.0
H77 H 0.89303 -0.00042 0.45868 0.0
H78 H 0.93771 0.12283 0.40704 0.0
H79 H 0.87599 0.17897 0.43002 0.0
H80 H 0.05013 0.86194 0.40497 0.0
H81 H 0.09136 0.98725 0.45743 0.0
H82 H 0.8312 0.05622 0.48201 0.0
H83 H 0.11546 0.80866 0.42669 0.0
H84 H 0.15653 0.93352 0.47951 0.0
C85 C 4e-05 0.04693 0.72351 0.0
C86 C 0.02082 0.00606 0.73789 0.0
C87 C -3e-05 0.04572 0.69565 0.0
C88 C 0.01962 0.00315 0.68176 0.0
C89 C 0.04034 0.96225 0.69614 0.0
C90 C 0.04146 0.96394 0.72399 0.0
C91 C 0.0175 0.00099 0.65232 0.0
C92 C 0.03963 0.04019 0.63721 0.0
C93 C 0.03745 0.03858 0.6092 0.0
C94 C 0.01176 -0.00248 0.59647 0.0
C95 C 0.98912 0.95812 0.61139 0.0
C96 C 0.99269 0.95996 0.63933 0.0
C97 C 0.96017 0.91586 0.59799 0.0
C98 C 0.92458 0.92585 0.57725 0.0
C99 C 0.96607 0.86554 0.60668 0.0
C100 C 0.93575 0.82633 0.59551 0.0
C101 C 0.89878 0.83658 0.57543 0.0
C102 C 0.06329 0.07908 0.59336 0.0
C103 C 0.0605 0.13031 0.6016 0.0
C104 C 0.09283 0.06656 0.57052 0.0
C105 C 0.1204 0.10418 0.55678 0.0
C106 C 0.11916 0.15515 0.5656 0.0
C107 C 0.08816 0.16789 0.5879 0.0
C108 C 0.89419 0.88663 0.56609 0.0
H109 H 0.98409 0.07986 0.73385 0.0
H110 H 0.98359 0.07757 0.68494 0.0
H111 H 0.05585 0.92912 0.68579 0.0
H112 H 0.05744 0.9319 0.73469 0.0
H113 H 0.05988 0.07121 0.64734 0.0
H114 H 0.97454 0.93032 0.65111 0.0
H115 H 0.00934 -0.0038 0.57491 0.0
H116 H 0.91874 0.96433 0.57032 0.0
H117 H 0.99386 0.85652 0.6223 0.0
H118 H 0.9409 0.78801 0.60279 0.0
H119 H 0.03746 0.14133 0.61888 0.0
H120 H 0.0961 0.02742 0.56373 0.0
H121 H 0.86564 0.89592 0.55088 0.0
H122 H 0.08669 0.20668 0.5954 0.0
H123 H 0.14337 0.09318 0.53947 0.0
C124 C 0.49538 0.44719 0.80076 0.0
C125 C 0.48428 0.49276 0.78767 0.0
C126 C 0.49399 0.44518 0.82856 0.0
C127 C 0.4827 0.48907 0.84387 0.0
C128 C 0.47173 0.53476 0.83053 0.0
C129 C 0.47195 0.53639 0.8027 0.0
C130 C 0.48307 0.48732 0.87358 0.0
C131 C 0.51883 0.45595 0.88701 0.0
C132 C 0.5196 0.45391 0.91499 0.0
C133 C 0.48492 0.48479 0.92973 0.0
C134 C 0.4497 0.51719 0.91669 0.0
C135 C 0.44839 0.51758 0.88871 0.0
C136 C 0.41527 0.55208 0.93211 0.0
C137 C 0.38558 0.5346 0.95383 0.0
C138 C 0.41165 0.60339 0.92484 0.0
C139 C 0.37847 0.63648 0.93871 0.0
C140 C 0.34795 0.61897 0.96012 0.0
C141 C 0.55781 0.42031 0.92854 0.0
C142 C 0.56722 0.37103 0.91851 0.0
C143 C 0.5868 0.4378 0.95072 0.0
C144 C 0.62577 0.40726 0.96198 0.0
C145 C 0.63653 0.3588 0.9512 0.0
C146 C 0.60616 0.34067 0.92968 0.0
C147 C 0.35188 0.56772 0.96762 0.0
H148 H 0.50451 0.41297 0.78945 0.0
H149 H 0.50146 0.40903 0.83797 0.0
H150 H 0.46392 0.56962 0.84151 0.0
H151 H 0.46367 0.57204 0.7929 0.0
H152 H 0.54736 0.43401 0.87572 0.0
H153 H 0.41976 0.54127 0.87878 0.0
H154 H 0.48573 0.4841 0.95132 0.0
H155 H 0.38759 0.49514 0.95977 0.0
H156 H 0.43454 0.61798 0.90836 0.0
H157 H 0.37577 0.6756 0.93225 0.0
H158 H 0.54477 0.35608 0.9018 0.0
H159 H 0.58071 0.47575 0.95877 0.0
H160 H 0.32891 0.55332 0.98411 0.0
H161 H 0.61283 0.30304 0.92132 0.0
H162 H 0.64878 0.4223 0.97847 0.0
C163 C 0.50047 0.5463 0.22407 0.0
C164 C 0.51894 0.50461 0.23859 0.0
C165 C 0.50142 0.54516 0.19622 0.0
C166 C 0.51978 0.50188 0.18248 0.0
C167 C 0.53793 0.46005 0.19699 0.0
C168 C 0.53805 0.46162 0.22485 0.0
C169 C 0.51954 0.50027 0.15302 0.0
C170 C 0.54443 0.53883 0.13855 0.0
C171 C 0.54406 0.53789 0.11054 0.0
C172 C 0.51767 0.49813 0.09712 0.0
C173 C 0.49197 0.45953 0.11135 0.0
C174 C 0.49367 0.46063 0.13936 0.0
C175 C 0.46155 0.41928 0.09706 0.0
C176 C 0.42973 0.43165 0.07515 0.0
C177 C 0.46247 0.36864 0.10581 0.0
C178 C 0.43107 0.33156 0.09344 0.0
C179 C 0.39812 0.34427 0.07202 0.0
C180 C 0.57168 0.57816 0.09536 0.0
C181 C 0.56897 0.62933 0.10369 0.0
C182 C 0.60198 0.56558 0.07278 0.0
C183 C 0.62994 0.60317 0.05924 0.0
C184 C 0.62831 0.65415 0.068 0.0
C185 C 0.597 0.66689 0.09019 0.0
C186 C 0.39847 0.39456 0.06274 0.0
H187 H 0.48572 0.57989 0.23429 0.0
H188 H 0.48703 0.57775 0.18539 0.0
H189 H 0.55242 0.42636 0.18676 0.0
H190 H 0.55223 0.42896 0.23568 0.0
H191 H 0.5652 0.5689 0.14919 0.0
H192 H 0.4732 0.43171 0.15065 0.0
H193 H 0.5168 0.49742 0.07553 0.0
H194 H 0.42771 0.47037 0.06804 0.0
H195 H 0.48708 0.35774 0.12241 0.0
H196 H 0.4314 0.29329 0.10124 0.0
H197 H 0.54539 0.64035 0.12079 0.0
H198 H 0.60519 0.52646 0.06595 0.0
H199 H 0.37405 0.40545 0.04606 0.0
H200 H 0.59531 0.70569 0.09764 0.0
H201 H 0.65326 0.5922 0.04205 0.0
H202 H 0.14223 0.17723 0.99398 0.0
H203 H 0.20571 0.07614 0.05327 0.0
H204 H 0.21243 0.2382 0.00352 0.0
H205 H 0.27527 0.13754 0.06304 0.0
H206 H 0.41699 0.24345 0.06088 0.0
H207 H 0.35406 0.1795 0.04493 0.0
H208 H 0.23325 0.29464 0.04125 0.0
H209 H 0.29572 0.35824 0.05729 0.0
C210 C 0.17128 0.16781 0.00892 0.0
C211 C 0.16803 0.12193 0.02301 0.0
C212 C 0.21138 0.20288 0.01445 0.0
C213 C 0.24918 0.19283 0.03414 0.0
C214 C 0.24704 0.1462 0.04757 0.0
C215 C 0.2069 0.11116 0.04208 0.0
C216 C 0.377 0.25505 0.05664 0.0
C217 C 0.36136 0.30593 0.06041 0.0
C218 C 0.34101 0.21847 0.04748 0.0
C219 C 0.2887 0.23202 0.04186 0.0
C220 C 0.27348 0.28311 0.04498 0.0
C221 C 0.30935 0.31961 0.05418 0.0
H222 H 0.07764 0.80638 0.97691 0.0
H223 H 0.18124 0.87218 0.0365 0.0
H224 H 0.13955 0.73702 0.9699 0.0
H225 H 0.2428 0.80217 0.02968 0.0
H226 H 0.36622 0.71654 0.97681 0.0
H227 H 0.30181 0.77817 0.99291 0.0
H228 H 0.18088 0.66213 0.9902 0.0
H229 H 0.24529 0.60068 0.97338 0.0
C230 C 0.11328 0.80577 0.98876 0.0
C231 C 0.12471 0.8452 0.00706 0.0
C232 C 0.14857 0.76572 0.9849 0.0
C233 C 0.19613 0.76423 -0.00081 0.0
C234 C 0.20672 0.80263 0.01817 0.0
C235 C 0.17135 0.84265 0.0221 0.0
C236 C 0.32597 0.70412 0.97989 0.0
C237 C 0.31061 0.65402 0.97357 0.0
C238 C 0.28918 0.73926 0.98936 0.0
C239 C 0.23618 0.72506 0.99265 0.0
C240 C 0.22133 0.67428 0.98756 0.0
C241 C 0.25826 0.63902 0.97818 0.0
H242 H 0.87113 0.83168 0.98739 0.0
H243 H 0.80333 0.92969 0.04803 0.0
H244 H 0.80346 0.76796 0.99602 0.0
H245 H 0.73639 0.86562 0.05689 0.0
H246 H 0.60206 0.75264 0.05639 0.0
H247 H 0.65977 0.81919 0.03916 0.0
H248 H 0.78714 0.71095 0.03345 0.0
H249 H 0.72984 0.64476 0.05074 0.0
C250 C 0.84155 0.83991 0.00236 0.0
C251 C 0.84304 0.88561 0.01722 0.0
C252 C 0.80292 0.80327 0.00738 0.0
C253 C 0.76488 0.81157 0.02729 0.0
C254 C 0.76486 0.85824 0.04125 0.0
C255 C 0.80351 0.89485 0.03628 0.0
C256 C 0.64235 0.74308 0.05135 0.0
C257 C 0.66144 0.69348 0.05507 0.0
C258 C 0.67533 0.78115 0.04146 0.0
C259 C 0.72803 0.77036 0.03502 0.0
C260 C 0.74652 0.72034 0.03783 0.0
C261 C 0.71363 0.68236 0.04776 0.0
H262 H 0.82376 0.13281 0.03121 0.0
H263 H 0.9308 0.19686 0.9734 0.0
H264 H 0.75785 0.196 0.01949 0.0
H265 H 0.86513 0.26038 0.96208 0.0
H266 H 0.70999 0.30752 0.92215 0.0
H267 H 0.781 0.25417 0.93831 0.0
H268 H 0.7354 0.28798 0.01955 0.0
H269 H 0.66304 0.3407 0.00324 0.0
C270 C 0.8336 0.16081 0.01633 0.0
C271 C 0.88235 0.1593 0.003 0.0
C272 C 0.79589 0.19721 0.00972 0.0
C273 C 0.80613 0.23278 0.98966 0.0
C274 C 0.8558 0.23285 0.97729 0.0
C275 C 0.89349 0.19655 0.98389 0.0
C276 C 0.71494 0.3034 0.94347 0.0
C277 C 0.6807 0.32789 0.96144 0.0
C278 C 0.75605 0.27339 0.95273 0.0
C279 C 0.76394 0.26707 0.98021 0.0
C280 C 0.73008 0.29198 0.99826 0.0
C281 C 0.68896 0.32236 0.98895 0.0
H282 H 0.63846 0.67824 0.50007 0.0
H283 H 0.70599 0.56488 0.55159 0.0
H284 H 0.70968 0.73681 0.51172 0.0
H285 H 0.77766 0.62299 0.56271 0.0
H286 H 0.8485 0.76395 0.60444 0.0
H287 H 0.78563 0.70036 0.5889 0.0
H288 H 0.804 0.75369 0.50825 0.0
H289 H 0.86719 0.81773 0.52391 0.0
C290 C 0.66884 0.66552 0.51357 0.0
C291 C 0.66614 0.61704 0.52511 0.0
C292 C 0.70986 0.69902 0.52014 0.0
C293 C 0.74912 0.68472 0.53832 0.0
C294 C 0.74749 0.63553 0.54903 0.0
C295 C 0.70647 0.60213 0.54254 0.0
C296 C 0.83992 0.76158 0.58332 0.0
C297 C 0.86295 0.79587 0.56541 0.0
C298 C 0.80382 0.72507 0.57439 0.0
C299 C 0.78983 0.72186 0.54731 0.0
C300 C 0.81347 0.7556 0.52929 0.0
C301 C 0.84965 0.79223 0.53825 0.0
H302 H 0.57405 0.3053 0.4752 0.0
H303 H 0.67616 0.36878 0.5361 0.0
H304 H 0.63705 0.23707 0.46725 0.0
H305 H 0.73875 0.30006 0.5283 0.0
H306 H 0.74609 0.10155 0.46993 0.0
H307 H 0.67987 0.16138 0.48669 0.0
H308 H 0.79829 0.27965 0.491 0.0
H309 H 0.86437 0.21975 0.47483 0.0
C310 C 0.60956 0.30439 0.48714 0.0
C311 C 0.62028 0.34289 0.50608 0.0
C312 C 0.64549 0.26502 0.48271 0.0
C313 C 0.69297 0.26336 0.49706 0.0
C314 C 0.70277 0.30071 0.51671 0.0
C315 C 0.66678 0.33999 0.52122 0.0
C316 C 0.75806 0.14007 0.475 0.0
C317 C 0.81023 0.15617 0.47091 0.0
C318 C 0.72012 0.17438 0.48436 0.0
C319 C 0.73382 0.22527 0.49001 0.0
C320 C 0.78655 0.24062 0.48705 0.0
C321 C 0.8243 0.20647 0.47755 0.0
H322 H 0.36548 0.33136 0.48665 0.0
H323 H 0.29855 0.42869 0.54783 0.0
H324 H 0.29674 0.26837 0.49464 0.0
H325 H 0.23055 0.36533 0.55606 0.0
H326 H 0.09448 0.25439 0.55459 0.0
H327 H 0.15337 0.32054 0.53795 0.0
H328 H 0.27887 0.21044 0.53139 0.0
H329 H 0.22043 0.14468 0.5481 0.0
C330 C 0.33589 0.3396 0.50162 0.0
C331 C 0.33791 0.3849 0.51679 0.0
C332 C 0.29662 0.30337 0.50626 0.0
C333 C 0.25847 0.31167 0.52613 0.0
C334 C 0.25906 0.35796 0.54044 0.0
C335 C 0.29833 0.39415 0.53583 0.0
C336 C 0.13459 0.24432 0.54948 0.0
C337 C 0.15281 0.19429 0.55281 0.0
C338 C 0.16827 0.28218 0.53992 0.0
C339 C 0.22082 0.27077 0.53343 0.0
C340 C 0.2384 0.22036 0.53581 0.0
C341 C 0.20483 0.18259 0.5454 0.0
H342 H 0.32318 0.63242 0.53449 0.0
H343 H 0.4262 0.69728 0.47511 0.0
H344 H 0.25775 0.69744 0.52526 0.0
H345 H 0.36025 0.76188 0.46569 0.0
H346 H 0.2429 0.89226 0.46684 0.0
H347 H 0.31179 0.83635 0.48385 0.0
H348 H 0.19973 0.71246 0.48702 0.0
H349 H 0.13093 0.76847 0.47064 0.0
C350 C 0.33214 0.66076 0.51963 0.0
C351 C 0.37979 0.65924 0.50533 0.0
C352 C 0.2945 0.69791 0.51429 0.0
C353 C 0.30363 0.73447 0.49459 0.0
C354 C 0.35221 0.73444 0.48114 0.0
C355 C 0.38989 0.6972 0.48644 0.0
C356 C 0.2329 0.85332 0.47164 0.0
C357 C 0.18166 0.83459 0.46729 0.0
C358 C 0.27239 0.82124 0.48114 0.0
C359 C 0.26122 0.76999 0.48668 0.0
C360 C 0.2095 0.75187 0.48319 0.0
C361 C 0.17021 0.78378 0.47355 0.0
H362 H 0.05715 0.94268 0.11927 0.0
H363 H 0.94158 0.06312 0.11965 0.0
H364 H 0.05361 0.94015 0.16802 0.0
H365 H 0.93936 0.06134 0.16847 0.0
H366 H 0.01888 0.07538 0.25491 0.0
H367 H 0.0188 0.07777 0.20637 0.0
H368 H 0.97038 0.92044 0.20302 0.0
H369 H 0.96673 0.91835 0.25157 0.0
C370 C 0.03127 0.96877 0.12977 0.0
C371 C -0.00038 0.00311 0.11569 0.0
C372 C 0.02912 0.96711 0.15757 0.0
C373 C -0.00376 0.00056 0.17178 0.0
C374 C 0.96507 0.03531 0.15783 0.0
C375 C 0.96626 0.03616 0.12998 0.0
C376 C 0.00707 0.04146 0.24401 0.0
C377 C 0.99263 -0.00333 0.25743 0.0
C378 C 0.00748 0.04288 0.21618 0.0
C379 C 0.99468 -0.00071 0.20116 0.0
C380 C 0.98079 0.9544 0.21431 0.0
C381 C 0.97917 0.95323 0.24214 0.0
H382 H 0.95354 0.94613 0.90376 0.0
H383 H 0.07289 0.06371 0.90684 0.0
H384 H 0.95612 0.94754 0.85501 0.0
H385 H 0.07612 0.06409 0.85806 0.0
H386 H 0.10354 0.99298 0.77171 0.0
H387 H 0.10169 0.99343 0.82064 0.0
H388 H 0.93405 0.01999 0.81908 0.0
H389 H 0.93611 0.02067 0.77022 0.0
C390 C 0.98049 0.97204 0.89404 0.0
C391 C 0.01297 0.00486 0.90911 0.0
C392 C 0.98175 0.97296 0.8662 0.0
C393 C 0.01631 0.00591 0.85293 0.0
C394 C 0.04931 0.03823 0.86791 0.0
C395 C 0.04725 0.03812 0.89576 0.0
C396 C 0.06643 -0.00097 0.78191 0.0
C397 C 0.01998 0.00687 0.76735 0.0
C398 C 0.06541 -0.00051 0.80978 0.0
C399 C 0.01771 0.00665 0.82348 0.0
C400 C 0.97123 0.01417 0.80891 0.0
C401 C 0.97244 0.01482 0.78107 0.0
H402 H 0.43896 0.56195 0.61975 0.0
H403 H 0.551 0.4387 0.61986 0.0
H404 H 0.43712 0.56184 0.66824 0.0
H405 H 0.54681 0.43604 0.66823 0.0
H406 H 0.56783 0.47212 0.75568 0.0
H407 H 0.57189 0.47633 0.70722 0.0
H408 H 0.40739 0.5192 0.70534 0.0
H409 H 0.40507 0.51813 0.75395 0.0
C410 C 0.46274 0.53442 0.6302 0.0
C411 C 0.49524 0.50045 0.61607 0.0
C412 C 0.46145 0.53404 0.65804 0.0
C413 C 0.49175 0.49886 0.6724 0.0
C414 C 0.52381 0.4645 0.65807 0.0
C415 C 0.52598 0.4657 0.63027 0.0
C416 C 0.53277 0.48257 0.74474 0.0
C417 C 0.48619 0.49484 0.75832 0.0
C418 C 0.53481 0.48463 0.71696 0.0
C419 C 0.48988 0.49786 0.70211 0.0
C420 C 0.44313 0.50984 0.71594 0.0
C421 C 0.44152 0.50888 0.74378 0.0
H422 H 0.57042 0.56289 0.40757 0.0
H423 H 0.44784 0.44849 0.40431 0.0
H424 H 0.57405 0.56306 0.35877 0.0
H425 H 0.45081 0.44972 0.35558 0.0
H426 H 0.4343 0.52264 0.27051 0.0
H427 H 0.43152 0.52297 0.31938 0.0
H428 H 0.59795 0.49037 0.32169 0.0
H429 H 0.60049 0.48889 0.27277 0.0
C430 C 0.54412 0.53803 0.39645 0.0
C431 C 0.50887 0.50564 0.40974 0.0
C432 C 0.5464 0.538 0.3686 0.0
C433 C 0.51266 0.50645 0.35358 0.0
C434 C 0.47703 0.47452 0.3668 0.0
C435 C 0.47554 0.4737 0.39463 0.0
C436 C 0.47021 0.51565 0.28153 0.0
C437 C 0.51759 0.5057 0.26804 0.0
C438 C 0.46858 0.51562 0.30937 0.0
C439 C 0.51454 0.50674 0.32414 0.0
C440 C 0.5621 0.49754 0.31066 0.0
C441 C 0.5635 0.49646 0.2828 0.0
loop_
_geom_bond_atom_site_label_1
_geom_bond_atom_site_label_2
_geom_bond_distance
_geom_bond_site_symmetry_2
_ccdc_geom_bond_type
O0 Zn1 1.953 . S
O0 C16 1.225 1_565 S
Zn1 O0 1.953 . S
Zn1 O2 1.949 1_565 S
Zn1 O8 1.919 . S
Zn1 O13 1.924 1_565 S
O2 Zn1 1.949 1_545 S
O2 Zn3 1.923 1_444 S
O2 Zn4 1.950 1_455 S
O2 Zn5 1.945 1_554 S
Zn3 O2 1.923 1_666 S
Zn3 O6 1.933 . S
Zn3 O9 1.941 1_655 S
Zn3 O10 1.956 1_556 S
Zn4 O2 1.950 1_655 S
Zn4 O11 1.938 1_545 S
Zn4 O12 1.906 . S
Zn4 O22 1.953 . S
Zn5 O2 1.945 1_556 S
Zn5 O7 1.932 . S
Zn5 O14 1.977 1_455 S
Zn5 O15 1.910 1_556 S
O6 Zn3 1.933 . S
O6 C17 1.226 1_665 S
O7 Zn5 1.932 . S
O7 C17 1.307 . S
O8 Zn1 1.919 . S
O8 C19 1.253 . S
O9 Zn3 1.941 1_455 S
O9 C19 1.283 1_556 S
O10 Zn3 1.956 1_554 S
O10 C18 1.336 . S
O11 Zn4 1.938 1_565 S
O11 C18 1.247 . S
O12 Zn4 1.906 . S
O12 C20 1.304 . S
O13 Zn1 1.924 1_545 S
O13 C21 1.311 . S
O14 Zn5 1.977 1_655 S
O14 C20 1.272 1_556 S
O15 Zn5 1.910 1_554 S
O15 C21 1.231 . S
C16 O0 1.225 1_545 S
C16 O22 1.298 1_455 S
C17 O6 1.226 1_445 S
C17 O7 1.307 . S
C18 O10 1.336 . S
C18 O11 1.247 . S
C19 O8 1.253 . S
C19 O9 1.283 1_554 S
C20 O12 1.304 . S
C20 O14 1.272 1_554 S
C21 O13 1.311 . S
C21 O15 1.231 . S
O22 Zn4 1.953 . S
O22 C16 1.298 1_655 S
O23 Zn24 1.953 . S
O23 C39 1.225 . S
Zn24 O23 1.953 . S
Zn24 O25 1.949 . S
Zn24 O31 1.919 . S
Zn24 O36 1.924 . S
O25 Zn24 1.949 . S
O25 Zn26 1.923 . S
O25 Zn27 1.950 . S
O25 Zn28 1.945 . S
Zn26 O25 1.923 . S
Zn26 O29 1.933 . S
Zn26 O32 1.941 . S
Zn26 O33 1.965 . S
Zn27 O25 1.950 . S
Zn27 O34 1.938 . S
Zn27 O35 1.906 . S
Zn27 O45 1.953 . S
Zn28 O25 1.945 . S
Zn28 O30 1.932 . S
Zn28 O37 1.977 . S
Zn28 O38 1.910 . S
O29 Zn26 1.933 . S
O29 C40 1.226 . S
O30 Zn28 1.932 . S
O30 C40 1.307 . S
O31 Zn24 1.919 . S
O31 C42 1.253 . S
O32 Zn26 1.941 . S
O32 C42 1.283 . S
O33 Zn26 1.965 . S
O33 C41 1.303 . S
O34 Zn27 1.938 . S
O34 C41 1.247 . S
O35 Zn27 1.906 . S
O35 C43 1.304 . S
O36 Zn24 1.924 . S
O36 C44 1.311 . S
O37 Zn28 1.977 . S
O37 C43 1.272 . S
O38 Zn28 1.910 . S
O38 C44 1.231 . S
C39 O23 1.225 . S
C39 O45 1.298 . S
C40 O29 1.226 . S
C40 O30 1.307 . S
C41 O33 1.303 . S
C41 O34 1.247 . S
C42 O31 1.253 . S
C42 O32 1.283 . S
C43 O35 1.304 . S
C43 O37 1.272 . S
C44 O36 1.311 . S
C44 O38 1.231 . S
O45 Zn27 1.953 . S
O45 C39 1.298 . S
C46 C47 1.391 1_455 S
C46 C48 1.397 . S
C46 H70 0.931 . S
C47 C46 1.391 1_655 S
C47 C51 1.392 1_665 S
C48 C46 1.397 . S
C48 C49 1.384 . S
C48 H71 0.930 . S
C49 C48 1.384 . S
C49 C50 1.377 1_565 S
C49 C52 1.481 . S
C50 C49 1.377 1_545 S
C50 C51 1.389 . S
C50 H72 0.929 . S
C51 C47 1.392 1_445 S
C51 C50 1.389 . S
C51 H73 0.931 . S
C52 C49 1.481 . S
C52 C53 1.394 . S
C52 C57 1.383 1_465 S
C53 C52 1.394 . S
C53 C54 1.401 . S
C53 H74 0.930 . S
C54 C53 1.401 . S
C54 C55 1.366 1_455 S
C54 C63 1.511 . S
C55 C54 1.366 1_655 S
C55 C56 1.402 1_565 S
C55 H76 0.932 . S
C56 C55 1.402 1_545 S
C56 C57 1.361 . S
C56 C58 1.500 . S
C57 C52 1.383 1_645 S
C57 C56 1.361 . S
C57 H75 0.931 . S
C58 C56 1.500 . S
C58 C59 1.371 . S
C58 C60 1.365 . S
C59 C58 1.371 . S
C59 C69 1.386 . S
C59 H77 0.931 . S
C60 C58 1.365 . S
C60 C61 1.409 . S
C60 H78 0.929 . S
C61 C60 1.409 . S
C61 C62 1.380 . S
C61 H79 0.930 . S
C62 C61 1.380 . S
C62 C69 1.357 . S
C63 C54 1.511 . S
C63 C64 1.341 . S
C63 C65 1.371 . S
C64 C63 1.341 . S
C64 C68 1.394 . S
C64 H80 0.930 . S
C65 C63 1.371 . S
C65 C66 1.392 . S
C65 H81 0.931 . S
C66 C65 1.392 . S
C66 C67 1.331 . S
C66 H84 0.932 . S
C67 C66 1.331 . S
C67 C68 1.336 . S
C68 C64 1.394 . S
C68 C67 1.336 . S
C68 H83 0.929 . S
C69 C59 1.386 . S
C69 C62 1.357 . S
C69 H82 0.928 . S
H70 C46 0.931 . S
H71 C48 0.930 . S
H72 C50 0.929 . S
H73 C51 0.931 . S
H74 C53 0.930 . S
H75 C57 0.931 . S
H76 C55 0.932 . S
H77 C59 0.931 . S
H78 C60 0.929 . S
H79 C61 0.930 . S
H80 C64 0.930 . S
H81 C65 0.931 . S
H82 C69 0.928 . S
H83 C68 0.929 . S
H84 C66 0.932 . S
C85 C86 1.386 . S
C85 C87 1.397 . S
C85 H109 0.931 . S
C86 C85 1.386 . S
C86 C90 1.397 1_545 S
C87 C85 1.397 . S
C87 C88 1.384 . S
C87 H110 0.930 . S
C88 C87 1.384 . S
C88 C89 1.377 1_545 S
C88 C91 1.481 . S
C89 C88 1.377 1_565 S
C89 C90 1.389 . S
C89 H111 0.929 . S
C90 C86 1.397 1_565 S
C90 C89 1.389 . S
C90 H112 0.931 . S
C91 C88 1.481 . S
C91 C92 1.387 . S
C91 C96 1.390 1_445 S
C92 C91 1.387 . S
C92 C93 1.401 . S
C92 H113 0.930 . S
C93 C92 1.401 . S
C93 C94 1.376 . S
C93 C102 1.511 . S
C94 C93 1.376 . S
C94 C95 1.392 1_445 S
C94 H115 0.931 . S
C95 C94 1.392 1_665 S
C95 C96 1.361 . S
C95 C97 1.500 . S
C96 C91 1.390 1_665 S
C96 C95 1.361 . S
C96 H114 0.931 . S
C97 C95 1.500 . S
C97 C98 1.371 . S
C97 C99 1.365 . S
C98 C97 1.371 . S
C98 C108 1.386 . S
C98 H116 0.931 . S
C99 C97 1.365 . S
C99 C100 1.409 . S
C99 H117 0.929 . S
C100 C99 1.409 . S
C100 C101 1.380 . S
C100 H118 0.930 . S
C101 C100 1.380 . S
C101 C108 1.357 . S
C102 C93 1.511 . S
C102 C103 1.341 . S
C102 C104 1.371 . S
C103 C102 1.341 . S
C103 C107 1.394 . S
C103 H119 0.930 . S
C104 C102 1.371 . S
C104 C105 1.392 . S
C104 H120 0.931 . S
C105 C104 1.392 . S
C105 C106 1.331 . S
C105 H123 0.932 . S
C106 C105 1.331 . S
C106 C107 1.336 . S
C107 C103 1.394 . S
C107 C106 1.336 . S
C107 H122 0.929 . S
C108 C98 1.386 . S
C108 C101 1.357 . S
C108 H121 0.928 . S
H109 C85 0.931 . S
H110 C87 0.930 . S
H111 C89 0.929 . S
H112 C90 0.931 . S
H113 C92 0.930 . S
H114 C96 0.931 . S
H115 C94 0.931 . S
H116 C98 0.931 . S
H117 C99 0.929 . S
H118 C100 0.930 . S
H119 C103 0.930 . S
H120 C104 0.931 . S
H121 C108 0.928 . S
H122 C107 0.929 . S
H123 C105 0.932 . S
C124 C125 1.386 . S
C124 C126 1.397 . S
C124 H148 0.931 . S
C125 C124 1.386 . S
C125 C129 1.397 . S
C126 C124 1.397 . S
C126 C127 1.384 . S
C126 H149 0.930 . S
C127 C126 1.384 . S
C127 C128 1.377 . S
C127 C130 1.481 . S
C128 C127 1.377 . S
C128 C129 1.389 . S
C128 H150 0.929 . S
C129 C125 1.397 . S
C129 C128 1.389 . S
C129 H151 0.931 . S
C130 C127 1.481 . S
C130 C131 1.387 . S
C130 C135 1.390 . S
C131 C130 1.387 . S
C131 C132 1.401 . S
C131 H152 0.930 . S
C132 C131 1.401 . S
C132 C133 1.376 . S
C132 C141 1.511 . S
C133 C132 1.376 . S
C133 C134 1.392 . S
C133 H154 0.931 . S
C134 C133 1.392 . S
C134 C135 1.361 . S
C134 C136 1.500 . S
C135 C130 1.390 . S
C135 C134 1.361 . S
C135 H153 0.931 . S
C136 C134 1.500 . S
C136 C137 1.371 . S
C136 C138 1.365 . S
C137 C136 1.371 . S
C137 C147 1.386 . S
C137 H155 0.931 . S
C138 C136 1.365 . S
C138 C139 1.409 . S
C138 H156 0.929 . S
C139 C138 1.409 . S
C139 C140 1.380 . S
C139 H157 0.930 . S
C140 C139 1.380 . S
C140 C147 1.357 . S
C141 C132 1.511 . S
C141 C142 1.341 . S
C141 C143 1.371 . S
C142 C141 1.341 . S
C142 C146 1.394 . S
C142 H158 0.930 . S
C143 C141 1.371 . S
C143 C144 1.392 . S
C143 H159 0.931 . S
C144 C143 1.392 . S
C144 C145 1.331 . S
C144 H162 0.932 . S
C145 C144 1.331 . S
C145 C146 1.336 . S
C146 C142 1.394 . S
C146 C145 1.336 . S
C146 H161 0.929 . S
C147 C137 1.386 . S
C147 C140 1.357 . S
C147 H160 0.928 . S
H148 C124 0.931 . S
H149 C126 0.930 . S
H150 C128 0.929 . S
H151 C129 0.931 . S
H152 C131 0.930 . S
H153 C135 0.931 . S
H154 C133 0.931 . S
H155 C137 0.931 . S
H156 C138 0.929 . S
H157 C139 0.930 . S
H158 C142 0.930 . S
H159 C143 0.931 . S
H160 C147 0.928 . S
H161 C146 0.929 . S
H162 C144 0.932 . S
C163 C164 1.386 . S
C163 C165 1.397 . S
C163 H187 0.931 . S
C164 C163 1.386 . S
C164 C168 1.397 . S
C165 C163 1.397 . S
C165 C166 1.384 . S
C165 H188 0.930 . S
C166 C165 1.384 . S
C166 C167 1.377 . S
C166 C169 1.481 . S
C167 C166 1.377 . S
C167 C168 1.389 . S
C167 H189 0.929 . S
C168 C164 1.397 . S
C168 C167 1.389 . S
C168 H190 0.931 . S
C169 C166 1.481 . S
C169 C170 1.387 . S
C169 C174 1.390 . S
C170 C169 1.387 . S
C170 C171 1.401 . S
C170 H191 0.930 . S
C171 C170 1.401 . S
C171 C172 1.376 . S
C171 C180 1.511 . S
C172 C171 1.376 . S
C172 C173 1.392 . S
C172 H193 0.931 . S
C173 C172 1.392 . S
C173 C174 1.361 . S
C173 C175 1.500 . S
C174 C169 1.390 . S
C174 C173 1.361 . S
C174 H192 0.931 . S
C175 C173 1.500 . S
C175 C176 1.371 . S
C175 C177 1.365 . S
C176 C175 1.371 . S
C176 C186 1.386 . S
C176 H194 0.931 . S
C177 C175 1.365 . S
C177 C178 1.409 . S
C177 H195 0.929 . S
C178 C177 1.409 . S
C178 C179 1.380 . S
C178 H196 0.930 . S
C179 C178 1.380 . S
C179 C186 1.357 . S
C180 C171 1.511 . S
C180 C181 1.341 . S
C180 C182 1.371 . S
C181 C180 1.341 . S
C181 C185 1.394 . S
C181 H197 0.930 . S
C182 C180 1.371 . S
C182 C183 1.392 . S
C182 H198 0.931 . S
C183 C182 1.392 . S
C183 C184 1.331 . S
C183 H201 0.932 . S
C184 C183 1.331 . S
C184 C185 1.336 . S
C185 C181 1.394 . S
C185 C184 1.336 . S
C185 H200 0.929 . S
C186 C176 1.386 . S
C186 C179 1.357 . S
C186 H199 0.928 . S
H187 C163 0.931 . S
H188 C165 0.930 . S
H189 C167 0.929 . S
H190 C168 0.931 . S
H191 C170 0.930 . S
H192 C174 0.931 . S
H193 C172 0.931 . S
H194 C176 0.931 . S
H195 C177 0.929 . S
H196 C178 0.930 . S
H197 C181 0.930 . S
H198 C182 0.931 . S
H199 C186 0.928 . S
H200 C185 0.929 . S
H201 C183 0.932 . S
H202 C210 0.950 . S
H203 C215 0.950 . S
H204 C212 0.950 . S
H205 C214 0.950 . S
H206 C216 0.950 . S
H207 C218 0.950 . S
H208 C220 0.950 . S
H209 C221 0.950 . S
C210 H202 0.950 . S
C210 C211 1.386 . S
C210 C212 1.391 . S
C211 C210 1.386 . S
C211 C215 1.393 . S
C212 H204 0.950 . S
C212 C210 1.391 . S
C212 C213 1.400 . S
C213 C212 1.400 . S
C213 C214 1.398 . S
C213 C219 1.491 . S
C214 H205 0.950 . S
C214 C213 1.398 . S
C214 C215 1.391 . S
C215 H203 0.950 . S
C215 C211 1.393 . S
C215 C214 1.391 . S
C216 H206 0.950 . S
C216 C217 1.386 . S
C216 C218 1.391 . S
C217 C216 1.386 . S
C217 C221 1.393 . S
C218 H207 0.950 . S
C218 C216 1.391 . S
C218 C219 1.400 . S
C219 C213 1.491 . S
C219 C218 1.400 . S
C219 C220 1.398 . S
C220 H208 0.950 . S
C220 C219 1.398 . S
C220 C221 1.391 . S
C221 H209 0.950 . S
C221 C217 1.393 . S
C221 C220 1.391 . S
H222 C230 0.950 . S
H223 C235 0.950 . S
H224 C232 0.950 . S
H225 C234 0.950 . S
H226 C236 0.950 1_554 S
H227 C238 0.950 1_554 S
H228 C240 0.950 . S
H229 C241 0.950 . S
C230 H222 0.950 . S
C230 C231 1.386 . S
C230 C232 1.391 . S
C231 C230 1.386 . S
C231 C235 1.393 1_556 S
C232 H224 0.950 . S
C232 C230 1.391 . S
C232 C233 1.400 . S
C233 C232 1.400 . S
C233 C234 1.398 1_556 S
C233 C239 1.491 . S
C234 H225 0.950 . S
C234 C233 1.398 1_554 S
C234 C235 1.391 . S
C235 H223 0.950 . S
C235 C231 1.393 1_554 S
C235 C234 1.391 . S
C236 H226 0.950 1_556 S
C236 C237 1.386 . S
C236 C238 1.391 . S
C237 C236 1.386 . S
C237 C241 1.393 . S
C238 H227 0.950 1_556 S
C238 C236 1.391 . S
C238 C239 1.400 . S
C239 C233 1.491 . S
C239 C238 1.400 . S
C239 C240 1.398 . S
C240 H228 0.950 . S
C240 C239 1.398 . S
C240 C241 1.391 . S
C241 H229 0.950 . S
C241 C237 1.393 . S
C241 C240 1.391 . S
H242 C250 0.950 . S
H243 C255 0.950 . S
H244 C252 0.950 . S
H245 C254 0.950 . S
H246 C256 0.950 . S
H247 C258 0.950 . S
H248 C260 0.950 . S
H249 C261 0.950 . S
C250 H242 0.950 . S
C250 C251 1.386 . S
C250 C252 1.391 . S
C251 C250 1.386 . S
C251 C255 1.393 . S
C252 H244 0.950 . S
C252 C250 1.391 . S
C252 C253 1.400 . S
C253 C252 1.400 . S
C253 C254 1.398 . S
C253 C259 1.491 . S
C254 H245 0.950 . S
C254 C253 1.398 . S
C254 C255 1.391 . S
C255 H243 0.950 . S
C255 C251 1.393 . S
C255 C254 1.391 . S
C256 H246 0.950 . S
C256 C257 1.386 . S
C256 C258 1.391 . S
C257 C256 1.386 . S
C257 C261 1.393 . S
C258 H247 0.950 . S
C258 C256 1.391 . S
C258 C259 1.400 . S
C259 C253 1.491 . S
C259 C258 1.400 . S
C259 C260 1.398 . S
C260 H248 0.950 . S
C260 C259 1.398 . S
C260 C261 1.391 . S
C261 H249 0.950 . S
C261 C257 1.393 . S
C261 C260 1.391 . S
H262 C270 0.950 . S
H263 C275 0.950 . S
H264 C272 0.950 . S
H265 C274 0.950 . S
H266 C276 0.950 . S
H267 C278 0.950 . S
H268 C280 0.950 1_554 S
H269 C281 0.950 1_554 S
C270 H262 0.950 . S
C270 C271 1.386 1_554 S
C270 C272 1.391 . S
C271 C270 1.386 1_556 S
C271 C275 1.393 . S
C272 H264 0.950 . S
C272 C270 1.391 . S
C272 C273 1.400 1_554 S
C273 C272 1.400 1_556 S
C273 C274 1.398 . S
C273 C279 1.491 . S
C274 H265 0.950 . S
C274 C273 1.398 . S
C274 C275 1.391 . S
C275 H263 0.950 . S
C275 C271 1.393 . S
C275 C274 1.391 . S
C276 H266 0.950 . S
C276 C277 1.386 . S
C276 C278 1.391 . S
C277 C276 1.386 . S
C277 C281 1.393 . S
C278 H267 0.950 . S
C278 C276 1.391 . S
C278 C279 1.400 . S
C279 C273 1.491 . S
C279 C278 1.400 . S
C279 C280 1.398 . S
C280 H268 0.950 1_556 S
C280 C279 1.398 . S
C280 C281 1.391 . S
C281 H269 0.950 1_556 S
C281 C277 1.393 . S
C281 C280 1.391 . S
H282 C290 0.950 . S
H283 C295 0.950 . S
H284 C292 0.950 . S
H285 C294 0.950 . S
H286 C296 0.950 . S
H287 C298 0.950 . S
H288 C300 0.950 . S
H289 C301 0.950 . S
C290 H282 0.950 . S
C290 C291 1.386 . S
C290 C292 1.391 . S
C291 C290 1.386 . S
C291 C295 1.393 . S
C292 H284 0.950 . S
C292 C290 1.391 . S
C292 C293 1.400 . S
C293 C292 1.400 . S
C293 C294 1.398 . S
C293 C299 1.491 . S
C294 H285 0.950 . S
C294 C293 1.398 . S
C294 C295 1.391 . S
C295 H283 0.950 . S
C295 C291 1.393 . S
C295 C294 1.391 . S
C296 H286 0.950 . S
C296 C297 1.386 . S
C296 C298 1.391 . S
C297 C296 1.386 . S
C297 C301 1.393 . S
C298 H287 0.950 . S
C298 C296 1.391 . S
C298 C299 1.400 . S
C299 C293 1.491 . S
C299 C298 1.400 . S
C299 C300 1.398 . S
C300 H288 0.950 . S
C300 C299 1.398 . S
C300 C301 1.391 . S
C301 H289 0.950 . S
C301 C297 1.393 . S
C301 C300 1.391 . S
H302 C310 0.950 . S
H303 C315 0.950 . S
H304 C312 0.950 . S
H305 C314 0.950 . S
H306 C316 0.950 . S
H307 C318 0.950 . S
H308 C320 0.950 . S
H309 C321 0.950 . S
C310 H302 0.950 . S
C310 C311 1.386 . S
C310 C312 1.391 . S
C311 C310 1.386 . S
C311 C315 1.393 . S
C312 H304 0.950 . S
C312 C310 1.391 . S
C312 C313 1.400 . S
C313 C312 1.400 . S
C313 C314 1.398 . S
C313 C319 1.491 . S
C314 H305 0.950 . S
C314 C313 1.398 . S
C314 C315 1.391 . S
C315 H303 0.950 . S
C315 C311 1.393 . S
C315 C314 1.391 . S
C316 H306 0.950 . S
C316 C317 1.386 . S
C316 C318 1.391 . S
C317 C316 1.386 . S
C317 C321 1.393 . S
C318 H307 0.950 . S
C318 C316 1.391 . S
C318 C319 1.400 . S
C319 C313 1.491 . S
C319 C318 1.400 . S
C319 C320 1.398 . S
C320 H308 0.950 . S
C320 C319 1.398 . S
C320 C321 1.391 . S
C321 H309 0.950 . S
C321 C317 1.393 . S
C321 C320 1.391 . S
H322 C330 0.950 . S
H323 C335 0.950 . S
H324 C332 0.950 . S
H325 C334 0.950 . S
H326 C336 0.950 . S
H327 C338 0.950 . S
H328 C340 0.950 . S
H329 C341 0.950 . S
C330 H322 0.950 . S
C330 C331 1.386 . S
C330 C332 1.391 . S
C331 C330 1.386 . S
C331 C335 1.393 . S
C332 H324 0.950 . S
C332 C330 1.391 . S
C332 C333 1.400 . S
C333 C332 1.400 . S
C333 C334 1.398 . S
C333 C339 1.491 . S
C334 H325 0.950 . S
C334 C333 1.398 . S
C334 C335 1.391 . S
C335 H323 0.950 . S
C335 C331 1.393 . S
C335 C334 1.391 . S
C336 H326 0.950 . S
C336 C337 1.386 . S
C336 C338 1.391 . S
C337 C336 1.386 . S
C337 C341 1.393 . S
C338 H327 0.950 . S
C338 C336 1.391 . S
C338 C339 1.400 . S
C339 C333 1.491 . S
C339 C338 1.400 . S
C339 C340 1.398 . S
C340 H328 0.950 . S
C340 C339 1.398 . S
C340 C341 1.391 . S
C341 H329 0.950 . S
C341 C337 1.393 . S
C341 C340 1.391 . S
H342 C350 0.950 . S
H343 C355 0.950 . S
H344 C352 0.950 . S
H345 C354 0.950 . S
H346 C356 0.950 . S
H347 C358 0.950 . S
H348 C360 0.950 . S
H349 C361 0.950 . S
C350 H342 0.950 . S
C350 C351 1.386 . S
C350 C352 1.391 . S
C351 C350 1.386 . S
C351 C355 1.393 . S
C352 H344 0.950 . S
C352 C350 1.391 . S
C352 C353 1.400 . S
C353 C352 1.400 . S
C353 C354 1.398 . S
C353 C359 1.491 . S
C354 H345 0.950 . S
C354 C353 1.398 . S
C354 C355 1.391 . S
C355 H343 0.950 . S
C355 C351 1.393 . S
C355 C354 1.391 . S
C356 H346 0.950 . S
C356 C357 1.386 . S
C356 C358 1.391 . S
C357 C356 1.386 . S
C357 C361 1.393 . S
C358 H347 0.950 . S
C358 C356 1.391 . S
C358 C359 1.400 . S
C359 C353 1.491 . S
C359 C358 1.400 . S
C359 C360 1.398 . S
C360 H348 0.950 . S
C360 C359 1.398 . S
C360 C361 1.391 . S
C361 H349 0.950 . S
C361 C357 1.393 . S
C361 C360 1.391 . S
H362 C370 0.950 . S
H363 C375 0.950 . S
H364 C372 0.950 . S
H365 C374 0.950 . S
H366 C376 0.950 . S
H367 C378 0.950 . S
H368 C380 0.950 . S
H369 C381 0.950 . S
C370 H362 0.950 . S
C370 C371 1.386 1_665 S
C370 C372 1.391 . S
C371 C370 1.386 1_445 S
C371 C375 1.393 . S
C372 H364 0.950 . S
C372 C370 1.391 . S
C372 C373 1.400 1_665 S
C373 C372 1.400 1_445 S
C373 C374 1.398 . S
C373 C379 1.491 . S
C374 H365 0.950 . S
C374 C373 1.398 . S
C374 C375 1.391 . S
C375 H363 0.950 . S
C375 C371 1.393 . S
C375 C374 1.391 . S
C376 H366 0.950 . S
C376 C377 1.386 1_455 S
C376 C378 1.391 . S
C377 C376 1.386 1_655 S
C377 C381 1.393 1_545 S
C378 H367 0.950 . S
C378 C376 1.391 . S
C378 C379 1.400 . S
C379 C373 1.491 . S
C379 C378 1.400 . S
C379 C380 1.398 1_445 S
C380 H368 0.950 . S
C380 C379 1.398 1_665 S
C380 C381 1.391 . S
C381 H369 0.950 . S
C381 C377 1.393 1_565 S
C381 C380 1.391 . S
H382 C390 0.950 . S
H383 C395 0.950 . S
H384 C392 0.950 . S
H385 C394 0.950 . S
H386 C396 0.950 . S
H387 C398 0.950 . S
H388 C400 0.950 . S
H389 C401 0.950 . S
C390 H382 0.950 . S
C390 C391 1.386 1_655 S
C390 C392 1.391 . S
C391 C390 1.386 1_455 S
C391 C395 1.393 1_545 S
C392 H384 0.950 . S
C392 C390 1.391 . S
C392 C393 1.400 1_655 S
C393 C392 1.400 1_455 S
C393 C394 1.398 1_545 S
C393 C399 1.491 . S
C394 H385 0.950 . S
C394 C393 1.398 1_565 S
C394 C395 1.391 . S
C395 H383 0.950 . S
C395 C391 1.393 1_565 S
C395 C394 1.391 . S
C396 H386 0.950 . S
C396 C397 1.383 1_565 S
C396 C398 1.391 . S
C397 C396 1.383 1_545 S
C397 C401 1.395 1_455 S
C398 H387 0.950 . S
C398 C396 1.391 . S
C398 C399 1.400 1_565 S
C399 C393 1.491 . S
C399 C398 1.400 1_545 S
C399 C400 1.398 1_455 S
C400 H388 0.950 . S
C400 C399 1.398 1_655 S
C400 C401 1.391 . S
C401 H389 0.950 . S
C401 C397 1.395 1_655 S
C401 C400 1.391 . S
H402 C410 0.950 . S
H403 C415 0.950 . S
H404 C412 0.950 . S
H405 C414 0.950 . S
H406 C416 0.950 . S
H407 C418 0.950 . S
H408 C420 0.950 . S
H409 C421 0.950 . S
C410 H402 0.950 . S
C410 C411 1.386 . S
C410 C412 1.391 . S
C411 C410 1.386 . S
C411 C415 1.393 . S
C412 H404 0.950 . S
C412 C410 1.391 . S
C412 C413 1.400 . S
C413 C412 1.400 . S
C413 C414 1.398 . S
C413 C419 1.491 . S
C414 H405 0.950 . S
C414 C413 1.398 . S
C414 C415 1.391 . S
C415 H403 0.950 . S
C415 C411 1.393 . S
C415 C414 1.391 . S
C416 H406 0.950 . S
C416 C417 1.386 . S
C416 C418 1.391 . S
C417 C416 1.386 . S
C417 C421 1.393 . S
C418 H407 0.950 . S
C418 C416 1.391 . S
C418 C419 1.400 . S
C419 C413 1.491 . S
C419 C418 1.400 . S
C419 C420 1.398 . S
C420 H408 0.950 . S
C420 C419 1.398 . S
C420 C421 1.391 . S
C421 H409 0.950 . S
C421 C417 1.393 . S
C421 C420 1.391 . S
H422 C430 0.950 . S
H423 C435 0.950 . S
H424 C432 0.950 . S
H425 C434 0.950 . S
H426 C436 0.950 . S
H427 C438 0.950 . S
H428 C440 0.950 . S
H429 C441 0.950 . S
C430 H422 0.950 . S
C430 C431 1.386 . S
C430 C432 1.391 . S
C431 C430 1.386 . S
C431 C435 1.393 . S
C432 H424 0.950 . S
C432 C430 1.391 . S
C432 C433 1.400 . S
C433 C432 1.400 . S
C433 C434 1.398 . S
C433 C439 1.491 . S
C434 H425 0.950 . S
C434 C433 1.398 . S
C434 C435 1.391 . S
C435 H423 0.950 . S
C435 C431 1.393 . S
C435 C434 1.391 . S
C436 H426 0.950 . S
C436 C437 1.386 . S
C436 C438 1.391 . S
C437 C436 1.386 . S
C437 C441 1.393 . S
C438 H427 0.950 . S
C438 C436 1.391 . S
C438 C439 1.400 . S
C439 C433 1.491 . S
C439 C438 1.400 . S
C439 C440 1.398 . S
C440 H428 0.950 . S
C440 C439 1.398 . S
C440 C441 1.391 . S
C441 H429 0.950 . S
C441 C437 1.393 . S
C441 C440 1.391 . S
C217 C179 1.451 . S
C211 C21 1.450 . S
C231 C19 1.444 1_556 S
C237 C140 1.442 . S
C251 C18 1.410 . S
C257 C184 1.422 . S
C271 C20 1.431 1_556 S
C277 C145 1.432 . S
C291 C44 1.454 . S
C297 C101 1.448 . S
C311 C42 1.438 . S
C317 C62 1.435 . S
C337 C106 1.421 . S
C331 C41 1.417 . S
C357 C67 1.429 . S
C351 C43 1.428 . S
C371 C16 1.491 . S
C377 C47 1.493 1_545 S
C391 C17 1.457 . S
C397 C86 1.458 . S
C417 C125 1.491 . S
C411 C39 1.492 . S
C431 C40 1.455 . S
C437 C164 1.455 . S
