# Generated by pormake.
# Topology zzz, (3,6)-cn, num edge types: 1
# Building blocks:
#     Node 0, Type 0, BuildingBlock: VETTIZ_charged_linker_0, # of connection points: 3
#     Node 1, Type 0, BuildingBlock: VETTIZ_charged_linker_0, # of connection points: 3
#     Node 2, Type 0, BuildingBlock: VETTIZ_charged_linker_0, # of connection points: 3
#     Node 3, Type 0, BuildingBlock: VETTIZ_charged_linker_0, # of connection points: 3
#     Node 4, Type 0, BuildingBlock: VETTIZ_charged_linker_0, # of connection points: 3
#     Node 5, Type 0, BuildingBlock: VETTIZ_charged_linker_0, # of connection points: 3
#     Node 6, Type 0, BuildingBlock: VETTIZ_charged_linker_0, # of connection points: 3
#     Node 7, Type 0, BuildingBlock: VETTIZ_charged_linker_0, # of connection points: 3
#     Node 8, Type 1, BuildingBlock: BETDEL_clean_sbu_0, # of connection points: 6
#     Node 9, Type 1, BuildingBlock: BETDEL_clean_sbu_0, # of connection points: 6
#     Node 10, Type 1, BuildingBlock: BETDEL_clean_sbu_0, # of connection points: 6
#     Node 11, Type 1, BuildingBlock: BETDEL_clean_sbu_0, # of connection points: 6
#     Edge 12, Type (0, 1), BuildingBlock: TEMPAE_clean_linker_10, # of connection points: 2
#     Edge 13, Type (0, 1), BuildingBlock: TEMPAE_clean_linker_10, # of connection points: 2
#     Edge 14, Type (0, 1), BuildingBlock: TEMPAE_clean_linker_10, # of connection points: 2
#     Edge 15, Type (0, 1), BuildingBlock: TEMPAE_clean_linker_10, # of connection points: 2
#     Edge 16, Type (0, 1), BuildingBlock: TEMPAE_clean_linker_10, # of connection points: 2
#     Edge 17, Type (0, 1), BuildingBlock: TEMPAE_clean_linker_10, # of connection points: 2
#     Edge 18, Type (0, 1), BuildingBlock: TEMPAE_clean_linker_10, # of connection points: 2
#     Edge 19, Type (0, 1), BuildingBlock: TEMPAE_clean_linker_10, # of connection points: 2
#     Edge 20, Type (0, 1), BuildingBlock: TEMPAE_clean_linker_10, # of connection points: 2
#     Edge 21, Type (0, 1), BuildingBlock: TEMPAE_clean_linker_10, # of connection points: 2
#     Edge 22, Type (0, 1), BuildingBlock: TEMPAE_clean_linker_10, # of connection points: 2
#     Edge 23, Type (0, 1), BuildingBlock: TEMPAE_clean_linker_10, # of connection points: 2
#     Edge 24, Type (0, 1), BuildingBlock: TEMPAE_clean_linker_10, # of connection points: 2
#     Edge 25, Type (0, 1), BuildingBlock: TEMPAE_clean_linker_10, # of connection points: 2
#     Edge 26, Type (0, 1), BuildingBlock: TEMPAE_clean_linker_10, # of connection points: 2
#     Edge 27, Type (0, 1), BuildingBlock: TEMPAE_clean_linker_10, # of connection points: 2
#     Edge 28, Type (0, 1), BuildingBlock: TEMPAE_clean_linker_10, # of connection points: 2
#     Edge 29, Type (0, 1), BuildingBlock: TEMPAE_clean_linker_10, # of connection points: 2
#     Edge 30, Type (0, 1), BuildingBlock: TEMPAE_clean_linker_10, # of connection points: 2
#     Edge 31, Type (0, 1), BuildingBlock: TEMPAE_clean_linker_10, # of connection points: 2
#     Edge 32, Type (0, 1), BuildingBlock: TEMPAE_clean_linker_10, # of connection points: 2
#     Edge 33, Type (0, 1), BuildingBlock: TEMPAE_clean_linker_10, # of connection points: 2
#     Edge 34, Type (0, 1), BuildingBlock: TEMPAE_clean_linker_10, # of connection points: 2
#     Edge 35, Type (0, 1), BuildingBlock: TEMPAE_clean_linker_10, # of connection points: 2
# Relax obj value: 0.341
# Max RMSD: 0.231
# Mean RMSD: 0.212
data_MOF--net-zzz--node1-BETDEL_clean_sbu_0--node2-VETTIZ_charged_linker_0--edge1-TEMPAE_clean_linker_10
_symmetry_space_group_name_H-M    P1
_symmetry_Int_Tables_number       1
_symmetry_cell_setting            triclinic
loop_
_symmetry_equiv_pos_as_xyz
'x, y, z'
_cell_length_a     56.612783
_cell_length_b     56.399702
_cell_length_c     20.027547
_cell_angle_alpha  91.141137
_cell_angle_beta   89.402924
_cell_angle_gamma 95.848774
loop_
_atom_site_label
_atom_site_type_symbol
_atom_site_fract_x
_atom_site_fract_y
_atom_site_fract_z
_atom_type_partial_charge
C0 C 0.80337 0.5029 0.18372 0.0
C1 C 0.81911 0.49184 0.22493 0.0
C2 C 0.81759 0.4668 0.22615 0.0
C3 C 0.79081 0.46439 0.13316 0.0
C4 C 0.78855 0.48841 0.13933 0.0
C5 C 0.76894 0.49502 0.0938 0.0
H6 H 0.70713 0.46386 0.80593 0.0
C7 C 0.77844 0.45499 0.07286 0.0
C8 C 0.76452 0.47241 0.04991 0.0
H9 H 0.69121 0.51912 0.94701 0.0
H10 H 0.72452 0.51037 0.01554 0.0
H11 H 0.76086 0.47501 0.80919 0.0
H12 H 0.71362 0.42314 0.90971 0.0
H13 H 0.73775 0.40899 0.87635 0.0
H14 H 0.71949 0.42386 0.82134 0.0
H15 H 0.75425 0.44569 0.77439 0.0
H16 H 0.77911 0.45289 0.82966 0.0
C17 C 0.77767 0.51707 0.05283 0.0
C18 C 0.7472 0.4989 0.1384 0.0
C19 C 0.81855 0.3916 0.9469 0.0
C20 C 0.82203 0.38948 0.8774 0.0
C21 C 0.8039 0.39612 0.83555 0.0
C22 C 0.78519 0.40796 0.86184 0.0
C23 C 0.78519 0.41444 0.92989 0.0
C24 C 0.80148 0.40589 0.97158 0.0
C25 C 0.80243 0.41835 0.0388 0.0
C26 C 0.78372 0.43573 0.03039 0.0
C27 C 0.77361 0.43312 0.96684 0.0
C28 C 0.82786 0.43134 0.04655 0.0
C29 C 0.79556 0.39981 0.09364 0.0
C30 C 0.71016 0.47377 0.85242 0.0
C31 C 0.6958 0.49171 0.87145 0.0
C32 C 0.70166 0.50498 0.93091 0.0
C33 C 0.72069 0.49962 0.97149 0.0
C34 C 0.73384 0.48059 0.95319 0.0
C35 C 0.72843 0.46823 0.89403 0.0
C36 C 0.74394 0.4486 0.88111 0.0
C37 C 0.75754 0.44916 0.94594 0.0
C38 C 0.7525 0.46853 0.98743 0.0
C39 C 0.76033 0.45571 0.82041 0.0
C40 C 0.72797 0.42482 0.87122 0.0
H41 H 0.8032 0.43401 0.18211 0.0
H42 H 0.80324 0.52207 0.18472 0.0
H43 H 0.74476 0.48523 0.17786 0.0
H44 H 0.73044 0.49713 0.11051 0.0
H45 H 0.74948 0.51672 0.16357 0.0
H46 H 0.79412 0.51394 0.02464 0.0
H47 H 0.78161 0.53298 0.08596 0.0
H48 H 0.76424 0.52126 0.01635 0.0
H49 H 0.83092 0.38521 0.9814 0.0
H50 H 0.80508 0.39436 0.78183 0.0
H51 H 0.77254 0.41324 0.82716 0.0
H52 H 0.83241 0.44312 0.00341 0.0
H53 H 0.8413 0.41836 0.04888 0.0
H54 H 0.83044 0.44251 0.09176 0.0
H55 H 0.78837 0.38221 0.07232 0.0
H56 H 0.78134 0.40549 0.12712 0.0
H57 H 0.81113 0.39671 0.1244 0.0
H58 H 0.82884 0.45796 0.25908 0.0
C59 C 0.80315 0.453 0.18115 0.0
C60 C 0.945 0.79352 0.85114 0.0
C61 C 0.94037 0.81744 0.85905 0.0
C62 C 0.92364 0.82353 0.9073 0.0
C63 C 0.92417 0.78476 0.95454 0.0
C64 C 0.9361 0.77716 0.89917 0.0
C65 C 0.94106 0.75161 0.90511 0.0
H66 H 0.97875 0.66653 0.06936 0.0
C67 C 0.92583 0.76752 0.00764 0.0
C68 C 0.93266 0.74677 0.97713 0.0
H69 H 0.93299 0.65715 0.89622 0.0
H70 H 0.91934 0.69611 0.91938 0.0
H71 H 0.99684 0.72763 0.05765 0.0
H72 H 0.93419 0.69412 0.1594 0.0
H73 H 0.95246 0.71475 0.20969 0.0
H74 H 0.96344 0.68742 0.18203 0.0
H75 H 0.99964 0.70695 0.12374 0.0
H76 H 0.99374 0.73709 0.14218 0.0
C77 C 0.96791 0.74936 0.89641 0.0
C78 C 0.92652 0.73659 0.85173 0.0
C79 C 0.94604 0.80704 0.23114 0.0
C80 C 0.9613 0.80251 0.28281 0.0
C81 C 0.97163 0.78069 0.28129 0.0
C82 C 0.96655 0.76376 0.22881 0.0
C83 C 0.95168 0.76907 0.1763 0.0
C84 C 0.94217 0.79076 0.17794 0.0
C85 C 0.92956 0.79556 0.11508 0.0
C86 C 0.93196 0.77262 0.07561 0.0
C87 C 0.94463 0.75675 0.11188 0.0
C88 C 0.94272 0.81811 0.08229 0.0
C89 C 0.90331 0.79829 0.13234 0.0
C90 C 0.96653 0.67319 0.03482 0.0
C91 C 0.95778 0.65904 0.97905 0.0
C92 C 0.94067 0.66777 0.93774 0.0
C93 C 0.93365 0.6905 0.94825 0.0
C94 C 0.94457 0.70502 0.99821 0.0
C95 C 0.95883 0.69615 0.04471 0.0
C96 C 0.96298 0.71384 0.10329 0.0
C97 C 0.94876 0.73424 0.08181 0.0
C98 C 0.94004 0.72893 0.01768 0.0
C99 C 0.98977 0.72184 0.1074 0.0
C100 C 0.9528 0.70195 0.16741 0.0
H101 H 0.90335 0.81221 0.99368 0.0
H102 H 0.9572 0.78843 0.81273 0.0
H103 H 0.92693 0.74605 0.80347 0.0
H104 H 0.90765 0.7329 0.86757 0.0
H105 H 0.93415 0.71962 0.8405 0.0
H106 H 0.97837 0.76116 0.93288 0.0
H107 H 0.97407 0.75422 0.84519 0.0
H108 H 0.97189 0.73076 0.90419 0.0
H109 H 0.93843 0.82389 0.22965 0.0
H110 H 0.98367 0.77684 0.32039 0.0
H111 H 0.97482 0.74748 0.22992 0.0
H112 H 0.95446 0.82917 0.11741 0.0
H113 H 0.93019 0.8304 0.06449 0.0
H114 H 0.95447 0.81329 0.04044 0.0
H115 H 0.89595 0.78406 0.16667 0.0
H116 H 0.89198 0.79664 0.08756 0.0
H117 H 0.90153 0.81582 0.15715 0.0
H118 H 0.91931 0.84175 0.91277 0.0
C119 C 0.91515 0.80692 0.95506 0.0
C120 C 0.82763 0.97758 0.00414 0.0
C121 C 0.84025 0.96759 0.95021 0.0
C122 C 0.82844 0.9492 0.91056 0.0
C123 C 0.79172 0.95505 0.96571 0.0
C124 C 0.80308 0.97006 0.01249 0.0
C125 C 0.78557 0.97521 0.06862 0.0
H126 H 0.66674 0.96099 0.16365 0.0
C127 C 0.76654 0.9524 0.9793 0.0
C128 C 0.76207 0.96225 0.04229 0.0
H129 H 0.72363 0.99658 0.28136 0.0
H130 H 0.75239 0.98694 0.19474 0.0
H131 H 0.672 0.98123 0.0532 0.0
H132 H 0.69306 0.91625 0.10225 0.0
H133 H 0.68319 0.9148 0.01841 0.0
H134 H 0.66467 0.92604 0.08289 0.0
H135 H 0.66305 0.95768 0.99745 0.0
H136 H 0.68887 0.97834 0.97929 0.0
C137 C 0.78442 1.00228 0.07555 0.0
C138 C 0.79354 0.96413 0.13322 0.0
C139 C 0.71282 0.96381 0.78966 0.0
C140 C 0.68798 0.96342 0.78839 0.0
C141 C 0.67415 0.94966 0.83536 0.0
C142 C 0.68504 0.94 0.88948 0.0
C143 C 0.70959 0.94494 0.89685 0.0
C144 C 0.72332 0.95401 0.84428 0.0
C145 C 0.74935 0.95481 0.85903 0.0
C146 C 0.74826 0.94756 0.93258 0.0
C147 C 0.72482 0.94436 0.95552 0.0
C148 C 0.76151 0.98039 0.85018 0.0
C149 C 0.76027 0.93688 0.81158 0.0
C150 C 0.68535 0.96687 0.17143 0.0
C151 C 0.69269 0.97986 0.22919 0.0
C152 C 0.71733 0.98655 0.23729 0.0
C153 C 0.73398 0.98099 0.18709 0.0
C154 C 0.7259 0.96871 0.12826 0.0
C155 C 0.70178 0.96218 0.12161 0.0
C156 C 0.69523 0.9513 0.0548 0.0
C157 C 0.71958 0.95094 0.02263 0.0
C158 C 0.73786 0.961 0.0656 0.0
C159 C 0.67907 0.96783 0.01899 0.0
C160 C 0.68327 0.92573 0.06486 0.0
H161 H 0.79577 0.9277 0.89093 0.0
H162 H 0.83655 0.9907 0.03792 0.0
H163 H 0.79644 0.94512 0.12422 0.0
H164 H 0.78016 0.96453 0.17351 0.0
H165 H 0.81047 0.97374 0.15118 0.0
H166 H 0.78024 0.00979 0.02663 0.0
H167 H 0.80171 0.01131 0.09275 0.0
H168 H 0.77053 0.00669 0.1115 0.0
H169 H 0.72367 0.97342 0.75221 0.0
H170 H 0.65494 0.94842 0.8341 0.0
H171 H 0.67411 0.93029 0.92586 0.0
H172 H 0.75293 0.99328 0.88279 0.0
H173 H 0.76054 0.98605 0.79758 0.0
H174 H 0.78061 0.98156 0.86287 0.0
H175 H 0.75236 0.93685 0.76097 0.0
H176 H 0.75722 0.91846 0.83077 0.0
H177 H 0.77952 0.94181 0.80358 0.0
H178 H 0.83779 0.94045 0.87118 0.0
C179 C 0.80427 0.94259 0.91916 0.0
C180 C 0.54609 0.73494 0.2865 0.0
C181 C 0.55991 0.71923 0.32019 0.0
C182 C 0.58485 0.72211 0.31083 0.0
C183 C 0.58052 0.74873 0.22104 0.0
C184 C 0.55726 0.75051 0.2385 0.0
C185 C 0.54683 0.76814 0.19359 0.0
H186 H 0.55357 0.82378 0.89668 0.0
C187 C 0.58529 0.75921 0.15575 0.0
C188 C 0.56757 0.77438 0.14455 0.0
H189 H 0.54168 0.86206 0.0813 0.0
H190 H 0.55105 0.8272 0.14459 0.0
H191 H 0.60168 0.80821 0.945 0.0
H192 H 0.53171 0.77223 0.93196 0.0
H193 H 0.54993 0.7488 0.93481 0.0
H194 H 0.55292 0.76929 0.86634 0.0
H195 H 0.58598 0.79961 0.86933 0.0
H196 H 0.6035 0.77943 0.90979 0.0
C197 C 0.54039 0.78975 0.23536 0.0
C198 C 0.52488 0.75596 0.1571 0.0
C199 C 0.61257 0.69749 0.99545 0.0
C200 C 0.60334 0.69116 0.93206 0.0
C201 C 0.59496 0.70901 0.89297 0.0
C202 C 0.59273 0.73168 0.92037 0.0
C203 C 0.59797 0.73621 0.98807 0.0
C204 C 0.60808 0.71938 0.02451 0.0
C205 C 0.60911 0.72564 0.09801 0.0
C206 C 0.59602 0.74815 0.10003 0.0
C207 C 0.59039 0.75444 0.03496 0.0
C208 C 0.63543 0.73131 0.11697 0.0
C209 C 0.59648 0.70466 0.13872 0.0
C210 C 0.5522 0.82474 0.95061 0.0
C211 C 0.54658 0.84573 0.98355 0.0
C212 C 0.54517 0.84594 0.05431 0.0
C213 C 0.54995 0.82579 0.09094 0.0
C214 C 0.55543 0.80514 0.05644 0.0
C215 C 0.55747 0.80525 0.98763 0.0
C216 C 0.56904 0.78415 0.96052 0.0
C217 C 0.57593 0.77307 0.025 0.0
C218 C 0.56595 0.78402 0.08012 0.0
C219 C 0.5912 0.79318 0.91857 0.0
C220 C 0.55008 0.76776 0.92112 0.0
H221 H 0.61409 0.73817 0.25339 0.0
H222 H 0.52712 0.73424 0.29497 0.0
H223 H 0.52946 0.73989 0.12868 0.0
H224 H 0.51799 0.76836 0.12135 0.0
H225 H 0.51042 0.75044 0.19319 0.0
H226 H 0.55664 0.80082 0.25254 0.0
H227 H 0.52975 0.7838 0.28005 0.0
H228 H 0.52931 0.80086 0.20628 0.0
H229 H 0.6203 0.68441 0.0249 0.0
H230 H 0.58802 0.70496 0.84343 0.0
H231 H 0.58536 0.7442 0.88917 0.0
H232 H 0.6447 0.71486 0.11442 0.0
H233 H 0.63749 0.73909 0.16782 0.0
H234 H 0.64461 0.74446 0.08228 0.0
H235 H 0.57732 0.70669 0.14638 0.0
H236 H 0.60515 0.70283 0.18731 0.0
H237 H 0.59721 0.68696 0.11445 0.0
H238 H 0.59627 0.7111 0.33663 0.0
C239 C 0.59524 0.73721 0.26194 0.0
C240 C 0.31914 0.52562 0.19905 0.0
C241 C 0.33645 0.53874 0.23986 0.0
C242 C 0.33531 0.56342 0.24964 0.0
C243 C 0.29855 0.56098 0.18969 0.0
C244 C 0.30057 0.53753 0.17239 0.0
C245 C 0.28205 0.52886 0.12006 0.0
H246 H 0.19026 0.56119 0.92769 0.0
C247 C 0.27833 0.56899 0.15592 0.0
C248 C 0.26923 0.55129 0.1103 0.0
H249 H 0.21301 0.49065 0.93602 0.0
H250 H 0.24504 0.50563 0.01219 0.0
H251 H 0.18228 0.56963 0.04656 0.0
H252 H 0.24173 0.59425 0.93859 0.0
H253 H 0.23512 0.61704 0.99571 0.0
H254 H 0.21206 0.60301 0.94249 0.0
H255 H 0.18975 0.60059 0.05024 0.0
H256 H 0.19796 0.58174 0.11676 0.0
C257 C 0.2654 0.50835 0.14973 0.0
C258 C 0.29485 0.52149 0.05585 0.0
C259 C 0.22558 0.62312 0.27137 0.0
C260 C 0.20434 0.63127 0.2481 0.0
C261 C 0.20277 0.63546 0.17879 0.0
C262 C 0.21921 0.62712 0.13387 0.0
C263 C 0.2363 0.61343 0.15805 0.0
C264 C 0.24121 0.61387 0.22512 0.0
C265 C 0.26225 0.60045 0.23931 0.0
C266 C 0.26636 0.58926 0.17005 0.0
C267 C 0.24942 0.59534 0.12494 0.0
C268 C 0.2556 0.58119 0.29194 0.0
C269 C 0.2828 0.61856 0.26362 0.0
C270 C 0.20209 0.54879 0.94551 0.0
C271 C 0.19871 0.52468 0.92665 0.0
C272 C 0.21502 0.50938 0.9501 0.0
C273 C 0.23344 0.51804 0.9947 0.0
C274 C 0.23527 0.54209 0.01675 0.0
C275 C 0.21939 0.55677 0.99211 0.0
C276 C 0.22092 0.58073 0.02588 0.0
C277 C 0.24122 0.57877 0.07371 0.0
C278 C 0.25009 0.55622 0.06799 0.0
C279 C 0.19668 0.58347 0.06181 0.0
C280 C 0.2277 0.5999 0.97297 0.0
H281 H 0.31765 0.59373 0.22562 0.0
H282 H 0.32039 0.50697 0.18728 0.0
H283 H 0.30861 0.53591 0.04066 0.0
H284 H 0.28258 0.51811 0.01351 0.0
H285 H 0.30374 0.50511 0.06385 0.0
H286 H 0.25875 0.51364 0.19975 0.0
H287 H 0.27494 0.49226 0.15564 0.0
H288 H 0.24966 0.50347 0.11852 0.0
H289 H 0.2289 0.62187 0.32416 0.0
H290 H 0.18776 0.64287 0.15752 0.0
H291 H 0.21703 0.62985 0.08153 0.0
H292 H 0.24 0.56897 0.27544 0.0
H293 H 0.25127 0.5894 0.34082 0.0
H294 H 0.2706 0.5704 0.30019 0.0
H295 H 0.27608 0.63292 0.29517 0.0
H296 H 0.29272 0.62713 0.22081 0.0
H297 H 0.29511 0.61013 0.29621 0.0
H298 H 0.34896 0.57411 0.27758 0.0
C299 C 0.31677 0.57464 0.2232 0.0
C300 C 0.07357 0.22329 0.29471 0.0
C301 C 0.07837 0.19934 0.28912 0.0
C302 C 0.09558 0.19291 0.24267 0.0
C303 C 0.09571 0.23136 0.19293 0.0
C304 C 0.08307 0.2393 0.24651 0.0
C305 C 0.07845 0.26488 0.23881 0.0
H306 H 0.04378 0.34924 0.0657 0.0
C307 C 0.09517 0.24845 0.139 0.0
C308 C 0.08803 0.26938 0.16774 0.0
H309 H 0.08687 0.35981 0.24359 0.0
H310 H 0.10072 0.32047 0.22501 0.0
H311 H 0.08979 0.32176 0.98353 0.0
H312 H 0.02546 0.28863 0.07779 0.0
H313 H 0.02998 0.27839 0.99471 0.0
H314 H 0.02392 0.3087 0.00957 0.0
H315 H 0.06095 0.32796 0.95582 0.0
H316 H 0.07281 0.30071 0.93146 0.0
C317 C 0.09223 0.28005 0.29335 0.0
C318 C 0.05155 0.26733 0.24388 0.0
C319 C 0.07869 0.2086 0.91388 0.0
C320 C 0.06427 0.21313 0.86027 0.0
C321 C 0.0541 0.235 0.85975 0.0
C322 C 0.05847 0.25201 0.91228 0.0
C323 C 0.07243 0.24669 0.96684 0.0
C324 C 0.08179 0.22495 0.96712 0.0
C325 C 0.09323 0.22018 0.0319 0.0
C326 C 0.09029 0.24322 0.07034 0.0
C327 C 0.07842 0.25907 0.03178 0.0
C328 C 0.1197 0.21727 0.0185 0.0
C329 C 0.07938 0.19775 0.06345 0.0
C330 C 0.05547 0.34276 0.10205 0.0
C331 C 0.06334 0.3571 0.15816 0.0
C332 C 0.07981 0.34875 0.2021 0.0
C333 C 0.08692 0.32594 0.19392 0.0
C334 C 0.07677 0.31115 0.14329 0.0
C335 C 0.06332 0.31981 0.0944 0.0
C336 C 0.06013 0.30196 0.03606 0.0
C337 C 0.07391 0.28167 0.06039 0.0
C338 C 0.08155 0.28716 0.12549 0.0
C339 C 0.07144 0.31365 0.97296 0.0
C340 C 0.03343 0.29396 0.02864 0.0
H341 H 0.11694 0.20365 0.15772 0.0
H342 H 0.06108 0.22871 0.33189 0.0
H343 H 0.04161 0.25551 0.20641 0.0
H344 H 0.04784 0.28595 0.23496 0.0
H345 H 0.04452 0.26262 0.2944 0.0
H346 H 0.09095 0.27082 0.342 0.0
H347 H 0.08459 0.29714 0.30268 0.0
H348 H 0.11135 0.28352 0.27983 0.0
H349 H 0.08612 0.19168 0.91676 0.0
H350 H 0.0427 0.23881 0.81908 0.0
H351 H 0.05034 0.26833 0.90961 0.0
H352 H 0.12778 0.23147 0.9851 0.0
H353 H 0.12179 0.19972 0.99416 0.0
H354 H 0.1302 0.21882 0.06489 0.0
H355 H 0.06829 0.18664 0.02693 0.0
H356 H 0.0669 0.20272 0.10331 0.0
H357 H 0.09149 0.18547 0.0836 0.0
H358 H 0.10009 0.17472 0.23905 0.0
C359 C 0.10463 0.20917 0.19464 0.0
C360 C 0.3051 0.01322 0.89888 0.0
C361 C 0.31849 1.00048 0.85253 0.0
C362 C 0.31289 0.97561 0.84488 0.0
C363 C 0.28688 0.97584 0.94026 0.0
C364 C 0.28824 1.00026 0.94047 0.0
C365 C 0.27071 0.00898 0.99145 0.0
H366 H 0.2008 0.98099 0.26417 0.0
C367 C 0.27333 0.96702 0.9982 0.0
C368 C 0.2603 0.9853 0.02251 0.0
H369 H 0.17902 0.02446 0.10529 0.0
H370 H 0.21302 0.01393 0.03727 0.0
H371 H 0.2068 0.93918 0.16821 0.0
H372 H 0.25687 0.99251 0.2556 0.0
H373 H 0.273 0.96783 0.24346 0.0
H374 H 0.24732 0.96553 0.29806 0.0
H375 H 0.2152 0.94005 0.2545 0.0
H376 H 0.23133 0.92462 0.19214 0.0
C377 C 0.25219 0.02211 0.9553 0.0
C378 C 0.28408 0.02534 0.04408 0.0
C379 C 0.31765 0.91176 0.13394 0.0
C380 C 0.31782 0.90866 0.20341 0.0
C381 C 0.29754 0.91325 0.24099 0.0
C382 C 0.27899 0.92376 0.21139 0.0
C383 C 0.281 0.9303 0.14406 0.0
C384 C 0.29963 0.92348 0.10561 0.0
C385 C 0.30062 0.93441 0.03744 0.0
C386 C 0.27922 0.94897 0.04171 0.0
C387 C 0.26849 0.94703 0.10506 0.0
C388 C 0.29807 0.91433 0.98335 0.0
C389 C 0.32442 0.9505 0.03087 0.0
C390 C 0.2036 0.98914 0.21584 0.0
C391 C 0.18731 0.00391 0.19098 0.0
C392 C 0.19168 0.01373 0.12689 0.0
C393 C 0.21161 0.00829 0.08821 0.0
C394 C 0.22774 0.99372 0.11484 0.0
C395 C 0.22293 0.98366 0.17653 0.0
C396 C 0.23837 0.96425 0.19059 0.0
C397 C 0.252 0.96313 0.12528 0.0
C398 C 0.24713 0.9816 0.08311 0.0
C399 C 0.22224 0.94074 0.20252 0.0
C400 C 0.25469 0.97273 0.25012 0.0
H401 H 0.29262 0.94429 0.88204 0.0
H402 H 0.3081 0.03245 0.90339 0.0
H403 H 0.29808 0.01605 0.06815 0.0
H404 H 0.27164 0.03062 0.08364 0.0
H405 H 0.29264 0.0418 0.0208 0.0
H406 H 0.23877 0.00929 0.93019 0.0
H407 H 0.26083 0.03409 0.9168 0.0
H408 H 0.24324 0.03378 0.99043 0.0
H409 H 0.3327 0.90766 0.10361 0.0
H410 H 0.29694 0.91093 0.29455 0.0
H411 H 0.26469 0.92805 0.24347 0.0
H412 H 0.30336 0.89724 1.00216 0.0
H413 H 0.30987 0.91863 0.93983 0.0
H414 H 0.27944 0.91088 0.96591 0.0
H415 H 0.32579 0.9647 0.07039 0.0
H416 H 0.3266 0.95917 0.98208 0.0
H417 H 0.33985 0.93998 0.03534 0.0
H418 H 0.32207 0.96557 0.80791 0.0
C419 C 0.29677 0.96324 0.88829 0.0
C420 C 0.47206 0.28531 0.83909 0.0
C421 C 0.45655 0.29795 0.80075 0.0
C422 C 0.43198 0.28991 0.80175 0.0
C423 C 0.43807 0.26705 0.8981 0.0
C424 C 0.46199 0.26858 0.88567 0.0
C425 C 0.4736 0.25328 0.93491 0.0
H426 H 0.46227 0.19441 0.22811 0.0
C427 C 0.43324 0.25734 0.96394 0.0
C428 C 0.45218 0.24418 0.97888 0.0
H429 H 0.48385 0.15993 0.0458 0.0
H430 H 0.47356 0.19428 0.9817 0.0
H431 H 0.48231 0.24606 0.20465 0.0
H432 H 0.41444 0.20871 0.16888 0.0
H433 H 0.41086 0.23696 0.20602 0.0
H434 H 0.42779 0.21669 0.24837 0.0
H435 H 0.45815 0.24992 0.26036 0.0
H436 H 0.46465 0.26949 0.19086 0.0
C437 C 0.49246 0.26872 0.976 0.0
C438 C 0.48471 0.23311 0.89728 0.0
C439 C 0.40881 0.32248 0.11601 0.0
C440 C 0.41665 0.32801 0.18118 0.0
C441 C 0.42133 0.30935 0.22316 0.0
C442 C 0.42187 0.28619 0.19708 0.0
C443 C 0.41856 0.28202 0.12828 0.0
C444 C 0.41118 0.29972 0.08905 0.0
C445 C 0.4114 0.29312 0.01575 0.0
C446 C 0.42202 0.26917 0.01737 0.0
C447 C 0.42619 0.2631 0.08376 0.0
C448 C 0.42719 0.31258 0.97726 0.0
C449 C 0.38563 0.29042 0.99088 0.0
C450 C 0.46552 0.19429 0.17473 0.0
C451 C 0.47417 0.17449 0.1424 0.0
C452 C 0.47794 0.17519 0.07235 0.0
C453 C 0.47259 0.19505 0.03548 0.0
C454 C 0.46424 0.21457 0.06935 0.0
C455 C 0.46004 0.21365 0.13737 0.0
C456 C 0.4467 0.23389 0.16246 0.0
C457 C 0.44115 0.2451 0.09682 0.0
C458 C 0.45328 0.23509 0.04398 0.0
C459 C 0.46368 0.25071 0.207 0.0
C460 C 0.42372 0.22363 0.19872 0.0
H461 H 0.40363 0.27002 0.85553 0.0
H462 H 0.49111 0.28961 0.83691 0.0
H463 H 0.47073 0.22005 0.87543 0.0
H464 H 0.49595 0.22379 0.93099 0.0
H465 H 0.4964 0.24043 0.85608 0.0
H466 H 0.48452 0.28374 1.00154 0.0
H467 H 0.50726 0.27621 0.94338 0.0
H468 H 0.50001 0.2579 0.0147 0.0
H469 H 0.40411 0.3366 0.08447 0.0
H470 H 0.42699 0.31307 0.27415 0.0
H471 H 0.42663 0.27284 0.23026 0.0
H472 H 0.44634 0.31112 0.98594 0.0
H473 H 0.42357 0.33091 0.99175 0.0
H474 H 0.42369 0.31175 0.92329 0.0
H475 H 0.37755 0.30746 0.99798 0.0
H476 H 0.37469 0.27635 0.01883 0.0
H477 H 0.38461 0.28565 0.93727 0.0
H478 H 0.41978 0.29729 0.76852 0.0
C479 C 0.42255 0.27456 0.85144 0.0
Dy480 Dy 0.02586 0.99673 0.63028 0.0
C481 C 0.99066 0.04861 0.42422 0.0
C482 C 0.03387 0.96636 0.73002 0.0
Dy483 Dy 1.00074 0.01785 0.52104 0.0
O484 O 0.04583 0.9686 0.6745 0.0
O485 O 0.01878 0.98219 0.73271 0.0
O486 O 0.06127 0.01258 0.59294 0.0
O487 O 0.03424 1.0018 0.52412 0.0
C488 C 0.05514 0.01201 0.53036 0.0
C489 C 0.97211 1.00258 0.62274 0.0
O490 O 0.99704 0.98084 0.4781 0.0
O491 O 0.00641 0.96456 0.57814 0.0
O492 O 0.97939 0.04556 0.48056 0.0
O493 O 0.00636 0.03341 0.41909 0.0
O494 O 0.96561 1.00134 0.56049 0.0
O495 O 0.99281 0.01315 0.62722 0.0
O496 O 0.03002 0.03399 0.67171 0.0
O497 O 0.02077 0.04997 0.57117 0.0
C498 C 0.99885 0.96206 0.51567 0.0
C499 C 0.0284 0.05264 0.63347 0.0
Dy500 Dy 0.49528 0.99035 0.52536 0.0
C501 C 0.56514 0.05312 0.6524 0.0
C502 C 0.45774 0.96298 0.47047 0.0
Dy503 Dy 0.52556 0.02844 0.59871 0.0
O504 O 0.47957 0.95788 0.46803 0.0
O505 O 0.4565 0.98316 0.50192 0.0
O506 O 0.52697 0.97144 0.49624 0.0
O507 O 0.53074 0.00864 0.5058 0.0
C508 C 0.54191 0.99052 0.49617 0.0
C509 C 0.47913 0.02729 0.63 0.0
O510 O 0.5175 0.05048 0.51241 0.0
O511 O 0.4908 0.02214 0.46082 0.0
O512 O 0.56083 0.04988 0.58934 0.0
O513 O 0.54685 0.04394 0.68628 0.0
O514 O 0.49356 0.04682 0.6298 0.0
O515 O 0.49071 0.00956 0.61934 0.0
O516 O 0.50006 0.97101 0.61973 0.0
O517 O 0.53361 0.99506 0.65134 0.0
C518 C 0.50213 0.04397 0.46452 0.0
C519 C 0.51903 0.97527 0.65783 0.0
Dy520 Dy 0.50811 0.51966 0.63051 0.0
C521 C 0.50953 0.47099 0.37063 0.0
C522 C 0.5254 0.54283 0.74147 0.0
Dy523 Dy 0.51789 0.49681 0.48558 0.0
O524 O 0.50338 0.53359 0.73567 0.0
O525 O 0.53738 0.53963 0.68711 0.0
O526 O 0.46932 0.5256 0.61329 0.0
O527 O 0.48953 0.51044 0.54052 0.0
C528 C 0.46922 0.51673 0.55243 0.0
C529 C 0.55575 0.50622 0.56561 0.0
O530 O 0.5203 0.53554 0.45923 0.0
O531 O 0.5187 0.55176 0.56758 0.0
O532 O 0.52466 0.46655 0.41603 0.0
O533 O 0.49988 0.49025 0.38686 0.0
O534 O 0.55742 0.50603 0.50045 0.0
O535 O 0.53462 0.49952 0.5823 0.0
O536 O 0.50295 0.48092 0.65571 0.0
O537 O 0.50165 0.46553 0.54594 0.0
C538 C 0.52101 0.55401 0.5018 0.0
C539 C 0.49958 0.4628 0.61192 0.0
Dy540 Dy 0.99939 0.48986 0.59963 0.0
C541 C 0.05323 0.55753 0.43282 0.0
C542 C 0.96776 0.461 0.67254 0.0
Dy543 Dy 0.02435 0.53106 0.51874 0.0
O544 O 0.9858 0.45399 0.64003 0.0
O545 O 0.96744 0.48384 0.66683 0.0
O546 O 0.02251 0.46515 0.54948 0.0
O547 O 0.01184 0.49364 0.49528 0.0
C548 C 0.02421 0.47613 0.493 0.0
C549 C 0.00915 0.54928 0.63532 0.0
O550 O 0.98886 0.52854 0.4679 0.0
O551 O 0.96972 0.49827 0.53237 0.0
O552 O 0.03501 0.5648 0.46392 0.0
O553 O 0.0553 0.53543 0.447 0.0
O554 O 0.01964 0.56201 0.58848 0.0
O555 O 0.00693 0.52775 0.61596 0.0
O556 O 0.03195 0.4979 0.66172 0.0
O557 O 0.05409 0.51858 0.57926 0.0
C558 C 0.96968 0.51418 0.48431 0.0
C559 C 0.05252 0.50768 0.63766 0.0
C560 C 0.15334 0.98751 0.26388 0.0
C561 C 0.16515 0.00707 0.2306 0.0
C562 C 0.1342 0.99014 0.30771 0.0
C563 C 0.12613 0.01288 0.31825 0.0
C564 C 0.13704 0.03252 0.28203 0.0
C565 C 0.15644 0.0294 0.23876 0.0
C566 C 0.12324 0.96863 0.34483 0.0
C567 C 0.12875 0.05698 0.29077 0.0
C568 C 0.06595 0.01104 0.40788 0.0
C569 C 0.0728 0.015 0.47467 0.0
C570 C 0.08298 0.01169 0.35578 0.0
C571 C 0.10751 0.01605 0.37079 0.0
C572 C 0.11437 0.02102 0.43792 0.0
C573 C 0.09698 0.02058 0.48876 0.0
C574 C 0.07477 0.00674 0.28499 0.0
C575 C 0.14022 0.0256 0.45667 0.0
H576 H 0.15938 0.97 0.25659 0.0
H577 H 0.16532 0.04462 0.21323 0.0
H578 H 0.12605 0.97149 0.39928 0.0
H579 H 0.1038 0.9661 0.33658 0.0
H580 H 0.13091 0.95201 0.32915 0.0
H581 H 0.13708 0.06972 0.2537 0.0
H582 H 0.10916 0.05601 0.28598 0.0
H583 H 0.13326 0.06408 0.34161 0.0
H584 H 0.0473 0.00687 0.39643 0.0
H585 H 0.10246 0.02382 0.54011 0.0
H586 H 0.07944 0.98893 0.26828 0.0
H587 H 0.08386 0.02004 0.25079 0.0
H588 H 0.05526 0.00705 0.28028 0.0
H589 H 0.14917 0.00925 0.44685 0.0
H590 H 0.14259 0.03084 0.51014 0.0
H591 H 0.14928 0.0399 0.4256 0.0
C592 C 0.49754 0.14029 0.17211 0.0
C593 C 0.47759 0.15287 0.18195 0.0
C594 C 0.50162 0.12115 0.21339 0.0
C595 C 0.48541 0.11444 0.26585 0.0
C596 C 0.46482 0.12651 0.27428 0.0
C597 C 0.46111 0.14537 0.23215 0.0
C598 C 0.52367 0.10861 0.20224 0.0
C599 C 0.44704 0.12005 0.32938 0.0
C600 C 0.48529 0.05495 0.35435 0.0
C601 C 0.49801 0.06172 0.41269 0.0
C602 C 0.48159 0.07173 0.30522 0.0
C603 C 0.49058 0.09594 0.31483 0.0
C604 C 0.50352 0.10282 0.37343 0.0
C605 C 0.50714 0.08568 0.42129 0.0
C606 C 0.46787 0.06359 0.24328 0.0
C607 C 0.51319 0.12844 0.38629 0.0
H608 H 0.51037 0.14589 0.13359 0.0
H609 H 0.44529 0.15449 0.23915 0.0
H610 H 0.53576 0.11226 0.2453 0.0
H611 H 0.51899 0.08903 0.19901 0.0
H612 H 0.53339 0.11446 0.156 0.0
H613 H 0.43142 0.13043 0.32744 0.0
H614 H 0.44074 0.10079 0.32618 0.0
H615 H 0.45566 0.12343 0.37865 0.0
H616 H 0.47828 0.03649 0.34683 0.0
H617 H 0.51696 0.09122 0.46606 0.0
H618 H 0.47846 0.06879 0.19802 0.0
H619 H 0.4513 0.07248 0.24132 0.0
H620 H 0.46311 0.04398 0.24155 0.0
H621 H 0.52489 0.13492 0.34431 0.0
H622 H 0.52344 0.13081 0.43337 0.0
H623 H 0.49834 0.13986 0.38928 0.0
C624 C 0.37968 0.53761 0.26195 0.0
C625 C 0.35616 0.5279 0.27276 0.0
C626 C 0.39808 0.53264 0.30453 0.0
C627 C 0.39292 0.51768 0.35993 0.0
C628 C 0.36949 0.50645 0.36826 0.0
C629 C 0.35138 0.5117 0.32455 0.0
C630 C 0.42277 0.54473 0.29279 0.0
C631 C 0.3632 0.49012 0.4259 0.0
C632 C 0.44655 0.49884 0.45304 0.0
C633 C 0.44911 0.5159 0.50503 0.0
C634 C 0.42776 0.49847 0.40715 0.0
C635 C 0.41146 0.51593 0.4123 0.0
C636 C 0.41375 0.53285 0.46582 0.0
C637 C 0.43235 0.53245 0.51179 0.0
C638 C 0.42573 0.47972 0.35232 0.0
C639 C 0.39689 0.55183 0.47358 0.0
H640 H 0.38344 0.55023 0.22212 0.0
H641 H 0.33319 0.50439 0.33368 0.0
H642 H 0.4274 0.55791 0.33366 0.0
H643 H 0.43597 0.53148 0.29335 0.0
H644 H 0.42436 0.55412 0.24447 0.0
H645 H 0.34528 0.48028 0.42037 0.0
H646 H 0.37646 0.47705 0.43044 0.0
H647 H 0.3635 0.50077 0.47312 0.0
H648 H 0.45907 0.48558 0.44874 0.0
H649 H 0.43418 0.5456 0.55213 0.0
H650 H 0.40698 0.47237 0.34503 0.0
H651 H 0.4364 0.4648 0.36301 0.0
H652 H 0.43213 0.48796 0.30481 0.0
H653 H 0.39845 0.56352 0.42949 0.0
H654 H 0.40046 0.56308 0.51923 0.0
H655 H 0.37829 0.54349 0.47583 0.0
C656 C 0.03137 0.38004 0.20392 0.0
C657 C 0.05415 0.38015 0.17598 0.0
C658 C 0.02529 0.39918 0.24466 0.0
C659 C 0.0424 0.4189 0.25738 0.0
C660 C 0.06445 0.42021 0.22282 0.0
C661 C 0.07014 0.40073 0.18301 0.0
C662 C 1.00153 0.39698 0.28004 0.0
C663 C 0.08308 0.441 0.23355 0.0
C664 C 0.02413 0.4705 0.36747 0.0
C665 C 0.03105 0.46366 0.43078 0.0
C666 C 0.02815 0.45652 0.30991 0.0
C667 C 0.03924 0.43521 0.31605 0.0
C668 C 0.04698 0.42882 0.3797 0.0
C669 C 0.04288 0.44311 0.4359 0.0
C670 C 0.01989 0.46414 0.24304 0.0
C671 C 0.059 0.40639 0.389 0.0
H672 H 0.01911 0.36402 0.1994 0.0
H673 H 0.08786 0.40075 0.16191 0.0
H674 H 1.00401 0.39226 0.33287 0.0
H675 H 0.9936 0.41416 0.28006 0.0
H676 H 0.98887 0.38297 0.25664 0.0
H677 H 0.09691 0.44178 0.19366 0.0
H678 H 0.07496 0.45809 0.2352 0.0
H679 H 0.09186 0.43916 0.28219 0.0
H680 H 0.01493 0.48633 0.36316 0.0
H681 H 0.0484 0.43778 0.48457 0.0
H682 H 1.00462 0.45166 0.22612 0.0
H683 H 0.0342 0.46343 0.20498 0.0
H684 H 0.01429 0.48246 0.24519 0.0
H685 H 0.04686 0.39057 0.37358 0.0
H686 H 0.06426 0.40416 0.4416 0.0
H687 H 0.07511 0.40669 0.3569 0.0
C688 C 0.88176 0.96006 0.91887 0.0
C689 C 0.86489 0.97643 0.92927 0.0
C690 C 0.90172 0.96533 0.87722 0.0
C691 C 0.90497 0.98754 0.84479 0.0
C692 C 0.88921 0.00497 0.86017 0.0
C693 C 0.86937 0.9992 0.90222 0.0
C694 C 0.91806 0.94623 0.86317 0.0
C695 C 0.89206 0.02898 0.82754 0.0
C696 C 0.96238 0.00454 0.74579 0.0
C697 C 0.95543 0.9981 0.68023 0.0
C698 C 0.94628 1.00125 0.79994 0.0
C699 C 0.92264 0.99122 0.78844 0.0
C700 C 0.9157 0.98441 0.72234 0.0
C701 C 0.93211 0.98794 0.66928 0.0
C702 C 0.95451 0.00867 0.86936 0.0
C703 C 0.89081 0.97344 0.70747 0.0
H704 H 0.87829 0.94235 0.93917 0.0
H705 H 0.85625 0.01179 0.90907 0.0
H706 H 0.91454 0.93852 0.8124 0.0
H707 H 0.93692 0.95382 0.8643 0.0
H708 H 0.91546 0.93159 0.89965 0.0
H709 H 0.88078 0.04169 0.85194 0.0
H710 H 0.91086 0.03676 0.82907 0.0
H711 H 0.88696 0.0268 0.77425 0.0
H712 H 0.98036 0.01243 0.75473 0.0
H713 H 0.9266 0.98284 0.61889 0.0
H714 H 0.95215 0.99316 0.90286 0.0
H715 H 0.94352 0.02231 0.89011 0.0
H716 H 0.97346 0.01608 0.87016 0.0
H717 H 0.88678 0.95691 0.73635 0.0
H718 H 0.88822 0.969 0.65358 0.0
H719 H 0.87778 0.98592 0.72322 0.0
C720 C 0.52655 0.88276 0.95846 0.0
C721 C 0.54403 0.86747 0.94332 0.0
C722 C 0.52299 0.90197 0.91679 0.0
C723 C 0.53704 0.90586 0.85815 0.0
C724 C 0.55528 0.89106 0.84415 0.0
C725 C 0.55873 0.87236 0.88713 0.0
C726 C 0.5037 0.91765 0.93438 0.0
C727 C 0.57064 0.89435 0.78219 0.0
C728 C 0.51122 0.9349 0.7088 0.0
C729 C 0.52359 0.95777 0.70981 0.0
C730 C 0.51523 0.91805 0.75717 0.0
C731 C 0.53177 0.92423 0.80884 0.0
C732 C 0.5441 0.94742 0.81079 0.0
C733 C 0.54002 0.96382 0.761 0.0
C734 C 0.50209 0.8934 0.75205 0.0
C735 C 0.56166 0.9549 0.86533 0.0
H736 H 0.51514 0.87928 1.00168 0.0
H737 H 0.57285 0.86127 0.87592 0.0
H738 H 0.51079 0.93671 0.93268 0.0
H739 H 0.48927 0.91479 0.89713 0.0
H740 H 0.49598 0.9139 0.98476 0.0
H741 H 0.58459 0.88186 0.77961 0.0
H742 H 0.55941 0.89142 0.73709 0.0
H743 H 0.57935 0.91285 0.7805 0.0
H744 H 0.49856 0.92996 0.66943 0.0
H745 H 0.54959 0.98148 0.76256 0.0
H746 H 0.49193 0.88928 0.79875 0.0
H747 H 0.51498 0.87994 0.74579 0.0
H748 H 0.4896 0.89149 0.70943 0.0
H749 H 0.55306 0.95206 0.91498 0.0
H750 H 0.56887 0.97391 0.86182 0.0
H751 H 0.57669 0.94374 0.86258 0.0
C752 C 0.66174 0.47622 0.79699 0.0
C753 C 0.67465 0.49567 0.82961 0.0
C754 C 0.64288 0.47931 0.75396 0.0
C755 C 0.63587 0.50239 0.74449 0.0
C756 C 0.6483 0.52211 0.77857 0.0
C757 C 0.66761 0.51855 0.82011 0.0
C758 C 0.63069 0.45778 0.71766 0.0
C759 C 0.64185 0.54716 0.77002 0.0
C760 C 0.59968 0.51148 0.58817 0.0
C761 C 0.57629 0.50706 0.612 0.0
C762 C 0.61923 0.51055 0.63086 0.0
C763 C 0.61537 0.50549 0.69945 0.0
C764 C 0.59176 0.50179 0.72412 0.0
C765 C 0.57259 0.5022 0.68004 0.0
C766 C 0.64404 0.51429 0.60216 0.0
C767 C 0.58673 0.49703 0.79708 0.0
H768 H 0.66638 0.45833 0.80492 0.0
H769 H 0.67745 0.53383 0.84405 0.0
H770 H 0.61176 0.45498 0.73303 0.0
H771 H 0.63118 0.46076 0.66302 0.0
H772 H 0.63908 0.44125 0.72756 0.0
H773 H 0.64645 0.55837 0.81519 0.0
H774 H 0.65214 0.55532 0.72741 0.0
H775 H 0.6227 0.54754 0.75945 0.0
H776 H 0.60274 0.51513 0.53568 0.0
H777 H 0.55463 0.49836 0.69892 0.0
H778 H 0.65352 0.49836 0.61093 0.0
H779 H 0.65414 0.52967 0.62779 0.0
H780 H 0.64412 0.51765 0.54769 0.0
H781 H 0.59257 0.47956 0.81025 0.0
H782 H 0.56755 0.49686 0.80966 0.0
H783 H 0.59691 0.51085 0.82853 0.0
C784 C 0.9908 0.63479 0.94466 0.0
C785 C 0.96665 0.63588 0.95901 0.0
C786 C 0.99836 0.61629 0.90378 0.0
C787 C 0.98132 0.5987 0.87609 0.0
C788 C 0.95733 0.59821 0.89723 0.0
C789 C 0.95035 0.61667 0.9388 0.0
C790 C 0.02424 0.61708 0.88452 0.0
C791 C 0.93847 0.57991 0.86956 0.0
C792 C 0.99262 0.58289 0.69408 0.0
C793 C 0.99979 0.5599 0.69718 0.0
C794 C 0.98613 0.59525 0.75169 0.0
C795 C 0.9874 0.58468 0.81498 0.0
C796 C 0.99432 0.56121 0.81856 0.0
C797 C 1.00022 0.54895 0.75932 0.0
C798 C 0.97825 0.61989 0.74461 0.0
C799 C 0.99643 0.54947 0.88491 0.0
H800 H 1.00353 0.6495 0.9601 0.0
H801 H 0.93166 0.61724 0.95051 0.0
H802 H 0.03006 0.59888 0.88275 0.0
H803 H 0.02689 0.62464 0.83393 0.0
H804 H 0.03568 0.62836 0.91992 0.0
H805 H 0.92183 0.57914 0.89971 0.0
H806 H 0.93431 0.58464 0.81775 0.0
H807 H 0.94478 0.56193 0.86757 0.0
H808 H 0.99226 0.5914 0.64606 0.0
H809 H 0.00616 0.53131 0.76192 0.0
H810 H 0.99094 0.63323 0.77038 0.0
H811 H 0.96058 0.62078 0.76852 0.0
H812 H 0.9771 0.62503 0.69158 0.0
H813 H 0.99886 0.53024 0.87896 0.0
H814 H 0.98051 0.55135 0.91652 0.0
H815 H 0.01196 0.55845 0.91198 0.0
C816 C 0.03789 0.17867 0.2977 0.0
C817 C 0.06166 0.18045 0.31775 0.0
C818 C 0.02242 0.15833 0.31134 0.0
C819 C 0.03084 0.13971 0.34754 0.0
C820 C 0.05447 0.14213 0.37168 0.0
C821 C 0.0698 0.16232 0.35515 0.0
C822 C 0.99752 0.15626 0.28412 0.0
C823 C 0.06412 0.12298 0.41205 0.0
C824 C 0.9886 0.09215 0.42814 0.0
C825 C 0.99411 0.07188 0.39196 0.0
C826 C 0.99958 0.11478 0.4127 0.0
C827 C 0.01546 0.11716 0.35758 0.0
C828 C 0.01852 0.09712 0.31573 0.0
C829 C 0.00815 0.07456 0.33422 0.0
C830 C 0.99497 0.13557 0.45813 0.0
C831 C 0.03409 0.09921 0.25406 0.0
H832 H 0.03179 0.19258 0.26757 0.0
H833 H 0.08826 0.16367 0.36994 0.0
H834 H 0.99424 0.13974 0.2531 0.0
H835 H 0.9845 0.15497 0.32595 0.0
H836 H 0.99423 0.17175 0.25336 0.0
H837 H 0.07884 0.1306 0.44475 0.0
H838 H 0.05019 0.11337 0.44358 0.0
H839 H 0.07129 0.10979 0.37758 0.0
H840 H 0.97754 0.09016 0.47261 0.0
H841 H 0.01228 0.05887 0.30598 0.0
H842 H 0.97852 0.14283 0.44187 0.0
H843 H 0.00963 0.15018 0.45759 0.0
H844 H 0.99201 0.12971 0.51048 0.0
H845 H 0.03099 0.11533 0.22584 0.0
H846 H 0.03087 0.08331 0.22049 0.0
H847 H 0.05302 0.10095 0.26888 0.0
C848 C 0.34152 0.89514 0.29888 0.0
C849 C 0.34069 0.90692 0.23798 0.0
C850 C 0.3616 0.89893 0.3399 0.0
C851 C 0.38111 0.91493 0.31949 0.0
C852 C 0.38125 0.92502 0.25541 0.0
C853 C 0.36108 0.92092 0.21558 0.0
C854 C 0.3611 0.88735 0.40722 0.0
C855 C 0.40171 0.94218 0.23148 0.0
C856 C 0.41508 0.95721 0.44084 0.0
C857 C 0.43746 0.94875 0.4391 0.0
C858 C 0.39607 0.94534 0.40548 0.0
C859 C 0.39955 0.92441 0.36789 0.0
C860 C 0.42172 0.9149 0.36967 0.0
C861 C 0.44054 0.92731 0.40506 0.0
C862 C 0.3727 0.95611 0.40491 0.0
C863 C 0.42595 0.89241 0.33128 0.0
H864 H 0.32601 0.884 0.31612 0.0
H865 H 0.36069 0.93046 0.16926 0.0
H866 H 0.37869 0.88151 0.41907 0.0
H867 H 0.35684 0.90048 0.44637 0.0
H868 H 0.34748 0.87174 0.40955 0.0
H869 H 0.40028 0.94621 0.17769 0.0
H870 H 0.40202 0.95915 0.26064 0.0
H871 H 0.41888 0.93485 0.23946 0.0
H872 H 0.41264 0.97366 0.46781 0.0
H873 H 0.45782 0.92061 0.40442 0.0
H874 H 0.35784 0.94245 0.41679 0.0
H875 H 0.36956 0.96272 0.35425 0.0
H876 H 0.37231 0.97122 0.44124 0.0
H877 H 0.41063 0.87866 0.33693 0.0
H878 H 0.4423 0.88497 0.34789 0.0
H879 H 0.42791 0.89635 0.27734 0.0
C880 C 0.44251 0.36462 0.1525 0.0
C881 C 0.42656 0.35269 0.19782 0.0
C882 C 0.45619 0.38576 0.17082 0.0
C883 C 0.45368 0.39534 0.23586 0.0
C884 C 0.43654 0.38426 0.2805 0.0
C885 C 0.42333 0.36284 0.26117 0.0
C886 C 0.47452 0.39677 0.12219 0.0
C887 C 0.43306 0.39438 0.34986 0.0
C888 C 0.5054 0.4297 0.32437 0.0
C889 C 0.49897 0.45299 0.32261 0.0
C890 C 0.49137 0.41085 0.29324 0.0
C891 C 0.47051 0.41553 0.25962 0.0
C892 C 0.46514 0.4393 0.25262 0.0
C893 C 0.47951 0.45783 0.2843 0.0
C894 C 0.49805 0.38576 0.30012 0.0
C895 C 0.44333 0.44498 0.2158 0.0
H896 H 0.44553 0.35658 0.10392 0.0
H897 H 0.41108 0.35361 0.29621 0.0
H898 H 0.47399 0.41635 0.12034 0.0
H899 H 0.4925 0.39354 0.1391 0.0
H900 H 0.47194 0.38914 0.0709 0.0
H901 H 0.41744 0.38508 0.37581 0.0
H902 H 0.44909 0.3927 0.38014 0.0
H903 H 0.43069 0.41364 0.34753 0.0
H904 H 0.52052 0.42593 0.35372 0.0
H905 H 0.47466 0.47591 0.28249 0.0
H906 H 0.49752 0.3764 0.25084 0.0
H907 H 0.48503 0.37561 0.33329 0.0
H908 H 0.51605 0.38543 0.32149 0.0
H909 H 0.44135 0.43474 0.168 0.0
H910 H 0.44387 0.46427 0.20506 0.0
H911 H 0.42732 0.43973 0.24665 0.0
C912 C 0.1798 0.61368 0.34412 0.0
C913 C 0.18233 0.62981 0.29108 0.0
C914 C 0.15748 0.60628 0.37167 0.0
C915 C 0.13697 0.61436 0.34394 0.0
C916 C 0.13938 0.63237 0.29558 0.0
C917 C 0.16211 0.64047 0.27146 0.0
C918 C 0.15577 0.58812 0.42644 0.0
C919 C 0.11794 0.64143 0.26445 0.0
C920 C 0.08583 0.56563 0.34964 0.0
C921 C 0.07222 0.57359 0.40249 0.0
C922 C 0.10602 0.57975 0.3267 0.0
C923 C 0.11331 0.60171 0.35984 0.0
C924 C 0.09918 0.61006 0.41219 0.0
C925 C 0.07849 0.59605 0.43202 0.0
C926 C 0.12013 0.57063 0.26897 0.0
C927 C 0.1068 0.63275 0.45092 0.0
H928 H 0.1948 0.60514 0.36136 0.0
H929 H 0.16361 0.65403 0.23379 0.0
H930 H 0.14257 0.59246 0.46498 0.0
H931 H 0.14978 0.57025 0.40502 0.0
H932 H 0.17314 0.58713 0.45099 0.0
H933 H 0.1227 0.65798 0.23605 0.0
H934 H 0.10961 0.62756 0.22954 0.0
H935 H 0.10442 0.64494 0.30285 0.0
H936 H 0.08089 0.54823 0.327 0.0
H937 H 0.06809 0.60197 0.47378 0.0
H938 H 0.13706 0.56502 0.28754 0.0
H939 H 0.12463 0.58496 0.23241 0.0
H940 H 0.11032 0.55515 0.2428 0.0
H941 H 0.12133 0.62945 0.48523 0.0
H942 H 0.09198 0.63894 0.48121 0.0
H943 H 0.11379 0.64723 0.41725 0.0
C944 C 0.95025 0.85441 0.79341 0.0
C945 C 0.95751 0.83643 0.83305 0.0
C946 C 0.96606 0.87441 0.77813 0.0
C947 C 0.98916 0.87681 0.80601 0.0
C948 C 0.99661 0.85842 0.84511 0.0
C949 C 0.98077 0.83826 0.85732 0.0
C950 C 0.95763 0.8933 0.73431 0.0
C951 C 0.02088 0.86052 0.87652 0.0
C952 C 0.03427 0.9226 0.72881 0.0
C953 C 0.02893 0.94334 0.76299 0.0
C954 C 0.02209 0.90044 0.74364 0.0
C955 C 1.0051 0.89899 0.79618 0.0
C956 C 1.00194 0.91945 0.83619 0.0
C957 C 0.01364 0.94154 0.81836 0.0
C958 C 0.02676 0.87913 0.70033 0.0
C959 C 0.98505 0.91834 0.89515 0.0
H960 H 0.93214 0.85301 0.77552 0.0
H961 H 0.98611 0.82446 0.88921 0.0
H962 H 0.95172 0.90792 0.76618 0.0
H963 H 0.97209 0.90109 0.70114 0.0
H964 H 0.94241 0.88602 0.70294 0.0
H965 H 0.02325 0.84537 0.90956 0.0
H966 H 0.03474 0.86112 0.83693 0.0
H967 H 0.02378 0.87738 0.90625 0.0
H968 H 0.04625 0.92392 0.68614 0.0
H969 H 0.0096 0.95759 0.84498 0.0
H970 H 0.01137 0.8653 0.69822 0.0
H971 H 0.0421 0.87095 0.72073 0.0
H972 H 0.03153 0.88458 0.6485 0.0
H973 H 0.96648 0.91668 0.87713 0.0
H974 H 0.9878 0.93458 0.92759 0.0
H975 H 0.98724 0.90249 0.9256 0.0
C976 C 0.68494 0.00566 0.76171 0.0
C977 C 0.67688 0.98153 0.75089 0.0
C978 C 0.67119 0.02368 0.74316 0.0
C979 C 0.64904 0.01731 0.71251 0.0
C980 C 0.64196 0.9931 0.69545 0.0
C981 C 0.65588 0.97542 0.7157 0.0
C982 C 0.6794 0.0492 0.76223 0.0
C983 C 0.61877 0.98569 0.66048 0.0
C984 C 0.59324 0.04657 0.74208 0.0
C985 C 0.58952 0.0546 0.67776 0.0
C986 C 0.61421 0.03664 0.75693 0.0
C987 C 0.63165 0.03505 0.70625 0.0
C988 C 0.62959 0.04681 0.64528 0.0
C989 C 0.60844 0.05666 0.63179 0.0
C990 C 0.61616 0.02502 0.82364 0.0
C991 C 0.64819 0.04625 0.591 0.0
H992 H 0.70108 0.01041 0.78977 0.0
H993 H 0.64974 0.95676 0.70729 0.0
H994 H 0.67424 0.06177 0.72442 0.0
H995 H 0.67094 0.05377 0.81039 0.0
H996 H 0.69897 0.05189 0.76869 0.0
H997 H 0.6172 0.96663 0.64434 0.0
H998 H 0.60372 0.98848 0.69474 0.0
H999 H 0.61704 0.99676 0.61594 0.0
H1000 H 0.57877 0.04537 0.77815 0.0
H1001 H 0.60575 0.06337 0.58238 0.0
H1002 H 0.63443 0.02857 0.84346 0.0
H1003 H 0.6122 0.00541 0.81734 0.0
H1004 H 0.60348 0.03138 0.86099 0.0
H1005 H 0.66634 0.04807 0.61205 0.0
H1006 H 0.64687 0.0606 0.55443 0.0
H1007 H 0.6456 0.02885 0.56401 0.0
C1008 C 0.58759 0.64991 0.96402 0.0
C1009 C 0.5969 0.66562 0.91433 0.0
C1010 C 0.57663 0.62723 0.94752 0.0
C1011 C 0.57445 0.62025 0.87967 0.0
C1012 C 0.58498 0.63533 0.82945 0.0
C1013 C 0.5963 0.65779 0.84749 0.0
C1014 C 0.56621 0.61133 0.0025 0.0
C1015 C 0.58321 0.62829 0.75637 0.0
C1016 C 0.5588 0.55787 0.81308 0.0
C1017 C 0.53513 0.5588 0.79487 0.0
C1018 C 0.57128 0.57698 0.84728 0.0
C1019 C 0.56002 0.59783 0.8603 0.0
C1020 C 0.53552 0.59809 0.8467 0.0
C1021 C 0.52319 0.57827 0.81478 0.0
C1022 C 0.59701 0.57556 0.86395 0.0
C1023 C 0.52294 0.6201 0.85974 0.0
H1024 H 0.58748 0.65577 0.01584 0.0
H1025 H 0.60375 0.66962 0.80897 0.0
H1026 H 0.54658 0.61082 1.00221 0.0
H1027 H 0.57073 0.5928 0.99438 0.0
H1028 H 0.57261 0.61776 0.05258 0.0
H1029 H 0.59282 0.64182 0.72371 0.0
H1030 H 0.59057 0.611 0.74751 0.0
H1031 H 0.56427 0.62589 0.74143 0.0
H1032 H 0.568 0.54282 0.79687 0.0
H1033 H 0.50496 0.57901 0.79951 0.0
H1034 H 0.60174 0.5848 0.9121 0.0
H1035 H 0.60839 0.58442 0.82443 0.0
H1036 H 0.6011 0.55676 0.86697 0.0
H1037 H 0.50343 0.61656 0.85306 0.0
H1038 H 0.52982 0.6342 0.82463 0.0
H1039 H 0.52647 0.62716 0.91112 0.0
C1040 C 0.84998 0.38191 0.78145 0.0
C1041 C 0.84645 0.38707 0.84964 0.0
C1042 C 0.8719 0.38858 0.75 0.0
C1043 C 0.89096 0.39967 0.78824 0.0
C1044 C 0.88876 0.40099 0.85839 0.0
C1045 C 0.86655 0.39503 0.88814 0.0
C1046 C 0.87367 0.38639 0.67495 0.0
C1047 C 0.90896 0.41181 0.90153 0.0
C1048 C 0.95102 0.42083 0.71149 0.0
C1049 C 0.9486 0.44508 0.70306 0.0
C1050 C 0.93226 0.40548 0.73795 0.0
C1051 C 0.91063 0.41468 0.75538 0.0
C1052 C 0.90809 0.43913 0.74581 0.0
C1053 C 0.92719 0.45405 0.72037 0.0
C1054 C 0.93581 0.37968 0.74875 0.0
C1055 C 0.88524 0.44967 0.76313 0.0
H1056 H 0.83521 0.37446 0.75121 0.0
H1057 H 0.86491 0.39908 0.94082 0.0
H1058 H 0.87106 0.40383 0.65291 0.0
H1059 H 0.89143 0.38168 0.65893 0.0
H1060 H 0.8599 0.37282 0.6545 0.0
H1061 H 0.90634 0.40672 0.95461 0.0
H1062 H 0.92618 0.40623 0.88363 0.0
H1063 H 0.91001 0.43153 0.89912 0.0
H1064 H 0.96761 0.4139 0.69782 0.0
H1065 H 0.92522 0.47275 0.71314 0.0
H1066 H 0.92031 0.36777 0.73064 0.0
H1067 H 0.93742 0.37665 0.803 0.0
H1068 H 0.95208 0.37452 0.72321 0.0
H1069 H 0.87005 0.43931 0.73793 0.0
H1070 H 0.88568 0.4686 0.74837 0.0
H1071 H 0.88191 0.44872 0.81775 0.0
C1072 C 0.03498 0.18408 0.79996 0.0
C1073 C 0.05856 0.1936 0.81002 0.0
C1074 C 0.02969 0.16207 0.76593 0.0
C1075 C 0.04842 0.14937 0.74113 0.0
C1076 C 0.07217 0.15976 0.7473 0.0
C1077 C 0.07693 0.18165 0.78177 0.0
C1078 C 1.00413 0.15174 0.76016 0.0
C1079 C 0.09269 0.14713 0.72075 0.0
C1080 C 0.03868 0.08141 0.72908 0.0
C1081 C 0.03437 0.07732 0.66075 0.0
C1082 C 0.04309 0.10472 0.75575 0.0
C1083 C 0.04342 0.12454 0.71313 0.0
C1084 C 0.0394 0.12055 0.64398 0.0
C1085 C 0.03479 0.09707 0.61873 0.0
C1086 C 0.04729 0.10813 0.82981 0.0
C1087 C 0.0398 0.14109 0.59668 0.0
H1088 H 0.02074 0.19305 0.82244 0.0
H1089 H 0.09519 0.18895 0.78947 0.0
H1090 H 1.00009 0.14599 0.70787 0.0
H1091 H 1.00106 0.1357 0.79156 0.0
H1092 H 0.99158 0.16467 0.77641 0.0
H1093 H 0.10985 0.15855 0.72391 0.0
H1094 H 0.09413 0.13081 0.74984 0.0
H1095 H 0.08962 0.14146 0.66792 0.0
H1096 H 0.03827 0.06638 0.76211 0.0
H1097 H 0.03145 0.09424 0.56581 0.0
H1098 H 0.03398 0.11918 0.85202 0.0
H1099 H 0.06508 0.11782 0.83854 0.0
H1100 H 0.04619 0.09094 0.85635 0.0
H1101 H 0.02474 0.15165 0.60839 0.0
H1102 H 0.03846 0.135 0.54374 0.0
H1103 H 0.05639 0.15319 0.60275 0.0
C1104 C 0.36011 0.02014 0.85303 0.0
C1105 C 0.33987 0.01164 0.81664 0.0
C1106 C 0.38243 0.02473 0.82135 0.0
C1107 C 0.38454 0.02117 0.75126 0.0
C1108 C 0.36378 0.01415 0.7138 0.0
C1109 C 0.34181 0.00916 0.74699 0.0
C1110 C 0.40402 0.03177 0.86362 0.0
C1111 C 0.36496 0.01066 0.63897 0.0
C1112 C 0.4424 0.04602 0.66542 0.0
C1113 C 0.45458 0.02564 0.65832 0.0
C1114 C 0.41948 0.04481 0.69432 0.0
C1115 C 0.4086 0.02278 0.71811 0.0
C1116 C 0.42085 1.00214 0.71074 0.0
C1117 C 0.4435 0.00376 0.68033 0.0
C1118 C 0.40691 0.06713 0.69952 0.0
C1119 C 0.4102 0.97833 0.73607 0.0
H1120 H 0.35881 0.02155 0.907 0.0
H1121 H 0.32627 1.00231 0.71876 0.0
H1122 H 0.41564 0.01706 0.86276 0.0
H1123 H 0.41451 0.04769 0.84304 0.0
H1124 H 0.39924 0.03569 0.91635 0.0
H1125 H 0.34703 0.00825 0.6163 0.0
H1126 H 0.37535 0.02616 0.61576 0.0
H1127 H 0.37417 0.99467 0.62668 0.0
H1128 H 0.4508 0.06296 0.64817 0.0
H1129 H 0.45279 0.98793 0.67517 0.0
H1130 H 0.40358 0.07161 0.75274 0.0
H1131 H 0.38937 0.06411 0.67486 0.0
H1132 H 0.41731 0.08264 0.67627 0.0
H1133 H 0.4063 0.97979 0.79033 0.0
H1134 H 0.42216 0.96408 0.72779 0.0
H1135 H 0.39314 0.97289 0.71065 0.0
C1136 C 0.48724 0.32613 0.73963 0.0
C1137 C 0.46455 0.32125 0.76835 0.0
C1138 C 0.49453 0.34866 0.71228 0.0
C1139 C 0.47876 0.36671 0.71324 0.0
C1140 C 0.45593 0.36185 0.74199 0.0
C1141 C 0.4493 0.33951 0.76978 0.0
C1142 C 0.51919 0.35327 0.68298 0.0
C1143 C 0.43843 0.3804 0.74422 0.0
C1144 C 0.49942 0.43311 0.70412 0.0
C1145 C 0.49456 0.43813 0.63754 0.0
C1146 C 0.49542 0.40978 0.72848 0.0
C1147 C 0.48594 0.39093 0.68568 0.0
C1148 C 0.48121 0.39583 0.61824 0.0
C1149 C 0.48573 0.41927 0.59492 0.0
C1150 C 0.50097 0.4054 0.8005 0.0
C1151 C 0.4707 0.37644 0.57112 0.0
H1152 H 0.49928 0.31239 0.73834 0.0
H1153 H 0.43211 0.33662 0.79415 0.0
H1154 H 0.51816 0.35827 0.62989 0.0
H1155 H 0.52911 0.3685 0.7098 0.0
H1156 H 0.52936 0.33749 0.68598 0.0
H1157 H 0.42095 0.37343 0.7655 0.0
H1158 H 0.44564 0.39601 0.77491 0.0
H1159 H 0.43562 0.38682 0.69318 0.0
H1160 H 0.50658 0.44742 0.7373 0.0
H1161 H 0.48195 0.42286 0.54336 0.0
H1162 H 0.51228 0.39051 0.80371 0.0
H1163 H 0.48428 0.40008 0.8283 0.0
H1164 H 0.51019 0.42143 0.82561 0.0
H1165 H 0.4816 0.36117 0.57056 0.0
H1166 H 0.46939 0.38279 0.51925 0.0
H1167 H 0.45265 0.36971 0.58875 0.0
C1168 C 0.17783 0.50173 0.82981 0.0
C1169 C 0.17696 0.51629 0.88725 0.0
C1170 C 0.15782 0.49722 0.7879 0.0
C1171 C 0.1366 0.50774 0.80338 0.0
C1172 C 0.13538 0.52141 0.8631 0.0
C1173 C 0.15532 0.52515 0.90446 0.0
C1174 C 0.15967 0.48194 0.72579 0.0
C1175 C 0.11336 0.53316 0.88188 0.0
C1176 C 0.09442 0.52324 0.66697 0.0
C1177 C 0.07456 0.50664 0.67733 0.0
C1178 C 0.11497 0.52327 0.70605 0.0
C1179 C 0.11606 0.50593 0.75598 0.0
C1180 C 0.09644 0.4885 0.76476 0.0
C1181 C 0.07586 0.48925 0.72606 0.0
C1182 C 0.13515 0.54254 0.69574 0.0
C1183 C 0.09697 0.46935 0.81613 0.0
H1184 H 0.19437 0.4947 0.81616 0.0
H1185 H 0.15421 0.5359 0.94967 0.0
H1186 H 0.14398 0.46851 0.72171 0.0
H1187 H 0.15991 0.49325 0.68106 0.0
H1188 H 0.17602 0.47258 0.72519 0.0
H1189 H 0.11507 0.54276 0.93085 0.0
H1190 H 0.10979 0.54611 0.84312 0.0
H1191 H 0.09771 0.51968 0.88414 0.0
H1192 H 0.09363 0.53677 0.62961 0.0
H1193 H 0.06076 0.47615 0.73394 0.0
H1194 H 0.15203 0.53451 0.68714 0.0
H1195 H 0.13738 0.55398 0.74143 0.0
H1196 H 0.13209 0.55399 0.65281 0.0
H1197 H 0.11366 0.46068 0.81133 0.0
H1198 H 0.08165 0.45547 0.8113 0.0
H1199 H 0.09656 0.47743 0.86702 0.0
C1200 C 0.94935 0.83396 0.36278 0.0
C1201 C 0.96746 0.82193 0.33336 0.0
C1202 C 0.95444 0.85567 0.39802 0.0
C1203 C 0.97829 0.86577 0.40409 0.0
C1204 C 0.99677 0.85294 0.37823 0.0
C1205 C 0.99115 0.83116 0.34323 0.0
C1206 C 0.93417 0.86838 0.4258 0.0
C1207 C 0.02244 0.86289 0.38424 0.0
C1208 C 0.98865 0.93371 0.41895 0.0
C1209 C 0.99297 0.93746 0.48743 0.0
C1210 C 0.98411 0.91053 0.39137 0.0
C1211 C 0.98362 0.89046 0.43314 0.0
C1212 C 0.98764 0.89412 0.50246 0.0
C1213 C 0.99245 0.91748 0.52861 0.0
C1214 C 0.97983 0.90753 0.31725 0.0
C1215 C 0.98714 0.87338 0.5491 0.0
H1216 H 0.931 0.82687 0.35554 0.0
H1217 H 1.00522 0.82212 0.32006 0.0
H1218 H 0.93733 0.87339 0.47906 0.0
H1219 H 0.93304 0.8851 0.39825 0.0
H1220 H 0.91684 0.8573 0.42178 0.0
H1221 H 0.03478 0.84997 0.3665 0.0
H1222 H 0.02566 0.87928 0.35435 0.0
H1223 H 0.02661 0.86797 0.43693 0.0
H1224 H 0.98912 0.94891 0.38652 0.0
H1225 H 0.99581 0.92004 0.5816 0.0
H1226 H 0.96194 0.89809 0.30833 0.0
H1227 H 0.99298 0.89641 0.29447 0.0
H1228 H 0.98111 0.92486 0.29137 0.0
H1229 H 0.97158 0.86023 0.53909 0.0
H1230 H 0.98649 0.8792 0.60227 0.0
H1231 H 1.00334 0.86413 0.54094 0.0
C1232 C 0.65265 0.99386 0.25263 0.0
C1233 C 0.67391 0.9867 0.27753 0.0
C1234 C 0.63281 0.99616 0.29408 0.0
C1235 C 0.6342 0.99203 0.36337 0.0
C1236 C 0.65618 0.98663 0.39 0.0
C1237 C 0.67571 0.98383 0.34674 0.0
C1238 C 0.60986 1.00161 0.26269 0.0
C1239 C 0.65891 0.98253 0.46358 0.0
C1240 C 0.58144 0.01235 0.46295 0.0
C1241 C 0.56656 0.99098 0.46848 0.0
C1242 C 0.60415 0.0128 0.43275 0.0
C1243 C 0.61201 0.99148 0.40572 0.0
C1244 C 0.59731 0.96978 0.41316 0.0
C1245 C 0.57499 0.96977 0.44489 0.0
C1246 C 0.61937 0.03626 0.4277 0.0
C1247 C 0.60471 0.94662 0.38487 0.0
H1248 H 0.65118 0.99679 0.19956 0.0
H1249 H 0.69197 0.97836 0.36683 0.0
H1250 H 0.59607 0.9864 0.26986 0.0
H1251 H 0.6033 0.01748 0.28729 0.0
H1252 H 0.61185 0.00494 0.20834 0.0
H1253 H 0.67758 0.98714 0.47944 0.0
H1254 H 0.64721 0.99305 0.49443 0.0
H1255 H 0.65404 0.96338 0.4738 0.0
H1256 H 0.57519 0.02884 0.48095 0.0
H1257 H 0.56375 0.95311 0.44923 0.0
H1258 H 0.61871 0.0429 0.37608 0.0
H1259 H 0.63818 0.03404 0.43869 0.0
H1260 H 0.61317 0.05 0.46232 0.0
H1261 H 0.6069 0.94786 0.32986 0.0
H1262 H 0.59155 0.93118 0.39598 0.0
H1263 H 0.6221 0.9432 0.4056 0.0
C1264 C 0.5293 0.68371 0.3316 0.0
C1265 C 0.54907 0.69792 0.35742 0.0
C1266 C 0.52233 0.66081 0.35666 0.0
C1267 C 0.5357 0.65162 0.4079 0.0
C1268 C 0.55477 0.66641 0.43676 0.0
C1269 C 0.56091 0.68942 0.41207 0.0
C1270 C 0.50135 0.64603 0.32597 0.0
C1271 C 0.56968 0.65744 0.49114 0.0
C1272 C 0.51314 0.59694 0.50857 0.0
C1273 C 0.52396 0.57865 0.4754 0.0
C1274 C 0.51599 0.62051 0.48564 0.0
C1275 C 0.53065 0.62622 0.4293 0.0
C1276 C 0.54151 0.60776 0.39534 0.0
C1277 C 0.53772 0.58416 0.41815 0.0
C1278 C 0.50342 0.63934 0.52209 0.0
C1279 C 0.55771 0.61306 0.33601 0.0
H1280 H 0.52003 0.68986 0.28921 0.0
H1281 H 0.57584 0.70037 0.43369 0.0
H1282 H 0.50767 0.63133 0.29521 0.0
H1283 H 0.4895 0.63781 0.36549 0.0
H1284 H 0.49088 0.65676 0.29364 0.0
H1285 H 0.58343 0.67138 0.50982 0.0
H1286 H 0.55829 0.65103 0.53379 0.0
H1287 H 0.57864 0.64207 0.47172 0.0
H1288 H 0.5022 0.59277 0.55235 0.0
H1289 H 0.54618 0.57015 0.39242 0.0
H1290 H 0.4932 0.64897 0.4863 0.0
H1291 H 0.51663 0.65267 0.54586 0.0
H1292 H 0.49109 0.63168 0.56139 0.0
H1293 H 0.54808 0.62141 0.29623 0.0
H1294 H 0.56473 0.59679 0.31494 0.0
H1295 H 0.57292 0.626 0.351 0.0
C1296 C 0.86143 0.50815 0.22745 0.0
C1297 C 0.83942 0.50505 0.2605 0.0
C1298 C 0.88275 0.51288 0.26313 0.0
C1299 C 0.88206 0.51491 0.3338 0.0
C1300 C 0.85968 0.5137 0.3669 0.0
C1301 C 0.83864 0.50837 0.32998 0.0
C1302 C 0.90603 0.51347 0.22548 0.0
C1303 C 0.85798 0.51634 0.44185 0.0
C1304 C 0.93323 0.49347 0.4312 0.0
C1305 C 0.94749 0.51475 0.44538 0.0
C1306 C 0.91217 0.49334 0.39444 0.0
C1307 C 0.90456 0.51515 0.37309 0.0
C1308 C 0.91871 0.53678 0.38828 0.0
C1309 C 0.94022 0.53629 0.42316 0.0
C1310 C 0.89819 0.46975 0.37776 0.0
C1311 C 0.91096 0.56045 0.36847 0.0
H1312 H 0.86211 0.5049 0.17393 0.0
H1313 H 0.82171 0.50541 0.35582 0.0
H1314 H 0.91838 0.52895 0.242 0.0
H1315 H 0.91458 0.49712 0.23617 0.0
H1316 H 0.90362 0.51439 0.17064 0.0
H1317 H 0.86321 0.50003 0.46537 0.0
H1318 H 0.87032 0.5316 0.46 0.0
H1319 H 0.83967 0.51902 0.45871 0.0
H1320 H 0.93883 0.47675 0.44777 0.0
H1321 H 0.95105 0.55282 0.43453 0.0
H1322 H 0.89588 0.46777 0.32289 0.0
H1323 H 0.88022 0.4691 0.40062 0.0
H1324 H 0.90697 0.45435 0.39568 0.0
H1325 H 0.90944 0.56111 0.31339 0.0
H1326 H 0.92352 0.57571 0.38569 0.0
H1327 H 0.89312 0.56255 0.38988 0.0
loop_
_geom_bond_atom_site_label_1
_geom_bond_atom_site_label_2
_geom_bond_distance
_geom_bond_site_symmetry_2
_ccdc_geom_bond_type
C0 C1 1.391 . S
C0 C4 1.391 . S
C0 H42 0.948 . S
C1 C0 1.391 . S
C1 C2 1.391 . S
C2 C1 1.391 . S
C2 H58 0.947 . S
C2 C59 1.392 . S
C3 C4 1.391 . S
C3 C7 1.397 . S
C3 C59 1.419 . S
C4 C0 1.391 . S
C4 C3 1.391 . S
C4 C5 1.399 . S
C5 C4 1.399 . S
C5 C8 1.396 . S
C5 C17 1.453 . S
C5 C18 1.684 . S
H6 C30 0.948 . S
C7 C3 1.397 . S
C7 C8 1.394 . S
C7 C26 1.723 . S
C8 C5 1.396 . S
C8 C7 1.394 . S
C8 C38 1.723 . S
H9 C32 0.947 . S
H10 C33 0.948 . S
H11 C39 0.982 . S
H12 C40 0.979 . S
H13 C40 0.980 . S
H14 C40 0.983 . S
H15 C39 0.979 . S
H16 C39 0.977 . S
C17 C5 1.453 . S
C17 H46 0.982 . S
C17 H47 0.979 . S
C17 H48 0.977 . S
C18 C5 1.684 . S
C18 H43 0.979 . S
C18 H44 0.980 . S
C18 H45 0.983 . S
C19 C20 1.391 . S
C19 C24 1.391 . S
C19 H49 0.948 . S
C20 C19 1.391 . S
C20 C21 1.391 . S
C21 C20 1.391 . S
C21 C22 1.392 . S
C21 H50 0.947 . S
C22 C21 1.392 . S
C22 C23 1.419 . S
C22 H51 0.948 . S
C23 C22 1.419 . S
C23 C24 1.391 . S
C23 C27 1.397 . S
C24 C19 1.391 . S
C24 C23 1.391 . S
C24 C25 1.399 . S
C25 C24 1.399 . S
C25 C26 1.396 1_556 S
C25 C28 1.453 1_556 S
C25 C29 1.684 1_556 S
C26 C7 1.723 . S
C26 C25 1.396 1_554 S
C26 C27 1.394 1_554 S
C27 C23 1.397 . S
C27 C26 1.394 1_556 S
C27 C37 1.723 . S
C28 C25 1.453 1_554 S
C28 H52 0.982 . S
C28 H53 0.979 . S
C28 H54 0.977 . S
C29 C25 1.684 1_554 S
C29 H55 0.979 . S
C29 H56 0.980 . S
C29 H57 0.983 . S
C30 H6 0.948 . S
C30 C31 1.391 . S
C30 C35 1.391 . S
C31 C30 1.391 . S
C31 C32 1.391 1_556 S
C32 H9 0.947 . S
C32 C31 1.391 1_554 S
C32 C33 1.392 . S
C33 H10 0.948 . S
C33 C32 1.392 . S
C33 C34 1.419 . S
C34 C33 1.419 . S
C34 C35 1.391 1_554 S
C34 C38 1.397 . S
C35 C30 1.391 . S
C35 C34 1.391 1_556 S
C35 C36 1.399 . S
C36 C35 1.399 . S
C36 C37 1.396 . S
C36 C39 1.453 . S
C36 C40 1.684 . S
C37 C27 1.723 . S
C37 C36 1.396 . S
C37 C38 1.394 1_556 S
C38 C8 1.723 . S
C38 C34 1.397 . S
C38 C37 1.394 1_554 S
C39 H11 0.982 . S
C39 H15 0.979 . S
C39 H16 0.977 . S
C39 C36 1.453 . S
C40 H12 0.979 . S
C40 H13 0.980 . S
C40 H14 0.983 . S
C40 C36 1.684 . S
H41 C59 0.948 . S
H42 C0 0.948 . S
H43 C18 0.979 . S
H44 C18 0.980 . S
H45 C18 0.983 . S
H46 C17 0.982 . S
H47 C17 0.979 . S
H48 C17 0.977 . S
H49 C19 0.948 . S
H50 C21 0.947 . S
H51 C22 0.948 . S
H52 C28 0.982 . S
H53 C28 0.979 . S
H54 C28 0.977 . S
H55 C29 0.979 . S
H56 C29 0.980 . S
H57 C29 0.983 . S
H58 C2 0.947 . S
C59 C2 1.392 . S
C59 C3 1.419 . S
C59 H41 0.948 . S
C60 C61 1.391 . S
C60 C64 1.391 . S
C60 H102 0.948 . S
C61 C60 1.391 . S
C61 C62 1.391 . S
C62 C61 1.391 . S
C62 H118 0.947 . S
C62 C119 1.392 . S
C63 C64 1.391 . S
C63 C67 1.397 . S
C63 C119 1.419 . S
C64 C60 1.391 . S
C64 C63 1.391 . S
C64 C65 1.399 . S
C65 C64 1.399 . S
C65 C68 1.396 . S
C65 C77 1.453 . S
C65 C78 1.684 . S
H66 C90 0.948 1_554 S
C67 C63 1.397 . S
C67 C68 1.394 . S
C67 C86 1.723 1_556 S
C68 C65 1.396 . S
C68 C67 1.394 . S
C68 C98 1.723 . S
H69 C92 0.947 . S
H70 C93 0.948 . S
H71 C99 0.982 . S
H72 C100 0.979 . S
H73 C100 0.980 . S
H74 C100 0.983 . S
H75 C99 0.979 . S
H76 C99 0.977 . S
C77 C65 1.453 . S
C77 H106 0.982 . S
C77 H107 0.979 . S
C77 H108 0.977 . S
C78 C65 1.684 . S
C78 H103 0.979 . S
C78 H104 0.980 . S
C78 H105 0.983 . S
C79 C80 1.391 . S
C79 C84 1.391 . S
C79 H109 0.948 . S
C80 C79 1.391 . S
C80 C81 1.391 . S
C81 C80 1.391 . S
C81 C82 1.392 . S
C81 H110 0.947 . S
C82 C81 1.392 . S
C82 C83 1.419 . S
C82 H111 0.948 . S
C83 C82 1.419 . S
C83 C84 1.391 . S
C83 C87 1.397 . S
C84 C79 1.391 . S
C84 C83 1.391 . S
C84 C85 1.399 . S
C85 C84 1.399 . S
C85 C86 1.396 . S
C85 C88 1.453 . S
C85 C89 1.684 . S
C86 C67 1.723 1_554 S
C86 C85 1.396 . S
C86 C87 1.394 . S
C87 C83 1.397 . S
C87 C86 1.394 . S
C87 C97 1.723 . S
C88 C85 1.453 . S
C88 H112 0.982 . S
C88 H113 0.979 . S
C88 H114 0.977 . S
C89 C85 1.684 . S
C89 H115 0.979 . S
C89 H116 0.980 . S
C89 H117 0.983 . S
C90 H66 0.948 1_556 S
C90 C91 1.391 . S
C90 C95 1.391 1_556 S
C91 C90 1.391 . S
C91 C92 1.391 . S
C92 H69 0.947 . S
C92 C91 1.391 . S
C92 C93 1.392 . S
C93 H70 0.948 . S
C93 C92 1.392 . S
C93 C94 1.419 . S
C94 C93 1.419 . S
C94 C95 1.391 1_556 S
C94 C98 1.397 . S
C95 C90 1.391 1_554 S
C95 C94 1.391 1_554 S
C95 C96 1.399 . S
C96 C95 1.399 . S
C96 C97 1.396 . S
C96 C99 1.453 . S
C96 C100 1.684 . S
C97 C87 1.723 . S
C97 C96 1.396 . S
C97 C98 1.394 1_554 S
C98 C68 1.723 . S
C98 C94 1.397 . S
C98 C97 1.394 1_556 S
C99 H71 0.982 . S
C99 H75 0.979 . S
C99 H76 0.977 . S
C99 C96 1.453 . S
C100 H72 0.979 . S
C100 H73 0.980 . S
C100 H74 0.983 . S
C100 C96 1.684 . S
H101 C119 0.948 . S
H102 C60 0.948 . S
H103 C78 0.979 . S
H104 C78 0.980 . S
H105 C78 0.983 . S
H106 C77 0.982 . S
H107 C77 0.979 . S
H108 C77 0.977 . S
H109 C79 0.948 . S
H110 C81 0.947 . S
H111 C82 0.948 . S
H112 C88 0.982 . S
H113 C88 0.979 . S
H114 C88 0.977 . S
H115 C89 0.979 . S
H116 C89 0.980 . S
H117 C89 0.983 . S
H118 C62 0.947 . S
C119 C62 1.392 . S
C119 C63 1.419 . S
C119 H101 0.948 . S
C120 C121 1.391 1_554 S
C120 C124 1.391 . S
C120 H162 0.948 . S
C121 C120 1.391 1_556 S
C121 C122 1.391 . S
C122 C121 1.391 . S
C122 H178 0.947 . S
C122 C179 1.392 . S
C123 C124 1.391 1_556 S
C123 C127 1.397 1_566 S
C123 C179 1.419 . S
C124 C120 1.391 . S
C124 C123 1.391 1_554 S
C124 C125 1.399 . S
C125 C124 1.399 . S
C125 C128 1.396 1_565 S
C125 C137 1.453 1_565 S
C125 C138 1.684 . S
H126 C150 0.948 . S
C127 C123 1.397 1_544 S
C127 C128 1.394 . S
C127 C146 1.722 1_554 S
C128 C125 1.396 1_545 S
C128 C127 1.394 . S
C128 C158 1.723 . S
H129 C152 0.947 . S
H130 C153 0.948 . S
H131 C159 0.982 . S
H132 C160 0.979 . S
H133 C160 0.980 . S
H134 C160 0.983 . S
H135 C159 0.979 . S
H136 C159 0.977 . S
C137 C125 1.453 1_545 S
C137 H166 0.982 . S
C137 H167 0.979 . S
C137 H168 0.977 . S
C138 C125 1.684 . S
C138 H163 0.979 . S
C138 H164 0.980 . S
C138 H165 0.983 . S
C139 C140 1.391 . S
C139 C144 1.391 . S
C139 H169 0.948 . S
C140 C139 1.391 . S
C140 C141 1.391 . S
C141 C140 1.391 . S
C141 C142 1.392 . S
C141 H170 0.947 . S
C142 C141 1.392 . S
C142 C143 1.419 . S
C142 H171 0.948 1_556 S
C143 C142 1.419 . S
C143 C144 1.391 . S
C143 C147 1.397 1_565 S
C144 C139 1.391 . S
C144 C143 1.391 . S
C144 C145 1.399 . S
C145 C144 1.399 . S
C145 C146 1.396 1_565 S
C145 C148 1.453 1_565 S
C145 C149 1.684 . S
C146 C127 1.722 1_556 S
C146 C145 1.396 1_545 S
C146 C147 1.394 . S
C147 C143 1.397 1_545 S
C147 C146 1.394 . S
C147 C157 1.723 1_556 S
C148 C145 1.453 1_545 S
C148 H172 0.982 . S
C148 H173 0.979 . S
C148 H174 0.977 . S
C149 C145 1.684 . S
C149 H175 0.979 . S
C149 H176 0.980 . S
C149 H177 0.983 . S
C150 H126 0.948 . S
C150 C151 1.391 . S
C150 C155 1.391 . S
C151 C150 1.391 . S
C151 C152 1.391 . S
C152 H129 0.947 . S
C152 C151 1.391 . S
C152 C153 1.392 . S
C153 H130 0.948 . S
C153 C152 1.392 . S
C153 C154 1.419 . S
C154 C153 1.419 . S
C154 C155 1.391 . S
C154 C158 1.397 1_565 S
C155 C150 1.391 . S
C155 C154 1.391 . S
C155 C156 1.399 . S
C156 C155 1.399 . S
C156 C157 1.396 1_565 S
C156 C159 1.453 1_565 S
C156 C160 1.684 . S
C157 C147 1.723 1_554 S
C157 C156 1.396 1_545 S
C157 C158 1.394 . S
C158 C128 1.723 . S
C158 C154 1.397 1_545 S
C158 C157 1.394 . S
C159 H131 0.982 . S
C159 H135 0.979 . S
C159 H136 0.977 . S
C159 C156 1.453 1_545 S
C160 H132 0.979 . S
C160 H133 0.980 . S
C160 H134 0.983 . S
C160 C156 1.684 . S
H161 C179 0.948 . S
H162 C120 0.948 . S
H163 C138 0.979 . S
H164 C138 0.980 . S
H165 C138 0.983 . S
H166 C137 0.982 . S
H167 C137 0.979 . S
H168 C137 0.977 . S
H169 C139 0.948 . S
H170 C141 0.947 . S
H171 C142 0.948 1_554 S
H172 C148 0.982 . S
H173 C148 0.979 . S
H174 C148 0.977 . S
H175 C149 0.979 . S
H176 C149 0.980 . S
H177 C149 0.983 . S
H178 C122 0.947 . S
C179 C122 1.392 . S
C179 C123 1.419 . S
C179 H161 0.948 . S
C180 C181 1.391 . S
C180 C184 1.391 . S
C180 H222 0.948 . S
C181 C180 1.391 . S
C181 C182 1.391 . S
C182 C181 1.391 . S
C182 H238 0.947 . S
C182 C239 1.392 . S
C183 C184 1.391 . S
C183 C187 1.397 . S
C183 C239 1.419 . S
C184 C180 1.391 . S
C184 C183 1.391 . S
C184 C185 1.399 . S
C185 C184 1.399 . S
C185 C188 1.396 . S
C185 C197 1.453 . S
C185 C198 1.684 . S
H186 C210 0.948 . S
C187 C183 1.397 . S
C187 C188 1.394 . S
C187 C206 1.723 . S
C188 C185 1.396 . S
C188 C187 1.394 . S
C188 C218 1.723 . S
H189 C212 0.947 . S
H190 C213 0.948 . S
H191 C219 0.982 . S
H192 C220 0.979 . S
H193 C220 0.980 . S
H194 C220 0.983 . S
H195 C219 0.979 . S
H196 C219 0.977 . S
C197 C185 1.453 . S
C197 H226 0.982 . S
C197 H227 0.979 . S
C197 H228 0.977 . S
C198 C185 1.684 . S
C198 H223 0.979 . S
C198 H224 0.980 . S
C198 H225 0.983 . S
C199 C200 1.391 . S
C199 C204 1.391 . S
C199 H229 0.948 . S
C200 C199 1.391 . S
C200 C201 1.391 . S
C201 C200 1.391 . S
C201 C202 1.392 . S
C201 H230 0.947 . S
C202 C201 1.392 . S
C202 C203 1.419 . S
C202 H231 0.948 . S
C203 C202 1.419 . S
C203 C204 1.391 . S
C203 C207 1.397 1_556 S
C204 C199 1.391 . S
C204 C203 1.391 . S
C204 C205 1.399 1_556 S
C205 C204 1.399 1_554 S
C205 C206 1.396 . S
C205 C208 1.453 . S
C205 C209 1.684 . S
C206 C187 1.723 . S
C206 C205 1.396 . S
C206 C207 1.394 . S
C207 C203 1.397 1_554 S
C207 C206 1.394 . S
C207 C217 1.723 1_554 S
C208 C205 1.453 . S
C208 H232 0.982 . S
C208 H233 0.979 . S
C208 H234 0.977 . S
C209 C205 1.684 . S
C209 H235 0.979 . S
C209 H236 0.980 . S
C209 H237 0.983 . S
C210 H186 0.948 . S
C210 C211 1.391 1_556 S
C210 C215 1.391 . S
C211 C210 1.391 1_554 S
C211 C212 1.391 . S
C212 H189 0.947 . S
C212 C211 1.391 . S
C212 C213 1.392 . S
C213 H190 0.948 . S
C213 C212 1.392 . S
C213 C214 1.419 . S
C214 C213 1.419 . S
C214 C215 1.391 1_554 S
C214 C218 1.397 . S
C215 C210 1.391 . S
C215 C214 1.391 1_556 S
C215 C216 1.399 . S
C216 C215 1.399 . S
C216 C217 1.396 . S
C216 C219 1.453 . S
C216 C220 1.684 . S
C217 C207 1.723 1_556 S
C217 C216 1.396 . S
C217 C218 1.394 1_556 S
C218 C188 1.723 . S
C218 C214 1.397 . S
C218 C217 1.394 1_554 S
C219 H191 0.982 . S
C219 H195 0.979 . S
C219 H196 0.977 . S
C219 C216 1.453 . S
C220 H192 0.979 . S
C220 H193 0.980 . S
C220 H194 0.983 . S
C220 C216 1.684 . S
H221 C239 0.948 . S
H222 C180 0.948 . S
H223 C198 0.979 . S
H224 C198 0.980 . S
H225 C198 0.983 . S
H226 C197 0.982 . S
H227 C197 0.979 . S
H228 C197 0.977 . S
H229 C199 0.948 . S
H230 C201 0.947 . S
H231 C202 0.948 . S
H232 C208 0.982 . S
H233 C208 0.979 . S
H234 C208 0.977 . S
H235 C209 0.979 . S
H236 C209 0.980 . S
H237 C209 0.983 . S
H238 C182 0.947 . S
C239 C182 1.392 . S
C239 C183 1.419 . S
C239 H221 0.948 . S
C240 C241 1.391 . S
C240 C244 1.391 . S
C240 H282 0.948 . S
C241 C240 1.391 . S
C241 C242 1.391 . S
C242 C241 1.391 . S
C242 H298 0.947 . S
C242 C299 1.392 . S
C243 C244 1.391 . S
C243 C247 1.397 . S
C243 C299 1.419 . S
C244 C240 1.391 . S
C244 C243 1.391 . S
C244 C245 1.399 . S
C245 C244 1.399 . S
C245 C248 1.396 . S
C245 C257 1.453 1_554 S
C245 C258 1.684 1_554 S
H246 C270 0.948 . S
C247 C243 1.397 . S
C247 C248 1.394 . S
C247 C266 1.723 . S
C248 C245 1.396 . S
C248 C247 1.394 . S
C248 C278 1.723 . S
H249 C272 0.947 . S
H250 C273 0.948 . S
H251 C279 0.982 . S
H252 C280 0.979 . S
H253 C280 0.980 . S
H254 C280 0.983 1_556 S
H255 C279 0.979 1_556 S
H256 C279 0.977 . S
C257 C245 1.453 1_556 S
C257 H286 0.982 1_556 S
C257 H287 0.979 . S
C257 H288 0.977 . S
C258 C245 1.684 1_556 S
C258 H283 0.979 . S
C258 H284 0.980 . S
C258 H285 0.983 . S
C259 C260 1.391 . S
C259 C264 1.391 . S
C259 H289 0.948 . S
C260 C259 1.391 . S
C260 C261 1.391 . S
C261 C260 1.391 . S
C261 C262 1.392 . S
C261 H290 0.947 . S
C262 C261 1.392 . S
C262 C263 1.419 . S
C262 H291 0.948 . S
C263 C262 1.419 . S
C263 C264 1.391 . S
C263 C267 1.397 . S
C264 C259 1.391 . S
C264 C263 1.391 . S
C264 C265 1.399 . S
C265 C264 1.399 . S
C265 C266 1.396 . S
C265 C268 1.453 . S
C265 C269 1.684 . S
C266 C247 1.723 . S
C266 C265 1.396 . S
C266 C267 1.394 . S
C267 C263 1.397 . S
C267 C266 1.394 . S
C267 C277 1.723 . S
C268 C265 1.453 . S
C268 H292 0.982 . S
C268 H293 0.979 . S
C268 H294 0.977 . S
C269 C265 1.684 . S
C269 H295 0.979 . S
C269 H296 0.980 . S
C269 H297 0.983 . S
C270 H246 0.948 . S
C270 C271 1.391 . S
C270 C275 1.391 . S
C271 C270 1.391 . S
C271 C272 1.391 . S
C272 H249 0.947 . S
C272 C271 1.391 . S
C272 C273 1.392 . S
C273 H250 0.948 . S
C273 C272 1.392 . S
C273 C274 1.419 . S
C274 C273 1.419 . S
C274 C275 1.391 . S
C274 C278 1.397 1_556 S
C275 C270 1.391 . S
C275 C274 1.391 . S
C275 C276 1.399 1_556 S
C276 C275 1.399 1_554 S
C276 C277 1.396 . S
C276 C279 1.453 . S
C276 C280 1.684 . S
C277 C267 1.723 . S
C277 C276 1.396 . S
C277 C278 1.394 . S
C278 C248 1.723 . S
C278 C274 1.397 1_554 S
C278 C277 1.394 . S
C279 H251 0.982 . S
C279 H255 0.979 1_554 S
C279 H256 0.977 . S
C279 C276 1.453 . S
C280 H252 0.979 . S
C280 H253 0.980 . S
C280 H254 0.983 1_554 S
C280 C276 1.684 . S
H281 C299 0.948 . S
H282 C240 0.948 . S
H283 C258 0.979 . S
H284 C258 0.980 . S
H285 C258 0.983 . S
H286 C257 0.982 1_554 S
H287 C257 0.979 . S
H288 C257 0.977 . S
H289 C259 0.948 . S
H290 C261 0.947 . S
H291 C262 0.948 . S
H292 C268 0.982 . S
H293 C268 0.979 . S
H294 C268 0.977 . S
H295 C269 0.979 . S
H296 C269 0.980 . S
H297 C269 0.983 . S
H298 C242 0.947 . S
C299 C242 1.392 . S
C299 C243 1.419 . S
C299 H281 0.948 . S
C300 C301 1.391 . S
C300 C304 1.391 . S
C300 H342 0.948 . S
C301 C300 1.391 . S
C301 C302 1.391 . S
C302 C301 1.391 . S
C302 H358 0.947 . S
C302 C359 1.392 . S
C303 C304 1.391 . S
C303 C307 1.397 . S
C303 C359 1.419 . S
C304 C300 1.391 . S
C304 C303 1.391 . S
C304 C305 1.399 . S
C305 C304 1.399 . S
C305 C308 1.396 . S
C305 C317 1.453 . S
C305 C318 1.684 . S
H306 C330 0.948 . S
C307 C303 1.397 . S
C307 C308 1.394 . S
C307 C326 1.723 . S
C308 C305 1.396 . S
C308 C307 1.394 . S
C308 C338 1.723 . S
H309 C332 0.947 . S
H310 C333 0.948 . S
H311 C339 0.982 . S
H312 C340 0.979 1_554 S
H313 C340 0.980 . S
H314 C340 0.983 . S
H315 C339 0.979 1_556 S
H316 C339 0.977 1_556 S
C317 C305 1.453 . S
C317 H346 0.982 . S
C317 H347 0.979 . S
C317 H348 0.977 . S
C318 C305 1.684 . S
C318 H343 0.979 . S
C318 H344 0.980 . S
C318 H345 0.983 . S
C319 C320 1.391 . S
C319 C324 1.391 . S
C319 H349 0.948 . S
C320 C319 1.391 . S
C320 C321 1.391 . S
C321 C320 1.391 . S
C321 C322 1.392 . S
C321 H350 0.947 . S
C322 C321 1.392 . S
C322 C323 1.419 . S
C322 H351 0.948 . S
C323 C322 1.419 . S
C323 C324 1.391 . S
C323 C327 1.397 1_556 S
C324 C319 1.391 . S
C324 C323 1.391 . S
C324 C325 1.399 1_556 S
C325 C324 1.399 1_554 S
C325 C326 1.396 . S
C325 C328 1.453 . S
C325 C329 1.684 . S
C326 C307 1.723 . S
C326 C325 1.396 . S
C326 C327 1.394 . S
C327 C323 1.397 1_554 S
C327 C326 1.394 . S
C327 C337 1.723 . S
C328 C325 1.453 . S
C328 H352 0.982 . S
C328 H353 0.979 1_554 S
C328 H354 0.977 . S
C329 C325 1.684 . S
C329 H355 0.979 . S
C329 H356 0.980 . S
C329 H357 0.983 1_554 S
C330 H306 0.948 . S
C330 C331 1.391 . S
C330 C335 1.391 . S
C331 C330 1.391 . S
C331 C332 1.391 . S
C332 H309 0.947 . S
C332 C331 1.391 . S
C332 C333 1.392 . S
C333 H310 0.948 . S
C333 C332 1.392 . S
C333 C334 1.419 . S
C334 C333 1.419 . S
C334 C335 1.391 . S
C334 C338 1.397 . S
C335 C330 1.391 . S
C335 C334 1.391 . S
C335 C336 1.399 . S
C336 C335 1.399 . S
C336 C337 1.396 . S
C336 C339 1.453 . S
C336 C340 1.684 1_554 S
C337 C327 1.723 . S
C337 C336 1.396 . S
C337 C338 1.394 . S
C338 C308 1.723 . S
C338 C334 1.397 . S
C338 C337 1.394 . S
C339 H311 0.982 . S
C339 H315 0.979 1_554 S
C339 H316 0.977 1_554 S
C339 C336 1.453 . S
C340 H312 0.979 1_556 S
C340 H313 0.980 . S
C340 H314 0.983 . S
C340 C336 1.684 1_556 S
H341 C359 0.948 . S
H342 C300 0.948 . S
H343 C318 0.979 . S
H344 C318 0.980 . S
H345 C318 0.983 . S
H346 C317 0.982 . S
H347 C317 0.979 . S
H348 C317 0.977 . S
H349 C319 0.948 . S
H350 C321 0.947 . S
H351 C322 0.948 . S
H352 C328 0.982 . S
H353 C328 0.979 1_556 S
H354 C328 0.977 . S
H355 C329 0.979 . S
H356 C329 0.980 . S
H357 C329 0.983 1_556 S
H358 C302 0.947 . S
C359 C302 1.392 . S
C359 C303 1.419 . S
C359 H341 0.948 . S
C360 C361 1.391 . S
C360 C364 1.391 . S
C360 H402 0.948 . S
C361 C360 1.391 . S
C361 C362 1.391 . S
C362 C361 1.391 . S
C362 H418 0.947 . S
C362 C419 1.392 . S
C363 C364 1.391 . S
C363 C367 1.397 1_546 S
C363 C419 1.419 . S
C364 C360 1.391 . S
C364 C363 1.391 . S
C364 C365 1.399 . S
C365 C364 1.399 . S
C365 C368 1.396 1_546 S
C365 C377 1.453 1_545 S
C365 C378 1.684 . S
H366 C390 0.948 . S
C367 C363 1.397 1_564 S
C367 C368 1.394 . S
C367 C386 1.723 . S
C368 C365 1.396 1_564 S
C368 C367 1.394 . S
C368 C398 1.723 . S
H369 C392 0.947 . S
H370 C393 0.936 1_556 S
H371 C399 0.982 . S
H372 C400 0.979 . S
H373 C400 0.980 . S
H374 C400 0.983 . S
H375 C399 0.979 . S
H376 C399 0.977 . S
C377 C365 1.453 1_565 S
C377 H406 0.982 . S
C377 H407 0.979 . S
C377 H408 0.977 . S
C378 C365 1.684 . S
C378 H403 0.979 . S
C378 H404 0.980 . S
C378 H405 0.983 . S
C379 C380 1.391 . S
C379 C384 1.391 . S
C379 H409 0.948 . S
C380 C379 1.391 . S
C380 C381 1.391 . S
C381 C380 1.391 . S
C381 C382 1.392 . S
C381 H410 0.947 . S
C382 C381 1.392 . S
C382 C383 1.419 . S
C382 H411 0.948 . S
C383 C382 1.419 . S
C383 C384 1.391 . S
C383 C387 1.397 1_545 S
C384 C379 1.391 . S
C384 C383 1.391 . S
C384 C385 1.399 . S
C385 C384 1.399 . S
C385 C386 1.396 1_545 S
C385 C388 1.453 1_545 S
C385 C389 1.684 . S
C386 C367 1.723 . S
C386 C385 1.396 1_565 S
C386 C387 1.394 . S
C387 C383 1.397 1_565 S
C387 C386 1.394 . S
C387 C397 1.723 . S
C388 C385 1.453 1_565 S
C388 H412 0.982 . S
C388 H413 0.979 . S
C388 H414 0.977 . S
C389 C385 1.684 . S
C389 H415 0.979 . S
C389 H416 0.980 . S
C389 H417 0.983 . S
C390 H366 0.948 . S
C390 C391 1.391 . S
C390 C395 1.391 . S
C391 C390 1.391 . S
C391 C392 1.391 . S
C392 H369 0.947 . S
C392 C391 1.391 . S
C392 C393 1.392 . S
C393 H370 0.936 1_554 S
C393 C392 1.392 . S
C393 C394 1.419 . S
C394 C393 1.419 . S
C394 C395 1.391 . S
C394 C398 1.397 1_545 S
C395 C390 1.391 . S
C395 C394 1.391 . S
C395 C396 1.399 . S
C396 C395 1.399 . S
C396 C397 1.396 1_545 S
C396 C399 1.453 1_545 S
C396 C400 1.684 . S
C397 C387 1.723 . S
C397 C396 1.396 1_565 S
C397 C398 1.394 . S
C398 C368 1.723 . S
C398 C394 1.397 1_565 S
C398 C397 1.394 . S
C399 H371 0.982 . S
C399 H375 0.979 . S
C399 H376 0.977 . S
C399 C396 1.453 1_565 S
C400 H372 0.979 . S
C400 H373 0.980 . S
C400 H374 0.983 . S
C400 C396 1.684 . S
H401 C419 0.948 . S
H402 C360 0.948 . S
H403 C378 0.979 . S
H404 C378 0.980 . S
H405 C378 0.983 . S
H406 C377 0.982 . S
H407 C377 0.979 . S
H408 C377 0.977 . S
H409 C379 0.948 . S
H410 C381 0.947 . S
H411 C382 0.948 . S
H412 C388 0.982 . S
H413 C388 0.979 . S
H414 C388 0.977 . S
H415 C389 0.979 . S
H416 C389 0.980 . S
H417 C389 0.983 . S
H418 C362 0.947 . S
C419 C362 1.392 . S
C419 C363 1.419 . S
C419 H401 0.948 . S
C420 C421 1.391 . S
C420 C424 1.391 . S
C420 H462 0.948 . S
C421 C420 1.391 . S
C421 C422 1.391 . S
C422 C421 1.391 . S
C422 H478 0.947 . S
C422 C479 1.392 . S
C423 C424 1.391 . S
C423 C427 1.397 . S
C423 C479 1.419 . S
C424 C420 1.391 . S
C424 C423 1.391 . S
C424 C425 1.399 . S
C425 C424 1.399 . S
C425 C428 1.396 . S
C425 C437 1.453 . S
C425 C438 1.684 . S
H426 C450 0.948 . S
C427 C423 1.397 . S
C427 C428 1.394 . S
C427 C446 1.723 1_556 S
C428 C425 1.396 . S
C428 C427 1.394 . S
C428 C458 1.723 1_556 S
H429 C452 0.947 . S
H430 C453 0.948 1_556 S
H431 C459 0.982 . S
H432 C460 0.979 . S
H433 C460 0.980 . S
H434 C460 0.983 . S
H435 C459 0.979 . S
H436 C459 0.977 . S
C437 C425 1.453 . S
C437 H466 0.982 . S
C437 H467 0.979 . S
C437 H468 0.977 . S
C438 C425 1.684 . S
C438 H463 0.979 . S
C438 H464 0.980 . S
C438 H465 0.983 . S
C439 C440 1.391 . S
C439 C444 1.391 . S
C439 H469 0.948 . S
C440 C439 1.391 . S
C440 C441 1.391 . S
C441 C440 1.391 . S
C441 C442 1.392 . S
C441 H470 0.947 . S
C442 C441 1.392 . S
C442 C443 1.419 . S
C442 H471 0.948 . S
C443 C442 1.419 . S
C443 C444 1.391 . S
C443 C447 1.397 . S
C444 C439 1.391 . S
C444 C443 1.391 . S
C444 C445 1.399 . S
C445 C444 1.399 . S
C445 C446 1.396 . S
C445 C448 1.453 . S
C445 C449 1.684 . S
C446 C427 1.723 1_554 S
C446 C445 1.396 . S
C446 C447 1.394 . S
C447 C443 1.397 . S
C447 C446 1.394 . S
C447 C457 1.723 . S
C448 C445 1.453 . S
C448 H472 0.982 . S
C448 H473 0.979 . S
C448 H474 0.977 . S
C449 C445 1.684 . S
C449 H475 0.979 . S
C449 H476 0.980 1_554 S
C449 H477 0.983 . S
C450 H426 0.948 . S
C450 C451 1.391 . S
C450 C455 1.391 . S
C451 C450 1.391 . S
C451 C452 1.391 . S
C452 H429 0.947 . S
C452 C451 1.391 . S
C452 C453 1.392 . S
C453 H430 0.948 1_554 S
C453 C452 1.392 . S
C453 C454 1.419 . S
C454 C453 1.419 . S
C454 C455 1.391 . S
C454 C458 1.397 . S
C455 C450 1.391 . S
C455 C454 1.391 . S
C455 C456 1.399 . S
C456 C455 1.399 . S
C456 C457 1.396 . S
C456 C459 1.453 . S
C456 C460 1.684 . S
C457 C447 1.723 . S
C457 C456 1.396 . S
C457 C458 1.394 . S
C458 C428 1.723 1_554 S
C458 C454 1.397 . S
C458 C457 1.394 . S
C459 H431 0.982 . S
C459 H435 0.979 . S
C459 H436 0.977 . S
C459 C456 1.453 . S
C460 H432 0.979 . S
C460 H433 0.980 . S
C460 H434 0.983 . S
C460 C456 1.684 . S
H461 C479 0.948 . S
H462 C420 0.948 . S
H463 C438 0.979 . S
H464 C438 0.980 . S
H465 C438 0.983 . S
H466 C437 0.982 . S
H467 C437 0.979 . S
H468 C437 0.977 . S
H469 C439 0.948 . S
H470 C441 0.947 . S
H471 C442 0.948 . S
H472 C448 0.982 . S
H473 C448 0.979 . S
H474 C448 0.977 . S
H475 C449 0.979 . S
H476 C449 0.980 1_556 S
H477 C449 0.983 . S
H478 C422 0.947 . S
C479 C422 1.392 . S
C479 C423 1.419 . S
C479 H461 0.948 . S
Dy480 O484 2.398 . S
Dy480 O485 2.491 1_455 S
Dy480 O486 2.403 . S
Dy480 O487 2.664 1_565 S
Dy480 O491 2.326 . S
Dy480 O495 2.310 1_455 S
Dy480 O496 2.351 1_565 S
C481 O492 1.185 1_455 S
C481 O493 1.355 . S
C482 O484 1.185 . S
C482 O485 1.355 1_455 S
Dy483 O487 2.310 1_655 S
Dy483 O490 2.351 1_545 S
Dy483 O492 2.398 . S
Dy483 O493 2.491 1_655 S
Dy483 O494 2.403 . S
Dy483 O495 2.664 1_545 S
Dy483 O497 2.326 1_655 S
O484 Dy480 2.398 . S
O484 C482 1.185 . S
O485 Dy480 2.491 1_655 S
O485 C482 1.355 1_655 S
O486 Dy480 2.403 . S
O486 C488 1.254 . S
O487 Dy480 2.664 1_545 S
O487 Dy483 2.310 1_455 S
O487 C488 1.268 1_545 S
C488 O486 1.254 . S
C488 O487 1.268 1_565 S
C489 O494 1.254 . S
C489 O495 1.268 1_545 S
O490 Dy483 2.351 1_565 S
O490 C498 1.249 . S
O491 Dy480 2.326 . S
O491 C498 1.267 1_455 S
O492 C481 1.185 1_655 S
O492 Dy483 2.398 . S
O493 C481 1.355 . S
O493 Dy483 2.491 1_455 S
O494 Dy483 2.403 . S
O494 C489 1.254 . S
O495 Dy480 2.310 1_655 S
O495 Dy483 2.664 1_565 S
O495 C489 1.268 1_565 S
O496 Dy480 2.351 1_545 S
O496 C499 1.249 . S
O497 Dy483 2.326 1_455 S
O497 C499 1.267 . S
C498 O490 1.249 . S
C498 O491 1.267 1_655 S
C499 O496 1.249 . S
C499 O497 1.267 . S
Dy500 O504 2.398 . S
Dy500 O505 2.491 . S
Dy500 O506 2.403 . S
Dy500 O507 2.664 . S
Dy500 O511 2.326 1_565 S
Dy500 O515 2.310 1_565 S
Dy500 O516 2.351 . S
C501 O512 1.185 . S
C501 O513 1.355 . S
C502 O504 1.185 . S
C502 O505 1.355 . S
Dy503 O507 2.310 1_545 S
Dy503 O510 2.351 . S
Dy503 O512 2.398 . S
Dy503 O513 2.491 . S
Dy503 O514 2.403 . S
Dy503 O515 2.664 . S
Dy503 O517 2.326 1_545 S
O504 Dy500 2.398 . S
O504 C502 1.185 . S
O505 Dy500 2.491 . S
O505 C502 1.355 . S
O506 Dy500 2.403 . S
O506 C508 1.254 . S
O507 Dy500 2.664 . S
O507 Dy503 2.310 1_565 S
O507 C508 1.268 . S
C508 O506 1.254 . S
C508 O507 1.268 . S
C509 O514 1.254 . S
C509 O515 1.268 . S
O510 Dy503 2.351 . S
O510 C518 1.249 . S
O511 Dy500 2.326 1_545 S
O511 C518 1.267 . S
O512 C501 1.185 . S
O512 Dy503 2.398 . S
O513 C501 1.355 . S
O513 Dy503 2.491 . S
O514 Dy503 2.403 . S
O514 C509 1.254 . S
O515 Dy500 2.310 1_545 S
O515 Dy503 2.664 . S
O515 C509 1.268 . S
O516 Dy500 2.351 . S
O516 C519 1.249 . S
O517 Dy503 2.326 1_565 S
O517 C519 1.267 . S
C518 O510 1.249 . S
C518 O511 1.267 . S
C519 O516 1.249 . S
C519 O517 1.267 . S
Dy520 O524 2.398 . S
Dy520 O525 2.491 . S
Dy520 O526 2.403 . S
Dy520 O527 2.664 . S
Dy520 O531 2.326 . S
Dy520 O535 2.310 . S
Dy520 O536 2.351 . S
C521 O532 1.185 . S
C521 O533 1.355 . S
C522 O524 1.185 . S
C522 O525 1.355 . S
Dy523 O527 2.310 . S
Dy523 O530 2.351 . S
Dy523 O532 2.398 . S
Dy523 O533 2.491 . S
Dy523 O534 2.403 . S
Dy523 O535 2.664 . S
Dy523 O537 2.326 . S
O524 Dy520 2.398 . S
O524 C522 1.185 . S
O525 Dy520 2.491 . S
O525 C522 1.355 . S
O526 Dy520 2.403 . S
O526 C528 1.254 . S
O527 Dy520 2.664 . S
O527 Dy523 2.310 . S
O527 C528 1.268 . S
C528 O526 1.254 . S
C528 O527 1.268 . S
C529 O534 1.254 . S
C529 O535 1.268 . S
O530 Dy523 2.351 . S
O530 C538 1.249 . S
O531 Dy520 2.326 . S
O531 C538 1.267 . S
O532 C521 1.185 . S
O532 Dy523 2.398 . S
O533 C521 1.355 . S
O533 Dy523 2.491 . S
O534 Dy523 2.403 . S
O534 C529 1.254 . S
O535 Dy520 2.310 . S
O535 Dy523 2.664 . S
O535 C529 1.268 . S
O536 Dy520 2.351 . S
O536 C539 1.249 . S
O537 Dy523 2.326 . S
O537 C539 1.267 . S
C538 O530 1.249 . S
C538 O531 1.267 . S
C539 O536 1.249 . S
C539 O537 1.267 . S
Dy540 O544 2.398 . S
Dy540 O545 2.491 . S
Dy540 O546 2.403 1_655 S
Dy540 O547 2.664 1_655 S
Dy540 O551 2.326 . S
Dy540 O555 2.310 . S
Dy540 O556 2.351 1_655 S
C541 O552 1.185 . S
C541 O553 1.355 . S
C542 O544 1.185 . S
C542 O545 1.355 . S
Dy543 O547 2.310 . S
Dy543 O550 2.351 1_455 S
Dy543 O552 2.398 . S
Dy543 O553 2.491 . S
Dy543 O554 2.403 . S
Dy543 O555 2.664 1_455 S
Dy543 O557 2.326 . S
O544 Dy540 2.398 . S
O544 C542 1.185 . S
O545 Dy540 2.491 . S
O545 C542 1.355 . S
O546 Dy540 2.403 1_455 S
O546 C548 1.254 . S
O547 Dy540 2.664 1_455 S
O547 Dy543 2.310 . S
O547 C548 1.268 . S
C548 O546 1.254 . S
C548 O547 1.268 . S
C549 O554 1.254 1_655 S
C549 O555 1.268 . S
O550 Dy543 2.351 1_655 S
O550 C558 1.249 . S
O551 Dy540 2.326 . S
O551 C558 1.267 . S
O552 C541 1.185 . S
O552 Dy543 2.398 . S
O553 C541 1.355 . S
O553 Dy543 2.491 . S
O554 Dy543 2.403 . S
O554 C549 1.254 1_455 S
O555 Dy540 2.310 . S
O555 Dy543 2.664 1_655 S
O555 C549 1.268 . S
O556 Dy540 2.351 1_455 S
O556 C559 1.249 . S
O557 Dy543 2.326 . S
O557 C559 1.267 . S
C558 O550 1.249 . S
C558 O551 1.267 . S
C559 O556 1.249 . S
C559 O557 1.267 . S
C560 C561 1.360 1_565 S
C560 C562 1.394 . S
C560 H576 0.931 . S
C561 C560 1.360 1_545 S
C561 C565 1.410 . S
C562 C560 1.394 . S
C562 C563 1.369 1_565 S
C562 C566 1.531 . S
C563 C562 1.369 1_545 S
C563 C564 1.410 . S
C563 C571 1.503 1_545 S
C564 C563 1.410 . S
C564 C565 1.392 . S
C564 C567 1.511 . S
C565 C561 1.410 . S
C565 C564 1.392 . S
C565 H577 0.929 . S
C566 C562 1.531 . S
C566 H578 0.960 . S
C566 H579 0.962 . S
C566 H580 0.960 . S
C567 C564 1.511 . S
C567 H581 0.961 . S
C567 H582 0.961 . S
C567 H583 0.961 . S
C568 C569 1.370 . S
C568 C570 1.363 . S
C568 H584 0.931 . S
C569 C568 1.370 . S
C569 C573 1.408 1_565 S
C570 C568 1.363 . S
C570 C571 1.371 . S
C570 C574 1.524 . S
C571 C563 1.503 1_565 S
C571 C570 1.371 . S
C571 C572 1.402 1_565 S
C572 C571 1.402 1_545 S
C572 C573 1.404 . S
C572 C575 1.539 . S
C573 C569 1.408 1_545 S
C573 C572 1.404 . S
C573 H585 0.930 . S
C574 C570 1.524 . S
C574 H586 0.956 . S
C574 H587 0.961 . S
C574 H588 0.961 . S
C575 C572 1.539 . S
C575 H589 0.958 . S
C575 H590 0.961 . S
C575 H591 0.960 . S
H576 C560 0.931 . S
H577 C565 0.929 . S
H578 C566 0.960 . S
H579 C566 0.962 . S
H580 C566 0.960 . S
H581 C567 0.961 . S
H582 C567 0.961 . S
H583 C567 0.961 . S
H584 C568 0.931 . S
H585 C573 0.930 . S
H586 C574 0.956 . S
H587 C574 0.961 . S
H588 C574 0.961 . S
H589 C575 0.958 . S
H590 C575 0.961 . S
H591 C575 0.960 . S
C592 C593 1.391 . S
C592 C594 1.394 . S
C592 H608 0.931 . S
C593 C592 1.391 . S
C593 C597 1.376 . S
C594 C592 1.394 . S
C594 C595 1.369 . S
C594 C598 1.531 . S
C595 C594 1.369 . S
C595 C596 1.410 . S
C595 C603 1.503 . S
C596 C595 1.410 . S
C596 C597 1.392 . S
C596 C599 1.511 . S
C597 C593 1.376 . S
C597 C596 1.392 . S
C597 H609 0.929 . S
C598 C594 1.531 . S
C598 H610 0.960 . S
C598 H611 0.962 . S
C598 H612 0.960 . S
C599 C596 1.511 . S
C599 H613 0.961 . S
C599 H614 0.961 . S
C599 H615 0.961 . S
C600 C601 1.370 . S
C600 C602 1.363 . S
C600 H616 0.931 . S
C601 C600 1.370 . S
C601 C605 1.408 . S
C602 C600 1.363 . S
C602 C603 1.370 . S
C602 C606 1.524 . S
C603 C595 1.503 . S
C603 C602 1.370 . S
C603 C604 1.403 . S
C604 C603 1.403 . S
C604 C605 1.404 . S
C604 C607 1.539 . S
C605 C601 1.408 . S
C605 C604 1.404 . S
C605 H617 0.930 . S
C606 C602 1.524 . S
C606 H618 0.956 . S
C606 H619 0.961 . S
C606 H620 0.961 . S
C607 C604 1.539 . S
C607 H621 0.958 . S
C607 H622 0.961 . S
C607 H623 0.960 . S
H608 C592 0.931 . S
H609 C597 0.929 . S
H610 C598 0.960 . S
H611 C598 0.962 . S
H612 C598 0.960 . S
H613 C599 0.961 . S
H614 C599 0.961 . S
H615 C599 0.961 . S
H616 C600 0.931 . S
H617 C605 0.930 . S
H618 C606 0.956 . S
H619 C606 0.961 . S
H620 C606 0.961 . S
H621 C607 0.958 . S
H622 C607 0.961 . S
H623 C607 0.960 . S
C624 C625 1.391 . S
C624 C626 1.394 . S
C624 H640 0.931 . S
C625 C624 1.391 . S
C625 C629 1.376 . S
C626 C624 1.394 . S
C626 C627 1.369 . S
C626 C630 1.531 . S
C627 C626 1.369 . S
C627 C628 1.410 . S
C627 C635 1.503 . S
C628 C627 1.410 . S
C628 C629 1.392 . S
C628 C631 1.511 . S
C629 C625 1.376 . S
C629 C628 1.392 . S
C629 H641 0.929 . S
C630 C626 1.531 . S
C630 H642 0.960 . S
C630 H643 0.962 . S
C630 H644 0.960 . S
C631 C628 1.511 . S
C631 H645 0.961 . S
C631 H646 0.961 . S
C631 H647 0.961 . S
C632 C633 1.370 . S
C632 C634 1.363 . S
C632 H648 0.931 . S
C633 C632 1.370 . S
C633 C637 1.408 . S
C634 C632 1.363 . S
C634 C635 1.370 . S
C634 C638 1.524 . S
C635 C627 1.503 . S
C635 C634 1.370 . S
C635 C636 1.403 . S
C636 C635 1.403 . S
C636 C637 1.404 . S
C636 C639 1.539 . S
C637 C633 1.408 . S
C637 C636 1.404 . S
C637 H649 0.930 . S
C638 C634 1.524 . S
C638 H650 0.956 . S
C638 H651 0.961 . S
C638 H652 0.961 . S
C639 C636 1.539 . S
C639 H653 0.958 . S
C639 H654 0.961 . S
C639 H655 0.960 . S
H640 C624 0.931 . S
H641 C629 0.929 . S
H642 C630 0.960 . S
H643 C630 0.962 . S
H644 C630 0.960 . S
H645 C631 0.961 . S
H646 C631 0.961 . S
H647 C631 0.961 . S
H648 C632 0.931 . S
H649 C637 0.930 . S
H650 C638 0.956 . S
H651 C638 0.961 . S
H652 C638 0.961 . S
H653 C639 0.958 . S
H654 C639 0.961 . S
H655 C639 0.960 . S
C656 C657 1.391 . S
C656 C658 1.394 . S
C656 H672 0.931 . S
C657 C656 1.391 . S
C657 C661 1.376 . S
C658 C656 1.394 . S
C658 C659 1.369 . S
C658 C662 1.531 . S
C659 C658 1.369 . S
C659 C660 1.410 . S
C659 C667 1.503 . S
C660 C659 1.410 . S
C660 C661 1.392 . S
C660 C663 1.511 . S
C661 C657 1.376 . S
C661 C660 1.392 . S
C661 H673 0.929 . S
C662 C658 1.531 . S
C662 H674 0.960 . S
C662 H675 0.962 . S
C662 H676 0.960 . S
C663 C660 1.511 . S
C663 H677 0.961 . S
C663 H678 0.961 . S
C663 H679 0.961 . S
C664 C665 1.370 . S
C664 C666 1.363 . S
C664 H680 0.931 . S
C665 C664 1.370 . S
C665 C669 1.408 . S
C666 C664 1.363 . S
C666 C667 1.370 . S
C666 C670 1.524 . S
C667 C659 1.503 . S
C667 C666 1.370 . S
C667 C668 1.403 . S
C668 C667 1.403 . S
C668 C669 1.404 . S
C668 C671 1.539 . S
C669 C665 1.408 . S
C669 C668 1.404 . S
C669 H681 0.930 . S
C670 C666 1.524 . S
C670 H682 0.956 . S
C670 H683 0.961 . S
C670 H684 0.961 . S
C671 C668 1.539 . S
C671 H685 0.958 . S
C671 H686 0.961 . S
C671 H687 0.960 . S
H672 C656 0.931 . S
H673 C661 0.929 . S
H674 C662 0.960 . S
H675 C662 0.962 . S
H676 C662 0.960 . S
H677 C663 0.961 . S
H678 C663 0.961 . S
H679 C663 0.961 . S
H680 C664 0.931 . S
H681 C669 0.930 . S
H682 C670 0.956 . S
H683 C670 0.961 . S
H684 C670 0.961 . S
H685 C671 0.958 . S
H686 C671 0.961 . S
H687 C671 0.960 . S
C688 C689 1.391 . S
C688 C690 1.394 . S
C688 H704 0.931 . S
C689 C688 1.391 . S
C689 C693 1.376 1_565 S
C690 C688 1.394 . S
C690 C691 1.369 . S
C690 C694 1.531 . S
C691 C690 1.369 . S
C691 C692 1.410 1_565 S
C691 C699 1.505 . S
C692 C691 1.410 1_545 S
C692 C693 1.392 . S
C692 C695 1.511 . S
C693 C689 1.376 1_545 S
C693 C692 1.392 . S
C693 H705 0.929 . S
C694 C690 1.531 . S
C694 H706 0.960 . S
C694 H707 0.962 . S
C694 H708 0.960 . S
C695 C692 1.511 . S
C695 H709 0.961 . S
C695 H710 0.961 . S
C695 H711 0.961 . S
C696 C697 1.370 . S
C696 C698 1.363 . S
C696 H712 0.931 . S
C697 C696 1.370 . S
C697 C701 1.408 1_545 S
C698 C696 1.363 . S
C698 C699 1.341 1_545 S
C698 C702 1.524 . S
C699 C691 1.505 . S
C699 C698 1.341 1_565 S
C699 C700 1.432 . S
C700 C699 1.432 . S
C700 C701 1.404 . S
C700 C703 1.539 . S
C701 C697 1.408 1_565 S
C701 C700 1.404 . S
C701 H713 0.930 . S
C702 C698 1.524 . S
C702 H714 0.956 . S
C702 H715 0.961 . S
C702 H716 0.961 . S
C703 C700 1.539 . S
C703 H717 0.958 . S
C703 H718 0.961 . S
C703 H719 0.960 . S
H704 C688 0.931 . S
H705 C693 0.929 . S
H706 C694 0.960 . S
H707 C694 0.962 . S
H708 C694 0.960 . S
H709 C695 0.961 . S
H710 C695 0.961 . S
H711 C695 0.961 . S
H712 C696 0.931 . S
H713 C701 0.930 . S
H714 C702 0.956 . S
H715 C702 0.961 . S
H716 C702 0.961 . S
H717 C703 0.958 . S
H718 C703 0.961 . S
H719 C703 0.960 . S
C720 C721 1.391 . S
C720 C722 1.394 . S
C720 H736 0.931 . S
C721 C720 1.391 . S
C721 C725 1.376 . S
C722 C720 1.394 . S
C722 C723 1.369 . S
C722 C726 1.531 . S
C723 C722 1.369 . S
C723 C724 1.410 . S
C723 C731 1.503 . S
C724 C723 1.410 . S
C724 C725 1.392 . S
C724 C727 1.511 . S
C725 C721 1.376 . S
C725 C724 1.392 . S
C725 H737 0.929 . S
C726 C722 1.531 . S
C726 H738 0.960 . S
C726 H739 0.962 . S
C726 H740 0.960 . S
C727 C724 1.511 . S
C727 H741 0.961 . S
C727 H742 0.961 . S
C727 H743 0.961 . S
C728 C729 1.370 . S
C728 C730 1.363 . S
C728 H744 0.931 . S
C729 C728 1.370 . S
C729 C733 1.408 . S
C730 C728 1.363 . S
C730 C731 1.370 . S
C730 C734 1.524 . S
C731 C723 1.503 . S
C731 C730 1.370 . S
C731 C732 1.403 . S
C732 C731 1.403 . S
C732 C733 1.404 . S
C732 C735 1.539 . S
C733 C729 1.408 . S
C733 C732 1.404 . S
C733 H745 0.930 . S
C734 C730 1.524 . S
C734 H746 0.956 . S
C734 H747 0.961 . S
C734 H748 0.961 . S
C735 C732 1.539 . S
C735 H749 0.958 . S
C735 H750 0.961 . S
C735 H751 0.960 . S
H736 C720 0.931 . S
H737 C725 0.929 . S
H738 C726 0.960 . S
H739 C726 0.962 . S
H740 C726 0.960 . S
H741 C727 0.961 . S
H742 C727 0.961 . S
H743 C727 0.961 . S
H744 C728 0.931 . S
H745 C733 0.930 . S
H746 C734 0.956 . S
H747 C734 0.961 . S
H748 C734 0.961 . S
H749 C735 0.958 . S
H750 C735 0.961 . S
H751 C735 0.960 . S
C752 C753 1.391 . S
C752 C754 1.394 . S
C752 H768 0.931 . S
C753 C752 1.391 . S
C753 C757 1.376 . S
C754 C752 1.394 . S
C754 C755 1.369 . S
C754 C758 1.531 . S
C755 C754 1.369 . S
C755 C756 1.410 . S
C755 C763 1.503 . S
C756 C755 1.410 . S
C756 C757 1.392 . S
C756 C759 1.511 . S
C757 C753 1.376 . S
C757 C756 1.392 . S
C757 H769 0.929 . S
C758 C754 1.531 . S
C758 H770 0.960 . S
C758 H771 0.962 . S
C758 H772 0.960 . S
C759 C756 1.511 . S
C759 H773 0.961 . S
C759 H774 0.961 . S
C759 H775 0.961 . S
C760 C761 1.370 . S
C760 C762 1.363 . S
C760 H776 0.931 . S
C761 C760 1.370 . S
C761 C765 1.408 . S
C762 C760 1.363 . S
C762 C763 1.370 . S
C762 C766 1.524 . S
C763 C755 1.503 . S
C763 C762 1.370 . S
C763 C764 1.403 . S
C764 C763 1.403 . S
C764 C765 1.404 . S
C764 C767 1.539 . S
C765 C761 1.408 . S
C765 C764 1.404 . S
C765 H777 0.930 . S
C766 C762 1.524 . S
C766 H778 0.956 . S
C766 H779 0.961 . S
C766 H780 0.961 . S
C767 C764 1.539 . S
C767 H781 0.958 . S
C767 H782 0.961 . S
C767 H783 0.960 . S
H768 C752 0.931 . S
H769 C757 0.929 . S
H770 C758 0.960 . S
H771 C758 0.962 . S
H772 C758 0.960 . S
H773 C759 0.961 . S
H774 C759 0.961 . S
H775 C759 0.961 . S
H776 C760 0.931 . S
H777 C765 0.930 . S
H778 C766 0.956 . S
H779 C766 0.961 . S
H780 C766 0.961 . S
H781 C767 0.958 . S
H782 C767 0.961 . S
H783 C767 0.960 . S
C784 C785 1.391 . S
C784 C786 1.394 . S
C784 H800 0.931 . S
C785 C784 1.391 . S
C785 C789 1.376 . S
C786 C784 1.394 . S
C786 C787 1.369 . S
C786 C790 1.531 . S
C787 C786 1.369 . S
C787 C788 1.410 . S
C787 C795 1.503 . S
C788 C787 1.410 . S
C788 C789 1.392 . S
C788 C791 1.511 . S
C789 C785 1.376 . S
C789 C788 1.392 . S
C789 H801 0.929 . S
C790 C786 1.531 . S
C790 H802 0.960 . S
C790 H803 0.962 . S
C790 H804 0.960 . S
C791 C788 1.511 . S
C791 H805 0.961 . S
C791 H806 0.961 . S
C791 H807 0.961 . S
C792 C793 1.370 . S
C792 C794 1.363 . S
C792 H808 0.931 1_655 S
C793 C792 1.370 . S
C793 C797 1.408 . S
C794 C792 1.363 . S
C794 C795 1.370 . S
C794 C798 1.524 . S
C795 C787 1.503 . S
C795 C794 1.370 . S
C795 C796 1.403 . S
C796 C795 1.403 . S
C796 C797 1.404 . S
C796 C799 1.539 . S
C797 C793 1.408 . S
C797 C796 1.404 . S
C797 H809 0.930 . S
C798 C794 1.524 . S
C798 H810 0.956 . S
C798 H811 0.961 . S
C798 H812 0.961 1_655 S
C799 C796 1.539 . S
C799 H813 0.958 . S
C799 H814 0.961 . S
C799 H815 0.960 . S
H800 C784 0.931 . S
H801 C789 0.929 . S
H802 C790 0.960 . S
H803 C790 0.962 . S
H804 C790 0.960 . S
H805 C791 0.961 . S
H806 C791 0.961 . S
H807 C791 0.961 . S
H808 C792 0.931 1_455 S
H809 C797 0.930 . S
H810 C798 0.956 . S
H811 C798 0.961 . S
H812 C798 0.961 1_455 S
H813 C799 0.958 . S
H814 C799 0.961 . S
H815 C799 0.960 . S
C816 C817 1.391 . S
C816 C818 1.394 . S
C816 H832 0.931 . S
C817 C816 1.391 . S
C817 C821 1.376 . S
C818 C816 1.394 . S
C818 C819 1.369 . S
C818 C822 1.531 . S
C819 C818 1.369 . S
C819 C820 1.410 . S
C819 C827 1.503 . S
C820 C819 1.410 . S
C820 C821 1.392 . S
C820 C823 1.511 . S
C821 C817 1.376 . S
C821 C820 1.392 . S
C821 H833 0.929 . S
C822 C818 1.531 . S
C822 H834 0.960 . S
C822 H835 0.962 . S
C822 H836 0.960 . S
C823 C820 1.511 . S
C823 H837 0.961 . S
C823 H838 0.961 . S
C823 H839 0.961 . S
C824 C825 1.370 . S
C824 C826 1.363 . S
C824 H840 0.931 . S
C825 C824 1.370 . S
C825 C829 1.408 . S
C826 C824 1.363 . S
C826 C827 1.370 . S
C826 C830 1.524 . S
C827 C819 1.503 . S
C827 C826 1.370 . S
C827 C828 1.403 . S
C828 C827 1.403 . S
C828 C829 1.404 . S
C828 C831 1.539 . S
C829 C825 1.408 . S
C829 C828 1.404 . S
C829 H841 0.930 . S
C830 C826 1.524 . S
C830 H842 0.956 . S
C830 H843 0.961 . S
C830 H844 0.961 . S
C831 C828 1.539 . S
C831 H845 0.958 . S
C831 H846 0.961 . S
C831 H847 0.960 . S
H832 C816 0.931 . S
H833 C821 0.929 . S
H834 C822 0.960 . S
H835 C822 0.962 . S
H836 C822 0.960 . S
H837 C823 0.961 . S
H838 C823 0.961 . S
H839 C823 0.961 . S
H840 C824 0.931 . S
H841 C829 0.930 . S
H842 C830 0.956 . S
H843 C830 0.961 . S
H844 C830 0.961 . S
H845 C831 0.958 . S
H846 C831 0.961 . S
H847 C831 0.960 . S
C848 C849 1.406 . S
C848 C850 1.394 . S
C848 H864 0.931 . S
C849 C848 1.406 . S
C849 C853 1.371 1_565 S
C850 C848 1.394 . S
C850 C851 1.369 . S
C850 C854 1.531 . S
C851 C850 1.369 . S
C851 C852 1.404 1_565 S
C851 C859 1.503 . S
C852 C851 1.404 1_545 S
C852 C853 1.396 . S
C852 C855 1.514 . S
C853 C849 1.371 1_545 S
C853 C852 1.396 . S
C853 H865 0.929 . S
C854 C850 1.531 . S
C854 H866 0.960 . S
C854 H867 0.962 . S
C854 H868 0.960 . S
C855 C852 1.514 . S
C855 H869 0.961 . S
C855 H870 0.961 . S
C855 H871 0.961 1_545 S
C856 C857 1.370 1_545 S
C856 C858 1.363 . S
C856 H872 0.931 . S
C857 C856 1.370 1_565 S
C857 C861 1.408 . S
C858 C856 1.363 . S
C858 C859 1.370 1_545 S
C858 C862 1.524 . S
C859 C851 1.503 . S
C859 C858 1.370 1_565 S
C859 C860 1.403 . S
C860 C859 1.403 . S
C860 C861 1.404 . S
C860 C863 1.539 . S
C861 C857 1.408 . S
C861 C860 1.404 . S
C861 H873 0.930 . S
C862 C858 1.524 . S
C862 H874 0.956 . S
C862 H875 0.961 . S
C862 H876 0.961 . S
C863 C860 1.539 . S
C863 H877 0.958 . S
C863 H878 0.961 . S
C863 H879 0.960 . S
H864 C848 0.931 . S
H865 C853 0.929 . S
H866 C854 0.960 . S
H867 C854 0.962 . S
H868 C854 0.960 . S
H869 C855 0.961 . S
H870 C855 0.961 . S
H871 C855 0.961 1_565 S
H872 C856 0.931 . S
H873 C861 0.930 . S
H874 C862 0.956 . S
H875 C862 0.961 . S
H876 C862 0.961 . S
H877 C863 0.958 . S
H878 C863 0.961 . S
H879 C863 0.960 . S
C880 C881 1.391 . S
C880 C882 1.394 . S
C880 H896 0.931 . S
C881 C880 1.391 . S
C881 C885 1.376 . S
C882 C880 1.394 . S
C882 C883 1.369 . S
C882 C886 1.531 . S
C883 C882 1.369 . S
C883 C884 1.410 . S
C883 C891 1.503 . S
C884 C883 1.410 . S
C884 C885 1.392 . S
C884 C887 1.511 . S
C885 C881 1.376 . S
C885 C884 1.392 . S
C885 H897 0.929 . S
C886 C882 1.531 . S
C886 H898 0.960 . S
C886 H899 0.962 . S
C886 H900 0.960 . S
C887 C884 1.511 . S
C887 H901 0.961 . S
C887 H902 0.961 . S
C887 H903 0.961 . S
C888 C889 1.370 . S
C888 C890 1.363 . S
C888 H904 0.931 . S
C889 C888 1.370 . S
C889 C893 1.408 . S
C890 C888 1.363 . S
C890 C891 1.370 . S
C890 C894 1.524 . S
C891 C883 1.503 . S
C891 C890 1.370 . S
C891 C892 1.403 . S
C892 C891 1.403 . S
C892 C893 1.404 . S
C892 C895 1.539 . S
C893 C889 1.408 . S
C893 C892 1.404 . S
C893 H905 0.930 . S
C894 C890 1.524 . S
C894 H906 0.956 . S
C894 H907 0.961 . S
C894 H908 0.961 . S
C895 C892 1.539 . S
C895 H909 0.958 . S
C895 H910 0.961 . S
C895 H911 0.960 . S
H896 C880 0.931 . S
H897 C885 0.929 . S
H898 C886 0.960 . S
H899 C886 0.962 . S
H900 C886 0.960 . S
H901 C887 0.961 . S
H902 C887 0.961 . S
H903 C887 0.961 . S
H904 C888 0.931 . S
H905 C893 0.930 . S
H906 C894 0.956 . S
H907 C894 0.961 . S
H908 C894 0.961 . S
H909 C895 0.958 . S
H910 C895 0.961 . S
H911 C895 0.960 . S
C912 C913 1.391 . S
C912 C914 1.394 . S
C912 H928 0.931 . S
C913 C912 1.391 . S
C913 C917 1.376 . S
C914 C912 1.394 . S
C914 C915 1.369 . S
C914 C918 1.531 . S
C915 C914 1.369 . S
C915 C916 1.410 . S
C915 C923 1.503 . S
C916 C915 1.410 . S
C916 C917 1.392 . S
C916 C919 1.511 . S
C917 C913 1.376 . S
C917 C916 1.392 . S
C917 H929 0.929 . S
C918 C914 1.531 . S
C918 H930 0.960 . S
C918 H931 0.962 . S
C918 H932 0.960 . S
C919 C916 1.511 . S
C919 H933 0.961 . S
C919 H934 0.961 . S
C919 H935 0.961 . S
C920 C921 1.370 . S
C920 C922 1.363 . S
C920 H936 0.931 . S
C921 C920 1.370 . S
C921 C925 1.408 . S
C922 C920 1.363 . S
C922 C923 1.370 . S
C922 C926 1.524 . S
C923 C915 1.503 . S
C923 C922 1.370 . S
C923 C924 1.403 . S
C924 C923 1.403 . S
C924 C925 1.404 . S
C924 C927 1.539 . S
C925 C921 1.408 . S
C925 C924 1.404 . S
C925 H937 0.930 . S
C926 C922 1.524 . S
C926 H938 0.956 . S
C926 H939 0.961 . S
C926 H940 0.961 . S
C927 C924 1.539 . S
C927 H941 0.958 . S
C927 H942 0.961 . S
C927 H943 0.960 . S
H928 C912 0.931 . S
H929 C917 0.929 . S
H930 C918 0.960 . S
H931 C918 0.962 . S
H932 C918 0.960 . S
H933 C919 0.961 . S
H934 C919 0.961 . S
H935 C919 0.961 . S
H936 C920 0.931 . S
H937 C925 0.930 . S
H938 C926 0.956 . S
H939 C926 0.961 . S
H940 C926 0.961 . S
H941 C927 0.958 . S
H942 C927 0.961 . S
H943 C927 0.960 . S
C944 C945 1.391 . S
C944 C946 1.394 . S
C944 H960 0.931 . S
C945 C944 1.391 . S
C945 C949 1.376 . S
C946 C944 1.394 . S
C946 C947 1.369 . S
C946 C950 1.531 . S
C947 C946 1.369 . S
C947 C948 1.410 . S
C947 C955 1.503 . S
C948 C947 1.410 . S
C948 C949 1.392 . S
C948 C951 1.511 . S
C949 C945 1.376 . S
C949 C948 1.392 . S
C949 H961 0.929 . S
C950 C946 1.531 . S
C950 H962 0.960 . S
C950 H963 0.962 . S
C950 H964 0.960 . S
C951 C948 1.511 . S
C951 H965 0.961 . S
C951 H966 0.961 . S
C951 H967 0.961 . S
C952 C953 1.375 . S
C952 C954 1.363 . S
C952 H968 0.931 1_655 S
C953 C952 1.375 . S
C953 C957 1.431 . S
C954 C952 1.363 . S
C954 C955 1.370 . S
C954 C958 1.524 . S
C955 C947 1.503 . S
C955 C954 1.370 . S
C955 C956 1.403 . S
C956 C955 1.403 . S
C956 C957 1.404 . S
C956 C959 1.539 . S
C957 C953 1.431 . S
C957 C956 1.404 . S
C957 H969 0.930 . S
C958 C954 1.524 . S
C958 H970 0.956 . S
C958 H971 0.961 . S
C958 H972 0.961 . S
C959 C956 1.539 . S
C959 H973 0.958 . S
C959 H974 0.961 . S
C959 H975 0.960 . S
H960 C944 0.931 . S
H961 C949 0.929 . S
H962 C950 0.960 . S
H963 C950 0.962 . S
H964 C950 0.960 . S
H965 C951 0.961 . S
H966 C951 0.961 . S
H967 C951 0.961 . S
H968 C952 0.931 1_455 S
H969 C957 0.930 . S
H970 C958 0.956 . S
H971 C958 0.961 . S
H972 C958 0.961 . S
H973 C959 0.958 . S
H974 C959 0.961 . S
H975 C959 0.960 . S
C976 C977 1.405 . S
C976 C978 1.394 . S
C976 H992 0.931 . S
C977 C976 1.405 . S
C977 C981 1.368 1_545 S
C978 C976 1.394 . S
C978 C979 1.369 . S
C978 C982 1.531 . S
C979 C978 1.369 . S
C979 C980 1.410 1_545 S
C979 C987 1.503 . S
C980 C979 1.410 1_565 S
C980 C981 1.392 . S
C980 C983 1.511 . S
C981 C977 1.368 1_565 S
C981 C980 1.392 . S
C981 H993 0.929 . S
C982 C978 1.531 . S
C982 H994 0.960 . S
C982 H995 0.962 . S
C982 H996 0.960 . S
C983 C980 1.511 . S
C983 H997 0.961 . S
C983 H998 0.961 . S
C983 H999 0.961 . S
C984 C985 1.370 1_565 S
C984 C986 1.363 . S
C984 H1000 0.931 . S
C985 C984 1.370 1_545 S
C985 C989 1.408 . S
C986 C984 1.363 . S
C986 C987 1.370 1_565 S
C986 C990 1.524 . S
C987 C979 1.503 . S
C987 C986 1.370 1_545 S
C987 C988 1.403 . S
C988 C987 1.403 . S
C988 C989 1.404 . S
C988 C991 1.539 . S
C989 C985 1.408 . S
C989 C988 1.404 . S
C989 H1001 0.930 . S
C990 C986 1.524 . S
C990 H1002 0.956 . S
C990 H1003 0.961 . S
C990 H1004 0.961 . S
C991 C988 1.539 . S
C991 H1005 0.958 . S
C991 H1006 0.961 . S
C991 H1007 0.960 . S
H992 C976 0.931 . S
H993 C981 0.929 . S
H994 C982 0.960 . S
H995 C982 0.962 . S
H996 C982 0.960 . S
H997 C983 0.961 . S
H998 C983 0.961 . S
H999 C983 0.961 . S
H1000 C984 0.931 . S
H1001 C989 0.930 . S
H1002 C990 0.956 . S
H1003 C990 0.961 . S
H1004 C990 0.961 . S
H1005 C991 0.958 . S
H1006 C991 0.961 . S
H1007 C991 0.960 . S
C1008 C1009 1.391 . S
C1008 C1010 1.394 . S
C1008 H1024 0.931 . S
C1009 C1008 1.391 . S
C1009 C1013 1.376 . S
C1010 C1008 1.394 . S
C1010 C1011 1.369 . S
C1010 C1014 1.531 . S
C1011 C1010 1.369 . S
C1011 C1012 1.410 . S
C1011 C1019 1.503 . S
C1012 C1011 1.410 . S
C1012 C1013 1.392 . S
C1012 C1015 1.511 . S
C1013 C1009 1.376 . S
C1013 C1012 1.392 . S
C1013 H1025 0.929 . S
C1014 C1010 1.531 . S
C1014 H1026 0.960 . S
C1014 H1027 0.962 . S
C1014 H1028 0.960 . S
C1015 C1012 1.511 . S
C1015 H1029 0.961 . S
C1015 H1030 0.961 . S
C1015 H1031 0.961 . S
C1016 C1017 1.370 . S
C1016 C1018 1.363 . S
C1016 H1032 0.931 . S
C1017 C1016 1.370 . S
C1017 C1021 1.408 . S
C1018 C1016 1.363 . S
C1018 C1019 1.370 . S
C1018 C1022 1.524 . S
C1019 C1011 1.503 . S
C1019 C1018 1.370 . S
C1019 C1020 1.403 . S
C1020 C1019 1.403 . S
C1020 C1021 1.404 . S
C1020 C1023 1.539 . S
C1021 C1017 1.408 . S
C1021 C1020 1.404 . S
C1021 H1033 0.930 . S
C1022 C1018 1.524 . S
C1022 H1034 0.956 . S
C1022 H1035 0.961 . S
C1022 H1036 0.961 . S
C1023 C1020 1.539 . S
C1023 H1037 0.958 . S
C1023 H1038 0.961 . S
C1023 H1039 0.960 . S
H1024 C1008 0.931 . S
H1025 C1013 0.929 . S
H1026 C1014 0.960 . S
H1027 C1014 0.962 . S
H1028 C1014 0.960 . S
H1029 C1015 0.961 . S
H1030 C1015 0.961 . S
H1031 C1015 0.961 . S
H1032 C1016 0.931 . S
H1033 C1021 0.930 . S
H1034 C1022 0.956 . S
H1035 C1022 0.961 . S
H1036 C1022 0.961 . S
H1037 C1023 0.958 . S
H1038 C1023 0.961 . S
H1039 C1023 0.960 . S
C1040 C1041 1.391 . S
C1040 C1042 1.394 . S
C1040 H1056 0.931 . S
C1041 C1040 1.391 . S
C1041 C1045 1.376 . S
C1042 C1040 1.394 . S
C1042 C1043 1.369 . S
C1042 C1046 1.531 . S
C1043 C1042 1.369 . S
C1043 C1044 1.410 . S
C1043 C1051 1.503 . S
C1044 C1043 1.410 . S
C1044 C1045 1.392 . S
C1044 C1047 1.511 . S
C1045 C1041 1.376 . S
C1045 C1044 1.392 . S
C1045 H1057 0.929 . S
C1046 C1042 1.531 . S
C1046 H1058 0.960 . S
C1046 H1059 0.962 . S
C1046 H1060 0.960 . S
C1047 C1044 1.511 . S
C1047 H1061 0.961 . S
C1047 H1062 0.961 . S
C1047 H1063 0.961 . S
C1048 C1049 1.370 . S
C1048 C1050 1.363 . S
C1048 H1064 0.931 . S
C1049 C1048 1.370 . S
C1049 C1053 1.408 . S
C1050 C1048 1.363 . S
C1050 C1051 1.370 . S
C1050 C1054 1.524 . S
C1051 C1043 1.503 . S
C1051 C1050 1.370 . S
C1051 C1052 1.403 . S
C1052 C1051 1.403 . S
C1052 C1053 1.404 . S
C1052 C1055 1.539 . S
C1053 C1049 1.408 . S
C1053 C1052 1.404 . S
C1053 H1065 0.930 . S
C1054 C1050 1.524 . S
C1054 H1066 0.956 . S
C1054 H1067 0.961 . S
C1054 H1068 0.961 . S
C1055 C1052 1.539 . S
C1055 H1069 0.958 . S
C1055 H1070 0.961 . S
C1055 H1071 0.960 . S
H1056 C1040 0.931 . S
H1057 C1045 0.929 . S
H1058 C1046 0.960 . S
H1059 C1046 0.962 . S
H1060 C1046 0.960 . S
H1061 C1047 0.961 . S
H1062 C1047 0.961 . S
H1063 C1047 0.961 . S
H1064 C1048 0.931 . S
H1065 C1053 0.930 . S
H1066 C1054 0.956 . S
H1067 C1054 0.961 . S
H1068 C1054 0.961 . S
H1069 C1055 0.958 . S
H1070 C1055 0.961 . S
H1071 C1055 0.960 . S
C1072 C1073 1.391 . S
C1072 C1074 1.394 . S
C1072 H1088 0.931 . S
C1073 C1072 1.391 . S
C1073 C1077 1.376 . S
C1074 C1072 1.394 . S
C1074 C1075 1.369 . S
C1074 C1078 1.531 . S
C1075 C1074 1.369 . S
C1075 C1076 1.410 . S
C1075 C1083 1.503 . S
C1076 C1075 1.410 . S
C1076 C1077 1.392 . S
C1076 C1079 1.511 . S
C1077 C1073 1.376 . S
C1077 C1076 1.392 . S
C1077 H1089 0.929 . S
C1078 C1074 1.531 . S
C1078 H1090 0.960 . S
C1078 H1091 0.962 . S
C1078 H1092 0.960 . S
C1079 C1076 1.511 . S
C1079 H1093 0.961 . S
C1079 H1094 0.961 . S
C1079 H1095 0.961 . S
C1080 C1081 1.370 . S
C1080 C1082 1.363 . S
C1080 H1096 0.931 . S
C1081 C1080 1.370 . S
C1081 C1085 1.408 . S
C1082 C1080 1.363 . S
C1082 C1083 1.370 . S
C1082 C1086 1.524 . S
C1083 C1075 1.503 . S
C1083 C1082 1.370 . S
C1083 C1084 1.403 . S
C1084 C1083 1.403 . S
C1084 C1085 1.404 . S
C1084 C1087 1.539 . S
C1085 C1081 1.408 . S
C1085 C1084 1.404 . S
C1085 H1097 0.930 . S
C1086 C1082 1.524 . S
C1086 H1098 0.956 . S
C1086 H1099 0.961 . S
C1086 H1100 0.961 . S
C1087 C1084 1.539 . S
C1087 H1101 0.958 . S
C1087 H1102 0.961 . S
C1087 H1103 0.960 . S
H1088 C1072 0.931 . S
H1089 C1077 0.929 . S
H1090 C1078 0.960 . S
H1091 C1078 0.962 . S
H1092 C1078 0.960 . S
H1093 C1079 0.961 . S
H1094 C1079 0.961 . S
H1095 C1079 0.961 . S
H1096 C1080 0.931 . S
H1097 C1085 0.930 . S
H1098 C1086 0.956 . S
H1099 C1086 0.961 . S
H1100 C1086 0.961 . S
H1101 C1087 0.958 . S
H1102 C1087 0.961 . S
H1103 C1087 0.960 . S
C1104 C1105 1.371 1_545 S
C1104 C1106 1.394 . S
C1104 H1120 0.931 . S
C1105 C1104 1.371 1_565 S
C1105 C1109 1.402 . S
C1106 C1104 1.394 . S
C1106 C1107 1.369 1_545 S
C1106 C1110 1.531 . S
C1107 C1106 1.369 1_565 S
C1107 C1108 1.410 . S
C1107 C1115 1.503 . S
C1108 C1107 1.410 . S
C1108 C1109 1.392 . S
C1108 C1111 1.511 . S
C1109 C1105 1.402 . S
C1109 C1108 1.392 . S
C1109 H1121 0.929 . S
C1110 C1106 1.531 . S
C1110 H1122 0.960 . S
C1110 H1123 0.962 . S
C1110 H1124 0.960 . S
C1111 C1108 1.511 . S
C1111 H1125 0.961 . S
C1111 H1126 0.961 . S
C1111 H1127 0.961 . S
C1112 C1113 1.370 . S
C1112 C1114 1.363 . S
C1112 H1128 0.931 . S
C1113 C1112 1.370 . S
C1113 C1117 1.408 1_545 S
C1114 C1112 1.363 . S
C1114 C1115 1.374 1_545 S
C1114 C1118 1.524 . S
C1115 C1107 1.503 . S
C1115 C1114 1.374 1_565 S
C1115 C1116 1.399 . S
C1116 C1115 1.399 . S
C1116 C1117 1.404 . S
C1116 C1119 1.539 . S
C1117 C1113 1.408 1_565 S
C1117 C1116 1.404 . S
C1117 H1129 0.930 . S
C1118 C1114 1.524 . S
C1118 H1130 0.956 . S
C1118 H1131 0.961 . S
C1118 H1132 0.961 . S
C1119 C1116 1.539 . S
C1119 H1133 0.958 . S
C1119 H1134 0.961 . S
C1119 H1135 0.960 . S
H1120 C1104 0.931 . S
H1121 C1109 0.929 . S
H1122 C1110 0.960 . S
H1123 C1110 0.962 . S
H1124 C1110 0.960 . S
H1125 C1111 0.961 . S
H1126 C1111 0.961 . S
H1127 C1111 0.961 . S
H1128 C1112 0.931 . S
H1129 C1117 0.930 . S
H1130 C1118 0.956 . S
H1131 C1118 0.961 . S
H1132 C1118 0.961 . S
H1133 C1119 0.958 . S
H1134 C1119 0.961 . S
H1135 C1119 0.960 . S
C1136 C1137 1.391 . S
C1136 C1138 1.394 . S
C1136 H1152 0.931 . S
C1137 C1136 1.391 . S
C1137 C1141 1.376 . S
C1138 C1136 1.394 . S
C1138 C1139 1.369 . S
C1138 C1142 1.531 . S
C1139 C1138 1.369 . S
C1139 C1140 1.410 . S
C1139 C1147 1.503 . S
C1140 C1139 1.410 . S
C1140 C1141 1.392 . S
C1140 C1143 1.511 . S
C1141 C1137 1.376 . S
C1141 C1140 1.392 . S
C1141 H1153 0.929 . S
C1142 C1138 1.531 . S
C1142 H1154 0.960 . S
C1142 H1155 0.962 . S
C1142 H1156 0.960 . S
C1143 C1140 1.511 . S
C1143 H1157 0.961 . S
C1143 H1158 0.961 . S
C1143 H1159 0.961 . S
C1144 C1145 1.370 . S
C1144 C1146 1.363 . S
C1144 H1160 0.931 . S
C1145 C1144 1.370 . S
C1145 C1149 1.408 . S
C1146 C1144 1.363 . S
C1146 C1147 1.370 . S
C1146 C1150 1.524 . S
C1147 C1139 1.503 . S
C1147 C1146 1.370 . S
C1147 C1148 1.403 . S
C1148 C1147 1.403 . S
C1148 C1149 1.404 . S
C1148 C1151 1.539 . S
C1149 C1145 1.408 . S
C1149 C1148 1.404 . S
C1149 H1161 0.930 . S
C1150 C1146 1.524 . S
C1150 H1162 0.956 . S
C1150 H1163 0.961 . S
C1150 H1164 0.961 . S
C1151 C1148 1.539 . S
C1151 H1165 0.958 . S
C1151 H1166 0.961 . S
C1151 H1167 0.960 . S
H1152 C1136 0.931 . S
H1153 C1141 0.929 . S
H1154 C1142 0.960 . S
H1155 C1142 0.962 . S
H1156 C1142 0.960 . S
H1157 C1143 0.961 . S
H1158 C1143 0.961 . S
H1159 C1143 0.961 . S
H1160 C1144 0.931 . S
H1161 C1149 0.930 . S
H1162 C1150 0.956 . S
H1163 C1150 0.961 . S
H1164 C1150 0.961 . S
H1165 C1151 0.958 . S
H1166 C1151 0.961 . S
H1167 C1151 0.960 . S
C1168 C1169 1.391 . S
C1168 C1170 1.394 . S
C1168 H1184 0.931 . S
C1169 C1168 1.391 . S
C1169 C1173 1.376 . S
C1170 C1168 1.394 . S
C1170 C1171 1.369 . S
C1170 C1174 1.531 . S
C1171 C1170 1.369 . S
C1171 C1172 1.410 . S
C1171 C1179 1.503 . S
C1172 C1171 1.410 . S
C1172 C1173 1.392 . S
C1172 C1175 1.511 . S
C1173 C1169 1.376 . S
C1173 C1172 1.392 . S
C1173 H1185 0.929 . S
C1174 C1170 1.531 . S
C1174 H1186 0.960 . S
C1174 H1187 0.962 . S
C1174 H1188 0.960 . S
C1175 C1172 1.511 . S
C1175 H1189 0.961 . S
C1175 H1190 0.961 . S
C1175 H1191 0.961 . S
C1176 C1177 1.370 . S
C1176 C1178 1.363 . S
C1176 H1192 0.931 . S
C1177 C1176 1.370 . S
C1177 C1181 1.408 . S
C1178 C1176 1.363 . S
C1178 C1179 1.370 . S
C1178 C1182 1.524 . S
C1179 C1171 1.503 . S
C1179 C1178 1.370 . S
C1179 C1180 1.403 . S
C1180 C1179 1.403 . S
C1180 C1181 1.404 . S
C1180 C1183 1.539 . S
C1181 C1177 1.408 . S
C1181 C1180 1.404 . S
C1181 H1193 0.930 . S
C1182 C1178 1.524 . S
C1182 H1194 0.956 . S
C1182 H1195 0.961 . S
C1182 H1196 0.961 . S
C1183 C1180 1.539 . S
C1183 H1197 0.958 . S
C1183 H1198 0.961 . S
C1183 H1199 0.960 . S
H1184 C1168 0.931 . S
H1185 C1173 0.929 . S
H1186 C1174 0.960 . S
H1187 C1174 0.962 . S
H1188 C1174 0.960 . S
H1189 C1175 0.961 . S
H1190 C1175 0.961 . S
H1191 C1175 0.961 . S
H1192 C1176 0.931 . S
H1193 C1181 0.930 . S
H1194 C1182 0.956 . S
H1195 C1182 0.961 . S
H1196 C1182 0.961 . S
H1197 C1183 0.958 . S
H1198 C1183 0.961 . S
H1199 C1183 0.960 . S
C1200 C1201 1.391 . S
C1200 C1202 1.394 . S
C1200 H1216 0.931 . S
C1201 C1200 1.391 . S
C1201 C1205 1.376 . S
C1202 C1200 1.394 . S
C1202 C1203 1.369 . S
C1202 C1206 1.531 . S
C1203 C1202 1.369 . S
C1203 C1204 1.410 . S
C1203 C1211 1.503 . S
C1204 C1203 1.410 . S
C1204 C1205 1.392 . S
C1204 C1207 1.511 . S
C1205 C1201 1.376 . S
C1205 C1204 1.392 . S
C1205 H1217 0.929 . S
C1206 C1202 1.531 . S
C1206 H1218 0.960 . S
C1206 H1219 0.962 . S
C1206 H1220 0.960 . S
C1207 C1204 1.511 . S
C1207 H1221 0.961 . S
C1207 H1222 0.961 . S
C1207 H1223 0.961 . S
C1208 C1209 1.370 . S
C1208 C1210 1.363 . S
C1208 H1224 0.890 1_655 S
C1209 C1208 1.370 . S
C1209 C1213 1.408 . S
C1210 C1208 1.363 . S
C1210 C1211 1.370 . S
C1210 C1214 1.524 . S
C1211 C1203 1.503 . S
C1211 C1210 1.370 . S
C1211 C1212 1.403 . S
C1212 C1211 1.403 . S
C1212 C1213 1.404 . S
C1212 C1215 1.539 . S
C1213 C1209 1.408 . S
C1213 C1212 1.404 . S
C1213 H1225 0.930 . S
C1214 C1210 1.524 . S
C1214 H1226 0.956 . S
C1214 H1227 0.961 . S
C1214 H1228 0.961 1_655 S
C1215 C1212 1.539 . S
C1215 H1229 0.958 . S
C1215 H1230 0.961 . S
C1215 H1231 0.960 . S
H1216 C1200 0.931 . S
H1217 C1205 0.929 . S
H1218 C1206 0.960 . S
H1219 C1206 0.962 . S
H1220 C1206 0.960 . S
H1221 C1207 0.961 . S
H1222 C1207 0.961 . S
H1223 C1207 0.961 . S
H1224 C1208 0.890 1_455 S
H1225 C1213 0.930 . S
H1226 C1214 0.956 . S
H1227 C1214 0.961 . S
H1228 C1214 0.961 1_455 S
H1229 C1215 0.958 . S
H1230 C1215 0.961 . S
H1231 C1215 0.960 . S
C1232 C1233 1.391 . S
C1232 C1234 1.394 . S
C1232 H1248 0.931 . S
C1233 C1232 1.391 . S
C1233 C1237 1.376 . S
C1234 C1232 1.394 . S
C1234 C1235 1.369 . S
C1234 C1238 1.531 . S
C1235 C1234 1.369 . S
C1235 C1236 1.410 . S
C1235 C1243 1.503 . S
C1236 C1235 1.410 . S
C1236 C1237 1.392 . S
C1236 C1239 1.511 . S
C1237 C1233 1.376 . S
C1237 C1236 1.392 . S
C1237 H1249 0.929 . S
C1238 C1234 1.531 . S
C1238 H1250 0.960 . S
C1238 H1251 0.962 1_565 S
C1238 H1252 0.960 . S
C1239 C1236 1.511 . S
C1239 H1253 0.961 . S
C1239 H1254 0.961 . S
C1239 H1255 0.961 . S
C1240 C1241 1.370 1_545 S
C1240 C1242 1.363 . S
C1240 H1256 0.931 . S
C1241 C1240 1.370 1_565 S
C1241 C1245 1.408 . S
C1242 C1240 1.363 . S
C1242 C1243 1.370 1_545 S
C1242 C1246 1.524 . S
C1243 C1235 1.503 . S
C1243 C1242 1.370 1_565 S
C1243 C1244 1.403 . S
C1244 C1243 1.403 . S
C1244 C1245 1.404 . S
C1244 C1247 1.539 . S
C1245 C1241 1.408 . S
C1245 C1244 1.404 . S
C1245 H1257 0.930 . S
C1246 C1242 1.524 . S
C1246 H1258 0.956 . S
C1246 H1259 0.961 . S
C1246 H1260 0.961 . S
C1247 C1244 1.539 . S
C1247 H1261 0.958 . S
C1247 H1262 0.961 . S
C1247 H1263 0.960 . S
H1248 C1232 0.931 . S
H1249 C1237 0.929 . S
H1250 C1238 0.960 . S
H1251 C1238 0.962 1_545 S
H1252 C1238 0.960 . S
H1253 C1239 0.961 . S
H1254 C1239 0.961 . S
H1255 C1239 0.961 . S
H1256 C1240 0.931 . S
H1257 C1245 0.930 . S
H1258 C1246 0.956 . S
H1259 C1246 0.961 . S
H1260 C1246 0.961 . S
H1261 C1247 0.958 . S
H1262 C1247 0.961 . S
H1263 C1247 0.960 . S
C1264 C1265 1.391 . S
C1264 C1266 1.394 . S
C1264 H1280 0.931 . S
C1265 C1264 1.391 . S
C1265 C1269 1.376 . S
C1266 C1264 1.394 . S
C1266 C1267 1.369 . S
C1266 C1270 1.531 . S
C1267 C1266 1.369 . S
C1267 C1268 1.410 . S
C1267 C1275 1.503 . S
C1268 C1267 1.410 . S
C1268 C1269 1.392 . S
C1268 C1271 1.511 . S
C1269 C1265 1.376 . S
C1269 C1268 1.392 . S
C1269 H1281 0.929 . S
C1270 C1266 1.531 . S
C1270 H1282 0.960 . S
C1270 H1283 0.962 . S
C1270 H1284 0.960 . S
C1271 C1268 1.511 . S
C1271 H1285 0.961 . S
C1271 H1286 0.961 . S
C1271 H1287 0.961 . S
C1272 C1273 1.370 . S
C1272 C1274 1.363 . S
C1272 H1288 0.931 . S
C1273 C1272 1.370 . S
C1273 C1277 1.408 . S
C1274 C1272 1.363 . S
C1274 C1275 1.370 . S
C1274 C1278 1.524 . S
C1275 C1267 1.503 . S
C1275 C1274 1.370 . S
C1275 C1276 1.403 . S
C1276 C1275 1.403 . S
C1276 C1277 1.404 . S
C1276 C1279 1.539 . S
C1277 C1273 1.408 . S
C1277 C1276 1.404 . S
C1277 H1289 0.930 . S
C1278 C1274 1.524 . S
C1278 H1290 0.956 . S
C1278 H1291 0.961 . S
C1278 H1292 0.961 . S
C1279 C1276 1.539 . S
C1279 H1293 0.958 . S
C1279 H1294 0.961 . S
C1279 H1295 0.960 . S
H1280 C1264 0.931 . S
H1281 C1269 0.929 . S
H1282 C1270 0.960 . S
H1283 C1270 0.962 . S
H1284 C1270 0.960 . S
H1285 C1271 0.961 . S
H1286 C1271 0.961 . S
H1287 C1271 0.961 . S
H1288 C1272 0.931 . S
H1289 C1277 0.930 . S
H1290 C1278 0.956 . S
H1291 C1278 0.961 . S
H1292 C1278 0.961 . S
H1293 C1279 0.958 . S
H1294 C1279 0.961 . S
H1295 C1279 0.960 . S
C1296 C1297 1.391 . S
C1296 C1298 1.394 . S
C1296 H1312 0.931 . S
C1297 C1296 1.391 . S
C1297 C1301 1.376 . S
C1298 C1296 1.394 . S
C1298 C1299 1.369 . S
C1298 C1302 1.531 . S
C1299 C1298 1.369 . S
C1299 C1300 1.410 . S
C1299 C1307 1.503 . S
C1300 C1299 1.410 . S
C1300 C1301 1.392 . S
C1300 C1303 1.511 . S
C1301 C1297 1.376 . S
C1301 C1300 1.392 . S
C1301 H1313 0.929 . S
C1302 C1298 1.531 . S
C1302 H1314 0.960 . S
C1302 H1315 0.962 . S
C1302 H1316 0.960 . S
C1303 C1300 1.511 . S
C1303 H1317 0.961 . S
C1303 H1318 0.961 . S
C1303 H1319 0.961 . S
C1304 C1305 1.370 . S
C1304 C1306 1.363 . S
C1304 H1320 0.931 . S
C1305 C1304 1.370 . S
C1305 C1309 1.408 . S
C1306 C1304 1.363 . S
C1306 C1307 1.370 . S
C1306 C1310 1.524 . S
C1307 C1299 1.503 . S
C1307 C1306 1.370 . S
C1307 C1308 1.403 . S
C1308 C1307 1.403 . S
C1308 C1309 1.404 . S
C1308 C1311 1.539 . S
C1309 C1305 1.408 . S
C1309 C1308 1.404 . S
C1309 H1321 0.930 . S
C1310 C1306 1.524 . S
C1310 H1322 0.956 . S
C1310 H1323 0.961 . S
C1310 H1324 0.961 . S
C1311 C1308 1.539 . S
C1311 H1325 0.958 . S
C1311 H1326 0.961 . S
C1311 H1327 0.960 . S
H1312 C1296 0.931 . S
H1313 C1301 0.929 . S
H1314 C1302 0.960 . S
H1315 C1302 0.962 . S
H1316 C1302 0.960 . S
H1317 C1303 0.961 . S
H1318 C1303 0.961 . S
H1319 C1303 0.961 . S
H1320 C1304 0.931 . S
H1321 C1309 0.930 . S
H1322 C1310 0.956 . S
H1323 C1310 0.961 . S
H1324 C1310 0.961 . S
H1325 C1311 0.958 . S
H1326 C1311 0.961 . S
H1327 C1311 0.960 . S
C561 C391 1.743 . S
C569 C488 1.791 . S
C601 C518 2.407 . S
C593 C451 2.376 . S
C633 C528 1.867 . S
C625 C241 1.692 . S
C665 C548 1.767 . S
C657 C331 1.442 . S
C697 C489 1.791 . S
C689 C121 1.561 . S
C721 C211 2.325 1_556 S
C729 C519 2.398 . S
C753 C31 1.888 . S
C761 C529 1.873 . S
C785 C91 1.597 . S
C793 C549 1.766 . S
C825 C481 0.781 . S
C817 C301 0.708 . S
C857 C502 0.324 . S
C849 C380 0.205 1_565 S
C889 C521 1.072 . S
C881 C440 1.094 . S
C913 C260 0.616 . S
C921 C541 0.538 . S
C945 C61 0.726 . S
C953 C482 0.779 1_655 S
C985 C501 0.262 . S
C977 C140 0.673 1_545 S
C1017 C522 1.092 . S
C1009 C200 0.991 . S
C1041 C20 0.527 . S
C1049 C542 0.541 . S
C1073 C320 2.362 . S
C1081 C499 2.481 . S
C1105 C361 1.576 1_565 S
C1113 C509 2.017 . S
C1145 C539 2.684 . S
C1137 C421 2.295 . S
C1177 C559 2.557 . S
C1169 C271 2.473 . S
C1201 C80 2.408 . S
C1209 C498 2.491 . S
C1241 C508 2.008 . S
C1233 C151 1.881 . S
C1273 C538 2.685 . S
C1265 C181 2.170 . S
C1297 C1 2.239 . S
C1305 C558 2.553 . S
