# Generated by pormake.
# Topology pto, (3,4)-cn, num edge types: 1
# Building blocks:
#     Node 0, Type 0, BuildingBlock: OLANEW_clean_sbu_2, # of connection points: 3
#     Node 1, Type 0, BuildingBlock: OLANEW_clean_sbu_2, # of connection points: 3
#     Node 2, Type 0, BuildingBlock: OLANEW_clean_sbu_2, # of connection points: 3
#     Node 3, Type 0, BuildingBlock: OLANEW_clean_sbu_2, # of connection points: 3
#     Node 4, Type 0, BuildingBlock: OLANEW_clean_sbu_2, # of connection points: 3
#     Node 5, Type 0, BuildingBlock: OLANEW_clean_sbu_2, # of connection points: 3
#     Node 6, Type 0, BuildingBlock: OLANEW_clean_sbu_2, # of connection points: 3
#     Node 7, Type 0, BuildingBlock: OLANEW_clean_sbu_2, # of connection points: 3
#     Node 8, Type 1, BuildingBlock: NAHDIM_clean_linker_0, # of connection points: 4
#     Node 9, Type 1, BuildingBlock: NAHDIM_clean_linker_0, # of connection points: 4
#     Node 10, Type 1, BuildingBlock: NAHDIM_clean_linker_0, # of connection points: 4
#     Node 11, Type 1, BuildingBlock: NAHDIM_clean_linker_0, # of connection points: 4
#     Node 12, Type 1, BuildingBlock: NAHDIM_clean_linker_0, # of connection points: 4
#     Node 13, Type 1, BuildingBlock: NAHDIM_clean_linker_0, # of connection points: 4
#     Edge 14, Type (0, 1), BuildingBlock: OJICUG_clean_linker_0, # of connection points: 2
#     Edge 15, Type (0, 1), BuildingBlock: OJICUG_clean_linker_0, # of connection points: 2
#     Edge 16, Type (0, 1), BuildingBlock: OJICUG_clean_linker_0, # of connection points: 2
#     Edge 17, Type (0, 1), BuildingBlock: OJICUG_clean_linker_0, # of connection points: 2
#     Edge 18, Type (0, 1), BuildingBlock: OJICUG_clean_linker_0, # of connection points: 2
#     Edge 19, Type (0, 1), BuildingBlock: OJICUG_clean_linker_0, # of connection points: 2
#     Edge 20, Type (0, 1), BuildingBlock: OJICUG_clean_linker_0, # of connection points: 2
#     Edge 21, Type (0, 1), BuildingBlock: OJICUG_clean_linker_0, # of connection points: 2
#     Edge 22, Type (0, 1), BuildingBlock: OJICUG_clean_linker_0, # of connection points: 2
#     Edge 23, Type (0, 1), BuildingBlock: OJICUG_clean_linker_0, # of connection points: 2
#     Edge 24, Type (0, 1), BuildingBlock: OJICUG_clean_linker_0, # of connection points: 2
#     Edge 25, Type (0, 1), BuildingBlock: OJICUG_clean_linker_0, # of connection points: 2
#     Edge 26, Type (0, 1), BuildingBlock: OJICUG_clean_linker_0, # of connection points: 2
#     Edge 27, Type (0, 1), BuildingBlock: OJICUG_clean_linker_0, # of connection points: 2
#     Edge 28, Type (0, 1), BuildingBlock: OJICUG_clean_linker_0, # of connection points: 2
#     Edge 29, Type (0, 1), BuildingBlock: OJICUG_clean_linker_0, # of connection points: 2
#     Edge 30, Type (0, 1), BuildingBlock: OJICUG_clean_linker_0, # of connection points: 2
#     Edge 31, Type (0, 1), BuildingBlock: OJICUG_clean_linker_0, # of connection points: 2
#     Edge 32, Type (0, 1), BuildingBlock: OJICUG_clean_linker_0, # of connection points: 2
#     Edge 33, Type (0, 1), BuildingBlock: OJICUG_clean_linker_0, # of connection points: 2
#     Edge 34, Type (0, 1), BuildingBlock: OJICUG_clean_linker_0, # of connection points: 2
#     Edge 35, Type (0, 1), BuildingBlock: OJICUG_clean_linker_0, # of connection points: 2
#     Edge 36, Type (0, 1), BuildingBlock: OJICUG_clean_linker_0, # of connection points: 2
#     Edge 37, Type (0, 1), BuildingBlock: OJICUG_clean_linker_0, # of connection points: 2
# Relax obj value: 0.013
# Max RMSD: 0.131
# Mean RMSD: 0.068
data_MOF--net-pto--node1-OLANEW_clean_sbu_2--node2-NAHDIM_clean_linker_0--edge1-OJICUG_clean_linker_0
_symmetry_space_group_name_H-M    P1
_symmetry_Int_Tables_number       1
_symmetry_cell_setting            triclinic
loop_
_symmetry_equiv_pos_as_xyz
'x, y, z'
_cell_length_a     49.355694
_cell_length_b     49.116056
_cell_length_c     45.590257
_cell_angle_alpha  92.560273
_cell_angle_beta   91.129315
_cell_angle_gamma 103.27905
loop_
_atom_site_label
_atom_site_type_symbol
_atom_site_fract_x
_atom_site_fract_y
_atom_site_fract_z
_atom_type_partial_charge
O0 O 0.34516 0.37876 0.2812 0.0
Cd1 Cd 0.31514 0.36425 0.3221 0.0
O2 O 0.3204 0.408 0.26788 0.0
Cd3 Cd 0.30636 0.43747 0.24016 0.0
O4 O 0.27912 0.46102 0.22017 0.0
C5 C 0.27152 0.45696 0.19328 0.0
O6 O 0.28114 0.43907 0.17658 0.0
C7 C 0.34106 0.39702 0.26386 0.0
C8 C 0.3365 0.32536 0.35172 0.0
O9 O 0.31775 0.31737 0.33135 0.0
O10 O 0.34462 0.35157 0.35864 0.0
O11 O 0.27848 0.86707 0.79263 0.0
Cd12 Cd 0.25526 0.87228 0.74634 0.0
O13 O 0.29574 0.83297 0.77374 0.0
Cd14 Cd 0.26124 0.82076 0.74174 0.0
O15 O 0.22427 0.78751 0.74723 0.0
C16 C 0.20923 0.79115 0.7687 0.0
O17 O 0.21493 0.81553 0.78339 0.0
C18 C 0.29547 0.85126 0.79427 0.0
C19 C 0.2913 0.91908 0.72539 0.0
O20 O 0.27064 0.92153 0.74109 0.0
O21 O 0.29374 0.89432 0.71785 0.0
O22 O 0.82283 0.80208 0.28186 0.0
Cd23 Cd 0.80387 0.77304 0.23774 0.0
O24 O 0.78618 0.78421 0.30739 0.0
Cd25 Cd 0.76249 0.76174 0.26939 0.0
O26 O 0.72994 0.75622 0.2352 0.0
C27 C 0.72112 0.77799 0.23027 0.0
O28 O 0.7326 0.80153 0.24506 0.0
C29 C 0.81018 0.80046 0.30601 0.0
C30 C 0.82663 0.72633 0.22849 0.0
O31 O 0.83654 0.74925 0.21604 0.0
O32 O 0.80616 0.72558 0.24554 0.0
O33 O 0.76909 0.31818 0.66511 0.0
Cd34 Cd 0.73573 0.29057 0.62873 0.0
O35 O 0.73671 0.32302 0.69582 0.0
Cd36 Cd 0.71903 0.33861 0.73513 0.0
O37 O 0.70634 0.35155 0.77822 0.0
C38 C 0.70507 0.37677 0.78395 0.0
O39 O 0.71107 0.39495 0.76339 0.0
C40 C 0.76237 0.32775 0.68959 0.0
C41 C 0.73246 0.23343 0.63247 0.0
O42 O 0.7517 0.2488 0.61807 0.0
O43 O 0.71468 0.24505 0.64502 0.0
O44 O 0.74429 0.76174 0.64634 0.0
Cd45 Cd 0.7336 0.71102 0.65069 0.0
O46 O 0.7203 0.76487 0.6857 0.0
Cd47 Cd 0.70553 0.78534 0.72391 0.0
O48 O 0.69213 0.79746 0.76706 0.0
C49 C 0.68648 0.82109 0.7727 0.0
O50 O 0.68854 0.83905 0.75188 0.0
C51 C 0.73535 0.77683 0.6655 0.0
C52 C 0.78199 0.6939 0.66565 0.0
O53 O 0.77394 0.6939 0.63874 0.0
O54 O 0.76693 0.70164 0.68552 0.0
O55 O 0.80324 0.28191 0.23012 0.0
Cd56 Cd 0.75826 0.25974 0.25018 0.0
O57 O 0.81101 0.31564 0.2648 0.0
Cd58 Cd 0.76668 0.3088 0.27317 0.0
O59 O 0.73188 0.32379 0.2548 0.0
C60 C 0.72713 0.3192 0.2273 0.0
O61 O 0.74153 0.30399 0.21265 0.0
C62 C 0.81955 0.30303 0.24316 0.0
C63 C 0.76418 0.22034 0.29094 0.0
O64 O 0.75697 0.21268 0.26413 0.0
O65 O 0.76846 0.24648 0.29843 0.0
O66 O 0.29231 0.44838 0.8138 0.0
Cd67 Cd 0.25404 0.45096 0.7797 0.0
O68 O 0.30847 0.42152 0.78215 0.0
Cd69 Cd 0.33632 0.39475 0.76849 0.0
O70 O 0.35562 0.36034 0.75542 0.0
C71 C 0.34665 0.33691 0.7667 0.0
O72 O 0.32673 0.33435 0.78574 0.0
C73 C 0.31061 0.43493 0.80692 0.0
C74 C 0.20298 0.44725 0.80655 0.0
O75 O 0.20944 0.4255 0.79475 0.0
O76 O 0.22078 0.47075 0.80593 0.0
O77 O 0.35303 0.92441 0.21436 0.0
Cd78 Cd 0.33058 0.96002 0.23532 0.0
O79 O 0.31325 0.89333 0.21322 0.0
Cd80 Cd 0.28612 0.85118 0.20864 0.0
O81 O 0.25738 0.81 0.20411 0.0
C82 C 0.2423 0.80054 0.22534 0.0
O83 O 0.24439 0.81579 0.25006 0.0
C84 C 0.33924 0.89947 0.20857 0.0
C85 C 0.34257 0.96785 0.29562 0.0
O86 O 0.32059 0.95032 0.28559 0.0
O87 O 0.35862 0.98195 0.27715 0.0
C88 C 0.94111 0.33178 0.17953 0.0
C89 C 0.92816 0.35234 0.19759 0.0
C90 C 0.94013 0.40095 0.18352 0.0
C91 C 0.94782 0.41437 0.21128 0.0
C92 C 0.9659 0.44103 0.21396 0.0
C93 C 0.97619 0.45461 0.18836 0.0
C94 C 0.96663 0.44209 0.16037 0.0
C95 C 0.94847 0.41543 0.15834 0.0
C96 C 0.97516 0.45407 0.24416 0.0
C97 C 0.97681 0.45619 0.13264 0.0
C98 C 0.1988 0.45788 0.17863 0.0
C99 C 0.1713 0.4628 0.1697 0.0
C100 C 0.1301 0.47308 0.1928 0.0
C101 C 0.11765 0.4793 0.1667 0.0
C102 C 0.09172 0.48647 0.167 0.0
C103 C 0.07805 0.48747 0.19389 0.0
C104 C 0.09052 0.48119 0.22015 0.0
C105 C 0.11646 0.47413 0.21922 0.0
C106 C 0.0789 0.49306 0.13863 0.0
C107 C 0.07645 0.48201 0.24915 0.0
C108 C 0.11584 0.67237 0.22116 0.0
C109 C 0.10623 0.66224 0.19264 0.0
C110 C 0.08129 0.64179 0.18806 0.0
C111 C 0.06578 0.63117 0.2125 0.0
C112 C 0.07484 0.64217 0.24116 0.0
C113 C 0.09964 0.66292 0.24506 0.0
C114 C 0.07175 0.63117 0.15713 0.0
C115 C 0.05869 0.63145 0.26768 0.0
C116 C 0.84473 0.60582 0.18439 0.0
C117 C 0.86736 0.6257 0.20342 0.0
C118 C 0.91463 0.62031 0.19231 0.0
C119 C 0.93051 0.61712 0.16792 0.0
C120 C 0.9548 0.60707 0.17058 0.0
C121 C 0.96365 0.60044 0.19852 0.0
C122 C 0.94782 0.60379 0.22341 0.0
C123 C 0.92349 0.61381 0.2201 0.0
C124 C 0.97131 0.60405 0.1436 0.0
C125 C 0.95702 0.5974 0.25358 0.0
C126 C 0.00023 0.4792 0.19089 0.0
C127 C 0.02674 0.47359 0.19102 0.0
C128 C 0.05069 0.49511 0.19451 0.0
C129 C 0.04837 0.52315 0.19834 0.0
C130 C 0.07211 0.54518 0.20286 0.0
C131 C 0.0697 0.57274 0.20649 0.0
C132 C 0.04348 0.57941 0.20525 0.0
C133 C 0.04096 0.60748 0.20819 0.0
C134 C 0.01466 0.61345 0.20643 0.0
C135 C 0.99056 0.59206 0.20189 0.0
C136 C 0.9926 0.56376 0.19939 0.0
C137 C 0.96882 0.54162 0.1953 0.0
C138 C 0.97118 0.51384 0.19273 0.0
C139 C 0.99742 0.50724 0.19373 0.0
C140 C 0.02165 0.52927 0.19766 0.0
C141 C 0.01923 0.55749 0.20085 0.0
C142 C 0.17893 0.66965 0.22649 0.0
C143 C 0.1652 0.69122 0.21275 0.0
O144 O 0.92507 0.37405 0.1803 0.0
O145 O 0.8919 0.63108 0.18813 0.0
O146 O 0.14035 0.69146 0.22638 0.0
O147 O 0.15512 0.46603 0.19354 0.0
H148 H 0.94315 0.36005 0.21634 0.0
H149 H 0.96284 0.34215 0.17438 0.0
H150 H 0.92942 0.32503 0.15841 0.0
H151 H 0.94163 0.31308 0.19219 0.0
H152 H 0.94016 0.40387 0.23088 0.0
H153 H 0.94186 0.40518 0.137 0.0
H154 H 0.9976 0.45473 0.24789 0.0
H155 H 0.96324 0.44221 0.26179 0.0
H156 H 0.97265 0.47598 0.24579 0.0
H157 H 0.96495 0.44545 0.11279 0.0
H158 H 0.99915 0.45618 0.13015 0.0
H159 H 0.9751 0.47836 0.13402 0.0
H160 H 0.15973 0.44808 0.15194 0.0
H161 H 0.19846 0.43608 0.16956 0.0
H162 H 0.19733 0.45178 0.2022 0.0
H163 H 0.22734 0.49341 0.16527 0.0
H164 H 0.12806 0.47866 0.1461 0.0
H165 H 0.12626 0.46932 0.23922 0.0
H166 H 0.05814 0.47865 0.13457 0.0
H167 H 0.09205 0.49113 0.11949 0.0
H168 H 0.07573 0.51472 0.14038 0.0
H169 H 0.08901 0.47677 0.26765 0.0
H170 H 0.05585 0.46693 0.24792 0.0
H171 H 0.07272 0.5032 0.25383 0.0
H172 H 0.16139 0.68531 0.18898 0.0
H173 H 0.11788 0.6704 0.17385 0.0
H174 H 0.107 0.67124 0.26694 0.0
H175 H 0.07302 0.60896 0.154 0.0
H176 H 0.08458 0.64348 0.14038 0.0
H177 H 0.04965 0.63197 0.15337 0.0
H178 H 0.06865 0.642 0.28853 0.0
H179 H 0.05692 0.60856 0.26868 0.0
H180 H 0.03725 0.63479 0.26572 0.0
H181 H 0.86967 0.61521 0.22408 0.0
H182 H 0.82486 0.60078 0.19621 0.0
H183 H 0.85121 0.58596 0.17925 0.0
H184 H 0.84123 0.61538 0.16342 0.0
H185 H 0.92375 0.62259 0.14666 0.0
H186 H 0.91219 0.61739 0.23942 0.0
H187 H 0.97456 0.58243 0.14125 0.0
H188 H 0.99216 0.61861 0.14604 0.0
H189 H 0.96084 0.60863 0.12322 0.0
H190 H 0.94189 0.60001 0.2706 0.0
H191 H 0.97753 0.61153 0.25974 0.0
H192 H 0.95974 0.57557 0.25337 0.0
H193 H 0.02876 0.45207 0.18852 0.0
H194 H 0.09285 0.54136 0.20376 0.0
H195 H 0.08873 0.58878 0.21006 0.0
H196 H 0.01295 0.6351 0.20824 0.0
H197 H 0.94813 0.54555 0.19416 0.0
H198 H 0.95224 0.49758 0.1897 0.0
H199 H 0.19906 0.66958 0.21603 0.0
H200 H 0.16515 0.64837 0.22309 0.0
H201 H 0.18273 0.67443 0.25048 0.0
C202 C 0.09948 0.42142 0.89199 0.0
C203 C 0.09707 0.43679 0.86397 0.0
C204 C 0.0717 0.47344 0.85744 0.0
C205 C 0.06755 0.47052 0.82682 0.0
C206 C 0.04761 0.48223 0.81284 0.0
C207 C 0.03112 0.49662 0.82993 0.0
C208 C 0.03539 0.49959 0.86084 0.0
C209 C 0.05613 0.4885 0.87407 0.0
C210 C 0.0441 0.47911 0.77981 0.0
C211 C 0.01779 0.51404 0.88001 0.0
C212 C 0.86612 0.37196 0.7815 0.0
C213 C 0.85119 0.39262 0.76762 0.0
C214 C 0.8912 0.43281 0.76295 0.0
C215 C 0.89393 0.44232 0.79265 0.0
C216 C 0.91671 0.46373 0.80274 0.0
C217 C 0.93724 0.47561 0.78282 0.0
C218 C 0.93442 0.46613 0.75291 0.0
C219 C 0.91122 0.4451 0.74335 0.0
C220 C 0.91894 0.47361 0.83471 0.0
C221 C 0.9561 0.47795 0.7311 0.0
C222 C 0.90921 0.64678 0.73464 0.0
C223 C 0.90855 0.64255 0.76476 0.0
C224 C 0.92884 0.63138 0.77879 0.0
C225 C 0.95011 0.6239 0.76211 0.0
C226 C 0.95066 0.6276 0.73152 0.0
C227 C 0.93026 0.63904 0.71809 0.0
C228 C 0.92775 0.62785 0.81148 0.0
C229 C 0.973 0.61969 0.71307 0.0
C230 C 0.16489 0.69538 0.85445 0.0
C231 C 0.14636 0.69592 0.82729 0.0
C232 C 0.09554 0.68121 0.82572 0.0
C233 C 0.07311 0.67601 0.84449 0.0
C234 C 0.0478 0.65764 0.83563 0.0
C235 C 0.04487 0.64454 0.80711 0.0
C236 C 0.06698 0.65094 0.78742 0.0
C237 C 0.09212 0.6693 0.79691 0.0
C238 C 0.02445 0.65161 0.85698 0.0
C239 C 0.06421 0.63791 0.75659 0.0
C240 C 0.0088 0.5077 0.81561 0.0
C241 C 0.98413 0.48859 0.80658 0.0
C242 C 0.96206 0.49741 0.79332 0.0
C243 C 0.96427 0.52623 0.7894 0.0
C244 C 0.94222 0.5359 0.77678 0.0
C245 C 0.94478 0.56426 0.77254 0.0
C246 C 0.9694 0.58407 0.781 0.0
C247 C 0.97229 0.61293 0.77667 0.0
C248 C 0.99701 0.63207 0.78551 0.0
C249 C 0.01919 0.62317 0.79837 0.0
C250 C 0.01684 0.59438 0.80262 0.0
C251 C 0.03894 0.58469 0.81511 0.0
C252 C 0.03648 0.55632 0.81912 0.0
C253 C 0.01169 0.53656 0.81116 0.0
C254 C 0.98923 0.54584 0.79826 0.0
C255 C 0.9918 0.57479 0.79401 0.0
C256 C 0.91018 0.6957 0.69209 0.0
C257 C 0.88835 0.66816 0.69465 0.0
O258 O 0.09063 0.46216 0.87161 0.0
O259 O 0.1201 0.69761 0.83624 0.0
O260 O 0.88938 0.65856 0.72272 0.0
O261 O 0.86986 0.41185 0.75214 0.0
H262 H 0.07979 0.42332 0.85016 0.0
H263 H 0.0796 0.41822 0.9038 0.0
H264 H 0.11649 0.43379 0.90679 0.0
H265 H 0.10378 0.40055 0.8866 0.0
H266 H 0.08008 0.45938 0.81383 0.0
H267 H 0.05967 0.49077 0.89768 0.0
H268 H 0.02396 0.46432 0.77374 0.0
H269 H 0.06108 0.47101 0.76948 0.0
H270 H 0.0436 0.49957 0.77064 0.0
H271 H 0.02085 0.5108 0.90369 0.0
H272 H 0.99537 0.50625 0.87383 0.0
H273 H 0.02339 0.53688 0.87676 0.0
H274 H 0.84184 0.40377 0.78505 0.0
H275 H 0.85124 0.35638 0.79378 0.0
H276 H 0.88284 0.38317 0.79723 0.0
H277 H 0.87561 0.36074 0.76427 0.0
H278 H 0.87847 0.43323 0.80807 0.0
H279 H 0.90887 0.43769 0.72048 0.0
H280 H 0.92228 0.49677 0.83669 0.0
H281 H 0.93723 0.46803 0.84531 0.0
H282 H 0.90006 0.46412 0.84682 0.0
H283 H 0.95205 0.46662 0.70924 0.0
H284 H 0.97711 0.47687 0.73943 0.0
H285 H 0.95636 0.50034 0.72832 0.0
H286 H 0.89235 0.65218 0.67828 0.0
H287 H 0.89224 0.64849 0.77737 0.0
H288 H 0.93112 0.64194 0.69474 0.0
H289 H 0.92571 0.60546 0.816 0.0
H290 H 0.91007 0.63505 0.82142 0.0
H291 H 0.94749 0.63987 0.82234 0.0
H292 H 0.96967 0.62237 0.6893 0.0
H293 H 0.97358 0.59754 0.71621 0.0
H294 H 0.99364 0.63292 0.72031 0.0
H295 H 0.14543 0.67587 0.81445 0.0
H296 H 0.18613 0.69408 0.84786 0.0
H297 H 0.15594 0.67675 0.86705 0.0
H298 H 0.16643 0.71446 0.86903 0.0
H299 H 0.07583 0.68572 0.8665 0.0
H300 H 0.10902 0.67422 0.78183 0.0
H301 H 0.01953 0.629 0.86153 0.0
H302 H 0.00538 0.6563 0.84712 0.0
H303 H 0.02977 0.66406 0.8781 0.0
H304 H 0.08285 0.646 0.74352 0.0
H305 H 0.04562 0.64211 0.74517 0.0
H306 H 0.06107 0.61484 0.75742 0.0
H307 H 0.98214 0.46645 0.80973 0.0
H308 H 0.92273 0.52163 0.76996 0.0
H309 H 0.92718 0.57048 0.76259 0.0
H310 H 0.99909 0.65418 0.78213 0.0
H311 H 0.05848 0.59891 0.82186 0.0
H312 H 0.05426 0.55008 0.82861 0.0
H313 H 0.90663 0.71185 0.70849 0.0
H314 H 0.90913 0.70357 0.66971 0.0
H315 H 0.93148 0.69253 0.69596 0.0
C316 C 0.35178 0.27146 0.72515 0.0
C317 C 0.35832 0.24484 0.71397 0.0
C318 C 0.36615 0.22231 0.66741 0.0
C319 C 0.38935 0.22051 0.65107 0.0
C320 C 0.38955 0.19648 0.63325 0.0
C321 C 0.36552 0.17416 0.6311 0.0
C322 C 0.34148 0.17651 0.64651 0.0
C323 C 0.34207 0.20056 0.66459 0.0
C324 C 0.41561 0.19473 0.61724 0.0
C325 C 0.31527 0.15349 0.64413 0.0
C326 C 0.40755 0.00736 0.73614 0.0
C327 C 0.385 0.01365 0.71578 0.0
C328 C 0.38917 0.03666 0.66946 0.0
C329 C 0.36237 0.04173 0.66749 0.0
C330 C 0.35656 0.06175 0.64887 0.0
C331 C 0.3782 0.07755 0.63247 0.0
C332 C 0.40523 0.07231 0.63428 0.0
C333 C 0.41015 0.05139 0.65227 0.0
C334 C 0.32735 0.06628 0.64712 0.0
C335 C 0.42907 0.08916 0.61776 0.0
C336 C 0.38393 0.02068 0.44285 0.0
C337 C 0.35604 0.02265 0.4451 0.0
C338 C 0.34937 0.04563 0.46037 0.0
C339 C 0.37099 0.06721 0.47315 0.0
C340 C 0.39909 0.06578 0.46985 0.0
C341 C 0.40512 0.04244 0.45486 0.0
C342 C 0.31923 0.04674 0.46314 0.0
C343 C 0.42277 0.08879 0.48239 0.0
C344 C 0.34707 0.27604 0.40833 0.0
C345 C 0.3574 0.25648 0.42724 0.0
C346 C 0.34365 0.20846 0.44281 0.0
C347 C 0.32134 0.18563 0.44628 0.0
C348 C 0.32497 0.1622 0.46103 0.0
C349 C 0.35175 0.16154 0.47218 0.0
C350 C 0.37466 0.18411 0.46778 0.0
C351 C 0.37035 0.20747 0.4534 0.0
C352 C 0.30015 0.1384 0.46526 0.0
C353 C 0.40365 0.18378 0.47873 0.0
C354 C 0.366 0.14786 0.61387 0.0
C355 C 0.37125 0.1255 0.62916 0.0
C356 C 0.37275 0.10029 0.6145 0.0
C357 C 0.36936 0.0973 0.58357 0.0
C358 C 0.37086 0.07231 0.56805 0.0
C359 C 0.369 0.07015 0.53751 0.0
C360 C 0.36504 0.09272 0.52133 0.0
C361 C 0.36441 0.09122 0.49024 0.0
C362 C 0.35955 0.11372 0.47488 0.0
C363 C 0.35561 0.13796 0.48975 0.0
C364 C 0.35684 0.14012 0.52081 0.0
C365 C 0.35343 0.16442 0.53644 0.0
C366 C 0.35614 0.16692 0.56693 0.0
C367 C 0.36212 0.14513 0.58298 0.0
C368 C 0.36434 0.11994 0.56775 0.0
C369 C 0.36188 0.11752 0.53661 0.0
C370 C 0.39034 0.95008 0.42235 0.0
C371 C 0.3743 0.97306 0.41952 0.0
O372 O 0.36742 0.2454 0.68534 0.0
O373 O 0.33857 0.23097 0.42931 0.0
O374 O 0.39147 0.99841 0.42938 0.0
O375 O 0.3955 0.01801 0.68799 0.0
H376 H 0.3428 0.22536 0.71897 0.0
H377 H 0.32882 0.26583 0.72944 0.0
H378 H 0.34949 0.28376 0.70532 0.0
H379 H 0.38206 0.28618 0.75858 0.0
H380 H 0.40766 0.23766 0.65306 0.0
H381 H 0.32364 0.20245 0.67626 0.0
H382 H 0.42216 0.17532 0.62267 0.0
H383 H 0.43312 0.21304 0.62284 0.0
H384 H 0.4113 0.19367 0.59318 0.0
H385 H 0.29733 0.16001 0.65429 0.0
H386 H 0.31888 0.135 0.65538 0.0
H387 H 0.30981 0.1469 0.62073 0.0
H388 H 0.38007 0.03331 0.72502 0.0
H389 H 0.39964 0.00399 0.75866 0.0
H390 H 0.42595 0.02536 0.73735 0.0
H391 H 0.41429 0.98841 0.72787 0.0
H392 H 0.3459 0.02999 0.68034 0.0
H393 H 0.43073 0.04718 0.65388 0.0
H394 H 0.32079 0.06778 0.62392 0.0
H395 H 0.32688 0.08631 0.65911 0.0
H396 H 0.31206 0.04918 0.65701 0.0
H397 H 0.44946 0.08535 0.62494 0.0
H398 H 0.42989 0.1119 0.62088 0.0
H399 H 0.42587 0.08345 0.59393 0.0
H400 H 0.35599 0.96749 0.43377 0.0
H401 H 0.33941 0.00643 0.43506 0.0
H402 H 0.42656 0.04092 0.45266 0.0
H403 H 0.31444 0.0493 0.48667 0.0
H404 H 0.30477 0.0276 0.45334 0.0
H405 H 0.31542 0.06521 0.452 0.0
H406 H 0.44337 0.08597 0.4752 0.0
H407 H 0.42265 0.08905 0.50674 0.0
H408 H 0.4201 0.10949 0.47565 0.0
H409 H 0.36667 0.26573 0.449 0.0
H410 H 0.37426 0.28061 0.3731 0.0
H411 H 0.34527 0.29413 0.42364 0.0
H412 H 0.32387 0.26771 0.40529 0.0
H413 H 0.30088 0.18649 0.43785 0.0
H414 H 0.38791 0.22486 0.45064 0.0
H415 H 0.29755 0.13496 0.48905 0.0
H416 H 0.30373 0.11881 0.4546 0.0
H417 H 0.28057 0.14241 0.45588 0.0
H418 H 0.4197 0.20119 0.47034 0.0
H419 H 0.40879 0.16359 0.47199 0.0
H420 H 0.40463 0.18573 0.50309 0.0
H421 H 0.37431 0.12777 0.65286 0.0
H422 H 0.37395 0.05428 0.57934 0.0
H423 H 0.3708 0.05058 0.52671 0.0
H424 H 0.35942 0.1126 0.45105 0.0
H425 H 0.34897 0.18196 0.52527 0.0
H426 H 0.35367 0.18623 0.57777 0.0
H427 H 0.40928 0.95439 0.40894 0.0
H428 H 0.37697 0.92937 0.41499 0.0
H429 H 0.39684 0.94908 0.44568 0.0
C430 C 0.38248 0.78641 0.19181 0.0
C431 C 0.39578 0.81192 0.17471 0.0
C432 C 0.41528 0.80974 0.12633 0.0
C433 C 0.43501 0.8354 0.1279 0.0
C434 C 0.45792 0.83992 0.10948 0.0
C435 C 0.46135 0.81815 0.08947 0.0
C436 C 0.44106 0.79248 0.08742 0.0
C437 C 0.41793 0.78888 0.1055 0.0
C438 C 0.47878 0.86776 0.11184 0.0
C439 C 0.44424 0.76854 0.06685 0.0
C440 C 0.598 0.76214 0.17718 0.0
C441 C 0.62224 0.77071 0.15635 0.0
C442 C 0.60198 0.8011 0.1252 0.0
C443 C 0.583 0.77962 0.10914 0.0
C444 C 0.56201 0.78573 0.09115 0.0
C445 C 0.55995 0.81384 0.08916 0.0
C446 C 0.57958 0.8356 0.10448 0.0
C447 C 0.60053 0.82891 0.12211 0.0
C448 C 0.54159 0.76205 0.07478 0.0
C449 C 0.57797 0.86579 0.10279 0.0
C450 C 0.61888 0.86313 0.90758 0.0
C451 C 0.60254 0.8357 0.90843 0.0
C452 C 0.57716 0.83031 0.92298 0.0
C453 C 0.568 0.8528 0.93689 0.0
C454 C 0.58405 0.88051 0.93525 0.0
C455 C 0.60918 0.88531 0.92035 0.0
C456 C 0.5601 0.80062 0.92356 0.0
C457 C 0.57474 0.90503 0.94947 0.0
C458 C 0.35885 0.8591 0.9216 0.0
C459 C 0.37452 0.86531 0.89307 0.0
C460 C 0.41699 0.84868 0.90378 0.0
C461 C 0.42813 0.82504 0.90134 0.0
C462 C 0.45269 0.82395 0.91673 0.0
C463 C 0.46681 0.8475 0.93446 0.0
C464 C 0.45631 0.87201 0.93609 0.0
C465 C 0.43126 0.87223 0.92108 0.0
C466 C 0.46328 0.79747 0.91442 0.0
C467 C 0.47135 0.89782 0.95403 0.0
C468 C 0.48717 0.8215 0.0724 0.0
C469 C 0.51108 0.81763 0.08694 0.0
C470 C 0.53618 0.82013 0.07253 0.0
C471 C 0.53784 0.8272 0.04281 0.0
C472 C 0.56293 0.83048 0.02783 0.0
C473 C 0.56432 0.83746 0.99854 0.0
C474 C 0.54052 0.8408 0.98294 0.0
C475 C 0.5416 0.84749 0.95304 0.0
C476 C 0.51736 0.84985 0.93801 0.0
C477 C 0.49196 0.84601 0.95209 0.0
C478 C 0.4906 0.8401 0.98218 0.0
C479 C 0.46549 0.83676 0.9972 0.0
C480 C 0.46443 0.83125 0.02688 0.0
C481 C 0.4882 0.8279 0.04244 0.0
C482 C 0.51368 0.83088 0.02765 0.0
C483 C 0.51495 0.83732 0.99758 0.0
C484 C 0.69071 0.86853 0.906 0.0
C485 C 0.66278 0.85226 0.89243 0.0
O486 O 0.39377 0.80438 0.14494 0.0
O487 O 0.39252 0.84765 0.8891 0.0
O488 O 0.6438 0.86913 0.89429 0.0
O489 O 0.6216 0.79599 0.14423 0.0
H490 H 0.41808 0.81809 0.18227 0.0
H491 H 0.39363 0.76945 0.18759 0.0
H492 H 0.36024 0.77836 0.18495 0.0
H493 H 0.38389 0.79196 0.21578 0.0
H494 H 0.43254 0.85183 0.14355 0.0
H495 H 0.4024 0.76924 0.10437 0.0
H496 H 0.49856 0.86499 0.12195 0.0
H497 H 0.47125 0.88368 0.12545 0.0
H498 H 0.48343 0.87575 0.08964 0.0
H499 H 0.42785 0.74922 0.06969 0.0
H500 H 0.46495 0.76383 0.07061 0.0
H501 H 0.44308 0.77456 0.04378 0.0
H502 H 0.62082 0.75419 0.13851 0.0
H503 H 0.59907 0.74235 0.18756 0.0
H504 H 0.57768 0.75856 0.16507 0.0
H505 H 0.59875 0.7788 0.1947 0.0
H506 H 0.58414 0.75802 0.11077 0.0
H507 H 0.61542 0.84536 0.13434 0.0
H508 H 0.5402 0.76656 0.05122 0.0
H509 H 0.52056 0.76019 0.08385 0.0
H510 H 0.54747 0.74165 0.07649 0.0
H511 H 0.5948 0.88027 0.11611 0.0
H512 H 0.55752 0.8684 0.11066 0.0
H513 H 0.57947 0.87184 0.07961 0.0
H514 H 0.65611 0.83341 0.90553 0.0
H515 H 0.60934 0.81854 0.89747 0.0
H516 H 0.62172 0.90644 0.91913 0.0
H517 H 0.55812 0.79421 0.94661 0.0
H518 H 0.56952 0.78558 0.91072 0.0
H519 H 0.53877 0.79937 0.91452 0.0
H520 H 0.59003 0.92521 0.94701 0.0
H521 H 0.5716 0.90181 0.97323 0.0
H522 H 0.55445 0.90643 0.93945 0.0
H523 H 0.38638 0.88751 0.89399 0.0
H524 H 0.34428 0.8731 0.92488 0.0
H525 H 0.37375 0.86272 0.94071 0.0
H526 H 0.34684 0.83695 0.92096 0.0
H527 H 0.41707 0.80707 0.88778 0.0
H528 H 0.42315 0.89085 0.92303 0.0
H529 H 0.46628 0.79014 0.93669 0.0
H530 H 0.48383 0.80183 0.90393 0.0
H531 H 0.44885 0.78037 0.90129 0.0
H532 H 0.46276 0.91632 0.9497 0.0
H533 H 0.49388 0.90285 0.94921 0.0
H534 H 0.46944 0.89381 0.97775 0.0
H535 H 0.51004 0.81221 0.10978 0.0
H536 H 0.58182 0.82788 0.03865 0.0
H537 H 0.58424 0.83993 0.9882 0.0
H538 H 0.51826 0.85469 0.915 0.0
H539 H 0.44637 0.83859 0.98627 0.0
H540 H 0.44464 0.8293 0.03738 0.0
H541 H 0.70631 0.85543 0.90497 0.0
H542 H 0.68812 0.87438 0.92943 0.0
H543 H 0.69867 0.888 0.89428 0.0
C544 C 0.71435 0.10437 0.67312 0.0
C545 C 0.72791 0.11509 0.6446 0.0
C546 C 0.72323 0.08202 0.60191 0.0
C547 C 0.75138 0.08707 0.59447 0.0
C548 C 0.76125 0.06743 0.57694 0.0
C549 C 0.74245 0.04261 0.566 0.0
C550 C 0.71377 0.03844 0.57176 0.0
C551 C 0.70452 0.05831 0.58959 0.0
C552 C 0.79195 0.07276 0.57091 0.0
C553 C 0.69307 0.01253 0.55991 0.0
C554 C 0.78644 0.90663 0.69823 0.0
C555 C 0.77173 0.89814 0.66827 0.0
C556 C 0.78525 0.92278 0.62346 0.0
C557 C 0.75883 0.91843 0.60967 0.0
C558 C 0.75402 0.93527 0.58692 0.0
C559 C 0.77602 0.95701 0.57803 0.0
C560 C 0.80292 0.96069 0.59123 0.0
C561 C 0.80725 0.94312 0.61343 0.0
C562 C 0.72524 0.93033 0.57293 0.0
C563 C 0.82684 0.98387 0.58274 0.0
C564 C 0.84768 0.91903 0.40842 0.0
C565 C 0.81846 0.91146 0.40838 0.0
C566 C 0.80306 0.9312 0.41656 0.0
C567 C 0.81725 0.95883 0.4257 0.0
C568 C 0.84666 0.96672 0.42459 0.0
C569 C 0.86144 0.94676 0.41547 0.0
C570 C 0.77168 0.92234 0.41614 0.0
C571 C 0.86258 0.99601 0.43388 0.0
C572 C 0.75361 0.14204 0.40172 0.0
C573 C 0.77558 0.14066 0.37871 0.0
C574 C 0.77643 0.09121 0.38182 0.0
C575 C 0.75842 0.06498 0.37606 0.0
C576 C 0.76089 0.04177 0.392 0.0
C577 C 0.78246 0.0448 0.41366 0.0
C578 C 0.80178 0.07092 0.41834 0.0
C579 C 0.79839 0.09391 0.40262 0.0
C580 C 0.74004 0.01424 0.38627 0.0
C581 C 0.82584 0.07469 0.44029 0.0
C582 C 0.75321 0.01986 0.55123 0.0
C583 C 0.75837 0.99887 0.56872 0.0
C584 C 0.77023 0.97761 0.55727 0.0
C585 C 0.77733 0.97723 0.52736 0.0
C586 C 0.78975 0.95648 0.51517 0.0
C587 C 0.79778 0.95703 0.48607 0.0
C588 C 0.79309 0.97795 0.46778 0.0
C589 C 0.80166 0.97896 0.43829 0.0
C590 C 0.79711 0.00042 0.42096 0.0
C591 C 0.78431 0.02111 0.43228 0.0
C592 C 0.77524 0.02015 0.46158 0.0
C593 C 0.76191 0.04035 0.47358 0.0
C594 C 0.75438 0.04013 0.50284 0.0
C595 C 0.75973 0.01961 0.52119 0.0
C596 C 0.77215 0.99839 0.50929 0.0
C597 C 0.77994 0.99868 0.47944 0.0
C598 C 0.88282 0.86397 0.41982 0.0
C599 C 0.85658 0.87215 0.40846 0.0
O600 O 0.71337 0.09935 0.62085 0.0
O601 O 0.7719 0.11336 0.3671 0.0
O602 O 0.86324 0.90017 0.40197 0.0
O603 O 0.79026 0.90789 0.64653 0.0
H604 H 0.74957 0.11223 0.64656 0.0
H605 H 0.71716 0.08288 0.67629 0.0
H606 H 0.69165 0.10338 0.67243 0.0
H607 H 0.72429 0.1181 0.69226 0.0
H608 H 0.76578 0.10616 0.60246 0.0
H609 H 0.68272 0.05491 0.59488 0.0
H610 H 0.8006 0.05545 0.57909 0.0
H611 H 0.80393 0.09286 0.58146 0.0
H612 H 0.79501 0.07322 0.54687 0.0
H613 H 0.6712 0.01407 0.56311 0.0
H614 H 0.69657 0.99408 0.57134 0.0
H615 H 0.69612 0.00883 0.53612 0.0
H616 H 0.75368 0.90821 0.6675 0.0
H617 H 0.77195 0.89959 0.71618 0.0
H618 H 0.79363 0.9298 0.7006 0.0
H619 H 0.80482 0.89729 0.7005 0.0
H620 H 0.74196 0.90199 0.61672 0.0
H621 H 0.82765 0.94598 0.62398 0.0
H622 H 0.72647 0.93047 0.54864 0.0
H623 H 0.71538 0.94753 0.58027 0.0
H624 H 0.71167 0.91013 0.57894 0.0
H625 H 0.8459 0.98515 0.59661 0.0
H626 H 0.82089 0.00434 0.58472 0.0
H627 H 0.83185 0.98031 0.55948 0.0
H628 H 0.84159 0.86886 0.42666 0.0
H629 H 0.80766 0.89018 0.40198 0.0
H630 H 0.88397 0.95246 0.41495 0.0
H631 H 0.76447 0.92032 0.43901 0.0
H632 H 0.76376 0.90192 0.40384 0.0
H633 H 0.76245 0.93844 0.40605 0.0
H634 H 0.88549 0.99818 0.43382 0.0
H635 H 0.85668 0.00184 0.45628 0.0
H636 H 0.85711 0.01109 0.41868 0.0
H637 H 0.79662 0.14777 0.38934 0.0
H638 H 0.75629 0.16378 0.41117 0.0
H639 H 0.75579 0.12841 0.42 0.0
H640 H 0.73231 0.13491 0.39168 0.0
H641 H 0.74176 0.06298 0.3597 0.0
H642 H 0.81314 0.11379 0.40656 0.0
H643 H 0.72988 0.00721 0.40701 0.0
H644 H 0.75093 0.99803 0.37834 0.0
H645 H 0.72369 0.01565 0.36967 0.0
H646 H 0.84139 0.09473 0.43798 0.0
H647 H 0.83643 0.05712 0.43765 0.0
H648 H 0.81787 0.0746 0.46288 0.0
H649 H 0.75357 0.99941 0.59185 0.0
H650 H 0.79378 0.93983 0.52815 0.0
H651 H 0.80781 0.94082 0.47818 0.0
H652 H 0.80432 0.00146 0.39862 0.0
H653 H 0.75738 0.05675 0.46055 0.0
H654 H 0.74447 0.05636 0.511 0.0
H655 H 0.87794 0.84157 0.42526 0.0
H656 H 0.89106 0.87689 0.44006 0.0
H657 H 0.89925 0.86745 0.40317 0.0
C658 C 0.45247 0.43753 0.19696 0.0
C659 C 0.42562 0.42984 0.17763 0.0
C660 C 0.445 0.40795 0.1357 0.0
C661 C 0.46225 0.43251 0.12582 0.0
C662 C 0.48325 0.43108 0.10589 0.0
C663 C 0.48642 0.4046 0.09495 0.0
C664 C 0.46783 0.37994 0.10333 0.0
C665 C 0.44734 0.38198 0.12366 0.0
C666 C 0.50269 0.45782 0.09734 0.0
C667 C 0.47019 0.35141 0.09154 0.0
C668 C 0.68814 0.40535 0.14613 0.0
C669 C 0.66525 0.38466 0.16138 0.0
C670 C 0.62549 0.37634 0.12581 0.0
C671 C 0.60859 0.35629 0.1066 0.0
C672 C 0.58653 0.3625 0.09035 0.0
C673 C 0.58173 0.38983 0.09283 0.0
C674 C 0.59879 0.41033 0.11217 0.0
C675 C 0.62026 0.40331 0.12875 0.0
C676 C 0.56823 0.33974 0.07075 0.0
C677 C 0.59432 0.4397 0.1154 0.0
C678 C 0.64081 0.42755 0.91367 0.0
C679 C 0.623 0.40071 0.91326 0.0
C680 C 0.59655 0.39663 0.92552 0.0
C681 C 0.5878 0.41985 0.93827 0.0
C682 C 0.60519 0.44705 0.93738 0.0
C683 C 0.6314 0.45053 0.92484 0.0
C684 C 0.57826 0.36746 0.92563 0.0
C685 C 0.59645 0.47233 0.95054 0.0
C686 C 0.40149 0.47181 0.91467 0.0
C687 C 0.40639 0.45385 0.88757 0.0
C688 C 0.43833 0.42723 0.90826 0.0
C689 C 0.4408 0.40074 0.9162 0.0
C690 C 0.4652 0.39686 0.93007 0.0
C691 C 0.48746 0.42033 0.93699 0.0
C692 C 0.48544 0.44712 0.92833 0.0
C693 C 0.46116 0.45021 0.91359 0.0
C694 C 0.46693 0.36772 0.93774 0.0
C695 C 0.50878 0.47266 0.93494 0.0
C696 C 0.51059 0.40263 0.07682 0.0
C697 C 0.53399 0.39738 0.09119 0.0
C698 C 0.55816 0.39657 0.07611 0.0
C699 C 0.55928 0.40162 0.0458 0.0
C700 C 0.58377 0.40262 0.03025 0.0
C701 C 0.58458 0.40737 0.00039 0.0
C702 C 0.56082 0.41091 0.98481 0.0
C703 C 0.56144 0.41566 0.95443 0.0
C704 C 0.5372 0.41811 0.9394 0.0
C705 C 0.51239 0.41704 0.95415 0.0
C706 C 0.51176 0.41363 0.98485 0.0
C707 C 0.48769 0.41403 0.00078 0.0
C708 C 0.48723 0.41042 0.03089 0.0
C709 C 0.5108 0.4063 0.04625 0.0
C710 C 0.53532 0.40593 0.03071 0.0
C711 C 0.53593 0.41003 7e-05 0.0
C712 C 0.71271 0.42782 0.91639 0.0
C713 C 0.68422 0.41342 0.90266 0.0
O714 O 0.42638 0.40821 0.15722 0.0
O715 O 0.41359 0.4296 0.89601 0.0
O716 O 0.66712 0.43222 0.9036 0.0
O717 O 0.64648 0.36869 0.14077 0.0
H718 H 0.42292 0.44849 0.16593 0.0
H719 H 0.4708 0.44661 0.18398 0.0
H720 H 0.45636 0.4187 0.20738 0.0
H721 H 0.45074 0.45346 0.21449 0.0
H722 H 0.45988 0.45279 0.13411 0.0
H723 H 0.43359 0.36317 0.131 0.0
H724 H 0.52454 0.45731 0.10305 0.0
H725 H 0.49793 0.47671 0.10843 0.0
H726 H 0.50117 0.45966 0.07322 0.0
H727 H 0.4521 0.33464 0.09727 0.0
H728 H 0.48945 0.34663 0.10079 0.0
H729 H 0.47182 0.35122 0.06727 0.0
H730 H 0.65413 0.39648 0.1765 0.0
H731 H 0.70342 0.41771 0.16272 0.0
H732 H 0.67923 0.42023 0.13361 0.0
H733 H 0.69927 0.39402 0.13056 0.0
H734 H 0.61263 0.33551 0.10457 0.0
H735 H 0.63283 0.41907 0.14377 0.0
H736 H 0.57172 0.34468 0.04742 0.0
H737 H 0.54592 0.33863 0.07498 0.0
H738 H 0.57259 0.31886 0.07404 0.0
H739 H 0.61157 0.45416 0.12817 0.0
H740 H 0.57461 0.43929 0.12686 0.0
H741 H 0.59235 0.44811 0.09344 0.0
H742 H 0.67587 0.39526 0.91625 0.0
H743 H 0.62966 0.38293 0.90348 0.0
H744 H 0.64512 0.4712 0.92458 0.0
H745 H 0.57537 0.36106 0.94862 0.0
H746 H 0.58723 0.35186 0.91314 0.0
H747 H 0.55735 0.36719 0.91598 0.0
H748 H 0.61206 0.49214 0.94736 0.0
H749 H 0.59341 0.47002 0.97445 0.0
H750 H 0.57623 0.4738 0.94043 0.0
H751 H 0.42367 0.46663 0.87528 0.0
H752 H 0.39183 0.48899 0.90793 0.0
H753 H 0.4214 0.48163 0.9265 0.0
H754 H 0.3879 0.45885 0.93039 0.0
H755 H 0.42335 0.38302 0.91165 0.0
H756 H 0.4602 0.47076 0.90677 0.0
H757 H 0.46436 0.36554 0.9617 0.0
H758 H 0.48761 0.36389 0.93228 0.0
H759 H 0.45048 0.35138 0.92602 0.0
H760 H 0.5024 0.49244 0.9307 0.0
H761 H 0.52659 0.4714 0.92088 0.0
H762 H 0.51614 0.47351 0.95821 0.0
H763 H 0.5334 0.39396 0.11456 0.0
H764 H 0.60264 0.39992 0.04105 0.0
H765 H 0.60405 0.40799 0.98963 0.0
H766 H 0.5378 0.42143 0.91603 0.0
H767 H 0.46893 0.41722 0.99018 0.0
H768 H 0.46811 0.41081 0.04198 0.0
H769 H 0.72684 0.41316 0.91598 0.0
H770 H 0.71035 0.43447 0.93963 0.0
H771 H 0.72234 0.44666 0.90438 0.0
C772 C 0.23465 0.49131 0.20714 0.0
C773 C 0.24945 0.4695 0.18214 0.0
H774 H 0.19434 0.515 0.21172 0.0
C775 C 0.23657 0.46131 0.14464 0.0
H776 H 0.24335 0.49628 0.22922 0.0
C777 C 0.20669 0.47296 0.13147 0.0
C778 C 0.1878 0.48813 0.16062 0.0
H779 H 0.24634 0.44864 0.13016 0.0
H780 H 0.19717 0.46582 0.11008 0.0
C781 C 0.20478 0.50399 0.19614 0.0
C782 C 0.18828 0.73961 0.76941 0.0
C783 C 0.18943 0.76705 0.78049 0.0
H784 H 0.1738 0.69571 0.77559 0.0
C785 C 0.17384 0.771 0.80516 0.0
H786 H 0.20005 0.73583 0.75046 0.0
C787 C 0.15875 0.74801 0.81944 0.0
C788 C 0.1589 0.7206 0.80932 0.0
H789 H 0.17421 0.79185 0.81421 0.0
H790 H 0.14789 0.75164 0.83913 0.0
C791 C 0.17329 0.71662 0.7838 0.0
C792 C 0.8308 0.67809 0.24044 0.0
C793 C 0.83805 0.70128 0.22283 0.0
H794 H 0.83475 0.63641 0.24824 0.0
C795 C 0.8557 0.7 0.19924 0.0
H796 H 0.81718 0.67838 0.25873 0.0
C797 C 0.86551 0.67587 0.19308 0.0
C798 C 0.85844 0.65272 0.21084 0.0
H799 H 0.86145 0.71741 0.18509 0.0
H800 H 0.8784 0.67529 0.17422 0.0
C801 C 0.84093 0.65412 0.23453 0.0
C802 C 0.78116 0.34662 0.74016 0.0
C803 C 0.78451 0.34471 0.70966 0.0
H804 H 0.79938 0.36367 0.78207 0.0
C805 C 0.81001 0.35834 0.69819 0.0
H806 H 0.76261 0.33502 0.75002 0.0
C807 C 0.83147 0.37387 0.71666 0.0
C808 C 0.82778 0.37664 0.74708 0.0
H809 H 0.81348 0.35695 0.67484 0.0
H810 H 0.85096 0.38364 0.707 0.0
C811 C 0.80245 0.36265 0.75862 0.0
C812 C 0.33675 0.26828 0.35591 0.0
C813 C 0.34907 0.30508 0.36614 0.0
H814 H 0.3434 0.22039 0.36838 0.0
C815 C 0.37817 0.31789 0.39161 0.0
H816 H 0.32008 0.26154 0.33958 0.0
C817 C 0.39482 0.29392 0.40958 0.0
C818 C 0.37615 0.25647 0.40452 0.0
H819 H 0.38569 0.34017 0.39623 0.0
H820 H 0.41057 0.30122 0.42678 0.0
C821 C 0.35197 0.24258 0.37264 0.0
C822 C 0.32141 0.87946 0.83733 0.0
C823 C 0.31515 0.8545 0.81967 0.0
H824 H 0.34532 0.90236 0.87398 0.0
C825 C 0.32806 0.83277 0.82635 0.0
H826 H 0.31172 0.89655 0.83275 0.0
C827 C 0.34696 0.83596 0.85015 0.0
C828 C 0.35395 0.8613 0.86727 0.0
H829 H 0.32337 0.81316 0.81334 0.0
H830 H 0.35621 0.81863 0.85497 0.0
C831 C 0.34069 0.88285 0.86082 0.0
C832 C 0.80945 0.81499 0.3593 0.0
C833 C 0.82255 0.81834 0.33215 0.0
H834 H 0.80992 0.82929 0.40442 0.0
C835 C 0.84688 0.83959 0.33005 0.0
H836 H 0.7907 0.79882 0.36172 0.0
C837 C 0.85769 0.85722 0.35452 0.0
C838 C 0.84444 0.85393 0.38156 0.0
H839 H 0.85744 0.8428 0.30945 0.0
H840 H 0.87647 0.87342 0.35236 0.0
C841 C 0.82035 0.83249 0.38375 0.0
C842 C 0.69756 0.41388 0.8204 0.0
C843 C 0.69809 0.38579 0.81374 0.0
H844 H 0.6927 0.44457 0.85358 0.0
C845 C 0.69273 0.36658 0.83607 0.0
H846 H 0.70166 0.42923 0.80375 0.0
C847 C 0.68751 0.37539 0.86455 0.0
C848 C 0.68733 0.40353 0.87127 0.0
H849 H 0.69302 0.34479 0.83171 0.0
H850 H 0.68406 0.36029 0.88149 0.0
C851 C 0.69233 0.42268 0.84888 0.0
C852 C 0.31291 0.97029 0.73224 0.0
C853 C 0.31331 0.94396 0.71909 0.0
H854 H 0.33526 0.0127 0.74161 0.0
C855 C 0.33645 0.94114 0.7027 0.0
H856 H 0.29547 0.97318 0.74509 0.0
C857 C 0.35921 0.96389 0.70061 0.0
C858 C 0.35928 0.98985 0.71493 0.0
H859 H 0.33743 0.92112 0.69235 0.0
H860 H 0.37716 0.961 0.68863 0.0
C861 C 0.33573 0.99292 0.73034 0.0
C862 C 0.68479 0.75167 0.19366 0.0
C863 C 0.69716 0.77663 0.20979 0.0
H864 H 0.65158 0.73043 0.16404 0.0
C865 C 0.68567 0.80012 0.20718 0.0
H866 H 0.69306 0.73317 0.19528 0.0
C867 C 0.66194 0.7985 0.18941 0.0
C868 C 0.64945 0.77349 0.17339 0.0
H869 H 0.69459 0.81964 0.21943 0.0
H870 H 0.65305 0.81668 0.18863 0.0
C871 C 0.66114 0.75011 0.17569 0.0
C872 C 0.75455 0.19239 0.62967 0.0
C873 C 0.73101 0.20323 0.63483 0.0
H874 H 0.772 0.15627 0.62913 0.0
C875 C 0.70611 0.18499 0.64245 0.0
H876 H 0.774 0.20594 0.62362 0.0
C877 C 0.70484 0.15649 0.64509 0.0
C878 C 0.72872 0.14581 0.64117 0.0
H879 H 0.68751 0.19269 0.6461 0.0
H880 H 0.6852 0.14292 0.65042 0.0
C881 C 0.75344 0.16399 0.63292 0.0
C882 C 0.36601 0.43199 0.22917 0.0
C883 C 0.36032 0.40485 0.23964 0.0
H884 H 0.39104 0.46107 0.2012 0.0
C885 C 0.37501 0.38554 0.22845 0.0
H886 H 0.35587 0.44766 0.23818 0.0
C887 C 0.39527 0.39327 0.20759 0.0
C888 C 0.40122 0.42049 0.19727 0.0
H889 H 0.37124 0.36453 0.23628 0.0
H890 H 0.40686 0.37817 0.20012 0.0
C891 C 0.38631 0.43975 0.20819 0.0
C892 C 0.81908 0.68992 0.70251 0.0
C893 C 0.80828 0.68594 0.67347 0.0
H894 H 0.85281 0.68775 0.73197 0.0
C895 C 0.82334 0.67516 0.65175 0.0
H896 H 0.80811 0.69841 0.71971 0.0
C897 C 0.84876 0.66876 0.65887 0.0
C898 C 0.85967 0.6729 0.68785 0.0
H899 H 0.81565 0.67194 0.62915 0.0
H900 H 0.86017 0.66098 0.64159 0.0
C901 C 0.84463 0.68372 0.70958 0.0
C902 C 0.86829 0.33201 0.25002 0.0
C903 C 0.84763 0.31421 0.23198 0.0
H904 H 0.90981 0.35758 0.25332 0.0
C905 C 0.85346 0.30866 0.20257 0.0
H906 H 0.86432 0.33686 0.27272 0.0
C907 C 0.87929 0.32098 0.19131 0.0
C908 C 0.9002 0.33837 0.2095 0.0
H909 H 0.83776 0.29547 0.18798 0.0
H910 H 0.88273 0.31699 0.16832 0.0
C911 C 0.89432 0.34387 0.23892 0.0
C912 C 0.17101 0.46737 0.83875 0.0
C913 C 0.17577 0.44524 0.82043 0.0
H914 H 0.14277 0.48212 0.86713 0.0
C915 C 0.15433 0.42099 0.8157 0.0
H916 H 0.18719 0.48627 0.84297 0.0
C917 C 0.12875 0.41886 0.82907 0.0
C918 C 0.12403 0.44083 0.84759 0.0
H919 H 0.15731 0.40358 0.80169 0.0
H920 H 0.11271 0.39977 0.82535 0.0
C921 C 0.14552 0.46507 0.85247 0.0
C922 C 0.20611 0.76209 0.24576 0.0
C923 C 0.22252 0.77281 0.22217 0.0
H924 H 0.1753 0.72801 0.26135 0.0
C925 C 0.21987 0.75674 0.19552 0.0
H926 H 0.20776 0.77384 0.26665 0.0
C927 C 0.20118 0.73061 0.1925 0.0
C928 C 0.18456 0.72003 0.21595 0.0
H929 H 0.23228 0.76429 0.17697 0.0
H930 H 0.19976 0.71859 0.17179 0.0
C931 C 0.18744 0.73591 0.24273 0.0
C932 C 0.72647 0.82463 0.67539 0.0
C933 C 0.74394 0.80767 0.66503 0.0
H934 H 0.72156 0.86647 0.6841 0.0
C935 C 0.77002 0.82042 0.65421 0.0
H936 H 0.70599 0.8154 0.68314 0.0
C937 C 0.77886 0.84958 0.65462 0.0
C938 C 0.76149 0.8666 0.66518 0.0
H939 H 0.78394 0.80784 0.64616 0.0
H940 H 0.79946 0.85879 0.64708 0.0
C941 C 0.7352 0.85382 0.67552 0.0
C942 C 0.70339 0.32819 0.18093 0.0
C943 C 0.70855 0.33364 0.21131 0.0
H944 H 0.68567 0.33987 0.14149 0.0
C945 C 0.69767 0.35457 0.22562 0.0
H946 H 0.71148 0.31224 0.16921 0.0
C947 C 0.68292 0.37044 0.20965 0.0
C948 C 0.67844 0.36548 0.17914 0.0
H949 H 0.70138 0.35938 0.24897 0.0
H950 H 0.67561 0.38709 0.22104 0.0
C951 C 0.68856 0.34396 0.16503 0.0
C952 C 0.38504 0.31634 0.73165 0.0
C953 C 0.35822 0.31278 0.75857 0.0
H954 H 0.4139 0.28824 0.70313 0.0
C955 C 0.34618 0.28074 0.77722 0.0
H956 H 0.39248 0.3362 0.72181 0.0
C957 C 0.35919 0.25021 0.76802 0.0
C958 C 0.3805 0.25284 0.7346 0.0
H959 H 0.33084 0.27974 0.79399 0.0
H960 H 0.35026 0.23029 0.77716 0.0
C961 C 0.39945 0.287 0.72083 0.0
C962 C 0.38148 0.87969 0.20796 0.0
C963 C 0.35385 0.87783 0.1984 0.0
H964 H 0.41619 0.86033 0.20808 0.0
C965 C 0.34057 0.8552 0.17939 0.0
H966 H 0.39229 0.89698 0.22252 0.0
C967 C 0.35434 0.8343 0.17095 0.0
C968 C 0.38168 0.83572 0.18131 0.0
H969 H 0.31965 0.85373 0.17083 0.0
H970 H 0.3435 0.81679 0.1567 0.0
C971 C 0.39517 0.85875 0.19968 0.0
C972 C 0.78227 0.20872 0.33933 0.0
C973 C 0.76751 0.19972 0.31267 0.0
H974 H 0.79666 0.19702 0.3805 0.0
C975 C 0.75578 0.17098 0.30722 0.0
H976 H 0.79157 0.23071 0.3442 0.0
C977 C 0.7584 0.15169 0.32822 0.0
C978 C 0.77348 0.16069 0.35479 0.0
H979 H 0.74408 0.16344 0.28697 0.0
H980 H 0.74849 0.1298 0.32369 0.0
C981 C 0.78531 0.18944 0.36005 0.0
C982 C 0.36154 0.43976 0.81672 0.0
C983 C 0.33448 0.43598 0.82728 0.0
H984 H 0.40524 0.44858 0.82756 0.0
C985 C 0.33069 0.43574 0.85769 0.0
H986 H 0.36503 0.44022 0.79335 0.0
C987 C 0.35361 0.44007 0.87726 0.0
C988 C 0.38095 0.44608 0.86683 0.0
H989 H 0.30996 0.43253 0.86634 0.0
H990 H 0.34979 0.43963 0.90052 0.0
C991 C 0.38454 0.4448 0.8363 0.0
C992 C 0.33136 0.95656 0.34776 0.0
C993 C 0.34977 0.97095 0.32747 0.0
H994 H 0.32468 0.94627 0.39268 0.0
C995 C 0.37569 0.98738 0.33776 0.0
H996 H 0.31126 0.94369 0.34053 0.0
C997 C 0.38335 0.98875 0.36756 0.0
C998 C 0.36506 0.97411 0.3878 0.0
H999 H 0.39041 0.9986 0.3227 0.0
H1000 H 0.40383 0.00081 0.37469 0.0
C1001 C 0.33896 0.95811 0.3776 0.0
C1002 C 0.67618 0.80917 0.82486 0.0
C1003 C 0.67867 0.82857 0.80273 0.0
H1004 H 0.66905 0.80144 0.87028 0.0
C1005 C 0.67443 0.85541 0.80983 0.0
H1006 H 0.67933 0.78832 0.82018 0.0
C1007 C 0.66846 0.86286 0.83855 0.0
C1008 C 0.66633 0.84353 0.86073 0.0
H1009 H 0.67626 0.87089 0.79334 0.0
H1010 H 0.66608 0.88392 0.8436 0.0
C1011 C 0.67017 0.8166 0.85354 0.0
loop_
_geom_bond_atom_site_label_1
_geom_bond_atom_site_label_2
_geom_bond_distance
_geom_bond_site_symmetry_2
_ccdc_geom_bond_type
O0 Cd1 2.300 . S
O0 C7 1.275 . S
Cd1 O0 2.300 . S
Cd1 O9 2.381 . S
Cd1 O10 2.378 . S
O2 Cd3 2.385 . S
O2 C7 1.255 . S
Cd3 O2 2.385 . S
Cd3 O4 2.317 . S
O4 Cd3 2.317 . S
O4 C5 1.232 . S
C5 O4 1.232 . S
C5 O6 1.218 . S
O6 C5 1.218 . S
C7 O0 1.275 . S
C7 O2 1.255 . S
C8 O9 1.258 . S
C8 O10 1.256 . S
O9 Cd1 2.381 . S
O9 C8 1.258 . S
O10 Cd1 2.378 . S
O10 C8 1.256 . S
O11 Cd12 2.300 . S
O11 C18 1.275 . S
Cd12 O11 2.300 . S
Cd12 O20 2.381 . S
Cd12 O21 2.378 . S
O13 Cd14 2.385 . S
O13 C18 1.255 . S
Cd14 O13 2.385 . S
Cd14 O15 2.317 . S
O15 Cd14 2.317 . S
O15 C16 1.232 . S
C16 O15 1.232 . S
C16 O17 1.218 . S
O17 C16 1.218 . S
C18 O11 1.275 . S
C18 O13 1.255 . S
C19 O20 1.258 . S
C19 O21 1.256 . S
O20 Cd12 2.381 . S
O20 C19 1.258 . S
O21 Cd12 2.378 . S
O21 C19 1.256 . S
O22 Cd23 2.300 . S
O22 C29 1.275 . S
Cd23 O22 2.300 . S
Cd23 O31 2.381 . S
Cd23 O32 2.378 . S
O24 Cd25 2.385 . S
O24 C29 1.255 . S
Cd25 O24 2.385 . S
Cd25 O26 2.317 . S
O26 Cd25 2.317 . S
O26 C27 1.232 . S
C27 O26 1.232 . S
C27 O28 1.218 . S
O28 C27 1.218 . S
C29 O22 1.275 . S
C29 O24 1.255 . S
C30 O31 1.258 . S
C30 O32 1.256 . S
O31 Cd23 2.381 . S
O31 C30 1.258 . S
O32 Cd23 2.378 . S
O32 C30 1.256 . S
O33 Cd34 2.300 . S
O33 C40 1.275 . S
Cd34 O33 2.300 . S
Cd34 O42 2.381 . S
Cd34 O43 2.378 . S
O35 Cd36 2.385 . S
O35 C40 1.255 . S
Cd36 O35 2.385 . S
Cd36 O37 2.317 . S
O37 Cd36 2.317 . S
O37 C38 1.232 . S
C38 O37 1.232 . S
C38 O39 1.218 . S
O39 C38 1.218 . S
C40 O33 1.275 . S
C40 O35 1.255 . S
C41 O42 1.258 . S
C41 O43 1.256 . S
O42 Cd34 2.381 . S
O42 C41 1.258 . S
O43 Cd34 2.378 . S
O43 C41 1.256 . S
O44 Cd45 2.300 . S
O44 C51 1.275 . S
Cd45 O44 2.300 . S
Cd45 O53 2.381 . S
Cd45 O54 2.378 . S
O46 Cd47 2.385 . S
O46 C51 1.255 . S
Cd47 O46 2.385 . S
Cd47 O48 2.317 . S
O48 Cd47 2.317 . S
O48 C49 1.232 . S
C49 O48 1.232 . S
C49 O50 1.218 . S
O50 C49 1.218 . S
C51 O44 1.275 . S
C51 O46 1.255 . S
C52 O53 1.258 . S
C52 O54 1.256 . S
O53 Cd45 2.381 . S
O53 C52 1.258 . S
O54 Cd45 2.378 . S
O54 C52 1.256 . S
O55 Cd56 2.300 . S
O55 C62 1.275 . S
Cd56 O55 2.300 . S
Cd56 O64 2.381 . S
Cd56 O65 2.378 . S
O57 Cd58 2.385 . S
O57 C62 1.255 . S
Cd58 O57 2.385 . S
Cd58 O59 2.317 . S
O59 Cd58 2.317 . S
O59 C60 1.232 . S
C60 O59 1.232 . S
C60 O61 1.218 . S
O61 C60 1.218 . S
C62 O55 1.275 . S
C62 O57 1.255 . S
C63 O64 1.258 . S
C63 O65 1.256 . S
O64 Cd56 2.381 . S
O64 C63 1.258 . S
O65 Cd56 2.378 . S
O65 C63 1.256 . S
O66 Cd67 2.300 . S
O66 C73 1.275 . S
Cd67 O66 2.300 . S
Cd67 O75 2.381 . S
Cd67 O76 2.378 . S
O68 Cd69 2.385 . S
O68 C73 1.255 . S
Cd69 O68 2.385 . S
Cd69 O70 2.317 . S
O70 Cd69 2.317 . S
O70 C71 1.232 . S
C71 O70 1.232 . S
C71 O72 1.218 . S
O72 C71 1.218 . S
C73 O66 1.275 . S
C73 O68 1.255 . S
C74 O75 1.258 . S
C74 O76 1.256 . S
O75 Cd67 2.381 . S
O75 C74 1.258 . S
O76 Cd67 2.378 . S
O76 C74 1.256 . S
O77 Cd78 2.300 . S
O77 C84 1.275 . S
Cd78 O77 2.300 . S
Cd78 O86 2.381 . S
Cd78 O87 2.378 . S
O79 Cd80 2.385 . S
O79 C84 1.255 . S
Cd80 O79 2.385 . S
Cd80 O81 2.317 . S
O81 Cd80 2.317 . S
O81 C82 1.232 . S
C82 O81 1.232 . S
C82 O83 1.218 . S
O83 C82 1.218 . S
C84 O77 1.275 . S
C84 O79 1.255 . S
C85 O86 1.258 . S
C85 O87 1.256 . S
O86 Cd78 2.381 . S
O86 C85 1.258 . S
O87 Cd78 2.378 . S
O87 C85 1.256 . S
C88 C89 1.560 . S
C88 H149 0.959 . S
C88 H150 0.959 . S
C88 H151 0.960 . S
C89 C88 1.560 . S
C89 O144 1.426 . S
C89 H148 0.980 . S
C90 C91 1.407 . S
C90 C95 1.418 . S
C90 O144 1.334 . S
C91 C90 1.407 . S
C91 C92 1.360 . S
C91 H152 0.929 . S
C92 C91 1.360 . S
C92 C93 1.401 . S
C92 C96 1.527 . S
C93 C92 1.401 . S
C93 C94 1.405 . S
C93 C126 1.587 1_655 S
C94 C93 1.405 . S
C94 C95 1.332 . S
C94 C97 1.496 1_655 S
C95 C90 1.418 . S
C95 C94 1.332 . S
C95 H153 0.929 . S
C96 C92 1.527 . S
C96 H154 0.959 . S
C96 H155 0.961 . S
C96 H156 0.961 . S
C97 C94 1.496 1_455 S
C97 H157 0.960 1_455 S
C97 H158 0.960 . S
C97 H159 0.961 . S
C98 C99 1.517 . S
C98 H161 0.961 . S
C98 H162 0.960 . S
C98 H163 0.959 . S
C99 C98 1.517 . S
C99 O147 1.468 . S
C99 H160 0.980 . S
C100 C101 1.349 . S
C100 C105 1.367 . S
C100 O147 1.408 . S
C101 C100 1.349 . S
C101 C102 1.407 . S
C101 H164 0.930 . S
C102 C101 1.407 . S
C102 C103 1.449 . S
C102 C106 1.535 . S
C103 C102 1.449 . S
C103 C104 1.384 . S
C103 C128 1.553 . S
C104 C103 1.384 . S
C104 C105 1.364 . S
C104 C107 1.450 . S
C105 C100 1.367 . S
C105 C104 1.364 . S
C105 H165 0.931 . S
C106 C102 1.535 . S
C106 H166 0.959 . S
C106 H167 0.961 . S
C106 H168 0.959 . S
C107 C104 1.450 . S
C107 H169 0.960 . S
C107 H170 0.960 . S
C107 H171 0.960 . S
C108 C109 1.309 . S
C108 C113 1.304 . S
C108 O146 1.435 . S
C109 C108 1.309 . S
C109 C110 1.476 . S
C109 H173 0.930 . S
C110 C109 1.476 . S
C110 C111 1.400 . S
C110 C114 1.567 . S
C111 C110 1.400 . S
C111 C112 1.373 . S
C111 C133 1.432 . S
C112 C111 1.373 . S
C112 C113 1.339 . S
C112 C115 1.530 . S
C113 C108 1.304 . S
C113 C112 1.339 . S
C113 H174 0.930 . S
C114 C110 1.567 . S
C114 H175 0.961 . S
C114 H176 0.960 . S
C114 H177 0.958 . S
C115 C112 1.530 . S
C115 H178 0.961 . S
C115 H179 0.960 . S
C115 H180 0.960 . S
C116 C117 1.530 . S
C116 H182 0.961 . S
C116 H183 0.961 . S
C116 H184 0.959 . S
C117 C116 1.530 . S
C117 O145 1.412 . S
C117 H181 0.980 . S
C118 C119 1.288 . S
C118 C123 1.377 . S
C118 O145 1.393 . S
C119 C118 1.288 . S
C119 C120 1.369 . S
C119 H185 0.932 . S
C120 C119 1.369 . S
C120 C121 1.398 . S
C120 C124 1.527 1_655 S
C121 C120 1.398 . S
C121 C122 1.380 . S
C121 C135 1.497 1_655 S
C122 C121 1.380 . S
C122 C123 1.383 . S
C122 C125 1.603 . S
C123 C118 1.377 . S
C123 C122 1.383 . S
C123 H186 0.929 . S
C124 C120 1.527 1_455 S
C124 H187 0.961 . S
C124 H188 0.959 . S
C124 H189 0.959 1_455 S
C125 C122 1.603 . S
C125 H190 0.960 . S
C125 H191 0.962 . S
C125 H192 0.961 . S
C126 C93 1.587 1_455 S
C126 C127 1.360 . S
C126 C139 1.412 . S
C127 C126 1.360 . S
C127 C128 1.365 . S
C127 H193 0.929 . S
C128 C103 1.553 . S
C128 C127 1.365 . S
C128 C129 1.404 . S
C129 C128 1.404 . S
C129 C130 1.395 . S
C129 C140 1.451 . S
C130 C129 1.395 . S
C130 C131 1.322 . S
C130 H194 0.930 . S
C131 C130 1.322 . S
C131 C132 1.459 . S
C131 H195 0.929 . S
C132 C131 1.459 . S
C132 C133 1.445 . S
C132 C141 1.395 . S
C133 C111 1.432 . S
C133 C132 1.445 . S
C133 C134 1.370 . S
C134 C133 1.370 . S
C134 C135 1.438 . S
C134 H196 0.930 . S
C135 C121 1.497 1_455 S
C135 C134 1.438 . S
C135 C136 1.360 . S
C136 C135 1.360 . S
C136 C137 1.401 1_455 S
C136 C141 1.446 . S
C137 C136 1.401 1_655 S
C137 C138 1.347 . S
C137 H197 0.929 . S
C138 C137 1.347 . S
C138 C139 1.455 1_655 S
C138 H198 0.930 . S
C139 C126 1.412 . S
C139 C138 1.455 1_455 S
C139 C140 1.331 . S
C140 C129 1.451 . S
C140 C139 1.331 . S
C140 C141 1.497 . S
C141 C132 1.395 . S
C141 C136 1.446 . S
C141 C140 1.497 . S
C142 C143 1.582 . S
C142 H199 0.962 . S
C142 H200 0.959 . S
C142 H201 0.958 . S
C143 C142 1.582 . S
C143 O146 1.458 . S
C143 H172 0.980 . S
O144 C89 1.426 . S
O144 C90 1.334 . S
O145 C117 1.412 . S
O145 C118 1.393 . S
O146 C108 1.435 . S
O146 C143 1.458 . S
O147 C99 1.468 . S
O147 C100 1.408 . S
H148 C89 0.980 . S
H149 C88 0.959 . S
H150 C88 0.959 . S
H151 C88 0.960 . S
H152 C91 0.929 . S
H153 C95 0.929 . S
H154 C96 0.959 . S
H155 C96 0.961 . S
H156 C96 0.961 . S
H157 C97 0.960 1_655 S
H158 C97 0.960 . S
H159 C97 0.961 . S
H160 C99 0.980 . S
H161 C98 0.961 . S
H162 C98 0.960 . S
H163 C98 0.959 . S
H164 C101 0.930 . S
H165 C105 0.931 . S
H166 C106 0.959 . S
H167 C106 0.961 . S
H168 C106 0.959 . S
H169 C107 0.960 . S
H170 C107 0.960 . S
H171 C107 0.960 . S
H172 C143 0.980 . S
H173 C109 0.930 . S
H174 C113 0.930 . S
H175 C114 0.961 . S
H176 C114 0.960 . S
H177 C114 0.958 . S
H178 C115 0.961 . S
H179 C115 0.960 . S
H180 C115 0.960 . S
H181 C117 0.980 . S
H182 C116 0.961 . S
H183 C116 0.961 . S
H184 C116 0.959 . S
H185 C119 0.932 . S
H186 C123 0.929 . S
H187 C124 0.961 . S
H188 C124 0.959 . S
H189 C124 0.959 1_655 S
H190 C125 0.960 . S
H191 C125 0.962 . S
H192 C125 0.961 . S
H193 C127 0.929 . S
H194 C130 0.930 . S
H195 C131 0.929 . S
H196 C134 0.930 . S
H197 C137 0.929 . S
H198 C138 0.930 . S
H199 C142 0.962 . S
H200 C142 0.959 . S
H201 C142 0.958 . S
C202 C203 1.560 . S
C202 H263 0.959 . S
C202 H264 0.959 . S
C202 H265 0.960 . S
C203 C202 1.560 . S
C203 O258 1.426 . S
C203 H262 0.980 . S
C204 C205 1.407 . S
C204 C209 1.418 . S
C204 O258 1.334 . S
C205 C204 1.407 . S
C205 C206 1.360 . S
C205 H266 0.929 . S
C206 C205 1.360 . S
C206 C207 1.401 . S
C206 C210 1.527 . S
C207 C206 1.401 . S
C207 C208 1.405 . S
C207 C240 1.587 . S
C208 C207 1.405 . S
C208 C209 1.332 . S
C208 C211 1.496 . S
C209 C204 1.418 . S
C209 C208 1.332 . S
C209 H267 0.929 . S
C210 C206 1.527 . S
C210 H268 0.959 . S
C210 H269 0.961 . S
C210 H270 0.961 . S
C211 C208 1.496 . S
C211 H271 0.960 . S
C211 H272 0.960 . S
C211 H273 0.961 . S
C212 C213 1.517 . S
C212 H275 0.961 . S
C212 H276 0.960 . S
C212 H277 0.959 . S
C213 C212 1.517 . S
C213 O261 1.468 . S
C213 H274 0.980 . S
C214 C215 1.349 . S
C214 C219 1.367 . S
C214 O261 1.408 . S
C215 C214 1.349 . S
C215 C216 1.407 . S
C215 H278 0.930 . S
C216 C215 1.407 . S
C216 C217 1.449 . S
C216 C220 1.535 . S
C217 C216 1.449 . S
C217 C218 1.384 . S
C217 C242 1.553 . S
C218 C217 1.384 . S
C218 C219 1.364 . S
C218 C221 1.450 . S
C219 C214 1.367 . S
C219 C218 1.364 . S
C219 H279 0.931 . S
C220 C216 1.535 . S
C220 H280 0.959 . S
C220 H281 0.961 . S
C220 H282 0.959 . S
C221 C218 1.450 . S
C221 H283 0.960 . S
C221 H284 0.960 . S
C221 H285 0.960 . S
C222 C223 1.309 . S
C222 C227 1.304 . S
C222 O260 1.435 . S
C223 C222 1.309 . S
C223 C224 1.476 . S
C223 H287 0.930 . S
C224 C223 1.476 . S
C224 C225 1.400 . S
C224 C228 1.567 . S
C225 C224 1.400 . S
C225 C226 1.373 . S
C225 C247 1.432 . S
C226 C225 1.373 . S
C226 C227 1.339 . S
C226 C229 1.530 . S
C227 C222 1.304 . S
C227 C226 1.339 . S
C227 H288 0.930 . S
C228 C224 1.567 . S
C228 H289 0.961 . S
C228 H290 0.960 . S
C228 H291 0.958 . S
C229 C226 1.530 . S
C229 H292 0.961 . S
C229 H293 0.960 . S
C229 H294 0.960 . S
C230 C231 1.530 . S
C230 H296 0.961 . S
C230 H297 0.961 . S
C230 H298 0.959 . S
C231 C230 1.530 . S
C231 O259 1.412 . S
C231 H295 0.980 . S
C232 C233 1.288 . S
C232 C237 1.377 . S
C232 O259 1.393 . S
C233 C232 1.288 . S
C233 C234 1.369 . S
C233 H299 0.932 . S
C234 C233 1.369 . S
C234 C235 1.398 . S
C234 C238 1.527 . S
C235 C234 1.398 . S
C235 C236 1.380 . S
C235 C249 1.497 . S
C236 C235 1.380 . S
C236 C237 1.383 . S
C236 C239 1.603 . S
C237 C232 1.377 . S
C237 C236 1.383 . S
C237 H300 0.929 . S
C238 C234 1.527 . S
C238 H301 0.961 . S
C238 H302 0.959 . S
C238 H303 0.959 . S
C239 C236 1.603 . S
C239 H304 0.960 . S
C239 H305 0.962 . S
C239 H306 0.961 . S
C240 C207 1.587 . S
C240 C241 1.360 . S
C240 C253 1.412 . S
C241 C240 1.360 . S
C241 C242 1.365 1_455 S
C241 H307 0.929 . S
C242 C217 1.553 . S
C242 C241 1.365 1_655 S
C242 C243 1.404 . S
C243 C242 1.404 . S
C243 C244 1.395 . S
C243 C254 1.451 1_655 S
C244 C243 1.395 . S
C244 C245 1.322 . S
C244 H308 0.930 . S
C245 C244 1.322 . S
C245 C246 1.459 . S
C245 H309 0.929 . S
C246 C245 1.459 . S
C246 C247 1.445 . S
C246 C255 1.395 1_655 S
C247 C225 1.432 . S
C247 C246 1.445 . S
C247 C248 1.370 1_655 S
C248 C247 1.370 1_455 S
C248 C249 1.438 . S
C248 H310 0.930 . S
C249 C235 1.497 . S
C249 C248 1.438 . S
C249 C250 1.360 . S
C250 C249 1.360 . S
C250 C251 1.401 . S
C250 C255 1.446 . S
C251 C250 1.401 . S
C251 C252 1.347 . S
C251 H311 0.929 . S
C252 C251 1.347 . S
C252 C253 1.455 . S
C252 H312 0.930 . S
C253 C240 1.412 . S
C253 C252 1.455 . S
C253 C254 1.331 . S
C254 C243 1.451 1_455 S
C254 C253 1.331 . S
C254 C255 1.497 . S
C255 C246 1.395 1_455 S
C255 C250 1.446 . S
C255 C254 1.497 . S
C256 C257 1.582 . S
C256 H313 0.962 . S
C256 H314 0.959 . S
C256 H315 0.958 . S
C257 C256 1.582 . S
C257 O260 1.458 . S
C257 H286 0.980 . S
O258 C203 1.426 . S
O258 C204 1.334 . S
O259 C231 1.412 . S
O259 C232 1.393 . S
O260 C222 1.435 . S
O260 C257 1.458 . S
O261 C213 1.468 . S
O261 C214 1.408 . S
H262 C203 0.980 . S
H263 C202 0.959 . S
H264 C202 0.959 . S
H265 C202 0.960 . S
H266 C205 0.929 . S
H267 C209 0.929 . S
H268 C210 0.959 . S
H269 C210 0.961 . S
H270 C210 0.961 . S
H271 C211 0.960 . S
H272 C211 0.960 . S
H273 C211 0.961 . S
H274 C213 0.980 . S
H275 C212 0.961 . S
H276 C212 0.960 . S
H277 C212 0.959 . S
H278 C215 0.930 . S
H279 C219 0.931 . S
H280 C220 0.959 . S
H281 C220 0.961 . S
H282 C220 0.959 . S
H283 C221 0.960 . S
H284 C221 0.960 . S
H285 C221 0.960 . S
H286 C257 0.980 . S
H287 C223 0.930 . S
H288 C227 0.930 . S
H289 C228 0.961 . S
H290 C228 0.960 . S
H291 C228 0.958 . S
H292 C229 0.961 . S
H293 C229 0.960 . S
H294 C229 0.960 . S
H295 C231 0.980 . S
H296 C230 0.961 . S
H297 C230 0.961 . S
H298 C230 0.959 . S
H299 C233 0.932 . S
H300 C237 0.929 . S
H301 C238 0.961 . S
H302 C238 0.959 . S
H303 C238 0.959 . S
H304 C239 0.960 . S
H305 C239 0.962 . S
H306 C239 0.961 . S
H307 C241 0.929 . S
H308 C244 0.930 . S
H309 C245 0.929 . S
H310 C248 0.930 . S
H311 C251 0.929 . S
H312 C252 0.930 . S
H313 C256 0.962 . S
H314 C256 0.959 . S
H315 C256 0.958 . S
C316 C317 1.560 . S
C316 H377 0.959 . S
C316 H378 0.959 . S
C316 H379 0.960 . S
C317 C316 1.560 . S
C317 O372 1.426 . S
C317 H376 0.980 . S
C318 C319 1.407 . S
C318 C323 1.418 . S
C318 O372 1.334 . S
C319 C318 1.407 . S
C319 C320 1.360 . S
C319 H380 0.929 . S
C320 C319 1.360 . S
C320 C321 1.401 . S
C320 C324 1.527 . S
C321 C320 1.401 . S
C321 C322 1.405 . S
C321 C354 1.587 . S
C322 C321 1.405 . S
C322 C323 1.332 . S
C322 C325 1.496 . S
C323 C318 1.418 . S
C323 C322 1.332 . S
C323 H381 0.929 . S
C324 C320 1.527 . S
C324 H382 0.959 . S
C324 H383 0.961 . S
C324 H384 0.961 . S
C325 C322 1.496 . S
C325 H385 0.960 . S
C325 H386 0.960 . S
C325 H387 0.961 . S
C326 C327 1.517 1_565 S
C326 H389 0.961 . S
C326 H390 0.960 . S
C326 H391 0.959 . S
C327 C326 1.517 1_545 S
C327 O375 1.468 . S
C327 H388 0.980 . S
C328 C329 1.349 . S
C328 C333 1.367 . S
C328 O375 1.408 . S
C329 C328 1.349 . S
C329 C330 1.407 . S
C329 H392 0.930 . S
C330 C329 1.407 . S
C330 C331 1.449 . S
C330 C334 1.535 . S
C331 C330 1.449 . S
C331 C332 1.384 . S
C331 C356 1.553 . S
C332 C331 1.384 . S
C332 C333 1.364 . S
C332 C335 1.450 . S
C333 C328 1.367 . S
C333 C332 1.364 . S
C333 H393 0.931 . S
C334 C330 1.535 . S
C334 H394 0.959 . S
C334 H395 0.961 . S
C334 H396 0.959 . S
C335 C332 1.450 . S
C335 H397 0.960 . S
C335 H398 0.960 . S
C335 H399 0.960 . S
C336 C337 1.309 . S
C336 C341 1.304 . S
C336 O374 1.435 . S
C337 C336 1.309 . S
C337 C338 1.476 . S
C337 H401 0.930 . S
C338 C337 1.476 . S
C338 C339 1.400 . S
C338 C342 1.567 . S
C339 C338 1.400 . S
C339 C340 1.373 . S
C339 C361 1.432 . S
C340 C339 1.373 . S
C340 C341 1.339 . S
C340 C343 1.530 . S
C341 C336 1.304 . S
C341 C340 1.339 . S
C341 H402 0.930 . S
C342 C338 1.567 . S
C342 H403 0.961 . S
C342 H404 0.960 . S
C342 H405 0.958 . S
C343 C340 1.530 . S
C343 H406 0.961 . S
C343 H407 0.960 . S
C343 H408 0.960 . S
C344 C345 1.530 . S
C344 H410 0.961 . S
C344 H411 0.961 . S
C344 H412 0.959 . S
C345 C344 1.530 . S
C345 O373 1.412 . S
C345 H409 0.980 . S
C346 C347 1.288 . S
C346 C351 1.377 . S
C346 O373 1.393 . S
C347 C346 1.288 . S
C347 C348 1.369 . S
C347 H413 0.932 . S
C348 C347 1.369 . S
C348 C349 1.398 . S
C348 C352 1.527 . S
C349 C348 1.398 . S
C349 C350 1.380 . S
C349 C363 1.497 . S
C350 C349 1.380 . S
C350 C351 1.383 . S
C350 C353 1.603 . S
C351 C346 1.377 . S
C351 C350 1.383 . S
C351 H414 0.929 . S
C352 C348 1.527 . S
C352 H415 0.961 . S
C352 H416 0.959 . S
C352 H417 0.959 . S
C353 C350 1.603 . S
C353 H418 0.960 . S
C353 H419 0.962 . S
C353 H420 0.961 . S
C354 C321 1.587 . S
C354 C355 1.360 . S
C354 C367 1.412 . S
C355 C354 1.360 . S
C355 C356 1.365 . S
C355 H421 0.929 . S
C356 C331 1.553 . S
C356 C355 1.365 . S
C356 C357 1.404 . S
C357 C356 1.404 . S
C357 C358 1.395 . S
C357 C368 1.451 . S
C358 C357 1.395 . S
C358 C359 1.322 . S
C358 H422 0.930 . S
C359 C358 1.322 . S
C359 C360 1.459 . S
C359 H423 0.929 . S
C360 C359 1.459 . S
C360 C361 1.445 . S
C360 C369 1.395 . S
C361 C339 1.432 . S
C361 C360 1.445 . S
C361 C362 1.370 . S
C362 C361 1.370 . S
C362 C363 1.438 . S
C362 H424 0.930 . S
C363 C349 1.497 . S
C363 C362 1.438 . S
C363 C364 1.360 . S
C364 C363 1.360 . S
C364 C365 1.401 . S
C364 C369 1.446 . S
C365 C364 1.401 . S
C365 C366 1.347 . S
C365 H425 0.929 . S
C366 C365 1.347 . S
C366 C367 1.455 . S
C366 H426 0.930 . S
C367 C354 1.412 . S
C367 C366 1.455 . S
C367 C368 1.331 . S
C368 C357 1.451 . S
C368 C367 1.331 . S
C368 C369 1.497 . S
C369 C360 1.395 . S
C369 C364 1.446 . S
C369 C368 1.497 . S
C370 C371 1.582 . S
C370 H427 0.962 . S
C370 H428 0.959 . S
C370 H429 0.958 . S
C371 C370 1.582 . S
C371 O374 1.458 1_565 S
C371 H400 0.980 . S
O372 C317 1.426 . S
O372 C318 1.334 . S
O373 C345 1.412 . S
O373 C346 1.393 . S
O374 C336 1.435 . S
O374 C371 1.458 1_545 S
O375 C327 1.468 . S
O375 C328 1.408 . S
H376 C317 0.980 . S
H377 C316 0.959 . S
H378 C316 0.959 . S
H379 C316 0.960 . S
H380 C319 0.929 . S
H381 C323 0.929 . S
H382 C324 0.959 . S
H383 C324 0.961 . S
H384 C324 0.961 . S
H385 C325 0.960 . S
H386 C325 0.960 . S
H387 C325 0.961 . S
H388 C327 0.980 . S
H389 C326 0.961 . S
H390 C326 0.960 . S
H391 C326 0.959 . S
H392 C329 0.930 . S
H393 C333 0.931 . S
H394 C334 0.959 . S
H395 C334 0.961 . S
H396 C334 0.959 . S
H397 C335 0.960 . S
H398 C335 0.960 . S
H399 C335 0.960 . S
H400 C371 0.980 . S
H401 C337 0.930 . S
H402 C341 0.930 . S
H403 C342 0.961 . S
H404 C342 0.960 . S
H405 C342 0.958 . S
H406 C343 0.961 . S
H407 C343 0.960 . S
H408 C343 0.960 . S
H409 C345 0.980 . S
H410 C344 0.961 . S
H411 C344 0.961 . S
H412 C344 0.959 . S
H413 C347 0.932 . S
H414 C351 0.929 . S
H415 C352 0.961 . S
H416 C352 0.959 . S
H417 C352 0.959 . S
H418 C353 0.960 . S
H419 C353 0.962 . S
H420 C353 0.961 . S
H421 C355 0.929 . S
H422 C358 0.930 . S
H423 C359 0.929 . S
H424 C362 0.930 . S
H425 C365 0.929 . S
H426 C366 0.930 . S
H427 C370 0.962 . S
H428 C370 0.959 . S
H429 C370 0.958 . S
C430 C431 1.560 . S
C430 H491 0.959 . S
C430 H492 0.959 . S
C430 H493 0.960 . S
C431 C430 1.560 . S
C431 O486 1.426 . S
C431 H490 0.980 . S
C432 C433 1.407 . S
C432 C437 1.418 . S
C432 O486 1.334 . S
C433 C432 1.407 . S
C433 C434 1.360 . S
C433 H494 0.929 . S
C434 C433 1.360 . S
C434 C435 1.401 . S
C434 C438 1.527 . S
C435 C434 1.401 . S
C435 C436 1.405 . S
C435 C468 1.587 . S
C436 C435 1.405 . S
C436 C437 1.332 . S
C436 C439 1.496 . S
C437 C432 1.418 . S
C437 C436 1.332 . S
C437 H495 0.929 . S
C438 C434 1.527 . S
C438 H496 0.959 . S
C438 H497 0.961 . S
C438 H498 0.961 . S
C439 C436 1.496 . S
C439 H499 0.960 . S
C439 H500 0.960 . S
C439 H501 0.961 . S
C440 C441 1.517 . S
C440 H503 0.961 . S
C440 H504 0.960 . S
C440 H505 0.959 . S
C441 C440 1.517 . S
C441 O489 1.468 . S
C441 H502 0.980 . S
C442 C443 1.349 . S
C442 C447 1.367 . S
C442 O489 1.408 . S
C443 C442 1.349 . S
C443 C444 1.407 . S
C443 H506 0.930 . S
C444 C443 1.407 . S
C444 C445 1.449 . S
C444 C448 1.535 . S
C445 C444 1.449 . S
C445 C446 1.384 . S
C445 C470 1.553 . S
C446 C445 1.384 . S
C446 C447 1.364 . S
C446 C449 1.450 . S
C447 C442 1.367 . S
C447 C446 1.364 . S
C447 H507 0.931 . S
C448 C444 1.535 . S
C448 H508 0.959 . S
C448 H509 0.961 . S
C448 H510 0.959 . S
C449 C446 1.450 . S
C449 H511 0.960 . S
C449 H512 0.960 . S
C449 H513 0.960 . S
C450 C451 1.309 . S
C450 C455 1.304 . S
C450 O488 1.435 . S
C451 C450 1.309 . S
C451 C452 1.476 . S
C451 H515 0.930 . S
C452 C451 1.476 . S
C452 C453 1.400 . S
C452 C456 1.567 . S
C453 C452 1.400 . S
C453 C454 1.373 . S
C453 C475 1.432 . S
C454 C453 1.373 . S
C454 C455 1.339 . S
C454 C457 1.530 . S
C455 C450 1.304 . S
C455 C454 1.339 . S
C455 H516 0.930 . S
C456 C452 1.567 . S
C456 H517 0.961 . S
C456 H518 0.960 . S
C456 H519 0.958 . S
C457 C454 1.530 . S
C457 H520 0.961 . S
C457 H521 0.960 . S
C457 H522 0.960 . S
C458 C459 1.530 . S
C458 H524 0.961 . S
C458 H525 0.961 . S
C458 H526 0.959 . S
C459 C458 1.530 . S
C459 O487 1.412 . S
C459 H523 0.980 . S
C460 C461 1.288 . S
C460 C465 1.377 . S
C460 O487 1.393 . S
C461 C460 1.288 . S
C461 C462 1.369 . S
C461 H527 0.932 . S
C462 C461 1.369 . S
C462 C463 1.398 . S
C462 C466 1.527 . S
C463 C462 1.398 . S
C463 C464 1.380 . S
C463 C477 1.497 . S
C464 C463 1.380 . S
C464 C465 1.383 . S
C464 C467 1.603 . S
C465 C460 1.377 . S
C465 C464 1.383 . S
C465 H528 0.929 . S
C466 C462 1.527 . S
C466 H529 0.961 . S
C466 H530 0.959 . S
C466 H531 0.959 . S
C467 C464 1.603 . S
C467 H532 0.960 . S
C467 H533 0.962 . S
C467 H534 0.961 . S
C468 C435 1.587 . S
C468 C469 1.360 . S
C468 C481 1.412 . S
C469 C468 1.360 . S
C469 C470 1.365 . S
C469 H535 0.929 . S
C470 C445 1.553 . S
C470 C469 1.365 . S
C470 C471 1.404 . S
C471 C470 1.404 . S
C471 C472 1.395 . S
C471 C482 1.451 . S
C472 C471 1.395 . S
C472 C473 1.322 1_554 S
C472 H536 0.930 . S
C473 C472 1.322 1_556 S
C473 C474 1.459 . S
C473 H537 0.929 . S
C474 C473 1.459 . S
C474 C475 1.445 . S
C474 C483 1.395 . S
C475 C453 1.432 . S
C475 C474 1.445 . S
C475 C476 1.370 . S
C476 C475 1.370 . S
C476 C477 1.438 . S
C476 H538 0.930 . S
C477 C463 1.497 . S
C477 C476 1.438 . S
C477 C478 1.360 . S
C478 C477 1.360 . S
C478 C479 1.403 . S
C478 C483 1.446 . S
C479 C478 1.403 . S
C479 C480 1.343 1_556 S
C479 H539 0.931 . S
C480 C479 1.343 1_554 S
C480 C481 1.455 . S
C480 H540 0.930 . S
C481 C468 1.412 . S
C481 C480 1.455 . S
C481 C482 1.331 . S
C482 C471 1.451 . S
C482 C481 1.331 . S
C482 C483 1.497 1_554 S
C483 C474 1.395 . S
C483 C478 1.446 . S
C483 C482 1.497 1_556 S
C484 C485 1.582 . S
C484 H541 0.962 . S
C484 H542 0.959 . S
C484 H543 0.958 . S
C485 C484 1.582 . S
C485 O488 1.458 . S
C485 H514 0.980 . S
O486 C431 1.426 . S
O486 C432 1.334 . S
O487 C459 1.412 . S
O487 C460 1.393 . S
O488 C450 1.435 . S
O488 C485 1.458 . S
O489 C441 1.468 . S
O489 C442 1.408 . S
H490 C431 0.980 . S
H491 C430 0.959 . S
H492 C430 0.959 . S
H493 C430 0.960 . S
H494 C433 0.929 . S
H495 C437 0.929 . S
H496 C438 0.959 . S
H497 C438 0.961 . S
H498 C438 0.961 . S
H499 C439 0.960 . S
H500 C439 0.960 . S
H501 C439 0.961 . S
H502 C441 0.980 . S
H503 C440 0.961 . S
H504 C440 0.960 . S
H505 C440 0.959 . S
H506 C443 0.930 . S
H507 C447 0.931 . S
H508 C448 0.959 . S
H509 C448 0.961 . S
H510 C448 0.959 . S
H511 C449 0.960 . S
H512 C449 0.960 . S
H513 C449 0.960 . S
H514 C485 0.980 . S
H515 C451 0.930 . S
H516 C455 0.930 . S
H517 C456 0.961 . S
H518 C456 0.960 . S
H519 C456 0.958 . S
H520 C457 0.961 . S
H521 C457 0.960 . S
H522 C457 0.960 . S
H523 C459 0.980 . S
H524 C458 0.961 . S
H525 C458 0.961 . S
H526 C458 0.959 . S
H527 C461 0.932 . S
H528 C465 0.929 . S
H529 C466 0.961 . S
H530 C466 0.959 . S
H531 C466 0.959 . S
H532 C467 0.960 . S
H533 C467 0.962 . S
H534 C467 0.961 . S
H535 C469 0.929 . S
H536 C472 0.930 . S
H537 C473 0.929 . S
H538 C476 0.930 . S
H539 C479 0.931 . S
H540 C480 0.930 . S
H541 C484 0.962 . S
H542 C484 0.959 . S
H543 C484 0.958 . S
C544 C545 1.560 . S
C544 H605 0.959 . S
C544 H606 0.959 . S
C544 H607 0.960 . S
C545 C544 1.560 . S
C545 O600 1.426 . S
C545 H604 0.980 . S
C546 C547 1.407 . S
C546 C551 1.418 . S
C546 O600 1.334 . S
C547 C546 1.407 . S
C547 C548 1.360 . S
C547 H608 0.929 . S
C548 C547 1.360 . S
C548 C549 1.401 . S
C548 C552 1.527 . S
C549 C548 1.401 . S
C549 C550 1.405 . S
C549 C582 1.587 . S
C550 C549 1.405 . S
C550 C551 1.332 . S
C550 C553 1.496 . S
C551 C546 1.418 . S
C551 C550 1.332 . S
C551 H609 0.929 . S
C552 C548 1.527 . S
C552 H610 0.959 . S
C552 H611 0.961 . S
C552 H612 0.961 . S
C553 C550 1.496 . S
C553 H613 0.960 . S
C553 H614 0.960 . S
C553 H615 0.961 . S
C554 C555 1.517 . S
C554 H617 0.961 . S
C554 H618 0.960 . S
C554 H619 0.959 . S
C555 C554 1.517 . S
C555 O603 1.468 . S
C555 H616 0.980 . S
C556 C557 1.349 . S
C556 C561 1.367 . S
C556 O603 1.408 . S
C557 C556 1.349 . S
C557 C558 1.407 . S
C557 H620 0.930 . S
C558 C557 1.407 . S
C558 C559 1.449 . S
C558 C562 1.535 . S
C559 C558 1.449 . S
C559 C560 1.384 . S
C559 C584 1.553 . S
C560 C559 1.384 . S
C560 C561 1.364 . S
C560 C563 1.450 . S
C561 C556 1.367 . S
C561 C560 1.364 . S
C561 H621 0.931 . S
C562 C558 1.535 . S
C562 H622 0.959 . S
C562 H623 0.961 . S
C562 H624 0.959 . S
C563 C560 1.450 . S
C563 H625 0.960 . S
C563 H626 0.960 . S
C563 H627 0.960 . S
C564 C565 1.309 . S
C564 C569 1.304 . S
C564 O602 1.435 . S
C565 C564 1.309 . S
C565 C566 1.476 . S
C565 H629 0.930 . S
C566 C565 1.476 . S
C566 C567 1.400 . S
C566 C570 1.567 . S
C567 C566 1.400 . S
C567 C568 1.373 . S
C567 C589 1.432 . S
C568 C567 1.373 . S
C568 C569 1.339 . S
C568 C571 1.530 . S
C569 C564 1.304 . S
C569 C568 1.339 . S
C569 H630 0.930 . S
C570 C566 1.567 . S
C570 H631 0.961 . S
C570 H632 0.960 . S
C570 H633 0.958 . S
C571 C568 1.530 . S
C571 H634 0.961 . S
C571 H635 0.960 . S
C571 H636 0.960 . S
C572 C573 1.530 . S
C572 H638 0.961 . S
C572 H639 0.961 . S
C572 H640 0.959 . S
C573 C572 1.530 . S
C573 O601 1.412 . S
C573 H637 0.980 . S
C574 C575 1.288 . S
C574 C579 1.377 . S
C574 O601 1.393 . S
C575 C574 1.288 . S
C575 C576 1.369 . S
C575 H641 0.932 . S
C576 C575 1.369 . S
C576 C577 1.398 . S
C576 C580 1.527 . S
C577 C576 1.398 . S
C577 C578 1.380 . S
C577 C591 1.497 . S
C578 C577 1.380 . S
C578 C579 1.383 . S
C578 C581 1.603 . S
C579 C574 1.377 . S
C579 C578 1.383 . S
C579 H642 0.929 . S
C580 C576 1.527 . S
C580 H643 0.961 . S
C580 H644 0.959 . S
C580 H645 0.959 . S
C581 C578 1.603 . S
C581 H646 0.960 . S
C581 H647 0.962 . S
C581 H648 0.961 . S
C582 C549 1.587 . S
C582 C583 1.360 . S
C582 C595 1.412 . S
C583 C582 1.360 . S
C583 C584 1.365 1_545 S
C583 H649 0.929 . S
C584 C559 1.553 . S
C584 C583 1.365 1_565 S
C584 C585 1.404 . S
C585 C584 1.404 . S
C585 C586 1.395 . S
C585 C596 1.451 1_565 S
C586 C585 1.395 . S
C586 C587 1.322 . S
C586 H650 0.930 . S
C587 C586 1.322 . S
C587 C588 1.459 . S
C587 H651 0.929 . S
C588 C587 1.459 . S
C588 C589 1.445 . S
C588 C597 1.395 1_565 S
C589 C567 1.432 . S
C589 C588 1.445 . S
C589 C590 1.370 1_565 S
C590 C589 1.370 1_545 S
C590 C591 1.438 . S
C590 H652 0.931 . S
C591 C577 1.497 . S
C591 C590 1.438 . S
C591 C592 1.360 . S
C592 C591 1.360 . S
C592 C593 1.401 . S
C592 C597 1.446 . S
C593 C592 1.401 . S
C593 C594 1.347 . S
C593 H653 0.929 . S
C594 C593 1.347 . S
C594 C595 1.455 . S
C594 H654 0.930 . S
C595 C582 1.412 . S
C595 C594 1.455 . S
C595 C596 1.331 . S
C596 C585 1.451 1_545 S
C596 C595 1.331 . S
C596 C597 1.497 . S
C597 C588 1.395 1_545 S
C597 C592 1.446 . S
C597 C596 1.497 . S
C598 C599 1.582 . S
C598 H655 0.962 . S
C598 H656 0.959 . S
C598 H657 0.958 . S
C599 C598 1.582 . S
C599 O602 1.458 . S
C599 H628 0.980 . S
O600 C545 1.426 . S
O600 C546 1.334 . S
O601 C573 1.412 . S
O601 C574 1.393 . S
O602 C564 1.435 . S
O602 C599 1.458 . S
O603 C555 1.468 . S
O603 C556 1.408 . S
H604 C545 0.980 . S
H605 C544 0.959 . S
H606 C544 0.959 . S
H607 C544 0.960 . S
H608 C547 0.929 . S
H609 C551 0.929 . S
H610 C552 0.959 . S
H611 C552 0.961 . S
H612 C552 0.961 . S
H613 C553 0.960 . S
H614 C553 0.960 . S
H615 C553 0.961 . S
H616 C555 0.980 . S
H617 C554 0.961 . S
H618 C554 0.960 . S
H619 C554 0.959 . S
H620 C557 0.930 . S
H621 C561 0.931 . S
H622 C562 0.959 . S
H623 C562 0.961 . S
H624 C562 0.959 . S
H625 C563 0.960 . S
H626 C563 0.960 . S
H627 C563 0.960 . S
H628 C599 0.980 . S
H629 C565 0.930 . S
H630 C569 0.930 . S
H631 C570 0.961 . S
H632 C570 0.960 . S
H633 C570 0.958 . S
H634 C571 0.961 . S
H635 C571 0.960 . S
H636 C571 0.960 . S
H637 C573 0.980 . S
H638 C572 0.961 . S
H639 C572 0.961 . S
H640 C572 0.959 . S
H641 C575 0.932 . S
H642 C579 0.929 . S
H643 C580 0.961 . S
H644 C580 0.959 . S
H645 C580 0.959 . S
H646 C581 0.960 . S
H647 C581 0.962 . S
H648 C581 0.961 . S
H649 C583 0.929 . S
H650 C586 0.930 . S
H651 C587 0.929 . S
H652 C590 0.931 . S
H653 C593 0.929 . S
H654 C594 0.930 . S
H655 C598 0.962 . S
H656 C598 0.959 . S
H657 C598 0.958 . S
C658 C659 1.560 . S
C658 H719 0.959 . S
C658 H720 0.959 . S
C658 H721 0.960 . S
C659 C658 1.560 . S
C659 O714 1.426 . S
C659 H718 0.980 . S
C660 C661 1.407 . S
C660 C665 1.418 . S
C660 O714 1.334 . S
C661 C660 1.407 . S
C661 C662 1.360 . S
C661 H722 0.929 . S
C662 C661 1.360 . S
C662 C663 1.401 . S
C662 C666 1.527 . S
C663 C662 1.401 . S
C663 C664 1.405 . S
C663 C696 1.587 . S
C664 C663 1.405 . S
C664 C665 1.332 . S
C664 C667 1.496 . S
C665 C660 1.418 . S
C665 C664 1.332 . S
C665 H723 0.929 . S
C666 C662 1.527 . S
C666 H724 0.959 . S
C666 H725 0.961 . S
C666 H726 0.961 . S
C667 C664 1.496 . S
C667 H727 0.960 . S
C667 H728 0.960 . S
C667 H729 0.961 . S
C668 C669 1.517 . S
C668 H731 0.961 . S
C668 H732 0.960 . S
C668 H733 0.959 . S
C669 C668 1.517 . S
C669 O717 1.468 . S
C669 H730 0.980 . S
C670 C671 1.349 . S
C670 C675 1.367 . S
C670 O717 1.408 . S
C671 C670 1.349 . S
C671 C672 1.407 . S
C671 H734 0.930 . S
C672 C671 1.407 . S
C672 C673 1.449 . S
C672 C676 1.535 . S
C673 C672 1.449 . S
C673 C674 1.384 . S
C673 C698 1.553 . S
C674 C673 1.384 . S
C674 C675 1.364 . S
C674 C677 1.450 . S
C675 C670 1.367 . S
C675 C674 1.364 . S
C675 H735 0.931 . S
C676 C672 1.535 . S
C676 H736 0.959 . S
C676 H737 0.961 . S
C676 H738 0.959 . S
C677 C674 1.450 . S
C677 H739 0.960 . S
C677 H740 0.960 . S
C677 H741 0.960 . S
C678 C679 1.309 . S
C678 C683 1.304 . S
C678 O716 1.435 . S
C679 C678 1.309 . S
C679 C680 1.476 . S
C679 H743 0.930 . S
C680 C679 1.476 . S
C680 C681 1.400 . S
C680 C684 1.567 . S
C681 C680 1.400 . S
C681 C682 1.373 . S
C681 C703 1.432 . S
C682 C681 1.373 . S
C682 C683 1.339 . S
C682 C685 1.530 . S
C683 C678 1.304 . S
C683 C682 1.339 . S
C683 H744 0.930 . S
C684 C680 1.567 . S
C684 H745 0.961 . S
C684 H746 0.960 . S
C684 H747 0.958 . S
C685 C682 1.530 . S
C685 H748 0.961 . S
C685 H749 0.960 . S
C685 H750 0.960 . S
C686 C687 1.530 . S
C686 H752 0.961 . S
C686 H753 0.961 . S
C686 H754 0.959 . S
C687 C686 1.530 . S
C687 O715 1.412 . S
C687 H751 0.980 . S
C688 C689 1.288 . S
C688 C693 1.377 . S
C688 O715 1.393 . S
C689 C688 1.288 . S
C689 C690 1.369 . S
C689 H755 0.932 . S
C690 C689 1.369 . S
C690 C691 1.398 . S
C690 C694 1.527 . S
C691 C690 1.398 . S
C691 C692 1.380 . S
C691 C705 1.497 . S
C692 C691 1.380 . S
C692 C693 1.383 . S
C692 C695 1.603 . S
C693 C688 1.377 . S
C693 C692 1.383 . S
C693 H756 0.929 . S
C694 C690 1.527 . S
C694 H757 0.961 . S
C694 H758 0.959 . S
C694 H759 0.959 . S
C695 C692 1.603 . S
C695 H760 0.960 . S
C695 H761 0.962 . S
C695 H762 0.961 . S
C696 C663 1.587 . S
C696 C697 1.360 . S
C696 C709 1.412 . S
C697 C696 1.360 . S
C697 C698 1.365 . S
C697 H763 0.929 . S
C698 C673 1.553 . S
C698 C697 1.365 . S
C698 C699 1.404 . S
C699 C698 1.404 . S
C699 C700 1.395 . S
C699 C710 1.451 . S
C700 C699 1.395 . S
C700 C701 1.322 . S
C700 H764 0.930 . S
C701 C700 1.322 . S
C701 C702 1.459 1_554 S
C701 H765 0.929 1_554 S
C702 C701 1.459 1_556 S
C702 C703 1.445 . S
C702 C711 1.395 1_556 S
C703 C681 1.432 . S
C703 C702 1.445 . S
C703 C704 1.370 . S
C704 C703 1.370 . S
C704 C705 1.438 . S
C704 H766 0.930 . S
C705 C691 1.497 . S
C705 C704 1.438 . S
C705 C706 1.360 . S
C706 C705 1.360 . S
C706 C707 1.401 1_556 S
C706 C711 1.446 1_556 S
C707 C706 1.401 1_554 S
C707 C708 1.347 . S
C707 H767 0.933 . S
C708 C707 1.347 . S
C708 C709 1.455 . S
C708 H768 0.930 . S
C709 C696 1.412 . S
C709 C708 1.455 . S
C709 C710 1.331 . S
C710 C699 1.451 . S
C710 C709 1.331 . S
C710 C711 1.497 . S
C711 C702 1.395 1_554 S
C711 C706 1.446 1_554 S
C711 C710 1.497 . S
C712 C713 1.582 . S
C712 H769 0.962 . S
C712 H770 0.959 . S
C712 H771 0.958 . S
C713 C712 1.582 . S
C713 O716 1.458 . S
C713 H742 0.980 . S
O714 C659 1.426 . S
O714 C660 1.334 . S
O715 C687 1.412 . S
O715 C688 1.393 . S
O716 C678 1.435 . S
O716 C713 1.458 . S
O717 C669 1.468 . S
O717 C670 1.408 . S
H718 C659 0.980 . S
H719 C658 0.959 . S
H720 C658 0.959 . S
H721 C658 0.960 . S
H722 C661 0.929 . S
H723 C665 0.929 . S
H724 C666 0.959 . S
H725 C666 0.961 . S
H726 C666 0.961 . S
H727 C667 0.960 . S
H728 C667 0.960 . S
H729 C667 0.961 . S
H730 C669 0.980 . S
H731 C668 0.961 . S
H732 C668 0.960 . S
H733 C668 0.959 . S
H734 C671 0.930 . S
H735 C675 0.931 . S
H736 C676 0.959 . S
H737 C676 0.961 . S
H738 C676 0.959 . S
H739 C677 0.960 . S
H740 C677 0.960 . S
H741 C677 0.960 . S
H742 C713 0.980 . S
H743 C679 0.930 . S
H744 C683 0.930 . S
H745 C684 0.961 . S
H746 C684 0.960 . S
H747 C684 0.958 . S
H748 C685 0.961 . S
H749 C685 0.960 . S
H750 C685 0.960 . S
H751 C687 0.980 . S
H752 C686 0.961 . S
H753 C686 0.961 . S
H754 C686 0.959 . S
H755 C689 0.932 . S
H756 C693 0.929 . S
H757 C694 0.961 . S
H758 C694 0.959 . S
H759 C694 0.959 . S
H760 C695 0.960 . S
H761 C695 0.962 . S
H762 C695 0.961 . S
H763 C697 0.929 . S
H764 C700 0.930 . S
H765 C701 0.929 1_556 S
H766 C704 0.930 . S
H767 C707 0.933 . S
H768 C708 0.930 . S
H769 C712 0.962 . S
H770 C712 0.959 . S
H771 C712 0.958 . S
C772 C773 1.387 . S
C772 H776 0.950 . S
C772 C781 1.390 . S
C773 C772 1.387 . S
C773 C775 1.387 . S
H774 C781 0.950 . S
C775 C773 1.387 . S
C775 C777 1.390 . S
C775 H779 0.950 . S
H776 C772 0.950 . S
C777 C775 1.390 . S
C777 C778 1.387 . S
C777 H780 0.950 . S
C778 C777 1.387 . S
C778 C781 1.387 . S
H779 C775 0.950 . S
H780 C777 0.950 . S
C781 C772 1.390 . S
C781 H774 0.950 . S
C781 C778 1.387 . S
C782 C783 1.387 . S
C782 H786 0.950 . S
C782 C791 1.390 . S
C783 C782 1.387 . S
C783 C785 1.387 . S
H784 C791 0.950 . S
C785 C783 1.387 . S
C785 C787 1.390 . S
C785 H789 0.950 . S
H786 C782 0.950 . S
C787 C785 1.390 . S
C787 C788 1.387 . S
C787 H790 0.950 . S
C788 C787 1.387 . S
C788 C791 1.387 . S
H789 C785 0.950 . S
H790 C787 0.950 . S
C791 C782 1.390 . S
C791 H784 0.950 . S
C791 C788 1.387 . S
C792 C793 1.387 . S
C792 H796 0.950 . S
C792 C801 1.390 . S
C793 C792 1.387 . S
C793 C795 1.387 . S
H794 C801 0.950 . S
C795 C793 1.387 . S
C795 C797 1.390 . S
C795 H799 0.950 . S
H796 C792 0.950 . S
C797 C795 1.390 . S
C797 C798 1.387 . S
C797 H800 0.950 . S
C798 C797 1.387 . S
C798 C801 1.387 . S
H799 C795 0.950 . S
H800 C797 0.950 . S
C801 C792 1.390 . S
C801 H794 0.950 . S
C801 C798 1.387 . S
C802 C803 1.387 . S
C802 H806 0.950 . S
C802 C811 1.390 . S
C803 C802 1.387 . S
C803 C805 1.387 . S
H804 C811 0.950 . S
C805 C803 1.387 . S
C805 C807 1.390 . S
C805 H809 0.950 . S
H806 C802 0.950 . S
C807 C805 1.390 . S
C807 C808 1.387 . S
C807 H810 0.950 . S
C808 C807 1.387 . S
C808 C811 1.387 . S
H809 C805 0.950 . S
H810 C807 0.950 . S
C811 C802 1.390 . S
C811 H804 0.950 . S
C811 C808 1.387 . S
C812 C813 1.387 . S
C812 H816 0.950 . S
C812 C821 1.390 . S
C813 C812 1.387 . S
C813 C815 1.387 . S
H814 C821 0.950 . S
C815 C813 1.387 . S
C815 C817 1.390 . S
C815 H819 0.950 . S
H816 C812 0.950 . S
C817 C815 1.390 . S
C817 C818 1.387 . S
C817 H820 0.950 . S
C818 C817 1.387 . S
C818 C821 1.387 . S
H819 C815 0.950 . S
H820 C817 0.950 . S
C821 C812 1.390 . S
C821 H814 0.950 . S
C821 C818 1.387 . S
C822 C823 1.387 . S
C822 H826 0.950 . S
C822 C831 1.390 . S
C823 C822 1.387 . S
C823 C825 1.387 . S
H824 C831 0.950 . S
C825 C823 1.387 . S
C825 C827 1.390 . S
C825 H829 0.950 . S
H826 C822 0.950 . S
C827 C825 1.390 . S
C827 C828 1.387 . S
C827 H830 0.950 . S
C828 C827 1.387 . S
C828 C831 1.387 . S
H829 C825 0.950 . S
H830 C827 0.950 . S
C831 C822 1.390 . S
C831 H824 0.950 . S
C831 C828 1.387 . S
C832 C833 1.387 . S
C832 H836 0.950 . S
C832 C841 1.390 . S
C833 C832 1.387 . S
C833 C835 1.387 . S
H834 C841 0.950 . S
C835 C833 1.387 . S
C835 C837 1.390 . S
C835 H839 0.950 . S
H836 C832 0.950 . S
C837 C835 1.390 . S
C837 C838 1.387 . S
C837 H840 0.950 . S
C838 C837 1.387 . S
C838 C841 1.387 . S
H839 C835 0.950 . S
H840 C837 0.950 . S
C841 C832 1.390 . S
C841 H834 0.950 . S
C841 C838 1.387 . S
C842 C843 1.387 . S
C842 H846 0.950 . S
C842 C851 1.390 . S
C843 C842 1.387 . S
C843 C845 1.387 . S
H844 C851 0.950 . S
C845 C843 1.387 . S
C845 C847 1.390 . S
C845 H849 0.950 . S
H846 C842 0.950 . S
C847 C845 1.390 . S
C847 C848 1.387 . S
C847 H850 0.950 . S
C848 C847 1.387 . S
C848 C851 1.387 . S
H849 C845 0.950 . S
H850 C847 0.950 . S
C851 C842 1.390 . S
C851 H844 0.950 . S
C851 C848 1.387 . S
C852 C853 1.387 . S
C852 H856 0.950 . S
C852 C861 1.390 . S
C853 C852 1.387 . S
C853 C855 1.387 . S
H854 C861 0.950 1_545 S
C855 C853 1.387 . S
C855 C857 1.390 . S
C855 H859 0.950 . S
H856 C852 0.950 . S
C857 C855 1.390 . S
C857 C858 1.387 . S
C857 H860 0.950 . S
C858 C857 1.387 . S
C858 C861 1.387 . S
H859 C855 0.950 . S
H860 C857 0.950 . S
C861 C852 1.390 . S
C861 H854 0.950 1_565 S
C861 C858 1.387 . S
C862 C863 1.387 . S
C862 H866 0.950 . S
C862 C871 1.390 . S
C863 C862 1.387 . S
C863 C865 1.387 . S
H864 C871 0.950 . S
C865 C863 1.387 . S
C865 C867 1.390 . S
C865 H869 0.950 . S
H866 C862 0.950 . S
C867 C865 1.390 . S
C867 C868 1.387 . S
C867 H870 0.950 . S
C868 C867 1.387 . S
C868 C871 1.387 . S
H869 C865 0.950 . S
H870 C867 0.950 . S
C871 C862 1.390 . S
C871 H864 0.950 . S
C871 C868 1.387 . S
C872 C873 1.387 . S
C872 H876 0.950 . S
C872 C881 1.390 . S
C873 C872 1.387 . S
C873 C875 1.387 . S
H874 C881 0.950 . S
C875 C873 1.387 . S
C875 C877 1.390 . S
C875 H879 0.950 . S
H876 C872 0.950 . S
C877 C875 1.390 . S
C877 C878 1.387 . S
C877 H880 0.950 . S
C878 C877 1.387 . S
C878 C881 1.387 . S
H879 C875 0.950 . S
H880 C877 0.950 . S
C881 C872 1.390 . S
C881 H874 0.950 . S
C881 C878 1.387 . S
C882 C883 1.387 . S
C882 H886 0.950 . S
C882 C891 1.390 . S
C883 C882 1.387 . S
C883 C885 1.387 . S
H884 C891 0.950 . S
C885 C883 1.387 . S
C885 C887 1.390 . S
C885 H889 0.950 . S
H886 C882 0.950 . S
C887 C885 1.390 . S
C887 C888 1.387 . S
C887 H890 0.950 . S
C888 C887 1.387 . S
C888 C891 1.387 . S
H889 C885 0.950 . S
H890 C887 0.950 . S
C891 C882 1.390 . S
C891 H884 0.950 . S
C891 C888 1.387 . S
C892 C893 1.387 . S
C892 H896 0.950 . S
C892 C901 1.390 . S
C893 C892 1.387 . S
C893 C895 1.387 . S
H894 C901 0.950 . S
C895 C893 1.387 . S
C895 C897 1.390 . S
C895 H899 0.950 . S
H896 C892 0.950 . S
C897 C895 1.390 . S
C897 C898 1.387 . S
C897 H900 0.950 . S
C898 C897 1.387 . S
C898 C901 1.387 . S
H899 C895 0.950 . S
H900 C897 0.950 . S
C901 C892 1.390 . S
C901 H894 0.950 . S
C901 C898 1.387 . S
C902 C903 1.387 . S
C902 H906 0.950 . S
C902 C911 1.390 . S
C903 C902 1.387 . S
C903 C905 1.387 . S
H904 C911 0.950 . S
C905 C903 1.387 . S
C905 C907 1.390 . S
C905 H909 0.950 . S
H906 C902 0.950 . S
C907 C905 1.390 . S
C907 C908 1.387 . S
C907 H910 0.950 . S
C908 C907 1.387 . S
C908 C911 1.387 . S
H909 C905 0.950 . S
H910 C907 0.950 . S
C911 C902 1.390 . S
C911 H904 0.950 . S
C911 C908 1.387 . S
C912 C913 1.387 . S
C912 H916 0.950 . S
C912 C921 1.390 . S
C913 C912 1.387 . S
C913 C915 1.387 . S
H914 C921 0.950 . S
C915 C913 1.387 . S
C915 C917 1.390 . S
C915 H919 0.950 . S
H916 C912 0.950 . S
C917 C915 1.390 . S
C917 C918 1.387 . S
C917 H920 0.950 . S
C918 C917 1.387 . S
C918 C921 1.387 . S
H919 C915 0.950 . S
H920 C917 0.950 . S
C921 C912 1.390 . S
C921 H914 0.950 . S
C921 C918 1.387 . S
C922 C923 1.387 . S
C922 H926 0.950 . S
C922 C931 1.390 . S
C923 C922 1.387 . S
C923 C925 1.387 . S
H924 C931 0.950 . S
C925 C923 1.387 . S
C925 C927 1.390 . S
C925 H929 0.950 . S
H926 C922 0.950 . S
C927 C925 1.390 . S
C927 C928 1.387 . S
C927 H930 0.950 . S
C928 C927 1.387 . S
C928 C931 1.387 . S
H929 C925 0.950 . S
H930 C927 0.950 . S
C931 C922 1.390 . S
C931 H924 0.950 . S
C931 C928 1.387 . S
C932 C933 1.387 . S
C932 H936 0.950 . S
C932 C941 1.390 . S
C933 C932 1.387 . S
C933 C935 1.387 . S
H934 C941 0.950 . S
C935 C933 1.387 . S
C935 C937 1.390 . S
C935 H939 0.950 . S
H936 C932 0.950 . S
C937 C935 1.390 . S
C937 C938 1.387 . S
C937 H940 0.950 . S
C938 C937 1.387 . S
C938 C941 1.387 . S
H939 C935 0.950 . S
H940 C937 0.950 . S
C941 C932 1.390 . S
C941 H934 0.950 . S
C941 C938 1.387 . S
C942 C943 1.387 . S
C942 H946 0.950 . S
C942 C951 1.390 . S
C943 C942 1.387 . S
C943 C945 1.387 . S
H944 C951 0.950 . S
C945 C943 1.387 . S
C945 C947 1.390 . S
C945 H949 0.950 . S
H946 C942 0.950 . S
C947 C945 1.390 . S
C947 C948 1.387 . S
C947 H950 0.950 . S
C948 C947 1.387 . S
C948 C951 1.387 . S
H949 C945 0.950 . S
H950 C947 0.950 . S
C951 C942 1.390 . S
C951 H944 0.950 . S
C951 C948 1.387 . S
C952 C953 1.387 . S
C952 H956 0.950 . S
C952 C961 1.390 . S
C953 C952 1.387 . S
C953 C955 1.387 . S
H954 C961 0.950 . S
C955 C953 1.387 . S
C955 C957 1.390 . S
C955 H959 0.950 . S
H956 C952 0.950 . S
C957 C955 1.390 . S
C957 C958 1.387 . S
C957 H960 0.950 . S
C958 C957 1.387 . S
C958 C961 1.387 . S
H959 C955 0.950 . S
H960 C957 0.950 . S
C961 C952 1.390 . S
C961 H954 0.950 . S
C961 C958 1.387 . S
C962 C963 1.387 . S
C962 H966 0.950 . S
C962 C971 1.390 . S
C963 C962 1.387 . S
C963 C965 1.387 . S
H964 C971 0.950 . S
C965 C963 1.387 . S
C965 C967 1.390 . S
C965 H969 0.950 . S
H966 C962 0.950 . S
C967 C965 1.390 . S
C967 C968 1.387 . S
C967 H970 0.950 . S
C968 C967 1.387 . S
C968 C971 1.387 . S
H969 C965 0.950 . S
H970 C967 0.950 . S
C971 C962 1.390 . S
C971 H964 0.950 . S
C971 C968 1.387 . S
C972 C973 1.387 . S
C972 H976 0.950 . S
C972 C981 1.390 . S
C973 C972 1.387 . S
C973 C975 1.387 . S
H974 C981 0.950 . S
C975 C973 1.387 . S
C975 C977 1.390 . S
C975 H979 0.950 . S
H976 C972 0.950 . S
C977 C975 1.390 . S
C977 C978 1.387 . S
C977 H980 0.950 . S
C978 C977 1.387 . S
C978 C981 1.387 . S
H979 C975 0.950 . S
H980 C977 0.950 . S
C981 C972 1.390 . S
C981 H974 0.950 . S
C981 C978 1.387 . S
C982 C983 1.387 . S
C982 H986 0.950 . S
C982 C991 1.390 . S
C983 C982 1.387 . S
C983 C985 1.387 . S
H984 C991 0.950 . S
C985 C983 1.387 . S
C985 C987 1.390 . S
C985 H989 0.950 . S
H986 C982 0.950 . S
C987 C985 1.390 . S
C987 C988 1.387 . S
C987 H990 0.950 . S
C988 C987 1.387 . S
C988 C991 1.387 . S
H989 C985 0.950 . S
H990 C987 0.950 . S
C991 C982 1.390 . S
C991 H984 0.950 . S
C991 C988 1.387 . S
C992 C993 1.387 . S
C992 H996 0.950 . S
C992 C1001 1.390 . S
C993 C992 1.387 . S
C993 C995 1.387 . S
H994 C1001 0.950 . S
C995 C993 1.387 . S
C995 C997 1.390 . S
C995 H999 0.950 . S
H996 C992 0.950 . S
C997 C995 1.390 . S
C997 C998 1.387 . S
C997 H1000 0.950 1_565 S
C998 C997 1.387 . S
C998 C1001 1.387 . S
H999 C995 0.950 . S
H1000 C997 0.950 1_545 S
C1001 C992 1.390 . S
C1001 H994 0.950 . S
C1001 C998 1.387 . S
C1002 C1003 1.387 . S
C1002 H1006 0.950 . S
C1002 C1011 1.390 . S
C1003 C1002 1.387 . S
C1003 C1005 1.387 . S
H1004 C1011 0.950 . S
C1005 C1003 1.387 . S
C1005 C1007 1.390 . S
C1005 H1009 0.950 . S
H1006 C1002 0.950 . S
C1007 C1005 1.390 . S
C1007 C1008 1.387 . S
C1007 H1010 0.950 . S
C1008 C1007 1.387 . S
C1008 C1011 1.387 . S
H1009 C1005 0.950 . S
H1010 C1007 0.950 . S
C1011 C1002 1.390 . S
C1011 H1004 0.950 . S
C1011 C1008 1.387 . S
C778 C99 1.053 . S
C773 C5 1.684 . S
C788 C231 1.258 . S
C783 C16 1.308 . S
C798 C117 1.749 . S
C793 C30 1.920 . S
C808 C213 0.907 . S
C803 C40 1.643 . S
C818 C345 1.099 . S
C813 C8 1.649 . S
C828 C459 1.113 . S
C823 C18 1.380 . S
C833 C29 1.785 . S
C838 C599 1.445 . S
C848 C713 1.368 . S
C843 C38 1.428 . S
C858 C327 1.228 1_565 S
C853 C19 1.566 . S
C863 C27 1.628 . S
C868 C441 1.121 . S
C878 C545 1.279 . S
C873 C41 1.557 . S
C888 C659 1.115 . S
C883 C7 1.549 . S
C893 C52 1.724 . S
C898 C257 1.084 . S
C908 C89 1.531 . S
C903 C62 1.803 . S
C913 C74 1.383 . S
C918 C203 1.177 . S
C923 C82 1.339 . S
C928 C143 1.050 . S
C938 C555 1.330 . S
C933 C51 1.796 . S
C948 C669 1.697 . S
C943 C60 1.560 . S
C958 C317 1.001 . S
C953 C71 1.184 . S
C963 C84 1.372 . S
C968 C431 1.009 . S
C978 C573 1.352 . S
C973 C63 1.661 . S
C988 C687 1.183 . S
C983 C73 1.613 . S
C998 C371 1.429 . S
C993 C85 1.660 . S
C1003 C49 1.380 . S
C1008 C485 1.375 . S
