# Generated by pormake.
# Topology llj, (12,3)-cn, num edge types: 1
# Building blocks:
#     Node 0, Type 0, BuildingBlock: QEWDON_clean_sbu_0, # of connection points: 12
#     Node 1, Type 0, BuildingBlock: QEWDON_clean_sbu_0, # of connection points: 12
#     Node 2, Type 1, BuildingBlock: MIDCAF_clean_linker_0, # of connection points: 3
#     Node 3, Type 1, BuildingBlock: MIDCAF_clean_linker_0, # of connection points: 3
#     Node 4, Type 1, BuildingBlock: MIDCAF_clean_linker_0, # of connection points: 3
#     Node 5, Type 1, BuildingBlock: MIDCAF_clean_linker_0, # of connection points: 3
#     Node 6, Type 1, BuildingBlock: MIDCAF_clean_linker_0, # of connection points: 3
#     Node 7, Type 1, BuildingBlock: MIDCAF_clean_linker_0, # of connection points: 3
#     Node 8, Type 1, BuildingBlock: MIDCAF_clean_linker_0, # of connection points: 3
#     Node 9, Type 1, BuildingBlock: MIDCAF_clean_linker_0, # of connection points: 3
#     Edge 10, Type (0, 1), BuildingBlock: UVAHIK_clean_linker_0, # of connection points: 2
#     Edge 11, Type (0, 1), BuildingBlock: UVAHIK_clean_linker_0, # of connection points: 2
#     Edge 12, Type (0, 1), BuildingBlock: UVAHIK_clean_linker_0, # of connection points: 2
#     Edge 13, Type (0, 1), BuildingBlock: UVAHIK_clean_linker_0, # of connection points: 2
#     Edge 14, Type (0, 1), BuildingBlock: UVAHIK_clean_linker_0, # of connection points: 2
#     Edge 15, Type (0, 1), BuildingBlock: UVAHIK_clean_linker_0, # of connection points: 2
#     Edge 16, Type (0, 1), BuildingBlock: UVAHIK_clean_linker_0, # of connection points: 2
#     Edge 17, Type (0, 1), BuildingBlock: UVAHIK_clean_linker_0, # of connection points: 2
#     Edge 18, Type (0, 1), BuildingBlock: UVAHIK_clean_linker_0, # of connection points: 2
#     Edge 19, Type (0, 1), BuildingBlock: UVAHIK_clean_linker_0, # of connection points: 2
#     Edge 20, Type (0, 1), BuildingBlock: UVAHIK_clean_linker_0, # of connection points: 2
#     Edge 21, Type (0, 1), BuildingBlock: UVAHIK_clean_linker_0, # of connection points: 2
#     Edge 22, Type (0, 1), BuildingBlock: UVAHIK_clean_linker_0, # of connection points: 2
#     Edge 23, Type (0, 1), BuildingBlock: UVAHIK_clean_linker_0, # of connection points: 2
#     Edge 24, Type (0, 1), BuildingBlock: UVAHIK_clean_linker_0, # of connection points: 2
#     Edge 25, Type (0, 1), BuildingBlock: UVAHIK_clean_linker_0, # of connection points: 2
#     Edge 26, Type (0, 1), BuildingBlock: UVAHIK_clean_linker_0, # of connection points: 2
#     Edge 27, Type (0, 1), BuildingBlock: UVAHIK_clean_linker_0, # of connection points: 2
#     Edge 28, Type (0, 1), BuildingBlock: UVAHIK_clean_linker_0, # of connection points: 2
#     Edge 29, Type (0, 1), BuildingBlock: UVAHIK_clean_linker_0, # of connection points: 2
#     Edge 30, Type (0, 1), BuildingBlock: UVAHIK_clean_linker_0, # of connection points: 2
#     Edge 31, Type (0, 1), BuildingBlock: UVAHIK_clean_linker_0, # of connection points: 2
#     Edge 32, Type (0, 1), BuildingBlock: UVAHIK_clean_linker_0, # of connection points: 2
#     Edge 33, Type (0, 1), BuildingBlock: UVAHIK_clean_linker_0, # of connection points: 2
# Relax obj value: 0.012
# Max RMSD: 0.053
# Mean RMSD: 0.050
data_MOF--net-llj--node1-QEWDON_clean_sbu_0--node2-MIDCAF_clean_linker_0--edge1-UVAHIK_clean_linker_0
_symmetry_space_group_name_H-M    P1
_symmetry_Int_Tables_number       1
_symmetry_cell_setting            triclinic
loop_
_symmetry_equiv_pos_as_xyz
'x, y, z'
_cell_length_a     54.624715
_cell_length_b     54.610481
_cell_length_c     38.330613
_cell_angle_alpha  89.859826
_cell_angle_beta   90.047604
_cell_angle_gamma 90.075585
loop_
_atom_site_label
_atom_site_type_symbol
_atom_site_fract_x
_atom_site_fract_y
_atom_site_fract_z
_atom_type_partial_charge
Zn0 Zn 0.93986 0.04926 0.98402 0.0
Zn1 Zn 0.94829 0.04273 0.06523 0.0
O2 O 0.96658 0.0474 0.02065 0.0
H3 H 0.98309 0.04211 0.01568 0.0
C4 C 0.93631 0.98229 0.94454 0.0
O5 O 0.93821 0.99546 0.97305 0.0
Zn6 Zn 0.05139 0.95076 0.0637 0.0
Zn7 Zn 0.05803 0.94982 0.98275 0.0
O8 O 0.03194 0.9466 0.02019 0.0
H9 H 0.01462 0.94957 0.01711 0.0
Zn10 Zn 0.96014 0.94695 0.98972 0.0
O11 O 0.96806 0.97199 0.02722 0.0
Zn12 Zn 0.96636 0.95328 0.07179 0.0
H13 H 0.97746 0.98676 0.02346 0.0
Zn14 Zn 0.03601 0.04383 0.98655 0.0
O15 O 0.03158 0.01865 0.0252 0.0
H16 H 0.02276 0.00342 0.02256 0.0
Zn17 Zn 0.03362 0.03893 0.06815 0.0
C18 C 0.06159 0.01095 0.94117 0.0
O19 O 0.06629 0.00098 0.97167 0.0
O20 O 0.90688 0.06101 0.0039 0.0
O21 O 0.91408 0.05693 0.06071 0.0
O22 O 0.09166 0.93648 -0.00145 0.0
O23 O 0.0857 0.93781 0.05584 0.0
O24 O 0.9432 0.91598 0.009 0.0
O25 O 0.94571 0.92252 0.06609 0.0
C26 C 0.98888 0.05917 0.10369 0.0
O27 O 0.05462 0.07473 0.00251 0.0
O28 O 0.05511 0.0686 0.05979 0.0
O29 O 0.04643 0.94217 0.93265 0.0
C30 C 0.90011 0.06322 0.03555 0.0
O31 O 0.95074 0.06427 0.937 0.0
C32 C 0.01285 0.93119 0.10438 0.0
O33 O 0.9449 0.96068 0.94436 0.0
C34 C 0.09916 0.93281 0.02963 0.0
O35 O 0.04806 0.02982 0.93978 0.0
C36 C 0.94619 0.99672 0.1049 0.0
O37 O 0.9657 0.06022 0.1045 0.0
O38 O -0.00111 0.04776 0.07873 0.0
C39 C 0.93841 0.90972 0.0403 0.0
O40 O 0.03601 0.93062 0.10194 0.0
O41 O 0.00133 0.94514 0.08346 0.0
C42 C 0.0535 0.99718 0.10452 0.0
O43 O 0.9517 0.97437 0.10952 0.0
O44 O 0.94948 0.00651 0.07521 0.0
C45 C 0.06137 0.08101 0.03302 0.0
O46 O 0.04805 0.01965 0.10793 0.0
O47 O 0.04942 0.98667 0.07559 0.0
C48 C 0.02666 0.95146 0.92126 0.0
O49 O 0.01423 0.96641 0.94136 0.0
C50 C 0.96054 0.08534 0.93842 0.0
O51 O 0.96277 0.09608 0.96891 0.0
Zn52 Zn 0.44065 0.55134 0.48026 0.0
Zn53 Zn 0.44852 0.55032 0.56131 0.0
O54 O 0.46741 0.55354 0.51716 0.0
H55 H 0.48465 0.55029 0.51368 0.0
C56 C 0.45934 0.46921 0.42201 0.0
O57 O 0.47598 0.48297 0.43715 0.0
Zn58 Zn 0.54478 0.45702 0.55193 0.0
Zn59 Zn 0.54751 0.45693 0.46881 0.0
O60 O 0.5239 0.45915 0.50937 0.0
H61 H 0.5076 0.46593 0.50809 0.0
Zn62 Zn 0.45804 0.44639 0.49111 0.0
O63 O 0.45412 0.47666 0.52157 0.0
Zn64 Zn 0.45841 0.4605 0.5678 0.0
H65 H 0.45989 0.49274 0.51488 0.0
Zn66 Zn 0.53942 0.55467 0.4877 0.0
O67 O 0.53188 0.52826 0.52348 0.0
H68 H 0.52183 0.51408 0.51871 0.0
Zn69 Zn 0.53417 0.54537 0.56916 0.0
C70 C 0.55949 0.52073 0.43785 0.0
O71 O 0.55961 0.50712 0.46615 0.0
O72 O 0.40744 0.56474 0.49742 0.0
O73 O 0.41467 0.56442 0.55446 0.0
O74 O 0.58015 0.4407 0.48232 0.0
O75 O 0.57755 0.44148 0.54019 0.0
O76 O 0.44338 0.41524 0.5135 0.0
O77 O 0.44063 0.42783 0.56836 0.0
C78 C 0.48834 0.56837 0.60149 0.0
O79 O 0.55811 0.58402 0.50839 0.0
O80 O 0.55573 0.57573 0.5651 0.0
O81 O 0.53244 0.44703 0.4214 0.0
C82 C 0.4007 0.56907 0.52862 0.0
O83 O 0.45115 0.56054 0.43009 0.0
C84 C 0.5049 0.43836 0.59027 0.0
O85 O 0.44947 0.45197 0.43928 0.0
C86 C 0.589 0.43587 0.51232 0.0
O87 O 0.55135 0.54246 0.43961 0.0
C88 C 0.4417 0.50455 0.60183 0.0
O89 O 0.46521 0.56973 0.59917 0.0
O90 O 0.49933 0.55395 0.58078 0.0
C91 C 0.43674 0.4117 0.54498 0.0
O92 O 0.52776 0.43526 0.58678 0.0
O93 O 0.4946 0.45548 0.57334 0.0
C94 C 0.5521 0.50006 0.59963 0.0
O95 O 0.44455 0.48167 0.60597 0.0
O96 O 0.44826 0.51444 0.57336 0.0
C97 C 0.56337 0.58906 0.53996 0.0
O98 O 0.54849 0.52263 0.60562 0.0
O99 O 0.54659 0.49158 0.56984 0.0
C100 C 0.51312 0.43411 0.4224 0.0
O101 O 0.50386 0.42811 0.45287 0.0
C102 C 0.47206 0.5539 0.4192 0.0
O103 O 0.48604 0.54055 0.43965 0.0
C104 C 0.41619 0.331 0.08143 0.0
C105 C 0.41198 0.32205 0.11533 0.0
C106 C 0.39755 0.3009 0.11956 0.0
C107 C 0.387 0.28941 0.09074 0.0
H108 H 0.32138 0.25651 0.06423 0.0
H109 H 0.28291 0.23505 0.07255 0.0
H110 H 0.28402 0.21228 0.96464 0.0
H111 H 0.32219 0.23454 0.95591 0.0
H112 H 0.36151 0.26135 0.90357 0.0
H113 H 0.37226 0.27509 0.84464 0.0
H114 H 0.41386 0.3349 0.88823 0.0
H115 H 0.40341 0.32134 0.9468 0.0
H116 H 0.40912 0.327 0.02687 0.0
H117 H 0.42695 0.3474 0.0772 0.0
H118 H 0.39436 0.29317 0.1452 0.0
H119 H 0.37577 0.27332 0.09502 0.0
N120 N 0.35921 0.27205 0.03137 0.0
N121 N 0.35479 0.26781 0.97083 0.0
N122 N 0.38589 0.29273 0.99366 0.0
C123 C 0.34717 0.2623 0.00368 0.0
C124 C 0.37417 0.28302 0.96564 0.0
C125 C 0.37864 0.28719 0.02659 0.0
C126 C 0.32485 0.2474 0.00931 0.0
C127 C 0.31357 0.24679 0.04227 0.0
C128 C 0.29149 0.23436 0.04712 0.0
C129 C 0.28025 0.22201 0.01924 0.0
C130 C 0.29191 0.22201 0.98652 0.0
C131 C 0.3139 0.23464 0.98157 0.0
C132 C 0.38151 0.2903 0.92992 0.0
C133 C 0.37302 0.27737 0.90057 0.0
C134 C 0.37922 0.28514 0.86688 0.0
C135 C 0.39365 0.30616 0.86202 0.0
C136 C 0.40242 0.31882 0.89131 0.0
C137 C 0.39654 0.31091 0.92486 0.0
C138 C 0.39087 0.29862 0.05693 0.0
C139 C 0.40586 0.31934 0.05255 0.0
C140 C 0.67348 0.42832 0.10256 0.0
C141 C 0.67981 0.42127 0.13669 0.0
C142 C 0.69697 0.40237 0.14139 0.0
C143 C 0.70678 0.39012 0.11269 0.0
H144 H 0.72581 0.31908 0.08567 0.0
H145 H 0.74162 0.27795 0.09441 0.0
H146 H 0.76661 0.27664 0.98743 0.0
H147 H 0.7499 0.31743 0.9783 0.0
H148 H 0.71038 0.3495 0.92698 0.0
H149 H 0.69545 0.36221 0.86967 0.0
H150 H 0.68027 0.43437 0.91003 0.0
H151 H 0.69529 0.42191 0.96705 0.0
H152 H 0.67761 0.42171 0.04799 0.0
H153 H 0.66013 0.4426 0.09795 0.0
H154 H 0.70264 0.39682 0.1673 0.0
H155 H 0.71956 0.37531 0.11731 0.0
N156 N 0.71926 0.36014 0.0532 0.0
N157 N 0.72127 0.35432 0.99266 0.0
N158 N 0.704 0.39018 0.01534 0.0
C159 C 0.72582 0.34611 0.02553 0.0
C160 C 0.71042 0.3764 0.98737 0.0
C161 C 0.70842 0.38224 0.04832 0.0
C162 C 0.73652 0.32154 0.03123 0.0
C163 C 0.73474 0.31007 0.06401 0.0
C164 C 0.74391 0.28647 0.06908 0.0
C165 C 0.75534 0.27387 0.04162 0.0
C166 C 0.75747 0.28555 0.00898 0.0
C167 C 0.74804 0.30904 0.0038 0.0
C168 C 0.70385 0.38462 0.95173 0.0
C169 C 0.70418 0.36818 0.92354 0.0
C170 C 0.69551 0.37539 0.89075 0.0
C171 C 0.6866 0.39923 0.88543 0.0
C172 C 0.68722 0.41593 0.91323 0.0
C173 C 0.69569 0.40871 0.94601 0.0
C174 C 0.6998 0.39662 0.0786 0.0
C175 C 0.68344 0.41621 0.07385 0.0
C176 C 0.57732 0.70508 0.9082 0.0
C177 C 0.59318 0.70708 0.8795 0.0
C178 C 0.61676 0.71674 0.88463 0.0
C179 C 0.62462 0.72341 0.91802 0.0
H180 H 0.67738 0.76356 0.97447 0.0
H181 H 0.71772 0.78134 0.98378 0.0
H182 H 0.71764 0.75419 0.08979 0.0
H183 H 0.67702 0.7371 0.0809 0.0
H184 H 0.63041 0.7124 0.11097 0.0
H185 H 0.61005 0.69095 0.15856 0.0
H186 H 0.54867 0.67519 0.09117 0.0
H187 H 0.56883 0.69681 0.04348 0.0
H188 H 0.57271 0.70906 0.96321 0.0
H189 H 0.55911 0.69748 0.90515 0.0
H190 H 0.62929 0.71872 0.86291 0.0
H191 H 0.64313 0.73016 0.9212 0.0
N192 N 0.6403 0.73544 0.98836 0.0
N193 N 0.63662 0.7285 0.04852 0.0
N194 N 0.6056 0.71553 0.01061 0.0
C195 C 0.64953 0.73766 0.02115 0.0
C196 C 0.6146 0.7175 0.04351 0.0
C197 C 0.61831 0.72445 0.98289 0.0
C198 C 0.67391 0.74888 0.02691 0.0
C199 C 0.68592 0.76141 -0.0002 0.0
C200 C 0.70916 0.77148 0.00507 0.0
C201 C 0.72102 0.7691 0.03749 0.0
C202 C 0.70893 0.75666 0.06464 0.0
C203 C 0.68563 0.74676 0.05946 0.0
C204 C 0.60137 0.7062 0.07323 0.0
C205 C 0.61249 0.70458 0.10626 0.0
C206 C 0.6009 0.69216 0.13353 0.0
C207 C 0.57789 0.68122 0.12847 0.0
C208 C 0.56636 0.68355 0.09587 0.0
C209 C 0.578 0.69585 0.0685 0.0
C210 C 0.60912 0.7203 0.947 0.0
C211 C 0.58521 0.71155 0.94156 0.0
C212 C 0.30805 0.57477 0.92517 0.0
C213 C 0.30834 0.59102 0.89672 0.0
C214 C 0.29731 0.61411 0.90032 0.0
C215 C 0.28757 0.62135 0.93239 0.0
H216 H 0.24247 0.67292 0.98601 0.0
H217 H 0.22715 0.71445 0.99193 0.0
H218 H 0.25763 0.71826 0.09593 0.0
H219 H 0.27209 0.6763 0.09049 0.0
H220 H 0.29316 0.62731 0.12456 0.0
H221 H 0.31357 0.60598 0.17243 0.0
H222 H 0.32144 0.54183 0.10776 0.0
H223 H 0.3009 0.56289 0.06007 0.0
H224 H 0.29928 0.56925 0.97886 0.0
H225 H 0.31591 0.55664 0.92294 0.0
H226 H 0.29731 0.62707 0.87888 0.0
H227 H 0.2802 0.63967 0.93469 0.0
N228 N 0.27203 0.63699 0.00109 0.0
N229 N 0.27583 0.63314 0.06186 0.0
N230 N 0.28916 0.60155 0.02529 0.0
C231 C 0.26859 0.64633 0.03355 0.0
C232 C 0.28595 0.61061 0.0579 0.0
C233 C 0.2823 0.61459 0.99675 0.0
C234 C 0.25853 0.67129 0.03775 0.0
C235 C 0.24584 0.68258 0.01019 0.0
C236 C 0.23722 0.70651 0.0135 0.0
C237 C 0.24134 0.71988 0.04429 0.0
C238 C 0.25385 0.70846 0.07199 0.0
C239 C 0.26222 0.68439 0.06883 0.0
C240 C 0.2956 0.59691 0.08832 0.0
C241 C 0.29891 0.60854 0.12068 0.0
C242 C 0.31074 0.5964 0.14804 0.0
C243 C 0.31928 0.57234 0.1437 0.0
C244 C 0.31494 0.56033 0.11195 0.0
C245 C 0.30329 0.57249 0.08454 0.0
C246 C 0.28875 0.60565 0.96149 0.0
C247 C 0.29839 0.58199 0.95719 0.0
C248 C 0.93262 0.82109 0.6005 0.0
C249 C 0.92066 0.82351 0.63273 0.0
C250 C 0.89799 0.81184 0.63765 0.0
C251 C 0.88722 0.79848 0.61065 0.0
H252 H 0.82557 0.76055 0.58583 0.0
H253 H 0.78552 0.74204 0.59424 0.0
H254 H 0.78618 0.71654 0.48762 0.0
H255 H 0.82597 0.73563 0.47879 0.0
H256 H 0.86087 0.76758 0.42581 0.0
H257 H 0.87539 0.77839 0.36755 0.0
H258 H 0.94371 0.80354 0.41158 0.0
H259 H 0.92948 0.79257 0.46957 0.0
H260 H 0.93135 0.80678 0.54871 0.0
H261 H 0.95004 0.83003 0.59587 0.0
H262 H 0.88851 0.8131 0.66239 0.0
H263 H 0.86956 0.79004 0.61522 0.0
N264 N 0.86499 0.77223 0.55335 0.0
N265 N 0.86264 0.76384 0.49345 0.0
N266 N 0.89601 0.78578 0.51585 0.0
C267 C 0.85297 0.76191 0.52603 0.0
C268 C 0.88421 0.7757 0.48819 0.0
C269 C 0.88656 0.78413 0.5485 0.0
C270 C 0.82902 0.7497 0.53155 0.0
C271 C 0.81726 0.75095 0.56414 0.0
C272 C 0.79429 0.74021 0.56906 0.0
C273 C 0.78257 0.72787 0.54159 0.0
C274 C 0.79449 0.72629 0.50916 0.0
C275 C 0.81741 0.73713 0.50417 0.0
C276 C 0.8939 0.77944 0.45247 0.0
C277 C 0.87914 0.77505 0.42304 0.0
C278 C 0.88738 0.78136 0.38966 0.0
C279 C 0.91062 0.79194 0.38501 0.0
C280 C 0.9258 0.79522 0.41424 0.0
C281 C 0.91753 0.78909 0.44756 0.0
C282 C 0.89883 0.79664 0.57802 0.0
C283 C 0.92181 0.80785 0.57342 0.0
C284 C 0.19004 0.93908 0.60626 0.0
C285 C 0.19638 0.93138 0.64 0.0
C286 C 0.21497 0.91393 0.64439 0.0
C287 C 0.22609 0.9033 0.61532 0.0
H288 H 0.23981 0.83157 0.58371 0.0
H289 H 0.2518 0.78902 0.59005 0.0
H290 H 0.28109 0.78985 0.48525 0.0
H291 H 0.26803 0.8322 0.4784 0.0
H292 H 0.2264 0.86625 0.42864 0.0
H293 H 0.20645 0.87924 0.37474 0.0
H294 H 0.19655 0.95166 0.41746 0.0
H295 H 0.21606 0.93872 0.47142 0.0
H296 H 0.1955 0.93459 0.55155 0.0
H297 H 0.17587 0.95269 0.60234 0.0
H298 H 0.22008 0.90769 0.67024 0.0
H299 H 0.23971 0.88919 0.61942 0.0
N300 N 0.23812 0.87422 0.55444 0.0
N301 N 0.23986 0.8698 0.4936 0.0
N302 N 0.22409 0.90572 0.51814 0.0
C303 C 0.24413 0.86066 0.52605 0.0
C304 C 0.22996 0.89243 0.48947 0.0
C305 C 0.2282 0.89683 0.55067 0.0
C306 C 0.25296 0.83528 0.53052 0.0
C307 C 0.24893 0.82273 0.56206 0.0
C308 C 0.25588 0.79829 0.56574 0.0
C309 C 0.26738 0.7859 0.53815 0.0
C310 C 0.27181 0.79862 0.50681 0.0
C311 C 0.26452 0.82299 0.50295 0.0
C312 C 0.22239 0.90131 0.45461 0.0
C313 C 0.22042 0.88508 0.4263 0.0
C314 C 0.20903 0.89252 0.39537 0.0
C315 C 0.19951 0.91632 0.3922 0.0
C316 C 0.20317 0.93303 0.41951 0.0
C317 C 0.21445 0.92561 0.45038 0.0
C318 C 0.21902 0.91024 0.58143 0.0
C319 C 0.20139 0.92877 0.57724 0.0
C320 C 0.08451 0.18936 0.41762 0.0
C321 C 0.10119 0.18377 0.39094 0.0
C322 C 0.12598 0.19005 0.39543 0.0
C323 C 0.13407 0.20051 0.42673 0.0
H324 H 0.18797 0.24785 0.4777 0.0
H325 H 0.22813 0.26602 0.48763 0.0
H326 H 0.22278 0.24819 0.5973 0.0
H327 H 0.18239 0.23088 0.58763 0.0
H328 H 0.13129 0.21697 0.61922 0.0
H329 H 0.10656 0.20398 0.66876 0.0
H330 H 0.04685 0.18652 0.59912 0.0
H331 H 0.07163 0.19898 0.54951 0.0
H332 H 0.07921 0.20308 0.4691 0.0
H333 H 0.06519 0.18535 0.41465 0.0
H334 H 0.13929 0.18593 0.37537 0.0
H335 H 0.15341 0.20426 0.42996 0.0
N336 N 0.14894 0.22211 0.49374 0.0
N337 N 0.14211 0.22378 0.5542 0.0
N338 N 0.11151 0.20894 0.51716 0.0
C339 C 0.15699 0.22783 0.52636 0.0
C340 C 0.11931 0.21441 0.5498 0.0
C341 C 0.12611 0.21267 0.48901 0.0
C342 C 0.18185 0.23804 0.53187 0.0
C343 C 0.1954 0.24775 0.50391 0.0
C344 C 0.21852 0.25805 0.50959 0.0
C345 C 0.22873 0.25866 0.54332 0.0
C346 C 0.21533 0.2485 0.57111 0.0
C347 C 0.19216 0.23844 0.5655 0.0
C348 C 0.10359 0.20878 0.58028 0.0
C349 C 0.11281 0.21057 0.61444 0.0
C350 C 0.09858 0.20324 0.6429 0.0
C351 C 0.07481 0.19402 0.63785 0.0
C352 C 0.06526 0.1931 0.60383 0.0
C353 C 0.07948 0.20037 0.57539 0.0
C354 C 0.11751 0.20479 0.45413 0.0
C355 C 0.09256 0.19966 0.44882 0.0
C356 C 0.82039 0.07755 0.43155 0.0
C357 C 0.82005 0.0923 0.40147 0.0
C358 C 0.80777 0.11487 0.40246 0.0
C359 C 0.7965 0.12276 0.43312 0.0
H360 H 0.77227 0.18494 0.48068 0.0
H361 H 0.75408 0.22536 0.48123 0.0
H362 H 0.71737 0.20808 0.57813 0.0
H363 H 0.73656 0.16772 0.57831 0.0
H364 H 0.76563 0.12351 0.62394 0.0
H365 H 0.77763 0.10296 0.67786 0.0
H366 H 0.82034 0.05121 0.61837 0.0
H367 H 0.80779 0.07102 0.56481 0.0
H368 H 0.81019 0.07377 0.48506 0.0
H369 H 0.82993 0.06017 0.4317 0.0
H370 H 0.80692 0.12647 0.37954 0.0
H371 H 0.78746 0.1404 0.43304 0.0
N372 N 0.77567 0.13947 0.49793 0.0
N373 N 0.76961 0.13502 0.55821 0.0
N374 N 0.78946 0.10422 0.52649 0.0
C375 C 0.76694 0.14841 0.5285 0.0
C376 C 0.78092 0.11285 0.55736 0.0
C377 C 0.78683 0.11733 0.49664 0.0
C378 C 0.75572 0.17303 0.52934 0.0
C379 C 0.76031 0.18969 0.50214 0.0
C380 C 0.74976 0.2129 0.50237 0.0
C381 C 0.73402 0.21996 0.52953 0.0
C382 C 0.72962 0.20338 0.557 0.0
C383 C 0.74049 0.18018 0.557 0.0
C384 C 0.78591 0.09911 0.58998 0.0
C385 C 0.77731 0.10754 0.62236 0.0
C386 C 0.78429 0.09584 0.6533 0.0
C387 C 0.80011 0.07553 0.65253 0.0
C388 C 0.80788 0.06657 0.62004 0.0
C389 C 0.80079 0.07812 0.5892 0.0
C390 C 0.79734 0.10828 0.4635 0.0
C391 C 0.80918 0.08544 0.46222 0.0
C392 C 0.08576 0.11571 0.00802 0.0
C393 C 0.07892 0.10147 0.03704 0.0
C394 C 0.10509 0.13237 0.01045 0.0
C395 C 0.16226 0.13956 0.05733 0.0
H396 H 0.16468 0.20312 0.01218 0.0
C397 C 0.25065 0.19739 0.05532 0.0
C398 C 0.25615 0.20979 0.0241 0.0
C399 C 0.2278 0.18638 0.06011 0.0
C400 C 0.16436 0.18531 0.02465 0.0
H401 H 0.08594 0.09484 0.09205 0.0
H402 H 0.11984 0.12383 0.09607 0.0
H403 H 0.12587 0.18099 0.01554 0.0
H404 H 0.2417 0.22055 0.97358 0.0
H405 H 0.20236 0.20045 0.98128 0.0
H406 H 0.20079 0.14322 0.06521 0.0
C407 C 0.11033 0.12187 0.07142 0.0
C408 C 0.14211 0.17274 0.02674 0.0
C409 C 0.09085 0.10536 0.0691 0.0
C410 C 0.23826 0.21085 0.99776 0.0
C411 C 0.21549 0.19967 0.00243 0.0
C412 C 0.18453 0.152 0.05497 0.0
C413 C 0.11806 0.13502 0.04186 0.0
C414 C 0.14092 0.14962 0.04274 0.0
C415 C 0.20996 0.18732 0.03368 0.0
C416 C 0.18593 0.17488 0.03819 0.0
H417 H 0.07685 0.11329 0.98301 0.0
H418 H 0.11072 0.14218 0.9872 0.0
H419 H 0.16196 0.12158 0.06932 0.0
H420 H 0.26407 0.19598 0.07604 0.0
H421 H 0.2241 0.17725 0.08465 0.0
C422 C 0.87251 0.0851 0.07721 0.0
C423 C 0.87721 0.07661 0.04325 0.0
C424 C 0.85405 0.10226 0.08312 0.0
C425 C 0.80085 0.13416 0.04392 0.0
H426 H 0.82871 0.19152 0.08834 0.0
C427 C 0.76342 0.23117 0.02025 0.0
C428 C 0.76506 0.2487 0.04695 0.0
C429 C 0.77343 0.20785 0.02467 0.0
C430 C 0.8203 0.17558 0.07658 0.0
H431 H 0.86457 0.07755 0.98956 0.0
H432 H 0.83235 0.10739 -4e-05 0.0
H433 H 0.85131 0.1533 0.08868 0.0
H434 H 0.77814 0.25514 0.09964 0.0
H435 H 0.7947 0.21423 0.10783 0.0
H436 H 0.76998 0.15659 0.03129 0.0
C437 C 0.84302 0.10091 0.02195 0.0
C438 C 0.83331 0.15362 0.07679 0.0
C439 C 0.86159 0.0839 0.01597 0.0
C440 C 0.77634 0.24208 0.07858 0.0
C441 C 0.78613 0.21867 0.08314 0.0
C442 C 0.78768 0.1561 0.04402 0.0
C443 C 0.83977 0.11104 0.05528 0.0
C444 C 0.824 0.13286 0.05974 0.0
C445 C 0.78512 0.20137 0.05605 0.0
C446 C 0.79755 0.17726 0.05957 0.0
H447 H 0.88404 0.0797 0.09891 0.0
H448 H 0.85168 0.10954 0.10917 0.0
H449 H 0.79317 0.11836 0.03082 0.0
H450 H 0.75447 0.23545 0.99577 0.0
H451 H 0.77257 0.19517 0.00303 0.0
C452 C 0.91437 0.87378 0.01862 0.0
C453 C 0.92182 0.8887 0.04653 0.0
C454 C 0.89576 0.85653 0.02312 0.0
C455 C 0.84071 0.84829 0.07463 0.0
H456 H 0.83776 0.78501 0.02918 0.0
C457 C 0.75217 0.79076 0.07468 0.0
C458 C 0.74589 0.77952 0.04293 0.0
C459 C 0.77538 0.80101 0.07946 0.0
C460 C 0.83824 0.80271 0.04185 0.0
H461 H 0.91675 0.89594 0.10174 0.0
H462 H 0.88408 0.86586 0.10944 0.0
H463 H 0.87634 0.80764 0.03043 0.0
H464 H 0.75945 0.76966 0.99166 0.0
H465 H 0.79948 0.78836 -0.00056 0.0
H466 H 0.8025 0.84404 0.08472 0.0
C467 C 0.89254 0.86774 0.08402 0.0
C468 C 0.86037 0.81558 0.0427 0.0
C469 C 0.91132 0.88488 0.07961 0.0
C470 C 0.76351 0.7785 0.01626 0.0
C471 C 0.78665 0.78888 0.02095 0.0
C472 C 0.81856 0.83553 0.07355 0.0
C473 C 0.88411 0.85391 0.05558 0.0
C474 C 0.86171 0.8387 0.05857 0.0
C475 C 0.79283 0.80041 0.05252 0.0
C476 C 0.81694 0.81279 0.05657 0.0
H477 H 0.92218 0.87612 0.99286 0.0
H478 H 0.88956 0.84623 0.00066 0.0
H479 H 0.84108 0.86625 0.08658 0.0
H480 H 0.739 0.79208 0.09569 0.0
H481 H 0.7796 0.8095 0.10425 0.0
C482 C 0.12903 0.91216 0.06949 0.0
C483 C 0.12226 0.91924 0.0355 0.0
C484 C 0.1475 0.8949 0.07471 0.0
C485 C 0.19743 0.86 0.03266 0.0
H486 H 0.17186 0.80593 0.08741 0.0
C487 C 0.23306 0.76138 0.01839 0.0
C488 C 0.23254 0.74555 0.04738 0.0
C489 C 0.22355 0.78504 0.02066 0.0
C490 C 0.17967 0.82098 0.0727 0.0
H491 H 0.13131 0.91559 0.98063 0.0
H492 H 0.16356 0.88548 0.98986 0.0
H493 H 0.14964 0.84432 0.08537 0.0
H494 H 0.2222 0.74265 0.10191 0.0
H495 H 0.20661 0.78419 0.10627 0.0
H496 H 0.22735 0.83649 0.01961 0.0
C497 C 0.15449 0.89321 0.0124 0.0
C498 C 0.16686 0.84304 0.07151 0.0
C499 C 0.13591 0.9104 0.00712 0.0
C500 C 0.22307 0.75433 0.07908 0.0
C501 C 0.21382 0.7781 0.08146 0.0
C502 C 0.21044 0.83797 0.03414 0.0
C503 C 0.15971 0.88452 0.04613 0.0
C504 C 0.17532 0.8626 0.05093 0.0
C505 C 0.21354 0.79362 0.05211 0.0
C506 C 0.20141 0.81799 0.05356 0.0
H507 H 0.11913 0.91883 0.09201 0.0
H508 H 0.15145 0.88881 0.10104 0.0
H509 H 0.20445 0.87487 0.01678 0.0
H510 H 0.24065 0.75546 0.99373 0.0
H511 H 0.22341 0.79631 0.99738 0.0
C512 C 0.58817 0.62501 0.52004 0.0
C513 C 0.58071 0.6093 0.54713 0.0
C514 C 0.60723 0.64165 0.52518 0.0
C515 C 0.66302 0.64743 0.57608 0.0
H516 H 0.66618 0.71201 0.53405 0.0
C517 C 0.75184 0.70484 0.57792 0.0
C518 C 0.7579 0.71688 0.54662 0.0
C519 C 0.72872 0.69432 0.58241 0.0
C520 C 0.66564 0.69395 0.54576 0.0
H521 H 0.58637 0.5999 0.60162 0.0
H522 H 0.61984 0.62895 0.61045 0.0
H523 H 0.62738 0.68978 0.53487 0.0
H524 H 0.74411 0.72778 0.49581 0.0
H525 H 0.70419 0.70873 0.50312 0.0
H526 H 0.70139 0.65105 0.58573 0.0
C527 C 0.61101 0.62816 0.58516 0.0
C528 C 0.64339 0.6813 0.54636 0.0
C529 C 0.59177 0.61162 0.58011 0.0
C530 C 0.7402 0.71835 0.52006 0.0
C531 C 0.71714 0.70775 0.52448 0.0
C532 C 0.68529 0.66001 0.57529 0.0
C533 C 0.61935 0.64287 0.55746 0.0
C534 C 0.64197 0.65772 0.56094 0.0
C535 C 0.71113 0.69552 0.55565 0.0
C536 C 0.68698 0.68322 0.5595 0.0
H537 H 0.57994 0.62382 0.49437 0.0
H538 H 0.61333 0.65262 0.50326 0.0
H539 H 0.66258 0.62913 0.58704 0.0
H540 H 0.76511 0.70318 0.59881 0.0
H541 H 0.72463 0.68522 0.60687 0.0
C542 C 0.37165 0.59027 0.56884 0.0
C543 C 0.3778 0.58282 0.53486 0.0
C544 C 0.3534 0.6077 0.57417 0.0
C545 C 0.30385 0.64358 0.53226 0.0
H546 H 0.33237 0.69742 0.58411 0.0
C547 C 0.27323 0.74359 0.51384 0.0
C548 C 0.27484 0.75986 0.54213 0.0
C549 C 0.28136 0.71947 0.51711 0.0
C550 C 0.32373 0.68247 0.57025 0.0
H551 H 0.36782 0.58591 0.48019 0.0
H552 H 0.33607 0.61644 0.48956 0.0
H553 H 0.35288 0.65814 0.58335 0.0
H554 H 0.28572 0.76316 0.59642 0.0
H555 H 0.29883 0.72091 0.60253 0.0
H556 H 0.27488 0.66817 0.51863 0.0
C557 C 0.34539 0.60883 0.51205 0.0
C558 C 0.33555 0.65989 0.56981 0.0
C559 C 0.36371 0.59141 0.50667 0.0
C560 C 0.28399 0.75115 0.57412 0.0
C561 C 0.29182 0.72695 0.57752 0.0
C562 C 0.29184 0.66617 0.53298 0.0
C563 C 0.34087 0.61794 0.54567 0.0
C564 C 0.32604 0.64038 0.5502 0.0
C565 C 0.29106 0.71093 0.54887 0.0
C566 C 0.30197 0.68607 0.55132 0.0
H567 H 0.38192 0.58381 0.59121 0.0
H568 H 0.34998 0.61413 0.60043 0.0
H569 H 0.29607 0.62876 0.5171 0.0
H570 H 0.26583 0.7495 0.489 0.0
H571 H 0.28074 0.70778 0.49435 0.0
C572 C 0.40989 0.38789 0.58589 0.0
C573 C 0.42184 0.38982 0.55351 0.0
C574 C 0.39231 0.36967 0.59152 0.0
C575 C 0.36551 0.31244 0.55569 0.0
H576 H 0.30413 0.34037 0.58694 0.0
C577 C 0.27205 0.26813 0.52527 0.0
C578 C 0.25297 0.27035 0.54967 0.0
C579 C 0.29445 0.27994 0.53068 0.0
C580 C 0.32117 0.33203 0.57885 0.0
H581 H 0.42626 0.37278 0.5028 0.0
H582 H 0.39562 0.34116 0.51259 0.0
H583 H 0.34129 0.36477 0.58948 0.0
H584 H 0.24277 0.28659 0.59921 0.0
H585 H 0.28202 0.30638 0.60919 0.0
H586 H 0.34526 0.27981 0.54446 0.0
C587 C 0.39977 0.35372 0.53363 0.0
C588 C 0.34252 0.34606 0.58035 0.0
C589 C 0.41724 0.37197 0.52794 0.0
C590 C 0.25709 0.28422 0.58 0.0
C591 C 0.27954 0.29586 0.58554 0.0
C592 C 0.34415 0.29831 0.55442 0.0
C593 C 0.38647 0.35293 0.56497 0.0
C594 C 0.36482 0.33662 0.56809 0.0
C595 C 0.29841 0.29414 0.56075 0.0
C596 C 0.32161 0.30812 0.56527 0.0
H597 H 0.41313 0.40122 0.60625 0.0
H598 H 0.38262 0.36925 0.61616 0.0
H599 H 0.38249 0.30461 0.54638 0.0
H600 H 0.26968 0.25732 0.50186 0.0
H601 H 0.30843 0.27843 0.5108 0.0
C602 C 0.61941 0.41174 0.54736 0.0
C603 C 0.61108 0.42026 0.51476 0.0
C604 C 0.6367 0.39291 0.54925 0.0
C605 C 0.65327 0.33954 0.49886 0.0
H606 H 0.70746 0.3324 0.56346 0.0
C607 C 0.7138 0.2541 0.49656 0.0
C608 C 0.72186 0.24431 0.5285 0.0
C609 C 0.70246 0.27692 0.49519 0.0
C610 C 0.6922 0.33403 0.54556 0.0
H611 H 0.61621 0.41738 0.45873 0.0
H612 H 0.64628 0.38463 0.46219 0.0
H613 H 0.6852 0.37126 0.56044 0.0
H614 H 0.7244 0.25109 0.58415 0.0
H615 H 0.70354 0.29053 0.58196 0.0
H616 H 0.65937 0.30232 0.48474 0.0
C617 C 0.63911 0.39221 0.48619 0.0
C618 C 0.6796 0.35631 0.54371 0.0
C619 C 0.62195 0.41106 0.48426 0.0
C620 C 0.71818 0.25794 0.55914 0.0
C621 C 0.70655 0.28073 0.55782 0.0
C622 C 0.66561 0.31729 0.50096 0.0
C623 C 0.64588 0.3823 0.51862 0.0
C624 C 0.66011 0.35927 0.52016 0.0
C625 C 0.69846 0.29045 0.52581 0.0
C626 C 0.68533 0.31425 0.52416 0.0
H627 H 0.61156 0.41856 0.57139 0.0
H628 H 0.64164 0.38561 0.5746 0.0
H629 H 0.63791 0.3411 0.4811 0.0
H630 H 0.71595 0.24402 0.47247 0.0
H631 H 0.69684 0.28396 0.47 0.0
C632 C 0.99809 0.06545 0.16657 0.0
C633 C 0.0035 0.07043 0.13153 0.0
C634 C 0.0115 0.0767 0.19314 0.0
C635 C 0.04835 0.13144 0.21142 0.0
H636 H 0.06778 0.09503 0.29385 0.0
C637 C 0.10117 0.17638 0.32603 0.0
C638 C 0.09276 0.17021 0.35958 0.0
C639 C 0.09274 0.16357 0.29677 0.0
C640 C 0.06234 0.10549 0.2711 0.0
H641 H 0.02578 0.092 0.09652 0.0
H642 H 0.04986 0.11128 0.14283 0.0
H643 H 0.04835 0.07366 0.24538 0.0
H644 H 0.06953 0.14525 0.38876 0.0
H645 H 0.05447 0.12345 0.33796 0.0
H646 H 0.06183 0.16337 0.23746 0.0
C647 C 0.03554 0.09845 0.14988 0.0
C648 C 0.05123 0.09324 0.24334 0.0
C649 C 0.02217 0.08709 0.12336 0.0
C650 C 0.07607 0.15075 0.36325 0.0
C651 C 0.0677 0.138 0.33413 0.0
C652 C 0.05941 0.14373 0.23926 0.0
C653 C 0.03033 0.0934 0.18508 0.0
C654 C 0.04377 0.10613 0.21343 0.0
C655 C 0.07586 0.14425 0.30052 0.0
C656 C 0.06615 0.13095 0.26966 0.0
H657 H 0.9835 0.05287 0.17338 0.0
H658 H 0.00675 0.07276 0.22 0.0
H659 H 0.04259 0.14192 0.18885 0.0
H660 H 0.11396 0.19133 0.32235 0.0
H661 H 0.09951 0.16872 0.27123 0.0
C662 C 0.91486 0.02431 0.13018 0.0
C663 C 0.93654 0.01095 0.13418 0.0
C664 C 0.90416 0.03582 0.15882 0.0
C665 C 0.90075 0.0298 0.25387 0.0
H666 H 0.86707 0.09215 0.24818 0.0
C667 C 0.83202 0.06001 0.35842 0.0
C668 C 0.83316 0.08446 0.36957 0.0
C669 C 0.84533 0.05237 0.32937 0.0
C670 C 0.87657 0.07482 0.25026 0.0
H671 H 0.96438 -0.0009 0.17066 0.0
H672 H 0.9459 0.01947 0.22095 0.0
H673 H 0.89081 0.07769 0.19836 0.0
H674 H 0.84908 0.12012 0.35895 0.0
H675 H 0.87234 0.10676 0.30815 0.0
H676 H 0.88672 0.02695 0.30575 0.0
C677 C 0.93702 0.02101 0.19577 0.0
C678 C 0.88999 0.06645 0.22166 0.0
C679 C 0.94765 0.00946 0.16708 0.0
C680 C 0.84757 0.10122 0.3507 0.0
C681 C 0.86091 0.09357 0.32164 0.0
C682 C 0.88735 0.03814 0.28241 0.0
C683 C 0.9149 0.03393 0.19206 0.0
C684 C 0.90207 0.04376 0.22308 0.0
C685 C 0.86011 0.06901 0.31088 0.0
C686 C 0.87492 0.06061 0.28081 0.0
H687 H 0.90543 0.02464 0.10537 0.0
H688 H 0.88685 0.04515 0.15522 0.0
H689 H 0.90956 0.01208 0.25567 0.0
H690 H 0.82077 0.04677 0.37211 0.0
H691 H 0.84397 0.03342 0.3213 0.0
C692 C 0.97532 0.91802 0.13762 0.0
C693 C 0.00026 0.91516 0.12998 0.0
C694 C 0.9637 0.90264 0.16165 0.0
C695 C 0.97074 0.84344 0.20851 0.0
H696 H 0.92563 0.87275 0.27429 0.0
C697 C 0.94265 0.79834 0.33894 0.0
C698 C 0.91841 0.80137 0.35043 0.0
C699 C 0.95076 0.80988 0.30849 0.0
C700 C 0.93787 0.86418 0.25576 0.0
H701 H 0.03275 0.89394 0.14225 0.0
H702 H 0.01275 0.86762 0.18482 0.0
H703 H 0.94348 0.89783 0.22832 0.0
H704 H 0.88345 0.81816 0.33831 0.0
H705 H 0.89756 0.83808 0.28493 0.0
H706 H 0.96557 0.80992 0.23676 0.0
C707 C 0.00191 0.88136 0.1715 0.0
C708 C 0.94811 0.87857 0.22938 0.0
C709 C 0.01344 0.89665 0.14731 0.0
C710 C 0.90218 0.81532 0.33002 0.0
C711 C 0.91032 0.82694 0.29966 0.0
C712 C 0.96056 0.82907 0.23503 0.0
C713 C 0.97689 0.88417 0.17898 0.0
C714 C 0.96488 0.86845 0.20567 0.0
C715 C 0.93483 0.82478 0.28899 0.0
C716 C 0.94421 0.83936 0.25915 0.0
H717 H 0.96474 0.93226 0.12547 0.0
H718 H 0.94436 0.90523 0.1666 0.0
H719 H 0.98326 0.83497 0.1903 0.0
H720 H 0.9555 0.78751 0.35397 0.0
H721 H 0.96978 0.80797 0.30107 0.0
C722 C 0.08572 0.96973 0.12812 0.0
C723 C 0.06484 0.98403 0.13377 0.0
C724 C 0.09854 0.95975 0.15625 0.0
C725 C 0.1108 0.97262 0.24798 0.0
H726 H 0.14048 0.90813 0.24849 0.0
C727 C 0.16197 0.93583 0.36767 0.0
C728 C 0.18397 0.92315 0.36204 0.0
C729 C 0.14678 0.94193 0.33978 0.0
C730 C 0.1325 0.92628 0.24851 0.0
H731 H 0.04065 -0.00084 0.17285 0.0
H732 H 0.06294 0.98159 0.22233 0.0
H733 H 0.11379 0.92012 0.20014 0.0
H734 H 0.20726 0.90677 0.32279 0.0
H735 H 0.18073 0.91772 0.27369 0.0
H736 H 0.12971 0.97903 0.29587 0.0
C737 C 0.06944 0.97802 0.19614 0.0
C738 C 0.11716 0.93309 0.22095 0.0
C739 C 0.05663 0.98796 0.16794 0.0
C740 C 0.19037 0.91648 0.32787 0.0
C741 C 0.17515 0.92267 0.29984 0.0
C742 C 0.12614 0.96585 0.27541 0.0
C743 C 0.09082 0.96423 0.19059 0.0
C744 C 0.10615 0.95634 0.22045 0.0
C745 C 0.15323 0.93554 0.30554 0.0
C746 C 0.13715 0.94262 0.27603 0.0
H747 H 0.0931 0.96771 0.10218 0.0
H748 H 0.11523 0.94969 0.15116 0.0
H749 H 0.10305 0.99087 0.24793 0.0
H750 H 0.15622 0.94068 0.39379 0.0
H751 H 0.12979 0.9514 0.34513 0.0
C752 C 0.07155 0.01431 0.87769 0.0
C753 C 0.07332 0.00141 0.90932 0.0
C754 C 0.08406 0.0062 0.84818 0.0
C755 C 0.13592 0.96629 0.82262 0.0
H756 H 0.10958 0.97683 0.72991 0.0
C757 C 0.19419 0.94964 0.69972 0.0
C758 C 0.18228 0.94014 0.67029 0.0
C759 C 0.18061 0.95734 0.72856 0.0
C760 C 0.11713 0.97344 0.75559 0.0
H761 H 0.08904 0.96952 0.9346 0.0
H762 H 0.10977 0.95464 0.88276 0.0
H763 H 0.08533 0.9879 0.78043 0.0
H764 H 0.14714 0.93062 0.6479 0.0
H765 H 0.12347 0.9431 0.69854 0.0
H766 H 0.16721 0.9507 0.79784 0.0
C767 C 0.09942 0.97149 0.88093 0.0
C768 C 0.10333 0.98016 0.78464 0.0
C769 C 0.0873 0.97987 0.9106 0.0
C770 C 0.15667 0.93828 0.67016 0.0
C771 C 0.14314 0.94554 0.69915 0.0
C772 C 0.14955 0.95919 0.79359 0.0
C773 C 0.09832 0.98479 0.84948 0.0
C774 C 0.11261 0.97682 0.81854 0.0
C775 C 0.15491 0.95522 0.72873 0.0
C776 C 0.1404 0.96279 0.75968 0.0
H777 H 0.06103 0.03107 0.87591 0.0
H778 H 0.08306 0.01716 0.82465 0.0
H779 H 0.14388 0.96379 0.84825 0.0
H780 H 0.21395 0.95133 0.70025 0.0
H781 H 0.19029 0.96511 0.75057 0.0
C782 C 0.96783 0.08583 0.8739 0.0
C783 C 0.96997 0.09732 0.90652 0.0
C784 C 0.97746 0.09688 0.84399 0.0
C785 C 0.99854 0.15631 0.80856 0.0
H786 H 0.03509 0.11573 0.74418 0.0
C787 C 0.06056 0.19617 0.70012 0.0
C788 C 0.06049 0.18422 0.66768 0.0
C789 C 0.04802 0.18616 0.72855 0.0
C790 C 0.02467 0.12727 0.76164 0.0
H791 H 0.98362 0.12955 0.93328 0.0
H792 H 0.00059 0.14868 0.88118 0.0
H793 H 0.01576 0.09708 0.79494 0.0
H794 H 0.04706 0.15243 0.63967 0.0
H795 H 0.02481 0.13527 0.689 0.0
H796 H 0.00767 0.18655 0.77533 0.0
C797 C 0.99123 0.13127 0.87864 0.0
C798 C 0.01358 0.11657 0.79072 0.0
C799 C 0.98163 0.12023 0.90853 0.0
C800 C 0.04727 0.16225 0.66418 0.0
C801 C 0.03476 0.15225 0.69257 0.0
C802 C 0.00964 0.16702 0.77943 0.0
C803 C 0.9894 0.11965 0.84607 0.0
C804 C 0.00048 0.13098 0.81458 0.0
C805 C 0.03519 0.16395 0.72516 0.0
C806 C 0.02289 0.15262 0.75571 0.0
H807 H 0.95885 0.06821 0.87145 0.0
H808 H 0.97549 0.08761 0.81919 0.0
H809 H 0.98829 0.16785 0.82623 0.0
H810 H 0.07039 0.21324 0.70356 0.0
H811 H 0.04886 0.19552 0.75341 0.0
C812 C 0.9186 0.97696 0.88474 0.0
C813 C 0.92282 0.99185 0.91399 0.0
C814 C 0.90449 0.98552 0.85687 0.0
C815 C 0.85828 0.03296 0.83508 0.0
H816 H 0.87423 0.01542 0.73982 0.0
C817 C 0.81695 0.07995 0.71316 0.0
C818 C 0.81003 0.06474 0.68526 0.0
C819 C 0.8289 0.07022 0.74227 0.0
C820 C 0.86942 0.02022 0.76635 0.0
H821 H 0.916 0.02756 0.93656 0.0
H822 H 0.89232 0.04286 0.88745 0.0
H823 H 0.89999 0.00077 0.78741 0.0
H824 H 0.80898 0.02711 0.66716 0.0
H825 H 0.83038 0.01028 0.71771 0.0
H826 H 0.82809 0.05301 0.81365 0.0
C827 C 0.89929 0.02432 0.88638 0.0
C828 C 0.88414 0.01182 0.79364 0.0
C829 C 0.91314 0.01565 0.9144 0.0
C830 C 0.81451 0.03943 0.68782 0.0
C831 C 0.8267 0.02976 0.71675 0.0
C832 C 0.84373 0.04158 0.80773 0.0
C833 C 0.89448 0.00924 0.85747 0.0
C834 C 0.87879 0.01812 0.82836 0.0
C835 C 0.83438 0.04514 0.74395 0.0
C836 C 0.84917 0.0353 0.77312 0.0
H837 H 0.92575 0.95848 0.88366 0.0
H838 H 0.90095 0.97328 0.83525 0.0
H839 H 0.8533 0.03776 0.86153 0.0
H840 H 0.81414 0.09956 0.71191 0.0
H841 H 0.8348 0.08251 0.76278 0.0
C842 C 0.0304 0.92819 0.86544 0.0
C843 C 0.01663 0.94351 0.8873 0.0
C844 C 0.02003 0.91841 0.83523 0.0
C845 C 0.96035 0.90099 0.80002 0.0
H846 H 0.99628 0.89216 0.71375 0.0
C847 C 0.91676 0.85513 0.67963 0.0
C848 C 0.93147 0.83876 0.66077 0.0
C849 C 0.92693 0.86983 0.70565 0.0
C850 C 0.98609 0.89429 0.73778 0.0
H851 H 0.98167 0.96179 0.89354 0.0
H852 H 0.96353 0.94463 0.84074 0.0
H853 H 0.01462 0.9156 0.76123 0.0
H854 H 0.96831 0.82474 0.65461 0.0
H855 H 0.98606 0.85016 0.7004 0.0
H856 H 0.93209 0.87924 0.77706 0.0
C857 C 0.98224 0.93992 0.8473 0.0
C858 C 0.99656 0.90779 0.76489 0.0
C859 C 0.99266 0.94982 0.87745 0.0
C860 C 0.95657 0.83739 0.66847 0.0
C861 C 0.96674 0.85202 0.69461 0.0
C862 C 0.94993 0.88742 0.77299 0.0
C863 C 0.99566 0.92371 0.82627 0.0
C864 C 0.98389 0.91109 0.79641 0.0
C865 C 0.95203 0.86843 0.7135 0.0
C866 C 0.96276 0.88371 0.74166 0.0
H867 H 0.049 0.92315 0.87215 0.0
H868 H 0.0308 0.90588 0.81968 0.0
H869 H 0.9503 0.90287 0.8242 0.0
H870 H 0.89742 0.85689 0.67387 0.0
H871 H 0.91515 0.88254 0.71931 0.0
C872 C 0.48946 0.60402 0.64218 0.0
C873 C 0.5016 0.5842 0.62654 0.0
C874 C 0.50162 0.61912 0.66591 0.0
C875 C 0.55437 0.61967 0.72592 0.0
H876 H 0.54111 0.6894 0.7292 0.0
C877 C 0.60158 0.68218 0.82608 0.0
C878 C 0.58565 0.69733 0.84504 0.0
C879 C 0.59354 0.67044 0.79582 0.0
C880 C 0.54495 0.66995 0.72861 0.0
H881 H 0.53584 0.56445 0.62457 0.0
H882 H 0.5574 0.59118 0.66485 0.0
H883 H 0.52298 0.66454 0.68301 0.0
H884 H 0.54929 0.71315 0.84615 0.0
H885 H 0.53518 0.69254 0.79336 0.0
H886 H 0.57612 0.62503 0.77169 0.0
C887 C 0.53839 0.59498 0.65893 0.0
C888 C 0.53452 0.65569 0.70224 0.0
C889 C 0.52613 0.57979 0.63537 0.0
C890 C 0.56189 0.70139 0.83223 0.0
C891 C 0.55389 0.68977 0.80185 0.0
C892 C 0.56489 0.63394 0.75213 0.0
C893 C 0.52624 0.61479 0.67459 0.0
C894 C 0.5388 0.63031 0.70092 0.0
C895 C 0.56946 0.67372 0.78379 0.0
C896 C 0.56001 0.65916 0.75406 0.0
H897 H 0.47048 0.60792 0.63615 0.0
H898 H 0.49153 0.63391 0.67796 0.0
H899 H 0.55777 0.60014 0.72603 0.0
H900 H 0.61993 0.67853 0.83544 0.0
H901 H 0.60601 0.65838 0.78222 0.0
C902 C 0.43905 0.51737 0.66386 0.0
C903 C 0.43024 0.51892 0.62959 0.0
C904 C 0.4265 0.52888 0.69098 0.0
C905 C 0.36457 0.54888 0.71416 0.0
H906 H 0.39756 0.57973 0.79214 0.0
C907 C 0.31219 0.59031 0.83132 0.0
C908 C 0.32175 0.58458 0.8644 0.0
C909 C 0.32544 0.58477 0.80114 0.0
C910 C 0.38811 0.57106 0.7706 0.0
H911 H 0.4011 0.53245 0.59671 0.0
H912 H 0.37952 0.55344 0.64374 0.0
H913 H 0.42132 0.56637 0.7418 0.0
H914 H 0.35285 0.56899 0.89178 0.0
H915 H 0.37562 0.5589 0.8393 0.0
H916 H 0.33142 0.55315 0.74323 0.0
C917 C 0.39623 0.54364 0.64973 0.0
C918 C 0.40171 0.56343 0.7418 0.0
C919 C 0.40883 0.53214 0.62269 0.0
C920 C 0.3448 0.57329 0.86667 0.0
C921 C 0.35803 0.56784 0.83661 0.0
C922 C 0.35096 0.55653 0.74296 0.0
C923 C 0.40474 0.54184 0.68426 0.0
C924 C 0.39013 0.55191 0.7135 0.0
C925 C 0.34854 0.57356 0.80352 0.0
C926 C 0.36265 0.56732 0.77173 0.0
H927 H 0.45534 0.50683 0.66973 0.0
H928 H 0.4333 0.52679 0.71736 0.0
H929 H 0.35513 0.53975 0.69299 0.0
H930 H 0.29444 0.59893 0.82877 0.0
H931 H 0.31772 0.58949 0.77598 0.0
C932 C 0.49418 0.39606 0.60957 0.0
C933 C 0.49041 0.42141 0.61176 0.0
C934 C 0.48024 0.37999 0.62993 0.0
C935 C 0.42424 0.37685 0.68497 0.0
H936 H 0.45981 0.32605 0.73436 0.0
C937 C 0.39612 0.34024 0.8188 0.0
C938 C 0.39943 0.31535 0.82666 0.0
C939 C 0.40354 0.34965 0.78668 0.0
C940 C 0.44946 0.33977 0.72022 0.0
H941 H 0.47018 0.45002 0.63766 0.0
H942 H 0.44589 0.4222 0.67346 0.0
H943 H 0.48027 0.3494 0.68866 0.0
H944 H 0.41222 0.28054 0.80683 0.0
H945 H 0.42556 0.29715 0.75039 0.0
H946 H 0.3938 0.36793 0.71781 0.0
C947 C 0.4589 0.41453 0.65522 0.0
C948 C 0.46118 0.35318 0.69402 0.0
C949 C 0.47277 0.43051 0.63478 0.0
C950 C 0.40946 0.2998 0.8013 0.0
C951 C 0.41717 0.3093 0.76918 0.0
C952 C 0.41257 0.3635 0.71125 0.0
C953 C 0.46251 0.38907 0.65312 0.0
C954 C 0.44894 0.37239 0.67689 0.0
C955 C 0.4146 0.33441 0.7618 0.0
C956 C 0.42531 0.34536 0.72987 0.0
H957 H 0.50773 0.38868 0.59186 0.0
H958 H 0.48336 0.36049 0.62757 0.0
H959 H 0.41415 0.39119 0.67176 0.0
H960 H 0.38822 0.35254 0.83784 0.0
H961 H 0.40157 0.36912 0.78194 0.0
C962 C 0.58127 0.46786 0.61949 0.0
C963 C 0.56254 0.48449 0.6272 0.0
C964 C 0.59376 0.45578 0.64631 0.0
C965 C 0.6095 0.46494 0.73846 0.0
H966 H 0.63368 0.39831 0.7335 0.0
C967 C 0.67979 0.42957 0.83726 0.0
C968 C 0.6752 0.40639 0.85182 0.0
C969 C 0.66688 0.43745 0.80788 0.0
C970 C 0.62695 0.41691 0.73531 0.0
H971 H 0.54147 0.50111 0.66865 0.0
H972 H 0.56286 0.47972 0.71562 0.0
H973 H 0.6072 0.41407 0.68713 0.0
H974 H 0.65408 0.37297 0.84635 0.0
H975 H 0.63141 0.38679 0.79511 0.0
H976 H 0.62877 0.46778 0.78677 0.0
C977 C 0.56822 0.47617 0.68891 0.0
C978 C 0.61194 0.42598 0.70866 0.0
C979 C 0.55586 0.48829 0.66209 0.0
C980 C 0.65818 0.39084 0.8355 0.0
C981 C 0.64519 0.39876 0.80615 0.0
C982 C 0.62445 0.45591 0.765 0.0
C983 C 0.58776 0.46029 0.68138 0.0
C984 C 0.60303 0.45011 0.71 0.0
C985 C 0.649 0.42237 0.7925 0.0
C986 C 0.63344 0.43184 0.76372 0.0
H987 H 0.58741 0.46548 0.59296 0.0
H988 H 0.60897 0.444 0.63961 0.0
H989 H 0.60331 0.48374 0.74004 0.0
H990 H 0.69308 0.44178 0.84896 0.0
H991 H 0.67063 0.45553 0.79752 0.0
C992 C 0.57751 0.48672 0.4028 0.0
C993 C 0.56956 0.51113 0.40485 0.0
C994 C 0.58771 0.47772 0.37208 0.0
C995 C 0.62113 0.49728 0.29466 0.0
H996 H 0.60345 0.43318 0.25929 0.0
C997 C 0.66198 0.45782 0.16738 0.0
C998 C 0.66756 0.43268 0.16719 0.0
C999 C 0.64922 0.46814 0.1953 0.0
C1000 C 0.6088 0.451 0.26905 0.0
H1001 H 0.56614 0.54528 0.37623 0.0
H1002 H 0.58423 0.52953 0.32247 0.0
H1003 H 0.58188 0.44979 0.30959 0.0
H1004 H 0.66413 0.39874 0.19639 0.0
H1005 H 0.64283 0.41687 0.24552 0.0
H1006 H 0.64848 0.49828 0.25477 0.0
C1007 C 0.58243 0.5174 0.34473 0.0
C1008 C 0.59636 0.46053 0.29774 0.0
C1009 C 0.57197 0.52635 0.37541 0.0
C1010 C 0.66045 0.41822 0.19584 0.0
C1011 C 0.64785 0.42855 0.22379 0.0
C1012 C 0.63372 0.48767 0.2661 0.0
C1013 C 0.59048 0.49302 0.34285 0.0
C1014 C 0.60256 0.48365 0.31102 0.0
C1015 C 0.64185 0.45357 0.22372 0.0
C1016 C 0.62787 0.4643 0.25318 0.0
H1017 H 0.57617 0.4746 0.42508 0.0
H1018 H 0.59404 0.45893 0.3715 0.0
H1019 H 0.62646 0.51505 0.30465 0.0
H1020 H 0.66742 0.46954 0.14592 0.0
H1021 H 0.64477 0.48744 0.1943 0.0
C1022 C 0.46729 0.57888 0.36473 0.0
C1023 C 0.48131 0.56273 0.38517 0.0
C1024 C 0.47705 0.5892 0.33439 0.0
C1025 C 0.53622 0.60618 0.29725 0.0
H1026 H 0.49943 0.61661 0.21196 0.0
C1027 C 0.58048 0.64987 0.17602 0.0
C1028 C 0.56641 0.66663 0.15674 0.0
C1029 C 0.56978 0.63583 0.2024 0.0
C1030 C 0.50985 0.61407 0.23574 0.0
H1031 H 0.51588 0.54337 0.38846 0.0
H1032 H 0.53294 0.56149 0.33552 0.0
H1033 H 0.48101 0.59346 0.25986 0.0
H1034 H 0.53013 0.68195 0.15003 0.0
H1035 H 0.51145 0.65773 0.19661 0.0
H1036 H 0.56481 0.62719 0.27375 0.0
C1037 C 0.5146 0.56652 0.34342 0.0
C1038 C 0.49933 0.60073 0.26308 0.0
C1039 C 0.50481 0.55613 0.37368 0.0
C1040 C 0.54136 0.66901 0.1643 0.0
C1041 C 0.53067 0.65507 0.19088 0.0
C1042 C 0.54667 0.61961 0.27006 0.0
C1043 C 0.50103 0.5836 0.32393 0.0
C1044 C 0.51241 0.59669 0.29413 0.0
C1045 C 0.54477 0.63833 0.21028 0.0
C1046 C 0.53361 0.62377 0.23898 0.0
H1047 H 0.44904 0.58419 0.37272 0.0
H1048 H 0.46619 0.60236 0.31996 0.0
H1049 H 0.54658 0.60377 0.32113 0.0
H1050 H 0.59972 0.6473 0.17034 0.0
H1051 H 0.58109 0.6228 0.21634 0.0
C1052 C 0.43181 0.46093 0.37125 0.0
C1053 C 0.44977 0.47562 0.38711 0.0
C1054 C 0.41984 0.46893 0.34114 0.0
C1055 C 0.42034 0.51659 0.27132 0.0
H1056 H 0.35001 0.50681 0.27436 0.0
C1057 C 0.35295 0.57311 0.18801 0.0
C1058 C 0.33398 0.56026 0.17131 0.0
C1059 C 0.36787 0.5614 0.21245 0.0
C1060 C 0.36964 0.50944 0.27291 0.0
H1061 H 0.47095 0.50895 0.38195 0.0
H1062 H 0.44939 0.52353 0.33037 0.0
H1063 H 0.37577 0.48803 0.31873 0.0
H1064 H 0.31546 0.52523 0.16759 0.0
H1065 H 0.34154 0.50475 0.2105 0.0
H1066 H 0.41394 0.53867 0.22597 0.0
C1067 C 0.44457 0.50576 0.34094 0.0
C1068 C 0.38447 0.49858 0.29824 0.0
C1069 C 0.45679 0.49756 0.37078 0.0
C1070 C 0.33002 0.53554 0.17994 0.0
C1071 C 0.34484 0.52388 0.2046 0.0
C1072 C 0.40547 0.5276 0.24611 0.0
C1073 C 0.42538 0.4919 0.32643 0.0
C1074 C 0.40999 0.50213 0.29791 0.0
C1075 C 0.36405 0.53664 0.22088 0.0
C1076 C 0.37995 0.52427 0.24681 0.0
H1077 H 0.42636 0.44363 0.38276 0.0
H1078 H 0.4057 0.45743 0.33001 0.0
H1079 H 0.43994 0.51945 0.27 0.0
H1080 H 0.35662 0.59209 0.18158 0.0
H1081 H 0.38235 0.57177 0.22491 0.0
C1082 C 0.51282 0.42918 0.35741 0.0
C1083 C 0.50159 0.42525 0.38992 0.0
C1084 C 0.50246 0.41956 0.32702 0.0
C1085 C 0.45952 0.37098 0.29873 0.0
H1086 H 0.46316 0.40426 0.20939 0.0
C1087 C 0.40825 0.33686 0.17704 0.0
C1088 C 0.4221 0.335 0.14624 0.0
C1089 C 0.41771 0.34881 0.20622 0.0
C1090 C 0.46217 0.39475 0.23418 0.0
H1091 H 0.47025 0.40897 0.41589 0.0
H1092 H 0.45172 0.39316 0.36295 0.0
H1093 H 0.47935 0.42427 0.26155 0.0
H1094 H 0.45684 0.34437 0.12211 0.0
H1095 H 0.47309 0.36576 0.17303 0.0
H1096 H 0.44197 0.34168 0.27142 0.0
C1097 C 0.46892 0.40294 0.36092 0.0
C1098 C 0.47148 0.40614 0.26402 0.0
C1099 C 0.47945 0.4122 0.39129 0.0
C1100 C 0.44553 0.34573 0.14521 0.0
C1101 C 0.45488 0.35794 0.17434 0.0
C1102 C 0.44999 0.35977 0.26903 0.0
C1103 C 0.48054 0.40605 0.32848 0.0
C1104 C 0.47028 0.39436 0.29667 0.0
C1105 C 0.44111 0.35941 0.20517 0.0
C1106 C 0.45125 0.37151 0.2365 0.0
H1107 H 0.52991 0.43917 0.35549 0.0
H1108 H 0.51205 0.42212 0.30256 0.0
H1109 H 0.4588 0.36108 0.32322 0.0
H1110 H 0.38993 0.32932 0.17855 0.0
H1111 H 0.4066 0.34998 0.22956 0.0
loop_
_geom_bond_atom_site_label_1
_geom_bond_atom_site_label_2
_geom_bond_distance
_geom_bond_site_symmetry_2
_ccdc_geom_bond_type
Zn0 O2 1.933 1_556 S
Zn0 O20 1.985 . S
Zn0 O31 1.955 . S
Zn1 O2 1.911 . S
Zn1 O21 1.970 . S
Zn1 O37 1.945 . S
Zn1 O44 1.981 . S
O2 Zn0 1.933 1_554 S
O2 Zn1 1.911 . S
O2 H3 0.841 1_655 S
H3 O2 0.841 1_455 S
C4 O5 1.246 . S
C4 O33 1.276 1_545 S
O5 C4 1.246 . S
Zn6 O8 1.911 . S
Zn6 O23 1.970 . S
Zn6 O40 1.945 . S
Zn6 O47 1.981 . S
Zn7 O8 1.933 1_556 S
Zn7 O22 1.985 . S
Zn7 O29 1.955 . S
O8 Zn6 1.911 . S
O8 Zn7 1.933 1_554 S
O8 H9 0.841 1_455 S
H9 O8 0.841 1_655 S
Zn10 O11 1.933 1_556 S
Zn10 O24 1.985 . S
Zn10 O33 1.955 . S
O11 Zn10 1.933 1_554 S
O11 Zn12 1.911 . S
O11 H13 0.841 1_565 S
Zn12 O11 1.911 . S
Zn12 O25 1.970 . S
Zn12 O41 1.981 . S
Zn12 O43 1.945 . S
H13 O11 0.841 1_545 S
Zn14 O15 1.933 1_556 S
Zn14 O27 1.985 . S
Zn14 O35 1.955 . S
O15 Zn14 1.933 1_554 S
O15 H16 0.841 1_545 S
O15 Zn17 1.911 . S
H16 O15 0.841 1_565 S
Zn17 O15 1.911 . S
Zn17 O28 1.970 . S
Zn17 O38 1.981 . S
Zn17 O46 1.945 . S
C18 O19 1.246 . S
C18 O35 1.276 1_565 S
O19 C18 1.246 . S
O20 Zn0 1.985 . S
O20 C30 1.245 1_556 S
O21 Zn1 1.970 . S
O21 C30 1.263 . S
O22 Zn7 1.985 . S
O22 C34 1.245 1_556 S
O23 Zn6 1.970 . S
O23 C34 1.263 . S
O24 Zn10 1.985 . S
O24 C39 1.245 1_556 S
O25 Zn12 1.970 . S
O25 C39 1.263 . S
C26 O37 1.262 1_455 S
C26 O38 1.245 . S
O27 Zn14 1.985 . S
O27 C45 1.245 1_556 S
O28 Zn17 1.970 . S
O28 C45 1.263 . S
O29 Zn7 1.955 . S
O29 C48 1.276 1_455 S
C30 O20 1.245 1_554 S
C30 O21 1.263 . S
O31 Zn0 1.955 . S
O31 C50 1.276 1_655 S
C32 O40 1.262 1_655 S
C32 O41 1.245 . S
O33 C4 1.276 1_565 S
O33 Zn10 1.955 . S
C34 O22 1.245 1_554 S
C34 O23 1.263 . S
O35 Zn14 1.955 . S
O35 C18 1.276 1_545 S
C36 O43 1.262 1_545 S
C36 O44 1.245 . S
O37 Zn1 1.945 . S
O37 C26 1.262 1_655 S
O38 Zn17 1.981 . S
O38 C26 1.245 . S
C39 O24 1.245 1_554 S
C39 O25 1.263 . S
O40 Zn6 1.945 . S
O40 C32 1.262 1_455 S
O41 Zn12 1.981 . S
O41 C32 1.245 . S
C42 O46 1.262 1_565 S
C42 O47 1.245 . S
O43 Zn12 1.945 . S
O43 C36 1.262 1_565 S
O44 Zn1 1.981 . S
O44 C36 1.245 . S
C45 O27 1.245 1_554 S
C45 O28 1.263 . S
O46 Zn17 1.945 . S
O46 C42 1.262 1_545 S
O47 Zn6 1.981 . S
O47 C42 1.245 . S
C48 O29 1.276 1_655 S
C48 O49 1.246 . S
O49 C48 1.246 . S
C50 O31 1.276 1_455 S
C50 O51 1.246 . S
O51 C50 1.246 . S
Zn52 O54 1.933 . S
Zn52 O72 1.985 . S
Zn52 O83 1.955 . S
Zn53 O54 1.911 . S
Zn53 O73 1.970 . S
Zn53 O89 1.945 . S
Zn53 O96 1.981 . S
O54 Zn52 1.933 . S
O54 Zn53 1.911 . S
O54 H55 0.841 . S
H55 O54 0.841 . S
C56 O57 1.246 . S
C56 O85 1.276 . S
O57 C56 1.246 . S
Zn58 O60 1.911 . S
Zn58 O75 1.970 . S
Zn58 O92 1.945 . S
Zn58 O99 1.981 . S
Zn59 O60 1.933 . S
Zn59 O74 1.985 . S
Zn59 O81 1.955 . S
O60 Zn58 1.911 . S
O60 Zn59 1.933 . S
O60 H61 0.841 . S
H61 O60 0.841 . S
Zn62 O63 1.933 . S
Zn62 O76 1.985 . S
Zn62 O85 1.955 . S
O63 Zn62 1.933 . S
O63 Zn64 1.911 . S
O63 H65 0.841 . S
Zn64 O63 1.911 . S
Zn64 O77 1.970 . S
Zn64 O93 1.981 . S
Zn64 O95 1.945 . S
H65 O63 0.841 . S
Zn66 O67 1.933 . S
Zn66 O79 1.985 . S
Zn66 O87 1.955 . S
O67 Zn66 1.933 . S
O67 H68 0.841 . S
O67 Zn69 1.911 . S
H68 O67 0.841 . S
Zn69 O67 1.911 . S
Zn69 O80 1.970 . S
Zn69 O90 1.981 . S
Zn69 O98 1.945 . S
C70 O71 1.246 . S
C70 O87 1.276 . S
O71 C70 1.246 . S
O72 Zn52 1.985 . S
O72 C82 1.245 . S
O73 Zn53 1.970 . S
O73 C82 1.263 . S
O74 Zn59 1.985 . S
O74 C86 1.245 . S
O75 Zn58 1.970 . S
O75 C86 1.263 . S
O76 Zn62 1.985 . S
O76 C91 1.245 . S
O77 Zn64 1.970 . S
O77 C91 1.263 . S
C78 O89 1.262 . S
C78 O90 1.245 . S
O79 Zn66 1.985 . S
O79 C97 1.245 . S
O80 Zn69 1.970 . S
O80 C97 1.263 . S
O81 Zn59 1.955 . S
O81 C100 1.276 . S
C82 O72 1.245 . S
C82 O73 1.263 . S
O83 Zn52 1.955 . S
O83 C102 1.276 . S
C84 O92 1.262 . S
C84 O93 1.245 . S
O85 C56 1.276 . S
O85 Zn62 1.955 . S
C86 O74 1.245 . S
C86 O75 1.263 . S
O87 Zn66 1.955 . S
O87 C70 1.276 . S
C88 O95 1.262 . S
C88 O96 1.245 . S
O89 Zn53 1.945 . S
O89 C78 1.262 . S
O90 Zn69 1.981 . S
O90 C78 1.245 . S
C91 O76 1.245 . S
C91 O77 1.263 . S
O92 Zn58 1.945 . S
O92 C84 1.262 . S
O93 Zn64 1.981 . S
O93 C84 1.245 . S
C94 O98 1.262 . S
C94 O99 1.245 . S
O95 Zn64 1.945 . S
O95 C88 1.262 . S
O96 Zn53 1.981 . S
O96 C88 1.245 . S
C97 O79 1.245 . S
C97 O80 1.263 . S
O98 Zn69 1.945 . S
O98 C94 1.262 . S
O99 Zn58 1.981 . S
O99 C94 1.245 . S
C100 O81 1.276 . S
C100 O101 1.246 . S
O101 C100 1.246 . S
C102 O83 1.276 . S
C102 O103 1.246 . S
O103 C102 1.246 . S
C104 C105 1.384 . S
C104 H117 0.947 . S
C104 C139 1.382 . S
C105 C104 1.384 . S
C105 C106 1.378 . S
C106 C105 1.378 . S
C106 C107 1.378 . S
C106 H118 0.952 . S
C107 C106 1.378 . S
C107 H119 0.950 . S
C107 C138 1.383 . S
H108 C127 0.947 . S
H109 C128 0.946 . S
H110 C130 0.953 . S
H111 C131 0.945 . S
H112 C133 0.952 . S
H113 C134 0.949 . S
H114 C136 0.950 . S
H115 C137 0.948 . S
H116 C139 0.951 . S
H117 C104 0.947 . S
H118 C106 0.952 . S
H119 C107 0.950 . S
N120 C123 1.382 . S
N120 C125 1.363 . S
N121 C123 1.371 1_556 S
N121 C124 1.372 . S
N122 C124 1.361 1_554 S
N122 C125 1.377 . S
C123 N120 1.382 . S
C123 N121 1.371 1_554 S
C123 C126 1.480 . S
C124 N121 1.372 . S
C124 N122 1.361 1_556 S
C124 C132 1.457 . S
C125 N120 1.363 . S
C125 N122 1.377 . S
C125 C138 1.479 . S
C126 C123 1.480 . S
C126 C127 1.383 . S
C126 C131 1.385 1_554 S
C127 H108 0.947 . S
C127 C126 1.383 . S
C127 C128 1.388 . S
C128 H109 0.946 . S
C128 C127 1.388 . S
C128 C129 1.384 . S
C129 C128 1.384 . S
C129 C130 1.377 1_554 S
C130 H110 0.953 . S
C130 C129 1.377 1_556 S
C130 C131 1.369 . S
C131 H111 0.945 . S
C131 C126 1.385 1_556 S
C131 C130 1.369 . S
C132 C124 1.457 . S
C132 C133 1.372 . S
C132 C137 1.364 . S
C133 H112 0.952 . S
C133 C132 1.372 . S
C133 C134 1.389 . S
C134 H113 0.949 . S
C134 C133 1.389 . S
C134 C135 1.387 . S
C135 C134 1.387 . S
C135 C136 1.372 . S
C136 H114 0.950 . S
C136 C135 1.372 . S
C136 C137 1.379 . S
C137 H115 0.948 . S
C137 C132 1.364 . S
C137 C136 1.379 . S
C138 C107 1.383 . S
C138 C125 1.479 . S
C138 C139 1.398 . S
C139 C104 1.382 . S
C139 H116 0.951 . S
C139 C138 1.398 . S
C140 C141 1.384 . S
C140 H153 0.947 . S
C140 C175 1.382 . S
C141 C140 1.384 . S
C141 C142 1.378 . S
C142 C141 1.378 . S
C142 C143 1.378 . S
C142 H154 0.952 . S
C143 C142 1.378 . S
C143 H155 0.950 . S
C143 C174 1.383 . S
H144 C163 0.947 . S
H145 C164 0.946 . S
H146 C166 0.953 . S
H147 C167 0.945 . S
H148 C169 0.952 . S
H149 C170 0.949 . S
H150 C172 0.950 . S
H151 C173 0.948 . S
H152 C175 0.951 . S
H153 C140 0.947 . S
H154 C142 0.952 . S
H155 C143 0.950 . S
N156 C159 1.382 . S
N156 C161 1.363 . S
N157 C159 1.371 1_556 S
N157 C160 1.372 . S
N158 C160 1.361 1_554 S
N158 C161 1.377 . S
C159 N156 1.382 . S
C159 N157 1.371 1_554 S
C159 C162 1.480 . S
C160 N157 1.372 . S
C160 N158 1.361 1_556 S
C160 C168 1.457 . S
C161 N156 1.363 . S
C161 N158 1.377 . S
C161 C174 1.479 . S
C162 C159 1.480 . S
C162 C163 1.383 . S
C162 C167 1.385 1_554 S
C163 H144 0.947 . S
C163 C162 1.383 . S
C163 C164 1.388 . S
C164 H145 0.946 . S
C164 C163 1.388 . S
C164 C165 1.384 . S
C165 C164 1.384 . S
C165 C166 1.377 1_554 S
C166 H146 0.953 . S
C166 C165 1.377 1_556 S
C166 C167 1.369 . S
C167 H147 0.945 . S
C167 C162 1.385 1_556 S
C167 C166 1.369 . S
C168 C160 1.457 . S
C168 C169 1.372 . S
C168 C173 1.364 . S
C169 H148 0.952 . S
C169 C168 1.372 . S
C169 C170 1.389 . S
C170 H149 0.949 . S
C170 C169 1.389 . S
C170 C171 1.387 . S
C171 C170 1.387 . S
C171 C172 1.372 . S
C172 H150 0.950 . S
C172 C171 1.372 . S
C172 C173 1.379 . S
C173 H151 0.948 . S
C173 C168 1.364 . S
C173 C172 1.379 . S
C174 C143 1.383 . S
C174 C161 1.479 . S
C174 C175 1.398 . S
C175 C140 1.382 . S
C175 H152 0.951 . S
C175 C174 1.398 . S
C176 C177 1.384 . S
C176 H189 0.947 . S
C176 C211 1.382 . S
C177 C176 1.384 . S
C177 C178 1.378 . S
C178 C177 1.378 . S
C178 C179 1.378 . S
C178 H190 0.952 . S
C179 C178 1.378 . S
C179 H191 0.950 . S
C179 C210 1.383 . S
H180 C199 0.947 . S
H181 C200 0.946 . S
H182 C202 0.953 . S
H183 C203 0.945 . S
H184 C205 0.952 . S
H185 C206 0.949 . S
H186 C208 0.950 . S
H187 C209 0.948 . S
H188 C211 0.951 . S
H189 C176 0.947 . S
H190 C178 0.952 . S
H191 C179 0.950 . S
N192 C195 1.382 1_556 S
N192 C197 1.363 . S
N193 C195 1.371 . S
N193 C196 1.372 . S
N194 C196 1.361 . S
N194 C197 1.377 1_554 S
C195 N192 1.382 1_554 S
C195 N193 1.371 . S
C195 C198 1.480 . S
C196 N193 1.372 . S
C196 N194 1.361 . S
C196 C204 1.457 . S
C197 N192 1.363 . S
C197 N194 1.377 1_556 S
C197 C210 1.479 . S
C198 C195 1.480 . S
C198 C199 1.383 1_554 S
C198 C203 1.385 . S
C199 H180 0.947 . S
C199 C198 1.383 1_556 S
C199 C200 1.388 . S
C200 H181 0.946 . S
C200 C199 1.388 . S
C200 C201 1.384 1_556 S
C201 C200 1.384 1_554 S
C201 C202 1.377 . S
C202 H182 0.953 . S
C202 C201 1.377 . S
C202 C203 1.369 . S
C203 H183 0.945 . S
C203 C198 1.385 . S
C203 C202 1.369 . S
C204 C196 1.457 . S
C204 C205 1.372 . S
C204 C209 1.364 . S
C205 H184 0.952 . S
C205 C204 1.372 . S
C205 C206 1.389 . S
C206 H185 0.949 . S
C206 C205 1.389 . S
C206 C207 1.387 . S
C207 C206 1.387 . S
C207 C208 1.372 . S
C208 H186 0.950 . S
C208 C207 1.372 . S
C208 C209 1.379 . S
C209 H187 0.948 . S
C209 C204 1.364 . S
C209 C208 1.379 . S
C210 C179 1.383 . S
C210 C197 1.479 . S
C210 C211 1.398 . S
C211 C176 1.382 . S
C211 H188 0.951 . S
C211 C210 1.398 . S
C212 C213 1.384 . S
C212 H225 0.947 . S
C212 C247 1.382 . S
C213 C212 1.384 . S
C213 C214 1.378 . S
C214 C213 1.378 . S
C214 C215 1.378 . S
C214 H226 0.952 . S
C215 C214 1.378 . S
C215 H227 0.950 . S
C215 C246 1.383 . S
H216 C235 0.947 . S
H217 C236 0.946 . S
H218 C238 0.953 . S
H219 C239 0.945 . S
H220 C241 0.952 . S
H221 C242 0.949 . S
H222 C244 0.950 . S
H223 C245 0.948 . S
H224 C247 0.951 . S
H225 C212 0.947 . S
H226 C214 0.952 . S
H227 C215 0.950 . S
N228 C231 1.382 1_556 S
N228 C233 1.363 . S
N229 C231 1.371 . S
N229 C232 1.372 . S
N230 C232 1.361 . S
N230 C233 1.377 1_554 S
C231 N228 1.382 1_554 S
C231 N229 1.371 . S
C231 C234 1.480 . S
C232 N229 1.372 . S
C232 N230 1.361 . S
C232 C240 1.457 . S
C233 N228 1.363 . S
C233 N230 1.377 1_556 S
C233 C246 1.479 . S
C234 C231 1.480 . S
C234 C235 1.383 1_554 S
C234 C239 1.385 . S
C235 H216 0.947 . S
C235 C234 1.383 1_556 S
C235 C236 1.388 . S
C236 H217 0.946 . S
C236 C235 1.388 . S
C236 C237 1.384 1_556 S
C237 C236 1.384 1_554 S
C237 C238 1.377 . S
C238 H218 0.953 . S
C238 C237 1.377 . S
C238 C239 1.369 . S
C239 H219 0.945 . S
C239 C234 1.385 . S
C239 C238 1.369 . S
C240 C232 1.457 . S
C240 C241 1.372 . S
C240 C245 1.364 . S
C241 H220 0.952 . S
C241 C240 1.372 . S
C241 C242 1.389 . S
C242 H221 0.949 . S
C242 C241 1.389 . S
C242 C243 1.387 . S
C243 C242 1.387 . S
C243 C244 1.372 . S
C244 H222 0.950 . S
C244 C243 1.372 . S
C244 C245 1.379 . S
C245 H223 0.948 . S
C245 C240 1.364 . S
C245 C244 1.379 . S
C246 C215 1.383 . S
C246 C233 1.479 . S
C246 C247 1.398 . S
C247 C212 1.382 . S
C247 H224 0.951 . S
C247 C246 1.398 . S
C248 C249 1.384 . S
C248 H261 0.947 . S
C248 C283 1.382 . S
C249 C248 1.384 . S
C249 C250 1.378 . S
C250 C249 1.378 . S
C250 C251 1.378 . S
C250 H262 0.952 . S
C251 C250 1.378 . S
C251 H263 0.950 . S
C251 C282 1.383 . S
H252 C271 0.947 . S
H253 C272 0.946 . S
H254 C274 0.953 . S
H255 C275 0.945 . S
H256 C277 0.952 . S
H257 C278 0.949 . S
H258 C280 0.950 . S
H259 C281 0.948 . S
H260 C283 0.951 . S
H261 C248 0.947 . S
H262 C250 0.952 . S
H263 C251 0.950 . S
N264 C267 1.382 . S
N264 C269 1.363 . S
N265 C267 1.371 . S
N265 C268 1.372 . S
N266 C268 1.361 . S
N266 C269 1.377 . S
C267 N264 1.382 . S
C267 N265 1.371 . S
C267 C270 1.480 . S
C268 N265 1.372 . S
C268 N266 1.361 . S
C268 C276 1.457 . S
C269 N264 1.363 . S
C269 N266 1.377 . S
C269 C282 1.479 . S
C270 C267 1.480 . S
C270 C271 1.383 . S
C270 C275 1.385 . S
C271 H252 0.947 . S
C271 C270 1.383 . S
C271 C272 1.388 . S
C272 H253 0.946 . S
C272 C271 1.388 . S
C272 C273 1.384 . S
C273 C272 1.384 . S
C273 C274 1.377 . S
C274 H254 0.953 . S
C274 C273 1.377 . S
C274 C275 1.369 . S
C275 H255 0.945 . S
C275 C270 1.385 . S
C275 C274 1.369 . S
C276 C268 1.457 . S
C276 C277 1.372 . S
C276 C281 1.364 . S
C277 H256 0.952 . S
C277 C276 1.372 . S
C277 C278 1.389 . S
C278 H257 0.949 . S
C278 C277 1.389 . S
C278 C279 1.387 . S
C279 C278 1.387 . S
C279 C280 1.372 . S
C280 H258 0.950 . S
C280 C279 1.372 . S
C280 C281 1.379 . S
C281 H259 0.948 . S
C281 C276 1.364 . S
C281 C280 1.379 . S
C282 C251 1.383 . S
C282 C269 1.479 . S
C282 C283 1.398 . S
C283 C248 1.382 . S
C283 H260 0.951 . S
C283 C282 1.398 . S
C284 C285 1.384 . S
C284 H297 0.947 . S
C284 C319 1.382 . S
C285 C284 1.384 . S
C285 C286 1.378 . S
C286 C285 1.378 . S
C286 C287 1.378 . S
C286 H298 0.952 . S
C287 C286 1.378 . S
C287 H299 0.950 . S
C287 C318 1.383 . S
H288 C307 0.947 . S
H289 C308 0.946 . S
H290 C310 0.953 . S
H291 C311 0.945 . S
H292 C313 0.952 . S
H293 C314 0.949 . S
H294 C316 0.950 . S
H295 C317 0.948 . S
H296 C319 0.951 . S
H297 C284 0.947 . S
H298 C286 0.952 . S
H299 C287 0.950 . S
N300 C303 1.382 . S
N300 C305 1.363 . S
N301 C303 1.371 . S
N301 C304 1.372 . S
N302 C304 1.361 . S
N302 C305 1.377 . S
C303 N300 1.382 . S
C303 N301 1.371 . S
C303 C306 1.480 . S
C304 N301 1.372 . S
C304 N302 1.361 . S
C304 C312 1.457 . S
C305 N300 1.363 . S
C305 N302 1.377 . S
C305 C318 1.479 . S
C306 C303 1.480 . S
C306 C307 1.383 . S
C306 C311 1.385 . S
C307 H288 0.947 . S
C307 C306 1.383 . S
C307 C308 1.388 . S
C308 H289 0.946 . S
C308 C307 1.388 . S
C308 C309 1.384 . S
C309 C308 1.384 . S
C309 C310 1.377 . S
C310 H290 0.953 . S
C310 C309 1.377 . S
C310 C311 1.369 . S
C311 H291 0.945 . S
C311 C306 1.385 . S
C311 C310 1.369 . S
C312 C304 1.457 . S
C312 C313 1.372 . S
C312 C317 1.364 . S
C313 H292 0.952 . S
C313 C312 1.372 . S
C313 C314 1.389 . S
C314 H293 0.949 . S
C314 C313 1.389 . S
C314 C315 1.387 . S
C315 C314 1.387 . S
C315 C316 1.372 . S
C316 H294 0.950 . S
C316 C315 1.372 . S
C316 C317 1.379 . S
C317 H295 0.948 . S
C317 C312 1.364 . S
C317 C316 1.379 . S
C318 C287 1.383 . S
C318 C305 1.479 . S
C318 C319 1.398 . S
C319 C284 1.382 . S
C319 H296 0.951 . S
C319 C318 1.398 . S
C320 C321 1.384 . S
C320 H333 0.947 . S
C320 C355 1.382 . S
C321 C320 1.384 . S
C321 C322 1.378 . S
C322 C321 1.378 . S
C322 C323 1.378 . S
C322 H334 0.952 . S
C323 C322 1.378 . S
C323 H335 0.950 . S
C323 C354 1.383 . S
H324 C343 0.947 . S
H325 C344 0.946 . S
H326 C346 0.953 . S
H327 C347 0.945 . S
H328 C349 0.952 . S
H329 C350 0.949 . S
H330 C352 0.950 . S
H331 C353 0.948 . S
H332 C355 0.951 . S
H333 C320 0.947 . S
H334 C322 0.952 . S
H335 C323 0.950 . S
N336 C339 1.382 . S
N336 C341 1.363 . S
N337 C339 1.371 . S
N337 C340 1.372 . S
N338 C340 1.361 . S
N338 C341 1.377 . S
C339 N336 1.382 . S
C339 N337 1.371 . S
C339 C342 1.480 . S
C340 N337 1.372 . S
C340 N338 1.361 . S
C340 C348 1.457 . S
C341 N336 1.363 . S
C341 N338 1.377 . S
C341 C354 1.479 . S
C342 C339 1.480 . S
C342 C343 1.383 . S
C342 C347 1.385 . S
C343 H324 0.947 . S
C343 C342 1.383 . S
C343 C344 1.388 . S
C344 H325 0.946 . S
C344 C343 1.388 . S
C344 C345 1.384 . S
C345 C344 1.384 . S
C345 C346 1.377 . S
C346 H326 0.953 . S
C346 C345 1.377 . S
C346 C347 1.369 . S
C347 H327 0.945 . S
C347 C342 1.385 . S
C347 C346 1.369 . S
C348 C340 1.457 . S
C348 C349 1.372 . S
C348 C353 1.364 . S
C349 H328 0.952 . S
C349 C348 1.372 . S
C349 C350 1.389 . S
C350 H329 0.949 . S
C350 C349 1.389 . S
C350 C351 1.387 . S
C351 C350 1.387 . S
C351 C352 1.372 . S
C352 H330 0.950 . S
C352 C351 1.372 . S
C352 C353 1.379 . S
C353 H331 0.948 . S
C353 C348 1.364 . S
C353 C352 1.379 . S
C354 C323 1.383 . S
C354 C341 1.479 . S
C354 C355 1.398 . S
C355 C320 1.382 . S
C355 H332 0.951 . S
C355 C354 1.398 . S
C356 C357 1.384 . S
C356 H369 0.947 . S
C356 C391 1.382 . S
C357 C356 1.384 . S
C357 C358 1.378 . S
C358 C357 1.378 . S
C358 C359 1.378 . S
C358 H370 0.952 . S
C359 C358 1.378 . S
C359 H371 0.950 . S
C359 C390 1.383 . S
H360 C379 0.947 . S
H361 C380 0.946 . S
H362 C382 0.953 . S
H363 C383 0.945 . S
H364 C385 0.952 . S
H365 C386 0.949 . S
H366 C388 0.950 . S
H367 C389 0.948 . S
H368 C391 0.951 . S
H369 C356 0.947 . S
H370 C358 0.952 . S
H371 C359 0.950 . S
N372 C375 1.382 . S
N372 C377 1.363 . S
N373 C375 1.371 . S
N373 C376 1.372 . S
N374 C376 1.361 . S
N374 C377 1.377 . S
C375 N372 1.382 . S
C375 N373 1.371 . S
C375 C378 1.480 . S
C376 N373 1.372 . S
C376 N374 1.361 . S
C376 C384 1.457 . S
C377 N372 1.363 . S
C377 N374 1.377 . S
C377 C390 1.479 . S
C378 C375 1.480 . S
C378 C379 1.383 . S
C378 C383 1.385 . S
C379 H360 0.947 . S
C379 C378 1.383 . S
C379 C380 1.388 . S
C380 H361 0.946 . S
C380 C379 1.388 . S
C380 C381 1.384 . S
C381 C380 1.384 . S
C381 C382 1.377 . S
C382 H362 0.953 . S
C382 C381 1.377 . S
C382 C383 1.369 . S
C383 H363 0.945 . S
C383 C378 1.385 . S
C383 C382 1.369 . S
C384 C376 1.457 . S
C384 C385 1.372 . S
C384 C389 1.364 . S
C385 H364 0.952 . S
C385 C384 1.372 . S
C385 C386 1.389 . S
C386 H365 0.949 . S
C386 C385 1.389 . S
C386 C387 1.387 . S
C387 C386 1.387 . S
C387 C388 1.372 . S
C388 H366 0.950 . S
C388 C387 1.372 . S
C388 C389 1.379 . S
C389 H367 0.948 . S
C389 C384 1.364 . S
C389 C388 1.379 . S
C390 C359 1.383 . S
C390 C377 1.479 . S
C390 C391 1.398 . S
C391 C356 1.382 . S
C391 H368 0.951 . S
C391 C390 1.398 . S
C392 C393 1.349 1_556 S
C392 C394 1.327 . S
C392 H417 0.950 . S
C393 C392 1.349 1_554 S
C393 C409 1.349 . S
C394 C392 1.327 . S
C394 C413 1.429 1_556 S
C394 H418 0.950 . S
C395 C412 1.574 . S
C395 C414 1.368 . S
C395 H419 0.949 . S
H396 C400 0.949 . S
C397 C398 1.349 . S
C397 C399 1.327 . S
C397 H420 0.950 . S
C398 C397 1.349 . S
C398 C410 1.349 1_554 S
C399 C397 1.327 . S
C399 C415 1.429 . S
C399 H421 0.950 . S
C400 H396 0.949 . S
C400 C408 1.574 . S
C400 C416 1.368 1_556 S
H401 C409 0.950 . S
H402 C407 0.950 . S
H403 C408 0.949 . S
H404 C410 0.950 . S
H405 C411 0.950 . S
H406 C412 0.949 . S
C407 H402 0.950 . S
C407 C409 1.327 . S
C407 C413 1.429 . S
C408 C400 1.574 . S
C408 H403 0.949 . S
C408 C414 1.368 1_556 S
C409 C393 1.349 . S
C409 H401 0.950 . S
C409 C407 1.327 . S
C410 C398 1.349 1_556 S
C410 H404 0.950 . S
C410 C411 1.327 . S
C411 H405 0.950 . S
C411 C410 1.327 . S
C411 C415 1.429 1_556 S
C412 C395 1.574 . S
C412 H406 0.949 . S
C412 C416 1.368 . S
C413 C394 1.429 1_554 S
C413 C407 1.429 . S
C413 C414 1.523 . S
C414 C395 1.368 . S
C414 C408 1.368 1_554 S
C414 C413 1.523 . S
C415 C399 1.429 . S
C415 C411 1.429 1_554 S
C415 C416 1.523 . S
C416 C400 1.368 1_554 S
C416 C412 1.368 . S
C416 C415 1.523 . S
H417 C392 0.950 . S
H418 C394 0.950 . S
H419 C395 0.949 . S
H420 C397 0.950 . S
H421 C399 0.950 . S
C422 C423 1.349 . S
C422 C424 1.327 . S
C422 H447 0.950 . S
C423 C422 1.349 . S
C423 C439 1.326 1_554 S
C424 C422 1.327 . S
C424 C443 1.429 . S
C424 H448 0.950 . S
C425 C442 1.574 . S
C425 C444 1.368 1_556 S
C425 H449 0.949 . S
H426 C430 0.949 . S
C427 C428 1.349 1_556 S
C427 C429 1.327 . S
C427 H450 0.950 . S
C428 C427 1.349 1_554 S
C428 C440 1.349 . S
C429 C427 1.327 . S
C429 C445 1.429 1_556 S
C429 H451 0.950 . S
C430 H426 0.949 . S
C430 C438 1.574 . S
C430 C446 1.368 . S
H431 C439 0.973 . S
H432 C437 0.950 . S
H433 C438 0.949 . S
H434 C440 0.950 . S
H435 C441 0.950 . S
H436 C442 0.949 . S
C437 H432 0.950 . S
C437 C439 1.328 . S
C437 C443 1.429 1_556 S
C438 C430 1.574 . S
C438 H433 0.949 . S
C438 C444 1.368 . S
C439 C423 1.326 1_556 S
C439 H431 0.973 . S
C439 C437 1.328 . S
C440 C428 1.349 . S
C440 H434 0.950 . S
C440 C441 1.327 . S
C441 H435 0.950 . S
C441 C440 1.327 . S
C441 C445 1.429 . S
C442 C425 1.574 . S
C442 H436 0.949 . S
C442 C446 1.368 1_556 S
C443 C424 1.429 . S
C443 C437 1.429 1_554 S
C443 C444 1.523 . S
C444 C425 1.368 1_554 S
C444 C438 1.368 . S
C444 C443 1.523 . S
C445 C429 1.429 1_554 S
C445 C441 1.429 . S
C445 C446 1.523 . S
C446 C430 1.368 . S
C446 C442 1.368 1_554 S
C446 C445 1.523 . S
H447 C422 0.950 . S
H448 C424 0.950 . S
H449 C425 0.949 . S
H450 C427 0.950 . S
H451 C429 0.950 . S
C452 C453 1.338 1_556 S
C452 C454 1.328 . S
C452 H477 0.961 . S
C453 C452 1.338 1_554 S
C453 C469 1.349 . S
C454 C452 1.328 . S
C454 C473 1.429 1_556 S
C454 H478 0.950 . S
C455 C472 1.574 . S
C455 C474 1.368 . S
C455 H479 0.949 . S
H456 C460 0.949 . S
C457 C458 1.349 . S
C457 C459 1.327 . S
C457 H480 0.950 . S
C458 C457 1.349 . S
C458 C470 1.349 1_554 S
C459 C457 1.327 . S
C459 C475 1.429 . S
C459 H481 0.950 . S
C460 H456 0.949 . S
C460 C468 1.574 . S
C460 C476 1.368 1_556 S
H461 C469 0.950 . S
H462 C467 0.950 . S
H463 C468 0.949 . S
H464 C470 0.950 . S
H465 C471 0.950 . S
H466 C472 0.949 . S
C467 H462 0.950 . S
C467 C469 1.327 . S
C467 C473 1.429 . S
C468 C460 1.574 . S
C468 H463 0.949 . S
C468 C474 1.368 1_556 S
C469 C453 1.349 . S
C469 H461 0.950 . S
C469 C467 1.327 . S
C470 C458 1.349 1_556 S
C470 H464 0.950 . S
C470 C471 1.327 . S
C471 H465 0.950 . S
C471 C470 1.327 . S
C471 C475 1.429 1_556 S
C472 C455 1.574 . S
C472 H466 0.949 . S
C472 C476 1.368 . S
C473 C454 1.429 1_554 S
C473 C467 1.429 . S
C473 C474 1.523 . S
C474 C455 1.368 . S
C474 C468 1.368 1_554 S
C474 C473 1.523 . S
C475 C459 1.429 . S
C475 C471 1.429 1_554 S
C475 C476 1.523 . S
C476 C460 1.368 1_554 S
C476 C472 1.368 . S
C476 C475 1.523 . S
H477 C452 0.961 . S
H478 C454 0.950 . S
H479 C455 0.949 . S
H480 C457 0.950 . S
H481 C459 0.950 . S
C482 C483 1.349 . S
C482 C484 1.327 . S
C482 H507 0.950 . S
C483 C482 1.349 . S
C483 C499 1.348 1_554 S
C484 C482 1.327 . S
C484 C503 1.429 . S
C484 H508 0.950 . S
C485 C502 1.574 . S
C485 C504 1.368 1_556 S
C485 H509 0.949 . S
H486 C490 0.949 . S
C487 C488 1.349 1_556 S
C487 C489 1.327 . S
C487 H510 0.950 . S
C488 C487 1.349 1_554 S
C488 C500 1.349 . S
C489 C487 1.327 . S
C489 C505 1.429 1_556 S
C489 H511 0.950 . S
C490 H486 0.949 . S
C490 C498 1.574 . S
C490 C506 1.368 . S
H491 C499 0.951 . S
H492 C497 0.972 . S
H493 C498 0.949 . S
H494 C500 0.950 . S
H495 C501 0.950 . S
H496 C502 0.949 . S
C497 H492 0.972 . S
C497 C499 1.327 . S
C497 C503 1.408 1_556 S
C498 C490 1.574 . S
C498 H493 0.949 . S
C498 C504 1.368 . S
C499 C483 1.348 1_556 S
C499 H491 0.951 . S
C499 C497 1.327 . S
C500 C488 1.349 . S
C500 H494 0.950 . S
C500 C501 1.327 . S
C501 H495 0.950 . S
C501 C500 1.327 . S
C501 C505 1.429 . S
C502 C485 1.574 . S
C502 H496 0.949 . S
C502 C506 1.368 1_556 S
C503 C484 1.429 . S
C503 C497 1.408 1_554 S
C503 C504 1.523 . S
C504 C485 1.368 1_554 S
C504 C498 1.368 . S
C504 C503 1.523 . S
C505 C489 1.429 1_554 S
C505 C501 1.429 . S
C505 C506 1.523 . S
C506 C490 1.368 . S
C506 C502 1.368 1_554 S
C506 C505 1.523 . S
H507 C482 0.950 . S
H508 C484 0.950 . S
H509 C485 0.949 . S
H510 C487 0.950 . S
H511 C489 0.950 . S
C512 C513 1.349 . S
C512 C514 1.327 . S
C512 H537 0.950 . S
C513 C512 1.349 . S
C513 C529 1.349 . S
C514 C512 1.327 . S
C514 C533 1.429 . S
C514 H538 0.950 . S
C515 C532 1.574 . S
C515 C534 1.368 . S
C515 H539 0.949 . S
H516 C520 0.949 . S
C517 C518 1.349 . S
C517 C519 1.327 . S
C517 H540 0.950 . S
C518 C517 1.349 . S
C518 C530 1.349 . S
C519 C517 1.327 . S
C519 C535 1.429 . S
C519 H541 0.950 . S
C520 H516 0.949 . S
C520 C528 1.574 . S
C520 C536 1.368 . S
H521 C529 0.950 . S
H522 C527 0.950 . S
H523 C528 0.949 . S
H524 C530 0.950 . S
H525 C531 0.950 . S
H526 C532 0.949 . S
C527 H522 0.950 . S
C527 C529 1.327 . S
C527 C533 1.429 . S
C528 C520 1.574 . S
C528 H523 0.949 . S
C528 C534 1.368 . S
C529 C513 1.349 . S
C529 H521 0.950 . S
C529 C527 1.327 . S
C530 C518 1.349 . S
C530 H524 0.950 . S
C530 C531 1.327 . S
C531 H525 0.950 . S
C531 C530 1.327 . S
C531 C535 1.429 . S
C532 C515 1.574 . S
C532 H526 0.949 . S
C532 C536 1.368 . S
C533 C514 1.429 . S
C533 C527 1.429 . S
C533 C534 1.523 . S
C534 C515 1.368 . S
C534 C528 1.368 . S
C534 C533 1.523 . S
C535 C519 1.429 . S
C535 C531 1.429 . S
C535 C536 1.523 . S
C536 C520 1.368 . S
C536 C532 1.368 . S
C536 C535 1.523 . S
H537 C512 0.950 . S
H538 C514 0.950 . S
H539 C515 0.949 . S
H540 C517 0.950 . S
H541 C519 0.950 . S
C542 C543 1.349 . S
C542 C544 1.327 . S
C542 H567 0.950 . S
C543 C542 1.349 . S
C543 C559 1.349 . S
C544 C542 1.327 . S
C544 C563 1.429 . S
C544 H568 0.950 . S
C545 C562 1.574 . S
C545 C564 1.368 . S
C545 H569 0.949 . S
H546 C550 0.949 . S
C547 C548 1.349 . S
C547 C549 1.327 . S
C547 H570 0.950 . S
C548 C547 1.349 . S
C548 C560 1.349 . S
C549 C547 1.327 . S
C549 C565 1.429 . S
C549 H571 0.950 . S
C550 H546 0.949 . S
C550 C558 1.574 . S
C550 C566 1.368 . S
H551 C559 0.950 . S
H552 C557 0.950 . S
H553 C558 0.949 . S
H554 C560 0.950 . S
H555 C561 0.950 . S
H556 C562 0.949 . S
C557 H552 0.950 . S
C557 C559 1.327 . S
C557 C563 1.429 . S
C558 C550 1.574 . S
C558 H553 0.949 . S
C558 C564 1.368 . S
C559 C543 1.349 . S
C559 H551 0.950 . S
C559 C557 1.327 . S
C560 C548 1.349 . S
C560 H554 0.950 . S
C560 C561 1.327 . S
C561 H555 0.950 . S
C561 C560 1.327 . S
C561 C565 1.429 . S
C562 C545 1.574 . S
C562 H556 0.949 . S
C562 C566 1.368 . S
C563 C544 1.429 . S
C563 C557 1.429 . S
C563 C564 1.523 . S
C564 C545 1.368 . S
C564 C558 1.368 . S
C564 C563 1.523 . S
C565 C549 1.429 . S
C565 C561 1.429 . S
C565 C566 1.523 . S
C566 C550 1.368 . S
C566 C562 1.368 . S
C566 C565 1.523 . S
H567 C542 0.950 . S
H568 C544 0.950 . S
H569 C545 0.949 . S
H570 C547 0.950 . S
H571 C549 0.950 . S
C572 C573 1.349 . S
C572 C574 1.327 . S
C572 H597 0.950 . S
C573 C572 1.349 . S
C573 C589 1.349 . S
C574 C572 1.327 . S
C574 C593 1.429 . S
C574 H598 0.950 . S
C575 C592 1.574 . S
C575 C594 1.368 . S
C575 H599 0.949 . S
H576 C580 0.949 . S
C577 C578 1.349 . S
C577 C579 1.327 . S
C577 H600 0.950 . S
C578 C577 1.349 . S
C578 C590 1.349 . S
C579 C577 1.327 . S
C579 C595 1.429 . S
C579 H601 0.950 . S
C580 H576 0.949 . S
C580 C588 1.574 . S
C580 C596 1.368 . S
H581 C589 0.950 . S
H582 C587 0.950 . S
H583 C588 0.949 . S
H584 C590 0.950 . S
H585 C591 0.950 . S
H586 C592 0.949 . S
C587 H582 0.950 . S
C587 C589 1.327 . S
C587 C593 1.429 . S
C588 C580 1.574 . S
C588 H583 0.949 . S
C588 C594 1.368 . S
C589 C573 1.349 . S
C589 H581 0.950 . S
C589 C587 1.327 . S
C590 C578 1.349 . S
C590 H584 0.950 . S
C590 C591 1.327 . S
C591 H585 0.950 . S
C591 C590 1.327 . S
C591 C595 1.429 . S
C592 C575 1.574 . S
C592 H586 0.949 . S
C592 C596 1.368 . S
C593 C574 1.429 . S
C593 C587 1.429 . S
C593 C594 1.523 . S
C594 C575 1.368 . S
C594 C588 1.368 . S
C594 C593 1.523 . S
C595 C579 1.429 . S
C595 C591 1.429 . S
C595 C596 1.523 . S
C596 C580 1.368 . S
C596 C592 1.368 . S
C596 C595 1.523 . S
H597 C572 0.950 . S
H598 C574 0.950 . S
H599 C575 0.949 . S
H600 C577 0.950 . S
H601 C579 0.950 . S
C602 C603 1.349 . S
C602 C604 1.327 . S
C602 H627 0.950 . S
C603 C602 1.349 . S
C603 C619 1.349 . S
C604 C602 1.327 . S
C604 C623 1.429 . S
C604 H628 0.950 . S
C605 C622 1.574 . S
C605 C624 1.368 . S
C605 H629 0.949 . S
H606 C610 0.949 . S
C607 C608 1.349 . S
C607 C609 1.327 . S
C607 H630 0.950 . S
C608 C607 1.349 . S
C608 C620 1.349 . S
C609 C607 1.327 . S
C609 C625 1.429 . S
C609 H631 0.950 . S
C610 H606 0.949 . S
C610 C618 1.574 . S
C610 C626 1.368 . S
H611 C619 0.950 . S
H612 C617 0.950 . S
H613 C618 0.949 . S
H614 C620 0.950 . S
H615 C621 0.950 . S
H616 C622 0.949 . S
C617 H612 0.950 . S
C617 C619 1.327 . S
C617 C623 1.429 . S
C618 C610 1.574 . S
C618 H613 0.949 . S
C618 C624 1.368 . S
C619 C603 1.349 . S
C619 H611 0.950 . S
C619 C617 1.327 . S
C620 C608 1.349 . S
C620 H614 0.950 . S
C620 C621 1.327 . S
C621 H615 0.950 . S
C621 C620 1.327 . S
C621 C625 1.429 . S
C622 C605 1.574 . S
C622 H616 0.949 . S
C622 C626 1.368 . S
C623 C604 1.429 . S
C623 C617 1.429 . S
C623 C624 1.523 . S
C624 C605 1.368 . S
C624 C618 1.368 . S
C624 C623 1.523 . S
C625 C609 1.429 . S
C625 C621 1.429 . S
C625 C626 1.523 . S
C626 C610 1.368 . S
C626 C622 1.368 . S
C626 C625 1.523 . S
H627 C602 0.950 . S
H628 C604 0.950 . S
H629 C605 0.949 . S
H630 C607 0.950 . S
H631 C609 0.950 . S
C632 C633 1.349 . S
C632 C634 1.327 . S
C632 H657 0.950 . S
C633 C632 1.349 . S
C633 C649 1.349 . S
C634 C632 1.327 . S
C634 C653 1.429 . S
C634 H658 0.950 . S
C635 C652 1.574 . S
C635 C654 1.368 . S
C635 H659 0.949 . S
H636 C640 0.949 . S
C637 C638 1.349 . S
C637 C639 1.327 . S
C637 H660 0.950 . S
C638 C637 1.349 . S
C638 C650 1.349 . S
C639 C637 1.327 . S
C639 C655 1.429 . S
C639 H661 0.950 . S
C640 H636 0.949 . S
C640 C648 1.574 . S
C640 C656 1.368 . S
H641 C649 0.950 . S
H642 C647 0.950 . S
H643 C648 0.949 . S
H644 C650 0.950 . S
H645 C651 0.950 . S
H646 C652 0.949 . S
C647 H642 0.950 . S
C647 C649 1.327 . S
C647 C653 1.429 . S
C648 C640 1.574 . S
C648 H643 0.949 . S
C648 C654 1.368 . S
C649 C633 1.349 . S
C649 H641 0.950 . S
C649 C647 1.327 . S
C650 C638 1.349 . S
C650 H644 0.950 . S
C650 C651 1.327 . S
C651 H645 0.950 . S
C651 C650 1.327 . S
C651 C655 1.429 . S
C652 C635 1.574 . S
C652 H646 0.949 . S
C652 C656 1.368 . S
C653 C634 1.429 . S
C653 C647 1.429 . S
C653 C654 1.523 . S
C654 C635 1.368 . S
C654 C648 1.368 . S
C654 C653 1.523 . S
C655 C639 1.429 . S
C655 C651 1.429 . S
C655 C656 1.523 . S
C656 C640 1.368 . S
C656 C652 1.368 . S
C656 C655 1.523 . S
H657 C632 0.950 . S
H658 C634 0.950 . S
H659 C635 0.949 . S
H660 C637 0.950 . S
H661 C639 0.950 . S
C662 C663 1.349 . S
C662 C664 1.327 . S
C662 H687 0.950 . S
C663 C662 1.349 . S
C663 C679 1.349 . S
C664 C662 1.327 . S
C664 C683 1.429 . S
C664 H688 0.950 . S
C665 C682 1.574 . S
C665 C684 1.368 . S
C665 H689 0.949 . S
H666 C670 0.949 . S
C667 C668 1.349 . S
C667 C669 1.327 . S
C667 H690 0.950 . S
C668 C667 1.349 . S
C668 C680 1.349 . S
C669 C667 1.327 . S
C669 C685 1.429 . S
C669 H691 0.950 . S
C670 H666 0.949 . S
C670 C678 1.574 . S
C670 C686 1.368 . S
H671 C679 0.950 1_565 S
H672 C677 0.950 . S
H673 C678 0.949 . S
H674 C680 0.950 . S
H675 C681 0.950 . S
H676 C682 0.949 . S
C677 H672 0.950 . S
C677 C679 1.327 . S
C677 C683 1.429 . S
C678 C670 1.574 . S
C678 H673 0.949 . S
C678 C684 1.368 . S
C679 C663 1.349 . S
C679 H671 0.950 1_545 S
C679 C677 1.327 . S
C680 C668 1.349 . S
C680 H674 0.950 . S
C680 C681 1.327 . S
C681 H675 0.950 . S
C681 C680 1.327 . S
C681 C685 1.429 . S
C682 C665 1.574 . S
C682 H676 0.949 . S
C682 C686 1.368 . S
C683 C664 1.429 . S
C683 C677 1.429 . S
C683 C684 1.523 . S
C684 C665 1.368 . S
C684 C678 1.368 . S
C684 C683 1.523 . S
C685 C669 1.429 . S
C685 C681 1.429 . S
C685 C686 1.523 . S
C686 C670 1.368 . S
C686 C682 1.368 . S
C686 C685 1.523 . S
H687 C662 0.950 . S
H688 C664 0.950 . S
H689 C665 0.949 . S
H690 C667 0.950 . S
H691 C669 0.950 . S
C692 C693 1.349 . S
C692 C694 1.327 . S
C692 H717 0.950 . S
C693 C692 1.349 . S
C693 C709 1.349 . S
C694 C692 1.327 . S
C694 C713 1.429 . S
C694 H718 0.950 . S
C695 C712 1.574 . S
C695 C714 1.368 . S
C695 H719 0.949 . S
H696 C700 0.949 . S
C697 C698 1.349 . S
C697 C699 1.327 . S
C697 H720 0.950 . S
C698 C697 1.349 . S
C698 C710 1.349 . S
C699 C697 1.327 . S
C699 C715 1.429 . S
C699 H721 0.950 . S
C700 H696 0.949 . S
C700 C708 1.574 . S
C700 C716 1.368 . S
H701 C709 0.950 1_455 S
H702 C707 0.950 . S
H703 C708 0.949 . S
H704 C710 0.950 . S
H705 C711 0.950 . S
H706 C712 0.949 . S
C707 H702 0.950 . S
C707 C709 1.327 . S
C707 C713 1.429 . S
C708 C700 1.574 . S
C708 H703 0.949 . S
C708 C714 1.368 . S
C709 C693 1.349 . S
C709 H701 0.950 1_655 S
C709 C707 1.327 . S
C710 C698 1.349 . S
C710 H704 0.950 . S
C710 C711 1.327 . S
C711 H705 0.950 . S
C711 C710 1.327 . S
C711 C715 1.429 . S
C712 C695 1.574 . S
C712 H706 0.949 . S
C712 C716 1.368 . S
C713 C694 1.429 . S
C713 C707 1.429 . S
C713 C714 1.523 . S
C714 C695 1.368 . S
C714 C708 1.368 . S
C714 C713 1.523 . S
C715 C699 1.429 . S
C715 C711 1.429 . S
C715 C716 1.523 . S
C716 C700 1.368 . S
C716 C712 1.368 . S
C716 C715 1.523 . S
H717 C692 0.950 . S
H718 C694 0.950 . S
H719 C695 0.949 . S
H720 C697 0.950 . S
H721 C699 0.950 . S
C722 C723 1.349 . S
C722 C724 1.327 . S
C722 H747 0.950 . S
C723 C722 1.349 . S
C723 C739 1.349 . S
C724 C722 1.327 . S
C724 C743 1.429 . S
C724 H748 0.950 . S
C725 C742 1.574 . S
C725 C744 1.368 . S
C725 H749 0.949 . S
H726 C730 0.949 . S
C727 C728 1.349 . S
C727 C729 1.327 . S
C727 H750 0.950 . S
C728 C727 1.349 . S
C728 C740 1.349 . S
C729 C727 1.327 . S
C729 C745 1.429 . S
C729 H751 0.950 . S
C730 H726 0.949 . S
C730 C738 1.574 . S
C730 C746 1.368 . S
H731 C739 0.950 . S
H732 C737 0.950 . S
H733 C738 0.949 . S
H734 C740 0.950 . S
H735 C741 0.950 . S
H736 C742 0.949 . S
C737 H732 0.950 . S
C737 C739 1.327 . S
C737 C743 1.429 . S
C738 C730 1.574 . S
C738 H733 0.949 . S
C738 C744 1.368 . S
C739 C723 1.349 . S
C739 H731 0.950 . S
C739 C737 1.327 . S
C740 C728 1.349 . S
C740 H734 0.950 . S
C740 C741 1.327 . S
C741 H735 0.950 . S
C741 C740 1.327 . S
C741 C745 1.429 . S
C742 C725 1.574 . S
C742 H736 0.949 . S
C742 C746 1.368 . S
C743 C724 1.429 . S
C743 C737 1.429 . S
C743 C744 1.523 . S
C744 C725 1.368 . S
C744 C738 1.368 . S
C744 C743 1.523 . S
C745 C729 1.429 . S
C745 C741 1.429 . S
C745 C746 1.523 . S
C746 C730 1.368 . S
C746 C742 1.368 . S
C746 C745 1.523 . S
H747 C722 0.950 . S
H748 C724 0.950 . S
H749 C725 0.949 . S
H750 C727 0.950 . S
H751 C729 0.950 . S
C752 C753 1.349 . S
C752 C754 1.327 . S
C752 H777 0.950 . S
C753 C752 1.349 . S
C753 C769 1.349 . S
C754 C752 1.327 . S
C754 C773 1.429 . S
C754 H778 0.950 . S
C755 C772 1.574 . S
C755 C774 1.368 . S
C755 H779 0.949 . S
H756 C760 0.949 . S
C757 C758 1.349 . S
C757 C759 1.327 . S
C757 H780 0.950 . S
C758 C757 1.349 . S
C758 C770 1.349 . S
C759 C757 1.327 . S
C759 C775 1.429 . S
C759 H781 0.950 . S
C760 H756 0.949 . S
C760 C768 1.574 . S
C760 C776 1.368 . S
H761 C769 0.950 . S
H762 C767 0.950 . S
H763 C768 0.949 . S
H764 C770 0.950 . S
H765 C771 0.950 . S
H766 C772 0.949 . S
C767 H762 0.950 . S
C767 C769 1.327 . S
C767 C773 1.429 . S
C768 C760 1.574 . S
C768 H763 0.949 . S
C768 C774 1.368 . S
C769 C753 1.349 . S
C769 H761 0.950 . S
C769 C767 1.327 . S
C770 C758 1.349 . S
C770 H764 0.950 . S
C770 C771 1.327 . S
C771 H765 0.950 . S
C771 C770 1.327 . S
C771 C775 1.429 . S
C772 C755 1.574 . S
C772 H766 0.949 . S
C772 C776 1.368 . S
C773 C754 1.429 . S
C773 C767 1.429 . S
C773 C774 1.523 . S
C774 C755 1.368 . S
C774 C768 1.368 . S
C774 C773 1.523 . S
C775 C759 1.429 . S
C775 C771 1.429 . S
C775 C776 1.523 . S
C776 C760 1.368 . S
C776 C772 1.368 . S
C776 C775 1.523 . S
H777 C752 0.950 . S
H778 C754 0.950 . S
H779 C755 0.949 . S
H780 C757 0.950 . S
H781 C759 0.950 . S
C782 C783 1.349 . S
C782 C784 1.327 . S
C782 H807 0.950 . S
C783 C782 1.349 . S
C783 C799 1.349 . S
C784 C782 1.327 . S
C784 C803 1.429 . S
C784 H808 0.950 . S
C785 C802 1.574 . S
C785 C804 1.368 . S
C785 H809 0.949 . S
H786 C790 0.949 . S
C787 C788 1.349 . S
C787 C789 1.327 . S
C787 H810 0.950 . S
C788 C787 1.349 . S
C788 C800 1.349 . S
C789 C787 1.327 . S
C789 C805 1.429 . S
C789 H811 0.950 . S
C790 H786 0.949 . S
C790 C798 1.574 . S
C790 C806 1.368 . S
H791 C799 0.950 . S
H792 C797 0.950 . S
H793 C798 0.949 . S
H794 C800 0.950 . S
H795 C801 0.950 . S
H796 C802 0.949 . S
C797 H792 0.950 . S
C797 C799 1.327 . S
C797 C803 1.429 . S
C798 C790 1.574 . S
C798 H793 0.949 . S
C798 C804 1.368 . S
C799 C783 1.349 . S
C799 H791 0.950 . S
C799 C797 1.327 . S
C800 C788 1.349 . S
C800 H794 0.950 . S
C800 C801 1.327 . S
C801 H795 0.950 . S
C801 C800 1.327 . S
C801 C805 1.429 . S
C802 C785 1.574 . S
C802 H796 0.949 . S
C802 C806 1.368 . S
C803 C784 1.429 . S
C803 C797 1.429 . S
C803 C804 1.523 . S
C804 C785 1.368 . S
C804 C798 1.368 . S
C804 C803 1.523 . S
C805 C789 1.429 . S
C805 C801 1.429 . S
C805 C806 1.523 . S
C806 C790 1.368 . S
C806 C802 1.368 . S
C806 C805 1.523 . S
H807 C782 0.950 . S
H808 C784 0.950 . S
H809 C785 0.949 . S
H810 C787 0.950 . S
H811 C789 0.950 . S
C812 C813 1.349 . S
C812 C814 1.327 . S
C812 H837 0.931 1_545 S
C813 C812 1.349 . S
C813 C829 1.349 . S
C814 C812 1.327 . S
C814 C833 1.429 . S
C814 H838 0.950 . S
C815 C832 1.574 . S
C815 C834 1.368 . S
C815 H839 0.949 . S
H816 C820 0.949 . S
C817 C818 1.349 . S
C817 C819 1.327 . S
C817 H840 0.950 . S
C818 C817 1.349 . S
C818 C830 1.349 . S
C819 C817 1.327 . S
C819 C835 1.429 . S
C819 H841 0.950 . S
C820 H816 0.949 . S
C820 C828 1.574 . S
C820 C836 1.368 . S
H821 C829 0.950 . S
H822 C827 0.950 . S
H823 C828 0.949 . S
H824 C830 0.950 . S
H825 C831 0.950 . S
H826 C832 0.949 . S
C827 H822 0.950 . S
C827 C829 1.327 . S
C827 C833 1.429 . S
C828 C820 1.574 . S
C828 H823 0.949 . S
C828 C834 1.368 . S
C829 C813 1.349 . S
C829 H821 0.950 . S
C829 C827 1.327 . S
C830 C818 1.349 . S
C830 H824 0.950 . S
C830 C831 1.327 . S
C831 H825 0.950 . S
C831 C830 1.327 . S
C831 C835 1.429 . S
C832 C815 1.574 . S
C832 H826 0.949 . S
C832 C836 1.368 . S
C833 C814 1.429 . S
C833 C827 1.429 . S
C833 C834 1.523 . S
C834 C815 1.368 . S
C834 C828 1.368 . S
C834 C833 1.523 . S
C835 C819 1.429 . S
C835 C831 1.429 . S
C835 C836 1.523 . S
C836 C820 1.368 . S
C836 C832 1.368 . S
C836 C835 1.523 . S
H837 C812 0.931 1_565 S
H838 C814 0.950 . S
H839 C815 0.949 . S
H840 C817 0.950 . S
H841 C819 0.950 . S
C842 C843 1.349 . S
C842 C844 1.327 . S
C842 H867 0.950 1_655 S
C843 C842 1.349 . S
C843 C859 1.349 . S
C844 C842 1.327 . S
C844 C863 1.429 . S
C844 H868 0.950 . S
C845 C862 1.574 . S
C845 C864 1.368 . S
C845 H869 0.949 . S
H846 C850 0.949 . S
C847 C848 1.349 . S
C847 C849 1.327 . S
C847 H870 0.950 . S
C848 C847 1.349 . S
C848 C860 1.349 . S
C849 C847 1.327 . S
C849 C865 1.429 . S
C849 H871 0.950 . S
C850 H846 0.949 . S
C850 C858 1.574 . S
C850 C866 1.368 . S
H851 C859 0.950 . S
H852 C857 0.950 . S
H853 C858 0.949 . S
H854 C860 0.950 . S
H855 C861 0.950 . S
H856 C862 0.949 . S
C857 H852 0.950 . S
C857 C859 1.327 . S
C857 C863 1.429 . S
C858 C850 1.574 . S
C858 H853 0.949 . S
C858 C864 1.368 . S
C859 C843 1.349 . S
C859 H851 0.950 . S
C859 C857 1.327 . S
C860 C848 1.349 . S
C860 H854 0.950 . S
C860 C861 1.327 . S
C861 H855 0.950 . S
C861 C860 1.327 . S
C861 C865 1.429 . S
C862 C845 1.574 . S
C862 H856 0.949 . S
C862 C866 1.368 . S
C863 C844 1.429 . S
C863 C857 1.429 . S
C863 C864 1.523 . S
C864 C845 1.368 . S
C864 C858 1.368 . S
C864 C863 1.523 . S
C865 C849 1.429 . S
C865 C861 1.429 . S
C865 C866 1.523 . S
C866 C850 1.368 . S
C866 C862 1.368 . S
C866 C865 1.523 . S
H867 C842 0.950 1_455 S
H868 C844 0.950 . S
H869 C845 0.949 . S
H870 C847 0.950 . S
H871 C849 0.950 . S
C872 C873 1.349 . S
C872 C874 1.327 . S
C872 H897 0.950 . S
C873 C872 1.349 . S
C873 C889 1.349 . S
C874 C872 1.327 . S
C874 C893 1.429 . S
C874 H898 0.950 . S
C875 C892 1.574 . S
C875 C894 1.368 . S
C875 H899 0.949 . S
H876 C880 0.949 . S
C877 C878 1.349 . S
C877 C879 1.327 . S
C877 H900 0.950 . S
C878 C877 1.349 . S
C878 C890 1.349 . S
C879 C877 1.327 . S
C879 C895 1.429 . S
C879 H901 0.950 . S
C880 H876 0.949 . S
C880 C888 1.574 . S
C880 C896 1.368 . S
H881 C889 0.950 . S
H882 C887 0.950 . S
H883 C888 0.949 . S
H884 C890 0.950 . S
H885 C891 0.950 . S
H886 C892 0.949 . S
C887 H882 0.950 . S
C887 C889 1.327 . S
C887 C893 1.429 . S
C888 C880 1.574 . S
C888 H883 0.949 . S
C888 C894 1.368 . S
C889 C873 1.349 . S
C889 H881 0.950 . S
C889 C887 1.327 . S
C890 C878 1.349 . S
C890 H884 0.950 . S
C890 C891 1.327 . S
C891 H885 0.950 . S
C891 C890 1.327 . S
C891 C895 1.429 . S
C892 C875 1.574 . S
C892 H886 0.949 . S
C892 C896 1.368 . S
C893 C874 1.429 . S
C893 C887 1.429 . S
C893 C894 1.523 . S
C894 C875 1.368 . S
C894 C888 1.368 . S
C894 C893 1.523 . S
C895 C879 1.429 . S
C895 C891 1.429 . S
C895 C896 1.523 . S
C896 C880 1.368 . S
C896 C892 1.368 . S
C896 C895 1.523 . S
H897 C872 0.950 . S
H898 C874 0.950 . S
H899 C875 0.949 . S
H900 C877 0.950 . S
H901 C879 0.950 . S
C902 C903 1.349 . S
C902 C904 1.327 . S
C902 H927 0.950 . S
C903 C902 1.349 . S
C903 C919 1.349 . S
C904 C902 1.327 . S
C904 C923 1.429 . S
C904 H928 0.950 . S
C905 C922 1.574 . S
C905 C924 1.368 . S
C905 H929 0.949 . S
H906 C910 0.949 . S
C907 C908 1.349 . S
C907 C909 1.327 . S
C907 H930 0.950 . S
C908 C907 1.349 . S
C908 C920 1.349 . S
C909 C907 1.327 . S
C909 C925 1.429 . S
C909 H931 0.950 . S
C910 H906 0.949 . S
C910 C918 1.574 . S
C910 C926 1.368 . S
H911 C919 0.950 . S
H912 C917 0.950 . S
H913 C918 0.949 . S
H914 C920 0.950 . S
H915 C921 0.950 . S
H916 C922 0.949 . S
C917 H912 0.950 . S
C917 C919 1.327 . S
C917 C923 1.429 . S
C918 C910 1.574 . S
C918 H913 0.949 . S
C918 C924 1.368 . S
C919 C903 1.349 . S
C919 H911 0.950 . S
C919 C917 1.327 . S
C920 C908 1.349 . S
C920 H914 0.950 . S
C920 C921 1.327 . S
C921 H915 0.950 . S
C921 C920 1.327 . S
C921 C925 1.429 . S
C922 C905 1.574 . S
C922 H916 0.949 . S
C922 C926 1.368 . S
C923 C904 1.429 . S
C923 C917 1.429 . S
C923 C924 1.523 . S
C924 C905 1.368 . S
C924 C918 1.368 . S
C924 C923 1.523 . S
C925 C909 1.429 . S
C925 C921 1.429 . S
C925 C926 1.523 . S
C926 C910 1.368 . S
C926 C922 1.368 . S
C926 C925 1.523 . S
H927 C902 0.950 . S
H928 C904 0.950 . S
H929 C905 0.949 . S
H930 C907 0.950 . S
H931 C909 0.950 . S
C932 C933 1.349 . S
C932 C934 1.327 . S
C932 H957 0.950 . S
C933 C932 1.349 . S
C933 C949 1.349 . S
C934 C932 1.327 . S
C934 C953 1.429 . S
C934 H958 0.950 . S
C935 C952 1.574 . S
C935 C954 1.368 . S
C935 H959 0.949 . S
H936 C940 0.949 . S
C937 C938 1.349 . S
C937 C939 1.327 . S
C937 H960 0.950 . S
C938 C937 1.349 . S
C938 C950 1.349 . S
C939 C937 1.327 . S
C939 C955 1.429 . S
C939 H961 0.950 . S
C940 H936 0.949 . S
C940 C948 1.574 . S
C940 C956 1.368 . S
H941 C949 0.950 . S
H942 C947 0.950 . S
H943 C948 0.949 . S
H944 C950 0.950 . S
H945 C951 0.950 . S
H946 C952 0.949 . S
C947 H942 0.950 . S
C947 C949 1.327 . S
C947 C953 1.429 . S
C948 C940 1.574 . S
C948 H943 0.949 . S
C948 C954 1.368 . S
C949 C933 1.349 . S
C949 H941 0.950 . S
C949 C947 1.327 . S
C950 C938 1.349 . S
C950 H944 0.950 . S
C950 C951 1.327 . S
C951 H945 0.950 . S
C951 C950 1.327 . S
C951 C955 1.429 . S
C952 C935 1.574 . S
C952 H946 0.949 . S
C952 C956 1.368 . S
C953 C934 1.429 . S
C953 C947 1.429 . S
C953 C954 1.523 . S
C954 C935 1.368 . S
C954 C948 1.368 . S
C954 C953 1.523 . S
C955 C939 1.429 . S
C955 C951 1.429 . S
C955 C956 1.523 . S
C956 C940 1.368 . S
C956 C952 1.368 . S
C956 C955 1.523 . S
H957 C932 0.950 . S
H958 C934 0.950 . S
H959 C935 0.949 . S
H960 C937 0.950 . S
H961 C939 0.950 . S
C962 C963 1.349 . S
C962 C964 1.327 . S
C962 H987 0.950 . S
C963 C962 1.349 . S
C963 C979 1.349 . S
C964 C962 1.327 . S
C964 C983 1.429 . S
C964 H988 0.950 . S
C965 C982 1.574 . S
C965 C984 1.368 . S
C965 H989 0.949 . S
H966 C970 0.949 . S
C967 C968 1.349 . S
C967 C969 1.327 . S
C967 H990 0.950 . S
C968 C967 1.349 . S
C968 C980 1.349 . S
C969 C967 1.327 . S
C969 C985 1.429 . S
C969 H991 0.950 . S
C970 H966 0.949 . S
C970 C978 1.574 . S
C970 C986 1.368 . S
H971 C979 0.950 . S
H972 C977 0.950 . S
H973 C978 0.949 . S
H974 C980 0.950 . S
H975 C981 0.950 . S
H976 C982 0.949 . S
C977 H972 0.950 . S
C977 C979 1.327 . S
C977 C983 1.429 . S
C978 C970 1.574 . S
C978 H973 0.949 . S
C978 C984 1.368 . S
C979 C963 1.349 . S
C979 H971 0.950 . S
C979 C977 1.327 . S
C980 C968 1.349 . S
C980 H974 0.950 . S
C980 C981 1.327 . S
C981 H975 0.950 . S
C981 C980 1.327 . S
C981 C985 1.429 . S
C982 C965 1.574 . S
C982 H976 0.949 . S
C982 C986 1.368 . S
C983 C964 1.429 . S
C983 C977 1.429 . S
C983 C984 1.523 . S
C984 C965 1.368 . S
C984 C978 1.368 . S
C984 C983 1.523 . S
C985 C969 1.429 . S
C985 C981 1.429 . S
C985 C986 1.523 . S
C986 C970 1.368 . S
C986 C982 1.368 . S
C986 C985 1.523 . S
H987 C962 0.950 . S
H988 C964 0.950 . S
H989 C965 0.949 . S
H990 C967 0.950 . S
H991 C969 0.950 . S
C992 C993 1.349 . S
C992 C994 1.327 . S
C992 H1017 0.950 . S
C993 C992 1.349 . S
C993 C1009 1.349 . S
C994 C992 1.327 . S
C994 C1013 1.429 . S
C994 H1018 0.950 . S
C995 C1012 1.574 . S
C995 C1014 1.368 . S
C995 H1019 0.949 . S
H996 C1000 0.949 . S
C997 C998 1.349 . S
C997 C999 1.327 . S
C997 H1020 0.950 . S
C998 C997 1.349 . S
C998 C1010 1.349 . S
C999 C997 1.327 . S
C999 C1015 1.429 . S
C999 H1021 0.950 . S
C1000 H996 0.949 . S
C1000 C1008 1.574 . S
C1000 C1016 1.368 . S
H1001 C1009 0.950 . S
H1002 C1007 0.950 . S
H1003 C1008 0.949 . S
H1004 C1010 0.950 . S
H1005 C1011 0.950 . S
H1006 C1012 0.949 . S
C1007 H1002 0.950 . S
C1007 C1009 1.327 . S
C1007 C1013 1.429 . S
C1008 C1000 1.574 . S
C1008 H1003 0.949 . S
C1008 C1014 1.368 . S
C1009 C993 1.349 . S
C1009 H1001 0.950 . S
C1009 C1007 1.327 . S
C1010 C998 1.349 . S
C1010 H1004 0.950 . S
C1010 C1011 1.327 . S
C1011 H1005 0.950 . S
C1011 C1010 1.327 . S
C1011 C1015 1.429 . S
C1012 C995 1.574 . S
C1012 H1006 0.949 . S
C1012 C1016 1.368 . S
C1013 C994 1.429 . S
C1013 C1007 1.429 . S
C1013 C1014 1.523 . S
C1014 C995 1.368 . S
C1014 C1008 1.368 . S
C1014 C1013 1.523 . S
C1015 C999 1.429 . S
C1015 C1011 1.429 . S
C1015 C1016 1.523 . S
C1016 C1000 1.368 . S
C1016 C1012 1.368 . S
C1016 C1015 1.523 . S
H1017 C992 0.950 . S
H1018 C994 0.950 . S
H1019 C995 0.949 . S
H1020 C997 0.950 . S
H1021 C999 0.950 . S
C1022 C1023 1.349 . S
C1022 C1024 1.327 . S
C1022 H1047 0.950 . S
C1023 C1022 1.349 . S
C1023 C1039 1.349 . S
C1024 C1022 1.327 . S
C1024 C1043 1.429 . S
C1024 H1048 0.950 . S
C1025 C1042 1.574 . S
C1025 C1044 1.368 . S
C1025 H1049 0.949 . S
H1026 C1030 0.949 . S
C1027 C1028 1.349 . S
C1027 C1029 1.327 . S
C1027 H1050 0.950 . S
C1028 C1027 1.349 . S
C1028 C1040 1.349 . S
C1029 C1027 1.327 . S
C1029 C1045 1.429 . S
C1029 H1051 0.950 . S
C1030 H1026 0.949 . S
C1030 C1038 1.574 . S
C1030 C1046 1.368 . S
H1031 C1039 0.950 . S
H1032 C1037 0.950 . S
H1033 C1038 0.949 . S
H1034 C1040 0.950 . S
H1035 C1041 0.950 . S
H1036 C1042 0.949 . S
C1037 H1032 0.950 . S
C1037 C1039 1.327 . S
C1037 C1043 1.429 . S
C1038 C1030 1.574 . S
C1038 H1033 0.949 . S
C1038 C1044 1.368 . S
C1039 C1023 1.349 . S
C1039 H1031 0.950 . S
C1039 C1037 1.327 . S
C1040 C1028 1.349 . S
C1040 H1034 0.950 . S
C1040 C1041 1.327 . S
C1041 H1035 0.950 . S
C1041 C1040 1.327 . S
C1041 C1045 1.429 . S
C1042 C1025 1.574 . S
C1042 H1036 0.949 . S
C1042 C1046 1.368 . S
C1043 C1024 1.429 . S
C1043 C1037 1.429 . S
C1043 C1044 1.523 . S
C1044 C1025 1.368 . S
C1044 C1038 1.368 . S
C1044 C1043 1.523 . S
C1045 C1029 1.429 . S
C1045 C1041 1.429 . S
C1045 C1046 1.523 . S
C1046 C1030 1.368 . S
C1046 C1042 1.368 . S
C1046 C1045 1.523 . S
H1047 C1022 0.950 . S
H1048 C1024 0.950 . S
H1049 C1025 0.949 . S
H1050 C1027 0.950 . S
H1051 C1029 0.950 . S
C1052 C1053 1.349 . S
C1052 C1054 1.327 . S
C1052 H1077 0.950 . S
C1053 C1052 1.349 . S
C1053 C1069 1.349 . S
C1054 C1052 1.327 . S
C1054 C1073 1.429 . S
C1054 H1078 0.950 . S
C1055 C1072 1.574 . S
C1055 C1074 1.368 . S
C1055 H1079 0.949 . S
H1056 C1060 0.949 . S
C1057 C1058 1.349 . S
C1057 C1059 1.327 . S
C1057 H1080 0.950 . S
C1058 C1057 1.349 . S
C1058 C1070 1.349 . S
C1059 C1057 1.327 . S
C1059 C1075 1.429 . S
C1059 H1081 0.950 . S
C1060 H1056 0.949 . S
C1060 C1068 1.574 . S
C1060 C1076 1.368 . S
H1061 C1069 0.950 . S
H1062 C1067 0.950 . S
H1063 C1068 0.949 . S
H1064 C1070 0.950 . S
H1065 C1071 0.950 . S
H1066 C1072 0.949 . S
C1067 H1062 0.950 . S
C1067 C1069 1.327 . S
C1067 C1073 1.429 . S
C1068 C1060 1.574 . S
C1068 H1063 0.949 . S
C1068 C1074 1.368 . S
C1069 C1053 1.349 . S
C1069 H1061 0.950 . S
C1069 C1067 1.327 . S
C1070 C1058 1.349 . S
C1070 H1064 0.950 . S
C1070 C1071 1.327 . S
C1071 H1065 0.950 . S
C1071 C1070 1.327 . S
C1071 C1075 1.429 . S
C1072 C1055 1.574 . S
C1072 H1066 0.949 . S
C1072 C1076 1.368 . S
C1073 C1054 1.429 . S
C1073 C1067 1.429 . S
C1073 C1074 1.523 . S
C1074 C1055 1.368 . S
C1074 C1068 1.368 . S
C1074 C1073 1.523 . S
C1075 C1059 1.429 . S
C1075 C1071 1.429 . S
C1075 C1076 1.523 . S
C1076 C1060 1.368 . S
C1076 C1072 1.368 . S
C1076 C1075 1.523 . S
H1077 C1052 0.950 . S
H1078 C1054 0.950 . S
H1079 C1055 0.949 . S
H1080 C1057 0.950 . S
H1081 C1059 0.950 . S
C1082 C1083 1.349 . S
C1082 C1084 1.327 . S
C1082 H1107 0.950 . S
C1083 C1082 1.349 . S
C1083 C1099 1.349 . S
C1084 C1082 1.327 . S
C1084 C1103 1.429 . S
C1084 H1108 0.950 . S
C1085 C1102 1.574 . S
C1085 C1104 1.368 . S
C1085 H1109 0.949 . S
H1086 C1090 0.949 . S
C1087 C1088 1.349 . S
C1087 C1089 1.327 . S
C1087 H1110 0.950 . S
C1088 C1087 1.349 . S
C1088 C1100 1.349 . S
C1089 C1087 1.327 . S
C1089 C1105 1.429 . S
C1089 H1111 0.950 . S
C1090 H1086 0.949 . S
C1090 C1098 1.574 . S
C1090 C1106 1.368 . S
H1091 C1099 0.950 . S
H1092 C1097 0.950 . S
H1093 C1098 0.949 . S
H1094 C1100 0.950 . S
H1095 C1101 0.950 . S
H1096 C1102 0.949 . S
C1097 H1092 0.950 . S
C1097 C1099 1.327 . S
C1097 C1103 1.429 . S
C1098 C1090 1.574 . S
C1098 H1093 0.949 . S
C1098 C1104 1.368 . S
C1099 C1083 1.349 . S
C1099 H1091 0.950 . S
C1099 C1097 1.327 . S
C1100 C1088 1.349 . S
C1100 H1094 0.950 . S
C1100 C1101 1.327 . S
C1101 H1095 0.950 . S
C1101 C1100 1.327 . S
C1101 C1105 1.429 . S
C1102 C1085 1.574 . S
C1102 H1096 0.949 . S
C1102 C1106 1.368 . S
C1103 C1084 1.429 . S
C1103 C1097 1.429 . S
C1103 C1104 1.523 . S
C1104 C1085 1.368 . S
C1104 C1098 1.368 . S
C1104 C1103 1.523 . S
C1105 C1089 1.429 . S
C1105 C1101 1.429 . S
C1105 C1106 1.523 . S
C1106 C1090 1.368 . S
C1106 C1102 1.368 . S
C1106 C1105 1.523 . S
H1107 C1082 0.950 . S
H1108 C1084 0.950 . S
H1109 C1085 0.949 . S
H1110 C1087 0.950 . S
H1111 C1089 0.950 . S
C393 C45 1.633 . S
C398 C129 1.654 . S
C423 C30 1.633 . S
C428 C165 1.658 . S
C453 C39 1.633 . S
C458 C201 1.623 . S
C488 C237 1.620 . S
C483 C34 1.631 . S
C513 C97 1.633 . S
C518 C273 1.657 . S
C548 C309 1.657 . S
C543 C82 1.633 . S
C578 C345 1.620 . S
C573 C91 1.633 . S
C608 C381 1.620 . S
C603 C86 1.633 . S
C638 C321 1.508 . S
C633 C26 1.473 . S
C668 C357 1.508 . S
C663 C36 1.476 . S
C698 C279 1.533 . S
C693 C32 1.479 . S
C728 C315 1.533 . S
C723 C42 1.476 . S
C753 C18 1.561 . S
C758 C285 1.635 . S
C788 C351 1.601 . S
C783 C50 1.563 . S
C813 C4 1.564 . S
C818 C387 1.603 . S
C843 C48 1.561 . S
C848 C249 1.638 . S
C878 C177 1.508 . S
C873 C78 1.475 . S
C903 C88 1.475 . S
C908 C213 1.508 . S
C938 C135 1.533 . S
C933 C84 1.478 . S
C968 C171 1.533 . S
C963 C94 1.477 . S
C998 C141 1.637 . S
C993 C70 1.561 . S
C1028 C207 1.601 . S
C1023 C102 1.564 . S
C1053 C56 1.564 . S
C1058 C243 1.601 . S
C1083 C100 1.561 . S
C1088 C105 1.637 . S
