# Generated by pormake.
# Topology cml, (3,6)-cn, num edge types: 1
# Building blocks:
#     Node 0, Type 0, BuildingBlock: CUQRIR_clean_linker_1, # of connection points: 3
#     Node 1, Type 0, BuildingBlock: CUQRIR_clean_linker_1, # of connection points: 3
#     Node 2, Type 0, BuildingBlock: CUQRIR_clean_linker_1, # of connection points: 3
#     Node 3, Type 0, BuildingBlock: CUQRIR_clean_linker_1, # of connection points: 3
#     Node 4, Type 0, BuildingBlock: CUQRIR_clean_linker_1, # of connection points: 3
#     Node 5, Type 0, BuildingBlock: CUQRIR_clean_linker_1, # of connection points: 3
#     Node 6, Type 0, BuildingBlock: CUQRIR_clean_linker_1, # of connection points: 3
#     Node 7, Type 0, BuildingBlock: CUQRIR_clean_linker_1, # of connection points: 3
#     Node 8, Type 1, BuildingBlock: OJICUG_clean_sbu_0, # of connection points: 6
#     Node 9, Type 1, BuildingBlock: OJICUG_clean_sbu_0, # of connection points: 6
#     Node 10, Type 1, BuildingBlock: OJICUG_clean_sbu_0, # of connection points: 6
#     Node 11, Type 1, BuildingBlock: OJICUG_clean_sbu_0, # of connection points: 6
#     Edge 12, Type (0, 1), BuildingBlock: KIFKEQ_clean_linker_1, # of connection points: 2
#     Edge 13, Type (0, 1), BuildingBlock: KIFKEQ_clean_linker_1, # of connection points: 2
#     Edge 14, Type (0, 1), BuildingBlock: KIFKEQ_clean_linker_1, # of connection points: 2
#     Edge 15, Type (0, 1), BuildingBlock: KIFKEQ_clean_linker_1, # of connection points: 2
#     Edge 16, Type (0, 1), BuildingBlock: KIFKEQ_clean_linker_1, # of connection points: 2
#     Edge 17, Type (0, 1), BuildingBlock: KIFKEQ_clean_linker_1, # of connection points: 2
#     Edge 18, Type (0, 1), BuildingBlock: KIFKEQ_clean_linker_1, # of connection points: 2
#     Edge 19, Type (0, 1), BuildingBlock: KIFKEQ_clean_linker_1, # of connection points: 2
#     Edge 20, Type (0, 1), BuildingBlock: KIFKEQ_clean_linker_1, # of connection points: 2
#     Edge 21, Type (0, 1), BuildingBlock: KIFKEQ_clean_linker_1, # of connection points: 2
#     Edge 22, Type (0, 1), BuildingBlock: KIFKEQ_clean_linker_1, # of connection points: 2
#     Edge 23, Type (0, 1), BuildingBlock: KIFKEQ_clean_linker_1, # of connection points: 2
#     Edge 24, Type (0, 1), BuildingBlock: KIFKEQ_clean_linker_1, # of connection points: 2
#     Edge 25, Type (0, 1), BuildingBlock: KIFKEQ_clean_linker_1, # of connection points: 2
#     Edge 26, Type (0, 1), BuildingBlock: KIFKEQ_clean_linker_1, # of connection points: 2
#     Edge 27, Type (0, 1), BuildingBlock: KIFKEQ_clean_linker_1, # of connection points: 2
#     Edge 28, Type (0, 1), BuildingBlock: KIFKEQ_clean_linker_1, # of connection points: 2
#     Edge 29, Type (0, 1), BuildingBlock: KIFKEQ_clean_linker_1, # of connection points: 2
#     Edge 30, Type (0, 1), BuildingBlock: KIFKEQ_clean_linker_1, # of connection points: 2
#     Edge 31, Type (0, 1), BuildingBlock: KIFKEQ_clean_linker_1, # of connection points: 2
#     Edge 32, Type (0, 1), BuildingBlock: KIFKEQ_clean_linker_1, # of connection points: 2
#     Edge 33, Type (0, 1), BuildingBlock: KIFKEQ_clean_linker_1, # of connection points: 2
#     Edge 34, Type (0, 1), BuildingBlock: KIFKEQ_clean_linker_1, # of connection points: 2
#     Edge 35, Type (0, 1), BuildingBlock: KIFKEQ_clean_linker_1, # of connection points: 2
# Relax obj value: 0.003
# Max RMSD: 0.059
# Mean RMSD: 0.046
data_MOF--net-cml--node1-OJICUG_clean_sbu_0--node2-CUQRIR_clean_linker_1--edge1-KIFKEQ_clean_linker_1
_symmetry_space_group_name_H-M    P1
_symmetry_Int_Tables_number       1
_symmetry_cell_setting            triclinic
loop_
_symmetry_equiv_pos_as_xyz
'x, y, z'
_cell_length_a     38.869426
_cell_length_b     37.909548
_cell_length_c     32.683573
_cell_angle_alpha  90.003013
_cell_angle_beta   90.0147
_cell_angle_gamma 90.095564
loop_
_atom_site_label
_atom_site_type_symbol
_atom_site_fract_x
_atom_site_fract_y
_atom_site_fract_z
_atom_type_partial_charge
C0 C 0.2386 0.3481 0.03485 0.0
N1 N 0.26527 0.37111 0.03519 0.0
N2 N 0.22179 0.34956 0.99858 0.0
C3 C 0.23101 0.32189 0.06823 0.0
C4 C 0.23917 0.37427 0.97698 0.0
N5 N 0.26592 0.38706 0.99899 0.0
C6 C 0.22854 0.3874 0.9354 0.0
H7 H 0.22104 0.29683 0.05525 0.0
H8 H 0.21101 0.33304 0.08867 0.0
H9 H 0.25425 0.31625 0.0868 0.0
H10 H 0.20032 0.38467 0.93122 0.0
H11 H 0.24148 0.37148 0.91146 0.0
H12 H 0.23598 0.41545 0.93126 0.0
C13 C 0.74255 0.65927 0.52765 0.0
N14 N 0.71716 0.63492 0.52975 0.0
N15 N 0.76046 0.65578 0.49233 0.0
C16 C 0.75095 0.68529 0.56095 0.0
C17 C 0.7451 0.62825 0.47313 0.0
N18 N 0.71894 0.61541 0.49608 0.0
C19 C 0.75342 0.61621 0.43038 0.0
H20 H 0.73548 0.70952 0.55632 0.0
H21 H 0.77861 0.69255 0.56026 0.0
H22 H 0.74449 0.67424 0.59144 0.0
H23 H 0.77304 0.59504 0.43204 0.0
H24 H 0.76398 0.6382 0.41182 0.0
H25 H 0.7303 0.60542 0.41487 0.0
C26 C 0.75231 0.3531 0.0396 0.0
N27 N 0.726 0.37638 0.03877 0.0
N28 N 0.76802 0.35159 1.00265 0.0
C29 C 0.76077 0.32973 0.07534 0.0
C30 C 0.75009 0.37456 0.9792 0.0
N31 N 0.72437 0.38937 1.00111 0.0
C32 C 0.75608 0.38047 0.93423 0.0
H33 H 0.75853 0.34459 0.10443 0.0
H34 H 0.78713 0.31878 0.07266 0.0
H35 H 0.74205 0.30761 0.07632 0.0
H36 H 0.743 0.35923 0.91677 0.0
H37 H 0.78386 0.37946 0.9268 0.0
H38 H 0.74567 0.4063 0.92424 0.0
C39 C 0.23632 0.64192 0.5412 0.0
N40 N 0.263 0.61907 0.54064 0.0
N41 N 0.22085 0.64319 0.50407 0.0
C42 C 0.22728 0.66519 0.57683 0.0
C43 C 0.2393 0.62053 0.48081 0.0
N44 N 0.26507 0.60611 0.50299 0.0
C45 C 0.23382 0.61465 0.43573 0.0
H46 H 0.20098 0.67617 0.57362 0.0
H47 H 0.24602 0.68727 0.57839 0.0
H48 H 0.22902 0.65022 0.60589 0.0
H49 H 0.2466 0.63624 0.41855 0.0
H50 H 0.2061 0.61506 0.42796 0.0
H51 H 0.24486 0.58909 0.42575 0.0
C52 C 0.74433 0.84182 0.0352 0.0
N53 N 0.77121 0.86463 0.03593 0.0
N54 N 0.72837 0.84265 0.99843 0.0
C55 C 0.73221 0.82025 0.07108 0.0
C56 C 0.74628 0.86689 0.97674 0.0
N57 N 0.77215 0.88052 0.99962 0.0
C58 C 0.74084 0.87426 0.93191 0.0
H59 H 0.7447 0.79397 0.07019 0.0
H60 H 0.70395 0.81624 0.06968 0.0
H61 H 0.73899 0.83329 0.1004 0.0
H62 H 0.7223 0.8963 0.92865 0.0
H63 H 0.73009 0.85085 0.91602 0.0
H64 H 0.76529 0.88191 0.91679 0.0
C65 C 0.24593 0.1567 0.53382 0.0
N66 N 0.22086 0.13199 0.53648 0.0
N67 N 0.26491 0.15173 0.49955 0.0
C68 C 0.25027 0.18704 0.56305 0.0
C69 C 0.25053 0.12306 0.48164 0.0
N70 N 0.22395 0.11088 0.5043 0.0
C71 C 0.26075 0.10861 0.44057 0.0
H72 H 0.23495 0.20973 0.55179 0.0
H73 H 0.27749 0.1955 0.5651 0.0
H74 H 0.24096 0.17989 0.59405 0.0
H75 H 0.25884 0.07943 0.44037 0.0
H76 H 0.28737 0.11652 0.43244 0.0
H77 H 0.24284 0.11896 0.41702 0.0
C78 C 0.25011 0.84938 0.0327 0.0
N79 N 0.2241 0.87308 0.03358 0.0
N80 N 0.26452 0.84821 0.99494 0.0
C81 C 0.2591 0.82488 0.0673 0.0
C82 C 0.24622 0.87192 0.97295 0.0
N83 N 0.22152 0.88675 0.99631 0.0
C84 C 0.2533 0.88156 0.9291 0.0
H85 H 0.27965 0.83725 0.08604 0.0
H86 H 0.2688 0.79931 0.05555 0.0
H87 H 0.23656 0.81996 0.08732 0.0
H88 H 0.23697 0.86507 0.90883 0.0
H89 H 0.28068 0.87684 0.92123 0.0
H90 H 0.24692 0.90965 0.92337 0.0
C91 C 0.7492 0.15804 0.52662 0.0
N92 N 0.77463 0.13363 0.52842 0.0
N93 N 0.7337 0.15739 0.48947 0.0
C94 C 0.74202 0.1851 0.55922 0.0
C95 C 0.75067 0.13194 0.46869 0.0
N96 N 0.77564 0.11768 0.4922 0.0
C97 C 0.74177 0.11981 0.42614 0.0
H98 H 0.72245 0.17441 0.58061 0.0
H99 H 0.73182 0.20979 0.54567 0.0
H100 H 0.76563 0.19136 0.57686 0.0
H101 H 0.75734 0.13496 0.40375 0.0
H102 H 0.71414 0.1243 0.41945 0.0
H103 H 0.74772 0.09139 0.42224 0.0
Sc104 Sc -0.0 0.83227 0.314 0.0
Sc105 Sc -0.00079 0.92536 0.31514 0.0
Sc106 Sc -0.00143 0.87797 0.408 0.0
O107 O -0.00072 0.87854 0.34569 0.0
C108 C 0.94708 0.81492 0.3861 0.0
C109 C 0.94965 0.87894 0.25881 0.0
C110 C 0.94741 0.94163 0.38849 0.0
C111 C 0.0518 0.87967 0.26163 0.0
C112 C 0.04952 0.81408 0.38899 0.0
C113 C 0.04994 0.94177 0.3901 0.0
O114 O 0.95948 0.8095 0.35062 0.0
O115 O 0.96003 0.90851 0.27245 0.0
O116 O 0.95946 0.91798 0.41199 0.0
O117 O 0.04032 0.85003 0.27382 0.0
O118 O 0.03768 0.83806 0.41216 0.0
O119 O 0.0381 0.94796 0.3545 0.0
O120 O 0.03862 0.80905 0.35279 0.0
O121 O 0.03976 0.90901 0.27402 0.0
O122 O 0.03865 0.917 0.41266 0.0
O123 O 0.96171 0.8496 0.27094 0.0
O124 O 0.95836 0.83883 0.40994 0.0
O125 O 0.95873 0.94691 0.35251 0.0
Sc126 Sc 0.99178 0.16512 0.81519 0.0
Sc127 Sc 0.99383 0.07218 0.81492 0.0
Sc128 Sc 0.99276 0.11867 0.90853 0.0
O129 O 0.99278 0.11863 0.8462 0.0
C130 C 0.04223 0.18403 0.88867 0.0
C131 C 0.04387 0.11949 0.76062 0.0
C132 C 0.04555 0.05696 0.88934 0.0
C133 C 0.94166 0.11776 0.76084 0.0
C134 C 0.94021 0.18072 0.88947 0.0
C135 C 0.94371 0.05312 0.88878 0.0
O136 O 0.03214 0.18789 0.85193 0.0
O137 O 0.03401 0.08972 0.77424 0.0
O138 O 0.03447 0.08168 0.91204 0.0
O139 O 0.95114 0.14744 0.77513 0.0
O140 O 0.95086 0.15561 0.91192 0.0
O141 O 0.95348 0.04935 0.8519 0.0
O142 O 0.95303 0.18751 0.85453 0.0
O143 O 0.95518 0.08868 0.77164 0.0
O144 O 0.95609 0.07635 0.91263 0.0
O145 O 0.03068 0.14851 0.77222 0.0
O146 O 0.02978 0.16081 0.9125 0.0
O147 O 0.03303 0.05026 0.8542 0.0
Sc148 Sc 0.49492 0.33356 0.31153 0.0
Sc149 Sc 0.49327 0.42663 0.31285 0.0
Sc150 Sc 0.49577 0.37909 0.40557 0.0
O151 O 0.49463 0.37977 0.34329 0.0
C152 C 0.44448 0.31544 0.38601 0.0
C153 C 0.4427 0.37943 0.25818 0.0
C154 C 0.44321 0.44214 0.38792 0.0
C155 C 0.54518 0.38178 0.25777 0.0
C156 C 0.54709 0.31611 0.38418 0.0
C157 C 0.54553 0.44373 0.38612 0.0
O158 O 0.45597 0.31011 0.35007 0.0
O159 O 0.45393 0.40904 0.27077 0.0
O160 O 0.4566 0.41889 0.41094 0.0
O161 O 0.53363 0.35203 0.26951 0.0
O162 O 0.5351 0.33942 0.40813 0.0
O163 O 0.53223 0.45018 0.35134 0.0
O164 O 0.53555 0.31127 0.34821 0.0
O165 O 0.53358 0.41098 0.27111 0.0
O166 O 0.53576 0.41831 0.40867 0.0
O167 O 0.45469 0.35015 0.2706 0.0
O168 O 0.45604 0.3396 0.40928 0.0
O169 O 0.453 0.44734 0.35127 0.0
Sc170 Sc 0.49438 0.66387 0.81369 0.0
Sc171 Sc 0.49579 0.57094 0.81446 0.0
Sc172 Sc 0.49428 0.6181 0.90724 0.0
O173 O 0.49481 0.61764 0.8451 0.0
C174 C 0.54545 0.68125 0.88808 0.0
C175 C 0.5458 0.61866 0.7594 0.0
C176 C 0.54649 0.55477 0.88794 0.0
C177 C 0.44348 0.61532 0.76041 0.0
C178 C 0.44325 0.68181 0.88647 0.0
C179 C 0.44462 0.55402 0.88902 0.0
O180 O 0.53211 0.68807 0.8534 0.0
O181 O 0.53275 0.58918 0.76974 0.0
O182 O 0.53184 0.57649 0.91191 0.0
O183 O 0.45668 0.64487 0.77035 0.0
O184 O 0.45676 0.65968 0.91082 0.0
O185 O 0.45913 0.54638 0.85527 0.0
O186 O 0.45281 0.68518 0.84949 0.0
O187 O 0.45362 0.58614 0.77538 0.0
O188 O 0.45271 0.58083 0.91025 0.0
O189 O 0.53588 0.64784 0.77442 0.0
O190 O 0.53565 0.65561 0.9103 0.0
O191 O 0.53795 0.55128 0.85058 0.0
H192 H 0.22561 0.30982 0.9308 0.0
H193 H 0.16001 0.33565 0.03266 0.0
H194 H 0.1817 0.26988 0.90392 0.0
H195 H 0.11579 0.29528 0.00618 0.0
H196 H 0.06452 0.19021 0.96781 0.0
H197 H 0.10767 0.23066 0.99481 0.0
H198 H 0.12324 0.27349 0.87378 0.0
H199 H 0.08032 0.23285 0.84649 0.0
C200 C 0.20151 0.30711 0.9471 0.0
C201 C 0.19581 0.32592 0.98342 0.0
C202 C 0.17645 0.28429 0.93184 0.0
C203 C 0.14525 0.27962 0.95282 0.0
C204 C 0.13971 0.29819 0.98953 0.0
C205 C 0.16482 0.32123 0.00466 0.0
C206 C 0.07718 0.20815 0.94685 0.0
C207 C 0.06897 0.20818 0.9049 0.0
C208 C 0.10171 0.23151 0.96245 0.0
C209 C 0.11876 0.25525 0.93643 0.0
C210 C 0.11071 0.25524 0.8945 0.0
C211 C 0.08602 0.23203 0.87891 0.0
H212 H 0.75801 0.72645 0.48561 0.0
H213 H 0.82253 0.63613 0.46358 0.0
H214 H 0.8031 0.76543 0.45931 0.0
H215 H 0.86775 0.67492 0.4366 0.0
H216 H 0.92309 0.75383 0.35135 0.0
H217 H 0.87766 0.71513 0.37679 0.0
H218 H 0.86198 0.78472 0.47967 0.0
H219 H 0.90715 0.8236 0.45431 0.0
C220 C 0.78206 0.7151 0.47542 0.0
C221 C 0.78711 0.67849 0.47683 0.0
C222 C 0.80779 0.73728 0.46032 0.0
C223 C 0.83896 0.72321 0.44598 0.0
C224 C 0.84385 0.68647 0.44706 0.0
C225 C 0.81815 0.66432 0.46249 0.0
C226 C 0.90987 0.76101 0.37931 0.0
C227 C 0.91881 0.79187 0.40077 0.0
C228 C 0.88402 0.73868 0.394 0.0
C229 C 0.86634 0.74688 0.43024 0.0
C230 C 0.87497 0.77788 0.45146 0.0
C231 C 0.90099 0.80006 0.43699 0.0
H232 H 0.83157 0.36562 0.97478 0.0
H233 H 0.76031 0.28124 0.99961 0.0
H234 H 0.87294 0.32308 0.94703 0.0
H235 H 0.80154 0.23833 0.97226 0.0
H236 H 0.90147 0.17221 0.95892 0.0
H237 H 0.85977 0.21333 0.98776 0.0
H238 H 0.87584 0.28377 0.88571 0.0
H239 H 0.91763 0.24299 0.85688 0.0
C240 C 0.82499 0.33785 0.97425 0.0
C241 C 0.79302 0.32643 0.98893 0.0
C242 C 0.84843 0.31358 0.95835 0.0
C243 C 0.84032 0.27742 0.95723 0.0
C244 C 0.80856 0.26598 0.97298 0.0
C245 C 0.78504 0.29036 0.98858 0.0
C246 C 0.89601 0.19637 0.94248 0.0
C247 C 0.91304 0.20431 0.90562 0.0
C248 C 0.87203 0.21984 0.95897 0.0
C249 C 0.86479 0.25186 0.93914 0.0
C250 C 0.88131 0.25952 0.90198 0.0
C251 C 0.90506 0.23598 0.88532 0.0
H252 H 0.22791 0.71359 0.50149 0.0
H253 H 0.15781 0.6286 0.47484 0.0
H254 H 0.18662 0.75619 0.47366 0.0
H255 H 0.11639 0.67086 0.4465 0.0
H256 H 0.07241 0.752 0.35609 0.0
H257 H 0.11385 0.7109 0.38535 0.0
H258 H 0.12788 0.78013 0.48894 0.0
H259 H 0.08658 0.82145 0.45976 0.0
C260 C 0.20342 0.70427 0.48995 0.0
C261 C 0.19578 0.66812 0.48998 0.0
C262 C 0.17987 0.72846 0.47406 0.0
C263 C 0.14841 0.71678 0.45767 0.0
C264 C 0.14066 0.68053 0.45836 0.0
C265 C 0.16412 0.65643 0.47459 0.0
C266 C 0.08446 0.75863 0.38498 0.0
C267 C 0.07609 0.79003 0.4056 0.0
C268 C 0.10798 0.73493 0.40186 0.0
C269 C 0.12389 0.74224 0.43952 0.0
C270 C 0.11612 0.77392 0.45976 0.0
C271 C 0.09236 0.7975 0.44308 0.0
H272 H 0.72873 0.77181 0.99944 0.0
H273 H 0.66846 0.86195 0.96378 0.0
H274 H 0.68443 0.73232 0.97239 0.0
H275 H 0.62377 0.82266 0.93653 0.0
H276 H 0.57156 0.74122 0.85274 0.0
H277 H 0.61575 0.78044 0.87995 0.0
H278 H 0.62525 0.71414 0.98682 0.0
H279 H 0.58159 0.6746 0.95953 0.0
C280 C 0.70564 0.78301 0.98627 0.0
C281 C 0.70162 0.81969 0.98385 0.0
C282 C 0.68035 0.76054 0.97073 0.0
C283 C 0.65059 0.77439 0.95234 0.0
C284 C 0.64661 0.81121 0.95007 0.0
C285 C 0.67194 0.83366 0.96574 0.0
C286 C 0.58313 0.73489 0.88197 0.0
C287 C 0.57297 0.70469 0.9039 0.0
C288 C 0.60828 0.75753 0.89768 0.0
C289 C 0.6239 0.75042 0.93557 0.0
C290 C 0.61395 0.72013 0.95734 0.0
C291 C 0.58878 0.69755 0.94172 0.0
H292 H 0.32716 0.16596 0.5314 0.0
H293 H 0.26031 0.18891 0.42983 0.0
H294 H 0.37074 0.20615 0.50337 0.0
H295 H 0.30375 0.22893 0.40121 0.0
H296 H 0.40651 0.26635 0.34388 0.0
H297 H 0.36296 0.22627 0.3711 0.0
H298 H 0.37695 0.27099 0.49147 0.0
H299 H 0.42056 0.31092 0.46457 0.0
C300 C 0.32193 0.17985 0.50313 0.0
C301 C 0.2906 0.17482 0.48276 0.0
C302 C 0.34668 0.20278 0.4871 0.0
C303 C 0.34057 0.22077 0.45017 0.0
C304 C 0.30929 0.21521 0.42953 0.0
C305 C 0.28447 0.1925 0.4458 0.0
C306 C 0.40028 0.26771 0.37614 0.0
C307 C 0.41713 0.29186 0.40201 0.0
C308 C 0.37522 0.24485 0.39166 0.0
C309 C 0.36667 0.24542 0.43343 0.0
C310 C 0.38332 0.26966 0.45924 0.0
C311 C 0.40814 0.29271 0.4437 0.0
H312 H 0.32775 0.83683 0.02603 0.0
H313 H 0.25806 0.80465 0.9305 0.0
H314 H 0.3712 0.79566 0.99988 0.0
H315 H 0.3013 0.76389 0.90383 0.0
H316 H 0.40214 0.72712 0.8432 0.0
H317 H 0.35883 0.76743 0.87006 0.0
H318 H 0.37942 0.73042 0.99258 0.0
H319 H 0.42287 0.69026 0.966 0.0
C320 C 0.32186 0.8208 0.99951 0.0
C321 C 0.28992 0.82394 0.97994 0.0
C322 C 0.34654 0.79731 0.98457 0.0
C323 C 0.33965 0.77672 0.94969 0.0
C324 C 0.30752 0.77982 0.93035 0.0
C325 C 0.28284 0.80309 0.94548 0.0
C326 C 0.39742 0.72748 0.87586 0.0
C327 C 0.41603 0.70542 0.9024 0.0
C328 C 0.37251 0.75048 0.8912 0.0
C329 C 0.36585 0.75209 0.93341 0.0
C330 C 0.38431 0.73 0.95995 0.0
C331 C 0.40902 0.70681 0.94462 0.0
H332 H 0.67214 0.16966 0.52433 0.0
H333 H 0.73566 0.19668 0.42095 0.0
H334 H 0.62667 0.20858 0.49862 0.0
H335 H 0.6903 0.23526 0.39469 0.0
H336 H 0.58551 0.26855 0.34061 0.0
H337 H 0.63076 0.22988 0.3663 0.0
H338 H 0.61754 0.27307 0.48753 0.0
H339 H 0.57221 0.31155 0.46218 0.0
C340 C 0.67625 0.1841 0.49617 0.0
C341 C 0.70709 0.18024 0.47441 0.0
C342 C 0.65041 0.2063 0.48146 0.0
C343 C 0.65495 0.22486 0.44458 0.0
C344 C 0.68589 0.2209 0.42286 0.0
C345 C 0.71178 0.1989 0.43777 0.0
C346 C 0.59224 0.26985 0.37274 0.0
C347 C 0.57517 0.29317 0.3993 0.0
C348 C 0.61827 0.24781 0.38738 0.0
C349 C 0.62758 0.24843 0.42892 0.0
C350 C 0.61061 0.27174 0.45545 0.0
C351 C 0.58479 0.29396 0.4408 0.0
H352 H 0.29028 0.44529 0.03711 0.0
H353 H 0.30153 0.38159 0.92882 0.0
H354 H 0.33501 0.4853 0.01218 0.0
H355 H 0.34348 0.42288 0.90171 0.0
H356 H 0.44058 0.48315 0.87765 0.0
H357 H 0.39911 0.44235 0.90687 0.0
H358 H 0.34661 0.52965 0.96491 0.0
H359 H 0.38974 0.57006 0.93766 0.0
C360 C 0.30227 0.44008 0.00785 0.0
C361 C 0.29233 0.4107 0.98462 0.0
C362 C 0.32752 0.4632 0.99319 0.0
C363 C 0.34291 0.45762 0.95467 0.0
C364 C 0.33282 0.42794 0.93172 0.0
C365 C 0.30824 0.40455 0.94682 0.0
C366 C 0.42008 0.49356 0.89655 0.0
C367 C 0.41824 0.52975 0.90523 0.0
C368 C 0.39612 0.4702 0.91323 0.0
C369 C 0.36916 0.48256 0.93817 0.0
C370 C 0.36727 0.51894 0.94653 0.0
C371 C 0.39178 0.54222 0.9306 0.0
H372 H 0.73072 0.54698 0.47987 0.0
H373 H 0.65163 0.62627 0.48328 0.0
H374 H 0.68898 0.5038 0.45343 0.0
H375 H 0.60973 0.5835 0.45674 0.0
H376 H 0.56099 0.51032 0.3597 0.0
H377 H 0.60319 0.55118 0.38829 0.0
H378 H 0.63334 0.47271 0.47695 0.0
H379 H 0.59099 0.43171 0.44861 0.0
C380 C 0.70424 0.55485 0.47523 0.0
C381 C 0.69403 0.58955 0.48355 0.0
C382 C 0.68044 0.53034 0.46027 0.0
C383 C 0.64622 0.54044 0.45285 0.0
C384 C 0.63602 0.57515 0.46181 0.0
C385 C 0.65974 0.59945 0.47725 0.0
C386 C 0.57673 0.50163 0.38511 0.0
C387 C 0.57255 0.46776 0.40191 0.0
C388 C 0.6007 0.52515 0.40165 0.0
C389 C 0.62132 0.51514 0.43497 0.0
C390 C 0.61781 0.48103 0.45118 0.0
C391 C 0.59348 0.45765 0.43502 0.0
H392 H 0.67937 0.37669 0.94038 0.0
H393 H 0.71056 0.45435 0.02904 0.0
H394 H 0.63625 0.41738 0.91321 0.0
H395 H 0.66807 0.49583 1.00164 0.0
H396 H 0.56503 0.54651 0.96815 0.0
H397 H 0.60746 0.50622 0.99634 0.0
H398 H 0.63279 0.47089 0.8743 0.0
H399 H 0.58959 0.51045 0.84609 0.0
C400 C 0.67697 0.40272 0.95371 0.0
C401 C 0.69826 0.41287 0.98624 0.0
C402 C 0.65251 0.42607 0.93817 0.0
C403 C 0.64894 0.46006 0.95492 0.0
C404 C 0.66993 0.4698 0.9882 0.0
C405 C 0.69427 0.44628 0.00383 0.0
C406 C 0.57973 0.53028 0.94724 0.0
C407 C 0.57376 0.53167 0.90481 0.0
C408 C 0.6042 0.50725 0.96345 0.0
C409 C 0.62346 0.48518 0.93764 0.0
C410 C 0.61795 0.48704 0.89515 0.0
C411 C 0.59332 0.50992 0.87893 0.0
H412 H 0.31089 0.61992 0.44356 0.0
H413 H 0.27881 0.54085 0.53002 0.0
H414 H 0.3543 0.5797 0.41616 0.0
H415 H 0.32147 0.49976 0.50224 0.0
H416 H 0.42398 0.44854 0.46809 0.0
H417 H 0.38175 0.48865 0.49707 0.0
H418 H 0.35795 0.52725 0.3759 0.0
H419 H 0.40101 0.48793 0.34699 0.0
C420 C 0.31321 0.5937 0.45639 0.0
C421 C 0.29157 0.58301 0.48835 0.0
C422 C 0.3378 0.5706 0.44069 0.0
C423 C 0.34112 0.53629 0.45663 0.0
C424 C 0.31983 0.52604 0.48943 0.0
C425 C 0.29539 0.54933 0.50527 0.0
C426 C 0.40964 0.46545 0.44755 0.0
C427 C 0.41601 0.46508 0.40518 0.0
C428 C 0.3853 0.48839 0.46421 0.0
C429 C 0.36654 0.51133 0.43888 0.0
C430 C 0.37243 0.51045 0.39642 0.0
C431 C 0.39696 0.48771 0.37978 0.0
H432 H 0.75879 0.94392 0.96674 0.0
H433 H 0.84151 0.87443 1.00137 0.0
H434 H 0.80061 0.98611 0.93888 0.0
H435 H 0.88354 0.91752 0.97559 0.0
H436 H 0.93767 0.03105 0.96763 0.0
H437 H 0.89627 0.98879 0.99561 0.0
H438 H 0.84992 0.97748 0.87639 0.0
H439 H 0.89199 0.01909 0.84785 0.0
C440 C 0.78598 0.93793 0.9686 0.0
C441 C 0.79708 0.90615 0.98619 0.0
C442 C 0.80976 0.96192 0.95276 0.0
C443 C 0.84508 0.95483 0.95514 0.0
C444 C 0.85634 0.92348 0.97365 0.0
C445 C 0.83245 0.89906 0.98861 0.0
C446 C 0.9186 0.01963 0.94738 0.0
C447 C 0.91795 0.02839 0.90556 0.0
C448 C 0.89513 0.99537 0.96338 0.0
C449 C 0.87013 0.98009 0.93805 0.0
C450 C 0.86905 0.98911 0.89641 0.0
C451 C 0.89308 0.01276 0.88015 0.0
H452 H 0.23175 0.04053 0.49931 0.0
H453 H 0.15985 0.12502 0.47958 0.0
H454 H 0.18987 0.998 0.47176 0.0
H455 H 0.1177 0.08294 0.45215 0.0
H456 H 0.0718 0.00515 0.35946 0.0
H457 H 0.11402 0.04537 0.38898 0.0
H458 H 0.13147 0.97239 0.4882 0.0
H459 H 0.08929 0.93192 0.45874 0.0
C460 C 0.20676 0.04971 0.48931 0.0
C461 C 0.19868 0.08566 0.49121 0.0
C462 C 0.18285 0.02558 0.47372 0.0
C463 C 0.15065 0.03724 0.4595 0.0
C464 C 0.14248 0.07329 0.46234 0.0
C465 C 0.16629 0.09726 0.47823 0.0
C466 C 0.08475 0.9975 0.38743 0.0
C467 C 0.07703 0.96531 0.40677 0.0
C468 C 0.10875 0.0207 0.40449 0.0
C469 C 0.12582 0.01211 0.44104 0.0
C470 C 0.11878 0.97962 0.45991 0.0
C471 C 0.09452 0.95653 0.44308 0.0
H472 H 0.17509 0.87626 0.9369 0.0
H473 H 0.21006 0.95178 0.02603 0.0
H474 H 0.13272 0.91845 0.91153 0.0
H475 H 0.16855 0.99502 1.00009 0.0
H476 H 0.06684 0.04995 0.96868 0.0
H477 H 0.10903 0.00876 0.99577 0.0
H478 H 0.12963 0.97134 0.87325 0.0
H479 H 0.08648 0.01157 0.84637 0.0
C480 C 0.17366 0.90217 0.95072 0.0
C481 C 0.1957 0.91121 0.98295 0.0
C482 C 0.14967 0.92642 0.93616 0.0
C483 C 0.14749 0.96038 0.95336 0.0
C484 C 0.16929 0.96906 0.98632 0.0
C485 C 0.19308 0.94453 1.00113 0.0
C486 C 0.08053 0.03308 0.94748 0.0
C487 C 0.07313 0.0339 0.90536 0.0
C488 C 0.10485 0.00952 0.96303 0.0
C489 C 0.12259 0.98648 0.93678 0.0
C490 C 0.11588 0.9881 0.89451 0.0
C491 C 0.0913 0.01136 0.87902 0.0
H492 H 0.7861 0.05326 0.52485 0.0
H493 H 0.82054 0.12443 0.43076 0.0
H494 H 0.82626 0.00814 0.49994 0.0
H495 H 0.86138 0.0804 0.40632 0.0
H496 H 0.90499 0.98486 0.34466 0.0
H497 H 0.86232 0.02591 0.37083 0.0
H498 H 0.88601 0.99351 0.49446 0.0
H499 H 0.92785 0.95147 0.46815 0.0
C500 C 0.80261 0.05913 0.49904 0.0
C501 C 0.80032 0.09182 0.47929 0.0
C502 C 0.82561 0.03354 0.48482 0.0
C503 C 0.84682 0.04047 0.45077 0.0
C504 C 0.84487 0.07374 0.43186 0.0
C505 C 0.82174 0.09904 0.44588 0.0
C506 C 0.90097 0.98634 0.37742 0.0
C507 C 0.92 0.96504 0.4043 0.0
C508 C 0.87664 0.01005 0.39248 0.0
C509 C 0.87101 0.01339 0.43483 0.0
C510 C 0.88943 0.99144 0.46167 0.0
C511 C 0.91354 0.96742 0.44656 0.0
H512 H 0.25562 0.39565 0.11135 0.0
H513 H 0.33203 0.35356 0.0296 0.0
H514 H 0.29868 0.39905 0.16637 0.0
H515 H 0.37525 0.35653 0.08436 0.0
H516 H 0.42532 0.32488 0.20763 0.0
H517 H 0.38245 0.3245 0.15317 0.0
H518 H 0.35565 0.43215 0.18171 0.0
H519 H 0.39885 0.43283 0.23623 0.0
C520 C 0.28179 0.38736 0.10537 0.0
C521 C 0.29087 0.37446 0.06668 0.0
C522 C 0.30635 0.38938 0.13655 0.0
C523 C 0.34023 0.37795 0.12959 0.0
C524 C 0.34925 0.36525 0.09061 0.0
C525 C 0.32478 0.36372 0.05933 0.0
C526 C 0.41022 0.34847 0.20251 0.0
C527 C 0.41554 0.37891 0.22632 0.0
C528 C 0.38586 0.34829 0.1711 0.0
C529 C 0.3659 0.37834 0.16313 0.0
C530 C 0.37066 0.40859 0.18733 0.0
C531 C 0.39545 0.40898 0.21841 0.0
H532 H 0.67312 0.68444 0.556 0.0
H533 H 0.70469 0.57691 0.57489 0.0
H534 H 0.63185 0.67934 0.61205 0.0
H535 H 0.66411 0.57155 0.63202 0.0
H536 H 0.56341 0.56593 0.70597 0.0
H537 H 0.60447 0.56891 0.64972 0.0
H538 H 0.63072 0.67562 0.68449 0.0
H539 H 0.58894 0.67306 0.7397 0.0
C540 C 0.67123 0.65979 0.57259 0.0
C541 C 0.69205 0.63117 0.56176 0.0
C542 C 0.64781 0.65682 0.60477 0.0
C543 C 0.64492 0.62515 0.62702 0.0
C544 C 0.66543 0.59623 0.61543 0.0
C545 C 0.6887 0.59921 0.58293 0.0
C546 C 0.57811 0.58995 0.70175 0.0
C547 C 0.57267 0.61934 0.7272 0.0
C548 C 0.60176 0.59162 0.66954 0.0
C549 C 0.62073 0.62263 0.66224 0.0
C550 C 0.616 0.6516 0.68853 0.0
C551 C 0.59217 0.65005 0.72044 0.0
H552 H 0.73176 0.409 0.11155 0.0
H553 H 0.66157 0.35174 0.03426 0.0
H554 H 0.68771 0.41199 0.16549 0.0
H555 H 0.61731 0.35457 0.08765 0.0
H556 H 0.56754 0.32673 0.21087 0.0
H557 H 0.61114 0.32752 0.15748 0.0
H558 H 0.62865 0.43843 0.17912 0.0
H559 H 0.58487 0.43784 0.23287 0.0
C560 C 0.70671 0.39733 0.10627 0.0
C561 C 0.69972 0.38003 0.06931 0.0
C562 C 0.68155 0.39912 0.13681 0.0
C563 C 0.64917 0.38329 0.13083 0.0
C564 C 0.64215 0.36661 0.0933 0.0
C565 C 0.66721 0.36513 0.06275 0.0
C566 C 0.58069 0.35132 0.20447 0.0
C567 C 0.5726 0.38225 0.22619 0.0
C568 C 0.60552 0.35179 0.17363 0.0
C569 C 0.62311 0.38308 0.16397 0.0
C570 C 0.61556 0.41391 0.18606 0.0
C571 C 0.5904 0.41356 0.2167 0.0
H572 H 0.25683 0.58752 0.61402 0.0
H573 H 0.3275 0.64358 0.5362 0.0
H574 H 0.30054 0.58534 0.66838 0.0
H575 H 0.37149 0.64141 0.58995 0.0
H576 H 0.42207 0.66999 0.71216 0.0
H577 H 0.37841 0.66905 0.6588 0.0
H578 H 0.35872 0.55898 0.68346 0.0
H579 H 0.40242 0.55976 0.73721 0.0
C580 C 0.28192 0.59911 0.60872 0.0
C581 C 0.28913 0.61582 0.57146 0.0
C582 C 0.3069 0.59777 0.63951 0.0
C583 C 0.33935 0.61344 0.63349 0.0
C584 C 0.34659 0.62954 0.59568 0.0
C585 C 0.32169 0.6306 0.5649 0.0
C586 C 0.40841 0.64556 0.70644 0.0
C587 C 0.41589 0.61492 0.729 0.0
C588 C 0.38354 0.645 0.67561 0.0
C589 C 0.36533 0.61388 0.66677 0.0
C590 C 0.37226 0.58338 0.68974 0.0
C591 C 0.3974 0.58383 0.7204 0.0
H592 H 0.80521 0.81195 0.07286 0.0
H593 H 0.79445 0.92499 0.07098 0.0
H594 H 0.84662 0.81634 0.12808 0.0
H595 H 0.83882 0.93019 0.12387 0.0
H596 H 0.89657 0.92521 0.2463 0.0
H597 H 0.85273 0.92269 0.19274 0.0
H598 H 0.9024 0.83045 0.14195 0.0
H599 H 0.94429 0.83178 0.19685 0.0
C600 C 0.81185 0.83782 0.08445 0.0
C601 C 0.7964 0.86807 0.06811 0.0
C602 C 0.83618 0.84051 0.1156 0.0
C603 C 0.84663 0.8737 0.13047 0.0
C604 C 0.83123 0.90413 0.11376 0.0
C605 C 0.80614 0.90129 0.08312 0.0
C606 C 0.89783 0.90437 0.22367 0.0
C607 C 0.92349 0.87841 0.22601 0.0
C608 C 0.87289 0.90303 0.19273 0.0
C609 C 0.87358 0.87613 0.16296 0.0
C610 C 0.9001 0.8509 0.16488 0.0
C611 C 0.92438 0.85175 0.19627 0.0
H612 H 0.17294 0.18048 0.55524 0.0
H613 H 0.21002 0.07708 0.58658 0.0
H614 H 0.12977 0.17675 0.60951 0.0
H615 H 0.16781 0.07327 0.64206 0.0
H616 H 0.06679 0.065 0.71291 0.0
H617 H 0.10865 0.06742 0.6576 0.0
H618 H 0.12494 0.17835 0.68155 0.0
H619 H 0.08213 0.17619 0.73575 0.0
C620 C 0.17182 0.15707 0.57419 0.0
C621 C 0.19473 0.12921 0.56742 0.0
C622 C 0.14734 0.1549 0.60537 0.0
C623 C 0.14547 0.12485 0.63063 0.0
C624 C 0.16818 0.09667 0.62308 0.0
C625 C 0.19243 0.09879 0.59156 0.0
C626 C 0.07942 0.08988 0.7065 0.0
C627 C 0.07097 0.12043 0.7287 0.0
C628 C 0.10357 0.09124 0.67481 0.0
C629 C 0.12014 0.12313 0.66482 0.0
C630 C 0.11218 0.1535 0.68769 0.0
C631 C 0.08778 0.15221 0.71904 0.0
H632 H 0.23596 0.89956 0.10867 0.0
H633 H 0.15728 0.8558 0.031 0.0
H634 H 0.19456 0.90307 0.16556 0.0
H635 H 0.11584 0.85891 0.08748 0.0
H636 H 0.07078 0.8253 0.21188 0.0
H637 H 0.11274 0.82614 0.15657 0.0
H638 H 0.13649 0.93494 0.18344 0.0
H639 H 0.09409 0.93442 0.23892 0.0
C640 C 0.20964 0.89108 0.10393 0.0
C641 C 0.19944 0.87756 0.06588 0.0
C642 C 0.18604 0.89313 0.13618 0.0
C643 C 0.15211 0.88107 0.13088 0.0
C644 C 0.14192 0.86809 0.09245 0.0
C645 C 0.16537 0.86653 0.06017 0.0
C646 C 0.08505 0.8494 0.20631 0.0
C647 C 0.07899 0.87984 0.22983 0.0
C648 C 0.1089 0.8499 0.17441 0.0
C649 C 0.12761 0.88067 0.16559 0.0
C650 C 0.12238 0.91087 0.1897 0.0
C651 C 0.09807 0.91056 0.22132 0.0
H652 H 0.8442 0.13278 0.52561 0.0
H653 H 0.75766 0.122 0.60721 0.0
H654 H 0.88368 0.12516 0.58343 0.0
H655 H 0.79718 0.11662 0.66551 0.0
H656 H 0.88895 0.16437 0.74956 0.0
H657 H 0.847 0.16513 0.69353 0.0
H658 H 0.89333 0.07174 0.64228 0.0
H659 H 0.93468 0.07021 0.69882 0.0
C660 C 0.83368 0.12828 0.55582 0.0
C661 C 0.79795 0.12772 0.56204 0.0
C662 C 0.85619 0.12421 0.58883 0.0
C663 C 0.8433 0.12041 0.62871 0.0
C664 C 0.80761 0.11969 0.63498 0.0
C665 C 0.78512 0.12287 0.60182 0.0
C666 C 0.88994 0.14381 0.72656 0.0
C667 C 0.91502 0.11721 0.72857 0.0
C668 C 0.86593 0.14421 0.69469 0.0
C669 C 0.86715 0.11852 0.6638 0.0
C670 C 0.89202 0.09181 0.66584 0.0
C671 C 0.91548 0.09089 0.69823 0.0
loop_
_geom_bond_atom_site_label_1
_geom_bond_atom_site_label_2
_geom_bond_distance
_geom_bond_site_symmetry_2
_ccdc_geom_bond_type
C0 N1 1.317 . S
C0 N2 1.348 1_554 S
C0 C3 1.485 . S
N1 C0 1.317 . S
N1 N5 1.370 1_554 S
N2 C0 1.348 1_556 S
N2 C4 1.346 . S
C3 C0 1.485 . S
C3 H7 0.960 . S
C3 H8 0.961 . S
C3 H9 0.960 . S
C4 N2 1.346 . S
C4 N5 1.307 . S
C4 C6 1.486 . S
N5 N1 1.370 1_556 S
N5 C4 1.307 . S
C6 C4 1.486 . S
C6 H10 0.960 . S
C6 H11 0.960 . S
C6 H12 0.959 . S
H7 C3 0.960 . S
H8 C3 0.961 . S
H9 C3 0.960 . S
H10 C6 0.960 . S
H11 C6 0.960 . S
H12 C6 0.959 . S
C13 N14 1.317 . S
C13 N15 1.348 . S
C13 C16 1.485 . S
N14 C13 1.317 . S
N14 N18 1.370 . S
N15 C13 1.348 . S
N15 C17 1.346 . S
C16 C13 1.485 . S
C16 H20 0.960 . S
C16 H21 0.961 . S
C16 H22 0.960 . S
C17 N15 1.346 . S
C17 N18 1.307 . S
C17 C19 1.486 . S
N18 N14 1.370 . S
N18 C17 1.307 . S
C19 C17 1.486 . S
C19 H23 0.960 . S
C19 H24 0.960 . S
C19 H25 0.959 . S
H20 C16 0.960 . S
H21 C16 0.961 . S
H22 C16 0.960 . S
H23 C19 0.960 . S
H24 C19 0.960 . S
H25 C19 0.959 . S
C26 N27 1.317 . S
C26 N28 1.348 1_554 S
C26 C29 1.485 . S
N27 C26 1.317 . S
N27 N31 1.370 1_554 S
N28 C26 1.348 1_556 S
N28 C30 1.346 . S
C29 C26 1.485 . S
C29 H33 0.960 . S
C29 H34 0.961 . S
C29 H35 0.960 . S
C30 N28 1.346 . S
C30 N31 1.307 . S
C30 C32 1.486 . S
N31 N27 1.370 1_556 S
N31 C30 1.307 . S
C32 C30 1.486 . S
C32 H36 0.960 . S
C32 H37 0.960 . S
C32 H38 0.959 . S
H33 C29 0.960 . S
H34 C29 0.961 . S
H35 C29 0.960 . S
H36 C32 0.960 . S
H37 C32 0.960 . S
H38 C32 0.959 . S
C39 N40 1.317 . S
C39 N41 1.348 . S
C39 C42 1.485 . S
N40 C39 1.317 . S
N40 N44 1.370 . S
N41 C39 1.348 . S
N41 C43 1.346 . S
C42 C39 1.485 . S
C42 H46 0.960 . S
C42 H47 0.961 . S
C42 H48 0.960 . S
C43 N41 1.346 . S
C43 N44 1.307 . S
C43 C45 1.486 . S
N44 N40 1.370 . S
N44 C43 1.307 . S
C45 C43 1.486 . S
C45 H49 0.960 . S
C45 H50 0.960 . S
C45 H51 0.959 . S
H46 C42 0.960 . S
H47 C42 0.961 . S
H48 C42 0.960 . S
H49 C45 0.960 . S
H50 C45 0.960 . S
H51 C45 0.959 . S
C52 N53 1.317 . S
C52 N54 1.348 1_554 S
C52 C55 1.485 . S
N53 C52 1.317 . S
N53 N57 1.370 1_554 S
N54 C52 1.348 1_556 S
N54 C56 1.346 . S
C55 C52 1.485 . S
C55 H59 0.960 . S
C55 H60 0.961 . S
C55 H61 0.960 . S
C56 N54 1.346 . S
C56 N57 1.307 . S
C56 C58 1.486 . S
N57 N53 1.370 1_556 S
N57 C56 1.307 . S
C58 C56 1.486 . S
C58 H62 0.960 . S
C58 H63 0.960 . S
C58 H64 0.959 . S
H59 C55 0.960 . S
H60 C55 0.961 . S
H61 C55 0.960 . S
H62 C58 0.960 . S
H63 C58 0.960 . S
H64 C58 0.959 . S
C65 N66 1.317 . S
C65 N67 1.348 . S
C65 C68 1.485 . S
N66 C65 1.317 . S
N66 N70 1.370 . S
N67 C65 1.348 . S
N67 C69 1.346 . S
C68 C65 1.485 . S
C68 H72 0.960 . S
C68 H73 0.961 . S
C68 H74 0.960 . S
C69 N67 1.346 . S
C69 N70 1.307 . S
C69 C71 1.486 . S
N70 N66 1.370 . S
N70 C69 1.307 . S
C71 C69 1.486 . S
C71 H75 0.960 . S
C71 H76 0.960 . S
C71 H77 0.959 . S
H72 C68 0.960 . S
H73 C68 0.961 . S
H74 C68 0.960 . S
H75 C71 0.960 . S
H76 C71 0.960 . S
H77 C71 0.959 . S
C78 N79 1.317 . S
C78 N80 1.348 1_554 S
C78 C81 1.485 . S
N79 C78 1.317 . S
N79 N83 1.370 1_554 S
N80 C78 1.348 1_556 S
N80 C82 1.346 . S
C81 C78 1.485 . S
C81 H85 0.960 . S
C81 H86 0.961 . S
C81 H87 0.960 . S
C82 N80 1.346 . S
C82 N83 1.307 . S
C82 C84 1.486 . S
N83 N79 1.370 1_556 S
N83 C82 1.307 . S
C84 C82 1.486 . S
C84 H88 0.960 . S
C84 H89 0.960 . S
C84 H90 0.959 . S
H85 C81 0.960 . S
H86 C81 0.961 . S
H87 C81 0.960 . S
H88 C84 0.960 . S
H89 C84 0.960 . S
H90 C84 0.959 . S
C91 N92 1.317 . S
C91 N93 1.348 . S
C91 C94 1.485 . S
N92 C91 1.317 . S
N92 N96 1.370 . S
N93 C91 1.348 . S
N93 C95 1.346 . S
C94 C91 1.485 . S
C94 H98 0.960 . S
C94 H99 0.961 . S
C94 H100 0.960 . S
C95 N93 1.346 . S
C95 N96 1.307 . S
C95 C97 1.486 . S
N96 N92 1.370 . S
N96 C95 1.307 . S
C97 C95 1.486 . S
C97 H101 0.960 . S
C97 H102 0.960 . S
C97 H103 0.959 . S
H98 C94 0.960 . S
H99 C94 0.961 . S
H100 C94 0.960 . S
H101 C97 0.960 . S
H102 C97 0.960 . S
H103 C97 0.959 . S
Sc104 O107 2.025 . S
Sc104 O114 2.105 1_455 S
Sc104 O117 2.105 . S
Sc104 O120 2.105 . S
Sc104 O123 2.105 1_455 S
Sc105 O107 2.025 . S
Sc105 O115 2.105 1_455 S
Sc105 O119 2.105 . S
Sc105 O121 2.105 . S
Sc105 O125 2.105 1_455 S
Sc106 O107 2.025 . S
Sc106 O116 2.105 1_455 S
Sc106 O118 2.105 . S
Sc106 O122 2.105 . S
Sc106 O124 2.105 1_455 S
O107 Sc104 2.025 . S
O107 Sc105 2.025 . S
O107 Sc106 2.025 . S
C108 O114 1.268 . S
C108 O124 1.268 . S
C109 O115 1.268 . S
C109 O123 1.268 . S
C110 O116 1.268 . S
C110 O125 1.268 . S
C111 O117 1.268 . S
C111 O121 1.268 . S
C112 O118 1.268 . S
C112 O120 1.268 . S
C113 O119 1.268 . S
C113 O122 1.268 . S
O114 Sc104 2.105 1_655 S
O114 C108 1.268 . S
O115 Sc105 2.105 1_655 S
O115 C109 1.268 . S
O116 Sc106 2.105 1_655 S
O116 C110 1.268 . S
O117 Sc104 2.105 . S
O117 C111 1.268 . S
O118 Sc106 2.105 . S
O118 C112 1.268 . S
O119 Sc105 2.105 . S
O119 C113 1.268 . S
O120 Sc104 2.105 . S
O120 C112 1.268 . S
O121 Sc105 2.105 . S
O121 C111 1.268 . S
O122 Sc106 2.105 . S
O122 C113 1.268 . S
O123 Sc104 2.105 1_655 S
O123 C109 1.268 . S
O124 Sc106 2.105 1_655 S
O124 C108 1.268 . S
O125 Sc105 2.105 1_655 S
O125 C110 1.268 . S
Sc126 O129 2.025 . S
Sc126 O136 2.105 . S
Sc126 O139 2.105 1_455 S
Sc126 O142 2.105 1_455 S
Sc126 O145 2.105 . S
Sc127 O129 2.025 . S
Sc127 O137 2.105 . S
Sc127 O141 2.105 1_455 S
Sc127 O143 2.105 1_455 S
Sc127 O147 2.105 . S
Sc128 O129 2.025 . S
Sc128 O138 2.105 . S
Sc128 O140 2.105 1_455 S
Sc128 O144 2.105 1_455 S
Sc128 O146 2.105 . S
O129 Sc126 2.025 . S
O129 Sc127 2.025 . S
O129 Sc128 2.025 . S
C130 O136 1.268 . S
C130 O146 1.268 . S
C131 O137 1.268 . S
C131 O145 1.268 . S
C132 O138 1.268 . S
C132 O147 1.268 . S
C133 O139 1.268 . S
C133 O143 1.268 . S
C134 O140 1.268 . S
C134 O142 1.268 . S
C135 O141 1.268 . S
C135 O144 1.268 . S
O136 Sc126 2.105 . S
O136 C130 1.268 . S
O137 Sc127 2.105 . S
O137 C131 1.268 . S
O138 Sc128 2.105 . S
O138 C132 1.268 . S
O139 Sc126 2.105 1_655 S
O139 C133 1.268 . S
O140 Sc128 2.105 1_655 S
O140 C134 1.268 . S
O141 Sc127 2.105 1_655 S
O141 C135 1.268 . S
O142 Sc126 2.105 1_655 S
O142 C134 1.268 . S
O143 Sc127 2.105 1_655 S
O143 C133 1.268 . S
O144 Sc128 2.105 1_655 S
O144 C135 1.268 . S
O145 Sc126 2.105 . S
O145 C131 1.268 . S
O146 Sc128 2.105 . S
O146 C130 1.268 . S
O147 Sc127 2.105 . S
O147 C132 1.268 . S
Sc148 O151 2.025 . S
Sc148 O158 2.105 . S
Sc148 O161 2.105 . S
Sc148 O164 2.105 . S
Sc148 O167 2.105 . S
Sc149 O151 2.025 . S
Sc149 O159 2.105 . S
Sc149 O163 2.105 . S
Sc149 O165 2.105 . S
Sc149 O169 2.105 . S
Sc150 O151 2.025 . S
Sc150 O160 2.105 . S
Sc150 O162 2.105 . S
Sc150 O166 2.105 . S
Sc150 O168 2.105 . S
O151 Sc148 2.025 . S
O151 Sc149 2.025 . S
O151 Sc150 2.025 . S
C152 O158 1.268 . S
C152 O168 1.268 . S
C153 O159 1.268 . S
C153 O167 1.268 . S
C154 O160 1.268 . S
C154 O169 1.268 . S
C155 O161 1.268 . S
C155 O165 1.268 . S
C156 O162 1.268 . S
C156 O164 1.268 . S
C157 O163 1.268 . S
C157 O166 1.268 . S
O158 Sc148 2.105 . S
O158 C152 1.268 . S
O159 Sc149 2.105 . S
O159 C153 1.268 . S
O160 Sc150 2.105 . S
O160 C154 1.268 . S
O161 Sc148 2.105 . S
O161 C155 1.268 . S
O162 Sc150 2.105 . S
O162 C156 1.268 . S
O163 Sc149 2.105 . S
O163 C157 1.268 . S
O164 Sc148 2.105 . S
O164 C156 1.268 . S
O165 Sc149 2.105 . S
O165 C155 1.268 . S
O166 Sc150 2.105 . S
O166 C157 1.268 . S
O167 Sc148 2.105 . S
O167 C153 1.268 . S
O168 Sc150 2.105 . S
O168 C152 1.268 . S
O169 Sc149 2.105 . S
O169 C154 1.268 . S
Sc170 O173 2.025 . S
Sc170 O180 2.105 . S
Sc170 O183 2.105 . S
Sc170 O186 2.105 . S
Sc170 O189 2.105 . S
Sc171 O173 2.025 . S
Sc171 O181 2.105 . S
Sc171 O185 2.105 . S
Sc171 O187 2.105 . S
Sc171 O191 2.105 . S
Sc172 O173 2.025 . S
Sc172 O182 2.105 . S
Sc172 O184 2.105 . S
Sc172 O188 2.105 . S
Sc172 O190 2.105 . S
O173 Sc170 2.025 . S
O173 Sc171 2.025 . S
O173 Sc172 2.025 . S
C174 O180 1.268 . S
C174 O190 1.268 . S
C175 O181 1.268 . S
C175 O189 1.268 . S
C176 O182 1.268 . S
C176 O191 1.268 . S
C177 O183 1.268 . S
C177 O187 1.268 . S
C178 O184 1.268 . S
C178 O186 1.268 . S
C179 O185 1.268 . S
C179 O188 1.268 . S
O180 Sc170 2.105 . S
O180 C174 1.268 . S
O181 Sc171 2.105 . S
O181 C175 1.268 . S
O182 Sc172 2.105 . S
O182 C176 1.268 . S
O183 Sc170 2.105 . S
O183 C177 1.268 . S
O184 Sc172 2.105 . S
O184 C178 1.268 . S
O185 Sc171 2.105 . S
O185 C179 1.268 . S
O186 Sc170 2.105 . S
O186 C178 1.268 . S
O187 Sc171 2.105 . S
O187 C177 1.268 . S
O188 Sc172 2.105 . S
O188 C179 1.268 . S
O189 Sc170 2.105 . S
O189 C175 1.268 . S
O190 Sc172 2.105 . S
O190 C174 1.268 . S
O191 Sc171 2.105 . S
O191 C176 1.268 . S
H192 C200 0.950 . S
H193 C205 0.950 . S
H194 C202 0.950 . S
H195 C204 0.950 1_554 S
H196 C206 0.950 . S
H197 C208 0.950 . S
H198 C210 0.950 . S
H199 C211 0.950 . S
C200 H192 0.950 . S
C200 C201 1.386 . S
C200 C202 1.391 . S
C201 C200 1.386 . S
C201 C205 1.393 1_556 S
C202 H194 0.950 . S
C202 C200 1.391 . S
C202 C203 1.400 . S
C203 C202 1.400 . S
C203 C204 1.398 . S
C203 C209 1.491 . S
C204 H195 0.950 1_556 S
C204 C203 1.398 . S
C204 C205 1.391 1_556 S
C205 H193 0.950 . S
C205 C201 1.393 1_554 S
C205 C204 1.391 1_554 S
C206 H196 0.950 . S
C206 C207 1.386 . S
C206 C208 1.391 . S
C207 C206 1.386 . S
C207 C211 1.393 . S
C208 H197 0.950 . S
C208 C206 1.391 . S
C208 C209 1.400 . S
C209 C203 1.491 . S
C209 C208 1.400 . S
C209 C210 1.398 . S
C210 H198 0.950 . S
C210 C209 1.398 . S
C210 C211 1.391 . S
C211 H199 0.950 . S
C211 C207 1.393 . S
C211 C210 1.391 . S
H212 C220 0.950 . S
H213 C225 0.950 . S
H214 C222 0.950 . S
H215 C224 0.950 . S
H216 C226 0.950 . S
H217 C228 0.950 . S
H218 C230 0.950 . S
H219 C231 0.950 . S
C220 H212 0.950 . S
C220 C221 1.386 . S
C220 C222 1.391 . S
C221 C220 1.386 . S
C221 C225 1.393 . S
C222 H214 0.950 . S
C222 C220 1.391 . S
C222 C223 1.400 . S
C223 C222 1.400 . S
C223 C224 1.398 . S
C223 C229 1.491 . S
C224 H215 0.950 . S
C224 C223 1.398 . S
C224 C225 1.391 . S
C225 H213 0.950 . S
C225 C221 1.393 . S
C225 C224 1.391 . S
C226 H216 0.950 . S
C226 C227 1.386 . S
C226 C228 1.391 . S
C227 C226 1.386 . S
C227 C231 1.393 . S
C228 H217 0.950 . S
C228 C226 1.391 . S
C228 C229 1.400 . S
C229 C223 1.491 . S
C229 C228 1.400 . S
C229 C230 1.398 . S
C230 H218 0.950 . S
C230 C229 1.398 . S
C230 C231 1.391 . S
C231 H219 0.950 . S
C231 C227 1.393 . S
C231 C230 1.391 . S
H232 C240 0.950 . S
H233 C245 0.950 . S
H234 C242 0.950 . S
H235 C244 0.950 . S
H236 C246 0.950 . S
H237 C248 0.950 . S
H238 C250 0.950 . S
H239 C251 0.950 . S
C240 H232 0.950 . S
C240 C241 1.386 . S
C240 C242 1.391 . S
C241 C240 1.386 . S
C241 C245 1.393 . S
C242 H234 0.950 . S
C242 C240 1.391 . S
C242 C243 1.400 . S
C243 C242 1.400 . S
C243 C244 1.398 . S
C243 C249 1.491 . S
C244 H235 0.950 . S
C244 C243 1.398 . S
C244 C245 1.391 . S
C245 H233 0.950 . S
C245 C241 1.393 . S
C245 C244 1.391 . S
C246 H236 0.950 . S
C246 C247 1.386 . S
C246 C248 1.391 . S
C247 C246 1.386 . S
C247 C251 1.393 . S
C248 H237 0.950 . S
C248 C246 1.391 . S
C248 C249 1.400 . S
C249 C243 1.491 . S
C249 C248 1.400 . S
C249 C250 1.398 . S
C250 H238 0.950 . S
C250 C249 1.398 . S
C250 C251 1.391 . S
C251 H239 0.950 . S
C251 C247 1.393 . S
C251 C250 1.391 . S
H252 C260 0.950 . S
H253 C265 0.950 . S
H254 C262 0.950 . S
H255 C264 0.950 . S
H256 C266 0.950 . S
H257 C268 0.950 . S
H258 C270 0.950 . S
H259 C271 0.950 . S
C260 H252 0.950 . S
C260 C261 1.386 . S
C260 C262 1.391 . S
C261 C260 1.386 . S
C261 C265 1.393 . S
C262 H254 0.950 . S
C262 C260 1.391 . S
C262 C263 1.400 . S
C263 C262 1.400 . S
C263 C264 1.398 . S
C263 C269 1.491 . S
C264 H255 0.950 . S
C264 C263 1.398 . S
C264 C265 1.391 . S
C265 H253 0.950 . S
C265 C261 1.393 . S
C265 C264 1.391 . S
C266 H256 0.950 . S
C266 C267 1.386 . S
C266 C268 1.391 . S
C267 C266 1.386 . S
C267 C271 1.393 . S
C268 H257 0.950 . S
C268 C266 1.391 . S
C268 C269 1.400 . S
C269 C263 1.491 . S
C269 C268 1.400 . S
C269 C270 1.398 . S
C270 H258 0.950 . S
C270 C269 1.398 . S
C270 C271 1.391 . S
C271 H259 0.950 . S
C271 C267 1.393 . S
C271 C270 1.391 . S
H272 C280 0.950 . S
H273 C285 0.950 . S
H274 C282 0.951 . S
H275 C284 0.950 . S
H276 C286 0.950 . S
H277 C288 0.950 . S
H278 C290 0.950 . S
H279 C291 0.950 . S
C280 H272 0.950 . S
C280 C281 1.386 1_554 S
C280 C282 1.391 1_554 S
C281 C280 1.386 1_556 S
C281 C285 1.393 . S
C282 H274 0.951 . S
C282 C280 1.391 1_556 S
C282 C283 1.400 . S
C283 C282 1.400 . S
C283 C284 1.398 . S
C283 C289 1.491 . S
C284 H275 0.950 . S
C284 C283 1.398 . S
C284 C285 1.391 . S
C285 H273 0.950 . S
C285 C281 1.393 . S
C285 C284 1.391 . S
C286 H276 0.950 . S
C286 C287 1.386 . S
C286 C288 1.391 . S
C287 C286 1.386 . S
C287 C291 1.393 . S
C288 H277 0.950 . S
C288 C286 1.391 . S
C288 C289 1.400 . S
C289 C283 1.491 . S
C289 C288 1.400 . S
C289 C290 1.398 . S
C290 H278 0.950 . S
C290 C289 1.398 . S
C290 C291 1.391 . S
C291 H279 0.950 . S
C291 C287 1.393 . S
C291 C290 1.391 . S
H292 C300 0.950 . S
H293 C305 0.950 . S
H294 C302 0.950 . S
H295 C304 0.950 . S
H296 C306 0.950 . S
H297 C308 0.950 . S
H298 C310 0.950 . S
H299 C311 0.950 . S
C300 H292 0.950 . S
C300 C301 1.386 . S
C300 C302 1.391 . S
C301 C300 1.386 . S
C301 C305 1.393 . S
C302 H294 0.950 . S
C302 C300 1.391 . S
C302 C303 1.400 . S
C303 C302 1.400 . S
C303 C304 1.398 . S
C303 C309 1.491 . S
C304 H295 0.950 . S
C304 C303 1.398 . S
C304 C305 1.391 . S
C305 H293 0.950 . S
C305 C301 1.393 . S
C305 C304 1.391 . S
C306 H296 0.950 . S
C306 C307 1.386 . S
C306 C308 1.391 . S
C307 C306 1.386 . S
C307 C311 1.393 . S
C308 H297 0.950 . S
C308 C306 1.391 . S
C308 C309 1.400 . S
C309 C303 1.491 . S
C309 C308 1.400 . S
C309 C310 1.398 . S
C310 H298 0.950 . S
C310 C309 1.398 . S
C310 C311 1.391 . S
C311 H299 0.950 . S
C311 C307 1.393 . S
C311 C310 1.391 . S
H312 C320 0.950 1_554 S
H313 C325 0.950 . S
H314 C322 0.950 . S
H315 C324 0.950 . S
H316 C326 0.950 . S
H317 C328 0.950 . S
H318 C330 0.950 . S
H319 C331 0.950 . S
C320 H312 0.950 1_556 S
C320 C321 1.386 . S
C320 C322 1.391 . S
C321 C320 1.386 . S
C321 C325 1.393 . S
C322 H314 0.950 . S
C322 C320 1.391 . S
C322 C323 1.400 . S
C323 C322 1.400 . S
C323 C324 1.398 . S
C323 C329 1.491 . S
C324 H315 0.950 . S
C324 C323 1.398 . S
C324 C325 1.391 . S
C325 H313 0.950 . S
C325 C321 1.393 . S
C325 C324 1.391 . S
C326 H316 0.950 . S
C326 C327 1.386 . S
C326 C328 1.391 . S
C327 C326 1.386 . S
C327 C331 1.393 . S
C328 H317 0.950 . S
C328 C326 1.391 . S
C328 C329 1.400 . S
C329 C323 1.491 . S
C329 C328 1.400 . S
C329 C330 1.398 . S
C330 H318 0.950 . S
C330 C329 1.398 . S
C330 C331 1.391 . S
C331 H319 0.950 . S
C331 C327 1.393 . S
C331 C330 1.391 . S
H332 C340 0.950 . S
H333 C345 0.950 . S
H334 C342 0.950 . S
H335 C344 0.950 . S
H336 C346 0.950 . S
H337 C348 0.950 . S
H338 C350 0.950 . S
H339 C351 0.950 . S
C340 H332 0.950 . S
C340 C341 1.386 . S
C340 C342 1.391 . S
C341 C340 1.386 . S
C341 C345 1.393 . S
C342 H334 0.950 . S
C342 C340 1.391 . S
C342 C343 1.400 . S
C343 C342 1.400 . S
C343 C344 1.398 . S
C343 C349 1.491 . S
C344 H335 0.950 . S
C344 C343 1.398 . S
C344 C345 1.391 . S
C345 H333 0.950 . S
C345 C341 1.393 . S
C345 C344 1.391 . S
C346 H336 0.950 . S
C346 C347 1.386 . S
C346 C348 1.391 . S
C347 C346 1.386 . S
C347 C351 1.393 . S
C348 H337 0.950 . S
C348 C346 1.391 . S
C348 C349 1.400 . S
C349 C343 1.491 . S
C349 C348 1.400 . S
C349 C350 1.398 . S
C350 H338 0.950 . S
C350 C349 1.398 . S
C350 C351 1.391 . S
C351 H339 0.950 . S
C351 C347 1.393 . S
C351 C350 1.391 . S
H352 C360 0.950 . S
H353 C365 0.950 . S
H354 C362 0.950 . S
H355 C364 0.950 . S
H356 C366 0.950 . S
H357 C368 0.950 . S
H358 C370 0.950 . S
H359 C371 0.950 . S
C360 H352 0.950 . S
C360 C361 1.386 . S
C360 C362 1.391 . S
C361 C360 1.386 . S
C361 C365 1.393 . S
C362 H354 0.950 . S
C362 C360 1.391 . S
C362 C363 1.400 . S
C363 C362 1.400 . S
C363 C364 1.398 . S
C363 C369 1.491 . S
C364 H355 0.950 . S
C364 C363 1.398 . S
C364 C365 1.391 . S
C365 H353 0.950 . S
C365 C361 1.393 . S
C365 C364 1.391 . S
C366 H356 0.950 . S
C366 C367 1.386 . S
C366 C368 1.391 . S
C367 C366 1.386 . S
C367 C371 1.393 . S
C368 H357 0.950 . S
C368 C366 1.391 . S
C368 C369 1.400 . S
C369 C363 1.491 . S
C369 C368 1.400 . S
C369 C370 1.398 . S
C370 H358 0.950 . S
C370 C369 1.398 . S
C370 C371 1.391 . S
C371 H359 0.950 . S
C371 C367 1.393 . S
C371 C370 1.391 . S
H372 C380 0.950 . S
H373 C385 0.950 . S
H374 C382 0.950 . S
H375 C384 0.950 . S
H376 C386 0.950 . S
H377 C388 0.950 . S
H378 C390 0.950 . S
H379 C391 0.950 . S
C380 H372 0.950 . S
C380 C381 1.386 . S
C380 C382 1.391 . S
C381 C380 1.386 . S
C381 C385 1.393 . S
C382 H374 0.950 . S
C382 C380 1.391 . S
C382 C383 1.400 . S
C383 C382 1.400 . S
C383 C384 1.398 . S
C383 C389 1.491 . S
C384 H375 0.950 . S
C384 C383 1.398 . S
C384 C385 1.391 . S
C385 H373 0.950 . S
C385 C381 1.393 . S
C385 C384 1.391 . S
C386 H376 0.950 . S
C386 C387 1.386 . S
C386 C388 1.391 . S
C387 C386 1.386 . S
C387 C391 1.393 . S
C388 H377 0.950 . S
C388 C386 1.391 . S
C388 C389 1.400 . S
C389 C383 1.491 . S
C389 C388 1.400 . S
C389 C390 1.398 . S
C390 H378 0.950 . S
C390 C389 1.398 . S
C390 C391 1.391 . S
C391 H379 0.950 . S
C391 C387 1.393 . S
C391 C390 1.391 . S
H392 C400 0.950 . S
H393 C405 0.950 . S
H394 C402 0.950 . S
H395 C404 0.950 . S
H396 C406 0.950 . S
H397 C408 0.950 . S
H398 C410 0.950 . S
H399 C411 0.950 . S
C400 H392 0.950 . S
C400 C401 1.386 . S
C400 C402 1.391 . S
C401 C400 1.386 . S
C401 C405 1.393 1_556 S
C402 H394 0.950 . S
C402 C400 1.391 . S
C402 C403 1.400 . S
C403 C402 1.400 . S
C403 C404 1.398 . S
C403 C409 1.491 . S
C404 H395 0.950 . S
C404 C403 1.398 . S
C404 C405 1.391 1_556 S
C405 H393 0.950 . S
C405 C401 1.393 1_554 S
C405 C404 1.391 1_554 S
C406 H396 0.950 . S
C406 C407 1.386 . S
C406 C408 1.391 . S
C407 C406 1.386 . S
C407 C411 1.393 . S
C408 H397 0.950 . S
C408 C406 1.391 . S
C408 C409 1.400 . S
C409 C403 1.491 . S
C409 C408 1.400 . S
C409 C410 1.398 . S
C410 H398 0.950 . S
C410 C409 1.398 . S
C410 C411 1.391 . S
C411 H399 0.950 . S
C411 C407 1.393 . S
C411 C410 1.391 . S
H412 C420 0.950 . S
H413 C425 0.950 . S
H414 C422 0.950 . S
H415 C424 0.950 . S
H416 C426 0.950 . S
H417 C428 0.950 . S
H418 C430 0.950 . S
H419 C431 0.950 . S
C420 H412 0.950 . S
C420 C421 1.386 . S
C420 C422 1.391 . S
C421 C420 1.386 . S
C421 C425 1.393 . S
C422 H414 0.950 . S
C422 C420 1.391 . S
C422 C423 1.400 . S
C423 C422 1.400 . S
C423 C424 1.398 . S
C423 C429 1.491 . S
C424 H415 0.950 . S
C424 C423 1.398 . S
C424 C425 1.391 . S
C425 H413 0.950 . S
C425 C421 1.393 . S
C425 C424 1.391 . S
C426 H416 0.950 . S
C426 C427 1.386 . S
C426 C428 1.391 . S
C427 C426 1.386 . S
C427 C431 1.393 . S
C428 H417 0.950 . S
C428 C426 1.391 . S
C428 C429 1.400 . S
C429 C423 1.491 . S
C429 C428 1.400 . S
C429 C430 1.398 . S
C430 H418 0.950 . S
C430 C429 1.398 . S
C430 C431 1.391 . S
C431 H419 0.950 . S
C431 C427 1.393 . S
C431 C430 1.391 . S
H432 C440 0.950 . S
H433 C445 0.950 1_554 S
H434 C442 0.937 1_545 S
H435 C444 0.950 . S
H436 C446 0.950 . S
H437 C448 0.950 . S
H438 C450 0.950 . S
H439 C451 0.950 . S
C440 H432 0.950 . S
C440 C441 1.386 . S
C440 C442 1.391 . S
C441 C440 1.386 . S
C441 C445 1.393 . S
C442 H434 0.937 1_565 S
C442 C440 1.391 . S
C442 C443 1.400 . S
C443 C442 1.400 . S
C443 C444 1.398 . S
C443 C449 1.482 1_565 S
C444 H435 0.950 . S
C444 C443 1.398 . S
C444 C445 1.391 . S
C445 H433 0.950 1_556 S
C445 C441 1.393 . S
C445 C444 1.391 . S
C446 H436 0.950 . S
C446 C447 1.386 . S
C446 C448 1.391 1_545 S
C447 C446 1.386 . S
C447 C451 1.393 . S
C448 H437 0.950 . S
C448 C446 1.391 1_565 S
C448 C449 1.398 1_565 S
C449 C443 1.482 1_545 S
C449 C448 1.398 1_545 S
C449 C450 1.410 . S
C450 H438 0.950 . S
C450 C449 1.410 . S
C450 C451 1.391 . S
C451 H439 0.950 . S
C451 C447 1.393 . S
C451 C450 1.391 . S
H452 C460 0.950 . S
H453 C465 0.950 . S
H454 C462 0.950 1_565 S
H455 C464 0.950 . S
H456 C466 0.950 . S
H457 C468 0.950 . S
H458 C470 0.950 . S
H459 C471 0.950 . S
C460 H452 0.950 . S
C460 C461 1.386 . S
C460 C462 1.391 . S
C461 C460 1.386 . S
C461 C465 1.393 . S
C462 H454 0.950 1_545 S
C462 C460 1.391 . S
C462 C463 1.400 . S
C463 C462 1.400 . S
C463 C464 1.398 . S
C463 C469 1.482 1_545 S
C464 H455 0.950 . S
C464 C463 1.398 . S
C464 C465 1.391 . S
C465 H453 0.950 . S
C465 C461 1.393 . S
C465 C464 1.391 . S
C466 H456 0.950 . S
C466 C467 1.386 . S
C466 C468 1.391 1_565 S
C467 C466 1.386 . S
C467 C471 1.393 . S
C468 H457 0.950 . S
C468 C466 1.391 1_545 S
C468 C469 1.396 1_545 S
C469 C463 1.482 1_565 S
C469 C468 1.396 1_565 S
C469 C470 1.412 . S
C470 H458 0.950 . S
C470 C469 1.412 . S
C470 C471 1.391 . S
C471 H459 0.950 . S
C471 C467 1.393 . S
C471 C470 1.391 . S
H472 C480 0.950 . S
H473 C485 0.950 . S
H474 C482 0.950 . S
H475 C484 0.950 1_554 S
H476 C486 0.950 . S
H477 C488 0.950 . S
H478 C490 0.950 . S
H479 C491 0.950 . S
C480 H472 0.950 . S
C480 C481 1.386 . S
C480 C482 1.391 . S
C481 C480 1.386 . S
C481 C485 1.393 1_556 S
C482 H474 0.950 . S
C482 C480 1.391 . S
C482 C483 1.400 . S
C483 C482 1.400 . S
C483 C484 1.398 . S
C483 C489 1.491 1_565 S
C484 H475 0.950 1_556 S
C484 C483 1.398 . S
C484 C485 1.391 1_556 S
C485 H473 0.950 . S
C485 C481 1.393 1_554 S
C485 C484 1.391 1_554 S
C486 H476 0.950 . S
C486 C487 1.386 . S
C486 C488 1.391 . S
C487 C486 1.386 . S
C487 C491 1.393 . S
C488 H477 0.950 . S
C488 C486 1.391 . S
C488 C489 1.400 . S
C489 C483 1.491 1_545 S
C489 C488 1.400 . S
C489 C490 1.398 . S
C490 H478 0.950 . S
C490 C489 1.398 . S
C490 C491 1.391 . S
C491 H479 0.950 . S
C491 C487 1.393 . S
C491 C490 1.391 . S
H492 C500 0.950 . S
H493 C505 0.950 . S
H494 C502 0.950 . S
H495 C504 0.950 . S
H496 C506 0.950 . S
H497 C508 0.950 . S
H498 C510 0.955 . S
H499 C511 0.950 . S
C500 H492 0.950 . S
C500 C501 1.386 . S
C500 C502 1.391 . S
C501 C500 1.386 . S
C501 C505 1.393 . S
C502 H494 0.950 . S
C502 C500 1.391 . S
C502 C503 1.400 . S
C503 C502 1.400 . S
C503 C504 1.398 . S
C503 C509 1.490 1_545 S
C504 H495 0.950 . S
C504 C503 1.398 . S
C504 C505 1.391 . S
C505 H493 0.950 . S
C505 C501 1.393 . S
C505 C504 1.391 . S
C506 H496 0.950 . S
C506 C507 1.386 . S
C506 C508 1.391 . S
C507 C506 1.386 . S
C507 C511 1.393 . S
C508 H497 0.950 . S
C508 C506 1.391 . S
C508 C509 1.400 . S
C509 C503 1.490 1_565 S
C509 C508 1.400 . S
C509 C510 1.398 . S
C510 H498 0.955 . S
C510 C509 1.398 . S
C510 C511 1.391 . S
C511 H499 0.950 . S
C511 C507 1.393 . S
C511 C510 1.391 . S
H512 C520 0.950 . S
H513 C525 0.950 . S
H514 C522 0.950 . S
H515 C524 0.950 . S
H516 C526 0.950 . S
H517 C528 0.950 . S
H518 C530 0.950 . S
H519 C531 0.950 . S
C520 H512 0.950 . S
C520 C521 1.386 . S
C520 C522 1.391 . S
C521 C520 1.386 . S
C521 C525 1.393 . S
C522 H514 0.950 . S
C522 C520 1.391 . S
C522 C523 1.400 . S
C523 C522 1.400 . S
C523 C524 1.398 . S
C523 C529 1.491 . S
C524 H515 0.950 . S
C524 C523 1.398 . S
C524 C525 1.391 . S
C525 H513 0.950 . S
C525 C521 1.393 . S
C525 C524 1.391 . S
C526 H516 0.950 . S
C526 C527 1.386 . S
C526 C528 1.391 . S
C527 C526 1.386 . S
C527 C531 1.393 . S
C528 H517 0.950 . S
C528 C526 1.391 . S
C528 C529 1.400 . S
C529 C523 1.491 . S
C529 C528 1.400 . S
C529 C530 1.398 . S
C530 H518 0.950 . S
C530 C529 1.398 . S
C530 C531 1.391 . S
C531 H519 0.950 . S
C531 C527 1.393 . S
C531 C530 1.391 . S
H532 C540 0.950 . S
H533 C545 0.950 . S
H534 C542 0.950 . S
H535 C544 0.950 . S
H536 C546 0.950 . S
H537 C548 0.950 . S
H538 C550 0.950 . S
H539 C551 0.950 . S
C540 H532 0.950 . S
C540 C541 1.386 . S
C540 C542 1.391 . S
C541 C540 1.386 . S
C541 C545 1.393 . S
C542 H534 0.950 . S
C542 C540 1.391 . S
C542 C543 1.400 . S
C543 C542 1.400 . S
C543 C544 1.398 . S
C543 C549 1.491 . S
C544 H535 0.950 . S
C544 C543 1.398 . S
C544 C545 1.391 . S
C545 H533 0.950 . S
C545 C541 1.393 . S
C545 C544 1.391 . S
C546 H536 0.950 . S
C546 C547 1.386 . S
C546 C548 1.391 . S
C547 C546 1.386 . S
C547 C551 1.393 . S
C548 H537 0.950 . S
C548 C546 1.391 . S
C548 C549 1.400 . S
C549 C543 1.491 . S
C549 C548 1.400 . S
C549 C550 1.398 . S
C550 H538 0.950 . S
C550 C549 1.398 . S
C550 C551 1.391 . S
C551 H539 0.950 . S
C551 C547 1.393 . S
C551 C550 1.391 . S
H552 C560 0.950 . S
H553 C565 0.950 . S
H554 C562 0.950 . S
H555 C564 0.950 . S
H556 C566 0.950 . S
H557 C568 0.950 . S
H558 C570 0.950 . S
H559 C571 0.950 . S
C560 H552 0.950 . S
C560 C561 1.386 . S
C560 C562 1.391 . S
C561 C560 1.386 . S
C561 C565 1.393 . S
C562 H554 0.950 . S
C562 C560 1.391 . S
C562 C563 1.400 . S
C563 C562 1.400 . S
C563 C564 1.398 . S
C563 C569 1.491 . S
C564 H555 0.950 . S
C564 C563 1.398 . S
C564 C565 1.391 . S
C565 H553 0.950 . S
C565 C561 1.393 . S
C565 C564 1.391 . S
C566 H556 0.950 . S
C566 C567 1.386 . S
C566 C568 1.391 . S
C567 C566 1.386 . S
C567 C571 1.393 . S
C568 H557 0.950 . S
C568 C566 1.391 . S
C568 C569 1.400 . S
C569 C563 1.491 . S
C569 C568 1.400 . S
C569 C570 1.398 . S
C570 H558 0.950 . S
C570 C569 1.398 . S
C570 C571 1.391 . S
C571 H559 0.950 . S
C571 C567 1.393 . S
C571 C570 1.391 . S
H572 C580 0.950 . S
H573 C585 0.950 . S
H574 C582 0.950 . S
H575 C584 0.950 . S
H576 C586 0.950 . S
H577 C588 0.950 . S
H578 C590 0.950 . S
H579 C591 0.950 . S
C580 H572 0.950 . S
C580 C581 1.386 . S
C580 C582 1.391 . S
C581 C580 1.386 . S
C581 C585 1.393 . S
C582 H574 0.950 . S
C582 C580 1.391 . S
C582 C583 1.400 . S
C583 C582 1.400 . S
C583 C584 1.398 . S
C583 C589 1.491 . S
C584 H575 0.950 . S
C584 C583 1.398 . S
C584 C585 1.391 . S
C585 H573 0.950 . S
C585 C581 1.393 . S
C585 C584 1.391 . S
C586 H576 0.950 . S
C586 C587 1.386 . S
C586 C588 1.391 . S
C587 C586 1.386 . S
C587 C591 1.393 . S
C588 H577 0.950 . S
C588 C586 1.391 . S
C588 C589 1.400 . S
C589 C583 1.491 . S
C589 C588 1.400 . S
C589 C590 1.398 . S
C590 H578 0.950 . S
C590 C589 1.398 . S
C590 C591 1.391 . S
C591 H579 0.950 . S
C591 C587 1.393 . S
C591 C590 1.391 . S
H592 C600 0.950 . S
H593 C605 0.950 . S
H594 C602 0.950 . S
H595 C604 0.950 . S
H596 C606 0.950 . S
H597 C608 0.950 . S
H598 C610 0.950 . S
H599 C611 0.950 . S
C600 H592 0.950 . S
C600 C601 1.386 . S
C600 C602 1.391 . S
C601 C600 1.386 . S
C601 C605 1.393 . S
C602 H594 0.950 . S
C602 C600 1.391 . S
C602 C603 1.400 . S
C603 C602 1.400 . S
C603 C604 1.398 . S
C603 C609 1.491 . S
C604 H595 0.950 . S
C604 C603 1.398 . S
C604 C605 1.391 . S
C605 H593 0.950 . S
C605 C601 1.393 . S
C605 C604 1.391 . S
C606 H596 0.950 . S
C606 C607 1.386 . S
C606 C608 1.391 . S
C607 C606 1.386 . S
C607 C611 1.393 . S
C608 H597 0.950 . S
C608 C606 1.391 . S
C608 C609 1.400 . S
C609 C603 1.491 . S
C609 C608 1.400 . S
C609 C610 1.398 . S
C610 H598 0.950 . S
C610 C609 1.398 . S
C610 C611 1.391 . S
C611 H599 0.950 . S
C611 C607 1.393 . S
C611 C610 1.391 . S
H612 C620 0.950 . S
H613 C625 0.950 . S
H614 C622 0.950 . S
H615 C624 0.950 . S
H616 C626 0.950 . S
H617 C628 0.950 . S
H618 C630 0.950 . S
H619 C631 0.950 . S
C620 H612 0.950 . S
C620 C621 1.386 . S
C620 C622 1.391 . S
C621 C620 1.386 . S
C621 C625 1.393 . S
C622 H614 0.950 . S
C622 C620 1.391 . S
C622 C623 1.400 . S
C623 C622 1.400 . S
C623 C624 1.398 . S
C623 C629 1.491 . S
C624 H615 0.950 . S
C624 C623 1.398 . S
C624 C625 1.391 . S
C625 H613 0.950 . S
C625 C621 1.393 . S
C625 C624 1.391 . S
C626 H616 0.950 . S
C626 C627 1.386 . S
C626 C628 1.391 . S
C627 C626 1.386 . S
C627 C631 1.393 . S
C628 H617 0.950 . S
C628 C626 1.391 . S
C628 C629 1.400 . S
C629 C623 1.491 . S
C629 C628 1.400 . S
C629 C630 1.398 . S
C630 H618 0.950 . S
C630 C629 1.398 . S
C630 C631 1.391 . S
C631 H619 0.950 . S
C631 C627 1.393 . S
C631 C630 1.391 . S
H632 C640 0.950 . S
H633 C645 0.950 . S
H634 C642 0.950 . S
H635 C644 0.950 . S
H636 C646 0.950 . S
H637 C648 0.950 . S
H638 C650 0.950 . S
H639 C651 0.950 . S
C640 H632 0.950 . S
C640 C641 1.386 . S
C640 C642 1.391 . S
C641 C640 1.386 . S
C641 C645 1.393 . S
C642 H634 0.950 . S
C642 C640 1.391 . S
C642 C643 1.400 . S
C643 C642 1.400 . S
C643 C644 1.398 . S
C643 C649 1.491 . S
C644 H635 0.950 . S
C644 C643 1.398 . S
C644 C645 1.391 . S
C645 H633 0.950 . S
C645 C641 1.393 . S
C645 C644 1.391 . S
C646 H636 0.950 . S
C646 C647 1.386 . S
C646 C648 1.391 . S
C647 C646 1.386 . S
C647 C651 1.393 . S
C648 H637 0.950 . S
C648 C646 1.391 . S
C648 C649 1.400 . S
C649 C643 1.491 . S
C649 C648 1.400 . S
C649 C650 1.398 . S
C650 H638 0.950 . S
C650 C649 1.398 . S
C650 C651 1.391 . S
C651 H639 0.950 . S
C651 C647 1.393 . S
C651 C650 1.391 . S
H652 C660 0.950 . S
H653 C665 0.950 . S
H654 C662 0.950 . S
H655 C664 0.950 . S
H656 C666 0.950 . S
H657 C668 0.950 . S
H658 C670 0.950 . S
H659 C671 0.950 . S
C660 H652 0.950 . S
C660 C661 1.386 . S
C660 C662 1.391 . S
C661 C660 1.386 . S
C661 C665 1.393 . S
C662 H654 0.950 . S
C662 C660 1.391 . S
C662 C663 1.400 . S
C663 C662 1.400 . S
C663 C664 1.398 . S
C663 C669 1.491 . S
C664 H655 0.950 . S
C664 C663 1.398 . S
C664 C665 1.391 . S
C665 H653 0.950 . S
C665 C661 1.393 . S
C665 C664 1.391 . S
C666 H656 0.950 . S
C666 C667 1.386 . S
C666 C668 1.391 . S
C667 C666 1.386 . S
C667 C671 1.393 . S
C668 H657 0.950 . S
C668 C666 1.391 . S
C668 C669 1.400 . S
C669 C663 1.491 . S
C669 C668 1.400 . S
C669 C670 1.398 . S
C670 H658 0.950 . S
C670 C669 1.398 . S
C670 C671 1.391 . S
C671 H659 0.950 . S
C671 C667 1.393 . S
C671 C670 1.391 . S
C201 N2 1.533 . S
C207 C130 1.506 . S
C227 C108 1.522 . S
C221 N15 1.539 . S
C247 C134 1.515 . S
C241 N28 1.529 . S
C267 C112 1.506 . S
C261 N41 1.523 . S
C287 C174 1.522 . S
C281 N54 1.538 . S
C307 C152 1.518 . S
C301 N67 1.538 . S
C321 N80 1.526 . S
C327 C178 1.512 . S
C347 C156 1.505 . S
C341 N93 1.523 . S
C361 N5 1.507 . S
C367 C179 1.493 . S
C387 C157 1.497 . S
C381 N18 1.501 . S
C401 N31 1.502 . S
C407 C176 1.497 . S
C421 N44 1.500 . S
C427 C154 1.498 . S
C447 C135 1.491 . S
C441 N57 1.508 . S
C461 N70 1.507 . S
C467 C113 1.493 . S
C487 C132 1.496 . S
C481 N83 1.496 . S
C507 C110 1.484 . S
C501 N96 1.506 . S
C527 C153 1.482 . S
C521 N1 1.506 . S
C547 C175 1.494 . S
C541 N14 1.503 . S
C561 N27 1.494 . S
C567 C155 1.494 . S
C587 C177 1.494 . S
C581 N40 1.494 . S
C607 C109 1.488 . S
C601 N53 1.508 . S
C621 N66 1.505 . S
C627 C131 1.495 . S
C641 N79 1.493 . S
C647 C111 1.494 . S
C661 N92 1.484 . S
C667 C133 1.492 . S
