# Generated by pormake.
# Topology rtl, (3,6)-cn, num edge types: 1
# Building blocks:
#     Node 0, Type 0, BuildingBlock: MIDCAF_clean_linker_0, # of connection points: 3
#     Node 1, Type 0, BuildingBlock: MIDCAF_clean_linker_0, # of connection points: 3
#     Node 2, Type 0, BuildingBlock: MIDCAF_clean_linker_0, # of connection points: 3
#     Node 3, Type 0, BuildingBlock: MIDCAF_clean_linker_0, # of connection points: 3
#     Node 4, Type 1, BuildingBlock: KUMBUR_clean_sbu_1, # of connection points: 6
#     Node 5, Type 1, BuildingBlock: KUMBUR_clean_sbu_1, # of connection points: 6
#     Edge 6, Type (0, 1), BuildingBlock: OJICUG_clean_linker_0, # of connection points: 2
#     Edge 7, Type (0, 1), BuildingBlock: OJICUG_clean_linker_0, # of connection points: 2
#     Edge 8, Type (0, 1), BuildingBlock: OJICUG_clean_linker_0, # of connection points: 2
#     Edge 9, Type (0, 1), BuildingBlock: OJICUG_clean_linker_0, # of connection points: 2
#     Edge 10, Type (0, 1), BuildingBlock: OJICUG_clean_linker_0, # of connection points: 2
#     Edge 11, Type (0, 1), BuildingBlock: OJICUG_clean_linker_0, # of connection points: 2
#     Edge 12, Type (0, 1), BuildingBlock: OJICUG_clean_linker_0, # of connection points: 2
#     Edge 13, Type (0, 1), BuildingBlock: OJICUG_clean_linker_0, # of connection points: 2
#     Edge 14, Type (0, 1), BuildingBlock: OJICUG_clean_linker_0, # of connection points: 2
#     Edge 15, Type (0, 1), BuildingBlock: OJICUG_clean_linker_0, # of connection points: 2
#     Edge 16, Type (0, 1), BuildingBlock: OJICUG_clean_linker_0, # of connection points: 2
#     Edge 17, Type (0, 1), BuildingBlock: OJICUG_clean_linker_0, # of connection points: 2
# Relax obj value: 0.018
# Max RMSD: 0.112
# Mean RMSD: 0.067
data_MOF--net-rtl--node1-KUMBUR_clean_sbu_1--node2-MIDCAF_clean_linker_0--edge1-OJICUG_clean_linker_0
_symmetry_space_group_name_H-M    P1
_symmetry_Int_Tables_number       1
_symmetry_cell_setting            triclinic
loop_
_symmetry_equiv_pos_as_xyz
'x, y, z'
_cell_length_a     30.833493
_cell_length_b     31.651343
_cell_length_c     28.197353
_cell_angle_alpha  77.197034
_cell_angle_beta   99.153478
_cell_angle_gamma 91.254054
loop_
_atom_site_label
_atom_site_type_symbol
_atom_site_fract_x
_atom_site_fract_y
_atom_site_fract_z
_atom_type_partial_charge
C0 C 0.15225 0.91766 0.13161 0.0
C1 C 0.1716 0.90012 0.18047 0.0
C2 C 0.20763 0.87136 0.18882 0.0
C3 C 0.22313 0.85973 0.14926 0.0
H4 H 0.32032 0.78281 0.10501 0.0
H5 H 0.37413 0.72525 0.11109 0.0
H6 H 0.31556 0.70824 0.96689 0.0
H7 H 0.26326 0.76586 0.96023 0.0
H8 H 0.20319 0.83347 0.89066 0.0
H9 H 0.16355 0.86234 0.80831 0.0
H10 H 0.11875 0.97143 0.857 0.0
H11 H 0.15834 0.94258 0.93996 0.0
H12 H 0.15129 0.92018 0.05541 0.0
H13 H 0.12387 0.93911 0.12349 0.0
H14 H 0.22369 0.85759 0.22592 0.0
H15 H 0.25044 0.83701 0.15699 0.0
N16 N 0.24667 0.8299 0.06515 0.0
N17 N 0.23615 0.83428 0.97992 0.0
N18 N 0.19704 0.88101 0.01162 0.0
C19 C 0.25645 0.8156 0.02587 0.0
C20 C 0.20665 0.86703 0.97236 0.0
C21 C 0.21673 0.86268 0.05815 0.0
C22 C 0.28782 0.77931 0.03196 0.0
C23 C 0.31901 0.76663 0.07475 0.0
C24 C 0.34973 0.73362 0.07824 0.0
C25 C 0.34957 0.71256 0.03913 0.0
C26 C 0.31752 0.72455 0.9971 0.0
C27 C 0.28726 0.75754 0.99346 0.0
C28 C 0.18382 0.88566 0.92201 0.0
C29 C 0.18512 0.86373 0.88396 0.0
C30 C 0.16226 0.88006 0.83684 0.0
C31 C 0.13804 0.9189 0.82659 0.0
C32 C 0.13741 0.94146 0.86411 0.0
C33 C 0.15986 0.92482 0.91155 0.0
C34 C 0.20304 0.87677 0.1005 0.0
C35 C 0.16786 0.90639 0.0923 0.0
C36 C 0.61707 0.59115 0.51525 0.0
C37 C 0.63342 0.6042 0.47052 0.0
C38 C 0.66401 0.63785 0.46588 0.0
C39 C 0.67781 0.65808 0.50497 0.0
H40 H 0.72789 0.77463 0.5362 0.0
H41 H 0.78105 0.83174 0.52137 0.0
H42 H 0.83048 0.80708 0.67741 0.0
H43 H 0.77564 0.75077 0.6924 0.0
H44 H 0.66473 0.71482 0.74488 0.0
H45 H 0.63477 0.68647 0.82128 0.0
H46 H 0.62511 0.55969 0.78796 0.0
H47 H 0.65394 0.58786 0.71151 0.0
H48 H 0.61776 0.60013 0.58832 0.0
H49 H 0.59388 0.56495 0.52025 0.0
H50 H 0.67692 0.64896 0.43176 0.0
H51 H 0.70133 0.68398 0.49993 0.0
N52 N 0.70314 0.70106 0.58551 0.0
N53 N 0.70386 0.70554 0.66772 0.0
N54 N 0.66351 0.65132 0.63594 0.0
C55 C 0.71717 0.72082 0.62326 0.0
C56 C 0.67688 0.67071 0.67418 0.0
C57 C 0.67636 0.66634 0.59144 0.0
C58 C 0.74767 0.75783 0.61549 0.0
C59 C 0.7499 0.78149 0.56748 0.0
C60 C 0.78073 0.81415 0.55891 0.0
C61 C 0.81079 0.82377 0.59802 0.0
C62 C 0.80774 0.80092 0.64633 0.0
C63 C 0.77636 0.76849 0.65498 0.0
C64 C 0.66164 0.65362 0.72208 0.0
C65 C 0.6565 0.68086 0.75409 0.0
C66 C 0.63916 0.66475 0.7976 0.0
C67 C 0.62772 0.62091 0.81045 0.0
C68 C 0.63392 0.59353 0.77909 0.0
C69 C 0.65025 0.60977 0.73522 0.0
C70 C 0.66154 0.64498 0.54981 0.0
C71 C 0.63101 0.6112 0.55443 0.0
C72 C 0.86261 0.08741 0.95942 0.0
C73 C 0.84374 0.10528 0.91047 0.0
C74 C 0.80819 0.13464 0.90189 0.0
C75 C 0.79285 0.14669 0.9413 0.0
H76 H 0.69053 0.21991 0.99238 0.0
H77 H 0.63839 0.27845 0.98804 0.0
H78 H 0.71692 0.31155 0.11571 0.0
H79 H 0.76725 0.2524 0.12114 0.0
H80 H 0.81349 0.17419 0.19986 0.0
H81 H 0.85265 0.14489 0.28227 0.0
H82 H 0.897 0.0357 0.23337 0.0
H83 H 0.85777 0.0649 0.15039 0.0
H84 H 0.86341 0.0851 0.03555 0.0
H85 H 0.89061 0.06547 0.96774 0.0
H86 H 0.79244 0.14865 0.86473 0.0
H87 H 0.76601 0.16998 0.93339 0.0
N88 N 0.77082 0.17829 0.0249 0.0
N89 N 0.7821 0.17491 0.10999 0.0
N90 N 0.81883 0.12594 0.07889 0.0
C91 C 0.76215 0.19365 0.06392 0.0
C92 C 0.81018 0.14091 0.11791 0.0
C93 C 0.7995 0.14438 0.03226 0.0
C94 C 0.73258 0.23128 0.05742 0.0
C95 C 0.69656 0.23997 0.01922 0.0
C96 C 0.66681 0.27356 0.01676 0.0
C97 C 0.67298 0.29937 0.05206 0.0
C98 C 0.71019 0.29158 0.08886 0.0
C99 C 0.73933 0.25779 0.09174 0.0
C100 C 0.83262 0.12198 0.16837 0.0
C101 C 0.83134 0.14381 0.20651 0.0
C102 C 0.85394 0.12722 0.25369 0.0
C103 C 0.87795 0.08824 0.26392 0.0
C104 C 0.87851 0.06577 0.22632 0.0
C105 C 0.85625 0.08262 0.17885 0.0
C106 C 0.81259 0.12946 0.99014 0.0
C107 C 0.84713 0.09908 0.99859 0.0
C108 C 0.39739 0.41538 0.57276 0.0
C109 C 0.38814 0.3977 0.6203 0.0
C110 C 0.36483 0.35868 0.6283 0.0
C111 C 0.35077 0.33812 0.58953 0.0
H112 H 0.2915 0.22721 0.55228 0.0
H113 H 0.23711 0.17132 0.56655 0.0
H114 H 0.18398 0.20143 0.41134 0.0
H115 H 0.24003 0.25671 0.39678 0.0
H116 H 0.32269 0.30884 0.32697 0.0
H117 H 0.35011 0.34143 0.25 0.0
H118 H 0.42715 0.43064 0.32348 0.0
H119 H 0.39993 0.39936 0.39884 0.0
H120 H 0.39106 0.40974 0.498 0.0
H121 H 0.41458 0.44573 0.565 0.0
H122 H 0.35767 0.34383 0.66461 0.0
H123 H 0.33282 0.30821 0.59695 0.0
N124 N 0.31654 0.30124 0.50522 0.0
N125 N 0.31435 0.29924 0.42184 0.0
N126 N 0.35723 0.35052 0.45602 0.0
C127 C 0.30128 0.2831 0.46639 0.0
C128 C 0.34281 0.333 0.41668 0.0
C129 C 0.34438 0.33511 0.50024 0.0
C130 C 0.26994 0.24676 0.4734 0.0
C131 C 0.2684 0.22186 0.52103 0.0
C132 C 0.23687 0.18989 0.52931 0.0
C133 C 0.20543 0.18219 0.49032 0.0
C134 C 0.20776 0.2062 0.4423 0.0
C135 C 0.23983 0.23799 0.43389 0.0
C136 C 0.35872 0.35149 0.36928 0.0
C137 C 0.34536 0.33549 0.32653 0.0
C138 C 0.36117 0.35402 0.28252 0.0
C139 C 0.39037 0.38901 0.28047 0.0
C140 C 0.40393 0.40446 0.32334 0.0
C141 C 0.38836 0.38612 0.3669 0.0
C142 C 0.35989 0.35601 0.54194 0.0
C143 C 0.38359 0.39477 0.53416 0.0
Tb144 Tb 0.04177 0.95669 0.52717 0.0
C145 C 0.9332 0.12774 0.48057 0.0
N146 N 0.97054 0.11781 0.51385 0.0
C147 C 0.99925 0.188 0.48385 0.0
C148 C 0.92786 0.16802 0.44664 0.0
C149 C 1.00317 0.14744 0.51645 0.0
C150 C 0.96153 0.19827 0.44859 0.0
C151 C 0.86212 0.10523 0.44488 0.0
C152 C 0.90101 0.09655 0.47949 0.0
C153 C 0.85673 0.14518 0.41067 0.0
C154 C 0.88951 0.1765 0.41157 0.0
Tb155 Tb 0.9746 0.04999 0.56358 0.0
N156 N 0.90807 0.05765 0.51214 0.0
C157 C 0.82965 0.07367 0.44601 0.0
C158 C 0.8748 0.02847 0.51599 0.0
C159 C 0.8357 0.03549 0.48236 0.0
H160 H 0.03186 0.14015 0.54431 0.0
H161 H 0.80989 0.01174 0.4851 0.0
H162 H 0.98547 0.86626 0.54991 0.0
H163 H 0.20671 0.99778 0.60189 0.0
H164 H 0.87711 1.00046 0.54573 0.0
H165 H 0.79929 0.07904 0.42009 0.0
H166 H 0.13908 0.00724 0.54189 0.0
H167 H 0.02527 0.21133 0.48601 0.0
H168 H 0.82723 0.15225 0.38355 0.0
H169 H 0.88489 0.20716 0.38497 0.0
H170 H 0.99324 0.79593 0.60982 0.0
H171 H 0.9587 0.22961 0.42318 0.0
H172 H 0.21828 0.93179 0.66871 0.0
N173 N 0.04683 0.88968 0.57868 0.0
C174 C 0.08452 0.88064 0.61158 0.0
C175 C 0.01906 0.81959 0.61093 0.0
C176 C 0.0905 0.84092 0.64644 0.0
C177 C 0.01447 0.85965 0.57739 0.0
C178 C 0.05713 0.81024 0.64581 0.0
N179 N 0.1087 0.95061 0.5778 0.0
C180 C 0.14174 0.97992 0.57253 0.0
C181 C 0.15554 0.90456 0.64564 0.0
C182 C 0.11634 0.91228 0.61141 0.0
C183 C 0.1877 0.93643 0.64313 0.0
C184 C 0.18111 0.97389 0.60575 0.0
H185 H 0.06046 0.7793 0.67197 0.0
H186 H 0.13425 0.80321 0.70849 0.0
H187 H 0.19131 0.85885 0.70764 0.0
O188 O 0.08316 0.96226 0.47352 0.0
O189 O 0.03318 0.95129 0.60402 0.0
O190 O 0.03309 0.02128 0.61405 0.0
O191 O 0.04355 0.90613 0.49 0.0
O192 O 0.06333 0.02455 0.50753 0.0
O193 O 0.04565 0.05884 0.56684 0.0
O194 O 0.93336 0.04294 0.61754 0.0
O195 O 0.98228 0.05546 0.48651 0.0
O196 O 0.9836 0.98553 0.47606 0.0
O197 O 0.97216 0.09978 0.60173 0.0
O198 O 0.95233 0.98226 0.58217 0.0
O199 O 0.97075 0.94761 0.52342 0.0
C200 C 0.04226 0.97991 0.63117 0.0
C201 C 0.05493 0.93022 0.4078 0.0
C202 C 0.07214 0.93157 0.32606 0.0
C203 C 0.02819 0.94285 0.30581 0.0
C204 C 0.01091 0.94023 0.38702 0.0
C205 C 0.99772 0.94682 0.33625 0.0
C206 C 0.08543 0.92527 0.37725 0.0
C207 C 0.06881 0.05585 0.5321 0.0
C208 C 0.06947 0.92659 0.46086 0.0
C209 C 0.12914 0.83342 0.68117 0.0
C210 C 0.16157 0.86517 0.68079 0.0
C211 C 0.97373 0.02683 0.45928 0.0
C212 C 0.96091 0.0746 0.6838 0.0
C213 C 0.94355 0.07313 0.7655 0.0
C214 C 0.98742 0.06155 0.78586 0.0
C215 C 0.00485 0.06432 0.70469 0.0
C216 C 0.93039 0.07962 0.71428 0.0
C217 C 0.01793 0.05751 0.75549 0.0
C218 C 0.94696 0.95102 0.55748 0.0
C219 C 0.94648 0.07858 0.63068 0.0
H220 H 0.01726 0.9477 0.2665 0.0
H221 H 0.98677 0.94289 0.41006 0.0
H222 H 0.96377 0.95489 0.32048 0.0
H223 H 0.11942 0.91719 0.39309 0.0
H224 H 0.99826 0.05656 0.82521 0.0
H225 H 0.02903 0.06168 0.68169 0.0
H226 H 0.89646 0.08795 0.69835 0.0
H227 H 0.05183 0.04925 0.77135 0.0
Tb228 Tb 0.46302 0.48826 0.9981 0.0
C229 C 0.63444 0.57659 0.04879 0.0
N230 N 0.62402 0.5349 0.06691 0.0
C231 C 0.69145 0.51024 0.04938 0.0
C232 C 0.67293 0.58675 0.02789 0.0
C233 C 0.65263 0.50183 0.06946 0.0
C234 C 0.70136 0.55283 0.02786 0.0
C235 C 0.61605 0.65273 0.03422 0.0
C236 C 0.60622 0.60888 0.05165 0.0
C237 C 0.65348 0.66322 0.0115 0.0
C238 C 0.6819 0.63027 0.00835 0.0
Tb239 Tb 0.55899 0.52401 0.0963 0.0
N240 N 0.57051 0.59727 0.07407 0.0
C241 C 0.58879 0.68462 0.04165 0.0
C242 C 0.54634 0.62835 0.08538 0.0
C243 C 0.55432 0.67235 0.06825 0.0
H244 H 0.64494 0.46895 0.08604 0.0
H245 H 0.53428 0.69675 0.07625 0.0
H246 H 0.38899 0.56967 0.96703 0.0
H247 H 0.43888 0.31697 0.05912 0.0
H248 H 0.52122 0.61959 0.10828 0.0
H249 H 0.59516 0.71872 0.02883 0.0
H250 H 0.47746 0.38257 0.02188 0.0
H251 H 0.71362 0.4839 0.05038 0.0
H252 H 0.66133 0.69673 0.99737 0.0
H253 H 0.71108 0.63883 0.9916 0.0
H254 H 0.31743 0.58459 0.98867 0.0
H255 H 0.73133 0.55924 0.01215 0.0
H256 H 0.36846 0.32445 0.08849 0.0
N257 N 0.39427 0.50519 0.01051 0.0
C258 C 0.37198 0.47188 0.0346 0.0
C259 C 0.33274 0.55288 0.00264 0.0
C260 C 0.33003 0.47821 0.04593 0.0
C261 C 0.37391 0.5446 0.99146 0.0
C262 C 0.31106 0.51974 0.03091 0.0
N263 N 0.42981 0.42612 0.03159 0.0
C264 C 0.4467 0.38587 0.03462 0.0
C265 C 0.36686 0.3945 0.06607 0.0
C266 C 0.38992 0.4307 0.0445 0.0
C267 C 0.38517 0.35316 0.07211 0.0
C268 C 0.42495 0.34881 0.05559 0.0
H269 H 0.2789 0.52605 0.03892 0.0
H270 H 0.27566 0.44686 0.07946 0.0
H271 H 0.30802 0.37345 0.09717 0.0
O272 O 0.47828 0.46029 0.94174 0.0
O273 O 0.47436 0.45347 0.07603 0.0
O274 O 0.49521 0.50596 0.11884 0.0
O275 O 0.41644 0.49273 0.93378 0.0
O276 O 0.52648 0.4545 0.01028 0.0
O277 O 0.55976 0.45596 0.09019 0.0
O278 O 0.58689 0.54807 0.15828 0.0
O279 O 0.56883 0.52452 0.02052 0.0
O280 O 0.5022 0.54527 0.97333 0.0
O281 O 0.59113 0.4805 0.15877 0.0
O282 O 0.49382 0.55475 0.08528 0.0
O283 O 0.46495 0.55666 0.00391 0.0
C284 C 0.47342 0.47067 0.11407 0.0
C285 C 0.44664 0.49455 0.86175 0.0
C286 C 0.44046 0.49028 0.77568 0.0
C287 C 0.45894 0.53169 0.76504 0.0
C288 C 0.46441 0.53604 0.85047 0.0
C289 C 0.47069 0.55442 0.80229 0.0
C290 C 0.43455 0.47192 0.82436 0.0
C291 C 0.55445 0.43908 0.05077 0.0
C292 C 0.44197 0.47353 0.91248 0.0
C293 C 0.30772 0.4426 0.06993 0.0
C294 C 0.32607 0.40077 0.07989 0.0
C295 C 0.54532 0.54587 0.97971 0.0
C296 C 0.5795 0.49896 0.23265 0.0
C297 C 0.57632 0.51391 0.31361 0.0
C298 C 0.54514 0.48094 0.32134 0.0
C299 C 0.54826 0.46626 0.24137 0.0
C300 C 0.59344 0.52263 0.26895 0.0
C301 C 0.53127 0.45741 0.28543 0.0
C302 C 0.46786 0.57213 0.04404 0.0
C303 C 0.59646 0.50957 0.18527 0.0
H304 H 0.46369 0.54672 0.72783 0.0
H305 H 0.47349 0.55405 0.87885 0.0
H306 H 0.48465 0.58638 0.79378 0.0
H307 H 0.42124 0.43964 0.83339 0.0
H308 H 0.53182 0.47288 0.35548 0.0
H309 H 0.53682 0.44754 0.21414 0.0
H310 H 0.61696 0.54831 0.26194 0.0
H311 H 0.50728 0.43213 0.2918 0.0
C312 C 0.15452 0.12366 0.46725 0.0
C313 C 0.16995 0.15001 0.50037 0.0
H314 H 0.11054 0.07351 0.45111 0.0
C315 C 0.15135 0.14521 0.54375 0.0
H316 H 0.16831 0.12597 0.43379 0.0
C317 C 0.11883 0.11463 0.55407 0.0
C318 C 0.10336 0.08842 0.52095 0.0
H319 H 0.16166 0.16536 0.56981 0.0
H320 H 0.10585 0.11153 0.58817 0.0
C321 C 0.1216 0.09328 0.4774 0.0
C322 C 0.39501 0.64686 0.08536 0.0
C323 C 0.38234 0.67807 0.04157 0.0
H324 H 0.4321 0.58877 0.12033 0.0
C325 C 0.39995 0.67516 0.99926 0.0
H326 H 0.3818 0.64788 0.11846 0.0
C327 C 0.42825 0.64107 1.00023 0.0
C328 C 0.43982 0.60935 0.04359 0.0
H329 H 0.39171 0.69918 0.96519 0.0
H330 H 0.4409 0.63935 0.96697 0.0
C331 C 0.42363 0.61292 0.08639 0.0
C332 C 0.86554 0.86074 0.54548 0.0
C333 C 0.84573 0.85658 0.58795 0.0
H334 H 0.912 0.89398 0.50212 0.0
C335 C 0.85969 0.88396 0.62038 0.0
H336 H 0.85641 0.83984 0.51999 0.0
C337 C 0.89252 0.91452 0.61058 0.0
C338 C 0.91213 0.91861 0.56803 0.0
H339 H 0.84491 0.88222 0.6531 0.0
H340 H 0.90252 0.93497 0.63642 0.0
C341 C 0.89796 0.89153 0.53547 0.0
C342 C 0.61992 0.35972 0.00665 0.0
C343 C 0.64082 0.33401 0.05137 0.0
H344 H 0.57615 0.41299 0.97142 0.0
C345 C 0.63152 0.34226 0.09583 0.0
H346 H 0.62662 0.35471 0.97175 0.0
C347 C 0.60324 0.37614 0.09563 0.0
C348 C 0.58294 0.40213 0.05099 0.0
H349 H 0.64607 0.32249 0.131 0.0
H350 H 0.59721 0.38189 0.13051 0.0
C351 C 0.5911 0.39327 0.00648 0.0
C352 C 0.13321 0.9512 0.21751 0.0
C353 C 0.15213 0.91013 0.22196 0.0
H354 H 0.09287 0.98999 0.24703 0.0
C355 C 0.14865 0.87773 0.26435 0.0
H356 H 0.1362 0.97734 0.18618 0.0
C357 C 0.12469 0.88552 0.29984 0.0
C358 C 0.10335 0.92558 0.29328 0.0
H359 H 0.1624 0.84563 0.26894 0.0
H360 H 0.12081 0.85947 0.331 0.0
C361 C 0.10867 0.95866 0.25248 0.0
C362 C 0.62611 0.5661 0.88938 0.0
C363 C 0.6083 0.60357 0.85568 0.0
H364 H 0.62027 0.51872 0.9553 0.0
C365 C 0.57043 0.62288 0.86405 0.0
H366 H 0.65535 0.55066 0.88383 0.0
C367 C 0.55002 0.60427 0.90457 0.0
C368 C 0.56755 0.56647 0.93785 0.0
H369 H 0.55589 0.6516 0.83842 0.0
H370 H 0.52042 0.61929 0.90979 0.0
C371 C 0.60616 0.54796 0.93031 0.0
C372 C 0.89985 0.02852 0.33824 0.0
C373 C 0.90323 0.07186 0.31351 0.0
H374 H 0.91867 0.98052 0.4047 0.0
C375 C 0.93064 0.09985 0.33657 0.0
H376 H 0.87854 0.00647 0.32135 0.0
C377 C 0.95425 0.08482 0.38356 0.0
C378 C 0.95042 0.0417 0.40867 0.0
H379 H 0.9341 0.13332 0.31806 0.0
H380 H 0.97549 0.10703 0.40028 0.0
C381 C 0.92299 0.01365 0.38568 0.0
C382 C 0.37439 0.42229 0.69557 0.0
C383 C 0.40211 0.42044 0.66098 0.0
H384 H 0.36459 0.44616 0.7585 0.0
C385 C 0.44282 0.44144 0.66483 0.0
H386 H 0.34252 0.40715 0.69325 0.0
C387 C 0.45522 0.46418 0.70193 0.0
C388 C 0.42738 0.46615 0.73627 0.0
H389 H 0.46533 0.44006 0.63938 0.0
H390 H 0.48688 0.47978 0.70412 0.0
C391 C 0.38695 0.44478 0.73286 0.0
C392 C 0.57424 0.57235 0.41739 0.0
C393 C 0.61868 0.58258 0.42903 0.0
H394 H 0.52592 0.54378 0.37129 0.0
C395 C 0.64894 0.57142 0.40124 0.0
H396 H 0.54997 0.58121 0.43745 0.0
C397 C 0.63518 0.54974 0.36335 0.0
C398 C 0.59083 0.53882 0.35229 0.0
H399 H 0.68349 0.57846 0.4096 0.0
H400 H 0.65954 0.54054 0.34362 0.0
C401 C 0.56048 0.55085 0.37945 0.0
C402 C 0.8673 0.12754 0.82691 0.0
C403 C 0.86333 0.09512 0.86914 0.0
H404 H 0.89559 0.14564 0.76056 0.0
C405 C 0.88191 0.0539 0.87358 0.0
H406 H 0.85387 0.15977 0.82233 0.0
C407 C 0.90657 0.04628 0.83879 0.0
C408 C 0.91232 0.07935 0.79815 0.0
H409 H 0.87855 0.02774 0.90478 0.0
H410 H 0.9221 0.01482 0.84424 0.0
C411 C 0.89135 0.11959 0.79158 0.0
C412 C 0.41166 0.45501 0.22186 0.0
C413 C 0.40748 0.40971 0.23446 0.0
H414 H 0.4357 0.50953 0.17406 0.0
C415 C 0.42278 0.38465 0.20495 0.0
H416 H 0.3996 0.47536 0.2433 0.0
C417 C 0.4435 0.40442 0.16503 0.0
C418 C 0.44892 0.44955 0.15372 0.0
H419 H 0.42045 0.34968 0.21394 0.0
H420 H 0.4567 0.38428 0.1442 0.0
C421 C 0.4323 0.47464 0.18215 0.0
C422 C 0.08491 0.90724 0.7543 0.0
C423 C 0.11275 0.93516 0.777 0.0
H424 H 0.03967 0.90007 0.69084 0.0
C425 C 0.11662 0.97828 0.75188 0.0
H426 H 0.08114 0.87392 0.77313 0.0
C427 C 0.09354 0.99302 0.7044 0.0
C428 C 0.06563 0.96508 0.68177 0.0
H429 H 0.13826 1.00025 0.76851 0.0
H430 H 0.09821 0.02599 0.68509 0.0
C431 C 0.0613 0.92217 0.70728 0.0
loop_
_geom_bond_atom_site_label_1
_geom_bond_atom_site_label_2
_geom_bond_distance
_geom_bond_site_symmetry_2
_ccdc_geom_bond_type
C0 C1 1.384 . S
C0 H13 0.947 . S
C0 C35 1.382 . S
C1 C0 1.384 . S
C1 C2 1.378 . S
C2 C1 1.378 . S
C2 C3 1.378 . S
C2 H14 0.952 . S
C3 C2 1.378 . S
C3 H15 0.950 . S
C3 C34 1.383 . S
H4 C23 0.947 . S
H5 C24 0.946 . S
H6 C26 0.953 . S
H7 C27 0.945 . S
H8 C29 0.952 . S
H9 C30 0.949 . S
H10 C32 0.950 . S
H11 C33 0.948 . S
H12 C35 0.951 . S
H13 C0 0.947 . S
H14 C2 0.952 . S
H15 C3 0.950 . S
N16 C19 1.382 . S
N16 C21 1.363 . S
N17 C19 1.371 1_556 S
N17 C20 1.372 . S
N18 C20 1.361 1_554 S
N18 C21 1.377 . S
C19 N16 1.382 . S
C19 N17 1.371 1_554 S
C19 C22 1.480 . S
C20 N17 1.372 . S
C20 N18 1.361 1_556 S
C20 C28 1.457 . S
C21 N16 1.363 . S
C21 N18 1.377 . S
C21 C34 1.479 . S
C22 C19 1.480 . S
C22 C23 1.383 . S
C22 C27 1.385 1_554 S
C23 H4 0.947 . S
C23 C22 1.383 . S
C23 C24 1.388 . S
C24 H5 0.946 . S
C24 C23 1.388 . S
C24 C25 1.384 . S
C25 C24 1.384 . S
C25 C26 1.377 1_554 S
C26 H6 0.953 . S
C26 C25 1.377 1_556 S
C26 C27 1.369 . S
C27 H7 0.945 . S
C27 C22 1.385 1_556 S
C27 C26 1.369 . S
C28 C20 1.457 . S
C28 C29 1.372 . S
C28 C33 1.364 . S
C29 H8 0.952 . S
C29 C28 1.372 . S
C29 C30 1.389 . S
C30 H9 0.949 . S
C30 C29 1.389 . S
C30 C31 1.387 . S
C31 C30 1.387 . S
C31 C32 1.372 . S
C32 H10 0.950 . S
C32 C31 1.372 . S
C32 C33 1.379 . S
C33 H11 0.948 . S
C33 C28 1.364 . S
C33 C32 1.379 . S
C34 C3 1.383 . S
C34 C21 1.479 . S
C34 C35 1.398 . S
C35 C0 1.382 . S
C35 H12 0.951 . S
C35 C34 1.398 . S
C36 C37 1.384 . S
C36 H49 0.947 . S
C36 C71 1.382 . S
C37 C36 1.384 . S
C37 C38 1.378 . S
C38 C37 1.378 . S
C38 C39 1.378 . S
C38 H50 0.952 . S
C39 C38 1.378 . S
C39 H51 0.950 . S
C39 C70 1.383 . S
H40 C59 0.947 . S
H41 C60 0.946 . S
H42 C62 0.953 . S
H43 C63 0.945 . S
H44 C65 0.952 . S
H45 C66 0.949 . S
H46 C68 0.950 . S
H47 C69 0.948 . S
H48 C71 0.951 . S
H49 C36 0.947 . S
H50 C38 0.952 . S
H51 C39 0.950 . S
N52 C55 1.382 . S
N52 C57 1.363 . S
N53 C55 1.371 . S
N53 C56 1.372 . S
N54 C56 1.361 . S
N54 C57 1.377 . S
C55 N52 1.382 . S
C55 N53 1.371 . S
C55 C58 1.480 . S
C56 N53 1.372 . S
C56 N54 1.361 . S
C56 C64 1.457 . S
C57 N52 1.363 . S
C57 N54 1.377 . S
C57 C70 1.479 . S
C58 C55 1.480 . S
C58 C59 1.383 . S
C58 C63 1.385 . S
C59 H40 0.947 . S
C59 C58 1.383 . S
C59 C60 1.388 . S
C60 H41 0.946 . S
C60 C59 1.388 . S
C60 C61 1.384 . S
C61 C60 1.384 . S
C61 C62 1.377 . S
C62 H42 0.953 . S
C62 C61 1.377 . S
C62 C63 1.369 . S
C63 H43 0.945 . S
C63 C58 1.385 . S
C63 C62 1.369 . S
C64 C56 1.457 . S
C64 C65 1.372 . S
C64 C69 1.364 . S
C65 H44 0.952 . S
C65 C64 1.372 . S
C65 C66 1.389 . S
C66 H45 0.949 . S
C66 C65 1.389 . S
C66 C67 1.387 . S
C67 C66 1.387 . S
C67 C68 1.372 . S
C68 H46 0.950 . S
C68 C67 1.372 . S
C68 C69 1.379 . S
C69 H47 0.948 . S
C69 C64 1.364 . S
C69 C68 1.379 . S
C70 C39 1.383 . S
C70 C57 1.479 . S
C70 C71 1.398 . S
C71 C36 1.382 . S
C71 H48 0.951 . S
C71 C70 1.398 . S
C72 C73 1.384 . S
C72 H85 0.947 . S
C72 C107 1.382 . S
C73 C72 1.384 . S
C73 C74 1.378 . S
C74 C73 1.378 . S
C74 C75 1.378 . S
C74 H86 0.952 . S
C75 C74 1.378 . S
C75 H87 0.950 . S
C75 C106 1.383 . S
H76 C95 0.947 1_556 S
H77 C96 0.946 1_556 S
H78 C98 0.953 . S
H79 C99 0.945 . S
H80 C101 0.952 . S
H81 C102 0.949 . S
H82 C104 0.950 . S
H83 C105 0.948 . S
H84 C107 0.951 1_554 S
H85 C72 0.947 . S
H86 C74 0.952 . S
H87 C75 0.950 . S
N88 C91 1.382 . S
N88 C93 1.363 . S
N89 C91 1.371 . S
N89 C92 1.372 . S
N90 C92 1.361 . S
N90 C93 1.377 . S
C91 N88 1.382 . S
C91 N89 1.371 . S
C91 C94 1.480 . S
C92 N89 1.372 . S
C92 N90 1.361 . S
C92 C100 1.457 . S
C93 N88 1.363 . S
C93 N90 1.377 . S
C93 C106 1.479 1_554 S
C94 C91 1.480 . S
C94 C95 1.383 . S
C94 C99 1.385 . S
C95 H76 0.947 1_554 S
C95 C94 1.383 . S
C95 C96 1.388 . S
C96 H77 0.946 1_554 S
C96 C95 1.388 . S
C96 C97 1.384 . S
C97 C96 1.384 . S
C97 C98 1.377 . S
C98 H78 0.953 . S
C98 C97 1.377 . S
C98 C99 1.369 . S
C99 H79 0.945 . S
C99 C94 1.385 . S
C99 C98 1.369 . S
C100 C92 1.457 . S
C100 C101 1.372 . S
C100 C105 1.364 . S
C101 H80 0.952 . S
C101 C100 1.372 . S
C101 C102 1.389 . S
C102 H81 0.949 . S
C102 C101 1.389 . S
C102 C103 1.387 . S
C103 C102 1.387 . S
C103 C104 1.372 . S
C104 H82 0.950 . S
C104 C103 1.372 . S
C104 C105 1.379 . S
C105 H83 0.948 . S
C105 C100 1.364 . S
C105 C104 1.379 . S
C106 C75 1.383 . S
C106 C93 1.479 1_556 S
C106 C107 1.398 . S
C107 C72 1.382 . S
C107 H84 0.951 1_556 S
C107 C106 1.398 . S
C108 C109 1.384 . S
C108 H121 0.947 . S
C108 C143 1.382 . S
C109 C108 1.384 . S
C109 C110 1.378 . S
C110 C109 1.378 . S
C110 C111 1.378 . S
C110 H122 0.952 . S
C111 C110 1.378 . S
C111 H123 0.950 . S
C111 C142 1.383 . S
H112 C131 0.947 . S
H113 C132 0.946 . S
H114 C134 0.953 . S
H115 C135 0.945 . S
H116 C137 0.952 . S
H117 C138 0.949 . S
H118 C140 0.950 . S
H119 C141 0.948 . S
H120 C143 0.951 . S
H121 C108 0.947 . S
H122 C110 0.952 . S
H123 C111 0.950 . S
N124 C127 1.382 . S
N124 C129 1.363 . S
N125 C127 1.371 . S
N125 C128 1.372 . S
N126 C128 1.361 . S
N126 C129 1.377 . S
C127 N124 1.382 . S
C127 N125 1.371 . S
C127 C130 1.480 . S
C128 N125 1.372 . S
C128 N126 1.361 . S
C128 C136 1.457 . S
C129 N124 1.363 . S
C129 N126 1.377 . S
C129 C142 1.479 . S
C130 C127 1.480 . S
C130 C131 1.383 . S
C130 C135 1.385 . S
C131 H112 0.947 . S
C131 C130 1.383 . S
C131 C132 1.388 . S
C132 H113 0.946 . S
C132 C131 1.388 . S
C132 C133 1.384 . S
C133 C132 1.384 . S
C133 C134 1.377 . S
C134 H114 0.953 . S
C134 C133 1.377 . S
C134 C135 1.369 . S
C135 H115 0.945 . S
C135 C130 1.385 . S
C135 C134 1.369 . S
C136 C128 1.457 . S
C136 C137 1.372 . S
C136 C141 1.364 . S
C137 H116 0.952 . S
C137 C136 1.372 . S
C137 C138 1.389 . S
C138 H117 0.949 . S
C138 C137 1.389 . S
C138 C139 1.387 . S
C139 C138 1.387 . S
C139 C140 1.372 . S
C140 H118 0.950 . S
C140 C139 1.372 . S
C140 C141 1.379 . S
C141 H119 0.948 . S
C141 C136 1.364 . S
C141 C140 1.379 . S
C142 C111 1.383 . S
C142 C129 1.479 . S
C142 C143 1.398 . S
C143 C108 1.382 . S
C143 H120 0.951 . S
C143 C142 1.398 . S
Tb144 N173 2.617 . S
Tb144 N179 2.572 . S
Tb144 O188 2.465 . S
Tb144 O189 2.387 . S
Tb144 O191 2.428 . S
Tb144 O192 2.308 1_565 S
Tb144 O196 2.345 1_465 S
Tb144 O199 2.393 1_455 S
Tb144 C208 2.802 . S
C145 N146 1.379 . S
C145 C148 1.416 . S
C145 C152 1.424 . S
N146 C145 1.379 . S
N146 C149 1.334 . S
N146 Tb155 2.617 . S
C147 C149 1.390 . S
C147 C150 1.339 . S
C147 H167 0.930 1_655 S
C148 C145 1.416 . S
C148 C150 1.416 . S
C148 C154 1.448 . S
C149 N146 1.334 . S
C149 C147 1.390 . S
C149 H160 0.930 1_655 S
C150 C147 1.339 . S
C150 C148 1.416 . S
C150 H171 0.930 . S
C151 C152 1.413 . S
C151 C153 1.427 . S
C151 C157 1.416 . S
C152 C145 1.424 . S
C152 C151 1.413 . S
C152 N156 1.361 . S
C153 C151 1.427 . S
C153 C154 1.328 . S
C153 H168 0.929 . S
C154 C148 1.448 . S
C154 C153 1.328 . S
C154 H169 0.930 . S
Tb155 N146 2.617 . S
Tb155 N156 2.572 . S
Tb155 O190 2.349 1_655 S
Tb155 O193 2.393 1_655 S
Tb155 O194 2.465 . S
Tb155 O195 2.387 . S
Tb155 O197 2.428 . S
Tb155 O198 2.308 1_545 S
Tb155 C219 2.802 . S
N156 C152 1.361 . S
N156 Tb155 2.572 . S
N156 C158 1.340 . S
C157 C151 1.416 . S
C157 C159 1.332 . S
C157 H165 0.931 . S
C158 N156 1.340 . S
C158 C159 1.407 . S
C158 H164 0.930 . S
C159 C157 1.332 . S
C159 C158 1.407 . S
C159 H161 0.929 . S
H160 C149 0.930 1_455 S
H161 C159 0.929 . S
H162 C177 0.930 1_655 S
H163 C184 0.929 . S
H164 C158 0.930 . S
H165 C157 0.931 . S
H166 C180 0.930 . S
H167 C147 0.930 1_455 S
H168 C153 0.929 . S
H169 C154 0.930 . S
H170 C175 0.930 1_655 S
H171 C150 0.930 . S
H172 C183 0.931 . S
N173 Tb144 2.617 . S
N173 C174 1.379 . S
N173 C177 1.334 . S
C174 N173 1.379 . S
C174 C176 1.416 . S
C174 C182 1.424 . S
C175 H170 0.930 1_455 S
C175 C177 1.390 . S
C175 C178 1.339 . S
C176 C174 1.416 . S
C176 C178 1.416 . S
C176 C209 1.448 . S
C177 H162 0.930 1_455 S
C177 N173 1.334 . S
C177 C175 1.390 . S
C178 C175 1.339 . S
C178 C176 1.416 . S
C178 H185 0.930 . S
N179 Tb144 2.572 . S
N179 C180 1.340 . S
N179 C182 1.361 . S
C180 H166 0.930 . S
C180 N179 1.340 . S
C180 C184 1.407 . S
C181 C182 1.413 . S
C181 C183 1.416 . S
C181 C210 1.427 . S
C182 C174 1.424 . S
C182 N179 1.361 . S
C182 C181 1.413 . S
C183 H172 0.931 . S
C183 C181 1.416 . S
C183 C184 1.332 . S
C184 H163 0.929 . S
C184 C180 1.407 . S
C184 C183 1.332 . S
H185 C178 0.930 . S
H186 C209 0.930 . S
H187 C210 0.929 . S
O188 Tb144 2.465 . S
O188 C208 1.264 . S
O189 Tb144 2.387 . S
O189 C200 1.264 . S
O190 Tb155 2.349 1_455 S
O190 C200 1.243 1_545 S
O191 Tb144 2.428 . S
O191 C208 1.256 . S
O192 Tb144 2.308 1_545 S
O192 C207 1.266 . S
O193 Tb155 2.393 1_455 S
O193 C207 1.248 . S
O194 Tb155 2.465 . S
O194 C219 1.264 . S
O195 Tb155 2.387 . S
O195 C211 1.264 . S
O196 Tb144 2.345 1_645 S
O196 C211 1.249 . S
O197 Tb155 2.428 . S
O197 C219 1.256 . S
O198 Tb155 2.308 1_565 S
O198 C218 1.266 . S
O199 Tb144 2.393 1_655 S
O199 C218 1.248 . S
C200 O189 1.264 . S
C200 O190 1.243 1_565 S
C201 C204 1.399 . S
C201 C206 1.383 . S
C201 C208 1.496 . S
C202 C203 1.399 . S
C202 C206 1.389 . S
C203 C202 1.399 . S
C203 C205 1.380 . S
C203 H220 0.929 . S
C204 C201 1.399 . S
C204 C205 1.392 . S
C204 H221 0.929 . S
C205 C203 1.380 . S
C205 C204 1.392 . S
C205 H222 0.929 . S
C206 C201 1.383 . S
C206 C202 1.389 . S
C206 H223 0.931 . S
C207 O192 1.266 . S
C207 O193 1.248 . S
C208 Tb144 2.802 . S
C208 O188 1.264 . S
C208 O191 1.256 . S
C208 C201 1.496 . S
C209 C176 1.448 . S
C209 H186 0.930 . S
C209 C210 1.328 . S
C210 C181 1.427 . S
C210 H187 0.929 . S
C210 C209 1.328 . S
C211 O195 1.264 . S
C211 O196 1.249 . S
C212 C215 1.399 . S
C212 C216 1.383 . S
C212 C219 1.496 . S
C213 C214 1.399 . S
C213 C216 1.389 . S
C214 C213 1.399 . S
C214 C217 1.380 . S
C214 H224 0.929 . S
C215 C212 1.399 . S
C215 C217 1.392 . S
C215 H225 0.929 . S
C216 C212 1.383 . S
C216 C213 1.389 . S
C216 H226 0.931 . S
C217 C214 1.380 . S
C217 C215 1.392 . S
C217 H227 0.929 . S
C218 O198 1.266 . S
C218 O199 1.248 . S
C219 Tb155 2.802 . S
C219 O194 1.264 . S
C219 O197 1.256 . S
C219 C212 1.496 . S
H220 C203 0.929 . S
H221 C204 0.929 . S
H222 C205 0.929 . S
H223 C206 0.931 . S
H224 C214 0.929 . S
H225 C215 0.929 . S
H226 C216 0.931 . S
H227 C217 0.929 . S
Tb228 N257 2.615 1_556 S
Tb228 N263 2.572 1_556 S
Tb228 O272 2.465 . S
Tb228 O273 2.387 1_556 S
Tb228 O275 2.428 . S
Tb228 O276 2.308 1_556 S
Tb228 O280 2.349 . S
Tb228 O283 2.393 1_556 S
Tb228 C292 2.802 . S
C229 N230 1.379 . S
C229 C232 1.416 . S
C229 C236 1.424 . S
N230 C229 1.379 . S
N230 C233 1.334 . S
N230 Tb239 2.617 . S
C231 C233 1.390 . S
C231 C234 1.339 . S
C231 H251 0.930 . S
C232 C229 1.416 . S
C232 C234 1.416 . S
C232 C238 1.448 . S
C233 N230 1.334 . S
C233 C231 1.390 . S
C233 H244 0.930 . S
C234 C231 1.339 . S
C234 C232 1.416 . S
C234 H255 0.930 . S
C235 C236 1.413 . S
C235 C237 1.427 . S
C235 C241 1.416 . S
C236 C229 1.424 . S
C236 C235 1.413 . S
C236 N240 1.361 . S
C237 C235 1.427 . S
C237 C238 1.328 . S
C237 H252 0.929 . S
C238 C232 1.448 . S
C238 C237 1.328 . S
C238 H253 0.930 . S
Tb239 N230 2.617 . S
Tb239 N240 2.572 . S
Tb239 O274 2.349 . S
Tb239 O277 2.393 . S
Tb239 O278 2.465 . S
Tb239 O279 2.387 . S
Tb239 O281 2.428 . S
Tb239 O282 2.308 . S
Tb239 C303 2.802 . S
N240 C236 1.361 . S
N240 Tb239 2.572 . S
N240 C242 1.340 . S
C241 C235 1.416 . S
C241 C243 1.332 . S
C241 H249 0.931 . S
C242 N240 1.340 . S
C242 C243 1.407 . S
C242 H248 0.930 . S
C243 C241 1.332 . S
C243 C242 1.407 . S
C243 H245 0.929 . S
H244 C233 0.930 . S
H245 C243 0.929 . S
H246 C261 0.930 . S
H247 C268 0.929 . S
H248 C242 0.930 . S
H249 C241 0.931 . S
H250 C264 0.930 . S
H251 C231 0.930 . S
H252 C237 0.929 . S
H253 C238 0.930 . S
H254 C259 0.930 . S
H255 C234 0.930 . S
H256 C267 0.931 . S
N257 Tb228 2.615 1_554 S
N257 C258 1.381 . S
N257 C261 1.335 1_554 S
C258 N257 1.381 . S
C258 C260 1.416 . S
C258 C266 1.424 . S
C259 H254 0.930 . S
C259 C261 1.390 . S
C259 C262 1.339 1_556 S
C260 C258 1.416 . S
C260 C262 1.416 . S
C260 C293 1.448 . S
C261 H246 0.930 . S
C261 N257 1.335 1_556 S
C261 C259 1.390 . S
C262 C259 1.339 1_554 S
C262 C260 1.416 . S
C262 H269 0.930 . S
N263 Tb228 2.572 1_554 S
N263 C264 1.340 . S
N263 C266 1.361 . S
C264 H250 0.930 . S
C264 N263 1.340 . S
C264 C268 1.407 . S
C265 C266 1.413 . S
C265 C267 1.416 . S
C265 C294 1.427 . S
C266 C258 1.424 . S
C266 N263 1.361 . S
C266 C265 1.413 . S
C267 H256 0.931 . S
C267 C265 1.416 . S
C267 C268 1.332 . S
C268 H247 0.929 . S
C268 C264 1.407 . S
C268 C267 1.332 . S
H269 C262 0.930 . S
H270 C293 0.930 . S
H271 C294 0.929 . S
O272 Tb228 2.465 . S
O272 C292 1.264 . S
O273 Tb228 2.387 1_554 S
O273 C284 1.264 . S
O274 Tb239 2.349 . S
O274 C284 1.243 . S
O275 Tb228 2.428 . S
O275 C292 1.256 . S
O276 Tb228 2.308 1_554 S
O276 C291 1.266 . S
O277 Tb239 2.393 . S
O277 C291 1.248 . S
O278 Tb239 2.465 . S
O278 C303 1.264 . S
O279 Tb239 2.387 . S
O279 C295 1.264 1_554 S
O280 Tb228 2.349 . S
O280 C295 1.243 . S
O281 Tb239 2.428 . S
O281 C303 1.256 . S
O282 Tb239 2.308 . S
O282 C302 1.266 . S
O283 Tb228 2.393 1_554 S
O283 C302 1.248 . S
C284 O273 1.264 . S
C284 O274 1.243 . S
C285 C288 1.399 . S
C285 C290 1.383 . S
C285 C292 1.496 . S
C286 C287 1.399 . S
C286 C290 1.389 . S
C287 C286 1.399 . S
C287 C289 1.380 . S
C287 H304 0.929 . S
C288 C285 1.399 . S
C288 C289 1.392 . S
C288 H305 0.929 . S
C289 C287 1.380 . S
C289 C288 1.392 . S
C289 H306 0.929 . S
C290 C285 1.383 . S
C290 C286 1.389 . S
C290 H307 0.931 . S
C291 O276 1.266 . S
C291 O277 1.248 . S
C292 Tb228 2.802 . S
C292 O272 1.264 . S
C292 O275 1.256 . S
C292 C285 1.496 . S
C293 C260 1.448 . S
C293 H270 0.930 . S
C293 C294 1.328 . S
C294 C265 1.427 . S
C294 H271 0.929 . S
C294 C293 1.328 . S
C295 O279 1.264 1_556 S
C295 O280 1.243 . S
C296 C299 1.399 . S
C296 C300 1.383 . S
C296 C303 1.496 . S
C297 C298 1.399 . S
C297 C300 1.389 . S
C298 C297 1.399 . S
C298 C301 1.380 . S
C298 H308 0.929 . S
C299 C296 1.399 . S
C299 C301 1.392 . S
C299 H309 0.929 . S
C300 C296 1.383 . S
C300 C297 1.389 . S
C300 H310 0.931 . S
C301 C298 1.380 . S
C301 C299 1.392 . S
C301 H311 0.929 . S
C302 O282 1.266 . S
C302 O283 1.248 . S
C303 Tb239 2.802 . S
C303 O278 1.264 . S
C303 O281 1.256 . S
C303 C296 1.496 . S
H304 C287 0.929 . S
H305 C288 0.929 . S
H306 C289 0.929 . S
H307 C290 0.931 . S
H308 C298 0.929 . S
H309 C299 0.929 . S
H310 C300 0.931 . S
H311 C301 0.929 . S
C312 C313 1.387 . S
C312 H316 0.950 . S
C312 C321 1.390 . S
C313 C312 1.387 . S
C313 C315 1.387 . S
H314 C321 0.950 . S
C315 C313 1.387 . S
C315 C317 1.390 . S
C315 H319 0.950 . S
H316 C312 0.950 . S
C317 C315 1.390 . S
C317 C318 1.387 . S
C317 H320 0.950 . S
C318 C317 1.387 . S
C318 C321 1.387 . S
H319 C315 0.950 . S
H320 C317 0.950 . S
C321 C312 1.390 . S
C321 H314 0.950 . S
C321 C318 1.387 . S
C322 C323 1.387 . S
C322 H326 0.950 . S
C322 C331 1.390 . S
C323 C322 1.387 . S
C323 C325 1.387 . S
H324 C331 0.950 . S
C325 C323 1.387 . S
C325 C327 1.390 . S
C325 H329 0.950 1_554 S
H326 C322 0.950 . S
C327 C325 1.390 . S
C327 C328 1.387 . S
C327 H330 0.950 1_554 S
C328 C327 1.387 . S
C328 C331 1.387 . S
H329 C325 0.950 1_556 S
H330 C327 0.950 1_556 S
C331 C322 1.390 . S
C331 H324 0.950 . S
C331 C328 1.387 . S
C332 C333 1.387 . S
C332 H336 0.950 . S
C332 C341 1.390 . S
C333 C332 1.387 . S
C333 C335 1.387 . S
H334 C341 0.950 . S
C335 C333 1.387 . S
C335 C337 1.390 . S
C335 H339 0.950 . S
H336 C332 0.950 . S
C337 C335 1.390 . S
C337 C338 1.387 . S
C337 H340 0.950 . S
C338 C337 1.387 . S
C338 C341 1.387 . S
H339 C335 0.950 . S
H340 C337 0.950 . S
C341 C332 1.390 . S
C341 H334 0.950 . S
C341 C338 1.387 . S
C342 C343 1.387 1_556 S
C342 H346 0.950 . S
C342 C351 1.390 . S
C343 C342 1.387 1_554 S
C343 C345 1.387 . S
H344 C351 0.950 . S
C345 C343 1.387 . S
C345 C347 1.390 . S
C345 H349 0.950 . S
H346 C342 0.950 . S
C347 C345 1.390 . S
C347 C348 1.387 . S
C347 H350 0.950 . S
C348 C347 1.387 . S
C348 C351 1.387 1_554 S
H349 C345 0.950 . S
H350 C347 0.950 . S
C351 C342 1.390 . S
C351 H344 0.950 . S
C351 C348 1.387 1_556 S
C352 C353 1.387 . S
C352 H356 0.950 . S
C352 C361 1.390 . S
C353 C352 1.387 . S
C353 C355 1.387 . S
H354 C361 0.950 1_545 S
C355 C353 1.387 . S
C355 C357 1.390 . S
C355 H359 0.950 . S
H356 C352 0.950 . S
C357 C355 1.390 . S
C357 C358 1.387 . S
C357 H360 0.950 . S
C358 C357 1.387 . S
C358 C361 1.387 . S
H359 C355 0.950 . S
H360 C357 0.950 . S
C361 C352 1.390 . S
C361 H354 0.950 1_565 S
C361 C358 1.387 . S
C362 C363 1.387 . S
C362 H366 0.950 . S
C362 C371 1.390 . S
C363 C362 1.387 . S
C363 C365 1.387 . S
H364 C371 0.950 . S
C365 C363 1.387 . S
C365 C367 1.390 . S
C365 H369 0.950 . S
H366 C362 0.950 . S
C367 C365 1.390 . S
C367 C368 1.387 . S
C367 H370 0.950 . S
C368 C367 1.387 . S
C368 C371 1.387 . S
H369 C365 0.950 . S
H370 C367 0.950 . S
C371 C362 1.390 . S
C371 H364 0.950 . S
C371 C368 1.387 . S
C372 C373 1.387 . S
C372 H376 0.950 1_545 S
C372 C381 1.390 . S
C373 C372 1.387 . S
C373 C375 1.387 . S
H374 C381 0.950 1_565 S
C375 C373 1.387 . S
C375 C377 1.390 . S
C375 H379 0.950 . S
H376 C372 0.950 1_565 S
C377 C375 1.390 . S
C377 C378 1.387 . S
C377 H380 0.950 . S
C378 C377 1.387 . S
C378 C381 1.387 . S
H379 C375 0.950 . S
H380 C377 0.950 . S
C381 C372 1.390 . S
C381 H374 0.950 1_545 S
C381 C378 1.387 . S
C382 C383 1.387 . S
C382 H386 0.950 . S
C382 C391 1.390 . S
C383 C382 1.387 . S
C383 C385 1.387 . S
H384 C391 0.950 . S
C385 C383 1.387 . S
C385 C387 1.390 . S
C385 H389 0.950 . S
H386 C382 0.950 . S
C387 C385 1.390 . S
C387 C388 1.387 . S
C387 H390 0.950 . S
C388 C387 1.387 . S
C388 C391 1.387 . S
H389 C385 0.950 . S
H390 C387 0.950 . S
C391 C382 1.390 . S
C391 H384 0.950 . S
C391 C388 1.387 . S
C392 C393 1.387 . S
C392 H396 0.950 . S
C392 C401 1.390 . S
C393 C392 1.387 . S
C393 C395 1.387 . S
H394 C401 0.950 . S
C395 C393 1.387 . S
C395 C397 1.390 . S
C395 H399 0.950 . S
H396 C392 0.950 . S
C397 C395 1.390 . S
C397 C398 1.387 . S
C397 H400 0.950 . S
C398 C397 1.387 . S
C398 C401 1.387 . S
H399 C395 0.950 . S
H400 C397 0.950 . S
C401 C392 1.390 . S
C401 H394 0.950 . S
C401 C398 1.387 . S
C402 C403 1.387 . S
C402 H406 0.950 . S
C402 C411 1.390 . S
C403 C402 1.387 . S
C403 C405 1.387 . S
H404 C411 0.950 . S
C405 C403 1.387 . S
C405 C407 1.390 . S
C405 H409 0.950 . S
H406 C402 0.950 . S
C407 C405 1.390 . S
C407 C408 1.387 . S
C407 H410 0.950 1_545 S
C408 C407 1.387 . S
C408 C411 1.387 . S
H409 C405 0.950 . S
H410 C407 0.950 1_565 S
C411 C402 1.390 . S
C411 H404 0.950 . S
C411 C408 1.387 . S
C412 C413 1.387 . S
C412 H416 0.950 . S
C412 C421 1.390 . S
C413 C412 1.387 . S
C413 C415 1.387 . S
H414 C421 0.950 . S
C415 C413 1.387 . S
C415 C417 1.390 . S
C415 H419 0.950 . S
H416 C412 0.950 . S
C417 C415 1.390 . S
C417 C418 1.387 . S
C417 H420 0.950 . S
C418 C417 1.387 . S
C418 C421 1.387 . S
H419 C415 0.950 . S
H420 C417 0.950 . S
C421 C412 1.390 . S
C421 H414 0.950 . S
C421 C418 1.387 . S
C422 C423 1.387 . S
C422 H426 0.950 . S
C422 C431 1.390 . S
C423 C422 1.387 . S
C423 C425 1.387 1_565 S
H424 C431 0.950 . S
C425 C423 1.387 1_545 S
C425 C427 1.390 . S
C425 H429 0.950 . S
H426 C422 0.950 . S
C427 C425 1.390 . S
C427 C428 1.387 1_545 S
C427 H430 0.950 . S
C428 C427 1.387 1_565 S
C428 C431 1.387 . S
H429 C425 0.950 . S
H430 C427 0.950 . S
C431 C422 1.390 . S
C431 H424 0.950 . S
C431 C428 1.387 . S
C318 C207 1.675 . S
C313 C133 1.668 . S
C323 C25 1.653 . S
C328 C302 1.663 . S
C333 C61 1.637 . S
C338 C218 1.675 . S
C343 C97 1.599 . S
C348 C291 1.663 . S
C358 C202 1.428 . S
C353 C1 1.558 . S
C368 C295 1.632 . S
C363 C67 1.585 . S
C373 C103 1.601 . S
C378 C211 1.668 . S
C383 C109 1.534 . S
C388 C286 1.414 . S
C398 C297 1.413 . S
C393 C37 1.523 . S
C408 C213 1.428 . S
C403 C73 1.539 . S
C418 C284 1.632 . S
C413 C139 1.614 . S
C423 C31 1.654 . S
C428 C200 1.668 . S
