# Generated by pormake.
# Topology nom, (4,4)-cn, num edge types: 1
# Building blocks:
#     Node 0, Type 0, BuildingBlock: AZAVOO_clean_linker_0, # of connection points: 4
#     Node 1, Type 0, BuildingBlock: AZAVOO_clean_linker_0, # of connection points: 4
#     Node 2, Type 0, BuildingBlock: AZAVOO_clean_linker_0, # of connection points: 4
#     Node 3, Type 0, BuildingBlock: AZAVOO_clean_linker_0, # of connection points: 4
#     Node 4, Type 0, BuildingBlock: AZAVOO_clean_linker_0, # of connection points: 4
#     Node 5, Type 0, BuildingBlock: AZAVOO_clean_linker_0, # of connection points: 4
#     Node 6, Type 1, BuildingBlock: QUQFOY_clean_sbu_1, # of connection points: 4
#     Node 7, Type 1, BuildingBlock: QUQFOY_clean_sbu_1, # of connection points: 4
#     Node 8, Type 1, BuildingBlock: QUQFOY_clean_sbu_1, # of connection points: 4
#     Node 9, Type 1, BuildingBlock: QUQFOY_clean_sbu_1, # of connection points: 4
#     Node 10, Type 1, BuildingBlock: QUQFOY_clean_sbu_1, # of connection points: 4
#     Node 11, Type 1, BuildingBlock: QUQFOY_clean_sbu_1, # of connection points: 4
#     Edge 12, Type (0, 1), None
#     Edge 13, Type (0, 1), None
#     Edge 14, Type (0, 1), None
#     Edge 15, Type (0, 1), None
#     Edge 16, Type (0, 1), None
#     Edge 17, Type (0, 1), None
#     Edge 18, Type (0, 1), None
#     Edge 19, Type (0, 1), None
#     Edge 20, Type (0, 1), None
#     Edge 21, Type (0, 1), None
#     Edge 22, Type (0, 1), None
#     Edge 23, Type (0, 1), None
#     Edge 24, Type (0, 1), None
#     Edge 25, Type (0, 1), None
#     Edge 26, Type (0, 1), None
#     Edge 27, Type (0, 1), None
#     Edge 28, Type (0, 1), None
#     Edge 29, Type (0, 1), None
#     Edge 30, Type (0, 1), None
#     Edge 31, Type (0, 1), None
#     Edge 32, Type (0, 1), None
#     Edge 33, Type (0, 1), None
#     Edge 34, Type (0, 1), None
#     Edge 35, Type (0, 1), None
# Relax obj value: 0.218
# Max RMSD: 0.260
# Mean RMSD: 0.189
data_MOF--net-nom--node1-QUQFOY_clean_sbu_1--node2-AZAVOO_clean_linker_0--edge1-none
_symmetry_space_group_name_H-M    P1
_symmetry_Int_Tables_number       1
_symmetry_cell_setting            triclinic
loop_
_symmetry_equiv_pos_as_xyz
'x, y, z'
_cell_length_a     27.480368
_cell_length_b     28.781807
_cell_length_c     30.065586
_cell_angle_alpha  90.046553
_cell_angle_beta   89.636582
_cell_angle_gamma 121.23173
loop_
_atom_site_label
_atom_site_type_symbol
_atom_site_fract_x
_atom_site_fract_y
_atom_site_fract_z
_atom_type_partial_charge
H0 H 0.16305 0.49668 0.00016 0.0
H1 H 0.42456 0.7585 0.40822 0.0
H2 H 0.98286 0.39612 0.24221 0.0
H3 H 0.91211 0.34884 0.18432 0.0
H4 H 0.90502 0.49365 0.16194 0.0
H5 H 0.97465 0.5399 0.22107 0.0
H6 H 0.11649 0.45665 0.19089 0.0
H7 H 0.13639 0.45877 0.11119 0.0
H8 H 0.08568 0.57654 0.0916 0.0
H9 H 0.06676 0.57461 0.17131 0.0
H10 H 0.23138 0.53495 0.25068 0.0
H11 H 0.33008 0.60868 0.23805 0.0
H12 H 0.26941 0.71268 0.19443 0.0
H13 H 0.17208 0.64021 0.20855 0.0
H14 H 0.20317 0.52046 0.34406 0.0
H15 H 0.29507 0.57195 0.38154 0.0
H16 H 0.30246 0.72173 0.34858 0.0
H17 H 0.21021 0.66963 0.31169 0.0
H18 H 0.09338 0.47561 0.3908 0.0
H19 H 0.15705 0.50965 0.45461 0.0
H20 H 0.17647 0.66731 0.43733 0.0
H21 H 0.11416 0.63341 0.37274 0.0
H22 H 0.93823 0.41969 0.32384 0.0
H23 H 0.84883 0.40943 0.35147 0.0
H24 H 0.93313 0.58346 0.36723 0.0
H25 H 0.02106 0.59337 0.33831 0.0
O26 O 0.15181 0.494 0.03108 0.0
O27 O 0.126 0.55506 0.02311 0.0
O28 O 0.38259 0.65905 0.40928 0.0
O29 O 0.38852 0.73722 0.39318 0.0
C30 C 0.03767 0.50326 0.26017 0.0
C31 C 0.08892 0.52194 0.23583 0.0
C32 C 0.14149 0.5513 0.25743 0.0
C33 C 0.14338 0.55976 0.30357 0.0
C34 C 0.09256 0.54217 0.32813 0.0
C35 C 0.03915 0.51557 0.30623 0.0
C36 C 0.98358 0.47126 0.23588 0.0
C37 C 0.96417 0.41679 0.22605 0.0
C38 C 0.9242 0.39009 0.1926 0.0
C39 C 0.90382 0.41785 0.16782 0.0
C40 C 0.92029 0.47125 0.18007 0.0
C41 C 0.95961 0.49763 0.21414 0.0
C42 C 0.08926 0.51477 0.18683 0.0
C43 C 0.10837 0.48185 0.16914 0.0
C44 C 0.12025 0.48356 0.12368 0.0
C45 C 0.11342 0.51843 0.09512 0.0
C46 C 0.09173 0.54948 0.11269 0.0
C47 C 0.08004 0.54783 0.15816 0.0
C48 C 0.1949 0.58284 0.23145 0.0
C49 C 0.2395 0.57286 0.23634 0.0
C50 C 0.29575 0.61498 0.22928 0.0
C51 C 0.30702 0.66667 0.21682 0.0
C52 C 0.26173 0.67347 0.20512 0.0
C53 C 0.20595 0.6318 0.21252 0.0
C54 C 0.19977 0.5913 0.32578 0.0
C55 C 0.22467 0.56437 0.34514 0.0
C56 C 0.27718 0.59389 0.36641 0.0
C57 C 0.30596 0.65098 0.36829 0.0
C58 C 0.2813 0.67784 0.348 0.0
C59 C 0.22868 0.64823 0.3269 0.0
C60 C 0.09882 0.55182 0.37684 0.0
C61 C 0.10867 0.51661 0.40224 0.0
C62 C 0.1467 0.53669 0.43782 0.0
C63 C 0.17399 0.5919 0.44948 0.0
C64 C 0.15729 0.62494 0.42833 0.0
C65 C 0.12001 0.60506 0.39221 0.0
C66 C 0.98678 0.50734 0.32921 0.0
C67 C 0.93758 0.45553 0.33382 0.0
C68 C 0.88647 0.44971 0.34978 0.0
C69 C 0.88362 0.49561 0.36171 0.0
C70 C 0.93361 0.54712 0.35872 0.0
C71 C 0.98431 0.55288 0.34246 0.0
C72 C 0.13058 0.52365 0.04759 0.0
C73 C 0.36132 0.68245 0.39146 0.0
H74 H 0.61159 0.06847 0.18154 0.0
H75 H 0.55963 0.31948 0.63516 0.0
H76 H 0.6061 0.98882 0.42399 0.0
H77 H 0.60081 0.92196 0.37109 0.0
H78 H 0.41771 0.84678 0.36737 0.0
H79 H 0.42383 0.9141 0.42036 0.0
H80 H 0.63638 0.09693 0.37476 0.0
H81 H 0.64369 0.09525 0.29357 0.0
H82 H 0.46007 0.00695 0.28482 0.0
H83 H 0.45348 0.00906 0.36594 0.0
H84 H 0.66009 0.18798 0.43469 0.0
H85 H 0.68721 0.27716 0.40384 0.0
H86 H 0.5105 0.21851 0.3762 0.0
H87 H 0.48408 0.12945 0.40672 0.0
H88 H 0.65066 0.17291 0.53236 0.0
H89 H 0.67083 0.24979 0.58026 0.0
H90 H 0.50042 0.21687 0.55817 0.0
H91 H 0.4809 0.14021 0.51058 0.0
H92 H 0.61563 0.05453 0.56447 0.0
H93 H 0.65427 0.1052 0.63332 0.0
H94 H 0.50314 0.11446 0.64981 0.0
H95 H 0.46443 0.06254 0.58156 0.0
H96 H 0.53357 0.91836 0.508 0.0
H97 H 0.46513 0.82486 0.53184 0.0
H98 H 0.34128 0.8707 0.55971 0.0
H99 H 0.40915 0.96327 0.53511 0.0
O100 O 0.60795 0.06922 0.21354 0.0
O101 O 0.5139 0.03042 0.21072 0.0
O102 O 0.64471 0.31345 0.61948 0.0
O103 O 0.55382 0.28986 0.61634 0.0
C104 C 0.52113 0.0039 0.44947 0.0
C105 C 0.5399 0.05282 0.42529 0.0
C106 C 0.55278 0.1008 0.44775 0.0
C107 C 0.54929 0.1002 0.49449 0.0
C108 C 0.52988 0.05119 0.51878 0.0
C109 C 0.51217 0.00189 0.4961 0.0
C110 C 0.51539 0.95645 0.42549 0.0
C111 C 0.56475 0.95685 0.41266 0.0
C112 C 0.56161 0.91852 0.38252 0.0
C113 C 0.50896 0.87941 0.36451 0.0
C114 C 0.45903 0.87646 0.38045 0.0
C115 C 0.46228 0.91486 0.41068 0.0
C116 C 0.54444 0.05317 0.37609 0.0
C117 C 0.59786 0.07752 0.35517 0.0
C118 C 0.60187 0.07632 0.30884 0.0
C119 C 0.55245 0.05092 0.28269 0.0
C120 C 0.49897 0.02689 0.30392 0.0
C121 C 0.49506 0.02801 0.35022 0.0
C122 C 0.57009 0.15211 0.42292 0.0
C123 C 0.62744 0.19411 0.42106 0.0
C124 C 0.64282 0.24509 0.40343 0.0
C125 C 0.60103 0.2553 0.38778 0.0
C126 C 0.54385 0.21226 0.38796 0.0
C127 C 0.52859 0.16121 0.40532 0.0
C128 C 0.56423 0.15094 0.51843 0.0
C129 C 0.6181 0.18291 0.53751 0.0
C130 C 0.62939 0.22658 0.56494 0.0
C131 C 0.58688 0.23884 0.57356 0.0
C132 C 0.5338 0.20804 0.5527 0.0
C133 C 0.52266 0.16454 0.52523 0.0
C134 C 0.5374 0.05521 0.56773 0.0
C135 C 0.58938 0.06464 0.58435 0.0
C136 C 0.61196 0.09468 0.62333 0.0
C137 C 0.58273 0.1156 0.64624 0.0
C138 C 0.52728 0.09977 0.63262 0.0
C139 C 0.5045 0.06919 0.59392 0.0
C140 C 0.47659 0.94815 0.51924 0.0
C141 C 0.49199 0.90849 0.51987 0.0
C142 C 0.45271 0.8549 0.53359 0.0
C143 C 0.39724 0.83981 0.54729 0.0
C144 C 0.38334 0.88048 0.5492 0.0
C145 C 0.42244 0.9338 0.5354 0.0
C146 C 0.55672 0.04947 0.2335 0.0
C147 C 0.59719 0.28302 0.60454 0.0
H148 H 0.65113 0.52233 0.92291 0.0
H149 H 0.65117 0.30851 0.47842 0.0
H150 H 0.60962 0.65221 0.68691 0.0
H151 H 0.58872 0.69397 0.74901 0.0
H152 H 0.42157 0.54961 0.76231 0.0
H153 H 0.44225 0.50929 0.69867 0.0
H154 H 0.66552 0.57622 0.73397 0.0
H155 H 0.67614 0.56774 0.81379 0.0
H156 H 0.49453 0.45653 0.82568 0.0
H157 H 0.48477 0.46419 0.74567 0.0
H158 H 0.68963 0.49544 0.67597 0.0
H159 H 0.70109 0.42135 0.70341 0.0
H160 H 0.51975 0.32427 0.72832 0.0
H161 H 0.5086 0.39673 0.69858 0.0
H162 H 0.70046 0.52667 0.59387 0.0
H163 H 0.73658 0.479 0.55006 0.0
H164 H 0.56455 0.3434 0.5344 0.0
H165 H 0.52933 0.39055 0.57992 0.0
H166 H 0.6633 0.59661 0.54783 0.0
H167 H 0.70249 0.57183 0.48543 0.0
H168 H 0.53715 0.42876 0.46351 0.0
H169 H 0.49898 0.45314 0.52647 0.0
H170 H 0.55518 0.64666 0.60587 0.0
H171 H 0.48183 0.66565 0.58188 0.0
H172 H 0.37095 0.496 0.54986 0.0
H173 H 0.44337 0.47737 0.57478 0.0
O174 O 0.64565 0.52669 0.89176 0.0
O175 O 0.55137 0.47591 0.89753 0.0
O176 O 0.72551 0.39999 0.50302 0.0
O177 O 0.63801 0.32853 0.49533 0.0
C178 C 0.54682 0.54749 0.66187 0.0
C179 C 0.56985 0.52037 0.68484 0.0
C180 C 0.58844 0.49044 0.66106 0.0
C181 C 0.59024 0.49236 0.61447 0.0
C182 C 0.56899 0.52095 0.59113 0.0
C183 C 0.54334 0.54556 0.61473 0.0
C184 C 0.52741 0.57789 0.68851 0.0
C185 C 0.56763 0.63071 0.70203 0.0
C186 C 0.5558 0.65415 0.73782 0.0
C187 C 0.50414 0.62436 0.76131 0.0
C188 C 0.46221 0.57307 0.74538 0.0
C189 C 0.47356 0.55027 0.70875 0.0
C190 C 0.57424 0.52177 0.73417 0.0
C191 C 0.62796 0.55085 0.75404 0.0
C192 C 0.63396 0.54555 0.79956 0.0
C193 C 0.58622 0.5112 0.82608 0.0
C194 C 0.53216 0.4834 0.80624 0.0
C195 C 0.52634 0.48827 0.76062 0.0
C196 C 0.59816 0.45083 0.68457 0.0
C197 C 0.65261 0.45813 0.68752 0.0
C198 C 0.65907 0.41601 0.7034 0.0
C199 C 0.61119 0.36674 0.7173 0.0
C200 C 0.55743 0.36151 0.71747 0.0
C201 C 0.55092 0.40293 0.70066 0.0
C202 C 0.61232 0.46211 0.58984 0.0
C203 C 0.6708 0.48632 0.58148 0.0
C204 C 0.69124 0.45914 0.55626 0.0
C205 C 0.6534 0.40737 0.5387 0.0
C206 C 0.59485 0.38312 0.54754 0.0
C207 C 0.5746 0.40989 0.57353 0.0
C208 C 0.5784 0.52625 0.54238 0.0
C209 C 0.63466 0.56167 0.52788 0.0
C210 C 0.65754 0.54649 0.49306 0.0
C211 C 0.62377 0.49659 0.47139 0.0
C212 C 0.56493 0.46648 0.48069 0.0
C213 C 0.54234 0.48134 0.5159 0.0
C214 C 0.50516 0.56056 0.59187 0.0
C215 C 0.5155 0.61382 0.59282 0.0
C216 C 0.47344 0.62461 0.57908 0.0
C217 C 0.42018 0.58233 0.5641 0.0
C218 C 0.41129 0.52966 0.56113 0.0
C219 C 0.45309 0.51896 0.57496 0.0
C220 C 0.59311 0.50349 0.87395 0.0
C221 C 0.6747 0.37864 0.51126 0.0
H222 H 0.98206 0.40246 0.10875 0.0
H223 H 0.41916 0.64074 0.70316 0.0
H224 H 0.93971 0.46397 0.84938 0.0
H225 H 0.87204 0.4323 0.91038 0.0
H226 H 0.89654 0.29708 0.93112 0.0
H227 H 0.96228 0.32783 0.86757 0.0
H228 H 0.02427 0.49591 0.92988 0.0
H229 H 0.99898 0.46592 0.00722 0.0
H230 H 0.04966 0.34808 0.98683 0.0
H231 H 0.07306 0.37732 0.90927 0.0
H232 H 0.17306 0.5858 0.8928 0.0
H233 H 0.27214 0.62968 0.9168 0.0
H234 H 0.26689 0.47802 0.89861 0.0
H235 H 0.16915 0.43555 0.87312 0.0
H236 H 0.1899 0.61512 0.80458 0.0
H237 H 0.28726 0.67322 0.77649 0.0
H238 H 0.29319 0.53022 0.74245 0.0
H239 H 0.19609 0.47268 0.7712 0.0
H240 H 0.09574 0.57912 0.74309 0.0
H241 H 0.16242 0.63156 0.68296 0.0
H242 H 0.17021 0.49024 0.64646 0.0
H243 H 0.10398 0.43869 0.70647 0.0
H244 H 0.94634 0.47287 0.76424 0.0
H245 H 0.84849 0.40619 0.74244 0.0
H246 H 0.89446 0.28418 0.72971 0.0
H247 H 0.99154 0.35082 0.75162 0.0
O248 O 0.9897 0.41214 0.07762 0.0
O249 O 0.01241 0.34964 0.06453 0.0
O250 O 0.38146 0.69047 0.74338 0.0
O251 O 0.38148 0.6187 0.71596 0.0
C252 C 0.01493 0.43225 0.83604 0.0
C253 C 0.06083 0.45358 0.86615 0.0
C254 C 0.11616 0.4887 0.85067 0.0
C255 C 0.12629 0.50444 0.80565 0.0
C256 C 0.08045 0.48456 0.77544 0.0
C257 C 0.02451 0.44679 0.79038 0.0
C258 C 0.95671 0.39884 0.85465 0.0
C259 C 0.92766 0.42552 0.86498 0.0
C260 C 0.88987 0.40787 0.90075 0.0
C261 C 0.8814 0.36379 0.92703 0.0
C262 C 0.90351 0.33206 0.91222 0.0
C263 C 0.9404 0.34911 0.87551 0.0
C264 C 0.05085 0.43904 0.91415 0.0
C265 C 0.03022 0.4639 0.94232 0.0
C266 C 0.01552 0.44647 0.98637 0.0
C267 C 0.02225 0.40455 0.00318 0.0
C268 C 0.04392 0.38042 0.97494 0.0
C269 C 0.05799 0.39748 0.9308 0.0
C270 C 0.16482 0.508 0.88074 0.0
C271 C 0.19277 0.56169 0.89593 0.0
C272 C 0.24924 0.58663 0.90939 0.0
C273 C 0.27735 0.5575 0.90826 0.0
C274 C 0.24634 0.50154 0.89934 0.0
C275 C 0.19037 0.47702 0.88505 0.0
C276 C 0.18596 0.53981 0.78959 0.0
C277 C 0.21246 0.59651 0.79123 0.0
C278 C 0.26801 0.62953 0.77517 0.0
C279 C 0.29785 0.60631 0.75697 0.0
C280 C 0.27129 0.54939 0.75598 0.0
C281 C 0.21592 0.51646 0.77239 0.0
C282 C 0.0944 0.50476 0.729 0.0
C283 C 0.10954 0.55874 0.72056 0.0
C284 C 0.14904 0.58918 0.68699 0.0
C285 C 0.17361 0.56591 0.66103 0.0
C286 C 0.15349 0.51011 0.66658 0.0
C287 C 0.1141 0.47983 0.70007 0.0
C288 C 0.97615 0.41677 0.75952 0.0
C289 C 0.93593 0.4325 0.75452 0.0
C290 C 0.87982 0.39411 0.74249 0.0
C291 C 0.86336 0.33952 0.73543 0.0
C292 C 0.90548 0.32567 0.73552 0.0
C293 C 0.96135 0.36398 0.74742 0.0
C294 C 0.00766 0.38682 0.05018 0.0
C295 C 0.35616 0.64118 0.73856 0.0
H296 H 0.35001 0.03397 0.7242 0.0
H297 H 0.41495 0.65443 0.03401 0.0
H298 H 0.49521 0.12029 0.93265 0.0
H299 H 0.54674 0.18978 0.87586 0.0
H300 H 0.68411 0.15784 0.88049 0.0
H301 H 0.63213 0.08848 0.93681 0.0
H302 H 0.38047 0.98069 0.9057 0.0
H303 H 0.35119 0.99693 0.83355 0.0
H304 H 0.52219 0.06168 0.78298 0.0
H305 H 0.55064 0.0445 0.85475 0.0
H306 H 0.3745 0.84432 0.92614 0.0
H307 H 0.38554 0.77253 0.89282 0.0
H308 H 0.55271 0.89404 0.84469 0.0
H309 H 0.54367 0.96361 0.88085 0.0
H310 H 0.38049 0.86761 0.0339 0.0
H311 H 0.34763 0.7741 0.05666 0.0
H312 H 0.49455 0.7853 0.99219 0.0
H313 H 0.52726 0.87896 0.97028 0.0
H314 H 0.45509 0.97235 0.0937 0.0
H315 H 0.46086 0.93025 0.16263 0.0
H316 H 0.59553 0.91347 0.10544 0.0
H317 H 0.58768 0.95323 0.03596 0.0
H318 H 0.53422 0.12241 0.03514 0.0
H319 H 0.61806 0.20632 0.06162 0.0
H320 H 0.71696 0.12887 0.05278 0.0
H321 H 0.6354 0.04806 0.02351 0.0
O322 O 0.36243 0.0278 0.75246 0.0
O323 O 0.45109 0.06094 0.72826 0.0
O324 O 0.35505 0.68928 0.06157 0.0
O325 O 0.42754 0.6916 0.02611 0.0
C326 C 0.52168 0.04486 0.9585 0.0
C327 C 0.48433 0.00172 0.93028 0.0
C328 C 0.46614 0.94788 0.94247 0.0
C329 C 0.47537 0.93638 0.98629 0.0
C330 C 0.50838 0.97932 0.01592 0.0
C331 C 0.53333 0.03363 0.00159 0.0
C332 C 0.5595 0.09885 0.93816 0.0
C333 C 0.53753 0.13016 0.92283 0.0
C334 C 0.56706 0.16964 0.8902 0.0
C335 C 0.6186 0.17778 0.87258 0.0
C336 C 0.64409 0.15181 0.89278 0.0
C337 C 0.61459 0.11244 0.92534 0.0
C338 C 0.46788 0.01215 0.88594 0.0
C339 C 0.41156 0.99841 0.87902 0.0
C340 C 0.39495 0.00776 0.83776 0.0
C341 C 0.43441 0.03084 0.80255 0.0
C342 C 0.49075 0.04404 0.80943 0.0
C343 C 0.50719 0.03446 0.85061 0.0
C344 C 0.45865 0.9092 0.90676 0.0
C345 C 0.41232 0.85546 0.90666 0.0
C346 C 0.41878 0.81454 0.88764 0.0
C347 C 0.47102 0.82781 0.86783 0.0
C348 C 0.51256 0.88248 0.86075 0.0
C349 C 0.50689 0.92277 0.88079 0.0
C350 C 0.45581 0.8797 6e-05 0.0
C351 C 0.40544 0.84973 0.02477 0.0
C352 C 0.38684 0.7964 0.03772 0.0
C353 C 0.41834 0.77214 0.02605 0.0
C354 C 0.46919 0.80265 0.00163 0.0
C355 C 0.48793 0.85609 0.98901 0.0
C356 C 0.52137 0.96637 0.0602 0.0
C357 C 0.48698 0.96114 0.09659 0.0
C358 C 0.49026 0.93702 0.13572 0.0
C359 C 0.52876 0.91886 0.13911 0.0
C360 C 0.56615 0.92787 0.10379 0.0
C361 C 0.56182 0.95072 0.06425 0.0
C362 C 0.57822 0.0785 0.02834 0.0
C363 C 0.57364 0.12325 0.04033 0.0
C364 C 0.62147 0.17105 0.05535 0.0
C365 C 0.67402 0.17412 0.05912 0.0
C366 C 0.677 0.1277 0.05067 0.0
C367 C 0.62989 0.08079 0.0346 0.0
C368 C 0.41671 0.04085 0.75882 0.0
C369 C 0.39827 0.71522 0.0391 0.0
H370 H 0.59862 0.63415 0.81705 0.0
H371 H 0.8437 0.47439 0.24975 0.0
H372 H 0.53017 0.5995 0.08454 0.0
H373 H 0.48232 0.61926 0.02699 0.0
H374 H 0.64376 0.75515 0.98268 0.0
H375 H 0.69151 0.73578 0.04203 0.0
H376 H 0.56988 0.56435 0.00268 0.0
H377 H 0.5647 0.58319 0.9241 0.0
H378 H 0.74669 0.6957 0.92186 0.0
H379 H 0.75086 0.67815 0.00099 0.0
H380 H 0.62085 0.48088 0.04146 0.0
H381 H 0.65871 0.42209 0.02601 0.0
H382 H 0.82929 0.5631 0.0253 0.0
H383 H 0.79105 0.62082 0.04206 0.0
H384 H 0.63622 0.46601 0.13083 0.0
H385 H 0.67662 0.41805 0.16805 0.0
H386 H 0.83421 0.57082 0.18683 0.0
H387 H 0.7937 0.61812 0.14866 0.0
H388 H 0.57463 0.5059 0.18423 0.0
H389 H 0.58448 0.45534 0.24526 0.0
H390 H 0.74793 0.59645 0.27694 0.0
H391 H 0.73754 0.64617 0.21583 0.0
H392 H 0.53731 0.60074 0.1661 0.0
H393 H 0.51154 0.65971 0.20563 0.0
H394 H 0.68897 0.78725 0.20801 0.0
H395 H 0.71378 0.7286 0.16766 0.0
O396 O 0.60134 0.62833 0.84837 0.0
O397 O 0.69529 0.68391 0.84833 0.0
O398 O 0.75711 0.41311 0.20693 0.0
O399 O 0.82882 0.49185 0.2315 0.0
C400 C 0.64243 0.63834 0.08614 0.0
C401 C 0.6627 0.61379 0.05633 0.0
C402 C 0.68458 0.58298 0.0731 0.0
C403 C 0.68565 0.57559 0.11922 0.0
C404 C 0.66231 0.59716 0.14878 0.0
C405 C 0.64243 0.63019 0.13256 0.0
C406 C 0.61432 0.66586 0.06726 0.0
C407 C 0.55492 0.63572 0.06449 0.0
C408 C 0.52776 0.64646 0.03076 0.0
C409 C 0.55968 0.68744 -0.00076 0.0
C410 C 0.61825 0.72275 0.00608 0.0
C411 C 0.64549 0.71213 0.04027 0.0
C412 C 0.66067 0.62013 0.0075 0.0
C413 C 0.60857 0.59291 0.9851 0.0
C414 C 0.60574 0.60386 0.94026 0.0
C415 C 0.65527 0.64111 0.91675 0.0
C416 C 0.70773 0.66691 0.93903 0.0
C417 C 0.71034 0.65661 0.98408 0.0
C418 C 0.70348 0.55473 0.04339 0.0
C419 C 0.66613 0.49918 0.03559 0.0
C420 C 0.68784 0.46563 0.02744 0.0
C421 C 0.74692 0.4879 0.02619 0.0
C422 C 0.78352 0.54468 0.02702 0.0
C423 C 0.76184 0.57798 0.03589 0.0
C424 C 0.71203 0.5455 0.13716 0.0
C425 C 0.67983 0.48886 0.1422 0.0
C426 C 0.70292 0.46164 0.16363 0.0
C427 C 0.75843 0.49075 0.18084 0.0
C428 C 0.79118 0.54729 0.17433 0.0
C429 C 0.76828 0.57436 0.15237 0.0
C430 C 0.65535 0.57974 0.19572 0.0
C431 C 0.61116 0.52669 0.20588 0.0
C432 C 0.61767 0.49729 0.23986 0.0
C433 C 0.66811 0.52102 0.26458 0.0
C434 C 0.70918 0.57636 0.25766 0.0
C435 C 0.70268 0.60558 0.2236 0.0
C436 C 0.62728 0.66076 0.16357 0.0
C437 C 0.57054 0.64114 0.17579 0.0
C438 C 0.55598 0.67486 0.19842 0.0
C439 C 0.59816 0.7284 0.20958 0.0
C440 C 0.6554 0.74635 0.19987 0.0
C441 C 0.66974 0.7129 0.17685 0.0
C442 C 0.65208 0.65263 0.86914 0.0
C443 C 0.78142 0.46271 0.2069 0.0
O444 O 0.61612 0.43553 0.41507 0.0
Cd445 Cd 0.63725 0.40116 0.3646 0.0
Cd446 Cd 0.74055 0.48723 0.37919 0.0
O447 O 0.70306 0.49874 0.43501 0.0
O448 O 0.57731 0.32151 0.36371 0.0
O449 O 0.66764 0.35219 0.37848 0.0
C450 C 0.61611 0.31137 0.3752 0.0
C451 C 0.82829 0.49094 0.37305 0.0
C452 C 0.64915 0.47569 0.43939 0.0
C453 C 0.67728 0.48963 0.29894 0.0
O454 O 0.71947 0.51503 0.32468 0.0
O455 O 0.64132 0.43922 0.30505 0.0
O456 O 0.82593 0.53364 0.38186 0.0
O457 O 0.78061 0.44511 0.37085 0.0
O458 O 0.23819 0.5744 0.60442 0.0
Cd459 Cd 0.29205 0.60176 0.55052 0.0
Cd460 Cd 0.27839 0.68897 0.56129 0.0
O461 O 0.23412 0.64761 0.61896 0.0
O462 O 0.32183 0.55089 0.54744 0.0
O463 O 0.37802 0.63873 0.5585 0.0
C464 C 0.3722 0.59133 0.5554 0.0
C465 C 0.35256 0.78167 0.55605 0.0
C466 C 0.21847 0.59823 0.62723 0.0
C467 C 0.21869 0.61433 0.48403 0.0
O468 O 0.22731 0.65555 0.50621 0.0
O469 O 0.24531 0.59014 0.49329 0.0
O470 O 0.30038 0.76765 0.56362 0.0
O471 O 0.3634 0.74305 0.55351 0.0
O472 O 0.67905 0.20234 0.8087 0.0
Cd473 Cd 0.70669 0.22723 0.74389 0.0
Cd474 Cd 0.61945 0.2424 0.7435 0.0
O475 O 0.61057 0.22058 0.80853 0.0
O476 O 0.78748 0.24589 0.7404 0.0
O477 O 0.76238 0.307 0.73249 0.0
C478 C 0.80232 0.29599 0.73458 0.0
C479 C 0.61568 0.31928 0.72838 0.0
C480 C 0.63904 0.20402 0.82872 0.0
C481 C 0.61147 0.15732 0.68135 0.0
O482 O 0.5868 0.1807 0.69738 0.0
O483 O 0.66158 0.17169 0.69374 0.0
O484 O 0.57064 0.27373 0.73861 0.0
O485 O 0.6636 0.32113 0.72612 0.0
O486 O 0.55717 0.72714 0.92999 0.0
Cd487 Cd 0.51978 0.72788 0.87088 0.0
Cd488 Cd 0.43572 0.62939 0.89233 0.0
O489 O 0.48565 0.64557 0.94702 0.0
O490 O 0.54058 0.80264 0.85685 0.0
O491 O 0.45289 0.73698 0.87455 0.0
C492 C 0.4879 0.78715 0.86418 0.0
C493 C 0.33961 0.5866 0.90708 0.0
C494 C 0.53269 0.68758 0.95706 0.0
C495 C 0.49575 0.64514 0.80371 0.0
O496 O 0.45592 0.61327 0.83001 0.0
O497 O 0.52979 0.69412 0.81462 0.0
O498 O 0.36571 0.56019 0.90812 0.0
O499 O 0.36872 0.63796 0.89856 0.0
O500 O 0.85256 0.32043 -0.00166 0.0
Cd501 Cd 0.81306 0.30682 0.05947 0.0
Cd502 Cd 0.8121 0.40147 0.04335 0.0
O503 O 0.84145 0.38928 0.9846 0.0
O504 O 0.77464 0.22814 0.06971 0.0
O505 O 0.72873 0.27194 0.05893 0.0
C506 C 0.72725 0.22668 0.06465 0.0
C507 C 0.77089 0.45288 0.03051 0.0
C508 C 0.85591 0.35621 0.97181 0.0
C509 C 0.86966 0.39294 0.12731 0.0
O510 O 0.85588 0.42033 0.10298 0.0
O511 O 0.85731 0.3457 0.11563 0.0
O512 O 0.82504 0.47389 0.0288 0.0
O513 O 0.7394 0.40191 0.04023 0.0
O514 O 0.56616 0.88249 0.1907 0.0
Cd515 Cd 0.55951 0.83259 0.24266 0.0
Cd516 Cd 0.44933 0.79383 0.24007 0.0
O517 O 0.47425 0.85165 0.19203 0.0
O518 O 0.62146 0.81646 0.23665 0.0
O519 O 0.52997 0.75458 0.22823 0.0
C520 C 0.58252 0.76727 0.22669 0.0
C521 C 0.36327 0.71528 0.22395 0.0
C522 C 0.52346 0.88365 0.17637 0.0
C523 C 0.50696 0.84905 0.32411 0.0
O524 O 0.46003 0.82176 0.30388 0.0
O525 O 0.55292 0.85754 0.306 0.0
O526 O 0.36674 0.76064 0.23244 0.0
O527 O 0.40918 0.71356 0.22553 0.0
loop_
_geom_bond_atom_site_label_1
_geom_bond_atom_site_label_2
_geom_bond_distance
_geom_bond_site_symmetry_2
_ccdc_geom_bond_type
H0 O26 0.856 . S
H1 O29 0.854 . S
H2 C37 0.930 1_455 S
H3 C38 0.930 . S
H4 C40 0.930 . S
H5 C41 0.930 . S
H6 C43 0.931 . S
H7 C44 0.930 . S
H8 C46 0.930 . S
H9 C47 0.929 . S
H10 C49 0.930 . S
H11 C50 0.931 . S
H12 C52 0.930 . S
H13 C53 0.929 . S
H14 C55 0.931 . S
H15 C56 0.930 . S
H16 C58 0.930 . S
H17 C59 0.932 . S
H18 C61 0.930 . S
H19 C62 0.929 . S
H20 C64 0.931 . S
H21 C65 0.930 . S
H22 C67 0.929 . S
H23 C68 0.931 . S
H24 C70 0.930 . S
H25 C71 0.929 . S
O26 H0 0.856 . S
O26 C72 1.300 . S
O27 C72 1.209 . S
O28 C73 1.199 . S
O29 H1 0.854 . S
O29 C73 1.297 . S
C30 C31 1.404 . S
C30 C35 1.397 . S
C30 C36 1.479 1_455 S
C31 C30 1.404 . S
C31 C32 1.396 . S
C31 C42 1.492 . S
C32 C31 1.396 . S
C32 C33 1.397 . S
C32 C48 1.509 . S
C33 C32 1.397 . S
C33 C34 1.412 . S
C33 C54 1.485 . S
C34 C33 1.412 . S
C34 C35 1.388 . S
C34 C60 1.490 . S
C35 C30 1.397 . S
C35 C34 1.388 . S
C35 C66 1.519 1_455 S
C36 C30 1.479 1_655 S
C36 C37 1.356 . S
C36 C41 1.411 . S
C37 H2 0.930 1_655 S
C37 C36 1.356 . S
C37 C38 1.372 . S
C38 H3 0.930 . S
C38 C37 1.372 . S
C38 C39 1.383 . S
C39 C38 1.383 . S
C39 C40 1.395 . S
C40 H4 0.930 . S
C40 C39 1.395 . S
C40 C41 1.362 . S
C41 H5 0.930 . S
C41 C36 1.411 . S
C41 C40 1.362 . S
C42 C31 1.492 . S
C42 C43 1.377 . S
C42 C47 1.397 . S
C43 H6 0.931 . S
C43 C42 1.377 . S
C43 C44 1.376 . S
C44 H7 0.930 . S
C44 C43 1.376 . S
C44 C45 1.376 . S
C45 C44 1.376 . S
C45 C46 1.378 . S
C45 C72 1.486 . S
C46 H8 0.930 . S
C46 C45 1.378 . S
C46 C47 1.376 . S
C47 H9 0.929 . S
C47 C42 1.397 . S
C47 C46 1.376 . S
C48 C32 1.509 . S
C48 C49 1.391 . S
C48 C53 1.386 . S
C49 H10 0.930 . S
C49 C48 1.391 . S
C49 C50 1.375 . S
C50 H11 0.931 . S
C50 C49 1.375 . S
C50 C51 1.375 . S
C51 C50 1.375 . S
C51 C52 1.361 . S
C52 H12 0.930 . S
C52 C51 1.361 . S
C52 C53 1.399 . S
C53 H13 0.929 . S
C53 C48 1.386 . S
C53 C52 1.399 . S
C54 C33 1.485 . S
C54 C55 1.394 . S
C54 C59 1.360 . S
C55 H14 0.931 . S
C55 C54 1.394 . S
C55 C56 1.372 . S
C56 H15 0.930 . S
C56 C55 1.372 . S
C56 C57 1.397 . S
C57 C56 1.397 . S
C57 C58 1.390 . S
C57 C73 1.476 . S
C58 H16 0.930 . S
C58 C57 1.390 . S
C58 C59 1.366 . S
C59 H17 0.932 . S
C59 C54 1.360 . S
C59 C58 1.366 . S
C60 C34 1.490 . S
C60 C61 1.380 . S
C60 C65 1.386 . S
C61 H18 0.930 . S
C61 C60 1.380 . S
C61 C62 1.381 . S
C62 H19 0.929 . S
C62 C61 1.381 . S
C62 C63 1.371 . S
C63 C62 1.371 . S
C63 C64 1.380 . S
C64 H20 0.931 . S
C64 C63 1.380 . S
C64 C65 1.387 . S
C65 H21 0.930 . S
C65 C60 1.386 . S
C65 C64 1.387 . S
C66 C35 1.519 1_655 S
C66 C67 1.377 . S
C66 C71 1.361 . S
C67 H22 0.929 . S
C67 C66 1.377 . S
C67 C68 1.386 . S
C68 H23 0.931 . S
C68 C67 1.386 . S
C68 C69 1.363 . S
C69 C68 1.363 . S
C69 C70 1.385 . S
C70 H24 0.930 . S
C70 C69 1.385 . S
C70 C71 1.396 . S
C71 H25 0.929 . S
C71 C66 1.361 . S
C71 C70 1.396 . S
C72 O26 1.300 . S
C72 O27 1.209 . S
C72 C45 1.486 . S
C73 O28 1.199 . S
C73 O29 1.297 . S
C73 C57 1.476 . S
H74 O100 0.856 . S
H75 O103 0.854 . S
H76 C111 0.930 1_545 S
H77 C112 0.930 . S
H78 C114 0.930 . S
H79 C115 0.930 . S
H80 C117 0.931 . S
H81 C118 0.930 . S
H82 C120 0.930 . S
H83 C121 0.929 . S
H84 C123 0.930 . S
H85 C124 0.931 . S
H86 C126 0.930 . S
H87 C127 0.929 . S
H88 C129 0.931 . S
H89 C130 0.930 . S
H90 C132 0.930 . S
H91 C133 0.932 . S
H92 C135 0.930 . S
H93 C136 0.929 . S
H94 C138 0.931 . S
H95 C139 0.930 . S
H96 C141 0.929 . S
H97 C142 0.931 . S
H98 C144 0.930 . S
H99 C145 0.929 . S
O100 H74 0.856 . S
O100 C146 1.300 . S
O101 C146 1.209 . S
O102 C147 1.199 . S
O103 H75 0.854 . S
O103 C147 1.297 . S
C104 C105 1.404 . S
C104 C109 1.397 . S
C104 C110 1.492 1_545 S
C105 C104 1.404 . S
C105 C106 1.396 . S
C105 C116 1.492 . S
C106 C105 1.396 . S
C106 C107 1.397 . S
C106 C122 1.509 . S
C107 C106 1.397 . S
C107 C108 1.412 . S
C107 C128 1.485 . S
C108 C107 1.412 . S
C108 C109 1.388 . S
C108 C134 1.490 . S
C109 C104 1.397 . S
C109 C108 1.388 . S
C109 C140 1.519 1_545 S
C110 C104 1.492 1_565 S
C110 C111 1.363 . S
C110 C115 1.390 . S
C111 H76 0.930 1_565 S
C111 C110 1.363 . S
C111 C112 1.372 . S
C112 H77 0.930 . S
C112 C111 1.372 . S
C112 C113 1.383 . S
C113 C112 1.383 . S
C113 C114 1.395 . S
C114 H78 0.930 . S
C114 C113 1.395 . S
C114 C115 1.362 . S
C115 H79 0.930 . S
C115 C110 1.390 . S
C115 C114 1.362 . S
C116 C105 1.492 . S
C116 C117 1.377 . S
C116 C121 1.397 . S
C117 H80 0.931 . S
C117 C116 1.377 . S
C117 C118 1.376 . S
C118 H81 0.930 . S
C118 C117 1.376 . S
C118 C119 1.376 . S
C119 C118 1.376 . S
C119 C120 1.378 . S
C119 C146 1.486 . S
C120 H82 0.930 . S
C120 C119 1.378 . S
C120 C121 1.376 . S
C121 H83 0.929 . S
C121 C116 1.397 . S
C121 C120 1.376 . S
C122 C106 1.509 . S
C122 C123 1.391 . S
C122 C127 1.386 . S
C123 H84 0.930 . S
C123 C122 1.391 . S
C123 C124 1.375 . S
C124 H85 0.931 . S
C124 C123 1.375 . S
C124 C125 1.375 . S
C125 C124 1.375 . S
C125 C126 1.361 . S
C126 H86 0.930 . S
C126 C125 1.361 . S
C126 C127 1.399 . S
C127 H87 0.929 . S
C127 C122 1.386 . S
C127 C126 1.399 . S
C128 C107 1.485 . S
C128 C129 1.394 . S
C128 C133 1.360 . S
C129 H88 0.931 . S
C129 C128 1.394 . S
C129 C130 1.372 . S
C130 H89 0.930 . S
C130 C129 1.372 . S
C130 C131 1.397 . S
C131 C130 1.397 . S
C131 C132 1.390 . S
C131 C147 1.476 . S
C132 H90 0.930 . S
C132 C131 1.390 . S
C132 C133 1.366 . S
C133 H91 0.932 . S
C133 C128 1.360 . S
C133 C132 1.366 . S
C134 C108 1.490 . S
C134 C135 1.380 . S
C134 C139 1.386 . S
C135 H92 0.930 . S
C135 C134 1.380 . S
C135 C136 1.381 . S
C136 H93 0.929 . S
C136 C135 1.381 . S
C136 C137 1.371 . S
C137 C136 1.371 . S
C137 C138 1.380 . S
C138 H94 0.931 . S
C138 C137 1.380 . S
C138 C139 1.387 . S
C139 H95 0.930 . S
C139 C134 1.386 . S
C139 C138 1.387 . S
C140 C109 1.519 1_565 S
C140 C141 1.377 . S
C140 C145 1.361 . S
C141 H96 0.929 . S
C141 C140 1.377 . S
C141 C142 1.386 . S
C142 H97 0.931 . S
C142 C141 1.386 . S
C142 C143 1.363 . S
C143 C142 1.363 . S
C143 C144 1.385 . S
C144 H98 0.930 . S
C144 C143 1.385 . S
C144 C145 1.396 . S
C145 H99 0.929 . S
C145 C140 1.361 . S
C145 C144 1.396 . S
C146 O100 1.300 . S
C146 O101 1.209 . S
C146 C119 1.486 . S
C147 O102 1.199 . S
C147 O103 1.297 . S
C147 C131 1.476 . S
H148 O174 0.856 . S
H149 O177 0.854 . S
H150 C185 0.930 . S
H151 C186 0.930 . S
H152 C188 0.930 . S
H153 C189 0.930 . S
H154 C191 0.931 . S
H155 C192 0.930 . S
H156 C194 0.930 . S
H157 C195 0.929 . S
H158 C197 0.930 . S
H159 C198 0.931 . S
H160 C200 0.930 . S
H161 C201 0.929 . S
H162 C203 0.931 . S
H163 C204 0.930 . S
H164 C206 0.930 . S
H165 C207 0.932 . S
H166 C209 0.930 . S
H167 C210 0.929 . S
H168 C212 0.931 . S
H169 C213 0.930 . S
H170 C215 0.929 . S
H171 C216 0.931 . S
H172 C218 0.930 . S
H173 C219 0.929 . S
O174 H148 0.856 . S
O174 C220 1.300 . S
O175 C220 1.209 . S
O176 C221 1.199 . S
O177 H149 0.854 . S
O177 C221 1.297 . S
C178 C179 1.404 . S
C178 C183 1.397 . S
C178 C184 1.492 . S
C179 C178 1.404 . S
C179 C180 1.396 . S
C179 C190 1.492 . S
C180 C179 1.396 . S
C180 C181 1.397 . S
C180 C196 1.509 . S
C181 C180 1.397 . S
C181 C182 1.412 . S
C181 C202 1.485 . S
C182 C181 1.412 . S
C182 C183 1.388 . S
C182 C208 1.490 . S
C183 C178 1.397 . S
C183 C182 1.388 . S
C183 C214 1.519 . S
C184 C178 1.492 . S
C184 C185 1.363 . S
C184 C189 1.390 . S
C185 H150 0.930 . S
C185 C184 1.363 . S
C185 C186 1.372 . S
C186 H151 0.930 . S
C186 C185 1.372 . S
C186 C187 1.383 . S
C187 C186 1.383 . S
C187 C188 1.395 . S
C188 H152 0.930 . S
C188 C187 1.395 . S
C188 C189 1.362 . S
C189 H153 0.930 . S
C189 C184 1.390 . S
C189 C188 1.362 . S
C190 C179 1.492 . S
C190 C191 1.377 . S
C190 C195 1.397 . S
C191 H154 0.931 . S
C191 C190 1.377 . S
C191 C192 1.376 . S
C192 H155 0.930 . S
C192 C191 1.376 . S
C192 C193 1.376 . S
C193 C192 1.376 . S
C193 C194 1.378 . S
C193 C220 1.486 . S
C194 H156 0.930 . S
C194 C193 1.378 . S
C194 C195 1.376 . S
C195 H157 0.929 . S
C195 C190 1.397 . S
C195 C194 1.376 . S
C196 C180 1.509 . S
C196 C197 1.391 . S
C196 C201 1.386 . S
C197 H158 0.930 . S
C197 C196 1.391 . S
C197 C198 1.375 . S
C198 H159 0.931 . S
C198 C197 1.375 . S
C198 C199 1.375 . S
C199 C198 1.375 . S
C199 C200 1.361 . S
C200 H160 0.930 . S
C200 C199 1.361 . S
C200 C201 1.399 . S
C201 H161 0.929 . S
C201 C196 1.386 . S
C201 C200 1.399 . S
C202 C181 1.485 . S
C202 C203 1.394 . S
C202 C207 1.360 . S
C203 H162 0.931 . S
C203 C202 1.394 . S
C203 C204 1.372 . S
C204 H163 0.930 . S
C204 C203 1.372 . S
C204 C205 1.397 . S
C205 C204 1.397 . S
C205 C206 1.390 . S
C205 C221 1.476 . S
C206 H164 0.930 . S
C206 C205 1.390 . S
C206 C207 1.366 . S
C207 H165 0.932 . S
C207 C202 1.360 . S
C207 C206 1.366 . S
C208 C182 1.490 . S
C208 C209 1.380 . S
C208 C213 1.386 . S
C209 H166 0.930 . S
C209 C208 1.380 . S
C209 C210 1.381 . S
C210 H167 0.929 . S
C210 C209 1.381 . S
C210 C211 1.371 . S
C211 C210 1.371 . S
C211 C212 1.380 . S
C212 H168 0.931 . S
C212 C211 1.380 . S
C212 C213 1.387 . S
C213 H169 0.930 . S
C213 C208 1.386 . S
C213 C212 1.387 . S
C214 C183 1.519 . S
C214 C215 1.377 . S
C214 C219 1.361 . S
C215 H170 0.929 . S
C215 C214 1.377 . S
C215 C216 1.386 . S
C216 H171 0.931 . S
C216 C215 1.386 . S
C216 C217 1.363 . S
C217 C216 1.363 . S
C217 C218 1.385 . S
C218 H172 0.930 . S
C218 C217 1.385 . S
C218 C219 1.396 . S
C219 H173 0.929 . S
C219 C214 1.361 . S
C219 C218 1.396 . S
C220 O174 1.300 . S
C220 O175 1.209 . S
C220 C193 1.486 . S
C221 O176 1.199 . S
C221 O177 1.297 . S
C221 C205 1.476 . S
H222 O248 0.856 . S
H223 O251 0.854 . S
H224 C259 0.930 1_455 S
H225 C260 0.930 . S
H226 C262 0.930 . S
H227 C263 0.930 . S
H228 C265 0.931 . S
H229 C266 0.930 . S
H230 C268 0.930 . S
H231 C269 0.929 . S
H232 C271 0.930 . S
H233 C272 0.931 . S
H234 C274 0.930 . S
H235 C275 0.929 . S
H236 C277 0.931 . S
H237 C278 0.930 . S
H238 C280 0.930 . S
H239 C281 0.932 . S
H240 C283 0.930 . S
H241 C284 0.929 . S
H242 C286 0.931 . S
H243 C287 0.930 . S
H244 C289 0.929 . S
H245 C290 0.931 . S
H246 C292 0.930 . S
H247 C293 0.929 . S
O248 H222 0.856 . S
O248 C294 1.300 . S
O249 C294 1.209 . S
O250 C295 1.199 . S
O251 H223 0.854 . S
O251 C295 1.297 . S
C252 C253 1.404 . S
C252 C257 1.397 . S
C252 C258 1.492 1_455 S
C253 C252 1.404 . S
C253 C254 1.396 . S
C253 C264 1.492 . S
C254 C253 1.396 . S
C254 C255 1.397 . S
C254 C270 1.509 . S
C255 C254 1.397 . S
C255 C256 1.412 . S
C255 C276 1.485 . S
C256 C255 1.412 . S
C256 C257 1.388 . S
C256 C282 1.490 . S
C257 C252 1.397 . S
C257 C256 1.388 . S
C257 C288 1.519 1_455 S
C258 C252 1.492 1_655 S
C258 C259 1.363 . S
C258 C263 1.390 . S
C259 H224 0.930 1_655 S
C259 C258 1.363 . S
C259 C260 1.372 . S
C260 H225 0.930 . S
C260 C259 1.372 . S
C260 C261 1.383 . S
C261 C260 1.383 . S
C261 C262 1.395 . S
C262 H226 0.930 . S
C262 C261 1.395 . S
C262 C263 1.362 . S
C263 H227 0.930 . S
C263 C258 1.390 . S
C263 C262 1.362 . S
C264 C253 1.492 . S
C264 C265 1.377 . S
C264 C269 1.397 . S
C265 H228 0.931 . S
C265 C264 1.377 . S
C265 C266 1.376 . S
C266 H229 0.930 . S
C266 C265 1.376 . S
C266 C267 1.367 1_556 S
C267 C266 1.367 1_554 S
C267 C268 1.366 1_554 S
C267 C294 1.508 . S
C268 H230 0.930 . S
C268 C267 1.366 1_556 S
C268 C269 1.376 . S
C269 H231 0.929 . S
C269 C264 1.397 . S
C269 C268 1.376 . S
C270 C254 1.509 . S
C270 C271 1.391 . S
C270 C275 1.386 . S
C271 H232 0.930 . S
C271 C270 1.391 . S
C271 C272 1.375 . S
C272 H233 0.931 . S
C272 C271 1.375 . S
C272 C273 1.375 . S
C273 C272 1.375 . S
C273 C274 1.361 . S
C274 H234 0.930 . S
C274 C273 1.361 . S
C274 C275 1.399 . S
C275 H235 0.929 . S
C275 C270 1.386 . S
C275 C274 1.399 . S
C276 C255 1.485 . S
C276 C277 1.394 . S
C276 C281 1.360 . S
C277 H236 0.931 . S
C277 C276 1.394 . S
C277 C278 1.372 . S
C278 H237 0.930 . S
C278 C277 1.372 . S
C278 C279 1.397 . S
C279 C278 1.397 . S
C279 C280 1.390 . S
C279 C295 1.476 . S
C280 H238 0.930 . S
C280 C279 1.390 . S
C280 C281 1.366 . S
C281 H239 0.932 . S
C281 C276 1.360 . S
C281 C280 1.366 . S
C282 C256 1.490 . S
C282 C283 1.380 . S
C282 C287 1.386 . S
C283 H240 0.930 . S
C283 C282 1.380 . S
C283 C284 1.381 . S
C284 H241 0.929 . S
C284 C283 1.381 . S
C284 C285 1.371 . S
C285 C284 1.371 . S
C285 C286 1.380 . S
C286 H242 0.931 . S
C286 C285 1.380 . S
C286 C287 1.387 . S
C287 H243 0.930 . S
C287 C282 1.386 . S
C287 C286 1.387 . S
C288 C257 1.519 1_655 S
C288 C289 1.377 . S
C288 C293 1.361 . S
C289 H244 0.929 . S
C289 C288 1.377 . S
C289 C290 1.386 . S
C290 H245 0.931 . S
C290 C289 1.386 . S
C290 C291 1.363 . S
C291 C290 1.363 . S
C291 C292 1.385 . S
C292 H246 0.930 . S
C292 C291 1.385 . S
C292 C293 1.396 . S
C293 H247 0.929 . S
C293 C288 1.361 . S
C293 C292 1.396 . S
C294 O248 1.300 . S
C294 O249 1.209 . S
C294 C267 1.508 . S
C295 O250 1.199 . S
C295 O251 1.297 . S
C295 C279 1.476 . S
H296 O322 0.856 . S
H297 O325 0.854 . S
H298 C333 0.930 . S
H299 C334 0.930 . S
H300 C336 0.930 . S
H301 C337 0.930 . S
H302 C339 0.931 . S
H303 C340 0.930 . S
H304 C342 0.929 1_545 S
H305 C343 0.929 1_545 S
H306 C345 0.930 . S
H307 C346 0.931 . S
H308 C348 0.930 . S
H309 C349 0.929 . S
H310 C351 0.931 . S
H311 C352 0.930 . S
H312 C354 0.930 . S
H313 C355 0.932 . S
H314 C357 0.930 . S
H315 C358 0.929 . S
H316 C360 0.931 . S
H317 C361 0.930 . S
H318 C363 0.929 1_556 S
H319 C364 0.931 . S
H320 C366 0.930 . S
H321 C367 0.929 . S
O322 H296 0.856 . S
O322 C368 1.300 . S
O323 C368 1.209 . S
O324 C369 1.199 . S
O325 H297 0.854 . S
O325 C369 1.297 . S
C326 C327 1.404 1_545 S
C326 C331 1.397 . S
C326 C332 1.492 . S
C327 C326 1.404 1_565 S
C327 C328 1.396 . S
C327 C338 1.492 . S
C328 C327 1.396 . S
C328 C329 1.397 1_556 S
C328 C344 1.509 . S
C329 C328 1.397 1_554 S
C329 C330 1.412 . S
C329 C350 1.485 . S
C330 C329 1.412 . S
C330 C331 1.388 1_564 S
C330 C356 1.490 . S
C331 C326 1.397 . S
C331 C330 1.388 1_546 S
C331 C362 1.519 1_556 S
C332 C326 1.492 . S
C332 C333 1.363 . S
C332 C337 1.390 . S
C333 H298 0.930 . S
C333 C332 1.363 . S
C333 C334 1.372 . S
C334 H299 0.930 . S
C334 C333 1.372 . S
C334 C335 1.383 . S
C335 C334 1.383 . S
C335 C336 1.395 . S
C336 H300 0.930 . S
C336 C335 1.395 . S
C336 C337 1.362 . S
C337 H301 0.930 . S
C337 C332 1.390 . S
C337 C336 1.362 . S
C338 C327 1.492 . S
C338 C339 1.377 . S
C338 C343 1.397 . S
C339 H302 0.931 . S
C339 C338 1.377 . S
C339 C340 1.376 . S
C340 H303 0.930 . S
C340 C339 1.376 . S
C340 C341 1.376 . S
C341 C340 1.376 . S
C341 C342 1.378 . S
C341 C368 1.486 . S
C342 H304 0.929 1_565 S
C342 C341 1.378 . S
C342 C343 1.376 . S
C343 H305 0.929 1_565 S
C343 C338 1.397 . S
C343 C342 1.376 . S
C344 C328 1.509 . S
C344 C345 1.391 . S
C344 C349 1.386 . S
C345 H306 0.930 . S
C345 C344 1.391 . S
C345 C346 1.375 . S
C346 H307 0.931 . S
C346 C345 1.375 . S
C346 C347 1.375 . S
C347 C346 1.375 . S
C347 C348 1.361 . S
C348 H308 0.930 . S
C348 C347 1.361 . S
C348 C349 1.399 . S
C349 H309 0.929 . S
C349 C344 1.386 . S
C349 C348 1.399 . S
C350 C329 1.485 . S
C350 C351 1.394 . S
C350 C355 1.360 . S
C351 H310 0.931 . S
C351 C350 1.394 . S
C351 C352 1.372 . S
C352 H311 0.930 . S
C352 C351 1.372 . S
C352 C353 1.397 . S
C353 C352 1.397 . S
C353 C354 1.390 . S
C353 C369 1.476 . S
C354 H312 0.930 . S
C354 C353 1.390 . S
C354 C355 1.366 . S
C355 H313 0.932 . S
C355 C350 1.360 . S
C355 C354 1.366 . S
C356 C330 1.490 . S
C356 C357 1.380 1_565 S
C356 C361 1.386 . S
C357 H314 0.930 . S
C357 C356 1.380 1_545 S
C357 C358 1.381 . S
C358 H315 0.929 . S
C358 C357 1.381 . S
C358 C359 1.371 . S
C359 C358 1.371 . S
C359 C360 1.380 1_545 S
C360 H316 0.931 . S
C360 C359 1.380 1_565 S
C360 C361 1.387 . S
C361 H317 0.930 . S
C361 C356 1.386 . S
C361 C360 1.387 . S
C362 C331 1.519 1_554 S
C362 C363 1.377 . S
C362 C367 1.361 . S
C363 H318 0.929 1_554 S
C363 C362 1.377 . S
C363 C364 1.386 . S
C364 H319 0.931 . S
C364 C363 1.386 . S
C364 C365 1.363 . S
C365 C364 1.363 . S
C365 C366 1.385 . S
C366 H320 0.930 . S
C366 C365 1.385 . S
C366 C367 1.396 . S
C367 H321 0.929 . S
C367 C362 1.361 . S
C367 C366 1.396 . S
C368 O322 1.300 . S
C368 O323 1.209 . S
C368 C341 1.486 . S
C369 O324 1.199 . S
C369 O325 1.297 . S
C369 C353 1.476 . S
H370 O396 0.856 . S
H371 O399 0.854 . S
H372 C407 0.930 . S
H373 C408 0.930 1_556 S
H374 C410 0.930 . S
H375 C411 0.930 . S
H376 C413 0.917 1_554 S
H377 C414 0.930 . S
H378 C416 0.930 . S
H379 C417 0.929 1_554 S
H380 C419 0.930 . S
H381 C420 0.931 . S
H382 C422 0.930 . S
H383 C423 0.929 . S
H384 C425 0.931 . S
H385 C426 0.930 . S
H386 C428 0.930 . S
H387 C429 0.932 . S
H388 C431 0.930 . S
H389 C432 0.929 . S
H390 C434 0.931 . S
H391 C435 0.930 . S
H392 C437 0.929 . S
H393 C438 0.931 . S
H394 C440 0.930 . S
H395 C441 0.929 . S
O396 H370 0.856 . S
O396 C442 1.300 . S
O397 C442 1.209 . S
O398 C443 1.199 . S
O399 H371 0.854 . S
O399 C443 1.297 . S
C400 C401 1.404 . S
C400 C405 1.397 . S
C400 C406 1.492 . S
C401 C400 1.404 . S
C401 C402 1.396 . S
C401 C412 1.492 . S
C402 C401 1.396 . S
C402 C403 1.397 . S
C402 C418 1.509 . S
C403 C402 1.397 . S
C403 C404 1.412 . S
C403 C424 1.485 . S
C404 C403 1.412 . S
C404 C405 1.388 . S
C404 C430 1.490 . S
C405 C400 1.397 . S
C405 C404 1.388 . S
C405 C436 1.519 . S
C406 C400 1.492 . S
C406 C407 1.363 . S
C406 C411 1.390 . S
C407 H372 0.930 . S
C407 C406 1.363 . S
C407 C408 1.372 . S
C408 H373 0.930 1_554 S
C408 C407 1.372 . S
C408 C409 1.383 . S
C409 C408 1.383 . S
C409 C410 1.394 . S
C410 H374 0.930 . S
C410 C409 1.394 . S
C410 C411 1.362 . S
C411 H375 0.930 . S
C411 C406 1.390 . S
C411 C410 1.362 . S
C412 C401 1.492 . S
C412 C413 1.365 1_554 S
C412 C417 1.397 1_554 S
C413 H376 0.917 1_556 S
C413 C412 1.365 1_556 S
C413 C414 1.401 . S
C414 H377 0.930 . S
C414 C413 1.401 . S
C414 C415 1.376 . S
C415 C414 1.376 . S
C415 C416 1.378 . S
C415 C442 1.486 . S
C416 H378 0.930 . S
C416 C415 1.378 . S
C416 C417 1.376 . S
C417 H379 0.929 1_556 S
C417 C412 1.397 1_556 S
C417 C416 1.376 . S
C418 C402 1.509 . S
C418 C419 1.391 . S
C418 C423 1.386 . S
C419 H380 0.930 . S
C419 C418 1.391 . S
C419 C420 1.375 . S
C420 H381 0.931 . S
C420 C419 1.375 . S
C420 C421 1.375 . S
C421 C420 1.375 . S
C421 C422 1.361 . S
C422 H382 0.930 . S
C422 C421 1.361 . S
C422 C423 1.399 . S
C423 H383 0.929 . S
C423 C418 1.386 . S
C423 C422 1.399 . S
C424 C403 1.485 . S
C424 C425 1.394 . S
C424 C429 1.360 . S
C425 H384 0.931 . S
C425 C424 1.394 . S
C425 C426 1.372 . S
C426 H385 0.930 . S
C426 C425 1.372 . S
C426 C427 1.397 . S
C427 C426 1.397 . S
C427 C428 1.390 . S
C427 C443 1.476 . S
C428 H386 0.930 . S
C428 C427 1.390 . S
C428 C429 1.366 . S
C429 H387 0.932 . S
C429 C424 1.360 . S
C429 C428 1.366 . S
C430 C404 1.490 . S
C430 C431 1.380 . S
C430 C435 1.386 . S
C431 H388 0.930 . S
C431 C430 1.380 . S
C431 C432 1.381 . S
C432 H389 0.929 . S
C432 C431 1.381 . S
C432 C433 1.371 . S
C433 C432 1.371 . S
C433 C434 1.380 . S
C434 H390 0.931 . S
C434 C433 1.380 . S
C434 C435 1.387 . S
C435 H391 0.930 . S
C435 C430 1.386 . S
C435 C434 1.387 . S
C436 C405 1.519 . S
C436 C437 1.377 . S
C436 C441 1.361 . S
C437 H392 0.929 . S
C437 C436 1.377 . S
C437 C438 1.386 . S
C438 H393 0.931 . S
C438 C437 1.386 . S
C438 C439 1.363 . S
C439 C438 1.363 . S
C439 C440 1.385 . S
C440 H394 0.930 . S
C440 C439 1.385 . S
C440 C441 1.396 . S
C441 H395 0.929 . S
C441 C436 1.361 . S
C441 C440 1.396 . S
C442 O396 1.300 . S
C442 O397 1.209 . S
C442 C415 1.486 . S
C443 O398 1.199 . S
C443 O399 1.297 . S
C443 C427 1.476 . S
O444 Cd445 2.223 . S
O444 C452 1.315 . S
Cd445 O444 2.223 . S
Cd445 O448 2.297 . S
Cd445 O449 2.439 . S
Cd445 O455 2.240 . S
Cd446 O447 2.240 . S
Cd446 O454 2.223 . S
Cd446 O456 2.297 . S
Cd446 O457 2.439 . S
O447 Cd446 2.240 . S
O447 C452 1.279 . S
O448 Cd445 2.297 . S
O448 C450 1.247 . S
O449 Cd445 2.439 . S
O449 C450 1.208 . S
C450 O448 1.247 . S
C450 O449 1.208 . S
C451 O456 1.247 . S
C451 O457 1.208 . S
C452 O444 1.315 . S
C452 O447 1.279 . S
C453 O454 1.315 . S
C453 O455 1.279 . S
O454 Cd446 2.223 . S
O454 C453 1.315 . S
O455 Cd445 2.240 . S
O455 C453 1.279 . S
O456 Cd446 2.297 . S
O456 C451 1.247 . S
O457 Cd446 2.439 . S
O457 C451 1.208 . S
O458 Cd459 2.223 . S
O458 C466 1.315 . S
Cd459 O458 2.223 . S
Cd459 O462 2.297 . S
Cd459 O463 2.439 . S
Cd459 O469 2.240 . S
Cd460 O461 2.240 . S
Cd460 O468 2.223 . S
Cd460 O470 2.297 . S
Cd460 O471 2.439 . S
O461 Cd460 2.240 . S
O461 C466 1.279 . S
O462 Cd459 2.297 . S
O462 C464 1.247 . S
O463 Cd459 2.439 . S
O463 C464 1.208 . S
C464 O462 1.247 . S
C464 O463 1.208 . S
C465 O470 1.247 . S
C465 O471 1.208 . S
C466 O458 1.315 . S
C466 O461 1.279 . S
C467 O468 1.315 . S
C467 O469 1.279 . S
O468 Cd460 2.223 . S
O468 C467 1.315 . S
O469 Cd459 2.240 . S
O469 C467 1.279 . S
O470 Cd460 2.297 . S
O470 C465 1.247 . S
O471 Cd460 2.439 . S
O471 C465 1.208 . S
O472 Cd473 2.223 . S
O472 C480 1.315 . S
Cd473 O472 2.223 . S
Cd473 O476 2.297 . S
Cd473 O477 2.439 . S
Cd473 O483 2.240 . S
Cd474 O475 2.240 . S
Cd474 O482 2.223 . S
Cd474 O484 2.297 . S
Cd474 O485 2.439 . S
O475 Cd474 2.240 . S
O475 C480 1.279 . S
O476 Cd473 2.297 . S
O476 C478 1.247 . S
O477 Cd473 2.439 . S
O477 C478 1.208 . S
C478 O476 1.247 . S
C478 O477 1.208 . S
C479 O484 1.247 . S
C479 O485 1.208 . S
C480 O472 1.315 . S
C480 O475 1.279 . S
C481 O482 1.315 . S
C481 O483 1.279 . S
O482 Cd474 2.223 . S
O482 C481 1.315 . S
O483 Cd473 2.240 . S
O483 C481 1.279 . S
O484 Cd474 2.297 . S
O484 C479 1.247 . S
O485 Cd474 2.439 . S
O485 C479 1.208 . S
O486 Cd487 2.223 . S
O486 C494 1.315 . S
Cd487 O486 2.223 . S
Cd487 O490 2.297 . S
Cd487 O491 2.439 . S
Cd487 O497 2.240 . S
Cd488 O489 2.240 . S
Cd488 O496 2.223 . S
Cd488 O498 2.297 . S
Cd488 O499 2.439 . S
O489 Cd488 2.240 . S
O489 C494 1.279 . S
O490 Cd487 2.297 . S
O490 C492 1.247 . S
O491 Cd487 2.439 . S
O491 C492 1.208 . S
C492 O490 1.247 . S
C492 O491 1.208 . S
C493 O498 1.247 . S
C493 O499 1.208 . S
C494 O486 1.315 . S
C494 O489 1.279 . S
C495 O496 1.315 . S
C495 O497 1.279 . S
O496 Cd488 2.223 . S
O496 C495 1.315 . S
O497 Cd487 2.240 . S
O497 C495 1.279 . S
O498 Cd488 2.297 . S
O498 C493 1.247 . S
O499 Cd488 2.439 . S
O499 C493 1.208 . S
O500 Cd501 2.223 . S
O500 C508 1.323 . S
Cd501 O500 2.223 . S
Cd501 O504 2.297 . S
Cd501 O505 2.439 . S
Cd501 O511 2.240 . S
Cd502 O503 2.237 1_554 S
Cd502 O510 2.223 . S
Cd502 O512 2.297 . S
Cd502 O513 2.439 . S
O503 Cd502 2.237 1_556 S
O503 C508 1.279 1_556 S
O504 Cd501 2.297 . S
O504 C506 1.247 . S
O505 Cd501 2.439 . S
O505 C506 1.208 . S
C506 O504 1.247 . S
C506 O505 1.208 . S
C507 O512 1.247 . S
C507 O513 1.208 . S
C508 O500 1.323 . S
C508 O503 1.279 1_554 S
C509 O510 1.315 . S
C509 O511 1.279 . S
O510 Cd502 2.223 . S
O510 C509 1.315 . S
O511 Cd501 2.240 . S
O511 C509 1.279 . S
O512 Cd502 2.297 . S
O512 C507 1.247 . S
O513 Cd502 2.439 . S
O513 C507 1.208 . S
O514 Cd515 2.223 . S
O514 C522 1.315 . S
Cd515 O514 2.223 . S
Cd515 O518 2.297 . S
Cd515 O519 2.439 . S
Cd515 O525 2.240 . S
Cd516 O517 2.240 . S
Cd516 O524 2.223 . S
Cd516 O526 2.297 . S
Cd516 O527 2.439 . S
O517 Cd516 2.240 . S
O517 C522 1.279 . S
O518 Cd515 2.297 . S
O518 C520 1.247 . S
O519 Cd515 2.439 . S
O519 C520 1.208 . S
C520 O518 1.247 . S
C520 O519 1.208 . S
C521 O526 1.247 . S
C521 O527 1.208 . S
C522 O514 1.315 . S
C522 O517 1.279 . S
C523 O524 1.315 . S
C523 O525 1.279 . S
O524 Cd516 2.223 . S
O524 C523 1.315 . S
O525 Cd515 2.240 . S
O525 C523 1.279 . S
O526 Cd516 2.297 . S
O526 C521 1.247 . S
O527 Cd516 2.439 . S
O527 C521 1.208 . S
C521 C51 2.278 . S
C125 C450 1.720 . S
C217 C464 3.435 . S
C291 C478 1.935 . S
C492 C347 1.600 . S
C421 C507 1.612 . S
C143 C465 2.913 . S
C199 C479 1.940 . S
C273 C493 1.016 . S
C506 C365 2.109 . S
C520 C439 2.101 . S
C451 C69 3.539 . S
C63 C467 2.173 . S
C137 C481 2.548 . S
C495 C187 2.183 . S
C261 C508 2.398 1_556 S
C522 C359 2.322 1_565 S
C453 C433 2.102 . S
C523 C113 2.749 . S
C211 C452 1.787 . S
C466 C285 2.851 . S
C335 C480 2.164 . S
C409 C494 2.351 1_554 S
C39 C509 2.082 . S
