# Generated by pormake.
# Topology llk, (3,12)-cn, num edge types: 1
# Building blocks:
#     Node 0, Type 0, BuildingBlock: ESEHIV_clean_linker_0, # of connection points: 3
#     Node 1, Type 0, BuildingBlock: ESEHIV_clean_linker_0, # of connection points: 3
#     Node 2, Type 0, BuildingBlock: ESEHIV_clean_linker_0, # of connection points: 3
#     Node 3, Type 0, BuildingBlock: ESEHIV_clean_linker_0, # of connection points: 3
#     Node 4, Type 0, BuildingBlock: ESEHIV_clean_linker_0, # of connection points: 3
#     Node 5, Type 0, BuildingBlock: ESEHIV_clean_linker_0, # of connection points: 3
#     Node 6, Type 0, BuildingBlock: ESEHIV_clean_linker_0, # of connection points: 3
#     Node 7, Type 0, BuildingBlock: ESEHIV_clean_linker_0, # of connection points: 3
#     Node 8, Type 0, BuildingBlock: ESEHIV_clean_linker_0, # of connection points: 3
#     Node 9, Type 0, BuildingBlock: ESEHIV_clean_linker_0, # of connection points: 3
#     Node 10, Type 0, BuildingBlock: ESEHIV_clean_linker_0, # of connection points: 3
#     Node 11, Type 0, BuildingBlock: ESEHIV_clean_linker_0, # of connection points: 3
#     Node 12, Type 0, BuildingBlock: ESEHIV_clean_linker_0, # of connection points: 3
#     Node 13, Type 0, BuildingBlock: ESEHIV_clean_linker_0, # of connection points: 3
#     Node 14, Type 0, BuildingBlock: ESEHIV_clean_linker_0, # of connection points: 3
#     Node 15, Type 0, BuildingBlock: ESEHIV_clean_linker_0, # of connection points: 3
#     Node 16, Type 0, BuildingBlock: ESEHIV_clean_linker_0, # of connection points: 3
#     Node 17, Type 0, BuildingBlock: ESEHIV_clean_linker_0, # of connection points: 3
#     Node 18, Type 0, BuildingBlock: ESEHIV_clean_linker_0, # of connection points: 3
#     Node 19, Type 0, BuildingBlock: ESEHIV_clean_linker_0, # of connection points: 3
#     Node 20, Type 0, BuildingBlock: ESEHIV_clean_linker_0, # of connection points: 3
#     Node 21, Type 0, BuildingBlock: ESEHIV_clean_linker_0, # of connection points: 3
#     Node 22, Type 0, BuildingBlock: ESEHIV_clean_linker_0, # of connection points: 3
#     Node 23, Type 0, BuildingBlock: ESEHIV_clean_linker_0, # of connection points: 3
#     Node 24, Type 1, BuildingBlock: EZIPEK_clean_sbu_0, # of connection points: 12
#     Node 25, Type 1, BuildingBlock: EZIPEK_clean_sbu_0, # of connection points: 12
#     Node 26, Type 1, BuildingBlock: EZIPEK_clean_sbu_0, # of connection points: 12
#     Node 27, Type 1, BuildingBlock: EZIPEK_clean_sbu_0, # of connection points: 12
#     Node 28, Type 1, BuildingBlock: EZIPEK_clean_sbu_0, # of connection points: 12
#     Node 29, Type 1, BuildingBlock: EZIPEK_clean_sbu_0, # of connection points: 12
#     Edge 30, Type (0, 1), BuildingBlock: XIVTED_clean_linker_0, # of connection points: 2
#     Edge 31, Type (0, 1), BuildingBlock: XIVTED_clean_linker_0, # of connection points: 2
#     Edge 32, Type (0, 1), BuildingBlock: XIVTED_clean_linker_0, # of connection points: 2
#     Edge 33, Type (0, 1), BuildingBlock: XIVTED_clean_linker_0, # of connection points: 2
#     Edge 34, Type (0, 1), BuildingBlock: XIVTED_clean_linker_0, # of connection points: 2
#     Edge 35, Type (0, 1), BuildingBlock: XIVTED_clean_linker_0, # of connection points: 2
#     Edge 36, Type (0, 1), BuildingBlock: XIVTED_clean_linker_0, # of connection points: 2
#     Edge 37, Type (0, 1), BuildingBlock: XIVTED_clean_linker_0, # of connection points: 2
#     Edge 38, Type (0, 1), BuildingBlock: XIVTED_clean_linker_0, # of connection points: 2
#     Edge 39, Type (0, 1), BuildingBlock: XIVTED_clean_linker_0, # of connection points: 2
#     Edge 40, Type (0, 1), BuildingBlock: XIVTED_clean_linker_0, # of connection points: 2
#     Edge 41, Type (0, 1), BuildingBlock: XIVTED_clean_linker_0, # of connection points: 2
#     Edge 42, Type (0, 1), BuildingBlock: XIVTED_clean_linker_0, # of connection points: 2
#     Edge 43, Type (0, 1), BuildingBlock: XIVTED_clean_linker_0, # of connection points: 2
#     Edge 44, Type (0, 1), BuildingBlock: XIVTED_clean_linker_0, # of connection points: 2
#     Edge 45, Type (0, 1), BuildingBlock: XIVTED_clean_linker_0, # of connection points: 2
#     Edge 46, Type (0, 1), BuildingBlock: XIVTED_clean_linker_0, # of connection points: 2
#     Edge 47, Type (0, 1), BuildingBlock: XIVTED_clean_linker_0, # of connection points: 2
#     Edge 48, Type (0, 1), BuildingBlock: XIVTED_clean_linker_0, # of connection points: 2
#     Edge 49, Type (0, 1), BuildingBlock: XIVTED_clean_linker_0, # of connection points: 2
#     Edge 50, Type (0, 1), BuildingBlock: XIVTED_clean_linker_0, # of connection points: 2
#     Edge 51, Type (0, 1), BuildingBlock: XIVTED_clean_linker_0, # of connection points: 2
#     Edge 52, Type (0, 1), BuildingBlock: XIVTED_clean_linker_0, # of connection points: 2
#     Edge 53, Type (0, 1), BuildingBlock: XIVTED_clean_linker_0, # of connection points: 2
#     Edge 54, Type (0, 1), BuildingBlock: XIVTED_clean_linker_0, # of connection points: 2
#     Edge 55, Type (0, 1), BuildingBlock: XIVTED_clean_linker_0, # of connection points: 2
#     Edge 56, Type (0, 1), BuildingBlock: XIVTED_clean_linker_0, # of connection points: 2
#     Edge 57, Type (0, 1), BuildingBlock: XIVTED_clean_linker_0, # of connection points: 2
#     Edge 58, Type (0, 1), BuildingBlock: XIVTED_clean_linker_0, # of connection points: 2
#     Edge 59, Type (0, 1), BuildingBlock: XIVTED_clean_linker_0, # of connection points: 2
#     Edge 60, Type (0, 1), BuildingBlock: XIVTED_clean_linker_0, # of connection points: 2
#     Edge 61, Type (0, 1), BuildingBlock: XIVTED_clean_linker_0, # of connection points: 2
#     Edge 62, Type (0, 1), BuildingBlock: XIVTED_clean_linker_0, # of connection points: 2
#     Edge 63, Type (0, 1), BuildingBlock: XIVTED_clean_linker_0, # of connection points: 2
#     Edge 64, Type (0, 1), BuildingBlock: XIVTED_clean_linker_0, # of connection points: 2
#     Edge 65, Type (0, 1), BuildingBlock: XIVTED_clean_linker_0, # of connection points: 2
#     Edge 66, Type (0, 1), BuildingBlock: XIVTED_clean_linker_0, # of connection points: 2
#     Edge 67, Type (0, 1), BuildingBlock: XIVTED_clean_linker_0, # of connection points: 2
#     Edge 68, Type (0, 1), BuildingBlock: XIVTED_clean_linker_0, # of connection points: 2
#     Edge 69, Type (0, 1), BuildingBlock: XIVTED_clean_linker_0, # of connection points: 2
#     Edge 70, Type (0, 1), BuildingBlock: XIVTED_clean_linker_0, # of connection points: 2
#     Edge 71, Type (0, 1), BuildingBlock: XIVTED_clean_linker_0, # of connection points: 2
#     Edge 72, Type (0, 1), BuildingBlock: XIVTED_clean_linker_0, # of connection points: 2
#     Edge 73, Type (0, 1), BuildingBlock: XIVTED_clean_linker_0, # of connection points: 2
#     Edge 74, Type (0, 1), BuildingBlock: XIVTED_clean_linker_0, # of connection points: 2
#     Edge 75, Type (0, 1), BuildingBlock: XIVTED_clean_linker_0, # of connection points: 2
#     Edge 76, Type (0, 1), BuildingBlock: XIVTED_clean_linker_0, # of connection points: 2
#     Edge 77, Type (0, 1), BuildingBlock: XIVTED_clean_linker_0, # of connection points: 2
#     Edge 78, Type (0, 1), BuildingBlock: XIVTED_clean_linker_0, # of connection points: 2
#     Edge 79, Type (0, 1), BuildingBlock: XIVTED_clean_linker_0, # of connection points: 2
#     Edge 80, Type (0, 1), BuildingBlock: XIVTED_clean_linker_0, # of connection points: 2
#     Edge 81, Type (0, 1), BuildingBlock: XIVTED_clean_linker_0, # of connection points: 2
#     Edge 82, Type (0, 1), BuildingBlock: XIVTED_clean_linker_0, # of connection points: 2
#     Edge 83, Type (0, 1), BuildingBlock: XIVTED_clean_linker_0, # of connection points: 2
#     Edge 84, Type (0, 1), BuildingBlock: XIVTED_clean_linker_0, # of connection points: 2
#     Edge 85, Type (0, 1), BuildingBlock: XIVTED_clean_linker_0, # of connection points: 2
#     Edge 86, Type (0, 1), BuildingBlock: XIVTED_clean_linker_0, # of connection points: 2
#     Edge 87, Type (0, 1), BuildingBlock: XIVTED_clean_linker_0, # of connection points: 2
#     Edge 88, Type (0, 1), BuildingBlock: XIVTED_clean_linker_0, # of connection points: 2
#     Edge 89, Type (0, 1), BuildingBlock: XIVTED_clean_linker_0, # of connection points: 2
#     Edge 90, Type (0, 1), BuildingBlock: XIVTED_clean_linker_0, # of connection points: 2
#     Edge 91, Type (0, 1), BuildingBlock: XIVTED_clean_linker_0, # of connection points: 2
#     Edge 92, Type (0, 1), BuildingBlock: XIVTED_clean_linker_0, # of connection points: 2
#     Edge 93, Type (0, 1), BuildingBlock: XIVTED_clean_linker_0, # of connection points: 2
#     Edge 94, Type (0, 1), BuildingBlock: XIVTED_clean_linker_0, # of connection points: 2
#     Edge 95, Type (0, 1), BuildingBlock: XIVTED_clean_linker_0, # of connection points: 2
#     Edge 96, Type (0, 1), BuildingBlock: XIVTED_clean_linker_0, # of connection points: 2
#     Edge 97, Type (0, 1), BuildingBlock: XIVTED_clean_linker_0, # of connection points: 2
#     Edge 98, Type (0, 1), BuildingBlock: XIVTED_clean_linker_0, # of connection points: 2
#     Edge 99, Type (0, 1), BuildingBlock: XIVTED_clean_linker_0, # of connection points: 2
#     Edge 100, Type (0, 1), BuildingBlock: XIVTED_clean_linker_0, # of connection points: 2
#     Edge 101, Type (0, 1), BuildingBlock: XIVTED_clean_linker_0, # of connection points: 2
# Relax obj value: 0.107
# Max RMSD: 0.160
# Mean RMSD: 0.134
data_MOF--net-llk--node1-EZIPEK_clean_sbu_0--node2-ESEHIV_clean_linker_0--edge1-XIVTED_clean_linker_0
_symmetry_space_group_name_H-M    P1
_symmetry_Int_Tables_number       1
_symmetry_cell_setting            triclinic
loop_
_symmetry_equiv_pos_as_xyz
'x, y, z'
_cell_length_a     44.333848
_cell_length_b     44.270809
_cell_length_c     44.322212
_cell_angle_alpha  90.154581
_cell_angle_beta   90.002443
_cell_angle_gamma 89.974526
loop_
_atom_site_label
_atom_site_type_symbol
_atom_site_fract_x
_atom_site_fract_y
_atom_site_fract_z
_atom_type_partial_charge
H0 H 0.9696 0.2506 0.31302 0.0
H1 H 0.98774 0.3229 0.25189 0.0
H2 H 1.00506 0.231 0.22449 0.0
C3 C 0.97665 0.25816 0.29085 0.0
C4 C 0.98684 0.23693 0.26969 0.0
C5 C 0.97777 0.28905 0.28501 0.0
C6 C 0.98672 0.29888 0.25652 0.0
C7 C 0.99607 0.27833 0.2343 0.0
C8 C 0.9967 0.24702 0.241 0.0
H9 H 0.69524 0.96904 0.23452 0.0
H10 H 0.75496 0.98389 0.30941 0.0
H11 H 0.769 0.0318 0.22649 0.0
C12 C 0.71519 0.97948 0.24411 0.0
C13 C 0.7311 1.00068 0.22688 0.0
C14 C 0.72279 0.97399 0.27428 0.0
C15 C 0.74885 0.98745 0.28602 0.0
C16 C 0.76606 0.00775 0.26903 0.0
C17 C 0.75692 0.01486 0.23929 0.0
H18 H 0.02896 0.77752 0.29952 0.0
H19 H 0.02187 0.69824 0.24416 0.0
H20 H 0.98335 0.7822 0.2139 0.0
C21 C 0.02209 0.76673 0.27861 0.0
C22 C 1.00567 0.7835 0.25755 0.0
C23 C 0.02686 0.73578 0.27472 0.0
C24 C 0.01843 0.72228 0.2474 0.0
C25 C 1.00363 0.73883 0.22482 0.0
C26 C 0.99654 0.76964 0.23017 0.0
H27 H 0.24394 0.01166 0.31517 0.0
H28 H 0.31649 0.02051 0.25215 0.0
H29 H 0.22611 1.00441 0.21978 0.0
C30 C 0.25199 0.01174 0.29205 0.0
C31 C 0.2315 0.00684 0.26851 0.0
C32 C 0.28251 0.01656 0.28638 0.0
C33 C 0.29261 0.01754 0.25659 0.0
C34 C 0.27267 0.01378 0.23229 0.0
C35 C 0.24176 0.00794 0.23822 0.0
H36 H 0.04677 0.76412 0.69077 0.0
H37 H 0.05471 0.71243 0.77248 0.0
H38 H 0.97379 0.76253 0.75403 0.0
C39 C 0.03833 0.75698 0.7125 0.0
C40 C 0.00994 0.76776 0.72145 0.0
C41 C 0.05413 0.73542 0.72959 0.0
C42 C 0.04246 0.72778 0.75799 0.0
C43 C 0.01306 0.73595 0.76631 0.0
C44 C 0.99668 0.75635 0.74808 0.0
H45 H 0.25375 0.03431 0.68812 0.0
H46 H 0.30053 0.04267 0.77237 0.0
H47 H 0.22462 0.98264 0.76496 0.0
C48 C 0.2557 0.02897 0.71187 0.0
C49 C 0.23461 0.0092 0.72498 0.0
C50 C 0.28024 0.04019 0.72844 0.0
C51 C 0.28205 0.03353 0.75914 0.0
C52 C 0.26333 0.01178 0.77214 0.0
C53 C 0.23906 0.99976 0.75521 0.0
H54 H 0.96918 0.30244 0.77229 0.0
H55 H 0.98707 0.24669 0.69544 0.0
H56 H 1.00393 0.21237 0.78492 0.0
C57 C 0.97607 0.28079 0.76302 0.0
C58 C 0.98603 0.25807 0.78248 0.0
C59 C 0.9774 0.27729 0.73184 0.0
C60 C 0.98599 0.24944 0.71974 0.0
C61 C 0.99499 0.22554 0.73845 0.0
C62 C 0.99563 0.23001 0.77022 0.0
H63 H 0.7106 0.93426 0.772 0.0
H64 H 0.76536 0.95479 0.69506 0.0
H65 H 0.77667 1.0055 0.77672 0.0
C66 C 0.72868 0.94698 0.76173 0.0
C67 C 0.74217 0.97057 0.77817 0.0
C68 C 0.73475 0.94271 0.73101 0.0
C69 C 0.75953 0.95791 0.71857 0.0
C70 C 0.77557 0.97966 0.735 0.0
C71 C 0.7661 0.98702 0.76467 0.0
H72 H 0.24314 0.31399 0.03829 0.0
H73 H 0.31731 0.25357 0.02285 0.0
H74 H 0.22896 0.23078 0.98993 0.0
C75 C 0.25183 0.29259 0.03005 0.0
C76 C 0.2325 0.27316 0.01429 0.0
C77 C 0.28267 0.28634 0.03236 0.0
C78 C 0.29342 0.25864 0.0216 0.0
C79 C 0.2742 0.23818 0.00696 0.0
C80 C 0.24357 0.24559 1.00282 0.0
H81 H 0.30227 0.77562 0.04133 0.0
H82 H 0.25224 0.69364 0.02857 0.0
H83 H 0.22558 0.7744 0.98191 0.0
C84 C 0.28324 0.76358 0.03172 0.0
C85 C 0.26477 0.7785 0.01098 0.0
C86 C 0.28031 0.73258 0.03668 0.0
C87 C 0.25507 0.71764 0.02481 0.0
C88 C 0.23437 0.7327 1.00611 0.0
C89 C 0.23979 0.7632 0.99832 0.0
H90 H 0.69362 0.2555 0.95815 0.0
H91 H 0.7757 0.30567 0.94773 0.0
H92 H 0.77451 0.22532 1.00209 0.0
C93 C 0.71765 0.25791 0.96172 0.0
C94 C 0.73271 0.23586 0.97878 0.0
C95 C 0.73253 0.28397 0.9517 0.0
C96 C 0.76366 0.2861 0.95613 0.0
C97 C 0.77867 0.26624 0.97551 0.0
C98 C 0.7633 0.24059 0.98667 0.0
H99 H 0.69919 0.76596 0.04145 0.0
H100 H 0.77951 0.71225 0.05067 0.0
H101 H 0.77008 0.77357 0.97623 0.0
C102 C 0.7218 0.75988 0.03453 0.0
C103 C 0.73392 0.77452 0.00927 0.0
C104 C 0.7371 0.73605 0.04876 0.0
C105 C 0.76655 0.72951 0.03924 0.0
C106 C 0.77797 0.74144 0.01233 0.0
C107 C 0.76173 0.76441 0.99727 0.0
H108 H 0.45453 0.73494 0.80801 0.0
H109 H 0.46257 0.81644 0.75599 0.0
H110 H 0.53114 0.74853 0.75012 0.0
C111 C 0.46609 0.74862 0.79142 0.0
C112 C 0.49393 0.73847 0.78033 0.0
C113 C 0.45558 0.77777 0.78499 0.0
C114 C 0.47023 0.79407 0.76209 0.0
C115 C 0.49677 0.78343 0.74858 0.0
C116 C 0.50939 0.75587 0.75853 0.0
H117 H 0.20943 0.47708 0.74983 0.0
H118 H 0.27912 0.46495 0.81615 0.0
H119 H 0.29266 0.52569 0.74176 0.0
C120 C 0.23218 0.48091 0.75788 0.0
C121 C 0.25058 0.50064 0.7415 0.0
C122 C 0.2415 0.46879 0.78549 0.0
C123 C 0.271 0.47472 0.79528 0.0
C124 C 0.28925 0.49583 0.78042 0.0
C125 C 0.27914 0.50881 0.7531 0.0
H126 H 0.47665 0.21634 0.7317 0.0
H127 H 0.48132 0.26481 0.81548 0.0
H128 H 0.53498 0.29356 0.74001 0.0
C129 C 0.48492 0.23525 0.74494 0.0
C130 C 0.50681 0.25414 0.73239 0.0
C131 C 0.4773 0.23736 0.77543 0.0
C132 C 0.4873 0.26254 0.79189 0.0
C133 C 0.50699 0.28385 0.77909 0.0
C134 C 0.51772 0.279 0.74933 0.0
H135 H 0.73549 0.46118 0.80499 0.0
H136 H 0.81723 0.46962 0.75341 0.0
H137 H 0.74977 0.53869 0.74857 0.0
C138 C 0.74931 0.47292 0.78865 0.0
C139 C 0.73939 0.501 0.77802 0.0
C140 C 0.77842 0.46235 0.78212 0.0
C141 C 0.79489 0.4773 0.75955 0.0
C142 C 0.78444 0.50414 0.74647 0.0
C143 C 0.75691 0.51671 0.75653 0.0
H144 H 0.47805 0.27516 0.20069 0.0
H145 H 0.48611 0.19384 0.25242 0.0
H146 H 0.53019 0.27509 0.28255 0.0
C147 C 0.48591 0.26338 0.22064 0.0
C148 C 0.50456 0.27866 0.24105 0.0
C149 C 0.48033 0.2325 0.22364 0.0
C150 C 0.49032 0.21778 0.24972 0.0
C151 C 0.50759 0.23296 0.27159 0.0
C152 C 0.51528 0.26358 0.26694 0.0
H153 H 0.75394 0.48875 0.21017 0.0
H154 H 0.8202 0.47679 0.27914 0.0
H155 H 0.733 0.51404 0.30174 0.0
C156 C 0.7602 0.48957 0.23383 0.0
C157 C 0.73961 0.50113 0.2548 0.0
C158 C 0.78932 0.48146 0.24235 0.0
C159 C 0.79742 0.48302 0.2727 0.0
C160 C 0.77762 0.49471 0.2945 0.0
C161 C 0.74837 0.50422 0.28546 0.0
H162 H 0.48274 0.8183 0.27567 0.0
H163 H 0.50056 0.75137 0.20834 0.0
H164 H 0.50969 0.7285 0.30241 0.0
C165 C 0.48866 0.79521 0.2699 0.0
C166 C 0.49526 0.77451 0.29288 0.0
C167 C 0.49076 0.78709 0.23959 0.0
C168 C 0.49862 0.7576 0.23196 0.0
C169 C 0.50547 0.73626 0.25416 0.0
C170 C 0.504 0.74466 0.28502 0.0
H171 H 0.19548 0.53198 0.25386 0.0
H172 H 0.27344 0.54167 0.19746 0.0
H173 H 0.28217 0.50171 0.28548 0.0
C174 C 0.21964 0.53011 0.25057 0.0
C175 C 0.23735 0.51758 0.27362 0.0
C176 C 0.23225 0.53821 0.22281 0.0
C177 C 0.26337 0.53533 0.21884 0.0
C178 C 0.28141 0.5216 0.24079 0.0
C179 C 0.26852 0.51293 0.26861 0.0
H180 H 0.72711 0.80992 0.46118 0.0
H181 H 0.81176 0.76354 0.45719 0.0
H182 H 0.7431 0.73323 0.51851 0.0
C183 C 0.74146 0.79129 0.468 0.0
C184 C 0.73183 0.77239 0.49132 0.0
C185 C 0.77084 0.78959 0.45692 0.0
C186 C 0.7887 0.76481 0.46513 0.0
C187 C 0.77853 0.74306 0.4859 0.0
C188 C 0.75037 0.74795 0.50045 0.0
H189 H 0.82084 0.28468 0.5614 0.0
H190 H 0.7668 0.20497 0.55098 0.0
H191 H 0.74457 0.28505 0.50114 0.0
C192 C 0.80118 0.27341 0.55214 0.0
C193 C 0.78329 0.28872 0.53107 0.0
C194 C 0.79649 0.24279 0.55831 0.0
C195 C 0.7708 0.22868 0.54648 0.0
C196 C 0.75149 0.24359 0.52639 0.0
C197 C 0.75809 0.2738 0.51808 0.0
H198 H 0.2073 0.73867 0.47603 0.0
H199 H 0.25538 0.82233 0.47394 0.0
H200 H 0.29475 0.74484 0.51774 0.0
C201 C 0.22747 0.75164 0.48103 0.0
C202 C 0.25042 0.73837 0.49803 0.0
C203 C 0.22856 0.78204 0.47322 0.0
C204 C 0.25488 0.79845 0.47919 0.0
C205 C 0.27974 0.78517 0.49391 0.0
C206 C 0.27688 0.75506 0.50461 0.0
H207 H 0.20143 0.25689 0.51809 0.0
H208 H 0.27715 0.19798 0.52775 0.0
H209 H 0.29166 0.29321 0.51255 0.0
C210 C 0.22569 0.25379 0.51891 0.0
C211 C 0.24473 0.27871 0.51473 0.0
C212 C 0.23726 0.22487 0.52345 0.0
C213 C 0.26832 0.22058 0.52425 0.0
C214 C 0.2883 0.24479 0.52056 0.0
C215 C 0.27652 0.27429 0.5157 0.0
C216 C 0.98951 0.92566 0.56396 0.0
C217 C 0.99088 0.93829 0.41661 0.0
C218 C 0.0067 0.07019 0.57611 0.0
C219 C 1.00504 0.08252 0.42853 0.0
C220 C 0.93598 0.08404 0.51535 0.0
C221 C 0.91813 0.94236 0.48112 0.0
C222 C 0.07951 0.06799 0.50392 0.0
C223 C 0.06247 0.92451 0.48228 0.0
C224 C 0.06999 1.00294 0.4209 0.0
C225 C 0.92554 0.02036 0.42465 0.0
C226 C 0.07266 0.99097 0.56813 0.0
C227 C 0.92732 1.00472 0.57203 0.0
Eu228 Eu 0.99201 0.94732 0.49165 0.0
O229 O 0.96921 0.98372 0.46913 0.0
O230 O 0.02332 0.97157 0.52025 0.0
Eu231 Eu 0.94143 0.01127 0.49796 0.0
Eu232 Eu 0.05574 0.99783 0.49489 0.0
O233 O 0.96855 0.97807 0.52154 0.0
O234 O 0.02155 0.97724 0.46743 0.0
Eu235 Eu 0.99961 0.99905 0.55273 0.0
Eu236 Eu 0.99804 0.00937 0.44011 0.0
O237 O 0.97624 0.03105 0.5251 0.0
O238 O 0.97406 0.03715 0.47242 0.0
O239 O 0.02866 0.03064 0.47123 0.0
O240 O 0.02849 0.02539 0.52413 0.0
Eu241 Eu 1.00532 0.06125 0.501 0.0
O242 O 0.98782 0.91838 0.53457 0.0
O243 O 0.98923 0.92633 0.44434 0.0
O244 O 0.00924 0.08203 0.54839 0.0
O245 O 1.00487 0.09021 0.45786 0.0
O246 O 0.92278 0.05726 0.51093 0.0
O247 O 0.91182 0.97121 0.4872 0.0
O248 O 0.08577 0.03873 0.50022 0.0
O249 O 0.07491 0.95167 0.48596 0.0
O250 O 0.04125 0.00714 0.41316 0.0
O251 O 0.95385 0.01551 0.4157 0.0
O252 O 0.04415 0.99386 0.57746 0.0
O253 O 0.95633 1.00187 0.57953 0.0
O254 O 0.05214 0.08046 0.50399 0.0
O255 O 0.965 0.09029 0.51082 0.0
O256 O 0.03323 0.91784 0.48494 0.0
O257 O 0.94518 0.92928 0.48313 0.0
O258 O 0.99417 0.96763 0.41059 0.0
O259 O 1.00356 0.05452 0.41775 0.0
O260 O 0.99432 0.95343 0.57461 0.0
O261 O 1.00275 0.04092 0.58214 0.0
O262 O 0.91692 0.00744 0.54368 0.0
O263 O 0.91638 0.02132 0.45354 0.0
O264 O 0.08147 0.99082 0.53919 0.0
O265 O 0.08005 0.99914 0.44918 0.0
C266 C 0.50119 0.93448 0.07092 0.0
C267 C 0.49225 0.07973 0.06475 0.0
C268 C 0.48577 0.92836 0.92606 0.0
C269 C 0.49048 0.07369 0.91978 0.0
C270 C 0.5719 1.00201 0.92064 0.0
C271 C 0.57465 0.00869 0.06614 0.0
C272 C 0.42359 0.9998 0.9243 0.0
C273 C 0.4271 1.0047 0.06949 0.0
C274 C 0.42529 0.07587 0.99269 0.0
C275 C 0.57277 0.07733 0.993 0.0
C276 C 0.42582 0.93079 0.99827 0.0
C277 C 0.57364 0.93119 0.99254 0.0
Eu278 Eu 0.50052 0.0066 0.05222 0.0
O279 O 0.52652 0.03233 0.02029 0.0
O280 O 0.47361 0.97767 0.02377 0.0
Eu281 Eu 0.55589 1.00424 0.99356 0.0
Eu282 Eu 0.44298 1.00344 0.99654 0.0
O283 O 0.52658 0.97831 0.02223 0.0
O284 O 0.47318 0.03189 0.02132 0.0
Eu285 Eu 0.49975 0.94627 0.99719 0.0
Eu286 Eu 0.49902 0.06123 0.9927 0.0
O287 O 0.52578 0.97544 0.96798 0.0
O288 O 0.52525 0.03003 0.96586 0.0
O289 O 0.47247 0.02897 0.9679 0.0
O290 O 0.4731 0.97631 0.97032 0.0
Eu291 Eu 0.49808 1.00126 0.93722 0.0
O292 O 0.50198 0.96353 0.07878 0.0
O293 O 0.49502 0.05169 0.07531 0.0
O294 O 0.48943 0.9561 0.91494 0.0
O295 O 0.4924 0.04482 0.91115 0.0
O296 O 0.58083 1.00535 0.94915 0.0
O297 O 0.58264 1.00526 0.03727 0.0
O298 O 0.4161 1.00166 0.95336 0.0
O299 O 0.41798 1.00319 0.04091 0.0
O300 O 0.45374 0.08581 0.99081 0.0
O301 O 0.54402 0.0868 0.99283 0.0
O302 O 0.45444 0.9209 0.99854 0.0
O303 O 0.54504 0.9213 0.99361 0.0
O304 O 0.4519 0.99922 0.91356 0.0
O305 O 0.5432 0.99876 0.91141 0.0
O306 O 0.45589 0.00647 0.07857 0.0
O307 O 0.54617 0.0106 0.07618 0.0
O308 O 0.49426 0.08795 0.03589 0.0
O309 O 0.49406 0.08416 0.94777 0.0
O310 O 0.50036 0.92354 0.04283 0.0
O311 O 0.49064 0.92004 0.95454 0.0
O312 O 0.58192 0.96019 0.99287 0.0
O313 O 0.5815 0.04848 0.99299 0.0
O314 O 0.41742 0.95963 0.99762 0.0
O315 O 0.41704 0.04713 0.99563 0.0
C316 C 1.00384 0.43217 0.07219 0.0
C317 C 1.00278 0.42368 0.92774 0.0
C318 C 0.99913 0.57985 0.06463 0.0
C319 C 0.99818 0.57208 0.91893 0.0
C320 C 0.92765 0.57518 0.99332 0.0
C321 C 0.93056 0.42678 0.99921 0.0
C322 C 0.07294 0.57701 0.98864 0.0
C323 C 0.07542 0.43013 1.00057 0.0
C324 C 0.07323 0.48929 0.92288 0.0
C325 C 0.92775 0.48513 0.92587 0.0
C326 C 0.07588 0.51503 0.06626 0.0
C327 C 0.9309 0.50169 0.07074 0.0
Eu328 Eu 1.00271 0.44604 0.99903 0.0
O329 O 0.9752 0.47448 0.9714 0.0
O330 O 0.03023 0.47724 0.02416 0.0
Eu331 Eu 0.94386 0.5012 0.99713 0.0
Eu332 Eu 0.05866 0.50327 0.99456 0.0
O333 O 0.97564 0.47687 0.02481 0.0
O334 O 0.02783 0.47516 0.96995 0.0
Eu335 Eu 1.00308 0.50524 0.0532 0.0
Eu336 Eu 1.00032 0.49871 0.93772 0.0
O337 O 0.97489 0.52946 0.02177 0.0
O338 O 0.97305 0.52676 0.96735 0.0
O339 O 0.0276 0.52774 0.96609 0.0
O340 O 0.02819 0.53051 0.02045 0.0
Eu341 Eu 1.00049 0.5584 0.99254 0.0
O342 O 1.00106 0.42254 0.04387 0.0
O343 O 1.00538 0.41733 0.95696 0.0
O344 O 1.00051 0.58687 0.03535 0.0
O345 O 0.99903 0.58155 0.94747 0.0
O346 O 0.9179 0.54643 0.99398 0.0
O347 O 0.91995 0.45516 1.00051 0.0
O348 O 0.08294 0.54844 0.98856 0.0
O349 O 0.0848 0.45877 0.99806 0.0
O350 O 0.04477 0.49081 0.91293 0.0
O351 O 0.95566 0.48874 0.91513 0.0
O352 O 0.04766 0.51325 0.07656 0.0
O353 O 0.95973 0.50346 0.07892 0.0
O354 O 0.04402 0.58515 0.99065 0.0
O355 O 0.95647 0.5836 0.99291 0.0
O356 O 0.04681 0.42121 1.00165 0.0
O357 O 0.95959 0.41921 0.99782 0.0
O358 O 0.99964 0.45141 0.91599 0.0
O359 O 0.99815 0.54296 0.91013 0.0
O360 O 0.00651 0.4612 0.08061 0.0
O361 O 0.99908 0.55169 0.07569 0.0
O362 O 0.92029 0.50097 0.04254 0.0
O363 O 0.91881 0.4906 0.95411 0.0
O364 O 0.08453 0.51104 0.0377 0.0
O365 O 0.08244 0.49515 0.95087 0.0
C366 C 0.51859 0.43887 0.08928 0.0
C367 C 0.51694 0.58378 0.09278 0.0
C368 C 0.51675 0.44127 0.9418 0.0
C369 C 0.51661 0.58736 0.94438 0.0
C370 C 0.58883 0.51758 0.94274 0.0
C371 C 0.58944 0.50978 0.09074 0.0
C372 C 0.44368 0.5145 0.94309 0.0
C373 C 0.44439 0.51093 0.09065 0.0
C374 C 0.44426 0.5859 0.02639 0.0
C375 C 0.58947 0.58501 0.03046 0.0
C376 C 0.44344 0.44057 0.02064 0.0
C377 C 0.58876 0.44094 1.0031 0.0
Eu378 Eu 0.51697 0.51161 0.07304 0.0
O379 O 0.54328 0.53901 0.04335 0.0
O380 O 0.48985 0.48565 0.04266 0.0
Eu381 Eu 0.57433 0.51309 0.01676 0.0
Eu382 Eu 0.45947 0.51338 0.01691 0.0
O383 O 0.54456 0.48472 0.04312 0.0
O384 O 0.49055 0.53938 0.04357 0.0
Eu385 Eu 0.51662 0.45527 0.01595 0.0
Eu386 Eu 0.51713 0.57109 0.01821 0.0
O387 O 0.5426 0.48736 0.99074 0.0
O388 O 0.54407 0.5411 0.9906 0.0
O389 O 0.48952 0.54139 0.99087 0.0
O390 O 0.48944 0.48623 0.98981 0.0
Eu391 Eu 0.51628 0.51423 0.96069 0.0
O392 O 0.51579 0.46752 0.09794 0.0
O393 O 0.51657 0.55466 0.1002 0.0
O394 O 0.51771 0.47036 0.93387 0.0
O395 O 0.51522 0.5585 0.93587 0.0
O396 O 0.59899 0.51873 0.97129 0.0
O397 O 0.5995 0.50974 0.06214 0.0
O398 O 0.43397 0.51539 0.97176 0.0
O399 O 0.43453 0.51061 0.06208 0.0
O400 O 0.47265 0.59557 0.02352 0.0
O401 O 0.5614 0.59518 0.0265 0.0
O402 O 0.47193 0.4307 0.02031 0.0
O403 O 0.56053 0.43118 0.00673 0.0
O404 O 0.47252 0.5135 0.93472 0.0
O405 O 0.55996 0.51504 0.93482 0.0
O406 O 0.47321 0.51189 0.09908 0.0
O407 O 0.56059 0.51069 0.09896 0.0
O408 O 0.5175 0.59465 0.06454 0.0
O409 O 0.51829 0.59708 0.9731 0.0
O410 O 0.52092 0.42938 0.06061 0.0
O411 O 0.5151 0.43114 0.97023 0.0
O412 O 0.5985 0.46916 0.00739 0.0
O413 O 0.59875 0.55665 0.02629 0.0
O414 O 0.43461 0.46922 0.01804 0.0
O415 O 0.43491 0.55739 0.02383 0.0
C416 C 0.00681 0.44513 0.58823 0.0
C417 C 1.00486 0.44472 0.44322 0.0
C418 C 0.03552 0.58883 0.58735 0.0
C419 C 0.02403 0.5895 0.44235 0.0
C420 C 0.94735 0.5955 0.51902 0.0
C421 C 0.93809 0.44954 0.51597 0.0
C422 C 0.09505 0.58459 0.51422 0.0
C423 C 0.08592 0.43969 0.51518 0.0
C424 C 0.08758 0.51085 0.44084 0.0
C425 C 0.9401 0.52162 0.44555 0.0
C426 C 0.09172 0.51418 0.58657 0.0
C427 C 0.9447 0.52497 0.59095 0.0
Eu428 Eu 0.0129 0.46014 0.51565 0.0
O429 O 0.98775 0.49297 0.49038 0.0
O430 O 0.04211 0.48826 0.54261 0.0
Eu431 Eu 0.95981 0.52171 0.51768 0.0
Eu432 Eu 0.07259 0.51314 0.5141 0.0
O433 O 0.98904 0.49265 0.54305 0.0
O434 O 0.04068 0.48811 0.48735 0.0
Eu435 Eu 0.01765 0.51755 0.57323 0.0
Eu436 Eu 0.01452 0.51718 0.45829 0.0
O437 O 0.99196 0.54716 0.54414 0.0
O438 O 0.99053 0.54652 0.48919 0.0
O439 O 0.04351 0.54217 0.48828 0.0
O440 O 0.04415 0.54155 0.54079 0.0
Eu441 Eu 0.02008 0.57501 0.51558 0.0
O442 O 0.00788 0.43577 0.55967 0.0
O443 O 0.00763 0.43545 0.47165 0.0
O444 O 0.03096 0.59899 0.55938 0.0
O445 O 0.02382 0.5991 0.47091 0.0
O446 O 0.93698 0.56728 0.51996 0.0
O447 O 0.93132 0.47892 0.51799 0.0
O448 O 0.10136 0.55517 0.51311 0.0
O449 O 0.09601 0.46799 0.5154 0.0
O450 O 0.05869 0.5118 0.43195 0.0
O451 O 0.96832 0.5191 0.43491 0.0
O452 O 0.06337 0.51426 0.5971 0.0
O453 O 0.97364 0.52443 0.59981 0.0
O454 O 0.06726 0.59655 0.51529 0.0
O455 O 0.97653 0.60339 0.51698 0.0
O456 O 0.05666 0.43172 0.51463 0.0
O457 O 0.96609 0.43816 0.51446 0.0
O458 O 0.00698 0.47316 0.43361 0.0
O459 O 0.02031 0.56104 0.43309 0.0
O460 O 0.01072 0.47344 0.59792 0.0
O461 O 0.0301 0.56084 0.59702 0.0
O462 O 0.93545 0.52314 0.56239 0.0
O463 O 0.9325 0.52372 0.47459 0.0
O464 O 0.09944 0.51393 0.55749 0.0
O465 O 0.09698 0.51148 0.46941 0.0
C466 C 0.5156 0.94431 0.59269 0.0
C467 C 0.50775 0.93496 0.44766 0.0
C468 C 0.52606 0.09185 0.58247 0.0
C469 C 0.52081 0.08159 0.43743 0.0
C470 C 0.44969 0.09235 0.51402 0.0
C471 C 0.43863 0.94492 0.52158 0.0
C472 C 0.59481 0.08202 0.50845 0.0
C473 C 0.5838 0.93404 0.51749 0.0
C474 C 0.58381 0.99346 0.43923 0.0
C475 C 0.44058 0.01776 0.44565 0.0
C476 C 0.59152 1.00002 0.58405 0.0
C477 C 0.44818 0.03048 0.59019 0.0
Eu478 Eu 0.51233 0.95699 0.51898 0.0
O479 O 0.48619 0.98673 0.49102 0.0
O480 O 0.54225 0.98756 0.5414 0.0
Eu481 Eu 0.45956 0.0174 0.51771 0.0
Eu482 Eu 0.57436 0.00899 0.51204 0.0
O483 O 0.48871 0.99023 0.54586 0.0
O484 O 0.53978 0.98356 0.48932 0.0
Eu485 Eu 0.51973 0.01711 0.57253 0.0
Eu486 Eu 0.51357 0.00947 0.458 0.0
O487 O 0.49387 0.04279 0.54072 0.0
O488 O 0.49049 0.03993 0.48789 0.0
O489 O 0.5447 0.03615 0.4845 0.0
O490 O 0.54763 0.03973 0.53931 0.0
Eu491 Eu 0.5211 0.06945 0.51114 0.0
O492 O 0.51419 0.93435 0.56434 0.0
O493 O 0.51062 0.92822 0.4768 0.0
O494 O 0.52304 0.09811 0.55323 0.0
O495 O 0.52141 0.09212 0.46562 0.0
O496 O 0.43817 0.06456 0.51736 0.0
O497 O 0.43107 0.9742 0.51991 0.0
O498 O 0.60284 0.0527 0.50896 0.0
O499 O 0.59574 0.96178 0.51498 0.0
O500 O 0.5551 0.99788 0.43165 0.0
O501 O 0.46856 0.01481 0.43506 0.0
O502 O 0.56425 0.00691 0.59481 0.0
O503 O 0.47698 0.02768 0.59867 0.0
O504 O 0.5665 0.09208 0.50903 0.0
O505 O 0.47892 0.09874 0.51055 0.0
O506 O 0.55437 0.92792 0.51903 0.0
O507 O 0.46675 0.93426 0.52218 0.0
O508 O 0.50661 0.96294 0.43624 0.0
O509 O 0.51884 0.05237 0.42971 0.0
O510 O 0.51665 0.97355 0.60085 0.0
O511 O 0.52718 0.06391 0.59421 0.0
O512 O 0.43737 0.02582 0.56251 0.0
O513 O 0.4325 0.01855 0.47462 0.0
O514 O 0.60021 1.0018 0.5553 0.0
O515 O 0.5957 0.99776 0.46664 0.0
H516 H 0.1859 0.22076 0.55706 0.0
H517 H 0.13929 0.05971 0.49015 0.0
H518 H 0.24196 0.17006 0.49543 0.0
H519 H 0.07734 0.12265 0.53176 0.0
H520 H 0.18053 0.0953 0.4998 0.0
H521 H 0.1492 0.17969 0.55634 0.0
C522 C 0.1905 0.20088 0.54351 0.0
C523 C 0.21668 0.19888 0.52594 0.0
C524 C 0.15787 0.10115 0.50685 0.0
C525 C 0.17506 0.15197 0.52506 0.0
C526 C 0.1344 0.08093 0.50135 0.0
C527 C 0.10484 0.08852 0.5097 0.0
C528 C 0.15162 0.12883 0.52107 0.0
C529 C 0.0997 0.11616 0.52435 0.0
C530 C 0.16965 0.17746 0.54316 0.0
C531 C 0.222 0.1724 0.50931 0.0
N532 N 0.12286 0.13534 0.5295 0.0
N533 N 0.20116 0.15001 0.50904 0.0
H534 H 0.79399 0.19044 0.59251 0.0
H535 H 0.95236 0.14295 0.52358 0.0
H536 H 0.85718 0.25091 0.54935 0.0
H537 H 0.87913 0.08058 0.53984 0.0
H538 H 0.92367 0.18248 0.5485 0.0
H539 H 0.83217 0.15058 0.59049 0.0
C540 C 0.81603 0.19569 0.58339 0.0
C541 C 0.82167 0.22374 0.56965 0.0
C542 C 0.91396 0.16009 0.54675 0.0
C543 C 0.86537 0.17862 0.56799 0.0
C544 C 0.93018 0.13751 0.53223 0.0
C545 C 0.91784 0.10848 0.52889 0.0
C546 C 0.88508 0.1538 0.55792 0.0
C547 C 0.88921 0.10281 0.54118 0.0
C548 C 0.83775 0.17291 0.58228 0.0
C549 C 0.85119 0.22965 0.55968 0.0
N550 N 0.87363 0.1254 0.55493 0.0
N551 N 0.87167 0.20704 0.55841 0.0
H552 H 0.81709 0.79317 0.41495 0.0
H553 H 0.85767 0.95543 0.4796 0.0
H554 H 0.75791 0.84911 0.46903 0.0
H555 H 0.92265 0.88759 0.45292 0.0
H556 H 0.81753 0.92395 0.45872 0.0
H557 H 0.85146 0.83608 0.41029 0.0
C558 C 0.81084 0.81451 0.42517 0.0
C559 C 0.78517 0.81687 0.44364 0.0
C560 C 0.84066 0.91621 0.45718 0.0
C561 C 0.82395 0.86593 0.43784 0.0
C562 C 0.86354 0.93398 0.46936 0.0
C563 C 0.89348 0.92371 0.46887 0.0
C564 C 0.8478 0.88806 0.44437 0.0
C565 C 0.8998 0.89604 0.45465 0.0
C566 C 0.83042 0.83899 0.42239 0.0
C567 C 0.77754 0.84561 0.455 0.0
N568 N 0.87709 0.87901 0.44324 0.0
N569 N 0.79722 0.86879 0.4525 0.0
H570 H 0.22205 0.82839 0.4323 0.0
H571 H 0.05472 0.86335 0.48856 0.0
H572 H 0.17115 0.77173 0.49313 0.0
H573 H 0.11678 0.93029 0.45455 0.0
H574 H 0.0915 0.82394 0.47599 0.0
H575 H 0.17726 0.86008 0.42583 0.0
C576 C 0.20141 0.82229 0.44385 0.0
C577 C 0.2006 0.79766 0.46368 0.0
C578 C 0.0968 0.84728 0.47099 0.0
C579 C 0.14948 0.83343 0.45613 0.0
C580 C 0.07592 0.86971 0.47824 0.0
C581 C 0.08312 0.90012 0.47335 0.0
C582 C 0.12476 0.85545 0.45854 0.0
C583 C 0.11069 0.90716 0.4595 0.0
C584 C 0.17588 0.84026 0.44004 0.0
C585 C 0.17298 0.79034 0.47748 0.0
N586 N 0.13064 0.885 0.45281 0.0
N587 N 0.14866 0.80841 0.47375 0.0
H588 H 0.49296 0.2427 0.16402 0.0
H589 H 0.47202 0.07255 0.12259 0.0
H590 H 0.44532 0.18077 0.2224 0.0
H591 H 0.49363 0.14098 0.05667 0.0
H592 H 0.45868 0.11217 0.15842 0.0
H593 H 0.48749 0.20745 0.1229 0.0
C594 C 0.48045 0.22214 0.16817 0.0
C595 C 0.47008 0.2146 0.19718 0.0
C596 C 0.46604 0.11848 0.13601 0.0
C597 C 0.46518 0.17323 0.14995 0.0
C598 C 0.47407 0.09589 0.11564 0.0
C599 C 0.48454 0.10348 0.08675 0.0
C600 C 0.46889 0.14885 0.12755 0.0
C601 C 0.48604 0.13408 0.07881 0.0
C602 C 0.47768 0.20174 0.14452 0.0
C603 C 0.45459 0.18717 0.20076 0.0
N604 N 0.47863 0.15566 0.09925 0.0
N605 N 0.45325 0.1671 0.17758 0.0
H606 H 0.78499 0.44976 0.18896 0.0
H607 H 0.93864 0.52076 0.12831 0.0
H608 H 0.84608 0.5045 0.24182 0.0
H609 H 0.87501 0.47512 0.07011 0.0
H610 H 0.90635 0.51057 0.17112 0.0
H611 H 0.81999 0.45308 0.14632 0.0
C612 C 0.80596 0.46199 0.19175 0.0
C613 C 0.81254 0.47705 0.21889 0.0
C614 C 0.89929 0.5028 0.14903 0.0
C615 C 0.85229 0.48102 0.17051 0.0
C616 C 0.9177 0.50871 0.12453 0.0
C617 C 0.90944 0.49872 0.09567 0.0
C618 C 0.87233 0.48682 0.14473 0.0
C619 C 0.88199 0.48343 0.09202 0.0
C620 C 0.82581 0.46395 0.16745 0.0
C621 C 0.84015 0.49223 0.22152 0.0
N622 N 0.86433 0.47782 0.11642 0.0
N623 N 0.85883 0.49405 0.19752 0.0
H624 H 0.46181 0.78213 0.18516 0.0
H625 H 0.5165 0.94426 0.12964 0.0
H626 H 0.51414 0.84391 0.23961 0.0
H627 H 0.48238 0.8756 0.06909 0.0
H628 H 0.51081 0.90943 0.1715 0.0
H629 H 0.46349 0.81838 0.14363 0.0
C630 C 0.47343 0.80342 0.18841 0.0
C631 C 0.48795 0.81005 0.21575 0.0
C632 C 0.50464 0.90194 0.14905 0.0
C633 C 0.48991 0.85135 0.16866 0.0
C634 C 0.50788 0.9218 0.12512 0.0
C635 C 0.4999 0.91277 0.09584 0.0
C636 C 0.49321 0.8729 0.14372 0.0
C637 C 0.48902 0.88338 0.0913 0.0
C638 C 0.4744 0.82401 0.16477 0.0
C639 C 0.50233 0.83805 0.21904 0.0
N640 N 0.48588 0.86444 0.11509 0.0
N641 N 0.50307 0.85763 0.19567 0.0
H642 H 0.24025 0.51928 0.16457 0.0
H643 H 0.06878 0.53794 0.12332 0.0
H644 H 0.17844 0.56962 0.22102 0.0
H645 H 0.13698 0.51177 0.05862 0.0
H646 H 0.10857 0.55154 0.1589 0.0
H647 H 0.20357 0.52008 0.1243 0.0
C648 C 0.21932 0.53131 0.16836 0.0
C649 C 0.21242 0.54418 0.19654 0.0
C650 C 0.11476 0.54307 0.1368 0.0
C651 C 0.16956 0.54387 0.15053 0.0
C652 C 0.09208 0.53496 0.11659 0.0
C653 C 0.09955 0.52323 0.0881 0.0
C654 C 0.14506 0.5391 0.12854 0.0
C655 C 0.13012 0.52046 0.08042 0.0
C656 C 0.19815 0.53142 0.14529 0.0
C657 C 0.18446 0.55875 0.19996 0.0
N658 N 0.15174 0.52807 0.10065 0.0
N659 N 0.16378 0.55771 0.17739 0.0
H660 H 0.44567 0.76464 0.84565 0.0
H661 H 0.46405 0.93602 0.86855 0.0
H662 H 0.41953 0.82926 0.77736 0.0
H663 H 0.47315 0.86936 0.93907 0.0
H664 H 0.43738 0.89887 0.83785 0.0
H665 H 0.43916 0.80261 0.88339 0.0
C666 C 0.43785 0.78646 0.83812 0.0
C667 C 0.43623 0.79424 0.80734 0.0
C668 C 0.4449 0.89253 0.8602 0.0
C669 C 0.43016 0.83858 0.85136 0.0
C670 C 0.46063 0.91357 0.87757 0.0
C671 C 0.47164 0.90563 0.90618 0.0
C672 C 0.44042 0.86323 0.87139 0.0
C673 C 0.46576 0.87643 0.91691 0.0
C674 C 0.43446 0.80853 0.86017 0.0
C675 C 0.4242 0.82285 0.80042 0.0
N676 N 0.45087 0.85626 0.89939 0.0
N677 N 0.42319 0.84458 0.82208 0.0
H678 H 0.18812 0.43781 0.7729 0.0
H679 H 0.12931 0.47065 0.93881 0.0
H680 H 0.24134 0.47204 0.84749 0.0
H681 H 0.07123 0.47993 0.86097 0.0
H682 H 0.16905 0.45218 0.90661 0.0
H683 H 0.14458 0.43491 0.80676 0.0
C684 C 0.19104 0.44422 0.7963 0.0
C685 C 0.21851 0.45647 0.80674 0.0
C686 C 0.14759 0.45811 0.89653 0.0
C687 C 0.16918 0.45168 0.84556 0.0
C688 C 0.12479 0.46897 0.91486 0.0
C689 C 0.09698 0.47782 0.9025 0.0
C690 C 0.143 0.45637 0.86538 0.0
C691 C 0.09254 0.47406 0.87134 0.0
C692 C 0.16614 0.44234 0.81553 0.0
C693 C 0.22106 0.46266 0.83777 0.0
N694 N 0.11562 0.46405 0.85363 0.0
N695 N 0.19664 0.46056 0.85585 0.0
H696 H 0.48777 0.1777 0.76167 0.0
H697 H 0.46873 0.13063 0.92923 0.0
H698 H 0.4411 0.23424 0.82644 0.0
H699 H 0.49031 0.06709 0.85823 0.0
H700 H 0.45357 0.16722 0.89135 0.0
H701 H 0.48115 0.13515 0.79439 0.0
C702 C 0.47517 0.18128 0.78227 0.0
C703 C 0.46561 0.21024 0.79141 0.0
C704 C 0.46131 0.14517 0.88405 0.0
C705 C 0.45957 0.16104 0.83006 0.0
C706 C 0.47042 0.12436 0.90565 0.0
C707 C 0.48156 0.09597 0.89685 0.0
C708 C 0.46373 0.13772 0.8534 0.0
C709 C 0.48237 0.08888 0.86603 0.0
C710 C 0.47177 0.15669 0.80127 0.0
C711 C 0.44994 0.21274 0.81886 0.0
N712 N 0.47397 0.10981 0.84537 0.0
N713 N 0.44814 0.1886 0.83764 0.0
H714 H 0.76488 0.45147 0.84251 0.0
H715 H 0.93599 0.46445 0.86791 0.0
H716 H 0.82959 0.42603 0.77384 0.0
H717 H 0.86885 0.47165 0.93833 0.0
H718 H 0.89873 0.43977 0.83576 0.0
H719 H 0.80209 0.44252 0.88031 0.0
C720 C 0.78654 0.44332 0.83488 0.0
C721 C 0.79459 0.44243 0.80411 0.0
C722 C 0.89231 0.44642 0.85839 0.0
C723 C 0.83817 0.43358 0.84832 0.0
C724 C 0.91342 0.46102 0.87662 0.0
C725 C 0.90532 0.47113 0.90558 0.0
C726 C 0.86281 0.44213 0.86909 0.0
C727 C 0.87602 0.4651 0.9159 0.0
C728 C 0.80819 0.4385 0.85698 0.0
C729 C 0.823 0.43006 0.79699 0.0
N730 N 0.85578 0.45136 0.89754 0.0
N731 N 0.84436 0.42761 0.81882 0.0
H732 H 0.68489 0.74375 0.08351 0.0
H733 H 0.64749 0.57269 0.04722 0.0
H734 H 0.74889 0.67493 0.0562 0.0
H735 H 0.58197 0.64505 0.04489 0.0
H736 H 0.68377 0.60713 0.06952 0.0
H737 H 0.6471 0.70425 0.09 0.0
C738 C 0.69141 0.72057 0.07932 0.0
C739 C 0.71973 0.71337 0.06675 0.0
C740 C 0.66136 0.6154 0.06434 0.0
C741 C 0.67701 0.66814 0.07578 0.0
C742 C 0.64067 0.59585 0.0512 0.0
C743 C 0.61183 0.60619 0.04319 0.0
C744 C 0.65342 0.64567 0.06922 0.0
C745 C 0.6042 0.63628 0.04988 0.0
C746 C 0.66978 0.69803 0.08334 0.0
C747 C 0.72733 0.68251 0.06458 0.0
N748 N 0.62507 0.65513 0.06212 0.0
N749 N 0.70585 0.66119 0.06822 0.0
H750 H 0.34037 0.74518 0.02869 0.0
H751 H 0.38648 0.5758 0.04572 0.0
H752 H 0.28102 0.67913 0.06922 0.0
H753 H 0.44999 0.64749 0.02727 0.0
H754 H 0.3488 0.61353 0.0592 0.0
H755 H 0.38209 0.71132 0.03544 0.0
C756 C 0.33599 0.72398 0.03995 0.0
C757 C 0.3066 0.715 0.0479 0.0
C758 C 0.37108 0.62096 0.05251 0.0
C759 C 0.35486 0.67508 0.05407 0.0
C760 C 0.39253 0.59946 0.0444 0.0
C761 C 0.42129 0.60851 0.03464 0.0
C762 C 0.37833 0.65172 0.05056 0.0
C763 C 0.42801 0.63944 0.03418 0.0
C764 C 0.36009 0.70434 0.04341 0.0
C765 C 0.30297 0.68672 0.06176 0.0
N766 N 0.40655 0.65994 0.04169 0.0
N767 N 0.32672 0.66741 0.06372 0.0
H768 H 0.33693 0.28222 0.06286 0.0
H769 H 0.38278 0.45003 0.017 0.0
H770 H 0.27832 0.34614 0.01821 0.0
H771 H 0.44865 0.38086 0.03712 0.0
H772 H 0.34282 0.41441 0.0277 0.0
H773 H 0.37648 0.32086 0.06428 0.0
C774 C 0.33214 0.30442 0.05384 0.0
C775 C 0.30427 0.31072 0.04009 0.0
C776 C 0.366 0.40698 0.02979 0.0
C777 C 0.34914 0.35481 0.04194 0.0
C778 C 0.38894 0.4273 0.02357 0.0
C779 C 0.41923 0.41836 0.02579 0.0
C780 C 0.37323 0.37738 0.03825 0.0
C781 C 0.42562 0.38861 0.03468 0.0
C782 C 0.35471 0.32638 0.05467 0.0
C783 C 0.29915 0.3401 0.02938 0.0
N784 N 0.40273 0.36906 0.0405 0.0
N785 N 0.32145 0.36089 0.0303 0.0
H786 H 0.74708 0.34308 0.96444 0.0
H787 H 0.57702 0.38568 0.97781 0.0
H788 H 0.6768 0.28896 0.92332 0.0
H789 H 0.64983 0.44769 0.99718 0.0
H790 H 0.61288 0.35194 0.95327 0.0
H791 H 0.71262 0.38457 0.96817 0.0
C792 C 0.72475 0.33987 0.95516 0.0
C793 C 0.7148 0.31161 0.94443 0.0
C794 C 0.62093 0.37304 0.96268 0.0
C795 C 0.67438 0.35944 0.95054 0.0
C796 C 0.60056 0.39214 0.97716 0.0
C797 C 0.61052 0.41933 0.99018 0.0
C798 C 0.65151 0.38104 0.9615 0.0
C799 C 0.64116 0.42679 0.9879 0.0
C800 C 0.70477 0.36383 0.95782 0.0
C801 C 0.68522 0.3097 0.93314 0.0
N802 N 0.6606 0.4076 0.97409 0.0
N803 N 0.66572 0.333 0.93738 0.0
H804 H 0.09109 0.74611 0.67915 0.0
H805 H 0.05524 0.57583 0.64428 0.0
H806 H 0.07133 0.67658 0.74468 0.0
H807 H 0.05221 0.64806 0.57891 0.0
H808 H 0.08135 0.60918 0.67907 0.0
H809 H 0.09995 0.70671 0.64172 0.0
C810 C 0.08892 0.7228 0.68607 0.0
C811 C 0.0766 0.7151 0.71435 0.0
C812 C 0.07524 0.61765 0.65699 0.0
C813 C 0.08869 0.67012 0.67216 0.0
C814 C 0.05993 0.59872 0.63718 0.0
C815 C 0.05056 0.60939 0.60889 0.0
C816 C 0.08079 0.64772 0.6488 0.0
C817 C 0.05816 0.63908 0.60081 0.0
C818 C 0.09436 0.70031 0.66461 0.0
C819 C 0.07818 0.68442 0.72271 0.0
N820 N 0.07238 0.6574 0.6209 0.0
N821 N 0.08287 0.66305 0.70137 0.0
H822 H 0.28264 0.07671 0.67778 0.0
H823 H 0.45529 0.03391 0.65168 0.0
H824 H 0.33977 0.03131 0.74258 0.0
H825 H 0.39122 0.05166 0.58037 0.0
H826 H 0.41713 0.04903 0.6886 0.0
H827 H 0.32692 0.0842 0.64567 0.0
C828 C 0.3044 0.06889 0.68563 0.0
C829 C 0.30708 0.05269 0.7127 0.0
C830 C 0.41166 0.04991 0.66481 0.0
C831 C 0.35768 0.06161 0.6764 0.0
C832 C 0.43333 0.04112 0.64376 0.0
C833 C 0.42619 0.04071 0.61295 0.0
C834 C 0.38279 0.05845 0.6549 0.0
C835 C 0.39753 0.05085 0.60394 0.0
C836 C 0.32966 0.0733 0.66735 0.0
C837 C 0.33617 0.044 0.72209 0.0
N838 N 0.37677 0.05901 0.62485 0.0
N839 N 0.36017 0.04815 0.70375 0.0
H840 H 0.94994 0.28169 0.67633 0.0
H841 H 0.0109 0.44931 0.6498 0.0
H842 H 0.99923 0.33373 0.74263 0.0
H843 H 0.9837 0.38896 0.5779 0.0
H844 H 0.99703 0.41061 0.68639 0.0
H845 H 0.95234 0.32491 0.64202 0.0
C846 C 0.9609 0.30226 0.68378 0.0
C847 C 0.97448 0.30407 0.71229 0.0
C848 C 0.99407 0.40596 0.66257 0.0
C849 C 0.97717 0.35328 0.67351 0.0
C850 C 1.00207 0.42797 0.6417 0.0
C851 C 0.99899 0.42216 0.61076 0.0
C852 C 0.98281 0.37811 0.65235 0.0
C853 C 0.98707 0.39423 0.60153 0.0
C854 C 0.96221 0.32687 0.66429 0.0
C855 C 0.98804 0.3314 0.72105 0.0
N856 N 0.97952 0.37317 0.62227 0.0
N857 N 0.98923 0.35484 0.70162 0.0
H858 H 0.67311 0.93723 0.74152 0.0
H859 H 0.6481 0.97732 0.57245 0.0
H860 H 0.74011 0.91815 0.67291 0.0
H861 H 0.58134 0.98589 0.64312 0.0
H862 H 0.67904 0.94686 0.60628 0.0
H863 H 0.63543 0.93999 0.70335 0.0
C864 C 0.68033 0.93282 0.71867 0.0
C865 C 0.71098 0.92998 0.71063 0.0
C866 C 0.6575 0.95526 0.61422 0.0
C867 C 0.66703 0.93501 0.66618 0.0
C868 C 0.64003 0.97311 0.59511 0.0
C869 C 0.61231 0.98485 0.60511 0.0
C870 C 0.64724 0.94926 0.64355 0.0
C871 C 0.60278 0.97798 0.63449 0.0
C872 C 0.65835 0.93492 0.69654 0.0
C873 C 0.71739 0.92323 0.68022 0.0
N874 N 0.62029 0.96083 0.65264 0.0
N875 N 0.69586 0.92742 0.65884 0.0
H876 H 0.95092 0.34523 0.284 0.0
H877 H 0.00615 0.38365 0.45088 0.0
H878 H 0.99778 0.28308 0.34272 0.0
H879 H 0.98605 0.45248 0.38478 0.0
H880 H 0.99276 0.34519 0.4142 0.0
H881 H 0.95336 0.38357 0.32396 0.0
C882 C 0.96132 0.33951 0.30534 0.0
C883 C 0.97425 0.31094 0.30996 0.0
C884 C 0.99127 0.36872 0.40773 0.0
C885 C 0.97682 0.35428 0.35545 0.0
C886 C 0.99898 0.39074 0.42864 0.0
C887 C 0.99762 0.42136 0.42076 0.0
C888 C 0.98211 0.37731 0.37873 0.0
C889 C 0.9879 0.42911 0.39164 0.0
C890 C 0.96266 0.36132 0.32805 0.0
C891 C 0.98704 0.30455 0.33819 0.0
N892 N 0.98058 0.40713 0.37154 0.0
N893 N 0.98815 0.32612 0.35976 0.0
H894 H 0.73312 0.94074 0.32632 0.0
H895 H 0.56679 0.97639 0.38255 0.0
H896 H 0.66098 0.97646 0.27115 0.0
H897 H 0.64487 0.98115 0.4409 0.0
H898 H 0.59854 0.95756 0.34223 0.0
H899 H 0.6975 0.93623 0.36826 0.0
C900 C 0.7098 0.947 0.32266 0.0
C901 C 0.70053 0.96031 0.29536 0.0
C902 C 0.60866 0.9625 0.36394 0.0
C903 C 0.65977 0.95407 0.34279 0.0
C904 C 0.59064 0.97358 0.38701 0.0
C905 C 0.60332 0.98134 0.41505 0.0
C906 C 0.63968 0.95917 0.3687 0.0
C907 C 0.63426 0.97618 0.41946 0.0
C908 C 0.68956 0.94428 0.34661 0.0
C909 C 0.66966 0.96645 0.2916 0.0
N910 N 0.65155 0.96577 0.39631 0.0
N911 N 0.65055 0.96376 0.31523 0.0
H912 H 0.06152 0.6838 0.27592 0.0
H913 H 0.02093 0.6509 0.44817 0.0
H914 H 0.01049 0.74396 0.33363 0.0
H915 H 0.04068 0.58033 0.38351 0.0
H916 H 0.02964 0.6884 0.40902 0.0
H917 H 0.0664 0.64874 0.31836 0.0
C918 C 0.05175 0.6899 0.29748 0.0
C919 C 0.03537 0.71686 0.30098 0.0
C920 C 0.03219 0.66469 0.40349 0.0
C921 C 0.04132 0.67722 0.34944 0.0
C922 C 0.02718 0.64325 0.42578 0.0
C923 C 0.02957 0.6124 0.41897 0.0
C924 C 0.03979 0.65524 0.37423 0.0
C925 C 0.038 0.60388 0.3896 0.0
C926 C 0.05463 0.66994 0.32164 0.0
C927 C 0.02375 0.72381 0.32969 0.0
N928 N 0.04267 0.62523 0.3682 0.0
N929 N 0.02678 0.70403 0.35268 0.0
H930 H 0.28312 0.98468 0.33916 0.0
H931 H 0.44505 0.03941 0.3884 0.0
H932 H 0.33112 0.05455 0.29109 0.0
H933 H 0.38141 1.0021 0.45198 0.0
H934 H 0.405 0.04194 0.35068 0.0
H935 H 0.32018 0.98793 0.37962 0.0
C936 C 0.3012 1.001 0.33727 0.0
C937 C 0.30406 0.01936 0.31166 0.0
C938 C 0.3998 0.03343 0.37297 0.0
C939 C 0.34683 0.02257 0.3575 0.0
C940 C 0.42263 0.03177 0.39439 0.0
C941 C 0.41646 0.02036 0.42321 0.0
C942 C 0.37083 0.02314 0.38034 0.0
C943 C 0.38701 0.0111 0.42999 0.0
C944 C 0.32239 1.00272 0.36032 0.0
C945 C 0.32836 0.0396 0.31017 0.0
N946 N 0.36526 0.0124 0.40853 0.0
N947 N 0.34901 0.04048 0.33271 0.0
H948 H 0.03868 0.20425 0.27784 0.0
H949 H 0.96724 0.13099 0.42254 0.0
H950 H 0.94252 0.20039 0.29105 0.0
H951 H 0.04272 0.08649 0.38026 0.0
H952 H 0.96257 0.16382 0.37802 0.0
H953 H 0.04489 0.16491 0.31656 0.0
C954 C 0.01881 0.19412 0.28781 0.0
C955 C 0.99002 0.20551 0.28108 0.0
C956 C 0.98034 0.14703 0.37868 0.0
C957 C 0.99708 0.1622 0.32662 0.0
C958 C 0.98328 0.1287 0.40423 0.0
C959 C 1.0056 0.10633 0.40515 0.0
C960 C 1.00022 0.14334 0.35418 0.0
C961 C 0.02537 0.10373 0.38045 0.0
C962 C 0.0224 0.17215 0.31033 0.0
C963 C 0.96509 0.19212 0.29542 0.0
N964 N 0.0224 0.12214 0.35604 0.0
N965 N 0.96922 0.17188 0.31807 0.0
H966 H 0.76388 0.04684 0.31631 0.0
H967 H 0.93437 0.01203 0.364 0.0
H968 H 0.8264 0.99799 0.26011 0.0
H969 H 0.86521 0.03731 0.42793 0.0
H970 H 0.89792 0.01641 0.32333 0.0
H971 H 0.80388 0.05448 0.35373 0.0
C972 C 0.78644 0.03886 0.31129 0.0
C973 C 0.79195 0.02207 0.28486 0.0
C974 C 0.8907 0.02117 0.3462 0.0
C975 C 0.83762 0.02982 0.32812 0.0
C976 C 0.91156 0.01872 0.36966 0.0
C977 C 0.90301 0.02417 0.39982 0.0
C978 C 0.86085 0.02937 0.35255 0.0
C979 C 0.87294 0.03271 0.40521 0.0
C980 C 0.80911 0.04275 0.33291 0.0
C981 C 0.82134 0.0115 0.27987 0.0
N982 N 0.85296 0.03499 0.38184 0.0
N983 N 0.84298 0.01526 0.30143 0.0
H984 H 0.03474 0.83792 0.25498 0.0
H985 H 0.96458 0.88198 0.41254 0.0
H986 H 0.95484 0.79484 0.28922 0.0
H987 H 0.01361 0.94738 0.35981 0.0
H988 H 0.96246 0.84876 0.36815 0.0
H989 H 0.02794 0.87879 0.292 0.0
C990 C 0.01489 0.8379 0.26924 0.0
C991 C 0.99488 0.81334 0.26847 0.0
C992 C 0.97348 0.8705 0.36626 0.0
C993 C 0.98812 0.85882 0.31235 0.0
C994 C 0.97491 0.88937 0.39169 0.0
C995 C 0.9893 0.91757 0.39003 0.0
C996 C 0.98712 0.8795 0.33905 0.0
C997 C 1.00214 0.92594 0.36221 0.0
C998 C 0.01131 0.86092 0.29078 0.0
C999 C 0.97031 0.81375 0.28852 0.0
N1000 N 1.00107 0.9069 0.33801 0.0
N1001 N 0.96801 0.83566 0.31004 0.0
H1002 H 0.18272 0.04476 0.26675 0.0
H1003 H 0.1241 0.97265 0.41781 0.0
H1004 H 0.21073 0.95635 0.29569 0.0
H1005 H 0.06592 0.03092 0.36598 0.0
H1006 H 0.15848 0.96958 0.37451 0.0
H1007 H 0.14006 0.04223 0.30219 0.0
C1008 C 0.179 0.02421 0.27944 0.0
C1009 C 0.20001 1.00052 0.27793 0.0
C1010 C 0.1381 0.98293 0.37261 0.0
C1011 C 0.15262 0.99828 0.31985 0.0
C1012 C 0.11863 0.98492 0.39743 0.0
C1013 C 0.09206 1.00204 0.39559 0.0
C1014 C 0.13138 0.99874 0.34593 0.0
C1015 C 0.08609 0.01734 0.36841 0.0
C1016 C 0.15501 0.02299 0.30008 0.0
C1017 C 0.19476 0.97487 0.29581 0.0
N1018 N 0.10571 0.0156 0.3448 0.0
N1019 N 0.17211 0.97473 0.31651 0.0
H1020 H 0.99145 0.75686 0.66386 0.0
H1021 H 0.98335 0.93301 0.62506 0.0
H1022 H 0.99632 0.82747 0.73065 0.0
H1023 H 0.98735 0.86327 0.55685 0.0
H1024 H 0.9806 0.89442 0.66379 0.0
H1025 H 0.98123 0.79481 0.62503 0.0
C1026 C 0.98931 0.78034 0.67049 0.0
C1027 C 0.99447 0.78903 0.70059 0.0
C1028 C 0.98193 0.88745 0.64039 0.0
C1029 C 0.98375 0.8328 0.65602 0.0
C1030 C 0.98362 0.90956 0.61805 0.0
C1031 C 0.98601 0.90158 0.58734 0.0
C1032 C 0.98263 0.85681 0.63233 0.0
C1033 C 0.98573 0.87064 0.5801 0.0
C1034 C 0.98386 0.80204 0.64824 0.0
C1035 C 0.99205 0.81977 0.70784 0.0
N1036 N 0.98432 0.84943 0.60241 0.0
N1037 N 0.98723 0.84056 0.68569 0.0
H1038 H 0.17342 0.01058 0.73582 0.0
H1039 H 0.13371 0.9802 0.56174 0.0
H1040 H 0.23874 0.98326 0.66912 0.0
H1041 H 0.06582 0.99671 0.62968 0.0
H1042 H 0.17202 0.97901 0.60142 0.0
H1043 H 0.13307 1.00224 0.69855 0.0
C1044 C 0.17919 1.00212 0.7136 0.0
C1045 C 0.20951 0.99782 0.70554 0.0
C1046 C 0.1487 0.98269 0.60769 0.0
C1047 C 0.16362 0.98891 0.6625 0.0
C1048 C 0.12674 0.98344 0.58495 0.0
C1049 C 0.09631 0.98865 0.59213 0.0
C1050 C 0.1404 0.98742 0.638 0.0
C1051 C 0.0889 0.99261 0.62283 0.0
C1052 C 0.1562 0.99765 0.6922 0.0
C1053 C 0.2157 0.98718 0.67624 0.0
N1054 N 0.11072 0.99212 0.64449 0.0
N1055 N 0.19311 0.98346 0.65579 0.0
H1056 H 0.042 0.21853 0.69979 0.0
H1057 H 0.98391 0.0607 0.63285 0.0
H1058 H 0.96804 0.16959 0.73929 0.0
H1059 H 0.03194 0.12707 0.58037 0.0
H1060 H 0.98542 0.09485 0.67637 0.0
H1061 H 0.04736 0.17883 0.6616 0.0
C1062 C 0.0276 0.19879 0.70107 0.0
C1063 C 1.00468 0.19725 0.72294 0.0
C1064 C 0.99573 0.10187 0.65538 0.0
C1065 C 0.01015 0.15201 0.67864 0.0
C1066 C 0.99497 0.08237 0.63046 0.0
C1067 C 0.00779 0.09096 0.6027 0.0
C1068 C 0.00987 0.1301 0.6529 0.0
C1069 C 0.02158 0.11949 0.60113 0.0
C1070 C 0.03036 0.17639 0.67896 0.0
C1071 C 0.98627 0.17146 0.72316 0.0
N1072 N 0.02235 0.13792 0.62585 0.0
N1073 N 0.9892 0.14997 0.70116 0.0
H1074 H 0.77015 0.02039 0.68947 0.0
H1075 H 0.93794 0.98775 0.6305 0.0
H1076 H 0.83638 0.97087 0.74025 0.0
H1077 H 0.86711 0.02219 0.57325 0.0
H1078 H 0.90338 0.98862 0.67312 0.0
H1079 H 0.80798 0.03 0.65027 0.0
C1080 C 0.79309 0.01272 0.69299 0.0
C1081 C 0.80027 0.99529 0.71849 0.0
C1082 C 0.89533 0.99608 0.65131 0.0
C1083 C 0.84347 1.00506 0.67299 0.0
C1084 C 0.91511 0.9956 0.62675 0.0
C1085 C 0.90555 1.00479 0.59788 0.0
C1086 C 0.86553 1.00599 0.64738 0.0
C1087 C 0.87553 0.01462 0.59487 0.0
C1088 C 0.81452 0.01769 0.67031 0.0
C1089 C 0.83005 0.98496 0.72135 0.0
N1090 N 0.85664 0.01495 0.61926 0.0
N1091 N 0.85042 0.98972 0.69878 0.0
H1092 H 0.30267 0.06119 0.20815 0.0
H1093 H 0.37402 0.97345 0.06825 0.0
H1094 H 0.27616 0.96966 0.18835 0.0
H1095 H 0.42411 0.03693 0.12252 0.0
H1096 H 0.33196 0.97675 0.1042 0.0
H1097 H 0.33962 0.05884 0.16722 0.0
C1098 C 0.30388 0.04094 0.1944 0.0
C1099 C 0.28621 0.0156 0.20161 0.0
C1100 C 0.35219 0.98986 0.10824 0.0
C1101 C 0.329 0.01258 0.15504 0.0
C1102 C 0.37621 0.98802 0.0878 0.0
C1103 C 0.40272 1.00484 0.0925 0.0
C1104 C 0.35428 0.00936 0.13312 0.0
C1105 C 0.40428 0.02334 0.11819 0.0
C1106 C 0.32532 0.03947 0.1714 0.0
C1107 C 0.28903 0.9898 0.18332 0.0
N1108 N 0.38029 0.02536 0.13734 0.0
N1109 N 0.31025 0.98884 0.16096 0.0
H1110 H 0.04398 0.31502 0.22388 0.0
H1111 H 0.97664 0.37716 0.06855 0.0
H1112 H 0.96722 0.2749 0.17983 0.0
H1113 H 0.03158 0.4312 0.12819 0.0
H1114 H 0.97936 0.33543 0.10427 0.0
H1115 H 0.04767 0.35203 0.18304 0.0
C1116 C 0.0287 0.31323 0.20488 0.0
C1117 C 1.00545 0.29164 0.20505 0.0
C1118 C 0.99084 0.35637 0.1096 0.0
C1119 C 0.00887 0.33462 0.15876 0.0
C1120 C 0.98931 0.38031 0.08922 0.0
C1121 C 1.0039 0.40788 0.09535 0.0
C1122 C 0.00743 0.35964 0.13631 0.0
C1123 C 0.01978 0.41052 0.12263 0.0
C1124 C 0.03045 0.33473 0.18191 0.0
C1125 C 0.98577 0.2908 0.1803 0.0
N1126 N 0.02127 0.38664 0.14202 0.0
N1127 N 0.98772 0.3122 0.1583 0.0
H1128 H 0.73698 0.97572 0.17059 0.0
H1129 H 0.57326 0.03207 0.12384 0.0
H1130 H 0.68904 0.04441 0.21997 0.0
H1131 H 0.63345 0.99002 0.05974 0.0
H1132 H 0.61504 0.03535 0.15993 0.0
H1133 H 0.70019 0.98041 0.12932 0.0
C1134 C 0.71944 0.99269 0.17213 0.0
C1135 C 0.71651 0.01031 0.19832 0.0
C1136 C 0.61914 0.02556 0.13789 0.0
C1137 C 0.67327 0.01455 0.15214 0.0
C1138 C 0.59519 0.02346 0.11732 0.0
C1139 C 0.59968 0.01069 0.08862 0.0
C1140 C 0.6478 0.01435 0.13001 0.0
C1141 C 0.62882 1.00014 0.08151 0.0
C1142 C 0.69816 0.99507 0.14881 0.0
C1143 C 0.69254 0.03101 0.19979 0.0
N1144 N 0.6516 1.00195 0.10209 0.0
N1145 N 0.67162 0.03223 0.17731 0.0
H1146 H 0.9644 0.69188 0.22168 0.0
H1147 H 0.01393 0.63957 0.05553 0.0
H1148 H 0.02384 0.74513 0.16643 0.0
H1149 H 0.97957 0.57912 0.12358 0.0
H1150 H 0.01029 0.68145 0.09169 0.0
H1151 H 0.96075 0.65443 0.18115 0.0
C1152 C 0.9759 0.69614 0.20055 0.0
C1153 C 0.99425 0.7218 0.19733 0.0
C1154 C 1.00348 0.65904 0.09864 0.0
C1155 C 0.9909 0.67844 0.15097 0.0
C1156 C 1.00552 0.63504 0.07801 0.0
C1157 C 0.99718 0.60556 0.08647 0.0
C1158 C 0.99256 0.65377 0.1279 0.0
C1159 C 0.98652 0.60128 0.11601 0.0
C1160 C 0.97417 0.67453 0.17757 0.0
C1161 C 0.00911 0.72591 0.16967 0.0
N1162 N 0.98444 0.62505 0.13552 0.0
N1163 N 0.00735 0.70432 0.14763 0.0
H1164 H 0.25713 0.03402 0.82933 0.0
H1165 H 0.42191 0.97579 0.86662 0.0
H1166 H 0.29983 0.9633 0.77803 0.0
H1167 H 0.36587 0.01952 0.9333 0.0
H1168 H 0.37769 0.97156 0.83337 0.0
H1169 H 0.29528 0.02775 0.86886 0.0
C1170 C 0.27357 0.01604 0.82717 0.0
C1171 C 0.27488 0.9987 0.80066 0.0
C1172 C 0.3751 0.98191 0.85538 0.0
C1173 C 0.32 0.99283 0.84474 0.0
C1174 C 0.40043 0.9846 0.87423 0.0
C1175 C 0.39774 0.99806 0.90283 0.0
C1176 C 0.34697 0.99324 0.86495 0.0
C1177 C 0.36913 0.00885 0.91153 0.0
C1178 C 0.2958 0.01288 0.84942 0.0
C1179 C 0.29758 0.97661 0.79845 0.0
N1180 N 0.34505 1.00644 0.89266 0.0
N1181 N 0.31965 0.97481 0.81976 0.0
H1182 H 0.9415 0.27225 0.82214 0.0
H1183 H 0.04433 0.37843 0.92489 0.0
H1184 H 0.03815 0.27008 0.81314 0.0
H1185 H 0.96016 0.40748 0.886 0.0
H1186 H 0.04109 0.33121 0.89551 0.0
H1187 H 0.94635 0.31232 0.86006 0.0
C1188 C 0.96385 0.27895 0.82945 0.0
C1189 C 0.98947 0.26765 0.81448 0.0
C1190 C 0.02343 0.34799 0.89337 0.0
C1191 C 0.99512 0.31418 0.85725 0.0
C1192 C 0.02534 0.37495 0.90989 0.0
C1193 C 1.00274 0.39708 0.90736 0.0
C1194 C 0.99817 0.34262 0.87505 0.0
C1195 C 0.97834 0.39128 0.88808 0.0
C1196 C 0.96654 0.30239 0.8505 0.0
C1197 C 0.01785 0.27784 0.82433 0.0
N1198 N 0.97654 0.36448 0.87291 0.0
N1199 N 0.01994 0.30087 0.84478 0.0
H1200 H 0.72128 0.02712 0.79383 0.0
H1201 H 0.58407 0.95742 0.87957 0.0
H1202 H 0.72421 0.93517 0.82548 0.0
H1203 H 0.61708 0.04299 0.9122 0.0
H1204 H 0.63014 0.95204 0.84891 0.0
H1205 H 0.67985 0.03736 0.82957 0.0
C1206 C 0.71406 0.0094 0.80901 0.0
C1207 C 0.72622 0.98015 0.80642 0.0
C1208 C 0.62705 0.97215 0.86255 0.0
C1209 C 0.67776 0.99129 0.84587 0.0
C1210 C 0.60065 0.97539 0.87967 0.0
C1211 C 0.59666 1.00082 0.89813 0.0
C1212 C 0.64925 0.99484 0.86329 0.0
C1213 C 0.61925 0.02316 0.89801 0.0
C1214 C 0.69007 0.01514 0.829 0.0
C1215 C 0.71538 0.95796 0.82641 0.0
N1216 N 0.64448 0.01983 0.88067 0.0
N1217 N 0.69129 0.96372 0.84456 0.0
H1218 H 0.97559 0.68775 0.76043 0.0
H1219 H 0.01389 0.63096 0.92751 0.0
H1220 H 0.02316 0.74038 0.82687 0.0
H1221 H 0.98067 0.57064 0.85838 0.0
H1222 H 0.01074 0.67265 0.89246 0.0
H1223 H 0.9691 0.64723 0.79773 0.0
C1224 C 0.98341 0.69133 0.78332 0.0
C1225 C 0.99927 0.7178 0.79083 0.0
C1226 C 1.00405 0.65039 0.88479 0.0
C1227 C 0.99313 0.67104 0.83322 0.0
C1228 C 1.00582 0.62632 0.90489 0.0
C1229 C 0.99746 0.5969 0.89609 0.0
C1230 C 0.99379 0.64549 0.85528 0.0
C1231 C 0.98752 0.59276 0.86622 0.0
C1232 C 0.98027 0.66794 0.8044 0.0
C1233 C 0.01014 0.72072 0.82039 0.0
N1234 N 0.98592 0.6168 0.84689 0.0
N1235 N 0.00705 0.69761 0.84037 0.0
H1236 H 0.18059 0.27287 0.04726 0.0
H1237 H 0.13171 0.42806 0.97456 0.0
H1238 H 0.21952 0.30546 0.96455 0.0
H1239 H 0.07005 0.3758 0.02867 0.0
H1240 H 0.16625 0.38468 0.97339 0.0
H1241 H 0.13991 0.31019 0.04223 0.0
C1242 C 0.17972 0.28698 0.02734 0.0
C1243 C 0.2029 0.28573 1.00591 0.0
C1244 C 0.14508 0.38276 0.98542 0.0
C1245 C 0.15789 0.32962 1.001 0.0
C1246 C 0.12558 0.40761 0.98638 0.0
C1247 C 0.09801 0.40554 1.00171 0.0
C1248 C 0.13717 0.35592 1.0004 0.0
C1249 C 0.09105 0.37833 0.01646 0.0
C1250 C 0.15686 0.30859 0.0247 0.0
C1251 C 0.20157 0.30534 0.98113 0.0
N1252 N 0.11056 0.35469 0.01563 0.0
N1253 N 0.17981 0.32691 0.97964 0.0
H1254 H 0.23749 0.68144 0.97228 0.0
H1255 H 0.06403 0.63781 0.99808 0.0
H1256 H 0.17354 0.74181 0.01389 0.0
H1257 H 0.13356 0.57343 0.97496 0.0
H1258 H 0.1015 0.67824 0.99634 0.0
H1259 H 0.19715 0.64466 0.9641 0.0
C1260 C 0.2147 0.68725 0.97896 0.0
C1261 C 0.20882 0.71471 0.99378 0.0
C1262 C 0.10852 0.6553 0.99149 0.0
C1263 C 0.16252 0.67233 0.98515 0.0
C1264 C 0.08711 0.63208 0.99244 0.0
C1265 C 0.09554 0.60192 0.98678 0.0
C1266 C 0.13867 0.64853 0.98458 0.0
C1267 C 0.12591 0.59618 0.97969 0.0
C1268 C 0.19173 0.66611 0.97459 0.0
C1269 C 0.17896 0.72102 1.00216 0.0
N1270 N 0.14628 0.6192 0.97882 0.0
N1271 N 0.15695 0.69984 0.99805 0.0
H1272 H 0.31583 0.23432 0.96244 0.0
H1273 H 0.36681 0.06829 0.01075 0.0
H1274 H 0.26615 0.18006 0.02578 0.0
H1275 H 0.42658 0.13401 0.97082 0.0
H1276 H 0.32553 0.10459 0.00751 0.0
H1277 H 0.35111 0.19246 0.95477 0.0
C1278 C 0.31177 0.21308 0.97385 0.0
C1279 C 0.28809 0.21045 0.99467 0.0
C1280 C 0.34764 0.111 0.99935 0.0
C1281 C 0.32878 0.16294 0.98681 0.0
C1282 C 0.3713 0.09033 1.00118 0.0
C1283 C 0.40037 0.09816 0.99118 0.0
C1284 C 0.35288 0.13969 0.98714 0.0
C1285 C 0.40468 0.12708 0.97908 0.0
C1286 C 0.33213 0.18942 0.96983 0.0
C1287 C 0.28397 0.18277 0.00932 0.0
N1288 N 0.38118 0.14679 0.97738 0.0
N1289 N 0.30441 0.16013 1.00541 0.0
H1290 H 0.83491 0.26404 0.95039 0.0
H1291 H 0.87281 0.42338 0.02277 0.0
H1292 H 0.78557 0.29918 0.02638 0.0
H1293 H 0.93951 0.37092 0.97482 0.0
H1294 H 0.83943 0.37891 0.02289 0.0
H1295 H 0.87414 0.30215 0.95911 0.0
C1296 C 0.83314 0.27878 0.96986 0.0
C1297 C 0.80734 0.27794 0.98815 0.0
C1298 C 0.86149 0.37717 0.01254 0.0
C1299 C 0.85095 0.32307 0.99699 0.0
C1300 C 0.88039 0.40263 0.01219 0.0
C1301 C 0.90903 0.40096 0.99881 0.0
C1302 C 0.87108 0.35003 0.9989 0.0
C1303 C 0.91773 0.37331 0.98562 0.0
C1304 C 0.8552 0.30097 0.9745 0.0
C1305 C 0.80551 0.29856 0.01227 0.0
N1306 N 0.89882 0.34914 0.98578 0.0
N1307 N 0.82659 0.3207 0.01558 0.0
H1308 H 0.68071 0.76693 0.97977 0.0
H1309 H 0.6346 0.9411 0.99794 0.0
H1310 H 0.74232 0.83579 0.00992 0.0
H1311 H 0.57024 0.86947 0.98277 0.0
H1312 H 0.6754 0.90428 0.99511 0.0
H1313 H 0.64201 0.80564 0.97185 0.0
C1314 C 0.68641 0.79042 0.98362 0.0
C1315 C 0.71491 0.79824 0.99507 0.0
C1316 C 0.65239 0.89659 0.99228 0.0
C1317 C 0.6703 0.84266 0.9872 0.0
C1318 C 0.62891 0.91765 0.99391 0.0
C1319 C 0.59863 0.90853 0.99074 0.0
C1320 C 0.64585 0.86597 0.98727 0.0
C1321 C 0.59306 0.87768 0.98558 0.0
C1322 C 0.66416 0.81246 0.97956 0.0
C1323 C 0.72085 0.82889 1.00052 0.0
N1324 N 0.61638 0.85758 0.98404 0.0
N1325 N 0.69866 0.84994 0.99683 0.0
H1326 H 0.77456 0.69759 0.96964 0.0
H1327 H 0.93773 0.63279 0.01233 0.0
H1328 H 0.83763 0.74349 0.02756 0.0
H1329 H 0.86758 0.57661 0.97466 0.0
H1330 H 0.90393 0.67589 0.01066 0.0
H1331 H 0.81141 0.65671 0.96241 0.0
C1332 C 0.79676 0.69975 0.97964 0.0
C1333 C 0.80336 0.72438 0.9986 0.0
C1334 C 0.89581 0.65422 1.00269 0.0
C1335 C 0.84515 0.67707 0.99152 0.0
C1336 C 0.91516 0.62941 1.00359 0.0
C1337 C 0.90563 0.60076 0.99355 0.0
C1338 C 0.86644 0.65083 0.99148 0.0
C1339 C 0.87591 0.59811 0.98281 0.0
C1340 C 0.81751 0.67609 0.97605 0.0
C1341 C 0.83194 0.72536 0.01213 0.0
N1342 N 0.85739 0.62285 0.98197 0.0
N1343 N 0.85165 0.70201 0.00849 0.0
H1344 H 0.26055 0.83476 0.03593 0.0
H1345 H 0.42428 0.87289 0.97477 0.0
H1346 H 0.30103 0.78542 0.96259 0.0
H1347 H 0.3693 0.93886 0.0209 0.0
H1348 H 0.38007 0.83937 0.97163 0.0
H1349 H 0.29926 0.8739 0.03044 0.0
C1350 C 0.27666 0.833 0.01763 0.0
C1351 C 0.27715 0.80719 0.99922 0.0
C1352 C 0.37775 0.86125 0.98236 0.0
C1353 C 0.32287 0.85067 0.99417 0.0
C1354 C 0.40307 0.88019 0.98448 0.0
C1355 C 0.40058 0.90869 0.9982 0.0
C1356 C 0.34992 0.87068 0.99451 0.0
C1357 C 0.37234 0.91713 0.01006 0.0
C1358 C 0.29918 0.85499 0.01489 0.0
C1359 C 0.29943 0.80536 0.97672 0.0
N1360 N 0.34828 0.89821 0.00813 0.0
N1361 N 0.3218 0.82638 0.97527 0.0
H1362 H 0.74115 0.17533 0.96763 0.0
H1363 H 0.56899 0.13798 0.00701 0.0
H1364 H 0.6815 0.23764 0.01265 0.0
H1365 H 0.63303 0.06925 0.98081 0.0
H1366 H 0.61022 0.17472 0.00897 0.0
H1367 H 0.70306 0.13536 0.97376 0.0
C1368 C 0.72045 0.18032 0.97963 0.0
C1369 C 0.71448 0.2098 0.98966 0.0
C1370 C 0.61528 0.15155 1.00291 0.0
C1371 C 0.67035 0.16466 0.99579 0.0
C1372 C 0.59164 0.13058 1.00157 0.0
C1373 C 0.59736 0.10037 0.99367 0.0
C1374 C 0.64493 0.14248 0.99598 0.0
C1375 C 0.62739 0.09221 0.98711 0.0
C1376 C 0.69853 0.15765 0.9828 0.0
C1377 C 0.68699 0.2152 1.00456 0.0
N1378 N 0.64992 0.1131 0.98823 0.0
N1379 N 0.66585 0.19306 0.00677 0.0
H1380 H 0.53748 0.74167 0.82331 0.0
H1381 H 0.49514 0.5781 0.88752 0.0
H1382 H 0.47863 0.6788 0.77825 0.0
H1383 H 0.53667 0.64698 0.94272 0.0
H1384 H 0.49587 0.61227 0.84483 0.0
H1385 H 0.54579 0.70437 0.86347 0.0
C1386 C 0.52745 0.71945 0.82117 0.0
C1387 C 0.5079 0.71303 0.79704 0.0
C1388 C 0.5049 0.62003 0.86619 0.0
C1389 C 0.51623 0.67073 0.84351 0.0
C1390 C 0.50453 0.60047 0.89077 0.0
C1391 C 0.51592 0.60954 0.91903 0.0
C1392 C 0.51689 0.64916 0.86942 0.0
C1393 C 0.52747 0.63901 0.92153 0.0
C1394 C 0.53168 0.69843 0.84442 0.0
C1395 C 0.49443 0.68438 0.79604 0.0
N1396 N 0.52773 0.65775 0.89702 0.0
N1397 N 0.49867 0.66444 0.81899 0.0
H1398 H 0.3481 0.47717 0.77608 0.0
H1399 H 0.38375 0.53199 0.94412 0.0
H1400 H 0.28941 0.5366 0.82586 0.0
H1401 H 0.45241 0.49697 0.88446 0.0
H1402 H 0.34827 0.53246 0.90154 0.0
H1403 H 0.38704 0.48415 0.81503 0.0
C1404 C 0.34392 0.49261 0.79461 0.0
C1405 C 0.31586 0.50694 0.79742 0.0
C1406 C 0.37118 0.52482 0.89779 0.0
C1407 C 0.35945 0.51374 0.84292 0.0
C1408 C 0.39138 0.52434 0.92218 0.0
C1409 C 0.42119 0.51446 0.91802 0.0
C1410 C 0.38067 0.51493 0.86908 0.0
C1411 C 0.42975 0.50496 0.88887 0.0
C1412 C 0.36592 0.49627 0.81709 0.0
C1413 C 0.31106 0.52575 0.82256 0.0
N1414 N 0.40963 0.50525 0.8657 0.0
N1415 N 0.33241 0.52828 0.8445 0.0
H1416 H 0.50033 0.34505 0.7703 0.0
H1417 H 0.52779 0.38016 0.94563 0.0
H1418 H 0.53489 0.2801 0.83371 0.0
H1419 H 0.50936 0.45028 0.88069 0.0
H1420 H 0.53087 0.34357 0.90438 0.0
H1421 H 0.50542 0.38468 0.80911 0.0
C1422 C 0.50983 0.33933 0.79207 0.0
C1423 C 0.51723 0.30926 0.79877 0.0
C1424 C 0.52624 0.36698 0.89909 0.0
C1425 C 0.5222 0.35414 0.8436 0.0
C1426 C 0.52429 0.38793 0.92275 0.0
C1427 C 0.51818 0.41849 0.91685 0.0
C1428 C 0.52173 0.37639 0.86911 0.0
C1429 C 0.51413 0.42704 0.8865 0.0
C1430 C 0.5124 0.36185 0.81436 0.0
C1431 C 0.52888 0.30299 0.82759 0.0
N1432 N 0.51578 0.40614 0.86388 0.0
N1433 N 0.53064 0.32505 0.84895 0.0
H1434 H 0.74343 0.5424 0.82303 0.0
H1435 H 0.57824 0.50248 0.88393 0.0
H1436 H 0.67937 0.48771 0.77456 0.0
H1437 H 0.64893 0.53591 0.94216 0.0
H1438 H 0.61236 0.50535 0.84128 0.0
H1439 H 0.70604 0.54993 0.86329 0.0
C1440 C 0.72096 0.5332 0.82021 0.0
C1441 C 0.7142 0.515 0.79508 0.0
C1442 C 0.62049 0.51216 0.86331 0.0
C1443 C 0.67176 0.52245 0.84158 0.0
C1444 C 0.60096 0.51058 0.88789 0.0
C1445 C 0.61058 0.51896 0.91702 0.0
C1446 C 0.65012 0.52236 0.86742 0.0
C1447 C 0.64048 0.52904 0.92029 0.0
C1448 C 0.69987 0.53696 0.84349 0.0
C1449 C 0.68521 0.50249 0.79317 0.0
N1450 N 0.65919 0.53048 0.89579 0.0
N1451 N 0.66518 0.50627 0.81616 0.0
H1452 H 0.55542 0.28858 0.20919 0.0
H1453 H 0.49269 0.44479 0.1446 0.0
H1454 H 0.47731 0.33373 0.24529 0.0
H1455 H 0.54567 0.38256 0.09138 0.0
H1456 H 0.49517 0.41002 0.18704 0.0
H1457 H 0.56185 0.32978 0.17284 0.0
C1458 C 0.54061 0.30803 0.21051 0.0
C1459 C 0.51614 0.30811 0.23062 0.0
C1460 C 0.50632 0.40397 0.16614 0.0
C1461 C 0.52256 0.35457 0.1884 0.0
C1462 C 0.50493 0.42378 0.1418 0.0
C1463 C 0.51895 0.41656 0.11424 0.0
C1464 C 0.52217 0.37673 0.16325 0.0
C1465 C 0.5343 0.38891 0.11206 0.0
C1466 C 0.54385 0.33113 0.18931 0.0
C1467 C 0.49683 0.33319 0.23061 0.0
N1468 N 0.53561 0.37002 0.13632 0.0
N1469 N 0.50026 0.35528 0.2096 0.0
H1470 H 0.68592 0.47106 0.2564 0.0
H1471 H 0.64569 0.53629 0.09451 0.0
H1472 H 0.72864 0.55042 0.22036 0.0
H1473 H 0.58231 0.48306 0.14553 0.0
H1474 H 0.67813 0.53937 0.13951 0.0
H1475 H 0.6473 0.47454 0.21684 0.0
C1476 C 0.68627 0.49011 0.24112 0.0
C1477 C 0.71021 0.5108 0.24203 0.0
C1478 C 0.6571 0.52702 0.1408 0.0
C1479 C 0.66739 0.51377 0.19541 0.0
C1480 C 0.63881 0.52494 0.115 0.0
C1481 C 0.61132 0.50931 0.11619 0.0
C1482 C 0.64807 0.51294 0.16782 0.0
C1483 C 0.6033 0.4954 0.14357 0.0
C1484 C 0.66461 0.49174 0.2181 0.0
C1485 C 0.71022 0.53437 0.2208 0.0
N1486 N 0.6216 0.49737 0.16814 0.0
N1487 N 0.68965 0.53482 0.19799 0.0
H1488 H 0.47217 0.68437 0.25433 0.0
H1489 H 0.54452 0.63938 0.09771 0.0
H1490 H 0.55672 0.72143 0.22431 0.0
H1491 H 0.48953 0.5763 0.14722 0.0
H1492 H 0.54647 0.6719 0.1428 0.0
H1493 H 0.47677 0.64442 0.216 0.0
C1494 C 0.49243 0.68318 0.24071 0.0
C1495 C 0.51429 0.70599 0.24277 0.0
C1496 C 0.53405 0.65087 0.14375 0.0
C1497 C 0.51875 0.66172 0.19761 0.0
C1498 C 0.53264 0.63254 0.11792 0.0
C1499 C 0.51678 0.60515 0.11867 0.0
C1500 C 0.51897 0.64205 0.17029 0.0
C1501 C 0.5021 0.59719 0.14566 0.0
C1502 C 0.49478 0.66077 0.21841 0.0
C1503 C 0.5396 0.70399 0.22373 0.0
N1504 N 0.50331 0.61562 0.17024 0.0
N1505 N 0.54078 0.6828 0.20147 0.0
H1506 H 0.3337 0.55402 0.24507 0.0
H1507 H 0.38785 0.48535 0.09051 0.0
H1508 H 0.29652 0.47134 0.20987 0.0
H1509 H 0.45001 0.53404 0.14758 0.0
H1510 H 0.35221 0.4829 0.13288 0.0
H1511 H 0.37648 0.54882 0.21013 0.0
C1512 C 0.33536 0.53402 0.23104 0.0
C1513 C 0.31198 0.5127 0.2308 0.0
C1514 C 0.37375 0.49398 0.13611 0.0
C1515 C 0.35949 0.50768 0.18945 0.0
C1516 C 0.39393 0.49566 0.11186 0.0
C1517 C 0.42191 0.51 0.11546 0.0
C1518 C 0.38131 0.50732 0.16396 0.0
C1519 C 0.42872 0.5227 0.1438 0.0
C1520 C 0.35944 0.53131 0.21073 0.0
C1521 C 0.3145 0.48785 0.21119 0.0
N1522 N 0.40847 0.52137 0.16682 0.0
N1523 N 0.3374 0.48637 0.19082 0.0
H1524 H 0.84022 0.52741 0.75699 0.0
H1525 H 0.8835 0.52675 0.5817 0.0
H1526 H 0.776 0.51204 0.68574 0.0
H1527 H 0.94962 0.5292 0.65326 0.0
H1528 H 0.84351 0.52904 0.61914 0.0
H1529 H 0.87932 0.53719 0.7192 0.0
C1530 C 0.83415 0.52714 0.73331 0.0
C1531 C 0.80476 0.51919 0.72445 0.0
C1532 C 0.86673 0.52923 0.62672 0.0
C1533 C 0.84968 0.52937 0.68096 0.0
C1534 C 0.88979 0.52787 0.60529 0.0
C1535 C 0.92032 0.52753 0.61415 0.0
C1536 C 0.87391 0.53033 0.65751 0.0
C1537 C 0.92658 0.52923 0.64521 0.0
C1538 C 0.85657 0.53231 0.71174 0.0
C1539 C 0.79823 0.51853 0.69351 0.0
N1540 N 0.90361 0.53043 0.66571 0.0
N1541 N 0.82057 0.52319 0.67288 0.0
H1542 H 0.52277 0.83831 0.75835 0.0
H1543 H 0.50604 0.88377 0.58472 0.0
H1544 H 0.5002 0.77562 0.68749 0.0
H1545 H 0.52726 0.94885 0.65433 0.0
H1546 H 0.50855 0.84369 0.62169 0.0
H1547 H 0.53089 0.8778 0.72047 0.0
C1548 C 0.52065 0.8326 0.73466 0.0
C1549 C 0.51125 0.80351 0.72598 0.0
C1550 C 0.51276 0.86666 0.62902 0.0
C1551 C 0.51929 0.84895 0.68251 0.0
C1552 C 0.51128 0.88983 0.60782 0.0
C1553 C 0.51633 0.92013 0.61622 0.0
C1554 C 0.5193 0.8734 0.65923 0.0
C1555 C 0.52294 0.92601 0.64672 0.0
C1556 C 0.52484 0.85527 0.71308 0.0
C1557 C 0.50798 0.79753 0.6951 0.0
N1558 N 0.52415 0.90289 0.6671 0.0
N1559 N 0.51165 0.8201 0.67455 0.0
H1560 H 0.2588 0.48374 0.68284 0.0
H1561 H 0.09069 0.53234 0.64608 0.0
H1562 H 0.2081 0.54457 0.73929 0.0
H1563 H 0.151 0.49909 0.57712 0.0
H1564 H 0.13357 0.53634 0.68071 0.0
H1565 H 0.22114 0.49038 0.64276 0.0
C1566 C 0.24052 0.49965 0.68621 0.0
C1567 C 0.23683 0.51407 0.71417 0.0
C1568 C 0.13743 0.52833 0.65793 0.0
C1569 C 0.19268 0.52034 0.66929 0.0
C1570 C 0.11286 0.52579 0.63821 0.0
C1571 C 0.1171 0.51535 0.60858 0.0
C1572 C 0.16646 0.51986 0.6482 0.0
C1573 C 0.14655 0.50734 0.59971 0.0
C1574 C 0.2187 0.50302 0.66357 0.0
C1575 C 0.21204 0.53352 0.71781 0.0
N1576 N 0.16997 0.50952 0.61945 0.0
N1577 N 0.19061 0.5356 0.69594 0.0
H1578 H 0.5568 0.21935 0.7294 0.0
H1579 H 0.50641 0.14907 0.57072 0.0
H1580 H 0.48666 0.25742 0.67419 0.0
H1581 H 0.54905 0.09647 0.64064 0.0
H1582 H 0.50871 0.19348 0.60318 0.0
H1583 H 0.5653 0.18028 0.69096 0.0
C1584 C 0.54438 0.22052 0.70837 0.0
C1585 C 0.52139 0.24209 0.70473 0.0
C1586 C 0.51773 0.1723 0.6114 0.0
C1587 C 0.53012 0.19667 0.66118 0.0
C1588 C 0.51648 0.14678 0.59287 0.0
C1589 C 0.52753 0.11871 0.60288 0.0
C1590 C 0.53046 0.17017 0.64026 0.0
C1591 C 0.54007 0.11746 0.63198 0.0
C1592 C 0.54871 0.19774 0.6868 0.0
C1593 C 0.50506 0.24171 0.67759 0.0
N1594 N 0.54125 0.14282 0.64961 0.0
N1595 N 0.50951 0.21919 0.65703 0.0
H1596 H 0.7852 0.54768 0.32631 0.0
H1597 H 0.9344 0.48501 0.39615 0.0
H1598 H 0.80257 0.45205 0.33068 0.0
H1599 H 0.88724 0.55388 0.44642 0.0
H1600 H 0.8895 0.47837 0.36431 0.0
H1601 H 0.82375 0.55579 0.36571 0.0
C1602 C 0.79614 0.52832 0.33644 0.0
C1603 C 0.79058 0.49912 0.32524 0.0
C1604 C 0.8891 0.49506 0.38222 0.0
C1605 C 0.83574 0.5084 0.36871 0.0
C1606 C 0.91481 0.49911 0.40012 0.0
C1607 C 0.9146 0.52011 0.42385 0.0
C1608 C 0.86322 0.51268 0.38753 0.0
C1609 C 0.88831 0.53744 0.42831 0.0
C1610 C 0.81847 0.533 0.35851 0.0
C1611 C 0.80609 0.47491 0.33869 0.0
N1612 N 0.86375 0.53358 0.41015 0.0
N1613 N 0.82847 0.48013 0.35902 0.0
H1614 H 0.54203 0.77916 0.3333 0.0
H1615 H 0.47329 0.92948 0.39652 0.0
H1616 H 0.44795 0.80057 0.32181 0.0
H1617 H 0.53719 0.88086 0.45141 0.0
H1618 H 0.4683 0.88467 0.36403 0.0
H1619 H 0.54472 0.81669 0.37441 0.0
C1620 C 0.52167 0.79077 0.34029 0.0
C1621 C 0.49471 0.78669 0.32419 0.0
C1622 C 0.48337 0.88385 0.38325 0.0
C1623 C 0.49803 0.83066 0.36971 0.0
C1624 C 0.48642 0.90948 0.40157 0.0
C1625 C 0.50561 0.90885 0.42669 0.0
C1626 C 0.50023 0.85769 0.38959 0.0
C1627 C 0.52198 0.8822 0.43234 0.0
C1628 C 0.52332 0.81251 0.36337 0.0
C1629 C 0.46915 0.80298 0.3337 0.0
N1630 N 0.5192 0.85778 0.41376 0.0
N1631 N 0.47162 0.82477 0.35522 0.0
H1632 H 0.191 0.47781 0.27825 0.0
H1633 H 0.14727 0.52569 0.44679 0.0
H1634 H 0.24612 0.53753 0.33176 0.0
H1635 H 0.0831 0.4919 0.38168 0.0
H1636 H 0.18694 0.52233 0.40865 0.0
H1637 H 0.1556 0.47342 0.32031 0.0
C1638 C 0.19605 0.48932 0.29925 0.0
C1639 C 0.2215 0.5081 0.30156 0.0
C1640 C 0.16421 0.51557 0.40275 0.0
C1641 C 0.1807 0.50368 0.34963 0.0
C1642 C 0.14147 0.51742 0.42451 0.0
C1643 C 0.11163 0.50909 0.41748 0.0
C1644 C 0.15732 0.50493 0.37374 0.0
C1645 C 0.10564 0.49875 0.38813 0.0
C1646 C 0.17566 0.4871 0.3231 0.0
C1647 C 0.22691 0.52265 0.32917 0.0
N1648 N 0.12827 0.49687 0.3674 0.0
N1649 N 0.20648 0.5204 0.35209 0.0
H1650 H 0.49984 0.24507 0.33192 0.0
H1651 H 0.53212 0.07333 0.37676 0.0
H1652 H 0.5382 0.17961 0.27085 0.0
H1653 H 0.5132 0.14285 0.44265 0.0
H1654 H 0.53459 0.11225 0.33769 0.0
H1655 H 0.50642 0.20898 0.3735 0.0
C1656 C 0.5104 0.22344 0.32746 0.0
C1657 C 0.51828 0.21521 0.29793 0.0
C1658 C 0.53008 0.11898 0.36075 0.0
C1659 C 0.52503 0.17352 0.34497 0.0
C1660 C 0.52848 0.0967 0.38306 0.0
C1661 C 0.52242 0.10467 0.41312 0.0
C1662 C 0.52525 0.14949 0.36843 0.0
C1663 C 0.51806 0.13549 0.41985 0.0
C1664 C 0.51385 0.2027 0.35107 0.0
C1665 C 0.53153 0.18672 0.29328 0.0
N1666 N 0.51937 0.15666 0.39772 0.0
N1667 N 0.53407 0.16679 0.31639 0.0
H1668 H 0.67223 0.76515 0.47743 0.0
H1669 H 0.64373 0.93188 0.53445 0.0
H1670 H 0.73205 0.8094 0.53989 0.0
H1671 H 0.57093 0.87516 0.5033 0.0
H1672 H 0.67655 0.88721 0.53636 0.0
H1673 H 0.63365 0.80339 0.48829 0.0
C1674 C 0.67661 0.78194 0.49472 0.0
C1675 C 0.7052 0.78368 0.50824 0.0
C1676 C 0.6533 0.88454 0.52933 0.0
C1677 C 0.66199 0.82889 0.51919 0.0
C1678 C 0.63463 0.91012 0.52797 0.0
C1679 C 0.60449 0.90744 0.5186 0.0
C1680 C 0.64199 0.85607 0.5207 0.0
C1681 C 0.59396 0.87845 0.51073 0.0
C1682 C 0.65483 0.80421 0.50044 0.0
C1683 C 0.71009 0.80681 0.5295 0.0
N1684 N 0.6127 0.85407 0.51163 0.0
N1685 N 0.68909 0.82891 0.53372 0.0
H1686 H 0.69042 0.25161 0.53326 0.0
H1687 H 0.65618 0.07751 0.49564 0.0
H1688 H 0.7559 0.19211 0.49288 0.0
H1689 H 0.58734 0.14246 0.51922 0.0
H1690 H 0.69313 0.119 0.49393 0.0
H1691 H 0.65165 0.2126 0.52587 0.0
C1692 C 0.69637 0.23079 0.52184 0.0
C1693 C 0.72636 0.22525 0.51344 0.0
C1694 C 0.66985 0.12409 0.49931 0.0
C1695 C 0.6825 0.1798 0.50615 0.0
C1696 C 0.64878 0.10033 0.50047 0.0
C1697 C 0.61844 0.10622 0.50754 0.0
C1698 C 0.66065 0.15397 0.50557 0.0
C1699 C 0.61032 0.1365 0.51347 0.0
C1700 C 0.67437 0.20826 0.51803 0.0
C1701 C 0.73297 0.19739 0.49947 0.0
N1702 N 0.63117 0.159 0.51249 0.0
N1703 N 0.71144 0.17562 0.49671 0.0
H1704 H 0.81183 0.71006 0.44601 0.0
H1705 H 0.89697 0.599 0.55437 0.0
H1706 H 0.79396 0.71761 0.54143 0.0
H1707 H 0.94316 0.6452 0.48247 0.0
H1708 H 0.85419 0.63407 0.54881 0.0
H1709 H 0.85389 0.6763 0.45683 0.0
C1710 C 0.81652 0.7044 0.46931 0.0
C1711 C 0.79954 0.71739 0.49287 0.0
C1712 C 0.87387 0.63674 0.53459 0.0
C1713 C 0.84772 0.67793 0.50528 0.0
C1714 C 0.89829 0.61684 0.53773 0.0
C1715 C 0.92379 0.61939 0.51899 0.0
C1716 C 0.87449 0.65865 0.51182 0.0
C1717 C 0.92417 0.64268 0.49762 0.0
C1718 C 0.84069 0.68522 0.4754 0.0
C1719 C 0.80635 0.70832 0.52253 0.0
N1720 N 0.89969 0.66103 0.49425 0.0
N1721 N 0.82998 0.68914 0.52792 0.0
H1722 H 0.31664 0.79018 0.5446 0.0
H1723 H 0.38442 0.94749 0.49202 0.0
H1724 H 0.30526 0.82488 0.4544 0.0
H1725 H 0.43775 0.88941 0.54898 0.0
H1726 H 0.34751 0.90658 0.48612 0.0
H1727 H 0.35576 0.82892 0.55354 0.0
C1728 C 0.32256 0.80553 0.52657 0.0
C1729 C 0.30711 0.80449 0.49887 0.0
C1730 C 0.36719 0.90292 0.50013 0.0
C1731 C 0.35085 0.84936 0.50937 0.0
C1732 C 0.38809 0.92635 0.50373 0.0
C1733 C 0.41422 0.92187 0.52098 0.0
C1734 C 0.37203 0.87499 0.5144 0.0
C1735 C 0.41796 0.89376 0.53534 0.0
C1736 C 0.34466 0.82778 0.5318 0.0
C1737 C 0.31582 0.82522 0.47643 0.0
N1738 N 0.39706 0.87142 0.53187 0.0
N1739 N 0.33657 0.847 0.48233 0.0
H1740 H 0.24638 0.33033 0.54971 0.0
H1741 H 0.08514 0.38287 0.48905 0.0
H1742 H 0.2055 0.29286 0.46981 0.0
H1743 H 0.14179 0.44272 0.54099 0.0
H1744 H 0.12734 0.34681 0.48594 0.0
H1745 H 0.20809 0.37075 0.54955 0.0
C1746 C 0.23009 0.33124 0.53152 0.0
C1747 C 0.22937 0.30832 0.50959 0.0
C1748 C 0.13048 0.36786 0.49804 0.0
C1749 C 0.1845 0.35343 0.51018 0.0
C1750 C 0.10627 0.38828 0.50008 0.0
C1751 C 0.10984 0.41591 0.51525 0.0
C1752 C 0.15834 0.37479 0.51176 0.0
C1753 C 0.13799 0.42179 0.52888 0.0
C1754 C 0.20791 0.354 0.5317 0.0
C1755 C 0.20705 0.31019 0.48703 0.0
N1756 N 0.16099 0.40143 0.52697 0.0
N1757 N 0.18529 0.33187 0.48823 0.0
H1758 H 0.32821 0.24082 0.47338 0.0
H1759 H 0.39939 0.099 0.54915 0.0
H1760 H 0.32036 0.22585 0.56897 0.0
H1761 H 0.45205 0.14547 0.48199 0.0
H1762 H 0.36589 0.14301 0.55249 0.0
H1763 H 0.3716 0.20597 0.47211 0.0
C1764 C 0.33657 0.23146 0.49433 0.0
C1765 C 0.32089 0.23664 0.52141 0.0
C1766 C 0.38483 0.14359 0.53706 0.0
C1767 C 0.36904 0.19529 0.51976 0.0
C1768 C 0.40377 0.11836 0.53493 0.0
C1769 C 0.42851 0.11848 0.51521 0.0
C1770 C 0.39006 0.16895 0.51874 0.0
C1771 C 0.43325 0.14445 0.49754 0.0
C1772 C 0.36097 0.21114 0.49351 0.0
C1773 C 0.33206 0.22288 0.54772 0.0
N1774 N 0.41397 0.16848 0.49939 0.0
N1775 N 0.3548 0.20227 0.54611 0.0
H1776 H 0.81879 0.29704 0.48205 0.0
H1777 H 0.88083 0.45782 0.53826 0.0
H1778 H 0.78016 0.34464 0.55749 0.0
H1779 H 0.93582 0.39217 0.49168 0.0
H1780 H 0.83845 0.42225 0.53693 0.0
H1781 H 0.85526 0.33822 0.4755 0.0
C1782 C 0.81703 0.31689 0.49629 0.0
C1783 C 0.79588 0.31775 0.51987 0.0
C1784 C 0.85975 0.41571 0.52689 0.0
C1785 C 0.83836 0.36451 0.51329 0.0
C1786 C 0.88401 0.436 0.52761 0.0
C1787 C 0.91215 0.42799 0.51524 0.0
C1788 C 0.86328 0.38729 0.51317 0.0
C1789 C 0.91475 0.39928 0.50181 0.0
C1790 C 0.83827 0.34009 0.49296 0.0
C1791 C 0.79554 0.34345 0.53855 0.0
N1792 N 0.89067 0.38009 0.50103 0.0
N1793 N 0.81654 0.3657 0.53499 0.0
H1794 H 0.22245 0.72844 0.55117 0.0
H1795 H 0.1505 0.57459 0.48929 0.0
H1796 H 0.25583 0.68258 0.47223 0.0
H1797 H 0.10072 0.64078 0.54072 0.0
H1798 H 0.19514 0.60699 0.49186 0.0
H1799 H 0.18548 0.68796 0.55837 0.0
C1800 C 0.22325 0.70889 0.53642 0.0
C1801 C 0.24253 0.70872 0.51126 0.0
C1802 C 0.1745 0.61437 0.50267 0.0
C1803 C 0.19944 0.66293 0.51861 0.0
C1804 C 0.14893 0.59595 0.50118 0.0
C1805 C 0.12165 0.60508 0.51461 0.0
C1806 C 0.17312 0.64198 0.5182 0.0
C1807 C 0.12109 0.63301 0.5297 0.0
C1808 C 0.20157 0.68621 0.54006 0.0
C1809 C 0.24178 0.68334 0.4922 0.0
N1810 N 0.14646 0.65041 0.53118 0.0
N1811 N 0.22025 0.6617 0.49596 0.0
loop_
_geom_bond_atom_site_label_1
_geom_bond_atom_site_label_2
_geom_bond_distance
_geom_bond_site_symmetry_2
_ccdc_geom_bond_type
H0 C3 0.931 . S
H1 C6 0.928 . S
H2 C8 0.931 . S
C3 H0 0.931 . S
C3 C4 1.413 1_655 S
C3 C5 1.360 . S
C4 C3 1.413 1_455 S
C4 C8 1.429 . S
C5 C3 1.360 . S
C5 C6 1.372 . S
C6 H1 0.928 . S
C6 C5 1.372 . S
C6 C7 1.404 . S
C7 C6 1.404 . S
C7 C8 1.390 1_655 S
C8 H2 0.931 . S
C8 C4 1.429 . S
C8 C7 1.390 1_455 S
H9 C12 0.931 . S
H10 C15 0.928 . S
H11 C17 0.930 1_565 S
C12 H9 0.931 . S
C12 C13 1.413 . S
C12 C14 1.360 . S
C13 C12 1.413 . S
C13 C17 1.429 . S
C14 C12 1.360 . S
C14 C15 1.373 . S
C15 H10 0.928 . S
C15 C14 1.373 . S
C15 C16 1.405 . S
C16 C15 1.405 . S
C16 C17 1.390 . S
C17 H11 0.930 1_545 S
C17 C13 1.429 . S
C17 C16 1.390 . S
H18 C21 0.931 . S
H19 C24 0.928 . S
H20 C26 0.930 1_655 S
C21 H18 0.931 . S
C21 C22 1.413 . S
C21 C23 1.360 . S
C22 C21 1.413 . S
C22 C26 1.429 . S
C23 C21 1.360 . S
C23 C24 1.373 . S
C24 H19 0.928 . S
C24 C23 1.373 . S
C24 C25 1.405 . S
C25 C24 1.405 . S
C25 C26 1.390 . S
C26 H20 0.930 1_455 S
C26 C22 1.429 . S
C26 C25 1.390 . S
H27 C30 0.931 . S
H28 C33 0.928 . S
H29 C35 0.930 1_565 S
C30 H27 0.931 . S
C30 C31 1.413 . S
C30 C32 1.360 . S
C31 C30 1.413 . S
C31 C35 1.429 . S
C32 C30 1.360 . S
C32 C33 1.373 . S
C33 H28 0.928 . S
C33 C32 1.373 . S
C33 C34 1.405 . S
C34 C33 1.405 . S
C34 C35 1.390 . S
C35 H29 0.930 1_545 S
C35 C31 1.429 . S
C35 C34 1.390 . S
H36 C39 0.931 . S
H37 C42 0.928 . S
H38 C44 0.931 . S
C39 H36 0.931 . S
C39 C40 1.413 1_655 S
C39 C41 1.360 . S
C40 C39 1.413 1_455 S
C40 C44 1.429 . S
C41 C39 1.360 . S
C41 C42 1.372 . S
C42 H37 0.928 . S
C42 C41 1.372 . S
C42 C43 1.404 . S
C43 C42 1.404 . S
C43 C44 1.390 1_655 S
C44 H38 0.931 . S
C44 C40 1.429 . S
C44 C43 1.390 1_455 S
H45 C48 0.931 . S
H46 C51 0.928 . S
H47 C53 0.931 . S
C48 H45 0.931 . S
C48 C49 1.413 1_565 S
C48 C50 1.360 . S
C49 C48 1.413 1_545 S
C49 C53 1.429 . S
C50 C48 1.360 . S
C50 C51 1.372 . S
C51 H46 0.928 . S
C51 C50 1.372 . S
C51 C52 1.404 . S
C52 C51 1.404 . S
C52 C53 1.390 1_565 S
C53 H47 0.931 . S
C53 C49 1.429 . S
C53 C52 1.390 1_545 S
H54 C57 0.931 . S
H55 C60 0.928 . S
H56 C62 0.931 . S
C57 H54 0.931 . S
C57 C58 1.413 1_655 S
C57 C59 1.360 . S
C58 C57 1.413 1_455 S
C58 C62 1.429 . S
C59 C57 1.360 . S
C59 C60 1.372 . S
C60 H55 0.928 . S
C60 C59 1.372 . S
C60 C61 1.404 . S
C61 C60 1.404 . S
C61 C62 1.390 1_655 S
C62 H56 0.931 . S
C62 C58 1.429 . S
C62 C61 1.390 1_455 S
H63 C66 0.931 . S
H64 C69 0.928 . S
H65 C71 0.931 . S
C66 H63 0.931 . S
C66 C67 1.413 1_565 S
C66 C68 1.360 . S
C67 C66 1.413 1_545 S
C67 C71 1.429 . S
C68 C66 1.360 . S
C68 C69 1.372 . S
C69 H64 0.928 . S
C69 C68 1.372 . S
C69 C70 1.404 . S
C70 C69 1.404 . S
C70 C71 1.390 1_565 S
C71 H65 0.931 . S
C71 C67 1.429 . S
C71 C70 1.390 1_545 S
H72 C75 0.931 . S
H73 C78 0.928 . S
H74 C80 0.930 . S
C75 H72 0.931 . S
C75 C76 1.413 . S
C75 C77 1.360 . S
C76 C75 1.413 . S
C76 C80 1.429 1_556 S
C77 C75 1.360 . S
C77 C78 1.372 . S
C78 H73 0.928 . S
C78 C77 1.372 . S
C78 C79 1.404 . S
C79 C78 1.404 . S
C79 C80 1.390 1_556 S
C80 H74 0.930 . S
C80 C76 1.429 1_554 S
C80 C79 1.390 1_554 S
H81 C84 0.931 . S
H82 C87 0.928 . S
H83 C89 0.930 . S
C84 H81 0.931 . S
C84 C85 1.413 . S
C84 C86 1.360 . S
C85 C84 1.413 . S
C85 C89 1.429 1_556 S
C86 C84 1.360 . S
C86 C87 1.372 . S
C87 H82 0.928 . S
C87 C86 1.372 . S
C87 C88 1.404 . S
C88 C87 1.404 . S
C88 C89 1.390 1_556 S
C89 H83 0.930 . S
C89 C85 1.429 1_554 S
C89 C88 1.390 1_554 S
H90 C93 0.931 . S
H91 C96 0.928 . S
H92 C98 0.930 . S
C93 H90 0.931 . S
C93 C94 1.413 . S
C93 C95 1.360 . S
C94 C93 1.413 . S
C94 C98 1.429 1_556 S
C95 C93 1.360 . S
C95 C96 1.372 . S
C96 H91 0.928 . S
C96 C95 1.372 . S
C96 C97 1.404 . S
C97 C96 1.404 . S
C97 C98 1.390 1_556 S
C98 H92 0.930 . S
C98 C94 1.429 1_554 S
C98 C97 1.390 1_554 S
H99 C102 0.931 . S
H100 C105 0.928 . S
H101 C107 0.930 . S
C102 H99 0.931 . S
C102 C103 1.413 . S
C102 C104 1.360 . S
C103 C102 1.413 . S
C103 C107 1.429 1_554 S
C104 C102 1.360 . S
C104 C105 1.373 . S
C105 H100 0.928 . S
C105 C104 1.373 . S
C105 C106 1.405 . S
C106 C105 1.405 . S
C106 C107 1.390 1_554 S
C107 H101 0.930 . S
C107 C103 1.429 1_556 S
C107 C106 1.390 1_556 S
H108 C111 0.931 . S
H109 C114 0.928 . S
H110 C116 0.930 . S
C111 H108 0.931 . S
C111 C112 1.413 . S
C111 C113 1.360 . S
C112 C111 1.413 . S
C112 C116 1.429 . S
C113 C111 1.360 . S
C113 C114 1.372 . S
C114 H109 0.928 . S
C114 C113 1.372 . S
C114 C115 1.404 . S
C115 C114 1.404 . S
C115 C116 1.391 . S
C116 H110 0.930 . S
C116 C112 1.429 . S
C116 C115 1.391 . S
H117 C120 0.931 . S
H118 C123 0.928 . S
H119 C125 0.930 . S
C120 H117 0.931 . S
C120 C121 1.413 . S
C120 C122 1.360 . S
C121 C120 1.413 . S
C121 C125 1.429 . S
C122 C120 1.360 . S
C122 C123 1.372 . S
C123 H118 0.928 . S
C123 C122 1.372 . S
C123 C124 1.404 . S
C124 C123 1.404 . S
C124 C125 1.391 . S
C125 H119 0.930 . S
C125 C121 1.429 . S
C125 C124 1.391 . S
H126 C129 0.931 . S
H127 C132 0.928 . S
H128 C134 0.930 . S
C129 H126 0.931 . S
C129 C130 1.413 . S
C129 C131 1.360 . S
C130 C129 1.413 . S
C130 C134 1.429 . S
C131 C129 1.360 . S
C131 C132 1.372 . S
C132 H127 0.928 . S
C132 C131 1.372 . S
C132 C133 1.404 . S
C133 C132 1.404 . S
C133 C134 1.391 . S
C134 H128 0.930 . S
C134 C130 1.429 . S
C134 C133 1.391 . S
H135 C138 0.931 . S
H136 C141 0.928 . S
H137 C143 0.930 . S
C138 H135 0.931 . S
C138 C139 1.413 . S
C138 C140 1.360 . S
C139 C138 1.413 . S
C139 C143 1.429 . S
C140 C138 1.360 . S
C140 C141 1.372 . S
C141 H136 0.928 . S
C141 C140 1.372 . S
C141 C142 1.404 . S
C142 C141 1.404 . S
C142 C143 1.391 . S
C143 H137 0.930 . S
C143 C139 1.429 . S
C143 C142 1.391 . S
H144 C147 0.931 . S
H145 C150 0.928 . S
H146 C152 0.930 . S
C147 H144 0.931 . S
C147 C148 1.413 . S
C147 C149 1.360 . S
C148 C147 1.413 . S
C148 C152 1.429 . S
C149 C147 1.360 . S
C149 C150 1.372 . S
C150 H145 0.928 . S
C150 C149 1.372 . S
C150 C151 1.404 . S
C151 C150 1.404 . S
C151 C152 1.391 . S
C152 H146 0.930 . S
C152 C148 1.429 . S
C152 C151 1.391 . S
H153 C156 0.931 . S
H154 C159 0.928 . S
H155 C161 0.930 . S
C156 H153 0.931 . S
C156 C157 1.413 . S
C156 C158 1.360 . S
C157 C156 1.413 . S
C157 C161 1.429 . S
C158 C156 1.360 . S
C158 C159 1.372 . S
C159 H154 0.928 . S
C159 C158 1.372 . S
C159 C160 1.404 . S
C160 C159 1.404 . S
C160 C161 1.391 . S
C161 H155 0.930 . S
C161 C157 1.429 . S
C161 C160 1.391 . S
H162 C165 0.931 . S
H163 C168 0.928 . S
H164 C170 0.930 . S
C165 H162 0.931 . S
C165 C166 1.413 . S
C165 C167 1.360 . S
C166 C165 1.413 . S
C166 C170 1.429 . S
C167 C165 1.360 . S
C167 C168 1.372 . S
C168 H163 0.928 . S
C168 C167 1.372 . S
C168 C169 1.404 . S
C169 C168 1.404 . S
C169 C170 1.391 . S
C170 H164 0.930 . S
C170 C166 1.429 . S
C170 C169 1.391 . S
H171 C174 0.931 . S
H172 C177 0.928 . S
H173 C179 0.930 . S
C174 H171 0.931 . S
C174 C175 1.413 . S
C174 C176 1.360 . S
C175 C174 1.413 . S
C175 C179 1.429 . S
C176 C174 1.360 . S
C176 C177 1.372 . S
C177 H172 0.928 . S
C177 C176 1.372 . S
C177 C178 1.404 . S
C178 C177 1.404 . S
C178 C179 1.391 . S
C179 H173 0.930 . S
C179 C175 1.429 . S
C179 C178 1.391 . S
H180 C183 0.931 . S
H181 C186 0.928 . S
H182 C188 0.930 . S
C183 H180 0.931 . S
C183 C184 1.413 . S
C183 C185 1.360 . S
C184 C183 1.413 . S
C184 C188 1.429 . S
C185 C183 1.360 . S
C185 C186 1.372 . S
C186 H181 0.928 . S
C186 C185 1.372 . S
C186 C187 1.404 . S
C187 C186 1.404 . S
C187 C188 1.391 . S
C188 H182 0.930 . S
C188 C184 1.429 . S
C188 C187 1.391 . S
H189 C192 0.931 . S
H190 C195 0.928 . S
H191 C197 0.930 . S
C192 H189 0.931 . S
C192 C193 1.413 . S
C192 C194 1.360 . S
C193 C192 1.413 . S
C193 C197 1.429 . S
C194 C192 1.360 . S
C194 C195 1.372 . S
C195 H190 0.928 . S
C195 C194 1.372 . S
C195 C196 1.404 . S
C196 C195 1.404 . S
C196 C197 1.391 . S
C197 H191 0.930 . S
C197 C193 1.429 . S
C197 C196 1.391 . S
H198 C201 0.931 . S
H199 C204 0.928 . S
H200 C206 0.930 . S
C201 H198 0.931 . S
C201 C202 1.413 . S
C201 C203 1.360 . S
C202 C201 1.413 . S
C202 C206 1.429 . S
C203 C201 1.360 . S
C203 C204 1.372 . S
C204 H199 0.928 . S
C204 C203 1.372 . S
C204 C205 1.404 . S
C205 C204 1.404 . S
C205 C206 1.391 . S
C206 H200 0.930 . S
C206 C202 1.429 . S
C206 C205 1.391 . S
H207 C210 0.931 . S
H208 C213 0.928 . S
H209 C215 0.930 . S
C210 H207 0.931 . S
C210 C211 1.413 . S
C210 C212 1.360 . S
C211 C210 1.413 . S
C211 C215 1.429 . S
C212 C210 1.360 . S
C212 C213 1.372 . S
C213 H208 0.928 . S
C213 C212 1.372 . S
C213 C214 1.404 . S
C214 C213 1.404 . S
C214 C215 1.391 . S
C215 H209 0.930 . S
C215 C211 1.429 . S
C215 C214 1.391 . S
C216 O242 1.283 . S
C216 O260 1.283 . S
C217 O243 1.283 . S
C217 O258 1.283 . S
C218 O244 1.283 . S
C218 O261 1.283 . S
C219 O245 1.283 . S
C219 O259 1.283 . S
C220 O246 1.283 . S
C220 O255 1.283 . S
C221 O247 1.283 . S
C221 O257 1.283 . S
C222 O248 1.283 . S
C222 O254 1.283 . S
C223 O249 1.283 . S
C223 O256 1.283 . S
C224 O250 1.283 . S
C224 O265 1.283 . S
C225 O251 1.283 . S
C225 O263 1.283 . S
C226 O252 1.283 . S
C226 O264 1.283 . S
C227 O253 1.283 . S
C227 O262 1.283 . S
Eu228 O229 2.362 1_455 S
Eu228 O230 2.378 . S
Eu228 O233 2.362 1_455 S
Eu228 O234 2.378 . S
Eu228 O242 2.363 . S
Eu228 O243 2.363 . S
Eu228 O256 2.377 . S
Eu228 O257 2.349 1_455 S
O229 Eu228 2.362 1_655 S
O229 Eu231 2.366 1_565 S
O229 Eu236 2.357 1_665 S
O230 Eu228 2.378 . S
O230 Eu232 2.366 1_565 S
O230 Eu235 2.374 1_565 S
Eu231 O229 2.366 1_545 S
Eu231 O233 2.366 1_545 S
Eu231 O237 2.374 . S
Eu231 O238 2.374 . S
Eu231 O246 2.370 . S
Eu231 O247 2.356 1_545 S
Eu231 O262 2.363 . S
Eu231 O263 2.363 . S
Eu232 O230 2.366 1_545 S
Eu232 O234 2.366 1_545 S
Eu232 O239 2.374 . S
Eu232 O240 2.374 . S
Eu232 O248 2.370 . S
Eu232 O249 2.356 1_545 S
Eu232 O264 2.363 . S
Eu232 O265 2.363 . S
O233 Eu228 2.362 1_655 S
O233 Eu231 2.366 1_565 S
O233 Eu235 2.357 1_665 S
O234 Eu228 2.378 . S
O234 Eu232 2.366 1_565 S
O234 Eu236 2.374 1_565 S
Eu235 O230 2.374 1_545 S
Eu235 O233 2.357 1_445 S
Eu235 O237 2.366 1_455 S
Eu235 O240 2.383 . S
Eu235 O252 2.377 . S
Eu235 O253 2.349 1_455 S
Eu235 O260 2.356 1_545 S
Eu235 O261 2.370 . S
Eu236 O229 2.357 1_445 S
Eu236 O234 2.374 1_545 S
Eu236 O238 2.366 1_455 S
Eu236 O239 2.383 . S
Eu236 O250 2.377 . S
Eu236 O251 2.349 1_455 S
Eu236 O258 2.356 1_545 S
Eu236 O259 2.370 . S
O237 Eu231 2.374 . S
O237 Eu235 2.366 1_655 S
O237 Eu241 2.362 1_655 S
O238 Eu231 2.374 . S
O238 Eu236 2.366 1_655 S
O238 Eu241 2.362 1_655 S
O239 Eu232 2.374 . S
O239 Eu236 2.383 . S
O239 Eu241 2.378 . S
O240 Eu232 2.374 . S
O240 Eu235 2.383 . S
O240 Eu241 2.378 . S
Eu241 O237 2.362 1_455 S
Eu241 O238 2.362 1_455 S
Eu241 O239 2.378 . S
Eu241 O240 2.378 . S
Eu241 O244 2.363 . S
Eu241 O245 2.363 . S
Eu241 O254 2.377 . S
Eu241 O255 2.349 1_455 S
O242 C216 1.283 . S
O242 Eu228 2.363 . S
O243 C217 1.283 . S
O243 Eu228 2.363 . S
O244 C218 1.283 . S
O244 Eu241 2.363 . S
O245 C219 1.283 . S
O245 Eu241 2.363 . S
O246 C220 1.283 . S
O246 Eu231 2.370 . S
O247 C221 1.283 . S
O247 Eu231 2.356 1_565 S
O248 C222 1.283 . S
O248 Eu232 2.370 . S
O249 C223 1.283 . S
O249 Eu232 2.356 1_565 S
O250 C224 1.283 . S
O250 Eu236 2.377 . S
O251 C225 1.283 . S
O251 Eu236 2.349 1_655 S
O252 C226 1.283 . S
O252 Eu235 2.377 . S
O253 C227 1.283 . S
O253 Eu235 2.349 1_655 S
O254 C222 1.283 . S
O254 Eu241 2.377 . S
O255 C220 1.283 . S
O255 Eu241 2.349 1_655 S
O256 C223 1.283 . S
O256 Eu228 2.377 . S
O257 C221 1.283 . S
O257 Eu228 2.349 1_655 S
O258 C217 1.283 . S
O258 Eu236 2.356 1_565 S
O259 C219 1.283 . S
O259 Eu236 2.370 . S
O260 C216 1.283 . S
O260 Eu235 2.356 1_565 S
O261 C218 1.283 . S
O261 Eu235 2.370 . S
O262 C227 1.283 . S
O262 Eu231 2.363 . S
O263 C225 1.283 . S
O263 Eu231 2.363 . S
O264 C226 1.283 . S
O264 Eu232 2.363 . S
O265 C224 1.283 . S
O265 Eu232 2.363 . S
C266 O292 1.283 . S
C266 O310 1.283 . S
C267 O293 1.283 . S
C267 O308 1.283 . S
C268 O294 1.283 . S
C268 O311 1.283 . S
C269 O295 1.283 . S
C269 O309 1.283 . S
C270 O296 1.283 . S
C270 O305 1.283 . S
C271 O297 1.283 . S
C271 O307 1.283 . S
C272 O298 1.283 . S
C272 O304 1.283 . S
C273 O299 1.283 . S
C273 O306 1.283 . S
C274 O300 1.283 . S
C274 O315 1.283 . S
C275 O301 1.283 . S
C275 O313 1.283 . S
C276 O302 1.283 . S
C276 O314 1.283 . S
C277 O303 1.283 . S
C277 O312 1.283 . S
Eu278 O279 2.371 . S
Eu278 O280 2.369 1_545 S
Eu278 O283 2.369 1_545 S
Eu278 O284 2.371 . S
Eu278 O292 2.361 1_545 S
Eu278 O293 2.365 . S
Eu278 O306 2.363 . S
Eu278 O307 2.363 . S
O279 Eu278 2.371 . S
O279 Eu281 2.374 . S
O279 Eu286 2.373 . S
O280 Eu278 2.369 1_565 S
O280 Eu282 2.372 1_565 S
O280 Eu285 2.373 . S
Eu281 O279 2.374 . S
Eu281 O283 2.372 1_545 S
Eu281 O287 2.366 1_544 S
Eu281 O288 2.369 1_554 S
Eu281 O296 2.359 1_554 S
Eu281 O297 2.367 . S
Eu281 O312 2.361 1_545 S
Eu281 O313 2.365 . S
Eu282 O280 2.372 1_545 S
Eu282 O284 2.374 . S
Eu282 O289 2.369 1_554 S
Eu282 O290 2.366 1_544 S
Eu282 O298 2.359 1_554 S
Eu282 O299 2.367 . S
Eu282 O314 2.361 1_545 S
Eu282 O315 2.365 . S
O283 Eu278 2.369 1_565 S
O283 Eu281 2.372 1_565 S
O283 Eu285 2.373 . S
O284 Eu278 2.371 . S
O284 Eu282 2.374 . S
O284 Eu286 2.373 . S
Eu285 O280 2.373 . S
Eu285 O283 2.373 . S
Eu285 O287 2.367 1_554 S
Eu285 O290 2.367 1_554 S
Eu285 O302 2.363 . S
Eu285 O303 2.363 . S
Eu285 O310 2.367 . S
Eu285 O311 2.359 1_554 S
Eu286 O279 2.373 . S
Eu286 O284 2.373 . S
Eu286 O288 2.368 1_554 S
Eu286 O289 2.368 1_554 S
Eu286 O300 2.363 . S
Eu286 O301 2.363 . S
Eu286 O308 2.367 . S
Eu286 O309 2.359 1_554 S
O287 Eu281 2.366 1_566 S
O287 Eu285 2.367 1_556 S
O287 Eu291 2.369 1_565 S
O288 Eu281 2.369 1_556 S
O288 Eu286 2.368 1_556 S
O288 Eu291 2.371 . S
O289 Eu282 2.369 1_556 S
O289 Eu286 2.368 1_556 S
O289 Eu291 2.371 . S
O290 Eu282 2.366 1_566 S
O290 Eu285 2.367 1_556 S
O290 Eu291 2.369 1_565 S
Eu291 O287 2.369 1_545 S
Eu291 O288 2.371 . S
Eu291 O289 2.371 . S
Eu291 O290 2.369 1_545 S
Eu291 O294 2.361 1_545 S
Eu291 O295 2.365 . S
Eu291 O304 2.363 . S
Eu291 O305 2.363 . S
O292 C266 1.283 . S
O292 Eu278 2.361 1_565 S
O293 C267 1.283 . S
O293 Eu278 2.365 . S
O294 C268 1.283 . S
O294 Eu291 2.361 1_565 S
O295 C269 1.283 . S
O295 Eu291 2.365 . S
O296 C270 1.283 . S
O296 Eu281 2.359 1_556 S
O297 C271 1.283 . S
O297 Eu281 2.367 . S
O298 C272 1.283 . S
O298 Eu282 2.359 1_556 S
O299 C273 1.283 . S
O299 Eu282 2.367 . S
O300 C274 1.283 . S
O300 Eu286 2.363 . S
O301 C275 1.283 . S
O301 Eu286 2.363 . S
O302 C276 1.283 . S
O302 Eu285 2.363 . S
O303 C277 1.283 . S
O303 Eu285 2.363 . S
O304 C272 1.283 . S
O304 Eu291 2.363 . S
O305 C270 1.283 . S
O305 Eu291 2.363 . S
O306 C273 1.283 . S
O306 Eu278 2.363 . S
O307 C271 1.283 . S
O307 Eu278 2.363 . S
O308 C267 1.283 . S
O308 Eu286 2.367 . S
O309 C269 1.283 . S
O309 Eu286 2.359 1_556 S
O310 C266 1.283 . S
O310 Eu285 2.367 . S
O311 C268 1.283 . S
O311 Eu285 2.359 1_556 S
O312 C277 1.283 . S
O312 Eu281 2.361 1_565 S
O313 C275 1.283 . S
O313 Eu281 2.365 . S
O314 C276 1.283 . S
O314 Eu282 2.361 1_565 S
O315 C274 1.283 . S
O315 Eu282 2.365 . S
C316 O342 1.283 . S
C316 O360 1.283 . S
C317 O343 1.283 . S
C317 O358 1.283 . S
C318 O344 1.283 . S
C318 O361 1.283 . S
C319 O345 1.283 . S
C319 O359 1.283 . S
C320 O346 1.283 . S
C320 O355 1.283 . S
C321 O347 1.283 . S
C321 O357 1.283 . S
C322 O348 1.283 . S
C322 O354 1.283 . S
C323 O349 1.283 . S
C323 O356 1.283 . S
C324 O350 1.283 . S
C324 O365 1.283 . S
C325 O351 1.283 . S
C325 O363 1.283 . S
C326 O352 1.283 . S
C326 O364 1.283 . S
C327 O353 1.283 . S
C327 O362 1.283 . S
Eu328 O329 2.368 1_454 S
Eu328 O330 2.372 . S
Eu328 O333 2.368 1_455 S
Eu328 O334 2.372 1_554 S
Eu328 O342 2.363 . S
Eu328 O343 2.363 1_554 S
Eu328 O356 2.366 . S
Eu328 O357 2.360 1_455 S
O329 Eu328 2.368 1_656 S
O329 Eu331 2.370 1_556 S
O329 Eu336 2.368 1_655 S
O330 Eu328 2.372 . S
O330 Eu332 2.370 . S
O330 Eu335 2.372 . S
Eu331 O329 2.370 1_554 S
Eu331 O333 2.370 . S
Eu331 O337 2.370 . S
Eu331 O338 2.370 1_554 S
Eu331 O346 2.363 . S
Eu331 O347 2.363 . S
Eu331 O362 2.363 . S
Eu331 O363 2.363 1_554 S
Eu332 O330 2.370 . S
Eu332 O334 2.370 1_554 S
Eu332 O339 2.370 1_554 S
Eu332 O340 2.370 . S
Eu332 O348 2.363 . S
Eu332 O349 2.363 . S
Eu332 O364 2.363 . S
Eu332 O365 2.363 1_554 S
O333 Eu328 2.368 1_655 S
O333 Eu331 2.370 . S
O333 Eu335 2.368 1_655 S
O334 Eu328 2.372 1_556 S
O334 Eu332 2.370 1_556 S
O334 Eu336 2.372 . S
Eu335 O330 2.372 . S
Eu335 O333 2.368 1_455 S
Eu335 O337 2.368 1_455 S
Eu335 O340 2.372 . S
Eu335 O352 2.366 . S
Eu335 O353 2.360 1_455 S
Eu335 O360 2.363 . S
Eu335 O361 2.363 . S
Eu336 O329 2.368 1_455 S
Eu336 O334 2.372 . S
Eu336 O338 2.368 1_455 S
Eu336 O339 2.372 . S
Eu336 O350 2.366 . S
Eu336 O351 2.360 1_455 S
Eu336 O358 2.363 . S
Eu336 O359 2.363 . S
O337 Eu331 2.370 . S
O337 Eu335 2.368 1_655 S
O337 Eu341 2.368 1_655 S
O338 Eu331 2.370 1_556 S
O338 Eu336 2.368 1_655 S
O338 Eu341 2.368 1_656 S
O339 Eu332 2.370 1_556 S
O339 Eu336 2.372 . S
O339 Eu341 2.372 1_556 S
O340 Eu332 2.370 . S
O340 Eu335 2.372 . S
O340 Eu341 2.372 . S
Eu341 O337 2.368 1_455 S
Eu341 O338 2.368 1_454 S
Eu341 O339 2.372 1_554 S
Eu341 O340 2.372 . S
Eu341 O344 2.363 . S
Eu341 O345 2.363 1_554 S
Eu341 O354 2.366 . S
Eu341 O355 2.360 1_455 S
O342 C316 1.283 . S
O342 Eu328 2.363 . S
O343 C317 1.283 . S
O343 Eu328 2.363 1_556 S
O344 C318 1.283 . S
O344 Eu341 2.363 . S
O345 C319 1.283 . S
O345 Eu341 2.363 1_556 S
O346 C320 1.283 . S
O346 Eu331 2.363 . S
O347 C321 1.283 . S
O347 Eu331 2.363 . S
O348 C322 1.283 . S
O348 Eu332 2.363 . S
O349 C323 1.283 . S
O349 Eu332 2.363 . S
O350 C324 1.283 . S
O350 Eu336 2.366 . S
O351 C325 1.283 . S
O351 Eu336 2.360 1_655 S
O352 C326 1.283 . S
O352 Eu335 2.366 . S
O353 C327 1.283 . S
O353 Eu335 2.360 1_655 S
O354 C322 1.283 . S
O354 Eu341 2.366 . S
O355 C320 1.283 . S
O355 Eu341 2.360 1_655 S
O356 C323 1.283 . S
O356 Eu328 2.366 . S
O357 C321 1.283 . S
O357 Eu328 2.360 1_655 S
O358 C317 1.283 . S
O358 Eu336 2.363 . S
O359 C319 1.283 . S
O359 Eu336 2.363 . S
O360 C316 1.283 . S
O360 Eu335 2.363 . S
O361 C318 1.283 . S
O361 Eu335 2.363 . S
O362 C327 1.283 . S
O362 Eu331 2.363 . S
O363 C325 1.283 . S
O363 Eu331 2.363 1_556 S
O364 C326 1.283 . S
O364 Eu332 2.363 . S
O365 C324 1.283 . S
O365 Eu332 2.363 1_556 S
C366 O392 1.283 . S
C366 O410 1.283 . S
C367 O393 1.283 . S
C367 O408 1.283 . S
C368 O394 1.283 . S
C368 O411 1.283 . S
C369 O395 1.283 . S
C369 O409 1.283 . S
C370 O396 1.283 . S
C370 O405 1.283 . S
C371 O397 1.283 . S
C371 O407 1.283 . S
C372 O398 1.283 . S
C372 O404 1.283 . S
C373 O399 1.283 . S
C373 O406 1.283 . S
C374 O400 1.283 . S
C374 O415 1.283 . S
C375 O401 1.283 . S
C375 O413 1.283 . S
C376 O402 1.283 . S
C376 O414 1.283 . S
C377 O403 1.283 . S
C377 O412 1.283 . S
Eu378 O379 2.370 . S
Eu378 O380 2.370 . S
Eu378 O383 2.370 . S
Eu378 O384 2.370 . S
Eu378 O392 2.363 . S
Eu378 O393 2.363 . S
Eu378 O406 2.363 . S
Eu378 O407 2.363 . S
O379 Eu378 2.370 . S
O379 Eu381 2.373 . S
O379 Eu386 2.373 . S
O380 Eu378 2.370 . S
O380 Eu382 2.373 . S
O380 Eu385 2.373 . S
Eu381 O379 2.373 . S
Eu381 O383 2.373 . S
Eu381 O387 2.367 1_554 S
Eu381 O388 2.367 1_554 S
Eu381 O396 2.358 1_554 S
Eu381 O397 2.368 . S
Eu381 O412 2.363 . S
Eu381 O413 2.363 . S
Eu382 O380 2.373 . S
Eu382 O384 2.373 . S
Eu382 O389 2.367 1_554 S
Eu382 O390 2.367 1_554 S
Eu382 O398 2.358 1_554 S
Eu382 O399 2.368 . S
Eu382 O414 2.363 . S
Eu382 O415 2.363 . S
O383 Eu378 2.370 . S
O383 Eu381 2.373 . S
O383 Eu385 2.373 . S
O384 Eu378 2.370 . S
O384 Eu382 2.373 . S
O384 Eu386 2.373 . S
Eu385 O380 2.373 . S
Eu385 O383 2.373 . S
Eu385 O387 2.367 1_554 S
Eu385 O390 2.367 1_554 S
Eu385 O402 2.363 . S
Eu385 O403 2.363 . S
Eu385 O410 2.368 . S
Eu385 O411 2.358 1_554 S
Eu386 O379 2.373 . S
Eu386 O384 2.373 . S
Eu386 O388 2.367 1_554 S
Eu386 O389 2.367 1_554 S
Eu386 O400 2.363 . S
Eu386 O401 2.363 . S
Eu386 O408 2.368 . S
Eu386 O409 2.358 1_554 S
O387 Eu381 2.367 1_556 S
O387 Eu385 2.367 1_556 S
O387 Eu391 2.370 . S
O388 Eu381 2.367 1_556 S
O388 Eu386 2.367 1_556 S
O388 Eu391 2.370 . S
O389 Eu382 2.367 1_556 S
O389 Eu386 2.367 1_556 S
O389 Eu391 2.370 . S
O390 Eu382 2.367 1_556 S
O390 Eu385 2.367 1_556 S
O390 Eu391 2.370 . S
Eu391 O387 2.370 . S
Eu391 O388 2.370 . S
Eu391 O389 2.370 . S
Eu391 O390 2.370 . S
Eu391 O394 2.363 . S
Eu391 O395 2.363 . S
Eu391 O404 2.363 . S
Eu391 O405 2.363 . S
O392 C366 1.283 . S
O392 Eu378 2.363 . S
O393 C367 1.283 . S
O393 Eu378 2.363 . S
O394 C368 1.283 . S
O394 Eu391 2.363 . S
O395 C369 1.283 . S
O395 Eu391 2.363 . S
O396 C370 1.283 . S
O396 Eu381 2.358 1_556 S
O397 C371 1.283 . S
O397 Eu381 2.368 . S
O398 C372 1.283 . S
O398 Eu382 2.358 1_556 S
O399 C373 1.283 . S
O399 Eu382 2.368 . S
O400 C374 1.283 . S
O400 Eu386 2.363 . S
O401 C375 1.283 . S
O401 Eu386 2.363 . S
O402 C376 1.283 . S
O402 Eu385 2.363 . S
O403 C377 1.283 . S
O403 Eu385 2.363 . S
O404 C372 1.283 . S
O404 Eu391 2.363 . S
O405 C370 1.283 . S
O405 Eu391 2.363 . S
O406 C373 1.283 . S
O406 Eu378 2.363 . S
O407 C371 1.283 . S
O407 Eu378 2.363 . S
O408 C367 1.283 . S
O408 Eu386 2.368 . S
O409 C369 1.283 . S
O409 Eu386 2.358 1_556 S
O410 C366 1.283 . S
O410 Eu385 2.368 . S
O411 C368 1.283 . S
O411 Eu385 2.358 1_556 S
O412 C377 1.283 . S
O412 Eu381 2.363 . S
O413 C375 1.283 . S
O413 Eu381 2.363 . S
O414 C376 1.283 . S
O414 Eu382 2.363 . S
O415 C374 1.283 . S
O415 Eu382 2.363 . S
C416 O442 1.283 . S
C416 O460 1.283 . S
C417 O443 1.283 . S
C417 O458 1.283 . S
C418 O444 1.283 . S
C418 O461 1.283 . S
C419 O445 1.283 . S
C419 O459 1.283 . S
C420 O446 1.283 . S
C420 O455 1.283 . S
C421 O447 1.283 . S
C421 O457 1.283 . S
C422 O448 1.283 . S
C422 O454 1.283 . S
C423 O449 1.283 . S
C423 O456 1.283 . S
C424 O450 1.283 . S
C424 O465 1.283 . S
C425 O451 1.283 . S
C425 O463 1.283 . S
C426 O452 1.283 . S
C426 O464 1.283 . S
C427 O453 1.283 . S
C427 O462 1.283 . S
Eu428 O429 2.365 1_455 S
Eu428 O430 2.375 . S
Eu428 O433 2.365 1_455 S
Eu428 O434 2.375 . S
Eu428 O442 2.363 . S
Eu428 O443 2.363 . S
Eu428 O456 2.371 . S
Eu428 O457 2.354 1_455 S
O429 Eu428 2.365 1_655 S
O429 Eu431 2.370 . S
O429 Eu436 2.365 1_655 S
O430 Eu428 2.375 . S
O430 Eu432 2.370 . S
O430 Eu435 2.375 . S
Eu431 O429 2.370 . S
Eu431 O433 2.370 . S
Eu431 O437 2.370 . S
Eu431 O438 2.370 . S
Eu431 O446 2.363 . S
Eu431 O447 2.363 . S
Eu431 O462 2.363 . S
Eu431 O463 2.363 . S
Eu432 O430 2.370 . S
Eu432 O434 2.370 . S
Eu432 O439 2.370 . S
Eu432 O440 2.370 . S
Eu432 O448 2.363 . S
Eu432 O449 2.363 . S
Eu432 O464 2.363 . S
Eu432 O465 2.363 . S
O433 Eu428 2.365 1_655 S
O433 Eu431 2.370 . S
O433 Eu435 2.365 1_655 S
O434 Eu428 2.375 . S
O434 Eu432 2.370 . S
O434 Eu436 2.375 . S
Eu435 O430 2.375 . S
Eu435 O433 2.365 1_455 S
Eu435 O437 2.365 1_455 S
Eu435 O440 2.375 . S
Eu435 O452 2.371 . S
Eu435 O453 2.354 1_455 S
Eu435 O460 2.363 . S
Eu435 O461 2.363 . S
Eu436 O429 2.365 1_455 S
Eu436 O434 2.375 . S
Eu436 O438 2.365 1_455 S
Eu436 O439 2.375 . S
Eu436 O450 2.371 . S
Eu436 O451 2.354 1_455 S
Eu436 O458 2.363 . S
Eu436 O459 2.363 . S
O437 Eu431 2.370 . S
O437 Eu435 2.365 1_655 S
O437 Eu441 2.365 1_655 S
O438 Eu431 2.370 . S
O438 Eu436 2.365 1_655 S
O438 Eu441 2.365 1_655 S
O439 Eu432 2.370 . S
O439 Eu436 2.375 . S
O439 Eu441 2.375 . S
O440 Eu432 2.370 . S
O440 Eu435 2.375 . S
O440 Eu441 2.375 . S
Eu441 O437 2.365 1_455 S
Eu441 O438 2.365 1_455 S
Eu441 O439 2.375 . S
Eu441 O440 2.375 . S
Eu441 O444 2.363 . S
Eu441 O445 2.363 . S
Eu441 O454 2.371 . S
Eu441 O455 2.354 1_455 S
O442 C416 1.283 . S
O442 Eu428 2.363 . S
O443 C417 1.283 . S
O443 Eu428 2.363 . S
O444 C418 1.283 . S
O444 Eu441 2.363 . S
O445 C419 1.283 . S
O445 Eu441 2.363 . S
O446 C420 1.283 . S
O446 Eu431 2.363 . S
O447 C421 1.283 . S
O447 Eu431 2.363 . S
O448 C422 1.283 . S
O448 Eu432 2.363 . S
O449 C423 1.283 . S
O449 Eu432 2.363 . S
O450 C424 1.283 . S
O450 Eu436 2.371 . S
O451 C425 1.283 . S
O451 Eu436 2.354 1_655 S
O452 C426 1.283 . S
O452 Eu435 2.371 . S
O453 C427 1.283 . S
O453 Eu435 2.354 1_655 S
O454 C422 1.283 . S
O454 Eu441 2.371 . S
O455 C420 1.283 . S
O455 Eu441 2.354 1_655 S
O456 C423 1.283 . S
O456 Eu428 2.371 . S
O457 C421 1.283 . S
O457 Eu428 2.354 1_655 S
O458 C417 1.283 . S
O458 Eu436 2.363 . S
O459 C419 1.283 . S
O459 Eu436 2.363 . S
O460 C416 1.283 . S
O460 Eu435 2.363 . S
O461 C418 1.283 . S
O461 Eu435 2.363 . S
O462 C427 1.283 . S
O462 Eu431 2.363 . S
O463 C425 1.283 . S
O463 Eu431 2.363 . S
O464 C426 1.283 . S
O464 Eu432 2.363 . S
O465 C424 1.283 . S
O465 Eu432 2.363 . S
C466 O492 1.283 . S
C466 O510 1.283 . S
C467 O493 1.283 . S
C467 O508 1.283 . S
C468 O494 1.283 . S
C468 O511 1.283 . S
C469 O495 1.283 . S
C469 O509 1.283 . S
C470 O496 1.283 . S
C470 O505 1.283 . S
C471 O497 1.283 . S
C471 O507 1.283 . S
C472 O498 1.283 . S
C472 O504 1.283 . S
C473 O499 1.283 . S
C473 O506 1.283 . S
C474 O500 1.283 . S
C474 O515 1.283 . S
C475 O501 1.283 . S
C475 O513 1.283 . S
C476 O502 1.283 . S
C476 O514 1.283 . S
C477 O503 1.283 . S
C477 O512 1.283 . S
Eu478 O479 2.370 . S
Eu478 O480 2.370 . S
Eu478 O483 2.370 . S
Eu478 O484 2.370 . S
Eu478 O492 2.363 . S
Eu478 O493 2.363 . S
Eu478 O506 2.363 . S
Eu478 O507 2.363 . S
O479 Eu478 2.370 . S
O479 Eu481 2.365 1_565 S
O479 Eu486 2.365 1_565 S
O480 Eu478 2.370 . S
O480 Eu482 2.365 1_565 S
O480 Eu485 2.365 1_565 S
Eu481 O479 2.365 1_545 S
Eu481 O483 2.365 1_545 S
Eu481 O487 2.375 . S
Eu481 O488 2.375 . S
Eu481 O496 2.371 . S
Eu481 O497 2.355 1_545 S
Eu481 O512 2.363 . S
Eu481 O513 2.363 . S
Eu482 O480 2.365 1_545 S
Eu482 O484 2.365 1_545 S
Eu482 O489 2.375 . S
Eu482 O490 2.375 . S
Eu482 O498 2.371 . S
Eu482 O499 2.355 1_545 S
Eu482 O514 2.363 . S
Eu482 O515 2.363 . S
O483 Eu478 2.370 . S
O483 Eu481 2.365 1_565 S
O483 Eu485 2.365 1_565 S
O484 Eu478 2.370 . S
O484 Eu482 2.365 1_565 S
O484 Eu486 2.365 1_565 S
Eu485 O480 2.365 1_545 S
Eu485 O483 2.365 1_545 S
Eu485 O487 2.375 . S
Eu485 O490 2.375 . S
Eu485 O502 2.363 . S
Eu485 O503 2.363 . S
Eu485 O510 2.355 1_545 S
Eu485 O511 2.371 . S
Eu486 O479 2.365 1_545 S
Eu486 O484 2.365 1_545 S
Eu486 O488 2.375 . S
Eu486 O489 2.375 . S
Eu486 O500 2.363 . S
Eu486 O501 2.363 . S
Eu486 O508 2.355 1_545 S
Eu486 O509 2.371 . S
O487 Eu481 2.375 . S
O487 Eu485 2.375 . S
O487 Eu491 2.370 . S
O488 Eu481 2.375 . S
O488 Eu486 2.375 . S
O488 Eu491 2.370 . S
O489 Eu482 2.375 . S
O489 Eu486 2.375 . S
O489 Eu491 2.370 . S
O490 Eu482 2.375 . S
O490 Eu485 2.375 . S
O490 Eu491 2.370 . S
Eu491 O487 2.370 . S
Eu491 O488 2.370 . S
Eu491 O489 2.370 . S
Eu491 O490 2.370 . S
Eu491 O494 2.363 . S
Eu491 O495 2.363 . S
Eu491 O504 2.363 . S
Eu491 O505 2.363 . S
O492 C466 1.283 . S
O492 Eu478 2.363 . S
O493 C467 1.283 . S
O493 Eu478 2.363 . S
O494 C468 1.283 . S
O494 Eu491 2.363 . S
O495 C469 1.283 . S
O495 Eu491 2.363 . S
O496 C470 1.283 . S
O496 Eu481 2.371 . S
O497 C471 1.283 . S
O497 Eu481 2.355 1_565 S
O498 C472 1.283 . S
O498 Eu482 2.371 . S
O499 C473 1.283 . S
O499 Eu482 2.355 1_565 S
O500 C474 1.283 . S
O500 Eu486 2.363 . S
O501 C475 1.283 . S
O501 Eu486 2.363 . S
O502 C476 1.283 . S
O502 Eu485 2.363 . S
O503 C477 1.283 . S
O503 Eu485 2.363 . S
O504 C472 1.283 . S
O504 Eu491 2.363 . S
O505 C470 1.283 . S
O505 Eu491 2.363 . S
O506 C473 1.283 . S
O506 Eu478 2.363 . S
O507 C471 1.283 . S
O507 Eu478 2.363 . S
O508 C467 1.283 . S
O508 Eu486 2.355 1_565 S
O509 C469 1.283 . S
O509 Eu486 2.371 . S
O510 C466 1.283 . S
O510 Eu485 2.355 1_565 S
O511 C468 1.283 . S
O511 Eu485 2.371 . S
O512 C477 1.283 . S
O512 Eu481 2.363 . S
O513 C475 1.283 . S
O513 Eu481 2.363 . S
O514 C476 1.283 . S
O514 Eu482 2.363 . S
O515 C474 1.283 . S
O515 Eu482 2.363 . S
H516 C522 0.930 . S
H517 C526 0.930 . S
H518 C531 0.929 . S
H519 C529 0.929 . S
H520 C524 0.929 . S
H521 C530 0.929 . S
C522 H516 0.930 . S
C522 C523 1.367 . S
C522 C530 1.378 . S
C523 C522 1.367 . S
C523 C531 1.433 . S
C524 H520 0.929 . S
C524 C526 1.378 . S
C524 C528 1.350 . S
C525 C528 1.463 . S
C525 C530 1.350 . S
C525 N533 1.427 . S
C526 H517 0.930 . S
C526 C524 1.378 . S
C526 C527 1.367 . S
C527 C526 1.367 . S
C527 C529 1.433 . S
C528 C524 1.350 . S
C528 C525 1.463 . S
C528 N532 1.427 . S
C529 H519 0.929 . S
C529 C527 1.433 . S
C529 N532 1.384 . S
C530 H521 0.929 . S
C530 C522 1.378 . S
C530 C525 1.350 . S
C531 H518 0.929 . S
C531 C523 1.433 . S
C531 N533 1.384 . S
N532 C528 1.427 . S
N532 C529 1.384 . S
N533 C525 1.427 . S
N533 C531 1.384 . S
H534 C540 0.930 . S
H535 C544 0.930 . S
H536 C549 0.929 . S
H537 C547 0.929 . S
H538 C542 0.929 . S
H539 C548 0.929 . S
C540 H534 0.930 . S
C540 C541 1.367 . S
C540 C548 1.378 . S
C541 C540 1.367 . S
C541 C549 1.433 . S
C542 H538 0.929 . S
C542 C544 1.378 . S
C542 C546 1.350 . S
C543 C546 1.463 . S
C543 C548 1.350 . S
C543 N551 1.427 . S
C544 H535 0.930 . S
C544 C542 1.378 . S
C544 C545 1.367 . S
C545 C544 1.367 . S
C545 C547 1.433 . S
C546 C542 1.350 . S
C546 C543 1.463 . S
C546 N550 1.427 . S
C547 H537 0.929 . S
C547 C545 1.433 . S
C547 N550 1.384 . S
C548 H539 0.929 . S
C548 C540 1.378 . S
C548 C543 1.350 . S
C549 H536 0.929 . S
C549 C541 1.433 . S
C549 N551 1.384 . S
N550 C546 1.427 . S
N550 C547 1.384 . S
N551 C543 1.427 . S
N551 C549 1.384 . S
H552 C558 0.930 . S
H553 C562 0.930 . S
H554 C567 0.929 . S
H555 C565 0.929 . S
H556 C560 0.929 . S
H557 C566 0.929 . S
C558 H552 0.930 . S
C558 C559 1.367 . S
C558 C566 1.378 . S
C559 C558 1.367 . S
C559 C567 1.433 . S
C560 H556 0.929 . S
C560 C562 1.378 . S
C560 C564 1.350 . S
C561 C564 1.463 . S
C561 C566 1.350 . S
C561 N569 1.427 . S
C562 H553 0.930 . S
C562 C560 1.378 . S
C562 C563 1.367 . S
C563 C562 1.367 . S
C563 C565 1.433 . S
C564 C560 1.350 . S
C564 C561 1.463 . S
C564 N568 1.427 . S
C565 H555 0.929 . S
C565 C563 1.433 . S
C565 N568 1.384 . S
C566 H557 0.929 . S
C566 C558 1.378 . S
C566 C561 1.350 . S
C567 H554 0.929 . S
C567 C559 1.433 . S
C567 N569 1.384 . S
N568 C564 1.427 . S
N568 C565 1.384 . S
N569 C561 1.427 . S
N569 C567 1.384 . S
H570 C576 0.930 . S
H571 C580 0.930 . S
H572 C585 0.929 . S
H573 C583 0.929 . S
H574 C578 0.929 . S
H575 C584 0.929 . S
C576 H570 0.930 . S
C576 C577 1.367 . S
C576 C584 1.378 . S
C577 C576 1.367 . S
C577 C585 1.433 . S
C578 H574 0.929 . S
C578 C580 1.378 . S
C578 C582 1.350 . S
C579 C582 1.463 . S
C579 C584 1.350 . S
C579 N587 1.427 . S
C580 H571 0.930 . S
C580 C578 1.378 . S
C580 C581 1.367 . S
C581 C580 1.367 . S
C581 C583 1.433 . S
C582 C578 1.350 . S
C582 C579 1.463 . S
C582 N586 1.427 . S
C583 H573 0.929 . S
C583 C581 1.433 . S
C583 N586 1.384 . S
C584 H575 0.929 . S
C584 C576 1.378 . S
C584 C579 1.350 . S
C585 H572 0.929 . S
C585 C577 1.433 . S
C585 N587 1.384 . S
N586 C582 1.427 . S
N586 C583 1.384 . S
N587 C579 1.427 . S
N587 C585 1.384 . S
H588 C594 0.930 . S
H589 C598 0.930 . S
H590 C603 0.929 . S
H591 C601 0.929 . S
H592 C596 0.929 . S
H593 C602 0.929 . S
C594 H588 0.930 . S
C594 C595 1.367 . S
C594 C602 1.378 . S
C595 C594 1.367 . S
C595 C603 1.433 . S
C596 H592 0.929 . S
C596 C598 1.378 . S
C596 C600 1.350 . S
C597 C600 1.463 . S
C597 C602 1.350 . S
C597 N605 1.427 . S
C598 H589 0.930 . S
C598 C596 1.378 . S
C598 C599 1.367 . S
C599 C598 1.367 . S
C599 C601 1.433 . S
C600 C596 1.350 . S
C600 C597 1.463 . S
C600 N604 1.427 . S
C601 H591 0.929 . S
C601 C599 1.433 . S
C601 N604 1.384 . S
C602 H593 0.929 . S
C602 C594 1.378 . S
C602 C597 1.350 . S
C603 H590 0.929 . S
C603 C595 1.433 . S
C603 N605 1.384 . S
N604 C600 1.427 . S
N604 C601 1.384 . S
N605 C597 1.427 . S
N605 C603 1.384 . S
H606 C612 0.930 . S
H607 C616 0.930 . S
H608 C621 0.929 . S
H609 C619 0.929 . S
H610 C614 0.929 . S
H611 C620 0.929 . S
C612 H606 0.930 . S
C612 C613 1.367 . S
C612 C620 1.378 . S
C613 C612 1.367 . S
C613 C621 1.433 . S
C614 H610 0.929 . S
C614 C616 1.378 . S
C614 C618 1.350 . S
C615 C618 1.463 . S
C615 C620 1.350 . S
C615 N623 1.427 . S
C616 H607 0.930 . S
C616 C614 1.378 . S
C616 C617 1.367 . S
C617 C616 1.367 . S
C617 C619 1.433 . S
C618 C614 1.350 . S
C618 C615 1.463 . S
C618 N622 1.427 . S
C619 H609 0.929 . S
C619 C617 1.433 . S
C619 N622 1.384 . S
C620 H611 0.929 . S
C620 C612 1.378 . S
C620 C615 1.350 . S
C621 H608 0.929 . S
C621 C613 1.433 . S
C621 N623 1.384 . S
N622 C618 1.427 . S
N622 C619 1.384 . S
N623 C615 1.427 . S
N623 C621 1.384 . S
H624 C630 0.930 . S
H625 C634 0.930 . S
H626 C639 0.929 . S
H627 C637 0.929 . S
H628 C632 0.929 . S
H629 C638 0.929 . S
C630 H624 0.930 . S
C630 C631 1.367 . S
C630 C638 1.378 . S
C631 C630 1.367 . S
C631 C639 1.433 . S
C632 H628 0.929 . S
C632 C634 1.378 . S
C632 C636 1.350 . S
C633 C636 1.463 . S
C633 C638 1.350 . S
C633 N641 1.427 . S
C634 H625 0.930 . S
C634 C632 1.378 . S
C634 C635 1.367 . S
C635 C634 1.367 . S
C635 C637 1.433 . S
C636 C632 1.350 . S
C636 C633 1.463 . S
C636 N640 1.427 . S
C637 H627 0.929 . S
C637 C635 1.433 . S
C637 N640 1.384 . S
C638 H629 0.929 . S
C638 C630 1.378 . S
C638 C633 1.350 . S
C639 H626 0.929 . S
C639 C631 1.433 . S
C639 N641 1.384 . S
N640 C636 1.427 . S
N640 C637 1.384 . S
N641 C633 1.427 . S
N641 C639 1.384 . S
H642 C648 0.930 . S
H643 C652 0.930 . S
H644 C657 0.929 . S
H645 C655 0.929 . S
H646 C650 0.929 . S
H647 C656 0.929 . S
C648 H642 0.930 . S
C648 C649 1.367 . S
C648 C656 1.378 . S
C649 C648 1.367 . S
C649 C657 1.433 . S
C650 H646 0.929 . S
C650 C652 1.378 . S
C650 C654 1.350 . S
C651 C654 1.463 . S
C651 C656 1.350 . S
C651 N659 1.427 . S
C652 H643 0.930 . S
C652 C650 1.378 . S
C652 C653 1.367 . S
C653 C652 1.367 . S
C653 C655 1.433 . S
C654 C650 1.350 . S
C654 C651 1.463 . S
C654 N658 1.427 . S
C655 H645 0.929 . S
C655 C653 1.433 . S
C655 N658 1.384 . S
C656 H647 0.929 . S
C656 C648 1.378 . S
C656 C651 1.350 . S
C657 H644 0.929 . S
C657 C649 1.433 . S
C657 N659 1.384 . S
N658 C654 1.427 . S
N658 C655 1.384 . S
N659 C651 1.427 . S
N659 C657 1.384 . S
H660 C666 0.930 . S
H661 C670 0.930 . S
H662 C675 0.929 . S
H663 C673 0.929 . S
H664 C668 0.929 . S
H665 C674 0.929 . S
C666 H660 0.930 . S
C666 C667 1.367 . S
C666 C674 1.378 . S
C667 C666 1.367 . S
C667 C675 1.433 . S
C668 H664 0.929 . S
C668 C670 1.378 . S
C668 C672 1.350 . S
C669 C672 1.463 . S
C669 C674 1.350 . S
C669 N677 1.427 . S
C670 H661 0.930 . S
C670 C668 1.378 . S
C670 C671 1.367 . S
C671 C670 1.367 . S
C671 C673 1.433 . S
C672 C668 1.350 . S
C672 C669 1.463 . S
C672 N676 1.427 . S
C673 H663 0.929 . S
C673 C671 1.433 . S
C673 N676 1.384 . S
C674 H665 0.929 . S
C674 C666 1.378 . S
C674 C669 1.350 . S
C675 H662 0.929 . S
C675 C667 1.433 . S
C675 N677 1.384 . S
N676 C672 1.427 . S
N676 C673 1.384 . S
N677 C669 1.427 . S
N677 C675 1.384 . S
H678 C684 0.930 . S
H679 C688 0.930 . S
H680 C693 0.929 . S
H681 C691 0.929 . S
H682 C686 0.929 . S
H683 C692 0.929 . S
C684 H678 0.930 . S
C684 C685 1.367 . S
C684 C692 1.378 . S
C685 C684 1.367 . S
C685 C693 1.433 . S
C686 H682 0.929 . S
C686 C688 1.378 . S
C686 C690 1.350 . S
C687 C690 1.463 . S
C687 C692 1.350 . S
C687 N695 1.427 . S
C688 H679 0.930 . S
C688 C686 1.378 . S
C688 C689 1.367 . S
C689 C688 1.367 . S
C689 C691 1.433 . S
C690 C686 1.350 . S
C690 C687 1.463 . S
C690 N694 1.427 . S
C691 H681 0.929 . S
C691 C689 1.433 . S
C691 N694 1.384 . S
C692 H683 0.929 . S
C692 C684 1.378 . S
C692 C687 1.350 . S
C693 H680 0.929 . S
C693 C685 1.433 . S
C693 N695 1.384 . S
N694 C690 1.427 . S
N694 C691 1.384 . S
N695 C687 1.427 . S
N695 C693 1.384 . S
H696 C702 0.930 . S
H697 C706 0.930 . S
H698 C711 0.929 . S
H699 C709 0.929 . S
H700 C704 0.929 . S
H701 C710 0.929 . S
C702 H696 0.930 . S
C702 C703 1.367 . S
C702 C710 1.378 . S
C703 C702 1.367 . S
C703 C711 1.433 . S
C704 H700 0.929 . S
C704 C706 1.378 . S
C704 C708 1.350 . S
C705 C708 1.463 . S
C705 C710 1.350 . S
C705 N713 1.427 . S
C706 H697 0.930 . S
C706 C704 1.378 . S
C706 C707 1.367 . S
C707 C706 1.367 . S
C707 C709 1.433 . S
C708 C704 1.350 . S
C708 C705 1.463 . S
C708 N712 1.427 . S
C709 H699 0.929 . S
C709 C707 1.433 . S
C709 N712 1.384 . S
C710 H701 0.929 . S
C710 C702 1.378 . S
C710 C705 1.350 . S
C711 H698 0.929 . S
C711 C703 1.433 . S
C711 N713 1.384 . S
N712 C708 1.427 . S
N712 C709 1.384 . S
N713 C705 1.427 . S
N713 C711 1.384 . S
H714 C720 0.930 . S
H715 C724 0.930 . S
H716 C729 0.929 . S
H717 C727 0.929 . S
H718 C722 0.929 . S
H719 C728 0.929 . S
C720 H714 0.930 . S
C720 C721 1.367 . S
C720 C728 1.378 . S
C721 C720 1.367 . S
C721 C729 1.433 . S
C722 H718 0.929 . S
C722 C724 1.378 . S
C722 C726 1.350 . S
C723 C726 1.463 . S
C723 C728 1.350 . S
C723 N731 1.427 . S
C724 H715 0.930 . S
C724 C722 1.378 . S
C724 C725 1.367 . S
C725 C724 1.367 . S
C725 C727 1.433 . S
C726 C722 1.350 . S
C726 C723 1.463 . S
C726 N730 1.427 . S
C727 H717 0.929 . S
C727 C725 1.433 . S
C727 N730 1.384 . S
C728 H719 0.929 . S
C728 C720 1.378 . S
C728 C723 1.350 . S
C729 H716 0.929 . S
C729 C721 1.433 . S
C729 N731 1.384 . S
N730 C726 1.427 . S
N730 C727 1.384 . S
N731 C723 1.427 . S
N731 C729 1.384 . S
H732 C738 0.930 . S
H733 C742 0.930 . S
H734 C747 0.929 . S
H735 C745 0.929 . S
H736 C740 0.929 . S
H737 C746 0.929 . S
C738 H732 0.930 . S
C738 C739 1.383 . S
C738 C746 1.378 . S
C739 C738 1.383 . S
C739 C747 1.417 1_554 S
C740 H736 0.929 . S
C740 C742 1.378 . S
C740 C744 1.361 . S
C741 C744 1.461 1_554 S
C741 C746 1.373 . S
C741 N749 1.404 1_554 S
C742 H733 0.930 . S
C742 C740 1.378 . S
C742 C743 1.371 . S
C743 C742 1.371 . S
C743 C745 1.429 1_556 S
C744 C740 1.361 . S
C744 C741 1.461 1_556 S
C744 N748 1.416 1_556 S
C745 H735 0.929 . S
C745 C743 1.429 1_554 S
C745 N748 1.384 . S
C746 H737 0.929 . S
C746 C738 1.378 . S
C746 C741 1.373 . S
C747 H734 0.929 . S
C747 C739 1.417 1_556 S
C747 N749 1.384 . S
N748 C744 1.416 1_554 S
N748 C745 1.384 . S
N749 C741 1.404 1_556 S
N749 C747 1.384 . S
H750 C756 0.930 . S
H751 C760 0.930 . S
H752 C765 0.929 . S
H753 C763 0.929 . S
H754 C758 0.929 . S
H755 C764 0.929 . S
C756 H750 0.930 . S
C756 C757 1.380 . S
C756 C764 1.378 . S
C757 C756 1.380 . S
C757 C765 1.420 1_556 S
C758 H754 0.929 . S
C758 C760 1.378 . S
C758 C762 1.350 . S
C759 C762 1.461 1_556 S
C759 C764 1.374 . S
C759 N767 1.403 1_556 S
C760 H751 0.930 . S
C760 C758 1.378 . S
C760 C761 1.396 . S
C761 C760 1.396 . S
C761 C763 1.404 1_554 S
C762 C758 1.350 . S
C762 C759 1.461 1_554 S
C762 N766 1.427 1_554 S
C763 H753 0.929 . S
C763 C761 1.404 1_556 S
C763 N766 1.384 . S
C764 H755 0.929 . S
C764 C756 1.378 . S
C764 C759 1.374 . S
C765 H752 0.929 . S
C765 C757 1.420 1_554 S
C765 N767 1.384 . S
N766 C762 1.427 1_556 S
N766 C763 1.384 . S
N767 C759 1.403 1_554 S
N767 C765 1.384 . S
H768 C774 0.930 . S
H769 C778 0.930 . S
H770 C783 0.929 . S
H771 C781 0.929 . S
H772 C776 0.929 . S
H773 C782 0.929 . S
C774 H768 0.930 . S
C774 C775 1.393 . S
C774 C782 1.378 . S
C775 C774 1.393 . S
C775 C783 1.406 1_554 S
C776 H772 0.929 . S
C776 C778 1.378 . S
C776 C780 1.373 . S
C777 C780 1.461 1_554 S
C777 C782 1.350 . S
C777 N785 1.427 1_554 S
C778 H769 0.930 . S
C778 C776 1.378 . S
C778 C779 1.378 . S
C779 C778 1.378 . S
C779 C781 1.422 1_556 S
C780 C776 1.373 . S
C780 C777 1.461 1_556 S
C780 N784 1.404 1_556 S
C781 H771 0.929 . S
C781 C779 1.422 1_554 S
C781 N784 1.384 . S
C782 H773 0.929 . S
C782 C774 1.378 . S
C782 C777 1.350 . S
C783 H770 0.929 . S
C783 C775 1.406 1_556 S
C783 N785 1.384 . S
N784 C780 1.404 1_554 S
N784 C781 1.384 . S
N785 C777 1.427 1_556 S
N785 C783 1.384 . S
H786 C792 0.930 . S
H787 C796 0.930 . S
H788 C801 0.929 . S
H789 C799 0.929 . S
H790 C794 0.929 . S
H791 C800 0.929 . S
C792 H786 0.930 . S
C792 C793 1.369 . S
C792 C800 1.378 . S
C793 C792 1.369 . S
C793 C801 1.431 1_554 S
C794 H790 0.929 . S
C794 C796 1.378 . S
C794 C798 1.349 . S
C795 C798 1.462 1_554 S
C795 C800 1.354 . S
C795 N803 1.424 1_554 S
C796 H787 0.930 . S
C796 C794 1.378 . S
C796 C797 1.367 1_556 S
C797 C796 1.367 1_554 S
C797 C799 1.433 . S
C798 C794 1.349 . S
C798 C795 1.462 1_556 S
C798 N802 1.428 1_556 S
C799 H789 0.929 . S
C799 C797 1.433 . S
C799 N802 1.384 . S
C800 H791 0.929 . S
C800 C792 1.378 . S
C800 C795 1.354 . S
C801 H788 0.929 . S
C801 C793 1.431 1_556 S
C801 N803 1.384 . S
N802 C798 1.428 1_554 S
N802 C799 1.384 . S
N803 C795 1.424 1_556 S
N803 C801 1.384 . S
H804 C810 0.930 . S
H805 C814 0.930 . S
H806 C819 0.929 . S
H807 C817 0.929 . S
H808 C812 0.929 . S
H809 C818 0.929 . S
C810 H804 0.930 . S
C810 C811 1.369 . S
C810 C818 1.378 . S
C811 C810 1.369 . S
C811 C819 1.432 1_455 S
C812 H808 0.929 . S
C812 C814 1.378 . S
C812 C816 1.350 1_655 S
C813 C816 1.462 . S
C813 C818 1.352 . S
C813 N821 1.425 1_455 S
C814 H805 0.930 . S
C814 C812 1.378 . S
C814 C815 1.366 1_655 S
C815 C814 1.366 1_455 S
C815 C817 1.434 . S
C816 C812 1.350 1_455 S
C816 C813 1.462 . S
C816 N820 1.428 . S
C817 H807 0.929 . S
C817 C815 1.434 . S
C817 N820 1.384 . S
C818 H809 0.929 . S
C818 C810 1.378 . S
C818 C813 1.352 . S
C819 H806 0.929 . S
C819 C811 1.432 1_655 S
C819 N821 1.384 . S
N820 C816 1.428 . S
N820 C817 1.384 . S
N821 C813 1.425 1_655 S
N821 C819 1.384 . S
H822 C828 0.930 . S
H823 C832 0.930 . S
H824 C837 0.929 . S
H825 C835 0.929 . S
H826 C830 0.929 . S
H827 C836 0.929 . S
C828 H822 0.930 . S
C828 C829 1.373 . S
C828 C836 1.378 . S
C829 C828 1.373 . S
C829 C837 1.427 1_545 S
C830 H826 0.929 . S
C830 C832 1.378 . S
C830 C834 1.350 . S
C831 C834 1.462 1_545 S
C831 C836 1.359 . S
C831 N839 1.419 1_545 S
C832 H823 0.930 . S
C832 C830 1.378 . S
C832 C833 1.368 1_565 S
C833 C832 1.368 1_545 S
C833 C835 1.432 . S
C834 C830 1.350 . S
C834 C831 1.462 1_565 S
C834 N838 1.427 1_565 S
C835 H825 0.929 . S
C835 C833 1.432 . S
C835 N838 1.384 . S
C836 H827 0.929 . S
C836 C828 1.378 . S
C836 C831 1.359 . S
C837 H824 0.929 . S
C837 C829 1.427 1_565 S
C837 N839 1.384 . S
N838 C834 1.427 1_545 S
N838 C835 1.384 . S
N839 C831 1.419 1_565 S
N839 C837 1.384 . S
H840 C846 0.930 . S
H841 C850 0.930 . S
H842 C855 0.929 . S
H843 C853 0.929 . S
H844 C848 0.929 . S
H845 C854 0.929 . S
C846 H840 0.930 . S
C846 C847 1.368 1_655 S
C846 C854 1.378 . S
C847 C846 1.368 1_455 S
C847 C855 1.432 . S
C848 H844 0.929 . S
C848 C850 1.378 . S
C848 C852 1.361 . S
C849 C852 1.462 1_655 S
C849 C854 1.350 . S
C849 N857 1.427 1_655 S
C850 H841 0.930 . S
C850 C848 1.378 . S
C850 C851 1.376 . S
C851 C850 1.376 . S
C851 C853 1.425 1_455 S
C852 C848 1.361 . S
C852 C849 1.462 1_455 S
C852 N856 1.416 1_455 S
C853 H843 0.929 . S
C853 C851 1.425 1_655 S
C853 N856 1.384 . S
C854 H845 0.929 . S
C854 C846 1.378 . S
C854 C849 1.350 . S
C855 H842 0.929 . S
C855 C847 1.432 . S
C855 N857 1.384 . S
N856 C852 1.416 1_655 S
N856 C853 1.384 . S
N857 C849 1.427 1_455 S
N857 C855 1.384 . S
H858 C864 0.930 . S
H859 C868 0.930 . S
H860 C873 0.929 . S
H861 C871 0.929 . S
H862 C866 0.929 . S
H863 C872 0.929 . S
C864 H858 0.930 . S
C864 C865 1.397 . S
C864 C872 1.378 . S
C865 C864 1.397 . S
C865 C873 1.403 1_545 S
C866 H862 0.929 . S
C866 C868 1.378 . S
C866 C870 1.371 . S
C867 C870 1.461 1_545 S
C867 C872 1.350 . S
C867 N875 1.427 1_545 S
C868 H859 0.930 . S
C868 C866 1.378 . S
C868 C869 1.376 . S
C869 C868 1.376 . S
C869 C871 1.424 1_565 S
C870 C866 1.371 . S
C870 C867 1.461 1_565 S
C870 N874 1.406 1_565 S
C871 H861 0.929 . S
C871 C869 1.424 1_545 S
C871 N874 1.384 . S
C872 H863 0.929 . S
C872 C864 1.378 . S
C872 C867 1.350 . S
C873 H860 0.929 . S
C873 C865 1.403 1_565 S
C873 N875 1.384 . S
N874 C870 1.406 1_545 S
N874 C871 1.384 . S
N875 C867 1.427 1_565 S
N875 C873 1.384 . S
H876 C882 0.930 . S
H877 C886 0.930 . S
H878 C891 0.929 . S
H879 C889 0.929 . S
H880 C884 0.929 . S
H881 C890 0.929 . S
C882 H876 0.930 . S
C882 C883 1.367 . S
C882 C890 1.378 . S
C883 C882 1.367 . S
C883 C891 1.433 1_655 S
C884 H880 0.929 . S
C884 C886 1.378 . S
C884 C888 1.371 . S
C885 C888 1.462 1_655 S
C885 C890 1.355 . S
C885 N893 1.423 1_655 S
C886 H877 0.930 . S
C886 C884 1.378 . S
C886 C887 1.382 . S
C887 C886 1.382 . S
C887 C889 1.418 1_455 S
C888 C884 1.371 . S
C888 C885 1.462 1_455 S
C888 N892 1.407 1_455 S
C889 H879 0.929 . S
C889 C887 1.418 1_655 S
C889 N892 1.384 . S
C890 H881 0.929 . S
C890 C882 1.378 . S
C890 C885 1.355 . S
C891 H878 0.929 . S
C891 C883 1.433 1_455 S
C891 N893 1.384 . S
N892 C888 1.407 1_655 S
N892 C889 1.384 . S
N893 C885 1.423 1_455 S
N893 C891 1.384 . S
H894 C900 0.930 . S
H895 C904 0.930 . S
H896 C909 0.929 . S
H897 C907 0.929 . S
H898 C902 0.929 . S
H899 C908 0.929 . S
C900 H894 0.930 . S
C900 C901 1.368 . S
C900 C908 1.378 . S
C901 C900 1.368 . S
C901 C909 1.432 1_565 S
C902 H898 0.929 . S
C902 C904 1.378 . S
C902 C906 1.370 . S
C903 C906 1.462 1_565 S
C903 C908 1.355 . S
C903 N911 1.422 1_565 S
C904 H895 0.930 . S
C904 C902 1.378 . S
C904 C905 1.382 . S
C905 C904 1.382 . S
C905 C907 1.418 1_545 S
C906 C902 1.370 . S
C906 C903 1.462 1_545 S
C906 N910 1.408 1_545 S
C907 H897 0.929 . S
C907 C905 1.418 1_565 S
C907 N910 1.384 . S
C908 H899 0.929 . S
C908 C900 1.378 . S
C908 C903 1.355 . S
C909 H896 0.929 . S
C909 C901 1.432 1_545 S
C909 N911 1.384 . S
N910 C906 1.408 1_565 S
N910 C907 1.384 . S
N911 C903 1.422 1_545 S
N911 C909 1.384 . S
H912 C918 0.930 . S
H913 C922 0.930 . S
H914 C927 0.929 . S
H915 C925 0.929 . S
H916 C920 0.929 . S
H917 C926 0.929 . S
C918 H912 0.930 . S
C918 C919 1.379 . S
C918 C926 1.378 . S
C919 C918 1.379 . S
C919 C927 1.421 1_455 S
C920 H916 0.929 . S
C920 C922 1.378 . S
C920 C924 1.352 . S
C921 C924 1.462 1_455 S
C921 C926 1.366 . S
C921 N929 1.411 1_455 S
C922 H913 0.930 . S
C922 C920 1.378 . S
C922 C923 1.366 . S
C923 C922 1.366 . S
C923 C925 1.434 1_655 S
C924 C920 1.352 . S
C924 C921 1.462 1_655 S
C924 N928 1.425 1_655 S
C925 H915 0.929 . S
C925 C923 1.434 1_455 S
C925 N928 1.384 . S
C926 H917 0.929 . S
C926 C918 1.378 . S
C926 C921 1.366 . S
C927 H914 0.929 . S
C927 C919 1.421 1_655 S
C927 N929 1.384 . S
N928 C924 1.425 1_455 S
N928 C925 1.384 . S
N929 C921 1.411 1_655 S
N929 C927 1.384 . S
H930 C936 0.930 . S
H931 C940 0.930 . S
H932 C945 0.929 . S
H933 C943 0.929 . S
H934 C938 0.928 . S
H935 C944 0.928 . S
C936 H930 0.930 . S
C936 C937 1.367 1_565 S
C936 C944 1.378 . S
C937 C936 1.367 1_545 S
C937 C945 1.433 . S
C938 H934 0.928 . S
C938 C940 1.378 . S
C938 C942 1.350 . S
C939 C942 1.463 . S
C939 C944 1.350 1_545 S
C939 N947 1.427 . S
C940 H931 0.930 . S
C940 C938 1.378 . S
C940 C941 1.367 . S
C941 C940 1.367 . S
C941 C943 1.433 1_545 S
C942 C938 1.350 . S
C942 C939 1.463 . S
C942 N946 1.427 1_545 S
C943 H933 0.929 . S
C943 C941 1.433 1_565 S
C943 N946 1.384 . S
C944 H935 0.928 . S
C944 C936 1.378 . S
C944 C939 1.350 1_565 S
C945 H932 0.929 . S
C945 C937 1.433 . S
C945 N947 1.384 . S
N946 C942 1.427 1_565 S
N946 C943 1.384 . S
N947 C939 1.427 . S
N947 C945 1.384 . S
H948 C954 0.930 . S
H949 C958 0.930 . S
H950 C963 0.929 . S
H951 C961 0.929 . S
H952 C956 0.929 . S
H953 C962 0.929 . S
C954 H948 0.930 . S
C954 C955 1.378 . S
C954 C962 1.378 . S
C955 C954 1.378 . S
C955 C963 1.423 1_455 S
C956 H952 0.929 . S
C956 C958 1.378 . S
C956 C960 1.349 . S
C957 C960 1.462 1_455 S
C957 C962 1.364 . S
C957 N965 1.413 1_455 S
C958 H949 0.930 . S
C958 C956 1.378 . S
C958 C959 1.366 1_655 S
C959 C958 1.366 1_455 S
C959 C961 1.434 . S
C960 C956 1.349 . S
C960 C957 1.462 1_655 S
C960 N964 1.428 1_655 S
C961 H951 0.929 . S
C961 C959 1.434 . S
C961 N964 1.384 . S
C962 H953 0.929 . S
C962 C954 1.378 . S
C962 C957 1.364 . S
C963 H950 0.929 . S
C963 C955 1.423 1_655 S
C963 N965 1.384 . S
N964 C960 1.428 1_455 S
N964 C961 1.384 . S
N965 C957 1.413 1_655 S
N965 C963 1.384 . S
H966 C972 0.930 . S
H967 C976 0.930 . S
H968 C981 0.929 . S
H969 C979 0.929 . S
H970 C974 0.929 . S
H971 C980 0.929 . S
C972 H966 0.930 . S
C972 C973 1.387 . S
C972 C980 1.378 . S
C973 C972 1.387 . S
C973 C981 1.413 1_545 S
C974 H970 0.929 . S
C974 C976 1.378 . S
C974 C978 1.361 . S
C975 C978 1.461 1_545 S
C975 C980 1.377 . S
C975 N983 1.400 1_545 S
C976 H967 0.930 . S
C976 C974 1.378 . S
C976 C977 1.370 . S
C977 C976 1.370 . S
C977 C979 1.430 1_565 S
C978 C974 1.361 . S
C978 C975 1.461 1_565 S
C978 N982 1.416 1_565 S
C979 H969 0.929 . S
C979 C977 1.430 1_545 S
C979 N982 1.384 . S
C980 H971 0.929 . S
C980 C972 1.378 . S
C980 C975 1.377 . S
C981 H968 0.929 . S
C981 C973 1.413 1_565 S
C981 N983 1.384 . S
N982 C978 1.416 1_545 S
N982 C979 1.384 . S
N983 C975 1.400 1_565 S
N983 C981 1.384 . S
H984 C990 0.930 . S
H985 C994 0.930 . S
H986 C999 0.929 . S
H987 C997 0.929 . S
H988 C992 0.929 . S
H989 C998 0.929 . S
C990 H984 0.930 . S
C990 C991 1.388 . S
C990 C998 1.378 . S
C991 C990 1.388 . S
C991 C999 1.412 1_455 S
C992 H988 0.929 . S
C992 C994 1.378 . S
C992 C996 1.355 . S
C993 C996 1.462 1_455 S
C993 C998 1.350 . S
C993 N1001 1.427 1_455 S
C994 H985 0.930 . S
C994 C992 1.378 . S
C994 C995 1.365 . S
C995 C994 1.365 . S
C995 C997 1.435 1_655 S
C996 C992 1.355 . S
C996 C993 1.462 1_655 S
C996 N1000 1.422 1_655 S
C997 H987 0.929 . S
C997 C995 1.435 1_455 S
C997 N1000 1.384 . S
C998 H989 0.929 . S
C998 C990 1.378 . S
C998 C993 1.350 . S
C999 H986 0.929 . S
C999 C991 1.412 1_655 S
C999 N1001 1.384 . S
N1000 C996 1.422 1_455 S
N1000 C997 1.384 . S
N1001 C993 1.427 1_655 S
N1001 C999 1.384 . S
H1002 C1008 0.930 . S
H1003 C1012 0.930 . S
H1004 C1017 0.929 . S
H1005 C1015 0.929 . S
H1006 C1010 0.929 . S
H1007 C1016 0.929 . S
C1008 H1002 0.930 . S
C1008 C1009 1.393 . S
C1008 C1016 1.378 . S
C1009 C1008 1.393 . S
C1009 C1017 1.406 1_545 S
C1010 H1006 0.929 . S
C1010 C1012 1.378 . S
C1010 C1014 1.367 . S
C1011 C1014 1.462 1_545 S
C1011 C1016 1.350 . S
C1011 N1019 1.427 1_545 S
C1012 H1003 0.930 . S
C1012 C1010 1.378 . S
C1012 C1013 1.374 . S
C1013 C1012 1.374 . S
C1013 C1015 1.426 1_565 S
C1014 C1010 1.367 . S
C1014 C1011 1.462 1_565 S
C1014 N1018 1.410 1_565 S
C1015 H1005 0.929 . S
C1015 C1013 1.426 1_545 S
C1015 N1018 1.384 . S
C1016 H1007 0.929 . S
C1016 C1008 1.378 . S
C1016 C1011 1.350 . S
C1017 H1004 0.929 . S
C1017 C1009 1.406 1_565 S
C1017 N1019 1.384 . S
N1018 C1014 1.410 1_545 S
N1018 C1015 1.384 . S
N1019 C1011 1.427 1_565 S
N1019 C1017 1.384 . S
H1020 C1026 0.930 . S
H1021 C1030 0.930 . S
H1022 C1035 0.929 . S
H1023 C1033 0.929 . S
H1024 C1028 0.929 . S
H1025 C1034 0.929 . S
C1026 H1020 0.930 . S
C1026 C1027 1.366 . S
C1026 C1034 1.378 . S
C1027 C1026 1.366 . S
C1027 C1035 1.434 1_655 S
C1028 H1024 0.929 . S
C1028 C1030 1.378 . S
C1028 C1032 1.350 . S
C1029 C1032 1.462 1_655 S
C1029 C1034 1.353 . S
C1029 N1037 1.424 1_655 S
C1030 H1021 0.930 . S
C1030 C1028 1.378 . S
C1030 C1031 1.387 . S
C1031 C1030 1.387 . S
C1031 C1033 1.414 1_455 S
C1032 C1028 1.350 . S
C1032 C1029 1.462 1_455 S
C1032 N1036 1.427 1_455 S
C1033 H1023 0.929 . S
C1033 C1031 1.414 1_655 S
C1033 N1036 1.384 . S
C1034 H1025 0.929 . S
C1034 C1026 1.378 . S
C1034 C1029 1.353 . S
C1035 H1022 0.929 . S
C1035 C1027 1.434 1_455 S
C1035 N1037 1.384 . S
N1036 C1032 1.427 1_655 S
N1036 C1033 1.384 . S
N1037 C1029 1.424 1_455 S
N1037 C1035 1.384 . S
H1038 C1044 0.930 . S
H1039 C1048 0.930 . S
H1040 C1053 0.929 . S
H1041 C1051 0.929 . S
H1042 C1046 0.929 . S
H1043 C1052 0.929 . S
C1044 H1038 0.930 . S
C1044 C1045 1.397 . S
C1044 C1052 1.378 . S
C1045 C1044 1.397 . S
C1045 C1053 1.403 1_545 S
C1046 H1042 0.929 . S
C1046 C1048 1.378 . S
C1046 C1050 1.372 . S
C1047 C1050 1.461 1_545 S
C1047 C1052 1.350 . S
C1047 N1055 1.427 1_545 S
C1048 H1039 0.930 . S
C1048 C1046 1.378 . S
C1048 C1049 1.377 . S
C1049 C1048 1.377 . S
C1049 C1051 1.423 1_565 S
C1050 C1046 1.372 . S
C1050 C1047 1.461 1_565 S
C1050 N1054 1.405 1_565 S
C1051 H1041 0.929 . S
C1051 C1049 1.423 1_545 S
C1051 N1054 1.384 . S
C1052 H1043 0.929 . S
C1052 C1044 1.378 . S
C1052 C1047 1.350 . S
C1053 H1040 0.929 . S
C1053 C1045 1.403 1_565 S
C1053 N1055 1.384 . S
N1054 C1050 1.405 1_545 S
N1054 C1051 1.384 . S
N1055 C1047 1.427 1_565 S
N1055 C1053 1.384 . S
H1056 C1062 0.930 . S
H1057 C1066 0.930 . S
H1058 C1071 0.929 . S
H1059 C1069 0.929 . S
H1060 C1064 0.929 . S
H1061 C1070 0.929 . S
C1062 H1056 0.930 . S
C1062 C1063 1.374 . S
C1062 C1070 1.378 . S
C1063 C1062 1.374 . S
C1063 C1071 1.426 1_455 S
C1064 H1060 0.929 . S
C1064 C1066 1.378 . S
C1064 C1068 1.351 1_655 S
C1065 C1068 1.462 . S
C1065 C1070 1.360 . S
C1065 N1073 1.418 1_455 S
C1066 H1057 0.930 . S
C1066 C1064 1.378 . S
C1066 C1067 1.365 1_655 S
C1067 C1066 1.365 1_455 S
C1067 C1069 1.435 . S
C1068 C1064 1.351 1_455 S
C1068 C1065 1.462 . S
C1068 N1072 1.426 . S
C1069 H1059 0.929 . S
C1069 C1067 1.435 . S
C1069 N1072 1.384 . S
C1070 H1061 0.929 . S
C1070 C1062 1.378 . S
C1070 C1065 1.360 . S
C1071 H1058 0.929 . S
C1071 C1063 1.426 1_655 S
C1071 N1073 1.384 . S
N1072 C1068 1.426 . S
N1072 C1069 1.384 . S
N1073 C1065 1.418 1_655 S
N1073 C1071 1.384 . S
H1074 C1080 0.930 . S
H1075 C1084 0.930 . S
H1076 C1089 0.929 . S
H1077 C1087 0.929 . S
H1078 C1082 0.929 . S
H1079 C1088 0.929 . S
C1080 H1074 0.930 . S
C1080 C1081 1.377 . S
C1080 C1088 1.378 . S
C1081 C1080 1.377 . S
C1081 C1089 1.423 1_545 S
C1082 H1078 0.929 . S
C1082 C1084 1.378 . S
C1082 C1086 1.353 . S
C1083 C1086 1.462 1_545 S
C1083 C1088 1.363 . S
C1083 N1091 1.414 1_545 S
C1084 H1075 0.930 . S
C1084 C1082 1.378 . S
C1084 C1085 1.366 . S
C1085 C1084 1.366 . S
C1085 C1087 1.434 1_565 S
C1086 C1082 1.353 . S
C1086 C1083 1.462 1_565 S
C1086 N1090 1.425 1_565 S
C1087 H1077 0.929 . S
C1087 C1085 1.434 1_545 S
C1087 N1090 1.384 . S
C1088 H1079 0.929 . S
C1088 C1080 1.378 . S
C1088 C1083 1.363 . S
C1089 H1076 0.929 . S
C1089 C1081 1.423 1_565 S
C1089 N1091 1.384 . S
N1090 C1086 1.425 1_545 S
N1090 C1087 1.384 . S
N1091 C1083 1.414 1_565 S
N1091 C1089 1.384 . S
H1092 C1098 0.930 . S
H1093 C1102 0.930 . S
H1094 C1107 0.929 . S
H1095 C1105 0.929 . S
H1096 C1100 0.929 . S
H1097 C1106 0.929 . S
C1098 H1092 0.930 . S
C1098 C1099 1.385 . S
C1098 C1106 1.378 . S
C1099 C1098 1.385 . S
C1099 C1107 1.415 1_545 S
C1100 H1096 0.929 . S
C1100 C1102 1.378 . S
C1100 C1104 1.362 . S
C1101 C1104 1.461 1_545 S
C1101 C1106 1.374 . S
C1101 N1109 1.403 1_545 S
C1102 H1093 0.930 . S
C1102 C1100 1.378 . S
C1102 C1103 1.373 . S
C1103 C1102 1.373 . S
C1103 C1105 1.427 1_565 S
C1104 C1100 1.362 . S
C1104 C1101 1.461 1_565 S
C1104 N1108 1.415 1_565 S
C1105 H1095 0.929 . S
C1105 C1103 1.427 1_545 S
C1105 N1108 1.384 . S
C1106 H1097 0.929 . S
C1106 C1098 1.378 . S
C1106 C1101 1.374 . S
C1107 H1094 0.929 . S
C1107 C1099 1.415 1_565 S
C1107 N1109 1.384 . S
N1108 C1104 1.415 1_545 S
N1108 C1105 1.384 . S
N1109 C1101 1.403 1_565 S
N1109 C1107 1.384 . S
H1110 C1116 0.930 . S
H1111 C1120 0.930 . S
H1112 C1125 0.929 . S
H1113 C1123 0.929 . S
H1114 C1118 0.929 . S
H1115 C1124 0.929 . S
C1116 H1110 0.930 . S
C1116 C1117 1.380 . S
C1116 C1124 1.378 . S
C1117 C1116 1.380 . S
C1117 C1125 1.420 1_455 S
C1118 H1114 0.929 . S
C1118 C1120 1.378 . S
C1118 C1122 1.356 . S
C1119 C1122 1.462 1_455 S
C1119 C1124 1.367 . S
C1119 N1127 1.410 1_455 S
C1120 H1111 0.930 . S
C1120 C1118 1.378 . S
C1120 C1121 1.369 . S
C1121 C1120 1.369 . S
C1121 C1123 1.431 1_655 S
C1122 C1118 1.356 . S
C1122 C1119 1.462 1_655 S
C1122 N1126 1.422 1_655 S
C1123 H1113 0.929 . S
C1123 C1121 1.431 1_455 S
C1123 N1126 1.384 . S
C1124 H1115 0.929 . S
C1124 C1116 1.378 . S
C1124 C1119 1.367 . S
C1125 H1112 0.929 . S
C1125 C1117 1.420 1_655 S
C1125 N1127 1.384 . S
N1126 C1122 1.422 1_455 S
N1126 C1123 1.384 . S
N1127 C1119 1.410 1_655 S
N1127 C1125 1.384 . S
H1128 C1134 0.930 . S
H1129 C1138 0.930 . S
H1130 C1143 0.929 . S
H1131 C1141 0.929 . S
H1132 C1136 0.929 . S
H1133 C1142 0.929 . S
C1134 H1128 0.930 . S
C1134 C1135 1.374 . S
C1134 C1142 1.378 . S
C1135 C1134 1.374 . S
C1135 C1143 1.426 1_565 S
C1136 H1132 0.929 . S
C1136 C1138 1.378 . S
C1136 C1140 1.381 . S
C1137 C1140 1.461 1_565 S
C1137 C1142 1.367 . S
C1137 N1145 1.410 1_565 S
C1138 H1129 0.930 . S
C1138 C1136 1.378 . S
C1138 C1139 1.388 . S
C1139 C1138 1.388 . S
C1139 C1141 1.412 1_545 S
C1140 C1136 1.381 . S
C1140 C1137 1.461 1_545 S
C1140 N1144 1.396 1_545 S
C1141 H1131 0.929 . S
C1141 C1139 1.412 1_565 S
C1141 N1144 1.384 . S
C1142 H1133 0.929 . S
C1142 C1134 1.378 . S
C1142 C1137 1.367 . S
C1143 H1130 0.929 . S
C1143 C1135 1.426 1_545 S
C1143 N1145 1.384 . S
N1144 C1140 1.396 1_565 S
N1144 C1141 1.384 . S
N1145 C1137 1.410 1_545 S
N1145 C1143 1.384 . S
H1146 C1152 0.930 . S
H1147 C1156 0.930 . S
H1148 C1161 0.929 . S
H1149 C1159 0.929 . S
H1150 C1154 0.929 . S
H1151 C1160 0.929 . S
C1152 H1146 0.930 . S
C1152 C1153 1.371 . S
C1152 C1160 1.378 . S
C1153 C1152 1.371 . S
C1153 C1161 1.429 1_655 S
C1154 H1150 0.929 . S
C1154 C1156 1.378 . S
C1154 C1158 1.380 . S
C1155 C1158 1.461 1_655 S
C1155 C1160 1.364 . S
C1155 N1163 1.413 1_655 S
C1156 H1147 0.930 . S
C1156 C1154 1.378 . S
C1156 C1157 1.387 . S
C1157 C1156 1.387 . S
C1157 C1159 1.413 1_455 S
C1158 C1154 1.380 . S
C1158 C1155 1.461 1_455 S
C1158 N1162 1.398 1_455 S
C1159 H1149 0.929 . S
C1159 C1157 1.413 1_655 S
C1159 N1162 1.384 . S
C1160 H1151 0.929 . S
C1160 C1152 1.378 . S
C1160 C1155 1.364 . S
C1161 H1148 0.929 . S
C1161 C1153 1.429 1_455 S
C1161 N1163 1.384 . S
N1162 C1158 1.398 1_655 S
N1162 C1159 1.384 . S
N1163 C1155 1.413 1_455 S
N1163 C1161 1.384 . S
H1164 C1170 0.930 . S
H1165 C1174 0.930 . S
H1166 C1179 0.929 . S
H1167 C1177 0.929 . S
H1168 C1172 0.929 . S
H1169 C1178 0.929 . S
C1170 H1164 0.930 . S
C1170 C1171 1.396 . S
C1170 C1178 1.378 . S
C1171 C1170 1.396 . S
C1171 C1179 1.404 1_545 S
C1172 H1168 0.929 . S
C1172 C1174 1.378 . S
C1172 C1176 1.375 . S
C1173 C1176 1.461 1_545 S
C1173 C1178 1.350 . S
C1173 N1181 1.427 1_545 S
C1174 H1165 0.930 . S
C1174 C1172 1.378 . S
C1174 C1175 1.381 . S
C1175 C1174 1.381 . S
C1175 C1177 1.418 1_565 S
C1176 C1172 1.375 . S
C1176 C1173 1.461 1_565 S
C1176 N1180 1.402 1_565 S
C1177 H1167 0.929 . S
C1177 C1175 1.418 1_545 S
C1177 N1180 1.384 . S
C1178 H1169 0.929 . S
C1178 C1170 1.378 . S
C1178 C1173 1.350 . S
C1179 H1166 0.929 . S
C1179 C1171 1.404 1_565 S
C1179 N1181 1.384 . S
N1180 C1176 1.402 1_545 S
N1180 C1177 1.384 . S
N1181 C1173 1.427 1_565 S
N1181 C1179 1.384 . S
H1182 C1188 0.930 . S
H1183 C1192 0.930 . S
H1184 C1197 0.929 . S
H1185 C1195 0.929 . S
H1186 C1190 0.929 . S
H1187 C1196 0.929 . S
C1188 H1182 0.930 . S
C1188 C1189 1.367 . S
C1188 C1196 1.378 . S
C1189 C1188 1.367 . S
C1189 C1197 1.433 1_655 S
C1190 H1186 0.929 . S
C1190 C1192 1.378 . S
C1190 C1194 1.369 . S
C1191 C1194 1.462 1_655 S
C1191 C1196 1.356 . S
C1191 N1199 1.421 1_655 S
C1192 H1183 0.930 . S
C1192 C1190 1.378 . S
C1192 C1193 1.380 . S
C1193 C1192 1.380 . S
C1193 C1195 1.420 1_455 S
C1194 C1190 1.369 . S
C1194 C1191 1.462 1_455 S
C1194 N1198 1.409 1_455 S
C1195 H1185 0.929 . S
C1195 C1193 1.420 1_655 S
C1195 N1198 1.384 . S
C1196 H1187 0.929 . S
C1196 C1188 1.378 . S
C1196 C1191 1.356 . S
C1197 H1184 0.929 . S
C1197 C1189 1.433 1_455 S
C1197 N1199 1.384 . S
N1198 C1194 1.409 1_655 S
N1198 C1195 1.384 . S
N1199 C1191 1.421 1_455 S
N1199 C1197 1.384 . S
H1200 C1206 0.930 . S
H1201 C1210 0.930 . S
H1202 C1215 0.929 . S
H1203 C1213 0.929 . S
H1204 C1208 0.929 . S
H1205 C1214 0.929 . S
C1206 H1200 0.930 . S
C1206 C1207 1.394 . S
C1206 C1214 1.378 . S
C1207 C1206 1.394 . S
C1207 C1215 1.406 1_545 S
C1208 H1204 0.929 . S
C1208 C1210 1.378 . S
C1208 C1212 1.373 . S
C1209 C1212 1.461 1_545 S
C1209 C1214 1.350 . S
C1209 N1217 1.427 1_545 S
C1210 H1201 0.930 . S
C1210 C1208 1.378 . S
C1210 C1211 1.380 . S
C1211 C1210 1.380 . S
C1211 C1213 1.419 1_565 S
C1212 C1208 1.373 . S
C1212 C1209 1.461 1_565 S
C1212 N1216 1.404 1_565 S
C1213 H1203 0.929 . S
C1213 C1211 1.419 1_545 S
C1213 N1216 1.384 . S
C1214 H1205 0.929 . S
C1214 C1206 1.378 . S
C1214 C1209 1.350 . S
C1215 H1202 0.929 . S
C1215 C1207 1.406 1_565 S
C1215 N1217 1.384 . S
N1216 C1212 1.404 1_545 S
N1216 C1213 1.384 . S
N1217 C1209 1.427 1_565 S
N1217 C1215 1.384 . S
H1218 C1224 0.930 . S
H1219 C1228 0.930 . S
H1220 C1233 0.929 . S
H1221 C1231 0.929 . S
H1222 C1226 0.929 . S
H1223 C1232 0.929 . S
C1224 H1218 0.930 . S
C1224 C1225 1.366 1_655 S
C1224 C1232 1.378 . S
C1225 C1224 1.366 1_455 S
C1225 C1233 1.434 . S
C1226 H1222 0.929 . S
C1226 C1228 1.378 . S
C1226 C1230 1.351 . S
C1227 C1230 1.462 . S
C1227 C1232 1.350 1_455 S
C1227 N1235 1.428 . S
C1228 H1219 0.930 . S
C1228 C1226 1.378 . S
C1228 C1229 1.367 . S
C1229 C1228 1.367 . S
C1229 C1231 1.433 1_455 S
C1230 C1226 1.351 . S
C1230 C1227 1.462 . S
C1230 N1234 1.427 1_455 S
C1231 H1221 0.929 . S
C1231 C1229 1.433 1_655 S
C1231 N1234 1.384 . S
C1232 H1223 0.929 . S
C1232 C1224 1.378 . S
C1232 C1227 1.350 1_655 S
C1233 H1220 0.929 . S
C1233 C1225 1.434 . S
C1233 N1235 1.384 . S
N1234 C1230 1.427 1_655 S
N1234 C1231 1.384 . S
N1235 C1227 1.428 . S
N1235 C1233 1.384 . S
H1236 C1242 0.930 . S
H1237 C1246 0.930 . S
H1238 C1251 0.929 . S
H1239 C1249 0.929 . S
H1240 C1244 0.929 . S
H1241 C1250 0.929 . S
C1242 H1236 0.930 . S
C1242 C1243 1.383 . S
C1242 C1250 1.378 . S
C1243 C1242 1.383 . S
C1243 C1251 1.417 1_554 S
C1244 H1240 0.929 . S
C1244 C1246 1.378 . S
C1244 C1248 1.364 . S
C1245 C1248 1.461 1_554 S
C1245 C1250 1.372 . S
C1245 N1253 1.406 1_554 S
C1246 H1237 0.930 . S
C1246 C1244 1.378 . S
C1246 C1247 1.375 . S
C1247 C1246 1.375 . S
C1247 C1249 1.425 1_556 S
C1248 C1244 1.364 . S
C1248 C1245 1.461 1_556 S
C1248 N1252 1.414 1_556 S
C1249 H1239 0.929 . S
C1249 C1247 1.425 1_554 S
C1249 N1252 1.384 . S
C1250 H1241 0.929 . S
C1250 C1242 1.378 . S
C1250 C1245 1.372 . S
C1251 H1238 0.929 . S
C1251 C1243 1.417 1_556 S
C1251 N1253 1.384 . S
N1252 C1248 1.414 1_554 S
N1252 C1249 1.384 . S
N1253 C1245 1.406 1_556 S
N1253 C1251 1.384 . S
H1254 C1260 0.930 . S
H1255 C1264 0.930 . S
H1256 C1269 0.929 . S
H1257 C1267 0.929 . S
H1258 C1262 0.929 . S
H1259 C1268 0.929 . S
C1260 H1254 0.930 . S
C1260 C1261 1.368 . S
C1260 C1268 1.378 . S
C1261 C1260 1.368 . S
C1261 C1269 1.432 1_556 S
C1262 H1258 0.929 . S
C1262 C1264 1.378 . S
C1262 C1266 1.361 . S
C1263 C1266 1.462 1_556 S
C1263 C1268 1.355 . S
C1263 N1271 1.422 1_556 S
C1264 H1255 0.930 . S
C1264 C1262 1.378 . S
C1264 C1265 1.373 . S
C1265 C1264 1.373 . S
C1265 C1267 1.427 1_554 S
C1266 C1262 1.361 . S
C1266 C1263 1.462 1_554 S
C1266 N1270 1.417 1_554 S
C1267 H1257 0.929 . S
C1267 C1265 1.427 1_556 S
C1267 N1270 1.384 . S
C1268 H1259 0.929 . S
C1268 C1260 1.378 . S
C1268 C1263 1.355 . S
C1269 H1256 0.929 . S
C1269 C1261 1.432 1_554 S
C1269 N1271 1.384 . S
N1270 C1266 1.417 1_556 S
N1270 C1267 1.384 . S
N1271 C1263 1.422 1_554 S
N1271 C1269 1.384 . S
H1272 C1278 0.930 . S
H1273 C1282 0.930 . S
H1274 C1287 0.929 . S
H1275 C1285 0.929 . S
H1276 C1280 0.929 . S
H1277 C1286 0.929 . S
C1278 H1272 0.930 . S
C1278 C1279 1.374 . S
C1278 C1286 1.378 . S
C1279 C1278 1.374 . S
C1279 C1287 1.426 1_556 S
C1280 H1276 0.929 . S
C1280 C1282 1.378 . S
C1280 C1284 1.375 . S
C1281 C1284 1.461 1_556 S
C1281 C1286 1.363 . S
C1281 N1289 1.414 1_556 S
C1282 H1273 0.930 . S
C1282 C1280 1.378 . S
C1282 C1283 1.385 . S
C1283 C1282 1.385 . S
C1283 C1285 1.415 1_554 S
C1284 C1280 1.375 . S
C1284 C1281 1.461 1_554 S
C1284 N1288 1.403 1_554 S
C1285 H1275 0.929 . S
C1285 C1283 1.415 1_556 S
C1285 N1288 1.384 . S
C1286 H1277 0.929 . S
C1286 C1278 1.378 . S
C1286 C1281 1.363 . S
C1287 H1274 0.929 . S
C1287 C1279 1.426 1_554 S
C1287 N1289 1.384 . S
N1288 C1284 1.403 1_556 S
N1288 C1285 1.384 . S
N1289 C1281 1.414 1_554 S
N1289 C1287 1.384 . S
H1290 C1296 0.930 . S
H1291 C1300 0.930 . S
H1292 C1305 0.929 . S
H1293 C1303 0.929 . S
H1294 C1298 0.929 . S
H1295 C1304 0.929 . S
C1296 H1290 0.930 . S
C1296 C1297 1.379 . S
C1296 C1304 1.378 . S
C1297 C1296 1.379 . S
C1297 C1305 1.421 1_556 S
C1298 H1294 0.929 . S
C1298 C1300 1.378 . S
C1298 C1302 1.383 . S
C1299 C1302 1.461 1_556 S
C1299 C1304 1.373 . S
C1299 N1307 1.404 1_556 S
C1300 H1291 0.930 . S
C1300 C1298 1.378 . S
C1300 C1301 1.389 . S
C1301 C1300 1.389 . S
C1301 C1303 1.411 1_554 S
C1302 C1298 1.383 . S
C1302 C1299 1.461 1_554 S
C1302 N1306 1.394 1_554 S
C1303 H1293 0.929 . S
C1303 C1301 1.411 1_556 S
C1303 N1306 1.384 . S
C1304 H1295 0.929 . S
C1304 C1296 1.378 . S
C1304 C1299 1.373 . S
C1305 H1292 0.929 . S
C1305 C1297 1.421 1_554 S
C1305 N1307 1.384 . S
N1306 C1302 1.394 1_556 S
N1306 C1303 1.384 . S
N1307 C1299 1.404 1_554 S
N1307 C1305 1.384 . S
H1308 C1314 0.930 . S
H1309 C1318 0.930 . S
H1310 C1323 0.929 . S
H1311 C1321 0.929 . S
H1312 C1316 0.929 . S
H1313 C1322 0.929 . S
C1314 H1308 0.930 . S
C1314 C1315 1.371 . S
C1314 C1322 1.378 . S
C1315 C1314 1.371 . S
C1315 C1323 1.429 1_556 S
C1316 H1312 0.929 . S
C1316 C1318 1.378 . S
C1316 C1320 1.372 . S
C1317 C1320 1.461 1_556 S
C1317 C1322 1.360 . S
C1317 N1325 1.417 1_556 S
C1318 H1309 0.930 . S
C1318 C1316 1.378 . S
C1318 C1319 1.383 . S
C1319 C1318 1.383 . S
C1319 C1321 1.417 1_554 S
C1320 C1316 1.372 . S
C1320 C1317 1.461 1_554 S
C1320 N1324 1.406 1_554 S
C1321 H1311 0.929 . S
C1321 C1319 1.417 1_556 S
C1321 N1324 1.384 . S
C1322 H1313 0.929 . S
C1322 C1314 1.378 . S
C1322 C1317 1.360 . S
C1323 H1310 0.929 . S
C1323 C1315 1.429 1_554 S
C1323 N1325 1.384 . S
N1324 C1320 1.406 1_556 S
N1324 C1321 1.384 . S
N1325 C1317 1.417 1_554 S
N1325 C1323 1.384 . S
H1326 C1332 0.930 . S
H1327 C1336 0.930 . S
H1328 C1341 0.929 . S
H1329 C1339 0.929 . S
H1330 C1334 0.929 . S
H1331 C1340 0.929 . S
C1332 H1326 0.930 . S
C1332 C1333 1.381 . S
C1332 C1340 1.378 . S
C1333 C1332 1.381 . S
C1333 C1341 1.419 1_556 S
C1334 H1330 0.929 . S
C1334 C1336 1.378 . S
C1334 C1338 1.350 . S
C1335 C1338 1.461 1_556 S
C1335 C1340 1.377 . S
C1335 N1343 1.400 1_556 S
C1336 H1327 0.930 . S
C1336 C1334 1.378 . S
C1336 C1337 1.391 . S
C1337 C1336 1.391 . S
C1337 C1339 1.409 1_554 S
C1338 C1334 1.350 . S
C1338 C1335 1.461 1_554 S
C1338 N1342 1.427 1_554 S
C1339 H1329 0.929 . S
C1339 C1337 1.409 1_556 S
C1339 N1342 1.384 . S
C1340 H1331 0.929 . S
C1340 C1332 1.378 . S
C1340 C1335 1.377 . S
C1341 H1328 0.929 . S
C1341 C1333 1.419 1_554 S
C1341 N1343 1.384 . S
N1342 C1338 1.427 1_556 S
N1342 C1339 1.384 . S
N1343 C1335 1.400 1_554 S
N1343 C1341 1.384 . S
H1344 C1350 0.930 . S
H1345 C1354 0.930 . S
H1346 C1359 0.929 . S
H1347 C1357 0.929 . S
H1348 C1352 0.929 . S
H1349 C1358 0.929 . S
C1350 H1344 0.930 . S
C1350 C1351 1.394 . S
C1350 C1358 1.378 . S
C1351 C1350 1.394 . S
C1351 C1359 1.406 1_554 S
C1352 H1348 0.929 . S
C1352 C1354 1.378 . S
C1352 C1356 1.373 . S
C1353 C1356 1.461 1_554 S
C1353 C1358 1.350 . S
C1353 N1361 1.427 1_554 S
C1354 H1345 0.930 . S
C1354 C1352 1.378 . S
C1354 C1355 1.379 . S
C1355 C1354 1.379 . S
C1355 C1357 1.421 1_556 S
C1356 C1352 1.373 . S
C1356 C1353 1.461 1_556 S
C1356 N1360 1.404 1_556 S
C1357 H1347 0.929 . S
C1357 C1355 1.421 1_554 S
C1357 N1360 1.384 . S
C1358 H1349 0.929 . S
C1358 C1350 1.378 . S
C1358 C1353 1.350 . S
C1359 H1346 0.929 . S
C1359 C1351 1.406 1_556 S
C1359 N1361 1.384 . S
N1360 C1356 1.404 1_554 S
N1360 C1357 1.384 . S
N1361 C1353 1.427 1_556 S
N1361 C1359 1.384 . S
H1362 C1368 0.930 . S
H1363 C1372 0.930 . S
H1364 C1377 0.929 . S
H1365 C1375 0.929 . S
H1366 C1370 0.929 . S
H1367 C1376 0.929 . S
C1368 H1362 0.930 . S
C1368 C1369 1.376 . S
C1368 C1376 1.378 . S
C1369 C1368 1.376 . S
C1369 C1377 1.424 1_556 S
C1370 H1366 0.929 . S
C1370 C1372 1.378 . S
C1370 C1374 1.379 . S
C1371 C1374 1.461 1_556 S
C1371 C1376 1.367 . S
C1371 N1379 1.411 1_556 S
C1372 H1363 0.930 . S
C1372 C1370 1.378 . S
C1372 C1373 1.388 . S
C1373 C1372 1.388 . S
C1373 C1375 1.412 1_554 S
C1374 C1370 1.379 . S
C1374 C1371 1.461 1_554 S
C1374 N1378 1.399 1_554 S
C1375 H1365 0.929 . S
C1375 C1373 1.412 1_556 S
C1375 N1378 1.384 . S
C1376 H1367 0.929 . S
C1376 C1368 1.378 . S
C1376 C1371 1.367 . S
C1377 H1364 0.929 . S
C1377 C1369 1.424 1_554 S
C1377 N1379 1.384 . S
N1378 C1374 1.399 1_556 S
N1378 C1375 1.384 . S
N1379 C1371 1.411 1_554 S
N1379 C1377 1.384 . S
H1380 C1386 0.930 . S
H1381 C1390 0.930 . S
H1382 C1395 0.929 . S
H1383 C1393 0.929 . S
H1384 C1388 0.929 . S
H1385 C1394 0.929 . S
C1386 H1380 0.930 . S
C1386 C1387 1.367 . S
C1386 C1394 1.378 . S
C1387 C1386 1.367 . S
C1387 C1395 1.433 . S
C1388 H1384 0.929 . S
C1388 C1390 1.378 . S
C1388 C1392 1.350 . S
C1389 C1392 1.463 . S
C1389 C1394 1.350 . S
C1389 N1397 1.427 . S
C1390 H1381 0.930 . S
C1390 C1388 1.378 . S
C1390 C1391 1.367 . S
C1391 C1390 1.367 . S
C1391 C1393 1.433 . S
C1392 C1388 1.350 . S
C1392 C1389 1.463 . S
C1392 N1396 1.427 . S
C1393 H1383 0.929 . S
C1393 C1391 1.433 . S
C1393 N1396 1.384 . S
C1394 H1385 0.929 . S
C1394 C1386 1.378 . S
C1394 C1389 1.350 . S
C1395 H1382 0.929 . S
C1395 C1387 1.433 . S
C1395 N1397 1.384 . S
N1396 C1392 1.427 . S
N1396 C1393 1.384 . S
N1397 C1389 1.427 . S
N1397 C1395 1.384 . S
H1398 C1404 0.930 . S
H1399 C1408 0.930 . S
H1400 C1413 0.929 . S
H1401 C1411 0.929 . S
H1402 C1406 0.929 . S
H1403 C1412 0.929 . S
C1404 H1398 0.930 . S
C1404 C1405 1.367 . S
C1404 C1412 1.378 . S
C1405 C1404 1.367 . S
C1405 C1413 1.433 . S
C1406 H1402 0.929 . S
C1406 C1408 1.378 . S
C1406 C1410 1.350 . S
C1407 C1410 1.463 . S
C1407 C1412 1.350 . S
C1407 N1415 1.427 . S
C1408 H1399 0.930 . S
C1408 C1406 1.378 . S
C1408 C1409 1.367 . S
C1409 C1408 1.367 . S
C1409 C1411 1.433 . S
C1410 C1406 1.350 . S
C1410 C1407 1.463 . S
C1410 N1414 1.427 . S
C1411 H1401 0.929 . S
C1411 C1409 1.433 . S
C1411 N1414 1.384 . S
C1412 H1403 0.929 . S
C1412 C1404 1.378 . S
C1412 C1407 1.350 . S
C1413 H1400 0.929 . S
C1413 C1405 1.433 . S
C1413 N1415 1.384 . S
N1414 C1410 1.427 . S
N1414 C1411 1.384 . S
N1415 C1407 1.427 . S
N1415 C1413 1.384 . S
H1416 C1422 0.930 . S
H1417 C1426 0.930 . S
H1418 C1431 0.929 . S
H1419 C1429 0.929 . S
H1420 C1424 0.929 . S
H1421 C1430 0.929 . S
C1422 H1416 0.930 . S
C1422 C1423 1.367 . S
C1422 C1430 1.378 . S
C1423 C1422 1.367 . S
C1423 C1431 1.433 . S
C1424 H1420 0.929 . S
C1424 C1426 1.378 . S
C1424 C1428 1.350 . S
C1425 C1428 1.463 . S
C1425 C1430 1.350 . S
C1425 N1433 1.427 . S
C1426 H1417 0.930 . S
C1426 C1424 1.378 . S
C1426 C1427 1.367 . S
C1427 C1426 1.367 . S
C1427 C1429 1.433 . S
C1428 C1424 1.350 . S
C1428 C1425 1.463 . S
C1428 N1432 1.427 . S
C1429 H1419 0.929 . S
C1429 C1427 1.433 . S
C1429 N1432 1.384 . S
C1430 H1421 0.929 . S
C1430 C1422 1.378 . S
C1430 C1425 1.350 . S
C1431 H1418 0.929 . S
C1431 C1423 1.433 . S
C1431 N1433 1.384 . S
N1432 C1428 1.427 . S
N1432 C1429 1.384 . S
N1433 C1425 1.427 . S
N1433 C1431 1.384 . S
H1434 C1440 0.930 . S
H1435 C1444 0.930 . S
H1436 C1449 0.929 . S
H1437 C1447 0.929 . S
H1438 C1442 0.929 . S
H1439 C1448 0.929 . S
C1440 H1434 0.930 . S
C1440 C1441 1.367 . S
C1440 C1448 1.378 . S
C1441 C1440 1.367 . S
C1441 C1449 1.433 . S
C1442 H1438 0.929 . S
C1442 C1444 1.378 . S
C1442 C1446 1.350 . S
C1443 C1446 1.463 . S
C1443 C1448 1.350 . S
C1443 N1451 1.427 . S
C1444 H1435 0.930 . S
C1444 C1442 1.378 . S
C1444 C1445 1.367 . S
C1445 C1444 1.367 . S
C1445 C1447 1.433 . S
C1446 C1442 1.350 . S
C1446 C1443 1.463 . S
C1446 N1450 1.427 . S
C1447 H1437 0.929 . S
C1447 C1445 1.433 . S
C1447 N1450 1.384 . S
C1448 H1439 0.929 . S
C1448 C1440 1.378 . S
C1448 C1443 1.350 . S
C1449 H1436 0.929 . S
C1449 C1441 1.433 . S
C1449 N1451 1.384 . S
N1450 C1446 1.427 . S
N1450 C1447 1.384 . S
N1451 C1443 1.427 . S
N1451 C1449 1.384 . S
H1452 C1458 0.930 . S
H1453 C1462 0.930 . S
H1454 C1467 0.929 . S
H1455 C1465 0.929 . S
H1456 C1460 0.929 . S
H1457 C1466 0.929 . S
C1458 H1452 0.930 . S
C1458 C1459 1.367 . S
C1458 C1466 1.378 . S
C1459 C1458 1.367 . S
C1459 C1467 1.433 . S
C1460 H1456 0.929 . S
C1460 C1462 1.378 . S
C1460 C1464 1.350 . S
C1461 C1464 1.463 . S
C1461 C1466 1.350 . S
C1461 N1469 1.427 . S
C1462 H1453 0.930 . S
C1462 C1460 1.378 . S
C1462 C1463 1.367 . S
C1463 C1462 1.367 . S
C1463 C1465 1.433 . S
C1464 C1460 1.350 . S
C1464 C1461 1.463 . S
C1464 N1468 1.427 . S
C1465 H1455 0.929 . S
C1465 C1463 1.433 . S
C1465 N1468 1.384 . S
C1466 H1457 0.929 . S
C1466 C1458 1.378 . S
C1466 C1461 1.350 . S
C1467 H1454 0.929 . S
C1467 C1459 1.433 . S
C1467 N1469 1.384 . S
N1468 C1464 1.427 . S
N1468 C1465 1.384 . S
N1469 C1461 1.427 . S
N1469 C1467 1.384 . S
H1470 C1476 0.930 . S
H1471 C1480 0.930 . S
H1472 C1485 0.929 . S
H1473 C1483 0.929 . S
H1474 C1478 0.929 . S
H1475 C1484 0.929 . S
C1476 H1470 0.930 . S
C1476 C1477 1.367 . S
C1476 C1484 1.378 . S
C1477 C1476 1.367 . S
C1477 C1485 1.433 . S
C1478 H1474 0.929 . S
C1478 C1480 1.378 . S
C1478 C1482 1.350 . S
C1479 C1482 1.463 . S
C1479 C1484 1.350 . S
C1479 N1487 1.427 . S
C1480 H1471 0.930 . S
C1480 C1478 1.378 . S
C1480 C1481 1.367 . S
C1481 C1480 1.367 . S
C1481 C1483 1.433 . S
C1482 C1478 1.350 . S
C1482 C1479 1.463 . S
C1482 N1486 1.427 . S
C1483 H1473 0.929 . S
C1483 C1481 1.433 . S
C1483 N1486 1.384 . S
C1484 H1475 0.929 . S
C1484 C1476 1.378 . S
C1484 C1479 1.350 . S
C1485 H1472 0.929 . S
C1485 C1477 1.433 . S
C1485 N1487 1.384 . S
N1486 C1482 1.427 . S
N1486 C1483 1.384 . S
N1487 C1479 1.427 . S
N1487 C1485 1.384 . S
H1488 C1494 0.930 . S
H1489 C1498 0.930 . S
H1490 C1503 0.929 . S
H1491 C1501 0.929 . S
H1492 C1496 0.929 . S
H1493 C1502 0.929 . S
C1494 H1488 0.930 . S
C1494 C1495 1.367 . S
C1494 C1502 1.378 . S
C1495 C1494 1.367 . S
C1495 C1503 1.433 . S
C1496 H1492 0.929 . S
C1496 C1498 1.378 . S
C1496 C1500 1.350 . S
C1497 C1500 1.463 . S
C1497 C1502 1.350 . S
C1497 N1505 1.427 . S
C1498 H1489 0.930 . S
C1498 C1496 1.378 . S
C1498 C1499 1.367 . S
C1499 C1498 1.367 . S
C1499 C1501 1.433 . S
C1500 C1496 1.350 . S
C1500 C1497 1.463 . S
C1500 N1504 1.427 . S
C1501 H1491 0.929 . S
C1501 C1499 1.433 . S
C1501 N1504 1.384 . S
C1502 H1493 0.929 . S
C1502 C1494 1.378 . S
C1502 C1497 1.350 . S
C1503 H1490 0.929 . S
C1503 C1495 1.433 . S
C1503 N1505 1.384 . S
N1504 C1500 1.427 . S
N1504 C1501 1.384 . S
N1505 C1497 1.427 . S
N1505 C1503 1.384 . S
H1506 C1512 0.930 . S
H1507 C1516 0.930 . S
H1508 C1521 0.929 . S
H1509 C1519 0.929 . S
H1510 C1514 0.929 . S
H1511 C1520 0.929 . S
C1512 H1506 0.930 . S
C1512 C1513 1.367 . S
C1512 C1520 1.378 . S
C1513 C1512 1.367 . S
C1513 C1521 1.433 . S
C1514 H1510 0.929 . S
C1514 C1516 1.378 . S
C1514 C1518 1.350 . S
C1515 C1518 1.463 . S
C1515 C1520 1.350 . S
C1515 N1523 1.427 . S
C1516 H1507 0.930 . S
C1516 C1514 1.378 . S
C1516 C1517 1.367 . S
C1517 C1516 1.367 . S
C1517 C1519 1.433 . S
C1518 C1514 1.350 . S
C1518 C1515 1.463 . S
C1518 N1522 1.427 . S
C1519 H1509 0.929 . S
C1519 C1517 1.433 . S
C1519 N1522 1.384 . S
C1520 H1511 0.929 . S
C1520 C1512 1.378 . S
C1520 C1515 1.350 . S
C1521 H1508 0.929 . S
C1521 C1513 1.433 . S
C1521 N1523 1.384 . S
N1522 C1518 1.427 . S
N1522 C1519 1.384 . S
N1523 C1515 1.427 . S
N1523 C1521 1.384 . S
H1524 C1530 0.930 . S
H1525 C1534 0.930 . S
H1526 C1539 0.929 . S
H1527 C1537 0.929 . S
H1528 C1532 0.929 . S
H1529 C1538 0.929 . S
C1530 H1524 0.930 . S
C1530 C1531 1.367 . S
C1530 C1538 1.378 . S
C1531 C1530 1.367 . S
C1531 C1539 1.433 . S
C1532 H1528 0.929 . S
C1532 C1534 1.378 . S
C1532 C1536 1.350 . S
C1533 C1536 1.463 . S
C1533 C1538 1.350 . S
C1533 N1541 1.427 . S
C1534 H1525 0.930 . S
C1534 C1532 1.378 . S
C1534 C1535 1.367 . S
C1535 C1534 1.367 . S
C1535 C1537 1.433 . S
C1536 C1532 1.350 . S
C1536 C1533 1.463 . S
C1536 N1540 1.427 . S
C1537 H1527 0.929 . S
C1537 C1535 1.433 . S
C1537 N1540 1.384 . S
C1538 H1529 0.929 . S
C1538 C1530 1.378 . S
C1538 C1533 1.350 . S
C1539 H1526 0.929 . S
C1539 C1531 1.433 . S
C1539 N1541 1.384 . S
N1540 C1536 1.427 . S
N1540 C1537 1.384 . S
N1541 C1533 1.427 . S
N1541 C1539 1.384 . S
H1542 C1548 0.930 . S
H1543 C1552 0.930 . S
H1544 C1557 0.929 . S
H1545 C1555 0.929 . S
H1546 C1550 0.929 . S
H1547 C1556 0.929 . S
C1548 H1542 0.930 . S
C1548 C1549 1.367 . S
C1548 C1556 1.378 . S
C1549 C1548 1.367 . S
C1549 C1557 1.433 . S
C1550 H1546 0.929 . S
C1550 C1552 1.378 . S
C1550 C1554 1.350 . S
C1551 C1554 1.463 . S
C1551 C1556 1.350 . S
C1551 N1559 1.427 . S
C1552 H1543 0.930 . S
C1552 C1550 1.378 . S
C1552 C1553 1.367 . S
C1553 C1552 1.367 . S
C1553 C1555 1.433 . S
C1554 C1550 1.350 . S
C1554 C1551 1.463 . S
C1554 N1558 1.427 . S
C1555 H1545 0.929 . S
C1555 C1553 1.433 . S
C1555 N1558 1.384 . S
C1556 H1547 0.929 . S
C1556 C1548 1.378 . S
C1556 C1551 1.350 . S
C1557 H1544 0.929 . S
C1557 C1549 1.433 . S
C1557 N1559 1.384 . S
N1558 C1554 1.427 . S
N1558 C1555 1.384 . S
N1559 C1551 1.427 . S
N1559 C1557 1.384 . S
H1560 C1566 0.930 . S
H1561 C1570 0.930 . S
H1562 C1575 0.929 . S
H1563 C1573 0.929 . S
H1564 C1568 0.929 . S
H1565 C1574 0.929 . S
C1566 H1560 0.930 . S
C1566 C1567 1.367 . S
C1566 C1574 1.378 . S
C1567 C1566 1.367 . S
C1567 C1575 1.433 . S
C1568 H1564 0.929 . S
C1568 C1570 1.378 . S
C1568 C1572 1.350 . S
C1569 C1572 1.463 . S
C1569 C1574 1.350 . S
C1569 N1577 1.427 . S
C1570 H1561 0.930 . S
C1570 C1568 1.378 . S
C1570 C1571 1.367 . S
C1571 C1570 1.367 . S
C1571 C1573 1.433 . S
C1572 C1568 1.350 . S
C1572 C1569 1.463 . S
C1572 N1576 1.427 . S
C1573 H1563 0.929 . S
C1573 C1571 1.433 . S
C1573 N1576 1.384 . S
C1574 H1565 0.929 . S
C1574 C1566 1.378 . S
C1574 C1569 1.350 . S
C1575 H1562 0.929 . S
C1575 C1567 1.433 . S
C1575 N1577 1.384 . S
N1576 C1572 1.427 . S
N1576 C1573 1.384 . S
N1577 C1569 1.427 . S
N1577 C1575 1.384 . S
H1578 C1584 0.930 . S
H1579 C1588 0.930 . S
H1580 C1593 0.929 . S
H1581 C1591 0.929 . S
H1582 C1586 0.929 . S
H1583 C1592 0.929 . S
C1584 H1578 0.930 . S
C1584 C1585 1.367 . S
C1584 C1592 1.378 . S
C1585 C1584 1.367 . S
C1585 C1593 1.433 . S
C1586 H1582 0.929 . S
C1586 C1588 1.378 . S
C1586 C1590 1.350 . S
C1587 C1590 1.463 . S
C1587 C1592 1.350 . S
C1587 N1595 1.427 . S
C1588 H1579 0.930 . S
C1588 C1586 1.378 . S
C1588 C1589 1.367 . S
C1589 C1588 1.367 . S
C1589 C1591 1.433 . S
C1590 C1586 1.350 . S
C1590 C1587 1.463 . S
C1590 N1594 1.427 . S
C1591 H1581 0.929 . S
C1591 C1589 1.433 . S
C1591 N1594 1.384 . S
C1592 H1583 0.929 . S
C1592 C1584 1.378 . S
C1592 C1587 1.350 . S
C1593 H1580 0.929 . S
C1593 C1585 1.433 . S
C1593 N1595 1.384 . S
N1594 C1590 1.427 . S
N1594 C1591 1.384 . S
N1595 C1587 1.427 . S
N1595 C1593 1.384 . S
H1596 C1602 0.930 . S
H1597 C1606 0.930 . S
H1598 C1611 0.929 . S
H1599 C1609 0.929 . S
H1600 C1604 0.929 . S
H1601 C1610 0.929 . S
C1602 H1596 0.930 . S
C1602 C1603 1.367 . S
C1602 C1610 1.378 . S
C1603 C1602 1.367 . S
C1603 C1611 1.433 . S
C1604 H1600 0.929 . S
C1604 C1606 1.378 . S
C1604 C1608 1.350 . S
C1605 C1608 1.463 . S
C1605 C1610 1.350 . S
C1605 N1613 1.427 . S
C1606 H1597 0.930 . S
C1606 C1604 1.378 . S
C1606 C1607 1.367 . S
C1607 C1606 1.367 . S
C1607 C1609 1.433 . S
C1608 C1604 1.350 . S
C1608 C1605 1.463 . S
C1608 N1612 1.427 . S
C1609 H1599 0.929 . S
C1609 C1607 1.433 . S
C1609 N1612 1.384 . S
C1610 H1601 0.929 . S
C1610 C1602 1.378 . S
C1610 C1605 1.350 . S
C1611 H1598 0.929 . S
C1611 C1603 1.433 . S
C1611 N1613 1.384 . S
N1612 C1608 1.427 . S
N1612 C1609 1.384 . S
N1613 C1605 1.427 . S
N1613 C1611 1.384 . S
H1614 C1620 0.930 . S
H1615 C1624 0.930 . S
H1616 C1629 0.929 . S
H1617 C1627 0.929 . S
H1618 C1622 0.929 . S
H1619 C1628 0.929 . S
C1620 H1614 0.930 . S
C1620 C1621 1.367 . S
C1620 C1628 1.378 . S
C1621 C1620 1.367 . S
C1621 C1629 1.433 . S
C1622 H1618 0.929 . S
C1622 C1624 1.378 . S
C1622 C1626 1.350 . S
C1623 C1626 1.463 . S
C1623 C1628 1.350 . S
C1623 N1631 1.427 . S
C1624 H1615 0.930 . S
C1624 C1622 1.378 . S
C1624 C1625 1.367 . S
C1625 C1624 1.367 . S
C1625 C1627 1.433 . S
C1626 C1622 1.350 . S
C1626 C1623 1.463 . S
C1626 N1630 1.427 . S
C1627 H1617 0.929 . S
C1627 C1625 1.433 . S
C1627 N1630 1.384 . S
C1628 H1619 0.929 . S
C1628 C1620 1.378 . S
C1628 C1623 1.350 . S
C1629 H1616 0.929 . S
C1629 C1621 1.433 . S
C1629 N1631 1.384 . S
N1630 C1626 1.427 . S
N1630 C1627 1.384 . S
N1631 C1623 1.427 . S
N1631 C1629 1.384 . S
H1632 C1638 0.930 . S
H1633 C1642 0.930 . S
H1634 C1647 0.929 . S
H1635 C1645 0.929 . S
H1636 C1640 0.929 . S
H1637 C1646 0.929 . S
C1638 H1632 0.930 . S
C1638 C1639 1.367 . S
C1638 C1646 1.378 . S
C1639 C1638 1.367 . S
C1639 C1647 1.433 . S
C1640 H1636 0.929 . S
C1640 C1642 1.378 . S
C1640 C1644 1.350 . S
C1641 C1644 1.463 . S
C1641 C1646 1.350 . S
C1641 N1649 1.427 . S
C1642 H1633 0.930 . S
C1642 C1640 1.378 . S
C1642 C1643 1.367 . S
C1643 C1642 1.367 . S
C1643 C1645 1.433 . S
C1644 C1640 1.350 . S
C1644 C1641 1.463 . S
C1644 N1648 1.427 . S
C1645 H1635 0.929 . S
C1645 C1643 1.433 . S
C1645 N1648 1.384 . S
C1646 H1637 0.929 . S
C1646 C1638 1.378 . S
C1646 C1641 1.350 . S
C1647 H1634 0.929 . S
C1647 C1639 1.433 . S
C1647 N1649 1.384 . S
N1648 C1644 1.427 . S
N1648 C1645 1.384 . S
N1649 C1641 1.427 . S
N1649 C1647 1.384 . S
H1650 C1656 0.930 . S
H1651 C1660 0.930 . S
H1652 C1665 0.929 . S
H1653 C1663 0.929 . S
H1654 C1658 0.929 . S
H1655 C1664 0.929 . S
C1656 H1650 0.930 . S
C1656 C1657 1.367 . S
C1656 C1664 1.378 . S
C1657 C1656 1.367 . S
C1657 C1665 1.433 . S
C1658 H1654 0.929 . S
C1658 C1660 1.378 . S
C1658 C1662 1.350 . S
C1659 C1662 1.463 . S
C1659 C1664 1.350 . S
C1659 N1667 1.427 . S
C1660 H1651 0.930 . S
C1660 C1658 1.378 . S
C1660 C1661 1.367 . S
C1661 C1660 1.367 . S
C1661 C1663 1.433 . S
C1662 C1658 1.350 . S
C1662 C1659 1.463 . S
C1662 N1666 1.427 . S
C1663 H1653 0.929 . S
C1663 C1661 1.433 . S
C1663 N1666 1.384 . S
C1664 H1655 0.929 . S
C1664 C1656 1.378 . S
C1664 C1659 1.350 . S
C1665 H1652 0.929 . S
C1665 C1657 1.433 . S
C1665 N1667 1.384 . S
N1666 C1662 1.427 . S
N1666 C1663 1.384 . S
N1667 C1659 1.427 . S
N1667 C1665 1.384 . S
H1668 C1674 0.930 . S
H1669 C1678 0.930 . S
H1670 C1683 0.929 . S
H1671 C1681 0.929 . S
H1672 C1676 0.929 . S
H1673 C1682 0.929 . S
C1674 H1668 0.930 . S
C1674 C1675 1.367 . S
C1674 C1682 1.378 . S
C1675 C1674 1.367 . S
C1675 C1683 1.433 . S
C1676 H1672 0.929 . S
C1676 C1678 1.378 . S
C1676 C1680 1.350 . S
C1677 C1680 1.463 . S
C1677 C1682 1.350 . S
C1677 N1685 1.427 . S
C1678 H1669 0.930 . S
C1678 C1676 1.378 . S
C1678 C1679 1.367 . S
C1679 C1678 1.367 . S
C1679 C1681 1.433 . S
C1680 C1676 1.350 . S
C1680 C1677 1.463 . S
C1680 N1684 1.427 . S
C1681 H1671 0.929 . S
C1681 C1679 1.433 . S
C1681 N1684 1.384 . S
C1682 H1673 0.929 . S
C1682 C1674 1.378 . S
C1682 C1677 1.350 . S
C1683 H1670 0.929 . S
C1683 C1675 1.433 . S
C1683 N1685 1.384 . S
N1684 C1680 1.427 . S
N1684 C1681 1.384 . S
N1685 C1677 1.427 . S
N1685 C1683 1.384 . S
H1686 C1692 0.930 . S
H1687 C1696 0.930 . S
H1688 C1701 0.929 . S
H1689 C1699 0.929 . S
H1690 C1694 0.929 . S
H1691 C1700 0.929 . S
C1692 H1686 0.930 . S
C1692 C1693 1.367 . S
C1692 C1700 1.378 . S
C1693 C1692 1.367 . S
C1693 C1701 1.433 . S
C1694 H1690 0.929 . S
C1694 C1696 1.378 . S
C1694 C1698 1.350 . S
C1695 C1698 1.463 . S
C1695 C1700 1.350 . S
C1695 N1703 1.427 . S
C1696 H1687 0.930 . S
C1696 C1694 1.378 . S
C1696 C1697 1.367 . S
C1697 C1696 1.367 . S
C1697 C1699 1.433 . S
C1698 C1694 1.350 . S
C1698 C1695 1.463 . S
C1698 N1702 1.427 . S
C1699 H1689 0.929 . S
C1699 C1697 1.433 . S
C1699 N1702 1.384 . S
C1700 H1691 0.929 . S
C1700 C1692 1.378 . S
C1700 C1695 1.350 . S
C1701 H1688 0.929 . S
C1701 C1693 1.433 . S
C1701 N1703 1.384 . S
N1702 C1698 1.427 . S
N1702 C1699 1.384 . S
N1703 C1695 1.427 . S
N1703 C1701 1.384 . S
H1704 C1710 0.930 . S
H1705 C1714 0.930 . S
H1706 C1719 0.929 . S
H1707 C1717 0.929 . S
H1708 C1712 0.929 . S
H1709 C1718 0.929 . S
C1710 H1704 0.930 . S
C1710 C1711 1.367 . S
C1710 C1718 1.378 . S
C1711 C1710 1.367 . S
C1711 C1719 1.433 . S
C1712 H1708 0.929 . S
C1712 C1714 1.378 . S
C1712 C1716 1.350 . S
C1713 C1716 1.463 . S
C1713 C1718 1.350 . S
C1713 N1721 1.427 . S
C1714 H1705 0.930 . S
C1714 C1712 1.378 . S
C1714 C1715 1.367 . S
C1715 C1714 1.367 . S
C1715 C1717 1.433 . S
C1716 C1712 1.350 . S
C1716 C1713 1.463 . S
C1716 N1720 1.427 . S
C1717 H1707 0.929 . S
C1717 C1715 1.433 . S
C1717 N1720 1.384 . S
C1718 H1709 0.929 . S
C1718 C1710 1.378 . S
C1718 C1713 1.350 . S
C1719 H1706 0.929 . S
C1719 C1711 1.433 . S
C1719 N1721 1.384 . S
N1720 C1716 1.427 . S
N1720 C1717 1.384 . S
N1721 C1713 1.427 . S
N1721 C1719 1.384 . S
H1722 C1728 0.930 . S
H1723 C1732 0.930 . S
H1724 C1737 0.929 . S
H1725 C1735 0.929 . S
H1726 C1730 0.929 . S
H1727 C1736 0.929 . S
C1728 H1722 0.930 . S
C1728 C1729 1.367 . S
C1728 C1736 1.378 . S
C1729 C1728 1.367 . S
C1729 C1737 1.433 . S
C1730 H1726 0.929 . S
C1730 C1732 1.378 . S
C1730 C1734 1.350 . S
C1731 C1734 1.463 . S
C1731 C1736 1.350 . S
C1731 N1739 1.427 . S
C1732 H1723 0.930 . S
C1732 C1730 1.378 . S
C1732 C1733 1.367 . S
C1733 C1732 1.367 . S
C1733 C1735 1.433 . S
C1734 C1730 1.350 . S
C1734 C1731 1.463 . S
C1734 N1738 1.427 . S
C1735 H1725 0.929 . S
C1735 C1733 1.433 . S
C1735 N1738 1.384 . S
C1736 H1727 0.929 . S
C1736 C1728 1.378 . S
C1736 C1731 1.350 . S
C1737 H1724 0.929 . S
C1737 C1729 1.433 . S
C1737 N1739 1.384 . S
N1738 C1734 1.427 . S
N1738 C1735 1.384 . S
N1739 C1731 1.427 . S
N1739 C1737 1.384 . S
H1740 C1746 0.930 . S
H1741 C1750 0.930 . S
H1742 C1755 0.929 . S
H1743 C1753 0.929 . S
H1744 C1748 0.929 . S
H1745 C1754 0.929 . S
C1746 H1740 0.930 . S
C1746 C1747 1.367 . S
C1746 C1754 1.378 . S
C1747 C1746 1.367 . S
C1747 C1755 1.433 . S
C1748 H1744 0.929 . S
C1748 C1750 1.378 . S
C1748 C1752 1.350 . S
C1749 C1752 1.463 . S
C1749 C1754 1.350 . S
C1749 N1757 1.427 . S
C1750 H1741 0.930 . S
C1750 C1748 1.378 . S
C1750 C1751 1.367 . S
C1751 C1750 1.367 . S
C1751 C1753 1.433 . S
C1752 C1748 1.350 . S
C1752 C1749 1.463 . S
C1752 N1756 1.427 . S
C1753 H1743 0.929 . S
C1753 C1751 1.433 . S
C1753 N1756 1.384 . S
C1754 H1745 0.929 . S
C1754 C1746 1.378 . S
C1754 C1749 1.350 . S
C1755 H1742 0.929 . S
C1755 C1747 1.433 . S
C1755 N1757 1.384 . S
N1756 C1752 1.427 . S
N1756 C1753 1.384 . S
N1757 C1749 1.427 . S
N1757 C1755 1.384 . S
H1758 C1764 0.930 . S
H1759 C1768 0.930 . S
H1760 C1773 0.929 . S
H1761 C1771 0.929 . S
H1762 C1766 0.929 . S
H1763 C1772 0.929 . S
C1764 H1758 0.930 . S
C1764 C1765 1.367 . S
C1764 C1772 1.378 . S
C1765 C1764 1.367 . S
C1765 C1773 1.433 . S
C1766 H1762 0.929 . S
C1766 C1768 1.378 . S
C1766 C1770 1.350 . S
C1767 C1770 1.463 . S
C1767 C1772 1.350 . S
C1767 N1775 1.427 . S
C1768 H1759 0.930 . S
C1768 C1766 1.378 . S
C1768 C1769 1.367 . S
C1769 C1768 1.367 . S
C1769 C1771 1.433 . S
C1770 C1766 1.350 . S
C1770 C1767 1.463 . S
C1770 N1774 1.427 . S
C1771 H1761 0.929 . S
C1771 C1769 1.433 . S
C1771 N1774 1.384 . S
C1772 H1763 0.929 . S
C1772 C1764 1.378 . S
C1772 C1767 1.350 . S
C1773 H1760 0.929 . S
C1773 C1765 1.433 . S
C1773 N1775 1.384 . S
N1774 C1770 1.427 . S
N1774 C1771 1.384 . S
N1775 C1767 1.427 . S
N1775 C1773 1.384 . S
H1776 C1782 0.930 . S
H1777 C1786 0.930 . S
H1778 C1791 0.929 . S
H1779 C1789 0.929 . S
H1780 C1784 0.929 . S
H1781 C1790 0.929 . S
C1782 H1776 0.930 . S
C1782 C1783 1.367 . S
C1782 C1790 1.378 . S
C1783 C1782 1.367 . S
C1783 C1791 1.433 . S
C1784 H1780 0.929 . S
C1784 C1786 1.378 . S
C1784 C1788 1.350 . S
C1785 C1788 1.463 . S
C1785 C1790 1.350 . S
C1785 N1793 1.427 . S
C1786 H1777 0.930 . S
C1786 C1784 1.378 . S
C1786 C1787 1.367 . S
C1787 C1786 1.367 . S
C1787 C1789 1.433 . S
C1788 C1784 1.350 . S
C1788 C1785 1.463 . S
C1788 N1792 1.427 . S
C1789 H1779 0.929 . S
C1789 C1787 1.433 . S
C1789 N1792 1.384 . S
C1790 H1781 0.929 . S
C1790 C1782 1.378 . S
C1790 C1785 1.350 . S
C1791 H1778 0.929 . S
C1791 C1783 1.433 . S
C1791 N1793 1.384 . S
N1792 C1788 1.427 . S
N1792 C1789 1.384 . S
N1793 C1785 1.427 . S
N1793 C1791 1.384 . S
H1794 C1800 0.930 . S
H1795 C1804 0.930 . S
H1796 C1809 0.929 . S
H1797 C1807 0.929 . S
H1798 C1802 0.929 . S
H1799 C1808 0.929 . S
C1800 H1794 0.930 . S
C1800 C1801 1.367 . S
C1800 C1808 1.378 . S
C1801 C1800 1.367 . S
C1801 C1809 1.433 . S
C1802 H1798 0.929 . S
C1802 C1804 1.378 . S
C1802 C1806 1.350 . S
C1803 C1806 1.463 . S
C1803 C1808 1.350 . S
C1803 N1811 1.427 . S
C1804 H1795 0.930 . S
C1804 C1802 1.378 . S
C1804 C1805 1.367 . S
C1805 C1804 1.367 . S
C1805 C1807 1.433 . S
C1806 C1802 1.350 . S
C1806 C1803 1.463 . S
C1806 N1810 1.427 . S
C1807 H1797 0.929 . S
C1807 C1805 1.433 . S
C1807 N1810 1.384 . S
C1808 H1799 0.929 . S
C1808 C1800 1.378 . S
C1808 C1803 1.350 . S
C1809 H1796 0.929 . S
C1809 C1801 1.433 . S
C1809 N1811 1.384 . S
N1810 C1806 1.427 . S
N1810 C1807 1.384 . S
N1811 C1803 1.427 . S
N1811 C1809 1.384 . S
C527 C222 1.130 . S
C523 C212 1.130 . S
C541 C194 1.133 . S
C545 C220 1.133 . S
C563 C221 1.133 . S
C559 C185 1.132 . S
C577 C203 1.129 . S
C581 C223 1.130 . S
C599 C267 1.133 . S
C595 C149 1.133 . S
C617 C327 1.133 . S
C613 C158 1.132 . S
C631 C167 1.129 . S
C635 C266 1.130 . S
C653 C326 1.136 . S
C649 C176 1.135 . S
C667 C113 1.130 . S
C671 C268 1.129 . S
C689 C324 1.133 . S
C685 C122 1.134 . S
C703 C131 1.133 . S
C707 C269 1.133 . S
C721 C140 1.129 . S
C725 C325 1.131 . S
C743 C375 1.128 1_556 S
C739 C104 1.128 . S
C757 C86 1.131 . S
C761 C374 1.131 . S
C775 C77 1.134 1_554 S
C779 C376 1.135 1_556 S
C797 C377 1.132 . S
C793 C95 1.131 1_554 S
C811 C41 1.129 1_455 S
C815 C418 1.129 . S
C829 C50 1.131 1_545 S
C833 C477 1.131 . S
C847 C59 1.129 1_455 S
C851 C416 1.129 . S
C865 C68 1.133 1_545 S
C869 C476 1.134 1_565 S
C887 C417 1.133 . S
C883 C5 1.132 . S
C905 C474 1.134 . S
C901 C14 1.134 1_565 S
C919 C23 1.132 . S
C923 C419 1.133 1_655 S
C941 C475 1.131 . S
C937 C32 1.131 . S
C959 C219 1.558 . S
C955 C4 1.504 . S
C973 C16 1.482 . S
C977 C225 1.555 1_565 S
C991 C22 1.503 . S
C995 C217 1.559 1_655 S
C1009 C31 1.504 . S
C1013 C224 1.561 1_565 S
C1027 C40 1.492 1_655 S
C1031 C216 1.557 . S
C1049 C226 1.561 1_565 S
C1045 C49 1.501 . S
C1063 C61 1.473 1_455 S
C1067 C218 1.549 . S
C1085 C227 1.555 1_565 S
C1081 C70 1.480 1_545 S
C1103 C273 1.553 1_565 S
C1099 C34 1.479 . S
C1117 C7 1.479 1_455 S
C1121 C316 1.552 1_655 S
C1139 C271 1.562 . S
C1135 C13 1.499 1_565 S
C1157 C318 1.552 . S
C1153 C25 1.479 1_655 S
C1171 C52 1.484 1_545 S
C1175 C272 1.553 1_565 S
C1193 C317 1.558 . S
C1189 C58 1.494 1_655 S
C1211 C270 1.563 1_565 S
C1207 C67 1.504 . S
C1229 C319 1.550 . S
C1225 C43 1.475 1_455 S
C1247 C323 1.564 1_556 S
C1243 C76 1.508 1_554 S
C1261 C88 1.479 . S
C1265 C322 1.554 . S
C1283 C274 1.551 . S
C1279 C79 1.478 . S
C1301 C321 1.551 . S
C1297 C97 1.480 . S
C1315 C103 1.491 1_556 S
C1319 C277 1.556 . S
C1333 C106 1.482 1_556 S
C1337 C320 1.550 . S
C1355 C276 1.556 1_556 S
C1351 C85 1.497 1_554 S
C1373 C275 1.559 . S
C1369 C94 1.503 . S
C1391 C369 1.556 . S
C1387 C112 1.500 . S
C1409 C372 1.556 . S
C1405 C124 1.487 . S
C1423 C133 1.491 . S
C1427 C368 1.553 . S
C1445 C370 1.561 . S
C1441 C139 1.503 . S
C1463 C366 1.558 . S
C1459 C148 1.492 . S
C1477 C157 1.503 . S
C1481 C371 1.562 . S
C1495 C169 1.487 . S
C1499 C367 1.549 . S
C1517 C373 1.556 . S
C1513 C178 1.491 . S
C1535 C427 1.550 . S
C1531 C142 1.475 . S
C1549 C115 1.477 . S
C1553 C466 1.551 . S
C1571 C426 1.561 . S
C1567 C121 1.506 . S
C1589 C468 1.559 . S
C1585 C130 1.499 . S
C1607 C425 1.555 . S
C1603 C160 1.489 . S
C1621 C166 1.504 . S
C1625 C467 1.560 . S
C1643 C424 1.564 . S
C1639 C175 1.504 . S
C1661 C469 1.553 . S
C1657 C151 1.490 . S
C1679 C473 1.563 . S
C1675 C184 1.508 . S
C1693 C196 1.492 . S
C1697 C472 1.555 . S
C1715 C420 1.549 . S
C1711 C187 1.475 . S
C1729 C205 1.490 . S
C1733 C471 1.552 . S
C1751 C423 1.560 . S
C1747 C211 1.505 . S
C1769 C470 1.551 . S
C1765 C214 1.489 . S
C1787 C421 1.558 . S
C1783 C193 1.493 . S
C1801 C202 1.494 . S
C1805 C422 1.557 . S
