# Generated by pormake.
# Topology dag, (6,3)-cn, num edge types: 1
# Building blocks:
#     Node 0, Type 0, BuildingBlock: IZENUY_clean_sbu_0, # of connection points: 6
#     Node 1, Type 0, BuildingBlock: IZENUY_clean_sbu_0, # of connection points: 6
#     Node 2, Type 0, BuildingBlock: IZENUY_clean_sbu_0, # of connection points: 6
#     Node 3, Type 0, BuildingBlock: IZENUY_clean_sbu_0, # of connection points: 6
#     Node 4, Type 1, BuildingBlock: QEWDON_clean_linker_0, # of connection points: 3
#     Node 5, Type 1, BuildingBlock: QEWDON_clean_linker_0, # of connection points: 3
#     Node 6, Type 1, BuildingBlock: QEWDON_clean_linker_0, # of connection points: 3
#     Node 7, Type 1, BuildingBlock: QEWDON_clean_linker_0, # of connection points: 3
#     Node 8, Type 1, BuildingBlock: QEWDON_clean_linker_0, # of connection points: 3
#     Node 9, Type 1, BuildingBlock: QEWDON_clean_linker_0, # of connection points: 3
#     Node 10, Type 1, BuildingBlock: QEWDON_clean_linker_0, # of connection points: 3
#     Node 11, Type 1, BuildingBlock: QEWDON_clean_linker_0, # of connection points: 3
#     Edge 12, Type (0, 1), BuildingBlock: XUDNAN_clean_linker_2, # of connection points: 2
#     Edge 13, Type (0, 1), BuildingBlock: XUDNAN_clean_linker_2, # of connection points: 2
#     Edge 14, Type (0, 1), BuildingBlock: XUDNAN_clean_linker_2, # of connection points: 2
#     Edge 15, Type (0, 1), BuildingBlock: XUDNAN_clean_linker_2, # of connection points: 2
#     Edge 16, Type (0, 1), BuildingBlock: XUDNAN_clean_linker_2, # of connection points: 2
#     Edge 17, Type (0, 1), BuildingBlock: XUDNAN_clean_linker_2, # of connection points: 2
#     Edge 18, Type (0, 1), BuildingBlock: XUDNAN_clean_linker_2, # of connection points: 2
#     Edge 19, Type (0, 1), BuildingBlock: XUDNAN_clean_linker_2, # of connection points: 2
#     Edge 20, Type (0, 1), BuildingBlock: XUDNAN_clean_linker_2, # of connection points: 2
#     Edge 21, Type (0, 1), BuildingBlock: XUDNAN_clean_linker_2, # of connection points: 2
#     Edge 22, Type (0, 1), BuildingBlock: XUDNAN_clean_linker_2, # of connection points: 2
#     Edge 23, Type (0, 1), BuildingBlock: XUDNAN_clean_linker_2, # of connection points: 2
#     Edge 24, Type (0, 1), BuildingBlock: XUDNAN_clean_linker_2, # of connection points: 2
#     Edge 25, Type (0, 1), BuildingBlock: XUDNAN_clean_linker_2, # of connection points: 2
#     Edge 26, Type (0, 1), BuildingBlock: XUDNAN_clean_linker_2, # of connection points: 2
#     Edge 27, Type (0, 1), BuildingBlock: XUDNAN_clean_linker_2, # of connection points: 2
#     Edge 28, Type (0, 1), BuildingBlock: XUDNAN_clean_linker_2, # of connection points: 2
#     Edge 29, Type (0, 1), BuildingBlock: XUDNAN_clean_linker_2, # of connection points: 2
#     Edge 30, Type (0, 1), BuildingBlock: XUDNAN_clean_linker_2, # of connection points: 2
#     Edge 31, Type (0, 1), BuildingBlock: XUDNAN_clean_linker_2, # of connection points: 2
#     Edge 32, Type (0, 1), BuildingBlock: XUDNAN_clean_linker_2, # of connection points: 2
#     Edge 33, Type (0, 1), BuildingBlock: XUDNAN_clean_linker_2, # of connection points: 2
#     Edge 34, Type (0, 1), BuildingBlock: XUDNAN_clean_linker_2, # of connection points: 2
#     Edge 35, Type (0, 1), BuildingBlock: XUDNAN_clean_linker_2, # of connection points: 2
# Relax obj value: 0.042
# Max RMSD: 0.066
# Mean RMSD: 0.060
data_MOF--net-dag--node1-IZENUY_clean_sbu_0--node2-QEWDON_clean_linker_0--edge1-XUDNAN_clean_linker_2
_symmetry_space_group_name_H-M    P1
_symmetry_Int_Tables_number       1
_symmetry_cell_setting            triclinic
loop_
_symmetry_equiv_pos_as_xyz
'x, y, z'
_cell_length_a     41.59457
_cell_length_b     41.812664
_cell_length_c     37.971504
_cell_angle_alpha  91.278254
_cell_angle_beta   89.741998
_cell_angle_gamma 89.896726
loop_
_atom_site_label
_atom_site_type_symbol
_atom_site_fract_x
_atom_site_fract_y
_atom_site_fract_z
_atom_type_partial_charge
Fe0 Fe 0.19581 0.85978 0.0213 0.0
Fe1 Fe 0.12471 0.87917 0.02194 0.0
O2 O 0.15449 0.84886 0.02206 0.0
Fe3 Fe 0.14288 0.80798 0.02277 0.0
O4 O 0.17696 0.79554 0.05034 0.0
O5 O 0.20322 0.84028 0.06226 0.0
O6 O 0.19009 0.8972 0.04734 0.0
C7 C 0.16752 0.90543 0.06818 0.0
C8 C 0.19386 0.80413 0.97677 0.0
O9 O 0.13915 0.89601 0.06316 0.0
C10 C 0.09845 0.83596 0.97547 0.0
O11 O 0.19159 0.88026 0.98001 0.0
O12 O 0.14838 0.90716 0.99602 0.0
O13 O 0.16447 0.79894 0.98223 0.0
O14 O 0.20913 0.82431 0.99559 0.0
C15 C 0.09776 0.83366 0.06773 0.0
O16 O 0.10853 0.86406 0.98085 0.0
O17 O 0.10678 0.81341 0.99536 0.0
C18 C 0.17195 0.90271 0.97534 0.0
O19 O 0.09512 0.85717 0.04763 0.0
O20 O 0.12 0.81346 0.06332 0.0
C21 C 0.19697 0.81155 0.06869 0.0
Fe22 Fe 0.69241 0.63488 0.49929 0.0
Fe23 Fe 0.6349 0.68183 0.50717 0.0
O24 O 0.65045 0.64222 0.5041 0.0
Fe25 Fe 0.6236 0.60951 0.50566 0.0
O26 O 0.64218 0.59505 0.54527 0.0
O27 O 0.69186 0.5979 0.52533 0.0
O28 O 0.70137 0.65675 0.53999 0.0
C29 C 0.69203 0.68478 0.54795 0.0
C30 C 0.66809 0.58909 0.45419 0.0
O31 O 0.6694 0.698 0.53143 0.0
C32 C 0.5913 0.64922 0.462 0.0
O33 O 0.70012 0.67032 0.47255 0.0
O34 O 0.6524 0.69225 0.46523 0.0
O35 O 0.64781 0.58282 0.47779 0.0
O36 O 0.68679 0.61261 0.45784 0.0
C37 C 0.59658 0.65275 0.55549 0.0
O38 O 0.59748 0.67239 0.48304 0.0
O39 O 0.60391 0.62213 0.46596 0.0
C40 C 0.68148 0.68891 0.45631 0.0
O41 O 0.6163 0.67485 0.54974 0.0
O42 O 0.59375 0.6296 0.53385 0.0
C43 C 0.67143 0.58717 0.54714 0.0
Fe44 Fe 0.86492 0.18201 0.00473 0.0
Fe45 Fe 0.88343 0.1112 1.00119 0.0
O46 O 0.85344 0.14113 1.00093 0.0
Fe47 Fe 0.8124 0.12988 0.99715 0.0
O48 O 0.80095 0.16496 0.97109 0.0
O49 O 0.84641 0.1911 0.96318 0.0
O50 O 0.90324 0.17644 0.9802 0.0
C51 C 0.91174 0.15438 0.95853 0.0
C52 C 0.80803 0.17894 0.04642 0.0
O53 O 0.90123 0.12629 0.96136 0.0
C54 C 0.83861 0.08495 0.04433 0.0
O55 O 0.8843 0.1761 0.047 0.0
O56 O 0.9114 0.13376 0.02919 0.0
O57 O 0.80237 0.15003 0.03857 0.0
O58 O 0.8287 0.19474 0.02943 0.0
C59 C 0.8397 0.08675 0.95087 0.0
O60 O 0.86706 0.09479 0.04104 0.0
O61 O 0.81691 0.09276 0.02265 0.0
C62 C 0.90637 0.15597 0.05163 0.0
O63 O 0.86156 0.08258 0.97328 0.0
O64 O 0.81921 0.10871 0.95533 0.0
C65 C 0.81767 0.18535 0.95476 0.0
Fe66 Fe 0.37959 0.38038 0.52059 0.0
Fe67 Fe 0.3095 0.35924 0.52191 0.0
O68 O 0.3508 0.34938 0.52092 0.0
Fe69 Fe 0.36327 0.30883 0.52042 0.0
O70 O 0.40002 0.31646 0.54663 0.0
O71 O 0.396 0.36745 0.56186 0.0
O72 O 0.35501 0.40903 0.54633 0.0
C73 C 0.3324 0.40435 0.56802 0.0
C74 C 0.40689 0.33355 0.4744 0.0
O75 O 0.3137 0.38082 0.56394 0.0
C76 C 0.30967 0.30936 0.47426 0.0
O77 O 0.36442 0.39526 0.47923 0.0
O78 O 0.31409 0.39595 0.49684 0.0
O79 O 0.38481 0.31338 0.47892 0.0
O80 O 0.40979 0.35753 0.49504 0.0
C81 C 0.31293 0.30644 0.56701 0.0
O82 O 0.30309 0.33845 0.48022 0.0
O83 O 0.32871 0.29436 0.49413 0.0
C84 C 0.33579 0.40469 0.47563 0.0
O85 O 0.29722 0.32427 0.54682 0.0
O86 O 0.34256 0.30148 0.56188 0.0
C87 C 0.407 0.33987 0.56706 0.0
H88 H 0.16289 0.09827 0.25987 0.0
C89 C 0.14276 0.10812 0.24565 0.0
C90 C 0.13456 0.09542 0.21231 0.0
C91 C 0.12409 0.13245 0.26159 0.0
H92 H 0.1014 0.09844 0.16912 0.0
C93 C 0.108 0.10825 0.19471 0.0
C94 C 0.08873 0.13229 0.2105 0.0
C95 C 0.0971 0.14441 0.24404 0.0
C96 C 0.13024 0.14216 0.29852 0.0
H97 H 0.08196 0.16215 0.25719 0.0
C98 C 0.15578 0.16275 0.30744 0.0
C99 C 0.16185 0.17092 0.34302 0.0
C100 C 0.11076 0.12982 0.32518 0.0
H101 H 0.09106 0.11385 0.3187 0.0
C102 C 0.11682 0.13763 0.36042 0.0
H103 H 0.17086 0.17225 0.28681 0.0
C104 C 0.14219 0.15798 0.36935 0.0
H105 H 0.14604 0.16413 0.39688 0.0
H106 H 0.10173 0.12796 0.38088 0.0
H107 H 0.42688 0.65011 0.76799 0.0
C108 C 0.41148 0.63263 0.75501 0.0
C109 C 0.41951 0.62076 0.72126 0.0
C110 C 0.38425 0.62128 0.77279 0.0
H111 H 0.40638 0.58765 0.67975 0.0
C112 C 0.39986 0.59726 0.70551 0.0
C113 C 0.37255 0.58536 0.72289 0.0
C114 C 0.3647 0.59787 0.7566 0.0
C115 C 0.37831 0.63196 0.80959 0.0
H116 H 0.34401 0.58887 0.77068 0.0
C117 C 0.35116 0.6505 0.81888 0.0
C118 C 0.34714 0.66223 0.85377 0.0
C119 C 0.401 0.6246 0.83542 0.0
H120 H 0.42206 0.6104 0.82869 0.0
C121 C 0.39672 0.63544 0.87009 0.0
H122 H 0.33398 0.65671 0.79876 0.0
C123 C 0.37007 0.65416 0.87925 0.0
H124 H 0.36733 0.66219 0.90642 0.0
H125 H 0.41424 0.62947 0.88991 0.0
H126 H 0.87042 0.80218 0.19453 0.0
C127 C 0.8632 0.82622 0.18801 0.0
C128 C 0.88571 0.8477 0.17403 0.0
C129 C 0.83083 0.83504 0.19288 0.0
H130 H 0.89135 0.89564 0.15423 0.0
C131 C 0.87512 0.87873 0.16612 0.0
C132 C 0.84313 0.88819 0.17191 0.0
C133 C 0.82084 0.8662 0.185 0.0
C134 C 0.80719 0.80997 0.20136 0.0
H135 H 0.79583 0.87303 0.18823 0.0
C136 C 0.79516 0.80628 0.2358 0.0
C137 C 0.77554 0.77981 0.24361 0.0
C138 C 0.7988 0.7877 0.17481 0.0
H139 H 0.80802 0.79008 0.14826 0.0
C140 C 0.77893 0.76191 0.18234 0.0
H141 H 0.80192 0.82316 0.25653 0.0
C142 C 0.76756 0.75781 0.21653 0.0
H143 H 0.75228 0.73749 0.22182 0.0
H144 H 0.77262 0.74483 0.16169 0.0
H145 H 0.70614 0.36772 0.68776 0.0
C146 C 0.68054 0.36351 0.68541 0.0
C147 C 0.66001 0.38788 0.6733 0.0
C148 C 0.66819 0.33311 0.6933 0.0
H149 H 0.61068 0.39897 0.65987 0.0
C150 C 0.62693 0.38128 0.67028 0.0
C151 C 0.6145 0.35122 0.67833 0.0
C152 C 0.63519 0.3271 0.68943 0.0
C153 C 0.68983 0.30618 0.70139 0.0
H154 H 0.62568 0.30352 0.69464 0.0
C155 C 0.70205 0.30192 0.73555 0.0
C156 C 0.71998 0.27422 0.74325 0.0
C157 C 0.69621 0.28308 0.67493 0.0
H158 H 0.68681 0.28588 0.64861 0.0
C159 C 0.71439 0.25602 0.68226 0.0
H160 H 0.69673 0.31949 0.75618 0.0
C161 C 0.72607 0.25148 0.71616 0.0
H162 H 0.74017 0.23026 0.72114 0.0
H163 H 0.71924 0.23834 0.66165 0.0
H164 H 0.65656 0.39966 0.26022 0.0
C165 C 0.63858 0.38746 0.27569 0.0
C166 C 0.62829 0.40087 0.308 0.0
C167 C 0.62415 0.35955 0.26198 0.0
H168 H 0.59534 0.39661 0.35123 0.0
C169 C 0.6037 0.38565 0.32678 0.0
C170 C 0.58895 0.35751 0.31376 0.0
C171 C 0.59965 0.34449 0.28114 0.0
C172 C 0.63077 0.34974 0.22505 0.0
H173 H 0.5884 0.32326 0.26997 0.0
C174 C 0.65388 0.3262 0.21616 0.0
C175 C 0.66102 0.31906 0.18043 0.0
C176 C 0.61454 0.36562 0.19826 0.0
H177 H 0.59679 0.38385 0.2047 0.0
C178 C 0.62124 0.35835 0.163 0.0
H179 H 0.66667 0.31412 0.23683 0.0
C180 C 0.64437 0.33536 0.15409 0.0
H181 H 0.64898 0.33004 0.12647 0.0
H182 H 0.60857 0.37069 0.14248 0.0
H183 H 0.21129 0.1211 0.84181 0.0
C184 C 0.18641 0.12808 0.8455 0.0
C185 C 0.16373 0.1062 0.8584 0.0
C186 C 0.17748 0.15951 0.83757 0.0
H187 H 0.11361 0.10095 0.87334 0.0
C188 C 0.13162 0.1165 0.86227 0.0
C189 C 0.12221 0.14743 0.85318 0.0
C190 C 0.14522 0.16909 0.84107 0.0
C191 C 0.20275 0.18284 0.82893 0.0
H192 H 0.13822 0.19335 0.83509 0.0
C193 C 0.20731 0.19316 0.79428 0.0
C194 C 0.2329 0.21395 0.78621 0.0
C195 C 0.22358 0.19355 0.8556 0.0
H196 H 0.2205 0.18562 0.88238 0.0
C197 C 0.24855 0.21449 0.84794 0.0
H198 H 0.19158 0.18425 0.77362 0.0
C199 C 0.25325 0.22464 0.81355 0.0
H200 H 0.27266 0.24117 0.80847 0.0
H201 H 0.2644 0.22282 0.86872 0.0
H202 H 0.37283 0.69173 0.32793 0.0
C203 C 0.36544 0.66758 0.33384 0.0
C204 C 0.38831 0.64499 0.34425 0.0
C205 C 0.33283 0.659 0.33207 0.0
H206 H 0.39622 0.59794 0.36354 0.0
C207 C 0.37839 0.61425 0.35346 0.0
C208 C 0.34591 0.60522 0.35172 0.0
C209 C 0.32341 0.62779 0.34021 0.0
C210 C 0.30769 0.6828 0.32448 0.0
H211 H 0.29825 0.62149 0.33796 0.0
C212 C 0.30473 0.69572 0.2908 0.0
C213 C 0.27824 0.71531 0.28293 0.0
C214 C 0.28468 0.69039 0.35053 0.0
H215 H 0.28652 0.68048 0.37657 0.0
C216 C 0.2589 0.71044 0.34306 0.0
H217 H 0.32211 0.68939 0.27045 0.0
C218 C 0.2555 0.72266 0.30941 0.0
H219 H 0.23515 0.73799 0.30409 0.0
H220 H 0.24126 0.71619 0.36328 0.0
H221 H 0.92179 0.82036 0.77276 0.0
C222 C 0.90825 0.84088 0.78264 0.0
C223 C 0.91645 0.85514 0.81508 0.0
C224 C 0.88399 0.85418 0.76179 0.0
H225 H 0.90576 0.89313 0.85227 0.0
C226 C 0.89962 0.88234 0.82694 0.0
C227 C 0.87601 0.89663 0.80614 0.0
C228 C 0.86765 0.88196 0.77373 0.0
C229 C 0.87955 0.84151 0.7255 0.0
H230 H 0.8501 0.89315 0.75692 0.0
C231 C 0.8512 0.82557 0.71525 0.0
C232 C 0.84884 0.81135 0.68129 0.0
C233 C 0.90509 0.84391 0.70141 0.0
H234 H 0.9271 0.85606 0.7089 0.0
C235 C 0.90255 0.83057 0.6676 0.0
H236 H 0.83166 0.82325 0.73399 0.0
C237 C 0.87473 0.81429 0.65759 0.0
H238 H 0.87336 0.80418 0.63113 0.0
H239 H 0.92231 0.83265 0.64916 0.0
H240 H 0.16861 0.96934 0.05813 0.0
H241 H 0.17576 0.89772 0.13827 0.0
H242 H 0.17707 0.94046 0.18459 0.0
H243 H 0.21803 0.033 0.10364 0.0
H244 H 0.19179 0.06432 0.08897 0.0
H245 H 0.19744 0.0286 0.06214 0.0
H246 H 0.13584 0.01946 0.06155 0.0
H247 H 0.13001 0.05498 0.08836 0.0
H248 H 0.11433 0.01728 0.10276 0.0
H249 H 0.17018 0.99011 0.22193 0.0
H250 H 0.15309 0.04206 0.24765 0.0
H251 H 0.15074 0.08198 0.14315 0.0
C252 C 0.17159 0.96292 0.08541 0.0
C253 C 0.17287 0.93059 0.09496 0.0
C254 C 0.17543 0.92257 0.13075 0.0
C255 C 0.17625 0.94664 0.15709 0.0
C256 C 0.17439 0.97849 0.147 0.0
C257 C 0.17217 0.98667 0.11197 0.0
C258 C 0.16661 0.02225 0.10834 0.0
C259 C 0.19518 0.03797 0.08967 0.0
C260 C 0.13481 0.02885 0.08913 0.0
C261 C 0.16481 0.03265 0.14676 0.0
C262 C 0.16995 0.00718 0.16864 0.0
C263 C 0.1668 0.01038 0.2051 0.0
C264 C 0.15727 0.04012 0.21952 0.0
C265 C 0.15073 0.06626 0.1975 0.0
C266 C 0.15559 0.06253 0.16073 0.0
H267 H 0.5639 0.60374 0.58469 0.0
H268 H 0.57831 0.70629 0.59437 0.0
H269 H 0.53688 0.70916 0.64152 0.0
H270 H 0.48071 0.60387 0.5944 0.0
H271 H 0.47896 0.56786 0.61956 0.0
H272 H 0.51152 0.57374 0.58906 0.0
H273 H 0.55286 0.56577 0.63903 0.0
H274 H 0.5204 0.55957 0.66969 0.0
H275 H 0.55001 0.59005 0.67874 0.0
H276 H 0.48973 0.7009 0.68359 0.0
H277 H 0.44297 0.6822 0.71794 0.0
H278 H 0.46234 0.58477 0.68196 0.0
C279 C 0.55861 0.62681 0.59694 0.0
C280 C 0.57413 0.65484 0.58576 0.0
C281 C 0.56672 0.68451 0.60263 0.0
C282 C 0.54323 0.68635 0.62938 0.0
C283 C 0.52788 0.65823 0.63924 0.0
C284 C 0.53563 0.62898 0.62376 0.0
C285 C 0.51512 0.60238 0.63801 0.0
C286 C 0.49541 0.58602 0.6085 0.0
C287 C 0.53583 0.57801 0.65753 0.0
C288 C 0.4938 0.6213 0.66321 0.0
C289 C 0.50154 0.65344 0.66378 0.0
C290 C 0.48381 0.67571 0.68373 0.0
C291 C 0.45735 0.66485 0.70326 0.0
C292 C 0.44883 0.63202 0.70262 0.0
C293 C 0.46783 0.61007 0.68274 0.0
H294 H 0.81123 0.02566 0.036 0.0
H295 H 0.8542 0.09006 0.11323 0.0
H296 H 0.85118 0.04801 0.15785 0.0
H297 H 0.75897 0.9793 0.09794 0.0
H298 H 0.76736 0.94198 0.07501 0.0
H299 H 0.76677 0.97881 0.05118 0.0
H300 H 0.82441 0.96722 0.02808 0.0
H301 H 0.82517 0.93048 0.05176 0.0
H302 H 0.85612 0.95996 0.05914 0.0
H303 H 0.85025 0.99779 0.19152 0.0
H304 H 0.85449 0.94184 0.21089 0.0
H305 H 0.8142 0.9085 0.11182 0.0
C306 C 0.81879 0.03113 0.06272 0.0
C307 C 0.83217 0.06124 0.07164 0.0
C308 C 0.84334 0.06726 0.10626 0.0
C309 C 0.84163 0.04356 0.13173 0.0
C310 C 0.829 0.0138 0.12205 0.0
C311 C 0.81787 0.0074 0.08834 0.0
C312 C 0.80963 0.97221 0.08348 0.0
C313 C 0.77353 0.96783 0.07649 0.0
C314 C 0.83006 0.95656 0.05387 0.0
C315 C 0.81876 0.95971 0.11932 0.0
C316 C 0.82925 0.98427 0.14138 0.0
C317 C 0.84142 0.97846 0.17481 0.0
C318 C 0.84365 0.9467 0.18567 0.0
C319 C 0.83383 0.9212 0.1632 0.0
C320 C 0.82074 0.92779 0.12988 0.0
H321 H 0.46328 0.30598 0.56176 0.0
H322 H 0.40823 0.36879 0.63158 0.0
H323 H 0.45385 0.37142 0.67291 0.0
H324 H 0.51099 0.26411 0.63154 0.0
H325 H 0.54687 0.26396 0.60474 0.0
H326 H 0.50791 0.26161 0.58421 0.0
H327 H 0.52166 0.31112 0.54726 0.0
H328 H 0.56047 0.31378 0.56773 0.0
H329 H 0.53369 0.34773 0.5694 0.0
H330 H 0.50713 0.37446 0.70149 0.0
H331 H 0.56508 0.37763 0.71556 0.0
H332 H 0.58666 0.31328 0.62765 0.0
C333 C 0.4605 0.31917 0.58647 0.0
C334 C 0.43216 0.33673 0.59395 0.0
C335 C 0.4297 0.35492 0.6257 0.0
C336 C 0.45542 0.35646 0.64934 0.0
C337 C 0.4835 0.33977 0.64074 0.0
C338 C 0.48623 0.32135 0.61014 0.0
C339 C 0.52037 0.30921 0.605 0.0
C340 C 0.5216 0.27254 0.60647 0.0
C341 C 0.53489 0.32119 0.57031 0.0
C342 C 0.53656 0.32457 0.63682 0.0
C343 C 0.51472 0.34171 0.65734 0.0
C344 C 0.52434 0.36049 0.6862 0.0
C345 C 0.55719 0.36219 0.694 0.0
C346 C 0.57991 0.34513 0.67313 0.0
C347 C 0.56946 0.32567 0.64459 0.0
H348 H 0.61824 0.56105 0.4213 0.0
H349 H 0.72222 0.56612 0.41941 0.0
H350 H 0.72375 0.52118 0.37535 0.0
H351 H 0.61155 0.48013 0.42051 0.0
H352 H 0.57654 0.47776 0.39278 0.0
H353 H 0.58373 0.51321 0.41913 0.0
H354 H 0.58175 0.548 0.36351 0.0
H355 H 0.57398 0.51263 0.33691 0.0
H356 H 0.60741 0.53814 0.32644 0.0
H357 H 0.71307 0.46999 0.33834 0.0
H358 H 0.69161 0.42023 0.31058 0.0
H359 H 0.59466 0.45143 0.33625 0.0
C360 C 0.64133 0.55323 0.4109 0.0
C361 C 0.67013 0.56687 0.42357 0.0
C362 C 0.69991 0.55609 0.40962 0.0
C363 C 0.70093 0.53056 0.38474 0.0
C364 C 0.67193 0.51676 0.37376 0.0
C365 C 0.64268 0.52826 0.38604 0.0
C366 C 0.61494 0.5083 0.3725 0.0
C367 C 0.59558 0.49401 0.40305 0.0
C368 C 0.59324 0.52794 0.3484 0.0
C369 C 0.63308 0.48276 0.35188 0.0
C370 C 0.66589 0.48804 0.35244 0.0
C371 C 0.68739 0.46603 0.33722 0.0
C372 C 0.67501 0.43785 0.32149 0.0
C373 C 0.64148 0.43184 0.32146 0.0
C374 C 0.62043 0.45509 0.33616 0.0
H375 H 0.96887 0.18493 0.9705 0.0
H376 H 0.91459 0.1332 0.89062 0.0
H377 H 0.96137 0.13475 0.85032 0.0
H378 H 0.02027 0.23391 0.91011 0.0
H379 H 0.05524 0.22896 0.93733 0.0
H380 H 0.01572 0.22997 0.95705 0.0
H381 H 0.02655 0.17519 0.98534 0.0
H382 H 0.06596 0.17402 0.96577 0.0
H383 H 0.03832 0.14157 0.95762 0.0
H384 H 0.01529 0.13507 0.82212 0.0
H385 H 0.07357 0.13114 0.80941 0.0
H386 H 0.0943 0.18064 0.90799 0.0
C387 C 0.96658 0.17512 0.94399 0.0
C388 C 0.93802 0.15966 0.93316 0.0
C389 C 0.93618 0.14562 0.89901 0.0
C390 C 0.96257 0.14649 0.87597 0.0
C391 C 0.99075 0.16121 0.88764 0.0
C392 C 0.99302 0.17518 0.92091 0.0
C393 C 0.02734 0.18518 0.92883 0.0
C394 C 0.02977 0.22168 0.9336 0.0
C395 C 0.04029 0.16795 0.9613 0.0
C396 C 0.04414 0.17375 0.89531 0.0
C397 C 0.02243 0.16063 0.8716 0.0
C398 C 0.03243 0.14595 0.84007 0.0
C399 C 0.06548 0.14389 0.83298 0.0
C400 C 0.08806 0.15637 0.8573 0.0
C401 C 0.07729 0.172 0.8885 0.0
H402 H 0.37588 0.43191 0.42663 0.0
H403 H 0.27942 0.43771 0.47076 0.0
H404 H 0.26928 0.48641 0.43757 0.0
H405 H 0.39309 0.5119 0.43166 0.0
H406 H 0.41463 0.51419 0.3905 0.0
H407 H 0.41316 0.47702 0.41337 0.0
H408 H 0.3896 0.44852 0.358 0.0
H409 H 0.3913 0.48561 0.33474 0.0
H410 H 0.35385 0.46423 0.33796 0.0
H411 H 0.27292 0.53895 0.40937 0.0
H412 H 0.28832 0.58978 0.38349 0.0
H413 H 0.38004 0.54807 0.35103 0.0
C414 C 0.35235 0.44295 0.42858 0.0
C415 C 0.32854 0.431 0.45146 0.0
C416 C 0.29811 0.44632 0.45346 0.0
C417 C 0.29204 0.47403 0.43463 0.0
C418 C 0.31634 0.4858 0.41329 0.0
C419 C 0.34568 0.47048 0.40953 0.0
C420 C 0.36831 0.48942 0.38662 0.0
C421 C 0.3991 0.49868 0.40675 0.0
C422 C 0.37622 0.47083 0.35229 0.0
C423 C 0.34762 0.51846 0.37967 0.0
C424 C 0.31771 0.51577 0.39516 0.0
C425 C 0.29582 0.54097 0.39597 0.0
C426 C 0.30482 0.56984 0.38083 0.0
C427 C 0.33537 0.57332 0.36451 0.0
C428 C 0.35659 0.54673 0.36332 0.0
H429 H 0.07058 0.88073 0.93404 0.0
H430 H 0.06905 0.77926 0.95597 0.0
H431 H 0.02436 0.77187 0.91373 0.0
H432 H 0.98733 0.89102 0.93092 0.0
H433 H 0.98828 0.91966 0.89616 0.0
H434 H 0.02206 0.91617 0.92525 0.0
H435 H 0.05991 0.90597 0.87177 0.0
H436 H 0.02627 0.9096 0.8424 0.0
H437 H 0.05092 0.8741 0.84062 0.0
H438 H 0.97713 0.77669 0.8712 0.0
H439 H 0.93151 0.79367 0.83393 0.0
H440 H 0.96485 0.89174 0.84173 0.0
C441 C 0.06127 0.85679 0.9297 0.0
C442 C 0.07343 0.83055 0.94832 0.0
C443 C 0.06021 0.79974 0.94196 0.0
C444 C 0.03485 0.7953 0.91798 0.0
C445 C 0.02308 0.82189 0.90056 0.0
C446 C 0.03599 0.85201 0.90616 0.0
C447 C 0.01808 0.8771 0.88596 0.0
C448 C 0.00305 0.90247 0.91108 0.0
C449 C 0.04011 0.89259 0.85856 0.0
C450 C 0.99263 0.85656 0.86854 0.0
C451 C 0.99597 0.82471 0.87685 0.0
C452 C 0.97445 0.80154 0.86437 0.0
C453 C 0.9487 0.81133 0.84322 0.0
C454 C 0.94459 0.84399 0.83528 0.0
C455 C 0.9672 0.86664 0.84773 0.0
H456 H 0.88902 0.05654 0.91783 0.0
H457 H 0.78512 0.06386 0.91775 0.0
H458 H 0.78247 0.01896 0.87383 0.0
H459 H 0.89858 0.03452 0.82294 0.0
H460 H 0.93165 0.00811 0.83212 0.0
H461 H 0.92477 0.04317 0.85962 0.0
H462 H 0.92254 0.00758 0.91465 0.0
H463 H 0.92916 0.9725 0.88739 0.0
H464 H 0.89436 0.97489 0.91578 0.0
H465 H 0.792 0.96748 0.83619 0.0
H466 H 0.8127 0.91721 0.80806 0.0
H467 H 0.91011 0.94733 0.83128 0.0
C468 C 0.86571 0.04913 0.90803 0.0
C469 C 0.83727 0.06348 0.92115 0.0
C470 C 0.8072 0.05324 0.90776 0.0
C471 C 0.80551 0.02775 0.88289 0.0
C472 C 0.83415 0.01342 0.87124 0.0
C473 C 0.86369 0.02426 0.88306 0.0
C474 C 0.89097 0.00403 0.86851 0.0
C475 C 0.91277 0.02363 0.84435 0.0
C476 C 0.91037 0.98886 0.89835 0.0
C477 C 0.87227 0.97918 0.84776 0.0
C478 C 0.83954 0.98489 0.84923 0.0
C479 C 0.81763 0.9632 0.83434 0.0
C480 C 0.82953 0.93477 0.81834 0.0
C481 C 0.86296 0.92832 0.8177 0.0
C482 C 0.88439 0.95146 0.83157 0.0
H483 H 0.47057 0.34821 0.47783 0.0
H484 H 0.39847 0.3074 0.4082 0.0
H485 H 0.43887 0.30393 0.35995 0.0
H486 H 0.50893 0.39629 0.41745 0.0
H487 H 0.54904 0.38954 0.43346 0.0
H488 H 0.51524 0.38622 0.46283 0.0
H489 H 0.53256 0.3286 0.47791 0.0
H490 H 0.5666 0.33173 0.44866 0.0
H491 H 0.53846 0.29932 0.4429 0.0
H492 H 0.48568 0.31224 0.31752 0.0
H493 H 0.53484 0.32801 0.28597 0.0
H494 H 0.57795 0.35717 0.38566 0.0
C495 C 0.46342 0.33813 0.45254 0.0
C496 C 0.43143 0.3282 0.44656 0.0
C497 C 0.42294 0.31497 0.41327 0.0
C498 C 0.44571 0.31296 0.38577 0.0
C499 C 0.47699 0.32353 0.39236 0.0
C500 C 0.48595 0.33527 0.42519 0.0
C501 C 0.52075 0.34578 0.42543 0.0
C502 C 0.52364 0.38157 0.43537 0.0
C503 C 0.54077 0.32512 0.45019 0.0
C504 C 0.52972 0.33936 0.38724 0.0
C505 C 0.50424 0.32654 0.36851 0.0
C506 C 0.50605 0.32151 0.33212 0.0
C507 C 0.53433 0.33037 0.3144 0.0
C508 C 0.56072 0.34391 0.33305 0.0
C509 C 0.55838 0.34736 0.37019 0.0
H510 H 0.13023 0.93362 0.93299 0.0
H511 H 0.2305 0.92942 0.96299 0.0
H512 H 0.24116 0.97875 0.93007 0.0
H513 H 0.14563 0.96651 0.84237 0.0
H514 H 0.10963 0.99053 0.84485 0.0
H515 H 0.11118 0.9527 0.86663 0.0
H516 H 0.09523 0.98111 0.9254 0.0
H517 H 0.09415 0.01907 0.90414 0.0
H518 H 0.1194 0.01382 0.94204 0.0
H519 H 0.2378 0.03373 0.90517 0.0
H520 H 0.22304 0.08633 0.88315 0.0
H521 H 0.12668 0.05102 0.86077 0.0
C522 C 0.1546 0.94261 0.93158 0.0
C523 C 0.17962 0.92788 0.95024 0.0
C524 C 0.21118 0.94026 0.94836 0.0
C525 C 0.21739 0.96828 0.92987 0.0
C526 C 0.19194 0.98292 0.91264 0.0
C527 C 0.16136 0.96999 0.91243 0.0
C528 C 0.13793 0.99116 0.89332 0.0
C529 C 0.12536 0.97421 0.85979 0.0
C530 C 0.11005 1.00192 0.91769 0.0
C531 C 0.1597 0.01887 0.88453 0.0
C532 C 0.19071 0.01371 0.89593 0.0
C533 C 0.21393 0.03759 0.89484 0.0
C534 C 0.20523 0.06754 0.88192 0.0
C535 C 0.1736 0.07342 0.86953 0.0
C536 C 0.15097 0.04811 0.8702 0.0
H537 H 0.53622 0.68539 0.46506 0.0
H538 H 0.59006 0.61911 0.39796 0.0
H539 H 0.54656 0.61994 0.35402 0.0
H540 H 0.46343 0.64831 0.45288 0.0
H541 H 0.43921 0.68412 0.45369 0.0
H542 H 0.47709 0.68374 0.47621 0.0
H543 H 0.49579 0.73264 0.44074 0.0
H544 H 0.45788 0.733 0.41789 0.0
H545 H 0.49501 0.73066 0.39328 0.0
H546 H 0.49521 0.62164 0.32171 0.0
H547 H 0.43771 0.62045 0.30573 0.0
H548 H 0.41563 0.68441 0.39377 0.0
C549 C 0.5392 0.67194 0.44055 0.0
C550 C 0.56661 0.65256 0.43455 0.0
C551 C 0.56929 0.63428 0.40285 0.0
C552 C 0.54483 0.6348 0.37765 0.0
C553 C 0.51775 0.65362 0.38459 0.0
C554 C 0.51466 0.67175 0.41534 0.0
C555 C 0.48123 0.6861 0.41867 0.0
C556 C 0.46425 0.67488 0.45234 0.0
C557 C 0.48257 0.72279 0.41757 0.0
C558 C 0.46564 0.67213 0.38576 0.0
C559 C 0.48743 0.65414 0.36603 0.0
C560 C 0.4781 0.63627 0.3364 0.0
C561 C 0.44549 0.6358 0.32742 0.0
C562 C 0.42266 0.653 0.34803 0.0
C563 C 0.43294 0.67211 0.37691 0.0
H564 H 0.33895 0.46843 0.56249 0.0
H565 H 0.31429 0.39509 0.63667 0.0
H566 H 0.31384 0.43597 0.68515 0.0
H567 H 0.39252 0.50919 0.61345 0.0
H568 H 0.38152 0.54869 0.59967 0.0
H569 H 0.37484 0.5148 0.57075 0.0
H570 H 0.31442 0.52947 0.5666 0.0
H571 H 0.32094 0.56367 0.59542 0.0
H572 H 0.29091 0.53444 0.60635 0.0
H573 H 0.32605 0.4835 0.72625 0.0
H574 H 0.34691 0.53267 0.7552 0.0
H575 H 0.35831 0.57563 0.65293 0.0
C576 C 0.33261 0.46115 0.58883 0.0
C577 C 0.32661 0.42875 0.59602 0.0
C578 C 0.31858 0.41993 0.6307 0.0
C579 C 0.31834 0.44298 0.65832 0.0
C580 C 0.32533 0.47474 0.65048 0.0
C581 C 0.33164 0.48385 0.61635 0.0
C582 C 0.3406 0.51882 0.61485 0.0
C583 C 0.37436 0.52309 0.59875 0.0
C584 C 0.31519 0.53772 0.59461 0.0
C585 C 0.34006 0.52773 0.65364 0.0
C586 C 0.33097 0.50217 0.67388 0.0
C587 C 0.33232 0.5039 0.7106 0.0
C588 C 0.34407 0.53208 0.72687 0.0
C589 C 0.35434 0.55819 0.70644 0.0
C590 C 0.35094 0.55616 0.66943 0.0
H591 H 0.06371 0.87737 0.1067 0.0
H592 H 0.0706 0.77589 0.08215 0.0
H593 H 0.01909 0.767 0.11333 0.0
H594 H 0.02473 0.86797 0.19619 0.0
H595 H 1.00059 0.9033 0.1905 0.0
H596 H 0.04006 0.90059 0.17084 0.0
H597 H 0.01539 0.91207 0.10988 0.0
H598 H 0.97587 0.9143 0.12912 0.0
H599 H 0.98378 0.88663 0.09302 0.0
H600 H 0.96217 0.77142 0.13603 0.0
H601 H 0.90779 0.78715 0.15476 0.0
H602 H 0.94089 0.88487 0.17213 0.0
C603 C 0.05482 0.85316 0.10894 0.0
C604 C 0.07103 0.82727 0.09222 0.0
C605 C 0.05869 0.79594 0.09524 0.0
C606 C 0.02941 0.79072 0.11276 0.0
C607 C 0.01337 0.81699 0.12792 0.0
C608 C 0.02612 0.84748 0.12706 0.0
C609 C 0.00342 0.87186 0.14372 0.0
C610 C 0.01807 0.88681 0.17731 0.0
C611 C 0.99407 0.89772 0.11735 0.0
C612 C 0.97513 0.85063 0.1523 0.0
C613 C 0.98131 0.81908 0.14306 0.0
C614 C 0.95744 0.79584 0.14459 0.0
C615 C 0.92646 0.8051 0.15559 0.0
C616 C 0.91948 0.83738 0.1655 0.0
C617 C 0.94473 0.86007 0.16456 0.0
H618 H 0.63574 0.56235 0.60095 0.0
H619 H 0.72656 0.5508 0.54534 0.0
H620 H 0.73723 0.50148 0.578 0.0
H621 H 0.66338 0.52958 0.68658 0.0
H622 H 0.62522 0.51047 0.69408 0.0
H623 H 0.62696 0.54712 0.67004 0.0
H624 H 0.59727 0.51967 0.61786 0.0
H625 H 0.59551 0.48295 0.64151 0.0
H626 H 0.61358 0.48341 0.59829 0.0
H627 H 0.73369 0.44896 0.60962 0.0
H628 H 0.71727 0.39946 0.63877 0.0
H629 H 0.63084 0.44728 0.67743 0.0
C630 C 0.65828 0.54993 0.59624 0.0
C631 C 0.68032 0.56055 0.57054 0.0
C632 C 0.70938 0.54336 0.56504 0.0
C633 C 0.71566 0.51525 0.58348 0.0
C634 C 0.69293 0.50491 0.60782 0.0
C635 C 0.66505 0.52205 0.61463 0.0
C636 C 0.64342 0.50476 0.64013 0.0
C637 C 0.63953 0.52414 0.67477 0.0
C638 C 0.61052 0.49725 0.62343 0.0
C639 C 0.66285 0.47458 0.64549 0.0
C640 C 0.69143 0.47515 0.62686 0.0
C641 C 0.71176 0.44858 0.62504 0.0
C642 C 0.70228 0.42052 0.64197 0.0
C643 C 0.67269 0.41913 0.66063 0.0
C644 C 0.65346 0.44712 0.66323 0.0
H645 H 0.94114 0.10887 0.08111 0.0
H646 H 0.9233 0.211 0.08857 0.0
H647 H 0.96611 0.21631 0.13371 0.0
H648 H 0.95851 0.09786 0.17487 0.0
H649 H 0.9888 0.06803 0.16509 0.0
H650 H 0.95511 0.07263 0.13595 0.0
H651 H 0.99445 0.08057 0.0837 0.0
H652 H 0.0282 0.07637 0.11267 0.0
H653 H 0.02433 0.11169 0.08666 0.0
H654 H 0.01533 0.21029 0.17386 0.0
H655 H 0.06367 0.19336 0.2066 0.0
H656 H 0.04582 0.09488 0.17396 0.0
C657 C 0.94592 0.13235 0.09254 0.0
C658 C 0.92907 0.15956 0.0813 0.0
C659 C 0.93587 0.18982 0.097 0.0
C660 C 0.96017 0.19304 0.12255 0.0
C661 C 0.97691 0.16567 0.13242 0.0
C662 C 0.96964 0.13586 0.11816 0.0
C663 C 0.99151 0.11021 0.13204 0.0
C664 C 0.97233 0.08575 0.15326 0.0
C665 C 0.01076 0.09376 0.10198 0.0
C666 C 0.01298 0.13027 0.15562 0.0
C667 C 0.00428 0.16219 0.15574 0.0
C668 C 0.022 0.18527 0.17431 0.0
C669 C 0.04937 0.17543 0.19291 0.0
C670 C 0.05878 0.14281 0.19269 0.0
C671 C 0.03978 0.12008 0.17426 0.0
H672 H 0.17621 0.76773 0.1164 0.0
H673 H 0.26001 0.82109 0.08349 0.0
H674 H 0.29152 0.79802 0.13171 0.0
H675 H 0.18822 0.78101 0.20707 0.0
H676 H 0.17419 0.74229 0.22024 0.0
H677 H 0.15934 0.75947 0.18043 0.0
H678 H 0.17757 0.70903 0.14475 0.0
H679 H 0.19245 0.69163 0.18452 0.0
H680 H 0.21882 0.69596 0.14714 0.0
H681 H 0.31324 0.77147 0.18504 0.0
H682 H 0.32233 0.74642 0.24264 0.0
H683 H 0.22377 0.71279 0.24294 0.0
C684 C 0.20137 0.77393 0.119 0.0
C685 C 0.21586 0.79586 0.09615 0.0
C686 C 0.24857 0.80423 0.10079 0.0
C687 C 0.26669 0.79114 0.12794 0.0
C688 C 0.25164 0.76997 0.15045 0.0
C689 C 0.21967 0.76156 0.14648 0.0
C690 C 0.20853 0.74073 0.17627 0.0
C691 C 0.18095 0.75685 0.19724 0.0
C692 C 0.19877 0.70736 0.16233 0.0
C693 C 0.23903 0.73926 0.19785 0.0
C694 C 0.26379 0.75576 0.18215 0.0
C695 C 0.2941 0.75831 0.19753 0.0
C696 C 0.29909 0.74398 0.23012 0.0
C697 C 0.27374 0.72784 0.24713 0.0
C698 C 0.2435 0.72517 0.23051 0.0
H699 H 0.75502 0.679 0.5685 0.0
H700 H 0.66831 0.73462 0.58764 0.0
H701 H 0.69786 0.76988 0.62922 0.0
H702 H 0.78894 0.68702 0.65842 0.0
H703 H 0.82945 0.69087 0.64204 0.0
H704 H 0.80051 0.66746 0.6175 0.0
H705 H 0.81129 0.70149 0.56249 0.0
H706 H 0.84014 0.72502 0.58682 0.0
H707 H 0.80682 0.74436 0.56576 0.0
H708 H 0.7378 0.80165 0.66522 0.0
H709 H 0.78567 0.82891 0.69007 0.0
H710 H 0.84647 0.75345 0.64627 0.0
C711 C 0.74211 0.69813 0.5821 0.0
C712 C 0.70932 0.70393 0.57507 0.0
C713 C 0.69344 0.72973 0.59268 0.0
C714 C 0.70997 0.7498 0.61648 0.0
C715 C 0.74245 0.74386 0.62232 0.0
C716 C 0.75838 0.71868 0.60559 0.0
C717 C 0.79395 0.71926 0.61396 0.0
C718 C 0.80378 0.68937 0.63419 0.0
C719 C 0.81423 0.72275 0.58025 0.0
C720 C 0.79563 0.74909 0.63726 0.0
C721 C 0.76562 0.76265 0.6423 0.0
C722 C 0.7614 0.79107 0.66176 0.0
C723 C 0.78867 0.80634 0.67588 0.0
C724 C 0.81974 0.79335 0.67004 0.0
C725 C 0.82302 0.76404 0.65102 0.0
H726 H 0.79464 0.24306 0.05314 0.0
H727 H 0.77537 0.15171 0.10085 0.0
H728 H 0.7396 0.1786 0.14454 0.0
H729 H 0.79205 0.29275 0.13425 0.0
H730 H 0.77198 0.32526 0.11296 0.0
H731 H 0.79875 0.29936 0.08804 0.0
H732 H 0.75323 0.28688 0.04344 0.0
H733 H 0.72638 0.31272 0.06815 0.0
H734 H 0.7154 0.27166 0.0592 0.0
H735 H 0.70356 0.21538 0.1813 0.0
H736 H 0.66742 0.25807 0.20472 0.0
H737 H 0.70907 0.32465 0.13152 0.0
C738 C 0.78339 0.22879 0.0732 0.0
C739 C 0.78801 0.19531 0.07378 0.0
C740 C 0.77221 0.1774 0.09994 0.0
C741 C 0.75198 0.19248 0.12498 0.0
C742 C 0.74762 0.2255 0.12341 0.0
C743 C 0.76277 0.24339 0.09805 0.0
C744 C 0.75205 0.27801 0.10016 0.0
C745 C 0.7804 0.30015 0.10941 0.0
C746 C 0.7358 0.28788 0.0657 0.0
C747 C 0.72809 0.27673 0.13024 0.0
C748 C 0.72623 0.24638 0.14376 0.0
C749 C 0.70499 0.23928 0.17106 0.0
C750 C 0.68467 0.26367 0.18433 0.0
C751 C 0.68543 0.2946 0.16992 0.0
C752 C 0.70789 0.30119 0.14298 0.0
H753 H 0.33797 0.27572 0.62444 0.0
H754 H 0.24794 0.30059 0.57432 0.0
H755 H 0.21789 0.27647 0.62292 0.0
H756 H 0.31065 0.19932 0.66055 0.0
H757 H 0.33279 0.20501 0.70089 0.0
H758 H 0.3475 0.22196 0.66068 0.0
H759 H 0.34881 0.27806 0.69104 0.0
H760 H 0.33402 0.26133 0.73125 0.0
H761 H 0.31275 0.29388 0.71144 0.0
H762 H 0.19727 0.25267 0.67841 0.0
H763 H 0.18778 0.23154 0.73775 0.0
H764 H 0.29081 0.22145 0.75197 0.0
C765 C 0.31195 0.27562 0.62343 0.0
C766 C 0.29538 0.28999 0.59545 0.0
C767 C 0.26127 0.2898 0.59543 0.0
C768 C 0.24391 0.27604 0.62288 0.0
C769 C 0.26091 0.26249 0.65028 0.0
C770 C 0.29415 0.26209 0.65081 0.0
C771 C 0.30643 0.24744 0.68435 0.0
C772 C 0.32546 0.2166 0.67611 0.0
C773 C 0.32669 0.27163 0.70578 0.0
C774 C 0.27491 0.24029 0.70278 0.0
C775 C 0.24895 0.24888 0.68252 0.0
C776 C 0.2174 0.24553 0.69441 0.0
C777 C 0.21223 0.23335 0.7281 0.0
C778 C 0.23849 0.22479 0.74961 0.0
C779 C 0.27019 0.22803 0.73639 0.0
H780 H 0.72725 0.67271 0.40685 0.0
H781 H 0.66449 0.7502 0.44153 0.0
H782 H 0.68565 0.78393 0.39402 0.0
H783 H 0.79535 0.72091 0.37845 0.0
H784 H 0.8035 0.69583 0.34021 0.0
H785 H 0.78575 0.67889 0.37893 0.0
H786 H 0.73812 0.65737 0.34161 0.0
H787 H 0.75581 0.67407 0.3028 0.0
H788 H 0.71529 0.68469 0.31543 0.0
H789 H 0.71333 0.80906 0.34196 0.0
H790 H 0.74033 0.82106 0.28539 0.0
H791 H 0.78196 0.72596 0.2824 0.0
C792 C 0.71834 0.69694 0.40467 0.0
C793 C 0.69453 0.70903 0.42804 0.0
C794 C 0.6828 0.74054 0.42389 0.0
C795 C 0.69481 0.75992 0.39714 0.0
C796 C 0.71822 0.74729 0.3744 0.0
C797 C 0.72953 0.71635 0.37758 0.0
C798 C 0.75261 0.70757 0.34791 0.0
C799 C 0.7863 0.70038 0.36224 0.0
C800 C 0.73967 0.67926 0.32562 0.0
C801 C 0.75237 0.73828 0.32745 0.0
C802 C 0.73288 0.76115 0.34349 0.0
C803 C 0.72868 0.79134 0.32919 0.0
C804 C 0.7442 0.79805 0.29722 0.0
C805 C 0.76316 0.77446 0.27969 0.0
C806 C 0.76759 0.74442 0.29535 0.0
H807 H 0.77306 0.16699 0.90499 0.0
H808 H 0.82942 0.24803 0.94204 0.0
H809 H 0.80673 0.28106 0.89506 0.0
H810 H 0.78552 0.18121 0.81427 0.0
H811 H 0.74602 0.16843 0.80069 0.0
H812 H 0.76389 0.15216 0.8395 0.0
H813 H 0.71429 0.17024 0.87641 0.0
H814 H 0.69627 0.18663 0.83767 0.0
H815 H 0.70198 0.21161 0.87643 0.0
H816 H 0.77922 0.30496 0.8428 0.0
H817 H 0.75282 0.3163 0.78609 0.0
H818 H 0.7166 0.21911 0.78102 0.0
C819 C 0.78013 0.19184 0.9035 0.0
C820 C 0.80272 0.20508 0.92734 0.0
C821 C 0.81209 0.23745 0.92406 0.0
C822 C 0.79921 0.25645 0.89758 0.0
C823 C 0.77724 0.24266 0.87423 0.0
C824 C 0.76799 0.21101 0.87669 0.0
C825 C 0.74613 0.20132 0.84644 0.0
C826 C 0.7613 0.17418 0.8239 0.0
C827 C 0.71268 0.1919 0.86006 0.0
C828 C 0.7448 0.23233 0.82649 0.0
C829 C 0.76246 0.25605 0.84326 0.0
C830 C 0.76522 0.2866 0.82949 0.0
C831 C 0.75003 0.2929 0.79738 0.0
C832 C 0.73273 0.26862 0.77915 0.0
C833 C 0.7298 0.23812 0.7943 0.0
H834 H 0.2935 0.24578 0.47189 0.0
H835 H 0.28387 0.3339 0.41469 0.0
H836 H 0.24965 0.3061 0.37071 0.0
H837 H 0.29223 0.18987 0.39465 0.0
H838 H 0.26853 0.16083 0.4176 0.0
H839 H 0.29589 0.18644 0.44171 0.0
H840 H 0.24914 0.20568 0.48231 0.0
H841 H 0.22167 0.18025 0.45834 0.0
H842 H 0.21358 0.2225 0.46296 0.0
H843 H 0.21326 0.26979 0.33544 0.0
H844 H 0.17476 0.22883 0.31399 0.0
H845 H 0.20645 0.16504 0.39544 0.0
C846 C 0.28484 0.25899 0.44962 0.0
C847 C 0.29159 0.2919 0.44645 0.0
C848 C 0.27906 0.30863 0.41751 0.0
C849 C 0.25974 0.29301 0.39232 0.0
C850 C 0.25301 0.26068 0.39654 0.0
C851 C 0.2651 0.24387 0.42453 0.0
C852 C 0.25175 0.21019 0.42491 0.0
C853 C 0.27871 0.18537 0.41938 0.0
C854 C 0.23292 0.20433 0.45915 0.0
C855 C 0.22966 0.21096 0.39334 0.0
C856 C 0.23121 0.24006 0.37689 0.0
C857 C 0.21209 0.24678 0.34788 0.0
C858 C 0.19039 0.22336 0.33579 0.0
C859 C 0.18767 0.1938 0.35302 0.0
C860 C 0.208 0.18745 0.38179 0.0
H861 H 0.25919 0.79862 0.96786 0.0
H862 H 0.16847 0.7623 0.92761 0.0
H863 H 0.19792 0.72474 0.888 0.0
H864 H 0.30472 0.79154 0.88461 0.0
H865 H 0.34091 0.7793 0.90653 0.0
H866 H 0.31268 0.80548 0.92898 0.0
H867 H 0.30899 0.76576 0.98029 0.0
H868 H 0.33704 0.73943 0.95797 0.0
H869 H 0.29816 0.72471 0.97099 0.0
H870 H 0.23747 0.68827 0.85577 0.0
H871 H 0.28371 0.65558 0.83479 0.0
H872 H 0.34809 0.71604 0.89626 0.0
C873 C 0.24546 0.78322 0.95027 0.0
C874 C 0.21148 0.78354 0.95082 0.0
C875 C 0.19451 0.76256 0.9277 0.0
C876 C 0.21102 0.74118 0.905 0.0
C877 C 0.24452 0.74108 0.90563 0.0
C878 C 0.26153 0.76164 0.92761 0.0
C879 C 0.29733 0.75545 0.92491 0.0
C880 C 0.31494 0.78468 0.91039 0.0
C881 C 0.31118 0.74576 0.96066 0.0
C882 C 0.29778 0.72772 0.89861 0.0
C883 C 0.26716 0.71996 0.88744 0.0
C884 C 0.26159 0.69435 0.86408 0.0
C885 C 0.288 0.67599 0.85219 0.0
C886 C 0.3195 0.68316 0.86394 0.0
C887 C 0.32429 0.70972 0.88703 0.0
loop_
_geom_bond_atom_site_label_1
_geom_bond_atom_site_label_2
_geom_bond_distance
_geom_bond_site_symmetry_2
_ccdc_geom_bond_type
Fe0 O2 1.918 . S
Fe0 O5 1.997 . S
Fe0 O6 2.002 . S
Fe0 O11 1.976 1_554 S
Fe0 O14 1.996 1_554 S
Fe1 O2 1.918 . S
Fe1 O9 1.997 . S
Fe1 O12 1.996 1_554 S
Fe1 O16 1.976 1_554 S
Fe1 O19 2.002 . S
O2 Fe0 1.918 . S
O2 Fe1 1.918 . S
O2 Fe3 1.918 . S
Fe3 O2 1.918 . S
Fe3 O4 2.002 . S
Fe3 O13 1.976 1_554 S
Fe3 O17 1.996 1_554 S
Fe3 O20 1.997 . S
O4 Fe3 2.002 . S
O4 C21 1.295 . S
O5 Fe0 1.997 . S
O5 C21 1.235 . S
O6 Fe0 2.002 . S
O6 C7 1.295 . S
C7 O6 1.295 . S
C7 O9 1.235 . S
C8 O13 1.287 . S
C8 O14 1.255 . S
O9 Fe1 1.997 . S
O9 C7 1.235 . S
C10 O16 1.287 . S
C10 O17 1.255 . S
O11 Fe0 1.976 1_556 S
O11 C18 1.287 . S
O12 Fe1 1.996 1_556 S
O12 C18 1.255 . S
O13 Fe3 1.976 1_556 S
O13 C8 1.287 . S
O14 Fe0 1.996 1_556 S
O14 C8 1.255 . S
C15 O19 1.295 . S
C15 O20 1.235 . S
O16 Fe1 1.976 1_556 S
O16 C10 1.287 . S
O17 Fe3 1.996 1_556 S
O17 C10 1.255 . S
C18 O11 1.287 . S
C18 O12 1.255 . S
O19 Fe1 2.002 . S
O19 C15 1.295 . S
O20 Fe3 1.997 . S
O20 C15 1.235 . S
C21 O4 1.295 . S
C21 O5 1.235 . S
Fe22 O24 1.918 . S
Fe22 O27 1.997 . S
Fe22 O28 2.002 . S
Fe22 O33 1.976 . S
Fe22 O36 1.996 . S
Fe23 O24 1.918 . S
Fe23 O31 1.997 . S
Fe23 O34 1.996 . S
Fe23 O38 1.976 . S
Fe23 O41 2.002 . S
O24 Fe22 1.918 . S
O24 Fe23 1.918 . S
O24 Fe25 1.918 . S
Fe25 O24 1.918 . S
Fe25 O26 2.002 . S
Fe25 O35 1.976 . S
Fe25 O39 1.996 . S
Fe25 O42 1.997 . S
O26 Fe25 2.002 . S
O26 C43 1.295 . S
O27 Fe22 1.997 . S
O27 C43 1.235 . S
O28 Fe22 2.002 . S
O28 C29 1.295 . S
C29 O28 1.295 . S
C29 O31 1.235 . S
C30 O35 1.287 . S
C30 O36 1.255 . S
O31 Fe23 1.997 . S
O31 C29 1.235 . S
C32 O38 1.287 . S
C32 O39 1.255 . S
O33 Fe22 1.976 . S
O33 C40 1.287 . S
O34 Fe23 1.996 . S
O34 C40 1.255 . S
O35 Fe25 1.976 . S
O35 C30 1.287 . S
O36 Fe22 1.996 . S
O36 C30 1.255 . S
C37 O41 1.295 . S
C37 O42 1.235 . S
O38 Fe23 1.976 . S
O38 C32 1.287 . S
O39 Fe25 1.996 . S
O39 C32 1.255 . S
C40 O33 1.287 . S
C40 O34 1.255 . S
O41 Fe23 2.002 . S
O41 C37 1.295 . S
O42 Fe25 1.997 . S
O42 C37 1.235 . S
C43 O26 1.295 . S
C43 O27 1.235 . S
Fe44 O46 1.918 . S
Fe44 O49 1.997 1_554 S
Fe44 O50 2.002 1_554 S
Fe44 O55 1.976 . S
Fe44 O58 1.996 . S
Fe45 O46 1.918 . S
Fe45 O53 1.997 1_554 S
Fe45 O56 1.996 . S
Fe45 O60 1.976 . S
Fe45 O63 2.002 1_554 S
O46 Fe44 1.918 . S
O46 Fe45 1.918 . S
O46 Fe47 1.918 1_554 S
Fe47 O46 1.918 1_556 S
Fe47 O48 2.002 . S
Fe47 O57 1.976 1_556 S
Fe47 O61 1.996 1_556 S
Fe47 O64 1.997 . S
O48 Fe47 2.002 . S
O48 C65 1.295 . S
O49 Fe44 1.997 1_556 S
O49 C65 1.235 . S
O50 Fe44 2.002 1_556 S
O50 C51 1.295 . S
C51 O50 1.295 . S
C51 O53 1.235 . S
C52 O57 1.287 . S
C52 O58 1.255 . S
O53 Fe45 1.997 1_556 S
O53 C51 1.235 . S
C54 O60 1.287 . S
C54 O61 1.255 . S
O55 Fe44 1.976 . S
O55 C62 1.287 . S
O56 Fe45 1.996 . S
O56 C62 1.255 . S
O57 Fe47 1.976 1_554 S
O57 C52 1.287 . S
O58 Fe44 1.996 . S
O58 C52 1.255 . S
C59 O63 1.295 . S
C59 O64 1.235 . S
O60 Fe45 1.976 . S
O60 C54 1.287 . S
O61 Fe47 1.996 1_554 S
O61 C54 1.255 . S
C62 O55 1.287 . S
C62 O56 1.255 . S
O63 Fe45 2.002 1_556 S
O63 C59 1.295 . S
O64 Fe47 1.997 . S
O64 C59 1.235 . S
C65 O48 1.295 . S
C65 O49 1.235 . S
Fe66 O68 1.918 . S
Fe66 O71 1.997 . S
Fe66 O72 2.002 . S
Fe66 O77 1.976 . S
Fe66 O80 1.996 . S
Fe67 O68 1.918 . S
Fe67 O75 1.997 . S
Fe67 O78 1.996 . S
Fe67 O82 1.976 . S
Fe67 O85 2.002 . S
O68 Fe66 1.918 . S
O68 Fe67 1.918 . S
O68 Fe69 1.918 . S
Fe69 O68 1.918 . S
Fe69 O70 2.002 . S
Fe69 O79 1.976 . S
Fe69 O83 1.996 . S
Fe69 O86 1.997 . S
O70 Fe69 2.002 . S
O70 C87 1.295 . S
O71 Fe66 1.997 . S
O71 C87 1.235 . S
O72 Fe66 2.002 . S
O72 C73 1.295 . S
C73 O72 1.295 . S
C73 O75 1.235 . S
C74 O79 1.287 . S
C74 O80 1.255 . S
O75 Fe67 1.997 . S
O75 C73 1.235 . S
C76 O82 1.287 . S
C76 O83 1.255 . S
O77 Fe66 1.976 . S
O77 C84 1.287 . S
O78 Fe67 1.996 . S
O78 C84 1.255 . S
O79 Fe69 1.976 . S
O79 C74 1.287 . S
O80 Fe66 1.996 . S
O80 C74 1.255 . S
C81 O85 1.295 . S
C81 O86 1.235 . S
O82 Fe67 1.976 . S
O82 C76 1.287 . S
O83 Fe69 1.996 . S
O83 C76 1.255 . S
C84 O77 1.287 . S
C84 O78 1.255 . S
O85 Fe67 2.002 . S
O85 C81 1.295 . S
O86 Fe69 1.997 . S
O86 C81 1.235 . S
C87 O70 1.295 . S
C87 O71 1.235 . S
H88 C89 0.949 . S
C89 H88 0.949 . S
C89 C90 1.395 . S
C89 C91 1.391 . S
C90 C89 1.395 . S
C90 C93 1.390 . S
C91 C89 1.391 . S
C91 C95 1.387 . S
C91 C96 1.491 . S
H92 C93 0.950 . S
C93 C90 1.390 . S
C93 H92 0.950 . S
C93 C94 1.378 . S
C94 C93 1.378 . S
C94 C95 1.409 . S
C95 C91 1.387 . S
C95 C94 1.409 . S
C95 H97 0.951 . S
C96 C91 1.491 . S
C96 C98 1.382 . S
C96 C100 1.404 . S
H97 C95 0.951 . S
C98 C96 1.382 . S
C98 C99 1.390 . S
C98 H103 0.949 . S
C99 C98 1.390 . S
C99 C104 1.399 . S
C100 C96 1.404 . S
C100 H101 0.950 . S
C100 C102 1.375 . S
H101 C100 0.950 . S
C102 C100 1.375 . S
C102 C104 1.382 . S
C102 H106 0.950 . S
H103 C98 0.949 . S
C104 C99 1.399 . S
C104 C102 1.382 . S
C104 H105 0.952 . S
H105 C104 0.952 . S
H106 C102 0.950 . S
H107 C108 0.949 . S
C108 H107 0.949 . S
C108 C109 1.395 . S
C108 C110 1.391 . S
C109 C108 1.395 . S
C109 C112 1.390 . S
C110 C108 1.391 . S
C110 C114 1.387 . S
C110 C115 1.491 . S
H111 C112 0.950 . S
C112 C109 1.390 . S
C112 H111 0.950 . S
C112 C113 1.378 . S
C113 C112 1.378 . S
C113 C114 1.409 . S
C114 C110 1.387 . S
C114 C113 1.409 . S
C114 H116 0.951 . S
C115 C110 1.491 . S
C115 C117 1.382 . S
C115 C119 1.404 . S
H116 C114 0.951 . S
C117 C115 1.382 . S
C117 C118 1.390 . S
C117 H122 0.949 . S
C118 C117 1.390 . S
C118 C123 1.399 . S
C119 C115 1.404 . S
C119 H120 0.950 . S
C119 C121 1.375 . S
H120 C119 0.950 . S
C121 C119 1.375 . S
C121 C123 1.382 . S
C121 H125 0.950 . S
H122 C117 0.949 . S
C123 C118 1.399 . S
C123 C121 1.382 . S
C123 H124 0.952 . S
H124 C123 0.952 . S
H125 C121 0.950 . S
H126 C127 0.949 . S
C127 H126 0.949 . S
C127 C128 1.395 . S
C127 C129 1.391 . S
C128 C127 1.395 . S
C128 C131 1.390 . S
C129 C127 1.391 . S
C129 C133 1.387 . S
C129 C134 1.491 . S
H130 C131 0.950 . S
C131 C128 1.390 . S
C131 H130 0.950 . S
C131 C132 1.378 . S
C132 C131 1.378 . S
C132 C133 1.409 . S
C133 C129 1.387 . S
C133 C132 1.409 . S
C133 H135 0.951 . S
C134 C129 1.491 . S
C134 C136 1.382 . S
C134 C138 1.404 . S
H135 C133 0.951 . S
C136 C134 1.382 . S
C136 C137 1.390 . S
C136 H141 0.949 . S
C137 C136 1.390 . S
C137 C142 1.399 . S
C138 C134 1.404 . S
C138 H139 0.950 . S
C138 C140 1.375 . S
H139 C138 0.950 . S
C140 C138 1.375 . S
C140 C142 1.382 . S
C140 H144 0.950 . S
H141 C136 0.949 . S
C142 C137 1.399 . S
C142 C140 1.382 . S
C142 H143 0.952 . S
H143 C142 0.952 . S
H144 C140 0.950 . S
H145 C146 0.949 . S
C146 H145 0.949 . S
C146 C147 1.395 . S
C146 C148 1.391 . S
C147 C146 1.395 . S
C147 C150 1.390 . S
C148 C146 1.391 . S
C148 C152 1.387 . S
C148 C153 1.491 . S
H149 C150 0.950 . S
C150 C147 1.390 . S
C150 H149 0.950 . S
C150 C151 1.378 . S
C151 C150 1.378 . S
C151 C152 1.409 . S
C152 C148 1.387 . S
C152 C151 1.409 . S
C152 H154 0.951 . S
C153 C148 1.491 . S
C153 C155 1.382 . S
C153 C157 1.404 . S
H154 C152 0.951 . S
C155 C153 1.382 . S
C155 C156 1.390 . S
C155 H160 0.949 . S
C156 C155 1.390 . S
C156 C161 1.399 . S
C157 C153 1.404 . S
C157 H158 0.950 . S
C157 C159 1.375 . S
H158 C157 0.950 . S
C159 C157 1.375 . S
C159 C161 1.382 . S
C159 H163 0.950 . S
H160 C155 0.949 . S
C161 C156 1.399 . S
C161 C159 1.382 . S
C161 H162 0.952 . S
H162 C161 0.952 . S
H163 C159 0.950 . S
H164 C165 0.949 . S
C165 H164 0.949 . S
C165 C166 1.395 . S
C165 C167 1.391 . S
C166 C165 1.395 . S
C166 C169 1.390 . S
C167 C165 1.391 . S
C167 C171 1.387 . S
C167 C172 1.491 . S
H168 C169 0.950 . S
C169 C166 1.390 . S
C169 H168 0.950 . S
C169 C170 1.378 . S
C170 C169 1.378 . S
C170 C171 1.409 . S
C171 C167 1.387 . S
C171 C170 1.409 . S
C171 H173 0.951 . S
C172 C167 1.491 . S
C172 C174 1.382 . S
C172 C176 1.404 . S
H173 C171 0.951 . S
C174 C172 1.382 . S
C174 C175 1.390 . S
C174 H179 0.949 . S
C175 C174 1.390 . S
C175 C180 1.399 . S
C176 C172 1.404 . S
C176 H177 0.950 . S
C176 C178 1.375 . S
H177 C176 0.950 . S
C178 C176 1.375 . S
C178 C180 1.382 . S
C178 H182 0.950 . S
H179 C174 0.949 . S
C180 C175 1.399 . S
C180 C178 1.382 . S
C180 H181 0.952 . S
H181 C180 0.952 . S
H182 C178 0.950 . S
H183 C184 0.949 . S
C184 H183 0.949 . S
C184 C185 1.395 . S
C184 C186 1.391 . S
C185 C184 1.395 . S
C185 C188 1.390 . S
C186 C184 1.391 . S
C186 C190 1.387 . S
C186 C191 1.491 . S
H187 C188 0.950 . S
C188 C185 1.390 . S
C188 H187 0.950 . S
C188 C189 1.378 . S
C189 C188 1.378 . S
C189 C190 1.409 . S
C190 C186 1.387 . S
C190 C189 1.409 . S
C190 H192 0.951 . S
C191 C186 1.491 . S
C191 C193 1.382 . S
C191 C195 1.404 . S
H192 C190 0.951 . S
C193 C191 1.382 . S
C193 C194 1.390 . S
C193 H198 0.949 . S
C194 C193 1.390 . S
C194 C199 1.399 . S
C195 C191 1.404 . S
C195 H196 0.950 . S
C195 C197 1.375 . S
H196 C195 0.950 . S
C197 C195 1.375 . S
C197 C199 1.382 . S
C197 H201 0.950 . S
H198 C193 0.949 . S
C199 C194 1.399 . S
C199 C197 1.382 . S
C199 H200 0.952 . S
H200 C199 0.952 . S
H201 C197 0.950 . S
H202 C203 0.949 . S
C203 H202 0.949 . S
C203 C204 1.395 . S
C203 C205 1.391 . S
C204 C203 1.395 . S
C204 C207 1.390 . S
C205 C203 1.391 . S
C205 C209 1.387 . S
C205 C210 1.491 . S
H206 C207 0.950 . S
C207 C204 1.390 . S
C207 H206 0.950 . S
C207 C208 1.378 . S
C208 C207 1.378 . S
C208 C209 1.409 . S
C209 C205 1.387 . S
C209 C208 1.409 . S
C209 H211 0.951 . S
C210 C205 1.491 . S
C210 C212 1.382 . S
C210 C214 1.404 . S
H211 C209 0.951 . S
C212 C210 1.382 . S
C212 C213 1.390 . S
C212 H217 0.949 . S
C213 C212 1.390 . S
C213 C218 1.399 . S
C214 C210 1.404 . S
C214 H215 0.950 . S
C214 C216 1.375 . S
H215 C214 0.950 . S
C216 C214 1.375 . S
C216 C218 1.382 . S
C216 H220 0.950 . S
H217 C212 0.949 . S
C218 C213 1.399 . S
C218 C216 1.382 . S
C218 H219 0.952 . S
H219 C218 0.952 . S
H220 C216 0.950 . S
H221 C222 0.949 . S
C222 H221 0.949 . S
C222 C223 1.395 . S
C222 C224 1.391 . S
C223 C222 1.395 . S
C223 C226 1.390 . S
C224 C222 1.391 . S
C224 C228 1.387 . S
C224 C229 1.491 . S
H225 C226 0.950 . S
C226 C223 1.390 . S
C226 H225 0.950 . S
C226 C227 1.378 . S
C227 C226 1.378 . S
C227 C228 1.409 . S
C228 C224 1.387 . S
C228 C227 1.409 . S
C228 H230 0.951 . S
C229 C224 1.491 . S
C229 C231 1.382 . S
C229 C233 1.404 . S
H230 C228 0.951 . S
C231 C229 1.382 . S
C231 C232 1.390 . S
C231 H236 0.949 . S
C232 C231 1.390 . S
C232 C237 1.399 . S
C233 C229 1.404 . S
C233 H234 0.950 . S
C233 C235 1.375 . S
H234 C233 0.950 . S
C235 C233 1.375 . S
C235 C237 1.382 . S
C235 H239 0.950 . S
H236 C231 0.949 . S
C237 C232 1.399 . S
C237 C235 1.382 . S
C237 H238 0.952 . S
H238 C237 0.952 . S
H239 C235 0.950 . S
H240 C252 0.930 . S
H241 C254 0.930 . S
H242 C255 0.930 . S
H243 C259 0.959 . S
H244 C259 0.959 . S
H245 C259 0.961 . S
H246 C260 0.960 . S
H247 C260 0.961 . S
H248 C260 0.959 . S
H249 C263 0.929 . S
H250 C264 0.931 . S
H251 C266 0.930 . S
C252 H240 0.930 . S
C252 C253 1.399 . S
C252 C257 1.399 1_565 S
C253 C252 1.399 . S
C253 C254 1.376 . S
C254 H241 0.930 . S
C254 C253 1.376 . S
C254 C255 1.388 . S
C255 H242 0.930 . S
C255 C254 1.388 . S
C255 C256 1.413 . S
C256 C255 1.413 . S
C256 C257 1.385 1_565 S
C256 C262 1.448 1_565 S
C257 C252 1.399 1_545 S
C257 C256 1.385 1_545 S
C257 C258 1.516 . S
C258 C257 1.516 . S
C258 C259 1.502 . S
C258 C260 1.561 . S
C258 C261 1.526 . S
C259 H243 0.959 . S
C259 H244 0.959 . S
C259 H245 0.961 . S
C259 C258 1.502 . S
C260 H246 0.960 . S
C260 H247 0.961 . S
C260 H248 0.959 . S
C260 C258 1.561 . S
C261 C258 1.526 . S
C261 C262 1.396 . S
C261 C266 1.390 . S
C262 C256 1.448 1_545 S
C262 C261 1.396 . S
C262 C263 1.399 . S
C263 H249 0.929 . S
C263 C262 1.399 . S
C263 C264 1.385 . S
C264 H250 0.931 . S
C264 C263 1.385 . S
C264 C265 1.389 . S
C265 C264 1.389 . S
C265 C266 1.387 . S
C266 H251 0.930 . S
C266 C261 1.390 . S
C266 C265 1.387 . S
H267 C279 0.930 . S
H268 C281 0.930 . S
H269 C282 0.930 . S
H270 C286 0.959 . S
H271 C286 0.959 . S
H272 C286 0.961 . S
H273 C287 0.960 . S
H274 C287 0.961 . S
H275 C287 0.959 . S
H276 C290 0.929 . S
H277 C291 0.931 . S
H278 C293 0.930 . S
C279 H267 0.930 . S
C279 C280 1.399 . S
C279 C284 1.399 . S
C280 C279 1.399 . S
C280 C281 1.376 . S
C281 H268 0.930 . S
C281 C280 1.376 . S
C281 C282 1.388 . S
C282 H269 0.930 . S
C282 C281 1.388 . S
C282 C283 1.390 . S
C283 C282 1.390 . S
C283 C284 1.394 . S
C283 C289 1.465 . S
C284 C279 1.399 . S
C284 C283 1.394 . S
C284 C285 1.516 . S
C285 C284 1.516 . S
C285 C286 1.502 . S
C285 C287 1.561 . S
C285 C288 1.526 . S
C286 H270 0.959 . S
C286 H271 0.959 . S
C286 H272 0.961 . S
C286 C285 1.502 . S
C287 H273 0.960 . S
C287 H274 0.961 . S
C287 H275 0.959 . S
C287 C285 1.561 . S
C288 C285 1.526 . S
C288 C289 1.396 . S
C288 C293 1.390 . S
C289 C283 1.465 . S
C289 C288 1.396 . S
C289 C290 1.399 . S
C290 H276 0.929 . S
C290 C289 1.399 . S
C290 C291 1.385 . S
C291 H277 0.931 . S
C291 C290 1.385 . S
C291 C292 1.389 . S
C292 C291 1.389 . S
C292 C293 1.387 . S
C293 H278 0.930 . S
C293 C288 1.390 . S
C293 C292 1.387 . S
H294 C306 0.930 . S
H295 C308 0.930 . S
H296 C309 0.930 . S
H297 C313 0.959 . S
H298 C313 0.959 . S
H299 C313 0.961 . S
H300 C314 0.960 . S
H301 C314 0.961 . S
H302 C314 0.959 . S
H303 C317 0.929 . S
H304 C318 0.931 . S
H305 C320 0.930 . S
C306 H294 0.930 . S
C306 C307 1.399 . S
C306 C311 1.399 1_545 S
C307 C306 1.399 . S
C307 C308 1.376 . S
C308 H295 0.930 . S
C308 C307 1.376 . S
C308 C309 1.388 . S
C309 H296 0.930 . S
C309 C308 1.388 . S
C309 C310 1.390 1_545 S
C310 C309 1.390 1_565 S
C310 C311 1.394 . S
C310 C316 1.465 . S
C311 C306 1.399 1_565 S
C311 C310 1.394 . S
C311 C312 1.516 . S
C312 C311 1.516 . S
C312 C313 1.502 . S
C312 C314 1.561 . S
C312 C315 1.526 . S
C313 H297 0.959 . S
C313 H298 0.959 . S
C313 H299 0.961 . S
C313 C312 1.502 . S
C314 H300 0.960 . S
C314 H301 0.961 . S
C314 H302 0.959 . S
C314 C312 1.561 . S
C315 C312 1.526 . S
C315 C316 1.396 . S
C315 C320 1.390 . S
C316 C310 1.465 . S
C316 C315 1.396 . S
C316 C317 1.399 . S
C317 H303 0.929 . S
C317 C316 1.399 . S
C317 C318 1.385 . S
C318 H304 0.931 . S
C318 C317 1.385 . S
C318 C319 1.389 . S
C319 C318 1.389 . S
C319 C320 1.387 . S
C320 H305 0.930 . S
C320 C315 1.390 . S
C320 C319 1.387 . S
H321 C333 0.930 . S
H322 C335 0.930 . S
H323 C336 0.930 . S
H324 C340 0.959 . S
H325 C340 0.959 . S
H326 C340 0.961 . S
H327 C341 0.960 . S
H328 C341 0.961 . S
H329 C341 0.959 . S
H330 C344 0.929 . S
H331 C345 0.931 . S
H332 C347 0.930 . S
C333 H321 0.930 . S
C333 C334 1.399 . S
C333 C338 1.399 . S
C334 C333 1.399 . S
C334 C335 1.376 . S
C335 H322 0.930 . S
C335 C334 1.376 . S
C335 C336 1.388 . S
C336 H323 0.930 . S
C336 C335 1.388 . S
C336 C337 1.390 . S
C337 C336 1.390 . S
C337 C338 1.394 . S
C337 C343 1.465 . S
C338 C333 1.399 . S
C338 C337 1.394 . S
C338 C339 1.516 . S
C339 C338 1.516 . S
C339 C340 1.502 . S
C339 C341 1.561 . S
C339 C342 1.526 . S
C340 H324 0.959 . S
C340 H325 0.959 . S
C340 H326 0.961 . S
C340 C339 1.502 . S
C341 H327 0.960 . S
C341 H328 0.961 . S
C341 H329 0.959 . S
C341 C339 1.561 . S
C342 C339 1.526 . S
C342 C343 1.396 . S
C342 C347 1.390 . S
C343 C337 1.465 . S
C343 C342 1.396 . S
C343 C344 1.399 . S
C344 H330 0.929 . S
C344 C343 1.399 . S
C344 C345 1.385 . S
C345 H331 0.931 . S
C345 C344 1.385 . S
C345 C346 1.389 . S
C346 C345 1.389 . S
C346 C347 1.387 . S
C347 H332 0.930 . S
C347 C342 1.390 . S
C347 C346 1.387 . S
H348 C360 0.930 . S
H349 C362 0.930 . S
H350 C363 0.930 . S
H351 C367 0.959 . S
H352 C367 0.959 . S
H353 C367 0.961 . S
H354 C368 0.960 . S
H355 C368 0.961 . S
H356 C368 0.959 . S
H357 C371 0.929 . S
H358 C372 0.931 . S
H359 C374 0.930 . S
C360 H348 0.930 . S
C360 C361 1.399 . S
C360 C365 1.399 . S
C361 C360 1.399 . S
C361 C362 1.376 . S
C362 H349 0.930 . S
C362 C361 1.376 . S
C362 C363 1.388 . S
C363 H350 0.930 . S
C363 C362 1.388 . S
C363 C364 1.390 . S
C364 C363 1.390 . S
C364 C365 1.394 . S
C364 C370 1.465 . S
C365 C360 1.399 . S
C365 C364 1.394 . S
C365 C366 1.516 . S
C366 C365 1.516 . S
C366 C367 1.502 . S
C366 C368 1.561 . S
C366 C369 1.526 . S
C367 H351 0.959 . S
C367 H352 0.959 . S
C367 H353 0.961 . S
C367 C366 1.502 . S
C368 H354 0.960 . S
C368 H355 0.961 . S
C368 H356 0.959 . S
C368 C366 1.561 . S
C369 C366 1.526 . S
C369 C370 1.396 . S
C369 C374 1.390 . S
C370 C364 1.465 . S
C370 C369 1.396 . S
C370 C371 1.399 . S
C371 H357 0.929 . S
C371 C370 1.399 . S
C371 C372 1.385 . S
C372 H358 0.931 . S
C372 C371 1.385 . S
C372 C373 1.389 . S
C373 C372 1.389 . S
C373 C374 1.387 . S
C374 H359 0.930 . S
C374 C369 1.390 . S
C374 C373 1.387 . S
H375 C387 0.930 . S
H376 C389 0.930 . S
H377 C390 0.930 . S
H378 C394 0.959 . S
H379 C394 0.959 . S
H380 C394 0.961 . S
H381 C395 0.960 . S
H382 C395 0.961 . S
H383 C395 0.959 . S
H384 C398 0.929 . S
H385 C399 0.931 . S
H386 C401 0.930 . S
C387 H375 0.930 . S
C387 C388 1.399 . S
C387 C392 1.399 1_655 S
C388 C387 1.399 . S
C388 C389 1.376 . S
C389 H376 0.930 . S
C389 C388 1.376 . S
C389 C390 1.388 1_655 S
C390 H377 0.930 . S
C390 C389 1.388 1_455 S
C390 C391 1.390 . S
C391 C390 1.390 . S
C391 C392 1.394 . S
C391 C397 1.465 . S
C392 C387 1.399 1_455 S
C392 C391 1.394 . S
C392 C393 1.516 . S
C393 C392 1.516 . S
C393 C394 1.502 . S
C393 C395 1.561 . S
C393 C396 1.526 . S
C394 H378 0.959 . S
C394 H379 0.959 . S
C394 H380 0.961 . S
C394 C393 1.502 . S
C395 H381 0.960 . S
C395 H382 0.961 . S
C395 H383 0.959 . S
C395 C393 1.561 . S
C396 C393 1.526 . S
C396 C397 1.396 . S
C396 C401 1.390 . S
C397 C391 1.465 . S
C397 C396 1.396 . S
C397 C398 1.399 . S
C398 H384 0.929 . S
C398 C397 1.399 . S
C398 C399 1.385 . S
C399 H385 0.931 . S
C399 C398 1.385 . S
C399 C400 1.389 . S
C400 C399 1.389 . S
C400 C401 1.387 . S
C401 H386 0.930 . S
C401 C396 1.390 . S
C401 C400 1.387 . S
H402 C414 0.930 . S
H403 C416 0.930 . S
H404 C417 0.930 . S
H405 C421 0.959 . S
H406 C421 0.959 . S
H407 C421 0.961 . S
H408 C422 0.960 . S
H409 C422 0.961 . S
H410 C422 0.959 . S
H411 C425 0.929 . S
H412 C426 0.931 . S
H413 C428 0.930 . S
C414 H402 0.930 . S
C414 C415 1.399 . S
C414 C419 1.399 . S
C415 C414 1.399 . S
C415 C416 1.376 . S
C416 H403 0.930 . S
C416 C415 1.376 . S
C416 C417 1.388 . S
C417 H404 0.930 . S
C417 C416 1.388 . S
C417 C418 1.390 . S
C418 C417 1.390 . S
C418 C419 1.394 . S
C418 C424 1.465 . S
C419 C414 1.399 . S
C419 C418 1.394 . S
C419 C420 1.516 . S
C420 C419 1.516 . S
C420 C421 1.502 . S
C420 C422 1.561 . S
C420 C423 1.526 . S
C421 H405 0.959 . S
C421 H406 0.959 . S
C421 H407 0.961 . S
C421 C420 1.502 . S
C422 H408 0.960 . S
C422 H409 0.961 . S
C422 H410 0.959 . S
C422 C420 1.561 . S
C423 C420 1.526 . S
C423 C424 1.396 . S
C423 C428 1.390 . S
C424 C418 1.465 . S
C424 C423 1.396 . S
C424 C425 1.399 . S
C425 H411 0.929 . S
C425 C424 1.399 . S
C425 C426 1.385 . S
C426 H412 0.931 . S
C426 C425 1.385 . S
C426 C427 1.389 . S
C427 C426 1.389 . S
C427 C428 1.387 . S
C428 H413 0.930 . S
C428 C423 1.390 . S
C428 C427 1.387 . S
H429 C441 0.930 . S
H430 C443 0.930 . S
H431 C444 0.943 . S
H432 C448 0.959 . S
H433 C448 0.959 . S
H434 C448 0.961 . S
H435 C449 0.960 . S
H436 C449 0.961 . S
H437 C449 0.959 . S
H438 C452 0.929 . S
H439 C453 0.931 . S
H440 C455 0.930 . S
C441 H429 0.930 . S
C441 C442 1.399 . S
C441 C446 1.399 . S
C442 C441 1.399 . S
C442 C443 1.376 . S
C443 H430 0.930 . S
C443 C442 1.376 . S
C443 C444 1.388 . S
C444 H431 0.943 . S
C444 C443 1.388 . S
C444 C445 1.390 1_455 S
C445 C444 1.390 1_655 S
C445 C446 1.394 1_655 S
C445 C451 1.465 . S
C446 C441 1.399 . S
C446 C445 1.394 1_455 S
C446 C447 1.516 1_455 S
C447 C446 1.516 1_655 S
C447 C448 1.502 . S
C447 C449 1.561 1_655 S
C447 C450 1.526 . S
C448 H432 0.959 . S
C448 H433 0.959 . S
C448 H434 0.961 . S
C448 C447 1.502 . S
C449 H435 0.960 . S
C449 H436 0.961 . S
C449 H437 0.959 . S
C449 C447 1.561 1_455 S
C450 C447 1.526 . S
C450 C451 1.396 . S
C450 C455 1.390 . S
C451 C445 1.465 . S
C451 C450 1.396 . S
C451 C452 1.399 . S
C452 H438 0.929 . S
C452 C451 1.399 . S
C452 C453 1.385 . S
C453 H439 0.931 . S
C453 C452 1.385 . S
C453 C454 1.389 . S
C454 C453 1.389 . S
C454 C455 1.387 . S
C455 H440 0.930 . S
C455 C450 1.390 . S
C455 C454 1.387 . S
H456 C468 0.930 . S
H457 C470 0.930 . S
H458 C471 0.930 . S
H459 C475 0.959 . S
H460 C475 0.959 . S
H461 C475 0.961 . S
H462 C476 0.960 . S
H463 C476 0.961 . S
H464 C476 0.959 . S
H465 C479 0.929 . S
H466 C480 0.931 . S
H467 C482 0.930 . S
C468 H456 0.930 . S
C468 C469 1.399 . S
C468 C473 1.399 1_545 S
C469 C468 1.399 . S
C469 C470 1.376 . S
C470 H457 0.930 . S
C470 C469 1.376 . S
C470 C471 1.388 . S
C471 H458 0.930 . S
C471 C470 1.388 . S
C471 C472 1.390 1_545 S
C472 C471 1.390 1_565 S
C472 C473 1.394 . S
C472 C478 1.465 . S
C473 C468 1.399 1_565 S
C473 C472 1.394 . S
C473 C474 1.516 . S
C474 C473 1.516 . S
C474 C475 1.502 . S
C474 C476 1.561 . S
C474 C477 1.526 . S
C475 H459 0.959 . S
C475 H460 0.959 . S
C475 H461 0.961 . S
C475 C474 1.502 . S
C476 H462 0.960 . S
C476 H463 0.961 . S
C476 H464 0.959 . S
C476 C474 1.561 . S
C477 C474 1.526 . S
C477 C478 1.396 . S
C477 C482 1.390 . S
C478 C472 1.465 . S
C478 C477 1.396 . S
C478 C479 1.399 . S
C479 H465 0.929 . S
C479 C478 1.399 . S
C479 C480 1.385 . S
C480 H466 0.931 . S
C480 C479 1.385 . S
C480 C481 1.389 . S
C481 C480 1.389 . S
C481 C482 1.387 . S
C482 H467 0.930 . S
C482 C477 1.390 . S
C482 C481 1.387 . S
H483 C495 0.930 . S
H484 C497 0.930 . S
H485 C498 0.930 . S
H486 C502 0.959 . S
H487 C502 0.959 . S
H488 C502 0.961 . S
H489 C503 0.960 . S
H490 C503 0.961 . S
H491 C503 0.959 . S
H492 C506 0.929 . S
H493 C507 0.931 . S
H494 C509 0.930 . S
C495 H483 0.930 . S
C495 C496 1.399 . S
C495 C500 1.399 . S
C496 C495 1.399 . S
C496 C497 1.376 . S
C497 H484 0.930 . S
C497 C496 1.376 . S
C497 C498 1.388 . S
C498 H485 0.930 . S
C498 C497 1.388 . S
C498 C499 1.390 . S
C499 C498 1.390 . S
C499 C500 1.394 . S
C499 C505 1.465 . S
C500 C495 1.399 . S
C500 C499 1.394 . S
C500 C501 1.516 . S
C501 C500 1.516 . S
C501 C502 1.502 . S
C501 C503 1.561 . S
C501 C504 1.526 . S
C502 H486 0.959 . S
C502 H487 0.959 . S
C502 H488 0.961 . S
C502 C501 1.502 . S
C503 H489 0.960 . S
C503 H490 0.961 . S
C503 H491 0.959 . S
C503 C501 1.561 . S
C504 C501 1.526 . S
C504 C505 1.396 . S
C504 C509 1.390 . S
C505 C499 1.465 . S
C505 C504 1.396 . S
C505 C506 1.399 . S
C506 H492 0.929 . S
C506 C505 1.399 . S
C506 C507 1.385 . S
C507 H493 0.931 . S
C507 C506 1.385 . S
C507 C508 1.389 . S
C508 C507 1.389 . S
C508 C509 1.387 . S
C509 H494 0.930 . S
C509 C504 1.390 . S
C509 C508 1.387 . S
H510 C522 0.930 . S
H511 C524 0.930 . S
H512 C525 0.930 . S
H513 C529 0.959 . S
H514 C529 0.959 . S
H515 C529 0.961 . S
H516 C530 0.960 . S
H517 C530 0.961 . S
H518 C530 0.959 . S
H519 C533 0.929 . S
H520 C534 0.931 . S
H521 C536 0.930 . S
C522 H510 0.930 . S
C522 C523 1.399 . S
C522 C527 1.399 1_565 S
C523 C522 1.399 . S
C523 C524 1.376 . S
C524 H511 0.930 . S
C524 C523 1.376 . S
C524 C525 1.388 . S
C525 H512 0.930 . S
C525 C524 1.388 . S
C525 C526 1.390 1_565 S
C526 C525 1.390 1_545 S
C526 C527 1.394 . S
C526 C532 1.465 . S
C527 C522 1.399 1_545 S
C527 C526 1.394 . S
C527 C528 1.516 . S
C528 C527 1.516 . S
C528 C529 1.502 . S
C528 C530 1.561 . S
C528 C531 1.526 . S
C529 H513 0.959 . S
C529 H514 0.959 . S
C529 H515 0.961 . S
C529 C528 1.502 . S
C530 H516 0.960 . S
C530 H517 0.961 . S
C530 H518 0.959 . S
C530 C528 1.561 . S
C531 C528 1.526 . S
C531 C532 1.396 . S
C531 C536 1.390 . S
C532 C526 1.465 . S
C532 C531 1.396 . S
C532 C533 1.399 . S
C533 H519 0.929 . S
C533 C532 1.399 . S
C533 C534 1.385 . S
C534 H520 0.931 . S
C534 C533 1.385 . S
C534 C535 1.389 . S
C535 C534 1.389 . S
C535 C536 1.387 . S
C536 H521 0.930 . S
C536 C531 1.390 . S
C536 C535 1.387 . S
H537 C549 0.930 . S
H538 C551 0.930 . S
H539 C552 0.930 . S
H540 C556 0.959 . S
H541 C556 0.959 . S
H542 C556 0.961 . S
H543 C557 0.960 . S
H544 C557 0.961 . S
H545 C557 0.959 . S
H546 C560 0.929 . S
H547 C561 0.931 . S
H548 C563 0.930 . S
C549 H537 0.930 . S
C549 C550 1.399 . S
C549 C554 1.399 . S
C550 C549 1.399 . S
C550 C551 1.376 . S
C551 H538 0.930 . S
C551 C550 1.376 . S
C551 C552 1.388 . S
C552 H539 0.930 . S
C552 C551 1.388 . S
C552 C553 1.390 . S
C553 C552 1.390 . S
C553 C554 1.394 . S
C553 C559 1.465 . S
C554 C549 1.399 . S
C554 C553 1.394 . S
C554 C555 1.516 . S
C555 C554 1.516 . S
C555 C556 1.502 . S
C555 C557 1.561 . S
C555 C558 1.526 . S
C556 H540 0.959 . S
C556 H541 0.959 . S
C556 H542 0.961 . S
C556 C555 1.502 . S
C557 H543 0.960 . S
C557 H544 0.961 . S
C557 H545 0.959 . S
C557 C555 1.561 . S
C558 C555 1.526 . S
C558 C559 1.396 . S
C558 C563 1.390 . S
C559 C553 1.465 . S
C559 C558 1.396 . S
C559 C560 1.399 . S
C560 H546 0.929 . S
C560 C559 1.399 . S
C560 C561 1.385 . S
C561 H547 0.931 . S
C561 C560 1.385 . S
C561 C562 1.389 . S
C562 C561 1.389 . S
C562 C563 1.387 . S
C563 H548 0.930 . S
C563 C558 1.390 . S
C563 C562 1.387 . S
H564 C576 0.930 . S
H565 C578 0.930 . S
H566 C579 0.930 . S
H567 C583 0.959 . S
H568 C583 0.959 . S
H569 C583 0.961 . S
H570 C584 0.960 . S
H571 C584 0.961 . S
H572 C584 0.959 . S
H573 C587 0.929 . S
H574 C588 0.931 . S
H575 C590 0.930 . S
C576 H564 0.930 . S
C576 C577 1.399 . S
C576 C581 1.399 . S
C577 C576 1.399 . S
C577 C578 1.376 . S
C578 H565 0.930 . S
C578 C577 1.376 . S
C578 C579 1.388 . S
C579 H566 0.930 . S
C579 C578 1.388 . S
C579 C580 1.390 . S
C580 C579 1.390 . S
C580 C581 1.394 . S
C580 C586 1.465 . S
C581 C576 1.399 . S
C581 C580 1.394 . S
C581 C582 1.516 . S
C582 C581 1.516 . S
C582 C583 1.502 . S
C582 C584 1.561 . S
C582 C585 1.526 . S
C583 H567 0.959 . S
C583 H568 0.959 . S
C583 H569 0.961 . S
C583 C582 1.502 . S
C584 H570 0.960 . S
C584 H571 0.961 . S
C584 H572 0.959 . S
C584 C582 1.561 . S
C585 C582 1.526 . S
C585 C586 1.396 . S
C585 C590 1.390 . S
C586 C580 1.465 . S
C586 C585 1.396 . S
C586 C587 1.399 . S
C587 H573 0.929 . S
C587 C586 1.399 . S
C587 C588 1.385 . S
C588 H574 0.931 . S
C588 C587 1.385 . S
C588 C589 1.389 . S
C589 C588 1.389 . S
C589 C590 1.387 . S
C590 H575 0.930 . S
C590 C585 1.390 . S
C590 C589 1.387 . S
H591 C603 0.930 . S
H592 C605 0.930 . S
H593 C606 0.930 . S
H594 C610 0.959 . S
H595 C610 0.959 . S
H596 C610 0.961 . S
H597 C611 0.960 . S
H598 C611 0.961 . S
H599 C611 0.959 . S
H600 C614 0.929 . S
H601 C615 0.931 . S
H602 C617 0.930 . S
C603 H591 0.930 . S
C603 C604 1.399 . S
C603 C608 1.399 1_455 S
C604 C603 1.399 . S
C604 C605 1.376 . S
C605 H592 0.930 . S
C605 C604 1.376 . S
C605 C606 1.388 . S
C606 H593 0.930 . S
C606 C605 1.388 . S
C606 C607 1.390 1_455 S
C607 C606 1.390 1_655 S
C607 C608 1.394 . S
C607 C613 1.465 . S
C608 C603 1.399 1_655 S
C608 C607 1.394 . S
C608 C609 1.516 . S
C609 C608 1.516 . S
C609 C610 1.502 . S
C609 C611 1.561 . S
C609 C612 1.526 . S
C610 H594 0.959 . S
C610 H595 0.959 . S
C610 H596 0.961 . S
C610 C609 1.502 . S
C611 H597 0.960 . S
C611 H598 0.961 . S
C611 H599 0.959 . S
C611 C609 1.561 . S
C612 C609 1.526 . S
C612 C613 1.396 . S
C612 C617 1.390 . S
C613 C607 1.465 . S
C613 C612 1.396 . S
C613 C614 1.399 . S
C614 H600 0.929 . S
C614 C613 1.399 . S
C614 C615 1.385 . S
C615 H601 0.931 . S
C615 C614 1.385 . S
C615 C616 1.389 . S
C616 C615 1.389 . S
C616 C617 1.387 . S
C617 H602 0.930 . S
C617 C612 1.390 . S
C617 C616 1.387 . S
H618 C630 0.930 . S
H619 C632 0.930 . S
H620 C633 0.930 . S
H621 C637 0.959 . S
H622 C637 0.959 . S
H623 C637 0.961 . S
H624 C638 0.960 . S
H625 C638 0.961 . S
H626 C638 0.959 . S
H627 C641 0.929 . S
H628 C642 0.931 . S
H629 C644 0.930 . S
C630 H618 0.930 . S
C630 C631 1.399 . S
C630 C635 1.399 . S
C631 C630 1.399 . S
C631 C632 1.376 . S
C632 H619 0.930 . S
C632 C631 1.376 . S
C632 C633 1.388 . S
C633 H620 0.930 . S
C633 C632 1.388 . S
C633 C634 1.390 . S
C634 C633 1.390 . S
C634 C635 1.394 . S
C634 C640 1.465 . S
C635 C630 1.399 . S
C635 C634 1.394 . S
C635 C636 1.516 . S
C636 C635 1.516 . S
C636 C637 1.502 . S
C636 C638 1.561 . S
C636 C639 1.526 . S
C637 H621 0.959 . S
C637 H622 0.959 . S
C637 H623 0.961 . S
C637 C636 1.502 . S
C638 H624 0.960 . S
C638 H625 0.961 . S
C638 H626 0.959 . S
C638 C636 1.561 . S
C639 C636 1.526 . S
C639 C640 1.396 . S
C639 C644 1.390 . S
C640 C634 1.465 . S
C640 C639 1.396 . S
C640 C641 1.399 . S
C641 H627 0.929 . S
C641 C640 1.399 . S
C641 C642 1.385 . S
C642 H628 0.931 . S
C642 C641 1.385 . S
C642 C643 1.389 . S
C643 C642 1.389 . S
C643 C644 1.387 . S
C644 H629 0.930 . S
C644 C639 1.390 . S
C644 C643 1.387 . S
H645 C657 0.930 . S
H646 C659 0.930 . S
H647 C660 0.930 . S
H648 C664 0.959 . S
H649 C664 0.959 . S
H650 C664 0.961 . S
H651 C665 0.960 1_655 S
H652 C665 0.961 . S
H653 C665 0.959 . S
H654 C668 0.929 . S
H655 C669 0.931 . S
H656 C671 0.930 . S
C657 H645 0.930 . S
C657 C658 1.399 . S
C657 C662 1.399 . S
C658 C657 1.399 . S
C658 C659 1.376 . S
C659 H646 0.930 . S
C659 C658 1.376 . S
C659 C660 1.388 1_655 S
C660 H647 0.930 . S
C660 C659 1.388 1_455 S
C660 C661 1.390 . S
C661 C660 1.390 . S
C661 C662 1.394 1_455 S
C661 C667 1.465 . S
C662 C657 1.399 . S
C662 C661 1.394 1_655 S
C662 C663 1.516 . S
C663 C662 1.516 . S
C663 C664 1.502 . S
C663 C665 1.561 1_655 S
C663 C666 1.526 1_655 S
C664 H648 0.959 . S
C664 H649 0.959 . S
C664 H650 0.961 . S
C664 C663 1.502 . S
C665 H651 0.960 1_455 S
C665 H652 0.961 . S
C665 H653 0.959 . S
C665 C663 1.561 1_455 S
C666 C663 1.526 1_455 S
C666 C667 1.396 . S
C666 C671 1.390 . S
C667 C661 1.465 . S
C667 C666 1.396 . S
C667 C668 1.399 . S
C668 H654 0.929 . S
C668 C667 1.399 . S
C668 C669 1.385 . S
C669 H655 0.931 . S
C669 C668 1.385 . S
C669 C670 1.389 . S
C670 C669 1.389 . S
C670 C671 1.387 . S
C671 H656 0.930 . S
C671 C666 1.390 . S
C671 C670 1.387 . S
H672 C684 0.930 . S
H673 C686 0.930 . S
H674 C687 0.930 . S
H675 C691 0.959 . S
H676 C691 0.959 . S
H677 C691 0.961 . S
H678 C692 0.960 . S
H679 C692 0.961 . S
H680 C692 0.959 . S
H681 C695 0.929 . S
H682 C696 0.931 . S
H683 C698 0.930 . S
C684 H672 0.930 . S
C684 C685 1.399 . S
C684 C689 1.399 . S
C685 C684 1.399 . S
C685 C686 1.376 . S
C686 H673 0.930 . S
C686 C685 1.376 . S
C686 C687 1.388 . S
C687 H674 0.930 . S
C687 C686 1.388 . S
C687 C688 1.390 . S
C688 C687 1.390 . S
C688 C689 1.394 . S
C688 C694 1.465 . S
C689 C684 1.399 . S
C689 C688 1.394 . S
C689 C690 1.516 . S
C690 C689 1.516 . S
C690 C691 1.502 . S
C690 C692 1.561 . S
C690 C693 1.526 . S
C691 H675 0.959 . S
C691 H676 0.959 . S
C691 H677 0.961 . S
C691 C690 1.502 . S
C692 H678 0.960 . S
C692 H679 0.961 . S
C692 H680 0.959 . S
C692 C690 1.561 . S
C693 C690 1.526 . S
C693 C694 1.396 . S
C693 C698 1.390 . S
C694 C688 1.465 . S
C694 C693 1.396 . S
C694 C695 1.399 . S
C695 H681 0.929 . S
C695 C694 1.399 . S
C695 C696 1.385 . S
C696 H682 0.931 . S
C696 C695 1.385 . S
C696 C697 1.389 . S
C697 C696 1.389 . S
C697 C698 1.387 . S
C698 H683 0.930 . S
C698 C693 1.390 . S
C698 C697 1.387 . S
H699 C711 0.930 . S
H700 C713 0.930 . S
H701 C714 0.930 . S
H702 C718 0.959 . S
H703 C718 0.959 . S
H704 C718 0.961 . S
H705 C719 0.960 . S
H706 C719 0.961 . S
H707 C719 0.959 . S
H708 C722 0.929 . S
H709 C723 0.931 . S
H710 C725 0.930 . S
C711 H699 0.930 . S
C711 C712 1.399 . S
C711 C716 1.399 . S
C712 C711 1.399 . S
C712 C713 1.376 . S
C713 H700 0.930 . S
C713 C712 1.376 . S
C713 C714 1.388 . S
C714 H701 0.930 . S
C714 C713 1.388 . S
C714 C715 1.390 . S
C715 C714 1.390 . S
C715 C716 1.394 . S
C715 C721 1.465 . S
C716 C711 1.399 . S
C716 C715 1.394 . S
C716 C717 1.516 . S
C717 C716 1.516 . S
C717 C718 1.502 . S
C717 C719 1.561 . S
C717 C720 1.526 . S
C718 H702 0.959 . S
C718 H703 0.959 . S
C718 H704 0.961 . S
C718 C717 1.502 . S
C719 H705 0.960 . S
C719 H706 0.961 . S
C719 H707 0.959 . S
C719 C717 1.561 . S
C720 C717 1.526 . S
C720 C721 1.396 . S
C720 C725 1.390 . S
C721 C715 1.465 . S
C721 C720 1.396 . S
C721 C722 1.399 . S
C722 H708 0.929 . S
C722 C721 1.399 . S
C722 C723 1.385 . S
C723 H709 0.931 . S
C723 C722 1.385 . S
C723 C724 1.389 . S
C724 C723 1.389 . S
C724 C725 1.387 . S
C725 H710 0.930 . S
C725 C720 1.390 . S
C725 C724 1.387 . S
H726 C738 0.930 . S
H727 C740 0.930 . S
H728 C741 0.930 . S
H729 C745 0.959 . S
H730 C745 0.959 . S
H731 C745 0.961 . S
H732 C746 0.960 . S
H733 C746 0.961 . S
H734 C746 0.959 . S
H735 C749 0.929 . S
H736 C750 0.931 . S
H737 C752 0.930 . S
C738 H726 0.930 . S
C738 C739 1.399 . S
C738 C743 1.399 . S
C739 C738 1.399 . S
C739 C740 1.376 . S
C740 H727 0.930 . S
C740 C739 1.376 . S
C740 C741 1.388 . S
C741 H728 0.930 . S
C741 C740 1.388 . S
C741 C742 1.390 . S
C742 C741 1.390 . S
C742 C743 1.394 . S
C742 C748 1.465 . S
C743 C738 1.399 . S
C743 C742 1.394 . S
C743 C744 1.516 . S
C744 C743 1.516 . S
C744 C745 1.502 . S
C744 C746 1.561 . S
C744 C747 1.526 . S
C745 H729 0.959 . S
C745 H730 0.959 . S
C745 H731 0.961 . S
C745 C744 1.502 . S
C746 H732 0.960 . S
C746 H733 0.961 . S
C746 H734 0.959 . S
C746 C744 1.561 . S
C747 C744 1.526 . S
C747 C748 1.396 . S
C747 C752 1.390 . S
C748 C742 1.465 . S
C748 C747 1.396 . S
C748 C749 1.399 . S
C749 H735 0.929 . S
C749 C748 1.399 . S
C749 C750 1.385 . S
C750 H736 0.931 . S
C750 C749 1.385 . S
C750 C751 1.389 . S
C751 C750 1.389 . S
C751 C752 1.387 . S
C752 H737 0.930 . S
C752 C747 1.390 . S
C752 C751 1.387 . S
H753 C765 0.930 . S
H754 C767 0.930 . S
H755 C768 0.930 . S
H756 C772 0.959 . S
H757 C772 0.959 . S
H758 C772 0.961 . S
H759 C773 0.960 . S
H760 C773 0.961 . S
H761 C773 0.959 . S
H762 C776 0.929 . S
H763 C777 0.931 . S
H764 C779 0.930 . S
C765 H753 0.930 . S
C765 C766 1.399 . S
C765 C770 1.399 . S
C766 C765 1.399 . S
C766 C767 1.376 . S
C767 H754 0.930 . S
C767 C766 1.376 . S
C767 C768 1.388 . S
C768 H755 0.930 . S
C768 C767 1.388 . S
C768 C769 1.390 . S
C769 C768 1.390 . S
C769 C770 1.394 . S
C769 C775 1.465 . S
C770 C765 1.399 . S
C770 C769 1.394 . S
C770 C771 1.516 . S
C771 C770 1.516 . S
C771 C772 1.502 . S
C771 C773 1.561 . S
C771 C774 1.526 . S
C772 H756 0.959 . S
C772 H757 0.959 . S
C772 H758 0.961 . S
C772 C771 1.502 . S
C773 H759 0.960 . S
C773 H760 0.961 . S
C773 H761 0.959 . S
C773 C771 1.561 . S
C774 C771 1.526 . S
C774 C775 1.396 . S
C774 C779 1.390 . S
C775 C769 1.465 . S
C775 C774 1.396 . S
C775 C776 1.399 . S
C776 H762 0.929 . S
C776 C775 1.399 . S
C776 C777 1.385 . S
C777 H763 0.931 . S
C777 C776 1.385 . S
C777 C778 1.389 . S
C778 C777 1.389 . S
C778 C779 1.387 . S
C779 H764 0.930 . S
C779 C774 1.390 . S
C779 C778 1.387 . S
H780 C792 0.930 . S
H781 C794 0.930 . S
H782 C795 0.930 . S
H783 C799 0.959 . S
H784 C799 0.959 . S
H785 C799 0.961 . S
H786 C800 0.960 . S
H787 C800 0.961 . S
H788 C800 0.959 . S
H789 C803 0.929 . S
H790 C804 0.931 . S
H791 C806 0.930 . S
C792 H780 0.930 . S
C792 C793 1.399 . S
C792 C797 1.399 . S
C793 C792 1.399 . S
C793 C794 1.376 . S
C794 H781 0.930 . S
C794 C793 1.376 . S
C794 C795 1.388 . S
C795 H782 0.930 . S
C795 C794 1.388 . S
C795 C796 1.390 . S
C796 C795 1.390 . S
C796 C797 1.394 . S
C796 C802 1.465 . S
C797 C792 1.399 . S
C797 C796 1.394 . S
C797 C798 1.516 . S
C798 C797 1.516 . S
C798 C799 1.502 . S
C798 C800 1.561 . S
C798 C801 1.526 . S
C799 H783 0.959 . S
C799 H784 0.959 . S
C799 H785 0.961 . S
C799 C798 1.502 . S
C800 H786 0.960 . S
C800 H787 0.961 . S
C800 H788 0.959 . S
C800 C798 1.561 . S
C801 C798 1.526 . S
C801 C802 1.396 . S
C801 C806 1.390 . S
C802 C796 1.465 . S
C802 C801 1.396 . S
C802 C803 1.399 . S
C803 H789 0.929 . S
C803 C802 1.399 . S
C803 C804 1.385 . S
C804 H790 0.931 . S
C804 C803 1.385 . S
C804 C805 1.389 . S
C805 C804 1.389 . S
C805 C806 1.387 . S
C806 H791 0.930 . S
C806 C801 1.390 . S
C806 C805 1.387 . S
H807 C819 0.930 . S
H808 C821 0.930 . S
H809 C822 0.930 . S
H810 C826 0.959 . S
H811 C826 0.959 . S
H812 C826 0.961 . S
H813 C827 0.960 . S
H814 C827 0.961 . S
H815 C827 0.959 . S
H816 C830 0.929 . S
H817 C831 0.931 . S
H818 C833 0.930 . S
C819 H807 0.930 . S
C819 C820 1.399 . S
C819 C824 1.399 . S
C820 C819 1.399 . S
C820 C821 1.376 . S
C821 H808 0.930 . S
C821 C820 1.376 . S
C821 C822 1.388 . S
C822 H809 0.930 . S
C822 C821 1.388 . S
C822 C823 1.390 . S
C823 C822 1.390 . S
C823 C824 1.394 . S
C823 C829 1.465 . S
C824 C819 1.399 . S
C824 C823 1.394 . S
C824 C825 1.516 . S
C825 C824 1.516 . S
C825 C826 1.502 . S
C825 C827 1.561 . S
C825 C828 1.526 . S
C826 H810 0.959 . S
C826 H811 0.959 . S
C826 H812 0.961 . S
C826 C825 1.502 . S
C827 H813 0.960 . S
C827 H814 0.961 . S
C827 H815 0.959 . S
C827 C825 1.561 . S
C828 C825 1.526 . S
C828 C829 1.396 . S
C828 C833 1.390 . S
C829 C823 1.465 . S
C829 C828 1.396 . S
C829 C830 1.399 . S
C830 H816 0.929 . S
C830 C829 1.399 . S
C830 C831 1.385 . S
C831 H817 0.931 . S
C831 C830 1.385 . S
C831 C832 1.389 . S
C832 C831 1.389 . S
C832 C833 1.387 . S
C833 H818 0.930 . S
C833 C828 1.390 . S
C833 C832 1.387 . S
H834 C846 0.930 . S
H835 C848 0.930 . S
H836 C849 0.930 . S
H837 C853 0.959 . S
H838 C853 0.959 . S
H839 C853 0.961 . S
H840 C854 0.960 . S
H841 C854 0.961 . S
H842 C854 0.959 . S
H843 C857 0.929 . S
H844 C858 0.931 . S
H845 C860 0.930 . S
C846 H834 0.930 . S
C846 C847 1.399 . S
C846 C851 1.399 . S
C847 C846 1.399 . S
C847 C848 1.376 . S
C848 H835 0.930 . S
C848 C847 1.376 . S
C848 C849 1.388 . S
C849 H836 0.930 . S
C849 C848 1.388 . S
C849 C850 1.390 . S
C850 C849 1.390 . S
C850 C851 1.394 . S
C850 C856 1.465 . S
C851 C846 1.399 . S
C851 C850 1.394 . S
C851 C852 1.516 . S
C852 C851 1.516 . S
C852 C853 1.502 . S
C852 C854 1.561 . S
C852 C855 1.526 . S
C853 H837 0.959 . S
C853 H838 0.959 . S
C853 H839 0.961 . S
C853 C852 1.502 . S
C854 H840 0.960 . S
C854 H841 0.961 . S
C854 H842 0.959 . S
C854 C852 1.561 . S
C855 C852 1.526 . S
C855 C856 1.396 . S
C855 C860 1.390 . S
C856 C850 1.465 . S
C856 C855 1.396 . S
C856 C857 1.399 . S
C857 H843 0.929 . S
C857 C856 1.399 . S
C857 C858 1.385 . S
C858 H844 0.931 . S
C858 C857 1.385 . S
C858 C859 1.389 . S
C859 C858 1.389 . S
C859 C860 1.387 . S
C860 H845 0.930 . S
C860 C855 1.390 . S
C860 C859 1.387 . S
H861 C873 0.930 . S
H862 C875 0.930 . S
H863 C876 0.930 . S
H864 C880 0.959 . S
H865 C880 0.959 . S
H866 C880 0.961 . S
H867 C881 0.960 . S
H868 C881 0.961 . S
H869 C881 0.959 . S
H870 C884 0.929 . S
H871 C885 0.931 . S
H872 C887 0.930 . S
C873 H861 0.930 . S
C873 C874 1.399 . S
C873 C878 1.399 . S
C874 C873 1.399 . S
C874 C875 1.376 . S
C875 H862 0.930 . S
C875 C874 1.376 . S
C875 C876 1.388 . S
C876 H863 0.930 . S
C876 C875 1.388 . S
C876 C877 1.390 . S
C877 C876 1.390 . S
C877 C878 1.394 . S
C877 C883 1.465 . S
C878 C873 1.399 . S
C878 C877 1.394 . S
C878 C879 1.516 . S
C879 C878 1.516 . S
C879 C880 1.502 . S
C879 C881 1.561 . S
C879 C882 1.526 . S
C880 H864 0.959 . S
C880 H865 0.959 . S
C880 H866 0.961 . S
C880 C879 1.502 . S
C881 H867 0.960 . S
C881 H868 0.961 . S
C881 H869 0.959 . S
C881 C879 1.561 . S
C882 C879 1.526 . S
C882 C883 1.396 . S
C882 C887 1.390 . S
C883 C877 1.465 . S
C883 C882 1.396 . S
C883 C884 1.399 . S
C884 H870 0.929 . S
C884 C883 1.399 . S
C884 C885 1.385 . S
C885 H871 0.931 . S
C885 C884 1.385 . S
C885 C886 1.389 . S
C886 C885 1.389 . S
C886 C887 1.387 . S
C887 H872 0.930 . S
C887 C882 1.390 . S
C887 C886 1.387 . S
C253 C7 1.480 . S
C265 C90 1.422 . S
C280 C37 1.496 . S
C292 C109 1.439 . S
C307 C54 1.211 . S
C319 C132 1.174 . S
C346 C151 1.196 . S
C334 C87 1.213 . S
C373 C166 1.332 . S
C361 C30 1.431 . S
C388 C51 1.217 . S
C400 C189 1.205 . S
C415 C84 1.235 . S
C427 C208 1.224 . S
C442 C10 1.456 . S
C454 C223 1.387 . S
C469 C59 1.294 . S
C481 C227 1.311 . S
C508 C170 1.139 . S
C496 C74 1.169 . S
C535 C185 1.376 . S
C523 C18 1.424 . S
C550 C32 1.527 . S
C562 C204 1.407 . S
C589 C113 1.263 . S
C577 C73 1.291 . S
C604 C15 1.522 . S
C616 C128 1.496 . S
C643 C147 1.423 . S
C631 C43 1.460 . S
C670 C94 1.126 . S
C658 C62 1.145 . S
C697 C213 1.382 . S
C685 C21 1.447 . S
C724 C232 1.285 . S
C712 C29 1.439 . S
C739 C52 1.336 . S
C751 C175 1.205 . S
C778 C194 1.192 . S
C766 C81 1.378 . S
C805 C137 1.307 . S
C793 C40 1.418 . S
C820 C65 1.373 . S
C832 C156 1.333 . S
C859 C99 1.187 . S
C847 C76 1.323 . S
C886 C118 1.386 . S
C874 C8 1.479 . S
