# Generated by pormake.
# Topology zzz, (3,6)-cn, num edge types: 1
# Building blocks:
#     Node 0, Type 0, BuildingBlock: CUQRIR_clean_linker_1, # of connection points: 3
#     Node 1, Type 0, BuildingBlock: CUQRIR_clean_linker_1, # of connection points: 3
#     Node 2, Type 0, BuildingBlock: CUQRIR_clean_linker_1, # of connection points: 3
#     Node 3, Type 0, BuildingBlock: CUQRIR_clean_linker_1, # of connection points: 3
#     Node 4, Type 0, BuildingBlock: CUQRIR_clean_linker_1, # of connection points: 3
#     Node 5, Type 0, BuildingBlock: CUQRIR_clean_linker_1, # of connection points: 3
#     Node 6, Type 0, BuildingBlock: CUQRIR_clean_linker_1, # of connection points: 3
#     Node 7, Type 0, BuildingBlock: CUQRIR_clean_linker_1, # of connection points: 3
#     Node 8, Type 1, BuildingBlock: CUWYAW_clean_sbu_0, # of connection points: 6
#     Node 9, Type 1, BuildingBlock: CUWYAW_clean_sbu_0, # of connection points: 6
#     Node 10, Type 1, BuildingBlock: CUWYAW_clean_sbu_0, # of connection points: 6
#     Node 11, Type 1, BuildingBlock: CUWYAW_clean_sbu_0, # of connection points: 6
#     Edge 12, Type (0, 1), BuildingBlock: XUDNAN_clean_linker_2, # of connection points: 2
#     Edge 13, Type (0, 1), BuildingBlock: XUDNAN_clean_linker_2, # of connection points: 2
#     Edge 14, Type (0, 1), BuildingBlock: XUDNAN_clean_linker_2, # of connection points: 2
#     Edge 15, Type (0, 1), BuildingBlock: XUDNAN_clean_linker_2, # of connection points: 2
#     Edge 16, Type (0, 1), BuildingBlock: XUDNAN_clean_linker_2, # of connection points: 2
#     Edge 17, Type (0, 1), BuildingBlock: XUDNAN_clean_linker_2, # of connection points: 2
#     Edge 18, Type (0, 1), BuildingBlock: XUDNAN_clean_linker_2, # of connection points: 2
#     Edge 19, Type (0, 1), BuildingBlock: XUDNAN_clean_linker_2, # of connection points: 2
#     Edge 20, Type (0, 1), BuildingBlock: XUDNAN_clean_linker_2, # of connection points: 2
#     Edge 21, Type (0, 1), BuildingBlock: XUDNAN_clean_linker_2, # of connection points: 2
#     Edge 22, Type (0, 1), BuildingBlock: XUDNAN_clean_linker_2, # of connection points: 2
#     Edge 23, Type (0, 1), BuildingBlock: XUDNAN_clean_linker_2, # of connection points: 2
#     Edge 24, Type (0, 1), BuildingBlock: XUDNAN_clean_linker_2, # of connection points: 2
#     Edge 25, Type (0, 1), BuildingBlock: XUDNAN_clean_linker_2, # of connection points: 2
#     Edge 26, Type (0, 1), BuildingBlock: XUDNAN_clean_linker_2, # of connection points: 2
#     Edge 27, Type (0, 1), BuildingBlock: XUDNAN_clean_linker_2, # of connection points: 2
#     Edge 28, Type (0, 1), BuildingBlock: XUDNAN_clean_linker_2, # of connection points: 2
#     Edge 29, Type (0, 1), BuildingBlock: XUDNAN_clean_linker_2, # of connection points: 2
#     Edge 30, Type (0, 1), BuildingBlock: XUDNAN_clean_linker_2, # of connection points: 2
#     Edge 31, Type (0, 1), BuildingBlock: XUDNAN_clean_linker_2, # of connection points: 2
#     Edge 32, Type (0, 1), BuildingBlock: XUDNAN_clean_linker_2, # of connection points: 2
#     Edge 33, Type (0, 1), BuildingBlock: XUDNAN_clean_linker_2, # of connection points: 2
#     Edge 34, Type (0, 1), BuildingBlock: XUDNAN_clean_linker_2, # of connection points: 2
#     Edge 35, Type (0, 1), BuildingBlock: XUDNAN_clean_linker_2, # of connection points: 2
# Relax obj value: 0.303
# Max RMSD: 0.170
# Mean RMSD: 0.135
data_MOF--net-zzz--node1-CUWYAW_clean_sbu_0--node2-CUQRIR_clean_linker_1--edge1-XUDNAN_clean_linker_2
_symmetry_space_group_name_H-M    P1
_symmetry_Int_Tables_number       1
_symmetry_cell_setting            triclinic
loop_
_symmetry_equiv_pos_as_xyz
'x, y, z'
_cell_length_a     47.515393
_cell_length_b     48.002161
_cell_length_c     12.836389
_cell_angle_alpha  89.26384
_cell_angle_beta   89.582006
_cell_angle_gamma 90.084984
loop_
_atom_site_label
_atom_site_type_symbol
_atom_site_fract_x
_atom_site_fract_y
_atom_site_fract_z
_atom_type_partial_charge
C0 C 0.73904 0.52504 0.50409 0.0
N1 N 0.76762 0.52692 0.48333 0.0
N2 N 0.72303 0.52936 0.4157 0.0
C3 C 0.72677 0.51628 0.60715 0.0
C4 C 0.74287 0.53423 0.34216 0.0
N5 N 0.76919 0.53189 0.381 0.0
C6 C 0.73666 0.53693 0.22685 0.0
H7 H 0.72402 0.49331 0.60807 0.0
H8 H 0.70575 0.52591 0.61818 0.0
H9 H 0.74086 0.52191 0.67206 0.0
H10 H 0.71434 0.54179 0.21076 0.0
H11 H 0.74215 0.51715 0.18785 0.0
H12 H 0.74963 0.55379 0.19132 0.0
C13 C 1.01548 0.73569 0.51404 0.0
N14 N 1.02622 0.76238 0.49973 0.0
N15 N 1.02567 0.71724 0.44069 0.0
C16 C 0.9929 0.72802 0.59127 0.0
C17 C 0.04338 0.73371 0.3855 0.0
N18 N 0.04012 0.76091 0.4092 0.0
C19 C 0.06004 0.72362 0.29256 0.0
H20 H 1.00273 0.7236 0.66786 0.0
H21 H 0.98158 0.70896 0.56706 0.0
H22 H 0.97779 0.74544 0.60018 0.0
H23 H 0.04757 0.72653 0.22048 0.0
H24 H 0.06549 0.70129 0.30095 0.0
H25 H 0.08006 0.73533 0.28489 0.0
C26 C 0.82035 1.01619 0.52059 0.0
N27 N 0.792 1.01382 0.49871 0.0
N28 N 0.83673 1.0155 0.43084 0.0
C29 C 0.83202 1.0191 0.62773 0.0
C30 C 0.81744 1.01284 0.3554 0.0
N31 N 0.79122 1.01102 0.39586 0.0
C32 C 0.82394 1.01555 0.23981 0.0
H33 H 0.83606 0.04148 0.64231 0.0
H34 H 0.85236 1.00787 0.63385 0.0
H35 H 0.81688 1.01113 0.68729 0.0
H36 H 0.82449 0.99446 0.20552 0.0
H37 H 0.8444 0.02587 0.22366 0.0
H38 H 0.8076 0.02795 0.1991 0.0
C39 C 0.5223 0.81218 0.51715 0.0
N40 N 0.52864 0.78413 0.5126 0.0
N41 N 0.5312 0.82666 0.42843 0.0
C42 C 0.50723 0.82517 0.60705 0.0
C43 C 0.5423 0.80585 0.36991 0.0
N44 N 0.54086 0.78101 0.42024 0.0
C45 C 0.551 0.80864 0.25604 0.0
H46 H 0.48435 0.82567 0.59069 0.0
H47 H 0.51465 0.84687 0.61802 0.0
H48 H 0.51055 0.81274 0.67944 0.0
H49 H 0.57276 0.81681 0.25029 0.0
H50 H 0.53629 0.8225 0.21331 0.0
H51 H 0.55192 0.78867 0.21446 0.0
C52 C 0.32054 0.51854 0.03255 0.0
N53 N 0.29198 0.51844 0.05631 0.0
N54 N 0.3368 0.51561 0.12109 0.0
C55 C 0.33274 0.52236 0.9255 0.0
C56 C 0.31733 0.5127 0.1968 0.0
N57 N 0.29108 0.5159 0.15976 0.0
C58 C 0.32399 0.50892 0.31115 0.0
H59 H 0.32103 0.5095 0.86911 0.0
H60 H 0.35536 0.51661 0.92407 0.0
H61 H 0.33084 0.54458 0.90164 0.0
H62 H 0.32532 0.52966 0.34804 0.0
H63 H 0.34426 0.49788 0.32248 0.0
H64 H 0.30726 0.49672 0.35144 0.0
C65 C 0.03839 0.31158 0.06078 0.0
N66 N 0.04367 0.28338 0.07588 0.0
N67 N 0.04438 0.32684 0.14872 0.0
C68 C 1.02644 0.32411 0.96336 0.0
C69 C 0.05424 0.30696 0.21401 0.0
N70 N 0.05109 0.28105 0.17544 0.0
C71 C 0.06774 0.31305 0.31742 0.0
H72 H 0.03564 0.31396 0.89384 0.0
H73 H 0.03053 0.34686 0.95941 0.0
H74 H 1.00333 0.32077 0.96323 0.0
H75 H 0.05293 0.30783 0.382 0.0
H76 H 0.07403 0.33524 0.32312 0.0
H77 H 0.08702 0.30032 0.32669 0.0
C78 C 0.23553 0.03183 0.01837 0.0
N79 N 0.26397 0.02727 0.03195 0.0
N80 N 0.22008 0.02511 0.10723 0.0
C81 C 0.22296 0.04337 0.92058 0.0
C82 C 0.24025 1.01737 0.17477 0.0
N83 N 0.26599 1.01928 0.13057 0.0
C84 C 0.23504 1.01127 0.28937 0.0
H85 H 0.22226 0.06641 0.92536 0.0
H86 H 0.20113 0.03554 0.91152 0.0
H87 H 0.236 0.03765 0.85203 0.0
H88 H 0.2205 0.99332 0.29843 0.0
H89 H 0.22497 0.02957 0.32613 0.0
H90 H 0.25454 1.00602 0.33212 0.0
C91 C 0.53914 0.23497 0.04584 0.0
N92 N 0.52702 0.26087 0.0397 0.0
N93 N 0.52608 0.21825 0.11955 0.0
C94 C 0.56462 0.22653 0.98431 0.0
C95 C 0.50627 0.23547 0.15903 0.0
N96 N 0.50787 0.26135 0.11584 0.0
C97 C 0.48908 0.22874 0.25522 0.0
H98 H 0.55764 0.21833 0.9083 0.0
H99 H 0.57651 0.20986 0.02521 0.0
H100 H 0.57854 0.24469 0.96853 0.0
H101 H 0.50318 0.2272 0.32361 0.0
H102 H 0.47845 0.20833 0.24646 0.0
H103 H 0.47294 0.24496 0.26948 0.0
C104 C 0.97585 0.03823 0.56025 0.0
Eu105 Eu 1.00974 0.02573 0.71335 0.0
C106 C 0.97159 0.06393 0.49902 0.0
C107 C 0.94622 0.07866 0.50936 0.0
C108 C 0.94475 0.10657 0.47792 0.0
C109 C 0.96854 0.11958 0.4349 0.0
C110 C 0.99263 0.10389 0.41212 0.0
C111 C 0.99425 0.07624 0.4444 0.0
C112 C 0.98953 1.01622 0.91475 0.0
C113 C 0.03391 0.08501 0.81689 0.0
C114 C 0.08617 1.0039 0.98749 0.0
Eu115 Eu 0.05329 1.02181 0.84322 0.0
C116 C 0.07775 0.97933 0.04865 0.0
C117 C 0.0953 0.956 0.05315 0.0
C118 C 0.08415 0.92998 0.08031 0.0
C119 C 0.05486 0.92659 0.09625 0.0
C120 C 0.03784 0.95051 0.09732 0.0
C121 C 0.04926 0.97653 0.07654 0.0
C122 C 0.07362 0.03525 0.64772 0.0
C123 C 1.02652 0.96252 0.75325 0.0
O124 O 1.00002 0.02588 0.54795 0.0
O125 O 0.96855 0.03942 0.65817 0.0
O126 O 0.98142 1.00276 0.83307 0.0
O127 O 1.00901 0.03284 0.88674 0.0
O128 O 1.01948 0.07333 0.73961 0.0
O129 O 0.04875 0.06832 0.87756 0.0
O130 O 0.07036 0.02585 0.99989 0.0
O131 O 0.09076 0.99863 0.88943 0.0
O132 O 0.08103 0.04723 0.73288 0.0
O133 O 0.0549 1.01701 0.66873 0.0
O134 O 0.03871 0.97477 0.8338 0.0
O135 O 1.01495 0.97908 0.6836 0.0
H136 H 0.92842 0.06935 0.54996 0.0
H137 H 0.92609 0.11855 0.49605 0.0
H138 H 1.01125 0.11386 0.37944 0.0
H139 H 1.01408 0.06545 0.43444 0.0
H140 H 0.11729 0.95768 0.03087 0.0
H141 H 0.09852 0.91258 0.08414 0.0
H142 H 1.01526 0.94945 0.10675 0.0
H143 H 0.03494 0.99403 0.07181 0.0
C144 C 0.51732 0.97474 0.53017 0.0
Eu145 Eu 0.52463 1.00075 0.70252 0.0
C146 C 0.48947 0.97081 0.48466 0.0
C147 C 0.47093 0.95146 0.53215 0.0
C148 C 0.44225 0.95696 0.5353 0.0
C149 C 0.43211 0.98147 0.48957 0.0
C150 C 0.44992 0.99843 0.42885 0.0
C151 C 0.47845 0.99274 0.42423 0.0
C152 C 0.52552 0.97568 0.89747 0.0
C153 C 0.46621 0.0285 0.80041 0.0
C154 C 0.53941 0.07007 0.03262 0.0
Eu155 Eu 0.53188 0.04665 0.85616 0.0
C156 C 0.56703 0.07493 0.07823 0.0
C157 C 0.58344 0.09761 0.04253 0.0
C158 C 0.61261 0.09594 0.04576 0.0
C159 C 0.625 0.0718 0.08568 0.0
C160 C 0.60876 0.05125 0.13572 0.0
C161 C 0.57977 0.053 0.13354 0.0
C162 C 0.53125 0.07384 0.66874 0.0
C163 C 0.59033 1.01983 0.75168 0.0
O164 O 0.52571 1.00068 0.53325 0.0
O165 O 0.52137 0.96173 0.61874 0.0
O166 O 0.52403 0.96232 0.81089 0.0
O167 O 0.52777 1.00141 0.87461 0.0
O168 O 0.47681 1.01049 0.73186 0.0
O169 O 0.48359 0.04419 0.85527 0.0
O170 O 0.53237 0.04383 0.0248 0.0
O171 O 0.53421 0.08434 0.94767 0.0
O172 O 0.53299 0.08546 0.75864 0.0
O173 O 0.52885 0.04728 0.6809 0.0
O174 O 0.57989 0.03777 0.82109 0.0
O175 O 0.57275 1.00379 0.69929 0.0
H176 H 0.47878 0.93377 0.57633 0.0
H177 H 0.4282 0.94284 0.57691 0.0
H178 H 0.44184 1.01647 0.38716 0.0
H179 H 0.49216 1.00746 0.38395 0.0
H180 H 0.57394 0.11524 1.00278 0.0
H181 H 0.62534 0.11245 0.01147 0.0
H182 H 0.61852 0.03311 0.17134 0.0
H183 H 0.56756 0.03569 0.16481 0.0
C184 C 0.58429 0.50526 0.56734 0.0
Eu185 Eu 0.55072 0.52169 0.71579 0.0
C186 C 0.58394 0.47751 0.5206 0.0
C187 C 0.60564 0.46813 0.45518 0.0
C188 C 0.60286 0.44251 0.40446 0.0
C189 C 0.57887 0.42595 0.42278 0.0
C190 C 0.55828 0.43465 0.49337 0.0
C191 C 0.56031 0.46054 0.53865 0.0
C192 C 0.56662 0.53123 0.91841 0.0
C193 C 0.5279 0.46046 0.81721 0.0
C194 C 0.46574 0.53508 0.96598 0.0
Eu195 Eu 0.50304 0.52138 0.82864 0.0
C196 C 0.46934 0.56045 0.02473 0.0
C197 C 0.44657 0.5763 0.06054 0.0
C198 C 0.45174 0.60175 0.10917 0.0
C199 C 0.47959 0.6107 0.12225 0.0
C200 C 0.50191 0.5957 0.07968 0.0
C201 C 0.49688 0.57069 0.03252 0.0
C202 C 0.48891 0.5094 0.62768 0.0
C203 C 0.52721 0.58355 0.73891 0.0
O204 O 0.56152 0.5197 0.55077 0.0
O205 O 0.5918 0.50602 0.66468 0.0
O206 O 0.57611 0.54489 0.83699 0.0
O207 O 0.54751 0.51428 0.88849 0.0
O208 O 0.54747 0.47452 0.76416 0.0
O209 O 0.50627 0.47438 0.85363 0.0
O210 O 0.48496 0.51628 0.98441 0.0
O211 O 0.46216 0.53947 0.86672 0.0
O212 O 0.4796 0.496 0.70906 0.0
O213 O 0.50629 0.52799 0.65649 0.0
O214 O 0.5088 0.56954 0.79838 0.0
O215 O 0.54742 0.56917 0.6935 0.0
H216 H 0.62388 0.48111 0.4398 0.0
H217 H 0.61858 0.4363 0.34786 0.0
H218 H 0.53925 0.42251 0.5059 0.0
H219 H 0.54242 0.46794 0.58249 0.0
H220 H 0.42516 0.56897 0.05175 0.0
H221 H 0.43437 0.61367 0.14052 0.0
H222 H 0.52347 0.6029 0.08634 0.0
H223 H 0.51473 0.55933 1.00185 0.0
C224 C 0.04177 0.5727 0.54326 0.0
Eu225 Eu 0.02946 0.54718 0.71381 0.0
C226 C 0.07007 0.57742 0.50094 0.0
C227 C 0.08609 0.59996 0.53663 0.0
C228 C 0.11505 0.6002 0.52247 0.0
C229 C 0.12815 0.57811 0.47148 0.0
C230 C 0.11188 0.55714 0.42612 0.0
C231 C 0.08293 0.55684 0.44046 0.0
C232 C 1.01958 0.57478 0.89625 0.0
C233 C 0.08886 0.52456 0.82049 0.0
C234 C 1.01348 0.47219 0.03247 0.0
Eu235 Eu 1.02436 0.50149 0.86511 0.0
C236 C 0.98564 0.46809 0.08112 0.0
C237 C 0.97162 0.44246 0.06844 0.0
C238 C 0.94219 0.44143 0.06903 0.0
C239 C 0.92688 0.46595 0.08362 0.0
C240 C 0.94095 0.4904 0.1125 0.0
C241 C 0.9701 0.49151 0.11113 0.0
C242 C 0.0294 0.47561 0.67253 0.0
C243 C 0.9654 0.52674 0.75965 0.0
O244 O 0.03286 0.54692 0.54487 0.0
O245 O 0.03589 0.58593 0.62878 0.0
O246 O 1.02263 0.58598 0.80509 0.0
O247 O 1.02107 0.54802 0.88934 0.0
O248 O 0.07683 0.54076 0.74894 0.0
O249 O 0.0727 0.50788 0.87896 0.0
O250 O 1.0242 0.4973 0.03511 0.0
O251 O 1.01561 0.46151 0.94005 0.0
O252 O 1.02714 0.46301 0.76151 0.0
O253 O 0.02938 0.50169 0.6904 0.0
O254 O 0.97676 0.5113 0.8357 0.0
O255 O 0.98193 0.54142 0.6964 0.0
H256 H 0.07655 0.61647 0.58145 0.0
H257 H 0.12731 0.61684 0.55604 0.0
H258 H 0.12164 0.54049 0.38259 0.0
H259 H 0.07095 0.53961 0.40987 0.0
H260 H 0.98328 0.42403 0.04658 0.0
H261 H 0.93158 0.42222 0.04961 0.0
H262 H 0.92934 0.50934 0.12811 0.0
H263 H 0.98014 0.51149 0.1229 0.0
H264 H 0.18009 0.98865 0.18228 0.0
H265 H 0.19692 0.07619 0.12909 0.0
H266 H 0.15864 0.08805 0.25284 0.0
H267 H 0.10129 0.99409 0.23312 0.0
H268 H 0.10242 0.9677 0.33384 0.0
H269 H 0.12714 0.96643 0.22689 0.0
H270 H 0.16793 0.96563 0.35693 0.0
H271 H 0.14352 0.96777 0.46443 0.0
H272 H 0.17115 0.99335 0.44952 0.0
H273 H 0.12424 0.09033 0.40721 0.0
H274 H 0.09264 0.08321 0.55912 0.0
H275 H 0.09635 0.99395 0.5163 0.0
C276 C 0.17466 1.01034 0.19247 0.0
C277 C 0.19139 0.03154 0.1426 0.0
C278 C 0.18412 0.0596 0.1623 0.0
C279 C 0.16263 0.06647 0.23457 0.0
C280 C 0.14804 0.04511 0.28747 0.0
C281 C 0.15335 1.01751 0.26571 0.0
C282 C 0.1363 0.99854 0.33999 0.0
C283 C 0.11553 0.98058 0.27966 0.0
C284 C 0.1559 0.98025 0.40669 0.0
C285 C 0.12057 1.01967 0.40673 0.0
C286 C 0.1279 0.04643 0.37543 0.0
C287 C 0.11784 0.06945 0.42976 0.0
C288 C 0.09976 0.06519 0.51637 0.0
C289 C 0.09101 0.03815 0.54867 0.0
C290 C 0.10167 1.01501 0.49211 0.0
H291 H 0.50089 0.16698 0.14842 0.0
H292 H 0.57315 0.21612 0.23526 0.0
H293 H 0.58437 0.1816 0.3737 0.0
H294 H 0.47785 0.14839 0.39375 0.0
H295 H 0.46818 0.11273 0.36914 0.0
H296 H 0.46822 0.13797 0.26422 0.0
H297 H 0.50398 0.10823 0.15544 0.0
H298 H 0.50051 0.08237 0.25845 0.0
H299 H 0.5347 0.09531 0.2228 0.0
H300 H 0.58476 0.14465 0.51606 0.0
H301 H 0.57549 0.10807 0.64781 0.0
H302 H 0.50222 0.08117 0.4766 0.0
C303 C 0.51977 0.16975 0.19374 0.0
C304 C 0.53673 0.19407 0.17795 0.0
C305 C 0.56055 0.19736 0.24232 0.0
C306 C 0.56683 0.17791 0.32234 0.0
C307 C 0.54926 0.15477 0.33792 0.0
C308 C 0.52642 0.15028 0.27436 0.0
C309 C 0.51014 0.12437 0.31226 0.0
C310 C 0.47926 0.1313 0.33637 0.0
C311 C 0.51233 0.10119 0.232 0.0
C312 C 0.52631 0.11598 0.41033 0.0
C313 C 0.5492 0.13354 0.42165 0.0
C314 C 0.56725 0.13052 0.50608 0.0
C315 C 0.56187 0.10935 0.58055 0.0
C316 C 0.53863 0.09085 0.57227 0.0
C317 C 0.5207 0.09417 0.48445 0.0
H318 H 0.3641 0.55537 0.2328 0.0
H319 H 0.37672 0.47697 0.07809 0.0
H320 H 0.42012 0.46925 0.18046 0.0
H321 H 0.44376 0.57327 0.28825 0.0
H322 H 0.43184 0.58816 0.40799 0.0
H323 H 0.40928 0.58915 0.29556 0.0
H324 H 0.37194 0.56544 0.42151 0.0
H325 H 0.39727 0.56154 0.52417 0.0
H326 H 0.37945 0.53133 0.4747 0.0
H327 H 0.45737 0.46572 0.32463 0.0
H328 H 0.48729 0.46899 0.48128 0.0
H329 H 0.45089 0.54935 0.5501 0.0
C330 C 0.37703 0.53743 0.2157 0.0
C331 C 0.36705 0.51713 0.14375 0.0
C332 C 0.38402 0.49326 0.1288 0.0
C333 C 0.40859 0.48853 0.1886 0.0
C334 C 0.41647 0.50787 0.26416 0.0
C335 C 0.4015 0.53228 0.27625 0.0
C336 C 0.4124 0.54812 0.37113 0.0
C337 C 0.42499 0.5764 0.33855 0.0
C338 C 0.38887 0.55181 0.45271 0.0
C339 C 0.43552 0.52869 0.41141 0.0
C340 C 0.43758 0.50565 0.34806 0.0
C341 C 0.4563 0.48408 0.37246 0.0
C342 C 0.47341 0.48614 0.46189 0.0
C343 C 0.47243 0.50975 0.52691 0.0
C344 C 0.45302 0.53136 0.5006 0.0
H345 H 1.01282 0.33863 0.3197 0.0
H346 H 0.06017 0.37898 0.0718 0.0
H347 H 0.05742 0.42379 0.16777 0.0
H348 H 0.96995 0.39724 0.41406 0.0
H349 H 0.97497 0.38702 0.54828 0.0
H350 H 0.97514 0.36106 0.4481 0.0
H351 H 1.02409 0.34441 0.50956 0.0
H352 H 1.02444 0.37055 0.60876 0.0
H353 H 0.05272 0.369 0.51462 0.0
H354 H 0.05223 0.46519 0.31157 0.0
H355 H 0.04857 0.49315 0.47358 0.0
H356 H 1.01176 0.42202 0.63415 0.0
C357 C 1.02186 0.35709 0.28343 0.0
C358 C 0.03623 0.35483 0.18576 0.0
C359 C 0.04834 0.37973 0.14408 0.0
C360 C 0.0472 0.40538 0.19967 0.0
C361 C 0.03452 0.40612 0.29931 0.0
C362 C 1.02222 0.38222 0.34022 0.0
C363 C 1.01343 0.38644 0.45343 0.0
C364 C 0.98147 0.38273 0.46672 0.0
C365 C 0.02963 0.36642 0.52585 0.0
C366 C 1.02219 0.41657 0.47124 0.0
C367 C 0.03388 0.42804 0.38138 0.0
C368 C 0.04321 0.45592 0.38151 0.0
C369 C 0.04098 0.47189 0.47451 0.0
C370 C 0.02999 0.46014 0.56866 0.0
C371 C 1.02041 0.43199 0.56485 0.0
H372 H 0.87191 0.97624 0.35388 0.0
H373 H 0.86753 0.06333 0.43129 0.0
H374 H 0.90864 0.07288 0.3158 0.0
H375 H 0.95207 0.97243 0.31479 0.0
H376 H 0.94799 0.94873 0.2082 0.0
H377 H 0.92296 0.9483 0.3146 0.0
H378 H 0.8827 0.95545 0.18237 0.0
H379 H 0.90747 0.95687 0.07578 0.0
H380 H 0.88342 0.98536 0.09601 0.0
H381 H 0.94811 0.07331 0.17118 0.0
H382 H 0.97999 0.06479 0.02127 0.0
H383 H 0.95604 0.97771 0.02596 0.0
C384 C 0.88086 0.99698 0.35231 0.0
C385 C 0.86681 1.01879 0.40659 0.0
C386 C 0.87832 0.046 0.39566 0.0
C387 C 0.90152 0.05165 0.328 0.0
C388 C 0.91364 0.0299 0.27103 0.0
C389 C 0.90386 1.00295 0.28413 0.0
C390 C 0.91835 0.98364 0.20646 0.0
C391 C 0.9364 0.96198 0.26445 0.0
C392 C 0.89669 0.9695 0.13598 0.0
C393 C 0.93699 1.00389 0.14435 0.0
C394 C 0.93456 0.03042 0.18451 0.0
C395 C 0.95005 0.05251 0.14041 0.0
C396 C 0.96829 0.04743 0.05469 0.0
C397 C 0.97084 1.02055 0.01031 0.0
C398 C 0.95472 0.99856 0.05676 0.0
H399 H 0.56889 0.85773 0.31261 0.0
H400 H 0.48672 0.86439 0.45715 0.0
H401 H 0.47921 0.90877 0.35823 0.0
H402 H 0.58998 0.92149 0.21732 0.0
H403 H 0.59637 0.91039 0.08548 0.0
H404 H 0.59893 0.88569 0.1915 0.0
H405 H 0.56368 0.85432 0.0987 0.0
H406 H 0.55887 0.87906 0.99412 0.0
H407 H 0.52895 0.86708 0.06914 0.0
H408 H 0.48279 0.95498 0.22464 0.0
H409 H 0.48922 0.98484 0.06554 0.0
H410 H 0.55823 0.93258 0.96732 0.0
C411 C 0.54865 0.86745 0.3216 0.0
C412 C 0.52818 0.85596 0.39141 0.0
C413 C 0.50321 0.87197 0.40566 0.0
C414 C 0.49859 0.89727 0.34786 0.0
C415 C 0.51814 0.90565 0.27034 0.0
C416 C 0.54198 0.88988 0.25453 0.0
C417 C 0.5558 0.89706 0.15027 0.0
C418 C 0.58713 0.9041 0.16203 0.0
C419 C 0.55158 0.87297 0.07362 0.0
C420 C 0.5388 0.92219 0.11593 0.0
C421 C 0.51714 0.92732 0.18592 0.0
C422 C 0.49942 0.95038 0.16946 0.0
C423 C 0.50341 0.96755 0.07897 0.0
C424 C 0.5245 0.96143 1.0035 0.0
C425 C 0.5422 0.93827 0.02352 0.0
H426 H 0.67762 0.56386 0.38286 0.0
H427 H 0.70453 0.47819 0.36449 0.0
H428 H 0.66521 0.46825 0.24489 0.0
H429 H 0.59771 0.54612 0.35772 0.0
H430 H 0.59149 0.57804 0.2862 0.0
H431 H 0.61814 0.57675 0.3856 0.0
H432 H 0.65484 0.59457 0.25082 0.0
H433 H 0.62873 0.59521 0.15005 0.0
H434 H 0.6606 0.57536 0.13274 0.0
H435 H 0.62681 0.46978 0.10103 0.0
H436 H 0.59203 0.48152 0.96463 0.0
H437 H 0.58846 0.56623 0.07393 0.0
C438 C 0.67414 0.5426 0.35913 0.0
C439 C 0.69409 0.52158 0.38747 0.0
C440 C 0.68928 0.49441 0.34862 0.0
C441 C 0.66713 0.48873 0.27835 0.0
C442 C 0.64892 0.51024 0.24769 0.0
C443 C 0.65165 0.53648 0.28967 0.0
C444 C 0.63002 0.55623 0.24027 0.0
C445 C 0.60804 0.56482 0.3223 0.0
C446 C 0.64442 0.58186 0.19049 0.0
C447 C 0.61637 0.53787 0.15787 0.0
C448 C 0.62703 0.51111 0.16566 0.0
C449 C 0.61806 0.49056 0.09676 0.0
C450 C 0.59791 0.49734 0.01944 0.0
C451 C 0.58646 0.52454 0.00884 0.0
C452 C 0.59621 0.54508 0.07976 0.0
H453 H 0.04287 0.66218 0.42926 0.0
H454 H 0.98026 0.72008 0.31618 0.0
H455 H 0.96967 0.68846 0.17057 0.0
H456 H 0.0725 0.63814 0.20693 0.0
H457 H 0.07315 0.60151 0.2399 0.0
H458 H 0.07256 0.627 0.34141 0.0
H459 H 1.02198 0.60729 0.41861 0.0
H460 H 0.03106 0.57925 0.32883 0.0
H461 H 0.9973 0.59608 0.32469 0.0
H462 H 0.97092 0.65247 0.02003 0.0
H463 H 0.98025 0.61521 0.8939 0.0
H464 H 0.0414 0.57849 0.10307 0.0
C465 C 1.02596 0.66761 0.3768 0.0
C466 C 1.01199 0.69384 0.38726 0.0
C467 C 0.99065 0.70004 0.31351 0.0
C468 C 0.98494 0.68231 0.22856 0.0
C469 C 1.00027 0.6576 0.21729 0.0
C470 C 1.0197 0.64985 0.29134 0.0
C471 C 0.03218 0.62149 0.26301 0.0
C472 C 0.06452 0.62206 0.26283 0.0
C473 C 1.02014 0.59953 0.33826 0.0
C474 C 1.02024 0.61634 0.15498 0.0
C475 C 1.00073 0.63689 0.1323 0.0
C476 C 0.98592 0.63626 0.03888 0.0
C477 C 0.99127 0.61465 0.9675 0.0
C478 C 1.01114 0.5931 0.98767 0.0
C479 C 1.0256 0.59398 0.08462 0.0
H480 H 0.99953 0.25864 0.15107 0.0
H481 H 0.07332 0.25576 0.34807 0.0
H482 H 0.0476 0.22562 0.47244 0.0
H483 H 0.94223 0.2422 0.34234 0.0
H484 H 0.92624 0.21764 0.25555 0.0
H485 H 0.94461 0.24768 0.20335 0.0
H486 H 0.97662 0.21591 0.09222 0.0
H487 H 0.95782 0.18609 0.14171 0.0
H488 H 0.99546 0.18797 0.15507 0.0
H489 H 1.01778 0.19283 0.56284 0.0
H490 H 0.99792 0.14589 0.5778 0.0
H491 H 0.94895 0.15964 0.29968 0.0
C492 C 1.01054 0.25147 0.21975 0.0
C493 C 0.03831 0.26011 0.24123 0.0
C494 C 0.05172 0.25037 0.33223 0.0
C495 C 0.03712 0.23346 0.40354 0.0
C496 C 1.00972 0.22535 0.37965 0.0
C497 C 0.9972 0.23286 0.28693 0.0
C498 C 0.9721 0.21468 0.26296 0.0
C499 C 0.94467 0.23157 0.26636 0.0
C500 C 0.97575 0.2003 0.15685 0.0
C501 C 0.97375 0.19435 0.35371 0.0
C502 C 0.99406 0.20258 0.42424 0.0
C503 C 1.00164 0.18627 0.50935 0.0
C504 C 0.99017 0.15974 0.51776 0.0
C505 C 0.97185 0.14973 0.44079 0.0
C506 C 0.96238 0.16747 0.3605 0.0
H507 H 0.30295 0.97855 0.14466 0.0
H508 H 0.28307 0.0614 0.2493 0.0
H509 H 0.32002 0.05786 0.38495 0.0
H510 H 0.31436 0.94754 0.39044 0.0
H511 H 0.34352 0.92644 0.34761 0.0
H512 H 0.31647 0.93641 0.25699 0.0
H513 H 0.35329 0.9579 0.13386 0.0
H514 H 0.38125 0.94844 0.22036 0.0
H515 H 0.37716 0.9843 0.17993 0.0
H516 H 0.36074 0.04546 0.49838 0.0
H517 H 0.406 0.02754 0.56599 0.0
H518 H 0.39346 0.95042 0.40176 0.0
C519 C 0.30708 0.99599 0.19508 0.0
C520 C 0.29107 1.02013 0.1886 0.0
C521 C 0.29607 0.04292 0.25455 0.0
C522 C 0.31642 0.04086 0.33209 0.0
C523 C 0.33096 1.01582 0.34106 0.0
C524 C 0.32684 0.99407 0.27308 0.0
C525 C 0.3458 0.9699 0.29536 0.0
C526 C 0.32901 0.94352 0.32442 0.0
C527 C 0.3656 0.96489 0.20192 0.0
C528 C 0.36128 0.98122 0.38719 0.0
C529 C 0.35259 1.00784 0.41247 0.0
C530 C 0.36732 0.02439 0.48174 0.0
C531 C 0.39271 1.01406 0.52038 0.0
C532 C 0.4023 0.98752 0.48969 0.0
C533 C 0.38559 0.97024 0.42906 0.0
H534 H 0.53833 0.27108 0.284 0.0
H535 H 0.47571 0.30674 0.07939 0.0
H536 H 0.48998 0.35404 0.13322 0.0
H537 H 0.53439 0.32392 0.49442 0.0
H538 H 0.57192 0.32271 0.51422 0.0
H539 H 0.55347 0.29208 0.47227 0.0
H540 H 0.58669 0.28856 0.3099 0.0
H541 H 0.60519 0.31859 0.35685 0.0
H542 H 0.59132 0.31888 0.22719 0.0
H543 H 0.5179 0.39558 0.17586 0.0
H544 H 0.54691 0.43218 0.25486 0.0
H545 H 0.59014 0.36985 0.44119 0.0
C546 C 0.52634 0.28885 0.2565 0.0
C547 C 0.50575 0.28566 0.17874 0.0
C548 C 0.49115 0.3091 0.14028 0.0
C549 C 0.49954 0.33587 0.16889 0.0
C550 C 0.52209 0.33834 0.23714 0.0
C551 C 0.53462 0.31553 0.28376 0.0
C552 C 0.55943 0.32385 0.35026 0.0
C553 C 0.55449 0.31516 0.46463 0.0
C554 C 0.58724 0.31171 0.30846 0.0
C555 C 0.55864 0.35512 0.33441 0.0
C556 C 0.5376 0.36275 0.26568 0.0
C557 C 0.53397 0.39007 0.23171 0.0
C558 C 0.55088 0.41056 0.27515 0.0
C559 C 0.57067 0.4036 0.35287 0.0
C560 C 0.57532 0.37549 0.3808 0.0
H561 H 0.25627 0.49404 0.30465 0.0
H562 H 0.28324 0.57058 0.15369 0.0
H563 H 0.25226 0.59764 0.26927 0.0
H564 H 0.18624 0.5055 0.32622 0.0
H565 H 0.18297 0.49025 0.45347 0.0
H566 H 0.21152 0.48013 0.3704 0.0
H567 H 0.24372 0.49324 0.52807 0.0
H568 H 0.21404 0.50629 0.60098 0.0
H569 H 0.2439 0.52852 0.57435 0.0
H570 H 0.21346 0.61461 0.3664 0.0
H571 H 0.16385 0.61989 0.41616 0.0
H572 H 0.16054 0.53283 0.50959 0.0
C573 C 0.25556 0.51653 0.29818 0.0
C574 C 0.27135 0.53064 0.22149 0.0
C575 C 0.27057 0.55988 0.21223 0.0
C576 C 0.2537 0.57527 0.27883 0.0
C577 C 0.23809 0.5609 0.35429 0.0
C578 C 0.23863 0.53212 0.36398 0.0
C579 C 0.21656 0.52159 0.4398 0.0
C580 C 0.19834 0.49806 0.39435 0.0
C581 C 0.23038 0.51186 0.54187 0.0
C582 C 0.20044 0.5484 0.45526 0.0
C583 C 0.21463 0.57112 0.41261 0.0
C584 C 0.20236 0.59733 0.40289 0.0
C585 C 0.17417 0.60012 0.43059 0.0
C586 C 0.15877 0.57667 0.46556 0.0
C587 C 0.17229 0.55097 0.4831 0.0
H588 H 0.07269 0.78026 0.2507 0.0
H589 H 0.98782 0.78044 0.37489 0.0
H590 H 0.97548 0.81844 0.25452 0.0
H591 H 0.09159 0.835 0.20941 0.0
H592 H 0.10388 0.83798 0.07627 0.0
H593 H 0.10212 0.8045 0.1379 0.0
H594 H 0.07068 0.78616 0.99232 0.0
H595 H 0.07187 0.81973 0.92718 0.0
H596 H 0.03853 0.80384 0.95972 0.0
H597 H 0.98336 0.86618 0.20793 0.0
H598 H 1.00384 0.912 0.18916 0.0
H599 H 0.07616 0.87625 0.02949 0.0
C600 C 0.05101 0.78677 0.24648 0.0
C601 C 0.03161 0.77842 0.32372 0.0
C602 C 1.00334 0.78759 0.31842 0.0
C603 C 0.99589 0.8086 0.24857 0.0
C604 C 1.0162 0.81806 0.17803 0.0
C605 C 0.04241 0.80564 0.16963 0.0
C606 C 0.0609 0.82139 0.09303 0.0
C607 C 0.09137 0.82498 0.13182 0.0
C608 C 0.06048 0.80695 0.98675 0.0
C609 C 0.04467 0.84841 0.08775 0.0
C610 C 1.01822 0.84555 0.1327 0.0
C611 C 1.0029 0.86859 0.16484 0.0
C612 C 1.01501 0.8949 0.15402 0.0
C613 C 0.04176 0.89846 0.10571 0.0
C614 C 0.05593 0.87474 0.06795 0.0
H615 H 0.75532 0.0525 0.41485 0.0
H616 H 0.7735 0.97851 0.23821 0.0
H617 H 0.7377 0.99268 0.1074 0.0
H618 H 0.67635 0.0421 0.35488 0.0
H619 H 0.67416 0.07816 0.39167 0.0
H620 H 0.70069 0.05539 0.44692 0.0
H621 H 0.73368 0.09799 0.38274 0.0
H622 H 0.70699 0.11397 0.30361 0.0
H623 H 0.73929 0.10218 0.24414 0.0
H624 H 0.69696 1.01277 0.01235 0.0
H625 H 0.65157 0.03432 0.96596 0.0
H626 H 0.66264 0.0957 0.20527 0.0
C627 C 0.75108 0.03884 0.35053 0.0
C628 C 0.76664 1.01463 0.33534 0.0
C629 C 0.76127 0.99726 0.24965 0.0
C630 C 0.7415 1.00534 0.17502 0.0
C631 C 0.72725 0.03031 0.19046 0.0
C632 C 0.7311 0.04604 0.27822 0.0
C633 C 0.70984 0.06876 0.28781 0.0
C634 C 0.68893 0.0608 0.37547 0.0
C635 C 0.72331 0.09742 0.30546 0.0
C636 C 0.69605 0.06646 0.18378 0.0
C637 C 0.70532 0.04312 0.13084 0.0
C638 C 0.69041 0.03193 0.04876 0.0
C639 C 0.66488 0.04433 0.02252 0.0
C640 C 0.65496 0.06742 0.07902 0.0
C641 C 0.67125 0.07954 0.15618 0.0
H642 H 0.50692 0.76719 0.26551 0.0
H643 H 0.57346 0.73668 0.46498 0.0
H644 H 0.56223 0.68826 0.41389 0.0
H645 H 0.45818 0.71875 0.2919 0.0
H646 H 0.44846 0.71506 0.15718 0.0
H647 H 0.4631 0.74736 0.20109 0.0
H648 H 0.5027 0.74512 0.06341 0.0
H649 H 0.48823 0.7131 0.015 0.0
H650 H 0.52447 0.71455 0.05555 0.0
H651 H 0.53603 0.64555 0.37609 0.0
H652 H 0.50982 0.6071 0.29644 0.0
H653 H 0.46714 0.66582 0.09209 0.0
C654 C 0.52012 0.75036 0.29358 0.0
C655 C 0.54096 0.75502 0.36855 0.0
C656 C 0.55746 0.73292 0.40725 0.0
C657 C 0.55114 0.70567 0.37924 0.0
C658 C 0.52942 0.70172 0.30876 0.0
C659 C 0.51538 0.72349 0.2614 0.0
C660 C 0.49386 0.71362 0.18435 0.0
C661 C 0.46415 0.72434 0.21036 0.0
C662 C 0.50283 0.72206 0.07291 0.0
C663 C 0.49629 0.68265 0.20291 0.0
C664 C 0.51661 0.67648 0.27649 0.0
C665 C 0.52094 0.64978 0.31518 0.0
C666 C 0.50564 0.62832 0.27124 0.0
C667 C 0.48698 0.63386 0.18819 0.0
C668 C 0.48135 0.66133 0.15577 0.0
H669 H 0.78623 0.47926 0.35719 0.0
H670 H 0.79932 0.56393 0.24856 0.0
H671 H 0.82808 0.5466 0.10166 0.0
H672 H 0.8585 0.46176 0.3423 0.0
H673 H 0.85067 0.42629 0.31267 0.0
H674 H 0.82542 0.44649 0.38339 0.0
H675 H 0.79043 0.43102 0.2373 0.0
H676 H 0.8183 0.41478 0.16385 0.0
H677 H 0.79711 0.4416 0.10416 0.0
H678 H 0.85612 0.5216 0.97542 0.0
H679 H 0.90272 0.50124 0.94715 0.0
H680 H 0.8837 0.43577 0.17164 0.0
C681 C 0.79602 0.49408 0.30382 0.0
C682 C 0.79151 0.52291 0.31467 0.0
C683 C 0.80338 0.54183 0.24206 0.0
C684 C 0.81886 0.53204 0.15719 0.0
C685 C 0.82312 0.50337 0.14893 0.0
C686 C 0.8137 0.48488 0.22477 0.0
C687 C 0.82807 0.45687 0.21619 0.0
C688 C 0.8414 0.44741 0.31989 0.0
C689 C 0.80723 0.43478 0.17799 0.0
C690 C 0.8498 0.46397 0.13273 0.0
C691 C 0.84374 0.48948 0.08596 0.0
C692 C 0.86137 0.50187 0.01207 0.0
C693 C 0.88781 0.49024 0.99694 0.0
C694 C 0.89671 0.46779 0.06075 0.0
C695 C 0.87697 0.45291 0.12221 0.0
H696 H 0.07349 0.23427 0.08851 0.0
H697 H 1.00538 0.27242 0.91554 0.0
H698 H 0.99709 0.22761 0.82757 0.0
H699 H 0.09856 0.18733 0.8838 0.0
H700 H 0.10611 0.15924 0.97377 0.0
H701 H 0.10809 0.19483 0.01624 0.0
H702 H 0.07223 0.18427 0.16593 0.0
H703 H 0.07189 0.14854 0.1245 0.0
H704 H 0.03945 0.16751 0.13507 0.0
H705 H 0.99375 0.17484 0.76588 0.0
H706 H 0.99711 0.12398 0.73611 0.0
H707 H 0.06685 0.11899 0.95008 0.0
C708 C 0.05698 0.23353 0.03098 0.0
C709 C 0.04065 0.25814 0.00915 0.0
C710 C 1.01915 0.25518 0.93329 0.0
C711 C 1.01393 0.2292 0.88349 0.0
C712 C 0.02997 0.20548 0.90947 0.0
C713 C 0.05122 0.2076 0.98167 0.0
C714 C 0.06515 0.179 0.99866 0.0
C715 C 0.09633 0.18018 0.96617 0.0
C716 C 0.06199 0.16929 0.11279 0.0
C717 C 0.04837 0.16013 0.92584 0.0
C718 C 0.02818 0.17585 0.87467 0.0
C719 C 1.00982 0.16281 0.80521 0.0
C720 C 1.01206 0.13364 0.78755 0.0
C721 C 0.03267 0.11676 0.83729 0.0
C722 C 0.05095 0.13072 0.90852 0.0
H723 H 0.2985 0.99166 0.91856 0.0
H724 H 0.28975 0.07727 0.0138 0.0
H725 H 0.33878 0.0867 0.95651 0.0
H726 H 0.37121 0.98008 0.98416 0.0
H727 H 0.3784 0.95991 0.87007 0.0
H728 H 0.34298 0.96175 0.92079 0.0
H729 H 0.32888 0.97831 0.73351 0.0
H730 H 0.36508 0.97922 0.69049 0.0
H731 H 0.34365 1.01016 0.68158 0.0
H732 H 0.39139 0.0853 0.91342 0.0
H733 H 0.44062 0.07579 0.86718 0.0
H734 H 0.41788 0.99178 0.77928 0.0
C735 C 0.30651 1.01272 0.92292 0.0
C736 C 0.2892 0.0341 0.96789 0.0
C737 C 0.30153 0.06088 0.97616 0.0
C738 C 0.32977 0.06626 0.94501 0.0
C739 C 0.34622 0.04483 0.90301 0.0
C740 C 0.33483 1.01869 0.88899 0.0
C741 C 0.35738 0.99965 0.8396 0.0
C742 C 0.36273 0.97376 0.90778 0.0
C743 C 0.34824 0.99133 0.72972 0.0
C744 C 0.38371 1.01854 0.83495 0.0
C745 C 0.37643 0.04454 0.87194 0.0
C746 C 0.39697 0.06514 0.88269 0.0
C747 C 0.42532 0.05937 0.8562 0.0
C748 C 0.43419 0.03307 0.81781 0.0
C749 C 0.41248 1.01238 0.80617 0.0
H750 H 0.50159 0.29198 0.88404 0.0
H751 H 0.57362 0.29045 0.08736 0.0
H752 H 0.58172 0.34074 0.05068 0.0
H753 H 0.53672 0.34462 0.69084 0.0
H754 H 0.50338 0.36023 0.65905 0.0
H755 H 0.50524 0.32366 0.69234 0.0
H756 H 0.46794 0.33097 0.83685 0.0
H757 H 0.46637 0.3676 0.80567 0.0
H758 H 0.47427 0.35627 0.9367 0.0
H759 H 0.57777 0.39322 0.01179 0.0
H760 H 0.56758 0.44113 0.95159 0.0
H761 H 0.49952 0.41045 0.76226 0.0
C762 C 0.5199 0.30193 0.91683 0.0
C763 C 0.5373 0.28671 0.98825 0.0
C764 C 0.56043 0.30111 0.0313 0.0
C765 C 0.56491 0.32991 0.01168 0.0
C766 C 0.54665 0.3445 0.94541 0.0
C767 C 0.52524 0.33074 0.89507 0.0
C768 C 0.50906 0.35149 0.82563 0.0
C769 C 0.51386 0.34458 0.71014 0.0
C770 C 0.47754 0.35158 0.85294 0.0
C771 C 0.52308 0.37938 0.85166 0.0
C772 C 0.54506 0.37462 0.91977 0.0
C773 C 0.56104 0.39686 0.95654 0.0
C774 C 0.55508 0.42429 0.92159 0.0
C775 C 0.53304 0.43019 0.85076 0.0
C776 C 0.51665 0.40706 0.81609 0.0
H777 H 0.23912 0.49872 0.10845 0.0
H778 H 0.28225 0.54247 0.85651 0.0
H779 H 0.23672 0.54675 0.76429 0.0
H780 H 0.18512 0.46424 0.99484 0.0
H781 H 0.15793 0.47424 0.08561 0.0
H782 H 0.19403 0.47317 0.12676 0.0
H783 H 0.19449 0.52744 0.17603 0.0
H784 H 0.15703 0.52396 0.15465 0.0
H785 H 0.17709 0.55083 0.08868 0.0
H786 H 0.18167 0.54735 0.70232 0.0
H787 H 0.12975 0.54517 0.68345 0.0
H788 H 0.12289 0.50642 0.98902 0.0
C789 C 0.23949 0.50995 0.03519 0.0
C790 C 0.2656 0.52024 0.99283 0.0
C791 C 0.26373 0.53359 0.89302 0.0
C792 C 0.23738 0.53648 0.83977 0.0
C793 C 0.2122 0.52687 0.88714 0.0
C794 C 0.21337 0.51447 0.98436 0.0
C795 C 0.18367 0.50891 0.0266 0.0
C796 C 0.17999 0.47831 0.06041 0.0
C797 C 0.17762 0.52884 0.11702 0.0
C798 C 0.1652 0.51655 0.93367 0.0
C799 C 0.18185 0.52791 0.8547 0.0
C800 C 0.16894 0.53825 0.76412 0.0
C801 C 0.13905 0.53698 0.75421 0.0
C802 C 0.12128 0.52527 0.83366 0.0
C803 C 0.13517 0.51499 0.92489 0.0
H804 H 0.03821 0.81821 0.4375 0.0
H805 H 1.01149 0.77057 0.71074 0.0
H806 H 1.00903 0.81474 0.80793 0.0
H807 H 0.07747 0.86997 0.54409 0.0
H808 H 0.06424 0.89751 0.46115 0.0
H809 H 0.06448 0.86218 0.41597 0.0
H810 H 1.01085 0.8636 0.38281 0.0
H811 H 1.01094 0.89958 0.4214 0.0
H812 H 0.98743 0.875 0.4844 0.0
H813 H 1.01388 0.86898 0.88017 0.0
H814 H 1.01752 0.9203 0.90327 0.0
H815 H 0.03261 0.93078 0.57255 0.0
C816 C 0.03035 0.81589 0.51558 0.0
C817 C 1.02331 0.78904 0.56056 0.0
C818 C 1.01577 0.78973 0.66869 0.0
C819 C 1.01472 0.81524 0.72618 0.0
C820 C 1.02085 0.84097 0.67648 0.0
C821 C 1.02776 0.84109 0.57209 0.0
C822 C 0.03152 0.871 0.53138 0.0
C823 C 0.06119 0.8754 0.48547 0.0
C824 C 1.00884 0.87774 0.45017 0.0
C825 C 1.02714 0.88819 0.62954 0.0
C826 C 1.02132 0.87067 0.71369 0.0
C827 C 1.01801 0.88234 0.81324 0.0
C828 C 1.02031 0.91188 0.82613 0.0
C829 C 1.02528 0.93045 0.74035 0.0
C830 C 0.02854 0.91782 0.64064 0.0
H831 H 0.76001 0.05224 0.61874 0.0
H832 H 0.76293 0.96647 0.5189 0.0
H833 H 0.71397 0.95971 0.57846 0.0
H834 H 0.71615 0.03248 0.85346 0.0
H835 H 0.69639 0.06471 0.85744 0.0
H836 H 0.73176 0.06444 0.80676 0.0
H837 H 0.71507 0.08286 0.60933 0.0
H838 H 0.68687 0.09052 0.69867 0.0
H839 H 0.67913 0.07225 0.58379 0.0
H840 H 0.66294 0.9628 0.62486 0.0
H841 H 0.6147 0.97282 0.6794 0.0
H842 H 0.63999 0.05608 0.76933 0.0
C843 C 0.75058 0.03182 0.61219 0.0
C844 C 0.76636 1.00953 0.56461 0.0
C845 C 0.75228 0.98358 0.55665 0.0
C846 C 0.72402 0.97972 0.58888 0.0
C847 C 0.70895 1.00192 0.63142 0.0
C848 C 0.72168 0.02749 0.64534 0.0
C849 C 0.70045 0.04676 0.70252 0.0
C850 C 0.71179 0.0524 0.81181 0.0
C851 C 0.69529 0.07459 0.64471 0.0
C852 C 0.67317 0.02885 0.70785 0.0
C853 C 0.67923 1.00299 0.66705 0.0
C854 C 0.65816 0.98289 0.65787 0.0
C855 C 0.63033 0.989 0.68915 0.0
C856 C 0.62231 1.01525 0.73035 0.0
C857 C 0.64467 0.03552 0.7404 0.0
H858 H 0.55723 0.7525 0.66152 0.0
H859 H 0.47931 0.75663 0.49077 0.0
H860 H 0.47028 0.70694 0.53273 0.0
H861 H 0.57992 0.68722 0.59453 0.0
H862 H 0.5921 0.67543 0.72014 0.0
H863 H 0.59062 0.71216 0.69035 0.0
H864 H 0.55901 0.72019 0.85237 0.0
H865 H 0.5611 0.68348 0.8833 0.0
H866 H 0.5273 0.69992 0.86861 0.0
H867 H 0.47236 0.65375 0.57697 0.0
H868 H 0.48266 0.60527 0.6322 0.0
H869 H 0.55956 0.63312 0.7772 0.0
C870 C 0.53746 0.74342 0.63798 0.0
C871 C 0.51854 0.75959 0.57449 0.0
C872 C 0.49366 0.74577 0.54225 0.0
C873 C 0.48864 0.71706 0.56441 0.0
C874 C 0.50825 0.70156 0.62225 0.0
C875 C 0.53181 0.71454 0.66165 0.0
C876 C 0.54959 0.69285 0.72158 0.0
C877 C 0.57985 0.69187 0.67903 0.0
C878 C 0.54928 0.69952 0.8384 0.0
C879 C 0.53378 0.66533 0.70241 0.0
C880 C 0.50954 0.6711 0.64706 0.0
C881 C 0.49117 0.64939 0.6213 0.0
C882 C 0.49724 0.62158 0.65334 0.0
C883 C 0.52192 0.61451 0.70974 0.0
C884 C 0.54051 0.63717 0.73394 0.0
H885 H 0.817 0.49441 0.48017 0.0
H886 H 0.77721 0.56077 0.65162 0.0
H887 H 0.82158 0.56674 0.75137 0.0
H888 H 0.86404 0.46604 0.66849 0.0
H889 H 0.8917 0.46168 0.57329 0.0
H890 H 0.8554 0.46105 0.53396 0.0
H891 H 0.86592 0.50478 0.39906 0.0
H892 H 0.90189 0.49966 0.43953 0.0
H893 H 0.88535 0.53326 0.45062 0.0
H894 H 0.87534 0.56596 0.82866 0.0
H895 H 0.92656 0.56 0.86221 0.0
H896 H 0.9312 0.49871 0.61896 0.0
C897 C 0.81709 0.51088 0.53545 0.0
C898 C 0.79248 0.52731 0.55419 0.0
C899 C 0.79488 0.54731 0.63489 0.0
C900 C 0.82045 0.55107 0.69166 0.0
C901 C 0.84446 0.53518 0.66684 0.0
C902 C 0.84271 0.51567 0.58919 0.0
C903 C 0.87153 0.50267 0.56868 0.0
C904 C 0.87062 0.47098 0.587 0.0
C905 C 0.8818 0.51041 0.458 0.0
C906 C 0.88996 0.51666 0.64941 0.0
C907 C 0.87417 0.53552 0.70597 0.0
C908 C 0.88735 0.55112 0.7838 0.0
C909 C 0.91672 0.54752 0.80293 0.0
C910 C 0.93341 0.5285 0.74496 0.0
C911 C 0.91939 0.51307 0.66667 0.0
loop_
_geom_bond_atom_site_label_1
_geom_bond_atom_site_label_2
_geom_bond_distance
_geom_bond_site_symmetry_2
_ccdc_geom_bond_type
C0 N1 1.317 . S
C0 N2 1.348 . S
C0 C3 1.485 . S
N1 C0 1.317 . S
N1 N5 1.370 . S
N2 C0 1.348 . S
N2 C4 1.346 . S
C3 C0 1.485 . S
C3 H7 0.960 . S
C3 H8 0.961 . S
C3 H9 0.960 . S
C4 N2 1.346 . S
C4 N5 1.307 . S
C4 C6 1.486 . S
N5 N1 1.370 . S
N5 C4 1.307 . S
C6 C4 1.486 . S
C6 H10 0.960 . S
C6 H11 0.960 . S
C6 H12 0.959 . S
H7 C3 0.960 . S
H8 C3 0.961 . S
H9 C3 0.960 . S
H10 C6 0.960 . S
H11 C6 0.960 . S
H12 C6 0.959 . S
C13 N14 1.317 . S
C13 N15 1.350 . S
C13 C16 1.485 . S
N14 C13 1.317 . S
N14 N18 1.371 . S
N15 C13 1.350 . S
N15 C17 1.345 1_655 S
C16 C13 1.485 . S
C16 H20 0.960 1_655 S
C16 H21 0.961 . S
C16 H22 0.960 . S
C17 N15 1.345 1_455 S
C17 N18 1.307 1_455 S
C17 C19 1.486 . S
N18 N14 1.371 . S
N18 C17 1.307 1_655 S
C19 C17 1.486 . S
C19 H23 0.922 1_455 S
C19 H24 0.992 . S
C19 H25 0.967 . S
H20 C16 0.960 1_455 S
H21 C16 0.961 . S
H22 C16 0.960 . S
H23 C19 0.922 1_655 S
H24 C19 0.992 . S
H25 C19 0.967 . S
C26 N27 1.317 . S
C26 N28 1.350 . S
C26 C29 1.485 . S
N27 C26 1.317 . S
N27 N31 1.371 . S
N28 C26 1.350 . S
N28 C30 1.345 1_565 S
C29 C26 1.485 . S
C29 H33 0.960 1_565 S
C29 H34 0.961 . S
C29 H35 0.960 . S
C30 N28 1.345 1_545 S
C30 N31 1.307 1_545 S
C30 C32 1.486 . S
N31 N27 1.371 . S
N31 C30 1.307 1_565 S
C32 C30 1.486 . S
C32 H36 0.922 1_545 S
C32 H37 0.991 . S
C32 H38 0.967 . S
H33 C29 0.960 1_545 S
H34 C29 0.961 . S
H35 C29 0.960 . S
H36 C32 0.922 1_565 S
H37 C32 0.991 . S
H38 C32 0.967 . S
C39 N40 1.317 . S
C39 N41 1.348 . S
C39 C42 1.485 . S
N40 C39 1.317 . S
N40 N44 1.370 . S
N41 C39 1.348 . S
N41 C43 1.346 . S
C42 C39 1.485 . S
C42 H46 0.960 . S
C42 H47 0.961 . S
C42 H48 0.960 . S
C43 N41 1.346 . S
C43 N44 1.307 . S
C43 C45 1.486 . S
N44 N40 1.370 . S
N44 C43 1.307 . S
C45 C43 1.486 . S
C45 H49 0.960 . S
C45 H50 0.960 . S
C45 H51 0.959 . S
H46 C42 0.960 . S
H47 C42 0.961 . S
H48 C42 0.960 . S
H49 C45 0.960 . S
H50 C45 0.960 . S
H51 C45 0.959 . S
C52 N53 1.317 1_556 S
C52 N54 1.348 1_556 S
C52 C55 1.485 . S
N53 C52 1.317 1_554 S
N53 N57 1.374 . S
N54 C52 1.348 1_554 S
N54 C56 1.346 . S
C55 C52 1.485 . S
C55 H59 0.960 . S
C55 H60 0.961 . S
C55 H61 0.960 . S
C56 N54 1.346 . S
C56 N57 1.307 . S
C56 C58 1.486 . S
N57 N53 1.374 . S
N57 C56 1.307 . S
C58 C56 1.486 . S
C58 H62 0.960 . S
C58 H63 0.960 . S
C58 H64 0.959 . S
H59 C55 0.960 . S
H60 C55 0.961 . S
H61 C55 0.960 . S
H62 C58 0.960 . S
H63 C58 0.960 . S
H64 C58 0.959 . S
C65 N66 1.317 1_556 S
C65 N67 1.350 1_556 S
C65 C68 1.485 . S
N66 C65 1.317 1_554 S
N66 N70 1.370 . S
N67 C65 1.350 1_554 S
N67 C69 1.345 1_655 S
C68 C65 1.485 . S
C68 H72 0.960 1_655 S
C68 H73 0.961 . S
C68 H74 0.960 . S
C69 N67 1.345 1_455 S
C69 N70 1.307 1_455 S
C69 C71 1.486 . S
N70 N66 1.370 . S
N70 C69 1.307 1_655 S
C71 C69 1.486 . S
C71 H75 0.960 1_455 S
C71 H76 0.960 . S
C71 H77 0.959 . S
H72 C68 0.960 1_455 S
H73 C68 0.961 . S
H74 C68 0.960 . S
H75 C71 0.960 1_655 S
H76 C71 0.960 . S
H77 C71 0.959 . S
C78 N79 1.317 1_556 S
C78 N80 1.350 1_556 S
C78 C81 1.485 . S
N79 C78 1.317 1_554 S
N79 N83 1.370 . S
N80 C78 1.350 1_554 S
N80 C82 1.345 1_565 S
C81 C78 1.485 . S
C81 H85 0.960 1_565 S
C81 H86 0.961 . S
C81 H87 0.960 . S
C82 N80 1.345 1_545 S
C82 N83 1.307 1_545 S
C82 C84 1.487 . S
N83 N79 1.370 . S
N83 C82 1.307 1_565 S
C84 C82 1.487 . S
C84 H88 0.960 1_545 S
C84 H89 0.960 . S
C84 H90 0.959 . S
H85 C81 0.960 1_545 S
H86 C81 0.961 . S
H87 C81 0.960 . S
H88 C84 0.960 1_565 S
H89 C84 0.960 . S
H90 C84 0.959 . S
C91 N92 1.317 . S
C91 N93 1.348 1_556 S
C91 C94 1.485 . S
N92 C91 1.317 . S
N92 N96 1.370 1_556 S
N93 C91 1.348 1_554 S
N93 C95 1.346 . S
C94 C91 1.485 . S
C94 H98 0.960 . S
C94 H99 0.961 . S
C94 H100 0.960 . S
C95 N93 1.346 . S
C95 N96 1.307 . S
C95 C97 1.486 . S
N96 N92 1.370 1_554 S
N96 C95 1.307 . S
C97 C95 1.486 . S
C97 H101 0.960 . S
C97 H102 0.960 . S
C97 H103 0.959 . S
H98 C94 0.960 . S
H99 C94 0.961 . S
H100 C94 0.960 . S
H101 C97 0.960 . S
H102 C97 0.960 . S
H103 C97 0.959 . S
C104 Eu105 2.835 . S
C104 C106 1.500 . S
C104 O124 1.257 . S
C104 O125 1.260 . S
Eu105 C104 2.835 . S
Eu105 O124 2.473 . S
Eu105 O125 2.480 . S
Eu105 O126 2.430 . S
Eu105 O127 2.670 1_545 S
Eu105 O128 2.394 . S
Eu105 O133 2.355 1_655 S
Eu105 O135 2.374 1_545 S
C106 C104 1.500 . S
C106 C107 1.377 . S
C106 C111 1.377 . S
C107 C106 1.377 . S
C107 C108 1.395 . S
C107 H136 0.931 . S
C108 C107 1.395 . S
C108 C109 1.383 . S
C108 H137 0.931 . S
C109 C108 1.383 . S
C109 C110 1.394 . S
C110 C109 1.394 . S
C110 C111 1.378 . S
C110 H138 0.931 1_655 S
C111 C106 1.377 . S
C111 C110 1.378 . S
C111 H139 0.931 1_655 S
C112 O126 1.259 . S
C112 O127 1.270 1_545 S
C113 O128 1.251 1_455 S
C113 O129 1.251 . S
C114 Eu115 2.835 . S
C114 C116 1.500 1_556 S
C114 O130 1.257 . S
C114 O131 1.260 . S
Eu115 C114 2.835 . S
Eu115 O127 2.355 1_455 S
Eu115 O129 2.374 1_565 S
Eu115 O130 2.473 . S
Eu115 O131 2.480 . S
Eu115 O132 2.430 . S
Eu115 O133 2.670 1_565 S
Eu115 O134 2.394 . S
C116 C114 1.500 1_554 S
C116 C117 1.377 . S
C116 C121 1.377 . S
C117 C116 1.377 . S
C117 C118 1.395 . S
C117 H140 0.931 . S
C118 C117 1.395 . S
C118 C119 1.383 . S
C118 H141 0.931 . S
C119 C118 1.383 . S
C119 C120 1.394 . S
C120 C119 1.394 . S
C120 C121 1.378 . S
C120 H142 0.931 1_455 S
C121 C116 1.377 . S
C121 C120 1.378 . S
C121 H143 0.931 1_455 S
C122 O132 1.259 . S
C122 O133 1.270 1_565 S
C123 O134 1.251 1_655 S
C123 O135 1.251 . S
O124 C104 1.257 . S
O124 Eu105 2.473 . S
O125 C104 1.260 . S
O125 Eu105 2.480 . S
O126 Eu105 2.430 . S
O126 C112 1.259 . S
O127 Eu105 2.670 1_565 S
O127 C112 1.270 1_565 S
O127 Eu115 2.355 1_655 S
O128 Eu105 2.394 . S
O128 C113 1.251 1_655 S
O129 C113 1.251 . S
O129 Eu115 2.374 1_545 S
O130 C114 1.257 . S
O130 Eu115 2.473 . S
O131 C114 1.260 . S
O131 Eu115 2.480 . S
O132 Eu115 2.430 . S
O132 C122 1.259 . S
O133 Eu105 2.355 1_455 S
O133 Eu115 2.670 1_545 S
O133 C122 1.270 1_545 S
O134 Eu115 2.394 . S
O134 C123 1.251 1_455 S
O135 Eu105 2.374 1_565 S
O135 C123 1.251 . S
H136 C107 0.931 . S
H137 C108 0.931 . S
H138 C110 0.931 1_455 S
H139 C111 0.931 1_455 S
H140 C117 0.931 . S
H141 C118 0.931 . S
H142 C120 0.931 1_655 S
H143 C121 0.931 1_655 S
C144 Eu145 2.835 . S
C144 C146 1.500 . S
C144 O164 1.257 . S
C144 O165 1.260 . S
Eu145 C144 2.835 . S
Eu145 O164 2.473 . S
Eu145 O165 2.480 . S
Eu145 O166 2.430 . S
Eu145 O167 2.670 . S
Eu145 O168 2.394 . S
Eu145 O173 2.355 1_565 S
Eu145 O175 2.374 . S
C146 C144 1.500 . S
C146 C147 1.377 . S
C146 C151 1.377 . S
C147 C146 1.377 . S
C147 C148 1.395 . S
C147 H176 0.931 . S
C148 C147 1.395 . S
C148 C149 1.383 . S
C148 H177 0.931 . S
C149 C148 1.383 . S
C149 C150 1.394 . S
C150 C149 1.394 . S
C150 C151 1.378 . S
C150 H178 0.931 1_565 S
C151 C146 1.377 . S
C151 C150 1.378 . S
C151 H179 0.931 1_565 S
C152 O166 1.259 . S
C152 O167 1.270 . S
C153 O168 1.251 1_545 S
C153 O169 1.251 . S
C154 Eu155 2.835 . S
C154 C156 1.500 1_556 S
C154 O170 1.257 . S
C154 O171 1.260 . S
Eu155 C154 2.835 . S
Eu155 O167 2.355 1_545 S
Eu155 O169 2.374 . S
Eu155 O170 2.473 . S
Eu155 O171 2.480 . S
Eu155 O172 2.430 . S
Eu155 O173 2.670 . S
Eu155 O174 2.394 . S
C156 C154 1.500 1_554 S
C156 C157 1.377 . S
C156 C161 1.377 . S
C157 C156 1.377 . S
C157 C158 1.395 . S
C157 H180 0.931 . S
C158 C157 1.395 . S
C158 C159 1.383 . S
C158 H181 0.931 . S
C159 C158 1.383 . S
C159 C160 1.394 . S
C160 C159 1.394 . S
C160 C161 1.378 . S
C160 H182 0.931 1_545 S
C161 C156 1.377 . S
C161 C160 1.378 . S
C161 H183 0.931 1_545 S
C162 O172 1.259 . S
C162 O173 1.270 . S
C163 O174 1.251 1_565 S
C163 O175 1.251 . S
O164 C144 1.257 . S
O164 Eu145 2.473 . S
O165 C144 1.260 . S
O165 Eu145 2.480 . S
O166 Eu145 2.430 . S
O166 C152 1.259 . S
O167 Eu145 2.670 . S
O167 C152 1.270 . S
O167 Eu155 2.355 1_565 S
O168 Eu145 2.394 . S
O168 C153 1.251 1_565 S
O169 C153 1.251 . S
O169 Eu155 2.374 . S
O170 C154 1.257 . S
O170 Eu155 2.473 . S
O171 C154 1.260 . S
O171 Eu155 2.480 . S
O172 Eu155 2.430 . S
O172 C162 1.259 . S
O173 Eu145 2.355 1_545 S
O173 Eu155 2.670 . S
O173 C162 1.270 . S
O174 Eu155 2.394 . S
O174 C163 1.251 1_545 S
O175 Eu145 2.374 . S
O175 C163 1.251 . S
H176 C147 0.931 . S
H177 C148 0.931 . S
H178 C150 0.931 1_545 S
H179 C151 0.931 1_545 S
H180 C157 0.931 . S
H181 C158 0.931 . S
H182 C160 0.931 1_565 S
H183 C161 0.931 1_565 S
C184 Eu185 2.835 . S
C184 C186 1.500 . S
C184 O204 1.257 . S
C184 O205 1.260 . S
Eu185 C184 2.835 . S
Eu185 O204 2.473 . S
Eu185 O205 2.480 . S
Eu185 O206 2.430 . S
Eu185 O207 2.670 . S
Eu185 O208 2.394 . S
Eu185 O213 2.355 . S
Eu185 O215 2.374 . S
C186 C184 1.500 . S
C186 C187 1.377 . S
C186 C191 1.377 . S
C187 C186 1.377 . S
C187 C188 1.395 . S
C187 H216 0.931 . S
C188 C187 1.395 . S
C188 C189 1.383 . S
C188 H217 0.931 . S
C189 C188 1.383 . S
C189 C190 1.394 . S
C190 C189 1.394 . S
C190 C191 1.378 . S
C190 H218 0.931 . S
C191 C186 1.377 . S
C191 C190 1.378 . S
C191 H219 0.931 . S
C192 O206 1.259 . S
C192 O207 1.270 . S
C193 O208 1.251 . S
C193 O209 1.251 . S
C194 Eu195 2.835 . S
C194 C196 1.500 1_556 S
C194 O210 1.257 . S
C194 O211 1.260 . S
Eu195 C194 2.835 . S
Eu195 O207 2.355 . S
Eu195 O209 2.374 . S
Eu195 O210 2.473 . S
Eu195 O211 2.480 . S
Eu195 O212 2.430 . S
Eu195 O213 2.670 . S
Eu195 O214 2.394 . S
C196 C194 1.500 1_554 S
C196 C197 1.377 . S
C196 C201 1.377 . S
C197 C196 1.377 . S
C197 C198 1.395 . S
C197 H220 0.931 . S
C198 C197 1.395 . S
C198 C199 1.383 . S
C198 H221 0.931 . S
C199 C198 1.383 . S
C199 C200 1.394 . S
C200 C199 1.394 . S
C200 C201 1.378 . S
C200 H222 0.931 . S
C201 C196 1.377 . S
C201 C200 1.378 . S
C201 H223 0.931 . S
C202 O212 1.259 . S
C202 O213 1.270 . S
C203 O214 1.251 . S
C203 O215 1.251 . S
O204 C184 1.257 . S
O204 Eu185 2.473 . S
O205 C184 1.260 . S
O205 Eu185 2.480 . S
O206 Eu185 2.430 . S
O206 C192 1.259 . S
O207 Eu185 2.670 . S
O207 C192 1.270 . S
O207 Eu195 2.355 . S
O208 Eu185 2.394 . S
O208 C193 1.251 . S
O209 C193 1.251 . S
O209 Eu195 2.374 . S
O210 C194 1.257 . S
O210 Eu195 2.473 . S
O211 C194 1.260 . S
O211 Eu195 2.480 . S
O212 Eu195 2.430 . S
O212 C202 1.259 . S
O213 Eu185 2.355 . S
O213 Eu195 2.670 . S
O213 C202 1.270 . S
O214 Eu195 2.394 . S
O214 C203 1.251 . S
O215 Eu185 2.374 . S
O215 C203 1.251 . S
H216 C187 0.931 . S
H217 C188 0.931 . S
H218 C190 0.931 . S
H219 C191 0.931 . S
H220 C197 0.931 . S
H221 C198 0.931 . S
H222 C200 0.931 . S
H223 C201 0.931 . S
C224 Eu225 2.835 . S
C224 C226 1.500 . S
C224 O244 1.257 . S
C224 O245 1.260 . S
Eu225 C224 2.835 . S
Eu225 O244 2.473 . S
Eu225 O245 2.480 . S
Eu225 O246 2.430 . S
Eu225 O247 2.670 1_455 S
Eu225 O248 2.394 . S
Eu225 O253 2.355 . S
Eu225 O255 2.374 1_455 S
C226 C224 1.500 . S
C226 C227 1.377 . S
C226 C231 1.377 . S
C227 C226 1.377 . S
C227 C228 1.395 . S
C227 H256 0.931 . S
C228 C227 1.395 . S
C228 C229 1.383 . S
C228 H257 0.931 . S
C229 C228 1.383 . S
C229 C230 1.394 . S
C230 C229 1.394 . S
C230 C231 1.378 . S
C230 H258 0.931 . S
C231 C226 1.377 . S
C231 C230 1.378 . S
C231 H259 0.931 . S
C232 O246 1.268 . S
C232 O247 1.263 1_455 S
C233 O248 1.251 . S
C233 O249 1.251 . S
C234 Eu235 2.835 . S
C234 C236 1.500 1_556 S
C234 O250 1.257 . S
C234 O251 1.260 . S
Eu235 C234 2.835 . S
Eu235 O247 2.355 . S
Eu235 O249 2.374 1_655 S
Eu235 O250 2.473 . S
Eu235 O251 2.480 . S
Eu235 O252 2.430 . S
Eu235 O253 2.670 1_655 S
Eu235 O254 2.394 . S
C236 C234 1.500 1_554 S
C236 C237 1.377 . S
C236 C241 1.377 . S
C237 C236 1.377 . S
C237 C238 1.395 . S
C237 H260 0.931 . S
C238 C237 1.395 . S
C238 C239 1.383 . S
C238 H261 0.931 . S
C239 C238 1.383 . S
C239 C240 1.394 . S
C240 C239 1.394 . S
C240 C241 1.378 . S
C240 H262 0.931 . S
C241 C236 1.377 . S
C241 C240 1.378 . S
C241 H263 0.931 . S
C242 O252 1.264 . S
C242 O253 1.266 1_655 S
C243 O254 1.251 . S
C243 O255 1.251 . S
O244 C224 1.257 . S
O244 Eu225 2.473 . S
O245 C224 1.260 . S
O245 Eu225 2.480 . S
O246 Eu225 2.430 . S
O246 C232 1.268 . S
O247 Eu225 2.670 1_655 S
O247 C232 1.263 1_655 S
O247 Eu235 2.355 . S
O248 Eu225 2.394 . S
O248 C233 1.251 . S
O249 C233 1.251 . S
O249 Eu235 2.374 1_455 S
O250 C234 1.257 . S
O250 Eu235 2.473 . S
O251 C234 1.260 . S
O251 Eu235 2.480 . S
O252 Eu235 2.430 . S
O252 C242 1.264 . S
O253 Eu225 2.355 . S
O253 Eu235 2.670 1_455 S
O253 C242 1.266 1_455 S
O254 Eu235 2.394 . S
O254 C243 1.251 . S
O255 Eu225 2.374 1_655 S
O255 C243 1.251 . S
H256 C227 0.931 . S
H257 C228 0.931 . S
H258 C230 0.931 . S
H259 C231 0.931 . S
H260 C237 0.931 . S
H261 C238 0.931 . S
H262 C240 0.931 . S
H263 C241 0.931 . S
H264 C276 0.930 . S
H265 C278 0.930 . S
H266 C279 0.930 . S
H267 C283 0.959 . S
H268 C283 0.959 . S
H269 C283 0.961 . S
H270 C284 0.960 . S
H271 C284 0.961 . S
H272 C284 0.959 . S
H273 C287 0.929 . S
H274 C288 0.931 . S
H275 C290 0.930 . S
C276 H264 0.930 . S
C276 C277 1.399 1_565 S
C276 C281 1.399 . S
C277 C276 1.399 1_545 S
C277 C278 1.376 . S
C278 H265 0.930 . S
C278 C277 1.376 . S
C278 C279 1.388 . S
C279 H266 0.930 . S
C279 C278 1.388 . S
C279 C280 1.390 . S
C280 C279 1.390 . S
C280 C281 1.394 1_545 S
C280 C286 1.465 . S
C281 C276 1.399 . S
C281 C280 1.394 1_565 S
C281 C282 1.516 . S
C282 C281 1.516 . S
C282 C283 1.502 . S
C282 C284 1.561 . S
C282 C285 1.526 . S
C283 H267 0.959 . S
C283 H268 0.959 . S
C283 H269 0.961 . S
C283 C282 1.502 . S
C284 H270 0.960 . S
C284 H271 0.961 . S
C284 H272 0.959 . S
C284 C282 1.561 . S
C285 C282 1.526 . S
C285 C286 1.396 1_565 S
C285 C290 1.390 . S
C286 C280 1.465 . S
C286 C285 1.396 1_545 S
C286 C287 1.399 . S
C287 H273 0.929 . S
C287 C286 1.399 . S
C287 C288 1.385 . S
C288 H274 0.931 . S
C288 C287 1.385 . S
C288 C289 1.389 . S
C289 C288 1.389 . S
C289 C290 1.387 1_545 S
C290 H275 0.930 . S
C290 C285 1.390 . S
C290 C289 1.387 1_565 S
H291 C303 0.930 . S
H292 C305 0.930 . S
H293 C306 0.930 . S
H294 C310 0.959 . S
H295 C310 0.959 . S
H296 C310 0.961 . S
H297 C311 0.960 . S
H298 C311 0.961 . S
H299 C311 0.959 . S
H300 C314 0.929 . S
H301 C315 0.931 . S
H302 C317 0.930 . S
C303 H291 0.930 . S
C303 C304 1.399 . S
C303 C308 1.399 . S
C304 C303 1.399 . S
C304 C305 1.376 . S
C305 H292 0.930 . S
C305 C304 1.376 . S
C305 C306 1.388 . S
C306 H293 0.930 . S
C306 C305 1.388 . S
C306 C307 1.390 . S
C307 C306 1.390 . S
C307 C308 1.394 . S
C307 C313 1.465 . S
C308 C303 1.399 . S
C308 C307 1.394 . S
C308 C309 1.516 . S
C309 C308 1.516 . S
C309 C310 1.502 . S
C309 C311 1.561 . S
C309 C312 1.526 . S
C310 H294 0.959 . S
C310 H295 0.959 . S
C310 H296 0.961 . S
C310 C309 1.502 . S
C311 H297 0.960 . S
C311 H298 0.961 . S
C311 H299 0.959 . S
C311 C309 1.561 . S
C312 C309 1.526 . S
C312 C313 1.396 . S
C312 C317 1.390 . S
C313 C307 1.465 . S
C313 C312 1.396 . S
C313 C314 1.399 . S
C314 H300 0.929 . S
C314 C313 1.399 . S
C314 C315 1.385 . S
C315 H301 0.931 . S
C315 C314 1.385 . S
C315 C316 1.389 . S
C316 C315 1.389 . S
C316 C317 1.387 . S
C317 H302 0.930 . S
C317 C312 1.390 . S
C317 C316 1.387 . S
H318 C330 0.930 . S
H319 C332 0.930 . S
H320 C333 0.930 . S
H321 C337 0.959 . S
H322 C337 0.959 . S
H323 C337 0.961 . S
H324 C338 0.960 . S
H325 C338 0.961 . S
H326 C338 0.959 . S
H327 C341 0.929 . S
H328 C342 0.931 . S
H329 C344 0.930 . S
C330 H318 0.930 . S
C330 C331 1.399 . S
C330 C335 1.399 . S
C331 C330 1.399 . S
C331 C332 1.376 . S
C332 H319 0.930 . S
C332 C331 1.376 . S
C332 C333 1.388 . S
C333 H320 0.930 . S
C333 C332 1.388 . S
C333 C334 1.390 . S
C334 C333 1.390 . S
C334 C335 1.394 . S
C334 C340 1.465 . S
C335 C330 1.399 . S
C335 C334 1.394 . S
C335 C336 1.516 . S
C336 C335 1.516 . S
C336 C337 1.502 . S
C336 C338 1.561 . S
C336 C339 1.526 . S
C337 H321 0.959 . S
C337 H322 0.959 . S
C337 H323 0.961 . S
C337 C336 1.502 . S
C338 H324 0.960 . S
C338 H325 0.961 . S
C338 H326 0.959 . S
C338 C336 1.561 . S
C339 C336 1.526 . S
C339 C340 1.396 . S
C339 C344 1.390 . S
C340 C334 1.465 . S
C340 C339 1.396 . S
C340 C341 1.399 . S
C341 H327 0.929 . S
C341 C340 1.399 . S
C341 C342 1.385 . S
C342 H328 0.931 . S
C342 C341 1.385 . S
C342 C343 1.389 . S
C343 C342 1.389 . S
C343 C344 1.387 . S
C344 H329 0.930 . S
C344 C339 1.390 . S
C344 C343 1.387 . S
H345 C357 0.930 . S
H346 C359 0.930 . S
H347 C360 0.930 . S
H348 C364 0.959 . S
H349 C364 0.959 . S
H350 C364 0.961 . S
H351 C365 0.960 . S
H352 C365 0.961 . S
H353 C365 0.959 . S
H354 C368 0.929 . S
H355 C369 0.931 . S
H356 C371 0.930 . S
C357 H345 0.930 . S
C357 C358 1.399 1_655 S
C357 C362 1.404 . S
C358 C357 1.399 1_455 S
C358 C359 1.376 . S
C359 H346 0.930 . S
C359 C358 1.376 . S
C359 C360 1.388 . S
C360 H347 0.930 . S
C360 C359 1.388 . S
C360 C361 1.390 . S
C361 C360 1.390 . S
C361 C362 1.381 1_455 S
C361 C367 1.465 . S
C362 C357 1.404 . S
C362 C361 1.381 1_655 S
C362 C363 1.523 . S
C363 C362 1.523 . S
C363 C364 1.502 . S
C363 C365 1.561 1_655 S
C363 C366 1.531 . S
C364 H348 0.959 . S
C364 H349 0.959 . S
C364 H350 0.961 . S
C364 C363 1.502 . S
C365 H351 0.960 . S
C365 H352 0.961 . S
C365 H353 0.959 . S
C365 C363 1.561 1_455 S
C366 C363 1.531 . S
C366 C367 1.387 1_655 S
C366 C371 1.393 . S
C367 C361 1.465 . S
C367 C366 1.387 1_455 S
C367 C368 1.399 . S
C368 H354 0.929 . S
C368 C367 1.399 . S
C368 C369 1.385 . S
C369 H355 0.931 . S
C369 C368 1.385 . S
C369 C370 1.389 . S
C370 C369 1.389 . S
C370 C371 1.387 1_455 S
C371 H356 0.930 . S
C371 C366 1.393 . S
C371 C370 1.387 1_655 S
H372 C384 0.930 . S
H373 C386 0.930 . S
H374 C387 0.930 . S
H375 C391 0.959 . S
H376 C391 0.959 . S
H377 C391 0.961 . S
H378 C392 0.960 . S
H379 C392 0.961 . S
H380 C392 0.959 . S
H381 C395 0.929 . S
H382 C396 0.931 . S
H383 C398 0.930 . S
C384 H372 0.930 . S
C384 C385 1.399 1_565 S
C384 C389 1.399 . S
C385 C384 1.399 1_545 S
C385 C386 1.376 . S
C386 H373 0.930 . S
C386 C385 1.376 . S
C386 C387 1.388 . S
C387 H374 0.930 . S
C387 C386 1.388 . S
C387 C388 1.390 . S
C388 C387 1.390 . S
C388 C389 1.394 1_545 S
C388 C394 1.465 . S
C389 C384 1.399 . S
C389 C388 1.394 1_565 S
C389 C390 1.516 . S
C390 C389 1.516 . S
C390 C391 1.502 . S
C390 C392 1.561 . S
C390 C393 1.526 . S
C391 H375 0.959 . S
C391 H376 0.959 . S
C391 H377 0.961 . S
C391 C390 1.502 . S
C392 H378 0.960 . S
C392 H379 0.961 . S
C392 H380 0.959 . S
C392 C390 1.561 . S
C393 C390 1.526 . S
C393 C394 1.396 1_565 S
C393 C398 1.390 . S
C394 C388 1.465 . S
C394 C393 1.396 1_545 S
C394 C395 1.399 . S
C395 H381 0.929 . S
C395 C394 1.399 . S
C395 C396 1.385 1_554 S
C396 H382 0.931 . S
C396 C395 1.385 1_556 S
C396 C397 1.389 . S
C397 C396 1.389 . S
C397 C398 1.387 1_546 S
C398 H383 0.930 . S
C398 C393 1.390 . S
C398 C397 1.387 1_564 S
H399 C411 0.930 . S
H400 C413 0.930 . S
H401 C414 0.930 . S
H402 C418 0.959 . S
H403 C418 0.959 1_556 S
H404 C418 0.961 . S
H405 C419 0.960 . S
H406 C419 0.961 1_556 S
H407 C419 0.959 . S
H408 C422 0.929 . S
H409 C423 0.931 . S
H410 C425 0.930 . S
C411 H399 0.930 . S
C411 C412 1.399 . S
C411 C416 1.399 . S
C412 C411 1.399 . S
C412 C413 1.376 . S
C413 H400 0.930 . S
C413 C412 1.376 . S
C413 C414 1.388 . S
C414 H401 0.930 . S
C414 C413 1.388 . S
C414 C415 1.390 . S
C415 C414 1.390 . S
C415 C416 1.394 . S
C415 C421 1.465 . S
C416 C411 1.399 . S
C416 C415 1.394 . S
C416 C417 1.516 . S
C417 C416 1.516 . S
C417 C418 1.502 . S
C417 C419 1.561 . S
C417 C420 1.526 . S
C418 H402 0.959 . S
C418 H403 0.959 1_554 S
C418 H404 0.961 . S
C418 C417 1.502 . S
C419 H405 0.960 . S
C419 H406 0.961 1_554 S
C419 H407 0.959 . S
C419 C417 1.561 . S
C420 C417 1.526 . S
C420 C421 1.396 . S
C420 C425 1.390 1_554 S
C421 C415 1.465 . S
C421 C420 1.396 . S
C421 C422 1.399 . S
C422 H408 0.929 . S
C422 C421 1.399 . S
C422 C423 1.385 . S
C423 H409 0.931 . S
C423 C422 1.385 . S
C423 C424 1.389 1_554 S
C424 C423 1.389 1_556 S
C424 C425 1.387 . S
C425 H410 0.930 . S
C425 C420 1.390 1_556 S
C425 C424 1.387 . S
H426 C438 0.930 . S
H427 C440 0.930 . S
H428 C441 0.930 . S
H429 C445 0.959 . S
H430 C445 0.959 . S
H431 C445 0.961 . S
H432 C446 0.960 . S
H433 C446 0.961 . S
H434 C446 0.959 . S
H435 C449 0.930 . S
H436 C450 0.931 . S
H437 C452 0.930 . S
C438 H426 0.930 . S
C438 C439 1.399 . S
C438 C443 1.399 . S
C439 C438 1.399 . S
C439 C440 1.376 . S
C440 H427 0.930 . S
C440 C439 1.376 . S
C440 C441 1.388 . S
C441 H428 0.930 . S
C441 C440 1.388 . S
C441 C442 1.390 . S
C442 C441 1.390 . S
C442 C443 1.394 . S
C442 C448 1.465 . S
C443 C438 1.399 . S
C443 C442 1.394 . S
C443 C444 1.516 . S
C444 C443 1.516 . S
C444 C445 1.502 . S
C444 C446 1.561 . S
C444 C447 1.526 . S
C445 H429 0.959 . S
C445 H430 0.959 . S
C445 H431 0.961 . S
C445 C444 1.502 . S
C446 H432 0.960 . S
C446 H433 0.961 . S
C446 H434 0.959 . S
C446 C444 1.561 . S
C447 C444 1.526 . S
C447 C448 1.396 . S
C447 C452 1.390 . S
C448 C442 1.465 . S
C448 C447 1.396 . S
C448 C449 1.399 . S
C449 H435 0.930 . S
C449 C448 1.399 . S
C449 C450 1.385 1_554 S
C450 H436 0.931 . S
C450 C449 1.385 1_556 S
C450 C451 1.389 . S
C451 C450 1.389 . S
C451 C452 1.387 1_556 S
C452 H437 0.930 . S
C452 C447 1.390 . S
C452 C451 1.387 1_554 S
H453 C465 0.930 . S
H454 C467 0.930 . S
H455 C468 0.930 . S
H456 C472 0.959 . S
H457 C472 0.959 . S
H458 C472 0.961 . S
H459 C473 0.960 . S
H460 C473 0.961 . S
H461 C473 0.959 . S
H462 C476 0.929 1_556 S
H463 C477 0.931 . S
H464 C479 0.930 . S
C465 H453 0.930 . S
C465 C466 1.399 1_455 S
C465 C470 1.399 . S
C466 C465 1.399 1_655 S
C466 C467 1.376 . S
C467 H454 0.930 . S
C467 C466 1.376 . S
C467 C468 1.388 . S
C468 H455 0.930 . S
C468 C467 1.388 . S
C468 C469 1.390 . S
C469 C468 1.390 . S
C469 C470 1.394 1_655 S
C469 C475 1.465 . S
C470 C465 1.399 . S
C470 C469 1.394 1_455 S
C470 C471 1.516 . S
C471 C470 1.516 . S
C471 C472 1.502 . S
C471 C473 1.561 1_455 S
C471 C474 1.526 . S
C472 H456 0.959 . S
C472 H457 0.959 . S
C472 H458 0.961 . S
C472 C471 1.502 . S
C473 H459 0.960 . S
C473 H460 0.961 . S
C473 H461 0.959 . S
C473 C471 1.561 1_655 S
C474 C471 1.526 . S
C474 C475 1.396 1_455 S
C474 C479 1.390 . S
C475 C469 1.465 . S
C475 C474 1.396 1_655 S
C475 C476 1.399 . S
C476 H462 0.929 1_554 S
C476 C475 1.399 . S
C476 C477 1.385 1_554 S
C477 H463 0.931 . S
C477 C476 1.385 1_556 S
C477 C478 1.389 . S
C478 C477 1.389 . S
C478 C479 1.387 1_656 S
C479 H464 0.930 . S
C479 C474 1.390 . S
C479 C478 1.387 1_454 S
H480 C492 0.930 . S
H481 C494 0.930 . S
H482 C495 0.930 . S
H483 C499 0.959 . S
H484 C499 0.959 . S
H485 C499 0.961 . S
H486 C500 0.960 . S
H487 C500 0.961 . S
H488 C500 0.959 1_455 S
H489 C503 0.929 . S
H490 C504 0.931 . S
H491 C506 0.930 . S
C492 H480 0.930 . S
C492 C493 1.399 1_655 S
C492 C497 1.399 . S
C493 C492 1.399 1_455 S
C493 C494 1.376 . S
C494 H481 0.930 . S
C494 C493 1.376 . S
C494 C495 1.388 . S
C495 H482 0.930 . S
C495 C494 1.388 . S
C495 C496 1.390 1_455 S
C496 C495 1.390 1_655 S
C496 C497 1.394 . S
C496 C502 1.465 . S
C497 C492 1.399 . S
C497 C496 1.394 . S
C497 C498 1.516 . S
C498 C497 1.516 . S
C498 C499 1.502 . S
C498 C500 1.561 . S
C498 C501 1.526 . S
C499 H483 0.959 . S
C499 H484 0.959 . S
C499 H485 0.961 . S
C499 C498 1.502 . S
C500 H486 0.960 . S
C500 H487 0.961 . S
C500 H488 0.959 1_655 S
C500 C498 1.561 . S
C501 C498 1.526 . S
C501 C502 1.396 . S
C501 C506 1.390 . S
C502 C496 1.465 . S
C502 C501 1.396 . S
C502 C503 1.399 . S
C503 H489 0.929 . S
C503 C502 1.399 . S
C503 C504 1.385 . S
C504 H490 0.931 . S
C504 C503 1.385 . S
C504 C505 1.389 . S
C505 C504 1.389 . S
C505 C506 1.387 . S
C506 H491 0.930 . S
C506 C501 1.390 . S
C506 C505 1.387 . S
H507 C519 0.930 . S
H508 C521 0.930 . S
H509 C522 0.930 . S
H510 C526 0.959 . S
H511 C526 0.959 . S
H512 C526 0.961 . S
H513 C527 0.960 1_556 S
H514 C527 0.961 . S
H515 C527 0.959 . S
H516 C530 0.962 . S
H517 C531 0.931 . S
H518 C533 0.930 . S
C519 H507 0.930 . S
C519 C520 1.399 1_565 S
C519 C524 1.399 . S
C520 C519 1.399 1_545 S
C520 C521 1.376 . S
C521 H508 0.930 . S
C521 C520 1.376 . S
C521 C522 1.388 . S
C522 H509 0.930 . S
C522 C521 1.388 . S
C522 C523 1.359 1_545 S
C523 C522 1.359 1_565 S
C523 C524 1.421 . S
C523 C529 1.478 . S
C524 C519 1.399 . S
C524 C523 1.421 . S
C524 C525 1.516 . S
C525 C524 1.516 . S
C525 C526 1.502 . S
C525 C527 1.561 . S
C525 C528 1.526 . S
C526 H510 0.959 . S
C526 H511 0.959 . S
C526 H512 0.961 . S
C526 C525 1.502 . S
C527 H513 0.960 1_554 S
C527 H514 0.961 . S
C527 H515 0.959 . S
C527 C525 1.561 . S
C528 C525 1.526 . S
C528 C529 1.396 . S
C528 C533 1.390 . S
C529 C523 1.478 . S
C529 C528 1.396 . S
C529 C530 1.384 1_565 S
C530 H516 0.962 . S
C530 C529 1.384 1_545 S
C530 C531 1.367 1_545 S
C531 H517 0.931 . S
C531 C530 1.367 1_565 S
C531 C532 1.389 . S
C532 C531 1.389 . S
C532 C533 1.387 . S
C533 H518 0.930 . S
C533 C528 1.390 . S
C533 C532 1.387 . S
H534 C546 0.930 . S
H535 C548 0.930 . S
H536 C549 0.930 . S
H537 C553 0.959 . S
H538 C553 0.959 . S
H539 C553 0.961 . S
H540 C554 0.960 . S
H541 C554 0.961 . S
H542 C554 0.959 . S
H543 C557 0.929 . S
H544 C558 0.931 . S
H545 C560 0.930 . S
C546 H534 0.930 . S
C546 C547 1.399 . S
C546 C551 1.399 . S
C547 C546 1.399 . S
C547 C548 1.376 . S
C548 H535 0.930 . S
C548 C547 1.376 . S
C548 C549 1.388 . S
C549 H536 0.930 . S
C549 C548 1.388 . S
C549 C550 1.390 . S
C550 C549 1.390 . S
C550 C551 1.394 . S
C550 C556 1.465 . S
C551 C546 1.399 . S
C551 C550 1.394 . S
C551 C552 1.516 . S
C552 C551 1.516 . S
C552 C553 1.502 . S
C552 C554 1.561 . S
C552 C555 1.526 . S
C553 H537 0.959 . S
C553 H538 0.959 . S
C553 H539 0.961 . S
C553 C552 1.502 . S
C554 H540 0.960 . S
C554 H541 0.961 . S
C554 H542 0.959 . S
C554 C552 1.561 . S
C555 C552 1.526 . S
C555 C556 1.396 . S
C555 C560 1.390 . S
C556 C550 1.465 . S
C556 C555 1.396 . S
C556 C557 1.399 . S
C557 H543 0.929 . S
C557 C556 1.399 . S
C557 C558 1.385 . S
C558 H544 0.931 . S
C558 C557 1.385 . S
C558 C559 1.389 . S
C559 C558 1.389 . S
C559 C560 1.387 . S
C560 H545 0.930 . S
C560 C555 1.390 . S
C560 C559 1.387 . S
H561 C573 0.930 . S
H562 C575 0.930 . S
H563 C576 0.930 . S
H564 C580 0.959 . S
H565 C580 0.959 . S
H566 C580 0.961 . S
H567 C581 0.960 . S
H568 C581 0.961 . S
H569 C581 0.959 . S
H570 C584 0.929 . S
H571 C585 0.931 . S
H572 C587 0.930 . S
C573 H561 0.930 . S
C573 C574 1.399 . S
C573 C578 1.399 . S
C574 C573 1.399 . S
C574 C575 1.376 . S
C575 H562 0.930 . S
C575 C574 1.376 . S
C575 C576 1.388 . S
C576 H563 0.930 . S
C576 C575 1.388 . S
C576 C577 1.390 . S
C577 C576 1.390 . S
C577 C578 1.394 . S
C577 C583 1.465 . S
C578 C573 1.399 . S
C578 C577 1.394 . S
C578 C579 1.516 . S
C579 C578 1.516 . S
C579 C580 1.502 . S
C579 C581 1.561 . S
C579 C582 1.526 . S
C580 H564 0.959 . S
C580 H565 0.959 . S
C580 H566 0.961 . S
C580 C579 1.502 . S
C581 H567 0.960 . S
C581 H568 0.961 . S
C581 H569 0.959 . S
C581 C579 1.561 . S
C582 C579 1.526 . S
C582 C583 1.396 . S
C582 C587 1.390 . S
C583 C577 1.465 . S
C583 C582 1.396 . S
C583 C584 1.399 . S
C584 H570 0.929 . S
C584 C583 1.399 . S
C584 C585 1.385 . S
C585 H571 0.931 . S
C585 C584 1.385 . S
C585 C586 1.389 . S
C586 C585 1.389 . S
C586 C587 1.387 . S
C587 H572 0.930 . S
C587 C582 1.390 . S
C587 C586 1.387 . S
H588 C600 0.930 . S
H589 C602 0.930 . S
H590 C603 0.930 . S
H591 C607 0.959 . S
H592 C607 0.959 . S
H593 C607 0.961 . S
H594 C608 0.960 . S
H595 C608 0.961 1_455 S
H596 C608 0.959 . S
H597 C611 0.929 . S
H598 C612 0.931 . S
H599 C614 0.930 . S
C600 H588 0.930 . S
C600 C601 1.399 1_455 S
C600 C605 1.399 . S
C601 C600 1.399 1_655 S
C601 C602 1.376 . S
C602 H589 0.930 . S
C602 C601 1.376 . S
C602 C603 1.388 . S
C603 H590 0.930 . S
C603 C602 1.388 . S
C603 C604 1.390 1_655 S
C604 C603 1.390 1_455 S
C604 C605 1.394 . S
C604 C610 1.465 . S
C605 C600 1.399 . S
C605 C604 1.394 . S
C605 C606 1.516 . S
C606 C605 1.516 . S
C606 C607 1.502 . S
C606 C608 1.561 1_455 S
C606 C609 1.526 . S
C607 H591 0.959 . S
C607 H592 0.959 . S
C607 H593 0.961 . S
C607 C606 1.502 . S
C608 H594 0.960 . S
C608 H595 0.961 1_655 S
C608 H596 0.959 . S
C608 C606 1.561 1_655 S
C609 C606 1.526 . S
C609 C610 1.396 . S
C609 C614 1.390 . S
C610 C604 1.465 . S
C610 C609 1.396 . S
C610 C611 1.399 . S
C611 H597 0.929 . S
C611 C610 1.399 . S
C611 C612 1.385 . S
C612 H598 0.931 . S
C612 C611 1.385 . S
C612 C613 1.389 . S
C613 C612 1.389 . S
C613 C614 1.387 . S
C614 H599 0.930 . S
C614 C609 1.390 . S
C614 C613 1.387 . S
H615 C627 0.930 . S
H616 C629 0.930 . S
H617 C630 0.930 . S
H618 C634 0.959 1_565 S
H619 C634 0.959 . S
H620 C634 0.961 . S
H621 C635 0.960 . S
H622 C635 0.961 . S
H623 C635 0.959 . S
H624 C638 0.929 . S
H625 C639 0.931 . S
H626 C641 0.930 . S
C627 H615 0.930 . S
C627 C628 1.399 1_545 S
C627 C632 1.399 . S
C628 C627 1.399 1_565 S
C628 C629 1.376 . S
C629 H616 0.930 . S
C629 C628 1.376 . S
C629 C630 1.388 1_565 S
C630 H617 0.930 . S
C630 C629 1.388 1_545 S
C630 C631 1.390 . S
C631 C630 1.390 . S
C631 C632 1.394 . S
C631 C637 1.465 . S
C632 C627 1.399 . S
C632 C631 1.394 . S
C632 C633 1.516 . S
C633 C632 1.516 . S
C633 C634 1.502 . S
C633 C635 1.561 . S
C633 C636 1.526 . S
C634 H618 0.959 1_545 S
C634 H619 0.959 . S
C634 H620 0.961 . S
C634 C633 1.502 . S
C635 H621 0.960 . S
C635 H622 0.961 . S
C635 H623 0.959 . S
C635 C633 1.561 . S
C636 C633 1.526 . S
C636 C637 1.396 . S
C636 C641 1.390 . S
C637 C631 1.465 . S
C637 C636 1.396 . S
C637 C638 1.399 . S
C638 H624 0.929 . S
C638 C637 1.399 . S
C638 C639 1.385 . S
C639 H625 0.931 . S
C639 C638 1.385 . S
C639 C640 1.389 . S
C640 C639 1.389 . S
C640 C641 1.387 . S
C641 H626 0.930 . S
C641 C636 1.390 . S
C641 C640 1.387 . S
H642 C654 0.930 . S
H643 C656 0.930 . S
H644 C657 0.930 . S
H645 C661 0.959 . S
H646 C661 0.959 . S
H647 C661 0.961 . S
H648 C662 0.960 . S
H649 C662 0.961 . S
H650 C662 0.959 . S
H651 C665 0.929 . S
H652 C666 0.931 . S
H653 C668 0.930 . S
C654 H642 0.930 . S
C654 C655 1.399 . S
C654 C659 1.399 . S
C655 C654 1.399 . S
C655 C656 1.376 . S
C656 H643 0.930 . S
C656 C655 1.376 . S
C656 C657 1.388 . S
C657 H644 0.930 . S
C657 C656 1.388 . S
C657 C658 1.390 . S
C658 C657 1.390 . S
C658 C659 1.394 . S
C658 C664 1.465 . S
C659 C654 1.399 . S
C659 C658 1.394 . S
C659 C660 1.516 . S
C660 C659 1.516 . S
C660 C661 1.502 . S
C660 C662 1.561 . S
C660 C663 1.526 . S
C661 H645 0.959 . S
C661 H646 0.959 . S
C661 H647 0.961 . S
C661 C660 1.502 . S
C662 H648 0.960 . S
C662 H649 0.961 . S
C662 H650 0.959 . S
C662 C660 1.561 . S
C663 C660 1.526 . S
C663 C664 1.396 . S
C663 C668 1.390 . S
C664 C658 1.465 . S
C664 C663 1.396 . S
C664 C665 1.399 . S
C665 H651 0.929 . S
C665 C664 1.399 . S
C665 C666 1.385 . S
C666 H652 0.931 . S
C666 C665 1.385 . S
C666 C667 1.389 . S
C667 C666 1.389 . S
C667 C668 1.387 . S
C668 H653 0.930 . S
C668 C663 1.390 . S
C668 C667 1.387 . S
H669 C681 0.930 . S
H670 C683 0.930 . S
H671 C684 0.930 . S
H672 C688 0.959 . S
H673 C688 0.959 . S
H674 C688 0.961 . S
H675 C689 0.960 . S
H676 C689 0.961 . S
H677 C689 0.959 . S
H678 C692 0.929 . S
H679 C693 0.931 . S
H680 C695 0.930 . S
C681 H669 0.930 . S
C681 C682 1.399 . S
C681 C686 1.399 . S
C682 C681 1.399 . S
C682 C683 1.376 . S
C683 H670 0.930 . S
C683 C682 1.376 . S
C683 C684 1.388 . S
C684 H671 0.930 . S
C684 C683 1.388 . S
C684 C685 1.390 . S
C685 C684 1.390 . S
C685 C686 1.394 . S
C685 C691 1.465 . S
C686 C681 1.399 . S
C686 C685 1.394 . S
C686 C687 1.516 . S
C687 C686 1.516 . S
C687 C688 1.502 . S
C687 C689 1.561 . S
C687 C690 1.526 . S
C688 H672 0.959 . S
C688 H673 0.959 . S
C688 H674 0.961 . S
C688 C687 1.502 . S
C689 H675 0.960 . S
C689 H676 0.961 . S
C689 H677 0.959 . S
C689 C687 1.561 . S
C690 C687 1.526 . S
C690 C691 1.396 . S
C690 C695 1.390 . S
C691 C685 1.465 . S
C691 C690 1.396 . S
C691 C692 1.399 . S
C692 H678 0.929 . S
C692 C691 1.399 . S
C692 C693 1.385 . S
C693 H679 0.931 . S
C693 C692 1.385 . S
C693 C694 1.389 . S
C694 C693 1.389 . S
C694 C695 1.387 . S
C695 H680 0.930 . S
C695 C690 1.390 . S
C695 C694 1.387 . S
H696 C708 0.930 . S
H697 C710 0.930 . S
H698 C711 0.930 . S
H699 C715 0.959 . S
H700 C715 0.959 . S
H701 C715 0.961 . S
H702 C716 0.960 . S
H703 C716 0.961 1_455 S
H704 C716 0.959 . S
H705 C719 0.929 . S
H706 C720 0.931 . S
H707 C722 0.925 1_554 S
C708 H696 0.930 . S
C708 C709 1.394 1_454 S
C708 C713 1.399 1_554 S
C709 C708 1.394 1_656 S
C709 C710 1.383 . S
C710 H697 0.930 . S
C710 C709 1.383 . S
C710 C711 1.388 . S
C711 H698 0.930 . S
C711 C710 1.388 . S
C711 C712 1.390 . S
C712 C711 1.390 . S
C712 C713 1.394 1_655 S
C712 C718 1.465 . S
C713 C708 1.399 1_556 S
C713 C712 1.394 1_455 S
C713 C714 1.516 1_556 S
C714 C713 1.516 1_554 S
C714 C715 1.502 . S
C714 C716 1.561 1_455 S
C714 C717 1.526 1_554 S
C715 H699 0.959 . S
C715 H700 0.959 . S
C715 H701 0.961 . S
C715 C714 1.502 . S
C716 H702 0.960 . S
C716 H703 0.961 1_655 S
C716 H704 0.959 . S
C716 C714 1.561 1_655 S
C717 C714 1.526 1_556 S
C717 C718 1.396 1_455 S
C717 C722 1.390 . S
C718 C712 1.465 . S
C718 C717 1.396 1_655 S
C718 C719 1.399 . S
C719 H705 0.929 . S
C719 C718 1.399 . S
C719 C720 1.385 . S
C720 H706 0.931 . S
C720 C719 1.385 . S
C720 C721 1.389 1_655 S
C721 C720 1.389 1_455 S
C721 C722 1.387 . S
C722 H707 0.925 1_556 S
C722 C717 1.390 . S
C722 C721 1.387 . S
H723 C735 0.930 . S
H724 C737 0.930 . S
H725 C738 0.930 . S
H726 C742 0.959 . S
H727 C742 0.959 . S
H728 C742 0.961 . S
H729 C743 0.960 . S
H730 C743 0.961 . S
H731 C743 0.959 . S
H732 C746 0.929 . S
H733 C747 0.931 . S
H734 C749 0.930 . S
C735 H723 0.930 . S
C735 C736 1.399 1_565 S
C735 C740 1.399 . S
C736 C735 1.399 1_545 S
C736 C737 1.376 . S
C737 H724 0.930 . S
C737 C736 1.376 . S
C737 C738 1.388 . S
C738 H725 0.930 . S
C738 C737 1.388 . S
C738 C739 1.390 . S
C739 C738 1.390 . S
C739 C740 1.394 1_545 S
C739 C745 1.465 . S
C740 C735 1.399 . S
C740 C739 1.394 1_565 S
C740 C741 1.516 . S
C741 C740 1.516 . S
C741 C742 1.502 . S
C741 C743 1.561 . S
C741 C744 1.526 . S
C742 H726 0.959 . S
C742 H727 0.959 . S
C742 H728 0.961 . S
C742 C741 1.502 . S
C743 H729 0.960 . S
C743 H730 0.961 . S
C743 H731 0.959 . S
C743 C741 1.561 . S
C744 C741 1.526 . S
C744 C745 1.396 1_565 S
C744 C749 1.390 . S
C745 C739 1.465 . S
C745 C744 1.396 1_545 S
C745 C746 1.399 . S
C746 H732 0.929 . S
C746 C745 1.399 . S
C746 C747 1.385 . S
C747 H733 0.931 . S
C747 C746 1.385 . S
C747 C748 1.389 . S
C748 C747 1.389 . S
C748 C749 1.387 1_545 S
C749 H734 0.930 . S
C749 C744 1.390 . S
C749 C748 1.387 1_565 S
H750 C762 0.930 . S
H751 C764 0.930 . S
H752 C765 0.930 . S
H753 C769 0.959 . S
H754 C769 0.959 . S
H755 C769 0.961 . S
H756 C770 0.960 . S
H757 C770 0.961 . S
H758 C770 0.959 . S
H759 C773 0.929 . S
H760 C774 0.931 1_554 S
H761 C776 0.930 . S
C762 H750 0.930 . S
C762 C763 1.399 . S
C762 C767 1.399 . S
C763 C762 1.399 . S
C763 C764 1.376 1_556 S
C764 H751 0.930 . S
C764 C763 1.376 1_554 S
C764 C765 1.388 . S
C765 H752 0.930 . S
C765 C764 1.388 . S
C765 C766 1.390 1_554 S
C766 C765 1.390 1_556 S
C766 C767 1.394 . S
C766 C772 1.465 . S
C767 C762 1.399 . S
C767 C766 1.394 . S
C767 C768 1.516 . S
C768 C767 1.516 . S
C768 C769 1.502 . S
C768 C770 1.561 . S
C768 C771 1.526 . S
C769 H753 0.959 . S
C769 H754 0.959 . S
C769 H755 0.961 . S
C769 C768 1.502 . S
C770 H756 0.960 . S
C770 H757 0.961 . S
C770 H758 0.959 . S
C770 C768 1.561 . S
C771 C768 1.526 . S
C771 C772 1.396 . S
C771 C776 1.390 . S
C772 C766 1.465 . S
C772 C771 1.396 . S
C772 C773 1.399 1_556 S
C773 H759 0.929 . S
C773 C772 1.399 1_554 S
C773 C774 1.385 1_554 S
C774 H760 0.931 1_556 S
C774 C773 1.385 1_556 S
C774 C775 1.389 . S
C775 C774 1.389 . S
C775 C776 1.387 . S
C776 H761 0.930 . S
C776 C771 1.390 . S
C776 C775 1.387 . S
H777 C789 0.930 . S
H778 C791 0.930 . S
H779 C792 0.930 . S
H780 C796 0.959 . S
H781 C796 0.959 . S
H782 C796 0.961 . S
H783 C797 0.960 . S
H784 C797 0.961 . S
H785 C797 0.959 . S
H786 C800 0.929 . S
H787 C801 0.931 . S
H788 C803 0.930 1_554 S
C789 H777 0.930 . S
C789 C790 1.399 1_554 S
C789 C794 1.399 1_554 S
C790 C789 1.399 1_556 S
C790 C791 1.376 . S
C791 H778 0.930 . S
C791 C790 1.376 . S
C791 C792 1.388 . S
C792 H779 0.930 . S
C792 C791 1.388 . S
C792 C793 1.390 . S
C793 C792 1.390 . S
C793 C794 1.394 . S
C793 C799 1.465 . S
C794 C789 1.399 1_556 S
C794 C793 1.394 . S
C794 C795 1.516 1_556 S
C795 C794 1.516 1_554 S
C795 C796 1.502 . S
C795 C797 1.561 . S
C795 C798 1.526 1_554 S
C796 H780 0.959 . S
C796 H781 0.959 . S
C796 H782 0.961 . S
C796 C795 1.502 . S
C797 H783 0.960 . S
C797 H784 0.961 . S
C797 H785 0.959 . S
C797 C795 1.561 . S
C798 C795 1.526 1_556 S
C798 C799 1.396 . S
C798 C803 1.390 . S
C799 C793 1.465 . S
C799 C798 1.396 . S
C799 C800 1.399 . S
C800 H786 0.929 . S
C800 C799 1.399 . S
C800 C801 1.385 . S
C801 H787 0.931 . S
C801 C800 1.385 . S
C801 C802 1.389 . S
C802 C801 1.389 . S
C802 C803 1.387 . S
C803 H788 0.930 1_556 S
C803 C798 1.390 . S
C803 C802 1.387 . S
H804 C816 0.930 . S
H805 C818 0.930 . S
H806 C819 0.930 . S
H807 C823 0.959 . S
H808 C823 0.959 . S
H809 C823 0.961 . S
H810 C824 0.960 . S
H811 C824 0.961 . S
H812 C824 0.959 . S
H813 C827 0.929 . S
H814 C828 0.931 . S
H815 C830 0.930 . S
C816 H804 0.930 . S
C816 C817 1.399 . S
C816 C821 1.399 . S
C817 C816 1.399 . S
C817 C818 1.376 . S
C818 H805 0.930 . S
C818 C817 1.376 . S
C818 C819 1.388 . S
C819 H806 0.930 . S
C819 C818 1.388 . S
C819 C820 1.390 . S
C820 C819 1.390 . S
C820 C821 1.394 . S
C820 C826 1.465 . S
C821 C816 1.399 . S
C821 C820 1.394 . S
C821 C822 1.516 . S
C822 C821 1.516 . S
C822 C823 1.502 1_655 S
C822 C824 1.561 . S
C822 C825 1.526 . S
C823 H807 0.959 . S
C823 H808 0.959 . S
C823 H809 0.961 . S
C823 C822 1.502 1_455 S
C824 H810 0.960 . S
C824 H811 0.961 . S
C824 H812 0.959 . S
C824 C822 1.561 . S
C825 C822 1.526 . S
C825 C826 1.396 . S
C825 C830 1.390 . S
C826 C820 1.465 . S
C826 C825 1.396 . S
C826 C827 1.399 . S
C827 H813 0.929 . S
C827 C826 1.399 . S
C827 C828 1.385 . S
C828 H814 0.931 . S
C828 C827 1.385 . S
C828 C829 1.389 . S
C829 C828 1.389 . S
C829 C830 1.387 . S
C830 H815 0.930 . S
C830 C825 1.390 . S
C830 C829 1.387 . S
H831 C843 0.930 . S
H832 C845 0.930 . S
H833 C846 0.930 . S
H834 C850 0.959 . S
H835 C850 0.959 . S
H836 C850 0.961 . S
H837 C851 0.960 . S
H838 C851 0.961 . S
H839 C851 0.959 . S
H840 C854 0.929 . S
H841 C855 0.931 . S
H842 C857 0.930 . S
C843 H831 0.930 . S
C843 C844 1.399 1_545 S
C843 C848 1.399 . S
C844 C843 1.399 1_565 S
C844 C845 1.376 . S
C845 H832 0.930 . S
C845 C844 1.376 . S
C845 C846 1.388 . S
C846 H833 0.930 . S
C846 C845 1.388 . S
C846 C847 1.390 . S
C847 C846 1.390 . S
C847 C848 1.394 1_565 S
C847 C853 1.465 . S
C848 C843 1.399 . S
C848 C847 1.394 1_545 S
C848 C849 1.516 . S
C849 C848 1.516 . S
C849 C850 1.502 . S
C849 C851 1.561 . S
C849 C852 1.526 . S
C850 H834 0.959 . S
C850 H835 0.959 . S
C850 H836 0.961 . S
C850 C849 1.502 . S
C851 H837 0.960 . S
C851 H838 0.961 . S
C851 H839 0.959 . S
C851 C849 1.561 . S
C852 C849 1.526 . S
C852 C853 1.396 1_545 S
C852 C857 1.390 . S
C853 C847 1.465 . S
C853 C852 1.396 1_565 S
C853 C854 1.399 . S
C854 H840 0.929 . S
C854 C853 1.399 . S
C854 C855 1.385 . S
C855 H841 0.931 . S
C855 C854 1.385 . S
C855 C856 1.389 . S
C856 C855 1.389 . S
C856 C857 1.387 1_565 S
C857 H842 0.930 . S
C857 C852 1.390 . S
C857 C856 1.387 1_545 S
H858 C870 0.930 . S
H859 C872 0.930 . S
H860 C873 0.930 . S
H861 C877 0.959 . S
H862 C877 0.959 . S
H863 C877 0.961 . S
H864 C878 0.960 . S
H865 C878 0.961 . S
H866 C878 0.959 . S
H867 C881 0.929 . S
H868 C882 0.931 . S
H869 C884 0.930 . S
C870 H858 0.930 . S
C870 C871 1.399 . S
C870 C875 1.399 . S
C871 C870 1.399 . S
C871 C872 1.376 . S
C872 H859 0.930 . S
C872 C871 1.376 . S
C872 C873 1.388 . S
C873 H860 0.930 . S
C873 C872 1.388 . S
C873 C874 1.390 . S
C874 C873 1.390 . S
C874 C875 1.394 . S
C874 C880 1.465 . S
C875 C870 1.399 . S
C875 C874 1.394 . S
C875 C876 1.516 . S
C876 C875 1.516 . S
C876 C877 1.502 . S
C876 C878 1.561 . S
C876 C879 1.526 . S
C877 H861 0.959 . S
C877 H862 0.959 . S
C877 H863 0.961 . S
C877 C876 1.502 . S
C878 H864 0.960 . S
C878 H865 0.961 . S
C878 H866 0.959 . S
C878 C876 1.561 . S
C879 C876 1.526 . S
C879 C880 1.396 . S
C879 C884 1.390 . S
C880 C874 1.465 . S
C880 C879 1.396 . S
C880 C881 1.399 . S
C881 H867 0.929 . S
C881 C880 1.399 . S
C881 C882 1.385 . S
C882 H868 0.931 . S
C882 C881 1.385 . S
C882 C883 1.389 . S
C883 C882 1.389 . S
C883 C884 1.387 . S
C884 H869 0.930 . S
C884 C879 1.390 . S
C884 C883 1.387 . S
H885 C897 0.930 . S
H886 C899 0.930 . S
H887 C900 0.930 . S
H888 C904 0.959 . S
H889 C904 0.959 . S
H890 C904 0.961 . S
H891 C905 0.960 . S
H892 C905 0.961 . S
H893 C905 0.959 . S
H894 C908 0.929 . S
H895 C909 0.931 . S
H896 C911 0.930 . S
C897 H885 0.930 . S
C897 C898 1.399 . S
C897 C902 1.399 . S
C898 C897 1.399 . S
C898 C899 1.376 . S
C899 H886 0.930 . S
C899 C898 1.376 . S
C899 C900 1.388 . S
C900 H887 0.930 . S
C900 C899 1.388 . S
C900 C901 1.390 . S
C901 C900 1.390 . S
C901 C902 1.394 . S
C901 C907 1.465 . S
C902 C897 1.399 . S
C902 C901 1.394 . S
C902 C903 1.516 . S
C903 C902 1.516 . S
C903 C904 1.502 . S
C903 C905 1.561 . S
C903 C906 1.526 . S
C904 H888 0.959 . S
C904 H889 0.959 . S
C904 H890 0.961 . S
C904 C903 1.502 . S
C905 H891 0.960 . S
C905 H892 0.961 . S
C905 H893 0.959 . S
C905 C903 1.561 . S
C906 C903 1.526 . S
C906 C907 1.396 . S
C906 C911 1.390 . S
C907 C901 1.465 . S
C907 C906 1.396 . S
C907 C908 1.399 . S
C908 H894 0.929 . S
C908 C907 1.399 . S
C908 C909 1.385 . S
C909 H895 0.931 . S
C909 C908 1.385 . S
C909 C910 1.389 . S
C910 C909 1.389 . S
C910 C911 1.387 . S
C911 H896 0.930 . S
C911 C906 1.390 . S
C911 C910 1.387 . S
C277 N80 1.865 1_545 S
C289 C122 1.973 1_545 S
C316 C162 1.981 . S
C304 N93 1.882 . S
C343 C202 2.009 . S
C331 N54 1.912 . S
C370 C242 1.999 1_455 S
C358 N67 1.930 1_455 S
C397 C112 1.971 . S
C385 N28 1.877 1_545 S
C412 N41 1.934 . S
C424 C152 2.000 . S
C439 N2 1.887 . S
C451 C192 1.990 . S
C466 N15 1.884 . S
C478 C232 1.983 1_655 S
C505 C109 0.381 . S
C493 N70 0.462 1_455 S
C532 C149 0.363 . S
C520 N83 0.497 1_545 S
C559 C189 0.416 . S
C547 N96 0.493 . S
C574 N57 0.363 . S
C586 C229 0.524 . S
C601 N18 0.481 . S
C613 C119 0.445 . S
C640 C159 0.431 . S
C628 N31 0.398 . S
C667 C199 0.476 . S
C655 N44 0.484 . S
C682 N5 0.402 . S
C694 C239 0.411 . S
C709 N66 2.205 1_556 S
C721 C113 2.252 . S
C736 N79 2.158 1_546 S
C748 C153 2.243 . S
C775 C193 2.201 . S
C763 N92 2.100 . S
C802 C233 2.241 . S
C790 N53 2.188 1_556 S
C817 N14 2.206 . S
C829 C123 2.274 . S
C856 C163 2.240 . S
C844 N27 2.113 . S
C883 C203 2.193 . S
C871 N40 2.109 . S
C898 N1 2.164 . S
C910 C243 2.265 . S
