# Generated by pormake.
# Topology nom, (4,4)-cn, num edge types: 1
# Building blocks:
#     Node 0, Type 0, BuildingBlock: AZAVOO_clean_linker_0, # of connection points: 4
#     Node 1, Type 0, BuildingBlock: AZAVOO_clean_linker_0, # of connection points: 4
#     Node 2, Type 0, BuildingBlock: AZAVOO_clean_linker_0, # of connection points: 4
#     Node 3, Type 0, BuildingBlock: AZAVOO_clean_linker_0, # of connection points: 4
#     Node 4, Type 0, BuildingBlock: AZAVOO_clean_linker_0, # of connection points: 4
#     Node 5, Type 0, BuildingBlock: AZAVOO_clean_linker_0, # of connection points: 4
#     Node 6, Type 1, BuildingBlock: GALJAG_clean_sbu_0, # of connection points: 4
#     Node 7, Type 1, BuildingBlock: GALJAG_clean_sbu_0, # of connection points: 4
#     Node 8, Type 1, BuildingBlock: GALJAG_clean_sbu_0, # of connection points: 4
#     Node 9, Type 1, BuildingBlock: GALJAG_clean_sbu_0, # of connection points: 4
#     Node 10, Type 1, BuildingBlock: GALJAG_clean_sbu_0, # of connection points: 4
#     Node 11, Type 1, BuildingBlock: GALJAG_clean_sbu_0, # of connection points: 4
#     Edge 12, Type (0, 1), BuildingBlock: TEMPAE_clean_linker_10, # of connection points: 2
#     Edge 13, Type (0, 1), BuildingBlock: TEMPAE_clean_linker_10, # of connection points: 2
#     Edge 14, Type (0, 1), BuildingBlock: TEMPAE_clean_linker_10, # of connection points: 2
#     Edge 15, Type (0, 1), BuildingBlock: TEMPAE_clean_linker_10, # of connection points: 2
#     Edge 16, Type (0, 1), BuildingBlock: TEMPAE_clean_linker_10, # of connection points: 2
#     Edge 17, Type (0, 1), BuildingBlock: TEMPAE_clean_linker_10, # of connection points: 2
#     Edge 18, Type (0, 1), BuildingBlock: TEMPAE_clean_linker_10, # of connection points: 2
#     Edge 19, Type (0, 1), BuildingBlock: TEMPAE_clean_linker_10, # of connection points: 2
#     Edge 20, Type (0, 1), BuildingBlock: TEMPAE_clean_linker_10, # of connection points: 2
#     Edge 21, Type (0, 1), BuildingBlock: TEMPAE_clean_linker_10, # of connection points: 2
#     Edge 22, Type (0, 1), BuildingBlock: TEMPAE_clean_linker_10, # of connection points: 2
#     Edge 23, Type (0, 1), BuildingBlock: TEMPAE_clean_linker_10, # of connection points: 2
#     Edge 24, Type (0, 1), BuildingBlock: TEMPAE_clean_linker_10, # of connection points: 2
#     Edge 25, Type (0, 1), BuildingBlock: TEMPAE_clean_linker_10, # of connection points: 2
#     Edge 26, Type (0, 1), BuildingBlock: TEMPAE_clean_linker_10, # of connection points: 2
#     Edge 27, Type (0, 1), BuildingBlock: TEMPAE_clean_linker_10, # of connection points: 2
#     Edge 28, Type (0, 1), BuildingBlock: TEMPAE_clean_linker_10, # of connection points: 2
#     Edge 29, Type (0, 1), BuildingBlock: TEMPAE_clean_linker_10, # of connection points: 2
#     Edge 30, Type (0, 1), BuildingBlock: TEMPAE_clean_linker_10, # of connection points: 2
#     Edge 31, Type (0, 1), BuildingBlock: TEMPAE_clean_linker_10, # of connection points: 2
#     Edge 32, Type (0, 1), BuildingBlock: TEMPAE_clean_linker_10, # of connection points: 2
#     Edge 33, Type (0, 1), BuildingBlock: TEMPAE_clean_linker_10, # of connection points: 2
#     Edge 34, Type (0, 1), BuildingBlock: TEMPAE_clean_linker_10, # of connection points: 2
#     Edge 35, Type (0, 1), BuildingBlock: TEMPAE_clean_linker_10, # of connection points: 2
# Relax obj value: 0.113
# Max RMSD: 0.223
# Mean RMSD: 0.142
data_MOF--net-nom--node1-GALJAG_clean_sbu_0--node2-AZAVOO_clean_linker_0--edge1-TEMPAE_clean_linker_10
_symmetry_space_group_name_H-M    P1
_symmetry_Int_Tables_number       1
_symmetry_cell_setting            triclinic
loop_
_symmetry_equiv_pos_as_xyz
'x, y, z'
_cell_length_a     48.345157
_cell_length_b     49.691317
_cell_length_c     61.869754
_cell_angle_alpha  90.1995
_cell_angle_beta   89.844855
_cell_angle_gamma 121.60546
loop_
_atom_site_label
_atom_site_type_symbol
_atom_site_fract_x
_atom_site_fract_y
_atom_site_fract_z
_atom_type_partial_charge
H0 H 0.08564 0.554 0.17257 0.0
H1 H 0.21327 0.71616 0.39734 0.0
H2 H 0.00748 0.50996 0.2819 0.0
H3 H 0.97059 0.48075 0.25226 0.0
H4 H 0.94192 0.54981 0.24966 0.0
H5 H 0.98048 0.57984 0.27851 0.0
H6 H 0.08148 0.55233 0.26711 0.0
H7 H 0.08752 0.54785 0.22819 0.0
H8 H 0.04593 0.60505 0.21597 0.0
H9 H 0.04047 0.6097 0.25492 0.0
H10 H 0.13203 0.5886 0.30231 0.0
H11 H 0.18772 0.62186 0.28855 0.0
H12 H 0.16357 0.68835 0.26403 0.0
H13 H 0.10811 0.65506 0.27784 0.0
H14 H 0.10527 0.57922 0.35087 0.0
H15 H 0.14814 0.6085 0.3776 0.0
H16 H 0.16028 0.69602 0.35429 0.0
H17 H 0.11705 0.66637 0.32782 0.0
H18 H 0.03564 0.5441 0.36257 0.0
H19 H 0.04753 0.55421 0.40111 0.0
H20 H 0.06669 0.64883 0.39284 0.0
H21 H 0.05475 0.63842 0.3542 0.0
H22 H 0.97974 0.5176 0.34155 0.0
H23 H 0.92818 0.50388 0.35881 0.0
H24 H 0.93716 0.58853 0.33219 0.0
H25 H 0.98919 0.6027 0.31626 0.0
O26 O 0.08329 0.5563 0.1879 0.0
O27 O 0.06147 0.58553 0.1825 0.0
O28 O 0.18993 0.65847 0.39772 0.0
O29 O 0.19708 0.70413 0.38641 0.0
C30 C 0.02454 0.56785 0.29645 0.0
C31 C 0.0561 0.58328 0.28739 0.0
C32 C 0.08347 0.60103 0.30072 0.0
C33 C 0.07945 0.60255 0.32315 0.0
C34 C 0.04789 0.58791 0.33209 0.0
C35 C 0.02041 0.57128 0.31868 0.0
C36 C 0.99642 0.54684 0.28251 0.0
C37 C 0.99254 0.51828 0.27531 0.0
C38 C 0.97137 0.50159 0.25835 0.0
C39 C 0.95342 0.51304 0.24839 0.0
C40 C 0.95578 0.54061 0.25669 0.0
C41 C 0.97733 0.55752 0.27349 0.0
C42 C 0.06045 0.58123 0.26379 0.0
C43 C 0.07387 0.56401 0.25598 0.0
C44 C 0.0772 0.56142 0.23375 0.0
C45 C 0.06712 0.57602 0.21896 0.0
C46 C 0.05387 0.59346 0.2269 0.0
C47 C 0.05067 0.59611 0.24913 0.0
C48 C 0.11626 0.61957 0.29107 0.0
C49 C 0.13878 0.61018 0.29376 0.0
C50 C 0.17038 0.62905 0.28582 0.0
C51 C 0.17984 0.65765 0.27531 0.0
C52 C 0.1569 0.66652 0.27222 0.0
C53 C 0.12531 0.64755 0.27999 0.0
C54 C 0.10816 0.6207 0.33741 0.0
C55 C 0.11751 0.60475 0.35141 0.0
C56 C 0.14191 0.62152 0.3667 0.0
C57 C 0.15753 0.65461 0.36816 0.0
C58 C 0.14871 0.67057 0.35364 0.0
C59 C 0.1242 0.65373 0.3384 0.0
C60 C 0.04439 0.59054 0.35566 0.0
C61 C 0.04092 0.56648 0.36927 0.0
C62 C 0.04787 0.57237 0.39127 0.0
C63 C 0.05852 0.60249 0.3999 0.0
C64 C 0.05896 0.62556 0.38655 0.0
C65 C 0.05183 0.61956 0.36457 0.0
C66 C 0.98791 0.56095 0.32752 0.0
C67 C 0.97036 0.53301 0.33947 0.0
C68 C 0.94092 0.52522 0.34923 0.0
C69 C 0.92857 0.54522 0.34705 0.0
C70 C 0.94618 0.57291 0.33467 0.0
C71 C 0.97568 0.58082 0.32523 0.0
C72 C 0.07041 0.57299 0.19535 0.0
C73 C 0.18252 0.6724 0.38497 0.0
H74 H 0.48619 0.07853 0.34613 0.0
H75 H 0.51789 0.2337 0.58323 0.0
H76 H 0.47716 0.01705 0.47287 0.0
H77 H 0.47302 0.98271 0.44307 0.0
H78 H 0.39365 0.988 0.41623 0.0
H79 H 0.39727 0.02167 0.44652 0.0
H80 H 0.50088 0.07236 0.43939 0.0
H81 H 0.50232 0.07358 0.39988 0.0
H82 H 0.42728 0.09622 0.39959 0.0
H83 H 0.42568 0.09435 0.43915 0.0
H84 H 0.52741 0.13928 0.4551 0.0
H85 H 0.549 0.19011 0.43709 0.0
H86 H 0.47048 0.19758 0.4639 0.0
H87 H 0.44785 0.14562 0.48037 0.0
H88 H 0.5347 0.1406 0.51329 0.0
H89 H 0.55894 0.18445 0.5392 0.0
H90 H 0.46532 0.17469 0.54804 0.0
H91 H 0.4415 0.13098 0.52206 0.0
H92 H 0.50387 0.06931 0.53258 0.0
H93 H 0.51794 0.08028 0.57086 0.0
H94 H 0.43399 0.08798 0.58139 0.0
H95 H 0.41967 0.07627 0.54302 0.0
H96 H 0.46871 0.01231 0.51533 0.0
H97 H 0.43744 0.95873 0.53025 0.0
H98 H 0.34853 0.95744 0.5189 0.0
H99 H 0.37998 0.01053 0.50355 0.0
O100 O 0.48559 0.07871 0.36176 0.0
O101 O 0.44731 0.09077 0.36245 0.0
O102 O 0.55705 0.22202 0.5667 0.0
O103 O 0.5092 0.21718 0.57239 0.0
C104 C 0.44692 0.04984 0.47569 0.0
C105 C 0.4606 0.08002 0.46604 0.0
C106 C 0.47214 0.10717 0.47914 0.0
C107 C 0.47134 0.10424 0.50184 0.0
C108 C 0.45794 0.07411 0.51144 0.0
C109 C 0.44482 0.04686 0.49839 0.0
C110 C 0.43762 0.02197 0.46179 0.0
C111 C 0.45784 0.00956 0.46116 0.0
C112 C 0.45561 0.99014 0.44405 0.0
C113 C 0.43336 0.9832 0.42725 0.0
C114 C 0.41122 0.99334 0.42892 0.0
C115 C 0.4131 0.01233 0.44624 0.0
C116 C 0.46306 0.08312 0.44211 0.0
C117 C 0.48482 0.07764 0.43076 0.0
C118 C 0.48561 0.07837 0.40819 0.0
C119 C 0.46484 0.0849 0.39657 0.0
C120 C 0.44354 0.09105 0.40805 0.0
C121 C 0.44267 0.09014 0.43063 0.0
C122 C 0.48609 0.13878 0.46907 0.0
C123 C 0.51479 0.15184 0.4569 0.0
C124 C 0.52722 0.18106 0.44678 0.0
C125 C 0.51155 0.19812 0.449 0.0
C126 C 0.48293 0.18496 0.46144 0.0
C127 C 0.47019 0.15547 0.47119 0.0
C128 C 0.48645 0.13282 0.51577 0.0
C129 C 0.51963 0.14832 0.52062 0.0
C130 C 0.53334 0.17321 0.5355 0.0
C131 C 0.51402 0.18298 0.54578 0.0
C132 C 0.48088 0.16775 0.54047 0.0
C133 C 0.46723 0.14289 0.52556 0.0
C134 C 0.46077 0.07199 0.5351 0.0
C135 C 0.48776 0.07201 0.54334 0.0
C136 C 0.49581 0.07839 0.56517 0.0
C137 C 0.47719 0.08525 0.57899 0.0
C138 C 0.44883 0.08296 0.571 0.0
C139 C 0.44052 0.0761 0.5492 0.0
C140 C 0.42653 0.01514 0.50835 0.0
C141 C 0.4425 0.00043 0.51621 0.0
C142 C 0.4246 0.96993 0.52481 0.0
C143 C 0.39045 0.95375 0.5257 0.0
C144 C 0.37472 0.96899 0.51814 0.0
C145 C 0.39261 -0.00064 0.50949 0.0
C146 C 0.46531 0.08503 0.37258 0.0
C147 C 0.52818 0.20861 0.5622 0.0
H148 H 0.50168 0.51731 0.78694 0.0
H149 H 0.54419 0.41555 0.54743 0.0
H150 H 0.50847 0.58121 0.67599 0.0
H151 H 0.49728 0.5974 0.71052 0.0
H152 H 0.40137 0.51312 0.71105 0.0
H153 H 0.41311 0.49692 0.67648 0.0
H154 H 0.53263 0.54264 0.69498 0.0
H155 H 0.52972 0.53869 0.73447 0.0
H156 H 0.43498 0.4533 0.7296 0.0
H157 H 0.43816 0.45772 0.69015 0.0
H158 H 0.56045 0.50928 0.6595 0.0
H159 H 0.57971 0.47553 0.673 0.0
H160 H 0.48049 0.39674 0.67624 0.0
H161 H 0.46165 0.43053 0.66244 0.0
H162 H 0.55836 0.53128 0.6106 0.0
H163 H 0.58116 0.51293 0.58302 0.0
H164 H 0.4952 0.4193 0.58675 0.0
H165 H 0.47254 0.43813 0.61414 0.0
H166 H 0.52871 0.56894 0.60042 0.0
H167 H 0.54436 0.57201 0.56251 0.0
H168 H 0.46222 0.47755 0.55198 0.0
H169 H 0.44723 0.47452 0.59007 0.0
H170 H 0.48937 0.58955 0.63658 0.0
H171 H 0.45646 0.61131 0.62502 0.0
H172 H 0.38101 0.51834 0.60385 0.0
H173 H 0.41365 0.49679 0.61591 0.0
O174 O 0.503 0.51767 0.77132 0.0
O175 O 0.45598 0.47207 0.76797 0.0
O176 O 0.57952 0.47189 0.55719 0.0
O177 O 0.5361 0.42321 0.5587 0.0
C178 C 0.47293 0.52332 0.65813 0.0
C179 C 0.48557 0.50532 0.66615 0.0
C180 C 0.49801 0.49227 0.65177 0.0
C181 C 0.49891 0.49808 0.62946 0.0
C182 C 0.48548 0.51541 0.62141 0.0
C183 C 0.47189 0.52753 0.6357 0.0
C184 C 0.46159 0.53796 0.67382 0.0
C185 C 0.48449 0.56704 0.68305 0.0
C186 C 0.47809 0.57614 0.70286 0.0
C187 C 0.44864 0.55621 0.71367 0.0
C188 C 0.42447 0.52865 0.70323 0.0
C189 C 0.43091 0.51959 0.68337 0.0
C190 C 0.48569 0.50038 0.68979 0.0
C191 C 0.51154 0.52283 0.7025 0.0
C192 C 0.5097 0.52062 0.72503 0.0
C193 C 0.48203 0.49577 0.7352 0.0
C194 C 0.45662 0.47274 0.7223 0.0
C195 C 0.45844 0.47507 0.69978 0.0
C196 C 0.50975 0.47221 0.66008 0.0
C197 C 0.543 0.48472 0.66316 0.0
C198 C 0.55387 0.46551 0.67093 0.0
C199 C 0.53157 0.43352 0.67564 0.0
C200 C 0.49823 0.42119 0.67251 0.0
C201 C 0.48742 0.44042 0.66479 0.0
C202 C 0.51386 0.48601 0.61434 0.0
C203 C 0.54465 0.50676 0.60555 0.0
C204 C 0.55756 0.49623 0.58978 0.0
C205 C 0.53995 0.46465 0.58263 0.0
C206 C 0.50938 0.44376 0.59187 0.0
C207 C 0.49645 0.45438 0.6076 0.0
C208 C 0.48707 0.52143 0.59793 0.0
C209 C 0.51327 0.54953 0.58967 0.0
C210 C 0.52222 0.55117 0.56801 0.0
C211 C 0.5049 0.52472 0.55443 0.0
C212 C 0.47636 0.49804 0.56222 0.0
C213 C 0.46752 0.49639 0.58387 0.0
C214 C 0.45374 0.54161 0.62718 0.0
C215 C 0.46579 0.574 0.62936 0.0
C216 C 0.44708 0.58638 0.62264 0.0
C217 C 0.41606 0.56646 0.61368 0.0
C218 C 0.40458 0.53417 0.61099 0.0
C219 C 0.42326 0.52187 0.61771 0.0
C220 C 0.47948 0.49429 0.75913 0.0
C221 C 0.55318 0.45358 0.56544 0.0
H222 H 0.08521 0.47431 0.96457 0.0
H223 H 0.21761 0.5014 0.735 0.0
H224 H 0.02303 0.49349 0.85858 0.0
H225 H 0.98681 0.48662 0.88828 0.0
H226 H 0.93098 0.38597 0.87598 0.0
H227 H 0.96852 0.39316 0.8466 0.0
H228 H 0.08959 0.50315 0.87261 0.0
H229 H 0.0941 0.50056 0.91183 0.0
H230 H 0.02952 0.39905 0.90923 0.0
H231 H 0.02559 0.40197 0.86997 0.0
H232 H 0.13771 0.51899 0.83691 0.0
H233 H 0.18674 0.52802 0.85504 0.0
H234 H 0.14142 0.4274 0.8649 0.0
H235 H 0.09218 0.41875 0.84707 0.0
H236 H 0.11333 0.52521 0.79002 0.0
H237 H 0.15893 0.54446 0.76485 0.0
H238 H 0.15575 0.45624 0.7713 0.0
H239 H 0.10975 0.43707 0.79618 0.0
H240 H 0.03851 0.5046 0.78375 0.0
H241 H 0.05067 0.52634 0.74721 0.0
H242 H 0.06985 0.45419 0.72743 0.0
H243 H 0.05726 0.43231 0.76408 0.0
H244 H 0.98212 0.47358 0.81081 0.0
H245 H 0.92616 0.44669 0.7968 0.0
H246 H 0.93202 0.36529 0.78036 0.0
H247 H 0.98773 0.39227 0.79408 0.0
O248 O 0.08327 0.47476 0.94903 0.0
O249 O 0.0498 0.42267 0.94684 0.0
O250 O 0.19995 0.53913 0.74202 0.0
O251 O 0.19994 0.49456 0.74518 0.0
C252 C 0.02461 0.44823 0.83576 0.0
C253 C 0.05426 0.45451 0.8447 0.0
C254 C 0.08109 0.46302 0.83112 0.0
C255 C 0.07895 0.4673 0.80879 0.0
C256 C 0.04891 0.46008 0.79975 0.0
C257 C 0.02142 0.44911 0.81317 0.0
C258 C -0.00164 0.44384 0.85048 0.0
C259 C 0.00252 0.47004 0.86199 0.0
C260 C 0.98169 0.46604 0.87894 0.0
C261 C 0.95601 0.4357 0.88464 0.0
C262 C 0.95081 0.4096 0.87222 0.0
C263 C 0.97192 0.41365 0.85528 0.0
C264 C 0.05735 0.45275 0.86848 0.0
C265 C 0.07663 0.48037 0.88054 0.0
C266 C 0.07907 0.47882 0.90294 0.0
C267 C 0.06215 0.44959 0.91368 0.0
C268 C 0.04286 0.42194 0.90148 0.0
C269 C 0.04054 0.42353 0.87907 0.0
C270 C 0.11161 0.46825 0.8406 0.0
C271 C 0.13859 0.49893 0.84276 0.0
C272 C 0.16654 0.50398 0.85308 0.0
C273 C 0.16798 0.47838 0.86136 0.0
C274 C 0.14093 0.44759 0.8589 0.0
C275 C 0.11295 0.44259 0.84861 0.0
C276 C 0.10822 0.47973 0.79487 0.0
C277 C 0.12262 0.51014 0.78604 0.0
C278 C 0.14864 0.52106 0.77166 0.0
C279 C 0.16093 0.50184 0.766 0.0
C280 C 0.14685 0.47162 0.77527 0.0
C281 C 0.12069 0.46066 0.78957 0.0
C282 C 0.04734 0.46709 0.77663 0.0
C283 C 0.04408 0.49272 0.77133 0.0
C284 C 0.05116 0.50519 0.75046 0.0
C285 C 0.06173 0.49226 0.73459 0.0
C286 C 0.06225 0.4649 0.73946 0.0
C287 C 0.05486 0.45226 0.7603 0.0
C288 C 0.98879 0.43478 0.80343 0.0
C289 C 0.97135 0.45012 0.80393 0.0
C290 C 0.93959 0.43483 0.79591 0.0
C291 C 0.9249 0.40392 0.78763 0.0
C292 C 0.94277 0.389 0.78681 0.0
C293 C 0.97452 0.4044 0.79453 0.0
C294 C 0.06462 0.44806 0.9375 0.0
C295 C 0.18812 0.51309 0.75037 0.0
H296 H 0.47398 0.98121 0.84411 0.0
H297 H 0.50286 0.83863 0.05304 0.0
H298 H 0.50116 0.04787 0.94978 0.0
H299 H 0.51381 0.08712 0.92203 0.0
H300 H 0.61639 0.12895 0.93493 0.0
H301 H 0.6033 0.08735 0.96109 0.0
H302 H 0.47151 0.97608 0.93859 0.0
H303 H 0.46267 0.97262 0.89949 0.0
H304 H 0.56656 0.02792 0.88927 0.0
H305 H 0.57506 0.03079 0.92837 0.0
H306 H 0.46101 0.92546 0.97425 0.0
H307 H 0.44512 0.87359 0.95918 0.0
H308 H 0.54029 0.91387 0.93034 0.0
H309 H 0.55621 0.96528 0.94596 0.0
H310 H 0.47573 0.95198 0.02364 0.0
H311 H 0.46105 0.90544 0.04559 0.0
H312 H 0.54035 0.90097 0.01709 0.0
H313 H 0.55502 0.94776 0.99548 0.0
H314 H 0.5082 0.02598 0.03463 0.0
H315 H 0.5106 0.02367 0.07402 0.0
H316 H 0.58505 0.00069 0.06811 0.0
H317 H 0.58215 0.00271 0.02866 0.0
H318 H 0.53321 0.08207 0.0038 0.0
H319 H 0.56909 0.13484 0.0197 0.0
H320 H 0.64814 0.11803 0.01991 0.0
H321 H 0.6123 0.06552 0.00437 0.0
O322 O 0.47804 0.98258 0.85951 0.0
O323 O 0.53163 0.01131 0.85514 0.0
O324 O 0.46792 0.86062 0.05892 0.0
O325 O 0.50812 0.85706 0.04456 0.0
C326 C 0.54321 0.03632 0.97039 0.0
C327 C 0.52912 0.00651 0.9601 0.0
C328 C 0.52091 0.97939 0.97232 0.0
C329 C 0.52551 0.98173 0.99494 0.0
C330 C 0.53996 0.01154 0.00513 0.0
C331 C 0.54979 0.03889 0.99277 0.0
C332 C 0.55126 0.06457 0.95738 0.0
C333 C 0.52635 0.06581 0.9468 0.0
C334 C 0.53372 0.08856 0.93101 0.0
C335 C 0.56624 0.11121 0.92591 0.0
C336 C 0.59109 0.11143 0.93793 0.0
C337 C 0.58368 0.08802 0.95326 0.0
C338 C 0.5239 0.00378 0.93631 0.0
C339 C 0.49231 0.98725 0.92786 0.0
C340 C 0.48734 0.98541 0.90553 0.0
C341 C 0.51391 8e-05 0.89125 0.0
C342 C 0.54556 0.01641 0.8998 0.0
C343 C 0.55049 0.01814 0.92213 0.0
C344 C 0.50977 0.94894 0.96126 0.0
C345 C 0.47822 0.92305 0.96447 0.0
C346 C 0.46916 0.89359 0.95575 0.0
C347 C 0.49157 0.88974 0.94371 0.0
C348 C 0.52269 0.91612 0.93978 0.0
C349 C 0.53173 0.94547 0.94854 0.0
C350 C 0.51632 0.95312 0.00792 0.0
C351 C 0.48988 0.9409 0.02218 0.0
C352 C 0.48155 0.91432 0.03468 0.0
C353 C 0.49952 0.89945 0.03307 0.0
C354 C 0.52598 0.9118 0.01871 0.0
C355 C 0.53435 0.93845 0.00629 0.0
C356 C 0.54467 0.01409 0.02888 0.0
C357 C 0.52542 0.02101 0.04189 0.0
C358 C 0.52697 0.01986 0.06437 0.0
C359 C 0.54787 0.01179 0.07415 0.0
C360 C 0.5684 0.00654 0.06101 0.0
C361 C 0.56683 0.00772 0.03853 0.0
C362 C 0.57033 0.07024 0.0029 0.0
C363 C 0.55821 0.08983 0.00744 0.0
C364 C 0.57857 0.1197 0.01656 0.0
C365 C 0.61126 0.13029 0.02089 0.0
C366 C 0.62307 0.11037 0.01657 0.0
C367 C 0.60269 0.0805 0.00777 0.0
C368 C 0.50853 0.99839 0.86755 0.0
C369 C 0.4908 0.87123 0.04632 0.0
H370 H 0.66232 0.6309 0.00685 0.0
H371 H 0.75058 0.60345 0.25058 0.0
H372 H 0.59703 0.65986 0.12689 0.0
H373 H 0.57201 0.66266 0.09345 0.0
H374 H 0.66612 0.73471 0.06952 0.0
H375 H 0.691 0.73253 0.10341 0.0
H376 H 0.62944 0.63133 0.09776 0.0
H377 H 0.63345 0.62518 0.05885 0.0
H378 H 0.73645 0.69444 0.06148 0.0
H379 H 0.732 0.70064 0.10041 0.0
H380 H 0.66194 0.60152 0.11867 0.0
H381 H 0.68888 0.5759 0.1029 0.0
H382 H 0.78089 0.65063 0.12792 0.0
H383 H 0.75384 0.67671 0.1432 0.0
H384 H 0.65076 0.59605 0.17325 0.0
H385 H 0.66381 0.56987 0.20136 0.0
H386 H 0.75343 0.65794 0.21451 0.0
H387 H 0.73999 0.68377 0.18636 0.0
H388 H 0.61313 0.62589 0.18888 0.0
H389 H 0.60627 0.61063 0.22684 0.0
H390 H 0.69882 0.69442 0.24152 0.0
H391 H 0.70514 0.71001 0.20336 0.0
H392 H 0.59668 0.66173 0.17382 0.0
H393 H 0.57371 0.69043 0.19036 0.0
H394 H 0.65886 0.77884 0.17111 0.0
H395 H 0.68244 0.7498 0.15587 0.0
O396 O 0.66131 0.63384 0.02224 0.0
O397 O 0.7136 0.67149 0.02407 0.0
O398 O 0.69785 0.56889 0.23258 0.0
O399 O 0.74527 0.61297 0.23896 0.0
C400 C 0.6614 0.68529 0.13326 0.0
C401 C 0.67768 0.67035 0.12548 0.0
C402 C 0.68987 0.65739 0.14013 0.0
C403 C 0.68468 0.6581 0.16244 0.0
C404 C 0.66778 0.67232 0.17021 0.0
C405 C 0.65679 0.68658 0.1557 0.0
C406 C 0.64587 0.69572 0.11747 0.0
C407 C 0.61204 0.67751 0.11498 0.0
C408 C 0.59781 0.67897 0.09578 0.0
C409 C 0.6173 0.69847 0.07881 0.0
C410 C 0.65069 0.71926 0.08231 0.0
C411 C 0.66484 0.7182 0.10169 0.0
C412 C 0.68039 0.66659 0.10184 0.0
C413 C 0.65281 0.64526 0.08987 0.0
C414 C 0.6552 0.6417 0.06767 0.0
C415 C 0.68528 0.65931 0.05706 0.0
C416 C 0.71291 0.68056 0.06916 0.0
C417 C 0.71047 0.68413 0.09137 0.0
C418 C 0.70603 0.64102 0.13191 0.0
C419 C 0.68793 0.61242 0.12066 0.0
C420 C 0.70331 0.59795 0.1116 0.0
C421 C 0.73695 0.61158 0.11402 0.0
C422 C 0.75493 0.63979 0.12582 0.0
C423 C 0.73956 0.65456 0.13459 0.0
C424 C 0.69452 0.6417 0.17776 0.0
C425 C 0.67341 0.60948 0.18202 0.0
C426 C 0.68084 0.59467 0.19817 0.0
C427 C 0.70963 0.61186 0.21025 0.0
C428 C 0.73108 0.64401 0.20552 0.0
C429 C 0.72357 0.6588 0.1894 0.0
C430 C 0.65943 0.66923 0.19346 0.0
C431 C 0.63107 0.64185 0.20047 0.0
C432 C 0.62729 0.63307 0.22214 0.0
C433 C 0.65213 0.65128 0.23703 0.0
C434 C 0.67938 0.68001 0.2303 0.0
C435 C 0.68289 0.68906 0.20861 0.0
C436 C 0.6415 0.70371 0.16408 0.0
C437 C 0.61051 0.68729 0.17344 0.0
C438 C 0.59726 0.70377 0.18263 0.0
C439 C 0.61453 0.73703 0.18225 0.0
C440 C 0.64519 0.75331 0.17216 0.0
C441 C 0.65857 0.73678 0.16323 0.0
C442 C 0.68771 0.65536 0.03347 0.0
C443 C 0.71712 0.59649 0.22789 0.0
In444 In 0.64659 0.4869 0.39529 0.0
O445 O 0.69791 0.50363 0.40772 0.0
O446 O 0.6866 0.48907 0.37492 0.0
C447 C 0.61969 0.50401 0.42611 0.0
C448 C 0.64325 0.52218 0.36389 0.0
C449 C 0.61355 0.42405 0.40199 0.0
O450 O 0.64927 0.51212 0.42679 0.0
O451 O 0.60412 0.48757 0.40989 0.0
O452 O 0.61391 0.43554 0.38372 0.0
O453 O 0.62986 0.4441 0.41642 0.0
C454 C 0.70755 0.49945 0.38973 0.0
O455 O 0.62782 0.4923 0.36281 0.0
O456 O 0.66015 0.53394 0.38073 0.0
In457 In 0.22189 0.66099 0.57338 0.0
O458 O 0.2484 0.63619 0.56316 0.0
O459 O 0.26153 0.66103 0.59309 0.0
C460 C 0.18335 0.64724 0.53853 0.0
C461 C 0.18023 0.62682 0.60548 0.0
C462 C 0.25983 0.7242 0.56839 0.0
O463 O 0.20342 0.6384 0.54031 0.0
O464 O 0.18257 0.66284 0.55441 0.0
O465 O 0.23651 0.71185 0.58168 0.0
O466 O 0.26389 0.70472 0.55793 0.0
C467 C 0.26612 0.64443 0.5798 0.0
O468 O 0.19999 0.65625 0.60709 0.0
O469 O 0.18116 0.61502 0.58763 0.0
In470 In 0.62226 0.24996 0.7443 0.0
O471 O 0.67317 0.2585 0.73838 0.0
O472 O 0.66858 0.29103 0.75811 0.0
C473 C 0.59166 0.20608 0.71317 0.0
C474 C 0.60588 0.22184 0.78328 0.0
C475 C 0.60423 0.29008 0.73098 0.0
O476 O 0.62201 0.22541 0.71301 0.0
O477 O 0.57701 0.20846 0.7293 0.0
O478 O 0.58986 0.27061 0.74609 0.0
O479 O 0.62766 0.28933 0.72271 0.0
C480 C 0.68722 0.28326 0.74982 0.0
O481 O 0.61069 0.24899 0.78005 0.0
O482 O 0.6088 0.20853 0.76678 0.0
In483 In 0.44309 0.61633 0.91367 0.0
O484 O 0.40421 0.56375 0.91565 0.0
O485 O 0.39337 0.59692 0.92845 0.0
C486 C 0.49172 0.62773 0.94084 0.0
C487 C 0.44528 0.60231 0.87189 0.0
C488 C 0.44497 0.67129 0.91574 0.0
O489 O 0.46394 0.60296 0.94203 0.0
O490 O 0.49536 0.64542 0.92519 0.0
O491 O 0.45541 0.66363 0.8996 0.0
O492 O 0.43345 0.65112 0.93071 0.0
C493 C 0.38323 0.56843 0.92405 0.0
O494 O 0.46509 0.60322 0.88562 0.0
O495 O 0.42514 0.60878 0.87927 0.0
In496 In 0.81767 0.41604 0.06538 0.0
O497 O 0.81454 0.41688 0.10189 0.0
O498 O 0.85966 0.42761 0.0884 0.0
C499 C 0.77099 0.35451 0.06317 0.0
C500 C 0.80371 0.46183 0.06686 0.0
C501 C 0.84735 0.42177 0.02713 0.0
O502 O 0.79907 0.36358 0.07021 0.0
O503 O 0.76668 0.3764 0.05761 0.0
O504 O 0.81781 0.41297 0.02878 0.0
O505 O 0.86245 0.42837 0.04487 0.0
C506 C 0.84358 0.42495 0.10526 0.0
O507 O 0.83175 0.46767 0.06214 0.0
O508 O 0.78299 0.4331 0.07012 0.0
In509 In 0.47078 0.87401 0.24982 0.0
O510 O 0.50348 0.85506 0.25908 0.0
O511 O 0.49702 0.86068 0.2258 0.0
C512 C 0.46606 0.89943 0.28723 0.0
C513 C 0.48849 0.92096 0.22123 0.0
C514 C 0.41324 0.81915 0.24773 0.0
O515 O 0.49184 0.90044 0.28192 0.0
O516 O 0.44354 0.88647 0.27355 0.0
O517 O 0.4213 0.84137 0.23451 0.0
O518 O 0.43454 0.82442 0.26166 0.0
C519 C 0.50995 0.85228 0.23971 0.0
O520 O 0.46036 0.89654 0.22178 0.0
O521 O 0.50753 0.9223 0.23573 0.0
C522 C 0.23089 0.66801 0.25717 0.0
C523 C 0.21403 0.67922 0.26882 0.0
C524 C 0.26364 0.68838 0.25154 0.0
C525 C 0.2798 0.72045 0.25804 0.0
C526 C 0.26276 0.73184 0.26971 0.0
C527 C 0.23002 0.7111 0.27486 0.0
C528 C 0.28099 0.67559 0.23882 0.0
C529 C 0.27926 0.76581 0.27716 0.0
C530 C 0.37076 0.77007 0.26599 0.0
C531 C 0.38024 0.79083 0.24843 0.0
C532 C 0.33826 0.74584 0.26871 0.0
C533 C 0.31485 0.74218 0.25338 0.0
C534 C 0.32467 0.76174 0.23487 0.0
C535 C 0.35731 0.786 0.23266 0.0
C536 C 0.32869 0.72554 0.28873 0.0
C537 C 0.30044 0.75824 0.21803 0.0
H538 H 0.2184 0.64337 0.25239 0.0
H539 H 0.21708 0.71966 0.28412 0.0
H540 H 0.29176 0.68976 0.22395 0.0
H541 H 0.30125 0.67761 0.24854 0.0
H542 H 0.26454 0.65044 0.23417 0.0
H543 H 0.2624 0.77093 0.28589 0.0
H544 H 0.29978 0.7713 0.28805 0.0
H545 H 0.28949 0.78192 0.26309 0.0
H546 H 0.38844 0.77366 0.27819 0.0
H547 H 0.36461 0.80189 0.21898 0.0
H548 H 0.31342 0.70017 0.28439 0.0
H549 H 0.314 0.73122 0.29947 0.0
H550 H 0.35015 0.72929 0.29792 0.0
H551 H 0.28443 0.73308 0.21333 0.0
H552 H 0.3125 0.77232 0.2033 0.0
H553 H 0.28473 0.76629 0.22486 0.0
C554 C 0.55913 0.25093 0.4381 0.0
C555 C 0.52537 0.22982 0.43889 0.0
C556 C 0.57247 0.2815 0.42976 0.0
C557 C 0.55159 0.29154 0.42247 0.0
C558 C 0.51758 0.27019 0.42266 0.0
C559 C 0.5049 0.2395 0.43066 0.0
C560 C 0.60893 0.30347 0.42955 0.0
C561 C 0.49452 0.28017 0.41528 0.0
C562 C 0.58658 0.3795 0.42787 0.0
C563 C 0.59566 0.38989 0.40656 0.0
C564 C 0.57113 0.3474 0.43306 0.0
C565 C 0.56534 0.3252 0.4166 0.0
C566 C 0.57401 0.33547 0.39494 0.0
C567 C 0.58877 0.36779 0.39012 0.0
C568 C 0.56161 0.33735 0.45627 0.0
C569 C 0.56874 0.31253 0.37706 0.0
H570 H 0.57524 0.244 0.44464 0.0
H571 H 0.47884 0.2232 0.4307 0.0
H572 H 0.61722 0.31471 0.41346 0.0
H573 H 0.61607 0.32265 0.44155 0.0
H574 H 0.6218 0.29103 0.4335 0.0
H575 H 0.46888 0.26014 0.41504 0.0
H576 H 0.49636 0.29871 0.42629 0.0
H577 H 0.5012 0.29057 0.39886 0.0
H578 H 0.59162 0.39658 0.44056 0.0
H579 H 0.59595 0.37588 0.37365 0.0
H580 H 0.57585 0.32748 0.46271 0.0
H581 H 0.53556 0.31846 0.45723 0.0
H582 H 0.5658 0.35728 0.46682 0.0
H583 H 0.58374 0.30203 0.38013 0.0
H584 H 0.57527 0.32402 0.36094 0.0
H585 H 0.54301 0.29283 0.37672 0.0
C586 C 0.36216 0.56208 0.61368 0.0
C587 C 0.3951 0.57893 0.60788 0.0
C588 C 0.34188 0.57342 0.60852 0.0
C589 C 0.35486 0.60235 0.59729 0.0
C590 C 0.38808 0.61949 0.59134 0.0
C591 C 0.40785 0.60759 0.59676 0.0
C592 C 0.30663 0.55456 0.61526 0.0
C593 C 0.40269 0.65038 0.57929 0.0
C594 C 0.29395 0.61607 0.56865 0.0
C595 C 0.28994 0.63491 0.5837 0.0
C596 C 0.31562 0.6059 0.57262 0.0
C597 C 0.3336 0.61477 0.59211 0.0
C598 C 0.3301 0.6343 0.60716 0.0
C599 C 0.30831 0.64415 0.60277 0.0
C600 C 0.31875 0.58511 0.55618 0.0
C601 C 0.34884 0.64422 0.62814 0.0
H602 H 0.35231 0.54017 0.62259 0.0
H603 H 0.43323 0.62053 0.59209 0.0
H604 H 0.30116 0.56891 0.62622 0.0
H605 H 0.29076 0.54858 0.60088 0.0
H606 H 0.30026 0.53231 0.62365 0.0
H607 H 0.42886 0.66065 0.57567 0.0
H608 H 0.38954 0.64681 0.56387 0.0
H609 H 0.4 0.66772 0.58897 0.0
H610 H 0.27986 0.60894 0.55386 0.0
H611 H 0.30535 0.65878 0.61444 0.0
H612 H 0.31041 0.56163 0.56337 0.0
H613 H 0.34458 0.59557 0.55153 0.0
H614 H 0.30431 0.58166 0.54137 0.0
H615 H 0.34183 0.62306 0.63811 0.0
H616 H 0.3444 0.66058 0.63768 0.0
H617 H 0.37526 0.656 0.62487 0.0
C618 C 0.86901 0.3564 0.78921 0.0
C619 C 0.89051 0.3865 0.78079 0.0
C620 C 0.8362 0.33952 0.78325 0.0
C621 C 0.82477 0.35291 0.76824 0.0
C622 C 0.84653 0.38311 0.75937 0.0
C623 C 0.87917 0.39973 0.76595 0.0
C624 C 0.81362 0.30767 0.79339 0.0
C625 C 0.83528 0.3979 0.74309 0.0
C626 C 0.74366 0.29625 0.74157 0.0
C627 C 0.72254 0.30151 0.75386 0.0
C628 C 0.77722 0.31343 0.74568 0.0
C629 C 0.78969 0.33589 0.7627 0.0
C630 C 0.76841 0.3413 0.77507 0.0
C631 C 0.73514 0.32423 0.77038 0.0
C632 C 0.7993 0.30738 0.73197 0.0
C633 C 0.78067 0.36465 0.79359 0.0
H634 H 0.87779 0.34633 0.80086 0.0
H635 H 0.89594 0.42292 0.75932 0.0
H636 H 0.79428 0.30837 0.8026 0.0
H637 H 0.80152 0.28937 0.78065 0.0
H638 H 0.82652 0.30038 0.80451 0.0
H639 H 0.85561 0.42074 0.73687 0.0
H640 H 0.82337 0.38158 0.72924 0.0
H641 H 0.81697 0.40207 0.75057 0.0
H642 H 0.73398 0.27881 0.72872 0.0
H643 H 0.71886 0.32828 0.77998 0.0
H644 H 0.81104 0.29784 0.74216 0.0
H645 H 0.81895 0.32987 0.7249 0.0
H646 H 0.78603 0.29037 0.71865 0.0
H647 H 0.79224 0.35755 0.80593 0.0
H648 H 0.76095 0.36633 0.80146 0.0
H649 H 0.79947 0.38845 0.78775 0.0
C650 C 0.45322 0.83658 0.92753 0.0
C651 C 0.48348 0.85792 0.93676 0.0
C652 C 0.44482 0.80573 0.92218 0.0
C653 C 0.46716 0.79613 0.92634 0.0
C654 C 0.49798 0.81781 0.93524 0.0
C655 C 0.50575 0.84844 0.94034 0.0
C656 C 0.41184 0.78323 0.91255 0.0
C657 C 0.52239 0.80836 0.94002 0.0
C658 C 0.43858 0.71049 0.93674 0.0
C659 C 0.44765 0.70213 0.91753 0.0
C660 C 0.44363 0.74073 0.93949 0.0
C661 C 0.45794 0.76299 0.92255 0.0
C662 C 0.46585 0.75425 0.90276 0.0
C663 C 0.46068 0.72386 0.9005 0.0
C664 C 0.43499 0.74928 0.96086 0.0
C665 C 0.48098 0.77738 0.88433 0.0
H666 H 0.43609 0.84399 0.92459 0.0
H667 H 0.52896 0.86473 0.9478 0.0
H668 H 0.41445 0.77283 0.89736 0.0
H669 H 0.39736 0.76344 0.9239 0.0
H670 H 0.39813 0.79498 0.90904 0.0
H671 H 0.5458 0.82848 0.94606 0.0
H672 H 0.51238 0.78939 0.95237 0.0
H673 H 0.52722 0.79875 0.92525 0.0
H674 H 0.42838 0.69369 0.94992 0.0
H675 H 0.46755 0.71738 0.88558 0.0
H676 H 0.41952 0.75935 0.95823 0.0
H677 H 0.45745 0.76765 0.96907 0.0
H678 H 0.42198 0.7286 0.9718 0.0
H679 H 0.46666 0.78846 0.88084 0.0
H680 H 0.4827 0.76596 0.86934 0.0
H681 H 0.50578 0.7966 0.88893 0.0
C682 C 0.74708 0.5856 0.08309 0.0
C683 C 0.75279 0.59565 0.10468 0.0
C684 C 0.75875 0.56717 0.07469 0.0
C685 C 0.77598 0.55823 0.08837 0.0
C686 C 0.7832 0.56969 0.10988 0.0
C687 C 0.77165 0.58849 0.11775 0.0
C688 C 0.75107 0.55584 0.05157 0.0
C689 C 0.80121 0.56036 0.12502 0.0
C690 C 0.76583 0.47835 0.07899 0.0
C691 C 0.7961 0.48662 0.07036 0.0
C692 C 0.7589 0.5015 0.08457 0.0
C693 C 0.7827 0.53372 0.08116 0.0
C694 C 0.81291 0.54223 0.0717 0.0
C695 C 0.81937 0.5185 0.06653 0.0
C696 C 0.72645 0.49147 0.09476 0.0
C697 C 0.83859 0.57635 0.06754 0.0
H698 H 0.73281 0.59155 0.07293 0.0
H699 H 0.7759 0.5962 0.13448 0.0
H700 H 0.77302 0.55915 0.04329 0.0
H701 H 0.7325 0.5302 0.05129 0.0
H702 H 0.74159 0.56843 0.0423 0.0
H703 H 0.80764 0.57374 0.14048 0.0
H704 H 0.78583 0.53477 0.1287 0.0
H705 H 0.82378 0.56433 0.11731 0.0
H706 H 0.74777 0.45373 0.08201 0.0
H707 H 0.84279 0.52493 0.05981 0.0
H708 H 0.71371 0.50057 0.08518 0.0
H709 H 0.73019 0.50171 0.11124 0.0
H710 H 0.71045 0.46538 0.09598 0.0
H711 H 0.82818 0.58801 0.05821 0.0
H712 H 0.8597 0.57883 0.05851 0.0
H713 H 0.84736 0.58917 0.08313 0.0
C714 C 0.38128 0.91139 0.55203 0.0
C715 C 0.37116 0.92073 0.53382 0.0
C716 C 0.36361 0.88002 0.55939 0.0
C717 C 0.33514 0.8575 0.54828 0.0
C718 C 0.32453 0.86689 0.53011 0.0
C719 C 0.3427 0.89832 0.52307 0.0
C720 C 0.37568 0.87085 0.57882 0.0
C721 C 0.29433 0.84356 0.51779 0.0
C722 C 0.30663 0.77046 0.55028 0.0
C723 C 0.28024 0.75862 0.56458 0.0
C724 C 0.32525 0.80274 0.54535 0.0
C725 C 0.31723 0.82372 0.55488 0.0
C726 C 0.29111 0.81205 0.56975 0.0
C727 C 0.27292 0.77958 0.57446 0.0
C728 C 0.353 0.81425 0.52948 0.0
C729 C 0.28183 0.83372 0.5802 0.0
H730 H 0.403 0.92865 0.56059 0.0
H731 H 0.33497 0.90519 0.50878 0.0
H732 H 0.35631 0.85976 0.59125 0.0
H733 H 0.38185 0.85307 0.57403 0.0
H734 H 0.39751 0.89143 0.58617 0.0
H735 H 0.28849 0.85499 0.50466 0.0
H736 H 0.29765 0.82498 0.51054 0.0
H737 H 0.27325 0.83165 0.52893 0.0
H738 H 0.31251 0.7544 0.54266 0.0
H739 H 0.25256 0.77053 0.58553 0.0
H740 H 0.37572 0.83376 0.53673 0.0
H741 H 0.34784 0.82379 0.51488 0.0
H742 H 0.35715 0.79519 0.52439 0.0
H743 H 0.30326 0.85384 0.58819 0.0
H744 H 0.2622 0.82131 0.59238 0.0
H745 H 0.27345 0.84373 0.56764 0.0
C746 C 0.56643 0.4237 0.70013 0.0
C747 C 0.54294 0.41298 0.68378 0.0
C748 C 0.57698 0.40425 0.70821 0.0
C749 C 0.56372 0.37342 0.69968 0.0
C750 C 0.54014 0.36254 0.68309 0.0
C751 C 0.53001 0.38247 0.67534 0.0
C752 C 0.60212 0.41657 0.72596 0.0
C753 C 0.52563 0.32985 0.67352 0.0
C754 C 0.61075 0.33238 0.70611 0.0
C755 C 0.59422 0.31179 0.72331 0.0
C756 C 0.60122 0.35277 0.69835 0.0
C757 C 0.57455 0.35251 0.70806 0.0
C758 C 0.55792 0.33193 0.72555 0.0
C759 C 0.56796 0.31176 0.73297 0.0
C760 C 0.61949 0.37438 0.67964 0.0
C761 C 0.52937 0.33106 0.73628 0.0
H762 H 0.57619 0.44716 0.70685 0.0
H763 H 0.51216 0.37428 0.6625 0.0
H764 H 0.59212 0.40121 0.7404 0.0
H765 H 0.62368 0.41592 0.7206 0.0
H766 H 0.61013 0.44118 0.73073 0.0
H767 H 0.50753 0.32503 0.6607 0.0
H768 H 0.5451 0.32702 0.6665 0.0
H769 H 0.51359 0.3118 0.68637 0.0
H770 H 0.63108 0.33247 0.6986 0.0
H771 H 0.55514 0.29587 0.74628 0.0
H772 H 0.62924 0.39933 0.68437 0.0
H773 H 0.60275 0.36907 0.66585 0.0
H774 H 0.63997 0.37198 0.6741 0.0
H775 H 0.53671 0.3549 0.74243 0.0
H776 H 0.51945 0.31411 0.74995 0.0
H777 H 0.50972 0.32426 0.72431 0.0
C778 C 0.19498 0.468 0.89208 0.0
C779 C 0.19747 0.48406 0.87285 0.0
C780 C 0.22283 0.47501 0.90382 0.0
C781 C 0.25371 0.49892 0.89626 0.0
C782 C 0.25639 0.51438 0.87646 0.0
C783 C 0.22827 0.50661 0.86496 0.0
C784 C 0.21904 0.45771 0.92467 0.0
C785 C 0.28893 0.53999 0.86775 0.0
C786 C 0.32608 0.55297 0.93047 0.0
C787 C 0.34815 0.54453 0.92352 0.0
C788 C 0.29376 0.53604 0.92349 0.0
C789 C 0.28334 0.5099 0.90947 0.0
C790 C 0.30431 0.49872 0.90492 0.0
C791 C 0.33668 0.5163 0.91197 0.0
C792 C 0.27209 0.54858 0.92894 0.0
C793 C 0.29373 0.47029 0.89063 0.0
H794 H 0.17122 0.45066 0.89834 0.0
H795 H 0.23037 0.51856 0.84987 0.0
H796 H 0.23759 0.45105 0.92589 0.0
H797 H 0.22267 0.47343 0.93854 0.0
H798 H 0.19453 0.43604 0.92614 0.0
H799 H 0.2868 0.54907 0.85185 0.0
H800 H 0.30047 0.56005 0.87933 0.0
H801 H 0.3054 0.53087 0.86591 0.0
H802 H 0.33473 0.57451 0.93972 0.0
H803 H 0.35355 0.50941 0.90679 0.0
H804 H 0.24727 0.52904 0.93313 0.0
H805 H 0.27009 0.56085 0.91462 0.0
H806 H 0.28182 0.56562 0.94263 0.0
H807 H 0.26829 0.45141 0.89417 0.0
H808 H 0.30969 0.46058 0.89261 0.0
H809 H 0.29486 0.47724 0.87347 0.0
C810 C 0.62643 0.1735 0.04776 0.0
C811 C 0.63365 0.16258 0.02897 0.0
C812 C 0.64805 0.20409 0.0556 0.0
C813 C 0.67704 0.22418 0.04405 0.0
C814 C 0.68427 0.21318 0.025 0.0
C815 C 0.66257 0.18238 0.01779 0.0
C816 C 0.63987 0.21493 0.07615 0.0
C817 C 0.71465 0.23412 0.01201 0.0
C818 C 0.7179 0.31295 0.04805 0.0
C819 C 0.74562 0.32098 0.06021 0.0
C820 C 0.69479 0.28138 0.04328 0.0
C821 C 0.6993 0.25726 0.05116 0.0
C822 C 0.72647 0.26511 0.0643 0.0
C823 C 0.74954 0.297 0.06853 0.0
C824 C 0.66637 0.27397 0.02895 0.0
C825 C 0.73172 0.2399 0.07325 0.0
H826 H 0.60411 0.15795 0.05645 0.0
H827 H 0.6679 0.17388 0.00314 0.0
H828 H 0.66004 0.22323 0.08792 0.0
H829 H 0.637 0.23522 0.07268 0.0
H830 H 0.61716 0.19589 0.08375 0.0
H831 H 0.71673 0.2218 0.99765 0.0
H832 H 0.71471 0.25536 0.00644 0.0
H833 H 0.73647 0.24242 0.02225 0.0
H834 H 0.71479 0.33145 0.04158 0.0
H835 H 0.77086 0.30317 0.07806 0.0
H836 H 0.6432 0.25629 0.03678 0.0
H837 H 0.66814 0.2635 0.01353 0.0
H838 H 0.66541 0.29532 0.02519 0.0
H839 H 0.70934 0.22124 0.08137 0.0
H840 H 0.75211 0.24965 0.08498 0.0
H841 H 0.73713 0.22847 0.05985 0.0
C842 C 0.56734 0.74321 0.19068 0.0
C843 C 0.60066 0.75465 0.19232 0.0
C844 C 0.55396 0.75969 0.19992 0.0
C845 C 0.57446 0.78863 0.21077 0.0
C846 C 0.60805 0.80027 0.21263 0.0
C847 C 0.62071 0.78303 0.20353 0.0
C848 C 0.51795 0.7464 0.19773 0.0
C849 C 0.6307 0.83121 0.22389 0.0
C850 C 0.54241 0.84366 0.21246 0.0
C851 C 0.52947 0.83861 0.23339 0.0
C852 C 0.55834 0.82853 0.20523 0.0
C853 C 0.56085 0.80738 0.21915 0.0
C854 C 0.54867 0.80288 0.24054 0.0
C855 C 0.53333 0.81883 0.24749 0.0
C856 C 0.57156 0.83444 0.18245 0.0
C857 C 0.55056 0.78019 0.25573 0.0
H858 H 0.5517 0.72159 0.1818 0.0
H859 H 0.64637 0.79179 0.20525 0.0
H860 H 0.50702 0.74464 0.21385 0.0
H861 H 0.51381 0.76252 0.1878 0.0
H862 H 0.50505 0.72265 0.19004 0.0
H863 H 0.65608 0.83659 0.22444 0.0
H864 H 0.63053 0.85075 0.21538 0.0
H865 H 0.62229 0.83069 0.24066 0.0
H866 H 0.53965 0.85917 0.20158 0.0
H867 H 0.52319 0.81479 0.26364 0.0
H868 H 0.55778 0.81248 0.17275 0.0
H869 H 0.59734 0.84107 0.18255 0.0
H870 H 0.56993 0.85346 0.17432 0.0
H871 H 0.53549 0.75576 0.24935 0.0
H872 H 0.5419 0.78093 0.27225 0.0
H873 H 0.57588 0.78563 0.25682 0.0
C874 C 0.87075 0.50619 0.3577 0.0
C875 C 0.89734 0.53741 0.35734 0.0
C876 C 0.84037 0.49913 0.36551 0.0
C877 C 0.83634 0.52392 0.37276 0.0
C878 C 0.86337 0.55526 0.37333 0.0
C879 C 0.89358 0.56155 0.36586 0.0
C880 C 0.81221 0.46531 0.36502 0.0
C881 C 0.86002 0.58242 0.38073 0.0
C882 C 0.75309 0.51225 0.36477 0.0
C883 C 0.74074 0.50629 0.38587 0.0
C884 C 0.78429 0.51834 0.36041 0.0
C885 C 0.80332 0.51767 0.3775 0.0
C886 C 0.79089 0.51142 0.39886 0.0
C887 C 0.75979 0.5062 0.40286 0.0
C888 C 0.79693 0.52567 0.33748 0.0
C889 C 0.81023 0.50982 0.41738 0.0
H890 H 0.87328 0.48737 0.35108 0.0
H891 H 0.91417 0.58562 0.36624 0.0
H892 H 0.79894 0.45899 0.38064 0.0
H893 H 0.79485 0.46251 0.35223 0.0
H894 H 0.82022 0.44843 0.36171 0.0
H895 H 0.88384 0.60499 0.38175 0.0
H896 H 0.84434 0.58555 0.36924 0.0
H897 H 0.8481 0.57731 0.3968 0.0
H898 H 0.73843 0.51253 0.35164 0.0
H899 H 0.7501 0.50133 0.41915 0.0
H900 H 0.80228 0.50771 0.33169 0.0
H901 H 0.81999 0.54896 0.33689 0.0
H902 H 0.77937 0.52612 0.32617 0.0
H903 H 0.8161 0.4914 0.41406 0.0
H904 H 0.79694 0.50434 0.43299 0.0
H905 H 0.83361 0.53263 0.41903 0.0
C906 C 0.05906 0.59009 0.4391 0.0
C907 C 0.07338 0.61096 0.4217 0.0
C908 C 0.07518 0.59618 0.459 0.0
C909 C 0.10637 0.6237 0.46147 0.0
C910 C 0.12044 0.64537 0.44418 0.0
C911 C 0.10378 0.63872 0.4245 0.0
C912 C 0.05938 0.57258 0.47711 0.0
C913 C 0.15374 0.67488 0.4461 0.0
C914 C 0.1419 0.65187 0.51757 0.0
C915 C 0.16287 0.64042 0.51916 0.0
C916 C 0.12303 0.64632 0.49897 0.0
C917 C 0.12522 0.62889 0.48162 0.0
C918 C 0.14608 0.61697 0.48325 0.0
C919 C 0.16467 0.6229 0.50201 0.0
C920 C 0.10114 0.65948 0.49775 0.0
C921 C 0.14905 0.59826 0.46507 0.0
H922 H 0.03552 0.56867 0.43698 0.0
H923 H 0.11527 0.65462 0.41097 0.0
H924 H 0.0738 0.56159 0.48057 0.0
H925 H 0.05893 0.58463 0.49212 0.0
H926 H 0.03414 0.55356 0.47312 0.0
H927 H 0.15998 0.69058 0.43184 0.0
H928 H 0.15518 0.68835 0.46084 0.0
H929 H 0.17228 0.66827 0.44768 0.0
H930 H 0.14043 0.66545 0.53079 0.0
H931 H 0.18082 0.61398 0.50317 0.0
H932 H 0.07579 0.64019 0.49447 0.0
H933 H 0.10883 0.67645 0.48416 0.0
H934 H 0.10151 0.67175 0.51289 0.0
H935 H 0.12486 0.57734 0.46122 0.0
H936 H 0.16585 0.59008 0.46909 0.0
H937 H 0.15807 0.61296 0.45027 0.0
C938 C 0.50152 0.08477 0.61459 0.0
C939 C 0.48978 0.09873 0.60067 0.0
C940 C 0.51684 0.09948 0.63411 0.0
C941 C 0.5209 0.12904 0.63959 0.0
C942 C 0.50843 0.14287 0.62578 0.0
C943 C 0.49288 0.12745 0.60654 0.0
C944 C 0.5295 0.08387 0.64854 0.0
C945 C 0.5126 0.17454 0.6309 0.0
C946 C 0.54076 0.16203 0.69667 0.0
C947 C 0.5742 0.18407 0.69513 0.0
C948 C 0.52325 0.14303 0.67895 0.0
C949 C 0.53955 0.14642 0.65918 0.0
C950 C 0.57352 0.16791 0.65775 0.0
C951 C 0.59047 0.18639 0.67579 0.0
C952 C 0.48713 0.12012 0.68116 0.0
C953 C 0.59174 0.17231 0.63691 0.0
H954 H 0.49911 0.06255 0.61002 0.0
H955 H 0.48439 0.13859 0.59558 0.0
H956 H 0.5564 0.09851 0.64918 0.0
H957 H 0.52041 0.08208 0.66528 0.0
H958 H 0.52223 0.05985 0.64277 0.0
H959 H 0.50049 0.18149 0.61884 0.0
H960 H 0.50252 0.17401 0.64712 0.0
H961 H 0.53883 0.19301 0.63127 0.0
H962 H 0.52809 0.16004 0.71163 0.0
H963 H 0.61632 0.20341 0.67451 0.0
H964 H 0.48061 0.09625 0.67556 0.0
H965 H 0.47388 0.12783 0.67077 0.0
H966 H 0.47862 0.11837 0.69808 0.0
H967 H 0.58726 0.14926 0.63099 0.0
H968 H 0.61834 0.1888 0.63877 0.0
H969 H 0.58283 0.18176 0.6243 0.0
C970 C 0.45616 0.5928 0.74413 0.0
C971 C 0.44511 0.56211 0.73671 0.0
C972 C 0.45608 0.59902 0.76625 0.0
C973 C 0.4445 0.57391 0.78124 0.0
C974 C 0.43274 0.54278 0.77382 0.0
C975 C 0.43333 0.53728 0.75164 0.0
C976 C 0.46886 0.63254 0.7736 0.0
C977 C 0.42016 0.51538 0.78931 0.0
C978 C 0.47155 0.59409 0.83973 0.0
C979 C 0.44509 0.59416 0.84892 0.0
C980 C 0.47168 0.58741 0.81766 0.0
C981 C 0.44451 0.58024 0.8047 0.0
C982 C 0.41746 0.57959 0.81407 0.0
C983 C 0.41819 0.58679 0.83604 0.0
C984 C 0.50105 0.58853 0.80813 0.0
C985 C 0.38779 0.5714 0.80087 0.0
H986 H 0.46519 0.61201 0.73262 0.0
H987 H 0.42551 0.51363 0.74606 0.0
H988 H 0.4497 0.63385 0.78258 0.0
H989 H 0.48953 0.64018 0.78485 0.0
H990 H 0.47713 0.64939 0.75987 0.0
H991 H 0.40932 0.49231 0.78078 0.0
H992 H 0.44034 0.51836 0.7996 0.0
H993 H 0.40156 0.51476 0.8002 0.0
H994 H 0.49238 0.59982 0.84967 0.0
H995 H 0.39753 0.58652 0.84316 0.0
H996 H 0.5118 0.60675 0.79528 0.0
H997 H 0.49381 0.56554 0.80047 0.0
H998 H 0.51998 0.59403 0.82045 0.0
H999 H 0.39453 0.58888 0.78771 0.0
H1000 H 0.36837 0.57098 0.81079 0.0
H1001 H 0.37784 0.5479 0.79316 0.0
C1002 C 0.92844 0.40635 0.91864 0.0
C1003 C 0.93656 0.43141 0.90444 0.0
C1004 C 0.91289 0.40374 0.9384 0.0
C1005 C 0.90569 0.42699 0.94425 0.0
C1006 C 0.91318 0.45196 0.92982 0.0
C1007 C 0.92826 0.45371 0.91003 0.0
C1008 C 0.90485 0.37652 0.95324 0.0
C1009 C 0.906 0.47727 0.93552 0.0
C1010 C 0.84291 0.40899 0.98782 0.0
C1011 C 0.86251 0.4233 0.00604 0.0
C1012 C 0.85662 0.40967 0.96768 0.0
C1013 C 0.89079 0.42551 0.96562 0.0
C1014 C 0.91074 0.44017 0.98393 0.0
C1015 C 0.89632 0.43866 0.004 0.0
C1016 C 0.83453 0.39333 0.94861 0.0
C1017 C 0.9473 0.45764 0.98229 0.0
H1018 H 0.93518 0.38928 0.91466 0.0
H1019 H 0.93396 0.47286 0.89902 0.0
H1020 H 0.91904 0.3856 0.96841 0.0
H1021 H 0.87876 0.3638 0.95773 0.0
H1022 H 0.91026 0.35942 0.94576 0.0
H1023 H 0.91307 0.49494 0.92241 0.0
H1024 H 0.87971 0.46644 0.93888 0.0
H1025 H 0.91928 0.48974 0.95045 0.0
H1026 H 0.81672 0.39687 0.98936 0.0
H1027 H 0.91153 0.4498 0.01804 0.0
H1028 H 0.83921 0.37538 0.94183 0.0
H1029 H 0.83968 0.4107 0.93563 0.0
H1030 H 0.80843 0.3815 0.95303 0.0
H1031 H 0.95503 0.4414 0.97654 0.0
H1032 H 0.95935 0.468 0.998 0.0
H1033 H 0.95596 0.47693 0.97025 0.0
C1034 C 0.54403 0.97825 0.10526 0.0
C1035 C 0.54567 0.00561 0.09772 0.0
C1036 C 0.53772 0.96957 0.12704 0.0
C1037 C 0.53288 0.98871 0.14167 0.0
C1038 C 0.53612 0.01721 0.13442 0.0
C1039 C 0.54237 0.02529 0.11246 0.0
C1040 C 0.53444 0.93894 0.13412 0.0
C1041 C 0.53152 0.03838 0.14962 0.0
C1042 C 0.4771 0.9399 0.1872 0.0
C1043 C 0.49942 0.94343 0.20305 0.0
C1044 C 0.48765 0.95641 0.16765 0.0
C1045 C 0.52133 0.97695 0.16391 0.0
C1046 C 0.54379 0.9826 0.18056 0.0
C1047 C 0.53254 0.96571 0.2 0.0
C1048 C 0.46287 0.94992 0.15036 0.0
C1049 C 0.57984 0.00462 0.17726 0.0
H1050 H 0.54608 0.9627 0.09391 0.0
H1051 H 0.54399 0.04666 0.10673 0.0
H1052 H 0.54998 0.94299 0.1484 0.0
H1053 H 0.50894 0.92191 0.13895 0.0
H1054 H 0.54124 0.928 0.12111 0.0
H1055 H 0.53926 0.06163 0.14221 0.0
H1056 H 0.50549 0.02677 0.1541 0.0
H1057 H 0.54541 0.04235 0.16476 0.0
H1058 H 0.45144 0.92292 0.18957 0.0
H1059 H 0.54988 0.96864 0.21227 0.0
H1060 H 0.46521 0.93625 0.13702 0.0
H1061 H 0.4672 0.97236 0.14343 0.0
H1062 H 0.4376 0.93621 0.15665 0.0
H1063 H 0.5891 0.99312 0.16653 0.0
H1064 H 0.59338 0.01066 0.19277 0.0
H1065 H 0.58506 0.02676 0.16928 0.0
C1066 C 0.67828 0.63517 0.26434 0.0
C1067 C 0.65176 0.63759 0.25828 0.0
C1068 C 0.67666 0.61776 0.28257 0.0
C1069 C 0.64783 0.60253 0.29506 0.0
C1070 C 0.62151 0.6061 0.28958 0.0
C1071 C 0.62371 0.62344 0.27111 0.0
C1072 C 0.70514 0.61426 0.2877 0.0
C1073 C 0.59062 0.59063 0.30274 0.0
C1074 C 0.63103 0.52963 0.32597 0.0
C1075 C 0.64252 0.54216 0.3466 0.0
C1076 C 0.63222 0.54899 0.30909 0.0
C1077 C 0.64469 0.58147 0.31309 0.0
C1078 C 0.6554 0.594 0.33407 0.0
C1079 C 0.65443 0.57422 0.35055 0.0
C1080 C 0.62098 0.5349 0.28682 0.0
C1081 C 0.66855 0.62843 0.33897 0.0
H1082 H 0.69974 0.64553 0.25416 0.0
H1083 H 0.6032 0.62531 0.26637 0.0
H1084 H 0.71107 0.61815 0.30517 0.0
H1085 H 0.69874 0.58985 0.28374 0.0
H1086 H 0.72717 0.63106 0.27834 0.0
H1087 H 0.5736 0.59798 0.29745 0.0
H1088 H 0.57819 0.56457 0.3012 0.0
H1089 H 0.59624 0.59655 0.32011 0.0
H1090 H 0.62191 0.50487 0.32287 0.0
H1091 H 0.66317 0.58394 0.36654 0.0
H1092 H 0.64156 0.5466 0.27527 0.0
H1093 H 0.60187 0.53909 0.28101 0.0
H1094 H 0.61119 0.50908 0.28653 0.0
H1095 H 0.69116 0.64337 0.32961 0.0
H1096 H 0.674 0.63401 0.35642 0.0
H1097 H 0.65083 0.63497 0.33393 0.0
C1098 C 0.43974 0.98471 0.38729 0.0
C1099 C 0.43623 0.96918 0.40689 0.0
C1100 C 0.44518 0.97348 0.36793 0.0
C1101 C 0.44683 0.94587 0.36818 0.0
C1102 C 0.4429 0.92986 0.38791 0.0
C1103 C 0.43792 0.9419 0.40712 0.0
C1104 C 0.4497 0.99147 0.34727 0.0
C1105 C 0.44394 0.90004 0.38873 0.0
C1106 C 0.43022 0.90196 0.31501 0.0
C1107 C 0.46164 0.91129 0.30806 0.0
C1108 C 0.42507 0.91257 0.33474 0.0
C1109 C 0.45204 0.93347 0.34767 0.0
C1110 C 0.48387 0.94303 0.34075 0.0
C1111 C 0.48829 0.93156 0.32107 0.0
C1112 C 0.39074 0.90151 0.34169 0.0
C1113 C 0.51323 0.96568 0.35401 0.0
H1114 H 0.43915 0.00624 0.3872 0.0
H1115 H 0.4353 0.93 0.42232 0.0
H1116 H 0.47431 0.00018 0.34063 0.0
H1117 H 0.43191 0.97566 0.33494 0.0
H1118 H 0.44674 0.01198 0.34977 0.0
H1119 H 0.44002 0.89022 0.40533 0.0
H1120 H 0.42503 0.88185 0.37794 0.0
H1121 H 0.46777 0.90486 0.38277 0.0
H1122 H 0.40951 0.88606 0.30507 0.0
H1123 H 0.51259 0.93882 0.3157 0.0
H1124 H 0.3876 0.92202 0.34308 0.0
H1125 H 0.38587 0.89035 0.35787 0.0
H1126 H 0.37237 0.88425 0.33016 0.0
H1127 H 0.51412 0.98831 0.35609 0.0
H1128 H 0.5363 0.97067 0.34642 0.0
H1129 H 0.51145 0.95585 0.37037 0.0
C1130 C 0.5207 0.49615 0.52897 0.0
C1131 C 0.51934 0.52307 0.53369 0.0
C1132 C 0.53704 0.49494 0.51065 0.0
C1133 C 0.55261 0.52137 0.49673 0.0
C1134 C 0.55091 0.54845 0.50115 0.0
C1135 C 0.53431 0.54901 0.51965 0.0
C1136 C 0.53841 0.46565 0.50656 0.0
C1137 C 0.56713 0.57698 0.48657 0.0
C1138 C 0.62014 0.52552 0.46277 0.0
C1139 C 0.60378 0.5116 0.44343 0.0
C1140 C 0.6041 0.53005 0.48004 0.0
C1141 C 0.57105 0.52056 0.47778 0.0
C1142 C 0.55487 0.50775 0.45795 0.0
C1143 C 0.57143 0.50335 0.44102 0.0
C1144 C 0.6221 0.54373 0.501 0.0
C1145 C 0.51965 0.49739 0.45494 0.0
H1146 H 0.50991 0.47634 0.54004 0.0
H1147 H 0.53331 0.56984 0.52327 0.0
H1148 H 0.53028 0.45682 0.48988 0.0
H1149 H 0.56383 0.47148 0.50809 0.0
H1150 H 0.52305 0.44635 0.51807 0.0
H1151 H 0.56253 0.59569 0.49184 0.0
H1152 H 0.59373 0.58703 0.48637 0.0
H1153 H 0.55832 0.57 0.46974 0.0
H1154 H 0.64518 0.53198 0.46468 0.0
H1155 H 0.55873 0.49275 0.42602 0.0
H1156 H 0.61138 0.52548 0.51383 0.0
H1157 H 0.6196 0.5637 0.50631 0.0
H1158 H 0.64835 0.55223 0.49957 0.0
H1159 H 0.5042 0.47681 0.4655 0.0
H1160 H 0.5115 0.49056 0.43795 0.0
H1161 H 0.51561 0.51658 0.45979 0.0
C1162 C 0.06047 0.52218 0.70236 0.0
C1163 C 0.07578 0.50946 0.71405 0.0
C1164 C 0.07523 0.5409 0.68399 0.0
C1165 C 0.10614 0.54725 0.67731 0.0
C1166 C 0.12145 0.53406 0.68889 0.0
C1167 C 0.10606 0.51529 0.70707 0.0
C1168 C 0.05806 0.55434 0.67195 0.0
C1169 C 0.1545 0.54042 0.68239 0.0
C1170 C 0.13731 0.57468 0.62033 0.0
C1171 C 0.15917 0.60714 0.62346 0.0
C1172 C 0.11908 0.55506 0.63759 0.0
C1173 C 0.12293 0.56819 0.6585 0.0
C1174 C 0.14425 0.60111 0.66163 0.0
C1175 C 0.16208 0.62023 0.64405 0.0
C1176 C 0.09648 0.52012 0.63357 0.0
C1177 C 0.14904 0.61597 0.68371 0.0
H1178 H 0.03703 0.51765 0.7077 0.0
H1179 H 0.1183 0.50605 0.71632 0.0
H1180 H 0.07273 0.58053 0.67266 0.0
H1181 H 0.05544 0.54748 0.65464 0.0
H1182 H 0.03358 0.54616 0.6787 0.0
H1183 H 0.16279 0.5279 0.69288 0.0
H1184 H 0.15396 0.53293 0.66541 0.0
H1185 H 0.17263 0.56615 0.68329 0.0
H1186 H 0.13488 0.56444 0.60443 0.0
H1187 H 0.17895 0.64529 0.64655 0.0
H1188 H 0.07186 0.51221 0.63986 0.0
H1189 H 0.10537 0.50668 0.64236 0.0
H1190 H 0.09454 0.51399 0.61613 0.0
H1191 H 0.1253 0.60993 0.69068 0.0
H1192 H 0.16517 0.64211 0.68323 0.0
H1193 H 0.15986 0.60643 0.69477 0.0
C1194 C 0.60091 0.13981 0.8937 0.0
C1195 C 0.57403 0.13226 0.90682 0.0
C1196 C 0.60675 0.15676 0.87445 0.0
C1197 C 0.58459 0.16548 0.86771 0.0
C1198 C 0.55789 0.15872 0.88103 0.0
C1199 C 0.55326 0.1427 0.90061 0.0
C1200 C 0.63604 0.16432 0.86095 0.0
C1201 C 0.53341 0.16716 0.87417 0.0
C1202 C 0.61059 0.22665 0.82332 0.0
C1203 C 0.59891 0.20743 0.80488 0.0
C1204 C 0.60602 0.21335 0.84395 0.0
C1205 C 0.58848 0.18007 0.84615 0.0
C1206 C 0.57568 0.16058 0.82759 0.0
C1207 C 0.58155 0.17454 0.8071 0.0
C1208 C 0.62092 0.23485 0.86329 0.0
C1209 C 0.55609 0.125 0.82935 0.0
H1210 H 0.61688 0.13148 0.89795 0.0
H1211 H 0.53286 0.13774 0.91078 0.0
H1212 H 0.62805 0.15016 0.84584 0.0
H1213 H 0.64962 0.18961 0.85626 0.0
H1214 H 0.65283 0.15914 0.86962 0.0
H1215 H 0.51464 0.16131 0.88674 0.0
H1216 H 0.54574 0.19273 0.87048 0.0
H1217 H 0.52111 0.15413 0.85914 0.0
H1218 H 0.62429 0.25213 0.82153 0.0
H1219 H 0.57237 0.15973 0.79281 0.0
H1220 H 0.63907 0.23063 0.8709 0.0
H1221 H 0.60206 0.22957 0.87562 0.0
H1222 H 0.63311 0.26023 0.85888 0.0
H1223 H 0.57162 0.11645 0.8356 0.0
H1224 H 0.54582 0.11335 0.81355 0.0
H1225 H 0.53585 0.11749 0.84101 0.0
C1226 C 0.57421 0.69152 0.0531 0.0
C1227 C 0.60363 0.6932 0.05677 0.0
C1228 C 0.55888 0.68217 0.0329 0.0
C1229 C 0.57304 0.67373 0.01618 0.0
C1230 C 0.60329 0.67636 0.01962 0.0
C1231 C 0.61828 0.68618 0.03989 0.0
C1232 C 0.52703 0.68043 0.02965 0.0
C1233 C 0.61906 0.6672 0.00241 0.0
C1234 C 0.51193 0.61733 0.97502 0.0
C1235 C 0.51595 0.63806 0.95833 0.0
C1236 C 0.53165 0.62838 0.9935 0.0
C1237 C 0.55538 0.66099 0.99546 0.0
C1238 C 0.56057 0.68169 0.97818 0.0
C1239 C 0.54098 0.6699 0.95971 0.0
C1240 C 0.52615 0.60543 0.01134 0.0
C1241 C 0.58566 0.71658 0.97967 0.0
H1242 H 0.56294 0.69696 0.06618 0.0
H1243 H 0.64076 0.6869 0.04284 0.0
H1244 H 0.5283 0.69391 0.01503 0.0
H1245 H 0.50732 0.65551 0.02702 0.0
H1246 H 0.52047 0.68991 0.04373 0.0
H1247 H 0.64527 0.67727 0.00574 0.0
H1248 H 0.60684 0.64107 0.00193 0.0
H1249 H 0.6166 0.67511 0.98617 0.0
H1250 H 0.49272 0.59268 0.97394 0.0
H1251 H 0.54415 0.68606 0.94686 0.0
H1252 H 0.51628 0.61081 0.02582 0.0
H1253 H 0.54951 0.60793 0.01608 0.0
H1254 H 0.5089 0.58052 0.00651 0.0
H1255 H 0.57878 0.72739 0.9927 0.0
H1256 H 0.58809 0.72915 0.9643 0.0
H1257 H 0.6097 0.72031 0.98396 0.0
C1258 C 0.91789 0.46489 0.22567 0.0
C1259 C 0.9347 0.49784 0.22831 0.0
C1260 C 0.9024 0.45065 0.20609 0.0
C1261 C 0.90331 0.46975 0.18887 0.0
C1262 C 0.91962 0.50292 0.19156 0.0
C1263 C 0.93533 0.51656 0.21115 0.0
C1264 C 0.88541 0.41521 0.20374 0.0
C1265 C 0.92082 0.52409 0.17364 0.0
C1266 C 0.89022 0.44156 0.13054 0.0
C1267 C 0.85806 0.4333 0.12709 0.0
C1268 C 0.90492 0.45234 0.15086 0.0
C1269 C 0.88711 0.45523 0.16798 0.0
C1270 C 0.85435 0.44603 0.16473 0.0
C1271 C 0.84017 0.435 0.14436 0.0
C1272 C 0.93981 0.46155 0.15383 0.0
C1273 C 0.83466 0.44908 0.1825 0.0
H1274 H 0.91694 0.45019 0.23889 0.0
H1275 H 0.94883 0.54206 0.21279 0.0
H1276 H 0.8594 0.40511 0.19987 0.0
H1277 H 0.89623 0.40922 0.19012 0.0
H1278 H 0.88711 0.40372 0.21863 0.0
H1279 H 0.93358 0.54932 0.17859 0.0
H1280 H 0.93345 0.52193 0.15936 0.0
H1281 H 0.89582 0.51665 0.1685 0.0
H1282 H 0.9041 0.44019 0.11725 0.0
H1283 H 0.81529 0.42869 0.14179 0.0
H1284 H 0.94206 0.44951 0.16818 0.0
H1285 H 0.95521 0.48736 0.15677 0.0
H1286 H 0.94943 0.45555 0.13948 0.0
H1287 H 0.83518 0.4368 0.19729 0.0
H1288 H 0.80894 0.43918 0.17774 0.0
H1289 H 0.84548 0.47437 0.18673 0.0
loop_
_geom_bond_atom_site_label_1
_geom_bond_atom_site_label_2
_geom_bond_distance
_geom_bond_site_symmetry_2
_ccdc_geom_bond_type
H0 O26 0.856 . S
H1 O29 0.854 . S
H2 C37 0.930 . S
H3 C38 0.930 . S
H4 C40 0.930 . S
H5 C41 0.930 . S
H6 C43 0.931 . S
H7 C44 0.930 . S
H8 C46 0.930 . S
H9 C47 0.929 . S
H10 C49 0.930 . S
H11 C50 0.931 . S
H12 C52 0.930 . S
H13 C53 0.929 . S
H14 C55 0.931 . S
H15 C56 0.930 . S
H16 C58 0.930 . S
H17 C59 0.932 . S
H18 C61 0.930 . S
H19 C62 0.929 . S
H20 C64 0.931 . S
H21 C65 0.930 . S
H22 C67 0.929 . S
H23 C68 0.931 . S
H24 C70 0.930 . S
H25 C71 0.929 1_455 S
O26 H0 0.856 . S
O26 C72 1.300 . S
O27 C72 1.209 . S
O28 C73 1.199 . S
O29 H1 0.854 . S
O29 C73 1.297 . S
C30 C31 1.404 . S
C30 C35 1.397 . S
C30 C36 1.492 . S
C31 C30 1.404 . S
C31 C32 1.396 . S
C31 C42 1.492 . S
C32 C31 1.396 . S
C32 C33 1.397 . S
C32 C48 1.509 . S
C33 C32 1.397 . S
C33 C34 1.412 . S
C33 C54 1.485 . S
C34 C33 1.412 . S
C34 C35 1.388 . S
C34 C60 1.490 . S
C35 C30 1.397 . S
C35 C34 1.388 . S
C35 C66 1.519 . S
C36 C30 1.492 . S
C36 C37 1.363 . S
C36 C41 1.390 1_455 S
C37 H2 0.930 . S
C37 C36 1.363 . S
C37 C38 1.372 1_455 S
C38 H3 0.930 . S
C38 C37 1.372 1_655 S
C38 C39 1.383 . S
C39 C38 1.383 . S
C39 C40 1.395 . S
C40 H4 0.930 . S
C40 C39 1.395 . S
C40 C41 1.362 . S
C41 H5 0.930 . S
C41 C36 1.390 1_655 S
C41 C40 1.362 . S
C42 C31 1.492 . S
C42 C43 1.377 . S
C42 C47 1.397 . S
C43 H6 0.931 . S
C43 C42 1.377 . S
C43 C44 1.376 . S
C44 H7 0.930 . S
C44 C43 1.376 . S
C44 C45 1.376 . S
C45 C44 1.376 . S
C45 C46 1.378 . S
C45 C72 1.486 . S
C46 H8 0.930 . S
C46 C45 1.378 . S
C46 C47 1.376 . S
C47 H9 0.929 . S
C47 C42 1.397 . S
C47 C46 1.376 . S
C48 C32 1.509 . S
C48 C49 1.391 . S
C48 C53 1.386 . S
C49 H10 0.930 . S
C49 C48 1.391 . S
C49 C50 1.375 . S
C50 H11 0.931 . S
C50 C49 1.375 . S
C50 C51 1.375 . S
C51 C50 1.375 . S
C51 C52 1.361 . S
C52 H12 0.930 . S
C52 C51 1.361 . S
C52 C53 1.399 . S
C53 H13 0.929 . S
C53 C48 1.386 . S
C53 C52 1.399 . S
C54 C33 1.485 . S
C54 C55 1.394 . S
C54 C59 1.360 . S
C55 H14 0.931 . S
C55 C54 1.394 . S
C55 C56 1.372 . S
C56 H15 0.930 . S
C56 C55 1.372 . S
C56 C57 1.397 . S
C57 C56 1.397 . S
C57 C58 1.390 . S
C57 C73 1.476 . S
C58 H16 0.930 . S
C58 C57 1.390 . S
C58 C59 1.366 . S
C59 H17 0.932 . S
C59 C54 1.360 . S
C59 C58 1.366 . S
C60 C34 1.490 . S
C60 C61 1.380 . S
C60 C65 1.386 . S
C61 H18 0.930 . S
C61 C60 1.380 . S
C61 C62 1.381 . S
C62 H19 0.929 . S
C62 C61 1.381 . S
C62 C63 1.371 . S
C63 C62 1.371 . S
C63 C64 1.380 . S
C64 H20 0.931 . S
C64 C63 1.380 . S
C64 C65 1.387 . S
C65 H21 0.930 . S
C65 C60 1.386 . S
C65 C64 1.387 . S
C66 C35 1.519 . S
C66 C67 1.377 1_455 S
C66 C71 1.361 1_455 S
C67 H22 0.929 . S
C67 C66 1.377 1_655 S
C67 C68 1.386 . S
C68 H23 0.931 . S
C68 C67 1.386 . S
C68 C69 1.363 . S
C69 C68 1.363 . S
C69 C70 1.385 . S
C70 H24 0.930 . S
C70 C69 1.385 . S
C70 C71 1.396 . S
C71 H25 0.929 1_655 S
C71 C66 1.361 1_655 S
C71 C70 1.396 . S
C72 O26 1.300 . S
C72 O27 1.209 . S
C72 C45 1.486 . S
C73 O28 1.199 . S
C73 O29 1.297 . S
C73 C57 1.476 . S
H74 O100 0.856 . S
H75 O103 0.854 . S
H76 C111 0.930 . S
H77 C112 0.930 . S
H78 C114 0.930 . S
H79 C115 0.930 . S
H80 C117 0.931 . S
H81 C118 0.930 . S
H82 C120 0.930 . S
H83 C121 0.929 . S
H84 C123 0.930 . S
H85 C124 0.931 . S
H86 C126 0.930 . S
H87 C127 0.929 . S
H88 C129 0.931 . S
H89 C130 0.930 . S
H90 C132 0.930 . S
H91 C133 0.932 . S
H92 C135 0.930 . S
H93 C136 0.929 . S
H94 C138 0.931 . S
H95 C139 0.930 . S
H96 C141 0.929 . S
H97 C142 0.931 . S
H98 C144 0.930 . S
H99 C145 0.929 . S
O100 H74 0.856 . S
O100 C146 1.300 . S
O101 C146 1.209 . S
O102 C147 1.199 . S
O103 H75 0.854 . S
O103 C147 1.297 . S
C104 C105 1.404 . S
C104 C109 1.397 . S
C104 C110 1.492 . S
C105 C104 1.404 . S
C105 C106 1.396 . S
C105 C116 1.492 . S
C106 C105 1.396 . S
C106 C107 1.397 . S
C106 C122 1.509 . S
C107 C106 1.397 . S
C107 C108 1.412 . S
C107 C128 1.485 . S
C108 C107 1.412 . S
C108 C109 1.388 . S
C108 C134 1.490 . S
C109 C104 1.397 . S
C109 C108 1.388 . S
C109 C140 1.519 . S
C110 C104 1.492 . S
C110 C111 1.363 . S
C110 C115 1.390 . S
C111 H76 0.930 . S
C111 C110 1.363 . S
C111 C112 1.372 . S
C112 H77 0.930 . S
C112 C111 1.372 . S
C112 C113 1.383 1_545 S
C113 C112 1.383 1_565 S
C113 C114 1.395 . S
C114 H78 0.930 . S
C114 C113 1.395 . S
C114 C115 1.362 1_565 S
C115 H79 0.930 . S
C115 C110 1.390 . S
C115 C114 1.362 1_545 S
C116 C105 1.492 . S
C116 C117 1.377 . S
C116 C121 1.397 . S
C117 H80 0.931 . S
C117 C116 1.377 . S
C117 C118 1.376 . S
C118 H81 0.930 . S
C118 C117 1.376 . S
C118 C119 1.376 . S
C119 C118 1.376 . S
C119 C120 1.378 . S
C119 C146 1.486 . S
C120 H82 0.930 . S
C120 C119 1.378 . S
C120 C121 1.376 . S
C121 H83 0.929 . S
C121 C116 1.397 . S
C121 C120 1.376 . S
C122 C106 1.509 . S
C122 C123 1.391 . S
C122 C127 1.386 . S
C123 H84 0.930 . S
C123 C122 1.391 . S
C123 C124 1.375 . S
C124 H85 0.931 . S
C124 C123 1.375 . S
C124 C125 1.375 . S
C125 C124 1.375 . S
C125 C126 1.361 . S
C126 H86 0.930 . S
C126 C125 1.361 . S
C126 C127 1.399 . S
C127 H87 0.929 . S
C127 C122 1.386 . S
C127 C126 1.399 . S
C128 C107 1.485 . S
C128 C129 1.394 . S
C128 C133 1.360 . S
C129 H88 0.931 . S
C129 C128 1.394 . S
C129 C130 1.372 . S
C130 H89 0.930 . S
C130 C129 1.372 . S
C130 C131 1.397 . S
C131 C130 1.397 . S
C131 C132 1.390 . S
C131 C147 1.476 . S
C132 H90 0.930 . S
C132 C131 1.390 . S
C132 C133 1.366 . S
C133 H91 0.932 . S
C133 C128 1.360 . S
C133 C132 1.366 . S
C134 C108 1.490 . S
C134 C135 1.380 . S
C134 C139 1.386 . S
C135 H92 0.930 . S
C135 C134 1.380 . S
C135 C136 1.381 . S
C136 H93 0.929 . S
C136 C135 1.381 . S
C136 C137 1.371 . S
C137 C136 1.371 . S
C137 C138 1.380 . S
C138 H94 0.931 . S
C138 C137 1.380 . S
C138 C139 1.387 . S
C139 H95 0.930 . S
C139 C134 1.386 . S
C139 C138 1.387 . S
C140 C109 1.519 . S
C140 C141 1.377 . S
C140 C145 1.361 . S
C141 H96 0.929 . S
C141 C140 1.377 . S
C141 C142 1.386 1_545 S
C142 H97 0.931 . S
C142 C141 1.386 1_565 S
C142 C143 1.363 . S
C143 C142 1.363 . S
C143 C144 1.385 . S
C144 H98 0.930 . S
C144 C143 1.385 . S
C144 C145 1.396 1_565 S
C145 H99 0.929 . S
C145 C140 1.361 . S
C145 C144 1.396 1_545 S
C146 O100 1.300 . S
C146 O101 1.209 . S
C146 C119 1.486 . S
C147 O102 1.199 . S
C147 O103 1.297 . S
C147 C131 1.476 . S
H148 O174 0.856 . S
H149 O177 0.854 . S
H150 C185 0.930 . S
H151 C186 0.930 . S
H152 C188 0.930 . S
H153 C189 0.930 . S
H154 C191 0.931 . S
H155 C192 0.930 . S
H156 C194 0.930 . S
H157 C195 0.929 . S
H158 C197 0.930 . S
H159 C198 0.931 . S
H160 C200 0.930 . S
H161 C201 0.929 . S
H162 C203 0.931 . S
H163 C204 0.930 . S
H164 C206 0.930 . S
H165 C207 0.932 . S
H166 C209 0.930 . S
H167 C210 0.929 . S
H168 C212 0.931 . S
H169 C213 0.930 . S
H170 C215 0.929 . S
H171 C216 0.931 . S
H172 C218 0.930 . S
H173 C219 0.929 . S
O174 H148 0.856 . S
O174 C220 1.300 . S
O175 C220 1.209 . S
O176 C221 1.199 . S
O177 H149 0.854 . S
O177 C221 1.297 . S
C178 C179 1.404 . S
C178 C183 1.397 . S
C178 C184 1.492 . S
C179 C178 1.404 . S
C179 C180 1.396 . S
C179 C190 1.492 . S
C180 C179 1.396 . S
C180 C181 1.397 . S
C180 C196 1.509 . S
C181 C180 1.397 . S
C181 C182 1.412 . S
C181 C202 1.485 . S
C182 C181 1.412 . S
C182 C183 1.388 . S
C182 C208 1.490 . S
C183 C178 1.397 . S
C183 C182 1.388 . S
C183 C214 1.519 . S
C184 C178 1.492 . S
C184 C185 1.363 . S
C184 C189 1.390 . S
C185 H150 0.930 . S
C185 C184 1.363 . S
C185 C186 1.372 . S
C186 H151 0.930 . S
C186 C185 1.372 . S
C186 C187 1.383 . S
C187 C186 1.383 . S
C187 C188 1.395 . S
C188 H152 0.930 . S
C188 C187 1.395 . S
C188 C189 1.362 . S
C189 H153 0.930 . S
C189 C184 1.390 . S
C189 C188 1.362 . S
C190 C179 1.492 . S
C190 C191 1.377 . S
C190 C195 1.397 . S
C191 H154 0.931 . S
C191 C190 1.377 . S
C191 C192 1.376 . S
C192 H155 0.930 . S
C192 C191 1.376 . S
C192 C193 1.376 . S
C193 C192 1.376 . S
C193 C194 1.378 . S
C193 C220 1.486 . S
C194 H156 0.930 . S
C194 C193 1.378 . S
C194 C195 1.376 . S
C195 H157 0.929 . S
C195 C190 1.397 . S
C195 C194 1.376 . S
C196 C180 1.509 . S
C196 C197 1.391 . S
C196 C201 1.386 . S
C197 H158 0.930 . S
C197 C196 1.391 . S
C197 C198 1.375 . S
C198 H159 0.931 . S
C198 C197 1.375 . S
C198 C199 1.375 . S
C199 C198 1.375 . S
C199 C200 1.361 . S
C200 H160 0.930 . S
C200 C199 1.361 . S
C200 C201 1.399 . S
C201 H161 0.929 . S
C201 C196 1.386 . S
C201 C200 1.399 . S
C202 C181 1.485 . S
C202 C203 1.394 . S
C202 C207 1.360 . S
C203 H162 0.931 . S
C203 C202 1.394 . S
C203 C204 1.372 . S
C204 H163 0.930 . S
C204 C203 1.372 . S
C204 C205 1.397 . S
C205 C204 1.397 . S
C205 C206 1.390 . S
C205 C221 1.476 . S
C206 H164 0.930 . S
C206 C205 1.390 . S
C206 C207 1.366 . S
C207 H165 0.932 . S
C207 C202 1.360 . S
C207 C206 1.366 . S
C208 C182 1.490 . S
C208 C209 1.380 . S
C208 C213 1.386 . S
C209 H166 0.930 . S
C209 C208 1.380 . S
C209 C210 1.381 . S
C210 H167 0.929 . S
C210 C209 1.381 . S
C210 C211 1.371 . S
C211 C210 1.371 . S
C211 C212 1.380 . S
C212 H168 0.931 . S
C212 C211 1.380 . S
C212 C213 1.387 . S
C213 H169 0.930 . S
C213 C208 1.386 . S
C213 C212 1.387 . S
C214 C183 1.519 . S
C214 C215 1.377 . S
C214 C219 1.361 . S
C215 H170 0.929 . S
C215 C214 1.377 . S
C215 C216 1.386 . S
C216 H171 0.931 . S
C216 C215 1.386 . S
C216 C217 1.363 . S
C217 C216 1.363 . S
C217 C218 1.385 . S
C218 H172 0.930 . S
C218 C217 1.385 . S
C218 C219 1.396 . S
C219 H173 0.929 . S
C219 C214 1.361 . S
C219 C218 1.396 . S
C220 O174 1.300 . S
C220 O175 1.209 . S
C220 C193 1.486 . S
C221 O176 1.199 . S
C221 O177 1.297 . S
C221 C205 1.476 . S
H222 O248 0.856 . S
H223 O251 0.854 . S
H224 C259 0.926 1_455 S
H225 C260 0.930 . S
H226 C262 0.930 . S
H227 C263 0.930 . S
H228 C265 0.931 . S
H229 C266 0.930 . S
H230 C268 0.930 . S
H231 C269 0.929 . S
H232 C271 0.930 . S
H233 C272 0.931 . S
H234 C274 0.930 . S
H235 C275 0.929 . S
H236 C277 0.931 . S
H237 C278 0.930 . S
H238 C280 0.930 . S
H239 C281 0.932 . S
H240 C283 0.930 . S
H241 C284 0.929 . S
H242 C286 0.931 . S
H243 C287 0.930 . S
H244 C289 0.929 . S
H245 C290 0.931 . S
H246 C292 0.930 . S
H247 C293 0.929 . S
O248 H222 0.856 . S
O248 C294 1.300 . S
O249 C294 1.209 . S
O250 C295 1.199 . S
O251 H223 0.854 . S
O251 C295 1.297 . S
C252 C253 1.404 . S
C252 C257 1.397 . S
C252 C258 1.492 . S
C253 C252 1.404 . S
C253 C254 1.396 . S
C253 C264 1.492 . S
C254 C253 1.396 . S
C254 C255 1.397 . S
C254 C270 1.509 . S
C255 C254 1.397 . S
C255 C256 1.412 . S
C255 C276 1.485 . S
C256 C255 1.412 . S
C256 C257 1.388 . S
C256 C282 1.490 . S
C257 C252 1.397 . S
C257 C256 1.388 . S
C257 C288 1.519 1_455 S
C258 C252 1.492 . S
C258 C259 1.350 1_455 S
C258 C263 1.390 1_455 S
C259 H224 0.926 1_655 S
C259 C258 1.350 1_655 S
C259 C260 1.390 . S
C260 H225 0.930 . S
C260 C259 1.390 . S
C260 C261 1.383 . S
C261 C260 1.383 . S
C261 C262 1.395 . S
C262 H226 0.930 . S
C262 C261 1.395 . S
C262 C263 1.362 . S
C263 H227 0.930 . S
C263 C258 1.390 1_655 S
C263 C262 1.362 . S
C264 C253 1.492 . S
C264 C265 1.377 . S
C264 C269 1.397 . S
C265 H228 0.931 . S
C265 C264 1.377 . S
C265 C266 1.376 . S
C266 H229 0.930 . S
C266 C265 1.376 . S
C266 C267 1.376 . S
C267 C266 1.376 . S
C267 C268 1.378 . S
C267 C294 1.486 . S
C268 H230 0.930 . S
C268 C267 1.378 . S
C268 C269 1.376 . S
C269 H231 0.929 . S
C269 C264 1.397 . S
C269 C268 1.376 . S
C270 C254 1.509 . S
C270 C271 1.391 . S
C270 C275 1.386 . S
C271 H232 0.930 . S
C271 C270 1.391 . S
C271 C272 1.375 . S
C272 H233 0.931 . S
C272 C271 1.375 . S
C272 C273 1.375 . S
C273 C272 1.375 . S
C273 C274 1.361 . S
C274 H234 0.930 . S
C274 C273 1.361 . S
C274 C275 1.399 . S
C275 H235 0.929 . S
C275 C270 1.386 . S
C275 C274 1.399 . S
C276 C255 1.485 . S
C276 C277 1.394 . S
C276 C281 1.360 . S
C277 H236 0.931 . S
C277 C276 1.394 . S
C277 C278 1.372 . S
C278 H237 0.930 . S
C278 C277 1.372 . S
C278 C279 1.397 . S
C279 C278 1.397 . S
C279 C280 1.390 . S
C279 C295 1.476 . S
C280 H238 0.930 . S
C280 C279 1.390 . S
C280 C281 1.366 . S
C281 H239 0.932 . S
C281 C276 1.360 . S
C281 C280 1.366 . S
C282 C256 1.490 . S
C282 C283 1.380 . S
C282 C287 1.386 . S
C283 H240 0.930 . S
C283 C282 1.380 . S
C283 C284 1.381 . S
C284 H241 0.929 . S
C284 C283 1.381 . S
C284 C285 1.371 . S
C285 C284 1.371 . S
C285 C286 1.380 . S
C286 H242 0.931 . S
C286 C285 1.380 . S
C286 C287 1.387 . S
C287 H243 0.930 . S
C287 C282 1.386 . S
C287 C286 1.387 . S
C288 C257 1.519 1_655 S
C288 C289 1.377 . S
C288 C293 1.361 . S
C289 H244 0.929 . S
C289 C288 1.377 . S
C289 C290 1.386 . S
C290 H245 0.931 . S
C290 C289 1.386 . S
C290 C291 1.363 . S
C291 C290 1.363 . S
C291 C292 1.385 . S
C292 H246 0.930 . S
C292 C291 1.385 . S
C292 C293 1.396 . S
C293 H247 0.929 . S
C293 C288 1.361 . S
C293 C292 1.396 . S
C294 O248 1.300 . S
C294 O249 1.209 . S
C294 C267 1.486 . S
C295 O250 1.199 . S
C295 O251 1.297 . S
C295 C279 1.476 . S
H296 O322 0.856 . S
H297 O325 0.854 . S
H298 C333 0.930 . S
H299 C334 0.930 . S
H300 C336 0.930 . S
H301 C337 0.930 . S
H302 C339 0.931 . S
H303 C340 0.930 . S
H304 C342 0.930 . S
H305 C343 0.929 . S
H306 C345 0.930 . S
H307 C346 0.931 . S
H308 C348 0.930 . S
H309 C349 0.929 . S
H310 C351 0.931 . S
H311 C352 0.930 . S
H312 C354 0.930 . S
H313 C355 0.932 . S
H314 C357 0.930 . S
H315 C358 0.929 . S
H316 C360 0.931 . S
H317 C361 0.930 . S
H318 C363 0.940 . S
H319 C364 0.931 . S
H320 C366 0.930 . S
H321 C367 0.929 . S
O322 H296 0.856 . S
O322 C368 1.300 . S
O323 C368 1.209 1_545 S
O324 C369 1.199 . S
O325 H297 0.854 . S
O325 C369 1.297 . S
C326 C327 1.404 . S
C326 C331 1.397 . S
C326 C332 1.492 . S
C327 C326 1.404 . S
C327 C328 1.396 1_545 S
C327 C338 1.494 . S
C328 C327 1.396 1_565 S
C328 C329 1.397 . S
C328 C344 1.509 . S
C329 C328 1.397 . S
C329 C330 1.412 1_566 S
C329 C350 1.485 1_556 S
C330 C329 1.412 1_544 S
C330 C331 1.388 1_554 S
C330 C356 1.490 . S
C331 C326 1.397 . S
C331 C330 1.388 1_556 S
C331 C362 1.502 1_556 S
C332 C326 1.492 . S
C332 C333 1.363 . S
C332 C337 1.390 . S
C333 H298 0.930 . S
C333 C332 1.363 . S
C333 C334 1.372 . S
C334 H299 0.930 . S
C334 C333 1.372 . S
C334 C335 1.383 . S
C335 C334 1.383 . S
C335 C336 1.395 . S
C336 H300 0.930 . S
C336 C335 1.395 . S
C336 C337 1.362 . S
C337 H301 0.930 . S
C337 C332 1.390 . S
C337 C336 1.362 . S
C338 C327 1.494 . S
C338 C339 1.376 1_545 S
C338 C343 1.397 . S
C339 H302 0.931 . S
C339 C338 1.376 1_565 S
C339 C340 1.376 . S
C340 H303 0.930 . S
C340 C339 1.376 . S
C340 C341 1.376 . S
C341 C340 1.376 . S
C341 C342 1.378 1_565 S
C341 C368 1.486 . S
C342 H304 0.930 . S
C342 C341 1.378 1_545 S
C342 C343 1.376 . S
C343 H305 0.929 . S
C343 C338 1.397 . S
C343 C342 1.376 . S
C344 C328 1.509 . S
C344 C345 1.391 . S
C344 C349 1.386 . S
C345 H306 0.930 . S
C345 C344 1.391 . S
C345 C346 1.375 . S
C346 H307 0.931 . S
C346 C345 1.375 . S
C346 C347 1.375 . S
C347 C346 1.375 . S
C347 C348 1.361 . S
C348 H308 0.930 . S
C348 C347 1.361 . S
C348 C349 1.399 . S
C349 H309 0.929 . S
C349 C344 1.386 . S
C349 C348 1.399 . S
C350 C329 1.485 1_554 S
C350 C351 1.394 . S
C350 C355 1.360 . S
C351 H310 0.931 . S
C351 C350 1.394 . S
C351 C352 1.372 . S
C352 H311 0.930 . S
C352 C351 1.372 . S
C352 C353 1.397 . S
C353 C352 1.397 . S
C353 C354 1.390 . S
C353 C369 1.476 . S
C354 H312 0.930 . S
C354 C353 1.390 . S
C354 C355 1.366 . S
C355 H313 0.932 . S
C355 C350 1.360 . S
C355 C354 1.366 . S
C356 C330 1.490 . S
C356 C357 1.380 . S
C356 C361 1.386 . S
C357 H314 0.930 . S
C357 C356 1.380 . S
C357 C358 1.381 . S
C358 H315 0.929 . S
C358 C357 1.381 . S
C358 C359 1.371 . S
C359 C358 1.371 . S
C359 C360 1.380 . S
C360 H316 0.931 . S
C360 C359 1.380 . S
C360 C361 1.387 . S
C361 H317 0.930 . S
C361 C356 1.386 . S
C361 C360 1.387 . S
C362 C331 1.502 1_554 S
C362 C363 1.374 1_554 S
C362 C367 1.382 . S
C363 H318 0.940 . S
C363 C362 1.374 1_556 S
C363 C364 1.377 1_556 S
C364 H319 0.931 . S
C364 C363 1.377 1_554 S
C364 C365 1.363 . S
C365 C364 1.363 . S
C365 C366 1.385 . S
C366 H320 0.930 . S
C366 C365 1.385 . S
C366 C367 1.396 . S
C367 H321 0.929 . S
C367 C362 1.382 . S
C367 C366 1.396 . S
C368 O322 1.300 . S
C368 O323 1.209 1_565 S
C368 C341 1.486 . S
C369 O324 1.199 . S
C369 O325 1.297 . S
C369 C353 1.476 . S
H370 O396 0.856 . S
H371 O399 0.854 . S
H372 C407 0.930 . S
H373 C408 0.930 . S
H374 C410 0.930 . S
H375 C411 0.930 . S
H376 C413 0.931 . S
H377 C414 0.930 . S
H378 C416 0.930 . S
H379 C417 0.929 . S
H380 C419 0.930 . S
H381 C420 0.931 . S
H382 C422 0.930 . S
H383 C423 0.929 . S
H384 C425 0.931 . S
H385 C426 0.930 . S
H386 C428 0.930 . S
H387 C429 0.932 . S
H388 C431 0.930 . S
H389 C432 0.929 . S
H390 C434 0.931 . S
H391 C435 0.930 . S
H392 C437 0.929 . S
H393 C438 0.931 . S
H394 C440 0.930 . S
H395 C441 0.929 . S
O396 H370 0.856 . S
O396 C442 1.300 . S
O397 C442 1.209 . S
O398 C443 1.199 . S
O399 H371 0.854 . S
O399 C443 1.297 . S
C400 C401 1.404 . S
C400 C405 1.397 . S
C400 C406 1.492 . S
C401 C400 1.404 . S
C401 C402 1.396 . S
C401 C412 1.492 . S
C402 C401 1.396 . S
C402 C403 1.397 . S
C402 C418 1.509 . S
C403 C402 1.397 . S
C403 C404 1.412 . S
C403 C424 1.485 . S
C404 C403 1.412 . S
C404 C405 1.388 . S
C404 C430 1.490 . S
C405 C400 1.397 . S
C405 C404 1.388 . S
C405 C436 1.519 . S
C406 C400 1.492 . S
C406 C407 1.363 . S
C406 C411 1.390 . S
C407 H372 0.930 . S
C407 C406 1.363 . S
C407 C408 1.372 . S
C408 H373 0.930 . S
C408 C407 1.372 . S
C408 C409 1.383 . S
C409 C408 1.383 . S
C409 C410 1.395 . S
C410 H374 0.930 . S
C410 C409 1.395 . S
C410 C411 1.362 . S
C411 H375 0.930 . S
C411 C406 1.390 . S
C411 C410 1.362 . S
C412 C401 1.492 . S
C412 C413 1.377 . S
C412 C417 1.397 . S
C413 H376 0.931 . S
C413 C412 1.377 . S
C413 C414 1.376 . S
C414 H377 0.930 . S
C414 C413 1.376 . S
C414 C415 1.376 . S
C415 C414 1.376 . S
C415 C416 1.378 . S
C415 C442 1.486 . S
C416 H378 0.930 . S
C416 C415 1.378 . S
C416 C417 1.376 . S
C417 H379 0.929 . S
C417 C412 1.397 . S
C417 C416 1.376 . S
C418 C402 1.509 . S
C418 C419 1.391 . S
C418 C423 1.386 . S
C419 H380 0.930 . S
C419 C418 1.391 . S
C419 C420 1.375 . S
C420 H381 0.931 . S
C420 C419 1.375 . S
C420 C421 1.375 . S
C421 C420 1.375 . S
C421 C422 1.361 . S
C422 H382 0.930 . S
C422 C421 1.361 . S
C422 C423 1.399 . S
C423 H383 0.929 . S
C423 C418 1.386 . S
C423 C422 1.399 . S
C424 C403 1.485 . S
C424 C425 1.394 . S
C424 C429 1.360 . S
C425 H384 0.931 . S
C425 C424 1.394 . S
C425 C426 1.372 . S
C426 H385 0.930 . S
C426 C425 1.372 . S
C426 C427 1.397 . S
C427 C426 1.397 . S
C427 C428 1.390 . S
C427 C443 1.476 . S
C428 H386 0.930 . S
C428 C427 1.390 . S
C428 C429 1.366 . S
C429 H387 0.932 . S
C429 C424 1.360 . S
C429 C428 1.366 . S
C430 C404 1.490 . S
C430 C431 1.380 . S
C430 C435 1.386 . S
C431 H388 0.930 . S
C431 C430 1.380 . S
C431 C432 1.381 . S
C432 H389 0.929 . S
C432 C431 1.381 . S
C432 C433 1.371 . S
C433 C432 1.371 . S
C433 C434 1.380 . S
C434 H390 0.931 . S
C434 C433 1.380 . S
C434 C435 1.387 . S
C435 H391 0.930 . S
C435 C430 1.386 . S
C435 C434 1.387 . S
C436 C405 1.519 . S
C436 C437 1.377 . S
C436 C441 1.361 . S
C437 H392 0.929 . S
C437 C436 1.377 . S
C437 C438 1.386 . S
C438 H393 0.931 . S
C438 C437 1.386 . S
C438 C439 1.363 . S
C439 C438 1.363 . S
C439 C440 1.385 . S
C440 H394 0.930 . S
C440 C439 1.385 . S
C440 C441 1.396 . S
C441 H395 0.929 . S
C441 C436 1.361 . S
C441 C440 1.396 . S
C442 O396 1.300 . S
C442 O397 1.209 . S
C442 C415 1.486 . S
C443 O398 1.199 . S
C443 O399 1.297 . S
C443 C427 1.476 . S
In444 O445 2.294 . S
In444 O446 2.326 . S
In444 O450 2.266 . S
In444 O451 2.326 . S
In444 O452 2.266 . S
In444 O453 2.326 . S
In444 O455 2.294 . S
In444 O456 2.326 . S
O445 In444 2.294 . S
O445 C454 1.240 . S
O446 In444 2.326 . S
O446 C454 1.252 . S
C447 O450 1.252 . S
C447 O451 1.260 . S
C448 O455 1.240 . S
C448 O456 1.252 . S
C449 O452 1.252 . S
C449 O453 1.260 . S
O450 In444 2.266 . S
O450 C447 1.252 . S
O451 In444 2.326 . S
O451 C447 1.260 . S
O452 In444 2.266 . S
O452 C449 1.252 . S
O453 In444 2.326 . S
O453 C449 1.260 . S
C454 O445 1.240 . S
C454 O446 1.252 . S
O455 In444 2.294 . S
O455 C448 1.240 . S
O456 In444 2.326 . S
O456 C448 1.252 . S
In457 O458 2.294 . S
In457 O459 2.326 . S
In457 O463 2.266 . S
In457 O464 2.326 . S
In457 O465 2.266 . S
In457 O466 2.326 . S
In457 O468 2.294 . S
In457 O469 2.326 . S
O458 In457 2.294 . S
O458 C467 1.240 . S
O459 In457 2.326 . S
O459 C467 1.252 . S
C460 O463 1.252 . S
C460 O464 1.260 . S
C461 O468 1.240 . S
C461 O469 1.252 . S
C462 O465 1.252 . S
C462 O466 1.260 . S
O463 In457 2.266 . S
O463 C460 1.252 . S
O464 In457 2.326 . S
O464 C460 1.260 . S
O465 In457 2.266 . S
O465 C462 1.252 . S
O466 In457 2.326 . S
O466 C462 1.260 . S
C467 O458 1.240 . S
C467 O459 1.252 . S
O468 In457 2.294 . S
O468 C461 1.240 . S
O469 In457 2.326 . S
O469 C461 1.252 . S
In470 O471 2.294 . S
In470 O472 2.326 . S
In470 O476 2.266 . S
In470 O477 2.326 . S
In470 O478 2.266 . S
In470 O479 2.326 . S
In470 O481 2.294 . S
In470 O482 2.326 . S
O471 In470 2.294 . S
O471 C480 1.240 . S
O472 In470 2.326 . S
O472 C480 1.252 . S
C473 O476 1.252 . S
C473 O477 1.260 . S
C474 O481 1.240 . S
C474 O482 1.252 . S
C475 O478 1.252 . S
C475 O479 1.260 . S
O476 In470 2.266 . S
O476 C473 1.252 . S
O477 In470 2.326 . S
O477 C473 1.260 . S
O478 In470 2.266 . S
O478 C475 1.252 . S
O479 In470 2.326 . S
O479 C475 1.260 . S
C480 O471 1.240 . S
C480 O472 1.252 . S
O481 In470 2.294 . S
O481 C474 1.240 . S
O482 In470 2.326 . S
O482 C474 1.252 . S
In483 O484 2.294 . S
In483 O485 2.326 . S
In483 O489 2.266 . S
In483 O490 2.326 . S
In483 O491 2.266 . S
In483 O492 2.326 . S
In483 O494 2.294 . S
In483 O495 2.326 . S
O484 In483 2.294 . S
O484 C493 1.240 . S
O485 In483 2.326 . S
O485 C493 1.252 . S
C486 O489 1.252 . S
C486 O490 1.260 . S
C487 O494 1.240 . S
C487 O495 1.252 . S
C488 O491 1.252 . S
C488 O492 1.260 . S
O489 In483 2.266 . S
O489 C486 1.252 . S
O490 In483 2.326 . S
O490 C486 1.260 . S
O491 In483 2.266 . S
O491 C488 1.252 . S
O492 In483 2.326 . S
O492 C488 1.260 . S
C493 O484 1.240 . S
C493 O485 1.252 . S
O494 In483 2.294 . S
O494 C487 1.240 . S
O495 In483 2.326 . S
O495 C487 1.252 . S
In496 O497 2.294 . S
In496 O498 2.326 . S
In496 O502 2.266 . S
In496 O503 2.326 . S
In496 O504 2.266 . S
In496 O505 2.326 . S
In496 O507 2.294 . S
In496 O508 2.326 . S
O497 In496 2.294 . S
O497 C506 1.240 . S
O498 In496 2.326 . S
O498 C506 1.252 . S
C499 O502 1.252 . S
C499 O503 1.260 . S
C500 O507 1.240 . S
C500 O508 1.252 . S
C501 O504 1.252 . S
C501 O505 1.260 . S
O502 In496 2.266 . S
O502 C499 1.252 . S
O503 In496 2.326 . S
O503 C499 1.260 . S
O504 In496 2.266 . S
O504 C501 1.252 . S
O505 In496 2.326 . S
O505 C501 1.260 . S
C506 O497 1.240 . S
C506 O498 1.252 . S
O507 In496 2.294 . S
O507 C500 1.240 . S
O508 In496 2.326 . S
O508 C500 1.252 . S
In509 O510 2.294 . S
In509 O511 2.326 . S
In509 O515 2.266 . S
In509 O516 2.326 . S
In509 O517 2.266 . S
In509 O518 2.326 . S
In509 O520 2.294 . S
In509 O521 2.326 . S
O510 In509 2.294 . S
O510 C519 1.240 . S
O511 In509 2.326 . S
O511 C519 1.252 . S
C512 O515 1.252 . S
C512 O516 1.260 . S
C513 O520 1.240 . S
C513 O521 1.252 . S
C514 O517 1.252 . S
C514 O518 1.260 . S
O515 In509 2.266 . S
O515 C512 1.252 . S
O516 In509 2.326 . S
O516 C512 1.260 . S
O517 In509 2.266 . S
O517 C514 1.252 . S
O518 In509 2.326 . S
O518 C514 1.260 . S
C519 O510 1.240 . S
C519 O511 1.252 . S
O520 In509 2.294 . S
O520 C513 1.240 . S
O521 In509 2.326 . S
O521 C513 1.252 . S
C522 C523 1.391 . S
C522 C524 1.394 . S
C522 H538 0.931 . S
C523 C522 1.391 . S
C523 C527 1.376 . S
C524 C522 1.394 . S
C524 C525 1.369 . S
C524 C528 1.531 . S
C525 C524 1.369 . S
C525 C526 1.410 . S
C525 C533 1.503 . S
C526 C525 1.410 . S
C526 C527 1.392 . S
C526 C529 1.511 . S
C527 C523 1.376 . S
C527 C526 1.392 . S
C527 H539 0.929 . S
C528 C524 1.531 . S
C528 H540 0.960 . S
C528 H541 0.962 . S
C528 H542 0.960 . S
C529 C526 1.511 . S
C529 H543 0.961 . S
C529 H544 0.961 . S
C529 H545 0.961 . S
C530 C531 1.370 . S
C530 C532 1.363 . S
C530 H546 0.931 . S
C531 C530 1.370 . S
C531 C535 1.408 . S
C532 C530 1.363 . S
C532 C533 1.370 . S
C532 C536 1.524 . S
C533 C525 1.503 . S
C533 C532 1.370 . S
C533 C534 1.403 . S
C534 C533 1.403 . S
C534 C535 1.404 . S
C534 C537 1.539 . S
C535 C531 1.408 . S
C535 C534 1.404 . S
C535 H547 0.930 . S
C536 C532 1.524 . S
C536 H548 0.956 . S
C536 H549 0.961 . S
C536 H550 0.961 . S
C537 C534 1.539 . S
C537 H551 0.958 . S
C537 H552 0.961 . S
C537 H553 0.960 . S
H538 C522 0.931 . S
H539 C527 0.929 . S
H540 C528 0.960 . S
H541 C528 0.962 . S
H542 C528 0.960 . S
H543 C529 0.961 . S
H544 C529 0.961 . S
H545 C529 0.961 . S
H546 C530 0.931 . S
H547 C535 0.930 . S
H548 C536 0.956 . S
H549 C536 0.961 . S
H550 C536 0.961 . S
H551 C537 0.958 . S
H552 C537 0.961 . S
H553 C537 0.960 . S
C554 C555 1.391 . S
C554 C556 1.394 . S
C554 H570 0.931 . S
C555 C554 1.391 . S
C555 C559 1.376 . S
C556 C554 1.394 . S
C556 C557 1.369 . S
C556 C560 1.531 . S
C557 C556 1.369 . S
C557 C558 1.410 . S
C557 C565 1.503 . S
C558 C557 1.410 . S
C558 C559 1.392 . S
C558 C561 1.511 . S
C559 C555 1.376 . S
C559 C558 1.392 . S
C559 H571 0.929 . S
C560 C556 1.531 . S
C560 H572 0.960 . S
C560 H573 0.962 . S
C560 H574 0.960 . S
C561 C558 1.511 . S
C561 H575 0.961 . S
C561 H576 0.961 . S
C561 H577 0.961 . S
C562 C563 1.370 . S
C562 C564 1.363 . S
C562 H578 0.931 . S
C563 C562 1.370 . S
C563 C567 1.408 . S
C564 C562 1.363 . S
C564 C565 1.370 . S
C564 C568 1.524 . S
C565 C557 1.503 . S
C565 C564 1.370 . S
C565 C566 1.403 . S
C566 C565 1.403 . S
C566 C567 1.404 . S
C566 C569 1.539 . S
C567 C563 1.408 . S
C567 C566 1.404 . S
C567 H579 0.930 . S
C568 C564 1.524 . S
C568 H580 0.956 . S
C568 H581 0.961 . S
C568 H582 0.961 . S
C569 C566 1.539 . S
C569 H583 0.958 . S
C569 H584 0.961 . S
C569 H585 0.960 . S
H570 C554 0.931 . S
H571 C559 0.929 . S
H572 C560 0.960 . S
H573 C560 0.962 . S
H574 C560 0.960 . S
H575 C561 0.961 . S
H576 C561 0.961 . S
H577 C561 0.961 . S
H578 C562 0.931 . S
H579 C567 0.930 . S
H580 C568 0.956 . S
H581 C568 0.961 . S
H582 C568 0.961 . S
H583 C569 0.958 . S
H584 C569 0.961 . S
H585 C569 0.960 . S
C586 C587 1.391 . S
C586 C588 1.394 . S
C586 H602 0.931 . S
C587 C586 1.391 . S
C587 C591 1.376 . S
C588 C586 1.394 . S
C588 C589 1.369 . S
C588 C592 1.531 . S
C589 C588 1.369 . S
C589 C590 1.410 . S
C589 C597 1.503 . S
C590 C589 1.410 . S
C590 C591 1.392 . S
C590 C593 1.511 . S
C591 C587 1.376 . S
C591 C590 1.392 . S
C591 H603 0.929 . S
C592 C588 1.531 . S
C592 H604 0.960 . S
C592 H605 0.962 . S
C592 H606 0.960 . S
C593 C590 1.511 . S
C593 H607 0.961 . S
C593 H608 0.961 . S
C593 H609 0.961 . S
C594 C595 1.370 . S
C594 C596 1.363 . S
C594 H610 0.931 . S
C595 C594 1.370 . S
C595 C599 1.408 . S
C596 C594 1.363 . S
C596 C597 1.370 . S
C596 C600 1.524 . S
C597 C589 1.503 . S
C597 C596 1.370 . S
C597 C598 1.403 . S
C598 C597 1.403 . S
C598 C599 1.404 . S
C598 C601 1.539 . S
C599 C595 1.408 . S
C599 C598 1.404 . S
C599 H611 0.930 . S
C600 C596 1.524 . S
C600 H612 0.956 . S
C600 H613 0.961 . S
C600 H614 0.961 . S
C601 C598 1.539 . S
C601 H615 0.958 . S
C601 H616 0.961 . S
C601 H617 0.960 . S
H602 C586 0.931 . S
H603 C591 0.929 . S
H604 C592 0.960 . S
H605 C592 0.962 . S
H606 C592 0.960 . S
H607 C593 0.961 . S
H608 C593 0.961 . S
H609 C593 0.961 . S
H610 C594 0.931 . S
H611 C599 0.930 . S
H612 C600 0.956 . S
H613 C600 0.961 . S
H614 C600 0.961 . S
H615 C601 0.958 . S
H616 C601 0.961 . S
H617 C601 0.960 . S
C618 C619 1.391 . S
C618 C620 1.394 . S
C618 H634 0.931 . S
C619 C618 1.391 . S
C619 C623 1.376 . S
C620 C618 1.394 . S
C620 C621 1.369 . S
C620 C624 1.531 . S
C621 C620 1.369 . S
C621 C622 1.410 . S
C621 C629 1.503 . S
C622 C621 1.410 . S
C622 C623 1.392 . S
C622 C625 1.511 . S
C623 C619 1.376 . S
C623 C622 1.392 . S
C623 H635 0.929 . S
C624 C620 1.531 . S
C624 H636 0.960 . S
C624 H637 0.962 . S
C624 H638 0.960 . S
C625 C622 1.511 . S
C625 H639 0.961 . S
C625 H640 0.961 . S
C625 H641 0.961 . S
C626 C627 1.370 . S
C626 C628 1.363 . S
C626 H642 0.931 . S
C627 C626 1.370 . S
C627 C631 1.408 . S
C628 C626 1.363 . S
C628 C629 1.370 . S
C628 C632 1.524 . S
C629 C621 1.503 . S
C629 C628 1.370 . S
C629 C630 1.403 . S
C630 C629 1.403 . S
C630 C631 1.404 . S
C630 C633 1.539 . S
C631 C627 1.408 . S
C631 C630 1.404 . S
C631 H643 0.930 . S
C632 C628 1.524 . S
C632 H644 0.956 . S
C632 H645 0.961 . S
C632 H646 0.961 . S
C633 C630 1.539 . S
C633 H647 0.958 . S
C633 H648 0.961 . S
C633 H649 0.960 . S
H634 C618 0.931 . S
H635 C623 0.929 . S
H636 C624 0.960 . S
H637 C624 0.962 . S
H638 C624 0.960 . S
H639 C625 0.961 . S
H640 C625 0.961 . S
H641 C625 0.961 . S
H642 C626 0.931 . S
H643 C631 0.930 . S
H644 C632 0.956 . S
H645 C632 0.961 . S
H646 C632 0.961 . S
H647 C633 0.958 . S
H648 C633 0.961 . S
H649 C633 0.960 . S
C650 C651 1.391 . S
C650 C652 1.394 . S
C650 H666 0.931 . S
C651 C650 1.391 . S
C651 C655 1.376 . S
C652 C650 1.394 . S
C652 C653 1.369 . S
C652 C656 1.531 . S
C653 C652 1.369 . S
C653 C654 1.410 . S
C653 C661 1.503 . S
C654 C653 1.410 . S
C654 C655 1.392 . S
C654 C657 1.511 . S
C655 C651 1.376 . S
C655 C654 1.392 . S
C655 H667 0.929 . S
C656 C652 1.531 . S
C656 H668 0.960 . S
C656 H669 0.962 . S
C656 H670 0.960 . S
C657 C654 1.511 . S
C657 H671 0.961 . S
C657 H672 0.961 . S
C657 H673 0.961 . S
C658 C659 1.370 . S
C658 C660 1.363 . S
C658 H674 0.931 . S
C659 C658 1.370 . S
C659 C663 1.408 . S
C660 C658 1.363 . S
C660 C661 1.370 . S
C660 C664 1.524 . S
C661 C653 1.503 . S
C661 C660 1.370 . S
C661 C662 1.403 . S
C662 C661 1.403 . S
C662 C663 1.404 . S
C662 C665 1.539 . S
C663 C659 1.408 . S
C663 C662 1.404 . S
C663 H675 0.930 . S
C664 C660 1.524 . S
C664 H676 0.956 . S
C664 H677 0.961 . S
C664 H678 0.961 . S
C665 C662 1.539 . S
C665 H679 0.958 . S
C665 H680 0.961 . S
C665 H681 0.960 . S
H666 C650 0.931 . S
H667 C655 0.929 . S
H668 C656 0.960 . S
H669 C656 0.962 . S
H670 C656 0.960 . S
H671 C657 0.961 . S
H672 C657 0.961 . S
H673 C657 0.961 . S
H674 C658 0.931 . S
H675 C663 0.930 . S
H676 C664 0.956 . S
H677 C664 0.961 . S
H678 C664 0.961 . S
H679 C665 0.958 . S
H680 C665 0.961 . S
H681 C665 0.960 . S
C682 C683 1.391 . S
C682 C684 1.394 . S
C682 H698 0.931 . S
C683 C682 1.391 . S
C683 C687 1.376 . S
C684 C682 1.394 . S
C684 C685 1.369 . S
C684 C688 1.531 . S
C685 C684 1.369 . S
C685 C686 1.410 . S
C685 C693 1.503 . S
C686 C685 1.410 . S
C686 C687 1.392 . S
C686 C689 1.511 . S
C687 C683 1.376 . S
C687 C686 1.392 . S
C687 H699 0.929 . S
C688 C684 1.531 . S
C688 H700 0.960 . S
C688 H701 0.962 . S
C688 H702 0.960 . S
C689 C686 1.511 . S
C689 H703 0.961 . S
C689 H704 0.961 . S
C689 H705 0.961 . S
C690 C691 1.370 . S
C690 C692 1.363 . S
C690 H706 0.931 . S
C691 C690 1.370 . S
C691 C695 1.408 . S
C692 C690 1.363 . S
C692 C693 1.370 . S
C692 C696 1.524 . S
C693 C685 1.503 . S
C693 C692 1.370 . S
C693 C694 1.403 . S
C694 C693 1.403 . S
C694 C695 1.404 . S
C694 C697 1.539 . S
C695 C691 1.408 . S
C695 C694 1.404 . S
C695 H707 0.930 . S
C696 C692 1.524 . S
C696 H708 0.956 . S
C696 H709 0.961 . S
C696 H710 0.961 . S
C697 C694 1.539 . S
C697 H711 0.958 . S
C697 H712 0.961 . S
C697 H713 0.960 . S
H698 C682 0.931 . S
H699 C687 0.929 . S
H700 C688 0.960 . S
H701 C688 0.962 . S
H702 C688 0.960 . S
H703 C689 0.961 . S
H704 C689 0.961 . S
H705 C689 0.961 . S
H706 C690 0.931 . S
H707 C695 0.930 . S
H708 C696 0.956 . S
H709 C696 0.961 . S
H710 C696 0.961 . S
H711 C697 0.958 . S
H712 C697 0.961 . S
H713 C697 0.960 . S
C714 C715 1.391 . S
C714 C716 1.394 . S
C714 H730 0.931 . S
C715 C714 1.391 . S
C715 C719 1.376 . S
C716 C714 1.394 . S
C716 C717 1.369 . S
C716 C720 1.531 . S
C717 C716 1.369 . S
C717 C718 1.410 . S
C717 C725 1.503 . S
C718 C717 1.410 . S
C718 C719 1.392 . S
C718 C721 1.511 . S
C719 C715 1.376 . S
C719 C718 1.392 . S
C719 H731 0.929 . S
C720 C716 1.531 . S
C720 H732 0.960 . S
C720 H733 0.962 . S
C720 H734 0.960 . S
C721 C718 1.511 . S
C721 H735 0.961 . S
C721 H736 0.961 . S
C721 H737 0.961 . S
C722 C723 1.370 . S
C722 C724 1.363 . S
C722 H738 0.931 . S
C723 C722 1.370 . S
C723 C727 1.408 . S
C724 C722 1.363 . S
C724 C725 1.370 . S
C724 C728 1.524 . S
C725 C717 1.503 . S
C725 C724 1.370 . S
C725 C726 1.403 . S
C726 C725 1.403 . S
C726 C727 1.404 . S
C726 C729 1.539 . S
C727 C723 1.408 . S
C727 C726 1.404 . S
C727 H739 0.930 . S
C728 C724 1.524 . S
C728 H740 0.956 . S
C728 H741 0.961 . S
C728 H742 0.961 . S
C729 C726 1.539 . S
C729 H743 0.958 . S
C729 H744 0.961 . S
C729 H745 0.960 . S
H730 C714 0.931 . S
H731 C719 0.929 . S
H732 C720 0.960 . S
H733 C720 0.962 . S
H734 C720 0.960 . S
H735 C721 0.961 . S
H736 C721 0.961 . S
H737 C721 0.961 . S
H738 C722 0.931 . S
H739 C727 0.930 . S
H740 C728 0.956 . S
H741 C728 0.961 . S
H742 C728 0.961 . S
H743 C729 0.958 . S
H744 C729 0.961 . S
H745 C729 0.960 . S
C746 C747 1.391 . S
C746 C748 1.394 . S
C746 H762 0.931 . S
C747 C746 1.391 . S
C747 C751 1.376 . S
C748 C746 1.394 . S
C748 C749 1.369 . S
C748 C752 1.531 . S
C749 C748 1.369 . S
C749 C750 1.410 . S
C749 C757 1.503 . S
C750 C749 1.410 . S
C750 C751 1.392 . S
C750 C753 1.511 . S
C751 C747 1.376 . S
C751 C750 1.392 . S
C751 H763 0.929 . S
C752 C748 1.531 . S
C752 H764 0.960 . S
C752 H765 0.962 . S
C752 H766 0.960 . S
C753 C750 1.511 . S
C753 H767 0.961 . S
C753 H768 0.961 . S
C753 H769 0.961 . S
C754 C755 1.370 . S
C754 C756 1.363 . S
C754 H770 0.931 . S
C755 C754 1.370 . S
C755 C759 1.408 . S
C756 C754 1.363 . S
C756 C757 1.370 . S
C756 C760 1.524 . S
C757 C749 1.503 . S
C757 C756 1.370 . S
C757 C758 1.403 . S
C758 C757 1.403 . S
C758 C759 1.404 . S
C758 C761 1.539 . S
C759 C755 1.408 . S
C759 C758 1.404 . S
C759 H771 0.930 . S
C760 C756 1.524 . S
C760 H772 0.956 . S
C760 H773 0.961 . S
C760 H774 0.961 . S
C761 C758 1.539 . S
C761 H775 0.958 . S
C761 H776 0.961 . S
C761 H777 0.960 . S
H762 C746 0.931 . S
H763 C751 0.929 . S
H764 C752 0.960 . S
H765 C752 0.962 . S
H766 C752 0.960 . S
H767 C753 0.961 . S
H768 C753 0.961 . S
H769 C753 0.961 . S
H770 C754 0.931 . S
H771 C759 0.930 . S
H772 C760 0.956 . S
H773 C760 0.961 . S
H774 C760 0.961 . S
H775 C761 0.958 . S
H776 C761 0.961 . S
H777 C761 0.960 . S
C778 C779 1.391 . S
C778 C780 1.394 . S
C778 H794 0.931 . S
C779 C778 1.391 . S
C779 C783 1.376 . S
C780 C778 1.394 . S
C780 C781 1.369 . S
C780 C784 1.531 . S
C781 C780 1.369 . S
C781 C782 1.410 . S
C781 C789 1.503 . S
C782 C781 1.410 . S
C782 C783 1.392 . S
C782 C785 1.511 . S
C783 C779 1.376 . S
C783 C782 1.392 . S
C783 H795 0.929 . S
C784 C780 1.531 . S
C784 H796 0.960 . S
C784 H797 0.962 . S
C784 H798 0.960 . S
C785 C782 1.511 . S
C785 H799 0.961 . S
C785 H800 0.961 . S
C785 H801 0.961 . S
C786 C787 1.370 . S
C786 C788 1.363 . S
C786 H802 0.931 . S
C787 C786 1.370 . S
C787 C791 1.408 . S
C788 C786 1.363 . S
C788 C789 1.370 . S
C788 C792 1.524 . S
C789 C781 1.503 . S
C789 C788 1.370 . S
C789 C790 1.403 . S
C790 C789 1.403 . S
C790 C791 1.404 . S
C790 C793 1.539 . S
C791 C787 1.408 . S
C791 C790 1.404 . S
C791 H803 0.930 . S
C792 C788 1.524 . S
C792 H804 0.956 . S
C792 H805 0.961 . S
C792 H806 0.961 . S
C793 C790 1.539 . S
C793 H807 0.958 . S
C793 H808 0.961 . S
C793 H809 0.960 . S
H794 C778 0.931 . S
H795 C783 0.929 . S
H796 C784 0.960 . S
H797 C784 0.962 . S
H798 C784 0.960 . S
H799 C785 0.961 . S
H800 C785 0.961 . S
H801 C785 0.961 . S
H802 C786 0.931 . S
H803 C791 0.930 . S
H804 C792 0.956 . S
H805 C792 0.961 . S
H806 C792 0.961 . S
H807 C793 0.958 . S
H808 C793 0.961 . S
H809 C793 0.960 . S
C810 C811 1.391 . S
C810 C812 1.394 . S
C810 H826 0.931 . S
C811 C810 1.391 . S
C811 C815 1.376 . S
C812 C810 1.394 . S
C812 C813 1.369 . S
C812 C816 1.531 . S
C813 C812 1.369 . S
C813 C814 1.410 . S
C813 C821 1.503 . S
C814 C813 1.410 . S
C814 C815 1.392 . S
C814 C817 1.511 . S
C815 C811 1.376 . S
C815 C814 1.392 . S
C815 H827 0.916 1_554 S
C816 C812 1.531 . S
C816 H828 0.960 . S
C816 H829 0.962 . S
C816 H830 0.960 . S
C817 C814 1.511 . S
C817 H831 0.961 1_554 S
C817 H832 0.961 . S
C817 H833 0.961 . S
C818 C819 1.370 . S
C818 C820 1.363 . S
C818 H834 0.931 . S
C819 C818 1.370 . S
C819 C823 1.408 . S
C820 C818 1.363 . S
C820 C821 1.370 . S
C820 C824 1.524 . S
C821 C813 1.503 . S
C821 C820 1.370 . S
C821 C822 1.403 . S
C822 C821 1.403 . S
C822 C823 1.404 . S
C822 C825 1.539 . S
C823 C819 1.408 . S
C823 C822 1.404 . S
C823 H835 0.930 . S
C824 C820 1.524 . S
C824 H836 0.956 . S
C824 H837 0.961 . S
C824 H838 0.961 . S
C825 C822 1.539 . S
C825 H839 0.958 . S
C825 H840 0.961 . S
C825 H841 0.960 . S
H826 C810 0.931 . S
H827 C815 0.916 1_556 S
H828 C816 0.960 . S
H829 C816 0.962 . S
H830 C816 0.960 . S
H831 C817 0.961 1_556 S
H832 C817 0.961 . S
H833 C817 0.961 . S
H834 C818 0.931 . S
H835 C823 0.930 . S
H836 C824 0.956 . S
H837 C824 0.961 . S
H838 C824 0.961 . S
H839 C825 0.958 . S
H840 C825 0.961 . S
H841 C825 0.960 . S
C842 C843 1.391 . S
C842 C844 1.394 . S
C842 H858 0.931 . S
C843 C842 1.391 . S
C843 C847 1.376 . S
C844 C842 1.394 . S
C844 C845 1.369 . S
C844 C848 1.531 . S
C845 C844 1.369 . S
C845 C846 1.410 . S
C845 C853 1.503 . S
C846 C845 1.410 . S
C846 C847 1.392 . S
C846 C849 1.511 . S
C847 C843 1.376 . S
C847 C846 1.392 . S
C847 H859 0.929 . S
C848 C844 1.531 . S
C848 H860 0.960 . S
C848 H861 0.962 . S
C848 H862 0.960 . S
C849 C846 1.511 . S
C849 H863 0.961 . S
C849 H864 0.961 . S
C849 H865 0.961 . S
C850 C851 1.370 . S
C850 C852 1.363 . S
C850 H866 0.931 . S
C851 C850 1.370 . S
C851 C855 1.408 . S
C852 C850 1.363 . S
C852 C853 1.370 . S
C852 C856 1.524 . S
C853 C845 1.503 . S
C853 C852 1.370 . S
C853 C854 1.403 . S
C854 C853 1.403 . S
C854 C855 1.404 . S
C854 C857 1.539 . S
C855 C851 1.408 . S
C855 C854 1.404 . S
C855 H867 0.930 . S
C856 C852 1.524 . S
C856 H868 0.956 . S
C856 H869 0.961 . S
C856 H870 0.961 . S
C857 C854 1.539 . S
C857 H871 0.958 . S
C857 H872 0.961 . S
C857 H873 0.960 . S
H858 C842 0.931 . S
H859 C847 0.929 . S
H860 C848 0.960 . S
H861 C848 0.962 . S
H862 C848 0.960 . S
H863 C849 0.961 . S
H864 C849 0.961 . S
H865 C849 0.961 . S
H866 C850 0.931 . S
H867 C855 0.930 . S
H868 C856 0.956 . S
H869 C856 0.961 . S
H870 C856 0.961 . S
H871 C857 0.958 . S
H872 C857 0.961 . S
H873 C857 0.960 . S
C874 C875 1.391 . S
C874 C876 1.394 . S
C874 H890 0.931 . S
C875 C874 1.391 . S
C875 C879 1.376 . S
C876 C874 1.394 . S
C876 C877 1.369 . S
C876 C880 1.531 . S
C877 C876 1.369 . S
C877 C878 1.410 . S
C877 C885 1.503 . S
C878 C877 1.410 . S
C878 C879 1.392 . S
C878 C881 1.511 . S
C879 C875 1.376 . S
C879 C878 1.392 . S
C879 H891 0.929 . S
C880 C876 1.531 . S
C880 H892 0.960 . S
C880 H893 0.962 . S
C880 H894 0.960 . S
C881 C878 1.511 . S
C881 H895 0.961 . S
C881 H896 0.961 . S
C881 H897 0.961 . S
C882 C883 1.370 . S
C882 C884 1.363 . S
C882 H898 0.931 . S
C883 C882 1.370 . S
C883 C887 1.408 . S
C884 C882 1.363 . S
C884 C885 1.370 . S
C884 C888 1.524 . S
C885 C877 1.503 . S
C885 C884 1.370 . S
C885 C886 1.403 . S
C886 C885 1.403 . S
C886 C887 1.404 . S
C886 C889 1.539 . S
C887 C883 1.408 . S
C887 C886 1.404 . S
C887 H899 0.930 . S
C888 C884 1.524 . S
C888 H900 0.956 . S
C888 H901 0.961 . S
C888 H902 0.961 . S
C889 C886 1.539 . S
C889 H903 0.958 . S
C889 H904 0.961 . S
C889 H905 0.960 . S
H890 C874 0.931 . S
H891 C879 0.929 . S
H892 C880 0.960 . S
H893 C880 0.962 . S
H894 C880 0.960 . S
H895 C881 0.961 . S
H896 C881 0.961 . S
H897 C881 0.961 . S
H898 C882 0.931 . S
H899 C887 0.930 . S
H900 C888 0.956 . S
H901 C888 0.961 . S
H902 C888 0.961 . S
H903 C889 0.958 . S
H904 C889 0.961 . S
H905 C889 0.960 . S
C906 C907 1.391 . S
C906 C908 1.394 . S
C906 H922 0.931 . S
C907 C906 1.391 . S
C907 C911 1.376 . S
C908 C906 1.394 . S
C908 C909 1.369 . S
C908 C912 1.531 . S
C909 C908 1.369 . S
C909 C910 1.410 . S
C909 C917 1.503 . S
C910 C909 1.410 . S
C910 C911 1.392 . S
C910 C913 1.511 . S
C911 C907 1.376 . S
C911 C910 1.392 . S
C911 H923 0.929 . S
C912 C908 1.531 . S
C912 H924 0.960 . S
C912 H925 0.962 . S
C912 H926 0.960 . S
C913 C910 1.511 . S
C913 H927 0.961 . S
C913 H928 0.961 . S
C913 H929 0.961 . S
C914 C915 1.370 . S
C914 C916 1.363 . S
C914 H930 0.931 . S
C915 C914 1.370 . S
C915 C919 1.408 . S
C916 C914 1.363 . S
C916 C917 1.370 . S
C916 C920 1.524 . S
C917 C909 1.503 . S
C917 C916 1.370 . S
C917 C918 1.403 . S
C918 C917 1.403 . S
C918 C919 1.404 . S
C918 C921 1.539 . S
C919 C915 1.408 . S
C919 C918 1.404 . S
C919 H931 0.930 . S
C920 C916 1.524 . S
C920 H932 0.956 . S
C920 H933 0.961 . S
C920 H934 0.961 . S
C921 C918 1.539 . S
C921 H935 0.958 . S
C921 H936 0.961 . S
C921 H937 0.960 . S
H922 C906 0.931 . S
H923 C911 0.929 . S
H924 C912 0.960 . S
H925 C912 0.962 . S
H926 C912 0.960 . S
H927 C913 0.961 . S
H928 C913 0.961 . S
H929 C913 0.961 . S
H930 C914 0.931 . S
H931 C919 0.930 . S
H932 C920 0.956 . S
H933 C920 0.961 . S
H934 C920 0.961 . S
H935 C921 0.958 . S
H936 C921 0.961 . S
H937 C921 0.960 . S
C938 C939 1.391 . S
C938 C940 1.394 . S
C938 H954 0.931 . S
C939 C938 1.391 . S
C939 C943 1.376 . S
C940 C938 1.394 . S
C940 C941 1.369 . S
C940 C944 1.531 . S
C941 C940 1.369 . S
C941 C942 1.410 . S
C941 C949 1.503 . S
C942 C941 1.410 . S
C942 C943 1.392 . S
C942 C945 1.511 . S
C943 C939 1.376 . S
C943 C942 1.392 . S
C943 H955 0.929 . S
C944 C940 1.531 . S
C944 H956 0.960 . S
C944 H957 0.962 . S
C944 H958 0.960 . S
C945 C942 1.511 . S
C945 H959 0.961 . S
C945 H960 0.961 . S
C945 H961 0.961 . S
C946 C947 1.370 . S
C946 C948 1.363 . S
C946 H962 0.931 . S
C947 C946 1.370 . S
C947 C951 1.408 . S
C948 C946 1.363 . S
C948 C949 1.370 . S
C948 C952 1.524 . S
C949 C941 1.503 . S
C949 C948 1.370 . S
C949 C950 1.403 . S
C950 C949 1.403 . S
C950 C951 1.404 . S
C950 C953 1.539 . S
C951 C947 1.408 . S
C951 C950 1.404 . S
C951 H963 0.930 . S
C952 C948 1.524 . S
C952 H964 0.956 . S
C952 H965 0.961 . S
C952 H966 0.961 . S
C953 C950 1.539 . S
C953 H967 0.958 . S
C953 H968 0.961 . S
C953 H969 0.960 . S
H954 C938 0.931 . S
H955 C943 0.929 . S
H956 C944 0.960 . S
H957 C944 0.962 . S
H958 C944 0.960 . S
H959 C945 0.961 . S
H960 C945 0.961 . S
H961 C945 0.961 . S
H962 C946 0.931 . S
H963 C951 0.930 . S
H964 C952 0.956 . S
H965 C952 0.961 . S
H966 C952 0.961 . S
H967 C953 0.958 . S
H968 C953 0.961 . S
H969 C953 0.960 . S
C970 C971 1.391 . S
C970 C972 1.394 . S
C970 H986 0.931 . S
C971 C970 1.391 . S
C971 C975 1.376 . S
C972 C970 1.394 . S
C972 C973 1.369 . S
C972 C976 1.531 . S
C973 C972 1.369 . S
C973 C974 1.410 . S
C973 C981 1.503 . S
C974 C973 1.410 . S
C974 C975 1.392 . S
C974 C977 1.511 . S
C975 C971 1.376 . S
C975 C974 1.392 . S
C975 H987 0.929 . S
C976 C972 1.531 . S
C976 H988 0.960 . S
C976 H989 0.962 . S
C976 H990 0.960 . S
C977 C974 1.511 . S
C977 H991 0.961 . S
C977 H992 0.961 . S
C977 H993 0.961 . S
C978 C979 1.370 . S
C978 C980 1.363 . S
C978 H994 0.931 . S
C979 C978 1.370 . S
C979 C983 1.408 . S
C980 C978 1.363 . S
C980 C981 1.370 . S
C980 C984 1.524 . S
C981 C973 1.503 . S
C981 C980 1.370 . S
C981 C982 1.403 . S
C982 C981 1.403 . S
C982 C983 1.404 . S
C982 C985 1.539 . S
C983 C979 1.408 . S
C983 C982 1.404 . S
C983 H995 0.930 . S
C984 C980 1.524 . S
C984 H996 0.956 . S
C984 H997 0.961 . S
C984 H998 0.961 . S
C985 C982 1.539 . S
C985 H999 0.958 . S
C985 H1000 0.961 . S
C985 H1001 0.960 . S
H986 C970 0.931 . S
H987 C975 0.929 . S
H988 C976 0.960 . S
H989 C976 0.962 . S
H990 C976 0.960 . S
H991 C977 0.961 . S
H992 C977 0.961 . S
H993 C977 0.961 . S
H994 C978 0.931 . S
H995 C983 0.930 . S
H996 C984 0.956 . S
H997 C984 0.961 . S
H998 C984 0.961 . S
H999 C985 0.958 . S
H1000 C985 0.961 . S
H1001 C985 0.960 . S
C1002 C1003 1.391 . S
C1002 C1004 1.394 . S
C1002 H1018 0.931 . S
C1003 C1002 1.391 . S
C1003 C1007 1.376 . S
C1004 C1002 1.394 . S
C1004 C1005 1.369 . S
C1004 C1008 1.531 . S
C1005 C1004 1.369 . S
C1005 C1006 1.410 . S
C1005 C1013 1.503 . S
C1006 C1005 1.410 . S
C1006 C1007 1.392 . S
C1006 C1009 1.511 . S
C1007 C1003 1.376 . S
C1007 C1006 1.392 . S
C1007 H1019 0.929 . S
C1008 C1004 1.531 . S
C1008 H1020 0.960 . S
C1008 H1021 0.962 . S
C1008 H1022 0.960 . S
C1009 C1006 1.511 . S
C1009 H1023 0.961 . S
C1009 H1024 0.961 . S
C1009 H1025 0.961 . S
C1010 C1011 1.370 1_556 S
C1010 C1012 1.363 . S
C1010 H1026 0.931 . S
C1011 C1010 1.370 1_554 S
C1011 C1015 1.408 . S
C1012 C1010 1.363 . S
C1012 C1013 1.370 . S
C1012 C1016 1.524 . S
C1013 C1005 1.503 . S
C1013 C1012 1.370 . S
C1013 C1014 1.403 . S
C1014 C1013 1.403 . S
C1014 C1015 1.404 1_556 S
C1014 C1017 1.539 . S
C1015 C1011 1.408 . S
C1015 C1014 1.404 1_554 S
C1015 H1027 0.930 . S
C1016 C1012 1.524 . S
C1016 H1028 0.956 . S
C1016 H1029 0.961 . S
C1016 H1030 0.961 . S
C1017 C1014 1.539 . S
C1017 H1031 0.958 . S
C1017 H1032 0.961 . S
C1017 H1033 0.960 . S
H1018 C1002 0.931 . S
H1019 C1007 0.929 . S
H1020 C1008 0.960 . S
H1021 C1008 0.962 . S
H1022 C1008 0.960 . S
H1023 C1009 0.961 . S
H1024 C1009 0.961 . S
H1025 C1009 0.961 . S
H1026 C1010 0.931 . S
H1027 C1015 0.930 . S
H1028 C1016 0.956 . S
H1029 C1016 0.961 . S
H1030 C1016 0.961 . S
H1031 C1017 0.958 . S
H1032 C1017 0.961 . S
H1033 C1017 0.960 . S
C1034 C1035 1.391 1_565 S
C1034 C1036 1.394 . S
C1034 H1050 0.931 . S
C1035 C1034 1.391 1_545 S
C1035 C1039 1.376 . S
C1036 C1034 1.394 . S
C1036 C1037 1.369 . S
C1036 C1040 1.531 . S
C1037 C1036 1.369 . S
C1037 C1038 1.410 1_565 S
C1037 C1045 1.503 . S
C1038 C1037 1.410 1_545 S
C1038 C1039 1.392 . S
C1038 C1041 1.511 . S
C1039 C1035 1.376 . S
C1039 C1038 1.392 . S
C1039 H1051 0.929 . S
C1040 C1036 1.531 . S
C1040 H1052 0.960 . S
C1040 H1053 0.962 . S
C1040 H1054 0.960 . S
C1041 C1038 1.511 . S
C1041 H1055 0.961 . S
C1041 H1056 0.961 . S
C1041 H1057 0.961 . S
C1042 C1043 1.370 . S
C1042 C1044 1.363 . S
C1042 H1058 0.931 . S
C1043 C1042 1.370 . S
C1043 C1047 1.408 . S
C1044 C1042 1.363 . S
C1044 C1045 1.370 . S
C1044 C1048 1.524 . S
C1045 C1037 1.503 . S
C1045 C1044 1.370 . S
C1045 C1046 1.403 . S
C1046 C1045 1.403 . S
C1046 C1047 1.404 . S
C1046 C1049 1.539 . S
C1047 C1043 1.408 . S
C1047 C1046 1.404 . S
C1047 H1059 0.930 . S
C1048 C1044 1.524 . S
C1048 H1060 0.956 . S
C1048 H1061 0.961 . S
C1048 H1062 0.961 . S
C1049 C1046 1.539 . S
C1049 H1063 0.958 . S
C1049 H1064 0.961 . S
C1049 H1065 0.960 1_565 S
H1050 C1034 0.931 . S
H1051 C1039 0.929 . S
H1052 C1040 0.960 . S
H1053 C1040 0.962 . S
H1054 C1040 0.960 . S
H1055 C1041 0.961 . S
H1056 C1041 0.961 . S
H1057 C1041 0.961 . S
H1058 C1042 0.931 . S
H1059 C1047 0.930 . S
H1060 C1048 0.956 . S
H1061 C1048 0.961 . S
H1062 C1048 0.961 . S
H1063 C1049 0.958 . S
H1064 C1049 0.961 . S
H1065 C1049 0.960 1_545 S
C1066 C1067 1.391 . S
C1066 C1068 1.394 . S
C1066 H1082 0.931 . S
C1067 C1066 1.391 . S
C1067 C1071 1.376 . S
C1068 C1066 1.394 . S
C1068 C1069 1.369 . S
C1068 C1072 1.531 . S
C1069 C1068 1.369 . S
C1069 C1070 1.410 . S
C1069 C1077 1.503 . S
C1070 C1069 1.410 . S
C1070 C1071 1.392 . S
C1070 C1073 1.511 . S
C1071 C1067 1.376 . S
C1071 C1070 1.392 . S
C1071 H1083 0.929 . S
C1072 C1068 1.531 . S
C1072 H1084 0.960 . S
C1072 H1085 0.962 . S
C1072 H1086 0.960 . S
C1073 C1070 1.511 . S
C1073 H1087 0.961 . S
C1073 H1088 0.961 . S
C1073 H1089 0.961 . S
C1074 C1075 1.370 . S
C1074 C1076 1.363 . S
C1074 H1090 0.931 . S
C1075 C1074 1.370 . S
C1075 C1079 1.408 . S
C1076 C1074 1.363 . S
C1076 C1077 1.370 . S
C1076 C1080 1.524 . S
C1077 C1069 1.503 . S
C1077 C1076 1.370 . S
C1077 C1078 1.403 . S
C1078 C1077 1.403 . S
C1078 C1079 1.404 . S
C1078 C1081 1.539 . S
C1079 C1075 1.408 . S
C1079 C1078 1.404 . S
C1079 H1091 0.930 . S
C1080 C1076 1.524 . S
C1080 H1092 0.956 . S
C1080 H1093 0.961 . S
C1080 H1094 0.961 . S
C1081 C1078 1.539 . S
C1081 H1095 0.958 . S
C1081 H1096 0.961 . S
C1081 H1097 0.960 . S
H1082 C1066 0.931 . S
H1083 C1071 0.929 . S
H1084 C1072 0.960 . S
H1085 C1072 0.962 . S
H1086 C1072 0.960 . S
H1087 C1073 0.961 . S
H1088 C1073 0.961 . S
H1089 C1073 0.961 . S
H1090 C1074 0.931 . S
H1091 C1079 0.930 . S
H1092 C1080 0.956 . S
H1093 C1080 0.961 . S
H1094 C1080 0.961 . S
H1095 C1081 0.958 . S
H1096 C1081 0.961 . S
H1097 C1081 0.960 . S
C1098 C1099 1.391 . S
C1098 C1100 1.394 . S
C1098 H1114 0.931 1_565 S
C1099 C1098 1.391 . S
C1099 C1103 1.376 . S
C1100 C1098 1.394 . S
C1100 C1101 1.369 . S
C1100 C1104 1.531 1_565 S
C1101 C1100 1.369 . S
C1101 C1102 1.410 . S
C1101 C1109 1.503 . S
C1102 C1101 1.410 . S
C1102 C1103 1.392 . S
C1102 C1105 1.511 . S
C1103 C1099 1.376 . S
C1103 C1102 1.392 . S
C1103 H1115 0.929 . S
C1104 C1100 1.531 1_545 S
C1104 H1116 0.960 . S
C1104 H1117 0.962 1_545 S
C1104 H1118 0.960 . S
C1105 C1102 1.511 . S
C1105 H1119 0.961 . S
C1105 H1120 0.961 . S
C1105 H1121 0.961 . S
C1106 C1107 1.370 . S
C1106 C1108 1.363 . S
C1106 H1122 0.931 . S
C1107 C1106 1.370 . S
C1107 C1111 1.408 . S
C1108 C1106 1.363 . S
C1108 C1109 1.370 . S
C1108 C1112 1.524 . S
C1109 C1101 1.503 . S
C1109 C1108 1.370 . S
C1109 C1110 1.403 . S
C1110 C1109 1.403 . S
C1110 C1111 1.404 . S
C1110 C1113 1.539 . S
C1111 C1107 1.408 . S
C1111 C1110 1.404 . S
C1111 H1123 0.930 . S
C1112 C1108 1.524 . S
C1112 H1124 0.956 . S
C1112 H1125 0.961 . S
C1112 H1126 0.961 . S
C1113 C1110 1.539 . S
C1113 H1127 0.958 1_565 S
C1113 H1128 0.961 . S
C1113 H1129 0.960 . S
H1114 C1098 0.931 1_545 S
H1115 C1103 0.929 . S
H1116 C1104 0.960 . S
H1117 C1104 0.962 1_565 S
H1118 C1104 0.960 . S
H1119 C1105 0.961 . S
H1120 C1105 0.961 . S
H1121 C1105 0.961 . S
H1122 C1106 0.931 . S
H1123 C1111 0.930 . S
H1124 C1112 0.956 . S
H1125 C1112 0.961 . S
H1126 C1112 0.961 . S
H1127 C1113 0.958 1_545 S
H1128 C1113 0.961 . S
H1129 C1113 0.960 . S
C1130 C1131 1.391 . S
C1130 C1132 1.394 . S
C1130 H1146 0.931 . S
C1131 C1130 1.391 . S
C1131 C1135 1.376 . S
C1132 C1130 1.394 . S
C1132 C1133 1.369 . S
C1132 C1136 1.531 . S
C1133 C1132 1.369 . S
C1133 C1134 1.410 . S
C1133 C1141 1.503 . S
C1134 C1133 1.410 . S
C1134 C1135 1.392 . S
C1134 C1137 1.511 . S
C1135 C1131 1.376 . S
C1135 C1134 1.392 . S
C1135 H1147 0.929 . S
C1136 C1132 1.531 . S
C1136 H1148 0.960 . S
C1136 H1149 0.962 . S
C1136 H1150 0.960 . S
C1137 C1134 1.511 . S
C1137 H1151 0.961 . S
C1137 H1152 0.961 . S
C1137 H1153 0.961 . S
C1138 C1139 1.370 . S
C1138 C1140 1.363 . S
C1138 H1154 0.931 . S
C1139 C1138 1.370 . S
C1139 C1143 1.408 . S
C1140 C1138 1.363 . S
C1140 C1141 1.370 . S
C1140 C1144 1.524 . S
C1141 C1133 1.503 . S
C1141 C1140 1.370 . S
C1141 C1142 1.403 . S
C1142 C1141 1.403 . S
C1142 C1143 1.404 . S
C1142 C1145 1.539 . S
C1143 C1139 1.408 . S
C1143 C1142 1.404 . S
C1143 H1155 0.930 . S
C1144 C1140 1.524 . S
C1144 H1156 0.956 . S
C1144 H1157 0.961 . S
C1144 H1158 0.961 . S
C1145 C1142 1.539 . S
C1145 H1159 0.958 . S
C1145 H1160 0.961 . S
C1145 H1161 0.960 . S
H1146 C1130 0.931 . S
H1147 C1135 0.929 . S
H1148 C1136 0.960 . S
H1149 C1136 0.962 . S
H1150 C1136 0.960 . S
H1151 C1137 0.961 . S
H1152 C1137 0.961 . S
H1153 C1137 0.961 . S
H1154 C1138 0.931 . S
H1155 C1143 0.930 . S
H1156 C1144 0.956 . S
H1157 C1144 0.961 . S
H1158 C1144 0.961 . S
H1159 C1145 0.958 . S
H1160 C1145 0.961 . S
H1161 C1145 0.960 . S
C1162 C1163 1.391 . S
C1162 C1164 1.394 . S
C1162 H1178 0.931 . S
C1163 C1162 1.391 . S
C1163 C1167 1.376 . S
C1164 C1162 1.394 . S
C1164 C1165 1.369 . S
C1164 C1168 1.531 . S
C1165 C1164 1.369 . S
C1165 C1166 1.410 . S
C1165 C1173 1.503 . S
C1166 C1165 1.410 . S
C1166 C1167 1.392 . S
C1166 C1169 1.511 . S
C1167 C1163 1.376 . S
C1167 C1166 1.392 . S
C1167 H1179 0.929 . S
C1168 C1164 1.531 . S
C1168 H1180 0.960 . S
C1168 H1181 0.962 . S
C1168 H1182 0.960 . S
C1169 C1166 1.511 . S
C1169 H1183 0.961 . S
C1169 H1184 0.961 . S
C1169 H1185 0.961 . S
C1170 C1171 1.370 . S
C1170 C1172 1.363 . S
C1170 H1186 0.931 . S
C1171 C1170 1.370 . S
C1171 C1175 1.408 . S
C1172 C1170 1.363 . S
C1172 C1173 1.370 . S
C1172 C1176 1.524 . S
C1173 C1165 1.503 . S
C1173 C1172 1.370 . S
C1173 C1174 1.403 . S
C1174 C1173 1.403 . S
C1174 C1175 1.404 . S
C1174 C1177 1.539 . S
C1175 C1171 1.408 . S
C1175 C1174 1.404 . S
C1175 H1187 0.930 . S
C1176 C1172 1.524 . S
C1176 H1188 0.956 . S
C1176 H1189 0.961 . S
C1176 H1190 0.961 . S
C1177 C1174 1.539 . S
C1177 H1191 0.958 . S
C1177 H1192 0.961 . S
C1177 H1193 0.960 . S
H1178 C1162 0.931 . S
H1179 C1167 0.929 . S
H1180 C1168 0.960 . S
H1181 C1168 0.962 . S
H1182 C1168 0.960 . S
H1183 C1169 0.961 . S
H1184 C1169 0.961 . S
H1185 C1169 0.961 . S
H1186 C1170 0.931 . S
H1187 C1175 0.930 . S
H1188 C1176 0.956 . S
H1189 C1176 0.961 . S
H1190 C1176 0.961 . S
H1191 C1177 0.958 . S
H1192 C1177 0.961 . S
H1193 C1177 0.960 . S
C1194 C1195 1.391 . S
C1194 C1196 1.394 . S
C1194 H1210 0.931 . S
C1195 C1194 1.391 . S
C1195 C1199 1.376 . S
C1196 C1194 1.394 . S
C1196 C1197 1.369 . S
C1196 C1200 1.531 . S
C1197 C1196 1.369 . S
C1197 C1198 1.410 . S
C1197 C1205 1.503 . S
C1198 C1197 1.410 . S
C1198 C1199 1.392 . S
C1198 C1201 1.511 . S
C1199 C1195 1.376 . S
C1199 C1198 1.392 . S
C1199 H1211 0.929 . S
C1200 C1196 1.531 . S
C1200 H1212 0.960 . S
C1200 H1213 0.962 . S
C1200 H1214 0.960 . S
C1201 C1198 1.511 . S
C1201 H1215 0.961 . S
C1201 H1216 0.961 . S
C1201 H1217 0.961 . S
C1202 C1203 1.370 . S
C1202 C1204 1.363 . S
C1202 H1218 0.931 . S
C1203 C1202 1.370 . S
C1203 C1207 1.408 . S
C1204 C1202 1.363 . S
C1204 C1205 1.370 . S
C1204 C1208 1.524 . S
C1205 C1197 1.503 . S
C1205 C1204 1.370 . S
C1205 C1206 1.403 . S
C1206 C1205 1.403 . S
C1206 C1207 1.404 . S
C1206 C1209 1.539 . S
C1207 C1203 1.408 . S
C1207 C1206 1.404 . S
C1207 H1219 0.930 . S
C1208 C1204 1.524 . S
C1208 H1220 0.956 . S
C1208 H1221 0.961 . S
C1208 H1222 0.961 . S
C1209 C1206 1.539 . S
C1209 H1223 0.958 . S
C1209 H1224 0.961 . S
C1209 H1225 0.960 . S
H1210 C1194 0.931 . S
H1211 C1199 0.929 . S
H1212 C1200 0.960 . S
H1213 C1200 0.962 . S
H1214 C1200 0.960 . S
H1215 C1201 0.961 . S
H1216 C1201 0.961 . S
H1217 C1201 0.961 . S
H1218 C1202 0.931 . S
H1219 C1207 0.930 . S
H1220 C1208 0.956 . S
H1221 C1208 0.961 . S
H1222 C1208 0.961 . S
H1223 C1209 0.958 . S
H1224 C1209 0.961 . S
H1225 C1209 0.960 . S
C1226 C1227 1.391 . S
C1226 C1228 1.394 . S
C1226 H1242 0.931 . S
C1227 C1226 1.391 . S
C1227 C1231 1.376 . S
C1228 C1226 1.394 . S
C1228 C1229 1.369 . S
C1228 C1232 1.531 . S
C1229 C1228 1.369 . S
C1229 C1230 1.410 . S
C1229 C1237 1.516 . S
C1230 C1229 1.410 . S
C1230 C1231 1.392 . S
C1230 C1233 1.511 . S
C1231 C1227 1.376 . S
C1231 C1230 1.392 . S
C1231 H1243 0.929 . S
C1232 C1228 1.531 . S
C1232 H1244 0.960 . S
C1232 H1245 0.962 . S
C1232 H1246 0.960 . S
C1233 C1230 1.511 . S
C1233 H1247 0.961 . S
C1233 H1248 0.993 . S
C1233 H1249 0.961 . S
C1234 C1235 1.370 . S
C1234 C1236 1.363 . S
C1234 H1250 0.931 . S
C1235 C1234 1.370 . S
C1235 C1239 1.408 . S
C1236 C1234 1.363 . S
C1236 C1237 1.369 1_556 S
C1236 C1240 1.524 1_556 S
C1237 C1229 1.516 . S
C1237 C1236 1.369 1_554 S
C1237 C1238 1.392 1_554 S
C1238 C1237 1.392 1_556 S
C1238 C1239 1.404 . S
C1238 C1241 1.539 . S
C1239 C1235 1.408 . S
C1239 C1238 1.404 . S
C1239 H1251 0.930 . S
C1240 C1236 1.524 1_554 S
C1240 H1252 0.956 . S
C1240 H1253 0.961 . S
C1240 H1254 0.961 . S
C1241 C1238 1.539 . S
C1241 H1255 0.958 . S
C1241 H1256 0.961 . S
C1241 H1257 0.960 . S
H1242 C1226 0.931 . S
H1243 C1231 0.929 . S
H1244 C1232 0.960 . S
H1245 C1232 0.962 . S
H1246 C1232 0.960 . S
H1247 C1233 0.961 . S
H1248 C1233 0.993 . S
H1249 C1233 0.961 . S
H1250 C1234 0.931 . S
H1251 C1239 0.930 . S
H1252 C1240 0.956 . S
H1253 C1240 0.961 . S
H1254 C1240 0.961 . S
H1255 C1241 0.958 . S
H1256 C1241 0.961 . S
H1257 C1241 0.960 . S
C1258 C1259 1.391 . S
C1258 C1260 1.394 . S
C1258 H1274 0.931 . S
C1259 C1258 1.391 . S
C1259 C1263 1.376 . S
C1260 C1258 1.394 . S
C1260 C1261 1.369 . S
C1260 C1264 1.531 . S
C1261 C1260 1.369 . S
C1261 C1262 1.410 . S
C1261 C1269 1.503 . S
C1262 C1261 1.410 . S
C1262 C1263 1.392 . S
C1262 C1265 1.511 . S
C1263 C1259 1.376 . S
C1263 C1262 1.392 . S
C1263 H1275 0.929 . S
C1264 C1260 1.531 . S
C1264 H1276 0.960 . S
C1264 H1277 0.962 . S
C1264 H1278 0.960 . S
C1265 C1262 1.511 . S
C1265 H1279 0.961 . S
C1265 H1280 0.961 . S
C1265 H1281 0.961 . S
C1266 C1267 1.370 . S
C1266 C1268 1.363 . S
C1266 H1282 0.931 . S
C1267 C1266 1.370 . S
C1267 C1271 1.408 . S
C1268 C1266 1.363 . S
C1268 C1269 1.370 . S
C1268 C1272 1.524 . S
C1269 C1261 1.503 . S
C1269 C1268 1.370 . S
C1269 C1270 1.403 . S
C1270 C1269 1.403 . S
C1270 C1271 1.404 . S
C1270 C1273 1.539 . S
C1271 C1267 1.408 . S
C1271 C1270 1.404 . S
C1271 H1283 0.930 . S
C1272 C1268 1.524 . S
C1272 H1284 0.956 . S
C1272 H1285 0.961 . S
C1272 H1286 0.961 . S
C1273 C1270 1.539 . S
C1273 H1287 0.958 . S
C1273 H1288 0.961 . S
C1273 H1289 0.960 . S
H1274 C1258 0.931 . S
H1275 C1263 0.929 . S
H1276 C1264 0.960 . S
H1277 C1264 0.962 . S
H1278 C1264 0.960 . S
H1279 C1265 0.961 . S
H1280 C1265 0.961 . S
H1281 C1265 0.961 . S
H1282 C1266 0.931 . S
H1283 C1271 0.930 . S
H1284 C1272 0.956 . S
H1285 C1272 0.961 . S
H1286 C1272 0.961 . S
H1287 C1273 0.958 . S
H1288 C1273 0.961 . S
H1289 C1273 0.960 . S
C531 C514 1.255 . S
C523 C51 1.234 . S
C555 C125 1.532 . S
C563 C449 1.526 . S
C587 C217 2.498 . S
C595 C467 2.514 . S
C619 C291 1.641 . S
C627 C480 1.652 . S
C659 C488 0.705 . S
C651 C347 0.728 . S
C683 C421 1.005 . S
C691 C500 0.972 . S
C715 C143 2.377 . S
C723 C462 2.383 . S
C747 C199 1.372 . S
C755 C475 1.382 . S
C779 C273 0.650 . S
C787 C493 0.636 . S
C819 C499 1.499 . S
C811 C365 1.480 . S
C851 C519 1.879 . S
C843 C439 1.873 . S
C883 C454 2.348 . S
C875 C69 2.343 . S
C907 C63 1.426 . S
C915 C460 1.525 . S
C939 C137 1.585 . S
C947 C473 1.701 . S
C979 C487 1.418 . S
C971 C187 1.403 . S
C1003 C261 1.571 . S
C1011 C501 1.655 . S
C1043 C513 1.363 . S
C1035 C359 1.274 . S
C1075 C448 1.272 . S
C1067 C433 1.248 . S
C1107 C512 1.796 . S
C1099 C113 1.724 . S
C1131 C211 1.312 . S
C1139 C447 1.382 . S
C1171 C461 1.651 . S
C1163 C285 1.521 . S
C1195 C335 1.246 . S
C1203 C474 1.338 . S
C1227 C409 1.485 . S
C1235 C486 1.532 . S
C1259 C39 1.701 . S
C1267 C506 1.704 . S
