# Generated by pormake.
# Topology zzz, (3,6)-cn, num edge types: 1
# Building blocks:
#     Node 0, Type 0, BuildingBlock: BELTOD_clean_linker_0, # of connection points: 3
#     Node 1, Type 0, BuildingBlock: BELTOD_clean_linker_0, # of connection points: 3
#     Node 2, Type 0, BuildingBlock: BELTOD_clean_linker_0, # of connection points: 3
#     Node 3, Type 0, BuildingBlock: BELTOD_clean_linker_0, # of connection points: 3
#     Node 4, Type 0, BuildingBlock: BELTOD_clean_linker_0, # of connection points: 3
#     Node 5, Type 0, BuildingBlock: BELTOD_clean_linker_0, # of connection points: 3
#     Node 6, Type 0, BuildingBlock: BELTOD_clean_linker_0, # of connection points: 3
#     Node 7, Type 0, BuildingBlock: BELTOD_clean_linker_0, # of connection points: 3
#     Node 8, Type 1, BuildingBlock: FUNLAD_clean_sbu_0, # of connection points: 6
#     Node 9, Type 1, BuildingBlock: FUNLAD_clean_sbu_0, # of connection points: 6
#     Node 10, Type 1, BuildingBlock: FUNLAD_clean_sbu_0, # of connection points: 6
#     Node 11, Type 1, BuildingBlock: FUNLAD_clean_sbu_0, # of connection points: 6
#     Edge 12, Type (0, 1), BuildingBlock: CIFDUS_clean_linker_0, # of connection points: 2
#     Edge 13, Type (0, 1), BuildingBlock: CIFDUS_clean_linker_0, # of connection points: 2
#     Edge 14, Type (0, 1), BuildingBlock: CIFDUS_clean_linker_0, # of connection points: 2
#     Edge 15, Type (0, 1), BuildingBlock: CIFDUS_clean_linker_0, # of connection points: 2
#     Edge 16, Type (0, 1), BuildingBlock: CIFDUS_clean_linker_0, # of connection points: 2
#     Edge 17, Type (0, 1), BuildingBlock: CIFDUS_clean_linker_0, # of connection points: 2
#     Edge 18, Type (0, 1), BuildingBlock: CIFDUS_clean_linker_0, # of connection points: 2
#     Edge 19, Type (0, 1), BuildingBlock: CIFDUS_clean_linker_0, # of connection points: 2
#     Edge 20, Type (0, 1), BuildingBlock: CIFDUS_clean_linker_0, # of connection points: 2
#     Edge 21, Type (0, 1), BuildingBlock: CIFDUS_clean_linker_0, # of connection points: 2
#     Edge 22, Type (0, 1), BuildingBlock: CIFDUS_clean_linker_0, # of connection points: 2
#     Edge 23, Type (0, 1), BuildingBlock: CIFDUS_clean_linker_0, # of connection points: 2
#     Edge 24, Type (0, 1), BuildingBlock: CIFDUS_clean_linker_0, # of connection points: 2
#     Edge 25, Type (0, 1), BuildingBlock: CIFDUS_clean_linker_0, # of connection points: 2
#     Edge 26, Type (0, 1), BuildingBlock: CIFDUS_clean_linker_0, # of connection points: 2
#     Edge 27, Type (0, 1), BuildingBlock: CIFDUS_clean_linker_0, # of connection points: 2
#     Edge 28, Type (0, 1), BuildingBlock: CIFDUS_clean_linker_0, # of connection points: 2
#     Edge 29, Type (0, 1), BuildingBlock: CIFDUS_clean_linker_0, # of connection points: 2
#     Edge 30, Type (0, 1), BuildingBlock: CIFDUS_clean_linker_0, # of connection points: 2
#     Edge 31, Type (0, 1), BuildingBlock: CIFDUS_clean_linker_0, # of connection points: 2
#     Edge 32, Type (0, 1), BuildingBlock: CIFDUS_clean_linker_0, # of connection points: 2
#     Edge 33, Type (0, 1), BuildingBlock: CIFDUS_clean_linker_0, # of connection points: 2
#     Edge 34, Type (0, 1), BuildingBlock: CIFDUS_clean_linker_0, # of connection points: 2
#     Edge 35, Type (0, 1), BuildingBlock: CIFDUS_clean_linker_0, # of connection points: 2
# Relax obj value: 0.246
# Max RMSD: 0.220
# Mean RMSD: 0.182
data_MOF--net-zzz--node1-FUNLAD_clean_sbu_0--node2-BELTOD_clean_linker_0--edge1-CIFDUS_clean_linker_0
_symmetry_space_group_name_H-M    P1
_symmetry_Int_Tables_number       1
_symmetry_cell_setting            triclinic
loop_
_symmetry_equiv_pos_as_xyz
'x, y, z'
_cell_length_a     48.819318
_cell_length_b     53.510948
_cell_length_c     18.791878
_cell_angle_alpha  86.081139
_cell_angle_beta   86.281238
_cell_angle_gamma 92.163588
loop_
_atom_site_label
_atom_site_type_symbol
_atom_site_fract_x
_atom_site_fract_y
_atom_site_fract_z
_atom_type_partial_charge
P0 P 0.78698 0.39329 0.26696 0.0
H1 H 0.79039 0.38909 0.42336 0.0
H2 H 0.81732 0.41341 0.50266 0.0
H3 H 0.84476 0.4652 0.3236 0.0
H4 H 0.81821 0.44088 0.245 0.0
H5 H 0.7396 0.3705 0.20589 0.0
H6 H 0.70389 0.38894 0.13641 0.0
H7 H 0.73017 0.46262 0.1927 0.0
H8 H 0.76598 0.44421 0.26046 0.0
H9 H 0.8454 0.38313 0.25289 0.0
H10 H 0.78231 0.40358 0.11153 0.0
O11 O 0.78123 0.36419 0.30408 0.0
H12 H 0.88057 0.39447 0.15576 0.0
H13 H 0.81707 0.41441 0.01541 0.0
C14 C 0.80272 0.41295 0.32822 0.0
C15 C 0.80188 0.40589 0.40155 0.0
C16 C 0.8171 0.41987 0.44681 0.0
C17 C 0.83333 0.44102 0.41898 0.0
C18 C 0.83274 0.44879 0.34625 0.0
C19 C 0.81756 0.4349 0.30136 0.0
C20 C 0.75547 0.40589 0.23857 0.0
C21 C 0.73703 0.39052 0.20533 0.0
C22 C 0.71668 0.40113 0.16537 0.0
C23 C 0.7145 0.42732 0.1581 0.0
C24 C 0.73171 0.44244 0.196 0.0
C25 C 0.7521 0.43184 0.23554 0.0
C26 C 0.81122 0.39304 0.19034 0.0
C27 C 0.83902 0.38918 0.20054 0.0
C28 C 0.8591 0.39561 0.14505 0.0
C29 C 0.85148 0.40581 0.07871 0.0
C30 C 0.82348 0.40704 0.06658 0.0
C31 C 0.80352 0.40076 0.12191 0.0
P32 P 0.00706 0.76561 0.19421 0.0
H33 H 0.01564 0.77048 0.34483 0.0
H34 H 0.99377 0.79661 0.43072 0.0
H35 H 0.93012 0.81231 0.28662 0.0
H36 H 0.95218 0.78571 0.20057 0.0
H37 H 0.01181 0.75298 0.04525 0.0
H38 H 0.99605 0.71637 0.98639 0.0
H39 H 0.9534 0.68658 0.18427 0.0
H40 H 0.96875 0.72373 0.24285 0.0
H41 H 0.0526 0.80284 0.18907 0.0
H42 H 0.97897 0.79081 0.07892 0.0
O43 O 0.03572 0.7543 0.22525 0.0
H44 H 0.06138 0.84346 0.12135 0.0
H45 H 0.98739 0.83127 0.01185 0.0
C46 C 0.9856 0.77625 0.26626 0.0
C47 C 0.99637 0.77863 0.33278 0.0
C48 C 0.98375 0.79361 0.38206 0.0
C49 C 0.96033 0.80674 0.36512 0.0
C50 C 0.94826 0.80258 0.30083 0.0
C51 C 0.96077 0.7873 0.25184 0.0
C52 C 0.99082 0.7414 0.14796 0.0
C53 C 0.99818 0.7391 0.07541 0.0
C54 C 0.98918 0.71814 0.04174 0.0
C55 C 0.97336 0.69875 0.08069 0.0
C56 C 0.96546 0.70135 0.15301 0.0
C57 C 0.97413 0.72256 0.18638 0.0
C58 C 0.01567 0.79346 0.13709 0.0
C59 C 0.03866 0.8087 0.14921 0.0
C60 C 0.04348 0.83201 0.1112 0.0
C61 C 0.02521 0.84044 0.06086 0.0
C62 C 0.00218 0.82506 0.0491 0.0
C63 C 0.99736 0.80188 0.08727 0.0
P64 P 0.7511 0.05451 0.15732 0.0
H65 H 0.74944 0.07288 0.30073 0.0
H66 H 0.71686 0.06245 0.40311 0.0
H67 H 0.68869 0.99636 0.30486 0.0
H68 H 0.72235 0.00629 0.20418 0.0
H69 H 0.77338 0.05971 0.01087 0.0
H70 H 0.81603 0.04783 0.95081 0.0
H71 H 0.83958 0.01192 0.14934 0.0
H72 H 0.79636 0.02418 0.2097 0.0
H73 H 0.70244 0.08354 0.13672 0.0
H74 H 0.73649 0.01623 0.06112 0.0
O75 O 0.75759 0.08512 0.16322 0.0
H76 H 0.66049 0.07503 0.07605 0.0
H77 H 0.69512 0.00793 0.99934 0.0
C78 C 0.73796 0.0407 0.24384 0.0
C79 C 0.73713 0.05556 0.30243 0.0
C80 C 0.71814 0.04973 0.3607 0.0
C81 C 0.69935 0.02908 0.36105 0.0
C82 C 0.70261 0.01252 0.30634 0.0
C83 C 0.72195 0.01821 0.24846 0.0
C84 C 0.78139 0.04231 0.11438 0.0
C85 C 0.7874 0.04878 0.04132 0.0
C86 C 0.81184 0.0419 0.00685 0.0
C87 C 0.83119 0.02868 0.04492 0.0
C88 C 0.82511 0.02211 0.11843 0.0
C89 C 0.80038 0.02894 0.15295 0.0
C90 C 0.72282 0.05088 0.10176 0.0
C91 C 0.70119 0.06733 0.10539 0.0
C92 C 0.67723 0.06241 0.07095 0.0
C93 C 0.67449 0.04075 0.03328 0.0
C94 C 0.6965 0.02461 0.02867 0.0
C95 C 0.72036 0.02955 0.06303 0.0
P96 P 0.5074 0.70496 0.25679 0.0
H97 H 0.50806 0.70681 0.41172 0.0
H98 H 0.53343 0.68186 0.49602 0.0
H99 H 0.58884 0.66179 0.32252 0.0
H100 H 0.56328 0.687 0.23811 0.0
H101 H 0.4673 0.74078 0.21589 0.0
H102 H 0.4705 0.78072 0.14566 0.0
H103 H 0.55871 0.77605 0.11955 0.0
H104 H 0.55524 0.73542 0.19012 0.0
H105 H 0.5063 0.65089 0.28136 0.0
H106 H 0.50854 0.70476 0.09906 0.0
O107 O 0.47687 0.70266 0.30277 0.0
H108 H 0.50916 0.61678 0.2014 0.0
H109 H 0.51107 0.67061 0.01893 0.0
C110 C 0.53329 0.69811 0.31852 0.0
C111 C 0.52641 0.69802 0.39205 0.0
C112 C 0.54105 0.68375 0.44041 0.0
C113 C 0.56272 0.66931 0.41564 0.0
C114 C 0.57194 0.67238 0.34296 0.0
C115 C 0.55741 0.6869 0.29471 0.0
C116 C 0.5111 0.73549 0.20994 0.0
C117 C 0.48742 0.74845 0.19621 0.0
C118 C 0.48928 0.77135 0.15589 0.0
C119 C 0.5149 0.78176 0.12777 0.0
C120 C 0.53869 0.76852 0.14056 0.0
C121 C 0.53678 0.74547 0.18139 0.0
C122 C 0.50757 0.68035 0.19619 0.0
C123 C 0.50733 0.65536 0.22412 0.0
C124 C 0.50908 0.63591 0.17851 0.0
C125 C 0.51055 0.64112 0.10412 0.0
C126 C 0.50991 0.66613 0.07617 0.0
C127 C 0.50853 0.68565 0.12195 0.0
P128 P 0.22501 0.4895 0.18364 0.0
H129 H 0.22629 0.46135 0.05607 0.0
H130 H 0.20065 0.46761 0.95052 0.0
H131 H 0.18611 0.54365 0.00234 0.0
H132 H 0.21148 0.53701 0.10933 0.0
H133 H 0.25735 0.46805 0.29279 0.0
H134 H 0.2949 0.48428 0.35662 0.0
H135 H 0.29628 0.55403 0.22581 0.0
H136 H 0.2587 0.53706 0.15958 0.0
H137 H 0.17095 0.46592 0.21925 0.0
H138 H 0.21296 0.53611 0.25213 0.0
O139 O 0.22467 0.45823 0.19361 0.0
H140 H 0.12916 0.48015 0.27841 0.0
H141 H 0.17084 0.55095 0.30945 0.0
C142 C 0.22019 0.49849 0.0916 0.0
C143 C 0.21864 0.47974 0.04337 0.0
C144 C 0.20391 0.48338 0.9826 0.0
C145 C 0.19059 0.5059 0.96921 0.0
C146 C 0.19554 0.52586 0.01233 0.0
C147 C 0.21032 0.52217 0.07317 0.0
C148 C 0.25551 0.50119 0.22077 0.0
C149 C 0.26599 0.48666 0.27661 0.0
C150 C 0.28724 0.49614 0.31394 0.0
C151 C 0.29819 0.52065 0.29728 0.0
C152 C 0.2882 0.53509 0.23984 0.0
C153 C 0.26684 0.52541 0.2019 0.0
C154 C 0.19525 0.49963 0.2332 0.0
C155 C 0.17122 0.48435 0.23974 0.0
C156 C 0.14718 0.49274 0.27244 0.0
C157 C 0.14655 0.51683 0.29814 0.0
C158 C 0.17069 0.53223 0.29085 0.0
C159 C 0.19483 0.52371 0.2584 0.0
P160 P 0.1617 0.21943 0.32175 0.0
H161 H 0.19512 0.20468 0.19608 0.0
H162 H 0.18176 0.18252 0.09413 0.0
H163 H 0.09616 0.19159 0.16173 0.0
H164 H 0.11012 0.21631 0.25513 0.0
H165 H 0.16031 0.2431 0.45569 0.0
H166 H 0.14008 0.28129 0.49428 0.0
H167 H 0.12055 0.30127 0.27702 0.0
H168 H 0.14019 0.26254 0.23937 0.0
H169 H 0.17079 0.167 0.36223 0.0
H170 H 0.10693 0.21934 0.39528 0.0
O171 O 0.19507 0.21655 0.33314 0.0
H172 H 0.13904 0.13251 0.40952 0.0
H173 H 0.07501 0.18516 0.4401 0.0
C174 C 0.15358 0.21188 0.2336 0.0
C175 C 0.17355 0.20279 0.18636 0.0
C176 C 0.16569 0.18948 0.12881 0.0
C177 C 0.13764 0.18398 0.11963 0.0
C178 C 0.11796 0.19512 0.16448 0.0
C179 C 0.12591 0.20934 0.21945 0.0
C180 C 0.15144 0.2499 0.34502 0.0
C181 C 0.15206 0.25593 0.41622 0.0
C182 C 0.14056 0.27785 0.43811 0.0
C183 C 0.12847 0.2943 0.38884 0.0
C184 C 0.12921 0.28877 0.31657 0.0
C185 C 0.1406 0.2667 0.29485 0.0
C186 C 0.14154 0.19583 0.37704 0.0
C187 C 0.15022 0.17116 0.38177 0.0
C188 C 0.13185 0.15143 0.40741 0.0
C189 C 0.10433 0.15603 0.42776 0.0
C190 C 0.09608 0.18093 0.42575 0.0
C191 C 0.11449 0.2006 0.40057 0.0
P192 P 0.28695 0.0385 0.26279 0.0
H193 H 0.28407 0.06155 0.11758 0.0
H194 H 0.31297 0.0566 0.00892 0.0
H195 H 0.34602 0.9904 0.11092 0.0
H196 H 0.31566 0.99444 0.21594 0.0
H197 H 0.25046 0.06555 0.35375 0.0
H198 H 0.2061 0.05506 0.4167 0.0
H199 H 0.20235 0.98464 0.31739 0.0
H200 H 0.24711 0.99573 0.25241 0.0
H201 H 0.34272 0.05284 0.29123 0.0
H202 H 0.28263 0.99422 0.36656 0.0
O203 O 0.29217 0.0696 0.25904 0.0
H204 H 0.37659 0.03298 0.36358 0.0
H205 H 0.31664 0.974 0.43865 0.0
C206 C 0.29811 0.02875 0.17572 0.0
C207 C 0.2967 0.04538 0.11524 0.0
C208 C 0.31374 0.04276 0.05346 0.0
C209 C 0.33285 0.02365 0.05141 0.0
C210 C 0.33185 0.00547 0.10958 0.0
C211 C 0.3144 0.00782 0.17056 0.0
C212 C 0.2519 0.03165 0.29724 0.0
C213 C 0.23991 0.04807 0.34399 0.0
C214 C 0.21464 0.04187 0.38096 0.0
C215 C 0.20079 0.01883 0.37305 0.0
C216 C 0.21242 0.00259 0.32446 0.0
C217 C 0.23792 0.00891 0.28709 0.0
C218 C 0.30999 0.02539 0.32483 0.0
C219 C 0.33669 0.03589 0.32425 0.0
C220 C 0.35616 0.02428 0.36474 0.0
C221 C 0.34935 0.00175 0.40616 0.0
C222 C 0.32242 0.9914 0.40749 0.0
C223 C 0.30292 0.00304 0.36661 0.0
P224 P 0.42005 0.30324 0.28586 0.0
H225 H 0.39621 0.34791 0.22629 0.0
H226 H 0.40917 0.37556 0.1203 0.0
H227 H 0.46546 0.32103 0.04571 0.0
H228 H 0.45288 0.29375 0.15365 0.0
H229 H 0.38998 0.25458 0.29812 0.0
H230 H 0.40402 0.21231 0.33287 0.0
H231 H 0.48854 0.23981 0.32616 0.0
H232 H 0.47441 0.28197 0.29114 0.0
H233 H 0.41441 0.31322 0.43728 0.0
H234 H 0.47208 0.33232 0.25623 0.0
O235 O 0.38724 0.30367 0.3167 0.0
H236 H 0.44177 0.33931 0.51081 0.0
H237 H 0.4995 0.35811 0.32921 0.0
C238 C 0.42337 0.31869 0.19748 0.0
C239 C 0.41065 0.34151 0.18591 0.0
C240 C 0.41809 0.35735 0.12505 0.0
C241 C 0.43857 0.35068 0.07457 0.0
C242 C 0.44992 0.32693 0.08405 0.0
C243 C 0.44252 0.31114 0.14534 0.0
C244 C 0.43108 0.2715 0.29338 0.0
C245 C 0.41159 0.25142 0.3026 0.0
C246 C 0.41965 0.22725 0.32234 0.0
C247 C 0.44733 0.22287 0.3334 0.0
C248 C 0.46701 0.24275 0.31931 0.0
C249 C 0.45895 0.26683 0.29901 0.0
C250 C 0.44071 0.32149 0.34084 0.0
C251 C 0.43295 0.32298 0.41343 0.0
C252 C 0.44877 0.33765 0.45552 0.0
C253 C 0.47267 0.35091 0.42552 0.0
C254 C 0.48095 0.34845 0.35346 0.0
C255 C 0.46519 0.33378 0.31162 0.0
C256 C 0.02415 0.96476 0.80283 0.0
N257 N 0.99196 0.97413 0.60337 0.0
C258 C 0.00621 0.95311 0.59414 0.0
C259 C 0.9955 0.93394 0.55661 0.0
C260 C 0.97002 0.93647 0.52731 0.0
C261 C 0.95622 0.95879 0.53415 0.0
C262 C 0.96756 0.9775 0.57344 0.0
Zn263 Zn 0.00723 0.99778 0.67333 0.0
C264 C 0.9644 0.01002 0.78501 0.0
N265 N 0.04007 0.04096 0.83185 0.0
C266 C 0.0631 0.03741 0.86766 0.0
C267 C 0.02618 0.0624 0.83626 0.0
C268 C 0.03612 0.0819 0.87365 0.0
C269 C 0.06005 0.07922 0.91079 0.0
C270 C 0.07326 0.05622 0.90855 0.0
Zn271 Zn 0.0256 0.01694 0.7614 0.0
O272 O 0.01343 0.96602 0.74296 0.0
C273 C 0.06858 0.00521 0.65015 0.0
O274 O 0.03234 0.98482 0.8288 0.0
H275 H 0.00768 0.06488 0.80845 0.0
H276 H 0.02555 0.95075 0.61817 0.0
H277 H 0.07384 0.02019 0.86357 0.0
O278 O 0.04762 0.99579 0.62332 0.0
O279 O 0.06551 0.01517 0.70964 0.0
H280 H 0.95651 0.99431 0.58188 0.0
O281 O 0.01913 0.04857 0.69183 0.0
O282 O 0.00206 0.02964 0.60374 0.0
O283 O 0.98577 0.01838 0.81208 0.0
O284 O 0.96688 0.00054 0.72469 0.0
C285 C 0.01006 0.04966 0.63005 0.0
H286 H 0.00689 0.9171 0.55126 0.0
H287 H 0.93655 0.96132 0.51167 0.0
H288 H 0.02531 0.09916 0.87107 0.0
H289 H 0.09136 0.05272 0.93735 0.0
C290 C 0.48186 0.983 0.60333 0.0
N291 N 0.50513 0.05722 0.63388 0.0
C292 C 0.5077 0.06001 0.56117 0.0
C293 C 0.50273 0.08293 0.52531 0.0
C294 C 0.4952 0.10328 0.56454 0.0
C295 C 0.49308 0.1 0.63959 0.0
C296 C 0.49807 0.07667 0.67334 0.0
Zn297 Zn 0.51105 0.02259 0.68254 0.0
C298 C 0.46659 0.00549 0.79144 0.0
N299 N 0.52232 0.9484 0.77225 0.0
C300 C 0.52606 0.92728 0.73691 0.0
C301 C 0.52163 0.94761 0.84487 0.0
C302 C 0.52467 0.92515 0.88484 0.0
C303 C 0.5278 0.90285 0.85043 0.0
C304 C 0.52876 0.90416 0.77519 0.0
Zn305 Zn 0.51663 0.98288 0.72152 0.0
O306 O 0.48751 0.0062 0.60692 0.0
C307 C 0.56109 -0.00013 0.61283 0.0
O308 O 0.49126 0.96699 0.64745 0.0
H309 H 0.51841 0.96445 0.87236 0.0
H310 H 0.51342 0.04436 0.53074 0.0
H311 H 0.52652 0.92829 0.67916 0.0
O312 O 0.54756 0.01968 0.616 0.0
O313 O 0.55245 0.98018 0.65085 0.0
H314 H 0.49603 0.07401 0.73105 0.0
O315 O 0.54184 -0.0003 0.79455 0.0
O316 O 0.53486 0.03861 0.75824 0.0
O317 O 0.48081 0.98609 0.79052 0.0
O318 O 0.47449 0.0248 0.75096 0.0
C319 C 0.54628 0.02305 0.79958 0.0
H320 H 0.50494 0.08474 0.46744 0.0
H321 H 0.48708 0.11516 0.67184 0.0
H322 H 0.52445 0.92535 0.94245 0.0
H323 H 0.53091 0.88746 0.74623 0.0
C324 C 0.52092 0.46912 0.61551 0.0
N325 N 0.46006 0.52059 0.64235 0.0
C326 C 0.4611 0.52129 0.56975 0.0
C327 C 0.43782 0.52653 0.53325 0.0
C328 C 0.4132 0.53164 0.5715 0.0
C329 C 0.41316 0.5321 0.64633 0.0
C330 C 0.43684 0.52625 0.68087 0.0
Zn331 Zn 0.49404 0.50969 0.69198 0.0
C332 C 0.48339 0.46852 0.80197 0.0
N333 N 0.5668 0.48709 0.78756 0.0
C334 C 0.56951 0.46188 0.79709 0.0
C335 C 0.58301 0.50339 0.82033 0.0
C336 C 0.60181 0.49439 0.86792 0.0
C337 C 0.60389 0.46839 0.88169 0.0
C338 C 0.58807 0.45212 0.84376 0.0
Zn339 Zn 0.5335 0.499 0.73627 0.0
O340 O 0.50008 0.4825 0.61844 0.0
C341 C 0.54434 0.53949 0.62542 0.0
O342 O 0.5395 0.47183 0.65898 0.0
H343 H 0.58039 0.52335 0.81245 0.0
H344 H 0.47984 0.51704 0.53995 0.0
H345 H 0.55625 0.44917 0.77135 0.0
O346 O 0.51851 0.53591 0.62392 0.0
O347 O 0.55756 0.52646 0.66962 0.0
H348 H 0.43651 0.52574 0.73855 0.0
O349 O 0.52652 0.5261 0.81289 0.0
O350 O 0.48841 0.53703 0.7658 0.0
O351 O 0.50925 0.47202 0.80155 0.0
O352 O 0.46994 0.48266 0.76108 0.0
C353 C 0.50589 0.53991 0.812 0.0
H354 H 0.43896 0.52546 0.47584 0.0
H355 H 0.39489 0.53639 0.6782 0.0
H356 H 0.61353 0.50762 0.89627 0.0
H357 H 0.58939 0.43198 0.85164 0.0
C358 C 0.03422 0.5217 0.59887 0.0
N359 N 0.03134 0.44467 0.64559 0.0
C360 C 0.0327 0.44282 0.57359 0.0
C361 C 0.04713 0.42375 0.54317 0.0
C362 C 0.06035 0.40642 0.58722 0.0
C363 C 0.05806 0.40842 0.66151 0.0
C364 C 0.04338 0.42778 0.68971 0.0
Zn365 Zn 0.01351 0.47492 0.68678 0.0
C366 C 0.04774 0.49814 0.78995 0.0
N367 N 0.97876 0.54099 0.76575 0.0
C368 C 0.97787 0.56331 0.72671 0.0
C369 C 0.9711 0.53905 0.83695 0.0
C370 C 0.96294 0.55994 0.87174 0.0
C371 C 0.96392 0.58363 0.83429 0.0
C372 C 0.97082 0.58499 0.76014 0.0
Zn373 Zn 0.9956 0.51018 0.72216 0.0
O374 O 0.03438 0.49798 0.60545 0.0
C375 C 0.96232 0.48733 0.61633 0.0
O376 O 0.01987 0.53345 0.64326 0.0
H377 H 0.97231 0.52151 0.86825 0.0
H378 H 0.02316 0.45655 0.5394 0.0
H379 H 0.98381 0.56464 0.67014 0.0
O380 O 0.98047 0.47106 0.62227 0.0
O381 O 0.96328 0.50674 0.65188 0.0
H382 H 0.04207 0.42962 0.74677 0.0
O383 O 0.9721 0.48591 0.79808 0.0
O384 O 0.99188 0.45158 0.76921 0.0
O385 O 0.0281 0.51306 0.79168 0.0
O386 O 0.04691 0.47991 0.75024 0.0
C387 C 0.9743 0.46238 0.80785 0.0
H388 H 0.04861 0.42306 0.48559 0.0
H389 H 0.06761 0.39523 0.69748 0.0
H390 H 0.95687 0.55753 0.92829 0.0
H391 H 0.97211 0.60272 0.72854 0.0
H392 H 0.18971 0.02534 0.51407 0.0
H393 H 0.15329 0.99665 0.33142 0.0
H394 H 0.10962 0.98827 0.40241 0.0
H395 H 0.08103 0.99164 0.51444 0.0
H396 H 0.1177 0.02163 0.69533 0.0
H397 H 0.16191 0.0271 0.6267 0.0
C398 C 0.1722 0.01734 0.48957 0.0
C399 C 0.17473 0.01192 0.41714 0.0
C400 C 0.14713 0.01289 0.53038 0.0
C401 C 0.15199 0.00095 0.387 0.0
C402 C 0.12695 0.99629 0.4275 0.0
C403 C 0.09875 0.99913 0.53915 0.0
C404 C 0.09593 0.00628 0.61008 0.0
C405 C 0.12418 0.00252 0.499 0.0
C406 C 0.11916 0.01602 0.64095 0.0
C407 C 0.1445 0.0192 0.60167 0.0
H408 H 0.4796 0.21457 0.44375 0.0
H409 H 0.43214 0.17603 0.29591 0.0
H410 H 0.44313 0.13557 0.35373 0.0
H411 H 0.46526 0.1113 0.44846 0.0
H412 H 0.51209 0.1501 0.59724 0.0
H413 H 0.50226 0.19037 0.53699 0.0
C414 C 0.47201 0.19729 0.42352 0.0
C415 C 0.45526 0.19826 0.36531 0.0
C416 C 0.47812 0.1742 0.45756 0.0
C417 C 0.44503 0.17575 0.34073 0.0
C418 C 0.45133 0.15265 0.37372 0.0
C419 C 0.47353 0.12857 0.46723 0.0
C420 C 0.48939 0.1277 0.52726 0.0
C421 C 0.4677 0.15166 0.43249 0.0
C422 C 0.49959 0.15026 0.55166 0.0
C423 C 0.4941 0.17328 0.51701 0.0
H424 H 0.29918 0.51584 0.44118 0.0
H425 H 0.34564 0.54786 0.25155 0.0
H426 H 0.38429 0.55789 0.32301 0.0
H427 H 0.40663 0.55255 0.43644 0.0
H428 H 0.36117 0.51545 0.62166 0.0
H429 H 0.3203 0.51298 0.55524 0.0
C430 C 0.31776 0.52508 0.41544 0.0
C431 C 0.31981 0.53059 0.34099 0.0
C432 C 0.34012 0.52984 0.45617 0.0
C433 C 0.3436 0.54333 0.30875 0.0
C434 C 0.36576 0.54888 0.34952 0.0
C435 C 0.38783 0.54389 0.46243 0.0
C436 C 0.38733 0.53391 0.534 0.0
C437 C 0.36457 0.54138 0.42283 0.0
C438 C 0.36238 0.52355 0.56713 0.0
C439 C 0.33894 0.52184 0.52886 0.0
H440 H 0.14339 0.32581 0.4891 0.0
H441 H 0.07983 0.31174 0.34572 0.0
H442 H 0.05367 0.34562 0.39271 0.0
H443 H 0.04758 0.37771 0.47897 0.0
H444 H 0.11051 0.39105 0.62455 0.0
H445 H 0.13772 0.35843 0.57378 0.0
C446 C 0.12377 0.33007 0.46828 0.0
C447 C 0.11365 0.31619 0.41393 0.0
C448 C 0.1085 0.34921 0.49665 0.0
C449 C 0.08838 0.32232 0.38675 0.0
C450 C 0.07324 0.34155 0.4141 0.0
C451 C 0.06737 0.37365 0.49912 0.0
C452 C 0.07691 0.38671 0.55573 0.0
C453 C 0.08295 0.35492 0.46958 0.0
C454 C 0.10246 0.381 0.58181 0.0
C455 C 0.11814 0.36247 0.55247 0.0
H456 H 0.84113 0.01255 0.91103 0.0
H457 H 0.88215 0.03348 0.09613 0.0
H458 H 0.92672 0.02904 0.03256 0.0
H459 H 0.9541 0.02139 0.92269 0.0
H460 H 0.91342 0.00065 0.73688 0.0
H461 H 0.86869 0.00321 0.80217 0.0
C462 C 0.85983 0.01613 0.93751 0.0
C463 C 0.8582 0.02343 0.00835 0.0
C464 C 0.88546 0.01384 0.90025 0.0
C465 C 0.88268 0.02756 0.0421 0.0
C466 C 0.90823 0.02526 0.0055 0.0
C467 C 0.93547 0.01742 0.8963 0.0
C468 C 0.93717 0.01105 0.82463 0.0
C469 C 0.90986 0.01877 0.93427 0.0
C470 C 0.91276 0.00569 0.7918 0.0
C471 C 0.88717 0.00714 0.82915 0.0
H472 H 0.54509 0.79538 0.00209 0.0
H473 H 0.48753 0.8234 0.15855 0.0
H474 H 0.48599 0.86267 0.08574 0.0
H475 H 0.49944 0.88842 0.97667 0.0
H476 H 0.55882 0.86227 0.82147 0.0
H477 H 0.56072 0.8227 0.8941 0.0
C478 C 0.53253 0.81023 0.0206 0.0
C479 C 0.51624 0.80633 0.08541 0.0
C480 C 0.53175 0.83295 0.97835 0.0
C481 C 0.49989 0.82571 0.10836 0.0
C482 C 0.49904 0.84822 0.06685 0.0
C483 C 0.51324 0.87434 0.959 0.0
C484 C 0.52908 0.87853 0.89367 0.0
C485 C 0.51465 0.85193 0.00153 0.0
C486 C 0.54614 0.85955 0.87105 0.0
C487 C 0.54742 0.83697 0.91289 0.0
H488 H 0.66216 0.41231 0.13344 0.0
H489 H 0.72624 0.46814 0.06458 0.0
H490 H 0.69765 0.48607 0.97418 0.0
H491 H 0.65516 0.48493 0.91126 0.0
H492 H 0.59112 0.42901 0.97985 0.0
H493 H 0.61926 0.41173 0.07219 0.0
C494 C 0.66987 0.42837 0.09857 0.0
C495 C 0.69623 0.43891 0.10614 0.0
C496 C 0.65348 0.43841 0.04591 0.0
C497 C 0.70582 0.4599 0.06092 0.0
C498 C 0.68959 0.47005 0.00868 0.0
C499 C 0.64727 0.46911 0.9468 0.0
C500 C 0.62119 0.45817 0.93807 0.0
C501 C 0.66346 0.45936 0.00035 0.0
C502 C 0.61138 0.4375 0.98429 0.0
C503 C 0.62735 0.4277 0.03758 0.0
H504 H 0.95269 0.69131 0.95196 0.0
H505 H 0.98395 0.6524 0.13633 0.0
H506 H 0.98264 0.61321 0.07739 0.0
H507 H 0.97714 0.59126 0.97026 0.0
H508 H 0.94282 0.62864 0.78727 0.0
H509 H 0.9416 0.66743 0.84841 0.0
C510 C 0.95883 0.67412 0.97936 0.0
C511 C 0.96845 0.67469 0.04825 0.0
C512 C 0.95801 0.65158 0.94509 0.0
C513 C 0.97622 0.65235 0.08359 0.0
C514 C 0.9757 0.63 0.04968 0.0
C515 C 0.96851 0.6075 0.94396 0.0
C516 C 0.96023 0.60676 0.87361 0.0
C517 C 0.96717 0.62953 0.97997 0.0
C518 C 0.94995 0.62858 0.84062 0.0
C519 C 0.94902 0.65079 0.87581 0.0
H520 H 0.06323 0.15375 0.53355 0.0
H521 H 0.09961 0.11095 0.36803 0.0
H522 H 0.06849 0.07522 0.40736 0.0
H523 H 0.035 0.05459 0.49793 0.0
H524 H 0.00072 0.09676 0.66698 0.0
H525 H 0.02572 0.13476 0.61461 0.0
C526 C 0.064 0.13681 0.50505 0.0
C527 C 0.0841 0.13493 0.44876 0.0
C528 C 0.04602 0.11635 0.52786 0.0
C529 C 0.08489 0.1127 0.41289 0.0
C530 C 0.06688 0.09233 0.43478 0.0
C531 C 0.03208 0.07238 0.52127 0.0
C532 C 0.01586 0.07309 0.5855 0.0
C533 C 0.04781 0.09374 0.49328 0.0
C534 C 0.01283 0.09599 0.61681 0.0
C535 C 0.02748 0.11758 0.58757 0.0
H536 H 0.40236 0.99462 0.36304 0.0
H537 H 0.34352 0.98166 0.54441 0.0
H538 H 0.38004 0.96827 0.61965 0.0
H539 H 0.42954 0.96789 0.6381 0.0
H540 H 0.48836 0.98553 0.45935 0.0
H541 H 0.4512 0.98899 0.37831 0.0
C542 C 0.39752 0.98861 0.4189 0.0
C543 C 0.37042 0.98962 0.44853 0.0
C544 C 0.4187 0.98172 0.46215 0.0
C545 C 0.36425 0.98115 0.52043 0.0
C546 C 0.38515 0.97362 0.56355 0.0
C547 C 0.43409 0.97136 0.58089 0.0
C548 C 0.46142 0.97601 0.55396 0.0
C549 C 0.41257 0.97478 0.53561 0.0
C550 C 0.46737 0.98139 0.48044 0.0
C551 C 0.44614 0.98372 0.43447 0.0
H552 H 0.49088 0.39814 0.38209 0.0
H553 H 0.48745 0.34392 0.56349 0.0
H554 H 0.50733 0.37534 0.63617 0.0
H555 H 0.52039 0.41959 0.65136 0.0
H556 H 0.51954 0.47413 0.47215 0.0
H557 H 0.50763 0.44111 0.39428 0.0
C558 C 0.49511 0.39301 0.43703 0.0
C559 C 0.48764 0.3688 0.4675 0.0
C560 C 0.50594 0.41126 0.47862 0.0
C561 C 0.49275 0.36256 0.53916 0.0
C562 C 0.5042 0.38047 0.58058 0.0
C563 C 0.51853 0.42395 0.59466 0.0
C564 C 0.52126 0.44897 0.56667 0.0
C565 C 0.51022 0.40506 0.55136 0.0
C566 C 0.51793 0.45482 0.49398 0.0
C567 C 0.51085 0.43602 0.44985 0.0
H568 H 0.14203 0.54288 0.41794 0.0
H569 H 0.09366 0.50922 0.26246 0.0
H570 H 0.05195 0.51336 0.33847 0.0
H571 H 0.03125 0.51835 0.4587 0.0
H572 H 0.07923 0.55138 0.61491 0.0
H573 H 0.11898 0.55678 0.52785 0.0
C574 C 0.1223 0.53722 0.39949 0.0
C575 C 0.12107 0.52496 0.33575 0.0
C576 C 0.09835 0.53958 0.44365 0.0
C577 C 0.09527 0.51787 0.31257 0.0
C578 C 0.07137 0.52036 0.35576 0.0
C579 C 0.05007 0.52783 0.47224 0.0
C580 C 0.05257 0.53454 0.54236 0.0
C581 C 0.0729 0.52999 0.42288 0.0
C582 C 0.07694 0.54647 0.56055 0.0
C583 C 0.09974 0.54913 0.51118 0.0
H584 H 0.0202 0.85174 0.92014 0.0
H585 H 0.03983 0.88513 0.11396 0.0
H586 H 0.04307 0.92675 0.0504 0.0
H587 H 0.0372 0.95388 0.94088 0.0
H588 H 0.01604 0.91953 0.74914 0.0
H589 H 0.01631 0.87821 0.81092 0.0
C590 C 0.02516 0.86813 0.9485 0.0
C591 C 0.02952 0.86541 0.02163 0.0
C592 C 0.02653 0.8919 0.91208 0.0
C593 C 0.03652 0.88675 0.05742 0.0
C594 C 0.03819 0.91055 0.02125 0.0
C595 C 0.03287 0.93733 0.91262 0.0
C596 C 0.02637 0.93987 0.84073 0.0
C597 C 0.0328 0.9134 0.94874 0.0
C598 C 0.02085 0.91821 0.80472 0.0
C599 C 0.02102 0.89449 0.83991 0.0
H600 H 0.64308 0.07194 0.95534 0.0
H601 H 0.64752 0.99518 0.03925 0.0
H602 H 0.60666 0.98348 0.97917 0.0
H603 H 0.57173 0.99435 0.89693 0.0
H604 H 0.56708 0.07084 0.81067 0.0
H605 H 0.60555 0.08349 0.87926 0.0
C606 C 0.63485 0.05274 0.96119 0.0
C607 C 0.64853 0.03437 0.00072 0.0
C608 C 0.61133 0.04611 0.92631 0.0
C609 C 0.63771 0.00954 0.00774 0.0
C610 C 0.61426 0.00286 0.97382 0.0
C611 C 0.5789 0.01387 0.89359 0.0
C612 C 0.56673 0.03157 0.84824 0.0
C613 C 0.60123 0.02089 0.93196 0.0
C614 C 0.57613 0.05681 0.8451 0.0
C615 C 0.59822 0.06403 0.884 0.0
H616 H 0.48049 0.63286 0.9911 0.0
H617 H 0.54599 0.60307 0.11005 0.0
H618 H 0.55021 0.56884 0.03069 0.0
H619 H 0.53556 0.54771 0.92671 0.0
H620 H 0.46918 0.57706 0.80958 0.0
H621 H 0.46504 0.61111 0.88896 0.0
C622 C 0.49576 0.61892 0.99925 0.0
C623 C 0.51296 0.62046 0.05595 0.0
C624 C 0.49787 0.59921 0.95392 0.0
C625 C 0.53242 0.60212 0.06685 0.0
C626 C 0.53488 0.58262 0.02144 0.0
C627 C 0.52014 0.56152 0.91866 0.0
C628 C 0.50276 0.55985 0.86223 0.0
C629 C 0.51773 0.58099 0.96476 0.0
C630 C 0.4828 0.57784 0.85273 0.0
C631 C 0.48044 0.59738 0.89796 0.0
H632 H 0.90024 0.38848 0.02493 0.0
H633 H 0.84925 0.45266 0.0175 0.0
H634 H 0.88311 0.47576 0.93509 0.0
H635 H 0.92677 0.47804 0.86564 0.0
H636 H 0.97811 0.41416 0.86645 0.0
H637 H 0.94465 0.39064 0.95138 0.0
C638 C 0.89666 0.40749 0.00495 0.0
C639 C 0.87219 0.41877 0.02655 0.0
C640 C 0.91626 0.42074 0.95689 0.0
C641 C 0.86769 0.44341 0.00052 0.0
C642 C 0.88711 0.45672 0.95384 0.0
C643 C 0.93082 0.45901 0.88462 0.0
C644 C 0.95497 0.44792 0.86033 0.0
C645 C 0.91141 0.4456 0.9318 0.0
C646 C 0.95966 0.42312 0.88463 0.0
C647 C 0.94054 0.40969 0.93306 0.0
H648 H 0.08753 0.17798 0.06111 0.0
H649 H 0.16748 0.14558 0.06407 0.0
H650 H 0.15129 0.11205 0.99537 0.0
H651 H 0.11366 0.09004 0.9415 0.0
H652 H 0.0314 0.11699 0.97048 0.0
H653 H 0.04932 0.15373 0.02218 0.0
C654 C 0.10155 0.16342 0.04933 0.0
C655 C 0.12882 0.16478 0.06993 0.0
C656 C 0.09155 0.14273 0.01558 0.0
C657 C 0.14653 0.14593 0.04886 0.0
C658 C 0.13715 0.12623 0.01028 0.0
C659 C 0.09938 0.10353 0.96021 0.0
C660 C 0.07111 0.10059 0.94946 0.0
C661 C 0.1095 0.12411 0.99485 0.0
C662 C 0.05338 0.11884 0.97418 0.0
C663 C 0.06356 0.13994 0.00488 0.0
H664 H 0.35906 0.98396 0.99553 0.0
H665 H 0.35897 0.06491 0.97723 0.0
H666 H 0.39889 0.06641 0.89259 0.0
H667 H 0.43618 0.04505 0.82952 0.0
H668 H 0.43852 0.96444 0.85707 0.0
H669 H 0.39615 0.96272 0.93363 0.0
C670 C 0.36776 0.00201 0.9737 0.0
C671 C 0.35562 0.02424 0.99355 0.0
C672 C 0.39161 0.00289 0.92712 0.0
C673 C 0.36716 0.04733 0.96252 0.0
C674 C 0.39038 0.04829 0.91454 0.0
C675 C 0.42737 0.02712 0.85215 0.0
C676 C 0.44067 0.00495 0.8377 0.0
C677 C 0.40309 0.02623 0.89734 0.0
C678 C 0.42893 0.98186 0.86765 0.0
C679 C 0.40459 0.98082 0.91133 0.0
H680 H 0.41148 0.38528 0.99358 0.0
H681 H 0.4925 0.35936 0.02989 0.0
H682 H 0.51298 0.39296 0.94765 0.0
H683 H 0.50845 0.43089 0.87124 0.0
H684 H 0.42814 0.45821 0.83472 0.0
H685 H 0.40686 0.42307 0.9123 0.0
C686 C 0.43361 0.38695 0.98335 0.0
C687 C 0.45035 0.36964 0.01796 0.0
C688 C 0.44543 0.40675 0.93678 0.0
C689 C 0.47899 0.37198 0.00324 0.0
C690 C 0.4908 0.39142 0.95677 0.0
C691 C 0.48626 0.42928 0.88019 0.0
C692 C 0.46992 0.44735 0.84785 0.0
C693 C 0.47427 0.40909 0.92422 0.0
C694 C 0.44119 0.44465 0.85931 0.0
C695 C 0.42904 0.42455 0.90358 0.0
H696 H 0.1405 0.52515 0.99262 0.0
H697 H 0.18937 0.48724 0.83692 0.0
H698 H 0.14908 0.48118 0.76828 0.0
H699 H 0.09945 0.48429 0.75696 0.0
H700 H 0.05105 0.52352 0.91033 0.0
H701 H 0.09189 0.53155 0.97561 0.0
C702 C 0.14261 0.5162 0.9426 0.0
C703 C 0.16797 0.50662 0.92004 0.0
C704 C 0.11937 0.51263 0.9038 0.0
C705 C 0.17007 0.4946 0.85579 0.0
C706 C 0.14703 0.49107 0.81667 0.0
C707 C 0.09785 0.49452 0.80487 0.0
C708 C 0.07225 0.50293 0.82968 0.0
C709 C 0.12145 0.49945 0.84118 0.0
C710 C 0.07053 0.51667 0.89071 0.0
C711 C 0.09386 0.52132 0.92784 0.0
H712 H 0.94908 0.8539 0.31671 0.0
H713 H 0.95392 0.80675 0.51076 0.0
H714 H 0.95303 0.84361 0.58062 0.0
H715 H 0.95912 0.88927 0.58327 0.0
H716 H 0.95579 0.93655 0.38938 0.0
H717 H 0.94714 0.89958 0.32249 0.0
C718 C 0.94892 0.85159 0.37453 0.0
C719 C 0.95196 0.82766 0.4085 0.0
C720 C 0.94906 0.87292 0.41407 0.0
C721 C 0.95199 0.82502 0.4834 0.0
C722 C 0.95157 0.84608 0.52328 0.0
C723 C 0.95581 0.89141 0.52666 0.0
C724 C 0.9584 0.91536 0.49075 0.0
C725 C 0.95144 0.87014 0.48874 0.0
C726 C 0.95388 0.91819 0.41776 0.0
C727 C 0.94915 0.89707 0.37961 0.0
H728 H 0.67307 0.98672 0.43011 0.0
H729 H 0.66832 0.06724 0.40329 0.0
H730 H 0.6257 0.06511 0.47788 0.0
H731 H 0.58895 0.0408 0.54793 0.0
H732 H 0.59248 0.96035 0.57702 0.0
H733 H 0.63601 0.96207 0.50368 0.0
C734 C 0.66274 0.00379 0.44077 0.0
C735 C 0.67428 0.02713 0.41152 0.0
C736 C 0.63778 0.00248 0.48356 0.0
C737 C 0.6605 0.04904 0.42626 0.0
C738 C 0.63585 0.04786 0.46838 0.0
C739 C 0.59912 0.02356 0.53817 0.0
C740 C 0.58728 0.00046 0.56761 0.0
C741 C 0.62421 0.02472 0.49685 0.0
C742 C 0.60104 0.9784 0.55486 0.0
C743 C 0.62598 0.97938 0.51298 0.0
H744 H 0.56667 0.62175 0.37847 0.0
H745 H 0.57512 0.66754 0.55653 0.0
H746 H 0.57551 0.6298 0.63787 0.0
H747 H 0.56483 0.58425 0.6602 0.0
H748 H 0.55182 0.53961 0.48228 0.0
H749 H 0.56249 0.57625 0.39856 0.0
C750 C 0.56969 0.62352 0.43462 0.0
C751 C 0.57078 0.64743 0.46146 0.0
C752 C 0.56875 0.60183 0.48116 0.0
C753 C 0.57408 0.64934 0.53469 0.0
C754 C 0.57417 0.62776 0.5812 0.0
C755 C 0.5654 0.58252 0.60293 0.0
C756 C 0.55797 0.55942 0.57683 0.0
C757 C 0.57026 0.60395 0.55546 0.0
C758 C 0.55788 0.55727 0.50295 0.0
C759 C 0.56374 0.57822 0.4553 0.0
H760 H 0.88682 0.45213 0.3832 0.0
H761 H 0.82442 0.45669 0.55439 0.0
H762 H 0.85864 0.47455 0.62884 0.0
H763 H 0.90723 0.48614 0.64736 0.0
H764 H 0.9694 0.4779 0.47802 0.0
H765 H 0.9343 0.4648 0.39967 0.0
C766 C 0.8806 0.45747 0.43634 0.0
C767 C 0.85318 0.45331 0.46322 0.0
C768 C 0.90037 0.46714 0.47887 0.0
C769 C 0.84549 0.4597 0.53278 0.0
C770 C 0.86501 0.46995 0.57515 0.0
C771 C 0.91283 0.48197 0.59276 0.0
C772 C 0.9406 0.48319 0.56767 0.0
C773 C 0.89261 0.47343 0.54907 0.0
C774 C 0.94799 0.4772 0.49774 0.0
C775 C 0.92801 0.46961 0.45323 0.0
loop_
_geom_bond_atom_site_label_1
_geom_bond_atom_site_label_2
_geom_bond_distance
_geom_bond_site_symmetry_2
_ccdc_geom_bond_type
P0 O11 1.490 . S
P0 C14 1.812 . S
P0 C20 1.803 . S
P0 C26 1.819 . S
H1 C15 0.941 . S
H2 C16 0.939 . S
H3 C18 0.940 . S
H4 C19 0.940 . S
H5 C21 0.939 . S
H6 C22 0.942 . S
H7 C24 0.940 . S
H8 C25 0.939 . S
H9 C27 0.941 . S
H10 C31 0.939 . S
O11 P0 1.490 . S
H12 C28 0.939 . S
H13 C30 0.938 1_556 S
C14 P0 1.812 . S
C14 C15 1.389 . S
C14 C19 1.391 . S
C15 H1 0.941 . S
C15 C14 1.389 . S
C15 C16 1.397 . S
C16 H2 0.939 . S
C16 C15 1.397 . S
C16 C17 1.378 . S
C17 C16 1.378 . S
C17 C18 1.378 . S
C18 H3 0.940 . S
C18 C17 1.378 . S
C18 C19 1.396 . S
C19 H4 0.940 . S
C19 C14 1.391 . S
C19 C18 1.396 . S
C20 P0 1.803 . S
C20 C21 1.378 . S
C20 C25 1.400 . S
C21 H5 0.939 . S
C21 C20 1.378 . S
C21 C22 1.361 . S
C22 H6 0.942 . S
C22 C21 1.361 . S
C22 C23 1.369 . S
C23 C22 1.369 . S
C23 C24 1.404 . S
C24 H7 0.940 . S
C24 C23 1.404 . S
C24 C25 1.389 . S
C25 H8 0.939 . S
C25 C20 1.400 . S
C25 C24 1.389 . S
C26 P0 1.819 . S
C26 C27 1.391 . S
C26 C31 1.391 . S
C27 H9 0.941 . S
C27 C26 1.391 . S
C27 C28 1.396 . S
C28 H12 0.939 . S
C28 C27 1.396 . S
C28 C29 1.393 1_554 S
C29 C28 1.393 1_556 S
C29 C30 1.385 1_556 S
C30 H13 0.938 1_554 S
C30 C29 1.385 1_554 S
C30 C31 1.390 . S
C31 H10 0.939 . S
C31 C26 1.391 . S
C31 C30 1.390 . S
P32 O43 1.489 . S
P32 C46 1.801 1_556 S
P32 C52 1.806 . S
P32 C58 1.827 . S
H33 C47 0.941 . S
H34 C48 0.939 . S
H35 C50 0.940 . S
H36 C51 0.940 . S
H37 C53 0.939 . S
H38 C54 0.942 . S
H39 C56 0.940 1_554 S
H40 C57 0.939 . S
H41 C59 0.941 . S
H42 C63 0.939 . S
O43 P32 1.489 . S
H44 C60 0.939 . S
H45 C62 0.940 . S
C46 P32 1.801 1_554 S
C46 C47 1.389 . S
C46 C51 1.391 . S
C47 H33 0.941 . S
C47 C46 1.389 . S
C47 C48 1.397 . S
C48 H34 0.939 . S
C48 C47 1.397 . S
C48 C49 1.378 . S
C49 C48 1.378 . S
C49 C50 1.378 . S
C50 H35 0.940 . S
C50 C49 1.378 . S
C50 C51 1.396 . S
C51 H36 0.940 . S
C51 C46 1.391 . S
C51 C50 1.396 . S
C52 P32 1.806 . S
C52 C53 1.378 . S
C52 C57 1.400 1_556 S
C53 H37 0.939 . S
C53 C52 1.378 . S
C53 C54 1.361 . S
C54 H38 0.942 . S
C54 C53 1.361 . S
C54 C55 1.369 . S
C55 C54 1.369 . S
C55 C56 1.404 . S
C56 H39 0.940 1_556 S
C56 C55 1.404 . S
C56 C57 1.389 1_556 S
C57 H40 0.939 . S
C57 C52 1.400 1_554 S
C57 C56 1.389 1_554 S
C58 P32 1.827 . S
C58 C59 1.391 . S
C58 C63 1.391 . S
C59 H41 0.941 . S
C59 C58 1.391 . S
C59 C60 1.396 . S
C60 H44 0.939 . S
C60 C59 1.396 . S
C60 C61 1.397 . S
C61 C60 1.397 . S
C61 C62 1.385 . S
C62 H45 0.940 . S
C62 C61 1.385 . S
C62 C63 1.388 . S
C63 H42 0.939 . S
C63 C58 1.391 . S
C63 C62 1.388 . S
P64 O75 1.490 . S
P64 C78 1.812 . S
P64 C84 1.803 . S
P64 C90 1.819 . S
H65 C79 0.941 . S
H66 C80 0.939 . S
H67 C82 0.940 . S
H68 C83 0.951 . S
H69 C85 0.939 . S
H70 C86 0.942 1_556 S
H71 C88 0.940 . S
H72 C89 0.957 . S
H73 C91 0.941 . S
H74 C95 0.928 1_565 S
O75 P64 1.490 . S
H76 C92 0.939 . S
H77 C94 0.940 . S
C78 P64 1.812 . S
C78 C79 1.389 . S
C78 C83 1.375 1_545 S
C79 H65 0.941 . S
C79 C78 1.389 . S
C79 C80 1.397 . S
C80 H66 0.939 . S
C80 C79 1.397 . S
C80 C81 1.378 . S
C81 C80 1.378 . S
C81 C82 1.378 1_545 S
C82 H67 0.940 . S
C82 C81 1.378 1_565 S
C82 C83 1.401 . S
C83 H68 0.951 . S
C83 C78 1.375 1_565 S
C83 C82 1.401 . S
C84 P64 1.803 . S
C84 C85 1.378 . S
C84 C89 1.369 1_545 S
C85 H69 0.939 . S
C85 C84 1.378 . S
C85 C86 1.361 . S
C86 H70 0.942 1_554 S
C86 C85 1.361 . S
C86 C87 1.369 . S
C87 C86 1.369 . S
C87 C88 1.404 1_545 S
C88 H71 0.940 . S
C88 C87 1.404 1_565 S
C88 C89 1.404 . S
C89 H72 0.957 . S
C89 C84 1.369 1_565 S
C89 C88 1.404 . S
C90 P64 1.819 . S
C90 C91 1.391 . S
C90 C95 1.391 1_554 S
C91 H73 0.941 . S
C91 C90 1.391 . S
C91 C92 1.396 1_554 S
C92 H76 0.939 . S
C92 C91 1.396 1_556 S
C92 C93 1.397 . S
C93 C92 1.397 . S
C93 C94 1.385 1_545 S
C94 H77 0.940 . S
C94 C93 1.385 1_565 S
C94 C95 1.388 1_565 S
C95 H74 0.928 1_545 S
C95 C90 1.391 1_556 S
C95 C94 1.388 1_545 S
P96 O107 1.490 . S
P96 C110 1.812 . S
P96 C116 1.803 . S
P96 C122 1.819 . S
H97 C111 0.941 . S
H98 C112 0.939 . S
H99 C114 0.940 . S
H100 C115 0.940 . S
H101 C117 0.939 . S
H102 C118 0.942 . S
H103 C120 0.940 . S
H104 C121 0.939 . S
H105 C123 0.941 . S
H106 C127 0.939 . S
O107 P96 1.490 . S
H108 C124 0.939 . S
H109 C126 0.940 . S
C110 P96 1.812 . S
C110 C111 1.389 . S
C110 C115 1.391 . S
C111 H97 0.941 . S
C111 C110 1.389 . S
C111 C112 1.397 . S
C112 H98 0.939 . S
C112 C111 1.397 . S
C112 C113 1.378 . S
C113 C112 1.378 . S
C113 C114 1.378 . S
C114 H99 0.940 . S
C114 C113 1.378 . S
C114 C115 1.396 . S
C115 H100 0.940 . S
C115 C110 1.391 . S
C115 C114 1.396 . S
C116 P96 1.803 . S
C116 C117 1.378 . S
C116 C121 1.400 . S
C117 H101 0.939 . S
C117 C116 1.378 . S
C117 C118 1.361 . S
C118 H102 0.942 . S
C118 C117 1.361 . S
C118 C119 1.369 . S
C119 C118 1.369 . S
C119 C120 1.404 . S
C120 H103 0.940 . S
C120 C119 1.404 . S
C120 C121 1.389 . S
C121 H104 0.939 . S
C121 C116 1.400 . S
C121 C120 1.389 . S
C122 P96 1.819 . S
C122 C123 1.391 . S
C122 C127 1.391 1_554 S
C123 H105 0.941 . S
C123 C122 1.391 . S
C123 C124 1.408 . S
C124 H108 0.939 . S
C124 C123 1.408 . S
C124 C125 1.387 1_554 S
C125 C124 1.387 1_556 S
C125 C126 1.385 . S
C126 H109 0.940 . S
C126 C125 1.385 . S
C126 C127 1.388 . S
C127 H106 0.939 . S
C127 C122 1.391 1_556 S
C127 C126 1.388 . S
P128 O139 1.490 . S
P128 C142 1.812 . S
P128 C148 1.803 . S
P128 C154 1.819 . S
H129 C143 0.941 . S
H130 C144 0.939 . S
H131 C146 0.940 . S
H132 C147 0.940 . S
H133 C149 0.939 . S
H134 C150 0.942 . S
H135 C152 0.940 . S
H136 C153 0.939 . S
H137 C155 0.941 . S
H138 C159 0.939 . S
O139 P128 1.490 . S
H140 C156 0.939 . S
H141 C158 0.940 . S
C142 P128 1.812 . S
C142 C143 1.389 . S
C142 C147 1.391 . S
C143 H129 0.941 . S
C143 C142 1.389 . S
C143 C144 1.397 . S
C144 H130 0.939 . S
C144 C143 1.397 . S
C144 C145 1.378 . S
C145 C144 1.378 . S
C145 C146 1.378 . S
C146 H131 0.940 . S
C146 C145 1.378 . S
C146 C147 1.396 . S
C147 H132 0.940 . S
C147 C142 1.391 . S
C147 C146 1.396 . S
C148 P128 1.803 . S
C148 C149 1.378 . S
C148 C153 1.400 . S
C149 H133 0.939 . S
C149 C148 1.378 . S
C149 C150 1.361 . S
C150 H134 0.942 . S
C150 C149 1.361 . S
C150 C151 1.369 . S
C151 C150 1.369 . S
C151 C152 1.404 . S
C152 H135 0.940 . S
C152 C151 1.404 . S
C152 C153 1.389 . S
C153 H136 0.939 . S
C153 C148 1.400 . S
C153 C152 1.389 . S
C154 P128 1.819 . S
C154 C155 1.391 . S
C154 C159 1.391 . S
C155 H137 0.941 . S
C155 C154 1.391 . S
C155 C156 1.396 . S
C156 H140 0.939 . S
C156 C155 1.396 . S
C156 C157 1.397 . S
C157 C156 1.397 . S
C157 C158 1.385 . S
C158 H141 0.940 . S
C158 C157 1.385 . S
C158 C159 1.388 . S
C159 H138 0.939 . S
C159 C154 1.391 . S
C159 C158 1.388 . S
P160 O171 1.490 . S
P160 C174 1.812 . S
P160 C180 1.803 . S
P160 C186 1.819 . S
H161 C175 0.941 . S
H162 C176 0.939 . S
H163 C178 0.940 . S
H164 C179 0.940 . S
H165 C181 0.939 . S
H166 C182 0.942 . S
H167 C184 0.940 . S
H168 C185 0.939 . S
H169 C187 0.941 . S
H170 C191 0.939 . S
O171 P160 1.490 . S
H172 C188 0.939 . S
H173 C190 0.940 . S
C174 P160 1.812 . S
C174 C175 1.389 . S
C174 C179 1.391 . S
C175 H161 0.941 . S
C175 C174 1.389 . S
C175 C176 1.397 . S
C176 H162 0.939 . S
C176 C175 1.397 . S
C176 C177 1.378 . S
C177 C176 1.378 . S
C177 C178 1.378 . S
C178 H163 0.940 . S
C178 C177 1.378 . S
C178 C179 1.396 . S
C179 H164 0.940 . S
C179 C174 1.391 . S
C179 C178 1.396 . S
C180 P160 1.803 . S
C180 C181 1.378 . S
C180 C185 1.400 . S
C181 H165 0.939 . S
C181 C180 1.378 . S
C181 C182 1.361 . S
C182 H166 0.942 . S
C182 C181 1.361 . S
C182 C183 1.369 . S
C183 C182 1.369 . S
C183 C184 1.404 . S
C184 H167 0.940 . S
C184 C183 1.404 . S
C184 C185 1.389 . S
C185 H168 0.939 . S
C185 C180 1.400 . S
C185 C184 1.389 . S
C186 P160 1.819 . S
C186 C187 1.391 . S
C186 C191 1.391 . S
C187 H169 0.941 . S
C187 C186 1.391 . S
C187 C188 1.396 . S
C188 H172 0.939 . S
C188 C187 1.396 . S
C188 C189 1.397 . S
C189 C188 1.397 . S
C189 C190 1.385 . S
C190 H173 0.940 . S
C190 C189 1.385 . S
C190 C191 1.388 . S
C191 H170 0.939 . S
C191 C186 1.391 . S
C191 C190 1.388 . S
P192 O203 1.490 . S
P192 C206 1.812 . S
P192 C212 1.803 . S
P192 C218 1.819 . S
H193 C207 0.941 . S
H194 C208 0.939 . S
H195 C210 0.940 . S
H196 C211 0.944 . S
H197 C213 0.939 . S
H198 C214 0.942 . S
H199 C216 0.940 . S
H200 C217 0.954 . S
H201 C219 0.941 . S
H202 C223 0.933 1_565 S
O203 P192 1.490 . S
H204 C220 0.939 . S
H205 C222 0.940 . S
C206 P192 1.812 . S
C206 C207 1.389 . S
C206 C211 1.384 1_545 S
C207 H193 0.941 . S
C207 C206 1.389 . S
C207 C208 1.397 . S
C208 H194 0.939 . S
C208 C207 1.397 . S
C208 C209 1.378 . S
C209 C208 1.378 . S
C209 C210 1.378 1_545 S
C210 H195 0.940 . S
C210 C209 1.378 1_565 S
C210 C211 1.399 . S
C211 H196 0.944 . S
C211 C206 1.384 1_565 S
C211 C210 1.399 . S
C212 P192 1.803 . S
C212 C213 1.378 . S
C212 C217 1.378 1_545 S
C213 H197 0.939 . S
C213 C212 1.378 . S
C213 C214 1.361 . S
C214 H198 0.942 . S
C214 C213 1.361 . S
C214 C215 1.369 . S
C215 C214 1.369 . S
C215 C216 1.404 1_545 S
C216 H199 0.940 . S
C216 C215 1.404 1_565 S
C216 C217 1.397 . S
C217 H200 0.954 . S
C217 C212 1.378 1_565 S
C217 C216 1.397 . S
C218 P192 1.819 . S
C218 C219 1.391 . S
C218 C223 1.391 . S
C219 H201 0.941 . S
C219 C218 1.391 . S
C219 C220 1.396 . S
C220 H204 0.939 . S
C220 C219 1.396 . S
C220 C221 1.397 . S
C221 C220 1.397 . S
C221 C222 1.385 1_545 S
C222 H205 0.940 . S
C222 C221 1.385 1_565 S
C222 C223 1.388 1_565 S
C223 H202 0.933 1_545 S
C223 C218 1.391 . S
C223 C222 1.388 1_545 S
P224 O235 1.490 . S
P224 C238 1.812 . S
P224 C244 1.803 . S
P224 C250 1.819 . S
H225 C239 0.941 . S
H226 C240 0.939 . S
H227 C242 0.940 . S
H228 C243 0.940 . S
H229 C245 0.939 . S
H230 C246 0.942 . S
H231 C248 0.940 . S
H232 C249 0.939 . S
H233 C251 0.941 . S
H234 C255 0.939 . S
O235 P224 1.490 . S
H236 C252 0.939 . S
H237 C254 0.940 . S
C238 P224 1.812 . S
C238 C239 1.389 . S
C238 C243 1.391 . S
C239 H225 0.941 . S
C239 C238 1.389 . S
C239 C240 1.397 . S
C240 H226 0.939 . S
C240 C239 1.397 . S
C240 C241 1.378 . S
C241 C240 1.378 . S
C241 C242 1.378 . S
C242 H227 0.940 . S
C242 C241 1.378 . S
C242 C243 1.396 . S
C243 H228 0.940 . S
C243 C238 1.391 . S
C243 C242 1.396 . S
C244 P224 1.803 . S
C244 C245 1.378 . S
C244 C249 1.400 . S
C245 H229 0.939 . S
C245 C244 1.378 . S
C245 C246 1.361 . S
C246 H230 0.942 . S
C246 C245 1.361 . S
C246 C247 1.369 . S
C247 C246 1.369 . S
C247 C248 1.404 . S
C248 H231 0.940 . S
C248 C247 1.404 . S
C248 C249 1.389 . S
C249 H232 0.939 . S
C249 C244 1.400 . S
C249 C248 1.389 . S
C250 P224 1.819 . S
C250 C251 1.391 . S
C250 C255 1.391 . S
C251 H233 0.941 . S
C251 C250 1.391 . S
C251 C252 1.396 . S
C252 H236 0.939 . S
C252 C251 1.396 . S
C252 C253 1.397 . S
C253 C252 1.397 . S
C253 C254 1.385 . S
C254 H237 0.940 . S
C254 C253 1.385 . S
C254 C255 1.388 . S
C255 H234 0.939 . S
C255 C250 1.391 . S
C255 C254 1.388 . S
C256 O272 1.256 . S
C256 O274 1.254 . S
N257 C258 1.333 . S
N257 C262 1.307 . S
N257 Zn263 2.020 1_655 S
C258 N257 1.333 . S
C258 C259 1.379 . S
C258 H276 0.952 1_655 S
C259 C258 1.379 . S
C259 C260 1.390 . S
C259 H286 0.949 . S
C260 C259 1.390 . S
C260 C261 1.357 . S
C261 C260 1.357 . S
C261 C262 1.370 . S
C261 H287 0.950 . S
C262 N257 1.307 . S
C262 C261 1.370 . S
C262 H280 0.948 1_565 S
Zn263 N257 2.020 1_455 S
Zn263 O272 2.039 . S
Zn263 O278 2.034 . S
Zn263 O282 2.025 1_565 S
Zn263 O284 2.032 1_455 S
C264 O283 1.246 . S
C264 O284 1.238 1_545 S
N265 C266 1.307 . S
N265 C267 1.333 . S
N265 Zn271 2.020 . S
C266 N265 1.307 . S
C266 C270 1.370 . S
C266 H277 0.948 1_545 S
C267 N265 1.333 . S
C267 C268 1.379 . S
C267 H275 0.952 . S
C268 C267 1.379 . S
C268 C269 1.390 . S
C268 H288 0.949 . S
C269 C268 1.390 . S
C269 C270 1.357 . S
C270 C266 1.370 . S
C270 C269 1.357 . S
C270 H289 0.950 1_556 S
Zn271 N265 2.020 . S
Zn271 O274 2.025 1_545 S
Zn271 O279 2.036 . S
Zn271 O281 2.039 . S
Zn271 O283 2.034 1_455 S
O272 C256 1.256 . S
O272 Zn263 2.039 . S
C273 O278 1.246 . S
C273 O279 1.233 1_565 S
O274 C256 1.254 . S
O274 Zn271 2.025 1_565 S
H275 C267 0.952 . S
H276 C258 0.952 1_455 S
H277 C266 0.948 1_565 S
O278 Zn263 2.034 . S
O278 C273 1.246 . S
O279 Zn271 2.036 . S
O279 C273 1.233 1_545 S
H280 C262 0.948 1_545 S
O281 Zn271 2.039 . S
O281 C285 1.251 . S
O282 Zn263 2.025 1_545 S
O282 C285 1.254 . S
O283 C264 1.246 . S
O283 Zn271 2.034 1_655 S
O284 Zn263 2.032 1_655 S
O284 C264 1.238 1_565 S
C285 O281 1.251 . S
C285 O282 1.254 . S
H286 C259 0.949 . S
H287 C261 0.950 . S
H288 C268 0.949 . S
H289 C270 0.950 1_554 S
C290 O306 1.251 1_565 S
C290 O308 1.254 . S
N291 C292 1.333 . S
N291 C296 1.307 . S
N291 Zn297 2.020 . S
C292 N291 1.333 . S
C292 C293 1.379 . S
C292 H310 0.952 . S
C293 C292 1.379 . S
C293 C294 1.390 . S
C293 H320 0.949 . S
C294 C293 1.390 . S
C294 C295 1.357 . S
C295 C294 1.357 . S
C295 C296 1.370 . S
C295 H321 0.950 . S
C296 N291 1.307 . S
C296 C295 1.370 . S
C296 H314 0.948 . S
Zn297 N291 2.020 . S
Zn297 O306 2.039 . S
Zn297 O312 2.034 . S
Zn297 O316 2.025 . S
Zn297 O318 2.024 . S
C298 O317 1.246 1_545 S
C298 O318 1.249 . S
N299 C300 1.307 . S
N299 C301 1.333 . S
N299 Zn305 2.020 . S
C300 N299 1.307 . S
C300 C304 1.370 . S
C300 H311 0.948 . S
C301 N299 1.333 . S
C301 C302 1.379 . S
C301 H309 0.952 . S
C302 C301 1.379 . S
C302 C303 1.390 . S
C302 H322 0.949 . S
C303 C302 1.390 . S
C303 C304 1.357 . S
C304 C300 1.370 . S
C304 C303 1.357 . S
C304 H323 0.950 . S
Zn305 N299 2.020 . S
Zn305 O308 2.025 . S
Zn305 O313 2.024 . S
Zn305 O315 2.039 . S
Zn305 O317 2.034 . S
O306 C290 1.251 1_545 S
O306 Zn297 2.039 . S
C307 O312 1.246 1_565 S
C307 O313 1.249 . S
O308 C290 1.254 . S
O308 Zn305 2.025 . S
H309 C301 0.952 . S
H310 C292 0.952 . S
H311 C300 0.948 . S
O312 Zn297 2.034 . S
O312 C307 1.246 1_545 S
O313 Zn305 2.024 . S
O313 C307 1.249 . S
H314 C296 0.948 . S
O315 Zn305 2.039 . S
O315 C319 1.251 1_565 S
O316 Zn297 2.025 . S
O316 C319 1.254 . S
O317 C298 1.246 1_565 S
O317 Zn305 2.034 . S
O318 Zn297 2.024 . S
O318 C298 1.249 . S
C319 O315 1.251 1_545 S
C319 O316 1.254 . S
H320 C293 0.949 . S
H321 C295 0.950 . S
H322 C302 0.949 . S
H323 C304 0.950 . S
C324 O340 1.251 . S
C324 O342 1.254 . S
N325 C326 1.333 . S
N325 C330 1.307 . S
N325 Zn331 2.020 . S
C326 N325 1.333 . S
C326 C327 1.379 . S
C326 H344 0.952 . S
C327 C326 1.379 . S
C327 C328 1.390 . S
C327 H354 0.949 . S
C328 C327 1.390 . S
C328 C329 1.357 . S
C329 C328 1.357 . S
C329 C330 1.370 . S
C329 H355 0.950 . S
C330 N325 1.307 . S
C330 C329 1.370 . S
C330 H348 0.948 . S
Zn331 N325 2.020 . S
Zn331 O340 2.039 . S
Zn331 O346 2.034 . S
Zn331 O350 2.025 . S
Zn331 O352 2.024 . S
C332 O351 1.246 . S
C332 O352 1.249 . S
N333 C334 1.307 . S
N333 C335 1.333 . S
N333 Zn339 2.020 . S
C334 N333 1.307 . S
C334 C338 1.370 . S
C334 H345 0.948 . S
C335 N333 1.333 . S
C335 C336 1.379 . S
C335 H343 0.952 . S
C336 C335 1.379 . S
C336 C337 1.390 . S
C336 H356 0.949 . S
C337 C336 1.390 . S
C337 C338 1.357 . S
C338 C334 1.370 . S
C338 C337 1.357 . S
C338 H357 0.950 . S
Zn339 N333 2.020 . S
Zn339 O342 2.025 . S
Zn339 O347 2.024 . S
Zn339 O349 2.039 . S
Zn339 O351 2.034 . S
O340 C324 1.251 . S
O340 Zn331 2.039 . S
C341 O346 1.246 . S
C341 O347 1.249 . S
O342 C324 1.254 . S
O342 Zn339 2.025 . S
H343 C335 0.952 . S
H344 C326 0.952 . S
H345 C334 0.948 . S
O346 Zn331 2.034 . S
O346 C341 1.246 . S
O347 Zn339 2.024 . S
O347 C341 1.249 . S
H348 C330 0.948 . S
O349 Zn339 2.039 . S
O349 C353 1.251 . S
O350 Zn331 2.025 . S
O350 C353 1.254 . S
O351 C332 1.246 . S
O351 Zn339 2.034 . S
O352 Zn331 2.024 . S
O352 C332 1.249 . S
C353 O349 1.251 . S
C353 O350 1.254 . S
H354 C327 0.949 . S
H355 C329 0.950 . S
H356 C336 0.949 . S
H357 C338 0.950 . S
C358 O374 1.251 . S
C358 O376 1.254 . S
N359 C360 1.333 . S
N359 C364 1.307 . S
N359 Zn365 2.020 . S
C360 N359 1.333 . S
C360 C361 1.379 . S
C360 H378 0.952 . S
C361 C360 1.379 . S
C361 C362 1.390 . S
C361 H388 0.949 . S
C362 C361 1.390 . S
C362 C363 1.357 . S
C363 C362 1.357 . S
C363 C364 1.370 . S
C363 H389 0.950 . S
C364 N359 1.307 . S
C364 C363 1.370 . S
C364 H382 0.948 . S
Zn365 N359 2.020 . S
Zn365 O374 2.039 . S
Zn365 O380 2.034 1_455 S
Zn365 O384 2.025 1_455 S
Zn365 O386 2.024 . S
C366 O385 1.246 . S
C366 O386 1.249 . S
N367 C368 1.307 1_655 S
N367 C369 1.352 . S
N367 Zn373 2.011 1_655 S
C368 N367 1.307 1_455 S
C368 C372 1.370 1_455 S
C368 H379 0.948 . S
C369 N367 1.352 . S
C369 C370 1.379 . S
C369 H377 0.952 . S
C370 C369 1.379 . S
C370 C371 1.390 . S
C370 H390 0.949 . S
C371 C370 1.390 . S
C371 C372 1.357 . S
C372 C368 1.370 1_655 S
C372 C371 1.357 . S
C372 H391 0.950 . S
Zn373 N367 2.011 1_455 S
Zn373 O376 2.025 . S
Zn373 O381 2.024 1_455 S
Zn373 O383 2.039 1_455 S
Zn373 O385 2.034 . S
O374 C358 1.251 . S
O374 Zn365 2.039 . S
C375 O380 1.246 . S
C375 O381 1.249 . S
O376 C358 1.254 . S
O376 Zn373 2.025 . S
H377 C369 0.952 . S
H378 C360 0.952 . S
H379 C368 0.948 . S
O380 Zn365 2.034 1_655 S
O380 C375 1.246 . S
O381 Zn373 2.024 1_655 S
O381 C375 1.249 . S
H382 C364 0.948 . S
O383 Zn373 2.039 1_655 S
O383 C387 1.251 . S
O384 Zn365 2.025 1_655 S
O384 C387 1.254 . S
O385 C366 1.246 . S
O385 Zn373 2.034 . S
O386 Zn365 2.024 . S
O386 C366 1.249 . S
C387 O383 1.251 . S
C387 O384 1.254 . S
H388 C361 0.949 . S
H389 C363 0.950 . S
H390 C370 0.949 . S
H391 C372 0.950 . S
H392 C398 0.929 1_545 S
H393 C401 0.930 . S
H394 C402 0.930 . S
H395 C403 0.930 . S
H396 C406 0.930 . S
H397 C407 0.930 1_545 S
C398 H392 0.929 1_565 S
C398 C399 1.355 . S
C398 C400 1.415 . S
C399 C398 1.355 . S
C399 C401 1.419 . S
C400 C398 1.415 . S
C400 C405 1.425 . S
C400 C407 1.409 . S
C401 H393 0.930 . S
C401 C399 1.419 . S
C401 C402 1.362 . S
C402 H394 0.930 . S
C402 C401 1.362 . S
C402 C405 1.409 . S
C403 H395 0.930 . S
C403 C404 1.355 . S
C403 C405 1.415 . S
C404 C403 1.355 . S
C404 C406 1.419 . S
C405 C400 1.425 . S
C405 C402 1.409 . S
C405 C403 1.415 . S
C406 H396 0.930 . S
C406 C404 1.419 . S
C406 C407 1.362 . S
C407 H397 0.930 1_565 S
C407 C400 1.409 . S
C407 C406 1.362 . S
H408 C414 0.930 . S
H409 C417 0.930 . S
H410 C418 0.930 . S
H411 C419 0.930 . S
H412 C422 0.930 . S
H413 C423 0.930 . S
C414 H408 0.930 . S
C414 C415 1.355 . S
C414 C416 1.415 . S
C415 C414 1.355 . S
C415 C417 1.419 . S
C416 C414 1.415 . S
C416 C421 1.425 . S
C416 C423 1.409 . S
C417 H409 0.930 . S
C417 C415 1.419 . S
C417 C418 1.362 . S
C418 H410 0.930 . S
C418 C417 1.362 . S
C418 C421 1.409 . S
C419 H411 0.930 . S
C419 C420 1.355 . S
C419 C421 1.415 . S
C420 C419 1.355 . S
C420 C422 1.419 . S
C421 C416 1.425 . S
C421 C418 1.409 . S
C421 C419 1.415 . S
C422 H412 0.930 . S
C422 C420 1.419 . S
C422 C423 1.362 . S
C423 H413 0.930 . S
C423 C416 1.409 . S
C423 C422 1.362 . S
H424 C430 0.930 . S
H425 C433 0.930 . S
H426 C434 0.930 . S
H427 C435 0.930 . S
H428 C438 0.930 . S
H429 C439 0.930 . S
C430 H424 0.930 . S
C430 C431 1.355 . S
C430 C432 1.415 . S
C431 C430 1.355 . S
C431 C433 1.419 . S
C432 C430 1.415 . S
C432 C437 1.425 . S
C432 C439 1.409 . S
C433 H425 0.930 . S
C433 C431 1.419 . S
C433 C434 1.362 . S
C434 H426 0.930 . S
C434 C433 1.362 . S
C434 C437 1.409 . S
C435 H427 0.930 . S
C435 C436 1.355 . S
C435 C437 1.415 . S
C436 C435 1.355 . S
C436 C438 1.419 . S
C437 C432 1.425 . S
C437 C434 1.409 . S
C437 C435 1.415 . S
C438 H428 0.930 . S
C438 C436 1.419 . S
C438 C439 1.362 . S
C439 H429 0.930 . S
C439 C432 1.409 . S
C439 C438 1.362 . S
H440 C446 0.930 . S
H441 C449 0.930 . S
H442 C450 0.930 . S
H443 C451 0.930 . S
H444 C454 0.930 . S
H445 C455 0.930 . S
C446 H440 0.930 . S
C446 C447 1.355 . S
C446 C448 1.415 . S
C447 C446 1.355 . S
C447 C449 1.419 . S
C448 C446 1.415 . S
C448 C453 1.425 . S
C448 C455 1.409 . S
C449 H441 0.930 . S
C449 C447 1.419 . S
C449 C450 1.362 . S
C450 H442 0.930 . S
C450 C449 1.362 . S
C450 C453 1.409 . S
C451 H443 0.930 . S
C451 C452 1.355 . S
C451 C453 1.415 . S
C452 C451 1.355 . S
C452 C454 1.419 . S
C453 C448 1.425 . S
C453 C450 1.409 . S
C453 C451 1.415 . S
C454 H444 0.930 . S
C454 C452 1.419 . S
C454 C455 1.362 . S
C455 H445 0.930 . S
C455 C448 1.409 . S
C455 C454 1.362 . S
H456 C462 0.930 . S
H457 C465 0.930 . S
H458 C466 0.930 1_554 S
H459 C467 0.930 . S
H460 C470 0.930 . S
H461 C471 0.924 1_565 S
C462 H456 0.930 . S
C462 C463 1.355 1_565 S
C462 C464 1.415 1_565 S
C463 C462 1.355 1_545 S
C463 C465 1.419 1_556 S
C464 C462 1.415 1_545 S
C464 C469 1.425 . S
C464 C471 1.415 . S
C465 H457 0.930 . S
C465 C463 1.419 1_554 S
C465 C466 1.362 1_554 S
C466 H458 0.930 1_556 S
C466 C465 1.362 1_556 S
C466 C469 1.409 . S
C467 H459 0.930 . S
C467 C468 1.355 . S
C467 C469 1.415 . S
C468 C467 1.355 . S
C468 C470 1.419 . S
C469 C464 1.425 . S
C469 C466 1.409 . S
C469 C467 1.415 . S
C470 H460 0.930 . S
C470 C468 1.419 . S
C470 C471 1.364 . S
C471 H461 0.924 1_545 S
C471 C464 1.415 . S
C471 C470 1.364 . S
H472 C478 0.930 . S
H473 C481 0.930 . S
H474 C482 0.930 . S
H475 C483 0.930 . S
H476 C486 0.930 . S
H477 C487 0.930 . S
C478 H472 0.930 . S
C478 C479 1.355 1_556 S
C478 C480 1.415 . S
C479 C478 1.355 1_554 S
C479 C481 1.419 . S
C480 C478 1.415 . S
C480 C485 1.425 . S
C480 C487 1.409 . S
C481 H473 0.930 . S
C481 C479 1.419 . S
C481 C482 1.362 1_554 S
C482 H474 0.930 . S
C482 C481 1.362 1_556 S
C482 C485 1.409 . S
C483 H475 0.930 . S
C483 C484 1.355 . S
C483 C485 1.415 . S
C484 C483 1.355 . S
C484 C486 1.419 . S
C485 C480 1.425 . S
C485 C482 1.409 . S
C485 C483 1.415 . S
C486 H476 0.930 . S
C486 C484 1.419 . S
C486 C487 1.362 . S
C487 H477 0.930 . S
C487 C480 1.409 . S
C487 C486 1.362 . S
H488 C494 0.930 . S
H489 C497 0.930 . S
H490 C498 0.930 . S
H491 C499 0.930 . S
H492 C502 0.930 . S
H493 C503 0.930 1_554 S
C494 H488 0.930 . S
C494 C495 1.355 . S
C494 C496 1.415 1_554 S
C495 C494 1.355 . S
C495 C497 1.419 1_554 S
C496 C494 1.415 1_556 S
C496 C501 1.425 . S
C496 C503 1.409 . S
C497 H489 0.930 . S
C497 C495 1.419 1_556 S
C497 C498 1.362 . S
C498 H490 0.930 . S
C498 C497 1.362 . S
C498 C501 1.409 . S
C499 H491 0.930 . S
C499 C500 1.355 . S
C499 C501 1.415 . S
C500 C499 1.355 . S
C500 C502 1.419 . S
C501 C496 1.425 . S
C501 C498 1.409 . S
C501 C499 1.415 . S
C502 H492 0.930 . S
C502 C500 1.419 . S
C502 C503 1.362 . S
C503 H493 0.930 1_556 S
C503 C496 1.409 . S
C503 C502 1.362 . S
H504 C510 0.930 . S
H505 C513 0.930 . S
H506 C514 0.930 . S
H507 C515 0.930 . S
H508 C518 0.930 . S
H509 C519 0.930 . S
C510 H504 0.930 . S
C510 C511 1.355 . S
C510 C512 1.415 . S
C511 C510 1.355 . S
C511 C513 1.419 . S
C512 C510 1.415 . S
C512 C517 1.425 . S
C512 C519 1.409 . S
C513 H505 0.930 . S
C513 C511 1.419 . S
C513 C514 1.362 . S
C514 H506 0.930 . S
C514 C513 1.362 . S
C514 C517 1.409 . S
C515 H507 0.930 . S
C515 C516 1.355 . S
C515 C517 1.415 . S
C516 C515 1.355 . S
C516 C518 1.419 . S
C517 C512 1.425 . S
C517 C514 1.409 . S
C517 C515 1.415 . S
C518 H508 0.930 . S
C518 C516 1.419 . S
C518 C519 1.362 . S
C519 H509 0.930 . S
C519 C512 1.409 . S
C519 C518 1.362 . S
H520 C526 0.930 . S
H521 C529 0.930 . S
H522 C530 0.930 . S
H523 C531 0.930 . S
H524 C534 0.930 . S
H525 C535 0.930 . S
C526 H520 0.930 . S
C526 C527 1.355 . S
C526 C528 1.415 . S
C527 C526 1.355 . S
C527 C529 1.419 . S
C528 C526 1.415 . S
C528 C533 1.425 . S
C528 C535 1.409 . S
C529 H521 0.930 . S
C529 C527 1.419 . S
C529 C530 1.362 . S
C530 H522 0.930 . S
C530 C529 1.362 . S
C530 C533 1.409 . S
C531 H523 0.930 . S
C531 C532 1.355 . S
C531 C533 1.415 . S
C532 C531 1.355 . S
C532 C534 1.419 . S
C533 C528 1.425 . S
C533 C530 1.409 . S
C533 C531 1.415 . S
C534 H524 0.930 . S
C534 C532 1.419 . S
C534 C535 1.362 . S
C535 H525 0.930 . S
C535 C528 1.409 . S
C535 C534 1.362 . S
H536 C542 0.930 . S
H537 C545 0.930 . S
H538 C546 0.930 . S
H539 C547 0.930 . S
H540 C550 0.930 . S
H541 C551 0.930 . S
C542 H536 0.930 . S
C542 C543 1.333 1_565 S
C542 C544 1.415 . S
C543 C542 1.333 1_545 S
C543 C545 1.441 . S
C544 C542 1.415 . S
C544 C549 1.425 1_565 S
C544 C551 1.409 . S
C545 H537 0.930 . S
C545 C543 1.441 . S
C545 C546 1.362 . S
C546 H538 0.930 . S
C546 C545 1.362 . S
C546 C549 1.409 . S
C547 H539 0.930 . S
C547 C548 1.355 1_545 S
C547 C549 1.415 . S
C548 C547 1.355 1_565 S
C548 C550 1.419 . S
C549 C544 1.425 1_545 S
C549 C546 1.409 . S
C549 C547 1.415 . S
C550 H540 0.930 . S
C550 C548 1.419 . S
C550 C551 1.362 . S
C551 H541 0.930 . S
C551 C544 1.409 . S
C551 C550 1.362 . S
H552 C558 0.930 . S
H553 C561 0.930 . S
H554 C562 0.930 . S
H555 C563 0.930 . S
H556 C566 0.930 . S
H557 C567 0.930 . S
C558 H552 0.930 . S
C558 C559 1.355 . S
C558 C560 1.415 . S
C559 C558 1.355 . S
C559 C561 1.419 . S
C560 C558 1.415 . S
C560 C565 1.425 . S
C560 C567 1.409 . S
C561 H553 0.930 . S
C561 C559 1.419 . S
C561 C562 1.362 . S
C562 H554 0.930 . S
C562 C561 1.362 . S
C562 C565 1.409 . S
C563 H555 0.930 . S
C563 C564 1.355 . S
C563 C565 1.415 . S
C564 C563 1.355 . S
C564 C566 1.419 . S
C565 C560 1.425 . S
C565 C562 1.409 . S
C565 C563 1.415 . S
C566 H556 0.930 . S
C566 C564 1.419 . S
C566 C567 1.362 . S
C567 H557 0.930 . S
C567 C560 1.409 . S
C567 C566 1.362 . S
H568 C574 0.930 . S
H569 C577 0.930 . S
H570 C578 0.930 . S
H571 C579 0.930 . S
H572 C582 0.930 . S
H573 C583 0.930 . S
C574 H568 0.930 . S
C574 C575 1.355 . S
C574 C576 1.415 . S
C575 C574 1.355 . S
C575 C577 1.419 . S
C576 C574 1.415 . S
C576 C581 1.425 . S
C576 C583 1.409 . S
C577 H569 0.930 . S
C577 C575 1.419 . S
C577 C578 1.362 . S
C578 H570 0.930 . S
C578 C577 1.362 . S
C578 C581 1.409 . S
C579 H571 0.930 . S
C579 C580 1.355 . S
C579 C581 1.415 . S
C580 C579 1.355 . S
C580 C582 1.419 . S
C581 C576 1.425 . S
C581 C578 1.409 . S
C581 C579 1.415 . S
C582 H572 0.930 . S
C582 C580 1.419 . S
C582 C583 1.362 . S
C583 H573 0.930 . S
C583 C576 1.409 . S
C583 C582 1.362 . S
H584 C590 0.930 . S
H585 C593 0.930 . S
H586 C594 0.930 . S
H587 C595 0.930 . S
H588 C598 0.930 . S
H589 C599 0.930 . S
C590 H584 0.930 . S
C590 C591 1.355 . S
C590 C592 1.415 . S
C591 C590 1.355 . S
C591 C593 1.419 . S
C592 C590 1.415 . S
C592 C597 1.425 . S
C592 C599 1.409 . S
C593 H585 0.930 . S
C593 C591 1.419 . S
C593 C594 1.362 . S
C594 H586 0.930 . S
C594 C593 1.362 . S
C594 C597 1.409 . S
C595 H587 0.930 . S
C595 C596 1.355 1_655 S
C595 C597 1.415 . S
C596 C595 1.355 1_455 S
C596 C598 1.419 . S
C597 C592 1.425 . S
C597 C594 1.409 . S
C597 C595 1.415 . S
C598 H588 0.930 . S
C598 C596 1.419 . S
C598 C599 1.362 1_455 S
C599 H589 0.930 . S
C599 C592 1.409 . S
C599 C598 1.362 1_655 S
H600 C606 0.930 . S
H601 C609 0.930 . S
H602 C610 0.930 . S
H603 C611 0.930 . S
H604 C614 0.930 . S
H605 C615 0.930 . S
C606 H600 0.930 . S
C606 C607 1.355 1_545 S
C606 C608 1.415 . S
C607 C606 1.355 1_565 S
C607 C609 1.419 . S
C608 C606 1.415 . S
C608 C613 1.425 1_545 S
C608 C615 1.409 . S
C609 H601 0.930 . S
C609 C607 1.419 . S
C609 C610 1.362 . S
C610 H602 0.930 . S
C610 C609 1.362 . S
C610 C613 1.409 . S
C611 H603 0.930 . S
C611 C612 1.355 1_565 S
C611 C613 1.415 . S
C612 C611 1.355 1_545 S
C612 C614 1.419 . S
C613 C608 1.425 1_565 S
C613 C610 1.409 . S
C613 C611 1.415 . S
C614 H604 0.930 . S
C614 C612 1.419 . S
C614 C615 1.362 . S
C615 H605 0.930 . S
C615 C608 1.409 . S
C615 C614 1.362 . S
H616 C622 0.930 . S
H617 C625 0.930 . S
H618 C626 0.930 . S
H619 C627 0.930 . S
H620 C630 0.930 . S
H621 C631 0.930 . S
C622 H616 0.930 . S
C622 C623 1.355 . S
C622 C624 1.415 . S
C623 C622 1.355 . S
C623 C625 1.419 . S
C624 C622 1.415 . S
C624 C629 1.425 . S
C624 C631 1.409 . S
C625 H617 0.930 . S
C625 C623 1.419 . S
C625 C626 1.362 . S
C626 H618 0.930 . S
C626 C625 1.362 . S
C626 C629 1.409 . S
C627 H619 0.930 . S
C627 C628 1.355 . S
C627 C629 1.415 . S
C628 C627 1.355 . S
C628 C630 1.419 . S
C629 C624 1.425 . S
C629 C626 1.409 . S
C629 C627 1.415 . S
C630 H620 0.930 . S
C630 C628 1.419 . S
C630 C631 1.362 . S
C631 H621 0.930 . S
C631 C624 1.409 . S
C631 C630 1.362 . S
H632 C638 0.930 1_554 S
H633 C641 0.930 . S
H634 C642 0.930 . S
H635 C643 0.930 . S
H636 C646 0.930 . S
H637 C647 0.930 . S
C638 H632 0.930 1_556 S
C638 C639 1.355 . S
C638 C640 1.415 . S
C639 C638 1.355 . S
C639 C641 1.419 . S
C640 C638 1.415 . S
C640 C645 1.425 . S
C640 C647 1.409 . S
C641 H633 0.930 . S
C641 C639 1.419 . S
C641 C642 1.362 . S
C642 H634 0.930 . S
C642 C641 1.362 . S
C642 C645 1.409 . S
C643 H635 0.930 . S
C643 C644 1.355 . S
C643 C645 1.415 . S
C644 C643 1.355 . S
C644 C646 1.419 . S
C645 C640 1.425 . S
C645 C642 1.409 . S
C645 C643 1.415 . S
C646 H636 0.930 . S
C646 C644 1.419 . S
C646 C647 1.362 . S
C647 H637 0.930 . S
C647 C640 1.409 . S
C647 C646 1.362 . S
H648 C654 0.930 . S
H649 C657 0.930 . S
H650 C658 0.930 . S
H651 C659 0.930 1_556 S
H652 C662 0.930 . S
H653 C663 0.930 . S
C654 H648 0.930 . S
C654 C655 1.355 . S
C654 C656 1.415 . S
C655 C654 1.355 . S
C655 C657 1.419 . S
C656 C654 1.415 . S
C656 C661 1.425 . S
C656 C663 1.409 . S
C657 H649 0.930 . S
C657 C655 1.419 . S
C657 C658 1.362 . S
C658 H650 0.930 . S
C658 C657 1.362 . S
C658 C661 1.409 . S
C659 H651 0.930 1_554 S
C659 C660 1.355 . S
C659 C661 1.415 . S
C660 C659 1.355 . S
C660 C662 1.419 . S
C661 C656 1.425 . S
C661 C658 1.409 . S
C661 C659 1.415 . S
C662 H652 0.930 . S
C662 C660 1.419 . S
C662 C663 1.362 . S
C663 H653 0.930 . S
C663 C656 1.409 . S
C663 C662 1.362 . S
H664 C670 0.930 . S
H665 C673 0.930 . S
H666 C674 0.930 . S
H667 C675 0.930 . S
H668 C678 0.930 . S
H669 C679 0.930 . S
C670 H664 0.930 . S
C670 C671 1.355 1_565 S
C670 C672 1.415 1_554 S
C671 C670 1.355 1_545 S
C671 C673 1.419 . S
C672 C670 1.415 1_556 S
C672 C677 1.425 1_565 S
C672 C679 1.409 . S
C673 H665 0.930 . S
C673 C671 1.419 . S
C673 C674 1.362 1_554 S
C674 H666 0.930 . S
C674 C673 1.362 1_556 S
C674 C677 1.409 . S
C675 H667 0.930 . S
C675 C676 1.377 . S
C675 C677 1.415 . S
C676 C675 1.377 . S
C676 C678 1.393 1_545 S
C677 C672 1.425 1_545 S
C677 C674 1.409 . S
C677 C675 1.415 . S
C678 H668 0.930 . S
C678 C676 1.393 1_565 S
C678 C679 1.362 . S
C679 H669 0.930 . S
C679 C672 1.409 . S
C679 C678 1.362 . S
H680 C686 0.930 . S
H681 C689 0.930 . S
H682 C690 0.930 . S
H683 C691 0.930 . S
H684 C694 0.930 . S
H685 C695 0.930 . S
C686 H680 0.930 . S
C686 C687 1.355 1_556 S
C686 C688 1.415 . S
C687 C686 1.355 1_554 S
C687 C689 1.419 . S
C688 C686 1.415 . S
C688 C693 1.425 . S
C688 C695 1.409 . S
C689 H681 0.930 . S
C689 C687 1.419 . S
C689 C690 1.362 . S
C690 H682 0.930 . S
C690 C689 1.362 . S
C690 C693 1.409 1_554 S
C691 H683 0.930 . S
C691 C692 1.355 . S
C691 C693 1.415 . S
C692 C691 1.355 . S
C692 C694 1.419 . S
C693 C688 1.425 . S
C693 C690 1.409 1_556 S
C693 C691 1.415 . S
C694 H684 0.930 . S
C694 C692 1.419 . S
C694 C695 1.362 . S
C695 H685 0.930 . S
C695 C688 1.409 . S
C695 C694 1.362 . S
H696 C702 0.930 . S
H697 C705 0.930 . S
H698 C706 0.930 . S
H699 C707 0.930 . S
H700 C710 0.930 . S
H701 C711 0.930 1_554 S
C702 H696 0.930 . S
C702 C703 1.355 1_554 S
C702 C704 1.415 1_554 S
C703 C702 1.355 1_556 S
C703 C705 1.419 . S
C704 C702 1.415 1_556 S
C704 C709 1.425 . S
C704 C711 1.409 . S
C705 H697 0.930 . S
C705 C703 1.419 . S
C705 C706 1.362 . S
C706 H698 0.930 . S
C706 C705 1.362 . S
C706 C709 1.409 . S
C707 H699 0.930 . S
C707 C708 1.355 . S
C707 C709 1.415 . S
C708 C707 1.355 . S
C708 C710 1.419 . S
C709 C704 1.425 . S
C709 C706 1.409 . S
C709 C707 1.415 . S
C710 H700 0.930 . S
C710 C708 1.419 . S
C710 C711 1.362 . S
C711 H701 0.930 1_556 S
C711 C704 1.409 . S
C711 C710 1.362 . S
H712 C718 0.930 . S
H713 C721 0.930 . S
H714 C722 0.930 . S
H715 C723 0.930 . S
H716 C726 0.930 . S
H717 C727 0.930 . S
C718 H712 0.930 . S
C718 C719 1.355 . S
C718 C720 1.415 . S
C719 C718 1.355 . S
C719 C721 1.419 . S
C720 C718 1.415 . S
C720 C725 1.425 . S
C720 C727 1.409 . S
C721 H713 0.930 . S
C721 C719 1.419 . S
C721 C722 1.362 . S
C722 H714 0.930 . S
C722 C721 1.362 . S
C722 C725 1.409 . S
C723 H715 0.930 . S
C723 C724 1.355 . S
C723 C725 1.415 . S
C724 C723 1.355 . S
C724 C726 1.419 . S
C725 C720 1.425 . S
C725 C722 1.409 . S
C725 C723 1.415 . S
C726 H716 0.930 . S
C726 C724 1.419 . S
C726 C727 1.362 . S
C727 H717 0.930 . S
C727 C720 1.409 . S
C727 C726 1.362 . S
H728 C734 0.930 . S
H729 C737 0.930 . S
H730 C738 0.930 . S
H731 C739 0.930 . S
H732 C742 0.930 . S
H733 C743 0.930 . S
C734 H728 0.930 . S
C734 C735 1.344 1_565 S
C734 C736 1.415 . S
C735 C734 1.344 1_545 S
C735 C737 1.434 . S
C736 C734 1.415 . S
C736 C741 1.425 1_565 S
C736 C743 1.409 . S
C737 H729 0.930 . S
C737 C735 1.434 . S
C737 C738 1.362 . S
C738 H730 0.930 . S
C738 C737 1.362 . S
C738 C741 1.409 . S
C739 H731 0.930 . S
C739 C740 1.355 1_545 S
C739 C741 1.415 . S
C740 C739 1.355 1_565 S
C740 C742 1.419 . S
C741 C736 1.425 1_545 S
C741 C738 1.409 . S
C741 C739 1.415 . S
C742 H732 0.930 . S
C742 C740 1.419 . S
C742 C743 1.362 . S
C743 H733 0.930 . S
C743 C736 1.409 . S
C743 C742 1.362 . S
H744 C750 0.930 . S
H745 C753 0.930 . S
H746 C754 0.930 . S
H747 C755 0.930 . S
H748 C758 0.930 . S
H749 C759 0.930 . S
C750 H744 0.930 . S
C750 C751 1.355 . S
C750 C752 1.415 . S
C751 C750 1.355 . S
C751 C753 1.419 . S
C752 C750 1.415 . S
C752 C757 1.425 . S
C752 C759 1.409 . S
C753 H745 0.930 . S
C753 C751 1.419 . S
C753 C754 1.362 . S
C754 H746 0.930 . S
C754 C753 1.362 . S
C754 C757 1.409 . S
C755 H747 0.930 . S
C755 C756 1.355 . S
C755 C757 1.415 . S
C756 C755 1.355 . S
C756 C758 1.419 . S
C757 C752 1.425 . S
C757 C754 1.409 . S
C757 C755 1.415 . S
C758 H748 0.930 . S
C758 C756 1.419 . S
C758 C759 1.362 . S
C759 H749 0.930 . S
C759 C752 1.409 . S
C759 C758 1.362 . S
H760 C766 0.930 . S
H761 C769 0.930 . S
H762 C770 0.930 . S
H763 C771 0.930 . S
H764 C774 0.930 . S
H765 C775 0.930 . S
C766 H760 0.930 . S
C766 C767 1.355 . S
C766 C768 1.415 . S
C767 C766 1.355 . S
C767 C769 1.419 . S
C768 C766 1.415 . S
C768 C773 1.425 . S
C768 C775 1.409 . S
C769 H761 0.930 . S
C769 C767 1.419 . S
C769 C770 1.362 . S
C770 H762 0.930 . S
C770 C769 1.362 . S
C770 C773 1.409 . S
C771 H763 0.930 . S
C771 C772 1.355 . S
C771 C773 1.415 . S
C772 C771 1.355 . S
C772 C774 1.419 . S
C773 C768 1.425 . S
C773 C770 1.409 . S
C773 C771 1.415 . S
C774 H764 0.930 . S
C774 C772 1.419 . S
C774 C775 1.362 . S
C775 H765 0.930 . S
C775 C768 1.409 . S
C775 C774 1.362 . S
C399 C215 1.870 1_565 S
C404 C273 1.882 . S
C420 C294 1.680 . S
C415 C247 1.672 . S
C436 C328 1.559 . S
C431 C151 1.520 . S
C452 C362 1.629 . S
C447 C183 1.641 . S
C468 C264 1.888 . S
C463 C87 1.843 1_556 S
C479 C119 1.522 . S
C484 C303 1.657 . S
C495 C23 1.487 . S
C500 C337 1.499 . S
C511 C55 1.511 . S
C516 C371 1.654 . S
C532 C285 0.771 . S
C527 C189 0.729 . S
C548 C290 0.755 . S
C543 C221 0.765 . S
C564 C324 0.860 . S
C559 C253 0.831 . S
C575 C157 0.650 . S
C580 C358 0.361 . S
C591 C61 0.734 . S
C596 C256 0.747 . S
C612 C319 0.741 . S
C607 C93 0.761 1_565 S
C628 C353 0.861 . S
C623 C125 0.890 . S
C639 C29 0.359 . S
C644 C387 0.319 . S
C655 C177 1.575 . S
C660 C269 1.608 1_554 S
C671 C209 1.875 . S
C676 C298 1.995 . S
C692 C332 1.727 . S
C687 C241 1.659 . S
C708 C366 1.787 . S
C703 C145 1.640 1_556 S
C719 C49 1.524 . S
C724 C260 1.632 . S
C740 C307 1.989 . S
C735 C81 1.876 . S
C756 C341 1.730 . S
C751 C113 1.641 . S
C767 C17 1.742 . S
C772 C375 1.779 . S
