# Generated by pormake.
# Topology zzz, (3,6)-cn, num edge types: 1
# Building blocks:
#     Node 0, Type 0, BuildingBlock: QEWDON_clean_linker_0, # of connection points: 3
#     Node 1, Type 0, BuildingBlock: QEWDON_clean_linker_0, # of connection points: 3
#     Node 2, Type 0, BuildingBlock: QEWDON_clean_linker_0, # of connection points: 3
#     Node 3, Type 0, BuildingBlock: QEWDON_clean_linker_0, # of connection points: 3
#     Node 4, Type 0, BuildingBlock: QEWDON_clean_linker_0, # of connection points: 3
#     Node 5, Type 0, BuildingBlock: QEWDON_clean_linker_0, # of connection points: 3
#     Node 6, Type 0, BuildingBlock: QEWDON_clean_linker_0, # of connection points: 3
#     Node 7, Type 0, BuildingBlock: QEWDON_clean_linker_0, # of connection points: 3
#     Node 8, Type 1, BuildingBlock: JUFBIX_clean_sbu_0, # of connection points: 6
#     Node 9, Type 1, BuildingBlock: JUFBIX_clean_sbu_0, # of connection points: 6
#     Node 10, Type 1, BuildingBlock: JUFBIX_clean_sbu_0, # of connection points: 6
#     Node 11, Type 1, BuildingBlock: JUFBIX_clean_sbu_0, # of connection points: 6
#     Edge 12, Type (0, 1), BuildingBlock: AJUNOK_clean_linker_0, # of connection points: 2
#     Edge 13, Type (0, 1), BuildingBlock: AJUNOK_clean_linker_0, # of connection points: 2
#     Edge 14, Type (0, 1), BuildingBlock: AJUNOK_clean_linker_0, # of connection points: 2
#     Edge 15, Type (0, 1), BuildingBlock: AJUNOK_clean_linker_0, # of connection points: 2
#     Edge 16, Type (0, 1), BuildingBlock: AJUNOK_clean_linker_0, # of connection points: 2
#     Edge 17, Type (0, 1), BuildingBlock: AJUNOK_clean_linker_0, # of connection points: 2
#     Edge 18, Type (0, 1), BuildingBlock: AJUNOK_clean_linker_0, # of connection points: 2
#     Edge 19, Type (0, 1), BuildingBlock: AJUNOK_clean_linker_0, # of connection points: 2
#     Edge 20, Type (0, 1), BuildingBlock: AJUNOK_clean_linker_0, # of connection points: 2
#     Edge 21, Type (0, 1), BuildingBlock: AJUNOK_clean_linker_0, # of connection points: 2
#     Edge 22, Type (0, 1), BuildingBlock: AJUNOK_clean_linker_0, # of connection points: 2
#     Edge 23, Type (0, 1), BuildingBlock: AJUNOK_clean_linker_0, # of connection points: 2
#     Edge 24, Type (0, 1), BuildingBlock: AJUNOK_clean_linker_0, # of connection points: 2
#     Edge 25, Type (0, 1), BuildingBlock: AJUNOK_clean_linker_0, # of connection points: 2
#     Edge 26, Type (0, 1), BuildingBlock: AJUNOK_clean_linker_0, # of connection points: 2
#     Edge 27, Type (0, 1), BuildingBlock: AJUNOK_clean_linker_0, # of connection points: 2
#     Edge 28, Type (0, 1), BuildingBlock: AJUNOK_clean_linker_0, # of connection points: 2
#     Edge 29, Type (0, 1), BuildingBlock: AJUNOK_clean_linker_0, # of connection points: 2
#     Edge 30, Type (0, 1), BuildingBlock: AJUNOK_clean_linker_0, # of connection points: 2
#     Edge 31, Type (0, 1), BuildingBlock: AJUNOK_clean_linker_0, # of connection points: 2
#     Edge 32, Type (0, 1), BuildingBlock: AJUNOK_clean_linker_0, # of connection points: 2
#     Edge 33, Type (0, 1), BuildingBlock: AJUNOK_clean_linker_0, # of connection points: 2
#     Edge 34, Type (0, 1), BuildingBlock: AJUNOK_clean_linker_0, # of connection points: 2
#     Edge 35, Type (0, 1), BuildingBlock: AJUNOK_clean_linker_0, # of connection points: 2
# Relax obj value: 0.075
# Max RMSD: 0.166
# Mean RMSD: 0.075
data_MOF--net-zzz--node1-JUFBIX_clean_sbu_0--node2-QEWDON_clean_linker_0--edge1-AJUNOK_clean_linker_0
_symmetry_space_group_name_H-M    P1
_symmetry_Int_Tables_number       1
_symmetry_cell_setting            triclinic
loop_
_symmetry_equiv_pos_as_xyz
'x, y, z'
_cell_length_a     40.778237
_cell_length_b     40.732331
_cell_length_c     13.50282
_cell_angle_alpha  78.305245
_cell_angle_beta   89.744891
_cell_angle_gamma 91.164651
loop_
_atom_site_label
_atom_site_type_symbol
_atom_site_fract_x
_atom_site_fract_y
_atom_site_fract_z
_atom_type_partial_charge
H0 H 0.84911 0.53608 0.12434 0.0
C1 C 0.86092 0.53234 0.19722 0.0
C2 C 0.89294 0.51987 0.2055 0.0
C3 C 0.84517 0.54142 0.28113 0.0
H4 H 0.93469 0.50897 0.30208 0.0
C5 C 0.90934 0.51676 0.29709 0.0
C6 C 0.89484 0.52632 0.37998 0.0
C7 C 0.8627 0.53804 0.373 0.0
C8 C 0.81138 0.55581 0.27203 0.0
H9 H 0.85178 0.54441 0.43959 0.0
C10 C 0.78847 0.54806 0.20103 0.0
C11 C 0.75688 0.56195 0.19296 0.0
C12 C 0.8018 0.57799 0.33414 0.0
H13 H 0.81865 0.58615 0.38628 0.0
C14 C 0.77019 0.59048 0.32964 0.0
H15 H 0.79503 0.53138 0.15157 0.0
C16 C 0.74777 0.58225 0.26075 0.0
H17 H 0.72323 0.5919 0.26067 0.0
H18 H 0.76308 0.60686 0.37956 0.0
H19 H 0.04204 0.81197 0.11301 0.0
C20 C 0.04131 0.81894 0.18622 0.0
C21 C 0.05369 0.85071 0.19433 0.0
C22 C 1.02543 0.79771 0.26915 0.0
H23 H 0.05762 0.8865 0.29067 0.0
C24 C 0.05066 0.86098 0.28634 0.0
C25 C 0.03448 0.84102 0.36886 0.0
C26 C 1.02234 0.80914 0.36113 0.0
C27 C 1.00864 0.76593 0.25498 0.0
H28 H 1.00965 0.79401 0.42563 0.0
C29 C 1.02072 0.7474 0.18497 0.0
C30 C 1.00256 0.72003 0.16304 0.0
C31 C 0.97872 0.75532 0.30538 0.0
H32 H 0.96792 0.76913 0.35736 0.0
C33 C 0.96135 0.72747 0.28605 0.0
H34 H 0.04368 0.75468 0.14517 0.0
C35 C 0.97294 0.71014 0.21451 0.0
H36 H 0.95864 0.68914 0.19854 0.0
H37 H 0.9383 0.71981 0.32483 0.0
H38 H 0.76737 1.02011 0.00368 0.0
C39 C 0.75738 1.021 0.07754 0.0
C40 C 0.72512 0.0323 0.08609 0.0
C41 C 0.7758 1.0088 0.16567 0.0
H42 H 0.68681 0.03901 0.18967 0.0
C43 C 0.71214 0.03206 0.18207 0.0
C44 C 0.72934 1.01939 0.26953 0.0
C45 C 0.76117 1.00779 0.2618 0.0
C46 C 0.80856 0.99331 0.1599 0.0
H47 H 0.77415 0.99733 0.33044 0.0
C48 C 0.83435 1.00928 0.09574 0.0
C49 C 0.86565 0.99453 0.09928 0.0
C50 C 0.8143 0.96202 0.22321 0.0
H51 H 0.79497 0.94874 0.27144 0.0
C52 C 0.84491 0.94737 0.22546 0.0
H53 H 0.83048 0.03333 0.04618 0.0
C54 C 0.87044 0.96357 0.16481 0.0
H55 H 0.89406 0.95166 0.16822 0.0
H56 H 0.84891 0.92335 0.27489 0.0
H57 H 0.55474 0.73443 0.03076 0.0
C58 C 0.55033 0.7201 0.10661 0.0
C59 C 0.53938 0.6863 0.12093 0.0
C60 C 0.55724 0.73458 0.1914 0.0
H61 H 0.528 0.64114 0.22942 0.0
C62 C 0.53521 0.66746 0.21883 0.0
C63 C 0.54265 0.68082 0.30325 0.0
C64 C 0.55362 0.71435 0.28973 0.0
C65 C 0.57227 0.76904 0.17987 0.0
H66 H 0.55981 0.7245 0.35567 0.0
C67 C 0.55798 0.79822 0.12163 0.0
C68 C 0.57212 0.83048 0.12112 0.0
C69 C 0.60127 0.77269 0.23298 0.0
H70 H 0.61308 0.75094 0.27679 0.0
C71 C 0.61542 0.8042 0.23084 0.0
H72 H 0.53562 0.79599 0.08031 0.0
C73 C 0.60091 0.83281 0.17625 0.0
H74 H 0.61246 0.85701 0.17626 0.0
H75 H 0.63772 0.80649 0.27235 0.0
H76 H 0.23819 0.55214 0.4383 0.0
C77 C 0.22608 0.5452 0.3741 0.0
C78 C 0.19185 0.542 0.37562 0.0
C79 C 0.24424 0.54047 0.28888 0.0
H80 H 0.14883 0.53173 0.29529 0.0
C81 C 0.17544 0.5339 0.2935 0.0
C82 C 0.19257 0.52934 0.20826 0.0
C83 C 0.22696 0.53258 0.20538 0.0
C84 C 0.28081 0.54486 0.28633 0.0
H85 H 0.23993 0.52881 0.13859 0.0
C86 C 0.29944 0.5372 0.37593 0.0
C87 C 0.33367 0.54273 0.37383 0.0
C88 C 0.29738 0.55773 0.19446 0.0
H89 H 0.28412 0.56487 0.12441 0.0
C90 C 0.33139 0.56245 0.19186 0.0
H91 H 0.28758 0.52658 0.44747 0.0
C92 C 0.34945 0.55504 0.28073 0.0
H93 H 0.37574 0.55961 0.27702 0.0
H94 H 0.34376 0.5724 0.12069 0.0
H95 H 1.02068 0.24727 0.4409 0.0
C96 C 0.03003 0.23902 0.37503 0.0
C97 C 0.03049 0.20454 0.37606 0.0
C98 C 0.04099 0.26256 0.28875 0.0
H99 H 0.04277 0.16683 0.2925 0.0
C100 C 0.04175 0.19355 0.2912 0.0
C101 C 0.05205 0.21602 0.20449 0.0
C102 C 0.05205 0.25061 0.20281 0.0
C103 C 0.03999 0.29932 0.28819 0.0
H104 H 0.06066 0.26781 0.13538 0.0
C105 C 0.04512 0.31173 0.37774 0.0
C106 C 0.04272 0.34621 0.37771 0.0
C107 C 0.03291 0.32229 0.19842 0.0
H108 H 0.02802 0.31388 0.12876 0.0
C109 C 0.03119 0.35651 0.19767 0.0
H110 H 0.05143 0.29477 0.44732 0.0
C111 C 0.03598 0.36843 0.28644 0.0
H112 H 0.03384 0.39504 0.28408 0.0
H113 H 1.02564 0.37387 0.1281 0.0
H114 H 0.32511 1.00632 0.61487 0.0
C115 C 0.33494 1.01845 0.54157 0.0
C116 C 0.36814 0.02882 0.53208 0.0
C117 C 0.31541 1.02097 0.45417 0.0
H118 H 0.40684 0.05079 0.43078 0.0
C119 C 0.38101 0.04348 0.43729 0.0
C120 C 0.36307 0.04397 0.34966 0.0
C121 C 0.33013 0.03275 0.35779 0.0
C122 C 0.28203 1.00509 0.46119 0.0
H123 H 0.31648 0.03182 0.28969 0.0
C124 C 0.25539 1.01689 0.51123 0.0
C125 C 0.22386 1.00129 0.51302 0.0
C126 C 0.27698 0.97739 0.41553 0.0
H127 H 0.29699 0.96777 0.37746 0.0
C128 C 0.24632 0.96155 0.41924 0.0
H129 H 0.25896 0.03858 0.54531 0.0
C130 C 0.22005 0.97331 0.46729 0.0
H131 H 0.19654 0.96033 0.46886 0.0
H132 H 0.24284 0.94005 0.38434 0.0
H133 H 0.5578 0.32447 0.60346 0.0
C134 C 0.55049 0.33744 0.52893 0.0
C135 C 0.53901 0.37047 0.51521 0.0
C136 C 0.55474 0.32223 0.44469 0.0
H137 H 0.52371 0.41369 0.40781 0.0
C138 C 0.53117 0.38778 0.41827 0.0
C139 C 0.5366 0.37399 0.3334 0.0
C140 C 0.54826 0.34107 0.3467 0.0
C141 C 0.57217 0.28983 0.45539 0.0
H142 H 0.55355 0.33064 0.28078 0.0
C143 C 0.55889 0.25869 0.50908 0.0
C144 C 0.57623 0.2286 0.51185 0.0
C145 C 0.60302 0.29044 0.40837 0.0
H146 H 0.6138 0.31387 0.36757 0.0
C147 C 0.62045 0.26112 0.41382 0.0
H148 H 0.535 0.25777 0.54505 0.0
C149 C 0.60724 0.23054 0.46479 0.0
H150 H 0.62136 0.20813 0.46727 0.0
H151 H 0.6443 0.26207 0.3777 0.0
Co152 Co 0.05533 0.04048 0.84435 0.0
C153 C 0.98724 1.02737 0.8716 0.0
Co154 Co 0.03257 1.01592 0.72937 0.0
C155 C 0.06039 0.0965 0.94044 0.0
C156 C 0.09825 0.06193 -0.00695 0.0
N157 N 0.07202 0.06638 0.93198 0.0
N158 N 0.07813 0.1114 0.00384 0.0
C159 C 0.10202 0.08948 0.03746 0.0
H160 H 0.03978 0.10764 0.89753 0.0
H161 H 0.11386 0.04036 0.00348 0.0
C162 C 0.10053 0.02821 0.70181 0.0
N163 N 1.01537 0.99035 0.6421 0.0
C164 C 1.02569 0.95978 0.63327 0.0
C165 C 0.98892 0.99583 0.58207 0.0
N166 N 1.00661 0.94556 0.57152 0.0
C167 C 0.98364 0.96849 0.53785 0.0
C168 C 0.03047 0.08298 0.66991 0.0
O169 O 0.09774 0.04071 0.78057 0.0
O170 O 0.07492 1.01642 0.66649 0.0
O171 O 1.02226 0.05644 0.63959 0.0
O172 O 0.04501 0.08045 0.75353 0.0
O173 O 0.9907 1.01552 0.79219 0.0
H174 H 0.97425 1.01808 0.57186 0.0
H175 H 0.04664 0.94785 0.67309 0.0
O176 O 1.01244 0.03954 0.90817 0.0
O177 O 0.06577 0.99998 0.9341 0.0
O178 O 0.04271 0.9759 0.82022 0.0
C179 C 0.05737 0.97348 0.90376 0.0
H180 H 0.12082 0.09285 0.09102 0.0
H181 H 0.96481 0.96626 0.4833 0.0
Co182 Co 0.53661 0.03589 0.87813 0.0
C183 C 0.54479 0.96586 0.90243 0.0
Co184 Co 0.55629 1.01999 0.74296 0.0
C185 C 0.48494 0.03831 0.02203 0.0
C186 C 0.52428 0.07242 0.03744 0.0
N187 N 0.51553 0.04816 0.98754 0.0
N188 N 0.47396 0.05572 0.09016 0.0
C189 C 0.49883 0.0771 0.10049 0.0
H190 H 0.47023 1.02006 -0.00696 0.0
H191 H 0.54703 0.08685 0.0253 0.0
C192 C 0.5486 0.08986 0.71705 0.0
N193 N 0.57728 1.00786 0.63397 0.0
C194 C 0.60719 1.01939 0.59781 0.0
C195 C 0.56998 0.98257 0.58658 0.0
N196 N 0.61923 1.0021 0.53107 0.0
C197 C 0.59575 0.97895 0.5233 0.0
C198 C 0.48964 1.02091 0.73957 0.0
O199 O 0.5381 0.08223 0.808 0.0
O200 O 0.55786 0.06632 0.6746 0.0
O201 O 0.51398 1.01456 0.68772 0.0
O202 O 0.49482 0.03035 0.82194 0.0
O203 O 0.55465 0.97428 0.81123 0.0
H204 H 0.54813 0.96677 0.60082 0.0
H205 H 0.62076 0.03881 0.62504 0.0
O206 O 0.53564 0.98889 0.94762 0.0
O207 O 0.57918 0.04182 0.93253 0.0
O208 O 0.59808 1.02501 0.79955 0.0
C209 C 0.6034 0.03499 0.88092 0.0
H210 H 0.49847 0.09531 0.14877 0.0
H211 H 0.59734 0.9603 0.47675 0.0
Co212 Co 0.56596 0.52907 0.82175 0.0
C213 C 0.53541 0.48375 0.9832 0.0
Co214 Co 0.5118 0.52718 0.81838 0.0
C215 C 0.62822 0.53848 0.91307 0.0
C216 C 0.63454 0.51914 0.77843 0.0
N217 N 0.61139 0.5296 0.83623 0.0
N218 N 0.66069 0.53389 0.90562 0.0
C219 C 0.66491 0.52154 0.82148 0.0
H220 H 0.61689 0.54744 0.97494 0.0
H221 H 0.62968 0.50999 0.71004 0.0
C222 C 0.54244 0.57211 0.65614 0.0
N223 N 0.46658 0.5264 0.8024 0.0
C224 C 0.45122 0.52665 0.7139 0.0
C225 C 0.44221 0.52656 0.87003 0.0
N226 N 0.41829 0.52735 0.72255 0.0
C227 C 0.41245 0.52709 0.82117 0.0
C228 C 0.5354 0.57765 0.90911 0.0
O229 O 0.56923 0.56124 0.69712 0.0
O230 O 0.51556 0.55947 0.69571 0.0
O231 O 0.50902 0.5633 0.88848 0.0
O232 O 0.56271 0.56562 0.89003 0.0
O233 O 0.50866 0.49466 0.94191 0.0
H234 H 0.44585 0.52652 0.94937 0.0
H235 H 0.46414 0.52708 0.64342 0.0
O236 O 0.56241 0.49697 0.94565 0.0
O237 O 0.56836 0.49251 0.75281 0.0
O238 O 0.51476 0.49128 0.74855 0.0
C239 C 0.54187 0.47881 0.73038 0.0
H240 H 0.68825 0.51507 0.79294 0.0
H241 H 0.3885 0.52696 0.85603 0.0
Co242 Co 0.0423 0.55435 0.78729 0.0
C243 C 0.08893 0.52211 0.92674 0.0
Co244 Co 0.04507 0.49931 0.8057 0.0
C245 C 0.03948 0.61228 0.87613 0.0
C246 C 0.03476 0.62591 0.71529 0.0
N247 N 0.0397 0.59947 0.79138 0.0
N248 N 0.03442 0.64556 0.85637 0.0
C249 C 0.03119 0.65428 0.75522 0.0
H250 H 0.04122 0.59712 0.9516 0.0
H251 H 0.03272 0.62443 0.63645 0.0
C252 C 0.99873 0.53098 0.66551 0.0
N253 N 0.04746 0.45422 0.79871 0.0
C254 C 0.04961 0.44346 0.71068 0.0
C255 C 0.04586 0.42593 0.87067 0.0
N256 N 0.04919 0.40977 0.72378 0.0
C257 C 0.04688 0.39849 0.82471 0.0
C258 C 0.99749 0.51621 0.92477 0.0
O259 O 1.00844 0.55831 0.68859 0.0
O260 O 1.01295 0.50413 0.70445 0.0
O261 O 1.01046 0.49022 0.90392 0.0
O262 O 1.00976 0.5449 0.8875 0.0
O263 O 0.07744 0.49478 0.9078 0.0
H264 H 0.04366 0.42528 0.95092 0.0
H265 H 0.05042 0.46022 0.63733 0.0
O266 O 0.07609 0.54967 0.88541 0.0
O267 O 0.07481 0.56378 0.68596 0.0
O268 O 0.07932 0.50922 0.70789 0.0
C269 C 0.08915 0.53855 0.6658 0.0
H270 H 1.02583 0.67919 0.71359 0.0
H271 H 0.04614 0.3724 0.86274 0.0
C272 C 0.16421 1.0158 0.50633 0.0
C273 C 0.1941 1.01352 0.55928 0.0
C274 C 0.1345 1.02161 0.55209 0.0
C275 C 0.13316 1.02591 0.65284 0.0
H276 H 0.16358 1.01202 0.42921 0.0
H277 H 0.11224 1.02207 0.5084 0.0
S278 S 0.2045 1.02429 0.82376 0.0
N279 N 0.22056 1.01739 0.71746 0.0
N280 N 0.16483 0.02914 0.80298 0.0
C281 C 0.16305 1.02544 0.70539 0.0
C282 C 0.19343 1.01915 0.65878 0.0
C283 C 0.55655 0.18602 0.66556 0.0
C284 C 0.56302 0.19451 0.56085 0.0
C285 C 0.55069 0.15233 0.71515 0.0
C286 C 0.55129 0.12577 0.66208 0.0
H287 H 0.55764 0.20529 0.71025 0.0
H288 H 0.54701 0.14697 0.79637 0.0
S289 S 0.56285 0.13543 0.38445 0.0
N290 N 0.56638 0.17401 0.40443 0.0
N291 N 0.55578 0.11124 0.49652 0.0
C292 C 0.55598 0.13433 0.55644 0.0
C293 C 0.56171 0.16848 0.50627 0.0
C294 C 0.38169 0.51743 0.47448 0.0
C295 C 0.35319 0.53657 0.46842 0.0
C296 C 0.40215 0.5137 0.55906 0.0
C297 C 0.39511 0.52914 0.64091 0.0
H298 H 0.38843 0.50552 0.41272 0.0
H299 H 0.42388 0.49883 0.55989 0.0
S300 S 0.32378 0.58275 0.66055 0.0
N301 N 0.31893 0.57128 0.55096 0.0
N302 N 0.35761 0.56476 0.70931 0.0
C303 C 0.36636 0.54795 0.63645 0.0
C304 C 0.34538 0.55155 0.55039 0.0
C305 C 0.06699 0.38792 0.47158 0.0
C306 C 0.04673 0.35951 0.47219 0.0
C307 C 0.06857 0.40329 0.55548 0.0
C308 C 0.04992 0.39098 0.64371 0.0
H309 H 0.08138 0.39875 0.40486 0.0
H310 H 0.08416 0.42541 0.55066 0.0
S311 S 0.99296 0.31721 0.6843 0.0
N312 N 1.00783 0.31939 0.56911 0.0
N313 N 1.01071 0.3484 0.72675 0.0
C314 C 0.03026 0.362 0.64664 0.0
C315 C 0.02868 0.34626 0.56096 0.0
C316 C 0.92324 1.01783 0.08295 0.0
C317 C 0.8941 1.01015 0.03589 0.0
C318 C 0.95283 1.02528 0.02821 0.0
C319 C 0.95468 1.02464 0.92443 0.0
H320 H 0.92345 1.0166 0.16386 0.0
H321 H 0.97475 0.0298 0.06888 0.0
S322 S 0.88462 1.0085 0.76428 0.0
N323 N 0.86839 1.00454 0.87852 0.0
N324 N 0.92381 1.0181 0.77535 0.0
C325 C 0.92527 1.01856 0.87558 0.0
C326 C 0.89507 1.01144 0.93129 0.0
C327 C 0.55151 0.88861 0.11555 0.0
C328 C 0.55818 0.86251 0.06425 0.0
C329 C 0.54546 0.92147 0.06299 0.0
C330 C 0.54634 0.92988 0.95653 0.0
H331 H 0.55238 0.88386 0.19739 0.0
H332 H 0.54168 0.94072 0.10642 0.0
S333 S 0.56014 0.8701 0.78621 0.0
N334 N 0.56318 0.84688 0.90109 0.0
N335 N 0.55203 0.90831 0.80178 0.0
C336 C 0.55137 0.90356 0.90434 0.0
C337 C 0.55719 0.87003 0.95817 0.0
C338 C 0.72928 0.52295 0.09384 0.0
C339 C 0.73322 0.55539 0.11451 0.0
C340 C 0.70601 0.51613 0.02369 0.0
C341 C 0.68556 0.54135 0.9732 0.0
H342 H 0.7437 0.50247 0.13377 0.0
H343 H 0.70331 0.49084 0.01076 0.0
S344 S 0.68786 0.63082 -0.00957 0.0
N345 N 0.71641 0.61363 0.06953 0.0
N346 N 0.67171 0.59999 0.94264 0.0
C347 C 0.68956 0.57384 -0.00891 0.0
C348 C 0.71362 0.58106 0.06046 0.0
C349 C 0.99365 0.70505 -0.00513 0.0
C350 C 1.01303 0.70287 0.08177 0.0
C351 C 1.00149 0.68721 0.91964 0.0
C352 C 0.02862 0.66608 0.92966 0.0
H353 H 0.97201 0.72034 0.98573 0.0
H354 H 0.98555 0.68899 0.85492 0.0
S355 S 0.08772 0.65262 0.14115 0.0
N356 N 0.0611 0.67901 0.17209 0.0
N357 N 0.07555 0.64493 0.03136 0.0
C358 C 0.0485 0.66413 0.01541 0.0
C359 C 0.0408 0.68272 0.09127 0.0
C360 C 1.00256 0.15076 0.45467 0.0
C361 C 1.02216 0.17859 0.4664 0.0
C362 C 1.00417 0.12019 0.52353 0.0
C363 C 1.02494 0.11661 0.60747 0.0
H364 H 0.98809 0.15184 0.387 0.0
H365 H 0.99028 0.09885 0.50808 0.0
S366 S 0.0761 0.18408 0.68248 0.0
N367 N 0.05933 0.20215 0.57465 0.0
N368 N 0.0617 0.1451 0.70666 0.0
C369 C 0.04179 0.14538 0.626 0.0
C370 C 0.0404 0.17639 0.55501 0.0
C371 C 0.41619 0.99598 0.59862 0.0
C372 C 0.39255 1.01943 0.6128 0.0
C373 C 0.44728 0.99588 0.64231 0.0
C374 C 0.45555 1.01864 0.70395 0.0
H375 H 0.41166 0.97975 0.54544 0.0
H376 H 0.46535 0.97875 0.62453 0.0
S377 S 0.4007 0.08181 0.77612 0.0
N378 N 0.37839 0.06388 0.69916 0.0
N379 N 0.43624 0.06271 0.7864 0.0
C380 C 0.43104 0.04005 0.7265 0.0
C381 C 0.3996 0.04062 0.67988 0.0
C382 C 0.51088 0.40583 0.61757 0.0
C383 C 0.5398 0.39051 0.59525 0.0
C384 C 0.51189 0.43378 0.66328 0.0
C385 C 0.54193 0.44779 0.68792 0.0
H386 H 0.4874 0.39748 0.59323 0.0
H387 H 0.48888 0.44523 0.67564 0.0
S388 S 0.62453 0.41483 0.65303 0.0
N389 N 0.59912 0.38973 0.60687 0.0
N390 N 0.60127 0.44207 0.69418 0.0
C391 C 0.57096 0.43138 0.67152 0.0
C392 C 0.56983 0.40276 0.62512 0.0
C393 C 0.16706 0.51787 0.54157 0.0
C394 C 0.17191 0.54581 0.46294 0.0
C395 C 0.1406 0.51627 0.60859 0.0
C396 C 0.11826 0.54263 0.59918 0.0
H397 H 0.18245 0.49621 0.54696 0.0
H398 H 0.13708 0.49371 0.66622 0.0
S399 S 0.12233 0.62245 0.40975 0.0
N400 N 0.15391 0.60111 0.3818 0.0
N401 N 0.10434 0.59859 0.50952 0.0
C402 C 0.12417 0.57165 0.52458 0.0
C403 C 0.15099 0.57309 0.45581 0.0
C404 C 0.03963 0.88298 0.02412 0.0
C405 C 0.06212 0.8769 0.10393 0.0
C406 C 0.03961 0.91382 0.9563 0.0
C407 C 0.06174 0.93986 0.96674 0.0
H408 H 1.02003 0.86504 0.01908 0.0
H409 H 1.02057 0.918 0.89964 0.0
S410 S 0.13036 0.93382 0.14783 0.0
N411 N 0.1111 0.89701 0.17742 0.0
N412 N 0.11014 0.95573 0.05174 0.0
C413 C 0.08635 0.93306 0.03974 0.0
C414 C 0.08686 0.9013 0.10749 0.0
C415 C 0.6796 0.06573 -0.00304 0.0
C416 C 0.70122 0.03876 0.00173 0.0
C417 C 0.64805 0.06466 0.95663 0.0
C418 C 0.63759 0.03743 0.91498 0.0
H419 H 0.68585 0.08609 0.0346 0.0
H420 H 0.63142 0.08475 0.96092 0.0
S421 S 0.68685 0.96401 0.88913 0.0
N422 N 0.71114 0.98615 0.94952 0.0
N423 N 0.65279 0.98541 0.86659 0.0
C424 C 0.66028 1.01239 0.90782 0.0
C425 C 0.69203 1.01292 0.952 0.0
C426 C 0.56515 0.6555 0.00144 0.0
C427 C 0.5364 0.66725 0.03877 0.0
C428 C 0.5644 0.62702 0.95764 0.0
C429 C 0.53485 0.60911 0.94951 0.0
H430 H 0.58873 0.66671 0.01371 0.0
H431 H 0.58746 0.61828 0.9336 0.0
S432 S 0.4523 0.63206 0.02704 0.0
N433 N 0.47735 0.66062 0.05818 0.0
N434 N 0.47562 0.60746 0.9747 0.0
C435 C 0.50561 0.6221 0.9803 0.0
C436 C 0.50647 0.65109 0.02493 0.0
C437 C 0.93177 0.48648 0.12412 0.0
C438 C 0.9125 0.51525 0.11702 0.0
C439 C 0.95847 0.48602 0.05851 0.0
C440 C 0.96683 0.51446 0.98449 0.0
H441 H 0.92754 0.46508 0.18539 0.0
H442 H 0.97372 0.46413 0.06979 0.0
S443 S 0.92084 0.59389 0.92422 0.0
N444 N 0.90135 0.5712 0.02288 0.0
N445 N 0.95081 0.57031 0.89809 0.0
C446 C 0.94592 0.5422 0.97096 0.0
C447 C 0.91883 0.54257 0.03743 0.0
C448 C 0.09269 0.18854 0.11353 0.0
C449 C 0.06096 0.20097 0.11767 0.0
C450 C 0.09846 0.16055 0.07031 0.0
C451 C 0.07258 0.1435 0.0315 0.0
H452 H 0.11258 0.19849 0.1524 0.0
H453 H 0.12312 0.15114 0.07261 0.0
S454 S 0.98525 0.1691 0.01655 0.0
N455 N 1.00415 0.19707 0.07015 0.0
N456 N 1.01404 0.1437 -0.00636 0.0
C457 C 0.04111 0.15764 0.02812 0.0
C458 C 0.03561 0.18664 0.0697 0.0
C459 C 0.39906 0.07993 0.22103 0.0
C460 C 0.38259 0.04899 0.25478 0.0
C461 C 0.428 0.08221 0.16306 0.0
C462 C 0.4418 0.05357 0.13736 0.0
H463 H 0.39103 0.102 0.24682 0.0
H464 H 0.44045 0.10637 0.14211 0.0
S465 S 0.40665 0.96697 0.20229 0.0
N466 N 0.38069 0.98963 0.25273 0.0
N467 N 0.43527 0.99355 0.14553 0.0
C468 C 0.42423 1.02288 0.16482 0.0
C469 C 0.39456 1.02072 0.22288 0.0
C470 C 0.50647 0.41546 0.205 0.0
C471 C 0.53505 0.39708 0.233 0.0
C472 C 0.50661 0.44315 0.12362 0.0
C473 C 0.53553 0.454 0.06823 0.0
H474 H 0.48411 0.40911 0.249 0.0
H475 H 0.48411 0.45672 0.10603 0.0
S476 S 0.61659 0.41331 0.10846 0.0
N477 N 0.59261 0.39081 0.19668 0.0
N478 N 0.59319 0.44265 0.04418 0.0
C479 C 0.56404 0.43508 0.09359 0.0
C480 C 0.5637 0.40667 0.17562 0.0
C481 C 0.15318 0.49534 0.12836 0.0
C482 C 0.17282 0.52457 0.12089 0.0
C483 C 0.12668 0.49419 0.06302 0.0
C484 C 0.11846 0.52257 -0.01004 0.0
H485 H 0.15724 0.47391 0.18885 0.0
H486 H 0.11161 0.47152 0.07317 0.0
S487 S 0.164 0.60432 0.93586 0.0
N488 N 0.18375 0.58158 0.03142 0.0
N489 N 0.13395 0.57989 0.90887 0.0
C490 C 0.139 0.5514 0.97885 0.0
C491 C 0.1662 0.55227 0.04424 0.0
C492 C 0.05067 0.87411 0.49654 0.0
C493 C 1.02564 0.85777 0.45257 0.0
C494 C 0.04399 0.90168 0.54002 0.0
C495 C 1.01193 0.91383 0.54214 0.0
H496 H 0.07604 0.86768 0.48801 0.0
H497 H 0.06457 0.91499 0.565 0.0
S498 S 0.9368 0.87475 0.45769 0.0
N499 N 0.96707 0.85229 0.42701 0.0
N500 N 0.95413 0.90318 0.51331 0.0
C501 C 0.98621 0.89523 0.50884 0.0
C502 C 0.99313 0.86727 0.46362 0.0
C503 C 0.69634 0.98216 0.40244 0.0
C504 C 0.71028 1.01414 0.3651 0.0
C505 C 0.66732 0.97823 0.46045 0.0
C506 C 0.65123 1.00615 0.48306 0.0
H507 H 0.70618 0.96042 0.37884 0.0
H508 H 0.65663 0.95331 0.48392 0.0
S509 S 0.68001 0.09493 0.41053 0.0
N510 N 0.70785 0.07371 0.36213 0.0
N511 N 0.65315 0.06669 0.46941 0.0
C512 C 0.66646 0.03798 0.45267 0.0
C513 C 0.6961 0.04184 0.39445 0.0
C514 C 0.57052 0.64766 0.45493 0.0
C515 C 0.54136 0.65758 0.40322 0.0
C516 C 0.5708 0.61989 0.53622 0.0
C517 C 0.54192 0.60104 0.56862 0.0
H518 H 0.5935 0.66046 0.42933 0.0
H519 H 0.59391 0.61294 0.57305 0.0
S520 S 0.45886 0.61818 0.45953 0.0
N521 N 0.48284 0.64749 0.39157 0.0
N522 N 0.483 0.59561 0.54347 0.0
C523 C 0.51241 0.61156 0.51888 0.0
C524 C 0.51223 0.63974 0.43658 0.0
C525 C 0.92683 0.55727 0.49009 0.0
C526 C 0.91561 0.52657 0.46901 0.0
C527 C 0.9535 0.55862 0.55482 0.0
C528 C 0.96988 0.5293 0.59991 0.0
H529 H 0.91617 0.58053 0.45178 0.0
H530 H 0.96189 0.58287 0.56709 0.0
S531 S 0.94745 0.44232 0.57435 0.0
N532 N 0.92098 0.46622 0.50254 0.0
N533 N 0.97085 0.46822 0.62393 0.0
C534 C 0.95761 0.49825 0.58279 0.0
C535 C 0.93051 0.49702 0.51752 0.0
loop_
_geom_bond_atom_site_label_1
_geom_bond_atom_site_label_2
_geom_bond_distance
_geom_bond_site_symmetry_2
_ccdc_geom_bond_type
H0 C1 0.949 . S
C1 H0 0.949 . S
C1 C2 1.395 . S
C1 C3 1.391 . S
C2 C1 1.395 . S
C2 C5 1.390 . S
C3 C1 1.391 . S
C3 C7 1.387 . S
C3 C8 1.491 . S
H4 C5 0.950 . S
C5 C2 1.390 . S
C5 H4 0.950 . S
C5 C6 1.378 . S
C6 C5 1.378 . S
C6 C7 1.409 . S
C7 C3 1.387 . S
C7 C6 1.409 . S
C7 H9 0.951 . S
C8 C3 1.491 . S
C8 C10 1.382 . S
C8 C12 1.404 . S
H9 C7 0.951 . S
C10 C8 1.382 . S
C10 C11 1.390 . S
C10 H15 0.949 . S
C11 C10 1.390 . S
C11 C16 1.399 . S
C12 C8 1.404 . S
C12 H13 0.950 . S
C12 C14 1.375 . S
H13 C12 0.950 . S
C14 C12 1.375 . S
C14 C16 1.382 . S
C14 H18 0.950 . S
H15 C10 0.949 . S
C16 C11 1.399 . S
C16 C14 1.382 . S
C16 H17 0.952 . S
H17 C16 0.952 . S
H18 C14 0.950 . S
H19 C20 0.949 1_556 S
C20 H19 0.949 1_554 S
C20 C21 1.395 . S
C20 C22 1.391 . S
C21 C20 1.395 . S
C21 C24 1.390 . S
C22 C20 1.391 . S
C22 C26 1.387 . S
C22 C27 1.491 . S
H23 C24 0.950 . S
C24 C21 1.390 . S
C24 H23 0.950 . S
C24 C25 1.378 . S
C25 C24 1.378 . S
C25 C26 1.409 . S
C26 C22 1.387 . S
C26 C25 1.409 . S
C26 H28 0.951 . S
C27 C22 1.491 . S
C27 C29 1.382 . S
C27 C31 1.404 . S
H28 C26 0.951 . S
C29 C27 1.382 . S
C29 C30 1.390 . S
C29 H34 0.949 . S
C30 C29 1.390 . S
C30 C35 1.399 . S
C31 C27 1.404 . S
C31 H32 0.950 . S
C31 C33 1.375 . S
H32 C31 0.950 . S
C33 C31 1.375 . S
C33 C35 1.382 . S
C33 H37 0.950 . S
H34 C29 0.949 . S
C35 C30 1.399 . S
C35 C33 1.382 . S
C35 H36 0.952 . S
H36 C35 0.952 . S
H37 C33 0.950 . S
H38 C39 0.949 . S
C39 H38 0.949 . S
C39 C40 1.395 . S
C39 C41 1.391 1_556 S
C40 C39 1.395 . S
C40 C43 1.384 1_566 S
C41 C39 1.391 1_554 S
C41 C45 1.387 . S
C41 C46 1.491 . S
H42 C43 0.955 . S
C43 C40 1.384 1_544 S
C43 H42 0.955 . S
C43 C44 1.380 1_545 S
C44 C43 1.380 1_565 S
C44 C45 1.409 . S
C45 C41 1.387 . S
C45 C44 1.409 . S
C45 H47 0.951 . S
C46 C41 1.491 . S
C46 C48 1.382 1_554 S
C46 C50 1.404 . S
H47 C45 0.951 . S
C48 C46 1.382 1_556 S
C48 C49 1.390 . S
C48 H53 0.949 1_565 S
C49 C48 1.390 . S
C49 C54 1.399 1_556 S
C50 C46 1.404 . S
C50 H51 0.950 . S
C50 C52 1.375 . S
H51 C50 0.950 . S
C52 C50 1.375 . S
C52 C54 1.382 . S
C52 H56 0.950 . S
H53 C48 0.949 1_545 S
C54 C49 1.399 1_554 S
C54 C52 1.382 . S
C54 H55 0.952 . S
H55 C54 0.952 . S
H56 C52 0.950 . S
H57 C58 0.942 1_556 S
C58 H57 0.942 1_554 S
C58 C59 1.395 . S
C58 C60 1.391 . S
C59 C58 1.395 . S
C59 C62 1.390 . S
C60 C58 1.391 . S
C60 C64 1.387 . S
C60 C65 1.491 . S
H61 C62 0.950 . S
C62 C59 1.390 . S
C62 H61 0.950 . S
C62 C63 1.378 . S
C63 C62 1.378 . S
C63 C64 1.409 . S
C64 C60 1.387 . S
C64 C63 1.409 . S
C64 H66 0.951 . S
C65 C60 1.491 . S
C65 C67 1.382 . S
C65 C69 1.404 . S
H66 C64 0.951 . S
C67 C65 1.382 . S
C67 C68 1.390 . S
C67 H72 0.949 . S
C68 C67 1.390 . S
C68 C73 1.399 . S
C69 C65 1.404 . S
C69 H70 0.950 . S
C69 C71 1.375 . S
H70 C69 0.950 . S
C71 C69 1.375 . S
C71 C73 1.382 . S
C71 H75 0.950 . S
H72 C67 0.949 . S
C73 C68 1.399 . S
C73 C71 1.382 . S
C73 H74 0.952 . S
H74 C73 0.952 . S
H75 C71 0.950 . S
H76 C77 0.949 . S
C77 H76 0.949 . S
C77 C78 1.395 . S
C77 C79 1.391 . S
C78 C77 1.395 . S
C78 C81 1.390 . S
C79 C77 1.391 . S
C79 C83 1.387 . S
C79 C84 1.491 . S
H80 C81 0.950 . S
C81 C78 1.390 . S
C81 H80 0.950 . S
C81 C82 1.378 . S
C82 C81 1.378 . S
C82 C83 1.409 . S
C83 C79 1.387 . S
C83 C82 1.409 . S
C83 H85 0.951 . S
C84 C79 1.491 . S
C84 C86 1.382 . S
C84 C88 1.404 . S
H85 C83 0.951 . S
C86 C84 1.382 . S
C86 C87 1.390 . S
C86 H91 0.949 . S
C87 C86 1.390 . S
C87 C92 1.399 . S
C88 C84 1.404 . S
C88 H89 0.950 . S
C88 C90 1.375 . S
H89 C88 0.950 . S
C90 C88 1.375 . S
C90 C92 1.382 . S
C90 H94 0.950 . S
H91 C86 0.949 . S
C92 C87 1.399 . S
C92 C90 1.382 . S
C92 H93 0.952 . S
H93 C92 0.952 . S
H94 C90 0.950 . S
H95 C96 0.949 . S
C96 H95 0.949 . S
C96 C97 1.395 . S
C96 C98 1.391 . S
C97 C96 1.395 . S
C97 C100 1.390 . S
C98 C96 1.391 . S
C98 C102 1.387 . S
C98 C103 1.491 . S
H99 C100 0.950 . S
C100 C97 1.390 . S
C100 H99 0.950 . S
C100 C101 1.378 . S
C101 C100 1.378 . S
C101 C102 1.409 . S
C102 C98 1.387 . S
C102 C101 1.409 . S
C102 H104 0.951 . S
C103 C98 1.491 . S
C103 C105 1.382 . S
C103 C107 1.404 . S
H104 C102 0.951 . S
C105 C103 1.382 . S
C105 C106 1.390 . S
C105 H110 0.949 . S
C106 C105 1.390 . S
C106 C111 1.399 . S
C107 C103 1.404 . S
C107 H108 0.950 . S
C107 C109 1.375 . S
H108 C107 0.950 . S
C109 C107 1.375 . S
C109 C111 1.382 . S
C109 H113 0.950 . S
H110 C105 0.949 . S
C111 C106 1.399 . S
C111 C109 1.382 . S
C111 H112 0.952 . S
H112 C111 0.952 . S
H113 C109 0.950 . S
H114 C115 0.949 . S
C115 H114 0.949 . S
C115 C116 1.395 1_565 S
C115 C117 1.391 . S
C116 C115 1.395 1_545 S
C116 C119 1.390 . S
C117 C115 1.391 . S
C117 C121 1.387 . S
C117 C122 1.491 . S
H118 C119 0.950 . S
C119 C116 1.390 . S
C119 H118 0.950 . S
C119 C120 1.378 . S
C120 C119 1.378 . S
C120 C121 1.409 1_545 S
C121 C117 1.387 . S
C121 C120 1.409 1_565 S
C121 H123 0.951 . S
C122 C117 1.491 . S
C122 C124 1.369 1_565 S
C122 C126 1.404 . S
H123 C121 0.951 . S
C124 C122 1.369 1_545 S
C124 C125 1.386 1_545 S
C124 H129 0.966 . S
C125 C124 1.386 1_565 S
C125 C130 1.399 . S
C126 C122 1.404 . S
C126 H127 0.950 . S
C126 C128 1.375 . S
H127 C126 0.950 . S
C128 C126 1.375 . S
C128 C130 1.382 . S
C128 H132 0.950 . S
H129 C124 0.966 . S
C130 C125 1.399 . S
C130 C128 1.382 . S
C130 H131 0.952 . S
H131 C130 0.952 . S
H132 C128 0.950 . S
H133 C134 0.949 . S
C134 H133 0.949 . S
C134 C135 1.395 . S
C134 C136 1.391 . S
C135 C134 1.395 . S
C135 C138 1.390 . S
C136 C134 1.391 . S
C136 C140 1.387 . S
C136 C141 1.491 . S
H137 C138 0.950 . S
C138 C135 1.390 . S
C138 H137 0.950 . S
C138 C139 1.378 . S
C139 C138 1.378 . S
C139 C140 1.409 . S
C140 C136 1.387 . S
C140 C139 1.409 . S
C140 H142 0.951 . S
C141 C136 1.491 . S
C141 C143 1.382 . S
C141 C145 1.404 . S
H142 C140 0.951 . S
C143 C141 1.382 . S
C143 C144 1.390 . S
C143 H148 0.949 . S
C144 C143 1.390 . S
C144 C149 1.399 . S
C145 C141 1.404 . S
C145 H146 0.950 . S
C145 C147 1.375 . S
H146 C145 0.950 . S
C147 C145 1.375 . S
C147 C149 1.382 . S
C147 H151 0.950 . S
H148 C143 0.949 . S
C149 C144 1.399 . S
C149 C147 1.382 . S
C149 H150 0.952 . S
H150 C149 0.952 . S
H151 C147 0.950 . S
Co152 N157 2.057 1_556 S
Co152 O169 2.021 . S
Co152 O172 2.062 . S
Co152 O176 2.117 1_455 S
Co152 O177 2.020 1_545 S
C153 O173 1.259 1_545 S
C153 O176 1.258 . S
Co154 N163 2.057 . S
Co154 O170 2.117 . S
Co154 O171 2.020 1_565 S
Co154 O173 2.021 1_455 S
Co154 O178 2.062 . S
C155 N157 1.316 . S
C155 N158 1.347 . S
C155 H160 0.931 . S
C156 N157 1.375 1_655 S
C156 C159 1.350 1_655 S
C156 H161 0.930 . S
N157 Co152 2.057 1_554 S
N157 C155 1.316 . S
N157 C156 1.375 1_455 S
N158 C155 1.347 . S
N158 C159 1.373 . S
C159 C156 1.350 1_455 S
C159 N158 1.373 . S
C159 H180 0.931 1_455 S
H160 C155 0.931 . S
H161 C156 0.930 . S
C162 O169 1.259 1_565 S
C162 O170 1.258 . S
N163 Co154 2.057 . S
N163 C164 1.316 1_455 S
N163 C165 1.375 . S
C164 N163 1.316 1_655 S
C164 N166 1.347 . S
C164 H175 0.931 . S
C165 N163 1.375 . S
C165 C167 1.350 . S
C165 H174 0.930 . S
N166 C164 1.347 . S
N166 C167 1.373 1_655 S
C167 C165 1.350 . S
C167 N166 1.373 1_455 S
C167 H181 0.931 . S
C168 O171 1.256 . S
C168 O172 1.255 . S
O169 Co152 2.021 . S
O169 C162 1.259 1_545 S
O170 Co154 2.117 . S
O170 C162 1.258 . S
O171 Co154 2.020 1_545 S
O171 C168 1.256 . S
O172 Co152 2.062 . S
O172 C168 1.255 . S
O173 C153 1.259 1_565 S
O173 Co154 2.021 1_655 S
H174 C165 0.930 . S
H175 C164 0.931 . S
O176 Co152 2.117 1_655 S
O176 C153 1.258 . S
O177 Co152 2.020 1_565 S
O177 C179 1.256 . S
O178 Co154 2.062 . S
O178 C179 1.255 . S
C179 O177 1.256 . S
C179 O178 1.255 . S
H180 C159 0.931 1_655 S
H181 C167 0.931 . S
Co182 N187 2.057 1_546 S
Co182 O199 2.021 . S
Co182 O202 2.062 . S
Co182 O206 2.117 1_545 S
Co182 O207 2.020 . S
C183 O203 1.259 . S
C183 O206 1.258 . S
Co184 N193 2.057 1_565 S
Co184 O200 2.117 1_565 S
Co184 O201 2.020 . S
Co184 O203 2.021 . S
Co184 O208 2.062 . S
C185 N187 1.316 1_545 S
C185 N188 1.347 . S
C185 H190 0.931 . S
C186 N187 1.375 . S
C186 C189 1.350 . S
C186 H191 0.930 . S
N187 Co182 2.057 1_564 S
N187 C185 1.316 1_565 S
N187 C186 1.375 . S
N188 C185 1.347 . S
N188 C189 1.373 1_545 S
C189 C186 1.350 . S
C189 N188 1.373 1_565 S
C189 H210 0.931 . S
H190 C185 0.931 . S
H191 C186 0.930 . S
C192 O199 1.259 . S
C192 O200 1.258 . S
N193 Co184 2.057 1_545 S
N193 C194 1.316 1_545 S
N193 C195 1.375 . S
C194 N193 1.316 1_565 S
C194 N196 1.347 . S
C194 H205 0.931 . S
C195 N193 1.375 . S
C195 C197 1.350 . S
C195 H204 0.930 . S
N196 C194 1.347 . S
N196 C197 1.373 1_565 S
C197 C195 1.350 . S
C197 N196 1.373 1_545 S
C197 H211 0.931 . S
C198 O201 1.256 . S
C198 O202 1.255 1_565 S
O199 Co182 2.021 . S
O199 C192 1.259 . S
O200 Co184 2.117 1_545 S
O200 C192 1.258 . S
O201 Co184 2.020 . S
O201 C198 1.256 . S
O202 Co182 2.062 . S
O202 C198 1.255 1_545 S
O203 C183 1.259 . S
O203 Co184 2.021 . S
H204 C195 0.930 . S
H205 C194 0.931 . S
O206 Co182 2.117 1_565 S
O206 C183 1.258 . S
O207 Co182 2.020 . S
O207 C209 1.256 . S
O208 Co184 2.062 . S
O208 C209 1.255 1_565 S
C209 O207 1.256 . S
C209 O208 1.255 1_545 S
H210 C189 0.931 . S
H211 C197 0.931 . S
Co212 N217 2.057 . S
Co212 O229 2.021 . S
Co212 O232 2.062 . S
Co212 O236 2.117 . S
Co212 O237 2.020 . S
C213 O233 1.259 . S
C213 O236 1.258 . S
Co214 N223 2.057 . S
Co214 O230 2.117 . S
Co214 O231 2.020 . S
Co214 O233 2.021 . S
Co214 O238 2.062 . S
C215 N217 1.316 . S
C215 N218 1.347 . S
C215 H220 0.931 . S
C216 N217 1.375 . S
C216 C219 1.350 . S
C216 H221 0.930 1_556 S
N217 Co212 2.057 . S
N217 C215 1.316 . S
N217 C216 1.375 . S
N218 C215 1.347 . S
N218 C219 1.373 . S
C219 C216 1.350 . S
C219 N218 1.373 . S
C219 H240 0.931 1_556 S
H220 C215 0.931 . S
H221 C216 0.930 1_554 S
C222 O229 1.259 . S
C222 O230 1.258 . S
N223 Co214 2.057 . S
N223 C224 1.316 . S
N223 C225 1.375 . S
C224 N223 1.316 . S
C224 N226 1.347 . S
C224 H235 0.931 . S
C225 N223 1.375 . S
C225 C227 1.350 . S
C225 H234 0.930 . S
N226 C224 1.347 . S
N226 C227 1.373 . S
C227 C225 1.350 . S
C227 N226 1.373 . S
C227 H241 0.931 . S
C228 O231 1.256 . S
C228 O232 1.255 . S
O229 Co212 2.021 . S
O229 C222 1.259 . S
O230 Co214 2.117 . S
O230 C222 1.258 . S
O231 Co214 2.020 . S
O231 C228 1.256 . S
O232 Co212 2.062 . S
O232 C228 1.255 . S
O233 C213 1.259 . S
O233 Co214 2.021 . S
H234 C225 0.930 . S
H235 C224 0.931 . S
O236 Co212 2.117 . S
O236 C213 1.258 . S
O237 Co212 2.020 . S
O237 C239 1.256 . S
O238 Co214 2.062 . S
O238 C239 1.255 . S
C239 O237 1.256 . S
C239 O238 1.255 . S
H240 C219 0.931 1_554 S
H241 C227 0.931 . S
Co242 N247 2.057 . S
Co242 O259 2.021 1_455 S
Co242 O262 2.062 1_455 S
Co242 O266 2.117 . S
Co242 O267 2.020 . S
C243 O263 1.259 . S
C243 O266 1.258 . S
Co244 N253 2.057 . S
Co244 O260 2.117 1_455 S
Co244 O261 2.020 1_455 S
Co244 O263 2.021 . S
Co244 O268 2.062 . S
C245 N247 1.316 . S
C245 N248 1.347 . S
C245 H250 0.931 1_455 S
C246 N247 1.375 . S
C246 C249 1.350 . S
C246 H251 0.930 . S
N247 Co242 2.057 . S
N247 C245 1.316 . S
N247 C246 1.375 . S
N248 C245 1.347 . S
N248 C249 1.373 . S
C249 C246 1.350 . S
C249 N248 1.373 . S
C249 H270 0.931 . S
H250 C245 0.931 1_655 S
H251 C246 0.930 . S
C252 O259 1.259 . S
C252 O260 1.258 . S
N253 Co244 2.057 . S
N253 C254 1.316 . S
N253 C255 1.375 1_455 S
C254 N253 1.316 . S
C254 N256 1.347 . S
C254 H265 0.931 . S
C255 N253 1.375 1_655 S
C255 C257 1.350 . S
C255 H264 0.930 . S
N256 C254 1.347 . S
N256 C257 1.373 1_455 S
C257 C255 1.350 . S
C257 N256 1.373 1_655 S
C257 H271 0.931 . S
C258 O261 1.256 . S
C258 O262 1.255 . S
O259 Co242 2.021 1_655 S
O259 C252 1.259 . S
O260 Co244 2.117 1_655 S
O260 C252 1.258 . S
O261 Co244 2.020 1_655 S
O261 C258 1.256 . S
O262 Co242 2.062 1_655 S
O262 C258 1.255 . S
O263 C243 1.259 . S
O263 Co244 2.021 . S
H264 C255 0.930 . S
H265 C254 0.931 . S
O266 Co242 2.117 . S
O266 C243 1.258 . S
O267 Co242 2.020 . S
O267 C269 1.256 . S
O268 Co244 2.062 . S
O268 C269 1.255 . S
C269 O267 1.256 . S
C269 O268 1.255 . S
H270 C249 0.931 . S
H271 C257 0.931 . S
C272 C273 1.369 . S
C272 C274 1.419 1_545 S
C272 H276 0.930 . S
C273 C272 1.369 . S
C273 C282 1.429 1_545 S
C274 C272 1.419 1_565 S
C274 C275 1.363 . S
C274 H277 0.929 . S
C275 C274 1.363 . S
C275 C281 1.428 . S
H276 C272 0.930 . S
H277 C274 0.929 . S
S278 N279 1.613 . S
S278 N280 1.610 . S
N279 S278 1.613 . S
N279 C282 1.350 . S
N280 S278 1.610 . S
N280 C281 1.351 . S
C281 C275 1.428 . S
C281 N280 1.351 . S
C281 C282 1.434 . S
C282 C273 1.429 1_565 S
C282 N279 1.350 . S
C282 C281 1.434 . S
C283 C284 1.369 . S
C283 C285 1.419 . S
C283 H287 0.930 . S
C284 C283 1.369 . S
C284 C293 1.429 . S
C285 C283 1.419 . S
C285 C286 1.363 . S
C285 H288 0.929 . S
C286 C285 1.363 . S
C286 C292 1.428 . S
H287 C283 0.930 . S
H288 C285 0.929 . S
S289 N290 1.613 . S
S289 N291 1.610 . S
N290 S289 1.613 . S
N290 C293 1.350 . S
N291 S289 1.610 . S
N291 C292 1.351 . S
C292 C286 1.428 . S
C292 N291 1.351 . S
C292 C293 1.434 . S
C293 C284 1.429 . S
C293 N290 1.350 . S
C293 C292 1.434 . S
C294 C295 1.369 . S
C294 C296 1.419 . S
C294 H298 0.930 . S
C295 C294 1.369 . S
C295 C304 1.429 . S
C296 C294 1.419 . S
C296 C297 1.363 . S
C296 H299 0.929 . S
C297 C296 1.363 . S
C297 C303 1.428 . S
H298 C294 0.930 . S
H299 C296 0.929 . S
S300 N301 1.613 . S
S300 N302 1.610 . S
N301 S300 1.613 . S
N301 C304 1.350 . S
N302 S300 1.610 . S
N302 C303 1.351 . S
C303 C297 1.428 . S
C303 N302 1.351 . S
C303 C304 1.434 . S
C304 C295 1.429 . S
C304 N301 1.350 . S
C304 C303 1.434 . S
C305 C306 1.369 . S
C305 C307 1.419 . S
C305 H309 0.930 . S
C306 C305 1.369 . S
C306 C315 1.429 . S
C307 C305 1.419 . S
C307 C308 1.363 . S
C307 H310 0.929 . S
C308 C307 1.363 . S
C308 C314 1.428 . S
H309 C305 0.930 . S
H310 C307 0.929 . S
S311 N312 1.613 . S
S311 N313 1.610 . S
N312 S311 1.613 . S
N312 C315 1.350 . S
N313 S311 1.610 . S
N313 C314 1.351 . S
C314 C308 1.428 . S
C314 N313 1.351 . S
C314 C315 1.434 . S
C315 C306 1.429 . S
C315 N312 1.350 . S
C315 C314 1.434 . S
C316 C317 1.369 . S
C316 C318 1.418 . S
C316 H320 0.931 1_546 S
C317 C316 1.369 . S
C317 C326 1.428 . S
C318 C316 1.418 . S
C318 C319 1.363 . S
C318 H321 0.929 1_556 S
C319 C318 1.363 . S
C319 C325 1.428 . S
H320 C316 0.931 1_564 S
H321 C318 0.929 1_554 S
S322 N323 1.610 . S
S322 N324 1.610 . S
N323 S322 1.610 . S
N323 C326 1.355 . S
N324 S322 1.610 . S
N324 C325 1.351 . S
C325 C319 1.428 . S
C325 N324 1.351 . S
C325 C326 1.434 . S
C326 C317 1.428 . S
C326 N323 1.355 . S
C326 C325 1.434 . S
C327 C328 1.369 . S
C327 C329 1.419 . S
C327 H331 0.930 1_556 S
C328 C327 1.369 . S
C328 C337 1.429 . S
C329 C327 1.419 . S
C329 C330 1.363 . S
C329 H332 0.929 . S
C330 C329 1.363 . S
C330 C336 1.428 . S
H331 C327 0.930 1_554 S
H332 C329 0.929 . S
S333 N334 1.613 . S
S333 N335 1.610 . S
N334 S333 1.613 . S
N334 C337 1.350 . S
N335 S333 1.610 . S
N335 C336 1.351 . S
C336 C330 1.428 . S
C336 N335 1.351 . S
C336 C337 1.434 . S
C337 C328 1.429 . S
C337 N334 1.350 . S
C337 C336 1.434 . S
C338 C339 1.369 . S
C338 C340 1.419 . S
C338 H342 0.930 . S
C339 C338 1.369 . S
C339 C348 1.429 1_554 S
C340 C338 1.419 . S
C340 C341 1.363 1_554 S
C340 H343 0.929 . S
C341 C340 1.363 1_556 S
C341 C347 1.428 . S
H342 C338 0.930 . S
H343 C340 0.929 . S
S344 N345 1.613 . S
S344 N346 1.610 . S
N345 S344 1.613 . S
N345 C348 1.350 . S
N346 S344 1.610 . S
N346 C347 1.351 . S
C347 C341 1.428 . S
C347 N346 1.351 . S
C347 C348 1.434 . S
C348 C339 1.429 1_556 S
C348 N345 1.350 . S
C348 C347 1.434 . S
C349 C350 1.369 . S
C349 C351 1.419 . S
C349 H353 0.930 . S
C350 C349 1.369 . S
C350 C359 1.429 1_556 S
C351 C349 1.419 . S
C351 C352 1.371 . S
C351 H354 0.929 . S
C352 C351 1.371 . S
C352 C358 1.425 1_655 S
H353 C349 0.930 . S
H354 C351 0.929 . S
S355 N356 1.613 . S
S355 N357 1.610 . S
N356 S355 1.613 . S
N356 C359 1.350 1_455 S
N357 S355 1.610 . S
N357 C358 1.351 1_554 S
C358 C352 1.425 1_455 S
C358 N357 1.351 1_556 S
C358 C359 1.434 1_456 S
C359 C350 1.429 1_554 S
C359 N356 1.350 1_655 S
C359 C358 1.434 1_654 S
C360 C361 1.369 . S
C360 C362 1.419 . S
C360 H364 0.930 . S
C361 C360 1.369 . S
C361 C370 1.429 . S
C362 C360 1.419 . S
C362 C363 1.363 . S
C362 H365 0.929 . S
C363 C362 1.363 . S
C363 C369 1.428 . S
H364 C360 0.930 . S
H365 C362 0.929 . S
S366 N367 1.613 . S
S366 N368 1.610 . S
N367 S366 1.613 . S
N367 C370 1.350 . S
N368 S366 1.610 . S
N368 C369 1.351 . S
C369 C363 1.428 . S
C369 N368 1.351 . S
C369 C370 1.434 . S
C370 C361 1.429 . S
C370 N367 1.350 . S
C370 C369 1.434 . S
C371 C372 1.369 1_565 S
C371 C373 1.419 . S
C371 H375 0.930 . S
C372 C371 1.369 1_545 S
C372 C381 1.429 . S
C373 C371 1.419 . S
C373 C374 1.363 . S
C373 H376 0.929 . S
C374 C373 1.363 . S
C374 C380 1.428 1_565 S
H375 C371 0.930 . S
H376 C373 0.929 . S
S377 N378 1.613 . S
S377 N379 1.610 . S
N378 S377 1.613 . S
N378 C381 1.350 . S
N379 S377 1.610 . S
N379 C380 1.351 . S
C380 C374 1.428 1_545 S
C380 N379 1.351 . S
C380 C381 1.434 . S
C381 C372 1.429 . S
C381 N378 1.350 . S
C381 C380 1.434 . S
C382 C383 1.369 . S
C382 C384 1.419 . S
C382 H386 0.930 . S
C383 C382 1.369 . S
C383 C392 1.429 . S
C384 C382 1.419 . S
C384 C385 1.363 . S
C384 H387 0.929 . S
C385 C384 1.363 . S
C385 C391 1.428 . S
H386 C382 0.930 . S
H387 C384 0.929 . S
S388 N389 1.613 . S
S388 N390 1.610 . S
N389 S388 1.613 . S
N389 C392 1.350 . S
N390 S388 1.610 . S
N390 C391 1.351 . S
C391 C385 1.428 . S
C391 N390 1.351 . S
C391 C392 1.434 . S
C392 C383 1.429 . S
C392 N389 1.350 . S
C392 C391 1.434 . S
C393 C394 1.369 . S
C393 C395 1.419 . S
C393 H397 0.930 . S
C394 C393 1.369 . S
C394 C403 1.429 . S
C395 C393 1.419 . S
C395 C396 1.363 . S
C395 H398 0.929 . S
C396 C395 1.363 . S
C396 C402 1.428 . S
H397 C393 0.930 . S
H398 C395 0.929 . S
S399 N400 1.613 . S
S399 N401 1.610 . S
N400 S399 1.613 . S
N400 C403 1.350 . S
N401 S399 1.610 . S
N401 C402 1.351 . S
C402 C396 1.428 . S
C402 N401 1.351 . S
C402 C403 1.434 . S
C403 C394 1.429 . S
C403 N400 1.350 . S
C403 C402 1.434 . S
C404 C405 1.369 . S
C404 C406 1.419 . S
C404 H408 0.930 . S
C405 C404 1.369 . S
C405 C414 1.429 1_655 S
C406 C404 1.419 . S
C406 C407 1.363 1_655 S
C406 H409 0.929 . S
C407 C406 1.363 1_455 S
C407 C413 1.428 . S
H408 C404 0.930 . S
H409 C406 0.929 . S
S410 N411 1.613 . S
S410 N412 1.610 . S
N411 S410 1.613 . S
N411 C414 1.350 1_554 S
N412 S410 1.610 . S
N412 C413 1.351 1_554 S
C413 C407 1.428 . S
C413 N412 1.351 1_556 S
C413 C414 1.434 . S
C414 C405 1.429 1_455 S
C414 N411 1.350 1_556 S
C414 C413 1.434 . S
C415 C416 1.369 1_545 S
C415 C417 1.419 . S
C415 H419 0.930 . S
C416 C415 1.369 1_565 S
C416 C425 1.429 . S
C417 C415 1.419 . S
C417 C418 1.363 . S
C417 H420 0.929 . S
C418 C417 1.363 . S
C418 C424 1.428 1_545 S
H419 C415 0.930 . S
H420 C417 0.929 . S
S421 N422 1.613 . S
S421 N423 1.610 . S
N422 S421 1.613 . S
N422 C425 1.350 1_554 S
N423 S421 1.610 . S
N423 C424 1.351 1_554 S
C424 C418 1.428 1_565 S
C424 N423 1.351 1_556 S
C424 C425 1.434 . S
C425 C416 1.429 . S
C425 N422 1.350 1_556 S
C425 C424 1.434 . S
C426 C427 1.369 1_556 S
C426 C428 1.419 . S
C426 H430 0.930 . S
C427 C426 1.369 1_554 S
C427 C436 1.429 . S
C428 C426 1.419 . S
C428 C429 1.363 . S
C428 H431 0.929 . S
C429 C428 1.363 . S
C429 C435 1.428 1_556 S
H430 C426 0.930 . S
H431 C428 0.929 . S
S432 N433 1.613 . S
S432 N434 1.610 . S
N433 S432 1.613 . S
N433 C436 1.350 . S
N434 S432 1.610 . S
N434 C435 1.351 . S
C435 C429 1.428 1_554 S
C435 N434 1.351 . S
C435 C436 1.434 . S
C436 C427 1.429 . S
C436 N433 1.350 . S
C436 C435 1.434 . S
C437 C438 1.369 . S
C437 C439 1.419 . S
C437 H441 0.930 . S
C438 C437 1.369 . S
C438 C447 1.429 1_554 S
C439 C437 1.419 . S
C439 C440 1.363 1_554 S
C439 H442 0.929 . S
C440 C439 1.363 1_556 S
C440 C446 1.428 . S
H441 C437 0.930 . S
H442 C439 0.929 . S
S443 N444 1.613 . S
S443 N445 1.610 . S
N444 S443 1.613 . S
N444 C447 1.350 . S
N445 S443 1.610 . S
N445 C446 1.351 . S
C446 C440 1.428 . S
C446 N445 1.351 . S
C446 C447 1.434 . S
C447 C438 1.429 1_556 S
C447 N444 1.350 . S
C447 C446 1.434 . S
C448 C449 1.369 . S
C448 C450 1.419 . S
C448 H452 0.930 . S
C449 C448 1.369 . S
C449 C458 1.429 . S
C450 C448 1.419 . S
C450 C451 1.363 . S
C450 H453 0.929 . S
C451 C450 1.363 . S
C451 C457 1.428 . S
H452 C448 0.930 . S
H453 C450 0.929 . S
S454 N455 1.613 . S
S454 N456 1.610 . S
N455 S454 1.613 . S
N455 C458 1.350 . S
N456 S454 1.610 . S
N456 C457 1.351 . S
C457 C451 1.428 . S
C457 N456 1.351 . S
C457 C458 1.434 . S
C458 C449 1.429 . S
C458 N455 1.350 . S
C458 C457 1.434 . S
C459 C460 1.369 . S
C459 C461 1.419 . S
C459 H463 0.930 . S
C460 C459 1.369 . S
C460 C469 1.429 1_545 S
C461 C459 1.419 . S
C461 C462 1.363 . S
C461 H464 0.929 . S
C462 C461 1.363 . S
C462 C468 1.428 1_545 S
H463 C459 0.930 . S
H464 C461 0.929 . S
S465 N466 1.613 . S
S465 N467 1.610 . S
N466 S465 1.613 . S
N466 C469 1.350 . S
N467 S465 1.610 . S
N467 C468 1.351 . S
C468 C462 1.428 1_565 S
C468 N467 1.351 . S
C468 C469 1.434 . S
C469 C460 1.429 1_565 S
C469 N466 1.350 . S
C469 C468 1.434 . S
C470 C471 1.369 . S
C470 C472 1.419 . S
C470 H474 0.930 . S
C471 C470 1.369 . S
C471 C480 1.429 . S
C472 C470 1.419 . S
C472 C473 1.363 . S
C472 H475 0.929 . S
C473 C472 1.363 . S
C473 C479 1.428 . S
H474 C470 0.930 . S
H475 C472 0.929 . S
S476 N477 1.613 . S
S476 N478 1.610 . S
N477 S476 1.613 . S
N477 C480 1.350 . S
N478 S476 1.610 . S
N478 C479 1.351 . S
C479 C473 1.428 . S
C479 N478 1.351 . S
C479 C480 1.434 . S
C480 C471 1.429 . S
C480 N477 1.350 . S
C480 C479 1.434 . S
C481 C482 1.369 . S
C481 C483 1.419 . S
C481 H485 0.930 . S
C482 C481 1.369 . S
C482 C491 1.429 . S
C483 C481 1.419 . S
C483 C484 1.363 . S
C483 H486 0.929 1_554 S
C484 C483 1.363 . S
C484 C490 1.428 . S
H485 C481 0.930 . S
H486 C483 0.929 1_556 S
S487 N488 1.613 . S
S487 N489 1.610 . S
N488 S487 1.613 . S
N488 C491 1.350 . S
N489 S487 1.610 . S
N489 C490 1.351 . S
C490 C484 1.428 . S
C490 N489 1.351 . S
C490 C491 1.434 . S
C491 C482 1.429 . S
C491 N488 1.350 . S
C491 C490 1.434 . S
C492 C493 1.369 . S
C492 C494 1.419 1_655 S
C492 H496 0.930 1_655 S
C493 C492 1.369 . S
C493 C502 1.429 . S
C494 C492 1.419 1_455 S
C494 C495 1.363 1_455 S
C494 H497 0.929 . S
C495 C494 1.363 1_655 S
C495 C501 1.428 . S
H496 C492 0.930 1_455 S
H497 C494 0.929 . S
S498 N499 1.613 . S
S498 N500 1.610 . S
N499 S498 1.613 . S
N499 C502 1.350 . S
N500 S498 1.610 . S
N500 C501 1.351 . S
C501 C495 1.428 . S
C501 N500 1.351 . S
C501 C502 1.434 . S
C502 C493 1.429 . S
C502 N499 1.350 . S
C502 C501 1.434 . S
C503 C504 1.369 . S
C503 C505 1.419 . S
C503 H507 0.930 . S
C504 C503 1.369 . S
C504 C513 1.429 1_565 S
C505 C503 1.419 . S
C505 C506 1.363 . S
C505 H508 0.929 . S
C506 C505 1.363 . S
C506 C512 1.428 1_565 S
H507 C503 0.930 . S
H508 C505 0.929 . S
S509 N510 1.613 . S
S509 N511 1.610 . S
N510 S509 1.613 . S
N510 C513 1.350 . S
N511 S509 1.610 . S
N511 C512 1.351 . S
C512 C506 1.428 1_545 S
C512 N511 1.351 . S
C512 C513 1.434 . S
C513 C504 1.429 1_545 S
C513 N510 1.350 . S
C513 C512 1.434 . S
C514 C515 1.369 . S
C514 C516 1.419 . S
C514 H518 0.930 . S
C515 C514 1.369 . S
C515 C524 1.429 . S
C516 C514 1.419 . S
C516 C517 1.363 . S
C516 H519 0.929 . S
C517 C516 1.363 . S
C517 C523 1.428 . S
H518 C514 0.930 . S
H519 C516 0.929 . S
S520 N521 1.613 . S
S520 N522 1.610 . S
N521 S520 1.613 . S
N521 C524 1.350 . S
N522 S520 1.610 . S
N522 C523 1.351 . S
C523 C517 1.428 . S
C523 N522 1.351 . S
C523 C524 1.434 . S
C524 C515 1.429 . S
C524 N521 1.350 . S
C524 C523 1.434 . S
C525 C526 1.369 . S
C525 C527 1.419 . S
C525 H529 0.930 . S
C526 C525 1.369 . S
C526 C535 1.429 . S
C527 C525 1.419 . S
C527 C528 1.363 . S
C527 H530 0.929 . S
C528 C527 1.363 . S
C528 C534 1.428 . S
H529 C525 0.930 . S
H530 C527 0.929 . S
S531 N532 1.613 . S
S531 N533 1.610 . S
N532 S531 1.613 . S
N532 C535 1.350 . S
N533 S531 1.610 . S
N533 C534 1.351 . S
C534 C528 1.428 . S
C534 N533 1.351 . S
C534 C535 1.434 . S
C535 C526 1.429 . S
C535 N532 1.350 . S
C535 C534 1.434 . S
C273 C125 1.615 1_545 S
C275 C162 1.749 . S
C286 C192 1.824 . S
C284 C144 1.661 . S
C297 N226 1.384 . S
C295 C87 1.369 . S
C308 N256 1.442 . S
C306 C106 1.373 . S
C319 C153 1.748 . S
C317 C49 1.644 1_545 S
C328 C68 1.726 1_556 S
C330 C183 1.823 . S
C339 C11 1.414 . S
C341 N218 1.388 . S
C350 C30 1.498 1_556 S
C352 N248 1.429 1_655 S
C363 C168 0.745 . S
C361 C97 0.731 . S
C374 C198 1.211 . S
C372 C116 1.103 . S
C385 C239 1.460 . S
C383 C135 1.395 . S
C394 C78 0.935 . S
C396 C269 0.948 . S
C405 C21 0.731 1_556 S
C407 C179 0.749 . S
C418 C209 1.209 . S
C416 C40 1.111 . S
C429 C228 1.459 . S
C427 C59 1.395 . S
C438 C2 0.944 . S
C440 C258 0.943 . S
C449 C101 1.466 . S
C451 N158 1.485 . S
C460 C120 1.444 . S
C462 N188 1.445 . S
C473 C213 1.658 1_554 S
C471 C139 1.636 . S
C484 C243 1.617 1_554 S
C482 C82 1.592 . S
C493 C25 1.470 . S
C495 N166 1.486 . S
C506 N196 1.442 . S
C504 C44 1.448 . S
C517 C222 1.656 . S
C515 C63 1.642 . S
C526 C6 1.597 . S
C528 C252 1.617 . S
