# Generated by pormake.
# Topology rtl, (3,6)-cn, num edge types: 1
# Building blocks:
#     Node 0, Type 0, BuildingBlock: PAMTOO_clean_linker_0, # of connection points: 3
#     Node 1, Type 0, BuildingBlock: PAMTOO_clean_linker_0, # of connection points: 3
#     Node 2, Type 0, BuildingBlock: PAMTOO_clean_linker_0, # of connection points: 3
#     Node 3, Type 0, BuildingBlock: PAMTOO_clean_linker_0, # of connection points: 3
#     Node 4, Type 1, BuildingBlock: LEVNOQ01_clean_sbu_1, # of connection points: 6
#     Node 5, Type 1, BuildingBlock: LEVNOQ01_clean_sbu_1, # of connection points: 6
#     Edge 6, Type (0, 1), BuildingBlock: XIVTED_clean_linker_0, # of connection points: 2
#     Edge 7, Type (0, 1), BuildingBlock: XIVTED_clean_linker_0, # of connection points: 2
#     Edge 8, Type (0, 1), BuildingBlock: XIVTED_clean_linker_0, # of connection points: 2
#     Edge 9, Type (0, 1), BuildingBlock: XIVTED_clean_linker_0, # of connection points: 2
#     Edge 10, Type (0, 1), BuildingBlock: XIVTED_clean_linker_0, # of connection points: 2
#     Edge 11, Type (0, 1), BuildingBlock: XIVTED_clean_linker_0, # of connection points: 2
#     Edge 12, Type (0, 1), BuildingBlock: XIVTED_clean_linker_0, # of connection points: 2
#     Edge 13, Type (0, 1), BuildingBlock: XIVTED_clean_linker_0, # of connection points: 2
#     Edge 14, Type (0, 1), BuildingBlock: XIVTED_clean_linker_0, # of connection points: 2
#     Edge 15, Type (0, 1), BuildingBlock: XIVTED_clean_linker_0, # of connection points: 2
#     Edge 16, Type (0, 1), BuildingBlock: XIVTED_clean_linker_0, # of connection points: 2
#     Edge 17, Type (0, 1), BuildingBlock: XIVTED_clean_linker_0, # of connection points: 2
# Relax obj value: 0.020
# Max RMSD: 0.115
# Mean RMSD: 0.090
data_MOF--net-rtl--node1-LEVNOQ01_clean_sbu_1--node2-PAMTOO_clean_linker_0--edge1-XIVTED_clean_linker_0
_symmetry_space_group_name_H-M    P1
_symmetry_Int_Tables_number       1
_symmetry_cell_setting            triclinic
loop_
_symmetry_equiv_pos_as_xyz
'x, y, z'
_cell_length_a     35.784349
_cell_length_b     35.733263
_cell_length_c     22.311258
_cell_angle_alpha  92.232489
_cell_angle_beta   98.137234
_cell_angle_gamma 89.942834
loop_
_atom_site_label
_atom_site_type_symbol
_atom_site_fract_x
_atom_site_fract_y
_atom_site_fract_z
_atom_type_partial_charge
H0 H 0.16658 0.90112 0.05634 0.0
H1 H 0.22227 0.82361 0.18332 0.0
H2 H 0.21178 0.79786 0.99277 0.0
H3 H 0.20186 0.734 0.08905 0.0
C4 C 0.2264 0.74433 0.12181 0.0
O5 O 0.24036 0.77667 0.10114 0.0
H6 H 0.21699 0.75016 0.16665 0.0
C7 C 0.18065 0.87477 0.06634 0.0
C8 C 0.18701 0.8503 0.01801 0.0
C9 C 0.19276 0.86558 0.12684 0.0
C10 C 0.21255 0.83187 0.13761 0.0
C11 C 0.21926 0.80759 0.08961 0.0
C12 C 0.20606 0.81653 0.02983 0.0
H13 H 0.63518 0.64869 0.57507 0.0
H14 H 0.70756 0.72001 0.48889 0.0
H15 H 0.72444 0.71228 0.68139 0.0
H16 H 0.73373 0.78761 0.64847 0.0
C17 C 0.73853 0.78293 0.60057 0.0
O18 O 0.74577 0.74546 0.59004 0.0
H19 H 0.71266 0.79162 0.57062 0.0
C20 C 0.6592 0.6673 0.57704 0.0
C21 C 0.67931 0.67763 0.63408 0.0
C22 C 0.6687 0.68228 0.52351 0.0
C23 C 0.69881 0.7082 0.52864 0.0
C24 C 0.71826 0.71926 0.58549 0.0
C25 C 0.7089 0.70364 0.63779 0.0
H26 H 0.86273 0.12684 0.00366 0.0
H27 H 0.78945 0.20763 0.9098 0.0
H28 H 0.80487 0.20807 0.10421 0.0
H29 H 0.72631 0.22119 0.04663 0.0
C30 C 0.73225 0.23456 0.00478 0.0
O31 O 0.77066 0.24019 0.00765 0.0
H32 H 0.722 0.21568 0.96496 0.0
C33 C 0.8432 0.15001 0.0046 0.0
C34 C 0.83555 0.16512 0.06063 0.0
C35 C 0.82664 0.16478 0.94984 0.0
C36 C 0.80275 0.19584 0.95149 0.0
C37 C 0.79489 0.21124 0.00702 0.0
C38 C 0.81151 0.19618 0.06157 0.0
H39 H 0.38135 0.37086 0.50513 0.0
H40 H 0.29793 0.29559 0.55406 0.0
H41 H 0.30514 0.31192 0.3665 0.0
H42 H 0.23221 0.28788 0.36836 0.0
C43 C 0.23457 0.28724 0.41852 0.0
O44 O 0.27045 0.27578 0.44152 0.0
H45 H 0.22906 0.31618 0.4356 0.0
C46 C 0.35845 0.35107 0.49182 0.0
C47 C 0.34495 0.34435 0.43009 0.0
C48 C 0.34188 0.33367 0.53691 0.0
C49 C 0.31153 0.30876 0.51985 0.0
C50 C 0.29913 0.30031 0.45829 0.0
C51 C 0.31605 0.31779 0.41373 0.0
O52 O -0.00122 0.07215 0.67593 0.0
Mg53 Mg 0.04893 0.06023 0.64236 0.0
O54 O 0.96941 0.03496 0.60326 0.0
Mg55 Mg 0.01556 0.01509 0.54288 0.0
O56 O 0.0518 0.07156 0.55357 0.0
O57 O 0.07634 0.10786 0.63443 0.0
O58 O 0.06322 0.00111 0.4793 0.0
O59 O 0.97988 0.04497 0.46511 0.0
Mg60 Mg 0.00726 0.96365 0.46705 0.0
O61 O 0.97391 0.9608 0.53317 0.0
O62 O 0.06209 0.9406 0.48056 0.0
O63 O 0.99037 0.00186 0.39683 0.0
O64 O 0.97099 0.92068 0.45252 0.0
C65 C 0.07752 0.98701 0.66425 0.0
C66 C 0.96886 0.05683 0.64967 0.0
C67 C 0.07059 0.10131 0.57662 0.0
C68 C 0.07878 0.96986 0.46926 0.0
C69 C 0.97709 0.03358 0.40995 0.0
C70 C 0.95902 0.93141 0.50217 0.0
O71 O 0.08541 0.02031 0.6821 0.0
O72 O 0.0519 0.98024 0.61917 0.0
O73 O 0.57456 0.56044 0.10533 0.0
Mg74 Mg 0.54507 0.50838 0.09781 0.0
O75 O 0.51493 0.56471 0.10943 0.0
Mg76 Mg 0.49661 0.52179 0.02368 0.0
O77 O 0.54667 0.47457 0.02334 0.0
O78 O 0.58657 0.47124 0.11051 0.0
O79 O 0.46943 0.48491 0.93862 0.0
O80 O 0.53377 0.5564 0.96701 0.0
Mg81 Mg 0.44868 0.57239 0.9287 0.0
O82 O 0.44766 0.56405 0.01817 0.0
O83 O 0.43158 0.52224 0.88017 0.0
O84 O 0.49921 0.59854 0.91432 0.0
O85 O 0.40864 0.60329 0.965 0.0
C86 C 0.47343 0.48359 0.13716 0.0
C87 C 0.54804 0.57772 0.12514 0.0
C88 C 0.57607 0.45988 0.05527 0.0
C89 C 0.44473 0.48999 0.89225 0.0
C90 C 0.53097 0.58416 0.93236 0.0
C91 C 0.42011 0.58779 0.01551 0.0
O92 O 0.5062 0.49494 0.15946 0.0
O93 O 0.4625 0.48656 0.08087 0.0
H94 H 0.18758 0.29754 0.50434 0.0
H95 H 0.10299 0.08925 0.47227 0.0
H96 H 0.21689 0.21628 0.37115 0.0
H97 H 0.07316 0.17599 0.59653 0.0
H98 H 0.13951 0.13585 0.42562 0.0
H99 H 0.14137 0.2537 0.53213 0.0
C100 C 0.18404 0.27041 0.48079 0.0
C101 C 0.20575 0.26046 0.43526 0.0
C102 C 0.12444 0.14468 0.46249 0.0
C103 C 0.15317 0.20975 0.46702 0.0
C104 C 0.1034 0.11821 0.48864 0.0
C105 C 0.08558 0.12885 0.53868 0.0
C106 C 0.12728 0.18175 0.48674 0.0
C107 C 0.08704 0.16657 0.55858 0.0
C108 C 0.15762 0.24534 0.49647 0.0
C109 C 0.20041 0.22486 0.4064 0.0
N110 N 0.10779 0.19149 0.53299 0.0
N111 N 0.17471 0.20062 0.42291 0.0
H112 H 0.21974 0.66851 0.09801 0.0
H113 H 0.43806 0.64478 0.09798 0.0
H114 H 0.30191 0.75359 0.16576 0.0
H115 H 0.3567 0.5568 0.04489 0.0
H116 H 0.39133 0.67891 0.14865 0.0
H117 H 0.27048 0.62234 0.10114 0.0
C118 C 0.24852 0.67738 0.11366 0.0
C119 C 0.25695 0.71513 0.12895 0.0
C120 C 0.38399 0.65152 0.1279 0.0
C121 C 0.31514 0.6626 0.13322 0.0
C122 C 0.4109 0.63181 0.0998 0.0
C123 C 0.40101 0.59806 0.06753 0.0
C124 C 0.34684 0.63759 0.12216 0.0
C125 C 0.36528 0.58274 0.06973 0.0
C126 C 0.27747 0.65103 0.11587 0.0
C127 C 0.29446 0.72497 0.15127 0.0
N128 N 0.33911 0.60304 0.09525 0.0
N129 N 0.32229 0.69905 0.15148 0.0
H130 H 0.7655 0.78754 0.49302 0.0
H131 H 0.92533 0.94144 0.60612 0.0
H132 H 0.78498 0.83092 0.67778 0.0
H133 H 0.91993 0.87339 0.44074 0.0
H134 H 0.8711 0.90615 0.63207 0.0
H135 H 0.81897 0.82453 0.47079 0.0
C136 C 0.78121 0.80491 0.52883 0.0
C137 C 0.7712 0.80606 0.58725 0.0
C138 C 0.88204 0.89904 0.59026 0.0
C139 C 0.83225 0.8486 0.5625 0.0
C140 C 0.91292 0.91912 0.57547 0.0
C141 C 0.9273 0.91039 0.52122 0.0
C142 C 0.86536 0.87043 0.55015 0.0
C143 C 0.91003 0.88123 0.4831 0.0
C144 C 0.81171 0.82597 0.51632 0.0
C145 C 0.7921 0.8292 0.63219 0.0
N146 N 0.88004 0.86252 0.49819 0.0
N147 N 0.82173 0.84965 0.6189 0.0
H148 H 0.75524 0.30382 0.05531 0.0
H149 H 0.55366 0.40051 0.97483 0.0
H150 H 0.66127 0.24786 0.94565 0.0
H151 H 0.65145 0.45322 0.07943 0.0
H152 H 0.59358 0.34716 0.95098 0.0
H153 H 0.71877 0.36146 0.05343 0.0
C154 C 0.72709 0.30388 0.02995 0.0
C155 C 0.71148 0.27124 -0.00043 0.0
C156 C 0.60629 0.37072 0.9784 0.0
C157 C 0.66886 0.33695 0.99876 0.0
C158 C 0.58358 0.40116 0.99161 0.0
C159 C 0.59927 0.43084 0.02991 0.0
C160 C 0.64471 0.37044 0.00354 0.0
C161 C 0.63812 0.43048 0.05065 0.0
C162 C 0.70614 0.33678 0.02899 0.0
C163 C 0.67446 0.27266 0.96884 0.0
N164 N 0.65935 0.40069 0.03769 0.0
N165 N 0.65427 0.30493 0.96946 0.0
H166 H 0.23433 0.87728 0.24045 0.0
H167 H 0.08413 0.01092 0.37054 0.0
H168 H 0.13049 0.91061 0.1325 0.0
H169 H 0.13604 0.9193 0.47121 0.0
H170 H 0.11878 0.99284 0.28649 0.0
H171 H 0.21434 0.91048 0.32827 0.0
C172 C 0.20746 0.89156 0.23475 0.0
C173 C 0.18374 0.89015 0.17865 0.0
C174 C 0.12332 0.97746 0.32778 0.0
C175 C 0.1619 0.92983 0.27878 0.0
C176 C 0.10396 0.98795 0.37592 0.0
C177 C 0.1073 0.96647 0.42773 0.0
C178 C 0.14676 0.9459 0.33232 0.0
C179 C 0.13277 0.93651 0.43193 0.0
C180 C 0.19639 0.91085 0.28492 0.0
C181 C 0.14999 0.91081 0.17422 0.0
N182 N 0.15144 0.92693 0.38461 0.0
N183 N 0.14004 0.92962 0.22365 0.0
H184 H 0.66758 0.71758 0.73639 0.0
H185 H 0.58844 0.54311 0.89456 0.0
H186 H 0.66427 0.60499 0.65861 0.0
H187 H 0.54773 0.65612 0.91129 0.0
H188 H 0.63445 0.56537 0.83165 0.0
H189 H 0.64165 0.69446 0.82388 0.0
C190 C 0.66203 0.68788 0.73829 0.0
C191 C 0.66761 0.66319 0.68997 0.0
C192 C 0.61595 0.58531 0.85031 0.0
C193 C 0.63813 0.63666 0.78975 0.0
C194 C 0.58998 0.57273 0.88647 0.0
C195 C 0.56411 0.59785 0.90733 0.0
C196 C 0.61631 0.62327 0.83625 0.0
C197 C 0.56698 0.63587 0.89535 0.0
C198 C 0.64715 0.67477 0.78804 0.0
C199 C 0.65976 0.625 0.69456 0.0
N200 N 0.59244 0.64742 0.86027 0.0
N201 N 0.64517 0.61288 0.74348 0.0
H202 H 0.83959 0.09069 0.08095 0.0
H203 H 0.95255 0.1067 0.41587 0.0
H204 H 0.86916 0.19846 0.16879 0.0
H205 H 0.95407 0.01043 0.29309 0.0
H206 H 0.91546 0.14067 0.33387 0.0
H207 H 0.87322 0.06031 0.16803 0.0
C208 C 0.8532 0.108 0.11873 0.0
C209 C 0.85222 0.14717 0.11708 0.0
C210 C 0.92411 0.11215 0.32519 0.0
C211 C 0.89071 0.11241 0.21757 0.0
C212 C 0.9452 0.09277 0.37179 0.0
C213 C 0.95642 0.05566 0.36129 0.0
C214 C 0.91377 0.09395 0.26834 0.0
C215 C 0.9462 0.03898 0.30337 0.0
C216 C 0.87241 0.09062 0.16849 0.0
C217 C 0.8694 0.16816 0.16819 0.0
N218 N 0.92533 0.05814 0.25938 0.0
N219 N 0.88826 0.15048 0.21644 0.0
H220 H 0.29993 0.36034 0.62227 0.0
H221 H 0.48073 0.42611 0.85719 0.0
H222 H 0.41402 0.33281 0.59643 0.0
H223 H 0.37302 0.48198 0.83625 0.0
H224 H 0.45424 0.37848 0.77979 0.0
H225 H 0.32414 0.39085 0.72042 0.0
C226 C 0.32997 0.35982 0.63811 0.0
C227 C 0.35509 0.3444 0.60121 0.0
C228 C 0.4364 0.40094 0.79298 0.0
C229 C 0.38299 0.37946 0.71268 0.0
C230 C 0.45143 0.42795 0.8371 0.0
C231 C 0.42915 0.45821 0.85225 0.0
C232 C 0.39874 0.40404 0.76517 0.0
C233 C 0.39134 0.45939 0.82505 0.0
C234 C 0.34381 0.37747 0.69378 0.0
C235 C 0.39383 0.34478 0.6235 0.0
N236 N 0.3774 0.43285 0.78275 0.0
N237 N 0.40668 0.3624 0.67758 0.0
H238 H 0.65526 0.72393 0.42028 0.0
H239 H 0.51475 0.57958 0.2274 0.0
H240 H 0.63154 0.61556 0.48696 0.0
H241 H 0.60358 0.63079 0.14654 0.0
H242 H 0.54081 0.60913 0.32562 0.0
H243 H 0.62139 0.70424 0.32127 0.0
C244 C 0.64323 0.69604 0.41466 0.0
C245 C 0.64687 0.6714 0.46296 0.0
C246 C 0.55392 0.61456 0.28591 0.0
C247 C 0.60617 0.64988 0.35011 0.0
C248 C 0.53888 0.59816 0.22988 0.0
C249 C 0.55707 0.60297 0.17897 0.0
C250 C 0.58668 0.63659 0.29045 0.0
C251 C 0.58877 0.62659 0.18485 0.0
C252 C 0.62348 0.68515 0.35813 0.0
C253 C 0.62916 0.63608 0.45229 0.0
N254 N 0.60269 0.64257 0.23978 0.0
N255 N 0.60946 0.62651 0.39722 0.0
H256 H 0.84255 0.2003 0.84957 0.0
H257 H 0.92204 0.01425 0.70665 0.0
H258 H 0.82997 0.09028 0.91752 0.0
H259 H 0.93769 0.1252 0.64533 0.0
H260 H 0.87534 0.0393 0.76847 0.0
H261 H 0.86469 0.17147 0.76 0.0
C262 C 0.84381 0.17005 0.84514 0.0
C263 C 0.8351 0.1477 0.89159 0.0
C264 C 0.88824 0.058 0.74022 0.0
C265 C 0.86093 0.11445 0.78962 0.0
C266 C 0.91452 0.0436 0.70459 0.0
C267 C 0.93346 0.06785 0.67123 0.0
C268 C 0.88138 0.09683 0.7425 0.0
C269 C 0.92349 0.10575 0.67066 0.0
C270 C 0.85661 0.15356 0.79409 0.0
C271 C 0.83736 0.1086 0.88347 0.0
N272 N 0.89851 0.1192 0.70644 0.0
N273 N 0.85054 0.09324 0.83394 0.0
H274 H 0.3642 0.41869 0.43784 0.0
H275 H 0.41906 0.42971 0.10523 0.0
H276 H 0.35849 0.32149 0.31546 0.0
H277 H 0.47305 0.49694 0.25789 0.0
H278 H 0.38351 0.39669 0.17391 0.0
H279 H 0.39132 0.45453 0.36374 0.0
C280 C 0.36888 0.40471 0.39562 0.0
C281 C 0.3598 0.36665 0.3836 0.0
C282 C 0.40297 0.41886 0.19203 0.0
C283 C 0.38974 0.40813 0.29774 0.0
C284 C 0.42303 0.43781 0.15301 0.0
C285 C 0.44919 0.46581 0.17621 0.0
C286 C 0.40858 0.42872 0.25418 0.0
C287 C 0.45344 0.47522 0.23839 0.0
C288 C 0.38406 0.42535 0.35318 0.0
C289 C 0.36508 0.35068 0.32683 0.0
N290 N 0.43328 0.45677 0.27522 0.0
N291 N 0.37984 0.37149 0.28598 0.0
H292 H 0.22396 0.89739 0.95462 0.0
H293 H 0.04909 0.91951 0.69346 0.0
H294 H 0.12362 0.82939 0.94061 0.0
H295 H 0.15038 0.98685 0.7161 0.0
H296 H 0.07945 0.87798 0.77136 0.0
H297 H 0.20126 0.92252 0.8558 0.0
C298 C 0.19733 0.88744 0.92998 0.0
C299 C 0.17547 0.86155 0.95527 0.0
C300 C 0.09524 0.90143 0.75832 0.0
C301 C 0.14875 0.89052 0.84289 0.0
C302 C 0.07803 0.9249 0.71361 0.0
C303 C 0.09717 0.95683 0.69917 0.0
C304 C 0.13176 0.91007 0.78808 0.0
C305 C 0.13448 0.96279 0.7267 0.0
C306 C 0.18427 0.90174 0.87367 0.0
C307 C 0.14111 0.84943 0.92212 0.0
N308 N 0.15036 0.93993 0.77017 0.0
N309 N 0.12849 0.86439 0.86776 0.0
loop_
_geom_bond_atom_site_label_1
_geom_bond_atom_site_label_2
_geom_bond_distance
_geom_bond_site_symmetry_2
_ccdc_geom_bond_type
H0 C7 0.929 . S
H1 C10 0.930 . S
H2 C12 0.929 1_556 S
H3 C4 0.969 . S
C4 H3 0.969 . S
C4 O5 1.550 . S
C4 H6 0.973 . S
O5 C4 1.550 . S
O5 C11 1.412 . S
H6 C4 0.973 . S
C7 H0 0.929 . S
C7 C8 1.400 . S
C7 C9 1.364 . S
C8 C7 1.400 . S
C8 C12 1.377 . S
C9 C7 1.364 . S
C9 C10 1.374 . S
C10 H1 0.930 . S
C10 C9 1.374 . S
C10 C11 1.383 . S
C11 O5 1.412 . S
C11 C10 1.383 . S
C11 C12 1.394 . S
C12 H2 0.929 1_554 S
C12 C8 1.377 . S
C12 C11 1.394 . S
H13 C20 0.929 . S
H14 C23 0.930 . S
H15 C25 0.929 . S
H16 C17 0.969 . S
C17 H16 0.969 . S
C17 O18 1.550 . S
C17 H19 0.973 . S
O18 C17 1.550 . S
O18 C24 1.412 . S
H19 C17 0.973 . S
C20 H13 0.929 . S
C20 C21 1.400 . S
C20 C22 1.364 . S
C21 C20 1.400 . S
C21 C25 1.377 . S
C22 C20 1.364 . S
C22 C23 1.374 . S
C23 H14 0.930 . S
C23 C22 1.374 . S
C23 C24 1.383 . S
C24 O18 1.412 . S
C24 C23 1.383 . S
C24 C25 1.394 . S
C25 H15 0.929 . S
C25 C21 1.377 . S
C25 C24 1.394 . S
H26 C33 0.929 . S
H27 C36 0.930 . S
H28 C38 0.929 . S
H29 C30 0.969 . S
C30 H29 0.969 . S
C30 O31 1.550 1_556 S
C30 H32 0.973 . S
O31 C30 1.550 1_554 S
O31 C37 1.412 . S
H32 C30 0.973 . S
C33 H26 0.929 . S
C33 C34 1.400 . S
C33 C35 1.364 1_554 S
C34 C33 1.400 . S
C34 C38 1.377 . S
C35 C33 1.364 1_556 S
C35 C36 1.374 . S
C36 H27 0.930 . S
C36 C35 1.374 . S
C36 C37 1.383 1_556 S
C37 O31 1.412 . S
C37 C36 1.383 1_554 S
C37 C38 1.394 . S
C38 H28 0.929 . S
C38 C34 1.377 . S
C38 C37 1.394 . S
H39 C46 0.929 . S
H40 C49 0.930 . S
H41 C51 0.929 . S
H42 C43 0.969 . S
C43 H42 0.969 . S
C43 O44 1.550 . S
C43 H45 0.973 . S
O44 C43 1.550 . S
O44 C50 1.412 . S
H45 C43 0.973 . S
C46 H39 0.929 . S
C46 C47 1.400 . S
C46 C48 1.364 . S
C47 C46 1.400 . S
C47 C51 1.377 . S
C48 C46 1.364 . S
C48 C49 1.374 . S
C49 H40 0.930 . S
C49 C48 1.374 . S
C49 C50 1.383 . S
C50 O44 1.412 . S
C50 C49 1.383 . S
C50 C51 1.394 . S
C51 H41 0.929 . S
C51 C47 1.377 . S
C51 C50 1.394 . S
O52 Mg53 1.990 . S
O52 C66 1.253 1_455 S
Mg53 O52 1.990 . S
Mg53 O56 2.180 . S
Mg53 O57 2.117 . S
Mg53 O71 2.030 . S
O54 Mg55 2.072 1_655 S
O54 C66 1.260 . S
Mg55 O54 2.072 1_455 S
Mg55 O56 2.099 . S
Mg55 O58 2.079 1_545 S
Mg55 O59 2.072 1_455 S
Mg55 O61 2.099 1_445 S
Mg55 O72 2.079 1_545 S
O56 Mg53 2.180 . S
O56 Mg55 2.099 . S
O56 C67 1.279 . S
O57 Mg53 2.117 . S
O57 C67 1.250 . S
O58 Mg55 2.079 1_565 S
O58 C68 1.264 . S
O59 Mg55 2.072 1_655 S
O59 C69 1.260 . S
Mg60 O61 2.180 . S
Mg60 O62 2.030 1_655 S
Mg60 O63 1.990 1_565 S
Mg60 O64 2.117 . S
O61 Mg55 2.099 1_665 S
O61 Mg60 2.180 . S
O61 C70 1.279 . S
O62 Mg60 2.030 1_455 S
O62 C68 1.248 . S
O63 Mg60 1.990 1_545 S
O63 C69 1.253 . S
O64 Mg60 2.117 . S
O64 C70 1.250 . S
C65 O71 1.248 1_565 S
C65 O72 1.264 . S
C66 O52 1.253 1_655 S
C66 O54 1.260 . S
C67 O56 1.279 . S
C67 O57 1.250 . S
C68 O58 1.264 . S
C68 O62 1.248 . S
C69 O59 1.260 . S
C69 O63 1.253 . S
C70 O61 1.279 . S
C70 O64 1.250 . S
O71 Mg53 2.030 . S
O71 C65 1.248 1_545 S
O72 Mg55 2.079 1_565 S
O72 C65 1.264 . S
O73 Mg74 1.990 . S
O73 C87 1.253 . S
Mg74 O73 1.990 . S
Mg74 O77 2.180 . S
Mg74 O78 2.117 . S
Mg74 O92 2.030 . S
O75 Mg76 2.072 . S
O75 C87 1.260 . S
Mg76 O75 2.072 . S
Mg76 O77 2.099 . S
Mg76 O79 2.079 1_554 S
Mg76 O80 2.072 1_554 S
Mg76 O82 2.099 . S
Mg76 O93 2.079 . S
O77 Mg74 2.180 . S
O77 Mg76 2.099 . S
O77 C88 1.279 . S
O78 Mg74 2.117 . S
O78 C88 1.250 . S
O79 Mg76 2.079 1_556 S
O79 C89 1.264 . S
O80 Mg76 2.072 1_556 S
O80 C90 1.260 . S
Mg81 O82 2.180 1_556 S
Mg81 O83 2.030 . S
Mg81 O84 1.990 . S
Mg81 O85 2.117 . S
O82 Mg76 2.099 . S
O82 Mg81 2.180 1_554 S
O82 C91 1.279 . S
O83 Mg81 2.030 . S
O83 C89 1.248 . S
O84 Mg81 1.990 . S
O84 C90 1.253 . S
O85 Mg81 2.117 . S
O85 C91 1.250 1_556 S
C86 O92 1.248 . S
C86 O93 1.264 . S
C87 O73 1.253 . S
C87 O75 1.260 . S
C88 O77 1.279 . S
C88 O78 1.250 . S
C89 O79 1.264 . S
C89 O83 1.248 . S
C90 O80 1.260 . S
C90 O84 1.253 . S
C91 O82 1.279 . S
C91 O85 1.250 1_554 S
O92 Mg74 2.030 . S
O92 C86 1.248 . S
O93 Mg76 2.079 . S
O93 C86 1.264 . S
H94 C100 0.930 . S
H95 C104 0.930 . S
H96 C109 0.929 . S
H97 C107 0.929 . S
H98 C102 0.929 . S
H99 C108 0.929 . S
C100 H94 0.930 . S
C100 C101 1.367 . S
C100 C108 1.378 . S
C101 C100 1.367 . S
C101 C109 1.433 . S
C102 H98 0.929 . S
C102 C104 1.378 . S
C102 C106 1.350 . S
C103 C106 1.463 . S
C103 C108 1.350 . S
C103 N111 1.427 . S
C104 H95 0.930 . S
C104 C102 1.378 . S
C104 C105 1.367 . S
C105 C104 1.367 . S
C105 C107 1.433 . S
C106 C102 1.350 . S
C106 C103 1.463 . S
C106 N110 1.427 . S
C107 H97 0.929 . S
C107 C105 1.433 . S
C107 N110 1.384 . S
C108 H99 0.929 . S
C108 C100 1.378 . S
C108 C103 1.350 . S
C109 H96 0.929 . S
C109 C101 1.433 . S
C109 N111 1.384 . S
N110 C106 1.427 . S
N110 C107 1.384 . S
N111 C103 1.427 . S
N111 C109 1.384 . S
H112 C118 0.930 . S
H113 C122 0.930 . S
H114 C127 0.929 . S
H115 C125 0.929 . S
H116 C120 0.929 . S
H117 C126 0.929 . S
C118 H112 0.930 . S
C118 C119 1.367 . S
C118 C126 1.378 . S
C119 C118 1.367 . S
C119 C127 1.433 . S
C120 H116 0.929 . S
C120 C122 1.378 . S
C120 C124 1.350 . S
C121 C124 1.463 . S
C121 C126 1.350 . S
C121 N129 1.427 . S
C122 H113 0.930 . S
C122 C120 1.378 . S
C122 C123 1.367 . S
C123 C122 1.367 . S
C123 C125 1.433 . S
C124 C120 1.350 . S
C124 C121 1.463 . S
C124 N128 1.427 . S
C125 H115 0.929 . S
C125 C123 1.433 . S
C125 N128 1.384 . S
C126 H117 0.929 . S
C126 C118 1.378 . S
C126 C121 1.350 . S
C127 H114 0.929 . S
C127 C119 1.433 . S
C127 N129 1.384 . S
N128 C124 1.427 . S
N128 C125 1.384 . S
N129 C121 1.427 . S
N129 C127 1.384 . S
H130 C136 0.930 . S
H131 C140 0.930 . S
H132 C145 0.929 . S
H133 C143 0.929 . S
H134 C138 0.929 . S
H135 C144 0.929 . S
C136 H130 0.930 . S
C136 C137 1.367 . S
C136 C144 1.378 . S
C137 C136 1.367 . S
C137 C145 1.433 . S
C138 H134 0.929 . S
C138 C140 1.378 . S
C138 C142 1.350 . S
C139 C142 1.463 . S
C139 C144 1.350 . S
C139 N147 1.427 . S
C140 H131 0.930 . S
C140 C138 1.378 . S
C140 C141 1.367 . S
C141 C140 1.367 . S
C141 C143 1.433 . S
C142 C138 1.350 . S
C142 C139 1.463 . S
C142 N146 1.427 . S
C143 H133 0.929 . S
C143 C141 1.433 . S
C143 N146 1.384 . S
C144 H135 0.929 . S
C144 C136 1.378 . S
C144 C139 1.350 . S
C145 H132 0.929 . S
C145 C137 1.433 . S
C145 N147 1.384 . S
N146 C142 1.427 . S
N146 C143 1.384 . S
N147 C139 1.427 . S
N147 C145 1.384 . S
H148 C154 0.930 . S
H149 C158 0.930 . S
H150 C163 0.929 . S
H151 C161 0.929 . S
H152 C156 0.929 . S
H153 C162 0.929 . S
C154 H148 0.930 . S
C154 C155 1.367 1_554 S
C154 C162 1.378 . S
C155 C154 1.367 1_556 S
C155 C163 1.433 . S
C156 H152 0.929 . S
C156 C158 1.378 . S
C156 C160 1.350 1_556 S
C157 C160 1.463 . S
C157 C162 1.350 . S
C157 N165 1.427 1_554 S
C158 H149 0.930 . S
C158 C156 1.378 . S
C158 C159 1.367 1_556 S
C159 C158 1.367 1_554 S
C159 C161 1.433 . S
C160 C156 1.350 1_554 S
C160 C157 1.463 . S
C160 N164 1.427 . S
C161 H151 0.929 . S
C161 C159 1.433 . S
C161 N164 1.384 . S
C162 H153 0.929 . S
C162 C154 1.378 . S
C162 C157 1.350 . S
C163 H150 0.929 . S
C163 C155 1.433 . S
C163 N165 1.384 . S
N164 C160 1.427 . S
N164 C161 1.384 . S
N165 C157 1.427 1_556 S
N165 C163 1.384 . S
H166 C172 0.930 . S
H167 C176 0.930 . S
H168 C181 0.929 . S
H169 C179 0.929 . S
H170 C174 0.929 . S
H171 C180 0.929 . S
C172 H166 0.930 . S
C172 C173 1.367 . S
C172 C180 1.378 . S
C173 C172 1.367 . S
C173 C181 1.433 . S
C174 H170 0.929 . S
C174 C176 1.378 . S
C174 C178 1.350 . S
C175 C178 1.463 . S
C175 C180 1.350 . S
C175 N183 1.427 . S
C176 H167 0.930 . S
C176 C174 1.378 . S
C176 C177 1.367 . S
C177 C176 1.367 . S
C177 C179 1.433 . S
C178 C174 1.350 . S
C178 C175 1.463 . S
C178 N182 1.427 . S
C179 H169 0.929 . S
C179 C177 1.433 . S
C179 N182 1.384 . S
C180 H171 0.929 . S
C180 C172 1.378 . S
C180 C175 1.350 . S
C181 H168 0.929 . S
C181 C173 1.433 . S
C181 N183 1.384 . S
N182 C178 1.427 . S
N182 C179 1.384 . S
N183 C175 1.427 . S
N183 C181 1.384 . S
H184 C190 0.930 . S
H185 C194 0.930 . S
H186 C199 0.929 . S
H187 C197 0.929 . S
H188 C192 0.929 . S
H189 C198 0.929 . S
C190 H184 0.930 . S
C190 C191 1.367 . S
C190 C198 1.378 . S
C191 C190 1.367 . S
C191 C199 1.433 . S
C192 H188 0.929 . S
C192 C194 1.378 . S
C192 C196 1.350 . S
C193 C196 1.463 . S
C193 C198 1.350 . S
C193 N201 1.427 . S
C194 H185 0.930 . S
C194 C192 1.378 . S
C194 C195 1.367 . S
C195 C194 1.367 . S
C195 C197 1.433 . S
C196 C192 1.350 . S
C196 C193 1.463 . S
C196 N200 1.427 . S
C197 H187 0.929 . S
C197 C195 1.433 . S
C197 N200 1.384 . S
C198 H189 0.929 . S
C198 C190 1.378 . S
C198 C193 1.350 . S
C199 H186 0.929 . S
C199 C191 1.433 . S
C199 N201 1.384 . S
N200 C196 1.427 . S
N200 C197 1.384 . S
N201 C193 1.427 . S
N201 C199 1.384 . S
H202 C208 0.930 . S
H203 C212 0.930 . S
H204 C217 0.929 . S
H205 C215 0.929 . S
H206 C210 0.929 . S
H207 C216 0.929 . S
C208 H202 0.930 . S
C208 C209 1.367 . S
C208 C216 1.378 . S
C209 C208 1.367 . S
C209 C217 1.433 . S
C210 H206 0.929 . S
C210 C212 1.378 . S
C210 C214 1.350 . S
C211 C214 1.463 . S
C211 C216 1.350 . S
C211 N219 1.427 . S
C212 H203 0.930 . S
C212 C210 1.378 . S
C212 C213 1.367 . S
C213 C212 1.367 . S
C213 C215 1.433 . S
C214 C210 1.350 . S
C214 C211 1.463 . S
C214 N218 1.427 . S
C215 H205 0.929 . S
C215 C213 1.433 . S
C215 N218 1.384 . S
C216 H207 0.929 . S
C216 C208 1.378 . S
C216 C211 1.350 . S
C217 H204 0.929 . S
C217 C209 1.433 . S
C217 N219 1.384 . S
N218 C214 1.427 . S
N218 C215 1.384 . S
N219 C211 1.427 . S
N219 C217 1.384 . S
H220 C226 0.930 . S
H221 C230 0.930 . S
H222 C235 0.929 . S
H223 C233 0.929 . S
H224 C228 0.929 . S
H225 C234 0.929 . S
C226 H220 0.930 . S
C226 C227 1.367 . S
C226 C234 1.378 . S
C227 C226 1.367 . S
C227 C235 1.433 . S
C228 H224 0.929 . S
C228 C230 1.378 . S
C228 C232 1.350 . S
C229 C232 1.463 . S
C229 C234 1.350 . S
C229 N237 1.427 . S
C230 H221 0.930 . S
C230 C228 1.378 . S
C230 C231 1.367 . S
C231 C230 1.367 . S
C231 C233 1.433 . S
C232 C228 1.350 . S
C232 C229 1.463 . S
C232 N236 1.427 . S
C233 H223 0.929 . S
C233 C231 1.433 . S
C233 N236 1.384 . S
C234 H225 0.929 . S
C234 C226 1.378 . S
C234 C229 1.350 . S
C235 H222 0.929 . S
C235 C227 1.433 . S
C235 N237 1.384 . S
N236 C232 1.427 . S
N236 C233 1.384 . S
N237 C229 1.427 . S
N237 C235 1.384 . S
H238 C244 0.930 . S
H239 C248 0.930 . S
H240 C253 0.929 . S
H241 C251 0.929 . S
H242 C246 0.929 . S
H243 C252 0.929 . S
C244 H238 0.930 . S
C244 C245 1.367 . S
C244 C252 1.378 . S
C245 C244 1.367 . S
C245 C253 1.433 . S
C246 H242 0.929 . S
C246 C248 1.378 . S
C246 C250 1.350 . S
C247 C250 1.463 . S
C247 C252 1.350 . S
C247 N255 1.427 . S
C248 H239 0.930 . S
C248 C246 1.378 . S
C248 C249 1.367 . S
C249 C248 1.367 . S
C249 C251 1.433 . S
C250 C246 1.350 . S
C250 C247 1.463 . S
C250 N254 1.427 . S
C251 H241 0.929 . S
C251 C249 1.433 . S
C251 N254 1.384 . S
C252 H243 0.929 . S
C252 C244 1.378 . S
C252 C247 1.350 . S
C253 H240 0.929 . S
C253 C245 1.433 . S
C253 N255 1.384 . S
N254 C250 1.427 . S
N254 C251 1.384 . S
N255 C247 1.427 . S
N255 C253 1.384 . S
H256 C262 0.930 . S
H257 C266 0.930 . S
H258 C271 0.929 . S
H259 C269 0.929 . S
H260 C264 0.929 . S
H261 C270 0.929 . S
C262 H256 0.930 . S
C262 C263 1.367 . S
C262 C270 1.378 . S
C263 C262 1.367 . S
C263 C271 1.433 . S
C264 H260 0.929 . S
C264 C266 1.378 . S
C264 C268 1.350 . S
C265 C268 1.463 . S
C265 C270 1.350 . S
C265 N273 1.427 . S
C266 H257 0.930 . S
C266 C264 1.378 . S
C266 C267 1.367 . S
C267 C266 1.367 . S
C267 C269 1.433 . S
C268 C264 1.350 . S
C268 C265 1.463 . S
C268 N272 1.427 . S
C269 H259 0.929 . S
C269 C267 1.433 . S
C269 N272 1.384 . S
C270 H261 0.929 . S
C270 C262 1.378 . S
C270 C265 1.350 . S
C271 H258 0.929 . S
C271 C263 1.433 . S
C271 N273 1.384 . S
N272 C268 1.427 . S
N272 C269 1.384 . S
N273 C265 1.427 . S
N273 C271 1.384 . S
H274 C280 0.930 . S
H275 C284 0.930 . S
H276 C289 0.929 . S
H277 C287 0.929 . S
H278 C282 0.929 . S
H279 C288 0.929 . S
C280 H274 0.930 . S
C280 C281 1.367 . S
C280 C288 1.378 . S
C281 C280 1.367 . S
C281 C289 1.433 . S
C282 H278 0.929 . S
C282 C284 1.378 . S
C282 C286 1.350 . S
C283 C286 1.463 . S
C283 C288 1.350 . S
C283 N291 1.427 . S
C284 H275 0.930 . S
C284 C282 1.378 . S
C284 C285 1.367 . S
C285 C284 1.367 . S
C285 C287 1.433 . S
C286 C282 1.350 . S
C286 C283 1.463 . S
C286 N290 1.427 . S
C287 H277 0.929 . S
C287 C285 1.433 . S
C287 N290 1.384 . S
C288 H279 0.929 . S
C288 C280 1.378 . S
C288 C283 1.350 . S
C289 H276 0.929 . S
C289 C281 1.433 . S
C289 N291 1.384 . S
N290 C286 1.427 . S
N290 C287 1.384 . S
N291 C283 1.427 . S
N291 C289 1.384 . S
H292 C298 0.930 . S
H293 C302 0.930 . S
H294 C307 0.929 . S
H295 C305 0.929 1_545 S
H296 C300 0.929 . S
H297 C306 0.929 . S
C298 H292 0.930 . S
C298 C299 1.367 . S
C298 C306 1.378 . S
C299 C298 1.367 . S
C299 C307 1.433 . S
C300 H296 0.929 . S
C300 C302 1.378 . S
C300 C304 1.350 . S
C301 C304 1.463 . S
C301 C306 1.350 . S
C301 N309 1.427 . S
C302 H293 0.930 . S
C302 C300 1.378 . S
C302 C303 1.367 . S
C303 C302 1.367 . S
C303 C305 1.433 . S
C304 C300 1.350 . S
C304 C301 1.463 . S
C304 N308 1.427 . S
C305 H295 0.929 1_565 S
C305 C303 1.433 . S
C305 N308 1.384 . S
C306 H297 0.929 . S
C306 C298 1.378 . S
C306 C301 1.350 . S
C307 H294 0.929 . S
C307 C299 1.433 . S
C307 N309 1.384 . S
N308 C304 1.427 . S
N308 C305 1.384 . S
N309 C301 1.427 . S
N309 C307 1.384 . S
C105 C67 1.286 . S
C101 C43 1.389 . S
C119 C4 1.439 . S
C123 C91 1.280 . S
C137 C17 1.521 . S
C141 C70 1.401 . S
C155 C30 1.587 . S
C159 C88 1.407 . S
C177 C68 1.449 . S
C173 C9 1.471 . S
C195 C90 1.519 . S
C191 C21 1.582 . S
C209 C34 1.569 . S
C213 C69 1.522 . S
C227 C48 1.484 . S
C231 C89 1.443 . S
C249 C87 1.496 . S
C245 C22 1.553 . S
C267 C66 1.522 . S
C263 C35 1.560 . S
C285 C86 1.440 . S
C281 C47 1.480 . S
C299 C8 1.497 1_556 S
C303 C65 1.449 . S
