# Generated by pormake.
# Topology cml, (3,6)-cn, num edge types: 1
# Building blocks:
#     Node 0, Type 0, BuildingBlock: BETDIP_clean_linker_0, # of connection points: 3
#     Node 1, Type 0, BuildingBlock: BETDIP_clean_linker_0, # of connection points: 3
#     Node 2, Type 0, BuildingBlock: BETDIP_clean_linker_0, # of connection points: 3
#     Node 3, Type 0, BuildingBlock: BETDIP_clean_linker_0, # of connection points: 3
#     Node 4, Type 0, BuildingBlock: BETDIP_clean_linker_0, # of connection points: 3
#     Node 5, Type 0, BuildingBlock: BETDIP_clean_linker_0, # of connection points: 3
#     Node 6, Type 0, BuildingBlock: BETDIP_clean_linker_0, # of connection points: 3
#     Node 7, Type 0, BuildingBlock: BETDIP_clean_linker_0, # of connection points: 3
#     Node 8, Type 1, BuildingBlock: OJICUG_clean_sbu_0, # of connection points: 6
#     Node 9, Type 1, BuildingBlock: OJICUG_clean_sbu_0, # of connection points: 6
#     Node 10, Type 1, BuildingBlock: OJICUG_clean_sbu_0, # of connection points: 6
#     Node 11, Type 1, BuildingBlock: OJICUG_clean_sbu_0, # of connection points: 6
#     Edge 12, Type (0, 1), BuildingBlock: XUDNAN_clean_linker_2, # of connection points: 2
#     Edge 13, Type (0, 1), BuildingBlock: XUDNAN_clean_linker_2, # of connection points: 2
#     Edge 14, Type (0, 1), BuildingBlock: XUDNAN_clean_linker_2, # of connection points: 2
#     Edge 15, Type (0, 1), BuildingBlock: XUDNAN_clean_linker_2, # of connection points: 2
#     Edge 16, Type (0, 1), BuildingBlock: XUDNAN_clean_linker_2, # of connection points: 2
#     Edge 17, Type (0, 1), BuildingBlock: XUDNAN_clean_linker_2, # of connection points: 2
#     Edge 18, Type (0, 1), BuildingBlock: XUDNAN_clean_linker_2, # of connection points: 2
#     Edge 19, Type (0, 1), BuildingBlock: XUDNAN_clean_linker_2, # of connection points: 2
#     Edge 20, Type (0, 1), BuildingBlock: XUDNAN_clean_linker_2, # of connection points: 2
#     Edge 21, Type (0, 1), BuildingBlock: XUDNAN_clean_linker_2, # of connection points: 2
#     Edge 22, Type (0, 1), BuildingBlock: XUDNAN_clean_linker_2, # of connection points: 2
#     Edge 23, Type (0, 1), BuildingBlock: XUDNAN_clean_linker_2, # of connection points: 2
#     Edge 24, Type (0, 1), BuildingBlock: XUDNAN_clean_linker_2, # of connection points: 2
#     Edge 25, Type (0, 1), BuildingBlock: XUDNAN_clean_linker_2, # of connection points: 2
#     Edge 26, Type (0, 1), BuildingBlock: XUDNAN_clean_linker_2, # of connection points: 2
#     Edge 27, Type (0, 1), BuildingBlock: XUDNAN_clean_linker_2, # of connection points: 2
#     Edge 28, Type (0, 1), BuildingBlock: XUDNAN_clean_linker_2, # of connection points: 2
#     Edge 29, Type (0, 1), BuildingBlock: XUDNAN_clean_linker_2, # of connection points: 2
#     Edge 30, Type (0, 1), BuildingBlock: XUDNAN_clean_linker_2, # of connection points: 2
#     Edge 31, Type (0, 1), BuildingBlock: XUDNAN_clean_linker_2, # of connection points: 2
#     Edge 32, Type (0, 1), BuildingBlock: XUDNAN_clean_linker_2, # of connection points: 2
#     Edge 33, Type (0, 1), BuildingBlock: XUDNAN_clean_linker_2, # of connection points: 2
#     Edge 34, Type (0, 1), BuildingBlock: XUDNAN_clean_linker_2, # of connection points: 2
#     Edge 35, Type (0, 1), BuildingBlock: XUDNAN_clean_linker_2, # of connection points: 2
# Relax obj value: 0.006
# Max RMSD: 0.050
# Mean RMSD: 0.043
data_MOF--net-cml--node1-OJICUG_clean_sbu_0--node2-BETDIP_clean_linker_0--edge1-XUDNAN_clean_linker_2
_symmetry_space_group_name_H-M    P1
_symmetry_Int_Tables_number       1
_symmetry_cell_setting            triclinic
loop_
_symmetry_equiv_pos_as_xyz
'x, y, z'
_cell_length_a     40.730408
_cell_length_b     39.339018
_cell_length_c     35.516283
_cell_angle_alpha  89.909231
_cell_angle_beta   90.017925
_cell_angle_gamma 89.992256
loop_
_atom_site_label
_atom_site_type_symbol
_atom_site_fract_x
_atom_site_fract_y
_atom_site_fract_z
_atom_type_partial_charge
H0 H 0.2881 0.33298 0.03046 0.0
H1 H 0.29228 0.40454 0.93865 0.0
H2 H 0.34066 0.42666 0.04368 0.0
H3 H 0.24048 0.37948 0.92631 0.0
C4 C 0.24503 0.35287 0.93262 0.0
C5 C 0.29638 0.35706 0.01899 0.0
C6 C 0.31507 0.37902 0.04124 0.0
C7 C 0.28729 0.36645 0.98238 0.0
C8 C 0.29836 0.39755 0.96731 0.0
C9 C 0.31773 0.41949 0.98932 0.0
C10 C 0.32559 0.41012 0.02643 0.0
N11 N 0.26747 0.34362 0.96151 0.0
H12 H 0.74284 0.64906 0.55006 0.0
H13 H 0.74292 0.58706 0.45022 0.0
H14 H 0.66125 0.58327 0.52614 0.0
H15 H 0.7979 0.59292 0.45622 0.0
C16 C 0.8003 0.61942 0.46429 0.0
C17 C 0.73117 0.6301 0.53247 0.0
C18 C 0.70051 0.61667 0.54262 0.0
C19 C 0.74706 0.61905 0.49971 0.0
C20 C 0.73159 0.59493 0.47633 0.0
C21 C 0.70085 0.58147 0.48614 0.0
C22 C 0.68565 0.59242 0.51933 0.0
N23 N 0.77767 0.634 0.49001 0.0
H24 H 0.70939 0.3421 0.05218 0.0
H25 H 0.718 0.39017 0.94367 0.0
H26 H 0.64662 0.42582 0.02353 0.0
H27 H 0.74511 0.34316 0.92751 0.0
C28 C 0.7572 0.33474 0.95311 0.0
C29 C 0.70107 0.36086 0.0319 0.0
C30 C 0.67652 0.38403 0.04189 0.0
C31 C 0.71593 0.36252 0.9964 0.0
C32 C 0.70584 0.38765 0.97057 0.0
C33 C 0.68073 0.41068 0.97998 0.0
C34 C 0.66624 0.40857 0.0158 0.0
N35 N 0.74235 0.34 0.98882 0.0
H36 H 0.23293 0.63638 0.5735 0.0
H37 H 0.23697 0.57653 0.47249 0.0
H38 H 0.31629 0.57226 0.5514 0.0
H39 H 0.1921 0.6006 0.45661 0.0
C40 C 0.1877 0.62298 0.47361 0.0
C41 C 0.24542 0.61786 0.55607 0.0
C42 C 0.27585 0.60446 0.56743 0.0
C43 C 0.23135 0.60865 0.52162 0.0
C44 C 0.2475 0.58451 0.49887 0.0
C45 C 0.27804 0.57083 0.50959 0.0
C46 C 0.29195 0.58107 0.54391 0.0
N47 N 0.2028 0.62658 0.50945 0.0
H48 H 0.77002 0.83972 0.03079 0.0
H49 H 0.77517 0.91653 0.9443 0.0
H50 H 0.83393 0.92604 0.04359 0.0
H51 H 0.7547 0.87616 0.90783 0.0
C52 C 0.74031 0.8591 0.92529 0.0
C53 C 0.78001 0.86346 0.02034 0.0
C54 C 0.80289 0.88161 0.04195 0.0
C55 C 0.77018 0.87536 0.98488 0.0
C56 C 0.7829 0.90635 0.97117 0.0
C57 C 0.80538 0.92494 0.99283 0.0
C58 C 0.81531 0.91236 0.02791 0.0
N59 N 0.74725 0.85555 0.96427 0.0
H60 H 0.24325 0.13144 0.56408 0.0
H61 H 0.24166 0.07583 0.46 0.0
H62 H 0.15984 0.06965 0.53618 0.0
H63 H 0.27883 0.11581 0.44156 0.0
C64 C 0.28995 0.12697 0.46641 0.0
C65 C 0.23091 0.11396 0.54522 0.0
C66 C 0.19983 0.10125 0.55452 0.0
C67 C 0.24587 0.1056 0.51104 0.0
C68 C 0.23011 0.08297 0.48624 0.0
C69 C 0.19933 0.06909 0.49578 0.0
C70 C 0.1844 0.07858 0.52982 0.0
N71 N 0.27627 0.1215 0.50269 0.0
H72 H 0.22732 0.85582 0.05849 0.0
H73 H 0.23743 0.90804 0.95212 0.0
H74 H 0.17702 0.95028 0.03881 0.0
H75 H 0.26316 0.86204 0.93339 0.0
C76 C 0.27233 0.84848 0.95783 0.0
C77 C 0.22132 0.87699 0.04015 0.0
C78 C 0.20068 0.90295 0.05307 0.0
C79 C 0.23496 0.87844 0.00397 0.0
C80 C 0.22721 0.906 0.9801 0.0
C81 C 0.20647 0.93191 0.99292 0.0
C82 C 0.19352 0.9304 0.02933 0.0
N83 N 0.25746 0.85253 0.99366 0.0
H84 H 0.76962 0.15208 0.56521 0.0
H85 H 0.76018 0.0957 0.46229 0.0
H86 H 0.83256 0.06708 0.54523 0.0
H87 H 0.72063 0.13104 0.44742 0.0
C88 C 0.71912 0.1516 0.46761 0.0
C89 C 0.77746 0.13145 0.5471 0.0
C90 C 0.80191 0.10912 0.55935 0.0
C91 C 0.76246 0.12708 0.51201 0.0
C92 C 0.7723 0.09976 0.48888 0.0
C93 C 0.79788 0.07759 0.50019 0.0
C94 C 0.81239 0.08282 0.53573 0.0
N95 N 0.73803 0.15113 0.50132 0.0
Sc96 Sc 0.00446 0.81682 0.30263 0.0
Sc97 Sc 0.98761 0.90368 0.30708 0.0
Sc98 Sc 0.99362 0.8563 0.39127 0.0
O99 O 0.99505 0.85886 0.3338 0.0
C100 C 0.95717 0.78836 0.368 0.0
C101 C 0.94794 0.85191 0.25482 0.0
C102 C 0.93608 0.91023 0.37361 0.0
C103 C 0.04527 0.87273 0.25775 0.0
C104 C 0.05291 0.80537 0.3711 0.0
C105 C 0.03439 0.92409 0.37581 0.0
O106 O 0.97257 0.78634 0.33693 0.0
O107 O 0.95438 0.8817 0.26662 0.0
O108 O 0.95137 0.89054 0.39618 0.0
O109 O 0.03845 0.84193 0.26506 0.0
O110 O 0.03548 0.82166 0.39484 0.0
O111 O 0.02026 0.92982 0.34451 0.0
O112 O 0.04569 0.80358 0.33643 0.0
O113 O 0.02913 0.89742 0.27115 0.0
O114 O 0.02791 0.89826 0.39625 0.0
O115 O 0.96371 0.8258 0.26559 0.0
O116 O 0.96005 0.81351 0.39038 0.0
O117 O 0.94583 0.91572 0.3403 0.0
Sc118 Sc 0.99884 0.19197 0.81108 0.0
Sc119 Sc 0.00327 0.10213 0.81886 0.0
Sc120 Sc 0.01036 0.15295 0.89943 0.0
O121 O 0.00402 0.14903 0.84301 0.0
C122 C 0.05668 0.21145 0.86816 0.0
C123 C 0.04529 0.14563 0.76005 0.0
C124 C 0.05924 0.09198 0.87995 0.0
C125 C 0.94717 0.14129 0.77318 0.0
C126 C 0.95784 0.21177 0.88401 0.0
C127 C 0.96023 0.09116 0.89324 0.0
O128 O 0.04002 0.21721 0.83845 0.0
O129 O 0.03641 0.11752 0.77462 0.0
O130 O 0.04847 0.11541 0.90107 0.0
O131 O 0.95794 0.1712 0.77922 0.0
O132 O 0.97368 0.19164 0.90524 0.0
O133 O 0.96976 0.08217 0.86059 0.0
O134 O 0.96334 0.2143 0.84888 0.0
O135 O 0.96108 0.11475 0.78584 0.0
O136 O 0.97242 0.11638 0.91069 0.0
O137 O 0.03364 0.17416 0.77022 0.0
O138 O 0.04888 0.18907 0.8923 0.0
O139 O 0.04563 0.08387 0.84911 0.0
Sc140 Sc 0.49533 0.31813 0.31765 0.0
Sc141 Sc 0.4852 0.40708 0.31289 0.0
Sc142 Sc 0.4927 0.36802 0.40099 0.0
O143 O 0.49101 0.36425 0.34389 0.0
C144 C 0.44979 0.30071 0.38846 0.0
C145 C 0.43958 0.35506 0.26896 0.0
C146 C 0.43734 0.42287 0.38183 0.0
C147 C 0.53798 0.36587 0.2644 0.0
C148 C 0.54703 0.31096 0.3853 0.0
C149 C 0.53603 0.43163 0.3751 0.0
O150 O 0.45976 0.29489 0.35506 0.0
O151 O 0.44683 0.38472 0.28019 0.0
O152 O 0.45074 0.40198 0.4045 0.0
O153 O 0.53168 0.33656 0.27781 0.0
O154 O 0.53443 0.33471 0.40477 0.0
O155 O 0.52316 0.43354 0.34261 0.0
O156 O 0.53545 0.30183 0.35358 0.0
O157 O 0.52231 0.39239 0.27375 0.0
O158 O 0.52693 0.41 0.39966 0.0
O159 O 0.45563 0.3286 0.27838 0.0
O160 O 0.45964 0.32587 0.40792 0.0
O161 O 0.44765 0.42729 0.34849 0.0
Sc162 Sc 0.49494 0.69534 0.79864 0.0
Sc163 Sc 0.4971 0.60595 0.79833 0.0
Sc164 Sc 0.51283 0.65101 0.88238 0.0
O165 O 0.50164 0.65071 0.8265 0.0
C166 C 0.55626 0.71228 0.85181 0.0
C167 C 0.53796 0.652 0.74106 0.0
C168 C 0.55606 0.58826 0.85435 0.0
C169 C 0.44011 0.64978 0.75977 0.0
C170 C 0.45974 0.71076 0.87641 0.0
C171 C 0.45954 0.59135 0.87549 0.0
O172 O 0.53734 0.71786 0.82407 0.0
O173 O 0.52953 0.62311 0.7541 0.0
O174 O 0.54979 0.61191 0.87761 0.0
O175 O 0.45181 0.67834 0.76945 0.0
O176 O 0.47689 0.68954 0.89492 0.0
O177 O 0.46477 0.58525 0.84078 0.0
O178 O 0.46293 0.71517 0.84118 0.0
O179 O 0.45408 0.62183 0.76775 0.0
O180 O 0.47516 0.61389 0.89398 0.0
O181 O 0.52665 0.67987 0.75361 0.0
O182 O 0.55131 0.68854 0.87555 0.0
O183 O 0.53917 0.58343 0.82483 0.0
H184 H 0.18583 0.36231 0.89739 0.0
H185 H 0.25401 0.28416 0.93405 0.0
H186 H 0.21454 0.23998 0.91538 0.0
H187 H 0.11511 0.3235 0.93156 0.0
H188 H 0.08855 0.33531 0.8931 0.0
H189 H 0.12359 0.36122 0.90435 0.0
H190 H 0.14496 0.35519 0.83601 0.0
H191 H 0.10979 0.32941 0.82443 0.0
H192 H 0.15064 0.31342 0.81626 0.0
H193 H 0.1665 0.20492 0.90107 0.0
H194 H 0.11226 0.17983 0.88878 0.0
H195 H 0.07383 0.27922 0.85914 0.0
C196 C 0.19263 0.33584 0.90054 0.0
C197 C 0.22289 0.3266 0.91717 0.0
C198 C 0.2309 0.29182 0.92153 0.0
C199 C 0.20871 0.26651 0.91085 0.0
C200 C 0.1787 0.27638 0.8956 0.0
C201 C 0.17061 0.31012 0.89004 0.0
C202 C 0.13564 0.31355 0.87555 0.0
C203 C 0.11449 0.33464 0.90277 0.0
C204 C 0.13525 0.3288 0.83569 0.0
C205 C 0.12509 0.27655 0.87517 0.0
C206 C 0.15056 0.25568 0.88661 0.0
C207 C 0.14652 0.22086 0.89145 0.0
C208 C 0.11558 0.20691 0.88467 0.0
C209 C 0.08903 0.22763 0.87298 0.0
C210 C 0.09393 0.26284 0.86752 0.0
H211 H 0.81751 0.686 0.47966 0.0
H212 H 0.8425 0.599 0.41031 0.0
H213 H 0.88561 0.63282 0.37881 0.0
H214 H 0.82854 0.74952 0.40883 0.0
H215 H 0.84631 0.78049 0.44016 0.0
H216 H 0.81786 0.74939 0.45809 0.0
H217 H 0.86093 0.72982 0.50727 0.0
H218 H 0.88947 0.76097 0.48957 0.0
H219 H 0.90112 0.7168 0.49167 0.0
H220 H 0.92385 0.67589 0.35329 0.0
H221 H 0.95762 0.72528 0.33652 0.0
H222 H 0.90932 0.78493 0.4233 0.0
C223 C 0.83218 0.67404 0.45799 0.0
C224 C 0.82677 0.63989 0.44725 0.0
C225 C 0.84642 0.62512 0.41886 0.0
C226 C 0.87087 0.6441 0.40083 0.0
C227 C 0.87544 0.67775 0.41177 0.0
C228 C 0.85689 0.6926 0.43983 0.0
C229 C 0.86693 0.72933 0.44598 0.0
C230 C 0.83819 0.75361 0.43776 0.0
C231 C 0.88042 0.73452 0.486 0.0
C232 C 0.89381 0.73281 0.41672 0.0
C233 C 0.89814 0.70271 0.39732 0.0
C234 C 0.92085 0.69957 0.36837 0.0
C235 C 0.93983 0.72792 0.35898 0.0
C236 C 0.93618 0.75912 0.37857 0.0
C237 C 0.91284 0.76145 0.40794 0.0
H238 H 0.79014 0.31753 0.88912 0.0
H239 H 0.79579 0.31138 0.01102 0.0
H240 H 0.84881 0.28162 0.00607 0.0
H241 H 0.82402 0.23512 0.87082 0.0
H242 H 0.84653 0.24834 0.82964 0.0
H243 H 0.80937 0.27015 0.84266 0.0
H244 H 0.84094 0.32735 0.8437 0.0
H245 H 0.87824 0.30566 0.83083 0.0
H246 H 0.87705 0.33147 0.8727 0.0
H247 H 0.90013 0.25159 0.98837 0.0
H248 H 0.9465 0.22166 0.95897 0.0
H249 H 0.90829 0.24704 0.84816 0.0
C250 C 0.80266 0.30995 0.9147 0.0
C251 C 0.7889 0.31671 0.95038 0.0
C252 C 0.80582 0.30642 0.98334 0.0
C253 C 0.83602 0.28958 0.98085 0.0
C254 C 0.84894 0.28329 0.94525 0.0
C255 C 0.83285 0.29306 0.91273 0.0
C256 C 0.85186 0.28241 0.878 0.0
C257 C 0.83175 0.25753 0.85387 0.0
C258 C 0.86267 0.31358 0.85496 0.0
C259 C 0.881 0.26492 0.89615 0.0
C260 C 0.87881 0.26589 0.93496 0.0
C261 C 0.90224 0.25075 0.95801 0.0
C262 C 0.92848 0.23376 0.94098 0.0
C263 C 0.93113 0.232 0.90121 0.0
C264 C 0.90718 0.24819 0.8786 0.0
H265 H 0.14564 0.67128 0.50254 0.0
H266 H 0.19737 0.64091 0.4014 0.0
H267 H 0.17439 0.69031 0.36746 0.0
H268 H 0.07233 0.69317 0.45509 0.0
H269 H 0.06203 0.72847 0.48517 0.0
H270 H 0.08625 0.69387 0.50328 0.0
H271 H 0.13169 0.73643 0.52285 0.0
H272 H 0.10764 0.77117 0.50442 0.0
H273 H 0.14903 0.76458 0.48804 0.0
H274 H 0.14478 0.74029 0.34374 0.0
H275 H 0.10347 0.78334 0.32774 0.0
H276 H 0.06633 0.78006 0.44235 0.0
C277 C 0.15244 0.67556 0.47344 0.0
C278 C 0.17358 0.65282 0.45449 0.0
C279 C 0.18132 0.65832 0.41622 0.0
C280 C 0.16864 0.6864 0.39689 0.0
C281 C 0.14779 0.7084 0.41614 0.0
C282 C 0.13919 0.70309 0.45334 0.0
C283 C 0.1131 0.72832 0.46572 0.0
C284 C 0.08156 0.70985 0.47802 0.0
C285 C 0.12616 0.7515 0.49713 0.0
C286 C 0.10795 0.74806 0.42941 0.0
C287 C 0.12895 0.73659 0.40162 0.0
C288 C 0.12824 0.74959 0.36523 0.0
C289 C 0.10459 0.77405 0.35644 0.0
C290 C 0.08148 0.78499 0.38372 0.0
C291 C 0.08389 0.77255 0.42104 0.0
H292 H 0.7008 0.81044 0.95823 0.0
H293 H 0.72165 0.86092 0.85214 0.0
H294 H 0.67803 0.82719 0.82134 0.0
H295 H 0.68367 0.72711 0.91889 0.0
H296 H 0.65115 0.71809 0.95184 0.0
H297 H 0.68458 0.74549 0.96535 0.0
H298 H 0.64315 0.79301 0.98246 0.0
H299 H 0.60961 0.76578 0.96904 0.0
H300 H 0.61391 0.80713 0.94767 0.0
H301 H 0.63132 0.79003 0.80286 0.0
H302 H 0.58431 0.75117 0.79705 0.0
H303 H 0.59404 0.72377 0.91509 0.0
C304 C 0.69631 0.8143 0.92848 0.0
C305 C 0.71453 0.83828 0.9074 0.0
C306 C 0.70789 0.84263 0.86863 0.0
C307 C 0.68325 0.8236 0.85096 0.0
C308 C 0.66566 0.80025 0.87251 0.0
C309 C 0.67188 0.79542 0.91037 0.0
C310 C 0.64897 0.76909 0.92716 0.0
C311 C 0.66825 0.73811 0.94166 0.0
C312 C 0.62765 0.7847 0.95843 0.0
C313 C 0.62862 0.76015 0.89288 0.0
C314 C 0.63876 0.77843 0.8617 0.0
C315 C 0.62324 0.77546 0.827 0.0
C316 C 0.59645 0.75338 0.82408 0.0
C317 C 0.58542 0.73443 0.85566 0.0
C318 C 0.60202 0.73768 0.89041 0.0
H319 H 0.3191 0.14835 0.40093 0.0
H320 H 0.32026 0.16365 0.52203 0.0
H321 H 0.36111 0.20906 0.51455 0.0
H322 H 0.40705 0.16341 0.38677 0.0
H323 H 0.40123 0.18511 0.34253 0.0
H324 H 0.37256 0.15282 0.3572 0.0
H325 H 0.32475 0.19579 0.35001 0.0
H326 H 0.35329 0.22826 0.33559 0.0
H327 H 0.32637 0.2356 0.37503 0.0
H328 H 0.39906 0.25463 0.49454 0.0
H329 H 0.43556 0.29561 0.4633 0.0
H330 H 0.41214 0.25071 0.35481 0.0
C331 C 0.32827 0.16108 0.42582 0.0
C332 C 0.3164 0.15249 0.46198 0.0
C333 C 0.32885 0.16972 0.49397 0.0
C334 C 0.35209 0.19565 0.49006 0.0
C335 C 0.36288 0.2039 0.45404 0.0
C336 C 0.35175 0.18699 0.42245 0.0
C337 C 0.36747 0.20122 0.38704 0.0
C338 C 0.38832 0.17401 0.36722 0.0
C339 C 0.34141 0.2161 0.36035 0.0
C340 C 0.38884 0.22895 0.40376 0.0
C341 C 0.38562 0.23004 0.44245 0.0
C342 C 0.40203 0.25392 0.46428 0.0
C343 C 0.42261 0.27723 0.44617 0.0
C344 C 0.42685 0.27643 0.40654 0.0
C345 C 0.40962 0.25188 0.38513 0.0
H346 H 0.3068 0.83634 0.89378 0.0
H347 H 0.30223 0.80948 0.01225 0.0
H348 H 0.35063 0.77248 0.00457 0.0
H349 H 0.33039 0.75387 0.86012 0.0
H350 H 0.35748 0.77028 0.82432 0.0
H351 H 0.32262 0.79493 0.83931 0.0
H352 H 0.36111 0.84542 0.85519 0.0
H353 H 0.39611 0.82085 0.84038 0.0
H354 H 0.39506 0.83889 0.88698 0.0
H355 H 0.39922 0.73816 0.98398 0.0
H356 H 0.444 0.70785 0.95152 0.0
H357 H 0.41688 0.75738 0.84652 0.0
C358 C 0.31602 0.8226 0.91803 0.0
C359 C 0.30084 0.82571 0.9535 0.0
C360 C 0.31349 0.80745 0.98474 0.0
C361 C 0.341 0.78641 0.9807 0.0
C362 C 0.35551 0.784 0.94532 0.0
C363 C 0.34346 0.80152 0.91451 0.0
C364 C 0.36344 0.79426 0.87955 0.0
C365 C 0.34221 0.77732 0.84903 0.0
C366 C 0.37991 0.82679 0.86467 0.0
C367 C 0.38847 0.76975 0.89549 0.0
C368 C 0.38356 0.76426 0.93348 0.0
C369 C 0.40339 0.7423 0.95423 0.0
C370 C 0.42878 0.72523 0.93552 0.0
C371 C 0.43406 0.73022 0.89644 0.0
C372 C 0.41366 0.75302 0.87641 0.0
H373 H 0.67606 0.15831 0.4089 0.0
H374 H 0.71039 0.2094 0.50977 0.0
H375 H 0.67182 0.2564 0.4978 0.0
H376 H 0.66414 0.2347 0.35231 0.0
H377 H 0.62747 0.21902 0.32985 0.0
H378 H 0.65863 0.18966 0.34542 0.0
H379 H 0.61542 0.15736 0.38529 0.0
H380 H 0.58414 0.18656 0.36978 0.0
H381 H 0.59134 0.18035 0.4194 0.0
H382 H 0.62881 0.29708 0.47628 0.0
H383 H 0.58319 0.32859 0.44721 0.0
H384 H 0.57596 0.25165 0.3599 0.0
C385 C 0.67551 0.17951 0.42831 0.0
C386 C 0.69622 0.18016 0.46023 0.0
C387 C 0.69477 0.20823 0.48514 0.0
C388 C 0.67297 0.23515 0.47854 0.0
C389 C 0.6528 0.2337 0.44691 0.0
C390 C 0.6538 0.20665 0.42217 0.0
C391 C 0.62878 0.21109 0.39087 0.0
C392 C 0.64578 0.21378 0.35233 0.0
C393 C 0.60342 0.18212 0.39139 0.0
C394 C 0.61338 0.24467 0.40215 0.0
C395 C 0.62778 0.25729 0.43446 0.0
C396 C 0.6174 0.28753 0.4509 0.0
C397 C 0.59136 0.30523 0.43413 0.0
C398 C 0.57583 0.2927 0.40118 0.0
C399 C 0.58735 0.2621 0.38488 0.0
H400 H 0.34928 0.42901 0.92191 0.0
H401 H 0.31753 0.48199 0.02253 0.0
H402 H 0.34723 0.53336 0.00168 0.0
H403 H 0.42841 0.46062 0.92022 0.0
H404 H 0.43158 0.46501 0.86982 0.0
H405 H 0.40433 0.4338 0.88971 0.0
H406 H 0.35542 0.45977 0.85293 0.0
H407 H 0.38262 0.49087 0.83249 0.0
H408 H 0.34648 0.50445 0.85758 0.0
H409 H 0.38554 0.57601 0.97438 0.0
H410 H 0.42746 0.60899 0.94012 0.0
H411 H 0.43371 0.52917 0.85609 0.0
C412 C 0.34773 0.45179 0.93888 0.0
C413 C 0.33109 0.45162 0.97378 0.0
C414 C 0.33029 0.48161 0.99578 0.0
C415 C 0.34696 0.51091 0.98411 0.0
C416 C 0.3641 0.5099 0.95022 0.0
C417 C 0.36428 0.48132 0.92762 0.0
C418 C 0.38646 0.48628 0.89377 0.0
C419 C 0.41434 0.45986 0.89339 0.0
C420 C 0.36655 0.48529 0.85702 0.0
C421 C 0.39944 0.52168 0.90153 0.0
C422 C 0.38606 0.53488 0.93413 0.0
C423 C 0.3958 0.56622 0.94847 0.0
C424 C 0.41981 0.58465 0.92894 0.0
C425 C 0.4338 0.57174 0.89534 0.0
C426 C 0.42317 0.53993 0.8814 0.0
H427 H 0.66668 0.52446 0.50632 0.0
H428 H 0.69372 0.58579 0.40953 0.0
H429 H 0.65708 0.55126 0.36941 0.0
H430 H 0.65668 0.44276 0.45586 0.0
H431 H 0.6219 0.43074 0.48428 0.0
H432 H 0.65374 0.45713 0.50391 0.0
H433 H 0.61014 0.50235 0.52168 0.0
H434 H 0.57825 0.47637 0.50172 0.0
H435 H 0.58375 0.51945 0.48556 0.0
H436 H 0.6129 0.51457 0.34174 0.0
H437 H 0.56679 0.47624 0.32735 0.0
H438 H 0.56774 0.43973 0.44291 0.0
C439 C 0.66533 0.53024 0.47653 0.0
C440 C 0.68309 0.55772 0.46097 0.0
C441 C 0.68074 0.56451 0.4219 0.0
C442 C 0.65984 0.54518 0.39897 0.0
C443 C 0.64172 0.51908 0.41556 0.0
C444 C 0.64456 0.51133 0.45336 0.0
C445 C 0.62084 0.48358 0.46485 0.0
C446 C 0.63941 0.45166 0.47799 0.0
C447 C 0.59683 0.49621 0.49524 0.0
C448 C 0.60354 0.47754 0.42779 0.0
C449 C 0.6161 0.49808 0.39966 0.0
C450 C 0.60313 0.49807 0.36341 0.0
C451 C 0.57676 0.47632 0.35562 0.0
C452 C 0.56353 0.4549 0.38401 0.0
C453 C 0.5773 0.4556 0.42052 0.0
H454 H 0.66248 0.47672 0.99436 0.0
H455 H 0.67227 0.4035 0.90368 0.0
H456 H 0.64863 0.44513 0.85932 0.0
H457 H 0.58506 0.50462 0.96896 0.0
H458 H 0.59145 0.54836 0.98209 0.0
H459 H 0.61435 0.51526 0.00514 0.0
H460 H 0.66882 0.54495 0.98653 0.0
H461 H 0.64601 0.57819 0.96328 0.0
H462 H 0.67674 0.55465 0.93775 0.0
H463 H 0.6179 0.49164 0.82667 0.0
H464 H 0.58095 0.53848 0.8086 0.0
H465 H 0.58934 0.58063 0.92116 0.0
C466 C 0.65999 0.46947 0.9651 0.0
C467 C 0.66936 0.43678 0.95255 0.0
C468 C 0.66585 0.42854 0.91392 0.0
C469 C 0.65236 0.45202 0.8885 0.0
C470 C 0.64263 0.48367 0.90207 0.0
C471 C 0.64634 0.49245 0.93947 0.0
C472 C 0.63097 0.52669 0.94772 0.0
C473 C 0.60385 0.52352 0.97773 0.0
C474 C 0.65721 0.55265 0.95951 0.0
C475 C 0.61688 0.53522 0.90943 0.0
C476 C 0.62441 0.51039 0.88332 0.0
C477 C 0.61222 0.51148 0.84671 0.0
C478 C 0.59115 0.53819 0.83676 0.0
C479 C 0.58219 0.56333 0.86344 0.0
C480 C 0.596 0.56214 0.89994 0.0
H481 H 0.31809 0.51639 0.52792 0.0
H482 H 0.28161 0.57449 0.43245 0.0
H483 H 0.31462 0.53928 0.38976 0.0
H484 H 0.39994 0.51166 0.49521 0.0
H485 H 0.40737 0.46932 0.51271 0.0
H486 H 0.37787 0.49625 0.53578 0.0
H487 H 0.33313 0.45012 0.52708 0.0
H488 H 0.36252 0.423 0.50395 0.0
H489 H 0.32464 0.43393 0.48063 0.0
H490 H 0.35381 0.50098 0.35764 0.0
H491 H 0.39825 0.46287 0.3378 0.0
H492 H 0.41232 0.4308 0.45389 0.0
C493 C 0.31685 0.52165 0.49803 0.0
C494 C 0.2967 0.54806 0.48369 0.0
C495 C 0.29594 0.55391 0.44428 0.0
C496 C 0.31485 0.53416 0.41971 0.0
C497 C 0.33463 0.50873 0.43485 0.0
C498 C 0.33589 0.50242 0.47306 0.0
C499 C 0.36097 0.47504 0.4821 0.0
C500 C 0.38814 0.48891 0.50797 0.0
C501 C 0.34431 0.44366 0.49947 0.0
C502 C 0.37401 0.46744 0.443 0.0
C503 C 0.35812 0.48695 0.41622 0.0
C504 C 0.36634 0.48542 0.37829 0.0
C505 C 0.39177 0.46369 0.36736 0.0
C506 C 0.40899 0.44377 0.39426 0.0
C507 C 0.39958 0.44545 0.43258 0.0
H508 H 0.83856 0.93489 0.92682 0.0
H509 H 0.80717 0.98584 0.02875 0.0
H510 H 0.84026 0.03611 0.01143 0.0
H511 H 0.91925 0.96057 0.93076 0.0
H512 H 0.92505 0.96664 0.88089 0.0
H513 H 0.89483 0.93688 0.89756 0.0
H514 H 0.84954 0.96788 0.85949 0.0
H515 H 0.87975 0.99751 0.84215 0.0
H516 H 0.84356 0.01292 0.86583 0.0
H517 H 0.88163 0.07719 0.98771 0.0
H518 H 0.92677 0.10841 0.95726 0.0
H519 H 0.93209 0.03088 0.87042 0.0
C520 C 0.83778 0.95718 0.94466 0.0
C521 C 0.82014 0.95685 0.97885 0.0
C522 C 0.82043 0.98589 0.00231 0.0
C523 C 0.8391 0.01448 0.9927 0.0
C524 C 0.85724 0.01359 0.95949 0.0
C525 C 0.8565 0.9859 0.93556 0.0
C526 C 0.88047 0.99037 0.90329 0.0
C527 C 0.90643 0.96193 0.90315 0.0
C528 C 0.86224 0.99229 0.86545 0.0
C529 C 0.8955 0.02435 0.91353 0.0
C530 C 0.88151 0.03739 0.94585 0.0
C531 C 0.89247 0.06752 0.96205 0.0
C532 C 0.91833 0.08494 0.94465 0.0
C533 C 0.93306 0.07217 0.91138 0.0
C534 C 0.92126 0.0415 0.89564 0.0
H535 H 0.16495 0.01128 0.51301 0.0
H536 H 0.19139 0.07718 0.41973 0.0
H537 H 0.154 0.04504 0.37814 0.0
H538 H 0.1546 0.93239 0.45743 0.0
H539 H 0.12012 0.91864 0.48538 0.0
H540 H 0.15198 0.94414 0.50638 0.0
H541 H 0.10829 0.988 0.52755 0.0
H542 H 0.07636 0.96295 0.5062 0.0
H543 H 0.08152 0.00687 0.49289 0.0
H544 H 0.10946 0.01038 0.34899 0.0
H545 H 0.06388 0.97244 0.3321 0.0
H546 H 0.06581 0.92883 0.44461 0.0
C547 C 0.16329 0.01856 0.48365 0.0
C548 C 0.18111 0.04668 0.46952 0.0
C549 C 0.17835 0.05543 0.43098 0.0
C550 C 0.15701 0.03747 0.40725 0.0
C551 C 0.13889 0.0107 0.42247 0.0
C552 C 0.14214 0.00093 0.45963 0.0
C553 C 0.11862 0.97241 0.46947 0.0
C554 C 0.13746 0.93997 0.4803 0.0
C555 C 0.09479 0.98322 0.50088 0.0
C556 C 0.101 0.96824 0.43224 0.0
C557 C 0.11318 0.99052 0.40553 0.0
C558 C 0.09997 0.99255 0.36951 0.0
C559 C 0.07385 0.97099 0.36034 0.0
C560 C 0.06111 0.94757 0.38706 0.0
C561 C 0.07502 0.94627 0.4235 0.0
H562 H 0.16503 0.9303 0.9331 0.0
H563 H 0.22424 0.99774 0.00122 0.0
H564 H 0.19811 0.04748 0.97095 0.0
H565 H 0.15873 0.98799 0.84631 0.0
H566 H 0.11666 0.97547 0.8388 0.0
H567 H 0.14555 0.94566 0.85866 0.0
H568 H 0.10685 0.93685 0.91569 0.0
H569 H 0.07818 0.96694 0.89649 0.0
H570 H 0.09441 0.97312 0.9432 0.0
H571 H 0.15859 0.08825 0.94433 0.0
H572 H 0.11001 0.11841 0.91988 0.0
H573 H 0.07574 0.02526 0.8678 0.0
C574 C 0.17353 0.95562 0.94004 0.0
C575 C 0.19706 0.96057 0.96861 0.0
C576 C 0.20671 0.9938 0.9787 0.0
C577 C 0.192 0.02206 0.96169 0.0
C578 C 0.16776 0.0165 0.93468 0.0
C579 C 0.15884 0.98412 0.92345 0.0
C580 C 0.1291 0.98508 0.89777 0.0
C581 C 0.13806 0.97283 0.85802 0.0
C582 C 0.10046 0.96428 0.9143 0.0
C583 C 0.12165 0.0228 0.89802 0.0
C584 C 0.14457 0.04046 0.91905 0.0
C585 C 0.14098 0.07491 0.92696 0.0
C586 C 0.11318 0.09174 0.91326 0.0
C587 C 0.08934 0.07414 0.89179 0.0
C588 C 0.094 0.03941 0.88347 0.0
H589 H 0.82888 0.01662 0.51942 0.0
H590 H 0.79726 0.07587 0.42222 0.0
H591 H 0.82122 0.03311 0.38059 0.0
H592 H 0.90713 0.00156 0.48279 0.0
H593 H 0.91144 0.95968 0.50285 0.0
H594 H 0.88567 0.99062 0.52551 0.0
H595 H 0.83664 0.94877 0.52248 0.0
H596 H 0.86229 0.91769 0.49958 0.0
H597 H 0.82449 0.93117 0.47776 0.0
H598 H 0.85234 0.98747 0.34901 0.0
H599 H 0.89399 0.94629 0.32933 0.0
H600 H 0.91277 0.92035 0.44639 0.0
C601 C 0.82679 0.02099 0.48946 0.0
C602 C 0.81045 0.05006 0.47467 0.0
C603 C 0.80833 0.05368 0.43494 0.0
C604 C 0.82219 0.02948 0.41078 0.0
C605 C 0.8387 0.00189 0.42647 0.0
C606 C 0.8415 0.99772 0.46487 0.0
C607 C 0.86442 0.96844 0.47439 0.0
C608 C 0.89391 0.98083 0.49775 0.0
C609 C 0.84584 0.93982 0.49476 0.0
C610 C 0.87484 0.95749 0.43522 0.0
C611 C 0.85884 0.97657 0.40811 0.0
C612 C 0.86497 0.97232 0.36995 0.0
C613 C 0.88886 0.94881 0.35912 0.0
C614 C 0.90707 0.93013 0.38631 0.0
C615 C 0.89922 0.93395 0.4249 0.0
H616 H 0.3638 0.33692 0.06568 0.0
H617 H 0.28621 0.40357 0.10407 0.0
H618 H 0.30479 0.39601 0.16989 0.0
H619 H 0.36568 0.2793 0.15143 0.0
H620 H 0.4098 0.27604 0.14963 0.0
H621 H 0.38658 0.28113 0.10674 0.0
H622 H 0.42121 0.33422 0.08972 0.0
H623 H 0.44439 0.32937 0.13244 0.0
H624 H 0.42368 0.36892 0.12272 0.0
H625 H 0.33674 0.38963 0.22843 0.0
H626 H 0.38019 0.38491 0.27658 0.0
H627 H 0.4373 0.32119 0.20179 0.0
C628 C 0.35015 0.34879 0.08828 0.0
C629 C 0.32329 0.37026 0.0804 0.0
C630 C 0.30651 0.3866 0.11005 0.0
C631 C 0.31684 0.38235 0.14737 0.0
C632 C 0.34393 0.36161 0.15438 0.0
C633 C 0.36029 0.34488 0.12574 0.0
C634 C 0.391 0.32749 0.14036 0.0
C635 C 0.38808 0.28868 0.13683 0.0
C636 C 0.42188 0.34081 0.12012 0.0
C637 C 0.39022 0.33845 0.18125 0.0
C638 C 0.36252 0.35764 0.1888 0.0
C639 C 0.35804 0.37389 0.22323 0.0
C640 C 0.38284 0.37115 0.25034 0.0
C641 C 0.41161 0.35216 0.24298 0.0
C642 C 0.41496 0.33486 0.20843 0.0
H643 H 0.66755 0.57843 0.59446 0.0
H644 H 0.69179 0.68258 0.56529 0.0
H645 H 0.6544 0.70311 0.61519 0.0
H646 H 0.58405 0.59161 0.60733 0.0
H647 H 0.5796 0.56256 0.64629 0.0
H648 H 0.61148 0.55589 0.61203 0.0
H649 H 0.65547 0.55619 0.6648 0.0
H650 H 0.62365 0.56233 0.69936 0.0
H651 H 0.65756 0.59167 0.69677 0.0
H652 H 0.61013 0.71203 0.6633 0.0
H653 H 0.56528 0.7091 0.70965 0.0
H654 H 0.56927 0.59872 0.70616 0.0
C655 C 0.66541 0.60556 0.59903 0.0
C656 C 0.68253 0.62897 0.57613 0.0
C657 C 0.67922 0.66425 0.58291 0.0
C658 C 0.65789 0.67611 0.61097 0.0
C659 C 0.64036 0.6523 0.63202 0.0
C660 C 0.64423 0.61776 0.62672 0.0
C661 C 0.62126 0.59748 0.65156 0.0
C662 C 0.59771 0.57561 0.62788 0.0
C663 C 0.64065 0.57563 0.6798 0.0
C664 C 0.60326 0.62604 0.6711 0.0
C665 C 0.61473 0.65744 0.65958 0.0
C666 C 0.60118 0.68759 0.67284 0.0
C667 C 0.57554 0.6856 0.69902 0.0
C668 C 0.56364 0.65364 0.71163 0.0
C669 C 0.57773 0.62355 0.69721 0.0
H670 H 0.64205 0.33327 0.07736 0.0
H671 H 0.67899 0.43576 0.09173 0.0
H672 H 0.65259 0.4389 0.15421 0.0
H673 H 0.56441 0.34909 0.1154 0.0
H674 H 0.55981 0.30857 0.13855 0.0
H675 H 0.5854 0.31216 0.09746 0.0
H676 H 0.63451 0.28721 0.13475 0.0
H677 H 0.609 0.28349 0.17603 0.0
H678 H 0.64698 0.3069 0.17826 0.0
H679 H 0.61867 0.4336 0.2109 0.0
H680 H 0.577 0.42115 0.259 0.0
H681 H 0.56016 0.32197 0.20915 0.0
C682 C 0.64511 0.35595 0.09424 0.0
C683 C 0.66269 0.38421 0.08024 0.0
C684 C 0.66566 0.41391 0.10231 0.0
C685 C 0.65093 0.41581 0.13779 0.0
C686 C 0.63326 0.38781 0.15066 0.0
C687 C 0.63016 0.35841 0.12969 0.0
C688 C 0.60715 0.33338 0.14879 0.0
C689 C 0.57743 0.32535 0.12354 0.0
C690 C 0.62551 0.30081 0.16013 0.0
C691 C 0.59711 0.35376 0.18315 0.0
C692 C 0.61294 0.38486 0.18375 0.0
C693 C 0.60639 0.4092 0.21105 0.0
C694 C 0.58256 0.40193 0.23812 0.0
C695 C 0.56541 0.3706 0.23776 0.0
C696 C 0.5733 0.34587 0.21039 0.0
H697 H 0.31235 0.56753 0.61799 0.0
H698 H 0.27822 0.66989 0.59414 0.0
H699 H 0.31159 0.69163 0.64672 0.0
H700 H 0.32042 0.57665 0.72187 0.0
H701 H 0.35745 0.55157 0.72287 0.0
H702 H 0.32641 0.54324 0.68788 0.0
H703 H 0.36978 0.55082 0.63512 0.0
H704 H 0.40084 0.55933 0.66983 0.0
H705 H 0.39315 0.58969 0.63279 0.0
H706 H 0.35391 0.70329 0.69611 0.0
H707 H 0.40178 0.70396 0.73858 0.0
H708 H 0.40981 0.59421 0.72856 0.0
C709 C 0.31145 0.59446 0.62419 0.0
C710 C 0.29245 0.61693 0.60202 0.0
C711 C 0.29198 0.652 0.61113 0.0
C712 C 0.311 0.66465 0.64088 0.0
C713 C 0.33026 0.64191 0.66133 0.0
C714 C 0.33047 0.60751 0.65353 0.0
C715 C 0.35567 0.58894 0.67719 0.0
C716 C 0.33898 0.56361 0.70405 0.0
C717 C 0.38137 0.57117 0.65224 0.0
C718 C 0.37045 0.61846 0.69852 0.0
C719 C 0.35512 0.64871 0.68944 0.0
C720 C 0.36582 0.6797 0.70386 0.0
C721 C 0.39314 0.67981 0.72787 0.0
C722 C 0.40965 0.64913 0.73697 0.0
C723 C 0.39767 0.61808 0.72247 0.0
H724 H 0.81711 0.91662 0.10648 0.0
H725 H 0.81985 0.81559 0.05767 0.0
H726 H 0.851 0.7949 0.11269 0.0
H727 H 0.89699 0.91761 0.13355 0.0
H728 H 0.89126 0.94108 0.1766 0.0
H729 H 0.86272 0.94628 0.13845 0.0
H730 H 0.81445 0.92983 0.18239 0.0
H731 H 0.84286 0.92494 0.22096 0.0
H732 H 0.81603 0.89038 0.20824 0.0
H733 H 0.88927 0.7875 0.16717 0.0
H734 H 0.9308 0.79364 0.2172 0.0
H735 H 0.90527 0.90037 0.22848 0.0
C736 C 0.8236 0.88994 0.10775 0.0
C737 C 0.81599 0.86772 0.0778 0.0
C738 C 0.82488 0.83299 0.08055 0.0
C739 C 0.84271 0.82103 0.11165 0.0
C740 C 0.85125 0.84407 0.13977 0.0
C741 C 0.8417 0.87776 0.13827 0.0
C742 C 0.85728 0.8983 0.1695 0.0
C743 C 0.87831 0.92752 0.15355 0.0
C744 C 0.83109 0.91164 0.1969 0.0
C745 C 0.87831 0.87125 0.18777 0.0
C746 C 0.87399 0.84 0.17075 0.0
C747 C 0.89244 0.8117 0.18116 0.0
C748 C 0.91609 0.81551 0.20952 0.0
C749 C 0.92139 0.84752 0.22679 0.0
C750 C 0.90181 0.87552 0.216 0.0
H751 H 0.16246 0.06435 0.60433 0.0
H752 H 0.19619 0.16673 0.57987 0.0
H753 H 0.16233 0.18873 0.63195 0.0
H754 H 0.08043 0.08623 0.62273 0.0
H755 H 0.07476 0.05592 0.66028 0.0
H756 H 0.10417 0.04755 0.62363 0.0
H757 H 0.15011 0.04035 0.67354 0.0
H758 H 0.12077 0.04843 0.71042 0.0
H759 H 0.15746 0.07386 0.70707 0.0
H760 H 0.12151 0.20026 0.68264 0.0
H761 H 0.07831 0.20037 0.73113 0.0
H762 H 0.07059 0.09047 0.72238 0.0
C763 C 0.16298 0.09135 0.6102 0.0
C764 C 0.18213 0.1138 0.5882 0.0
C765 C 0.18221 0.14896 0.59679 0.0
C766 C 0.16289 0.16174 0.62614 0.0
C767 C 0.14376 0.13902 0.6467 0.0
C768 C 0.14385 0.10454 0.63938 0.0
C769 C 0.12 0.0858 0.66467 0.0
C770 C 0.09326 0.06783 0.64143 0.0
C771 C 0.13818 0.06063 0.69046 0.0
C772 C 0.10602 0.11526 0.68683 0.0
C773 C 0.12015 0.14569 0.67609 0.0
C774 C 0.11046 0.17657 0.69157 0.0
C775 C 0.08575 0.17635 0.71897 0.0
C776 C 0.07101 0.14542 0.73065 0.0
C777 C 0.08145 0.11452 0.71429 0.0
H778 H 0.16673 0.84997 0.08417 0.0
H779 H 0.19939 0.95301 0.10585 0.0
H780 H 0.16721 0.95385 0.16472 0.0
H781 H 0.08674 0.86166 0.11157 0.0
H782 H 0.08106 0.82072 0.13349 0.0
H783 H 0.11078 0.82568 0.09646 0.0
H784 H 0.15651 0.8023 0.1401 0.0
H785 H 0.12681 0.79685 0.17726 0.0
H786 H 0.16329 0.82173 0.18538 0.0
H787 H 0.12633 0.94678 0.21535 0.0
H788 H 0.08045 0.93147 0.2571 0.0
H789 H 0.07403 0.83244 0.20371 0.0
C790 C 0.16793 0.8722 0.10206 0.0
C791 C 0.18557 0.90137 0.0908 0.0
C792 C 0.18593 0.93046 0.11417 0.0
C793 C 0.16789 0.9311 0.14765 0.0
C794 C 0.14982 0.90236 0.15739 0.0
C795 C 0.14992 0.87329 0.13557 0.0
C796 C 0.12601 0.8471 0.15073 0.0
C797 C 0.09959 0.8383 0.12131 0.0
C798 C 0.14425 0.8151 0.16417 0.0
C799 C 0.1116 0.86654 0.18357 0.0
C800 C 0.12599 0.8982 0.18706 0.0
C801 C 0.11524 0.92185 0.21338 0.0
C802 C 0.08898 0.913 0.23673 0.0
C803 C 0.07371 0.88074 0.23362 0.0
C804 C 0.08553 0.85707 0.20703 0.0
H805 H 0.83977 0.16097 0.58707 0.0
H806 H 0.79693 0.06361 0.61612 0.0
H807 H 0.82393 0.06576 0.67842 0.0
H808 H 0.91664 0.14412 0.6257 0.0
H809 H 0.92434 0.18651 0.64277 0.0
H810 H 0.89764 0.18016 0.60305 0.0
H811 H 0.85113 0.21254 0.63748 0.0
H812 H 0.87775 0.21899 0.67741 0.0
H813 H 0.8384 0.19879 0.68366 0.0
H814 H 0.85934 0.07508 0.73366 0.0
H815 H 0.90354 0.0894 0.77812 0.0
H816 H 0.92527 0.18066 0.71395 0.0
C817 C 0.83553 0.14065 0.6071 0.0
C818 C 0.81607 0.1123 0.59738 0.0
C819 C 0.81163 0.08557 0.62349 0.0
C820 C 0.8267 0.08669 0.65887 0.0
C821 C 0.8462 0.1147 0.66756 0.0
C822 C 0.85079 0.1412 0.64249 0.0
C823 C 0.87577 0.16644 0.65742 0.0
C824 C 0.90534 0.16946 0.63064 0.0
C825 C 0.8598 0.20126 0.66441 0.0
C826 C 0.88524 0.14939 0.69419 0.0
C827 C 0.86739 0.11989 0.69965 0.0
C828 C 0.87318 0.09834 0.73002 0.0
C829 C 0.89843 0.10664 0.75503 0.0
C830 C 0.91773 0.1362 0.74953 0.0
C831 C 0.91047 0.15828 0.71922 0.0
loop_
_geom_bond_atom_site_label_1
_geom_bond_atom_site_label_2
_geom_bond_distance
_geom_bond_site_symmetry_2
_ccdc_geom_bond_type
H0 C5 0.930 . S
H1 C8 0.930 . S
H2 C10 0.930 . S
H3 C4 1.016 . S
C4 H3 1.016 . S
C4 N11 1.286 . S
C5 H0 0.930 . S
C5 C6 1.397 . S
C5 C7 1.361 . S
C6 C5 1.397 . S
C6 C10 1.390 . S
C7 C5 1.361 . S
C7 C8 1.393 1_554 S
C7 N11 1.413 1_554 S
C8 H1 0.930 . S
C8 C7 1.393 1_556 S
C8 C9 1.399 . S
C9 C8 1.399 . S
C9 C10 1.381 1_556 S
C10 H2 0.930 . S
C10 C6 1.390 . S
C10 C9 1.381 1_554 S
N11 C4 1.286 . S
N11 C7 1.413 1_556 S
H12 C17 0.930 . S
H13 C20 0.930 . S
H14 C22 0.930 . S
H15 C16 1.016 . S
C16 H15 1.016 . S
C16 N23 1.286 . S
C17 H12 0.930 . S
C17 C18 1.397 . S
C17 C19 1.361 . S
C18 C17 1.397 . S
C18 C22 1.390 . S
C19 C17 1.361 . S
C19 C20 1.393 . S
C19 N23 1.413 . S
C20 H13 0.930 . S
C20 C19 1.393 . S
C20 C21 1.399 . S
C21 C20 1.399 . S
C21 C22 1.381 . S
C22 H14 0.930 . S
C22 C18 1.390 . S
C22 C21 1.381 . S
N23 C16 1.286 . S
N23 C19 1.413 . S
H24 C29 0.930 . S
H25 C32 0.930 . S
H26 C34 0.930 . S
H27 C28 1.016 . S
C28 H27 1.016 . S
C28 N35 1.286 1_556 S
C29 H24 0.930 . S
C29 C30 1.397 . S
C29 C31 1.361 . S
C30 C29 1.397 . S
C30 C34 1.390 . S
C31 C29 1.361 . S
C31 C32 1.393 1_554 S
C31 N35 1.413 . S
C32 H25 0.930 . S
C32 C31 1.393 1_556 S
C32 C33 1.399 . S
C33 C32 1.399 . S
C33 C34 1.381 1_556 S
C34 H26 0.930 . S
C34 C30 1.390 . S
C34 C33 1.381 1_554 S
N35 C28 1.286 1_554 S
N35 C31 1.413 . S
H36 C41 0.930 . S
H37 C44 0.930 . S
H38 C46 0.930 . S
H39 C40 1.016 . S
C40 H39 1.016 . S
C40 N47 1.286 . S
C41 H36 0.930 . S
C41 C42 1.397 . S
C41 C43 1.361 . S
C42 C41 1.397 . S
C42 C46 1.390 . S
C43 C41 1.361 . S
C43 C44 1.393 . S
C43 N47 1.413 . S
C44 H37 0.930 . S
C44 C43 1.393 . S
C44 C45 1.399 . S
C45 C44 1.399 . S
C45 C46 1.381 . S
C46 H38 0.930 . S
C46 C42 1.390 . S
C46 C45 1.381 . S
N47 C40 1.286 . S
N47 C43 1.413 . S
H48 C53 0.930 . S
H49 C56 0.930 . S
H50 C58 0.930 . S
H51 C52 1.016 . S
C52 H51 1.016 . S
C52 N59 1.286 . S
C53 H48 0.930 . S
C53 C54 1.397 . S
C53 C55 1.361 . S
C54 C53 1.397 . S
C54 C58 1.390 . S
C55 C53 1.361 . S
C55 C56 1.393 1_554 S
C55 N59 1.413 1_554 S
C56 H49 0.930 . S
C56 C55 1.393 1_556 S
C56 C57 1.399 . S
C57 C56 1.399 . S
C57 C58 1.381 1_556 S
C58 H50 0.930 . S
C58 C54 1.390 . S
C58 C57 1.381 1_554 S
N59 C52 1.286 . S
N59 C55 1.413 1_556 S
H60 C65 0.930 . S
H61 C68 0.930 . S
H62 C70 0.930 . S
H63 C64 1.016 . S
C64 H63 1.016 . S
C64 N71 1.286 . S
C65 H60 0.930 . S
C65 C66 1.397 . S
C65 C67 1.361 . S
C66 C65 1.397 . S
C66 C70 1.390 . S
C67 C65 1.361 . S
C67 C68 1.393 . S
C67 N71 1.413 . S
C68 H61 0.930 . S
C68 C67 1.393 . S
C68 C69 1.399 . S
C69 C68 1.399 . S
C69 C70 1.381 . S
C70 H62 0.930 . S
C70 C66 1.390 . S
C70 C69 1.381 . S
N71 C64 1.286 . S
N71 C67 1.413 . S
H72 C77 0.930 . S
H73 C80 0.930 . S
H74 C82 0.930 . S
H75 C76 1.016 . S
C76 H75 1.016 . S
C76 N83 1.286 1_556 S
C77 H72 0.930 . S
C77 C78 1.397 . S
C77 C79 1.361 . S
C78 C77 1.397 . S
C78 C82 1.390 . S
C79 C77 1.361 . S
C79 C80 1.393 1_554 S
C79 N83 1.413 . S
C80 H73 0.930 . S
C80 C79 1.393 1_556 S
C80 C81 1.399 . S
C81 C80 1.399 . S
C81 C82 1.381 1_556 S
C82 H74 0.930 . S
C82 C78 1.390 . S
C82 C81 1.381 1_554 S
N83 C76 1.286 1_554 S
N83 C79 1.413 . S
H84 C89 0.930 . S
H85 C92 0.930 . S
H86 C94 0.930 . S
H87 C88 1.016 . S
C88 H87 1.016 . S
C88 N95 1.286 . S
C89 H84 0.930 . S
C89 C90 1.397 . S
C89 C91 1.361 . S
C90 C89 1.397 . S
C90 C94 1.390 . S
C91 C89 1.361 . S
C91 C92 1.393 . S
C91 N95 1.413 . S
C92 H85 0.930 . S
C92 C91 1.393 . S
C92 C93 1.399 . S
C93 C92 1.399 . S
C93 C94 1.381 . S
C94 H86 0.930 . S
C94 C90 1.390 . S
C94 C93 1.381 . S
N95 C88 1.286 . S
N95 C91 1.413 . S
Sc96 O99 2.025 . S
Sc96 O106 2.104 1_455 S
Sc96 O109 2.105 . S
Sc96 O112 2.105 . S
Sc96 O115 2.104 1_455 S
Sc97 O99 2.025 . S
Sc97 O107 2.104 1_455 S
Sc97 O111 2.105 . S
Sc97 O113 2.105 . S
Sc97 O117 2.104 1_455 S
Sc98 O99 2.025 . S
Sc98 O108 2.104 1_455 S
Sc98 O110 2.105 . S
Sc98 O114 2.105 . S
Sc98 O116 2.104 1_455 S
O99 Sc96 2.025 . S
O99 Sc97 2.025 . S
O99 Sc98 2.025 . S
C100 O106 1.268 . S
C100 O116 1.268 . S
C101 O107 1.268 . S
C101 O115 1.268 . S
C102 O108 1.268 . S
C102 O117 1.268 . S
C103 O109 1.268 . S
C103 O113 1.268 . S
C104 O110 1.268 . S
C104 O112 1.268 . S
C105 O111 1.268 . S
C105 O114 1.268 . S
O106 Sc96 2.104 1_655 S
O106 C100 1.268 . S
O107 Sc97 2.104 1_655 S
O107 C101 1.268 . S
O108 Sc98 2.104 1_655 S
O108 C102 1.268 . S
O109 Sc96 2.105 . S
O109 C103 1.268 . S
O110 Sc98 2.105 . S
O110 C104 1.268 . S
O111 Sc97 2.105 . S
O111 C105 1.268 . S
O112 Sc96 2.105 . S
O112 C104 1.268 . S
O113 Sc97 2.105 . S
O113 C103 1.268 . S
O114 Sc98 2.105 . S
O114 C105 1.268 . S
O115 Sc96 2.104 1_655 S
O115 C101 1.268 . S
O116 Sc98 2.104 1_655 S
O116 C100 1.268 . S
O117 Sc97 2.104 1_655 S
O117 C102 1.268 . S
Sc118 O121 2.025 . S
Sc118 O128 2.105 . S
Sc118 O131 2.104 1_455 S
Sc118 O134 2.104 1_455 S
Sc118 O137 2.105 . S
Sc119 O121 2.025 . S
Sc119 O129 2.105 . S
Sc119 O133 2.104 1_455 S
Sc119 O135 2.104 1_455 S
Sc119 O139 2.105 . S
Sc120 O121 2.025 . S
Sc120 O130 2.105 . S
Sc120 O132 2.104 1_455 S
Sc120 O136 2.104 1_455 S
Sc120 O138 2.105 . S
O121 Sc118 2.025 . S
O121 Sc119 2.025 . S
O121 Sc120 2.025 . S
C122 O128 1.268 . S
C122 O138 1.268 . S
C123 O129 1.268 . S
C123 O137 1.268 . S
C124 O130 1.268 . S
C124 O139 1.268 . S
C125 O131 1.268 . S
C125 O135 1.268 . S
C126 O132 1.268 . S
C126 O134 1.268 . S
C127 O133 1.268 . S
C127 O136 1.268 . S
O128 Sc118 2.105 . S
O128 C122 1.268 . S
O129 Sc119 2.105 . S
O129 C123 1.268 . S
O130 Sc120 2.105 . S
O130 C124 1.268 . S
O131 Sc118 2.104 1_655 S
O131 C125 1.268 . S
O132 Sc120 2.104 1_655 S
O132 C126 1.268 . S
O133 Sc119 2.104 1_655 S
O133 C127 1.268 . S
O134 Sc118 2.104 1_655 S
O134 C126 1.268 . S
O135 Sc119 2.104 1_655 S
O135 C125 1.268 . S
O136 Sc120 2.104 1_655 S
O136 C127 1.268 . S
O137 Sc118 2.105 . S
O137 C123 1.268 . S
O138 Sc120 2.105 . S
O138 C122 1.268 . S
O139 Sc119 2.105 . S
O139 C124 1.268 . S
Sc140 O143 2.025 . S
Sc140 O150 2.105 . S
Sc140 O153 2.105 . S
Sc140 O156 2.105 . S
Sc140 O159 2.105 . S
Sc141 O143 2.025 . S
Sc141 O151 2.105 . S
Sc141 O155 2.105 . S
Sc141 O157 2.105 . S
Sc141 O161 2.105 . S
Sc142 O143 2.025 . S
Sc142 O152 2.105 . S
Sc142 O154 2.105 . S
Sc142 O158 2.105 . S
Sc142 O160 2.105 . S
O143 Sc140 2.025 . S
O143 Sc141 2.025 . S
O143 Sc142 2.025 . S
C144 O150 1.268 . S
C144 O160 1.268 . S
C145 O151 1.268 . S
C145 O159 1.268 . S
C146 O152 1.268 . S
C146 O161 1.268 . S
C147 O153 1.268 . S
C147 O157 1.268 . S
C148 O154 1.268 . S
C148 O156 1.268 . S
C149 O155 1.268 . S
C149 O158 1.268 . S
O150 Sc140 2.105 . S
O150 C144 1.268 . S
O151 Sc141 2.105 . S
O151 C145 1.268 . S
O152 Sc142 2.105 . S
O152 C146 1.268 . S
O153 Sc140 2.105 . S
O153 C147 1.268 . S
O154 Sc142 2.105 . S
O154 C148 1.268 . S
O155 Sc141 2.105 . S
O155 C149 1.268 . S
O156 Sc140 2.105 . S
O156 C148 1.268 . S
O157 Sc141 2.105 . S
O157 C147 1.268 . S
O158 Sc142 2.105 . S
O158 C149 1.268 . S
O159 Sc140 2.105 . S
O159 C145 1.268 . S
O160 Sc142 2.105 . S
O160 C144 1.268 . S
O161 Sc141 2.105 . S
O161 C146 1.268 . S
Sc162 O165 2.025 . S
Sc162 O172 2.105 . S
Sc162 O175 2.105 . S
Sc162 O178 2.105 . S
Sc162 O181 2.105 . S
Sc163 O165 2.025 . S
Sc163 O173 2.105 . S
Sc163 O177 2.105 . S
Sc163 O179 2.105 . S
Sc163 O183 2.105 . S
Sc164 O165 2.025 . S
Sc164 O174 2.105 . S
Sc164 O176 2.105 . S
Sc164 O180 2.105 . S
Sc164 O182 2.105 . S
O165 Sc162 2.025 . S
O165 Sc163 2.025 . S
O165 Sc164 2.025 . S
C166 O172 1.268 . S
C166 O182 1.268 . S
C167 O173 1.268 . S
C167 O181 1.268 . S
C168 O174 1.268 . S
C168 O183 1.268 . S
C169 O175 1.268 . S
C169 O179 1.268 . S
C170 O176 1.268 . S
C170 O178 1.268 . S
C171 O177 1.268 . S
C171 O180 1.268 . S
O172 Sc162 2.105 . S
O172 C166 1.268 . S
O173 Sc163 2.105 . S
O173 C167 1.268 . S
O174 Sc164 2.105 . S
O174 C168 1.268 . S
O175 Sc162 2.105 . S
O175 C169 1.268 . S
O176 Sc164 2.105 . S
O176 C170 1.268 . S
O177 Sc163 2.105 . S
O177 C171 1.268 . S
O178 Sc162 2.105 . S
O178 C170 1.268 . S
O179 Sc163 2.105 . S
O179 C169 1.268 . S
O180 Sc164 2.105 . S
O180 C171 1.268 . S
O181 Sc162 2.105 . S
O181 C167 1.268 . S
O182 Sc164 2.105 . S
O182 C166 1.268 . S
O183 Sc163 2.105 . S
O183 C168 1.268 . S
H184 C196 0.930 . S
H185 C198 0.930 . S
H186 C199 0.930 . S
H187 C203 0.959 . S
H188 C203 0.959 . S
H189 C203 0.961 . S
H190 C204 0.960 . S
H191 C204 0.961 . S
H192 C204 0.959 . S
H193 C207 0.929 . S
H194 C208 0.931 . S
H195 C210 0.930 . S
C196 H184 0.930 . S
C196 C197 1.399 . S
C196 C201 1.399 . S
C197 C196 1.399 . S
C197 C198 1.376 . S
C198 H185 0.930 . S
C198 C197 1.376 . S
C198 C199 1.388 . S
C199 H186 0.930 . S
C199 C198 1.388 . S
C199 C200 1.390 . S
C200 C199 1.390 . S
C200 C201 1.394 . S
C200 C206 1.465 . S
C201 C196 1.399 . S
C201 C200 1.394 . S
C201 C202 1.516 . S
C202 C201 1.516 . S
C202 C203 1.502 . S
C202 C204 1.561 . S
C202 C205 1.526 . S
C203 H187 0.959 . S
C203 H188 0.959 . S
C203 H189 0.961 . S
C203 C202 1.502 . S
C204 H190 0.960 . S
C204 H191 0.961 . S
C204 H192 0.959 . S
C204 C202 1.561 . S
C205 C202 1.526 . S
C205 C206 1.396 . S
C205 C210 1.390 . S
C206 C200 1.465 . S
C206 C205 1.396 . S
C206 C207 1.399 . S
C207 H193 0.929 . S
C207 C206 1.399 . S
C207 C208 1.385 . S
C208 H194 0.931 . S
C208 C207 1.385 . S
C208 C209 1.389 . S
C209 C208 1.389 . S
C209 C210 1.387 . S
C210 H195 0.930 . S
C210 C205 1.390 . S
C210 C209 1.387 . S
H211 C223 0.930 . S
H212 C225 0.930 . S
H213 C226 0.930 . S
H214 C230 0.959 . S
H215 C230 0.959 . S
H216 C230 0.961 . S
H217 C231 0.960 . S
H218 C231 0.961 . S
H219 C231 0.959 . S
H220 C234 0.929 . S
H221 C235 0.931 . S
H222 C237 0.930 . S
C223 H211 0.930 . S
C223 C224 1.399 . S
C223 C228 1.399 . S
C224 C223 1.399 . S
C224 C225 1.376 . S
C225 H212 0.930 . S
C225 C224 1.376 . S
C225 C226 1.388 . S
C226 H213 0.930 . S
C226 C225 1.388 . S
C226 C227 1.390 . S
C227 C226 1.390 . S
C227 C228 1.394 . S
C227 C233 1.465 . S
C228 C223 1.399 . S
C228 C227 1.394 . S
C228 C229 1.516 . S
C229 C228 1.516 . S
C229 C230 1.502 . S
C229 C231 1.561 . S
C229 C232 1.526 . S
C230 H214 0.959 . S
C230 H215 0.959 . S
C230 H216 0.961 . S
C230 C229 1.502 . S
C231 H217 0.960 . S
C231 H218 0.961 . S
C231 H219 0.959 . S
C231 C229 1.561 . S
C232 C229 1.526 . S
C232 C233 1.396 . S
C232 C237 1.390 . S
C233 C227 1.465 . S
C233 C232 1.396 . S
C233 C234 1.399 . S
C234 H220 0.929 . S
C234 C233 1.399 . S
C234 C235 1.385 . S
C235 H221 0.931 . S
C235 C234 1.385 . S
C235 C236 1.389 . S
C236 C235 1.389 . S
C236 C237 1.387 . S
C237 H222 0.930 . S
C237 C232 1.390 . S
C237 C236 1.387 . S
H238 C250 0.930 . S
H239 C252 0.930 1_554 S
H240 C253 0.930 . S
H241 C257 0.959 . S
H242 C257 0.959 . S
H243 C257 0.961 . S
H244 C258 0.960 . S
H245 C258 0.961 . S
H246 C258 0.959 . S
H247 C261 0.929 . S
H248 C262 0.931 . S
H249 C264 0.930 . S
C250 H238 0.930 . S
C250 C251 1.399 . S
C250 C255 1.399 . S
C251 C250 1.399 . S
C251 C252 1.376 . S
C252 H239 0.930 1_556 S
C252 C251 1.376 . S
C252 C253 1.388 . S
C253 H240 0.930 . S
C253 C252 1.388 . S
C253 C254 1.390 . S
C254 C253 1.390 . S
C254 C255 1.394 . S
C254 C260 1.465 . S
C255 C250 1.399 . S
C255 C254 1.394 . S
C255 C256 1.516 . S
C256 C255 1.516 . S
C256 C257 1.502 . S
C256 C258 1.561 . S
C256 C259 1.526 . S
C257 H241 0.959 . S
C257 H242 0.959 . S
C257 H243 0.961 . S
C257 C256 1.502 . S
C258 H244 0.960 . S
C258 H245 0.961 . S
C258 H246 0.959 . S
C258 C256 1.561 . S
C259 C256 1.526 . S
C259 C260 1.396 . S
C259 C264 1.390 . S
C260 C254 1.465 . S
C260 C259 1.396 . S
C260 C261 1.399 . S
C261 H247 0.929 . S
C261 C260 1.399 . S
C261 C262 1.385 . S
C262 H248 0.931 . S
C262 C261 1.385 . S
C262 C263 1.389 . S
C263 C262 1.389 . S
C263 C264 1.387 . S
C264 H249 0.930 . S
C264 C259 1.390 . S
C264 C263 1.387 . S
H265 C277 0.930 . S
H266 C279 0.930 . S
H267 C280 0.930 . S
H268 C284 0.959 . S
H269 C284 0.959 . S
H270 C284 0.961 . S
H271 C285 0.960 . S
H272 C285 0.961 . S
H273 C285 0.959 . S
H274 C288 0.929 . S
H275 C289 0.931 . S
H276 C291 0.930 . S
C277 H265 0.930 . S
C277 C278 1.399 . S
C277 C282 1.399 . S
C278 C277 1.399 . S
C278 C279 1.376 . S
C279 H266 0.930 . S
C279 C278 1.376 . S
C279 C280 1.388 . S
C280 H267 0.930 . S
C280 C279 1.388 . S
C280 C281 1.390 . S
C281 C280 1.390 . S
C281 C282 1.394 . S
C281 C287 1.465 . S
C282 C277 1.399 . S
C282 C281 1.394 . S
C282 C283 1.516 . S
C283 C282 1.516 . S
C283 C284 1.502 . S
C283 C285 1.561 . S
C283 C286 1.526 . S
C284 H268 0.959 . S
C284 H269 0.959 . S
C284 H270 0.961 . S
C284 C283 1.502 . S
C285 H271 0.960 . S
C285 H272 0.961 . S
C285 H273 0.959 . S
C285 C283 1.561 . S
C286 C283 1.526 . S
C286 C287 1.396 . S
C286 C291 1.390 . S
C287 C281 1.465 . S
C287 C286 1.396 . S
C287 C288 1.399 . S
C288 H274 0.929 . S
C288 C287 1.399 . S
C288 C289 1.385 . S
C289 H275 0.931 . S
C289 C288 1.385 . S
C289 C290 1.389 . S
C290 C289 1.389 . S
C290 C291 1.387 . S
C291 H276 0.930 . S
C291 C286 1.390 . S
C291 C290 1.387 . S
H292 C304 0.930 1_554 S
H293 C306 0.930 . S
H294 C307 0.930 . S
H295 C311 0.959 . S
H296 C311 0.957 1_554 S
H297 C311 0.961 1_554 S
H298 C312 0.966 . S
H299 C312 0.961 . S
H300 C312 0.959 . S
H301 C315 0.929 . S
H302 C316 0.931 . S
H303 C318 0.930 . S
C304 H292 0.930 1_556 S
C304 C305 1.399 . S
C304 C309 1.399 . S
C305 C304 1.399 . S
C305 C306 1.376 . S
C306 H293 0.930 . S
C306 C305 1.376 . S
C306 C307 1.388 . S
C307 H294 0.930 . S
C307 C306 1.388 . S
C307 C308 1.390 . S
C308 C307 1.390 . S
C308 C309 1.394 . S
C308 C314 1.465 . S
C309 C304 1.399 . S
C309 C308 1.394 . S
C309 C310 1.516 . S
C310 C309 1.516 . S
C310 C311 1.502 . S
C310 C312 1.561 . S
C310 C313 1.526 . S
C311 H295 0.959 . S
C311 H296 0.957 1_556 S
C311 H297 0.961 1_556 S
C311 C310 1.502 . S
C312 H298 0.966 . S
C312 H299 0.961 . S
C312 H300 0.959 . S
C312 C310 1.561 . S
C313 C310 1.526 . S
C313 C314 1.396 . S
C313 C318 1.390 . S
C314 C308 1.465 . S
C314 C313 1.396 . S
C314 C315 1.399 . S
C315 H301 0.929 . S
C315 C314 1.399 . S
C315 C316 1.385 . S
C316 H302 0.931 . S
C316 C315 1.385 . S
C316 C317 1.389 . S
C317 C316 1.389 . S
C317 C318 1.387 . S
C318 H303 0.930 . S
C318 C313 1.390 . S
C318 C317 1.387 . S
H319 C331 0.930 . S
H320 C333 0.930 . S
H321 C334 0.930 . S
H322 C338 0.959 . S
H323 C338 0.959 . S
H324 C338 0.961 . S
H325 C339 0.960 . S
H326 C339 0.961 . S
H327 C339 0.959 . S
H328 C342 0.929 . S
H329 C343 0.931 . S
H330 C345 0.930 . S
C331 H319 0.930 . S
C331 C332 1.399 . S
C331 C336 1.399 . S
C332 C331 1.399 . S
C332 C333 1.376 . S
C333 H320 0.930 . S
C333 C332 1.376 . S
C333 C334 1.388 . S
C334 H321 0.930 . S
C334 C333 1.388 . S
C334 C335 1.390 . S
C335 C334 1.390 . S
C335 C336 1.394 . S
C335 C341 1.465 . S
C336 C331 1.399 . S
C336 C335 1.394 . S
C336 C337 1.516 . S
C337 C336 1.516 . S
C337 C338 1.502 . S
C337 C339 1.561 . S
C337 C340 1.526 . S
C338 H322 0.959 . S
C338 H323 0.959 . S
C338 H324 0.961 . S
C338 C337 1.502 . S
C339 H325 0.960 . S
C339 H326 0.961 . S
C339 H327 0.959 . S
C339 C337 1.561 . S
C340 C337 1.526 . S
C340 C341 1.396 . S
C340 C345 1.390 . S
C341 C335 1.465 . S
C341 C340 1.396 . S
C341 C342 1.399 . S
C342 H328 0.929 . S
C342 C341 1.399 . S
C342 C343 1.385 . S
C343 H329 0.931 . S
C343 C342 1.385 . S
C343 C344 1.389 . S
C344 C343 1.389 . S
C344 C345 1.387 . S
C345 H330 0.930 . S
C345 C340 1.390 . S
C345 C344 1.387 . S
H346 C358 0.930 . S
H347 C360 0.930 1_554 S
H348 C361 0.930 1_554 S
H349 C365 0.959 . S
H350 C365 0.959 . S
H351 C365 0.961 . S
H352 C366 0.960 . S
H353 C366 0.961 . S
H354 C366 0.959 . S
H355 C369 0.929 . S
H356 C370 0.931 . S
H357 C372 0.930 . S
C358 H346 0.930 . S
C358 C359 1.399 . S
C358 C363 1.399 . S
C359 C358 1.399 . S
C359 C360 1.376 . S
C360 H347 0.930 1_556 S
C360 C359 1.376 . S
C360 C361 1.388 . S
C361 H348 0.930 1_556 S
C361 C360 1.388 . S
C361 C362 1.390 . S
C362 C361 1.390 . S
C362 C363 1.394 . S
C362 C368 1.465 . S
C363 C358 1.399 . S
C363 C362 1.394 . S
C363 C364 1.516 . S
C364 C363 1.516 . S
C364 C365 1.502 . S
C364 C366 1.561 . S
C364 C367 1.526 . S
C365 H349 0.959 . S
C365 H350 0.959 . S
C365 H351 0.961 . S
C365 C364 1.502 . S
C366 H352 0.960 . S
C366 H353 0.961 . S
C366 H354 0.959 . S
C366 C364 1.561 . S
C367 C364 1.526 . S
C367 C368 1.396 . S
C367 C372 1.390 . S
C368 C362 1.465 . S
C368 C367 1.396 . S
C368 C369 1.399 . S
C369 H355 0.929 . S
C369 C368 1.399 . S
C369 C370 1.385 . S
C370 H356 0.931 . S
C370 C369 1.385 . S
C370 C371 1.389 . S
C371 C370 1.389 . S
C371 C372 1.387 . S
C372 H357 0.930 . S
C372 C367 1.390 . S
C372 C371 1.387 . S
H373 C385 0.930 . S
H374 C387 0.930 . S
H375 C388 0.930 . S
H376 C392 0.959 . S
H377 C392 0.959 . S
H378 C392 0.961 . S
H379 C393 0.960 . S
H380 C393 0.961 . S
H381 C393 0.959 . S
H382 C396 0.929 . S
H383 C397 0.931 . S
H384 C399 0.930 . S
C385 H373 0.930 . S
C385 C386 1.399 . S
C385 C390 1.399 . S
C386 C385 1.399 . S
C386 C387 1.376 . S
C387 H374 0.930 . S
C387 C386 1.376 . S
C387 C388 1.388 . S
C388 H375 0.930 . S
C388 C387 1.388 . S
C388 C389 1.390 . S
C389 C388 1.390 . S
C389 C390 1.394 . S
C389 C395 1.465 . S
C390 C385 1.399 . S
C390 C389 1.394 . S
C390 C391 1.516 . S
C391 C390 1.516 . S
C391 C392 1.502 . S
C391 C393 1.561 . S
C391 C394 1.526 . S
C392 H376 0.959 . S
C392 H377 0.959 . S
C392 H378 0.961 . S
C392 C391 1.502 . S
C393 H379 0.960 . S
C393 H380 0.961 . S
C393 H381 0.959 . S
C393 C391 1.561 . S
C394 C391 1.526 . S
C394 C395 1.396 . S
C394 C399 1.390 . S
C395 C389 1.465 . S
C395 C394 1.396 . S
C395 C396 1.399 . S
C396 H382 0.929 . S
C396 C395 1.399 . S
C396 C397 1.385 . S
C397 H383 0.931 . S
C397 C396 1.385 . S
C397 C398 1.389 . S
C398 C397 1.389 . S
C398 C399 1.387 . S
C399 H384 0.930 . S
C399 C394 1.390 . S
C399 C398 1.387 . S
H400 C412 0.930 . S
H401 C414 0.930 1_554 S
H402 C415 0.925 1_554 S
H403 C419 0.959 . S
H404 C419 0.959 . S
H405 C419 0.961 . S
H406 C420 0.960 . S
H407 C420 0.961 . S
H408 C420 0.959 . S
H409 C423 0.929 . S
H410 C424 0.931 . S
H411 C426 0.930 . S
C412 H400 0.930 . S
C412 C413 1.399 . S
C412 C417 1.399 . S
C413 C412 1.399 . S
C413 C414 1.376 . S
C414 H401 0.930 1_556 S
C414 C413 1.376 . S
C414 C415 1.388 . S
C415 H402 0.925 1_556 S
C415 C414 1.388 . S
C415 C416 1.390 . S
C416 C415 1.390 . S
C416 C417 1.394 . S
C416 C422 1.465 . S
C417 C412 1.399 . S
C417 C416 1.394 . S
C417 C418 1.516 . S
C418 C417 1.516 . S
C418 C419 1.502 . S
C418 C420 1.561 . S
C418 C421 1.526 . S
C419 H403 0.959 . S
C419 H404 0.959 . S
C419 H405 0.961 . S
C419 C418 1.502 . S
C420 H406 0.960 . S
C420 H407 0.961 . S
C420 H408 0.959 . S
C420 C418 1.561 . S
C421 C418 1.526 . S
C421 C422 1.396 . S
C421 C426 1.390 . S
C422 C416 1.465 . S
C422 C421 1.396 . S
C422 C423 1.399 . S
C423 H409 0.929 . S
C423 C422 1.399 . S
C423 C424 1.385 . S
C424 H410 0.931 . S
C424 C423 1.385 . S
C424 C425 1.389 . S
C425 C424 1.389 . S
C425 C426 1.387 . S
C426 H411 0.930 . S
C426 C421 1.390 . S
C426 C425 1.387 . S
H427 C439 0.930 . S
H428 C441 0.930 . S
H429 C442 0.930 . S
H430 C446 0.959 . S
H431 C446 0.959 . S
H432 C446 0.961 . S
H433 C447 0.960 . S
H434 C447 0.961 . S
H435 C447 0.959 . S
H436 C450 0.929 . S
H437 C451 0.931 . S
H438 C453 0.930 . S
C439 H427 0.930 . S
C439 C440 1.399 . S
C439 C444 1.399 . S
C440 C439 1.399 . S
C440 C441 1.376 . S
C441 H428 0.930 . S
C441 C440 1.376 . S
C441 C442 1.388 . S
C442 H429 0.930 . S
C442 C441 1.388 . S
C442 C443 1.390 . S
C443 C442 1.390 . S
C443 C444 1.394 . S
C443 C449 1.465 . S
C444 C439 1.399 . S
C444 C443 1.394 . S
C444 C445 1.516 . S
C445 C444 1.516 . S
C445 C446 1.502 . S
C445 C447 1.561 . S
C445 C448 1.526 . S
C446 H430 0.959 . S
C446 H431 0.959 . S
C446 H432 0.961 . S
C446 C445 1.502 . S
C447 H433 0.960 . S
C447 H434 0.961 . S
C447 H435 0.959 . S
C447 C445 1.561 . S
C448 C445 1.526 . S
C448 C449 1.396 . S
C448 C453 1.390 . S
C449 C443 1.465 . S
C449 C448 1.396 . S
C449 C450 1.399 . S
C450 H436 0.929 . S
C450 C449 1.399 . S
C450 C451 1.385 . S
C451 H437 0.931 . S
C451 C450 1.385 . S
C451 C452 1.389 . S
C452 C451 1.389 . S
C452 C453 1.387 . S
C453 H438 0.930 . S
C453 C448 1.390 . S
C453 C452 1.387 . S
H454 C466 0.930 1_554 S
H455 C468 0.930 . S
H456 C469 0.930 . S
H457 C473 0.958 1_556 S
H458 C473 0.961 . S
H459 C473 0.972 . S
H460 C474 0.960 . S
H461 C474 0.961 . S
H462 C474 0.959 . S
H463 C477 0.929 . S
H464 C478 0.931 . S
H465 C480 0.930 . S
C466 H454 0.930 1_556 S
C466 C467 1.399 . S
C466 C471 1.399 . S
C467 C466 1.399 . S
C467 C468 1.376 . S
C468 H455 0.930 . S
C468 C467 1.376 . S
C468 C469 1.388 . S
C469 H456 0.930 . S
C469 C468 1.388 . S
C469 C470 1.390 . S
C470 C469 1.390 . S
C470 C471 1.394 . S
C470 C476 1.465 . S
C471 C466 1.399 . S
C471 C470 1.394 . S
C471 C472 1.516 . S
C472 C471 1.516 . S
C472 C473 1.490 1_556 S
C472 C474 1.561 . S
C472 C475 1.526 . S
C473 H457 0.958 1_554 S
C473 H458 0.961 . S
C473 H459 0.972 . S
C473 C472 1.490 1_554 S
C474 H460 0.960 . S
C474 H461 0.961 . S
C474 H462 0.959 . S
C474 C472 1.561 . S
C475 C472 1.526 . S
C475 C476 1.396 . S
C475 C480 1.390 . S
C476 C470 1.465 . S
C476 C475 1.396 . S
C476 C477 1.399 . S
C477 H463 0.929 . S
C477 C476 1.399 . S
C477 C478 1.385 . S
C478 H464 0.931 . S
C478 C477 1.385 . S
C478 C479 1.389 . S
C479 C478 1.389 . S
C479 C480 1.387 . S
C480 H465 0.930 . S
C480 C475 1.390 . S
C480 C479 1.387 . S
H481 C493 0.930 . S
H482 C495 0.930 . S
H483 C496 0.930 . S
H484 C500 0.959 . S
H485 C500 0.959 . S
H486 C500 0.961 . S
H487 C501 0.960 . S
H488 C501 0.961 . S
H489 C501 0.959 . S
H490 C504 0.929 . S
H491 C505 0.931 . S
H492 C507 0.930 . S
C493 H481 0.930 . S
C493 C494 1.399 . S
C493 C498 1.399 . S
C494 C493 1.399 . S
C494 C495 1.376 . S
C495 H482 0.930 . S
C495 C494 1.376 . S
C495 C496 1.388 . S
C496 H483 0.930 . S
C496 C495 1.388 . S
C496 C497 1.390 . S
C497 C496 1.390 . S
C497 C498 1.394 . S
C497 C503 1.465 . S
C498 C493 1.399 . S
C498 C497 1.394 . S
C498 C499 1.516 . S
C499 C498 1.516 . S
C499 C500 1.502 . S
C499 C501 1.561 . S
C499 C502 1.526 . S
C500 H484 0.959 . S
C500 H485 0.959 . S
C500 H486 0.961 . S
C500 C499 1.502 . S
C501 H487 0.960 . S
C501 H488 0.961 . S
C501 H489 0.959 . S
C501 C499 1.561 . S
C502 C499 1.526 . S
C502 C503 1.396 . S
C502 C507 1.390 . S
C503 C497 1.465 . S
C503 C502 1.396 . S
C503 C504 1.399 . S
C504 H490 0.929 . S
C504 C503 1.399 . S
C504 C505 1.385 . S
C505 H491 0.931 . S
C505 C504 1.385 . S
C505 C506 1.389 . S
C506 C505 1.389 . S
C506 C507 1.387 . S
C507 H492 0.930 . S
C507 C502 1.390 . S
C507 C506 1.387 . S
H508 C520 0.930 . S
H509 C522 0.960 . S
H510 C523 0.930 1_544 S
H511 C527 0.959 . S
H512 C527 0.959 . S
H513 C527 0.961 . S
H514 C528 0.982 . S
H515 C528 0.954 1_545 S
H516 C528 0.932 1_545 S
H517 C531 0.929 . S
H518 C532 0.931 . S
H519 C534 0.930 . S
C520 H508 0.930 . S
C520 C521 1.399 . S
C520 C525 1.399 . S
C521 C520 1.399 . S
C521 C522 1.355 1_556 S
C522 H509 0.960 . S
C522 C521 1.355 1_554 S
C522 C523 1.382 1_554 S
C523 H510 0.930 1_566 S
C523 C522 1.382 1_556 S
C523 C524 1.390 . S
C524 C523 1.390 . S
C524 C525 1.394 . S
C524 C530 1.465 1_565 S
C525 C520 1.399 . S
C525 C524 1.394 . S
C525 C526 1.516 . S
C526 C525 1.516 . S
C526 C527 1.502 . S
C526 C528 1.575 . S
C526 C529 1.526 1_565 S
C527 H511 0.959 . S
C527 H512 0.959 . S
C527 H513 0.961 . S
C527 C526 1.502 . S
C528 H514 0.982 . S
C528 H515 0.954 1_565 S
C528 H516 0.932 1_565 S
C528 C526 1.575 . S
C529 C526 1.526 1_545 S
C529 C530 1.396 . S
C529 C534 1.390 . S
C530 C524 1.465 1_545 S
C530 C529 1.396 . S
C530 C531 1.399 . S
C531 H517 0.929 . S
C531 C530 1.399 . S
C531 C532 1.385 . S
C532 H518 0.931 . S
C532 C531 1.385 . S
C532 C533 1.389 . S
C533 C532 1.389 . S
C533 C534 1.387 . S
C534 H519 0.930 . S
C534 C529 1.390 . S
C534 C533 1.387 . S
H535 C547 0.930 . S
H536 C549 0.930 . S
H537 C550 0.930 . S
H538 C554 0.959 . S
H539 C554 0.959 . S
H540 C554 0.961 . S
H541 C555 0.960 . S
H542 C555 0.961 . S
H543 C555 0.959 . S
H544 C558 0.929 . S
H545 C559 0.931 . S
H546 C561 0.930 . S
C547 H535 0.930 . S
C547 C548 1.399 . S
C547 C552 1.399 . S
C548 C547 1.399 . S
C548 C549 1.376 . S
C549 H536 0.930 . S
C549 C548 1.376 . S
C549 C550 1.388 . S
C550 H537 0.930 . S
C550 C549 1.388 . S
C550 C551 1.390 . S
C551 C550 1.390 . S
C551 C552 1.394 . S
C551 C557 1.465 . S
C552 C547 1.399 . S
C552 C551 1.394 . S
C552 C553 1.516 1_545 S
C553 C552 1.516 1_565 S
C553 C554 1.502 . S
C553 C555 1.561 . S
C553 C556 1.526 . S
C554 H538 0.959 . S
C554 H539 0.959 . S
C554 H540 0.961 . S
C554 C553 1.502 . S
C555 H541 0.960 . S
C555 H542 0.961 . S
C555 H543 0.959 . S
C555 C553 1.561 . S
C556 C553 1.526 . S
C556 C557 1.396 1_565 S
C556 C561 1.390 . S
C557 C551 1.465 . S
C557 C556 1.396 1_545 S
C557 C558 1.399 . S
C558 H544 0.929 . S
C558 C557 1.399 . S
C558 C559 1.385 1_545 S
C559 H545 0.931 . S
C559 C558 1.385 1_565 S
C559 C560 1.389 . S
C560 C559 1.389 . S
C560 C561 1.387 . S
C561 H546 0.930 . S
C561 C556 1.390 . S
C561 C560 1.387 . S
H562 C574 0.930 . S
H563 C576 0.930 . S
H564 C577 0.930 . S
H565 C581 0.959 . S
H566 C581 0.959 . S
H567 C581 0.961 . S
H568 C582 0.960 . S
H569 C582 0.961 . S
H570 C582 0.959 . S
H571 C585 0.929 . S
H572 C586 0.931 . S
H573 C588 0.930 . S
C574 H562 0.930 . S
C574 C575 1.399 . S
C574 C579 1.399 . S
C575 C574 1.399 . S
C575 C576 1.376 . S
C576 H563 0.930 . S
C576 C575 1.376 . S
C576 C577 1.388 1_565 S
C577 H564 0.930 . S
C577 C576 1.388 1_545 S
C577 C578 1.386 1_545 S
C578 C577 1.386 1_565 S
C578 C579 1.412 . S
C578 C584 1.454 1_565 S
C579 C574 1.399 . S
C579 C578 1.412 . S
C579 C580 1.516 . S
C580 C579 1.516 . S
C580 C581 1.502 . S
C580 C582 1.561 . S
C580 C583 1.526 1_565 S
C581 H565 0.959 . S
C581 H566 0.959 . S
C581 H567 0.961 . S
C581 C580 1.502 . S
C582 H568 0.960 . S
C582 H569 0.961 . S
C582 H570 0.959 . S
C582 C580 1.561 . S
C583 C580 1.526 1_545 S
C583 C584 1.396 . S
C583 C588 1.390 . S
C584 C578 1.454 1_545 S
C584 C583 1.396 . S
C584 C585 1.399 . S
C585 H571 0.929 . S
C585 C584 1.399 . S
C585 C586 1.385 . S
C586 H572 0.931 . S
C586 C585 1.385 . S
C586 C587 1.389 . S
C587 C586 1.389 . S
C587 C588 1.387 . S
C588 H573 0.930 . S
C588 C583 1.390 . S
C588 C587 1.387 . S
H589 C601 0.930 . S
H590 C603 0.930 . S
H591 C604 0.930 . S
H592 C608 0.959 . S
H593 C608 0.959 . S
H594 C608 0.961 . S
H595 C609 0.960 . S
H596 C609 0.961 . S
H597 C609 0.959 . S
H598 C612 0.929 . S
H599 C613 0.931 . S
H600 C615 0.930 . S
C601 H589 0.930 . S
C601 C602 1.399 . S
C601 C606 1.399 . S
C602 C601 1.399 . S
C602 C603 1.376 . S
C603 H590 0.930 . S
C603 C602 1.376 . S
C603 C604 1.388 . S
C604 H591 0.930 . S
C604 C603 1.388 . S
C604 C605 1.390 . S
C605 C604 1.390 . S
C605 C606 1.394 . S
C605 C611 1.465 . S
C606 C601 1.399 . S
C606 C605 1.394 . S
C606 C607 1.516 1_545 S
C607 C606 1.516 1_565 S
C607 C608 1.502 . S
C607 C609 1.561 . S
C607 C610 1.526 . S
C608 H592 0.959 . S
C608 H593 0.959 . S
C608 H594 0.961 . S
C608 C607 1.502 . S
C609 H595 0.960 . S
C609 H596 0.961 . S
C609 H597 0.959 . S
C609 C607 1.561 . S
C610 C607 1.526 . S
C610 C611 1.396 1_565 S
C610 C615 1.390 . S
C611 C605 1.465 . S
C611 C610 1.396 1_545 S
C611 C612 1.399 . S
C612 H598 0.929 . S
C612 C611 1.399 . S
C612 C613 1.385 1_545 S
C613 H599 0.931 . S
C613 C612 1.385 1_565 S
C613 C614 1.389 . S
C614 C613 1.389 . S
C614 C615 1.387 . S
C615 H600 0.930 . S
C615 C610 1.390 . S
C615 C614 1.387 . S
H616 C628 0.930 . S
H617 C630 0.930 . S
H618 C631 0.930 . S
H619 C635 0.959 . S
H620 C635 0.959 . S
H621 C635 0.961 . S
H622 C636 0.960 . S
H623 C636 0.961 . S
H624 C636 0.959 . S
H625 C639 0.929 . S
H626 C640 0.931 . S
H627 C642 0.930 . S
C628 H616 0.930 . S
C628 C629 1.399 . S
C628 C633 1.399 . S
C629 C628 1.399 . S
C629 C630 1.376 . S
C630 H617 0.930 . S
C630 C629 1.376 . S
C630 C631 1.388 . S
C631 H618 0.930 . S
C631 C630 1.388 . S
C631 C632 1.390 . S
C632 C631 1.390 . S
C632 C633 1.394 . S
C632 C638 1.465 . S
C633 C628 1.399 . S
C633 C632 1.394 . S
C633 C634 1.516 . S
C634 C633 1.516 . S
C634 C635 1.502 . S
C634 C636 1.561 . S
C634 C637 1.526 . S
C635 H619 0.959 . S
C635 H620 0.959 . S
C635 H621 0.961 . S
C635 C634 1.502 . S
C636 H622 0.960 . S
C636 H623 0.961 . S
C636 H624 0.959 . S
C636 C634 1.561 . S
C637 C634 1.526 . S
C637 C638 1.396 . S
C637 C642 1.390 . S
C638 C632 1.465 . S
C638 C637 1.396 . S
C638 C639 1.399 . S
C639 H625 0.929 . S
C639 C638 1.399 . S
C639 C640 1.385 . S
C640 H626 0.931 . S
C640 C639 1.385 . S
C640 C641 1.389 . S
C641 C640 1.389 . S
C641 C642 1.387 . S
C642 H627 0.930 . S
C642 C637 1.390 . S
C642 C641 1.387 . S
H643 C655 0.930 . S
H644 C657 0.930 . S
H645 C658 0.930 . S
H646 C662 0.959 . S
H647 C662 0.959 . S
H648 C662 0.961 . S
H649 C663 0.960 . S
H650 C663 0.961 . S
H651 C663 0.959 . S
H652 C666 0.929 . S
H653 C667 0.931 . S
H654 C669 0.930 . S
C655 H643 0.930 . S
C655 C656 1.399 . S
C655 C660 1.399 . S
C656 C655 1.399 . S
C656 C657 1.376 . S
C657 H644 0.930 . S
C657 C656 1.376 . S
C657 C658 1.388 . S
C658 H645 0.930 . S
C658 C657 1.388 . S
C658 C659 1.390 . S
C659 C658 1.390 . S
C659 C660 1.394 . S
C659 C665 1.465 . S
C660 C655 1.399 . S
C660 C659 1.394 . S
C660 C661 1.516 . S
C661 C660 1.516 . S
C661 C662 1.502 . S
C661 C663 1.561 . S
C661 C664 1.526 . S
C662 H646 0.959 . S
C662 H647 0.959 . S
C662 H648 0.961 . S
C662 C661 1.502 . S
C663 H649 0.960 . S
C663 H650 0.961 . S
C663 H651 0.959 . S
C663 C661 1.561 . S
C664 C661 1.526 . S
C664 C665 1.396 . S
C664 C669 1.390 . S
C665 C659 1.465 . S
C665 C664 1.396 . S
C665 C666 1.399 . S
C666 H652 0.929 . S
C666 C665 1.399 . S
C666 C667 1.385 . S
C667 H653 0.931 . S
C667 C666 1.385 . S
C667 C668 1.389 . S
C668 C667 1.389 . S
C668 C669 1.387 . S
C669 H654 0.930 . S
C669 C664 1.390 . S
C669 C668 1.387 . S
H670 C682 0.930 . S
H671 C684 0.930 . S
H672 C685 0.930 . S
H673 C689 0.959 . S
H674 C689 0.959 . S
H675 C689 0.961 . S
H676 C690 0.960 . S
H677 C690 0.961 . S
H678 C690 0.959 . S
H679 C693 0.929 . S
H680 C694 0.931 . S
H681 C696 0.930 . S
C682 H670 0.930 . S
C682 C683 1.399 . S
C682 C687 1.399 . S
C683 C682 1.399 . S
C683 C684 1.376 . S
C684 H671 0.930 . S
C684 C683 1.376 . S
C684 C685 1.388 . S
C685 H672 0.930 . S
C685 C684 1.388 . S
C685 C686 1.390 . S
C686 C685 1.390 . S
C686 C687 1.394 . S
C686 C692 1.465 . S
C687 C682 1.399 . S
C687 C686 1.394 . S
C687 C688 1.516 . S
C688 C687 1.516 . S
C688 C689 1.502 . S
C688 C690 1.561 . S
C688 C691 1.526 . S
C689 H673 0.959 . S
C689 H674 0.959 . S
C689 H675 0.961 . S
C689 C688 1.502 . S
C690 H676 0.960 . S
C690 H677 0.961 . S
C690 H678 0.959 . S
C690 C688 1.561 . S
C691 C688 1.526 . S
C691 C692 1.396 . S
C691 C696 1.390 . S
C692 C686 1.465 . S
C692 C691 1.396 . S
C692 C693 1.399 . S
C693 H679 0.929 . S
C693 C692 1.399 . S
C693 C694 1.385 . S
C694 H680 0.931 . S
C694 C693 1.385 . S
C694 C695 1.389 . S
C695 C694 1.389 . S
C695 C696 1.387 . S
C696 H681 0.930 . S
C696 C691 1.390 . S
C696 C695 1.387 . S
H697 C709 0.930 . S
H698 C711 0.930 . S
H699 C712 0.930 . S
H700 C716 0.959 . S
H701 C716 0.959 . S
H702 C716 0.961 . S
H703 C717 0.960 . S
H704 C717 0.961 . S
H705 C717 0.959 . S
H706 C720 0.929 . S
H707 C721 0.931 . S
H708 C723 0.930 . S
C709 H697 0.930 . S
C709 C710 1.399 . S
C709 C714 1.399 . S
C710 C709 1.399 . S
C710 C711 1.376 . S
C711 H698 0.930 . S
C711 C710 1.376 . S
C711 C712 1.388 . S
C712 H699 0.930 . S
C712 C711 1.388 . S
C712 C713 1.390 . S
C713 C712 1.390 . S
C713 C714 1.394 . S
C713 C719 1.465 . S
C714 C709 1.399 . S
C714 C713 1.394 . S
C714 C715 1.516 . S
C715 C714 1.516 . S
C715 C716 1.502 . S
C715 C717 1.561 . S
C715 C718 1.526 . S
C716 H700 0.959 . S
C716 H701 0.959 . S
C716 H702 0.961 . S
C716 C715 1.502 . S
C717 H703 0.960 . S
C717 H704 0.961 . S
C717 H705 0.959 . S
C717 C715 1.561 . S
C718 C715 1.526 . S
C718 C719 1.396 . S
C718 C723 1.390 . S
C719 C713 1.465 . S
C719 C718 1.396 . S
C719 C720 1.399 . S
C720 H706 0.929 . S
C720 C719 1.399 . S
C720 C721 1.385 . S
C721 H707 0.931 . S
C721 C720 1.385 . S
C721 C722 1.389 . S
C722 C721 1.389 . S
C722 C723 1.387 . S
C723 H708 0.930 . S
C723 C718 1.390 . S
C723 C722 1.387 . S
H724 C736 0.930 . S
H725 C738 0.930 . S
H726 C739 0.930 . S
H727 C743 0.959 . S
H728 C743 0.959 . S
H729 C743 0.961 . S
H730 C744 0.960 . S
H731 C744 0.961 . S
H732 C744 0.959 . S
H733 C747 0.929 . S
H734 C748 0.931 . S
H735 C750 0.930 . S
C736 H724 0.930 . S
C736 C737 1.399 . S
C736 C741 1.399 . S
C737 C736 1.399 . S
C737 C738 1.376 . S
C738 H725 0.930 . S
C738 C737 1.376 . S
C738 C739 1.388 . S
C739 H726 0.930 . S
C739 C738 1.388 . S
C739 C740 1.390 . S
C740 C739 1.390 . S
C740 C741 1.394 . S
C740 C746 1.465 . S
C741 C736 1.399 . S
C741 C740 1.394 . S
C741 C742 1.516 . S
C742 C741 1.516 . S
C742 C743 1.502 . S
C742 C744 1.561 . S
C742 C745 1.526 . S
C743 H727 0.959 . S
C743 H728 0.959 . S
C743 H729 0.961 . S
C743 C742 1.502 . S
C744 H730 0.960 . S
C744 H731 0.961 . S
C744 H732 0.959 . S
C744 C742 1.561 . S
C745 C742 1.526 . S
C745 C746 1.396 . S
C745 C750 1.390 . S
C746 C740 1.465 . S
C746 C745 1.396 . S
C746 C747 1.399 . S
C747 H733 0.929 . S
C747 C746 1.399 . S
C747 C748 1.385 . S
C748 H734 0.931 . S
C748 C747 1.385 . S
C748 C749 1.389 . S
C749 C748 1.389 . S
C749 C750 1.387 . S
C750 H735 0.930 . S
C750 C745 1.390 . S
C750 C749 1.387 . S
H751 C763 0.930 . S
H752 C765 0.930 . S
H753 C766 0.930 . S
H754 C770 0.959 . S
H755 C770 0.959 . S
H756 C770 0.961 . S
H757 C771 0.960 . S
H758 C771 0.961 . S
H759 C771 0.959 . S
H760 C774 0.929 . S
H761 C775 0.931 . S
H762 C777 0.930 . S
C763 H751 0.930 . S
C763 C764 1.399 . S
C763 C768 1.399 . S
C764 C763 1.399 . S
C764 C765 1.376 . S
C765 H752 0.930 . S
C765 C764 1.376 . S
C765 C766 1.388 . S
C766 H753 0.930 . S
C766 C765 1.388 . S
C766 C767 1.390 . S
C767 C766 1.390 . S
C767 C768 1.394 . S
C767 C773 1.465 . S
C768 C763 1.399 . S
C768 C767 1.394 . S
C768 C769 1.516 . S
C769 C768 1.516 . S
C769 C770 1.502 . S
C769 C771 1.561 . S
C769 C772 1.526 . S
C770 H754 0.959 . S
C770 H755 0.959 . S
C770 H756 0.961 . S
C770 C769 1.502 . S
C771 H757 0.960 . S
C771 H758 0.961 . S
C771 H759 0.959 . S
C771 C769 1.561 . S
C772 C769 1.526 . S
C772 C773 1.396 . S
C772 C777 1.390 . S
C773 C767 1.465 . S
C773 C772 1.396 . S
C773 C774 1.399 . S
C774 H760 0.929 . S
C774 C773 1.399 . S
C774 C775 1.385 . S
C775 H761 0.931 . S
C775 C774 1.385 . S
C775 C776 1.389 . S
C776 C775 1.389 . S
C776 C777 1.387 . S
C777 H762 0.930 . S
C777 C772 1.390 . S
C777 C776 1.387 . S
H778 C790 0.930 . S
H779 C792 0.930 . S
H780 C793 0.930 . S
H781 C797 0.959 . S
H782 C797 0.959 . S
H783 C797 0.961 . S
H784 C798 0.960 . S
H785 C798 0.961 . S
H786 C798 0.959 . S
H787 C801 0.929 . S
H788 C802 0.931 . S
H789 C804 0.930 . S
C790 H778 0.930 . S
C790 C791 1.399 . S
C790 C795 1.399 . S
C791 C790 1.399 . S
C791 C792 1.376 . S
C792 H779 0.930 . S
C792 C791 1.376 . S
C792 C793 1.388 . S
C793 H780 0.930 . S
C793 C792 1.388 . S
C793 C794 1.390 . S
C794 C793 1.390 . S
C794 C795 1.394 . S
C794 C800 1.465 . S
C795 C790 1.399 . S
C795 C794 1.394 . S
C795 C796 1.516 . S
C796 C795 1.516 . S
C796 C797 1.502 . S
C796 C798 1.561 . S
C796 C799 1.526 . S
C797 H781 0.959 . S
C797 H782 0.959 . S
C797 H783 0.961 . S
C797 C796 1.502 . S
C798 H784 0.960 . S
C798 H785 0.961 . S
C798 H786 0.959 . S
C798 C796 1.561 . S
C799 C796 1.526 . S
C799 C800 1.396 . S
C799 C804 1.390 . S
C800 C794 1.465 . S
C800 C799 1.396 . S
C800 C801 1.399 . S
C801 H787 0.929 . S
C801 C800 1.399 . S
C801 C802 1.385 . S
C802 H788 0.931 . S
C802 C801 1.385 . S
C802 C803 1.389 . S
C803 C802 1.389 . S
C803 C804 1.387 . S
C804 H789 0.930 . S
C804 C799 1.390 . S
C804 C803 1.387 . S
H805 C817 0.930 . S
H806 C819 0.930 . S
H807 C820 0.930 . S
H808 C824 0.959 . S
H809 C824 0.959 . S
H810 C824 0.961 . S
H811 C825 0.960 . S
H812 C825 0.961 . S
H813 C825 0.959 . S
H814 C828 0.929 . S
H815 C829 0.931 . S
H816 C831 0.930 . S
C817 H805 0.930 . S
C817 C818 1.399 . S
C817 C822 1.399 . S
C818 C817 1.399 . S
C818 C819 1.376 . S
C819 H806 0.930 . S
C819 C818 1.376 . S
C819 C820 1.388 . S
C820 H807 0.930 . S
C820 C819 1.388 . S
C820 C821 1.390 . S
C821 C820 1.390 . S
C821 C822 1.394 . S
C821 C827 1.465 . S
C822 C817 1.399 . S
C822 C821 1.394 . S
C822 C823 1.516 . S
C823 C822 1.516 . S
C823 C824 1.502 . S
C823 C825 1.561 . S
C823 C826 1.526 . S
C824 H808 0.959 . S
C824 H809 0.959 . S
C824 H810 0.961 . S
C824 C823 1.502 . S
C825 H811 0.960 . S
C825 H812 0.961 . S
C825 H813 0.959 . S
C825 C823 1.561 . S
C826 C823 1.526 . S
C826 C827 1.396 . S
C826 C831 1.390 . S
C827 C821 1.465 . S
C827 C826 1.396 . S
C827 C828 1.399 . S
C828 H814 0.929 . S
C828 C827 1.399 . S
C828 C829 1.385 . S
C829 H815 0.931 . S
C829 C828 1.385 . S
C829 C830 1.389 . S
C830 C829 1.389 . S
C830 C831 1.387 . S
C831 H816 0.930 . S
C831 C826 1.390 . S
C831 C830 1.387 . S
C197 C4 1.530 . S
C209 C122 1.531 . S
C236 C100 1.513 . S
C224 C16 1.526 . S
C263 C126 1.490 . S
C251 C28 1.544 . S
C290 C104 1.539 . S
C278 C40 1.505 . S
C317 C166 1.525 . S
C305 C52 1.520 . S
C344 C144 1.508 . S
C332 C64 1.544 . S
C359 C76 1.545 . S
C371 C170 1.506 . S
C398 C148 1.498 . S
C386 C88 1.546 . S
C413 C9 1.497 . S
C425 C171 1.511 . S
C452 C149 1.494 . S
C440 C21 1.471 . S
C467 C33 1.516 . S
C479 C168 1.512 . S
C494 C45 1.496 . S
C506 C146 1.497 . S
C533 C127 1.503 . S
C521 C57 1.486 . S
C548 C69 1.467 . S
C560 C105 1.497 . S
C587 C124 1.520 . S
C575 C81 1.494 . S
C614 C102 1.492 . S
C602 C93 1.488 . S
C641 C145 1.459 . S
C629 C6 1.457 . S
C668 C167 1.487 . S
C656 C18 1.487 . S
C683 C30 1.489 . S
C695 C147 1.479 . S
C722 C169 1.459 . S
C710 C42 1.472 . S
C749 C101 1.485 . S
C737 C54 1.485 . S
C764 C66 1.479 . S
C776 C123 1.479 . S
C791 C78 1.474 . S
C803 C103 1.457 . S
C818 C90 1.488 . S
C830 C125 1.477 . S
