# Generated by pormake.
# Topology apo, (3,6)-cn, num edge types: 1
# Building blocks:
#     Node 0, Type 0, BuildingBlock: CUQRIR_clean_linker_1, # of connection points: 3
#     Node 1, Type 0, BuildingBlock: CUQRIR_clean_linker_1, # of connection points: 3
#     Node 2, Type 0, BuildingBlock: CUQRIR_clean_linker_1, # of connection points: 3
#     Node 3, Type 0, BuildingBlock: CUQRIR_clean_linker_1, # of connection points: 3
#     Node 4, Type 0, BuildingBlock: CUQRIR_clean_linker_1, # of connection points: 3
#     Node 5, Type 0, BuildingBlock: CUQRIR_clean_linker_1, # of connection points: 3
#     Node 6, Type 0, BuildingBlock: CUQRIR_clean_linker_1, # of connection points: 3
#     Node 7, Type 0, BuildingBlock: CUQRIR_clean_linker_1, # of connection points: 3
#     Node 8, Type 1, BuildingBlock: MIDCAF_clean_sbu_0, # of connection points: 6
#     Node 9, Type 1, BuildingBlock: MIDCAF_clean_sbu_0, # of connection points: 6
#     Node 10, Type 1, BuildingBlock: MIDCAF_clean_sbu_0, # of connection points: 6
#     Node 11, Type 1, BuildingBlock: MIDCAF_clean_sbu_0, # of connection points: 6
#     Edge 12, Type (0, 1), BuildingBlock: TEMPAE_clean_linker_10, # of connection points: 2
#     Edge 13, Type (0, 1), BuildingBlock: TEMPAE_clean_linker_10, # of connection points: 2
#     Edge 14, Type (0, 1), BuildingBlock: TEMPAE_clean_linker_10, # of connection points: 2
#     Edge 15, Type (0, 1), BuildingBlock: TEMPAE_clean_linker_10, # of connection points: 2
#     Edge 16, Type (0, 1), BuildingBlock: TEMPAE_clean_linker_10, # of connection points: 2
#     Edge 17, Type (0, 1), BuildingBlock: TEMPAE_clean_linker_10, # of connection points: 2
#     Edge 18, Type (0, 1), BuildingBlock: TEMPAE_clean_linker_10, # of connection points: 2
#     Edge 19, Type (0, 1), BuildingBlock: TEMPAE_clean_linker_10, # of connection points: 2
#     Edge 20, Type (0, 1), BuildingBlock: TEMPAE_clean_linker_10, # of connection points: 2
#     Edge 21, Type (0, 1), BuildingBlock: TEMPAE_clean_linker_10, # of connection points: 2
#     Edge 22, Type (0, 1), BuildingBlock: TEMPAE_clean_linker_10, # of connection points: 2
#     Edge 23, Type (0, 1), BuildingBlock: TEMPAE_clean_linker_10, # of connection points: 2
#     Edge 24, Type (0, 1), BuildingBlock: TEMPAE_clean_linker_10, # of connection points: 2
#     Edge 25, Type (0, 1), BuildingBlock: TEMPAE_clean_linker_10, # of connection points: 2
#     Edge 26, Type (0, 1), BuildingBlock: TEMPAE_clean_linker_10, # of connection points: 2
#     Edge 27, Type (0, 1), BuildingBlock: TEMPAE_clean_linker_10, # of connection points: 2
#     Edge 28, Type (0, 1), BuildingBlock: TEMPAE_clean_linker_10, # of connection points: 2
#     Edge 29, Type (0, 1), BuildingBlock: TEMPAE_clean_linker_10, # of connection points: 2
#     Edge 30, Type (0, 1), BuildingBlock: TEMPAE_clean_linker_10, # of connection points: 2
#     Edge 31, Type (0, 1), BuildingBlock: TEMPAE_clean_linker_10, # of connection points: 2
#     Edge 32, Type (0, 1), BuildingBlock: TEMPAE_clean_linker_10, # of connection points: 2
#     Edge 33, Type (0, 1), BuildingBlock: TEMPAE_clean_linker_10, # of connection points: 2
#     Edge 34, Type (0, 1), BuildingBlock: TEMPAE_clean_linker_10, # of connection points: 2
#     Edge 35, Type (0, 1), BuildingBlock: TEMPAE_clean_linker_10, # of connection points: 2
# Relax obj value: 0.008
# Max RMSD: 0.061
# Mean RMSD: 0.060
data_MOF--net-apo--node1-MIDCAF_clean_sbu_0--node2-CUQRIR_clean_linker_1--edge1-TEMPAE_clean_linker_10
_symmetry_space_group_name_H-M    P1
_symmetry_Int_Tables_number       1
_symmetry_cell_setting            triclinic
loop_
_symmetry_equiv_pos_as_xyz
'x, y, z'
_cell_length_a     34.627973
_cell_length_b     39.445437
_cell_length_c     30.997775
_cell_angle_alpha  89.922125
_cell_angle_beta   89.869297
_cell_angle_gamma 90.016612
loop_
_atom_site_label
_atom_site_type_symbol
_atom_site_fract_x
_atom_site_fract_y
_atom_site_fract_z
_atom_type_partial_charge
C0 C 0.29529 0.27285 0.4109 0.0
N1 N 0.32416 0.29489 0.42012 0.0
N2 N 0.28848 0.27189 0.36775 0.0
C3 C 0.27605 0.25014 0.44356 0.0
C4 C 0.31467 0.29383 0.35105 0.0
N5 N 0.33659 0.3074 0.38272 0.0
C6 C 0.31638 0.30461 0.30445 0.0
H7 H 0.2667 0.22601 0.42847 0.0
H8 H 0.25021 0.26311 0.45682 0.0
H9 H 0.29592 0.24445 0.47065 0.0
H10 H 0.28763 0.30245 0.28897 0.0
H11 H 0.33695 0.28793 0.28703 0.0
H12 H 0.32669 0.33113 0.30127 0.0
C13 C 0.19476 0.22466 0.91625 0.0
N14 N 0.16501 0.20328 0.92512 0.0
N15 N 0.19981 0.22803 0.873 0.0
C16 C 0.22176 0.23911 0.9495 0.0
C17 C 0.17219 0.20795 0.85586 0.0
N18 N 0.15106 0.19302 0.88728 0.0
C19 C 0.16592 0.20251 0.80837 0.0
H20 H 0.21186 0.26492 0.95838 0.0
H21 H 0.25153 0.24115 0.93643 0.0
H22 H 0.22229 0.22316 0.979 0.0
H23 H 0.18213 0.17965 0.79804 0.0
H24 H 0.17627 0.2246 0.78937 0.0
H25 H 0.13488 0.19815 0.80152 0.0
C26 C 0.81325 0.23092 0.64177 0.0
N27 N 0.83974 0.20661 0.63236 0.0
N28 N 0.81005 0.23516 0.68513 0.0
C29 C 0.7892 0.24946 0.60888 0.0
C30 C 0.83583 0.21292 0.70164 0.0
N31 N 0.85412 0.19589 0.66975 0.0
C32 C 0.84107 0.2059 0.749 0.0
H33 H 0.78223 0.2755 0.61952 0.0
H34 H 0.76156 0.23568 0.60443 0.0
H35 H 0.80437 0.2511 0.57741 0.0
H36 H 0.8263 0.18178 0.75729 0.0
H37 H 0.82894 0.2266 0.76907 0.0
H38 H 0.87214 0.20288 0.75666 0.0
C39 C 0.69096 0.27145 0.12838 0.0
N40 N 0.66383 0.29534 0.11992 0.0
N41 N 0.69724 0.26874 0.17153 0.0
C42 C 0.7088 0.24873 0.09485 0.0
C43 C 0.67257 0.29163 0.18898 0.0
N44 N 0.65199 0.30736 0.15777 0.0
C45 C 0.67114 0.30105 0.23603 0.0
H46 H 0.71634 0.22371 0.10888 0.0
H47 H 0.73558 0.2607 0.08235 0.0
H48 H 0.68877 0.24492 0.06739 0.0
H49 H 0.69949 0.2968 0.25171 0.0
H50 H 0.64918 0.28508 0.25243 0.0
H51 H 0.66277 0.32799 0.2403 0.0
C52 C 0.7189 0.71299 0.63287 0.0
N53 N 0.68872 0.69224 0.62384 0.0
N54 N 0.72077 0.71956 0.67585 0.0
C55 C 0.74928 0.72327 0.60056 0.0
C56 C 0.69063 0.70198 0.69252 0.0
N57 N 0.67132 0.68532 0.66119 0.0
C58 C 0.67899 0.70165 0.73933 0.0
H59 H 0.77812 0.7247 0.61599 0.0
H60 H 0.7421 0.74866 0.5874 0.0
H61 H 0.75063 0.70502 0.57339 0.0
H62 H 0.68761 0.72552 0.75556 0.0
H63 H 0.69327 0.68001 0.75571 0.0
H64 H 0.6473 0.69822 0.74255 0.0
C65 C 0.81082 0.76618 0.13646 0.0
N66 N 0.83842 0.78991 0.1288 0.0
N67 N 0.79998 0.76655 0.17867 0.0
C68 C 0.79502 0.7425 0.10278 0.0
C69 C 0.82189 0.7913 0.19627 0.0
N70 N 0.84518 0.80538 0.16612 0.0
C71 C 0.81995 0.80209 0.24279 0.0
H72 H 0.79018 0.7564 0.07211 0.0
H73 H 0.76788 0.73006 0.11302 0.0
H74 H 0.81651 0.72226 0.0965 0.0
H75 H 0.78998 0.79992 0.25526 0.0
H76 H 0.83026 0.82845 0.24725 0.0
H77 H 0.83862 0.78507 0.26218 0.0
C78 C 0.18766 0.76719 0.40968 0.0
N79 N 0.16126 0.79157 0.41901 0.0
N80 N 0.19159 0.76348 0.36639 0.0
C81 C 0.2104 0.74749 0.44255 0.0
C82 C 0.16656 0.78625 0.34967 0.0
N83 N 0.14775 0.80293 0.3815 0.0
C84 C 0.16255 0.79408 0.3024 0.0
H85 H 0.23803 0.76086 0.44874 0.0
H86 H 0.21738 0.72176 0.43057 0.0
H87 H 0.19421 0.7452 0.47334 0.0
H88 H 0.17846 0.77563 0.28207 0.0
H89 H 0.17378 0.81998 0.29606 0.0
H90 H 0.13162 0.79381 0.2932 0.0
C91 C 0.31205 0.73006 0.92032 0.0
N92 N 0.33742 0.70477 0.92924 0.0
N93 N 0.30362 0.73093 0.87756 0.0
C94 C 0.29856 0.75608 0.95249 0.0
C95 C 0.32511 0.70553 0.86068 0.0
N96 N 0.34612 0.69006 0.8918 0.0
C97 C 0.32243 0.69338 0.8147 0.0
H98 H 0.27122 0.74735 0.96756 0.0
H99 H 0.2931 0.78077 0.93643 0.0
H100 H 0.32031 0.75971 0.97831 0.0
H101 H 0.34466 0.70655 0.79503 0.0
H102 H 0.29361 0.69892 0.80084 0.0
H103 H 0.32774 0.66569 0.81258 0.0
Zn104 Zn 0.02173 0.08904 0.34696 0.0
Zn105 Zn 0.96025 0.08429 0.20373 0.0
Zn106 Zn 0.99198 0.09022 0.27325 0.0
C107 C 0.01963 0.12784 0.18548 0.0
C108 C 0.9779 0.01998 0.21818 0.0
O109 O 0.95078 0.11471 0.3212 0.0
O110 O 0.98513 0.11498 0.38125 0.0
C111 C 0.07388 0.12344 0.29355 0.0
O112 O 0.0283 0.1195 0.22465 0.0
O113 O 0.98838 0.11749 0.16949 0.0
O114 O 0.96788 0.03735 0.18604 0.0
O115 O 0.9865 0.03507 0.25392 0.0
O116 O 0.07033 0.111 0.33085 0.0
O117 O 0.0465 0.1199 0.26577 0.0
O118 O 0.00619 0.03682 0.29343 0.0
O119 O 0.02477 0.04084 0.3614 0.0
C120 C 0.01772 0.02282 0.32888 0.0
O121 O 0.93362 0.11461 0.27952 0.0
O122 O 0.90737 0.09693 0.21888 0.0
C123 C 0.9544 0.12209 0.36164 0.0
C124 C 0.90425 0.11276 0.254 0.0
Zn125 Zn 0.52625 0.40457 0.69566 0.0
Zn126 Zn 0.47241 0.41031 0.83513 0.0
Zn127 Zn 0.4999 0.40521 0.76615 0.0
C128 C 0.46371 0.47283 0.80803 0.0
C129 C 0.43025 0.36028 0.79731 0.0
O130 O 0.55432 0.37515 0.77181 0.0
O131 O 0.56176 0.3663 0.70217 0.0
C132 C 0.53393 0.47019 0.71427 0.0
O133 O 0.48877 0.45993 0.78186 0.0
O134 O 0.44546 0.45398 0.83376 0.0
O135 O 0.44087 0.36885 0.83459 0.0
O136 O 0.4458 0.37462 0.76413 0.0
O137 O 0.549 0.44932 0.68856 0.0
O138 O 0.51223 0.45915 0.74523 0.0
O139 O 0.45626 0.38026 0.72129 0.0
O140 O 0.48111 0.39741 0.65949 0.0
C141 C 0.45395 0.38345 0.67984 0.0
O142 O 0.541 0.38169 0.81455 0.0
O143 O 0.51879 0.40887 0.87143 0.0
C144 C 0.57192 0.36023 0.74044 0.0
C145 C 0.54405 0.38997 0.85475 0.0
Zn146 Zn 0.04615 0.91449 0.84727 0.0
Zn147 Zn 0.97538 0.9061 0.70817 0.0
Zn148 Zn 0.01032 0.90685 0.78045 0.0
C149 C 0.97342 0.97221 0.72822 0.0
C150 C 0.93469 0.86289 0.76371 0.0
O151 O 0.06932 0.88475 0.77056 0.0
O152 O 0.09862 0.90308 0.82913 0.0
C153 C 0.02357 0.97803 0.83338 0.0
O154 O 0.99206 0.95948 0.76052 0.0
O155 O 0.96103 0.95327 0.69868 0.0
O156 O 0.93543 0.87361 0.72538 0.0
O157 O 0.96003 0.87292 0.79129 0.0
O158 O 0.03762 0.96135 0.86418 0.0
O159 O 0.01311 0.96244 0.79863 0.0
O160 O 0.97809 0.87716 0.83259 0.0
O161 O 0.02075 0.88173 0.88478 0.0
C162 C 0.98893 0.87033 0.87161 0.0
O163 O 0.05035 0.884 0.73002 0.0
O164 O 0.01612 0.88947 0.67024 0.0
C165 C 0.10006 0.88735 0.79383 0.0
C166 C 0.04687 0.88067 0.68869 0.0
Zn167 Zn 0.52733 0.58749 0.20567 0.0
Zn168 Zn 0.47207 0.58277 0.35473 0.0
Zn169 Zn 0.5005 0.58957 0.2813 0.0
C170 C 0.53823 0.61963 0.36919 0.0
C171 C 0.47918 0.51828 0.33267 0.0
O172 O 0.45899 0.61672 0.23666 0.0
O173 O 0.49094 0.61618 0.17477 0.0
C174 C 0.58385 0.61856 0.25641 0.0
O175 O 0.54161 0.61558 0.32794 0.0
O176 O 0.50951 0.60734 0.38863 0.0
O177 O 0.46936 0.53418 0.3661 0.0
O178 O 0.4906 0.53469 0.29884 0.0
O179 O 0.57815 0.60654 0.21927 0.0
O180 O 0.55734 0.61609 0.28557 0.0
O181 O 0.50966 0.53584 0.2591 0.0
O182 O 0.52569 0.53935 0.19021 0.0
C183 C 0.51842 0.52148 0.22291 0.0
O184 O 0.44481 0.61844 0.27957 0.0
O185 O 0.42397 0.60767 0.34555 0.0
C186 C 0.46155 0.62452 0.19622 0.0
C187 C 0.41953 0.62243 0.3098 0.0
C188 C 0.13767 0.86426 0.38591 0.0
C189 C 0.12359 0.83214 0.37555 0.0
C190 C 0.11619 0.89343 0.37632 0.0
C191 C 0.07955 0.89017 0.35637 0.0
C192 C 0.0648 0.85755 0.3469 0.0
C193 C 0.0872 0.82883 0.35646 0.0
C194 C 0.1331 0.92775 0.3867 0.0
C195 C 0.0255 0.85306 0.32668 0.0
C196 C 0.01887 0.96904 0.3705 0.0
C197 C 0.02615 0.98628 0.33176 0.0
C198 C 0.03368 0.93647 0.3777 0.0
C199 C 0.05701 0.92115 0.34569 0.0
C200 C 0.06229 0.93754 0.30535 0.0
C201 C 0.04664 0.97 0.29881 0.0
C202 C 0.02649 0.91947 0.42066 0.0
C203 C 0.08686 0.92198 0.27034 0.0
H204 H 0.16603 0.86643 0.40037 0.0
H205 H 0.07661 0.80371 0.34874 0.0
H206 H 0.13534 0.94318 0.35683 0.0
H207 H 0.11382 0.94152 0.40929 0.0
H208 H 0.16221 0.92584 0.4015 0.0
H209 H 0.0193 0.82614 0.3188 0.0
H210 H 0.00291 0.86239 0.34914 0.0
H211 H 0.02326 0.86838 0.29676 0.0
H212 H 0.00283 0.98166 0.39592 0.0
H213 H 0.05253 0.98348 0.26901 0.0
H214 H 0.0534 0.9198 0.44003 0.0
H215 H 0.01822 0.89255 0.41602 0.0
H216 H 0.00341 0.93237 0.43941 0.0
H217 H 0.11757 0.9222 0.28054 0.0
H218 H 0.08439 0.93596 0.23933 0.0
H219 H 0.07858 0.89516 0.26492 0.0
C220 C 0.40186 0.6652 0.85453 0.0
C221 C 0.37204 0.66206 0.8849 0.0
C222 C 0.42279 0.63678 0.84067 0.0
C223 C 0.41373 0.60454 0.85795 0.0
C224 C 0.38534 0.60168 0.89087 0.0
C225 C 0.36465 0.63057 0.90384 0.0
C226 C 0.45298 0.64097 0.80584 0.0
C227 C 0.37527 0.56782 0.91064 0.0
C228 C 0.42563 0.52429 0.79201 0.0
C229 C 0.45764 0.50946 0.81181 0.0
C230 C 0.41232 0.55628 0.80512 0.0
C231 C 0.43134 0.57344 0.83918 0.0
C232 C 0.46521 0.55937 0.85733 0.0
C233 C 0.47783 0.52733 0.84356 0.0
C234 C 0.37633 0.57059 0.78459 0.0
C235 C 0.48652 0.57693 0.89336 0.0
H236 H 0.40745 0.68979 0.8402 0.0
H237 H 0.34137 0.62832 0.92709 0.0
H238 H 0.48034 0.6285 0.81551 0.0
H239 H 0.44302 0.62845 0.77582 0.0
H240 H 0.45897 0.66805 0.79859 0.0
H241 H 0.3553 0.57039 0.93855 0.0
H242 H 0.36131 0.55154 0.88601 0.0
H243 H 0.4018 0.55462 0.92153 0.0
H244 H 0.40962 0.50995 0.76816 0.0
H245 H 0.50214 0.51533 0.85943 0.0
H246 H 0.38115 0.59728 0.77458 0.0
H247 H 0.35241 0.57052 0.80847 0.0
H248 H 0.36715 0.55574 0.75596 0.0
H249 H 0.49087 0.60415 0.88575 0.0
H250 H 0.5151 0.56514 0.89963 0.0
H251 H 0.46907 0.57552 0.92338 0.0
C252 C 0.60564 0.66084 0.66056 0.0
C253 C 0.6451 0.65779 0.66911 0.0
C254 C 0.58016 0.63403 0.67036 0.0
C255 C 0.59497 0.60359 0.6883 0.0
C256 C 0.63495 0.60089 0.6973 0.0
C257 C 0.65938 0.62814 0.68786 0.0
C258 C 0.53771 0.63803 0.66088 0.0
C259 C 0.65227 0.56878 0.71554 0.0
C260 C 0.54084 0.53048 0.74046 0.0
C261 C 0.54187 0.50668 0.70699 0.0
C262 C 0.5546 0.56373 0.73384 0.0
C263 C 0.57033 0.57288 0.69312 0.0
C264 C 0.56854 0.54967 0.6585 0.0
C265 C 0.55413 0.51705 0.66581 0.0
C266 C 0.55481 0.58819 0.77118 0.0
C267 C 0.58524 0.55805 0.61465 0.0
H268 H 0.59488 0.68415 0.64651 0.0
H269 H 0.69003 0.6263 0.69451 0.0
H270 H 0.5297 0.62179 0.63313 0.0
H271 H 0.52017 0.62962 0.68894 0.0
H272 H 0.53007 0.66467 0.65295 0.0
H273 H 0.68367 0.57137 0.72207 0.0
H274 H 0.63749 0.56173 0.74604 0.0
H275 H 0.64807 0.5476 0.69248 0.0
H276 H 0.53153 0.52266 0.77228 0.0
H277 H 0.55426 0.49902 0.63944 0.0
H278 H 0.54617 0.61392 0.76039 0.0
H279 H 0.58447 0.59003 0.78444 0.0
H280 H 0.53512 0.57988 0.79749 0.0
H281 H 0.57539 0.58332 0.60357 0.0
H282 H 0.57724 0.53897 0.58989 0.0
H283 H 0.61721 0.55891 0.61689 0.0
C284 C 0.91082 0.82681 0.17934 0.0
C285 C 0.87148 0.83296 0.17298 0.0
C286 C 0.93615 0.85354 0.18938 0.0
C287 C 0.92147 0.88697 0.19272 0.0
C288 C 0.88159 0.89306 0.18575 0.0
C289 C 0.85707 0.86586 0.17641 0.0
C290 C 0.97816 0.84582 0.19761 0.0
C291 C 0.86474 0.92834 0.18808 0.0
C292 C 0.96258 0.96312 0.24996 0.0
C293 C 0.97474 0.98269 0.21474 0.0
C294 C 0.94964 0.92968 0.24406 0.0
C295 C 0.94725 0.91627 0.20175 0.0
C296 C 0.96298 0.93475 0.16676 0.0
C297 C 0.97686 0.96764 0.17379 0.0
C298 C 0.93502 0.91006 0.28256 0.0
C299 C 0.96136 0.92132 0.12117 0.0
H300 H 0.92142 0.80101 0.17731 0.0
H301 H 0.82643 0.87008 0.17181 0.0
H302 H 0.99719 0.86466 0.18158 0.0
H303 H 0.98376 0.84729 0.23277 0.0
H304 H 0.98621 0.82005 0.18633 0.0
H305 H 0.83331 0.92869 0.18096 0.0
H306 H 0.86926 0.93905 0.22075 0.0
H307 H 0.87964 0.94521 0.16469 0.0
H308 H 0.96022 0.97466 0.28153 0.0
H309 H 0.98665 0.98257 0.14647 0.0
H310 H 0.94242 0.88279 0.27974 0.0
H311 H 0.9031 0.91218 0.2842 0.0
H312 H 0.94723 0.92003 0.31316 0.0
H313 H 0.97098 0.89452 0.11997 0.0
H314 H 0.97952 0.93648 0.09871 0.0
H315 H 0.93107 0.92211 0.10954 0.0
C316 C 0.91404 0.1681 0.6934 0.0
C317 C 0.87691 0.16587 0.67593 0.0
C318 C 0.93482 0.1387 0.70415 0.0
C319 C 0.91767 0.10653 0.69752 0.0
C320 C 0.88026 0.10436 0.6792 0.0
C321 C 0.86043 0.13415 0.6684 0.0
C322 C 0.97489 0.142 0.72272 0.0
C323 C 0.86083 0.07059 0.67179 0.0
C324 C 0.97287 0.02462 0.68441 0.0
C325 C 0.96614 0.00881 0.72421 0.0
C326 C 0.95981 0.05762 0.67642 0.0
C327 C 0.93873 0.07488 0.70876 0.0
C328 C 0.93398 0.05979 0.75002 0.0
C329 C 0.94788 0.02679 0.75731 0.0
C330 C 0.96635 0.07309 0.6324 0.0
C331 C 0.9118 0.07744 0.7854 0.0
H332 H 0.9264 0.19292 0.69915 0.0
H333 H 0.83148 0.13286 0.65529 0.0
H334 H 0.97668 0.12845 0.75402 0.0
H335 H 0.99612 0.12998 0.70067 0.0
H336 H 0.98337 0.16887 0.72773 0.0
H337 H 0.83134 0.0734 0.6582 0.0
H338 H 0.87833 0.05505 0.64925 0.0
H339 H 0.85877 0.05642 0.70266 0.0
H340 H 0.98719 0.0106 0.6589 0.0
H341 H 0.94252 0.01435 0.78797 0.0
H342 H 0.9766 0.09963 0.6354 0.0
H343 H 0.9387 0.07368 0.6144 0.0
H344 H 0.98773 0.05851 0.61313 0.0
H345 H 0.92173 0.10401 0.789 0.0
H346 H 0.91484 0.0643 0.81694 0.0
H347 H 0.88071 0.07822 0.7768 0.0
C348 C 0.5909 0.32963 0.18647 0.0
C349 C 0.62566 0.33502 0.16437 0.0
C350 C 0.56694 0.35697 0.19773 0.0
C351 C 0.57881 0.39041 0.18763 0.0
C352 C 0.61374 0.39574 0.16455 0.0
C353 C 0.63657 0.36785 0.15281 0.0
C354 C 0.52948 0.35016 0.22119 0.0
C355 C 0.62769 0.43098 0.15348 0.0
C356 C 0.51499 0.46789 0.18125 0.0
C357 C 0.52457 0.48461 0.21962 0.0
C358 C 0.52964 0.43555 0.17213 0.0
C359 C 0.55542 0.42012 0.20155 0.0
C360 C 0.5626 0.43574 0.24195 0.0
C361 C 0.54664 0.46776 0.25073 0.0
C362 C 0.51992 0.41913 0.12954 0.0
C363 C 0.59011 0.4203 0.27414 0.0
H364 H 0.58293 0.304 0.19542 0.0
H365 H 0.66379 0.37164 0.13617 0.0
H366 H 0.53147 0.35966 0.25476 0.0
H367 H 0.50535 0.36388 0.20541 0.0
H368 H 0.52241 0.3227 0.22229 0.0
H369 H 0.65583 0.43072 0.13618 0.0
H370 H 0.60616 0.44404 0.1329 0.0
H371 H 0.63089 0.44613 0.18341 0.0
H372 H 0.49764 0.48091 0.15731 0.0
H373 H 0.55425 0.48082 0.28027 0.0
H374 H 0.51371 0.39174 0.13401 0.0
H375 H 0.54499 0.42124 0.10735 0.0
H376 H 0.49463 0.43132 0.11392 0.0
H377 H 0.58399 0.39295 0.27874 0.0
H378 H 0.58858 0.43312 0.30599 0.0
H379 H 0.62008 0.42251 0.26163 0.0
C380 C 0.39863 0.32787 0.35423 0.0
C381 C 0.36449 0.334 0.37717 0.0
C382 C 0.42426 0.35442 0.34447 0.0
C383 C 0.41467 0.3879 0.35694 0.0
C384 C 0.38033 0.39394 0.38083 0.0
C385 C 0.35584 0.36676 0.39102 0.0
C386 C 0.46099 0.34677 0.32007 0.0
C387 C 0.36882 0.42926 0.39453 0.0
C388 C 0.48219 0.46231 0.36879 0.0
C389 C 0.4729 0.4814 0.33211 0.0
C390 C 0.46645 0.42994 0.3752 0.0
C391 C 0.43983 0.417 0.34484 0.0
C392 C 0.43316 0.43492 0.30585 0.0
C393 C 0.45024 0.4669 0.29972 0.0
C394 C 0.4757 0.41097 0.41623 0.0
C395 C 0.40485 0.42213 0.27271 0.0
H396 H 0.40486 0.3023 0.34352 0.0
H397 H 0.32909 0.37116 0.40835 0.0
H398 H 0.45862 0.35653 0.28662 0.0
H399 H 0.48599 0.35965 0.33529 0.0
H400 H 0.46695 0.31913 0.31855 0.0
H401 H 0.34072 0.42966 0.4119 0.0
H402 H 0.39121 0.44014 0.41597 0.0
H403 H 0.36666 0.44597 0.36579 0.0
H404 H 0.49996 0.47357 0.39373 0.0
H405 H 0.44286 0.48184 0.27152 0.0
H406 H 0.48029 0.38364 0.40952 0.0
H407 H 0.45104 0.41304 0.439 0.0
H408 H 0.50183 0.42127 0.43231 0.0
H409 H 0.40952 0.39483 0.26612 0.0
H410 H 0.40704 0.43636 0.24184 0.0
H411 H 0.37504 0.42498 0.28546 0.0
C412 C 0.08493 0.17155 0.87637 0.0
C413 C 0.12459 0.1656 0.88025 0.0
C414 C 0.05963 0.14502 0.86518 0.0
C415 C 0.07463 0.11199 0.85856 0.0
C416 C 0.11489 0.10623 0.86244 0.0
C417 C 0.13936 0.1333 0.87234 0.0
C418 C 0.01721 0.15242 0.85946 0.0
C419 C 0.13223 0.07137 0.85659 0.0
C420 C 0.0228 0.02987 0.8784 0.0
C421 C 0.02395 0.01539 0.83709 0.0
C422 C 0.03551 0.0631 0.88545 0.0
C423 C 0.04885 0.08257 0.85009 0.0
C424 C 0.04499 0.06968 0.80763 0.0
C425 C 0.03333 0.03586 0.80165 0.0
C426 C 0.03928 0.07559 0.93132 0.0
C427 C 0.05715 0.09014 0.76879 0.0
H428 H 0.07405 0.19702 0.88113 0.0
H429 H 0.17028 0.12937 0.87446 0.0
H430 H 0.0092 0.14849 0.82519 0.0
H431 H -0.00053 0.13469 0.87898 0.0
H432 H 0.00976 0.17884 0.86865 0.0
H433 H 0.16392 0.07117 0.86205 0.0
H434 H 0.11862 0.05321 0.87939 0.0
H435 H 0.12656 0.06211 0.82343 0.0
H436 H 0.01514 0.01419 0.90589 0.0
H437 H 0.03478 0.0248 0.76972 0.0
H438 H 0.02968 0.1023 0.93415 0.0
H439 H 0.07009 0.07459 0.94106 0.0
H440 H 0.02229 0.05987 0.9543 0.0
H441 H 0.05156 0.11757 0.77368 0.0
H442 H 0.04174 0.08159 0.73933 0.0
H443 H 0.08858 0.08675 0.76331 0.0
C444 C 0.14312 0.16064 0.97891 0.0
C445 C 0.15002 0.19447 0.96739 0.0
C446 C 0.12605 0.15224 1.01872 0.0
C447 C 0.11752 0.17818 0.0489 0.0
C448 C 0.12712 0.21216 0.03873 0.0
C449 C 0.1423 0.21996 0.99777 0.0
C450 C 0.11547 0.11575 0.02755 0.0
C451 C 0.12012 0.24045 0.07053 0.0
C452 C 0.02984 0.16189 0.11912 0.0
C453 C 0.04589 0.14682 0.15607 0.0
C454 C 0.05293 0.17289 0.08474 0.0
C455 C 0.09356 0.17032 0.08784 0.0
C456 C 0.11028 0.15797 0.12663 0.0
C457 C 0.08619 0.14555 0.15994 0.0
C458 C 0.03355 0.18512 0.0439 0.0
C459 C 0.15347 0.15628 0.13225 0.0
H460 H 0.15079 0.14063 0.95678 0.0
H461 H 0.14763 0.24617 0.98918 0.0
H462 H 0.12842 0.10725 0.0584 0.0
H463 H 0.08365 0.11344 0.03083 0.0
H464 H 0.12521 0.09847 1.00141 0.0
H465 H 0.13539 0.2641 0.06105 0.0
H466 H 0.08876 0.24598 0.07245 0.0
H467 H 0.12977 0.23286 0.10328 0.0
H468 H 0.99871 0.16329 0.11586 0.0
H469 H 0.09892 0.13333 0.18778 0.0
H470 H 0.04119 0.16808 1.01671 0.0
H471 H 0.04384 0.21088 0.03536 0.0
H472 H 0.00159 0.18586 0.04692 0.0
H473 H 0.16475 0.13338 0.11577 0.0
H474 H 0.16154 0.15474 0.16688 0.0
H475 H 0.16775 0.17875 0.11767 0.0
C476 C 0.37741 0.30487 0.47144 0.0
C477 C 0.33785 0.30462 0.46239 0.0
C478 C 0.39119 0.31562 0.51179 0.0
C479 C 0.3647 0.32612 0.54413 0.0
C480 C 0.32458 0.32489 0.53554 0.0
C481 C 0.31168 0.31446 0.49465 0.0
C482 C 0.43423 0.31685 0.51928 0.0
C483 C 0.29536 0.33577 0.56895 0.0
C484 C 0.41038 0.33645 0.65535 0.0
C485 C 0.42145 0.37058 0.65372 0.0
C486 C 0.38918 0.32189 0.62121 0.0
C487 C 0.37944 0.34193 0.5847 0.0
C488 C 0.38778 0.37704 0.58498 0.0
C489 C 0.40853 0.39086 0.61948 0.0
C490 C 0.38001 0.28455 0.62273 0.0
C491 C 0.37785 0.39955 0.54709 0.0
H492 H 0.39757 0.29688 0.44669 0.0
H493 H 0.28109 0.31476 0.48746 0.0
H494 H 0.44352 0.34355 0.52361 0.0
H495 H 0.44168 0.30292 0.54924 0.0
H496 H 0.45082 0.30578 0.492 0.0
H497 H 0.26539 0.32908 0.55945 0.0
H498 H 0.30177 0.32386 0.60058 0.0
H499 H 0.29699 0.36364 0.57341 0.0
H500 H 0.42078 0.3206 0.68145 0.0
H501 H 0.4172 0.41728 0.61815 0.0
H502 H 0.40061 0.27068 0.60171 0.0
H503 H 0.35049 0.27958 0.61042 0.0
H504 H 0.38236 0.27422 0.65599 0.0
H505 H 0.39603 0.39253 0.51894 0.0
H506 H 0.38267 0.42681 0.55426 0.0
H507 H 0.34727 0.39602 0.53756 0.0
C508 C 0.61146 0.3088 0.06872 0.0
C509 C 0.65092 0.30677 0.07801 0.0
C510 C 0.59851 0.32058 0.02843 0.0
C511 C 0.62571 0.33037 0.99644 0.0
C512 C 0.66568 0.32767 1.00542 0.0
C513 C 0.67777 0.31615 0.04619 0.0
C514 C 0.55563 0.32332 1.0205 0.0
C515 C 0.69564 0.33783 0.9724 0.0
C516 C 0.58298 0.34129 0.88378 0.0
C517 C 0.57367 0.37586 0.88415 0.0
C518 C 0.60235 0.32631 0.91898 0.0
C519 C 0.61205 0.34634 0.95543 0.0
C520 C 0.60518 0.38169 0.95431 0.0
C521 C 0.58622 0.39594 0.91873 0.0
C522 C 0.60993 0.28868 0.9184 0.0
C523 C 0.61517 0.40417 0.99212 0.0
H524 H 0.59076 0.30118 0.09312 0.0
H525 H 0.70829 0.31504 0.05359 0.0
H526 H 0.54763 0.3503 1.01563 0.0
H527 H 0.54777 0.30944 0.99067 0.0
H528 H 0.5383 0.31306 0.04776 0.0
H529 H 0.72536 0.3311 0.98274 0.0
H530 H 0.68965 0.32541 0.94103 0.0
H531 H 0.69433 0.36561 0.96697 0.0
H532 H 0.57287 0.32557 0.85746 0.0
H533 H 0.57904 0.4227 0.91915 0.0
H534 H 0.58889 0.27576 0.9399 0.0
H535 H 0.63928 0.28299 0.93072 0.0
H536 H 0.60707 0.27793 0.88544 0.0
H537 H 0.59629 0.39777 1.01996 0.0
H538 H 0.6114 0.4315 0.98451 0.0
H539 H 0.64544 0.3999 1.00237 0.0
C540 C 0.88964 0.19074 0.57913 0.0
C541 C 0.8506 0.19399 0.59016 0.0
C542 C 0.90092 0.17914 0.53814 0.0
C543 C 0.87243 0.17148 0.50678 0.0
C544 C 0.83289 0.17484 0.51771 0.0
C545 C 0.82247 0.18528 0.55956 0.0
C546 C 0.9434 0.17486 0.52852 0.0
C547 C 0.80161 0.16742 0.48523 0.0
C548 C 0.91487 0.16871 0.39336 0.0
C549 C 0.92212 0.134 0.38872 0.0
C550 C 0.89544 0.18117 0.43009 0.0
C551 C 0.8844 0.15843 0.46347 0.0
C552 C 0.88935 0.12314 0.4573 0.0
C553 C 0.90782 0.11141 0.41984 0.0
C554 C 0.88955 0.21886 0.43474 0.0
C555 C 0.87889 0.09793 0.49214 0.0
H556 H 0.91139 0.19754 0.60264 0.0
H557 H 0.79225 0.18674 0.56834 0.0
H558 H 0.94936 0.14831 0.51876 0.0
H559 H 0.95188 0.19145 0.50117 0.0
H560 H 0.96181 0.18111 0.55672 0.0
H561 H 0.77239 0.17373 0.49772 0.0
H562 H 0.80683 0.1821 0.4552 0.0
H563 H 0.80216 0.14018 0.47644 0.0
H564 H 0.92689 0.1863 0.37002 0.0
H565 H 0.91436 0.08462 0.41677 0.0
H566 H 0.91009 0.229 0.45893 0.0
H567 H 0.85992 0.22435 0.44651 0.0
H568 H 0.89428 0.23248 0.40378 0.0
H569 H 0.89923 0.10068 0.51955 0.0
H570 H 0.88032 0.07135 0.48042 0.0
H571 H 0.84943 0.1028 0.50474 0.0
C572 C 0.87409 0.77376 0.06264 0.0
C573 C 0.85581 0.79858 0.08775 0.0
C574 C 0.89171 0.78208 1.02306 0.0
C575 C 0.89227 0.81627 1.00895 0.0
C576 C 0.87311 0.84128 0.03385 0.0
C577 C 0.85461 0.832 0.07251 0.0
C578 C 0.91086 0.75448 0.99704 0.0
C579 C 0.87352 0.87812 1.02061 0.0
C580 C 0.97945 0.84645 0.94547 0.0
C581 C 0.96435 0.85219 0.90394 0.0
C582 C 0.9564 0.83441 0.97935 0.0
C583 C 0.91717 0.82663 0.97169 0.0
C584 C 0.90207 0.83038 0.92938 0.0
C585 C 0.92572 0.84364 0.89617 0.0
C586 C 0.97378 0.8315 1.02395 0.0
C587 C 0.86063 0.82171 0.91936 0.0
H588 H 0.87535 0.74795 0.07447 0.0
H589 H 0.83944 0.85099 0.09113 0.0
H590 H 0.90209 0.75631 0.96269 0.0
H591 H 0.94268 0.75762 0.99826 0.0
H592 H 0.90351 0.72879 1.00929 0.0
H593 H 0.85575 0.89417 0.04237 0.0
H594 H 0.90364 0.88777 1.021 0.0
H595 H 0.86259 0.88087 0.98719 0.0
H596 H 0.00931 0.85265 0.95227 0.0
H597 H 0.91367 0.84819 0.86465 0.0
H598 H 0.97054 0.80527 0.03634 0.0
H599 H 0.95824 0.84853 0.04657 0.0
H600 H 0.00492 0.83825 1.02443 0.0
H601 H 0.85652 0.81676 0.88441 0.0
H602 H 0.84189 0.84335 0.92854 0.0
H603 H 0.8509 0.79913 0.93781 0.0
C604 C 0.67026 0.70762 0.54949 0.0
C605 C 0.67513 0.68271 0.58139 0.0
C606 C 0.65514 0.69957 0.50875 0.0
C607 C 0.64314 0.66597 0.50011 0.0
C608 C 0.64953 0.64039 0.53154 0.0
C609 C 0.66595 0.649 0.57155 0.0
C610 C 0.65 0.72744 0.47586 0.0
C611 C 0.63682 0.6043 0.52403 0.0
C612 C 0.55272 0.65372 0.43381 0.0
C613 C 0.56666 0.63782 0.39638 0.0
C614 C 0.57747 0.6637 0.467 0.0
C615 C 0.61772 0.65888 0.46229 0.0
C616 C 0.63247 0.64565 0.42292 0.0
C617 C 0.60664 0.63467 0.39056 0.0
C618 C 0.56014 0.67741 0.50829 0.0
C619 C 0.67527 0.64138 0.41581 0.0
H620 H 0.67722 0.73373 0.55694 0.0
H621 H 0.67091 0.62942 0.59537 0.0
H622 H 0.65854 0.71855 0.44324 0.0
H623 H 0.61913 0.73485 0.4744 0.0
H624 H 0.66724 0.7503 0.48404 0.0
H625 H 0.64836 0.58671 0.54885 0.0
H626 H 0.6048 0.60304 0.52487 0.0
H627 H 0.64631 0.59545 0.49176 0.0
H628 H 0.52182 0.65656 0.43834 0.0
H629 H 0.61761 0.62198 0.36209 0.0
H630 H 0.57262 0.70258 0.5159 0.0
H631 H 0.56711 0.6602 0.53555 0.0
H632 H 0.52824 0.68005 0.50641 0.0
H633 H 0.69155 0.66318 0.42921 0.0
H634 H 0.68235 0.63884 0.38097 0.0
H635 H 0.68522 0.61816 0.43266 0.0
C636 C 0.38997 0.6888 0.97934 0.0
C637 C 0.3507 0.69442 0.97151 0.0
C638 C 0.40297 0.67871 1.02037 0.0
C639 C 0.37614 0.67499 0.05477 0.0
C640 C 0.33651 0.68124 0.04717 0.0
C641 C 0.32423 0.69028 1.00551 0.0
C642 C 0.4454 0.67158 0.02674 0.0
C643 C 0.30705 0.6781 0.08294 0.0
C644 C 0.41053 0.6155 0.14281 0.0
C645 C 0.42892 0.63792 0.17113 0.0
C646 C 0.3911 0.62735 0.10611 0.0
C647 C 0.38957 0.66263 0.09783 0.0
C648 C 0.40475 0.68554 0.12873 0.0
C649 C 0.42483 0.67287 0.16483 0.0
C650 C 0.37571 0.60191 0.07408 0.0
C651 C 0.40259 0.72335 0.12191 0.0
H652 H 0.41052 0.6924 0.95334 0.0
H653 H 0.29376 0.69398 0.99936 0.0
H654 H 0.45717 0.68836 0.05222 0.0
H655 H 0.44943 0.64503 0.03772 0.0
H656 H 0.46243 0.67545 0.99671 0.0
H657 H 0.27782 0.68632 0.07255 0.0
H658 H 0.30532 0.65141 0.09404 0.0
H659 H 0.31595 0.69361 0.11106 0.0
H660 H 0.41448 0.58843 0.14725 0.0
H661 H 0.43974 0.69019 0.18622 0.0
H662 H 0.39404 0.60221 0.04465 0.0
H663 H 0.34596 0.60862 0.06409 0.0
H664 H 0.3755 0.57573 0.08734 0.0
H665 H 0.42353 0.73092 0.09653 0.0
H666 H 0.40948 0.73755 0.15186 0.0
H667 H 0.37339 0.73085 0.11074 0.0
C668 C 0.17801 0.81312 0.49174 0.0
C669 C 0.15006 0.80393 0.46119 0.0
C670 C 0.16734 0.82455 0.53309 0.0
C671 C 0.12773 0.82785 0.54375 0.0
C672 C 0.09942 0.81909 0.51266 0.0
C673 C 0.11095 0.80697 0.47199 0.0
C674 C 0.19843 0.83345 0.56518 0.0
C675 C 0.05685 0.82292 0.52212 0.0
C676 C 0.08661 0.83381 0.65771 0.0
C677 C 0.07823 0.86847 0.6604 0.0
C678 C 0.10559 0.82042 0.6212 0.0
C679 C 0.1155 0.84215 0.58634 0.0
C680 C 0.10942 0.87749 0.59045 0.0
C681 C 0.09096 0.89015 0.62744 0.0
C682 C 0.11224 0.7827 0.61847 0.0
C683 C 0.11906 0.90166 0.55414 0.0
H684 H 0.20827 0.81159 0.48312 0.0
H685 H 0.08936 0.79971 0.44851 0.0
H686 H 0.19741 0.86098 0.57237 0.0
H687 H 0.19342 0.8198 0.59601 0.0
H688 H 0.22777 0.82709 0.55309 0.0
H689 H 0.03855 0.81479 0.49462 0.0
H690 H 0.04891 0.8077 0.55092 0.0
H691 H 0.05019 0.84981 0.52955 0.0
H692 H 0.07562 0.81683 0.68236 0.0
H693 H 0.08365 0.91687 0.62907 0.0
H694 H 0.1422 0.77736 0.60768 0.0
H695 H 0.09243 0.77159 0.59422 0.0
H696 H 0.10716 0.76986 0.64989 0.0
H697 H 0.1487 0.89704 0.54191 0.0
H698 H 0.11675 0.92859 0.56427 0.0
H699 H 0.09888 0.8974 0.5269 0.0
C700 C 0.2666 0.2352 0.30782 0.0
C701 C 0.25839 0.25377 0.34531 0.0
C702 C 0.23772 0.21621 0.28708 0.0
C703 C 0.20028 0.21461 0.30542 0.0
C704 C 0.19152 0.23457 0.34217 0.0
C705 C 0.22051 0.25434 0.36111 0.0
C706 C 0.24782 0.19669 0.24678 0.0
C707 C 0.15212 0.23348 0.36315 0.0
C708 C 0.10893 0.17369 0.2622 0.0
C709 C 0.10949 0.14297 0.2849 0.0
C710 C 0.14051 0.19617 0.26451 0.0
C711 C 0.17228 0.18813 0.29151 0.0
C712 C 0.17416 0.15584 0.31129 0.0
C713 C 0.14305 0.13354 0.30711 0.0
C714 C 0.13844 0.22943 0.24063 0.0
C715 C 0.20716 0.14603 0.34062 0.0
H716 H 0.29584 0.23483 0.29537 0.0
H717 H 0.21386 0.26963 0.38915 0.0
H718 H 0.2542 0.16997 0.25532 0.0
H719 H 0.22335 0.19667 0.2237 0.0
H720 H 0.2737 0.20745 0.23053 0.0
H721 H 0.14964 0.25144 0.3906 0.0
H722 H 0.12947 0.2397 0.3392 0.0
H723 H 0.14623 0.20749 0.37527 0.0
H724 H 0.08304 0.18115 0.24505 0.0
H725 H 0.14375 0.10953 0.3242 0.0
H726 H 0.16756 0.23812 0.23045 0.0
H727 H 0.12586 0.24902 0.26211 0.0
H728 H 0.11973 0.22733 0.21166 0.0
H729 H 0.23522 0.14969 0.32403 0.0
H730 H 0.20524 0.11924 0.3515 0.0
H731 H 0.20705 0.16259 0.36956 0.0
C732 C 0.23649 0.28037 0.85955 0.0
C733 C 0.22998 0.24612 0.85065 0.0
C734 C 0.26802 0.29757 0.8413 0.0
C735 C 0.29349 0.28005 0.81322 0.0
C736 C 0.2855 0.24601 0.80193 0.0
C737 C 0.25402 0.22931 0.82119 0.0
C738 C 0.27545 0.33386 0.85429 0.0
C739 C 0.31147 0.22661 0.7716 0.0
C740 C 0.36997 0.33726 0.76292 0.0
C741 C 0.39911 0.33484 0.79404 0.0
C742 C 0.33618 0.31752 0.76657 0.0
C743 C 0.33156 0.29549 0.80247 0.0
C744 C 0.3624 0.29112 0.8318 0.0
C745 C 0.39576 0.31071 0.82705 0.0
C746 C 0.30454 0.32206 0.73373 0.0
C747 C 0.35909 0.26774 0.87034 0.0
H748 H 0.21745 0.29335 0.88187 0.0
H749 H 0.24907 0.20272 0.81454 0.0
H750 H 0.30186 0.33509 0.87445 0.0
H751 H 0.28055 0.34979 0.82532 0.0
H752 H 0.25104 0.34479 0.87296 0.0
H753 H 0.29742 0.20313 0.75962 0.0
H754 H 0.31984 0.24256 0.74358 0.0
H755 H 0.33836 0.21937 0.78868 0.0
H756 H 0.37239 0.35603 0.73749 0.0
H757 H 0.41857 0.30844 0.85081 0.0
H758 H 0.28266 0.33994 0.74663 0.0
H759 H 0.28979 0.29768 0.72695 0.0
H760 H 0.31595 0.33262 0.70297 0.0
H761 H 0.33684 0.2776 0.89289 0.0
H762 H 0.38677 0.26536 0.88814 0.0
H763 H 0.34981 0.2421 0.86006 0.0
C764 C 0.77643 0.28817 0.70377 0.0
C765 C 0.78013 0.25305 0.70804 0.0
C766 C 0.74382 0.30505 0.71999 0.0
C767 C 0.71492 0.28637 0.74214 0.0
C768 C 0.72092 0.25153 0.75083 0.0
C769 C 0.75315 0.23511 0.73294 0.0
C770 C 0.73867 0.34222 0.70995 0.0
C771 C 0.69183 0.23106 0.77612 0.0
C772 C 0.63034 0.34005 0.78176 0.0
C773 C 0.60511 0.33711 0.74668 0.0
C774 C 0.6653 0.32174 0.78266 0.0
C775 C 0.67559 0.30118 0.74689 0.0
C776 C 0.64913 0.29688 0.71262 0.0
C777 C 0.61413 0.31441 0.71336 0.0
C778 C 0.69181 0.32587 0.82082 0.0
C779 C 0.6587 0.27542 0.67359 0.0
H780 H 0.79811 0.30205 0.68571 0.0
H781 H 0.75641 0.20795 0.73673 0.0
H782 H 0.71507 0.34533 0.68609 0.0
H783 H 0.73025 0.3563 0.73943 0.0
H784 H 0.76535 0.35378 0.69645 0.0
H785 H 0.70456 0.20707 0.78841 0.0
H786 H 0.68046 0.24589 0.80378 0.0
H787 H 0.66707 0.22455 0.75505 0.0
H788 H 0.62384 0.35788 0.80728 0.0
H789 H 0.59447 0.31159 0.68641 0.0
H790 H 0.71303 0.34623 0.81384 0.0
H791 H 0.70805 0.3022 0.82752 0.0
H792 H 0.67544 0.33319 0.85025 0.0
H793 H 0.6848 0.2856 0.65724 0.0
H794 H 0.63475 0.27471 0.64982 0.0
H795 H 0.6652 0.24905 0.6836 0.0
C796 C 0.71517 0.22917 0.23027 0.0
C797 C 0.72541 0.24801 0.19355 0.0
C798 C 0.74227 0.20841 0.25131 0.0
C799 C 0.78 0.2053 0.23407 0.0
C800 C 0.7907 0.22499 0.19765 0.0
C801 C 0.76348 0.24653 0.17841 0.0
C802 C 0.73007 0.18898 0.29103 0.0
C803 C 0.83039 0.22217 0.17767 0.0
C804 C 0.8683 0.16318 0.28313 0.0
C805 C 0.8682 0.13224 0.26098 0.0
C806 C 0.83752 0.18626 0.27835 0.0
C807 C 0.80678 0.17842 0.24984 0.0
C808 C 0.80495 0.14586 0.23089 0.0
C809 C 0.83533 0.12305 0.23731 0.0
C810 C 0.83956 0.21998 0.30106 0.0
C811 C 0.77303 0.1363 0.20002 0.0
H812 H 0.68573 0.23021 0.24206 0.0
H813 H 0.77175 0.26186 0.15089 0.0
H814 H 0.72411 0.16224 0.28232 0.0
H815 H 0.75342 0.18896 0.31551 0.0
H816 H 0.70351 0.1998 0.30573 0.0
H817 H 0.83434 0.23975 0.14998 0.0
H818 H 0.85286 0.22774 0.20209 0.0
H819 H 0.83521 0.19586 0.16619 0.0
H820 H 0.89359 0.17053 0.30134 0.0
H821 H 0.83477 0.09889 0.22066 0.0
H822 H 0.81042 0.22854 0.3113 0.0
H823 H 0.85149 0.23931 0.27867 0.0
H824 H 0.85861 0.21873 0.32981 0.0
H825 H 0.74436 0.14145 0.21452 0.0
H826 H 0.77425 0.10914 0.19066 0.0
H827 H 0.77545 0.15193 0.17032 0.0
C828 C 0.76696 0.72606 0.73613 0.0
C829 C 0.74954 0.73897 0.69871 0.0
C830 C 0.7956 0.74447 0.758 0.0
C831 C 0.80872 0.77557 0.74053 0.0
C832 C 0.79099 0.78882 0.70291 0.0
C833 C 0.76099 0.77074 0.68316 0.0
C834 C 0.81247 0.73006 0.79896 0.0
C835 C 0.80472 0.82144 0.68237 0.0
C836 C 0.87096 0.84347 0.79123 0.0
C837 C 0.90688 0.83579 0.77294 0.0
C838 C 0.83926 0.82168 0.78529 0.0
C839 C 0.84337 0.79284 0.75843 0.0
C840 C 0.88039 0.78379 0.74277 0.0
C841 C 0.9118 0.80521 0.75082 0.0
C842 C 0.80076 0.83103 0.80474 0.0
C843 C 0.88611 0.75377 0.71325 0.0
H844 H 0.75873 0.70125 0.74793 0.0
H845 H 0.74697 0.78107 0.65487 0.0
H846 H 0.84009 0.7171 0.79155 0.0
H847 H 0.81858 0.75042 0.82267 0.0
H848 H 0.79274 0.71124 0.81407 0.0
H849 H 0.78832 0.82786 0.6527 0.0
H850 H 0.80178 0.84271 0.70549 0.0
H851 H 0.83578 0.81931 0.67385 0.0
H852 H 0.86699 0.86751 0.80757 0.0
H853 H 0.9395 0.79979 0.73591 0.0
H854 H 0.7856 0.8081 0.81684 0.0
H855 H 0.78226 0.84285 0.77973 0.0
H856 H 0.80406 0.84933 0.8317 0.0
H857 H 0.87303 0.73064 0.72738 0.0
H858 H 0.91713 0.74869 0.70669 0.0
H859 H 0.87143 0.75868 0.68205 0.0
C860 C 0.77898 0.72741 0.23633 0.0
C861 C 0.77029 0.74704 0.19991 0.0
C862 C 0.75034 0.70786 0.25686 0.0
C863 C 0.71247 0.70733 0.23972 0.0
C864 C 0.70328 0.72848 0.20415 0.0
C865 C 0.73221 0.74846 0.18516 0.0
C866 C 0.76097 0.6868 0.29572 0.0
C867 C 0.66335 0.72869 0.18467 0.0
C868 C 0.65249 0.62769 0.23806 0.0
C869 C 0.62049 0.63706 0.26315 0.0
C870 C 0.68401 0.64944 0.23275 0.0
C871 C 0.68409 0.68117 0.25395 0.0
C872 C 0.65398 0.68907 0.28343 0.0
C873 C 0.62207 0.66704 0.28726 0.0
C874 C 0.71533 0.63977 0.20101 0.0
C875 C 0.65386 0.72183 0.30841 0.0
H876 H 0.80839 0.72688 0.24817 0.0
H877 H 0.72541 0.76466 0.15795 0.0
H878 H 0.7379 0.68799 0.32059 0.0
H879 H 0.76417 0.65989 0.28603 0.0
H880 H 0.78862 0.69529 0.31027 0.0
H881 H 0.66046 0.74776 0.15847 0.0
H882 H 0.65673 0.70328 0.17121 0.0
H883 H 0.64144 0.73417 0.20985 0.0
H884 H 0.6516 0.60424 0.21986 0.0
H885 H 0.59742 0.67441 0.30672 0.0
H886 H 0.74426 0.64296 0.21567 0.0
H887 H 0.71391 0.65674 0.17245 0.0
H888 H 0.71248 0.61315 0.18978 0.0
H889 H 0.68357 0.72949 0.31753 0.0
H890 H 0.63599 0.71967 0.33812 0.0
H891 H 0.64143 0.74221 0.28804 0.0
C892 C 0.25212 0.76127 0.32494 0.0
C893 C 0.22078 0.74449 0.34392 0.0
C894 C 0.2835 0.74296 0.30807 0.0
C895 C 0.28346 0.7071 0.31074 0.0
C896 C 0.25018 0.69013 0.32654 0.0
C897 C 0.21922 0.70911 0.34308 0.0
C898 C 0.31804 0.76208 0.29099 0.0
C899 C 0.24869 0.65198 0.32961 0.0
C900 C 0.36596 0.65162 0.26844 0.0
C901 C 0.38703 0.64664 0.30645 0.0
C902 C 0.33271 0.67238 0.2684 0.0
C903 C 0.32056 0.68814 0.30733 0.0
C904 C 0.34301 0.68428 0.34508 0.0
C905 C 0.37577 0.66372 0.34408 0.0
C906 C 0.30991 0.67617 0.22729 0.0
C907 C 0.33173 0.70089 0.38724 0.0
H908 H 0.25284 0.78874 0.32533 0.0
H909 H 0.1945 0.6964 0.35726 0.0
H910 H 0.34111 0.76218 0.31578 0.0
H911 H 0.32987 0.74958 0.26176 0.0
H912 H 0.31074 0.78879 0.28303 0.0
H913 H 0.21895 0.64262 0.33595 0.0
H914 H 0.25957 0.64029 0.29942 0.0
H915 H 0.26761 0.64338 0.35634 0.0
H916 H 0.37438 0.63827 0.23943 0.0
H917 H 0.39241 0.66049 0.37341 0.0
H918 H 0.29939 0.70255 0.22329 0.0
H919 H 0.28427 0.65934 0.22871 0.0
H920 H 0.32732 0.66911 0.1985 0.0
H921 H 0.3286 0.72866 0.38278 0.0
H922 H 0.35324 0.69634 0.41314 0.0
H923 H 0.3034 0.69094 0.39829 0.0
C924 C 0.28634 0.76844 0.81655 0.0
C925 C 0.27636 0.75247 0.85548 0.0
C926 C 0.25992 0.78944 0.79486 0.0
C927 C 0.22332 0.79575 0.81362 0.0
C928 C 0.21298 0.77923 0.85265 0.0
C929 C 0.23938 0.75735 0.8726 0.0
C930 C 0.2717 0.80552 0.75264 0.0
C931 C 0.1745 0.78557 0.87427 0.0
C932 C 0.17015 0.87857 0.80431 0.0
C933 C 0.13576 0.86814 0.78451 0.0
C934 C 0.20068 0.85589 0.81066 0.0
C935 C 0.19714 0.82217 0.7957 0.0
C936 C 0.16481 0.81296 0.77029 0.0
C937 C 0.13408 0.836 0.76545 0.0
C938 C 0.2345 0.86697 0.83793 0.0
C939 C 0.16096 0.77781 0.75173 0.0
H940 H 0.31501 0.7648 0.80332 0.0
H941 H 0.23129 0.74426 0.90199 0.0
H942 H 0.24707 0.80642 0.72981 0.0
H943 H 0.28129 0.83194 0.75845 0.0
H944 H 0.29595 0.79158 0.73724 0.0
H945 H 0.17094 0.7706 0.9044 0.0
H946 H 0.17166 0.81287 0.88229 0.0
H947 H 0.15061 0.77903 0.85203 0.0
H948 H 0.17177 0.90364 0.81855 0.0
H949 H 0.10755 0.82771 0.75037 0.0
H950 H 0.26216 0.85939 0.82272 0.0
H951 H 0.23286 0.85429 0.86989 0.0
H952 H 0.23489 0.89483 0.84313 0.0
H953 H 0.18916 0.76862 0.73929 0.0
H954 H 0.13944 0.77709 0.72523 0.0
H955 H 0.15135 0.76007 0.77739 0.0
loop_
_geom_bond_atom_site_label_1
_geom_bond_atom_site_label_2
_geom_bond_distance
_geom_bond_site_symmetry_2
_ccdc_geom_bond_type
C0 N1 1.317 . S
C0 N2 1.348 . S
C0 C3 1.485 . S
N1 C0 1.317 . S
N1 N5 1.370 . S
N2 C0 1.348 . S
N2 C4 1.346 . S
C3 C0 1.485 . S
C3 H7 0.960 . S
C3 H8 0.961 . S
C3 H9 0.960 . S
C4 N2 1.346 . S
C4 N5 1.307 . S
C4 C6 1.486 . S
N5 N1 1.370 . S
N5 C4 1.307 . S
C6 C4 1.486 . S
C6 H10 0.960 . S
C6 H11 0.960 . S
C6 H12 0.959 . S
H7 C3 0.960 . S
H8 C3 0.961 . S
H9 C3 0.960 . S
H10 C6 0.960 . S
H11 C6 0.960 . S
H12 C6 0.959 . S
C13 N14 1.317 . S
C13 N15 1.348 . S
C13 C16 1.485 . S
N14 C13 1.317 . S
N14 N18 1.370 . S
N15 C13 1.348 . S
N15 C17 1.346 . S
C16 C13 1.485 . S
C16 H20 0.960 . S
C16 H21 0.961 . S
C16 H22 0.960 . S
C17 N15 1.346 . S
C17 N18 1.307 . S
C17 C19 1.486 . S
N18 N14 1.370 . S
N18 C17 1.307 . S
C19 C17 1.486 . S
C19 H23 0.960 . S
C19 H24 0.960 . S
C19 H25 0.959 . S
H20 C16 0.960 . S
H21 C16 0.961 . S
H22 C16 0.960 . S
H23 C19 0.960 . S
H24 C19 0.960 . S
H25 C19 0.959 . S
C26 N27 1.317 . S
C26 N28 1.348 . S
C26 C29 1.485 . S
N27 C26 1.317 . S
N27 N31 1.370 . S
N28 C26 1.348 . S
N28 C30 1.346 . S
C29 C26 1.485 . S
C29 H33 0.960 . S
C29 H34 0.961 . S
C29 H35 0.960 . S
C30 N28 1.346 . S
C30 N31 1.307 . S
C30 C32 1.486 . S
N31 N27 1.370 . S
N31 C30 1.307 . S
C32 C30 1.486 . S
C32 H36 0.960 . S
C32 H37 0.960 . S
C32 H38 0.959 . S
H33 C29 0.960 . S
H34 C29 0.961 . S
H35 C29 0.960 . S
H36 C32 0.960 . S
H37 C32 0.960 . S
H38 C32 0.959 . S
C39 N40 1.317 . S
C39 N41 1.348 . S
C39 C42 1.485 . S
N40 C39 1.317 . S
N40 N44 1.370 . S
N41 C39 1.348 . S
N41 C43 1.346 . S
C42 C39 1.485 . S
C42 H46 0.960 . S
C42 H47 0.961 . S
C42 H48 0.960 . S
C43 N41 1.346 . S
C43 N44 1.307 . S
C43 C45 1.486 . S
N44 N40 1.370 . S
N44 C43 1.307 . S
C45 C43 1.486 . S
C45 H49 0.960 . S
C45 H50 0.960 . S
C45 H51 0.959 . S
H46 C42 0.960 . S
H47 C42 0.961 . S
H48 C42 0.960 . S
H49 C45 0.960 . S
H50 C45 0.960 . S
H51 C45 0.959 . S
C52 N53 1.317 . S
C52 N54 1.348 . S
C52 C55 1.485 . S
N53 C52 1.317 . S
N53 N57 1.370 . S
N54 C52 1.348 . S
N54 C56 1.346 . S
C55 C52 1.485 . S
C55 H59 0.960 . S
C55 H60 0.961 . S
C55 H61 0.960 . S
C56 N54 1.346 . S
C56 N57 1.307 . S
C56 C58 1.486 . S
N57 N53 1.370 . S
N57 C56 1.307 . S
C58 C56 1.486 . S
C58 H62 0.960 . S
C58 H63 0.960 . S
C58 H64 0.959 . S
H59 C55 0.960 . S
H60 C55 0.961 . S
H61 C55 0.960 . S
H62 C58 0.960 . S
H63 C58 0.960 . S
H64 C58 0.959 . S
C65 N66 1.317 . S
C65 N67 1.348 . S
C65 C68 1.485 . S
N66 C65 1.317 . S
N66 N70 1.370 . S
N67 C65 1.348 . S
N67 C69 1.346 . S
C68 C65 1.485 . S
C68 H72 0.960 . S
C68 H73 0.961 . S
C68 H74 0.960 . S
C69 N67 1.346 . S
C69 N70 1.307 . S
C69 C71 1.486 . S
N70 N66 1.370 . S
N70 C69 1.307 . S
C71 C69 1.486 . S
C71 H75 0.960 . S
C71 H76 0.960 . S
C71 H77 0.959 . S
H72 C68 0.960 . S
H73 C68 0.961 . S
H74 C68 0.960 . S
H75 C71 0.960 . S
H76 C71 0.960 . S
H77 C71 0.959 . S
C78 N79 1.317 . S
C78 N80 1.348 . S
C78 C81 1.485 . S
N79 C78 1.317 . S
N79 N83 1.370 . S
N80 C78 1.348 . S
N80 C82 1.346 . S
C81 C78 1.485 . S
C81 H85 0.960 . S
C81 H86 0.961 . S
C81 H87 0.960 . S
C82 N80 1.346 . S
C82 N83 1.307 . S
C82 C84 1.486 . S
N83 N79 1.370 . S
N83 C82 1.307 . S
C84 C82 1.486 . S
C84 H88 0.960 . S
C84 H89 0.960 . S
C84 H90 0.959 . S
H85 C81 0.960 . S
H86 C81 0.961 . S
H87 C81 0.960 . S
H88 C84 0.960 . S
H89 C84 0.960 . S
H90 C84 0.959 . S
C91 N92 1.317 . S
C91 N93 1.348 . S
C91 C94 1.485 . S
N92 C91 1.317 . S
N92 N96 1.370 . S
N93 C91 1.348 . S
N93 C95 1.346 . S
C94 C91 1.485 . S
C94 H98 0.960 . S
C94 H99 0.961 . S
C94 H100 0.960 . S
C95 N93 1.346 . S
C95 N96 1.307 . S
C95 C97 1.486 . S
N96 N92 1.370 . S
N96 C95 1.307 . S
C97 C95 1.486 . S
C97 H101 0.960 . S
C97 H102 0.960 . S
C97 H103 0.959 . S
H98 C94 0.960 . S
H99 C94 0.961 . S
H100 C94 0.960 . S
H101 C97 0.960 . S
H102 C97 0.960 . S
H103 C97 0.959 . S
Zn104 O110 1.920 1_455 S
Zn104 O116 1.898 . S
Zn104 O119 1.905 . S
Zn105 O113 1.905 1_655 S
Zn105 O114 1.898 . S
Zn105 O122 1.920 . S
Zn106 O109 2.080 1_455 S
Zn106 O112 2.114 . S
Zn106 O115 2.120 1_455 S
Zn106 O117 2.120 . S
Zn106 O118 2.114 . S
Zn106 O121 2.080 1_455 S
C107 O112 1.166 . S
C107 O113 1.182 . S
C108 O114 1.167 . S
C108 O115 1.299 . S
O109 Zn106 2.080 1_655 S
O109 C123 1.305 . S
O110 Zn104 1.920 1_655 S
O110 C123 1.234 . S
C111 O116 1.167 . S
C111 O117 1.299 . S
O112 Zn106 2.114 . S
O112 C107 1.166 . S
O113 Zn105 1.905 1_455 S
O113 C107 1.182 . S
O114 Zn105 1.898 . S
O114 C108 1.167 . S
O115 Zn106 2.120 1_655 S
O115 C108 1.299 . S
O116 Zn104 1.898 . S
O116 C111 1.167 . S
O117 Zn106 2.120 . S
O117 C111 1.299 . S
O118 Zn106 2.114 . S
O118 C120 1.166 . S
O119 Zn104 1.905 . S
O119 C120 1.182 . S
C120 O118 1.166 . S
C120 O119 1.182 . S
O121 Zn106 2.080 1_655 S
O121 C124 1.305 . S
O122 Zn105 1.920 . S
O122 C124 1.234 . S
C123 O109 1.305 . S
C123 O110 1.234 . S
C124 O121 1.305 . S
C124 O122 1.234 . S
Zn125 O131 1.920 . S
Zn125 O137 1.898 . S
Zn125 O140 1.905 . S
Zn126 O134 1.905 . S
Zn126 O135 1.898 . S
Zn126 O143 1.920 . S
Zn127 O130 2.080 . S
Zn127 O133 2.114 . S
Zn127 O136 2.120 . S
Zn127 O138 2.120 . S
Zn127 O139 2.114 . S
Zn127 O142 2.080 . S
C128 O133 1.166 . S
C128 O134 1.182 . S
C129 O135 1.167 . S
C129 O136 1.299 . S
O130 Zn127 2.080 . S
O130 C144 1.305 . S
O131 Zn125 1.920 . S
O131 C144 1.234 . S
C132 O137 1.167 . S
C132 O138 1.299 . S
O133 Zn127 2.114 . S
O133 C128 1.166 . S
O134 Zn126 1.905 . S
O134 C128 1.182 . S
O135 Zn126 1.898 . S
O135 C129 1.167 . S
O136 Zn127 2.120 . S
O136 C129 1.299 . S
O137 Zn125 1.898 . S
O137 C132 1.167 . S
O138 Zn127 2.120 . S
O138 C132 1.299 . S
O139 Zn127 2.114 . S
O139 C141 1.166 . S
O140 Zn125 1.905 . S
O140 C141 1.182 . S
C141 O139 1.166 . S
C141 O140 1.182 . S
O142 Zn127 2.080 . S
O142 C145 1.305 . S
O143 Zn126 1.920 . S
O143 C145 1.234 . S
C144 O130 1.305 . S
C144 O131 1.234 . S
C145 O142 1.305 . S
C145 O143 1.234 . S
Zn146 O152 1.920 . S
Zn146 O158 1.898 . S
Zn146 O161 1.905 1_455 S
Zn147 O155 1.905 . S
Zn147 O156 1.898 . S
Zn147 O164 1.920 1_655 S
Zn148 O151 2.080 . S
Zn148 O154 2.114 1_455 S
Zn148 O157 2.120 1_455 S
Zn148 O159 2.120 . S
Zn148 O160 2.114 1_455 S
Zn148 O163 2.080 . S
C149 O154 1.166 . S
C149 O155 1.182 . S
C150 O156 1.167 . S
C150 O157 1.299 . S
O151 Zn148 2.080 . S
O151 C165 1.305 . S
O152 Zn146 1.920 . S
O152 C165 1.234 . S
C153 O158 1.167 . S
C153 O159 1.299 . S
O154 Zn148 2.114 1_655 S
O154 C149 1.166 . S
O155 Zn147 1.905 . S
O155 C149 1.182 . S
O156 Zn147 1.898 . S
O156 C150 1.167 . S
O157 Zn148 2.120 1_655 S
O157 C150 1.299 . S
O158 Zn146 1.898 . S
O158 C153 1.167 . S
O159 Zn148 2.120 . S
O159 C153 1.299 . S
O160 Zn148 2.114 1_655 S
O160 C162 1.166 . S
O161 Zn146 1.905 1_655 S
O161 C162 1.182 . S
C162 O160 1.166 . S
C162 O161 1.182 . S
O163 Zn148 2.080 . S
O163 C166 1.305 . S
O164 Zn147 1.920 1_455 S
O164 C166 1.234 . S
C165 O151 1.305 . S
C165 O152 1.234 . S
C166 O163 1.305 . S
C166 O164 1.234 . S
Zn167 O173 1.920 . S
Zn167 O179 1.898 . S
Zn167 O182 1.905 . S
Zn168 O176 1.905 . S
Zn168 O177 1.898 . S
Zn168 O185 1.920 . S
Zn169 O172 2.080 . S
Zn169 O175 2.114 . S
Zn169 O178 2.120 . S
Zn169 O180 2.120 . S
Zn169 O181 2.114 . S
Zn169 O184 2.080 . S
C170 O175 1.166 . S
C170 O176 1.182 . S
C171 O177 1.167 . S
C171 O178 1.299 . S
O172 Zn169 2.080 . S
O172 C186 1.305 . S
O173 Zn167 1.920 . S
O173 C186 1.234 . S
C174 O179 1.167 . S
C174 O180 1.299 . S
O175 Zn169 2.114 . S
O175 C170 1.166 . S
O176 Zn168 1.905 . S
O176 C170 1.182 . S
O177 Zn168 1.898 . S
O177 C171 1.167 . S
O178 Zn169 2.120 . S
O178 C171 1.299 . S
O179 Zn167 1.898 . S
O179 C174 1.167 . S
O180 Zn169 2.120 . S
O180 C174 1.299 . S
O181 Zn169 2.114 . S
O181 C183 1.166 . S
O182 Zn167 1.905 . S
O182 C183 1.182 . S
C183 O181 1.166 . S
C183 O182 1.182 . S
O184 Zn169 2.080 . S
O184 C187 1.305 . S
O185 Zn168 1.920 . S
O185 C187 1.234 . S
C186 O172 1.305 . S
C186 O173 1.234 . S
C187 O184 1.305 . S
C187 O185 1.234 . S
C188 C189 1.391 . S
C188 C190 1.394 . S
C188 H204 0.931 . S
C189 C188 1.391 . S
C189 C193 1.376 . S
C190 C188 1.394 . S
C190 C191 1.369 . S
C190 C194 1.531 . S
C191 C190 1.369 . S
C191 C192 1.410 . S
C191 C199 1.503 . S
C192 C191 1.410 . S
C192 C193 1.392 . S
C192 C195 1.511 . S
C193 C189 1.376 . S
C193 C192 1.392 . S
C193 H205 0.929 . S
C194 C190 1.531 . S
C194 H206 0.960 . S
C194 H207 0.962 . S
C194 H208 0.960 . S
C195 C192 1.511 . S
C195 H209 0.961 . S
C195 H210 0.961 . S
C195 H211 0.961 . S
C196 C197 1.370 . S
C196 C198 1.363 1_545 S
C196 H212 0.931 . S
C197 C196 1.370 . S
C197 C201 1.408 . S
C198 C196 1.363 1_565 S
C198 C199 1.370 . S
C198 C202 1.524 . S
C199 C191 1.503 . S
C199 C198 1.370 . S
C199 C200 1.403 . S
C200 C199 1.403 . S
C200 C201 1.404 1_565 S
C200 C203 1.539 . S
C201 C197 1.408 . S
C201 C200 1.404 1_545 S
C201 H213 0.930 . S
C202 C198 1.524 . S
C202 H214 0.956 . S
C202 H215 0.961 . S
C202 H216 0.961 . S
C203 C200 1.539 . S
C203 H217 0.958 . S
C203 H218 0.961 . S
C203 H219 0.960 . S
H204 C188 0.931 . S
H205 C193 0.929 . S
H206 C194 0.960 . S
H207 C194 0.962 . S
H208 C194 0.960 . S
H209 C195 0.961 . S
H210 C195 0.961 . S
H211 C195 0.961 . S
H212 C196 0.931 . S
H213 C201 0.930 . S
H214 C202 0.956 . S
H215 C202 0.961 . S
H216 C202 0.961 . S
H217 C203 0.958 . S
H218 C203 0.961 . S
H219 C203 0.960 . S
C220 C221 1.391 . S
C220 C222 1.394 . S
C220 H236 0.931 . S
C221 C220 1.391 . S
C221 C225 1.376 . S
C222 C220 1.394 . S
C222 C223 1.369 . S
C222 C226 1.531 . S
C223 C222 1.369 . S
C223 C224 1.410 . S
C223 C231 1.503 . S
C224 C223 1.410 . S
C224 C225 1.392 . S
C224 C227 1.511 . S
C225 C221 1.376 . S
C225 C224 1.392 . S
C225 H237 0.929 . S
C226 C222 1.531 . S
C226 H238 0.960 . S
C226 H239 0.962 . S
C226 H240 0.960 . S
C227 C224 1.511 . S
C227 H241 0.961 . S
C227 H242 0.961 . S
C227 H243 0.961 . S
C228 C229 1.370 . S
C228 C230 1.363 . S
C228 H244 0.931 . S
C229 C228 1.370 . S
C229 C233 1.408 . S
C230 C228 1.363 . S
C230 C231 1.370 . S
C230 C234 1.524 . S
C231 C223 1.503 . S
C231 C230 1.370 . S
C231 C232 1.403 . S
C232 C231 1.403 . S
C232 C233 1.404 . S
C232 C235 1.539 . S
C233 C229 1.408 . S
C233 C232 1.404 . S
C233 H245 0.930 . S
C234 C230 1.524 . S
C234 H246 0.956 . S
C234 H247 0.961 . S
C234 H248 0.961 . S
C235 C232 1.539 . S
C235 H249 0.958 . S
C235 H250 0.961 . S
C235 H251 0.960 . S
H236 C220 0.931 . S
H237 C225 0.929 . S
H238 C226 0.960 . S
H239 C226 0.962 . S
H240 C226 0.960 . S
H241 C227 0.961 . S
H242 C227 0.961 . S
H243 C227 0.961 . S
H244 C228 0.931 . S
H245 C233 0.930 . S
H246 C234 0.956 . S
H247 C234 0.961 . S
H248 C234 0.961 . S
H249 C235 0.958 . S
H250 C235 0.961 . S
H251 C235 0.960 . S
C252 C253 1.391 . S
C252 C254 1.394 . S
C252 H268 0.931 . S
C253 C252 1.391 . S
C253 C257 1.376 . S
C254 C252 1.394 . S
C254 C255 1.369 . S
C254 C258 1.531 . S
C255 C254 1.369 . S
C255 C256 1.410 . S
C255 C263 1.503 . S
C256 C255 1.410 . S
C256 C257 1.392 . S
C256 C259 1.511 . S
C257 C253 1.376 . S
C257 C256 1.392 . S
C257 H269 0.929 . S
C258 C254 1.531 . S
C258 H270 0.960 . S
C258 H271 0.962 . S
C258 H272 0.960 . S
C259 C256 1.511 . S
C259 H273 0.961 . S
C259 H274 0.961 . S
C259 H275 0.961 . S
C260 C261 1.370 . S
C260 C262 1.363 . S
C260 H276 0.931 . S
C261 C260 1.370 . S
C261 C265 1.408 . S
C262 C260 1.363 . S
C262 C263 1.370 . S
C262 C266 1.524 . S
C263 C255 1.503 . S
C263 C262 1.370 . S
C263 C264 1.403 . S
C264 C263 1.403 . S
C264 C265 1.404 . S
C264 C267 1.539 . S
C265 C261 1.408 . S
C265 C264 1.404 . S
C265 H277 0.930 . S
C266 C262 1.524 . S
C266 H278 0.956 . S
C266 H279 0.961 . S
C266 H280 0.961 . S
C267 C264 1.539 . S
C267 H281 0.958 . S
C267 H282 0.961 . S
C267 H283 0.960 . S
H268 C252 0.931 . S
H269 C257 0.929 . S
H270 C258 0.960 . S
H271 C258 0.962 . S
H272 C258 0.960 . S
H273 C259 0.961 . S
H274 C259 0.961 . S
H275 C259 0.961 . S
H276 C260 0.931 . S
H277 C265 0.930 . S
H278 C266 0.956 . S
H279 C266 0.961 . S
H280 C266 0.961 . S
H281 C267 0.958 . S
H282 C267 0.961 . S
H283 C267 0.960 . S
C284 C285 1.391 . S
C284 C286 1.394 . S
C284 H300 0.931 . S
C285 C284 1.391 . S
C285 C289 1.376 . S
C286 C284 1.394 . S
C286 C287 1.369 . S
C286 C290 1.531 . S
C287 C286 1.369 . S
C287 C288 1.410 . S
C287 C295 1.503 . S
C288 C287 1.410 . S
C288 C289 1.392 . S
C288 C291 1.511 . S
C289 C285 1.376 . S
C289 C288 1.392 . S
C289 H301 0.929 . S
C290 C286 1.531 . S
C290 H302 0.960 . S
C290 H303 0.962 . S
C290 H304 0.960 . S
C291 C288 1.511 . S
C291 H305 0.961 . S
C291 H306 0.961 . S
C291 H307 0.961 . S
C292 C293 1.370 1_565 S
C292 C294 1.363 . S
C292 H308 0.931 . S
C293 C292 1.370 1_545 S
C293 C297 1.408 . S
C294 C292 1.363 . S
C294 C295 1.370 . S
C294 C298 1.524 . S
C295 C287 1.503 . S
C295 C294 1.370 . S
C295 C296 1.403 . S
C296 C295 1.403 . S
C296 C297 1.404 1_565 S
C296 C299 1.537 1_565 S
C297 C293 1.408 . S
C297 C296 1.404 1_545 S
C297 H309 0.930 . S
C298 C294 1.524 . S
C298 H310 0.956 . S
C298 H311 0.961 . S
C298 H312 0.961 . S
C299 C296 1.537 1_545 S
C299 H313 0.954 1_545 S
C299 H314 0.985 . S
C299 H315 0.943 1_545 S
H300 C284 0.931 . S
H301 C289 0.929 . S
H302 C290 0.960 . S
H303 C290 0.962 . S
H304 C290 0.960 . S
H305 C291 0.961 . S
H306 C291 0.961 . S
H307 C291 0.961 . S
H308 C292 0.931 . S
H309 C297 0.930 . S
H310 C298 0.956 . S
H311 C298 0.961 . S
H312 C298 0.961 . S
H313 C299 0.954 1_565 S
H314 C299 0.985 . S
H315 C299 0.943 1_565 S
C316 C317 1.391 . S
C316 C318 1.394 . S
C316 H332 0.931 . S
C317 C316 1.391 . S
C317 C321 1.376 . S
C318 C316 1.394 . S
C318 C319 1.369 . S
C318 C322 1.531 . S
C319 C318 1.369 . S
C319 C320 1.410 . S
C319 C327 1.503 . S
C320 C319 1.410 . S
C320 C321 1.392 . S
C320 C323 1.511 . S
C321 C317 1.376 . S
C321 C320 1.392 . S
C321 H333 0.929 . S
C322 C318 1.531 . S
C322 H334 0.960 . S
C322 H335 0.962 . S
C322 H336 0.960 . S
C323 C320 1.511 . S
C323 H337 0.961 . S
C323 H338 0.961 . S
C323 H339 0.961 . S
C324 C325 1.370 . S
C324 C326 1.363 1_565 S
C324 H340 0.931 . S
C325 C324 1.370 . S
C325 C329 1.408 . S
C326 C324 1.363 1_545 S
C326 C327 1.370 . S
C326 C330 1.524 . S
C327 C319 1.503 . S
C327 C326 1.370 . S
C327 C328 1.403 . S
C328 C327 1.403 . S
C328 C329 1.404 1_545 S
C328 C331 1.539 . S
C329 C325 1.408 . S
C329 C328 1.404 1_565 S
C329 H341 0.930 . S
C330 C326 1.524 . S
C330 H342 0.956 . S
C330 H343 0.961 . S
C330 H344 0.961 . S
C331 C328 1.539 . S
C331 H345 0.958 . S
C331 H346 0.961 . S
C331 H347 0.960 . S
H332 C316 0.931 . S
H333 C321 0.929 . S
H334 C322 0.960 . S
H335 C322 0.962 . S
H336 C322 0.960 . S
H337 C323 0.961 . S
H338 C323 0.961 . S
H339 C323 0.961 . S
H340 C324 0.931 . S
H341 C329 0.930 . S
H342 C330 0.956 . S
H343 C330 0.961 . S
H344 C330 0.961 . S
H345 C331 0.958 . S
H346 C331 0.961 . S
H347 C331 0.960 . S
C348 C349 1.391 . S
C348 C350 1.394 . S
C348 H364 0.931 . S
C349 C348 1.391 . S
C349 C353 1.376 . S
C350 C348 1.394 . S
C350 C351 1.369 . S
C350 C354 1.531 . S
C351 C350 1.369 . S
C351 C352 1.410 . S
C351 C359 1.503 . S
C352 C351 1.410 . S
C352 C353 1.392 . S
C352 C355 1.511 . S
C353 C349 1.376 . S
C353 C352 1.392 . S
C353 H365 0.929 . S
C354 C350 1.531 . S
C354 H366 0.960 . S
C354 H367 0.962 . S
C354 H368 0.960 . S
C355 C352 1.511 . S
C355 H369 0.961 . S
C355 H370 0.961 . S
C355 H371 0.961 . S
C356 C357 1.370 . S
C356 C358 1.363 . S
C356 H372 0.931 . S
C357 C356 1.370 . S
C357 C361 1.408 . S
C358 C356 1.363 . S
C358 C359 1.370 . S
C358 C362 1.524 . S
C359 C351 1.503 . S
C359 C358 1.370 . S
C359 C360 1.403 . S
C360 C359 1.403 . S
C360 C361 1.404 . S
C360 C363 1.539 . S
C361 C357 1.408 . S
C361 C360 1.404 . S
C361 H373 0.930 . S
C362 C358 1.524 . S
C362 H374 0.956 . S
C362 H375 0.961 . S
C362 H376 0.961 . S
C363 C360 1.539 . S
C363 H377 0.958 . S
C363 H378 0.961 . S
C363 H379 0.960 . S
H364 C348 0.931 . S
H365 C353 0.929 . S
H366 C354 0.960 . S
H367 C354 0.962 . S
H368 C354 0.960 . S
H369 C355 0.961 . S
H370 C355 0.961 . S
H371 C355 0.961 . S
H372 C356 0.931 . S
H373 C361 0.930 . S
H374 C362 0.956 . S
H375 C362 0.961 . S
H376 C362 0.961 . S
H377 C363 0.958 . S
H378 C363 0.961 . S
H379 C363 0.960 . S
C380 C381 1.391 . S
C380 C382 1.394 . S
C380 H396 0.931 . S
C381 C380 1.391 . S
C381 C385 1.376 . S
C382 C380 1.394 . S
C382 C383 1.369 . S
C382 C386 1.531 . S
C383 C382 1.369 . S
C383 C384 1.410 . S
C383 C391 1.503 . S
C384 C383 1.410 . S
C384 C385 1.392 . S
C384 C387 1.511 . S
C385 C381 1.376 . S
C385 C384 1.392 . S
C385 H397 0.929 . S
C386 C382 1.531 . S
C386 H398 0.960 . S
C386 H399 0.962 . S
C386 H400 0.960 . S
C387 C384 1.511 . S
C387 H401 0.961 . S
C387 H402 0.961 . S
C387 H403 0.961 . S
C388 C389 1.370 . S
C388 C390 1.363 . S
C388 H404 0.931 . S
C389 C388 1.370 . S
C389 C393 1.408 . S
C390 C388 1.363 . S
C390 C391 1.370 . S
C390 C394 1.524 . S
C391 C383 1.503 . S
C391 C390 1.370 . S
C391 C392 1.403 . S
C392 C391 1.403 . S
C392 C393 1.404 . S
C392 C395 1.539 . S
C393 C389 1.408 . S
C393 C392 1.404 . S
C393 H405 0.930 . S
C394 C390 1.524 . S
C394 H406 0.956 . S
C394 H407 0.961 . S
C394 H408 0.961 . S
C395 C392 1.539 . S
C395 H409 0.958 . S
C395 H410 0.961 . S
C395 H411 0.960 . S
H396 C380 0.931 . S
H397 C385 0.929 . S
H398 C386 0.960 . S
H399 C386 0.962 . S
H400 C386 0.960 . S
H401 C387 0.961 . S
H402 C387 0.961 . S
H403 C387 0.961 . S
H404 C388 0.931 . S
H405 C393 0.930 . S
H406 C394 0.956 . S
H407 C394 0.961 . S
H408 C394 0.961 . S
H409 C395 0.958 . S
H410 C395 0.961 . S
H411 C395 0.960 . S
C412 C413 1.391 . S
C412 C414 1.394 . S
C412 H428 0.931 . S
C413 C412 1.391 . S
C413 C417 1.376 . S
C414 C412 1.394 . S
C414 C415 1.369 . S
C414 C418 1.531 . S
C415 C414 1.369 . S
C415 C416 1.410 . S
C415 C423 1.503 . S
C416 C415 1.410 . S
C416 C417 1.392 . S
C416 C419 1.511 . S
C417 C413 1.376 . S
C417 C416 1.392 . S
C417 H429 0.929 . S
C418 C414 1.531 . S
C418 H430 0.960 . S
C418 H431 0.962 . S
C418 H432 0.960 . S
C419 C416 1.511 . S
C419 H433 0.961 . S
C419 H434 0.961 . S
C419 H435 0.961 . S
C420 C421 1.370 . S
C420 C422 1.363 1_565 S
C420 H436 0.931 . S
C421 C420 1.370 . S
C421 C425 1.404 1_565 S
C422 C420 1.363 1_545 S
C422 C423 1.370 . S
C422 C426 1.524 . S
C423 C415 1.503 . S
C423 C422 1.370 . S
C423 C424 1.403 . S
C424 C423 1.403 . S
C424 C425 1.410 . S
C424 C427 1.539 . S
C425 C421 1.404 1_545 S
C425 C424 1.410 . S
C425 H437 0.928 1_545 S
C426 C422 1.524 . S
C426 H438 0.956 . S
C426 H439 0.961 . S
C426 H440 0.961 . S
C427 C424 1.539 . S
C427 H441 0.958 . S
C427 H442 0.961 . S
C427 H443 0.960 . S
H428 C412 0.931 . S
H429 C417 0.929 . S
H430 C418 0.960 . S
H431 C418 0.962 . S
H432 C418 0.960 . S
H433 C419 0.961 . S
H434 C419 0.961 . S
H435 C419 0.961 . S
H436 C420 0.931 . S
H437 C425 0.928 1_565 S
H438 C426 0.956 . S
H439 C426 0.961 . S
H440 C426 0.961 . S
H441 C427 0.958 . S
H442 C427 0.961 . S
H443 C427 0.960 . S
C444 C445 1.391 . S
C444 C446 1.394 . S
C444 H460 0.931 . S
C445 C444 1.391 . S
C445 C449 1.376 . S
C446 C444 1.394 . S
C446 C447 1.369 1_556 S
C446 C450 1.531 1_556 S
C447 C446 1.369 1_554 S
C447 C448 1.410 . S
C447 C455 1.503 . S
C448 C447 1.410 . S
C448 C449 1.392 1_554 S
C448 C451 1.511 . S
C449 C445 1.376 . S
C449 C448 1.392 1_556 S
C449 H461 0.929 . S
C450 C446 1.531 1_554 S
C450 H462 0.960 . S
C450 H463 0.962 1_554 S
C450 H464 0.960 1_554 S
C451 C448 1.511 . S
C451 H465 0.961 . S
C451 H466 0.961 . S
C451 H467 0.961 . S
C452 C453 1.370 . S
C452 C454 1.363 . S
C452 H468 0.931 . S
C453 C452 1.370 . S
C453 C457 1.408 . S
C454 C452 1.363 . S
C454 C455 1.370 . S
C454 C458 1.524 . S
C455 C447 1.503 . S
C455 C454 1.370 . S
C455 C456 1.403 . S
C456 C455 1.403 . S
C456 C457 1.404 . S
C456 C459 1.539 . S
C457 C453 1.408 . S
C457 C456 1.404 . S
C457 H469 0.930 . S
C458 C454 1.524 . S
C458 H470 0.956 . S
C458 H471 0.961 . S
C458 H472 0.961 . S
C459 C456 1.539 . S
C459 H473 0.958 . S
C459 H474 0.961 . S
C459 H475 0.960 . S
H460 C444 0.931 . S
H461 C449 0.929 . S
H462 C450 0.960 . S
H463 C450 0.962 1_556 S
H464 C450 0.960 1_556 S
H465 C451 0.961 . S
H466 C451 0.961 . S
H467 C451 0.961 . S
H468 C452 0.931 . S
H469 C457 0.930 . S
H470 C458 0.956 . S
H471 C458 0.961 . S
H472 C458 0.961 . S
H473 C459 0.958 . S
H474 C459 0.961 . S
H475 C459 0.960 . S
C476 C477 1.391 . S
C476 C478 1.394 . S
C476 H492 0.931 . S
C477 C476 1.391 . S
C477 C481 1.376 . S
C478 C476 1.394 . S
C478 C479 1.369 . S
C478 C482 1.531 . S
C479 C478 1.369 . S
C479 C480 1.410 . S
C479 C487 1.503 . S
C480 C479 1.410 . S
C480 C481 1.392 . S
C480 C483 1.511 . S
C481 C477 1.376 . S
C481 C480 1.392 . S
C481 H493 0.929 . S
C482 C478 1.531 . S
C482 H494 0.960 . S
C482 H495 0.962 . S
C482 H496 0.960 . S
C483 C480 1.511 . S
C483 H497 0.961 . S
C483 H498 0.961 . S
C483 H499 0.961 . S
C484 C485 1.370 . S
C484 C486 1.363 . S
C484 H500 0.931 . S
C485 C484 1.370 . S
C485 C489 1.408 . S
C486 C484 1.363 . S
C486 C487 1.370 . S
C486 C490 1.524 . S
C487 C479 1.503 . S
C487 C486 1.370 . S
C487 C488 1.403 . S
C488 C487 1.403 . S
C488 C489 1.404 . S
C488 C491 1.539 . S
C489 C485 1.408 . S
C489 C488 1.404 . S
C489 H501 0.930 . S
C490 C486 1.524 . S
C490 H502 0.956 . S
C490 H503 0.961 . S
C490 H504 0.961 . S
C491 C488 1.539 . S
C491 H505 0.958 . S
C491 H506 0.961 . S
C491 H507 0.960 . S
H492 C476 0.931 . S
H493 C481 0.929 . S
H494 C482 0.960 . S
H495 C482 0.962 . S
H496 C482 0.960 . S
H497 C483 0.961 . S
H498 C483 0.961 . S
H499 C483 0.961 . S
H500 C484 0.931 . S
H501 C489 0.930 . S
H502 C490 0.956 . S
H503 C490 0.961 . S
H504 C490 0.961 . S
H505 C491 0.958 . S
H506 C491 0.961 . S
H507 C491 0.960 . S
C508 C509 1.391 . S
C508 C510 1.394 . S
C508 H524 0.931 . S
C509 C508 1.391 . S
C509 C513 1.376 . S
C510 C508 1.394 . S
C510 C511 1.369 1_554 S
C510 C514 1.531 . S
C511 C510 1.369 1_556 S
C511 C512 1.410 . S
C511 C519 1.503 . S
C512 C511 1.410 . S
C512 C513 1.392 1_556 S
C512 C515 1.511 . S
C513 C509 1.376 . S
C513 C512 1.392 1_554 S
C513 H525 0.929 . S
C514 C510 1.531 . S
C514 H526 0.960 1_554 S
C514 H527 0.962 . S
C514 H528 0.960 . S
C515 C512 1.511 . S
C515 H529 0.961 . S
C515 H530 0.961 . S
C515 H531 0.961 . S
C516 C517 1.370 . S
C516 C518 1.363 . S
C516 H532 0.931 . S
C517 C516 1.370 . S
C517 C521 1.408 . S
C518 C516 1.363 . S
C518 C519 1.370 . S
C518 C522 1.524 . S
C519 C511 1.503 . S
C519 C518 1.370 . S
C519 C520 1.403 . S
C520 C519 1.403 . S
C520 C521 1.404 . S
C520 C523 1.539 . S
C521 C517 1.408 . S
C521 C520 1.404 . S
C521 H533 0.930 . S
C522 C518 1.524 . S
C522 H534 0.956 . S
C522 H535 0.961 . S
C522 H536 0.961 . S
C523 C520 1.539 . S
C523 H537 0.958 . S
C523 H538 0.961 . S
C523 H539 0.960 . S
H524 C508 0.931 . S
H525 C513 0.929 . S
H526 C514 0.960 1_556 S
H527 C514 0.962 . S
H528 C514 0.960 . S
H529 C515 0.961 . S
H530 C515 0.961 . S
H531 C515 0.961 . S
H532 C516 0.931 . S
H533 C521 0.930 . S
H534 C522 0.956 . S
H535 C522 0.961 . S
H536 C522 0.961 . S
H537 C523 0.958 . S
H538 C523 0.961 . S
H539 C523 0.960 . S
C540 C541 1.391 . S
C540 C542 1.394 . S
C540 H556 0.931 . S
C541 C540 1.391 . S
C541 C545 1.376 . S
C542 C540 1.394 . S
C542 C543 1.369 . S
C542 C546 1.531 . S
C543 C542 1.369 . S
C543 C544 1.410 . S
C543 C551 1.503 . S
C544 C543 1.410 . S
C544 C545 1.392 . S
C544 C547 1.511 . S
C545 C541 1.376 . S
C545 C544 1.392 . S
C545 H557 0.929 . S
C546 C542 1.531 . S
C546 H558 0.960 . S
C546 H559 0.962 . S
C546 H560 0.960 . S
C547 C544 1.511 . S
C547 H561 0.961 . S
C547 H562 0.961 . S
C547 H563 0.961 . S
C548 C549 1.370 . S
C548 C550 1.363 . S
C548 H564 0.931 . S
C549 C548 1.370 . S
C549 C553 1.408 . S
C550 C548 1.363 . S
C550 C551 1.370 . S
C550 C554 1.524 . S
C551 C543 1.503 . S
C551 C550 1.370 . S
C551 C552 1.403 . S
C552 C551 1.403 . S
C552 C553 1.404 . S
C552 C555 1.539 . S
C553 C549 1.408 . S
C553 C552 1.404 . S
C553 H565 0.930 . S
C554 C550 1.524 . S
C554 H566 0.956 . S
C554 H567 0.961 . S
C554 H568 0.961 . S
C555 C552 1.539 . S
C555 H569 0.958 . S
C555 H570 0.961 . S
C555 H571 0.960 . S
H556 C540 0.931 . S
H557 C545 0.929 . S
H558 C546 0.960 . S
H559 C546 0.962 . S
H560 C546 0.960 . S
H561 C547 0.961 . S
H562 C547 0.961 . S
H563 C547 0.961 . S
H564 C548 0.931 . S
H565 C553 0.930 . S
H566 C554 0.956 . S
H567 C554 0.961 . S
H568 C554 0.961 . S
H569 C555 0.958 . S
H570 C555 0.961 . S
H571 C555 0.960 . S
C572 C573 1.391 . S
C572 C574 1.394 1_554 S
C572 H588 0.931 . S
C573 C572 1.391 . S
C573 C577 1.376 . S
C574 C572 1.394 1_556 S
C574 C575 1.369 . S
C574 C578 1.531 . S
C575 C574 1.369 . S
C575 C576 1.410 . S
C575 C583 1.503 . S
C576 C575 1.410 . S
C576 C577 1.392 1_556 S
C576 C579 1.511 . S
C577 C573 1.376 . S
C577 C576 1.392 1_554 S
C577 H589 0.929 . S
C578 C574 1.531 . S
C578 H590 0.960 . S
C578 H591 0.962 . S
C578 H592 0.960 . S
C579 C576 1.511 . S
C579 H593 0.961 . S
C579 H594 0.961 . S
C579 H595 0.961 . S
C580 C581 1.370 . S
C580 C582 1.363 . S
C580 H596 0.931 . S
C581 C580 1.370 . S
C581 C585 1.408 . S
C582 C580 1.363 . S
C582 C583 1.370 . S
C582 C586 1.524 . S
C583 C575 1.503 . S
C583 C582 1.370 . S
C583 C584 1.403 . S
C584 C583 1.403 . S
C584 C585 1.404 . S
C584 C587 1.539 . S
C585 C581 1.408 . S
C585 C584 1.404 . S
C585 H597 0.930 . S
C586 C582 1.524 . S
C586 H598 0.956 . S
C586 H599 0.961 . S
C586 H600 0.961 . S
C587 C584 1.539 . S
C587 H601 0.958 . S
C587 H602 0.961 . S
C587 H603 0.960 . S
H588 C572 0.931 . S
H589 C577 0.929 . S
H590 C578 0.960 . S
H591 C578 0.962 . S
H592 C578 0.960 . S
H593 C579 0.961 . S
H594 C579 0.961 . S
H595 C579 0.961 . S
H596 C580 0.931 . S
H597 C585 0.930 . S
H598 C586 0.956 . S
H599 C586 0.961 . S
H600 C586 0.961 . S
H601 C587 0.958 . S
H602 C587 0.961 . S
H603 C587 0.960 . S
C604 C605 1.391 . S
C604 C606 1.394 . S
C604 H620 0.931 . S
C605 C604 1.391 . S
C605 C609 1.376 . S
C606 C604 1.394 . S
C606 C607 1.369 . S
C606 C610 1.531 . S
C607 C606 1.369 . S
C607 C608 1.410 . S
C607 C615 1.503 . S
C608 C607 1.410 . S
C608 C609 1.392 . S
C608 C611 1.511 . S
C609 C605 1.376 . S
C609 C608 1.392 . S
C609 H621 0.929 . S
C610 C606 1.531 . S
C610 H622 0.960 . S
C610 H623 0.962 . S
C610 H624 0.960 . S
C611 C608 1.511 . S
C611 H625 0.961 . S
C611 H626 0.961 . S
C611 H627 0.961 . S
C612 C613 1.370 . S
C612 C614 1.363 . S
C612 H628 0.931 . S
C613 C612 1.370 . S
C613 C617 1.408 . S
C614 C612 1.363 . S
C614 C615 1.370 . S
C614 C618 1.524 . S
C615 C607 1.503 . S
C615 C614 1.370 . S
C615 C616 1.403 . S
C616 C615 1.403 . S
C616 C617 1.404 . S
C616 C619 1.539 . S
C617 C613 1.408 . S
C617 C616 1.404 . S
C617 H629 0.930 . S
C618 C614 1.524 . S
C618 H630 0.956 . S
C618 H631 0.961 . S
C618 H632 0.961 . S
C619 C616 1.539 . S
C619 H633 0.958 . S
C619 H634 0.961 . S
C619 H635 0.960 . S
H620 C604 0.931 . S
H621 C609 0.929 . S
H622 C610 0.960 . S
H623 C610 0.962 . S
H624 C610 0.960 . S
H625 C611 0.961 . S
H626 C611 0.961 . S
H627 C611 0.961 . S
H628 C612 0.931 . S
H629 C617 0.930 . S
H630 C618 0.956 . S
H631 C618 0.961 . S
H632 C618 0.961 . S
H633 C619 0.958 . S
H634 C619 0.961 . S
H635 C619 0.960 . S
C636 C637 1.391 . S
C636 C638 1.408 . S
C636 H652 0.931 . S
C637 C636 1.391 . S
C637 C641 1.376 . S
C638 C636 1.408 . S
C638 C639 1.359 1_556 S
C638 C642 1.526 1_556 S
C639 C638 1.359 1_554 S
C639 C640 1.410 . S
C639 C647 1.503 . S
C640 C639 1.410 . S
C640 C641 1.392 1_554 S
C640 C643 1.511 . S
C641 C637 1.376 . S
C641 C640 1.392 1_556 S
C641 H653 0.929 . S
C642 C638 1.526 1_554 S
C642 H654 0.960 . S
C642 H655 0.962 . S
C642 H656 0.960 . S
C643 C640 1.511 . S
C643 H657 0.961 . S
C643 H658 0.961 . S
C643 H659 0.961 . S
C644 C645 1.370 . S
C644 C646 1.363 . S
C644 H660 0.931 . S
C645 C644 1.370 . S
C645 C649 1.408 . S
C646 C644 1.363 . S
C646 C647 1.370 . S
C646 C650 1.524 . S
C647 C639 1.503 . S
C647 C646 1.370 . S
C647 C648 1.403 . S
C648 C647 1.403 . S
C648 C649 1.404 . S
C648 C651 1.539 . S
C649 C645 1.408 . S
C649 C648 1.404 . S
C649 H661 0.930 . S
C650 C646 1.524 . S
C650 H662 0.956 . S
C650 H663 0.961 . S
C650 H664 0.961 . S
C651 C648 1.539 . S
C651 H665 0.958 . S
C651 H666 0.961 . S
C651 H667 0.960 . S
H652 C636 0.931 . S
H653 C641 0.929 . S
H654 C642 0.960 . S
H655 C642 0.962 . S
H656 C642 0.960 . S
H657 C643 0.961 . S
H658 C643 0.961 . S
H659 C643 0.961 . S
H660 C644 0.931 . S
H661 C649 0.930 . S
H662 C650 0.956 . S
H663 C650 0.961 . S
H664 C650 0.961 . S
H665 C651 0.958 . S
H666 C651 0.961 . S
H667 C651 0.960 . S
C668 C669 1.391 . S
C668 C670 1.394 . S
C668 H684 0.931 . S
C669 C668 1.391 . S
C669 C673 1.376 . S
C670 C668 1.394 . S
C670 C671 1.369 . S
C670 C674 1.531 . S
C671 C670 1.369 . S
C671 C672 1.410 . S
C671 C679 1.503 . S
C672 C671 1.410 . S
C672 C673 1.392 . S
C672 C675 1.511 . S
C673 C669 1.376 . S
C673 C672 1.392 . S
C673 H685 0.929 . S
C674 C670 1.531 . S
C674 H686 0.960 . S
C674 H687 0.962 . S
C674 H688 0.960 . S
C675 C672 1.511 . S
C675 H689 0.961 . S
C675 H690 0.961 . S
C675 H691 0.961 . S
C676 C677 1.370 . S
C676 C678 1.363 . S
C676 H692 0.931 . S
C677 C676 1.370 . S
C677 C681 1.408 . S
C678 C676 1.363 . S
C678 C679 1.370 . S
C678 C682 1.524 . S
C679 C671 1.503 . S
C679 C678 1.370 . S
C679 C680 1.403 . S
C680 C679 1.403 . S
C680 C681 1.404 . S
C680 C683 1.539 . S
C681 C677 1.408 . S
C681 C680 1.404 . S
C681 H693 0.930 . S
C682 C678 1.524 . S
C682 H694 0.956 . S
C682 H695 0.961 . S
C682 H696 0.961 . S
C683 C680 1.539 . S
C683 H697 0.958 . S
C683 H698 0.961 . S
C683 H699 0.960 . S
H684 C668 0.931 . S
H685 C673 0.929 . S
H686 C674 0.960 . S
H687 C674 0.962 . S
H688 C674 0.960 . S
H689 C675 0.961 . S
H690 C675 0.961 . S
H691 C675 0.961 . S
H692 C676 0.931 . S
H693 C681 0.930 . S
H694 C682 0.956 . S
H695 C682 0.961 . S
H696 C682 0.961 . S
H697 C683 0.958 . S
H698 C683 0.961 . S
H699 C683 0.960 . S
C700 C701 1.391 . S
C700 C702 1.394 . S
C700 H716 0.931 . S
C701 C700 1.391 . S
C701 C705 1.376 . S
C702 C700 1.394 . S
C702 C703 1.369 . S
C702 C706 1.531 . S
C703 C702 1.369 . S
C703 C704 1.410 . S
C703 C711 1.503 . S
C704 C703 1.410 . S
C704 C705 1.392 . S
C704 C707 1.511 . S
C705 C701 1.376 . S
C705 C704 1.392 . S
C705 H717 0.929 . S
C706 C702 1.531 . S
C706 H718 0.960 . S
C706 H719 0.962 . S
C706 H720 0.960 . S
C707 C704 1.511 . S
C707 H721 0.961 . S
C707 H722 0.961 . S
C707 H723 0.961 . S
C708 C709 1.370 . S
C708 C710 1.363 . S
C708 H724 0.931 . S
C709 C708 1.370 . S
C709 C713 1.408 . S
C710 C708 1.363 . S
C710 C711 1.370 . S
C710 C714 1.524 . S
C711 C703 1.503 . S
C711 C710 1.370 . S
C711 C712 1.403 . S
C712 C711 1.403 . S
C712 C713 1.404 . S
C712 C715 1.539 . S
C713 C709 1.408 . S
C713 C712 1.404 . S
C713 H725 0.930 . S
C714 C710 1.524 . S
C714 H726 0.956 . S
C714 H727 0.961 . S
C714 H728 0.961 . S
C715 C712 1.539 . S
C715 H729 0.958 . S
C715 H730 0.961 . S
C715 H731 0.960 . S
H716 C700 0.931 . S
H717 C705 0.929 . S
H718 C706 0.960 . S
H719 C706 0.962 . S
H720 C706 0.960 . S
H721 C707 0.961 . S
H722 C707 0.961 . S
H723 C707 0.961 . S
H724 C708 0.931 . S
H725 C713 0.930 . S
H726 C714 0.956 . S
H727 C714 0.961 . S
H728 C714 0.961 . S
H729 C715 0.958 . S
H730 C715 0.961 . S
H731 C715 0.960 . S
C732 C733 1.391 . S
C732 C734 1.394 . S
C732 H748 0.931 . S
C733 C732 1.391 . S
C733 C737 1.376 . S
C734 C732 1.394 . S
C734 C735 1.369 . S
C734 C738 1.531 . S
C735 C734 1.369 . S
C735 C736 1.410 . S
C735 C743 1.503 . S
C736 C735 1.410 . S
C736 C737 1.392 . S
C736 C739 1.511 . S
C737 C733 1.376 . S
C737 C736 1.392 . S
C737 H749 0.929 . S
C738 C734 1.531 . S
C738 H750 0.960 . S
C738 H751 0.962 . S
C738 H752 0.960 . S
C739 C736 1.511 . S
C739 H753 0.961 . S
C739 H754 0.961 . S
C739 H755 0.961 . S
C740 C741 1.370 . S
C740 C742 1.363 . S
C740 H756 0.931 . S
C741 C740 1.370 . S
C741 C745 1.408 . S
C742 C740 1.363 . S
C742 C743 1.370 . S
C742 C746 1.524 . S
C743 C735 1.503 . S
C743 C742 1.370 . S
C743 C744 1.403 . S
C744 C743 1.403 . S
C744 C745 1.404 . S
C744 C747 1.539 . S
C745 C741 1.408 . S
C745 C744 1.404 . S
C745 H757 0.930 . S
C746 C742 1.524 . S
C746 H758 0.956 . S
C746 H759 0.961 . S
C746 H760 0.961 . S
C747 C744 1.539 . S
C747 H761 0.958 . S
C747 H762 0.961 . S
C747 H763 0.960 . S
H748 C732 0.931 . S
H749 C737 0.929 . S
H750 C738 0.960 . S
H751 C738 0.962 . S
H752 C738 0.960 . S
H753 C739 0.961 . S
H754 C739 0.961 . S
H755 C739 0.961 . S
H756 C740 0.931 . S
H757 C745 0.930 . S
H758 C746 0.956 . S
H759 C746 0.961 . S
H760 C746 0.961 . S
H761 C747 0.958 . S
H762 C747 0.961 . S
H763 C747 0.960 . S
C764 C765 1.391 . S
C764 C766 1.394 . S
C764 H780 0.931 . S
C765 C764 1.391 . S
C765 C769 1.376 . S
C766 C764 1.394 . S
C766 C767 1.369 . S
C766 C770 1.531 . S
C767 C766 1.369 . S
C767 C768 1.410 . S
C767 C775 1.503 . S
C768 C767 1.410 . S
C768 C769 1.392 . S
C768 C771 1.511 . S
C769 C765 1.376 . S
C769 C768 1.392 . S
C769 H781 0.929 . S
C770 C766 1.531 . S
C770 H782 0.960 . S
C770 H783 0.962 . S
C770 H784 0.960 . S
C771 C768 1.511 . S
C771 H785 0.961 . S
C771 H786 0.961 . S
C771 H787 0.961 . S
C772 C773 1.370 . S
C772 C774 1.363 . S
C772 H788 0.931 . S
C773 C772 1.370 . S
C773 C777 1.408 . S
C774 C772 1.363 . S
C774 C775 1.370 . S
C774 C778 1.524 . S
C775 C767 1.503 . S
C775 C774 1.370 . S
C775 C776 1.403 . S
C776 C775 1.403 . S
C776 C777 1.404 . S
C776 C779 1.539 . S
C777 C773 1.408 . S
C777 C776 1.404 . S
C777 H789 0.930 . S
C778 C774 1.524 . S
C778 H790 0.956 . S
C778 H791 0.961 . S
C778 H792 0.961 . S
C779 C776 1.539 . S
C779 H793 0.958 . S
C779 H794 0.961 . S
C779 H795 0.960 . S
H780 C764 0.931 . S
H781 C769 0.929 . S
H782 C770 0.960 . S
H783 C770 0.962 . S
H784 C770 0.960 . S
H785 C771 0.961 . S
H786 C771 0.961 . S
H787 C771 0.961 . S
H788 C772 0.931 . S
H789 C777 0.930 . S
H790 C778 0.956 . S
H791 C778 0.961 . S
H792 C778 0.961 . S
H793 C779 0.958 . S
H794 C779 0.961 . S
H795 C779 0.960 . S
C796 C797 1.391 . S
C796 C798 1.394 . S
C796 H812 0.931 . S
C797 C796 1.391 . S
C797 C801 1.376 . S
C798 C796 1.394 . S
C798 C799 1.369 . S
C798 C802 1.531 . S
C799 C798 1.369 . S
C799 C800 1.410 . S
C799 C807 1.503 . S
C800 C799 1.410 . S
C800 C801 1.392 . S
C800 C803 1.511 . S
C801 C797 1.376 . S
C801 C800 1.392 . S
C801 H813 0.929 . S
C802 C798 1.531 . S
C802 H814 0.960 . S
C802 H815 0.962 . S
C802 H816 0.960 . S
C803 C800 1.511 . S
C803 H817 0.961 . S
C803 H818 0.961 . S
C803 H819 0.961 . S
C804 C805 1.370 . S
C804 C806 1.363 . S
C804 H820 0.931 . S
C805 C804 1.370 . S
C805 C809 1.408 . S
C806 C804 1.363 . S
C806 C807 1.370 . S
C806 C810 1.524 . S
C807 C799 1.503 . S
C807 C806 1.370 . S
C807 C808 1.403 . S
C808 C807 1.403 . S
C808 C809 1.404 . S
C808 C811 1.539 . S
C809 C805 1.408 . S
C809 C808 1.404 . S
C809 H821 0.930 . S
C810 C806 1.524 . S
C810 H822 0.956 . S
C810 H823 0.961 . S
C810 H824 0.961 . S
C811 C808 1.539 . S
C811 H825 0.958 . S
C811 H826 0.961 . S
C811 H827 0.960 . S
H812 C796 0.931 . S
H813 C801 0.929 . S
H814 C802 0.960 . S
H815 C802 0.962 . S
H816 C802 0.960 . S
H817 C803 0.961 . S
H818 C803 0.961 . S
H819 C803 0.961 . S
H820 C804 0.931 . S
H821 C809 0.930 . S
H822 C810 0.956 . S
H823 C810 0.961 . S
H824 C810 0.961 . S
H825 C811 0.958 . S
H826 C811 0.961 . S
H827 C811 0.960 . S
C828 C829 1.391 . S
C828 C830 1.394 . S
C828 H844 0.931 . S
C829 C828 1.391 . S
C829 C833 1.376 . S
C830 C828 1.394 . S
C830 C831 1.369 . S
C830 C834 1.531 . S
C831 C830 1.369 . S
C831 C832 1.410 . S
C831 C839 1.503 . S
C832 C831 1.410 . S
C832 C833 1.392 . S
C832 C835 1.511 . S
C833 C829 1.376 . S
C833 C832 1.392 . S
C833 H845 0.929 . S
C834 C830 1.531 . S
C834 H846 0.960 . S
C834 H847 0.962 . S
C834 H848 0.960 . S
C835 C832 1.511 . S
C835 H849 0.961 . S
C835 H850 0.961 . S
C835 H851 0.961 . S
C836 C837 1.370 . S
C836 C838 1.363 . S
C836 H852 0.931 . S
C837 C836 1.370 . S
C837 C841 1.408 . S
C838 C836 1.363 . S
C838 C839 1.370 . S
C838 C842 1.524 . S
C839 C831 1.503 . S
C839 C838 1.370 . S
C839 C840 1.403 . S
C840 C839 1.403 . S
C840 C841 1.404 . S
C840 C843 1.539 . S
C841 C837 1.408 . S
C841 C840 1.404 . S
C841 H853 0.930 . S
C842 C838 1.524 . S
C842 H854 0.956 . S
C842 H855 0.961 . S
C842 H856 0.961 . S
C843 C840 1.539 . S
C843 H857 0.958 . S
C843 H858 0.961 . S
C843 H859 0.960 . S
H844 C828 0.931 . S
H845 C833 0.929 . S
H846 C834 0.960 . S
H847 C834 0.962 . S
H848 C834 0.960 . S
H849 C835 0.961 . S
H850 C835 0.961 . S
H851 C835 0.961 . S
H852 C836 0.931 . S
H853 C841 0.930 . S
H854 C842 0.956 . S
H855 C842 0.961 . S
H856 C842 0.961 . S
H857 C843 0.958 . S
H858 C843 0.961 . S
H859 C843 0.960 . S
C860 C861 1.391 . S
C860 C862 1.394 . S
C860 H876 0.931 . S
C861 C860 1.391 . S
C861 C865 1.376 . S
C862 C860 1.394 . S
C862 C863 1.369 . S
C862 C866 1.531 . S
C863 C862 1.369 . S
C863 C864 1.410 . S
C863 C871 1.503 . S
C864 C863 1.410 . S
C864 C865 1.392 . S
C864 C867 1.511 . S
C865 C861 1.376 . S
C865 C864 1.392 . S
C865 H877 0.929 . S
C866 C862 1.531 . S
C866 H878 0.960 . S
C866 H879 0.962 . S
C866 H880 0.960 . S
C867 C864 1.511 . S
C867 H881 0.961 . S
C867 H882 0.961 . S
C867 H883 0.961 . S
C868 C869 1.370 . S
C868 C870 1.363 . S
C868 H884 0.931 . S
C869 C868 1.370 . S
C869 C873 1.408 . S
C870 C868 1.363 . S
C870 C871 1.370 . S
C870 C874 1.524 . S
C871 C863 1.503 . S
C871 C870 1.370 . S
C871 C872 1.403 . S
C872 C871 1.403 . S
C872 C873 1.404 . S
C872 C875 1.539 . S
C873 C869 1.408 . S
C873 C872 1.404 . S
C873 H885 0.930 . S
C874 C870 1.524 . S
C874 H886 0.956 . S
C874 H887 0.961 . S
C874 H888 0.961 . S
C875 C872 1.539 . S
C875 H889 0.958 . S
C875 H890 0.961 . S
C875 H891 0.960 . S
H876 C860 0.931 . S
H877 C865 0.929 . S
H878 C866 0.960 . S
H879 C866 0.962 . S
H880 C866 0.960 . S
H881 C867 0.961 . S
H882 C867 0.961 . S
H883 C867 0.961 . S
H884 C868 0.931 . S
H885 C873 0.930 . S
H886 C874 0.956 . S
H887 C874 0.961 . S
H888 C874 0.961 . S
H889 C875 0.958 . S
H890 C875 0.961 . S
H891 C875 0.960 . S
C892 C893 1.391 . S
C892 C894 1.394 . S
C892 H908 0.931 . S
C893 C892 1.391 . S
C893 C897 1.376 . S
C894 C892 1.394 . S
C894 C895 1.369 . S
C894 C898 1.531 . S
C895 C894 1.369 . S
C895 C896 1.410 . S
C895 C903 1.503 . S
C896 C895 1.410 . S
C896 C897 1.392 . S
C896 C899 1.511 . S
C897 C893 1.376 . S
C897 C896 1.392 . S
C897 H909 0.929 . S
C898 C894 1.531 . S
C898 H910 0.960 . S
C898 H911 0.962 . S
C898 H912 0.960 . S
C899 C896 1.511 . S
C899 H913 0.961 . S
C899 H914 0.961 . S
C899 H915 0.961 . S
C900 C901 1.370 . S
C900 C902 1.363 . S
C900 H916 0.931 . S
C901 C900 1.370 . S
C901 C905 1.408 . S
C902 C900 1.363 . S
C902 C903 1.370 . S
C902 C906 1.524 . S
C903 C895 1.503 . S
C903 C902 1.370 . S
C903 C904 1.403 . S
C904 C903 1.403 . S
C904 C905 1.404 . S
C904 C907 1.539 . S
C905 C901 1.408 . S
C905 C904 1.404 . S
C905 H917 0.930 . S
C906 C902 1.524 . S
C906 H918 0.956 . S
C906 H919 0.961 . S
C906 H920 0.961 . S
C907 C904 1.539 . S
C907 H921 0.958 . S
C907 H922 0.961 . S
C907 H923 0.960 . S
H908 C892 0.931 . S
H909 C897 0.929 . S
H910 C898 0.960 . S
H911 C898 0.962 . S
H912 C898 0.960 . S
H913 C899 0.961 . S
H914 C899 0.961 . S
H915 C899 0.961 . S
H916 C900 0.931 . S
H917 C905 0.930 . S
H918 C906 0.956 . S
H919 C906 0.961 . S
H920 C906 0.961 . S
H921 C907 0.958 . S
H922 C907 0.961 . S
H923 C907 0.960 . S
C924 C925 1.391 . S
C924 C926 1.394 . S
C924 H940 0.931 . S
C925 C924 1.391 . S
C925 C929 1.376 . S
C926 C924 1.394 . S
C926 C927 1.369 . S
C926 C930 1.531 . S
C927 C926 1.369 . S
C927 C928 1.410 . S
C927 C935 1.503 . S
C928 C927 1.410 . S
C928 C929 1.392 . S
C928 C931 1.511 . S
C929 C925 1.376 . S
C929 C928 1.392 . S
C929 H941 0.929 . S
C930 C926 1.531 . S
C930 H942 0.960 . S
C930 H943 0.962 . S
C930 H944 0.960 . S
C931 C928 1.511 . S
C931 H945 0.961 . S
C931 H946 0.961 . S
C931 H947 0.961 . S
C932 C933 1.370 . S
C932 C934 1.363 . S
C932 H948 0.931 . S
C933 C932 1.370 . S
C933 C937 1.408 . S
C934 C932 1.363 . S
C934 C935 1.370 . S
C934 C938 1.524 . S
C935 C927 1.503 . S
C935 C934 1.370 . S
C935 C936 1.403 . S
C936 C935 1.403 . S
C936 C937 1.404 . S
C936 C939 1.539 . S
C937 C933 1.408 . S
C937 C936 1.404 . S
C937 H949 0.930 . S
C938 C934 1.524 . S
C938 H950 0.956 . S
C938 H951 0.961 . S
C938 H952 0.961 . S
C939 C936 1.539 . S
C939 H953 0.958 . S
C939 H954 0.961 . S
C939 H955 0.960 . S
H940 C924 0.931 . S
H941 C929 0.929 . S
H942 C930 0.960 . S
H943 C930 0.962 . S
H944 C930 0.960 . S
H945 C931 0.961 . S
H946 C931 0.961 . S
H947 C931 0.961 . S
H948 C932 0.931 . S
H949 C937 0.930 . S
H950 C938 0.956 . S
H951 C938 0.961 . S
H952 C938 0.961 . S
H953 C939 0.958 . S
H954 C939 0.961 . S
H955 C939 0.960 . S
C189 N83 1.444 . S
C197 C120 1.372 . S
C229 C128 1.366 . S
C221 N96 1.451 . S
C261 C132 1.328 . S
C253 N57 1.444 . S
C285 N70 1.442 . S
C293 C108 1.328 . S
C325 C149 1.364 . S
C317 N31 1.441 . S
C357 C183 1.353 . S
C349 N44 1.438 . S
C381 N5 1.437 . S
C389 C171 1.354 . S
C413 N18 1.441 . S
C421 C153 1.361 . S
C453 C107 1.371 . S
C445 N14 1.463 . S
C485 C141 1.362 . S
C477 N1 1.468 . S
C517 C145 1.349 . S
C509 N40 1.476 . S
C549 C123 1.353 . S
C541 N27 1.473 . S
C581 C162 1.373 . S
C573 N66 1.476 . S
C605 N53 1.478 . S
C613 C170 1.373 . S
C645 C186 1.370 . S
C637 N92 1.474 . S
C669 N79 1.489 . S
C677 C166 1.335 . S
C709 C111 1.346 . S
C701 N2 1.530 . S
C741 C129 1.356 . S
C733 N15 1.524 . S
C765 N28 1.521 . S
C773 C144 1.353 . S
C805 C124 1.351 . S
C797 N41 1.529 . S
C837 C150 1.346 . S
C829 N54 1.533 . S
C861 N67 1.534 . S
C869 C174 1.390 . S
C893 N80 1.527 . S
C901 C187 1.349 . S
C925 N93 1.529 . S
C933 C165 1.391 . S
