# Generated by pormake.
# Topology pyr, (3,6)-cn, num edge types: 1
# Building blocks:
#     Node 0, Type 0, BuildingBlock: MIDCAF_clean_linker_0, # of connection points: 3
#     Node 1, Type 0, BuildingBlock: MIDCAF_clean_linker_0, # of connection points: 3
#     Node 2, Type 0, BuildingBlock: MIDCAF_clean_linker_0, # of connection points: 3
#     Node 3, Type 0, BuildingBlock: MIDCAF_clean_linker_0, # of connection points: 3
#     Node 4, Type 0, BuildingBlock: MIDCAF_clean_linker_0, # of connection points: 3
#     Node 5, Type 0, BuildingBlock: MIDCAF_clean_linker_0, # of connection points: 3
#     Node 6, Type 0, BuildingBlock: MIDCAF_clean_linker_0, # of connection points: 3
#     Node 7, Type 0, BuildingBlock: MIDCAF_clean_linker_0, # of connection points: 3
#     Node 8, Type 1, BuildingBlock: PAMTUU_clean_sbu_0, # of connection points: 6
#     Node 9, Type 1, BuildingBlock: PAMTUU_clean_sbu_0, # of connection points: 6
#     Node 10, Type 1, BuildingBlock: PAMTUU_clean_sbu_0, # of connection points: 6
#     Node 11, Type 1, BuildingBlock: PAMTUU_clean_sbu_0, # of connection points: 6
#     Edge 12, Type (0, 1), BuildingBlock: XIVTED_clean_linker_0, # of connection points: 2
#     Edge 13, Type (0, 1), BuildingBlock: XIVTED_clean_linker_0, # of connection points: 2
#     Edge 14, Type (0, 1), BuildingBlock: XIVTED_clean_linker_0, # of connection points: 2
#     Edge 15, Type (0, 1), BuildingBlock: XIVTED_clean_linker_0, # of connection points: 2
#     Edge 16, Type (0, 1), BuildingBlock: XIVTED_clean_linker_0, # of connection points: 2
#     Edge 17, Type (0, 1), BuildingBlock: XIVTED_clean_linker_0, # of connection points: 2
#     Edge 18, Type (0, 1), BuildingBlock: XIVTED_clean_linker_0, # of connection points: 2
#     Edge 19, Type (0, 1), BuildingBlock: XIVTED_clean_linker_0, # of connection points: 2
#     Edge 20, Type (0, 1), BuildingBlock: XIVTED_clean_linker_0, # of connection points: 2
#     Edge 21, Type (0, 1), BuildingBlock: XIVTED_clean_linker_0, # of connection points: 2
#     Edge 22, Type (0, 1), BuildingBlock: XIVTED_clean_linker_0, # of connection points: 2
#     Edge 23, Type (0, 1), BuildingBlock: XIVTED_clean_linker_0, # of connection points: 2
#     Edge 24, Type (0, 1), BuildingBlock: XIVTED_clean_linker_0, # of connection points: 2
#     Edge 25, Type (0, 1), BuildingBlock: XIVTED_clean_linker_0, # of connection points: 2
#     Edge 26, Type (0, 1), BuildingBlock: XIVTED_clean_linker_0, # of connection points: 2
#     Edge 27, Type (0, 1), BuildingBlock: XIVTED_clean_linker_0, # of connection points: 2
#     Edge 28, Type (0, 1), BuildingBlock: XIVTED_clean_linker_0, # of connection points: 2
#     Edge 29, Type (0, 1), BuildingBlock: XIVTED_clean_linker_0, # of connection points: 2
#     Edge 30, Type (0, 1), BuildingBlock: XIVTED_clean_linker_0, # of connection points: 2
#     Edge 31, Type (0, 1), BuildingBlock: XIVTED_clean_linker_0, # of connection points: 2
#     Edge 32, Type (0, 1), BuildingBlock: XIVTED_clean_linker_0, # of connection points: 2
#     Edge 33, Type (0, 1), BuildingBlock: XIVTED_clean_linker_0, # of connection points: 2
#     Edge 34, Type (0, 1), BuildingBlock: XIVTED_clean_linker_0, # of connection points: 2
#     Edge 35, Type (0, 1), BuildingBlock: XIVTED_clean_linker_0, # of connection points: 2
# Relax obj value: 0.087
# Max RMSD: 0.125
# Mean RMSD: 0.052
data_MOF--net-pyr--node1-PAMTUU_clean_sbu_0--node2-MIDCAF_clean_linker_0--edge1-XIVTED_clean_linker_0
_symmetry_space_group_name_H-M    P1
_symmetry_Int_Tables_number       1
_symmetry_cell_setting            triclinic
loop_
_symmetry_equiv_pos_as_xyz
'x, y, z'
_cell_length_a     46.625461
_cell_length_b     47.619919
_cell_length_c     45.80695
_cell_angle_alpha  90.071514
_cell_angle_beta   89.424084
_cell_angle_gamma 99.979111
loop_
_atom_site_label
_atom_site_type_symbol
_atom_site_fract_x
_atom_site_fract_y
_atom_site_fract_z
_atom_type_partial_charge
C0 C 0.28035 0.26115 0.32352 0.0
C1 C 0.29058 0.23788 0.33601 0.0
C2 C 0.31822 0.2325 0.32774 0.0
C3 C 0.33406 0.24831 0.30547 0.0
H4 H 0.39291 0.23578 0.24482 0.0
H5 H 0.41853 0.20318 0.21883 0.0
H6 H 0.40798 0.24655 0.13786 0.0
H7 H 0.38136 0.27885 0.16379 0.0
H8 H 0.32995 0.31686 0.16144 0.0
H9 H 0.29712 0.34263 0.13532 0.0
H10 H 0.26528 0.37003 0.21764 0.0
H11 H 0.29827 0.34506 0.24355 0.0
H12 H 0.2868 0.29366 0.29086 0.0
H13 H 0.25912 0.26583 0.32939 0.0
H14 H 0.32697 0.21511 0.33749 0.0
H15 H 0.35452 0.24251 0.29853 0.0
N16 N 0.3561 0.26918 0.24944 0.0
N17 N 0.35266 0.29627 0.2073 0.0
N18 N 0.32388 0.30164 0.24856 0.0
C19 C 0.36491 0.27639 0.2217 0.0
C20 C 0.33237 0.30927 0.22082 0.0
C21 C 0.33564 0.28167 0.26307 0.0
C22 C 0.3846 0.25975 0.20637 0.0
C23 C 0.39627 0.23869 0.22151 0.0
C24 C 0.41122 0.22003 0.20661 0.0
C25 C 0.41505 0.22201 0.17619 0.0
C26 C 0.40488 0.24409 0.16124 0.0
C27 C 0.38981 0.26277 0.17616 0.0
C28 C 0.31649 0.32859 0.20461 0.0
C29 C 0.31642 0.32894 0.17391 0.0
C30 C 0.29744 0.34351 0.15894 0.0
C31 C 0.27837 0.35817 0.17438 0.0
C32 C 0.27982 0.35922 0.20499 0.0
C33 C 0.29863 0.34464 0.2199 0.0
C34 C 0.32258 0.26986 0.29102 0.0
C35 C 0.29623 0.27705 0.30128 0.0
C36 C 0.113 0.82647 0.70091 0.0
C37 C 0.11494 0.82744 0.67031 0.0
C38 C 0.13185 0.80989 0.65584 0.0
C39 C 0.14755 0.79269 0.67171 0.0
H40 H 0.2052 0.73553 0.66283 0.0
H41 H 0.23938 0.70915 0.63897 0.0
H42 H 0.27406 0.69247 0.72309 0.0
H43 H 0.23974 0.71796 0.74686 0.0
H44 H 0.23815 0.76305 0.79546 0.0
H45 H 0.25953 0.78919 0.8376 0.0
H46 H 0.18956 0.838 0.83926 0.0
H47 H 0.1685 0.8124 0.79637 0.0
H48 H 0.12763 0.81004 0.7404 0.0
H49 H 0.1003 0.83988 0.7127 0.0
H50 H 0.13346 0.80994 0.63223 0.0
H51 H 0.16113 0.78016 0.6599 0.0
N52 N 0.18164 0.75935 0.70626 0.0
N53 N 0.20708 0.75562 0.74956 0.0
N54 N 0.17247 0.78568 0.74764 0.0
C55 C 0.20167 0.74775 0.72138 0.0
C56 C 0.19262 0.77451 0.7629 0.0
C57 C 0.16671 0.77814 0.7194 0.0
C58 C 0.21983 0.72911 0.70678 0.0
C59 C 0.2198 0.72583 0.67625 0.0
C60 C 0.23953 0.71089 0.66255 0.0
C61 C 0.25958 0.69882 0.67909 0.0
C62 C 0.25873 0.70115 0.70965 0.0
C63 C 0.23912 0.71604 0.72331 0.0
C64 C 0.20193 0.78605 0.79203 0.0
C65 C 0.22693 0.77896 0.80506 0.0
C66 C 0.23915 0.79387 0.82946 0.0
C67 C 0.22655 0.81605 0.84155 0.0
C68 C 0.20019 0.82148 0.83004 0.0
C69 C 0.18804 0.80668 0.80551 0.0
C70 C 0.14688 0.79292 0.70241 0.0
C71 C 0.12885 0.80948 0.71679 0.0
C72 C 0.64949 0.2713 0.90476 0.0
C73 C 0.6209 0.25834 0.8979 0.0
C74 C 0.60587 0.27174 0.87691 0.0
C75 C 0.61889 0.29765 0.86377 0.0
H76 H 0.61256 0.35723 0.79471 0.0
H77 H 0.59268 0.37886 0.75297 0.0
H78 H 0.6644 0.44958 0.7559 0.0
H79 H 0.68389 0.42834 0.79795 0.0
H80 H 0.72478 0.43567 0.86058 0.0
H81 H 0.76845 0.45835 0.88632 0.0
H82 H 0.78203 0.37561 0.91618 0.0
H83 H 0.73803 0.35346 0.89184 0.0
H84 H 0.68437 0.30616 0.89805 0.0
H85 H 0.66218 0.26147 0.92016 0.0
H86 H 0.58378 0.26259 0.8711 0.0
H87 H 0.6065 0.30755 0.84812 0.0
N88 N 0.64934 0.35157 0.8362 0.0
N89 N 0.6878 0.39087 0.83792 0.0
N90 N 0.68654 0.35278 0.87052 0.0
C91 C 0.66256 0.37748 0.82546 0.0
C92 C 0.69996 0.37858 0.86045 0.0
C93 C 0.66127 0.33907 0.85883 0.0
C94 C 0.64995 0.39089 0.8 0.0
C95 C 0.62411 0.37744 0.78658 0.0
C96 C 0.61276 0.38983 0.76237 0.0
C97 C 0.62683 0.4161 0.75074 0.0
C98 C 0.65258 0.42959 0.76429 0.0
C99 C 0.66393 0.41722 0.78846 0.0
C100 C 0.72761 0.39273 0.8743 0.0
C101 C 0.73718 0.42239 0.87262 0.0
C102 C 0.76239 0.43538 0.88736 0.0
C103 C 0.77893 0.41902 0.90386 0.0
C104 C 0.76967 0.38925 0.90463 0.0
C105 C 0.74437 0.3764 0.89034 0.0
C106 C 0.64726 0.31086 0.87129 0.0
C107 C 0.66237 0.29706 0.8918 0.0
C108 C 0.77584 0.64872 0.4201 0.0
C109 C 0.75862 0.62448 0.40787 0.0
C110 C 0.76817 0.6135 0.38163 0.0
C111 C 0.79393 0.62683 0.36772 0.0
H112 H 0.84877 0.62115 0.29704 0.0
H113 H 0.86759 0.60018 0.25406 0.0
H114 H 0.94076 0.66952 0.2509 0.0
H115 H 0.92157 0.69094 0.29362 0.0
H116 H 0.90366 0.75482 0.33421 0.0
H117 H 0.9242 0.80084 0.35668 0.0
H118 H 0.90193 0.76507 0.44206 0.0
H119 H 0.88074 0.71967 0.41982 0.0
H120 H 0.81388 0.68072 0.41645 0.0
H121 H 0.76958 0.65748 0.44056 0.0
H122 H 0.75538 0.59499 0.37145 0.0
H123 H 0.80034 0.61804 0.34734 0.0
N124 N 0.84789 0.6561 0.33979 0.0
N125 N 0.88589 0.69568 0.33713 0.0
N126 N 0.8519 0.69155 0.37572 0.0
C127 C 0.8721 0.67035 0.32588 0.0
C128 C 0.87588 0.7063 0.36218 0.0
C129 C 0.83759 0.66659 0.3647 0.0
C130 C 0.88356 0.65788 0.29905 0.0
C131 C 0.86886 0.63208 0.28724 0.0
C132 C 0.87981 0.61984 0.26257 0.0
C133 C 0.90585 0.63296 0.24886 0.0
C134 C 0.92047 0.65888 0.26053 0.0
C135 C 0.9095 0.67115 0.28523 0.0
C136 C 0.89057 0.7336 0.37522 0.0
C137 C 0.90337 0.75679 0.35776 0.0
C138 C 0.91491 0.78313 0.37059 0.0
C139 C 0.91461 0.7865 0.40112 0.0
C140 C 0.90254 0.76308 0.41851 0.0
C141 C 0.89037 0.7371 0.40573 0.0
C142 C 0.8108 0.65144 0.37973 0.0
C143 C 0.80147 0.662 0.40627 0.0
C144 C 0.62909 0.84162 0.87596 0.0
C145 C 0.63157 0.8449 0.90635 0.0
C146 C 0.64817 0.828 0.9218 0.0
C147 C 0.66247 0.8086 0.90705 0.0
H148 H 0.71453 0.74693 0.91928 0.0
H149 H 0.7475 0.72039 0.94412 0.0
H150 H 0.77426 0.69048 0.86074 0.0
H151 H 0.74103 0.71605 0.83616 0.0
H152 H 0.72872 0.74605 0.77814 0.0
H153 H 0.75033 0.76246 0.73126 0.0
H154 H 0.71165 0.83842 0.73827 0.0
H155 H 0.68931 0.82165 0.78446 0.0
H156 H 0.64158 0.82093 0.83769 0.0
H157 H 0.61666 0.85452 0.86343 0.0
H158 H 0.65021 0.82987 0.94528 0.0
H159 H 0.6755 0.79626 0.91953 0.0
N160 N 0.69129 0.76844 0.87477 0.0
N161 N 0.71251 0.75672 0.83079 0.0
N162 N 0.68235 0.79115 0.83117 0.0
C163 C 0.70846 0.75278 0.85999 0.0
C164 C 0.69957 0.77582 0.81619 0.0
C165 C 0.67789 0.78747 0.86038 0.0
C166 C 0.72532 0.73391 0.87567 0.0
C167 C 0.72706 0.73425 0.90631 0.0
C168 C 0.74611 0.71921 0.92055 0.0
C169 C 0.76369 0.70344 0.90445 0.0
C170 C 0.76083 0.70206 0.87394 0.0
C171 C 0.74188 0.71702 0.85976 0.0
C172 C 0.70774 0.7828 0.78538 0.0
C173 C 0.7243 0.76597 0.76937 0.0
C174 C 0.73682 0.77544 0.74253 0.0
C175 C 0.73324 0.80203 0.73121 0.0
C176 C 0.71478 0.81775 0.74614 0.0
C177 C 0.70205 0.80817 0.77284 0.0
C178 C 0.66069 0.80596 0.87651 0.0
C179 C 0.64354 0.82245 0.8612 0.0
C180 C 0.83877 0.2177 0.22517 0.0
C181 C 0.8129 0.22195 0.21171 0.0
C182 C 0.7971 0.24171 0.22401 0.0
C183 C 0.80573 0.25524 0.25035 0.0
H184 H 0.77184 0.29529 0.31509 0.0
H185 H 0.7344 0.31612 0.33998 0.0
H186 H 0.78317 0.3206 0.41993 0.0
H187 H 0.82106 0.29958 0.39503 0.0
H188 H 0.87091 0.25912 0.39902 0.0
H189 H 0.89994 0.23137 0.42749 0.0
H190 H 0.92439 0.19146 0.34843 0.0
H191 H 0.89636 0.21969 0.31997 0.0
H192 H 0.8667 0.22636 0.26198 0.0
H193 H 0.85171 0.20301 0.21595 0.0
H194 H 0.77696 0.24536 0.21437 0.0
H195 H 0.79213 0.26917 0.25991 0.0
N196 N 0.8182 0.27452 0.30923 0.0
N197 N 0.84205 0.27074 0.35353 0.0
N198 N 0.85691 0.24931 0.31116 0.0
C199 C 0.82107 0.28068 0.33814 0.0
C200 C 0.8602 0.25512 0.34009 0.0
C201 C 0.8361 0.25899 0.29551 0.0
C202 C 0.79951 0.29553 0.35306 0.0
C203 C 0.77487 0.30082 0.33793 0.0
C204 C 0.75322 0.31262 0.35223 0.0
C205 C 0.7557 0.31968 0.38196 0.0
C206 C 0.78073 0.31537 0.39697 0.0
C207 C 0.80236 0.30326 0.3827 0.0
C208 C 0.88088 0.24142 0.35719 0.0
C209 C 0.88286 0.24478 0.38764 0.0
C210 C 0.89937 0.22871 0.40401 0.0
C211 C 0.9142 0.20885 0.39032 0.0
C212 C 0.91349 0.20667 0.35974 0.0
C213 C 0.89714 0.2228 0.34339 0.0
C214 C 0.83029 0.24922 0.26505 0.0
C215 C 0.84738 0.23119 0.25154 0.0
C216 C 0.26863 0.61517 0.17826 0.0
C217 C 0.25492 0.62991 0.1573 0.0
C218 C 0.26647 0.6588 0.15219 0.0
C219 C 0.29107 0.67241 0.16709 0.0
H220 H 0.34076 0.75 0.17644 0.0
H221 H 0.36082 0.79561 0.15486 0.0
H222 H 0.44566 0.78876 0.18834 0.0
H223 H 0.42498 0.74313 0.21118 0.0
H224 H 0.4107 0.69891 0.27746 0.0
H225 H 0.43044 0.67673 0.31911 0.0
H226 H 0.3741 0.59712 0.30013 0.0
H227 H 0.35445 0.61911 0.25855 0.0
H228 H 0.30339 0.61679 0.20906 0.0
H229 H 0.26062 0.59285 0.18271 0.0
H230 H 0.25631 0.67118 0.13682 0.0
H231 H 0.29907 0.69467 0.16229 0.0
N232 N 0.34415 0.69917 0.19402 0.0
N233 N 0.38052 0.70114 0.22937 0.0
N234 N 0.34387 0.66042 0.2255 0.0
C235 C 0.36847 0.71361 0.20679 0.0
C236 C 0.36822 0.6745 0.23902 0.0
C237 C 0.33166 0.67267 0.20296 0.0
C238 C 0.38123 0.7426 0.19547 0.0
C239 C 0.36372 0.75815 0.17938 0.0
C240 C 0.37537 0.78441 0.16668 0.0
C241 C 0.40514 0.79603 0.16919 0.0
C242 C 0.42262 0.78081 0.18595 0.0
C243 C 0.41078 0.75452 0.19905 0.0
C244 C 0.38088 0.66093 0.26436 0.0
C245 C 0.40252 0.67665 0.28205 0.0
C246 C 0.41375 0.66394 0.30616 0.0
C247 C 0.40396 0.63503 0.31318 0.0
C248 C 0.38249 0.6193 0.29536 0.0
C249 C 0.37105 0.63205 0.27148 0.0
C250 C 0.305 0.65771 0.18783 0.0
C251 C 0.29331 0.62889 0.19335 0.0
C252 C 0.14749 0.26137 0.65913 0.0
C253 C 0.119 0.24869 0.66717 0.0
C254 C 0.10453 0.26214 0.68887 0.0
C255 C 0.11796 0.28802 0.70149 0.0
H256 H 0.11926 0.34419 0.77605 0.0
H257 H 0.10034 0.3665 0.81849 0.0
H258 H 0.15996 0.44462 0.80044 0.0
H259 H 0.17878 0.42253 0.75803 0.0
H260 H 0.22753 0.42456 0.70645 0.0
H261 H 0.27073 0.44798 0.6798 0.0
H262 H 0.27356 0.36992 0.63251 0.0
H263 H 0.23019 0.34694 0.6583 0.0
H264 H 0.18264 0.29607 0.66438 0.0
H265 H 0.1597 0.25139 0.64312 0.0
H266 H 0.08253 0.2531 0.69557 0.0
H267 H 0.10599 0.29808 0.71765 0.0
N268 N 0.14924 0.34178 0.72764 0.0
N269 N 0.18698 0.38152 0.72344 0.0
N270 N 0.18483 0.34332 0.69086 0.0
C271 C 0.16251 0.3679 0.73747 0.0
C272 C 0.19833 0.3693 0.70011 0.0
C273 C 0.16035 0.32936 0.70424 0.0
C274 C 0.15061 0.38146 0.76339 0.0
C275 C 0.12835 0.36615 0.78104 0.0
C276 C 0.11759 0.3789 0.80557 0.0
C277 C 0.12856 0.40742 0.81299 0.0
C278 C 0.15072 0.42274 0.79528 0.0
C279 C 0.16165 0.40994 0.77095 0.0
C280 C 0.22513 0.38383 0.68457 0.0
C281 C 0.23737 0.4124 0.69036 0.0
C282 C 0.2623 0.42581 0.67511 0.0
C283 C 0.27576 0.41098 0.65376 0.0
C284 C 0.2636 0.38234 0.64825 0.0
C285 C 0.23868 0.36903 0.66331 0.0
C286 C 0.14615 0.30105 0.69266 0.0
C287 C 0.16078 0.28709 0.67156 0.0
Tb288 Tb 0.0404 0.02173 0.51553 0.0
Tb289 Tb 0.98057 1.0143 0.55504 0.0
C290 C 0.98866 0.97163 0.50434 0.0
C291 C 0.10653 0.04877 0.47013 0.0
C292 C 0.14601 0.09129 0.44121 0.0
C293 C 0.15309 0.06416 0.44617 0.0
C294 C 0.13348 0.0431 0.46046 0.0
C295 C 0.09925 0.07577 0.46549 0.0
C296 C 0.11888 0.09692 0.45108 0.0
C297 C 0.08682 0.02643 0.48576 0.0
O298 O 0.0106 0.04368 0.49152 0.0
O299 O 0.9812 0.05258 0.52968 0.0
O300 O 0.01266 0.04597 0.57756 0.0
O301 O 0.0433 0.06167 0.53912 0.0
O302 O 0.93551 1.0138 0.55696 0.0
O303 O 0.95966 1.00797 0.59585 0.0
O304 O 1.00173 0.97895 0.56711 0.0
O305 O 0.04825 1.00042 0.55586 0.0
O306 O 0.01696 0.97907 0.50668 0.0
O307 O 0.97077 0.98669 0.51679 0.0
C308 C 0.9911 0.05749 0.50297 0.0
O309 O 0.08602 0.02927 0.51402 0.0
O310 O 0.06089 1.01887 0.47489 0.0
C311 C 0.03331 0.06505 0.56559 0.0
C312 C 0.9118 0.98286 0.59275 0.0
C313 C 0.86935 0.93613 0.60965 0.0
C314 C 0.86502 0.96421 0.61497 0.0
C315 C 0.88611 0.98738 0.6066 0.0
C316 C 0.91609 0.95497 0.58685 0.0
C317 C 0.89504 0.93175 0.59531 0.0
C318 C 0.93396 1.00738 0.58464 0.0
C319 C 0.02995 0.98036 0.56919 0.0
H320 H 0.17398 0.05928 0.43935 0.0
H321 H 0.13947 0.02241 0.46417 0.0
H322 H 0.07848 0.08045 0.47303 0.0
H323 H 0.1127 0.11751 0.44738 0.0
H324 H 0.8457 0.9683 0.62637 0.0
H325 H 0.88252 1.00882 0.61124 0.0
H326 H 0.9358 0.95119 0.57593 0.0
H327 H 0.89887 0.91038 0.59069 0.0
Tb328 Tb 0.53995 0.03386 0.05832 0.0
Tb329 Tb 0.48391 0.02476 1.01421 0.0
C330 C 0.53671 0.99446 1.00384 0.0
C331 C 0.61301 0.06033 0.0911 0.0
C332 C 0.66856 0.09403 0.09848 0.0
C333 C 0.6653 0.06412 0.09686 0.0
C334 C 0.63776 0.04746 0.0934 0.0
C335 C 0.61639 0.09023 0.09101 0.0
C336 C 0.64384 0.10688 0.09476 0.0
C337 C 0.58385 0.04234 0.09105 0.0
O338 O 0.54612 0.07233 0.03157 0.0
O339 O 0.51673 0.05674 0.99259 0.0
O340 O 0.483 0.06245 0.04024 0.0
O341 O 0.50367 0.04783 0.08092 0.0
O342 O 0.46582 1.01701 0.97261 0.0
O343 O 0.43945 0.02607 1.00953 0.0
O344 O 0.47125 0.9937 0.0494 0.0
O345 O 0.51555 0.99247 0.07099 0.0
O346 O 0.55276 1.01562 1.01766 0.0
O347 O 0.50823 0.99106 1.00463 0.0
C348 C 0.53717 0.07561 1.0048 0.0
O349 O 0.5616 0.05536 0.09378 0.0
O350 O 0.57926 0.02198 0.07176 0.0
C351 C 0.48742 0.06405 0.06836 0.0
C352 C 0.41572 0.99601 0.97313 0.0
C353 C 0.36903 0.9549 0.9534 0.0
C354 C 0.36428 0.98181 0.96295 0.0
C355 C 0.38742 1.00216 0.9726 0.0
C356 C 0.42053 0.96887 0.96457 0.0
C357 C 0.39736 0.94849 0.95471 0.0
C358 C 0.43964 1.01856 0.98215 0.0
C359 C 0.48783 0.98192 0.06725 0.0
H360 H 0.6839 0.0535 0.09909 0.0
H361 H 0.63571 0.02444 0.09337 0.0
H362 H 0.59773 0.10084 0.08912 0.0
H363 H 0.64534 0.12978 0.09625 0.0
H364 H 0.34268 0.98727 0.96277 0.0
H365 H 0.38325 0.02291 0.97937 0.0
H366 H 0.4422 0.96357 0.965 0.0
H367 H 0.40181 0.92807 0.94728 0.0
Tb368 Tb 0.51506 0.49231 0.51082 0.0
Tb369 Tb 0.51579 0.55114 0.54811 0.0
C370 C 0.48707 0.54357 0.48616 0.0
C371 C 0.54112 0.43103 0.47645 0.0
C372 C 0.58777 0.40258 0.4625 0.0
C373 C 0.56215 0.39813 0.44583 0.0
C374 C 0.53907 0.41223 0.45277 0.0
C375 C 0.56638 0.43535 0.49344 0.0
C376 C 0.58947 0.42118 0.48659 0.0
C377 C 0.51778 0.44757 0.4819 0.0
O378 O 0.56011 0.51439 0.50941 0.0
O379 O 0.55225 0.55995 0.51759 0.0
O380 O 0.54635 0.5288 0.57069 0.0
O381 O 0.52815 0.48348 0.55511 0.0
O382 O 0.51938 0.5957 0.54896 0.0
O383 O 0.51264 0.57114 0.58868 0.0
O384 O 0.4797 0.52028 0.56517 0.0
O385 O 0.47017 0.48996 0.52618 0.0
O386 O 0.50189 0.52306 0.48049 0.0
O387 O 0.48477 0.55296 0.51295 0.0
C388 C 0.56868 0.54212 0.50784 0.0
O389 O 0.50784 0.44752 0.50859 0.0
O390 O 0.52234 0.4731 0.4708 0.0
C391 C 0.5435 0.50094 0.5737 0.0
C392 C 0.48742 0.60943 0.58448 0.0
C393 C 0.43684 0.63022 0.60187 0.0
C394 C 0.45969 0.62985 0.62161 0.0
C395 C 0.48481 0.6196 0.61294 0.0
C396 C 0.46481 0.6102 0.56458 0.0
C397 C 0.43984 0.62069 0.57315 0.0
C398 C 0.51249 0.59584 0.5766 0.0
C399 C 0.46244 0.50001 0.55129 0.0
H400 H 0.56023 0.38439 0.42684 0.0
H401 H 0.51986 0.40893 0.43922 0.0
H402 H 0.56841 0.45002 0.51172 0.0
H403 H 0.60868 0.42488 0.50011 0.0
H404 H 0.45806 0.6373 0.64381 0.0
H405 H 0.5019 0.619 0.62865 0.0
H406 H 0.46608 0.60206 0.54261 0.0
H407 H 0.42246 0.62042 0.55759 0.0
Tb408 Tb 0.01978 0.55096 1.01226 0.0
Tb409 Tb 0.01616 0.49153 0.04898 0.0
C410 C 0.04642 0.49915 0.9872 0.0
C411 C 0.99446 0.6122 0.97979 0.0
C412 C 0.94353 0.63409 0.96755 0.0
C413 C 0.96459 0.6329 0.94561 0.0
C414 C 0.98989 0.62212 0.95173 0.0
C415 C 0.97389 0.61422 1.00201 0.0
C416 C 0.94874 0.62531 0.99598 0.0
C417 C 0.01849 0.59643 0.98455 0.0
O418 O 0.97447 0.52988 1.00912 0.0
O419 O 0.97958 0.48373 1.01902 0.0
O420 O 0.98546 0.51424 0.07128 0.0
O421 O 1.00542 0.5594 0.05638 0.0
O422 O 0.01179 0.44689 0.04945 0.0
O423 O 0.01805 0.47107 0.08938 0.0
O424 O 0.05226 0.52172 0.0668 0.0
O425 O 0.06405 0.55181 1.02787 0.0
O426 O 0.03247 0.5202 0.98164 0.0
O427 O 0.04777 0.48935 1.01386 0.0
C428 C 0.96468 0.50228 1.0082 0.0
O429 O 0.02805 0.5958 1.01114 0.0
O430 O 0.01492 0.57134 0.97247 0.0
C431 C 0.98888 0.54208 0.07444 0.0
C432 C 0.04364 0.43301 0.08445 0.0
C433 C 0.09556 0.41449 0.10043 0.0
C434 C 0.0743 0.41758 0.12163 0.0
C435 C 0.04853 0.42668 0.11368 0.0
C436 C 0.06452 0.42914 0.06312 0.0
C437 C 0.09014 0.4198 0.07103 0.0
C438 C 0.01848 0.44651 0.077 0.0
C439 C 0.07058 0.54159 0.05316 0.0
H440 H 0.96119 0.63978 0.92358 0.0
H441 H 1.00536 0.62048 0.93426 0.0
H442 H 0.97666 0.60623 1.02375 0.0
H443 H 0.93273 0.62577 1.0132 0.0
H444 H 0.07778 0.41333 0.14443 0.0
H445 H 0.03281 0.42966 0.13049 0.0
H446 H 0.06154 0.43419 0.04043 0.0
H447 H 0.10624 0.41786 0.05427 0.0
H448 H 0.25325 0.2485 0.38015 0.0
H449 H 0.18008 0.08433 0.39377 0.0
H450 H 0.2825 0.17997 0.33301 0.0
H451 H 0.15976 0.14864 0.45331 0.0
H452 H 0.21623 0.12017 0.36994 0.0
H453 H 0.21765 0.2132 0.40638 0.0
C454 C 0.25235 0.22606 0.37551 0.0
C455 C 0.27099 0.21716 0.35449 0.0
C456 C 0.20395 0.1265 0.38826 0.0
C457 C 0.23029 0.17684 0.38409 0.0
C458 C 0.18333 0.10599 0.40196 0.0
C459 C 0.16702 0.11341 0.42577 0.0
C460 C 0.20829 0.15478 0.39827 0.0
C461 C 0.1717 0.14201 0.4349 0.0
C462 C 0.23208 0.20596 0.39048 0.0
C463 C 0.26896 0.18782 0.34938 0.0
N464 N 0.19196 0.16169 0.42115 0.0
N465 N 0.24889 0.16879 0.36393 0.0
H466 H 0.25899 0.80282 0.888 0.0
H467 H 0.32609 0.96633 0.91735 0.0
H468 H 0.23177 0.87404 0.84447 0.0
H469 H 0.3568 0.89652 0.96003 0.0
H470 H 0.28769 0.93248 0.89475 0.0
H471 H 0.29123 0.8364 0.91867 0.0
C472 C 0.25954 0.82547 0.88508 0.0
C473 C 0.24273 0.83557 0.86345 0.0
C474 C 0.30267 0.9245 0.90921 0.0
C475 C 0.27952 0.87406 0.89848 0.0
C476 C 0.32456 0.94388 0.92231 0.0
C477 C 0.34479 0.9343 0.94066 0.0
C478 C 0.30098 0.89519 0.91425 0.0
C479 C 0.34196 0.90485 0.94572 0.0
C480 C 0.27791 0.84461 0.90263 0.0
C481 C 0.24401 0.86515 0.861 0.0
N482 N 0.32054 0.88631 0.93247 0.0
N483 N 0.26226 0.88329 0.87808 0.0
H484 H 0.62677 0.47313 0.73895 0.0
H485 H 0.54441 0.44452 0.58556 0.0
H486 H 0.59953 0.38934 0.70228 0.0
H487 H 0.57338 0.52882 0.62029 0.0
H488 H 0.56474 0.42425 0.628 0.0
H489 H 0.60784 0.49393 0.69592 0.0
C490 C 0.61699 0.45901 0.72186 0.0
C491 C 0.61491 0.42925 0.72456 0.0
C492 C 0.56674 0.44719 0.62638 0.0
C493 C 0.5927 0.45323 0.67492 0.0
C494 C 0.55511 0.45887 0.60203 0.0
C495 C 0.55705 0.48856 0.59912 0.0
C496 C 0.58052 0.46519 0.64832 0.0
C497 C 0.57131 0.50585 0.6214 0.0
C498 C 0.606 0.47099 0.69727 0.0
C499 C 0.6014 0.4123 0.70165 0.0
N500 N 0.58238 0.49395 0.64498 0.0
N501 N 0.59091 0.42447 0.67796 0.0
H502 H 0.93346 0.65945 0.20012 0.0
H503 H 0.95731 0.51446 0.12057 0.0
H504 H 0.90526 0.57588 0.23733 0.0
H505 H 0.98852 0.5986 0.086 0.0
H506 H 0.93658 0.5362 0.1626 0.0
H507 H 0.9527 0.63731 0.15775 0.0
C508 C 0.93142 0.63646 0.19955 0.0
C509 C 0.91765 0.61964 0.2226 0.0
C510 C 0.94791 0.54989 0.14578 0.0
C511 C 0.93948 0.59393 0.17355 0.0
C512 C 0.95971 0.53747 0.12168 0.0
C513 C 0.97482 0.55463 0.09958 0.0
C514 C 0.95114 0.57976 0.1479 0.0
C515 C 0.9772 0.58439 0.10242 0.0
C516 C 0.94228 0.62378 0.17516 0.0
C517 C 0.91529 0.58983 0.22008 0.0
N518 N 0.96558 0.59592 0.12603 0.0
N519 N 0.92608 0.578 0.19612 0.0
H520 H 0.46068 0.19552 0.19186 0.0
H521 H 0.44678 0.09503 0.05092 0.0
H522 H 0.39743 0.19721 0.12395 0.0
H523 H 0.50166 0.08367 0.12381 0.0
H524 H 0.42998 0.13379 0.07692 0.0
H525 H 0.47785 0.15617 0.16659 0.0
C526 C 0.45043 0.18769 0.17163 0.0
C527 C 0.42755 0.19978 0.16003 0.0
C528 C 0.44561 0.1228 0.08735 0.0
C529 C 0.44722 0.15483 0.13097 0.0
C530 C 0.45523 0.10061 0.0725 0.0
C531 C 0.47571 0.08609 0.08519 0.0
C532 C 0.45664 0.13078 0.1151 0.0
C533 C 0.48577 0.09423 0.11326 0.0
C534 C 0.46027 0.16524 0.15722 0.0
C535 C 0.41541 0.18897 0.13352 0.0
N536 N 0.47624 0.11617 0.12724 0.0
N537 N 0.42535 0.16713 0.11997 0.0
H538 H 0.13894 0.86244 0.62611 0.0
H539 H 1.0002 0.93785 0.60398 0.0
H540 H 0.06013 0.84053 0.67744 0.0
H541 H 0.08621 0.97128 0.57037 0.0
H542 H 0.01997 0.89949 0.62799 0.0
H543 H 0.11775 0.89927 0.60148 0.0
C544 C 0.117 0.86514 0.63193 0.0
C545 C 0.10125 0.84835 0.65382 0.0
C546 C 0.03447 0.91532 0.61543 0.0
C547 C 0.07699 0.89082 0.62599 0.0
C548 C 0.02323 0.93722 0.60173 0.0
C549 C 0.04158 0.95787 0.58517 0.0
C550 C 0.06418 0.9139 0.61226 0.0
C551 C 0.07123 0.95594 0.58299 0.0
C552 C 0.10503 0.88637 0.61807 0.0
C553 C 0.0731 0.85316 0.66083 0.0
N554 N 0.08155 0.93429 0.59625 0.0
N555 N 0.06184 0.87395 0.64694 0.0
H556 H 0.79949 0.40203 0.95617 0.0
H557 H 0.93401 0.53055 0.97032 0.0
H558 H 0.81928 0.46748 0.8902 0.0
H559 H 0.93036 0.44947 1.01342 0.0
H560 H 0.88836 0.51146 0.94543 0.0
H561 H 0.84371 0.42269 0.9817 0.0
C562 C 0.81311 0.4206 0.94677 0.0
C563 C 0.80547 0.43259 0.92047 0.0
C564 C 0.89755 0.49791 0.96039 0.0
C565 C 0.85623 0.45705 0.95058 0.0
C566 C 0.92355 0.50882 0.97475 0.0
C567 C 0.93619 0.4916 0.99403 0.0
C568 C 0.88374 0.4697 0.96566 0.0
C569 C 0.9216 0.46354 0.9987 0.0
C570 C 0.83838 0.43252 0.96162 0.0
C571 C 0.82386 0.45741 0.91037 0.0
N572 N 0.89619 0.45356 0.98476 0.0
N573 N 0.84829 0.46877 0.92539 0.0
H574 H 0.73508 0.56738 0.41405 0.0
H575 H 0.59417 0.59817 0.50221 0.0
H576 H 0.71796 0.65144 0.43454 0.0
H577 H 0.60857 0.51312 0.48184 0.0
H578 H 0.64006 0.61755 0.47804 0.0
H579 H 0.68928 0.54672 0.4386 0.0
C580 C 0.72169 0.58152 0.42356 0.0
C581 C 0.73061 0.61126 0.42229 0.0
C582 C 0.63328 0.59463 0.47885 0.0
C583 C 0.67819 0.58769 0.45069 0.0
C584 C 0.60699 0.58349 0.49275 0.0
C585 C 0.59732 0.55389 0.49413 0.0
C586 C 0.65027 0.57617 0.46608 0.0
C587 C 0.61508 0.53607 0.48137 0.0
C588 C 0.69561 0.56968 0.43773 0.0
C589 C 0.71239 0.62843 0.43535 0.0
N590 N 0.64064 0.54748 0.46785 0.0
N591 N 0.68719 0.61642 0.44893 0.0
H592 H 0.25875 0.40826 0.18574 0.0
H593 H 0.12553 0.37611 0.07473 0.0
H594 H 0.24455 0.33495 0.1288 0.0
H595 H 0.13028 0.43657 0.14549 0.0
H596 H 0.17272 0.36493 0.08931 0.0
H597 H 0.21558 0.4235 0.16572 0.0
C598 C 0.24669 0.39547 0.16887 0.0
C599 C 0.25513 0.37009 0.1592 0.0
C600 C 0.16342 0.38065 0.10161 0.0
C601 C 0.20571 0.38748 0.13612 0.0
C602 C 0.13656 0.38707 0.09328 0.0
C603 C 0.12389 0.40711 0.1091 0.0
C604 C 0.17782 0.39459 0.12575 0.0
C605 C 0.13904 0.42063 0.133 0.0
C606 C 0.22205 0.40419 0.15745 0.0
C607 C 0.239 0.35473 0.13682 0.0
N608 N 0.1652 0.41414 0.14059 0.0
N609 N 0.21492 0.36354 0.12621 0.0
H610 H 0.58334 0.21184 0.87556 0.0
H611 H 0.57758 0.1207 1.02375 0.0
H612 H 0.62669 0.24271 0.95511 0.0
H613 H 0.52575 0.09147 0.94855 0.0
H614 H 0.597 0.16463 0.99775 0.0
H615 H 0.56271 0.16738 0.90085 0.0
C616 C 0.58844 0.20945 0.89833 0.0
C617 C 0.60711 0.23124 0.913 0.0
C618 C 0.5814 0.14865 0.98685 0.0
C619 C 0.58371 0.17997 0.94209 0.0
C620 C 0.57029 0.12339 1.00171 0.0
C621 C 0.54988 0.10211 0.98845 0.0
C622 C 0.57225 0.15295 0.95829 0.0
C623 C 0.5414 0.10715 0.95976 0.0
C624 C 0.57675 0.18392 0.91273 0.0
C625 C 0.61302 0.2265 0.94252 0.0
N626 N 0.55259 0.13197 0.94569 0.0
N627 N 0.60149 0.20153 0.95593 0.0
H628 H 0.95571 0.79676 0.44367 0.0
H629 H 0.93514 0.95601 0.47832 0.0
H630 H 0.90016 0.83914 0.39093 0.0
H631 H 0.01565 0.92597 0.49448 0.0
H632 H 0.91728 0.91137 0.45196 0.0
H633 H 0.97357 0.84209 0.46837 0.0
C634 C 0.94735 0.81567 0.43726 0.0
C635 C 0.92657 0.81426 0.41512 0.0
C636 C 0.93887 0.91469 0.46125 0.0
C637 C 0.94643 0.86607 0.4437 0.0
C638 C 0.94901 0.94005 0.4764 0.0
C639 C 0.977 0.94483 0.48852 0.0
C640 C 0.95656 0.89367 0.45886 0.0
C641 C 0.99404 0.92337 0.48531 0.0
C642 C 0.95756 0.84151 0.45131 0.0
C643 C 0.9164 0.83941 0.4077 0.0
N644 N 0.98349 0.89871 0.47105 0.0
N645 N 0.9262 0.86424 0.42215 0.0
H646 H 0.28042 0.65096 0.69609 0.0
H647 H 0.40565 0.66551 0.57349 0.0
H648 H 0.29156 0.71634 0.6297 0.0
H649 H 0.40561 0.61551 0.65197 0.0
H650 H 0.36016 0.67996 0.58989 0.0
H651 H 0.32239 0.63296 0.67596 0.0
C652 C 0.29161 0.66148 0.6772 0.0
C653 C 0.2826 0.68543 0.6648 0.0
C654 C 0.37013 0.66582 0.60349 0.0
C655 C 0.33061 0.66476 0.6415 0.0
C656 C 0.396 0.65752 0.59412 0.0
C657 C 0.40949 0.63945 0.61151 0.0
C658 C 0.35752 0.65573 0.63029 0.0
C659 C 0.39617 0.62982 0.63811 0.0
C660 C 0.31555 0.65115 0.6657 0.0
C661 C 0.29757 0.69774 0.6399 0.0
N662 N 0.37091 0.63804 0.64666 0.0
N663 N 0.32095 0.68737 0.62918 0.0
H664 H 0.79022 0.79885 0.71911 0.0
H665 H 0.80971 0.92877 0.60778 0.0
H666 H 0.71826 0.83565 0.68683 0.0
H667 H 0.8801 0.88792 0.63678 0.0
H668 H 0.77498 0.89112 0.63146 0.0
H669 H 0.82213 0.82658 0.68345 0.0
C670 C 0.78089 0.81224 0.70409 0.0
C671 C 0.75145 0.81507 0.70627 0.0
C672 C 0.798 0.89018 0.63233 0.0
C673 C 0.78834 0.84771 0.66579 0.0
C674 C 0.81783 0.91175 0.61895 0.0
C675 C 0.84787 0.91168 0.62062 0.0
C676 C 0.80828 0.86849 0.64769 0.0
C677 C 0.85715 0.88881 0.63486 0.0
C678 C 0.79929 0.82834 0.68385 0.0
C679 C 0.74092 0.83323 0.68641 0.0
N680 N 0.83746 0.86835 0.64814 0.0
N681 N 0.75943 0.84915 0.66727 0.0
H682 H 0.81191 0.16469 0.20568 0.0
H683 H 0.69313 0.14807 0.07995 0.0
H684 H 0.78432 0.23613 0.16295 0.0
H685 H 0.70832 0.08033 0.13733 0.0
H686 H 0.73491 0.1792 0.10136 0.0
H687 H 0.78342 0.13261 0.17122 0.0
C688 C 0.80046 0.17376 0.1886 0.0
C689 C 0.80025 0.20319 0.18747 0.0
C690 C 0.7293 0.15736 0.10887 0.0
C691 C 0.76692 0.16633 0.14831 0.0
C692 C 0.70537 0.1396 0.09678 0.0
C693 C 0.69677 0.1116 0.10715 0.0
C694 C 0.74483 0.14702 0.13138 0.0
C695 C 0.71403 0.10163 0.12845 0.0
C696 C 0.78393 0.15534 0.16908 0.0
C697 C 0.78462 0.21354 0.165 0.0
N698 N 0.73699 0.11941 0.14005 0.0
N699 N 0.76826 0.19509 0.14652 0.0
H700 H 0.41824 0.58131 0.31686 0.0
H701 H 0.46288 0.59263 0.4862 0.0
H702 H 0.41733 0.65708 0.36828 0.0
H703 H 0.4802 0.5252 0.42923 0.0
H704 H 0.4426 0.61489 0.44467 0.0
H705 H 0.43732 0.55898 0.35886 0.0
C706 C 0.42188 0.59327 0.337 0.0
C707 C 0.41604 0.62125 0.33881 0.0
C708 C 0.45079 0.59519 0.44127 0.0
C709 C 0.43813 0.59556 0.38741 0.0
C710 C 0.46229 0.58236 0.46506 0.0
C711 C 0.47337 0.55688 0.46141 0.0
C712 C 0.45001 0.58243 0.41349 0.0
C713 C 0.47205 0.5448 0.43328 0.0
C714 C 0.43298 0.58051 0.36101 0.0
C715 C 0.42171 0.63564 0.36559 0.0
N716 N 0.46059 0.55758 0.41057 0.0
N717 N 0.43227 0.62265 0.38875 0.0
H718 H 0.1161 0.46166 0.81742 0.0
H719 H 0.06911 0.44931 0.98677 0.0
H720 H 0.11436 0.38492 0.86784 0.0
H721 H 0.05506 0.51834 0.93076 0.0
H722 H 0.08946 0.42695 0.9449 0.0
H723 H 0.09748 0.48415 0.85995 0.0
C724 C 0.11197 0.44954 0.83747 0.0
C725 C 0.1169 0.42127 0.8389 0.0
C726 C 0.08197 0.44702 0.94181 0.0
C727 C 0.09535 0.44706 0.88799 0.0
C728 C 0.07045 0.45989 0.96578 0.0
C729 C 0.06026 0.48581 0.96243 0.0
C730 C 0.08362 0.46022 0.91424 0.0
C731 C 0.0625 0.49836 0.93452 0.0
C732 C 0.10115 0.46238 0.86176 0.0
C733 C 0.11066 0.40662 0.86552 0.0
N734 N 0.07393 0.48551 0.91165 0.0
N735 N 0.10035 0.41968 0.88896 0.0
H736 H 0.65492 0.88288 0.94829 0.0
H737 H 0.51133 0.9521 0.96727 0.0
H738 H 0.5766 0.85645 0.89882 0.0
H739 H 0.59408 0.98825 1.00493 0.0
H740 H 0.5343 0.91557 0.94376 0.0
H741 H 0.63216 0.91984 0.97165 0.0
C742 C 0.63284 0.88471 0.94254 0.0
C743 C 0.61761 0.86657 0.92159 0.0
C744 C 0.54747 0.93156 0.95706 0.0
C745 C 0.59156 0.90895 0.948 0.0
C746 C 0.53437 0.95245 0.97051 0.0
C747 C 0.55081 0.9733 0.98811 0.0
C748 C 0.57719 0.93131 0.9614 0.0
C749 C 0.58059 0.97267 0.99146 0.0
C750 C 0.61996 0.90595 0.95569 0.0
C751 C 0.58922 0.87015 0.91465 0.0
N752 N 0.5928 0.95191 0.97835 0.0
N753 N 0.5771 0.89089 0.92785 0.0
H754 H 0.96517 0.18865 0.37866 0.0
H755 H 0.94705 0.0857 0.51791 0.0
H756 H 0.89487 0.18259 0.4417 0.0
H757 H 0.01118 0.08137 0.4501 0.0
H758 H 0.93023 0.12375 0.49146 0.0
H759 H 0.98488 0.1521 0.40579 0.0
C760 C 0.95391 0.17976 0.39822 0.0
C761 C 0.92825 0.18878 0.40785 0.0
C762 C 0.94796 0.11453 0.48226 0.0
C763 C 0.95082 0.14708 0.43903 0.0
C764 C 0.95765 0.09272 0.49739 0.0
C765 C 0.98058 0.08019 0.4862 0.0
C766 C 0.96127 0.12414 0.45565 0.0
C767 C 0.99334 0.09029 0.45946 0.0
C768 C 0.96523 0.15893 0.41371 0.0
C769 C 0.91491 0.17675 0.43361 0.0
N770 N 0.98352 0.11174 0.44508 0.0
N771 N 0.92629 0.15652 0.44818 0.0
H772 H 0.24048 0.6378 0.09994 0.0
H773 H 0.09014 0.5266 0.10624 0.0
H774 H 0.20916 0.58904 0.17673 0.0
H775 H 0.11541 0.58331 0.03348 0.0
H776 H 0.13518 0.54685 0.13081 0.0
H777 H 0.19659 0.61603 0.07419 0.0
C778 C 0.22439 0.62263 0.11154 0.0
C779 C 0.22869 0.61556 0.14083 0.0
C780 C 0.13095 0.55488 0.10946 0.0
C781 C 0.1782 0.59002 0.11095 0.0
C782 C 0.10516 0.54327 0.09529 0.0
C783 C 0.09872 0.55326 0.06763 0.0
C784 C 0.15079 0.57668 0.09598 0.0
C785 C 0.11928 0.57491 0.05474 0.0
C786 C 0.19932 0.61006 0.09666 0.0
C787 C 0.20716 0.5951 0.15418 0.0
N788 N 0.1443 0.58588 0.069 0.0
N789 N 0.18293 0.58318 0.13921 0.0
H790 H 0.29106 0.40368 0.59618 0.0
H791 H 0.44113 0.51446 0.60407 0.0
H792 H 0.32177 0.45047 0.67384 0.0
H793 H 0.41873 0.45781 0.531 0.0
H794 H 0.3956 0.49376 0.6281 0.0
H795 H 0.33567 0.42538 0.57063 0.0
C796 C 0.30716 0.41839 0.608 0.0
C797 C 0.30247 0.42501 0.63745 0.0
C798 C 0.40056 0.48581 0.60681 0.0
C799 C 0.35367 0.45042 0.60787 0.0
C800 C 0.42664 0.49769 0.59294 0.0
C801 C 0.43402 0.48786 0.56536 0.0
C802 C 0.38135 0.46391 0.59311 0.0
C803 C 0.4141 0.46607 0.55223 0.0
C804 C 0.33262 0.43091 0.59325 0.0
C805 C 0.32403 0.44484 0.65114 0.0
N806 N 0.38871 0.45483 0.56621 0.0
N807 N 0.34859 0.45675 0.6363 0.0
H808 H 0.79967 0.72494 0.94927 0.0
H809 H 0.90804 0.61584 0.92201 0.0
H810 H 0.7804 0.65219 0.89196 0.0
H811 H 0.91497 0.67147 0.99693 0.0
H812 H 0.86174 0.63012 0.90997 0.0
H813 H 0.84169 0.70619 0.9675 0.0
C814 C 0.8039 0.70477 0.94089 0.0
C815 C 0.7866 0.6903 0.91876 0.0
C816 C 0.87328 0.63914 0.92913 0.0
C817 C 0.83511 0.66915 0.93904 0.0
C818 C 0.89983 0.6312 0.93584 0.0
C819 C 0.91544 0.64274 0.96032 0.0
C820 C 0.86237 0.65904 0.94683 0.0
C821 C 0.90356 0.66212 0.97785 0.0
C822 C 0.82805 0.69419 0.95118 0.0
C823 C 0.79348 0.66443 0.90851 0.0
N824 N 0.87782 0.6699 0.97061 0.0
N825 N 0.81736 0.65488 0.91848 0.0
H826 H 0.38913 0.81641 0.11639 0.0
H827 H 0.51097 0.95723 0.11364 0.0
H828 H 0.44997 0.83889 0.18659 0.0
H829 H 0.43612 0.94525 0.05746 0.0
H830 H 0.49119 0.91253 0.13853 0.0
H831 H 0.40819 0.86169 0.0927 0.0
C832 C 0.40631 0.83085 0.1271 0.0
C833 C 0.41757 0.82356 0.15396 0.0
C834 C 0.47902 0.91971 0.12084 0.0
C835 C 0.44018 0.87573 0.12609 0.0
C836 C 0.49033 0.94528 0.10652 0.0
C837 C 0.47523 0.95523 0.08332 0.0
C838 C 0.4525 0.90354 0.11178 0.0
C839 C 0.44852 0.93864 0.07526 0.0
C840 C 0.41733 0.85677 0.11333 0.0
C841 C 0.4406 0.84316 0.1659 0.0
N842 N 0.43815 0.91362 0.0893 0.0
N843 N 0.45109 0.8682 0.15192 0.0
H844 H 0.12248 0.23443 0.60936 0.0
H845 H 0.02127 0.08032 0.62211 0.0
H846 H 0.08243 0.20184 0.69064 0.0
H847 H 0.07215 0.11106 0.54578 0.0
H848 H 0.04082 0.12504 0.64728 0.0
H849 H 0.10145 0.19007 0.5855 0.0
C850 C 0.10939 0.21789 0.62233 0.0
C851 C 0.10465 0.22194 0.65228 0.0
C852 C 0.04768 0.12192 0.62504 0.0
C853 C 0.07988 0.17072 0.62466 0.0
C854 C 0.03653 0.09638 0.61062 0.0
C855 C 0.04505 0.09174 0.58172 0.0
C856 C 0.06737 0.14311 0.61041 0.0
C857 C 0.06491 0.11345 0.56803 0.0
C858 C 0.09722 0.19251 0.60857 0.0
C859 C 0.08667 0.19984 0.66753 0.0
N860 N 0.07526 0.13806 0.58243 0.0
N861 N 0.07505 0.17517 0.6536 0.0
H862 H 0.75947 0.36527 0.41942 0.0
H863 H 0.58662 0.34832 0.44158 0.0
H864 H 0.69739 0.29928 0.37909 0.0
H865 H 0.64627 0.42495 0.46411 0.0
H866 H 0.62776 0.3271 0.42449 0.0
H867 H 0.71896 0.38439 0.4421 0.0
C868 C 0.73734 0.3547 0.41555 0.0
C869 C 0.73174 0.33083 0.39715 0.0
C870 C 0.63186 0.34853 0.43328 0.0
C871 C 0.68543 0.35247 0.42296 0.0
C872 C 0.60834 0.36073 0.44293 0.0
C873 C 0.61286 0.38862 0.45408 0.0
C874 C 0.66023 0.3642 0.43485 0.0
C875 C 0.64167 0.40333 0.45593 0.0
C876 C 0.71425 0.36568 0.42835 0.0
C877 C 0.70265 0.318 0.39275 0.0
N878 N 0.66423 0.39099 0.4463 0.0
N879 N 0.68063 0.32898 0.40552 0.0
loop_
_geom_bond_atom_site_label_1
_geom_bond_atom_site_label_2
_geom_bond_distance
_geom_bond_site_symmetry_2
_ccdc_geom_bond_type
C0 C1 1.384 . S
C0 H13 0.947 . S
C0 C35 1.382 . S
C1 C0 1.384 . S
C1 C2 1.378 . S
C2 C1 1.378 . S
C2 C3 1.378 . S
C2 H14 0.952 . S
C3 C2 1.378 . S
C3 H15 0.950 . S
C3 C34 1.383 . S
H4 C23 0.947 . S
H5 C24 0.946 . S
H6 C26 0.953 . S
H7 C27 0.945 . S
H8 C29 0.952 . S
H9 C30 0.949 . S
H10 C32 0.950 . S
H11 C33 0.948 . S
H12 C35 0.951 . S
H13 C0 0.947 . S
H14 C2 0.952 . S
H15 C3 0.950 . S
N16 C19 1.382 . S
N16 C21 1.363 . S
N17 C19 1.371 . S
N17 C20 1.372 . S
N18 C20 1.361 . S
N18 C21 1.377 . S
C19 N16 1.382 . S
C19 N17 1.371 . S
C19 C22 1.480 . S
C20 N17 1.372 . S
C20 N18 1.361 . S
C20 C28 1.457 . S
C21 N16 1.363 . S
C21 N18 1.377 . S
C21 C34 1.479 . S
C22 C19 1.480 . S
C22 C23 1.383 . S
C22 C27 1.385 . S
C23 H4 0.947 . S
C23 C22 1.383 . S
C23 C24 1.388 . S
C24 H5 0.946 . S
C24 C23 1.388 . S
C24 C25 1.384 . S
C25 C24 1.384 . S
C25 C26 1.377 . S
C26 H6 0.953 . S
C26 C25 1.377 . S
C26 C27 1.369 . S
C27 H7 0.945 . S
C27 C22 1.385 . S
C27 C26 1.369 . S
C28 C20 1.457 . S
C28 C29 1.372 . S
C28 C33 1.364 . S
C29 H8 0.952 . S
C29 C28 1.372 . S
C29 C30 1.389 . S
C30 H9 0.949 . S
C30 C29 1.389 . S
C30 C31 1.387 . S
C31 C30 1.387 . S
C31 C32 1.372 . S
C32 H10 0.950 . S
C32 C31 1.372 . S
C32 C33 1.379 . S
C33 H11 0.948 . S
C33 C28 1.364 . S
C33 C32 1.379 . S
C34 C3 1.383 . S
C34 C21 1.479 . S
C34 C35 1.398 . S
C35 C0 1.382 . S
C35 H12 0.951 . S
C35 C34 1.398 . S
C36 C37 1.384 . S
C36 H49 0.947 . S
C36 C71 1.382 . S
C37 C36 1.384 . S
C37 C38 1.378 . S
C38 C37 1.378 . S
C38 C39 1.378 . S
C38 H50 0.952 . S
C39 C38 1.378 . S
C39 H51 0.950 . S
C39 C70 1.383 . S
H40 C59 0.947 . S
H41 C60 0.946 . S
H42 C62 0.953 . S
H43 C63 0.945 . S
H44 C65 0.952 . S
H45 C66 0.949 . S
H46 C68 0.950 . S
H47 C69 0.948 . S
H48 C71 0.951 . S
H49 C36 0.947 . S
H50 C38 0.952 . S
H51 C39 0.950 . S
N52 C55 1.382 . S
N52 C57 1.363 . S
N53 C55 1.371 . S
N53 C56 1.372 . S
N54 C56 1.361 . S
N54 C57 1.377 . S
C55 N52 1.382 . S
C55 N53 1.371 . S
C55 C58 1.480 . S
C56 N53 1.372 . S
C56 N54 1.361 . S
C56 C64 1.457 . S
C57 N52 1.363 . S
C57 N54 1.377 . S
C57 C70 1.479 . S
C58 C55 1.480 . S
C58 C59 1.383 . S
C58 C63 1.385 . S
C59 H40 0.947 . S
C59 C58 1.383 . S
C59 C60 1.388 . S
C60 H41 0.946 . S
C60 C59 1.388 . S
C60 C61 1.384 . S
C61 C60 1.384 . S
C61 C62 1.377 . S
C62 H42 0.953 . S
C62 C61 1.377 . S
C62 C63 1.369 . S
C63 H43 0.945 . S
C63 C58 1.385 . S
C63 C62 1.369 . S
C64 C56 1.457 . S
C64 C65 1.372 . S
C64 C69 1.364 . S
C65 H44 0.952 . S
C65 C64 1.372 . S
C65 C66 1.389 . S
C66 H45 0.949 . S
C66 C65 1.389 . S
C66 C67 1.387 . S
C67 C66 1.387 . S
C67 C68 1.372 . S
C68 H46 0.950 . S
C68 C67 1.372 . S
C68 C69 1.379 . S
C69 H47 0.948 . S
C69 C64 1.364 . S
C69 C68 1.379 . S
C70 C39 1.383 . S
C70 C57 1.479 . S
C70 C71 1.398 . S
C71 C36 1.382 . S
C71 H48 0.951 . S
C71 C70 1.398 . S
C72 C73 1.384 . S
C72 H85 0.947 . S
C72 C107 1.382 . S
C73 C72 1.384 . S
C73 C74 1.378 . S
C74 C73 1.378 . S
C74 C75 1.378 . S
C74 H86 0.952 . S
C75 C74 1.378 . S
C75 H87 0.950 . S
C75 C106 1.383 . S
H76 C95 0.947 . S
H77 C96 0.946 . S
H78 C98 0.953 . S
H79 C99 0.945 . S
H80 C101 0.952 . S
H81 C102 0.949 . S
H82 C104 0.950 . S
H83 C105 0.948 . S
H84 C107 0.951 . S
H85 C72 0.947 . S
H86 C74 0.952 . S
H87 C75 0.950 . S
N88 C91 1.382 . S
N88 C93 1.363 . S
N89 C91 1.371 . S
N89 C92 1.372 . S
N90 C92 1.361 . S
N90 C93 1.377 . S
C91 N88 1.382 . S
C91 N89 1.371 . S
C91 C94 1.480 . S
C92 N89 1.372 . S
C92 N90 1.361 . S
C92 C100 1.457 . S
C93 N88 1.363 . S
C93 N90 1.377 . S
C93 C106 1.479 . S
C94 C91 1.480 . S
C94 C95 1.383 . S
C94 C99 1.385 . S
C95 H76 0.947 . S
C95 C94 1.383 . S
C95 C96 1.388 . S
C96 H77 0.946 . S
C96 C95 1.388 . S
C96 C97 1.384 . S
C97 C96 1.384 . S
C97 C98 1.377 . S
C98 H78 0.953 . S
C98 C97 1.377 . S
C98 C99 1.369 . S
C99 H79 0.945 . S
C99 C94 1.385 . S
C99 C98 1.369 . S
C100 C92 1.457 . S
C100 C101 1.372 . S
C100 C105 1.364 . S
C101 H80 0.952 . S
C101 C100 1.372 . S
C101 C102 1.389 . S
C102 H81 0.949 . S
C102 C101 1.389 . S
C102 C103 1.387 . S
C103 C102 1.387 . S
C103 C104 1.372 . S
C104 H82 0.950 . S
C104 C103 1.372 . S
C104 C105 1.379 . S
C105 H83 0.948 . S
C105 C100 1.364 . S
C105 C104 1.379 . S
C106 C75 1.383 . S
C106 C93 1.479 . S
C106 C107 1.398 . S
C107 C72 1.382 . S
C107 H84 0.951 . S
C107 C106 1.398 . S
C108 C109 1.384 . S
C108 H121 0.947 . S
C108 C143 1.382 . S
C109 C108 1.384 . S
C109 C110 1.378 . S
C110 C109 1.378 . S
C110 C111 1.378 . S
C110 H122 0.952 . S
C111 C110 1.378 . S
C111 H123 0.950 . S
C111 C142 1.383 . S
H112 C131 0.947 . S
H113 C132 0.946 . S
H114 C134 0.953 . S
H115 C135 0.945 . S
H116 C137 0.952 . S
H117 C138 0.949 . S
H118 C140 0.950 . S
H119 C141 0.948 . S
H120 C143 0.951 . S
H121 C108 0.947 . S
H122 C110 0.952 . S
H123 C111 0.950 . S
N124 C127 1.382 . S
N124 C129 1.363 . S
N125 C127 1.371 . S
N125 C128 1.372 . S
N126 C128 1.361 . S
N126 C129 1.377 . S
C127 N124 1.382 . S
C127 N125 1.371 . S
C127 C130 1.480 . S
C128 N125 1.372 . S
C128 N126 1.361 . S
C128 C136 1.457 . S
C129 N124 1.363 . S
C129 N126 1.377 . S
C129 C142 1.479 . S
C130 C127 1.480 . S
C130 C131 1.383 . S
C130 C135 1.385 . S
C131 H112 0.947 . S
C131 C130 1.383 . S
C131 C132 1.388 . S
C132 H113 0.946 . S
C132 C131 1.388 . S
C132 C133 1.384 . S
C133 C132 1.384 . S
C133 C134 1.377 . S
C134 H114 0.953 . S
C134 C133 1.377 . S
C134 C135 1.369 . S
C135 H115 0.945 . S
C135 C130 1.385 . S
C135 C134 1.369 . S
C136 C128 1.457 . S
C136 C137 1.372 . S
C136 C141 1.364 . S
C137 H116 0.952 . S
C137 C136 1.372 . S
C137 C138 1.389 . S
C138 H117 0.949 . S
C138 C137 1.389 . S
C138 C139 1.387 . S
C139 C138 1.387 . S
C139 C140 1.372 . S
C140 H118 0.950 . S
C140 C139 1.372 . S
C140 C141 1.379 . S
C141 H119 0.948 . S
C141 C136 1.364 . S
C141 C140 1.379 . S
C142 C111 1.383 . S
C142 C129 1.479 . S
C142 C143 1.398 . S
C143 C108 1.382 . S
C143 H120 0.951 . S
C143 C142 1.398 . S
C144 C145 1.384 . S
C144 H157 0.947 . S
C144 C179 1.382 . S
C145 C144 1.384 . S
C145 C146 1.378 . S
C146 C145 1.378 . S
C146 C147 1.378 . S
C146 H158 0.952 . S
C147 C146 1.378 . S
C147 H159 0.950 . S
C147 C178 1.383 . S
H148 C167 0.947 . S
H149 C168 0.946 . S
H150 C170 0.953 . S
H151 C171 0.945 . S
H152 C173 0.952 . S
H153 C174 0.949 . S
H154 C176 0.950 . S
H155 C177 0.948 . S
H156 C179 0.951 . S
H157 C144 0.947 . S
H158 C146 0.952 . S
H159 C147 0.950 . S
N160 C163 1.382 . S
N160 C165 1.363 . S
N161 C163 1.371 . S
N161 C164 1.372 . S
N162 C164 1.361 . S
N162 C165 1.377 . S
C163 N160 1.382 . S
C163 N161 1.371 . S
C163 C166 1.480 . S
C164 N161 1.372 . S
C164 N162 1.361 . S
C164 C172 1.457 . S
C165 N160 1.363 . S
C165 N162 1.377 . S
C165 C178 1.479 . S
C166 C163 1.480 . S
C166 C167 1.383 . S
C166 C171 1.385 . S
C167 H148 0.947 . S
C167 C166 1.383 . S
C167 C168 1.388 . S
C168 H149 0.946 . S
C168 C167 1.388 . S
C168 C169 1.384 . S
C169 C168 1.384 . S
C169 C170 1.377 . S
C170 H150 0.953 . S
C170 C169 1.377 . S
C170 C171 1.369 . S
C171 H151 0.945 . S
C171 C166 1.385 . S
C171 C170 1.369 . S
C172 C164 1.457 . S
C172 C173 1.372 . S
C172 C177 1.364 . S
C173 H152 0.952 . S
C173 C172 1.372 . S
C173 C174 1.389 . S
C174 H153 0.949 . S
C174 C173 1.389 . S
C174 C175 1.387 . S
C175 C174 1.387 . S
C175 C176 1.372 . S
C176 H154 0.950 . S
C176 C175 1.372 . S
C176 C177 1.379 . S
C177 H155 0.948 . S
C177 C172 1.364 . S
C177 C176 1.379 . S
C178 C147 1.383 . S
C178 C165 1.479 . S
C178 C179 1.398 . S
C179 C144 1.382 . S
C179 H156 0.951 . S
C179 C178 1.398 . S
C180 C181 1.384 . S
C180 H193 0.947 . S
C180 C215 1.382 . S
C181 C180 1.384 . S
C181 C182 1.378 . S
C182 C181 1.378 . S
C182 C183 1.378 . S
C182 H194 0.952 . S
C183 C182 1.378 . S
C183 H195 0.950 . S
C183 C214 1.383 . S
H184 C203 0.947 . S
H185 C204 0.946 . S
H186 C206 0.953 . S
H187 C207 0.945 . S
H188 C209 0.952 . S
H189 C210 0.949 . S
H190 C212 0.950 . S
H191 C213 0.948 . S
H192 C215 0.951 . S
H193 C180 0.947 . S
H194 C182 0.952 . S
H195 C183 0.950 . S
N196 C199 1.382 . S
N196 C201 1.363 . S
N197 C199 1.371 . S
N197 C200 1.372 . S
N198 C200 1.361 . S
N198 C201 1.377 . S
C199 N196 1.382 . S
C199 N197 1.371 . S
C199 C202 1.480 . S
C200 N197 1.372 . S
C200 N198 1.361 . S
C200 C208 1.457 . S
C201 N196 1.363 . S
C201 N198 1.377 . S
C201 C214 1.479 . S
C202 C199 1.480 . S
C202 C203 1.383 . S
C202 C207 1.385 . S
C203 H184 0.947 . S
C203 C202 1.383 . S
C203 C204 1.388 . S
C204 H185 0.946 . S
C204 C203 1.388 . S
C204 C205 1.384 . S
C205 C204 1.384 . S
C205 C206 1.377 . S
C206 H186 0.953 . S
C206 C205 1.377 . S
C206 C207 1.369 . S
C207 H187 0.945 . S
C207 C202 1.385 . S
C207 C206 1.369 . S
C208 C200 1.457 . S
C208 C209 1.372 . S
C208 C213 1.364 . S
C209 H188 0.952 . S
C209 C208 1.372 . S
C209 C210 1.389 . S
C210 H189 0.949 . S
C210 C209 1.389 . S
C210 C211 1.387 . S
C211 C210 1.387 . S
C211 C212 1.372 . S
C212 H190 0.950 . S
C212 C211 1.372 . S
C212 C213 1.379 . S
C213 H191 0.948 . S
C213 C208 1.364 . S
C213 C212 1.379 . S
C214 C183 1.383 . S
C214 C201 1.479 . S
C214 C215 1.398 . S
C215 C180 1.382 . S
C215 H192 0.951 . S
C215 C214 1.398 . S
C216 C217 1.384 . S
C216 H229 0.947 . S
C216 C251 1.382 . S
C217 C216 1.384 . S
C217 C218 1.378 . S
C218 C217 1.378 . S
C218 C219 1.378 . S
C218 H230 0.952 . S
C219 C218 1.378 . S
C219 H231 0.950 . S
C219 C250 1.383 . S
H220 C239 0.947 . S
H221 C240 0.946 . S
H222 C242 0.953 . S
H223 C243 0.945 . S
H224 C245 0.952 . S
H225 C246 0.949 . S
H226 C248 0.950 . S
H227 C249 0.948 . S
H228 C251 0.951 . S
H229 C216 0.947 . S
H230 C218 0.952 . S
H231 C219 0.950 . S
N232 C235 1.382 . S
N232 C237 1.363 . S
N233 C235 1.371 . S
N233 C236 1.372 . S
N234 C236 1.361 . S
N234 C237 1.377 . S
C235 N232 1.382 . S
C235 N233 1.371 . S
C235 C238 1.480 . S
C236 N233 1.372 . S
C236 N234 1.361 . S
C236 C244 1.457 . S
C237 N232 1.363 . S
C237 N234 1.377 . S
C237 C250 1.479 . S
C238 C235 1.480 . S
C238 C239 1.383 . S
C238 C243 1.385 . S
C239 H220 0.947 . S
C239 C238 1.383 . S
C239 C240 1.388 . S
C240 H221 0.946 . S
C240 C239 1.388 . S
C240 C241 1.384 . S
C241 C240 1.384 . S
C241 C242 1.377 . S
C242 H222 0.953 . S
C242 C241 1.377 . S
C242 C243 1.369 . S
C243 H223 0.945 . S
C243 C238 1.385 . S
C243 C242 1.369 . S
C244 C236 1.457 . S
C244 C245 1.372 . S
C244 C249 1.364 . S
C245 H224 0.952 . S
C245 C244 1.372 . S
C245 C246 1.389 . S
C246 H225 0.949 . S
C246 C245 1.389 . S
C246 C247 1.387 . S
C247 C246 1.387 . S
C247 C248 1.372 . S
C248 H226 0.950 . S
C248 C247 1.372 . S
C248 C249 1.379 . S
C249 H227 0.948 . S
C249 C244 1.364 . S
C249 C248 1.379 . S
C250 C219 1.383 . S
C250 C237 1.479 . S
C250 C251 1.398 . S
C251 C216 1.382 . S
C251 H228 0.951 . S
C251 C250 1.398 . S
C252 C253 1.384 . S
C252 H265 0.947 . S
C252 C287 1.382 . S
C253 C252 1.384 . S
C253 C254 1.378 . S
C254 C253 1.378 . S
C254 C255 1.378 . S
C254 H266 0.952 . S
C255 C254 1.378 . S
C255 H267 0.950 . S
C255 C286 1.383 . S
H256 C275 0.947 . S
H257 C276 0.946 . S
H258 C278 0.953 . S
H259 C279 0.945 . S
H260 C281 0.952 . S
H261 C282 0.949 . S
H262 C284 0.950 . S
H263 C285 0.948 . S
H264 C287 0.951 . S
H265 C252 0.947 . S
H266 C254 0.952 . S
H267 C255 0.950 . S
N268 C271 1.382 . S
N268 C273 1.363 . S
N269 C271 1.371 . S
N269 C272 1.372 . S
N270 C272 1.361 . S
N270 C273 1.377 . S
C271 N268 1.382 . S
C271 N269 1.371 . S
C271 C274 1.480 . S
C272 N269 1.372 . S
C272 N270 1.361 . S
C272 C280 1.457 . S
C273 N268 1.363 . S
C273 N270 1.377 . S
C273 C286 1.479 . S
C274 C271 1.480 . S
C274 C275 1.383 . S
C274 C279 1.385 . S
C275 H256 0.947 . S
C275 C274 1.383 . S
C275 C276 1.388 . S
C276 H257 0.946 . S
C276 C275 1.388 . S
C276 C277 1.384 . S
C277 C276 1.384 . S
C277 C278 1.377 . S
C278 H258 0.953 . S
C278 C277 1.377 . S
C278 C279 1.369 . S
C279 H259 0.945 . S
C279 C274 1.385 . S
C279 C278 1.369 . S
C280 C272 1.457 . S
C280 C281 1.372 . S
C280 C285 1.364 . S
C281 H260 0.952 . S
C281 C280 1.372 . S
C281 C282 1.389 . S
C282 H261 0.949 . S
C282 C281 1.389 . S
C282 C283 1.387 . S
C283 C282 1.387 . S
C283 C284 1.372 . S
C284 H262 0.950 . S
C284 C283 1.372 . S
C284 C285 1.379 . S
C285 H263 0.948 . S
C285 C280 1.364 . S
C285 C284 1.379 . S
C286 C255 1.383 . S
C286 C273 1.479 . S
C286 C287 1.398 . S
C287 C252 1.382 . S
C287 H264 0.951 . S
C287 C286 1.398 . S
Tb288 C297 2.764 . S
Tb288 O298 2.308 1_455 S
Tb288 O301 2.303 . S
Tb288 O305 2.322 1_545 S
Tb288 O306 2.349 1_545 S
Tb288 O309 2.415 . S
Tb288 O310 2.399 . S
Tb289 O299 2.343 . S
Tb289 O300 2.374 . S
Tb289 O302 2.389 1_545 S
Tb289 O303 2.396 1_545 S
Tb289 O304 2.308 1_645 S
Tb289 O307 2.284 1_545 S
Tb289 C318 2.748 1_545 S
C290 O306 1.261 1_655 S
C290 O307 1.257 . S
C291 C294 1.358 . S
C291 C295 1.332 . S
C291 C297 1.504 . S
C292 C293 1.373 . S
C292 C296 1.308 . S
C293 C292 1.373 . S
C293 C294 1.429 . S
C293 H320 0.932 . S
C294 C291 1.358 . S
C294 C293 1.429 . S
C294 H321 0.930 . S
C295 C291 1.332 . S
C295 C296 1.394 . S
C295 H322 0.932 . S
C296 C292 1.308 . S
C296 C295 1.394 . S
C296 H323 0.929 . S
C297 Tb288 2.764 . S
C297 C291 1.504 . S
C297 O309 1.239 . S
C297 O310 1.263 . S
O298 Tb288 2.308 1_655 S
O298 C308 1.253 . S
O299 Tb289 2.343 . S
O299 C308 1.257 . S
O300 Tb289 2.374 . S
O300 C311 1.261 1_655 S
O301 Tb288 2.303 . S
O301 C311 1.257 . S
O302 Tb289 2.389 1_565 S
O302 C318 1.239 . S
O303 Tb289 2.396 1_565 S
O303 C318 1.263 . S
O304 Tb289 2.308 1_465 S
O304 C319 1.236 . S
O305 Tb288 2.322 1_565 S
O305 C319 1.257 . S
O306 Tb288 2.349 1_565 S
O306 C290 1.261 1_455 S
O307 Tb289 2.284 1_565 S
O307 C290 1.257 . S
C308 O298 1.253 . S
C308 O299 1.257 . S
O309 Tb288 2.415 . S
O309 C297 1.239 . S
O310 Tb288 2.399 . S
O310 C297 1.263 . S
C311 O300 1.261 1_455 S
C311 O301 1.257 . S
C312 C315 1.358 . S
C312 C316 1.332 . S
C312 C318 1.504 . S
C313 C314 1.373 . S
C313 C317 1.308 . S
C314 C313 1.373 . S
C314 C315 1.429 . S
C314 H324 0.932 . S
C315 C312 1.358 . S
C315 C314 1.429 . S
C315 H325 0.930 . S
C316 C312 1.332 . S
C316 C317 1.394 . S
C316 H326 0.932 . S
C317 C313 1.308 . S
C317 C316 1.394 . S
C317 H327 0.929 . S
C318 Tb289 2.748 1_565 S
C318 O302 1.239 . S
C318 O303 1.263 . S
C318 C312 1.504 . S
C319 O304 1.236 . S
C319 O305 1.257 . S
H320 C293 0.932 . S
H321 C294 0.930 . S
H322 C295 0.932 . S
H323 C296 0.929 . S
H324 C314 0.932 . S
H325 C315 0.930 . S
H326 C316 0.932 . S
H327 C317 0.929 . S
Tb328 C337 2.764 . S
Tb328 O338 2.325 1_554 S
Tb328 O341 2.303 . S
Tb328 O345 2.322 1_545 S
Tb328 O346 2.360 1_545 S
Tb328 O349 2.415 . S
Tb328 O350 2.399 . S
Tb329 O339 2.290 1_565 S
Tb329 O340 2.325 1_566 S
Tb329 O342 2.449 . S
Tb329 O343 2.410 . S
Tb329 O344 2.354 1_556 S
Tb329 O347 2.322 . S
Tb329 C358 2.789 . S
C330 O346 1.248 1_556 S
C330 O347 1.257 . S
C331 C334 1.358 . S
C331 C335 1.332 . S
C331 C337 1.504 . S
C332 C333 1.373 . S
C332 C336 1.308 . S
C333 C332 1.373 . S
C333 C334 1.429 . S
C333 H360 0.932 . S
C334 C331 1.358 . S
C334 C333 1.429 . S
C334 H361 0.930 . S
C335 C331 1.332 . S
C335 C336 1.394 . S
C335 H362 0.932 . S
C336 C332 1.308 . S
C336 C335 1.394 . S
C336 H363 0.929 . S
C337 Tb328 2.764 . S
C337 C331 1.504 . S
C337 O349 1.239 . S
C337 O350 1.263 . S
O338 Tb328 2.325 1_556 S
O338 C348 1.236 . S
O339 Tb329 2.290 1_545 S
O339 C348 1.257 . S
O340 Tb329 2.325 1_544 S
O340 C351 1.261 . S
O341 Tb328 2.303 . S
O341 C351 1.257 . S
O342 Tb329 2.449 . S
O342 C358 1.239 . S
O343 Tb329 2.410 . S
O343 C358 1.263 . S
O344 Tb329 2.354 1_554 S
O344 C359 1.236 . S
O345 Tb328 2.322 1_565 S
O345 C359 1.257 . S
O346 Tb328 2.360 1_565 S
O346 C330 1.248 1_554 S
O347 Tb329 2.322 . S
O347 C330 1.257 . S
C348 O338 1.236 . S
C348 O339 1.257 . S
O349 Tb328 2.415 . S
O349 C337 1.239 . S
O350 Tb328 2.399 . S
O350 C337 1.263 . S
C351 O340 1.261 . S
C351 O341 1.257 . S
C352 C355 1.358 . S
C352 C356 1.332 . S
C352 C358 1.504 . S
C353 C354 1.373 . S
C353 C357 1.308 . S
C354 C353 1.373 . S
C354 C355 1.429 . S
C354 H364 0.932 . S
C355 C352 1.358 . S
C355 C354 1.429 . S
C355 H365 0.930 . S
C356 C352 1.332 . S
C356 C357 1.394 . S
C356 H366 0.932 . S
C357 C353 1.308 . S
C357 C356 1.394 . S
C357 H367 0.929 . S
C358 Tb329 2.789 . S
C358 O342 1.239 . S
C358 O343 1.263 . S
C358 C352 1.504 . S
C359 O344 1.236 . S
C359 O345 1.257 . S
H360 C333 0.932 . S
H361 C334 0.930 . S
H362 C335 0.932 . S
H363 C336 0.929 . S
H364 C354 0.932 . S
H365 C355 0.930 . S
H366 C356 0.932 . S
H367 C357 0.929 . S
Tb368 C377 2.764 . S
Tb368 O378 2.325 . S
Tb368 O381 2.303 . S
Tb368 O385 2.322 . S
Tb368 O386 2.349 . S
Tb368 O389 2.415 . S
Tb368 O390 2.399 . S
Tb369 O379 2.322 . S
Tb369 O380 2.349 . S
Tb369 O382 2.415 . S
Tb369 O383 2.399 . S
Tb369 O384 2.325 . S
Tb369 O387 2.303 . S
Tb369 C398 2.764 . S
C370 O386 1.261 . S
C370 O387 1.257 . S
C371 C374 1.358 . S
C371 C375 1.332 . S
C371 C377 1.504 . S
C372 C373 1.373 . S
C372 C376 1.308 . S
C373 C372 1.373 . S
C373 C374 1.429 . S
C373 H400 0.932 . S
C374 C371 1.358 . S
C374 C373 1.429 . S
C374 H401 0.930 . S
C375 C371 1.332 . S
C375 C376 1.394 . S
C375 H402 0.932 . S
C376 C372 1.308 . S
C376 C375 1.394 . S
C376 H403 0.929 . S
C377 Tb368 2.764 . S
C377 C371 1.504 . S
C377 O389 1.239 . S
C377 O390 1.263 . S
O378 Tb368 2.325 . S
O378 C388 1.236 . S
O379 Tb369 2.322 . S
O379 C388 1.257 . S
O380 Tb369 2.349 . S
O380 C391 1.261 . S
O381 Tb368 2.303 . S
O381 C391 1.257 . S
O382 Tb369 2.415 . S
O382 C398 1.239 . S
O383 Tb369 2.399 . S
O383 C398 1.263 . S
O384 Tb369 2.325 . S
O384 C399 1.236 . S
O385 Tb368 2.322 . S
O385 C399 1.257 . S
O386 Tb368 2.349 . S
O386 C370 1.261 . S
O387 Tb369 2.303 . S
O387 C370 1.257 . S
C388 O378 1.236 . S
C388 O379 1.257 . S
O389 Tb368 2.415 . S
O389 C377 1.239 . S
O390 Tb368 2.399 . S
O390 C377 1.263 . S
C391 O380 1.261 . S
C391 O381 1.257 . S
C392 C395 1.358 . S
C392 C396 1.332 . S
C392 C398 1.504 . S
C393 C394 1.373 . S
C393 C397 1.308 . S
C394 C393 1.373 . S
C394 C395 1.429 . S
C394 H404 0.932 . S
C395 C392 1.358 . S
C395 C394 1.429 . S
C395 H405 0.930 . S
C396 C392 1.332 . S
C396 C397 1.394 . S
C396 H406 0.932 . S
C397 C393 1.308 . S
C397 C396 1.394 . S
C397 H407 0.929 . S
C398 Tb369 2.764 . S
C398 O382 1.239 . S
C398 O383 1.263 . S
C398 C392 1.504 . S
C399 O384 1.236 . S
C399 O385 1.257 . S
H400 C373 0.932 . S
H401 C374 0.930 . S
H402 C375 0.932 . S
H403 C376 0.929 . S
H404 C394 0.932 . S
H405 C395 0.930 . S
H406 C396 0.932 . S
H407 C397 0.929 . S
Tb408 C417 2.764 1_455 S
Tb408 O418 2.325 1_455 S
Tb408 O421 2.303 1_456 S
Tb408 O425 2.322 1_556 S
Tb408 O426 2.349 . S
Tb408 O429 2.415 1_455 S
Tb408 O430 2.399 1_455 S
Tb409 O419 2.322 1_455 S
Tb409 O420 2.349 1_455 S
Tb409 O422 2.415 . S
Tb409 O423 2.399 . S
Tb409 O424 2.325 . S
Tb409 O427 2.303 1_554 S
Tb409 C438 2.764 . S
C410 O426 1.261 . S
C410 O427 1.257 . S
C411 C414 1.358 . S
C411 C415 1.332 . S
C411 C417 1.504 . S
C412 C413 1.373 . S
C412 C416 1.308 . S
C413 C412 1.373 . S
C413 C414 1.429 . S
C413 H440 0.932 . S
C414 C411 1.358 . S
C414 C413 1.429 . S
C414 H441 0.930 . S
C415 C411 1.332 . S
C415 C416 1.394 . S
C415 H442 0.932 . S
C416 C412 1.308 . S
C416 C415 1.394 . S
C416 H443 0.929 . S
C417 Tb408 2.764 1_655 S
C417 C411 1.504 . S
C417 O429 1.239 . S
C417 O430 1.263 . S
O418 Tb408 2.325 1_655 S
O418 C428 1.236 . S
O419 Tb409 2.322 1_655 S
O419 C428 1.257 1_554 S
O420 Tb409 2.349 1_655 S
O420 C431 1.261 . S
O421 Tb408 2.303 1_654 S
O421 C431 1.257 . S
O422 Tb409 2.415 . S
O422 C438 1.239 . S
O423 Tb409 2.399 . S
O423 C438 1.263 . S
O424 Tb409 2.325 . S
O424 C439 1.236 . S
O425 Tb408 2.322 1_554 S
O425 C439 1.257 . S
O426 Tb408 2.349 . S
O426 C410 1.261 . S
O427 Tb409 2.303 1_556 S
O427 C410 1.257 . S
C428 O418 1.236 . S
C428 O419 1.257 1_556 S
O429 Tb408 2.415 1_655 S
O429 C417 1.239 . S
O430 Tb408 2.399 1_655 S
O430 C417 1.263 . S
C431 O420 1.261 . S
C431 O421 1.257 . S
C432 C435 1.358 . S
C432 C436 1.332 . S
C432 C438 1.504 . S
C433 C434 1.373 . S
C433 C437 1.308 . S
C434 C433 1.373 . S
C434 C435 1.429 . S
C434 H444 0.932 . S
C435 C432 1.358 . S
C435 C434 1.429 . S
C435 H445 0.930 . S
C436 C432 1.332 . S
C436 C437 1.394 . S
C436 H446 0.932 . S
C437 C433 1.308 . S
C437 C436 1.394 . S
C437 H447 0.929 . S
C438 Tb409 2.764 . S
C438 O422 1.239 . S
C438 O423 1.263 . S
C438 C432 1.504 . S
C439 O424 1.236 . S
C439 O425 1.257 . S
H440 C413 0.932 . S
H441 C414 0.930 . S
H442 C415 0.932 . S
H443 C416 0.929 . S
H444 C434 0.932 . S
H445 C435 0.930 . S
H446 C436 0.932 . S
H447 C437 0.929 . S
H448 C454 0.930 . S
H449 C458 0.930 . S
H450 C463 0.929 . S
H451 C461 0.929 . S
H452 C456 0.929 . S
H453 C462 0.929 . S
C454 H448 0.930 . S
C454 C455 1.367 . S
C454 C462 1.378 . S
C455 C454 1.367 . S
C455 C463 1.433 . S
C456 H452 0.929 . S
C456 C458 1.378 . S
C456 C460 1.350 . S
C457 C460 1.463 . S
C457 C462 1.350 . S
C457 N465 1.427 . S
C458 H449 0.930 . S
C458 C456 1.378 . S
C458 C459 1.367 . S
C459 C458 1.367 . S
C459 C461 1.433 . S
C460 C456 1.350 . S
C460 C457 1.463 . S
C460 N464 1.427 . S
C461 H451 0.929 . S
C461 C459 1.433 . S
C461 N464 1.384 . S
C462 H453 0.929 . S
C462 C454 1.378 . S
C462 C457 1.350 . S
C463 H450 0.929 . S
C463 C455 1.433 . S
C463 N465 1.384 . S
N464 C460 1.427 . S
N464 C461 1.384 . S
N465 C457 1.427 . S
N465 C463 1.384 . S
H466 C472 0.930 . S
H467 C476 0.930 . S
H468 C481 0.929 . S
H469 C479 0.929 . S
H470 C474 0.929 . S
H471 C480 0.929 . S
C472 H466 0.930 . S
C472 C473 1.367 . S
C472 C480 1.378 . S
C473 C472 1.367 . S
C473 C481 1.433 . S
C474 H470 0.929 . S
C474 C476 1.378 . S
C474 C478 1.350 . S
C475 C478 1.463 . S
C475 C480 1.350 . S
C475 N483 1.427 . S
C476 H467 0.930 . S
C476 C474 1.378 . S
C476 C477 1.367 . S
C477 C476 1.367 . S
C477 C479 1.433 . S
C478 C474 1.350 . S
C478 C475 1.463 . S
C478 N482 1.427 . S
C479 H469 0.929 . S
C479 C477 1.433 . S
C479 N482 1.384 . S
C480 H471 0.929 . S
C480 C472 1.378 . S
C480 C475 1.350 . S
C481 H468 0.929 . S
C481 C473 1.433 . S
C481 N483 1.384 . S
N482 C478 1.427 . S
N482 C479 1.384 . S
N483 C475 1.427 . S
N483 C481 1.384 . S
H484 C490 0.930 . S
H485 C494 0.930 . S
H486 C499 0.929 . S
H487 C497 0.929 . S
H488 C492 0.929 . S
H489 C498 0.929 . S
C490 H484 0.930 . S
C490 C491 1.367 . S
C490 C498 1.378 . S
C491 C490 1.367 . S
C491 C499 1.433 . S
C492 H488 0.929 . S
C492 C494 1.378 . S
C492 C496 1.350 . S
C493 C496 1.463 . S
C493 C498 1.350 . S
C493 N501 1.427 . S
C494 H485 0.930 . S
C494 C492 1.378 . S
C494 C495 1.367 . S
C495 C494 1.367 . S
C495 C497 1.433 . S
C496 C492 1.350 . S
C496 C493 1.463 . S
C496 N500 1.427 . S
C497 H487 0.929 . S
C497 C495 1.433 . S
C497 N500 1.384 . S
C498 H489 0.929 . S
C498 C490 1.378 . S
C498 C493 1.350 . S
C499 H486 0.929 . S
C499 C491 1.433 . S
C499 N501 1.384 . S
N500 C496 1.427 . S
N500 C497 1.384 . S
N501 C493 1.427 . S
N501 C499 1.384 . S
H502 C508 0.930 . S
H503 C512 0.930 . S
H504 C517 0.929 . S
H505 C515 0.929 . S
H506 C510 0.929 . S
H507 C516 0.929 . S
C508 H502 0.930 . S
C508 C509 1.367 . S
C508 C516 1.378 . S
C509 C508 1.367 . S
C509 C517 1.433 . S
C510 H506 0.929 . S
C510 C512 1.378 . S
C510 C514 1.350 . S
C511 C514 1.463 . S
C511 C516 1.350 . S
C511 N519 1.427 . S
C512 H503 0.930 . S
C512 C510 1.378 . S
C512 C513 1.367 . S
C513 C512 1.367 . S
C513 C515 1.433 . S
C514 C510 1.350 . S
C514 C511 1.463 . S
C514 N518 1.427 . S
C515 H505 0.929 . S
C515 C513 1.433 . S
C515 N518 1.384 . S
C516 H507 0.929 . S
C516 C508 1.378 . S
C516 C511 1.350 . S
C517 H504 0.929 . S
C517 C509 1.433 . S
C517 N519 1.384 . S
N518 C514 1.427 . S
N518 C515 1.384 . S
N519 C511 1.427 . S
N519 C517 1.384 . S
H520 C526 0.930 . S
H521 C530 0.930 . S
H522 C535 0.929 . S
H523 C533 0.929 . S
H524 C528 0.929 . S
H525 C534 0.929 . S
C526 H520 0.930 . S
C526 C527 1.367 . S
C526 C534 1.378 . S
C527 C526 1.367 . S
C527 C535 1.433 . S
C528 H524 0.929 . S
C528 C530 1.378 . S
C528 C532 1.350 . S
C529 C532 1.463 . S
C529 C534 1.350 . S
C529 N537 1.427 . S
C530 H521 0.930 . S
C530 C528 1.378 . S
C530 C531 1.367 . S
C531 C530 1.367 . S
C531 C533 1.433 . S
C532 C528 1.350 . S
C532 C529 1.463 . S
C532 N536 1.427 . S
C533 H523 0.929 . S
C533 C531 1.433 . S
C533 N536 1.384 . S
C534 H525 0.929 . S
C534 C526 1.378 . S
C534 C529 1.350 . S
C535 H522 0.929 . S
C535 C527 1.433 . S
C535 N537 1.384 . S
N536 C532 1.427 . S
N536 C533 1.384 . S
N537 C529 1.427 . S
N537 C535 1.384 . S
H538 C544 0.930 . S
H539 C548 0.930 . S
H540 C553 0.929 . S
H541 C551 0.929 . S
H542 C546 0.929 . S
H543 C552 0.929 . S
C544 H538 0.930 . S
C544 C545 1.367 . S
C544 C552 1.378 . S
C545 C544 1.367 . S
C545 C553 1.433 . S
C546 H542 0.929 . S
C546 C548 1.378 . S
C546 C550 1.350 . S
C547 C550 1.463 . S
C547 C552 1.350 . S
C547 N555 1.427 . S
C548 H539 0.930 . S
C548 C546 1.378 . S
C548 C549 1.367 . S
C549 C548 1.367 . S
C549 C551 1.433 . S
C550 C546 1.350 . S
C550 C547 1.463 . S
C550 N554 1.427 . S
C551 H541 0.929 . S
C551 C549 1.433 . S
C551 N554 1.384 . S
C552 H543 0.929 . S
C552 C544 1.378 . S
C552 C547 1.350 . S
C553 H540 0.929 . S
C553 C545 1.433 . S
C553 N555 1.384 . S
N554 C550 1.427 . S
N554 C551 1.384 . S
N555 C547 1.427 . S
N555 C553 1.384 . S
H556 C562 0.930 . S
H557 C566 0.930 . S
H558 C571 0.929 . S
H559 C569 0.929 1_554 S
H560 C564 0.929 . S
H561 C570 0.929 . S
C562 H556 0.930 . S
C562 C563 1.367 . S
C562 C570 1.378 . S
C563 C562 1.367 . S
C563 C571 1.433 . S
C564 H560 0.929 . S
C564 C566 1.378 . S
C564 C568 1.350 . S
C565 C568 1.463 . S
C565 C570 1.350 . S
C565 N573 1.427 . S
C566 H557 0.930 . S
C566 C564 1.378 . S
C566 C567 1.367 . S
C567 C566 1.367 . S
C567 C569 1.433 . S
C568 C564 1.350 . S
C568 C565 1.463 . S
C568 N572 1.427 . S
C569 H559 0.929 1_556 S
C569 C567 1.433 . S
C569 N572 1.384 . S
C570 H561 0.929 . S
C570 C562 1.378 . S
C570 C565 1.350 . S
C571 H558 0.929 . S
C571 C563 1.433 . S
C571 N573 1.384 . S
N572 C568 1.427 . S
N572 C569 1.384 . S
N573 C565 1.427 . S
N573 C571 1.384 . S
H574 C580 0.930 . S
H575 C584 0.930 . S
H576 C589 0.929 . S
H577 C587 0.929 . S
H578 C582 0.929 . S
H579 C588 0.929 . S
C580 H574 0.930 . S
C580 C581 1.367 . S
C580 C588 1.378 . S
C581 C580 1.367 . S
C581 C589 1.433 . S
C582 H578 0.929 . S
C582 C584 1.378 . S
C582 C586 1.350 . S
C583 C586 1.463 . S
C583 C588 1.350 . S
C583 N591 1.427 . S
C584 H575 0.930 . S
C584 C582 1.378 . S
C584 C585 1.367 . S
C585 C584 1.367 . S
C585 C587 1.433 . S
C586 C582 1.350 . S
C586 C583 1.463 . S
C586 N590 1.427 . S
C587 H577 0.929 . S
C587 C585 1.433 . S
C587 N590 1.384 . S
C588 H579 0.929 . S
C588 C580 1.378 . S
C588 C583 1.350 . S
C589 H576 0.929 . S
C589 C581 1.433 . S
C589 N591 1.384 . S
N590 C586 1.427 . S
N590 C587 1.384 . S
N591 C583 1.427 . S
N591 C589 1.384 . S
H592 C598 0.930 . S
H593 C602 0.930 . S
H594 C607 0.929 . S
H595 C605 0.929 . S
H596 C600 0.929 . S
H597 C606 0.929 . S
C598 H592 0.930 . S
C598 C599 1.367 . S
C598 C606 1.378 . S
C599 C598 1.367 . S
C599 C607 1.433 . S
C600 H596 0.929 . S
C600 C602 1.378 . S
C600 C604 1.350 . S
C601 C604 1.463 . S
C601 C606 1.350 . S
C601 N609 1.427 . S
C602 H593 0.930 . S
C602 C600 1.378 . S
C602 C603 1.367 . S
C603 C602 1.367 . S
C603 C605 1.433 . S
C604 C600 1.350 . S
C604 C601 1.463 . S
C604 N608 1.427 . S
C605 H595 0.929 . S
C605 C603 1.433 . S
C605 N608 1.384 . S
C606 H597 0.929 . S
C606 C598 1.378 . S
C606 C601 1.350 . S
C607 H594 0.929 . S
C607 C599 1.433 . S
C607 N609 1.384 . S
N608 C604 1.427 . S
N608 C605 1.384 . S
N609 C601 1.427 . S
N609 C607 1.384 . S
H610 C616 0.930 . S
H611 C620 0.930 . S
H612 C625 0.929 . S
H613 C623 0.929 . S
H614 C618 0.929 . S
H615 C624 0.929 . S
C616 H610 0.930 . S
C616 C617 1.367 . S
C616 C624 1.378 . S
C617 C616 1.367 . S
C617 C625 1.433 . S
C618 H614 0.929 . S
C618 C620 1.378 . S
C618 C622 1.350 . S
C619 C622 1.463 . S
C619 C624 1.350 . S
C619 N627 1.427 . S
C620 H611 0.930 . S
C620 C618 1.378 . S
C620 C621 1.367 . S
C621 C620 1.367 . S
C621 C623 1.433 . S
C622 C618 1.350 . S
C622 C619 1.463 . S
C622 N626 1.427 . S
C623 H613 0.929 . S
C623 C621 1.433 . S
C623 N626 1.384 . S
C624 H615 0.929 . S
C624 C616 1.378 . S
C624 C619 1.350 . S
C625 H612 0.929 . S
C625 C617 1.433 . S
C625 N627 1.384 . S
N626 C622 1.427 . S
N626 C623 1.384 . S
N627 C619 1.427 . S
N627 C625 1.384 . S
H628 C634 0.930 . S
H629 C638 0.930 . S
H630 C643 0.929 . S
H631 C641 0.929 . S
H632 C636 0.929 . S
H633 C642 0.929 . S
C634 H628 0.930 . S
C634 C635 1.367 . S
C634 C642 1.378 . S
C635 C634 1.367 . S
C635 C643 1.433 . S
C636 H632 0.929 . S
C636 C638 1.378 . S
C636 C640 1.350 . S
C637 C640 1.463 . S
C637 C642 1.350 . S
C637 N645 1.427 . S
C638 H629 0.930 . S
C638 C636 1.378 . S
C638 C639 1.367 . S
C639 C638 1.367 . S
C639 C641 1.433 . S
C640 C636 1.350 . S
C640 C637 1.463 . S
C640 N644 1.427 . S
C641 H631 0.929 . S
C641 C639 1.433 . S
C641 N644 1.384 . S
C642 H633 0.929 . S
C642 C634 1.378 . S
C642 C637 1.350 . S
C643 H630 0.929 . S
C643 C635 1.433 . S
C643 N645 1.384 . S
N644 C640 1.427 . S
N644 C641 1.384 . S
N645 C637 1.427 . S
N645 C643 1.384 . S
H646 C652 0.930 . S
H647 C656 0.930 . S
H648 C661 0.929 . S
H649 C659 0.929 . S
H650 C654 0.929 . S
H651 C660 0.929 . S
C652 H646 0.930 . S
C652 C653 1.367 . S
C652 C660 1.378 . S
C653 C652 1.367 . S
C653 C661 1.433 . S
C654 H650 0.929 . S
C654 C656 1.378 . S
C654 C658 1.350 . S
C655 C658 1.463 . S
C655 C660 1.350 . S
C655 N663 1.427 . S
C656 H647 0.930 . S
C656 C654 1.378 . S
C656 C657 1.367 . S
C657 C656 1.367 . S
C657 C659 1.433 . S
C658 C654 1.350 . S
C658 C655 1.463 . S
C658 N662 1.427 . S
C659 H649 0.929 . S
C659 C657 1.433 . S
C659 N662 1.384 . S
C660 H651 0.929 . S
C660 C652 1.378 . S
C660 C655 1.350 . S
C661 H648 0.929 . S
C661 C653 1.433 . S
C661 N663 1.384 . S
N662 C658 1.427 . S
N662 C659 1.384 . S
N663 C655 1.427 . S
N663 C661 1.384 . S
H664 C670 0.930 . S
H665 C674 0.930 . S
H666 C679 0.929 . S
H667 C677 0.929 . S
H668 C672 0.929 . S
H669 C678 0.929 . S
C670 H664 0.930 . S
C670 C671 1.367 . S
C670 C678 1.378 . S
C671 C670 1.367 . S
C671 C679 1.433 . S
C672 H668 0.929 . S
C672 C674 1.378 . S
C672 C676 1.350 . S
C673 C676 1.463 . S
C673 C678 1.350 . S
C673 N681 1.427 . S
C674 H665 0.930 . S
C674 C672 1.378 . S
C674 C675 1.367 . S
C675 C674 1.367 . S
C675 C677 1.433 . S
C676 C672 1.350 . S
C676 C673 1.463 . S
C676 N680 1.427 . S
C677 H667 0.929 . S
C677 C675 1.433 . S
C677 N680 1.384 . S
C678 H669 0.929 . S
C678 C670 1.378 . S
C678 C673 1.350 . S
C679 H666 0.929 . S
C679 C671 1.433 . S
C679 N681 1.384 . S
N680 C676 1.427 . S
N680 C677 1.384 . S
N681 C673 1.427 . S
N681 C679 1.384 . S
H682 C688 0.930 . S
H683 C692 0.930 . S
H684 C697 0.929 . S
H685 C695 0.929 . S
H686 C690 0.929 . S
H687 C696 0.929 . S
C688 H682 0.930 . S
C688 C689 1.367 . S
C688 C696 1.378 . S
C689 C688 1.367 . S
C689 C697 1.433 . S
C690 H686 0.929 . S
C690 C692 1.378 . S
C690 C694 1.350 . S
C691 C694 1.463 . S
C691 C696 1.350 . S
C691 N699 1.427 . S
C692 H683 0.930 . S
C692 C690 1.378 . S
C692 C693 1.367 . S
C693 C692 1.367 . S
C693 C695 1.433 . S
C694 C690 1.350 . S
C694 C691 1.463 . S
C694 N698 1.427 . S
C695 H685 0.929 . S
C695 C693 1.433 . S
C695 N698 1.384 . S
C696 H687 0.929 . S
C696 C688 1.378 . S
C696 C691 1.350 . S
C697 H684 0.929 . S
C697 C689 1.433 . S
C697 N699 1.384 . S
N698 C694 1.427 . S
N698 C695 1.384 . S
N699 C691 1.427 . S
N699 C697 1.384 . S
H700 C706 0.930 . S
H701 C710 0.930 . S
H702 C715 0.929 . S
H703 C713 0.929 . S
H704 C708 0.929 . S
H705 C714 0.929 . S
C706 H700 0.930 . S
C706 C707 1.367 . S
C706 C714 1.378 . S
C707 C706 1.367 . S
C707 C715 1.433 . S
C708 H704 0.929 . S
C708 C710 1.378 . S
C708 C712 1.350 . S
C709 C712 1.463 . S
C709 C714 1.350 . S
C709 N717 1.427 . S
C710 H701 0.930 . S
C710 C708 1.378 . S
C710 C711 1.367 . S
C711 C710 1.367 . S
C711 C713 1.433 . S
C712 C708 1.350 . S
C712 C709 1.463 . S
C712 N716 1.427 . S
C713 H703 0.929 . S
C713 C711 1.433 . S
C713 N716 1.384 . S
C714 H705 0.929 . S
C714 C706 1.378 . S
C714 C709 1.350 . S
C715 H702 0.929 . S
C715 C707 1.433 . S
C715 N717 1.384 . S
N716 C712 1.427 . S
N716 C713 1.384 . S
N717 C709 1.427 . S
N717 C715 1.384 . S
H718 C724 0.930 . S
H719 C728 0.930 . S
H720 C733 0.929 . S
H721 C731 0.929 . S
H722 C726 0.929 . S
H723 C732 0.929 . S
C724 H718 0.930 . S
C724 C725 1.367 . S
C724 C732 1.378 . S
C725 C724 1.367 . S
C725 C733 1.433 . S
C726 H722 0.929 . S
C726 C728 1.378 . S
C726 C730 1.350 . S
C727 C730 1.463 . S
C727 C732 1.350 . S
C727 N735 1.427 . S
C728 H719 0.930 . S
C728 C726 1.378 . S
C728 C729 1.367 . S
C729 C728 1.367 . S
C729 C731 1.433 . S
C730 C726 1.350 . S
C730 C727 1.463 . S
C730 N734 1.427 . S
C731 H721 0.929 . S
C731 C729 1.433 . S
C731 N734 1.384 . S
C732 H723 0.929 . S
C732 C724 1.378 . S
C732 C727 1.350 . S
C733 H720 0.929 . S
C733 C725 1.433 . S
C733 N735 1.384 . S
N734 C730 1.427 . S
N734 C731 1.384 . S
N735 C727 1.427 . S
N735 C733 1.384 . S
H736 C742 0.930 . S
H737 C746 0.930 . S
H738 C751 0.929 . S
H739 C749 0.929 . S
H740 C744 0.929 . S
H741 C750 0.929 . S
C742 H736 0.930 . S
C742 C743 1.367 . S
C742 C750 1.378 . S
C743 C742 1.367 . S
C743 C751 1.433 . S
C744 H740 0.929 . S
C744 C746 1.378 . S
C744 C748 1.350 . S
C745 C748 1.463 . S
C745 C750 1.350 . S
C745 N753 1.427 . S
C746 H737 0.930 . S
C746 C744 1.378 . S
C746 C747 1.367 . S
C747 C746 1.367 . S
C747 C749 1.433 . S
C748 C744 1.350 . S
C748 C745 1.463 . S
C748 N752 1.427 . S
C749 H739 0.929 . S
C749 C747 1.433 . S
C749 N752 1.384 . S
C750 H741 0.929 . S
C750 C742 1.378 . S
C750 C745 1.350 . S
C751 H738 0.929 . S
C751 C743 1.433 . S
C751 N753 1.384 . S
N752 C748 1.427 . S
N752 C749 1.384 . S
N753 C745 1.427 . S
N753 C751 1.384 . S
H754 C760 0.930 . S
H755 C764 0.930 . S
H756 C769 0.929 . S
H757 C767 0.929 1_455 S
H758 C762 0.929 . S
H759 C768 0.929 . S
C760 H754 0.930 . S
C760 C761 1.367 . S
C760 C768 1.378 . S
C761 C760 1.367 . S
C761 C769 1.433 . S
C762 H758 0.929 . S
C762 C764 1.378 . S
C762 C766 1.350 . S
C763 C766 1.463 . S
C763 C768 1.350 . S
C763 N771 1.427 . S
C764 H755 0.930 . S
C764 C762 1.378 . S
C764 C765 1.367 . S
C765 C764 1.367 . S
C765 C767 1.433 . S
C766 C762 1.350 . S
C766 C763 1.463 . S
C766 N770 1.427 . S
C767 H757 0.929 1_655 S
C767 C765 1.433 . S
C767 N770 1.384 . S
C768 H759 0.929 . S
C768 C760 1.378 . S
C768 C763 1.350 . S
C769 H756 0.929 . S
C769 C761 1.433 . S
C769 N771 1.384 . S
N770 C766 1.427 . S
N770 C767 1.384 . S
N771 C763 1.427 . S
N771 C769 1.384 . S
H772 C778 0.930 . S
H773 C782 0.930 . S
H774 C787 0.929 . S
H775 C785 0.929 1_556 S
H776 C780 0.929 . S
H777 C786 0.929 . S
C778 H772 0.930 . S
C778 C779 1.367 . S
C778 C786 1.378 . S
C779 C778 1.367 . S
C779 C787 1.433 . S
C780 H776 0.929 . S
C780 C782 1.378 . S
C780 C784 1.350 . S
C781 C784 1.463 . S
C781 C786 1.350 . S
C781 N789 1.427 . S
C782 H773 0.930 . S
C782 C780 1.378 . S
C782 C783 1.367 . S
C783 C782 1.367 . S
C783 C785 1.433 . S
C784 C780 1.350 . S
C784 C781 1.463 . S
C784 N788 1.427 . S
C785 H775 0.929 1_554 S
C785 C783 1.433 . S
C785 N788 1.384 . S
C786 H777 0.929 . S
C786 C778 1.378 . S
C786 C781 1.350 . S
C787 H774 0.929 . S
C787 C779 1.433 . S
C787 N789 1.384 . S
N788 C784 1.427 . S
N788 C785 1.384 . S
N789 C781 1.427 . S
N789 C787 1.384 . S
H790 C796 0.930 . S
H791 C800 0.930 . S
H792 C805 0.929 . S
H793 C803 0.929 . S
H794 C798 0.929 . S
H795 C804 0.929 . S
C796 H790 0.930 . S
C796 C797 1.367 . S
C796 C804 1.378 . S
C797 C796 1.367 . S
C797 C805 1.433 . S
C798 H794 0.929 . S
C798 C800 1.378 . S
C798 C802 1.350 . S
C799 C802 1.463 . S
C799 C804 1.350 . S
C799 N807 1.427 . S
C800 H791 0.930 . S
C800 C798 1.378 . S
C800 C801 1.367 . S
C801 C800 1.367 . S
C801 C803 1.433 . S
C802 C798 1.350 . S
C802 C799 1.463 . S
C802 N806 1.427 . S
C803 H793 0.929 . S
C803 C801 1.433 . S
C803 N806 1.384 . S
C804 H795 0.929 . S
C804 C796 1.378 . S
C804 C799 1.350 . S
C805 H792 0.929 . S
C805 C797 1.433 . S
C805 N807 1.384 . S
N806 C802 1.427 . S
N806 C803 1.384 . S
N807 C799 1.427 . S
N807 C805 1.384 . S
H808 C814 0.930 . S
H809 C818 0.930 . S
H810 C823 0.929 . S
H811 C821 0.929 . S
H812 C816 0.929 . S
H813 C822 0.929 . S
C814 H808 0.930 . S
C814 C815 1.367 . S
C814 C822 1.378 . S
C815 C814 1.367 . S
C815 C823 1.433 . S
C816 H812 0.929 . S
C816 C818 1.378 . S
C816 C820 1.350 . S
C817 C820 1.463 . S
C817 C822 1.350 . S
C817 N825 1.427 . S
C818 H809 0.930 . S
C818 C816 1.378 . S
C818 C819 1.367 . S
C819 C818 1.367 . S
C819 C821 1.433 . S
C820 C816 1.350 . S
C820 C817 1.463 . S
C820 N824 1.427 . S
C821 H811 0.929 . S
C821 C819 1.433 . S
C821 N824 1.384 . S
C822 H813 0.929 . S
C822 C814 1.378 . S
C822 C817 1.350 . S
C823 H810 0.929 . S
C823 C815 1.433 . S
C823 N825 1.384 . S
N824 C820 1.427 . S
N824 C821 1.384 . S
N825 C817 1.427 . S
N825 C823 1.384 . S
H826 C832 0.930 . S
H827 C836 0.930 . S
H828 C841 0.929 . S
H829 C839 0.929 . S
H830 C834 0.929 . S
H831 C840 0.929 . S
C832 H826 0.930 . S
C832 C833 1.367 . S
C832 C840 1.378 . S
C833 C832 1.367 . S
C833 C841 1.433 . S
C834 H830 0.929 . S
C834 C836 1.378 . S
C834 C838 1.350 . S
C835 C838 1.463 . S
C835 C840 1.350 . S
C835 N843 1.427 . S
C836 H827 0.930 . S
C836 C834 1.378 . S
C836 C837 1.367 . S
C837 C836 1.367 . S
C837 C839 1.433 . S
C838 C834 1.350 . S
C838 C835 1.463 . S
C838 N842 1.427 . S
C839 H829 0.929 . S
C839 C837 1.433 . S
C839 N842 1.384 . S
C840 H831 0.929 . S
C840 C832 1.378 . S
C840 C835 1.350 . S
C841 H828 0.929 . S
C841 C833 1.433 . S
C841 N843 1.384 . S
N842 C838 1.427 . S
N842 C839 1.384 . S
N843 C835 1.427 . S
N843 C841 1.384 . S
H844 C850 0.930 . S
H845 C854 0.930 . S
H846 C859 0.929 . S
H847 C857 0.929 . S
H848 C852 0.929 . S
H849 C858 0.929 . S
C850 H844 0.930 . S
C850 C851 1.367 . S
C850 C858 1.378 . S
C851 C850 1.367 . S
C851 C859 1.433 . S
C852 H848 0.929 . S
C852 C854 1.378 . S
C852 C856 1.350 . S
C853 C856 1.463 . S
C853 C858 1.350 . S
C853 N861 1.427 . S
C854 H845 0.930 . S
C854 C852 1.378 . S
C854 C855 1.367 . S
C855 C854 1.367 . S
C855 C857 1.433 . S
C856 C852 1.350 . S
C856 C853 1.463 . S
C856 N860 1.427 . S
C857 H847 0.929 . S
C857 C855 1.433 . S
C857 N860 1.384 . S
C858 H849 0.929 . S
C858 C850 1.378 . S
C858 C853 1.350 . S
C859 H846 0.929 . S
C859 C851 1.433 . S
C859 N861 1.384 . S
N860 C856 1.427 . S
N860 C857 1.384 . S
N861 C853 1.427 . S
N861 C859 1.384 . S
H862 C868 0.930 . S
H863 C872 0.930 . S
H864 C877 0.929 . S
H865 C875 0.929 . S
H866 C870 0.929 . S
H867 C876 0.929 . S
C868 H862 0.930 . S
C868 C869 1.367 . S
C868 C876 1.378 . S
C869 C868 1.367 . S
C869 C877 1.433 . S
C870 H866 0.929 . S
C870 C872 1.378 . S
C870 C874 1.350 . S
C871 C874 1.463 . S
C871 C876 1.350 . S
C871 N879 1.427 . S
C872 H863 0.930 . S
C872 C870 1.378 . S
C872 C873 1.367 . S
C873 C872 1.367 . S
C873 C875 1.433 . S
C874 C870 1.350 . S
C874 C871 1.463 . S
C874 N878 1.427 . S
C875 H865 0.929 . S
C875 C873 1.433 . S
C875 N878 1.384 . S
C876 H867 0.929 . S
C876 C868 1.378 . S
C876 C871 1.350 . S
C877 H864 0.929 . S
C877 C869 1.433 . S
C877 N879 1.384 . S
N878 C874 1.427 . S
N878 C875 1.384 . S
N879 C871 1.427 . S
N879 C877 1.384 . S
C455 C1 0.939 . S
C459 C292 0.942 . S
C473 C67 1.219 . S
C477 C353 1.242 . S
C495 C391 2.492 . S
C491 C97 2.541 . S
C509 C133 2.357 . S
C513 C431 2.306 . S
C531 C351 1.293 . S
C527 C25 1.288 . S
C549 C319 2.137 . S
C545 C37 2.068 . S
C567 C428 1.735 . S
C563 C103 1.739 . S
C585 C388 1.847 . S
C581 C109 1.864 . S
C599 C31 1.106 . S
C603 C433 1.122 . S
C621 C348 2.380 . S
C617 C73 2.369 . S
C635 C139 2.202 . S
C639 C290 2.165 . S
C653 C61 1.545 . S
C657 C393 1.582 . S
C675 C313 0.932 . S
C671 C175 0.908 . S
C689 C181 1.194 . S
C693 C332 1.228 . S
C707 C247 2.584 . S
C711 C370 2.517 . S
C725 C277 2.342 . S
C729 C410 2.299 . S
C743 C145 1.232 . S
C747 C330 1.286 . S
C765 C308 2.143 . S
C761 C211 2.079 . S
C783 C439 1.723 . S
C779 C217 1.730 . S
C801 C399 1.863 . S
C797 C283 1.876 . S
C815 C169 1.079 . S
C819 C412 1.121 . S
C837 C359 2.387 . S
C833 C241 2.392 . S
C855 C311 2.150 . S
C851 C253 2.192 . S
C869 C205 1.570 . S
C873 C372 1.590 . S
