# Generated by pormake.
# Topology pyr, (3,6)-cn, num edge types: 1
# Building blocks:
#     Node 0, Type 0, BuildingBlock: KAKCAD_clean_linker_0, # of connection points: 3
#     Node 1, Type 0, BuildingBlock: KAKCAD_clean_linker_0, # of connection points: 3
#     Node 2, Type 0, BuildingBlock: KAKCAD_clean_linker_0, # of connection points: 3
#     Node 3, Type 0, BuildingBlock: KAKCAD_clean_linker_0, # of connection points: 3
#     Node 4, Type 0, BuildingBlock: KAKCAD_clean_linker_0, # of connection points: 3
#     Node 5, Type 0, BuildingBlock: KAKCAD_clean_linker_0, # of connection points: 3
#     Node 6, Type 0, BuildingBlock: KAKCAD_clean_linker_0, # of connection points: 3
#     Node 7, Type 0, BuildingBlock: KAKCAD_clean_linker_0, # of connection points: 3
#     Node 8, Type 1, BuildingBlock: BETFAJ_clean_sbu_0, # of connection points: 6
#     Node 9, Type 1, BuildingBlock: BETFAJ_clean_sbu_0, # of connection points: 6
#     Node 10, Type 1, BuildingBlock: BETFAJ_clean_sbu_0, # of connection points: 6
#     Node 11, Type 1, BuildingBlock: BETFAJ_clean_sbu_0, # of connection points: 6
#     Edge 12, Type (0, 1), BuildingBlock: AJUNOK_clean_linker_0, # of connection points: 2
#     Edge 13, Type (0, 1), BuildingBlock: AJUNOK_clean_linker_0, # of connection points: 2
#     Edge 14, Type (0, 1), BuildingBlock: AJUNOK_clean_linker_0, # of connection points: 2
#     Edge 15, Type (0, 1), BuildingBlock: AJUNOK_clean_linker_0, # of connection points: 2
#     Edge 16, Type (0, 1), BuildingBlock: AJUNOK_clean_linker_0, # of connection points: 2
#     Edge 17, Type (0, 1), BuildingBlock: AJUNOK_clean_linker_0, # of connection points: 2
#     Edge 18, Type (0, 1), BuildingBlock: AJUNOK_clean_linker_0, # of connection points: 2
#     Edge 19, Type (0, 1), BuildingBlock: AJUNOK_clean_linker_0, # of connection points: 2
#     Edge 20, Type (0, 1), BuildingBlock: AJUNOK_clean_linker_0, # of connection points: 2
#     Edge 21, Type (0, 1), BuildingBlock: AJUNOK_clean_linker_0, # of connection points: 2
#     Edge 22, Type (0, 1), BuildingBlock: AJUNOK_clean_linker_0, # of connection points: 2
#     Edge 23, Type (0, 1), BuildingBlock: AJUNOK_clean_linker_0, # of connection points: 2
#     Edge 24, Type (0, 1), BuildingBlock: AJUNOK_clean_linker_0, # of connection points: 2
#     Edge 25, Type (0, 1), BuildingBlock: AJUNOK_clean_linker_0, # of connection points: 2
#     Edge 26, Type (0, 1), BuildingBlock: AJUNOK_clean_linker_0, # of connection points: 2
#     Edge 27, Type (0, 1), BuildingBlock: AJUNOK_clean_linker_0, # of connection points: 2
#     Edge 28, Type (0, 1), BuildingBlock: AJUNOK_clean_linker_0, # of connection points: 2
#     Edge 29, Type (0, 1), BuildingBlock: AJUNOK_clean_linker_0, # of connection points: 2
#     Edge 30, Type (0, 1), BuildingBlock: AJUNOK_clean_linker_0, # of connection points: 2
#     Edge 31, Type (0, 1), BuildingBlock: AJUNOK_clean_linker_0, # of connection points: 2
#     Edge 32, Type (0, 1), BuildingBlock: AJUNOK_clean_linker_0, # of connection points: 2
#     Edge 33, Type (0, 1), BuildingBlock: AJUNOK_clean_linker_0, # of connection points: 2
#     Edge 34, Type (0, 1), BuildingBlock: AJUNOK_clean_linker_0, # of connection points: 2
#     Edge 35, Type (0, 1), BuildingBlock: AJUNOK_clean_linker_0, # of connection points: 2
# Relax obj value: 0.130
# Max RMSD: 0.128
# Mean RMSD: 0.063
data_MOF--net-pyr--node1-BETFAJ_clean_sbu_0--node2-KAKCAD_clean_linker_0--edge1-AJUNOK_clean_linker_0
_symmetry_space_group_name_H-M    P1
_symmetry_Int_Tables_number       1
_symmetry_cell_setting            triclinic
loop_
_symmetry_equiv_pos_as_xyz
'x, y, z'
_cell_length_a     36.988488
_cell_length_b     39.075049
_cell_length_c     35.875149
_cell_angle_alpha  91.389177
_cell_angle_beta   88.405456
_cell_angle_gamma 100.59113
loop_
_atom_site_label
_atom_site_type_symbol
_atom_site_fract_x
_atom_site_fract_y
_atom_site_fract_z
_atom_type_partial_charge
C0 C 0.28614 0.27987 0.35848 0.0
C1 C 0.29414 0.25028 0.37499 0.0
C2 C 0.31046 0.29786 0.33253 0.0
C3 C 0.34417 0.28728 0.32298 0.0
C4 C 0.35404 0.26018 0.34362 0.0
C5 C 0.32889 0.24142 0.36902 0.0
C6 C 0.36462 0.3003 0.28779 0.0
C7 C 0.35767 0.33072 0.27174 0.0
C8 C 0.36033 0.33485 0.23308 0.0
C9 C 0.38027 0.31366 0.21149 0.0
C10 C 0.39397 0.28628 0.22833 0.0
C11 C 0.38414 0.27894 0.26604 0.0
C12 C 0.41439 0.26218 0.20652 0.0
C13 C 0.40597 0.25247 0.16922 0.0
C14 C 0.4406 0.24629 0.22411 0.0
C15 C 0.45596 0.22002 0.20594 0.0
C16 C 0.44591 0.20924 0.16956 0.0
C17 C 0.33459 0.35516 0.2163 0.0
C18 C 0.29755 0.3489 0.22883 0.0
C19 C 0.34561 0.38057 0.18919 0.0
C20 C 0.32005 0.39955 0.17543 0.0
C21 C 0.28304 0.39322 0.1884 0.0
C22 C 0.27233 0.3677 0.21531 0.0
C23 C 0.42152 0.22624 0.15102 0.0
H24 H 0.25928 0.28692 0.36272 0.0
H25 H 0.30048 0.31787 0.3178 0.0
H26 H 0.38007 0.25184 0.33856 0.0
H27 H 0.33546 0.21851 0.38172 0.0
H28 H 0.34502 0.34907 0.28826 0.0
H29 H 0.38938 0.25498 0.27732 0.0
H30 H 0.38356 0.31758 0.18174 0.0
H31 H 0.38594 0.26371 0.15459 0.0
H32 H 0.44854 0.25345 0.25247 0.0
H33 H 0.47467 0.20721 0.22079 0.0
H34 H 0.28782 0.32898 0.2491 0.0
H35 H 0.37392 0.38605 0.17912 0.0
H36 H 0.41342 0.21827 0.12288 0.0
H37 H 0.24404 0.36161 0.22538 0.0
H38 H 0.32923 0.41927 0.15484 0.0
C39 C 0.2962 0.93936 0.74905 0.0
C40 C 0.33473 0.9452 0.74506 0.0
C41 C 0.27459 0.92498 0.71949 0.0
C42 C 0.29158 0.91718 0.68575 0.0
C43 C 0.32958 0.92846 0.68018 0.0
C44 C 0.35118 0.94209 0.70988 0.0
C45 C 0.27138 0.89219 0.65923 0.0
C46 C 0.23632 0.89514 0.64781 0.0
C47 C 0.21853 0.87096 0.62183 0.0
C48 C 0.23449 0.84389 0.60803 0.0
C49 C 0.26949 0.84159 0.61851 0.0
C50 C 0.28776 0.86492 0.64477 0.0
C51 C 0.28893 0.81917 0.59643 0.0
C52 C 0.27431 0.78366 0.5925 0.0
C53 C 0.32062 0.83414 0.57643 0.0
C54 C 0.33968 0.81308 0.55523 0.0
C55 C 0.3276 0.77694 0.55497 0.0
C56 C 0.18685 0.87746 0.60325 0.0
C57 C 0.15384 0.87596 0.62313 0.0
C58 C 0.19059 0.88719 0.56579 0.0
C59 C 0.16232 0.89958 0.54954 0.0
C60 C 0.13115 0.90263 0.57135 0.0
C61 C 0.12552 0.88812 0.60684 0.0
C62 C 0.29377 0.76242 0.57176 0.0
H63 H 0.28301 0.94322 0.77579 0.0
H64 H 0.24519 0.91713 0.72411 0.0
H65 H 0.34295 0.92383 0.65376 0.0
H66 H 0.38082 0.94729 0.70605 0.0
H67 H 0.22393 0.91701 0.65729 0.0
H68 H 0.31513 0.86232 0.65294 0.0
H69 H 0.22105 0.82665 0.58631 0.0
H70 H 0.24901 0.77225 0.60698 0.0
H71 H 0.33116 0.86191 0.57816 0.0
H72 H 0.36595 0.82443 0.54254 0.0
H73 H 0.15102 0.86786 0.65189 0.0
H74 H 0.21634 0.88796 0.55034 0.0
H75 H 0.28442 0.73447 0.57214 0.0
H76 H 0.10156 0.89075 0.62399 0.0
H77 H 0.16674 0.91104 0.52218 0.0
C78 C 0.78583 0.44976 0.90999 0.0
C79 C 0.80729 0.42908 0.92857 0.0
C80 C 0.75288 0.43497 0.89134 0.0
C81 C 0.73955 0.39858 0.89004 0.0
C82 C 0.7615 0.378 0.90803 0.0
C83 C 0.79388 0.39276 0.92715 0.0
C84 C 0.7029 0.38184 0.87156 0.0
C85 C 0.6877 0.39698 0.84104 0.0
C86 C 0.6538 0.38111 0.82388 0.0
C87 C 0.6359 0.34797 0.83841 0.0
C88 C 0.65031 0.33151 0.86869 0.0
C89 C 0.68293 0.34983 0.88504 0.0
C90 C 0.63238 0.29538 0.88433 0.0
C91 C 0.59397 0.28244 0.88458 0.0
C92 C 0.65395 0.27347 0.90088 0.0
C93 C 0.63821 0.24139 0.91761 0.0
C94 C 0.59991 0.22863 0.91827 0.0
C95 C 0.63773 0.3991 0.79094 0.0
C96 C 0.64733 0.4355 0.78465 0.0
C97 C 0.61267 0.38058 0.76483 0.0
C98 C 0.59832 0.39725 0.73483 0.0
C99 C 0.60784 0.43365 0.72882 0.0
C100 C 0.63316 0.45207 0.75462 0.0
C101 C 0.57819 0.24999 0.90109 0.0
H102 H 0.79448 0.47776 0.90964 0.0
H103 H 0.73754 0.4524 0.87848 0.0
H104 H 0.75383 0.34992 0.90757 0.0
H105 H 0.80784 0.37521 0.94159 0.0
H106 H 0.70305 0.42095 0.83002 0.0
H107 H 0.69254 0.33923 0.90964 0.0
H108 H 0.61061 0.3348 0.8262 0.0
H109 H 0.57572 0.29779 0.87282 0.0
H110 H 0.6836 0.28088 0.90085 0.0
H111 H 0.65646 0.22622 0.92974 0.0
H112 H 0.66584 0.45192 0.80323 0.0
H113 H 0.60415 0.3527 0.76703 0.0
H114 H 0.54858 0.24212 0.90119 0.0
H115 H 0.6429 0.4797 0.75151 0.0
H116 H 0.57916 0.38131 0.71641 0.0
C117 C 0.88621 0.62395 0.24291 0.0
C118 C 0.92465 0.63033 0.23425 0.0
C119 C 0.87062 0.6399 0.27403 0.0
C120 C 0.89234 0.6629 0.29924 0.0
C121 C 0.93051 0.66947 0.29098 0.0
C122 C 0.94603 0.65426 0.25938 0.0
C123 C 0.87542 0.67976 0.33347 0.0
C124 C 0.84245 0.66234 0.35151 0.0
C125 C 0.82566 0.67725 0.38263 0.0
C126 C 0.843 0.71072 0.39553 0.0
C127 C 0.87598 0.7293 0.37935 0.0
C128 C 0.89189 0.71321 0.34837 0.0
C129 C 0.89284 0.76552 0.39536 0.0
C130 C 0.87034 0.78787 0.41167 0.0
C131 C 0.93127 0.77797 0.39611 0.0
C132 C 0.94625 0.81087 0.41252 0.0
C133 C 0.92352 0.83283 0.42905 0.0
C134 C 0.79003 0.65854 0.40199 0.0
C135 C 0.76388 0.63324 0.38347 0.0
C136 C 0.78116 0.66637 0.43952 0.0
C137 C 0.74762 0.65111 0.45695 0.0
C138 C 0.72133 0.62611 0.43847 0.0
C139 C 0.73061 0.61712 0.4014 0.0
C140 C 0.88527 0.82039 0.42836 0.0
H141 H 0.8673 0.60625 0.22594 0.0
H142 H 0.84103 0.63418 0.27798 0.0
H143 H 0.94896 0.68653 0.30913 0.0
H144 H 0.97513 0.66265 0.25518 0.0
H145 H 0.83035 0.63648 0.34184 0.0
H146 H 0.91655 0.72738 0.33506 0.0
H147 H 0.83062 0.72275 0.41872 0.0
H148 H 0.84069 0.78059 0.41129 0.0
H149 H 0.95002 0.76197 0.38468 0.0
H150 H 0.97586 0.81879 0.41284 0.0
H151 H 0.76866 0.62592 0.35474 0.0
H152 H 0.80016 0.68435 0.45621 0.0
H153 H 0.86655 0.83623 0.44022 0.0
H154 H 0.71245 0.59724 0.38599 0.0
H155 H 0.74234 0.65947 0.48523 0.0
C156 C 0.72358 0.79911 0.69638 0.0
C157 C 0.73346 0.83544 0.69519 0.0
C158 C 0.69824 0.78366 0.72341 0.0
C159 C 0.68348 0.80439 0.75038 0.0
C160 C 0.69105 0.84082 0.74673 0.0
C161 C 0.71565 0.85615 0.71921 0.0
C162 C 0.66662 0.78909 0.7858 0.0
C163 C 0.68245 0.76406 0.80335 0.0
C164 C 0.67246 0.75349 0.84007 0.0
C165 C 0.64776 0.77137 0.8604 0.0
C166 C 0.63279 0.79798 0.84351 0.0
C167 C 0.64012 0.8041 0.80534 0.0
C168 C 0.61394 0.82314 0.86552 0.0
C169 C 0.58998 0.81309 0.89615 0.0
C170 C 0.62082 0.8586 0.85575 0.0
C171 C 0.60363 0.88288 0.87488 0.0
C172 C 0.57971 0.87291 0.90515 0.0
C173 C 0.69214 0.72721 0.85717 0.0
C174 C 0.70838 0.70403 0.83412 0.0
C175 C 0.69852 0.72712 0.89566 0.0
C176 C 0.72262 0.70697 0.90983 0.0
C177 C 0.74256 0.68746 0.88593 0.0
C178 C 0.73418 0.68576 0.84785 0.0
C179 C 0.57324 0.83786 0.91599 0.0
H180 H 0.73722 0.78279 0.67804 0.0
H181 H 0.69237 0.75553 0.72495 0.0
H182 H 0.68077 0.85777 0.76712 0.0
H183 H 0.72341 0.88428 0.71902 0.0
H184 H 0.70504 0.75489 0.78904 0.0
H185 H 0.62737 0.82295 0.79141 0.0
H186 H 0.64144 0.76591 0.88948 0.0
H187 H 0.58403 0.7862 0.90466 0.0
H188 H 0.64022 0.86806 0.83354 0.0
H189 H 0.60991 0.90987 0.86663 0.0
H190 H 0.70276 0.70107 0.80467 0.0
H191 H 0.68644 0.74372 0.91496 0.0
H192 H 0.55517 0.82967 0.93966 0.0
H193 H 0.74871 0.67194 0.82777 0.0
H194 H 0.72672 0.70801 0.9396 0.0
C195 C 0.70595 0.12176 0.34898 0.0
C196 C 0.70834 0.14443 0.31897 0.0
C197 C 0.72355 0.13313 0.3818 0.0
C198 C 0.74317 0.16724 0.38465 0.0
C199 C 0.74905 0.18847 0.35338 0.0
C200 C 0.73196 0.17686 0.32031 0.0
C201 C 0.7534 0.18181 0.42125 0.0
C202 C 0.77629 0.16646 0.44292 0.0
C203 C 0.78623 0.18088 0.47794 0.0
C204 C 0.77107 0.2082 0.49267 0.0
C205 C 0.74919 0.22404 0.47063 0.0
C206 C 0.7402 0.21117 0.43474 0.0
C207 C 0.7389 0.25591 0.48447 0.0
C208 C 0.71841 0.25575 0.51783 0.0
C209 C 0.75057 0.28672 0.46509 0.0
C210 C 0.73823 0.31664 0.47693 0.0
C211 C 0.71304 0.31501 0.50707 0.0
C212 C 0.81904 0.17385 0.49415 0.0
C213 C 0.82276 0.13947 0.49849 0.0
C214 C 0.84906 0.20148 0.49855 0.0
C215 C 0.88357 0.19442 0.50519 0.0
C216 C 0.88749 0.15989 0.50725 0.0
C217 C 0.857 0.13246 0.50493 0.0
C218 C 0.70541 0.28543 0.52919 0.0
H219 H 0.68815 0.09642 0.34817 0.0
H220 H 0.71929 0.11641 0.4058 0.0
H221 H 0.76507 0.21459 0.35523 0.0
H222 H 0.7351 0.19406 0.29673 0.0
H223 H 0.78858 0.14524 0.4313 0.0
H224 H 0.72294 0.22375 0.41765 0.0
H225 H 0.77947 0.21942 0.51977 0.0
H226 H 0.7104 0.23208 0.53352 0.0
H227 H 0.76769 0.28716 0.44002 0.0
H228 H 0.74447 0.3396 0.45989 0.0
H229 H 0.79975 0.11816 0.49482 0.0
H230 H 0.84626 0.22825 0.49448 0.0
H231 H 0.68602 0.28393 0.55257 0.0
H232 H 0.86004 0.10549 0.50691 0.0
H233 H 0.90707 0.21543 0.50738 0.0
C234 C 0.22794 0.63637 0.17988 0.0
C235 C 0.22103 0.64664 0.14332 0.0
C236 C 0.26027 0.65133 0.19954 0.0
C237 C 0.28799 0.67707 0.18362 0.0
C238 C 0.28139 0.68655 0.14678 0.0
C239 C 0.24874 0.67258 0.12777 0.0
C240 C 0.32288 0.69489 0.20463 0.0
C241 C 0.3385 0.67929 0.23471 0.0
C242 C 0.37162 0.69592 0.25276 0.0
C243 C 0.38914 0.72934 0.23888 0.0
C244 C 0.37444 0.746 0.20907 0.0
C245 C 0.341 0.72855 0.19378 0.0
C246 C 0.39297 0.78147 0.19268 0.0
C247 C 0.41197 0.80932 0.21461 0.0
C248 C 0.39029 0.78849 0.15427 0.0
C249 C 0.40509 0.82136 0.13881 0.0
C250 C 0.42395 0.84923 0.16062 0.0
C251 C 0.38813 0.67824 0.28542 0.0
C252 C 0.36597 0.65674 0.31183 0.0
C253 C 0.42654 0.68228 0.29083 0.0
C254 C 0.44177 0.66582 0.32033 0.0
C255 C 0.41974 0.64488 0.34758 0.0
C256 C 0.38116 0.64096 0.34195 0.0
C257 C 0.42695 0.84233 0.19902 0.0
H258 H 0.2084 0.61644 0.19375 0.0
H259 H 0.2631 0.6428 0.2276 0.0
H260 H 0.30155 0.70513 0.13184 0.0
H261 H 0.24542 0.68323 0.10088 0.0
H262 H 0.32543 0.65361 0.24351 0.0
H263 H 0.32839 0.74216 0.17338 0.0
H264 H 0.41434 0.74252 0.25135 0.0
H265 H 0.41457 0.80596 0.24421 0.0
H266 H 0.37683 0.76825 0.13557 0.0
H267 H 0.40222 0.82469 0.10923 0.0
H268 H 0.33633 0.65249 0.30984 0.0
H269 H 0.4454 0.69765 0.27143 0.0
H270 H 0.44036 0.86276 0.2175 0.0
H271 H 0.36198 0.62586 0.3612 0.0
H272 H 0.47134 0.66921 0.32053 0.0
C273 C 0.13694 0.25874 0.6464 0.0
C274 C 0.09877 0.24673 0.64289 0.0
C275 C 0.15109 0.29113 0.66374 0.0
C276 C 0.12795 0.31346 0.67867 0.0
C277 C 0.08965 0.30111 0.6762 0.0
C278 C 0.07539 0.26846 0.65873 0.0
C279 C 0.14454 0.34952 0.69505 0.0
C280 C 0.17708 0.36829 0.67837 0.0
C281 C 0.19659 0.40001 0.69345 0.0
C282 C 0.18093 0.41423 0.7257 0.0
C283 C 0.14713 0.39762 0.74291 0.0
C284 C 0.12944 0.36502 0.72696 0.0
C285 C 0.13097 0.41434 0.77763 0.0
C286 C 0.15372 0.43465 0.80429 0.0
C287 C 0.09259 0.41104 0.78442 0.0
C288 C 0.07786 0.42738 0.81577 0.0
C289 C 0.10062 0.44761 0.84241 0.0
C290 C 0.23341 0.41738 0.67533 0.0
C291 C 0.25503 0.39769 0.65349 0.0
C292 C 0.24778 0.45346 0.67923 0.0
C293 C 0.28181 0.46883 0.66219 0.0
C294 C 0.30276 0.44902 0.63976 0.0
C295 C 0.28831 0.41313 0.63578 0.0
C296 C 0.13899 0.4508 0.83572 0.0
H297 H 0.15625 0.2428 0.63614 0.0
H298 H 0.18067 0.29853 0.66565 0.0
H299 H 0.07054 0.31706 0.68698 0.0
H300 H 0.04585 0.26055 0.65698 0.0
H301 H 0.18693 0.35796 0.65261 0.0
H302 H 0.10453 0.3511 0.7401 0.0
H303 H 0.19507 0.43854 0.73755 0.0
H304 H 0.18333 0.43806 0.80118 0.0
H305 H 0.07358 0.39627 0.765 0.0
H306 H 0.04825 0.42393 0.81919 0.0
H307 H 0.24683 0.36981 0.65011 0.0
H308 H 0.23279 0.47025 0.69532 0.0
H309 H 0.15801 0.46655 0.85441 0.0
H310 H 0.30271 0.3965 0.61871 0.0
H311 H 0.29183 0.49628 0.66727 0.0
Sm312 Sm 0.03205 0.05134 0.49767 0.0
Sm313 Sm 0.98914 1.02735 0.5723 0.0
C314 C 0.06463 0.08581 0.4405 0.0
C315 C 0.09902 0.11153 0.43827 0.0
C316 C 0.09795 0.14646 0.43118 0.0
C317 C 0.13058 0.17067 0.42787 0.0
C318 C 0.16457 0.16021 0.43171 0.0
C319 C 0.1657 0.12583 0.44067 0.0
C320 C 0.13316 0.1016 0.44395 0.0
C321 C 0.06473 1.01266 0.54203 0.0
C322 C 0.0414 0.10735 0.57109 0.0
C323 C 0.96226 1.00431 0.6372 0.0
C324 C 0.9302 0.97662 0.64525 0.0
C325 C 0.93286 0.94127 0.6408 0.0
C326 C 0.90143 0.91538 0.64316 0.0
C327 C 0.86678 0.92432 0.65 0.0
C328 C 0.86423 0.9595 0.65566 0.0
C329 C 0.89561 0.98539 0.65335 0.0
C330 C 0.95022 0.05225 0.51886 0.0
C331 C 0.97827 0.97378 0.49755 0.0
O332 O 0.03695 0.09553 0.45876 0.0
O333 O 0.06817 0.05396 0.44752 0.0
O334 O 0.0479 1.0357 0.55391 0.0
O335 O 0.06791 1.01135 0.50609 0.0
O336 O 0.05305 0.09951 0.53694 0.0
O337 O 0.01684 0.08442 0.58997 0.0
O338 O 0.99103 0.99425 0.62123 0.0
O339 O 0.95471 1.03268 0.62284 0.0
O340 O 0.98292 0.06178 0.52692 0.0
O341 O 0.93546 1.02738 0.54094 0.0
O342 O 0.97658 0.97698 0.53451 0.0
O343 O 0.99235 1.00108 0.47675 0.0
H344 H 0.07198 0.1548 0.42721 0.0
H345 H 0.12946 0.19716 0.42043 0.0
H346 H 0.19181 0.11729 0.44297 0.0
H347 H 0.13497 0.07494 0.44992 0.0
H348 H 0.95907 0.93356 0.63465 0.0
H349 H 0.90414 0.88838 0.63922 0.0
H350 H 0.83797 0.96699 0.66223 0.0
H351 H 0.89266 1.01234 0.65711 0.0
Sm352 Sm 0.54155 0.03962 0.05453 0.0
Sm353 Sm 0.48185 0.03897 1.02588 0.0
C354 C 0.60166 0.05807 0.09203 0.0
C355 C 0.60408 0.07567 0.12834 0.0
C356 C 0.62387 0.10972 0.13148 0.0
C357 C 0.62736 0.12633 0.16615 0.0
C358 C 0.6117 0.10857 0.1978 0.0
C359 C 0.58809 0.07639 0.19409 0.0
C360 C 0.58427 0.0599 0.1594 0.0
C361 C 0.49354 0.98056 0.08256 0.0
C362 C 0.48857 0.08809 0.09478 0.0
C363 C 0.42 1.02201 0.9903 0.0
C364 C 0.41476 1.00666 0.95294 0.0
C365 C 0.42075 0.97264 0.94512 0.0
C366 C 0.41832 0.95939 0.90881 0.0
C367 C 0.40957 0.97988 0.8801 0.0
C368 C 0.40522 1.0143 0.88773 0.0
C369 C 0.40765 1.02753 0.9239 0.0
C370 C 0.53047 0.09789 0.99798 0.0
C371 C 0.53573 0.98995 0.98626 0.0
O372 O 0.59337 0.0766 0.06498 0.0
O373 O 0.58375 1.0261 0.09121 0.0
O374 O 0.48592 1.01112 0.0807 0.0
O375 O 0.52603 0.98091 0.06818 0.0
O376 O 0.52291 0.08614 0.08679 0.0
O377 O 0.46318 0.06606 0.07797 0.0
O378 O 0.42993 1.00226 1.01537 0.0
O379 O 0.43848 0.05376 0.99164 0.0
O380 O 0.53739 0.06704 0.99945 0.0
O381 O 0.49813 0.09799 1.01264 0.0
O382 O 0.50146 0.99416 0.99102 0.0
O383 O 0.56105 1.00976 1.00545 0.0
H384 H 0.63794 0.12283 0.10746 0.0
H385 H 0.64575 0.15124 0.16874 0.0
H386 H 0.57587 0.06252 0.21849 0.0
H387 H 0.56728 1.03423 0.15739 0.0
H388 H 0.42727 0.95619 0.96689 0.0
H389 H 0.42218 0.93289 0.90336 0.0
H390 H 0.39803 1.03049 0.86604 0.0
H391 H 0.40379 0.05406 0.9292 0.0
Sm392 Sm 0.50776 0.50633 0.5153 0.0
Sm393 Sm 0.5157 0.57059 0.56273 0.0
C394 C 0.52579 0.45739 0.47209 0.0
C395 C 0.55157 0.43545 0.48214 0.0
C396 C 0.5857 0.45053 0.49711 0.0
C397 C 0.60867 0.42948 0.51029 0.0
C398 C 0.59754 0.39334 0.50884 0.0
C399 C 0.56226 0.37837 0.49699 0.0
C400 C 0.53951 0.39938 0.48319 0.0
C401 C 0.44256 0.49852 0.55649 0.0
C402 C 0.54519 0.50416 0.60086 0.0
C403 C 0.49577 0.61861 0.60642 0.0
C404 C 0.47153 0.64228 0.59597 0.0
C405 C 0.4332 0.63073 0.59523 0.0
C406 C 0.41091 0.65103 0.57913 0.0
C407 C 0.42674 0.68307 0.56385 0.0
C408 C 0.46486 0.69455 0.56433 0.0
C409 C 0.48706 0.67451 0.58064 0.0
C410 C 0.58181 0.57719 0.52298 0.0
C411 C 0.47945 0.57344 0.47692 0.0
O412 O 0.5396 0.49028 0.46674 0.0
O413 O 0.49576 0.45254 0.49267 0.0
O414 O 0.46896 0.52449 0.55871 0.0
O415 O 0.45026 0.47652 0.53144 0.0
O416 O 0.5379 0.48812 0.5678 0.0
O417 O 0.53802 0.53602 0.606 0.0
O418 O 0.48044 0.58579 0.60889 0.0
O419 O 0.52757 0.62316 0.5887 0.0
O420 O 0.555 0.55166 0.52032 0.0
O421 O 0.57493 0.59858 0.54917 0.0
O422 O 0.4892 0.59025 0.50901 0.0
O423 O 0.48351 0.5405 0.47249 0.0
H424 H 0.59487 0.47851 0.49834 0.0
H425 H 0.63596 0.44126 0.5193 0.0
H426 H 0.55345 0.35034 0.49601 0.0
H427 H 0.51257 0.38754 0.47334 0.0
H428 H 0.42047 0.60598 0.60683 0.0
H429 H 0.38131 0.64247 0.58003 0.0
H430 H 0.47723 0.71971 0.55334 0.0
H431 H 0.51649 0.68398 0.58061 0.0
Sm432 Sm 0.01923 0.50598 0.06004 0.0
Sm433 Sm 1.00596 0.57276 1.01451 0.0
C434 C 0.05591 0.45691 0.07897 0.0
C435 C 0.09067 0.45537 0.09864 0.0
C436 C 0.12516 0.47167 0.08397 0.0
C437 C 0.15794 0.46667 0.09992 0.0
C438 C 0.15726 0.44513 0.13087 0.0
C439 C 0.12283 0.43058 0.14692 0.0
C440 C 0.08996 0.43552 0.1309 0.0
C441 C 0.9847 0.54984 0.10767 0.0
C442 C 0.08113 0.58154 0.06645 0.0
C443 C 0.971 0.62297 0.99513 0.0
C444 C 0.93592 0.62542 0.97641 0.0
C445 C 0.90333 0.62483 0.99785 0.0
C446 C 0.87105 0.63038 0.98145 0.0
C447 C 0.87024 0.63657 0.94312 0.0
C448 C 0.90217 0.63563 0.92116 0.0
C449 C 0.93474 0.63027 0.93766 0.0
C450 C 0.03858 0.52846 0.96588 0.0
C451 C 0.94406 0.49717 1.00863 0.0
O452 O 0.05957 0.472 0.04661 0.0
O453 O 0.02751 0.46375 0.09856 0.0
O454 O 0.99434 0.55383 0.07334 0.0
O455 O 0.99229 0.52008 0.11726 0.0
O456 O 0.07074 0.54814 0.07456 0.0
O457 O 0.06135 0.59763 0.04417 0.0
O458 O 0.96791 0.60918 1.02821 0.0
O459 O 0.99807 0.61413 0.97501 0.0
O460 O 0.0301 0.52437 1.00055 0.0
O461 O 0.03005 0.55788 0.95661 0.0
O462 O 0.95256 0.53139 1.00383 0.0
O463 O 0.96582 0.48039 1.02775 0.0
H464 H 0.127 0.48763 0.05949 0.0
H465 H 0.1839 0.47913 0.08748 0.0
H466 H 0.12125 0.41404 0.17092 0.0
H467 H 0.06394 0.42284 0.14305 0.0
H468 H 0.90294 0.62111 1.02768 0.0
H469 H 0.84683 0.63084 0.99902 0.0
H470 H 0.90243 0.64062 0.89158 0.0
H471 H 0.95922 0.63092 0.92023 0.0
C472 C 0.25791 0.21976 0.42868 0.0
C473 C 0.26314 0.22507 0.39016 0.0
C474 C 0.22575 0.19849 0.44259 0.0
C475 C 0.19826 0.18264 0.41816 0.0
H476 H 0.27825 0.23266 0.448 0.0
H477 H 0.22204 0.19486 0.47238 0.0
S478 S 0.20041 0.18669 0.31518 0.0
N479 N 0.23942 0.21136 0.328 0.0
N480 N 0.17905 0.17196 0.35418 0.0
C481 C 0.20376 0.18717 0.37974 0.0
C482 C 0.23627 0.20829 0.36569 0.0
C483 C 0.3889 0.97676 0.77901 0.0
C484 C 0.35768 0.95026 0.77806 0.0
C485 C 0.40907 0.9836 0.81144 0.0
C486 C 0.39814 0.96445 0.84378 0.0
H487 H 0.39663 0.9934 0.75529 0.0
H488 H 0.43154 1.00573 0.81218 0.0
S489 S 0.32313 0.88756 0.85257 0.0
N490 N 0.3209 0.90063 0.80944 0.0
N491 N 0.35765 0.91472 0.87125 0.0
C492 C 0.36928 0.93566 0.84191 0.0
C493 C 0.34906 0.92844 0.80882 0.0
C494 C 0.58393 0.43564 0.66071 0.0
C495 C 0.59176 0.45199 0.69628 0.0
C496 C 0.5695 0.4522 0.63051 0.0
C497 C 0.56147 0.48639 0.63347 0.0
H498 H 0.58947 0.40965 0.65575 0.0
H499 H 0.56457 0.4378 0.60441 0.0
S500 S 0.57437 0.54106 0.72054 0.0
N501 N 0.58806 0.50493 0.73203 0.0
N502 N 0.56217 0.53545 0.67661 0.0
C503 C 0.56886 0.50293 0.66895 0.0
C504 C 0.58353 0.48611 0.69962 0.0
C505 C 0.91871 0.59425 0.17119 0.0
C506 C 0.94136 0.61223 0.19985 0.0
C507 C 0.93264 0.57597 0.14056 0.0
C508 C 0.97042 0.57497 0.1355 0.0
H509 H 0.88943 0.59366 0.17202 0.0
H510 H 0.91329 0.56168 0.1211 0.0
S511 S 0.04355 0.6169 0.19913 0.0
N512 N 1.00562 0.62634 0.21861 0.0
N513 N 0.03038 0.59388 0.1612 0.0
C514 C 0.99356 0.59313 0.16274 0.0
C515 C 0.97962 0.61127 0.19439 0.0
C516 C 0.4925 0.17994 0.13506 0.0
C517 C 0.45767 0.17793 0.15246 0.0
C518 C 0.50297 0.15036 0.11775 0.0
C519 C 0.47884 0.11785 0.11712 0.0
H520 H 0.51146 0.20461 0.13424 0.0
H521 H 0.52963 0.15328 0.10369 0.0
S522 S 0.38609 0.09867 0.16226 0.0
N523 N 0.40032 0.14069 0.17053 0.0
N524 N 0.41959 0.08532 0.13786 0.0
C525 C 0.44444 0.11551 0.13552 0.0
C526 C 0.43397 0.14549 0.15323 0.0
C527 C 0.13414 0.96487 0.56457 0.0
C528 C 0.11283 0.93113 0.5647 0.0
C529 C 0.11725 0.99365 0.56449 0.0
C530 C 0.07898 0.98905 0.56466 0.0
H531 H 0.16394 0.96902 0.56441 0.0
H532 H 0.13406 1.01924 0.56079 0.0
S533 S 1.01191 0.90647 0.57299 0.0
N534 N 0.05245 0.89467 0.56921 0.0
N535 N 0.02062 0.9494 0.57247 0.0
C536 C 0.05773 0.95581 0.56904 0.0
C537 C 0.07472 0.92647 0.56755 0.0
C538 C 0.84604 0.4785 0.9675 0.0
C539 C 0.84255 0.44525 0.94975 0.0
C540 C 0.87815 0.49433 0.9868 0.0
C541 C 0.90885 0.47781 0.99052 0.0
H542 H 0.82359 0.49271 0.96674 0.0
H543 H 0.87883 0.52003 0.99908 0.0
S544 S 0.91664 0.39184 0.94789 0.0
N545 N 0.8754 0.39754 0.93591 0.0
N546 N 0.93393 0.42642 0.97338 0.0
C547 C 0.90594 0.44456 0.97334 0.0
C548 C 0.87352 0.42863 0.95288 0.0
C549 C 0.68403 0.6054 0.4976 0.0
C550 C 0.68522 0.6098 0.45844 0.0
C551 C 0.65087 0.59339 0.5177 0.0
C552 C 0.61697 0.58369 0.49989 0.0
H553 H 0.70897 0.61172 0.51336 0.0
H554 H 0.65176 0.59215 0.54779 0.0
S555 S 0.60279 0.58989 0.39861 0.0
N556 N 0.64746 0.60371 0.40311 0.0
N557 N 0.58622 0.57934 0.44085 0.0
C558 C 0.61743 0.58664 0.46087 0.0
C559 C 0.65111 0.59991 0.44026 0.0
C560 C 0.22909 0.42405 0.19715 0.0
C561 C 0.2545 0.41124 0.173 0.0
C562 C 0.1985 0.43608 0.1834 0.0
C563 C 0.19201 0.43588 0.14488 0.0
H564 H 0.23236 0.42394 0.22707 0.0
H565 H 0.17941 0.44501 0.20316 0.0
S566 S 0.25018 0.40492 0.0699 0.0
N567 N 0.27117 0.39944 0.10872 0.0
N568 N 0.21398 0.42188 0.08284 0.0
C569 C 0.21787 0.42415 0.12042 0.0
C570 C 0.249 0.41194 0.13445 0.0
C571 C 0.59628 0.18421 0.97159 0.0
C572 C 0.58322 0.19378 0.93714 0.0
C573 C 0.58057 0.15273 0.9901 0.0
C574 C 0.5511 0.12843 0.97515 0.0
H575 H 0.61833 0.20176 0.98514 0.0
H576 H 0.591 0.14789 1.01701 0.0
S577 S 0.50815 0.13812 0.88456 0.0
N578 N 0.53982 0.17378 0.88814 0.0
N579 N 0.51065 0.11591 0.9227 0.0
C580 C 0.53837 0.13713 0.94047 0.0
C581 C 0.55424 0.16915 0.92164 0.0
C582 C 0.92537 0.87922 0.48147 0.0
C583 C 0.93893 0.86857 0.44657 0.0
C584 C 0.93822 0.91272 0.49762 0.0
C585 C 0.96471 0.93807 0.47945 0.0
H586 H 0.90471 0.86132 0.49675 0.0
H587 H 0.92684 0.91891 0.52456 0.0
S588 S 1.01055 0.92365 0.38835 0.0
N589 N 0.98179 0.88658 0.39521 0.0
N590 N 1.00512 0.94894 0.42486 0.0
C591 C 0.97877 0.92766 0.44478 0.0
C592 C 0.96621 0.8933 0.42867 0.0
C593 C 0.38447 0.76174 0.57534 0.0
C594 C 0.3552 0.75514 0.55061 0.0
C595 C 0.40825 0.73859 0.57793 0.0
C596 C 0.40351 0.70809 0.55595 0.0
H597 H 0.38784 0.78401 0.59439 0.0
H598 H 0.42947 0.74379 0.59864 0.0
S599 S 0.33179 0.67972 0.48601 0.0
N600 N 0.32277 0.71698 0.50317 0.0
N601 N 0.36847 0.67264 0.50781 0.0
C602 C 0.37487 0.70138 0.53042 0.0
C603 C 0.35039 0.72521 0.52781 0.0
C604 C 0.80127 0.84767 0.68974 0.0
C605 C 0.76739 0.85196 0.67559 0.0
C606 C 0.8339 0.86988 0.67932 0.0
C607 C 0.8336 0.89701 0.65438 0.0
H608 H 0.80218 0.82874 0.71112 0.0
H609 H 0.85906 0.86728 0.69285 0.0
S610 S 0.75278 0.91442 0.60415 0.0
N611 N 0.73582 0.88204 0.63205 0.0
N612 N 0.79749 0.92339 0.6114 0.0
C613 C 0.80031 0.89949 0.63754 0.0
C614 C 0.76705 0.87705 0.64845 0.0
C615 C 0.67828 0.10275 0.2717 0.0
C616 C 0.68259 0.13582 0.28867 0.0
C617 C 0.65264 0.09332 0.2441 0.0
C618 C 0.63082 0.11679 0.23255 0.0
H619 H 0.69528 0.08432 0.27934 0.0
H620 H 0.65122 0.06812 0.23031 0.0
S621 S 0.62962 0.20538 0.27035 0.0
N622 N 0.66124 0.19122 0.29429 0.0
N623 N 0.61364 0.17355 0.24067 0.0
C624 C 0.63411 0.14959 0.24979 0.0
C625 C 0.66 0.15914 0.27831 0.0
C626 C 0.41543 0.59749 0.39935 0.0
C627 C 0.43605 0.62707 0.38085 0.0
C628 C 0.4292 0.58064 0.42967 0.0
C629 C 0.46458 0.59216 0.4445 0.0
H630 H 0.38815 0.58639 0.39008 0.0
H631 H 0.4116 0.55825 0.44181 0.0
S632 S 0.53229 0.66642 0.40741 0.0
N633 N 0.49598 0.66585 0.38149 0.0
N634 N 0.52077 0.63421 0.43683 0.0
C635 C 0.48581 0.62116 0.42651 0.0
C636 C 0.47204 0.63836 0.39546 0.0
C637 C 0.05373 0.48262 0.87117 0.0
C638 C 0.08435 0.46618 0.87574 0.0
C639 C 0.03898 0.50128 0.90066 0.0
C640 C 0.05302 0.50417 0.93718 0.0
H641 H 0.04153 0.48206 0.84403 0.0
H642 H 0.01626 0.51405 0.89453 0.0
S643 S 0.13261 0.46596 0.96563 0.0
N644 N 0.12784 0.45414 0.92122 0.0
N645 N 0.10005 0.48875 0.97581 0.0
C646 C 0.08317 0.48744 0.94259 0.0
C647 C 0.09873 0.46877 0.9123 0.0
C648 C 0.57594 0.90908 0.9631 0.0
C649 C 0.56433 0.90021 0.9266 0.0
C650 C 0.56668 0.93834 0.9819 0.0
C651 C 0.54481 0.95941 0.96523 0.0
H652 H 0.59348 0.89405 0.97666 0.0
H653 H 0.5767 0.94452 1.00981 0.0
S654 S 0.50655 0.94679 0.87055 0.0
N655 N 0.52957 0.91463 0.87455 0.0
N656 N 0.51105 0.96887 0.91055 0.0
C657 C 0.53202 0.9502 0.92925 0.0
C658 C 0.54213 0.92084 0.90974 0.0
C659 C 0.93496 0.13413 0.47992 0.0
C660 C 0.92274 0.15044 0.51191 0.0
C661 C 0.93917 0.0995 0.48134 0.0
C662 C 0.93322 0.08182 0.51512 0.0
H663 H 0.93512 0.14599 0.45289 0.0
H664 H 0.94746 0.08665 0.45625 0.0
S665 S 0.91888 0.12048 0.60867 0.0
N666 N 0.91858 0.15228 0.57927 0.0
N667 N 0.92542 0.08659 0.58272 0.0
C668 C 0.92761 0.10049 0.54816 0.0
C669 C 0.92503 0.1359 0.54656 0.0
C670 C 0.15244 0.61657 0.14203 0.0
C671 C 0.18528 0.63103 0.12228 0.0
C672 C 0.11951 0.60128 0.12385 0.0
C673 C 0.11611 0.60091 0.08471 0.0
H674 H 0.15179 0.61673 0.17217 0.0
H675 H 0.0964 0.58923 0.1409 0.0
S676 S 0.193 0.63126 1.01802 0.0
N677 N 0.21176 0.63979 0.05923 0.0
N678 N 0.14935 0.61439 1.02641 0.0
C679 C 0.14819 0.61515 0.06428 0.0
C680 C 0.18249 0.62943 0.08258 0.0
C681 C 0.36779 0.44445 0.61715 0.0
C682 C 0.33974 0.46461 0.62123 0.0
C683 C 0.40122 0.45648 0.59768 0.0
C684 C 0.40932 0.4898 0.582 0.0
H685 H 0.36392 0.41869 0.62876 0.0
H686 H 0.42087 0.43912 0.5944 0.0
S687 S 0.34671 0.5537 0.58344 0.0
N688 N 0.32328 0.52033 0.60648 0.0
N689 N 0.38667 0.54294 0.57151 0.0
C690 C 0.38249 0.51088 0.58657 0.0
C691 C 0.34781 0.49839 0.60581 0.0
C692 C 0.79493 0.68919 0.92996 0.0
C693 C 0.77405 0.67209 0.90032 0.0
C694 C 0.82541 0.67716 0.94349 0.0
C695 C 0.83744 0.64794 0.92754 0.0
H696 H 0.78845 0.71281 0.94259 0.0
H697 H 0.84028 0.69144 0.9663 0.0
S698 S 0.7932 0.59227 0.85031 0.0
N699 N 0.7674 0.62231 0.85677 0.0
N700 N 0.82641 0.60158 0.88078 0.0
C701 C 0.81749 0.63046 0.89778 0.0
C702 C 0.78551 0.64206 0.88453 0.0
C703 C 0.42204 0.9001 0.1157 0.0
C704 C 0.44072 0.8846 0.14304 0.0
C705 C 0.43791 0.93195 0.09791 0.0
C706 C 0.47372 0.95005 0.10589 0.0
H707 H 0.39477 0.88737 0.10769 0.0
H708 H 0.42247 0.94172 0.07664 0.0
S709 S 0.53514 0.92175 0.17453 0.0
N710 N 0.49773 0.89134 0.17674 0.0
N711 N 0.5271 0.94968 0.14338 0.0
C712 C 0.4925 0.93507 0.13319 0.0
C713 C 0.47623 0.90308 0.15169 0.0
C714 C 0.05342 0.18823 0.63844 0.0
C715 C 0.08383 0.21167 0.62344 0.0
C716 C 0.04021 0.155 0.62174 0.0
C717 C 0.0563 0.14316 0.58869 0.0
H718 H 0.03996 0.19531 0.66391 0.0
H719 H 0.01694 0.13844 0.63497 0.0
S720 S 0.13487 0.19508 0.5358 0.0
N721 N 0.12825 0.22066 0.5717 0.0
N722 N 0.10386 0.15919 0.54082 0.0
C723 C 0.0862 0.16669 0.57287 0.0
C724 C 0.09979 0.2004 0.59001 0.0
C725 C 0.67743 0.35498 0.53997 0.0
C726 C 0.68576 0.33734 0.50724 0.0
C727 C 0.6478 0.37259 0.54112 0.0
C728 C 0.62569 0.37198 0.50985 0.0
H729 H 0.6937 0.35488 0.5646 0.0
H730 H 0.64212 0.3867 0.56633 0.0
S731 S 0.63562 0.32825 0.41831 0.0
N732 N 0.66907 0.31912 0.44357 0.0
N733 N 0.61391 0.35279 0.44561 0.0
C734 C 0.63366 0.35413 0.47724 0.0
C735 C 0.66367 0.3366 0.47595 0.0
loop_
_geom_bond_atom_site_label_1
_geom_bond_atom_site_label_2
_geom_bond_distance
_geom_bond_site_symmetry_2
_ccdc_geom_bond_type
C0 C1 1.386 . S
C0 C2 1.397 . S
C0 H24 0.931 . S
C1 C0 1.386 . S
C1 C5 1.397 . S
C2 C0 1.397 . S
C2 C3 1.384 . S
C2 H25 0.930 . S
C3 C2 1.384 . S
C3 C4 1.377 . S
C3 C6 1.481 . S
C4 C3 1.377 . S
C4 C5 1.389 . S
C4 H26 0.929 . S
C5 C1 1.397 . S
C5 C4 1.389 . S
C5 H27 0.931 . S
C6 C3 1.481 . S
C6 C7 1.387 . S
C6 C11 1.390 . S
C7 C6 1.387 . S
C7 C8 1.401 . S
C7 H28 0.930 . S
C8 C7 1.401 . S
C8 C9 1.376 . S
C8 C17 1.511 . S
C9 C8 1.376 . S
C9 C10 1.392 . S
C9 H30 0.931 . S
C10 C9 1.392 . S
C10 C11 1.361 . S
C10 C12 1.500 . S
C11 C6 1.390 . S
C11 C10 1.361 . S
C11 H29 0.931 . S
C12 C10 1.500 . S
C12 C13 1.371 . S
C12 C14 1.365 . S
C13 C12 1.371 . S
C13 C23 1.386 . S
C13 H31 0.931 . S
C14 C12 1.365 . S
C14 C15 1.409 . S
C14 H32 0.929 . S
C15 C14 1.409 . S
C15 C16 1.380 . S
C15 H33 0.930 . S
C16 C15 1.380 . S
C16 C23 1.357 . S
C17 C8 1.511 . S
C17 C18 1.341 . S
C17 C19 1.371 . S
C18 C17 1.341 . S
C18 C22 1.394 . S
C18 H34 0.930 . S
C19 C17 1.371 . S
C19 C20 1.392 . S
C19 H35 0.931 . S
C20 C19 1.392 . S
C20 C21 1.331 . S
C20 H38 0.932 . S
C21 C20 1.331 . S
C21 C22 1.336 . S
C22 C18 1.394 . S
C22 C21 1.336 . S
C22 H37 0.929 . S
C23 C13 1.386 . S
C23 C16 1.357 . S
C23 H36 0.928 . S
H24 C0 0.931 . S
H25 C2 0.930 . S
H26 C4 0.929 . S
H27 C5 0.931 . S
H28 C7 0.930 . S
H29 C11 0.931 . S
H30 C9 0.931 . S
H31 C13 0.931 . S
H32 C14 0.929 . S
H33 C15 0.930 . S
H34 C18 0.930 . S
H35 C19 0.931 . S
H36 C23 0.928 . S
H37 C22 0.929 . S
H38 C20 0.932 . S
C39 C40 1.386 . S
C39 C41 1.397 . S
C39 H63 0.931 . S
C40 C39 1.386 . S
C40 C44 1.397 . S
C41 C39 1.397 . S
C41 C42 1.384 . S
C41 H64 0.930 . S
C42 C41 1.384 . S
C42 C43 1.377 . S
C42 C45 1.481 . S
C43 C42 1.377 . S
C43 C44 1.389 . S
C43 H65 0.929 . S
C44 C40 1.397 . S
C44 C43 1.389 . S
C44 H66 0.931 . S
C45 C42 1.481 . S
C45 C46 1.387 . S
C45 C50 1.390 . S
C46 C45 1.387 . S
C46 C47 1.401 . S
C46 H67 0.930 . S
C47 C46 1.401 . S
C47 C48 1.376 . S
C47 C56 1.511 . S
C48 C47 1.376 . S
C48 C49 1.392 . S
C48 H69 0.931 . S
C49 C48 1.392 . S
C49 C50 1.361 . S
C49 C51 1.500 . S
C50 C45 1.390 . S
C50 C49 1.361 . S
C50 H68 0.931 . S
C51 C49 1.500 . S
C51 C52 1.371 . S
C51 C53 1.365 . S
C52 C51 1.371 . S
C52 C62 1.386 . S
C52 H70 0.931 . S
C53 C51 1.365 . S
C53 C54 1.409 . S
C53 H71 0.929 . S
C54 C53 1.409 . S
C54 C55 1.380 . S
C54 H72 0.930 . S
C55 C54 1.380 . S
C55 C62 1.357 . S
C56 C47 1.511 . S
C56 C57 1.341 . S
C56 C58 1.371 . S
C57 C56 1.341 . S
C57 C61 1.394 . S
C57 H73 0.930 . S
C58 C56 1.371 . S
C58 C59 1.392 . S
C58 H74 0.931 . S
C59 C58 1.392 . S
C59 C60 1.331 . S
C59 H77 0.932 . S
C60 C59 1.331 . S
C60 C61 1.336 . S
C61 C57 1.394 . S
C61 C60 1.336 . S
C61 H76 0.929 . S
C62 C52 1.386 . S
C62 C55 1.357 . S
C62 H75 0.928 . S
H63 C39 0.931 . S
H64 C41 0.930 . S
H65 C43 0.929 . S
H66 C44 0.931 . S
H67 C46 0.930 . S
H68 C50 0.931 . S
H69 C48 0.931 . S
H70 C52 0.931 . S
H71 C53 0.929 . S
H72 C54 0.930 . S
H73 C57 0.930 . S
H74 C58 0.931 . S
H75 C62 0.928 . S
H76 C61 0.929 . S
H77 C59 0.932 . S
C78 C79 1.386 . S
C78 C80 1.397 . S
C78 H102 0.931 . S
C79 C78 1.386 . S
C79 C83 1.397 . S
C80 C78 1.397 . S
C80 C81 1.384 . S
C80 H103 0.930 . S
C81 C80 1.384 . S
C81 C82 1.377 . S
C81 C84 1.481 . S
C82 C81 1.377 . S
C82 C83 1.389 . S
C82 H104 0.929 . S
C83 C79 1.397 . S
C83 C82 1.389 . S
C83 H105 0.931 . S
C84 C81 1.481 . S
C84 C85 1.387 . S
C84 C89 1.390 . S
C85 C84 1.387 . S
C85 C86 1.401 . S
C85 H106 0.930 . S
C86 C85 1.401 . S
C86 C87 1.376 . S
C86 C95 1.511 . S
C87 C86 1.376 . S
C87 C88 1.392 . S
C87 H108 0.931 . S
C88 C87 1.392 . S
C88 C89 1.361 . S
C88 C90 1.500 . S
C89 C84 1.390 . S
C89 C88 1.361 . S
C89 H107 0.931 . S
C90 C88 1.500 . S
C90 C91 1.371 . S
C90 C92 1.365 . S
C91 C90 1.371 . S
C91 C101 1.386 . S
C91 H109 0.931 . S
C92 C90 1.365 . S
C92 C93 1.409 . S
C92 H110 0.929 . S
C93 C92 1.409 . S
C93 C94 1.380 . S
C93 H111 0.930 . S
C94 C93 1.380 . S
C94 C101 1.357 . S
C95 C86 1.511 . S
C95 C96 1.341 . S
C95 C97 1.371 . S
C96 C95 1.341 . S
C96 C100 1.394 . S
C96 H112 0.930 . S
C97 C95 1.371 . S
C97 C98 1.392 . S
C97 H113 0.931 . S
C98 C97 1.392 . S
C98 C99 1.331 . S
C98 H116 0.932 . S
C99 C98 1.331 . S
C99 C100 1.336 . S
C100 C96 1.394 . S
C100 C99 1.336 . S
C100 H115 0.929 . S
C101 C91 1.386 . S
C101 C94 1.357 . S
C101 H114 0.928 . S
H102 C78 0.931 . S
H103 C80 0.930 . S
H104 C82 0.929 . S
H105 C83 0.931 . S
H106 C85 0.930 . S
H107 C89 0.931 . S
H108 C87 0.931 . S
H109 C91 0.931 . S
H110 C92 0.929 . S
H111 C93 0.930 . S
H112 C96 0.930 . S
H113 C97 0.931 . S
H114 C101 0.928 . S
H115 C100 0.929 . S
H116 C98 0.932 . S
C117 C118 1.386 . S
C117 C119 1.397 . S
C117 H141 0.931 . S
C118 C117 1.386 . S
C118 C122 1.397 . S
C119 C117 1.397 . S
C119 C120 1.384 . S
C119 H142 0.930 . S
C120 C119 1.384 . S
C120 C121 1.377 . S
C120 C123 1.481 . S
C121 C120 1.377 . S
C121 C122 1.389 . S
C121 H143 0.929 . S
C122 C118 1.397 . S
C122 C121 1.389 . S
C122 H144 0.931 . S
C123 C120 1.481 . S
C123 C124 1.387 . S
C123 C128 1.390 . S
C124 C123 1.387 . S
C124 C125 1.401 . S
C124 H145 0.930 . S
C125 C124 1.401 . S
C125 C126 1.376 . S
C125 C134 1.511 . S
C126 C125 1.376 . S
C126 C127 1.392 . S
C126 H147 0.931 . S
C127 C126 1.392 . S
C127 C128 1.361 . S
C127 C129 1.500 . S
C128 C123 1.390 . S
C128 C127 1.361 . S
C128 H146 0.931 . S
C129 C127 1.500 . S
C129 C130 1.371 . S
C129 C131 1.365 . S
C130 C129 1.371 . S
C130 C140 1.386 . S
C130 H148 0.931 . S
C131 C129 1.365 . S
C131 C132 1.409 . S
C131 H149 0.929 . S
C132 C131 1.409 . S
C132 C133 1.380 . S
C132 H150 0.930 . S
C133 C132 1.380 . S
C133 C140 1.357 . S
C134 C125 1.511 . S
C134 C135 1.341 . S
C134 C136 1.371 . S
C135 C134 1.341 . S
C135 C139 1.394 . S
C135 H151 0.930 . S
C136 C134 1.371 . S
C136 C137 1.392 . S
C136 H152 0.931 . S
C137 C136 1.392 . S
C137 C138 1.331 . S
C137 H155 0.932 . S
C138 C137 1.331 . S
C138 C139 1.336 . S
C139 C135 1.394 . S
C139 C138 1.336 . S
C139 H154 0.929 . S
C140 C130 1.386 . S
C140 C133 1.357 . S
C140 H153 0.928 . S
H141 C117 0.931 . S
H142 C119 0.930 . S
H143 C121 0.929 . S
H144 C122 0.931 . S
H145 C124 0.930 . S
H146 C128 0.931 . S
H147 C126 0.931 . S
H148 C130 0.931 . S
H149 C131 0.929 . S
H150 C132 0.930 . S
H151 C135 0.930 . S
H152 C136 0.931 . S
H153 C140 0.928 . S
H154 C139 0.929 . S
H155 C137 0.932 . S
C156 C157 1.386 . S
C156 C158 1.397 . S
C156 H180 0.931 . S
C157 C156 1.386 . S
C157 C161 1.397 . S
C158 C156 1.397 . S
C158 C159 1.384 . S
C158 H181 0.930 . S
C159 C158 1.384 . S
C159 C160 1.377 . S
C159 C162 1.481 . S
C160 C159 1.377 . S
C160 C161 1.389 . S
C160 H182 0.929 . S
C161 C157 1.397 . S
C161 C160 1.389 . S
C161 H183 0.931 . S
C162 C159 1.481 . S
C162 C163 1.387 . S
C162 C167 1.390 . S
C163 C162 1.387 . S
C163 C164 1.401 . S
C163 H184 0.930 . S
C164 C163 1.401 . S
C164 C165 1.376 . S
C164 C173 1.511 . S
C165 C164 1.376 . S
C165 C166 1.392 . S
C165 H186 0.931 . S
C166 C165 1.392 . S
C166 C167 1.361 . S
C166 C168 1.500 . S
C167 C162 1.390 . S
C167 C166 1.361 . S
C167 H185 0.931 . S
C168 C166 1.500 . S
C168 C169 1.371 . S
C168 C170 1.365 . S
C169 C168 1.371 . S
C169 C179 1.386 . S
C169 H187 0.931 . S
C170 C168 1.365 . S
C170 C171 1.409 . S
C170 H188 0.929 . S
C171 C170 1.409 . S
C171 C172 1.380 . S
C171 H189 0.930 . S
C172 C171 1.380 . S
C172 C179 1.357 . S
C173 C164 1.511 . S
C173 C174 1.341 . S
C173 C175 1.371 . S
C174 C173 1.341 . S
C174 C178 1.394 . S
C174 H190 0.930 . S
C175 C173 1.371 . S
C175 C176 1.392 . S
C175 H191 0.931 . S
C176 C175 1.392 . S
C176 C177 1.331 . S
C176 H194 0.932 . S
C177 C176 1.331 . S
C177 C178 1.336 . S
C178 C174 1.394 . S
C178 C177 1.336 . S
C178 H193 0.929 . S
C179 C169 1.386 . S
C179 C172 1.357 . S
C179 H192 0.928 . S
H180 C156 0.931 . S
H181 C158 0.930 . S
H182 C160 0.929 . S
H183 C161 0.931 . S
H184 C163 0.930 . S
H185 C167 0.931 . S
H186 C165 0.931 . S
H187 C169 0.931 . S
H188 C170 0.929 . S
H189 C171 0.930 . S
H190 C174 0.930 . S
H191 C175 0.931 . S
H192 C179 0.928 . S
H193 C178 0.929 . S
H194 C176 0.932 . S
C195 C196 1.386 . S
C195 C197 1.397 . S
C195 H219 0.931 . S
C196 C195 1.386 . S
C196 C200 1.397 . S
C197 C195 1.397 . S
C197 C198 1.384 . S
C197 H220 0.930 . S
C198 C197 1.384 . S
C198 C199 1.377 . S
C198 C201 1.481 . S
C199 C198 1.377 . S
C199 C200 1.389 . S
C199 H221 0.929 . S
C200 C196 1.397 . S
C200 C199 1.389 . S
C200 H222 0.931 . S
C201 C198 1.481 . S
C201 C202 1.387 . S
C201 C206 1.390 . S
C202 C201 1.387 . S
C202 C203 1.401 . S
C202 H223 0.930 . S
C203 C202 1.401 . S
C203 C204 1.376 . S
C203 C212 1.511 . S
C204 C203 1.376 . S
C204 C205 1.392 . S
C204 H225 0.931 . S
C205 C204 1.392 . S
C205 C206 1.361 . S
C205 C207 1.500 . S
C206 C201 1.390 . S
C206 C205 1.361 . S
C206 H224 0.931 . S
C207 C205 1.500 . S
C207 C208 1.371 . S
C207 C209 1.365 . S
C208 C207 1.371 . S
C208 C218 1.386 . S
C208 H226 0.931 . S
C209 C207 1.365 . S
C209 C210 1.409 . S
C209 H227 0.929 . S
C210 C209 1.409 . S
C210 C211 1.380 . S
C210 H228 0.930 . S
C211 C210 1.380 . S
C211 C218 1.357 . S
C212 C203 1.511 . S
C212 C213 1.341 . S
C212 C214 1.371 . S
C213 C212 1.341 . S
C213 C217 1.394 . S
C213 H229 0.930 . S
C214 C212 1.371 . S
C214 C215 1.392 . S
C214 H230 0.931 . S
C215 C214 1.392 . S
C215 C216 1.331 . S
C215 H233 0.932 . S
C216 C215 1.331 . S
C216 C217 1.336 . S
C217 C213 1.394 . S
C217 C216 1.336 . S
C217 H232 0.929 . S
C218 C208 1.386 . S
C218 C211 1.357 . S
C218 H231 0.928 . S
H219 C195 0.931 . S
H220 C197 0.930 . S
H221 C199 0.929 . S
H222 C200 0.931 . S
H223 C202 0.930 . S
H224 C206 0.931 . S
H225 C204 0.931 . S
H226 C208 0.931 . S
H227 C209 0.929 . S
H228 C210 0.930 . S
H229 C213 0.930 . S
H230 C214 0.931 . S
H231 C218 0.928 . S
H232 C217 0.929 . S
H233 C215 0.932 . S
C234 C235 1.386 . S
C234 C236 1.397 . S
C234 H258 0.931 . S
C235 C234 1.386 . S
C235 C239 1.397 . S
C236 C234 1.397 . S
C236 C237 1.384 . S
C236 H259 0.930 . S
C237 C236 1.384 . S
C237 C238 1.377 . S
C237 C240 1.481 . S
C238 C237 1.377 . S
C238 C239 1.389 . S
C238 H260 0.929 . S
C239 C235 1.397 . S
C239 C238 1.389 . S
C239 H261 0.931 . S
C240 C237 1.481 . S
C240 C241 1.387 . S
C240 C245 1.390 . S
C241 C240 1.387 . S
C241 C242 1.401 . S
C241 H262 0.930 . S
C242 C241 1.401 . S
C242 C243 1.376 . S
C242 C251 1.511 . S
C243 C242 1.376 . S
C243 C244 1.392 . S
C243 H264 0.931 . S
C244 C243 1.392 . S
C244 C245 1.361 . S
C244 C246 1.500 . S
C245 C240 1.390 . S
C245 C244 1.361 . S
C245 H263 0.931 . S
C246 C244 1.500 . S
C246 C247 1.371 . S
C246 C248 1.365 . S
C247 C246 1.371 . S
C247 C257 1.386 . S
C247 H265 0.931 . S
C248 C246 1.365 . S
C248 C249 1.409 . S
C248 H266 0.929 . S
C249 C248 1.409 . S
C249 C250 1.380 . S
C249 H267 0.930 . S
C250 C249 1.380 . S
C250 C257 1.357 . S
C251 C242 1.511 . S
C251 C252 1.341 . S
C251 C253 1.371 . S
C252 C251 1.341 . S
C252 C256 1.394 . S
C252 H268 0.930 . S
C253 C251 1.371 . S
C253 C254 1.392 . S
C253 H269 0.931 . S
C254 C253 1.392 . S
C254 C255 1.331 . S
C254 H272 0.932 . S
C255 C254 1.331 . S
C255 C256 1.336 . S
C256 C252 1.394 . S
C256 C255 1.336 . S
C256 H271 0.929 . S
C257 C247 1.386 . S
C257 C250 1.357 . S
C257 H270 0.928 . S
H258 C234 0.931 . S
H259 C236 0.930 . S
H260 C238 0.929 . S
H261 C239 0.931 . S
H262 C241 0.930 . S
H263 C245 0.931 . S
H264 C243 0.931 . S
H265 C247 0.931 . S
H266 C248 0.929 . S
H267 C249 0.930 . S
H268 C252 0.930 . S
H269 C253 0.931 . S
H270 C257 0.928 . S
H271 C256 0.929 . S
H272 C254 0.932 . S
C273 C274 1.386 . S
C273 C275 1.397 . S
C273 H297 0.931 . S
C274 C273 1.386 . S
C274 C278 1.397 . S
C275 C273 1.397 . S
C275 C276 1.384 . S
C275 H298 0.930 . S
C276 C275 1.384 . S
C276 C277 1.377 . S
C276 C279 1.481 . S
C277 C276 1.377 . S
C277 C278 1.389 . S
C277 H299 0.929 . S
C278 C274 1.397 . S
C278 C277 1.389 . S
C278 H300 0.931 . S
C279 C276 1.481 . S
C279 C280 1.387 . S
C279 C284 1.390 . S
C280 C279 1.387 . S
C280 C281 1.401 . S
C280 H301 0.930 . S
C281 C280 1.401 . S
C281 C282 1.376 . S
C281 C290 1.511 . S
C282 C281 1.376 . S
C282 C283 1.392 . S
C282 H303 0.931 . S
C283 C282 1.392 . S
C283 C284 1.361 . S
C283 C285 1.500 . S
C284 C279 1.390 . S
C284 C283 1.361 . S
C284 H302 0.931 . S
C285 C283 1.500 . S
C285 C286 1.371 . S
C285 C287 1.365 . S
C286 C285 1.371 . S
C286 C296 1.386 . S
C286 H304 0.931 . S
C287 C285 1.365 . S
C287 C288 1.409 . S
C287 H305 0.929 . S
C288 C287 1.409 . S
C288 C289 1.380 . S
C288 H306 0.930 . S
C289 C288 1.380 . S
C289 C296 1.357 . S
C290 C281 1.511 . S
C290 C291 1.341 . S
C290 C292 1.371 . S
C291 C290 1.341 . S
C291 C295 1.394 . S
C291 H307 0.930 . S
C292 C290 1.371 . S
C292 C293 1.392 . S
C292 H308 0.931 . S
C293 C292 1.392 . S
C293 C294 1.331 . S
C293 H311 0.932 . S
C294 C293 1.331 . S
C294 C295 1.336 . S
C295 C291 1.394 . S
C295 C294 1.336 . S
C295 H310 0.929 . S
C296 C286 1.386 . S
C296 C289 1.357 . S
C296 H309 0.928 . S
H297 C273 0.931 . S
H298 C275 0.930 . S
H299 C277 0.929 . S
H300 C278 0.931 . S
H301 C280 0.930 . S
H302 C284 0.931 . S
H303 C282 0.931 . S
H304 C286 0.931 . S
H305 C287 0.929 . S
H306 C288 0.930 . S
H307 C291 0.930 . S
H308 C292 0.931 . S
H309 C296 0.928 . S
H310 C295 0.929 . S
H311 C293 0.932 . S
Sm312 C314 2.846 . S
Sm312 O332 2.543 . S
Sm312 O333 2.450 . S
Sm312 O334 2.681 1_545 S
Sm312 O335 2.464 1_545 S
Sm312 O336 2.396 . S
Sm312 O340 2.386 1_455 S
Sm312 O343 2.408 1_445 S
Sm313 C323 2.846 . S
Sm313 O334 2.386 1_655 S
Sm313 O337 2.408 1_665 S
Sm313 O338 2.543 . S
Sm313 O339 2.450 . S
Sm313 O340 2.681 1_565 S
Sm313 O341 2.464 1_565 S
Sm313 O342 2.396 . S
C314 Sm312 2.846 . S
C314 C315 1.506 . S
C314 O332 1.261 . S
C314 O333 1.242 . S
C315 C314 1.506 . S
C315 C316 1.358 . S
C315 C320 1.382 . S
C316 C315 1.358 . S
C316 C317 1.385 . S
C316 H344 0.930 . S
C317 C316 1.385 . S
C317 C318 1.395 . S
C317 H345 0.929 . S
C318 C317 1.395 . S
C318 C319 1.335 . S
C319 C318 1.335 . S
C319 C320 1.398 . S
C319 H346 0.930 . S
C320 C315 1.382 . S
C320 C319 1.398 . S
C320 H347 0.929 . S
C321 O334 1.271 . S
C321 O335 1.251 . S
C322 O336 1.252 . S
C322 O337 1.272 . S
C323 Sm313 2.846 . S
C323 C324 1.506 . S
C323 O338 1.261 . S
C323 O339 1.242 . S
C324 C323 1.506 . S
C324 C325 1.358 . S
C324 C329 1.382 . S
C325 C324 1.358 . S
C325 C326 1.385 . S
C325 H348 0.930 . S
C326 C325 1.385 . S
C326 C327 1.395 . S
C326 H349 0.929 . S
C327 C326 1.395 . S
C327 C328 1.335 . S
C328 C327 1.335 . S
C328 C329 1.398 . S
C328 H350 0.930 . S
C329 C324 1.382 . S
C329 C328 1.398 . S
C329 H351 0.929 . S
C330 O340 1.271 . S
C330 O341 1.251 . S
C331 O342 1.252 . S
C331 O343 1.272 . S
O332 Sm312 2.543 . S
O332 C314 1.261 . S
O333 Sm312 2.450 . S
O333 C314 1.242 . S
O334 Sm312 2.681 1_565 S
O334 Sm313 2.386 1_455 S
O334 C321 1.271 . S
O335 Sm312 2.464 1_565 S
O335 C321 1.251 . S
O336 Sm312 2.396 . S
O336 C322 1.252 . S
O337 Sm313 2.408 1_445 S
O337 C322 1.272 . S
O338 Sm313 2.543 . S
O338 C323 1.261 . S
O339 Sm313 2.450 . S
O339 C323 1.242 . S
O340 Sm312 2.386 1_655 S
O340 Sm313 2.681 1_545 S
O340 C330 1.271 . S
O341 Sm313 2.464 1_545 S
O341 C330 1.251 . S
O342 Sm313 2.396 . S
O342 C331 1.252 . S
O343 Sm312 2.408 1_665 S
O343 C331 1.272 . S
H344 C316 0.930 . S
H345 C317 0.929 . S
H346 C319 0.930 . S
H347 C320 0.929 . S
H348 C325 0.930 . S
H349 C326 0.929 . S
H350 C328 0.930 . S
H351 C329 0.929 . S
Sm352 C354 2.835 1_565 S
Sm352 O372 2.523 1_565 S
Sm352 O373 2.449 1_565 S
Sm352 O374 2.690 . S
Sm352 O375 2.481 . S
Sm352 O376 2.383 1_565 S
Sm352 O380 2.369 1_564 S
Sm352 O383 2.422 1_554 S
Sm353 C363 2.846 1_545 S
Sm353 O374 2.386 1_546 S
Sm353 O377 2.408 1_556 S
Sm353 O378 2.543 1_545 S
Sm353 O379 2.450 1_545 S
Sm353 O380 2.681 . S
Sm353 O381 2.464 . S
Sm353 O382 2.396 1_545 S
C354 Sm352 2.835 1_545 S
C354 C355 1.506 . S
C354 O372 1.261 . S
C354 O373 1.242 . S
C355 C354 1.506 . S
C355 C356 1.358 . S
C355 C360 1.382 . S
C356 C355 1.358 . S
C356 C357 1.385 . S
C356 H384 0.930 . S
C357 C356 1.385 . S
C357 C358 1.395 . S
C357 H385 0.929 . S
C358 C357 1.395 . S
C358 C359 1.335 . S
C359 C358 1.335 . S
C359 C360 1.398 . S
C359 H386 0.930 . S
C360 C355 1.382 . S
C360 C359 1.398 . S
C360 H387 0.929 . S
C361 O374 1.271 . S
C361 O375 1.251 . S
C362 O376 1.252 . S
C362 O377 1.272 . S
C363 Sm353 2.846 1_565 S
C363 C364 1.506 . S
C363 O378 1.261 . S
C363 O379 1.242 . S
C364 C363 1.506 . S
C364 C365 1.358 . S
C364 C369 1.382 . S
C365 C364 1.358 . S
C365 C366 1.385 . S
C365 H388 0.930 . S
C366 C365 1.385 . S
C366 C367 1.395 . S
C366 H389 0.929 . S
C367 C366 1.395 . S
C367 C368 1.335 . S
C368 C367 1.335 . S
C368 C369 1.398 . S
C368 H390 0.930 . S
C369 C364 1.382 . S
C369 C368 1.398 . S
C369 H391 0.929 . S
C370 O380 1.271 . S
C370 O381 1.251 . S
C371 O382 1.252 . S
C371 O383 1.272 . S
O372 Sm352 2.523 1_545 S
O372 C354 1.261 . S
O373 Sm352 2.449 1_545 S
O373 C354 1.242 . S
O374 Sm352 2.690 . S
O374 Sm353 2.386 1_564 S
O374 C361 1.271 . S
O375 Sm352 2.481 . S
O375 C361 1.251 . S
O376 Sm352 2.383 1_545 S
O376 C362 1.252 . S
O377 Sm353 2.408 1_554 S
O377 C362 1.272 . S
O378 Sm353 2.543 1_565 S
O378 C363 1.261 . S
O379 Sm353 2.450 1_565 S
O379 C363 1.242 . S
O380 Sm352 2.369 1_546 S
O380 Sm353 2.681 . S
O380 C370 1.271 . S
O381 Sm353 2.464 . S
O381 C370 1.251 . S
O382 Sm353 2.396 1_565 S
O382 C371 1.252 . S
O383 Sm352 2.422 1_556 S
O383 C371 1.272 . S
H384 C356 0.930 . S
H385 C357 0.929 . S
H386 C359 0.930 . S
H387 C360 0.929 . S
H388 C365 0.930 . S
H389 C366 0.929 . S
H390 C368 0.930 . S
H391 C369 0.929 . S
Sm392 C394 2.846 . S
Sm392 O412 2.543 . S
Sm392 O413 2.450 . S
Sm392 O414 2.681 . S
Sm392 O415 2.464 . S
Sm392 O416 2.396 . S
Sm392 O420 2.386 . S
Sm392 O423 2.408 . S
Sm393 C403 2.846 . S
Sm393 O414 2.386 . S
Sm393 O417 2.408 . S
Sm393 O418 2.543 . S
Sm393 O419 2.450 . S
Sm393 O420 2.681 . S
Sm393 O421 2.464 . S
Sm393 O422 2.396 . S
C394 Sm392 2.846 . S
C394 C395 1.506 . S
C394 O412 1.261 . S
C394 O413 1.242 . S
C395 C394 1.506 . S
C395 C396 1.358 . S
C395 C400 1.382 . S
C396 C395 1.358 . S
C396 C397 1.385 . S
C396 H424 0.930 . S
C397 C396 1.385 . S
C397 C398 1.395 . S
C397 H425 0.929 . S
C398 C397 1.395 . S
C398 C399 1.335 . S
C399 C398 1.335 . S
C399 C400 1.398 . S
C399 H426 0.930 . S
C400 C395 1.382 . S
C400 C399 1.398 . S
C400 H427 0.929 . S
C401 O414 1.271 . S
C401 O415 1.251 . S
C402 O416 1.252 . S
C402 O417 1.272 . S
C403 Sm393 2.846 . S
C403 C404 1.506 . S
C403 O418 1.261 . S
C403 O419 1.242 . S
C404 C403 1.506 . S
C404 C405 1.358 . S
C404 C409 1.382 . S
C405 C404 1.358 . S
C405 C406 1.385 . S
C405 H428 0.930 . S
C406 C405 1.385 . S
C406 C407 1.395 . S
C406 H429 0.929 . S
C407 C406 1.395 . S
C407 C408 1.335 . S
C408 C407 1.335 . S
C408 C409 1.398 . S
C408 H430 0.930 . S
C409 C404 1.382 . S
C409 C408 1.398 . S
C409 H431 0.929 . S
C410 O420 1.271 . S
C410 O421 1.251 . S
C411 O422 1.252 . S
C411 O423 1.272 . S
O412 Sm392 2.543 . S
O412 C394 1.261 . S
O413 Sm392 2.450 . S
O413 C394 1.242 . S
O414 Sm392 2.681 . S
O414 Sm393 2.386 . S
O414 C401 1.271 . S
O415 Sm392 2.464 . S
O415 C401 1.251 . S
O416 Sm392 2.396 . S
O416 C402 1.252 . S
O417 Sm393 2.408 . S
O417 C402 1.272 . S
O418 Sm393 2.543 . S
O418 C403 1.261 . S
O419 Sm393 2.450 . S
O419 C403 1.242 . S
O420 Sm392 2.386 . S
O420 Sm393 2.681 . S
O420 C410 1.271 . S
O421 Sm393 2.464 . S
O421 C410 1.251 . S
O422 Sm393 2.396 . S
O422 C411 1.252 . S
O423 Sm392 2.408 . S
O423 C411 1.272 . S
H424 C396 0.930 . S
H425 C397 0.929 . S
H426 C399 0.930 . S
H427 C400 0.929 . S
H428 C405 0.930 . S
H429 C406 0.929 . S
H430 C408 0.930 . S
H431 C409 0.929 . S
Sm432 C434 2.846 . S
Sm432 O452 2.543 . S
Sm432 O453 2.450 . S
Sm432 O454 2.681 1_455 S
Sm432 O455 2.464 1_455 S
Sm432 O456 2.396 . S
Sm432 O460 2.386 1_554 S
Sm432 O463 2.408 1_454 S
Sm433 C443 2.846 . S
Sm433 O454 2.386 1_556 S
Sm433 O457 2.408 1_656 S
Sm433 O458 2.543 . S
Sm433 O459 2.450 . S
Sm433 O460 2.681 1_655 S
Sm433 O461 2.464 1_655 S
Sm433 O462 2.396 . S
C434 Sm432 2.846 . S
C434 C435 1.506 . S
C434 O452 1.261 . S
C434 O453 1.242 . S
C435 C434 1.506 . S
C435 C436 1.358 . S
C435 C440 1.382 . S
C436 C435 1.358 . S
C436 C437 1.385 . S
C436 H464 0.930 . S
C437 C436 1.385 . S
C437 C438 1.395 . S
C437 H465 0.929 . S
C438 C437 1.395 . S
C438 C439 1.335 . S
C439 C438 1.335 . S
C439 C440 1.398 . S
C439 H466 0.930 . S
C440 C435 1.382 . S
C440 C439 1.398 . S
C440 H467 0.929 . S
C441 O454 1.271 . S
C441 O455 1.251 . S
C442 O456 1.252 . S
C442 O457 1.272 . S
C443 Sm433 2.846 . S
C443 C444 1.506 . S
C443 O458 1.261 . S
C443 O459 1.242 . S
C444 C443 1.506 . S
C444 C445 1.358 . S
C444 C449 1.382 . S
C445 C444 1.358 . S
C445 C446 1.385 . S
C445 H468 0.930 . S
C446 C445 1.385 . S
C446 C447 1.395 . S
C446 H469 0.929 . S
C447 C446 1.395 . S
C447 C448 1.335 . S
C448 C447 1.335 . S
C448 C449 1.398 . S
C448 H470 0.930 . S
C449 C444 1.382 . S
C449 C448 1.398 . S
C449 H471 0.929 . S
C450 O460 1.271 . S
C450 O461 1.251 . S
C451 O462 1.252 . S
C451 O463 1.272 . S
O452 Sm432 2.543 . S
O452 C434 1.261 . S
O453 Sm432 2.450 . S
O453 C434 1.242 . S
O454 Sm432 2.681 1_655 S
O454 Sm433 2.386 1_554 S
O454 C441 1.271 . S
O455 Sm432 2.464 1_655 S
O455 C441 1.251 . S
O456 Sm432 2.396 . S
O456 C442 1.252 . S
O457 Sm433 2.408 1_454 S
O457 C442 1.272 . S
O458 Sm433 2.543 . S
O458 C443 1.261 . S
O459 Sm433 2.450 . S
O459 C443 1.242 . S
O460 Sm432 2.386 1_556 S
O460 Sm433 2.681 1_455 S
O460 C450 1.271 . S
O461 Sm433 2.464 1_455 S
O461 C450 1.251 . S
O462 Sm433 2.396 . S
O462 C451 1.252 . S
O463 Sm432 2.408 1_656 S
O463 C451 1.272 . S
H464 C436 0.930 . S
H465 C437 0.929 . S
H466 C439 0.930 . S
H467 C440 0.929 . S
H468 C445 0.930 . S
H469 C446 0.929 . S
H470 C448 0.930 . S
H471 C449 0.929 . S
C472 C473 1.369 . S
C472 C474 1.419 . S
C472 H476 0.930 . S
C473 C472 1.369 . S
C473 C482 1.429 . S
C474 C472 1.419 . S
C474 C475 1.363 . S
C474 H477 0.929 . S
C475 C474 1.363 . S
C475 C481 1.428 . S
H476 C472 0.930 . S
H477 C474 0.929 . S
S478 N479 1.613 . S
S478 N480 1.610 . S
N479 S478 1.613 . S
N479 C482 1.350 . S
N480 S478 1.610 . S
N480 C481 1.351 . S
C481 C475 1.428 . S
C481 N480 1.351 . S
C481 C482 1.434 . S
C482 C473 1.429 . S
C482 N479 1.350 . S
C482 C481 1.434 . S
C483 C484 1.369 . S
C483 C485 1.419 . S
C483 H487 0.930 . S
C484 C483 1.369 . S
C484 C493 1.429 . S
C485 C483 1.419 . S
C485 C486 1.363 . S
C485 H488 0.929 . S
C486 C485 1.363 . S
C486 C492 1.428 . S
H487 C483 0.930 . S
H488 C485 0.929 . S
S489 N490 1.613 . S
S489 N491 1.610 . S
N490 S489 1.613 . S
N490 C493 1.350 . S
N491 S489 1.610 . S
N491 C492 1.351 . S
C492 C486 1.428 . S
C492 N491 1.351 . S
C492 C493 1.434 . S
C493 C484 1.429 . S
C493 N490 1.350 . S
C493 C492 1.434 . S
C494 C495 1.369 . S
C494 C496 1.419 . S
C494 H498 0.930 . S
C495 C494 1.369 . S
C495 C504 1.429 . S
C496 C494 1.419 . S
C496 C497 1.363 . S
C496 H499 0.929 . S
C497 C496 1.363 . S
C497 C503 1.428 . S
H498 C494 0.930 . S
H499 C496 0.929 . S
S500 N501 1.613 . S
S500 N502 1.610 . S
N501 S500 1.613 . S
N501 C504 1.350 . S
N502 S500 1.610 . S
N502 C503 1.351 . S
C503 C497 1.428 . S
C503 N502 1.351 . S
C503 C504 1.434 . S
C504 C495 1.429 . S
C504 N501 1.350 . S
C504 C503 1.434 . S
C505 C506 1.369 . S
C505 C507 1.419 . S
C505 H509 0.930 . S
C506 C505 1.369 . S
C506 C515 1.429 . S
C507 C505 1.419 . S
C507 C508 1.363 . S
C507 H510 0.929 . S
C508 C507 1.363 . S
C508 C514 1.428 . S
H509 C505 0.930 . S
H510 C507 0.929 . S
S511 N512 1.613 1_455 S
S511 N513 1.610 . S
N512 S511 1.613 1_655 S
N512 C515 1.350 . S
N513 S511 1.610 . S
N513 C514 1.351 1_455 S
C514 C508 1.428 . S
C514 N513 1.351 1_655 S
C514 C515 1.434 . S
C515 C506 1.429 . S
C515 N512 1.350 . S
C515 C514 1.434 . S
C516 C517 1.369 . S
C516 C518 1.419 . S
C516 H520 0.930 . S
C517 C516 1.369 . S
C517 C526 1.429 . S
C518 C516 1.419 . S
C518 C519 1.363 . S
C518 H521 0.929 . S
C519 C518 1.363 . S
C519 C525 1.428 . S
H520 C516 0.930 . S
H521 C518 0.929 . S
S522 N523 1.613 . S
S522 N524 1.610 . S
N523 S522 1.613 . S
N523 C526 1.350 . S
N524 S522 1.610 . S
N524 C525 1.351 . S
C525 C519 1.428 . S
C525 N524 1.351 . S
C525 C526 1.434 . S
C526 C517 1.429 . S
C526 N523 1.350 . S
C526 C525 1.434 . S
C527 C528 1.369 . S
C527 C529 1.419 . S
C527 H531 0.930 . S
C528 C527 1.369 . S
C528 C537 1.429 . S
C529 C527 1.419 . S
C529 C530 1.363 . S
C529 H532 0.929 . S
C530 C529 1.363 . S
C530 C536 1.428 . S
H531 C527 0.930 . S
H532 C529 0.929 . S
S533 N534 1.613 . S
S533 N535 1.610 . S
N534 S533 1.613 . S
N534 C537 1.350 . S
N535 S533 1.610 . S
N535 C536 1.351 . S
C536 C530 1.428 . S
C536 N535 1.351 . S
C536 C537 1.434 . S
C537 C528 1.429 . S
C537 N534 1.350 . S
C537 C536 1.434 . S
C538 C539 1.369 . S
C538 C540 1.419 . S
C538 H542 0.930 . S
C539 C538 1.369 . S
C539 C548 1.429 . S
C540 C538 1.419 . S
C540 C541 1.363 . S
C540 H543 0.929 . S
C541 C540 1.363 . S
C541 C547 1.428 . S
H542 C538 0.930 . S
H543 C540 0.929 . S
S544 N545 1.613 . S
S544 N546 1.610 . S
N545 S544 1.613 . S
N545 C548 1.350 . S
N546 S544 1.610 . S
N546 C547 1.351 . S
C547 C541 1.428 . S
C547 N546 1.351 . S
C547 C548 1.434 . S
C548 C539 1.429 . S
C548 N545 1.350 . S
C548 C547 1.434 . S
C549 C550 1.369 . S
C549 C551 1.419 . S
C549 H553 0.930 . S
C550 C549 1.369 . S
C550 C559 1.429 . S
C551 C549 1.419 . S
C551 C552 1.363 . S
C551 H554 0.929 . S
C552 C551 1.363 . S
C552 C558 1.428 . S
H553 C549 0.930 . S
H554 C551 0.929 . S
S555 N556 1.613 . S
S555 N557 1.610 . S
N556 S555 1.613 . S
N556 C559 1.350 . S
N557 S555 1.610 . S
N557 C558 1.351 . S
C558 C552 1.428 . S
C558 N557 1.351 . S
C558 C559 1.434 . S
C559 C550 1.429 . S
C559 N556 1.350 . S
C559 C558 1.434 . S
C560 C561 1.369 . S
C560 C562 1.419 . S
C560 H564 0.930 . S
C561 C560 1.369 . S
C561 C570 1.429 . S
C562 C560 1.419 . S
C562 C563 1.363 . S
C562 H565 0.929 . S
C563 C562 1.363 . S
C563 C569 1.428 . S
H564 C560 0.930 . S
H565 C562 0.929 . S
S566 N567 1.613 . S
S566 N568 1.610 . S
N567 S566 1.613 . S
N567 C570 1.350 . S
N568 S566 1.610 . S
N568 C569 1.351 . S
C569 C563 1.428 . S
C569 N568 1.351 . S
C569 C570 1.434 . S
C570 C561 1.429 . S
C570 N567 1.350 . S
C570 C569 1.434 . S
C571 C572 1.369 . S
C571 C573 1.419 . S
C571 H575 0.930 . S
C572 C571 1.369 . S
C572 C581 1.429 . S
C573 C571 1.419 . S
C573 C574 1.363 . S
C573 H576 0.929 . S
C574 C573 1.363 . S
C574 C580 1.428 . S
H575 C571 0.930 . S
H576 C573 0.929 . S
S577 N578 1.613 . S
S577 N579 1.610 . S
N578 S577 1.613 . S
N578 C581 1.350 . S
N579 S577 1.610 . S
N579 C580 1.351 . S
C580 C574 1.428 . S
C580 N579 1.351 . S
C580 C581 1.434 . S
C581 C572 1.429 . S
C581 N578 1.350 . S
C581 C580 1.434 . S
C582 C583 1.369 . S
C582 C584 1.419 . S
C582 H586 0.930 . S
C583 C582 1.369 . S
C583 C592 1.429 . S
C584 C582 1.419 . S
C584 C585 1.363 . S
C584 H587 0.929 . S
C585 C584 1.363 . S
C585 C591 1.428 . S
H586 C582 0.930 . S
H587 C584 0.929 . S
S588 N589 1.613 . S
S588 N590 1.610 . S
N589 S588 1.613 . S
N589 C592 1.350 . S
N590 S588 1.610 . S
N590 C591 1.351 . S
C591 C585 1.428 . S
C591 N590 1.351 . S
C591 C592 1.434 . S
C592 C583 1.429 . S
C592 N589 1.350 . S
C592 C591 1.434 . S
C593 C594 1.369 . S
C593 C595 1.419 . S
C593 H597 0.930 . S
C594 C593 1.369 . S
C594 C603 1.429 . S
C595 C593 1.419 . S
C595 C596 1.363 . S
C595 H598 0.929 . S
C596 C595 1.363 . S
C596 C602 1.428 . S
H597 C593 0.930 . S
H598 C595 0.929 . S
S599 N600 1.613 . S
S599 N601 1.610 . S
N600 S599 1.613 . S
N600 C603 1.350 . S
N601 S599 1.610 . S
N601 C602 1.351 . S
C602 C596 1.428 . S
C602 N601 1.351 . S
C602 C603 1.434 . S
C603 C594 1.429 . S
C603 N600 1.350 . S
C603 C602 1.434 . S
C604 C605 1.369 . S
C604 C606 1.419 . S
C604 H608 0.930 . S
C605 C604 1.369 . S
C605 C614 1.429 . S
C606 C604 1.419 . S
C606 C607 1.363 . S
C606 H609 0.929 . S
C607 C606 1.363 . S
C607 C613 1.428 . S
H608 C604 0.930 . S
H609 C606 0.929 . S
S610 N611 1.613 . S
S610 N612 1.610 . S
N611 S610 1.613 . S
N611 C614 1.350 . S
N612 S610 1.610 . S
N612 C613 1.351 . S
C613 C607 1.428 . S
C613 N612 1.351 . S
C613 C614 1.434 . S
C614 C605 1.429 . S
C614 N611 1.350 . S
C614 C613 1.434 . S
C615 C616 1.369 . S
C615 C617 1.419 . S
C615 H619 0.930 . S
C616 C615 1.369 . S
C616 C625 1.429 . S
C617 C615 1.419 . S
C617 C618 1.363 . S
C617 H620 0.929 . S
C618 C617 1.363 . S
C618 C624 1.428 . S
H619 C615 0.930 . S
H620 C617 0.929 . S
S621 N622 1.613 . S
S621 N623 1.610 . S
N622 S621 1.613 . S
N622 C625 1.350 . S
N623 S621 1.610 . S
N623 C624 1.351 . S
C624 C618 1.428 . S
C624 N623 1.351 . S
C624 C625 1.434 . S
C625 C616 1.429 . S
C625 N622 1.350 . S
C625 C624 1.434 . S
C626 C627 1.369 . S
C626 C628 1.419 . S
C626 H630 0.930 . S
C627 C626 1.369 . S
C627 C636 1.429 . S
C628 C626 1.419 . S
C628 C629 1.363 . S
C628 H631 0.929 . S
C629 C628 1.363 . S
C629 C635 1.428 . S
H630 C626 0.930 . S
H631 C628 0.929 . S
S632 N633 1.613 . S
S632 N634 1.610 . S
N633 S632 1.613 . S
N633 C636 1.350 . S
N634 S632 1.610 . S
N634 C635 1.351 . S
C635 C629 1.428 . S
C635 N634 1.351 . S
C635 C636 1.434 . S
C636 C627 1.429 . S
C636 N633 1.350 . S
C636 C635 1.434 . S
C637 C638 1.369 . S
C637 C639 1.419 . S
C637 H641 0.930 . S
C638 C637 1.369 . S
C638 C647 1.429 . S
C639 C637 1.419 . S
C639 C640 1.363 . S
C639 H642 0.929 . S
C640 C639 1.363 . S
C640 C646 1.428 . S
H641 C637 0.930 . S
H642 C639 0.929 . S
S643 N644 1.613 . S
S643 N645 1.610 . S
N644 S643 1.613 . S
N644 C647 1.350 . S
N645 S643 1.610 . S
N645 C646 1.351 . S
C646 C640 1.428 . S
C646 N645 1.351 . S
C646 C647 1.434 . S
C647 C638 1.429 . S
C647 N644 1.350 . S
C647 C646 1.434 . S
C648 C649 1.369 . S
C648 C650 1.419 . S
C648 H652 0.930 . S
C649 C648 1.369 . S
C649 C658 1.429 . S
C650 C648 1.419 . S
C650 C651 1.363 . S
C650 H653 0.929 . S
C651 C650 1.363 . S
C651 C657 1.428 . S
H652 C648 0.930 . S
H653 C650 0.929 . S
S654 N655 1.613 . S
S654 N656 1.610 . S
N655 S654 1.613 . S
N655 C658 1.350 . S
N656 S654 1.610 . S
N656 C657 1.351 . S
C657 C651 1.428 . S
C657 N656 1.351 . S
C657 C658 1.434 . S
C658 C649 1.429 . S
C658 N655 1.350 . S
C658 C657 1.434 . S
C659 C660 1.369 . S
C659 C661 1.419 . S
C659 H663 0.930 . S
C660 C659 1.369 . S
C660 C669 1.429 . S
C661 C659 1.419 . S
C661 C662 1.363 . S
C661 H664 0.929 . S
C662 C661 1.363 . S
C662 C668 1.428 . S
H663 C659 0.930 . S
H664 C661 0.929 . S
S665 N666 1.613 . S
S665 N667 1.610 . S
N666 S665 1.613 . S
N666 C669 1.350 . S
N667 S665 1.610 . S
N667 C668 1.351 . S
C668 C662 1.428 . S
C668 N667 1.351 . S
C668 C669 1.434 . S
C669 C660 1.429 . S
C669 N666 1.350 . S
C669 C668 1.434 . S
C670 C671 1.369 . S
C670 C672 1.419 . S
C670 H674 0.930 . S
C671 C670 1.369 . S
C671 C680 1.429 . S
C672 C670 1.419 . S
C672 C673 1.363 . S
C672 H675 0.929 . S
C673 C672 1.363 . S
C673 C679 1.428 . S
H674 C670 0.930 . S
H675 C672 0.929 . S
S676 N677 1.613 1_556 S
S676 N678 1.610 . S
N677 S676 1.613 1_554 S
N677 C680 1.350 . S
N678 S676 1.610 . S
N678 C679 1.351 1_556 S
C679 C673 1.428 . S
C679 N678 1.351 1_554 S
C679 C680 1.434 . S
C680 C671 1.429 . S
C680 N677 1.350 . S
C680 C679 1.434 . S
C681 C682 1.369 . S
C681 C683 1.419 . S
C681 H685 0.930 . S
C682 C681 1.369 . S
C682 C691 1.429 . S
C683 C681 1.419 . S
C683 C684 1.363 . S
C683 H686 0.929 . S
C684 C683 1.363 . S
C684 C690 1.428 . S
H685 C681 0.930 . S
H686 C683 0.929 . S
S687 N688 1.613 . S
S687 N689 1.610 . S
N688 S687 1.613 . S
N688 C691 1.350 . S
N689 S687 1.610 . S
N689 C690 1.351 . S
C690 C684 1.428 . S
C690 N689 1.351 . S
C690 C691 1.434 . S
C691 C682 1.429 . S
C691 N688 1.350 . S
C691 C690 1.434 . S
C692 C693 1.369 . S
C692 C694 1.419 . S
C692 H696 0.930 . S
C693 C692 1.369 . S
C693 C702 1.429 . S
C694 C692 1.419 . S
C694 C695 1.363 . S
C694 H697 0.929 . S
C695 C694 1.363 . S
C695 C701 1.428 . S
H696 C692 0.930 . S
H697 C694 0.929 . S
S698 N699 1.613 . S
S698 N700 1.610 . S
N699 S698 1.613 . S
N699 C702 1.350 . S
N700 S698 1.610 . S
N700 C701 1.351 . S
C701 C695 1.428 . S
C701 N700 1.351 . S
C701 C702 1.434 . S
C702 C693 1.429 . S
C702 N699 1.350 . S
C702 C701 1.434 . S
C703 C704 1.369 . S
C703 C705 1.419 . S
C703 H707 0.930 . S
C704 C703 1.369 . S
C704 C713 1.429 . S
C705 C703 1.419 . S
C705 C706 1.363 . S
C705 H708 0.929 . S
C706 C705 1.363 . S
C706 C712 1.428 . S
H707 C703 0.930 . S
H708 C705 0.929 . S
S709 N710 1.613 . S
S709 N711 1.610 . S
N710 S709 1.613 . S
N710 C713 1.350 . S
N711 S709 1.610 . S
N711 C712 1.351 . S
C712 C706 1.428 . S
C712 N711 1.351 . S
C712 C713 1.434 . S
C713 C704 1.429 . S
C713 N710 1.350 . S
C713 C712 1.434 . S
C714 C715 1.369 . S
C714 C716 1.419 . S
C714 H718 0.930 . S
C715 C714 1.369 . S
C715 C724 1.429 . S
C716 C714 1.419 . S
C716 C717 1.363 . S
C716 H719 0.929 . S
C717 C716 1.363 . S
C717 C723 1.428 . S
H718 C714 0.930 . S
H719 C716 0.929 . S
S720 N721 1.613 . S
S720 N722 1.610 . S
N721 S720 1.613 . S
N721 C724 1.350 . S
N722 S720 1.610 . S
N722 C723 1.351 . S
C723 C717 1.428 . S
C723 N722 1.351 . S
C723 C724 1.434 . S
C724 C715 1.429 . S
C724 N721 1.350 . S
C724 C723 1.434 . S
C725 C726 1.369 . S
C725 C727 1.419 . S
C725 H729 0.930 . S
C726 C725 1.369 . S
C726 C735 1.429 . S
C727 C725 1.419 . S
C727 C728 1.363 . S
C727 H730 0.929 . S
C728 C727 1.363 . S
C728 C734 1.428 . S
H729 C725 0.930 . S
H730 C727 0.929 . S
S731 N732 1.613 . S
S731 N733 1.610 . S
N732 S731 1.613 . S
N732 C735 1.350 . S
N733 S731 1.610 . S
N733 C734 1.351 . S
C734 C728 1.428 . S
C734 N733 1.351 . S
C734 C735 1.434 . S
C735 C726 1.429 . S
C735 N732 1.350 . S
C735 C734 1.434 . S
C473 C1 1.307 . S
C475 C318 1.420 . S
C484 C40 1.091 . S
C486 C367 1.089 . S
C497 C402 2.496 . S
C495 C99 2.552 . S
C506 C118 2.453 . S
C508 C441 2.395 . S
C519 C362 2.626 . S
C517 C16 2.406 . S
C530 C321 0.849 . S
C528 C60 0.882 . S
C541 C451 1.934 . S
C539 C79 1.993 . S
C552 C410 1.686 . S
C550 C138 1.699 . S
C561 C21 1.702 . S
C563 C438 1.829 . S
C574 C370 2.342 . S
C572 C94 2.446 . S
C583 C133 2.346 . S
C585 C331 2.336 . S
C594 C55 1.076 . S
C596 C407 1.102 . S
C607 C327 1.415 . S
C605 C157 1.338 . S
C616 C196 1.089 . S
C618 C358 1.094 . S
C627 C255 2.551 . S
C629 C411 2.493 . S
C638 C289 2.449 . S
C640 C450 2.393 . S
C649 C172 2.397 . S
C651 C371 2.623 . S
C662 C330 0.843 . S
C660 C216 0.883 . S
C673 C442 1.937 . S
C671 C235 1.995 . S
C684 C401 1.686 . S
C682 C294 1.702 . S
C693 C177 1.725 . S
C695 C447 1.827 . S
C706 C361 2.344 . S
C704 C250 2.447 . S
C717 C322 2.342 . S
C715 C274 2.347 . S
C726 C211 1.067 . S
C728 C398 1.107 . S
