# Generated by pormake.
# Topology zzz, (3,6)-cn, num edge types: 1
# Building blocks:
#     Node 0, Type 0, BuildingBlock: PAMTOO_clean_linker_0, # of connection points: 3
#     Node 1, Type 0, BuildingBlock: PAMTOO_clean_linker_0, # of connection points: 3
#     Node 2, Type 0, BuildingBlock: PAMTOO_clean_linker_0, # of connection points: 3
#     Node 3, Type 0, BuildingBlock: PAMTOO_clean_linker_0, # of connection points: 3
#     Node 4, Type 0, BuildingBlock: PAMTOO_clean_linker_0, # of connection points: 3
#     Node 5, Type 0, BuildingBlock: PAMTOO_clean_linker_0, # of connection points: 3
#     Node 6, Type 0, BuildingBlock: PAMTOO_clean_linker_0, # of connection points: 3
#     Node 7, Type 0, BuildingBlock: PAMTOO_clean_linker_0, # of connection points: 3
#     Node 8, Type 1, BuildingBlock: HISSIN_clean_sbu_0, # of connection points: 6
#     Node 9, Type 1, BuildingBlock: HISSIN_clean_sbu_0, # of connection points: 6
#     Node 10, Type 1, BuildingBlock: HISSIN_clean_sbu_0, # of connection points: 6
#     Node 11, Type 1, BuildingBlock: HISSIN_clean_sbu_0, # of connection points: 6
#     Edge 12, Type (0, 1), BuildingBlock: EZIPEK_clean_linker_0, # of connection points: 2
#     Edge 13, Type (0, 1), BuildingBlock: EZIPEK_clean_linker_0, # of connection points: 2
#     Edge 14, Type (0, 1), BuildingBlock: EZIPEK_clean_linker_0, # of connection points: 2
#     Edge 15, Type (0, 1), BuildingBlock: EZIPEK_clean_linker_0, # of connection points: 2
#     Edge 16, Type (0, 1), BuildingBlock: EZIPEK_clean_linker_0, # of connection points: 2
#     Edge 17, Type (0, 1), BuildingBlock: EZIPEK_clean_linker_0, # of connection points: 2
#     Edge 18, Type (0, 1), BuildingBlock: EZIPEK_clean_linker_0, # of connection points: 2
#     Edge 19, Type (0, 1), BuildingBlock: EZIPEK_clean_linker_0, # of connection points: 2
#     Edge 20, Type (0, 1), BuildingBlock: EZIPEK_clean_linker_0, # of connection points: 2
#     Edge 21, Type (0, 1), BuildingBlock: EZIPEK_clean_linker_0, # of connection points: 2
#     Edge 22, Type (0, 1), BuildingBlock: EZIPEK_clean_linker_0, # of connection points: 2
#     Edge 23, Type (0, 1), BuildingBlock: EZIPEK_clean_linker_0, # of connection points: 2
#     Edge 24, Type (0, 1), BuildingBlock: EZIPEK_clean_linker_0, # of connection points: 2
#     Edge 25, Type (0, 1), BuildingBlock: EZIPEK_clean_linker_0, # of connection points: 2
#     Edge 26, Type (0, 1), BuildingBlock: EZIPEK_clean_linker_0, # of connection points: 2
#     Edge 27, Type (0, 1), BuildingBlock: EZIPEK_clean_linker_0, # of connection points: 2
#     Edge 28, Type (0, 1), BuildingBlock: EZIPEK_clean_linker_0, # of connection points: 2
#     Edge 29, Type (0, 1), BuildingBlock: EZIPEK_clean_linker_0, # of connection points: 2
#     Edge 30, Type (0, 1), BuildingBlock: EZIPEK_clean_linker_0, # of connection points: 2
#     Edge 31, Type (0, 1), BuildingBlock: EZIPEK_clean_linker_0, # of connection points: 2
#     Edge 32, Type (0, 1), BuildingBlock: EZIPEK_clean_linker_0, # of connection points: 2
#     Edge 33, Type (0, 1), BuildingBlock: EZIPEK_clean_linker_0, # of connection points: 2
#     Edge 34, Type (0, 1), BuildingBlock: EZIPEK_clean_linker_0, # of connection points: 2
#     Edge 35, Type (0, 1), BuildingBlock: EZIPEK_clean_linker_0, # of connection points: 2
# Relax obj value: 0.356
# Max RMSD: 0.208
# Mean RMSD: 0.098
data_MOF--net-zzz--node1-HISSIN_clean_sbu_0--node2-PAMTOO_clean_linker_0--edge1-EZIPEK_clean_linker_0
_symmetry_space_group_name_H-M    P1
_symmetry_Int_Tables_number       1
_symmetry_cell_setting            triclinic
loop_
_symmetry_equiv_pos_as_xyz
'x, y, z'
_cell_length_a     36.872619
_cell_length_b     36.870865
_cell_length_c     12.227437
_cell_angle_alpha  89.697861
_cell_angle_beta   92.632782
_cell_angle_gamma 90.730896
loop_
_atom_site_label
_atom_site_type_symbol
_atom_site_fract_x
_atom_site_fract_y
_atom_site_fract_z
_atom_type_partial_charge
H0 H 0.86785 0.55758 0.30533 0.0
H1 H 0.75575 0.56422 0.18992 0.0
H2 H 0.78352 0.5108 0.49372 0.0
H3 H 0.70359 0.47795 0.35199 0.0
C4 C 0.7146 0.49613 0.28869 0.0
O5 O 0.72952 0.52684 0.34139 0.0
H6 H 0.73729 0.48154 0.25219 0.0
C7 C 0.83915 0.55339 0.31697 0.0
C8 C 0.82929 0.53561 0.41335 0.0
C9 C 0.81323 0.56246 0.23245 0.0
C10 C 0.77642 0.55644 0.25048 0.0
C11 C 0.76545 0.53664 0.34038 0.0
C12 C 0.79187 0.52626 0.4235 0.0
H13 H 0.95572 0.82796 0.36994 0.0
H14 H 0.9584 0.72611 0.19964 0.0
H15 H 0.04534 0.75622 0.42957 0.0
H16 H 0.06767 0.69419 0.22242 0.0
C17 C 0.03879 0.69648 0.19343 0.0
O18 O 1.01853 0.7039 0.28541 0.0
H19 H 0.03949 0.72043 0.13819 0.0
C20 C 0.96869 0.8025 0.35384 0.0
C21 C 1.00177 0.7959 0.41053 0.0
C22 C 0.95382 0.77908 0.27204 0.0
C23 C 0.97032 0.74538 0.25763 0.0
C24 C 1.00369 0.737 0.3095 0.0
C25 C 0.01973 0.76248 0.38734 0.0
H26 H 0.7106 0.07787 0.35778 0.0
H27 H 0.80424 0.06556 0.16839 0.0
H28 H 0.77546 0.98109 0.39537 0.0
H29 H 0.87062 0.98478 0.28883 0.0
C30 C 0.85912 1.00666 0.23555 0.0
O31 O 0.82094 1.00106 0.22652 0.0
H32 H 0.86568 0.03125 0.2849 0.0
C33 C 0.73395 0.06184 0.33869 0.0
C34 C 0.73964 0.02844 0.39289 0.0
C35 C 0.7574 0.07526 0.26001 0.0
C36 C 0.78747 0.05531 0.23205 0.0
C37 C 0.79457 0.02117 0.27641 0.0
C38 C 0.77061 1.00757 0.3595 0.0
H39 H 0.47788 0.68261 0.33619 0.0
H40 H 0.49326 0.78191 0.1584 0.0
H41 H 0.57039 0.75204 0.41811 0.0
H42 H 0.56663 0.84481 0.34592 0.0
C43 C 0.54749 0.83665 0.27741 0.0
O44 O 0.55443 0.80051 0.25114 0.0
H45 H 0.51966 0.8369 0.30857 0.0
C46 C 0.49353 0.70733 0.32437 0.0
C47 C 0.52478 0.71407 0.39182 0.0
C48 C 0.4823 0.73149 0.24063 0.0
C49 C 0.50201 0.76347 0.22352 0.0
C50 C 0.53415 0.77108 0.28396 0.0
C51 C 0.54555 0.74645 0.37021 0.0
H52 H 0.21763 0.56747 0.19343 0.0
H53 H 0.32659 0.56027 0.33139 0.0
H54 H 0.28605 0.47974 0.10092 0.0
H55 H 0.35004 0.44825 0.29268 0.0
C56 C 0.34861 0.47603 0.32669 0.0
O57 O 0.34255 0.50037 0.23975 0.0
H58 H 0.32432 0.47678 0.37715 0.0
C59 C 0.2436 0.55393 0.19756 0.0
C60 C 0.24829 0.52308 0.13292 0.0
C61 C 0.27144 0.56692 0.27017 0.0
C62 C 0.30514 0.55005 0.27576 0.0
C63 C 0.31042 0.51797 0.21919 0.0
C64 C 0.28206 0.50448 0.14585 0.0
H65 H 0.97189 0.17817 0.14274 0.0
H66 H 0.97323 0.28377 0.28785 0.0
H67 H 0.06555 0.24848 0.11303 0.0
H68 H 0.08552 0.30948 0.33012 0.0
C69 C 0.05582 0.3107 0.34086 0.0
O70 O 0.03811 0.30308 0.23873 0.0
H71 H 0.05146 0.28813 0.39948 0.0
C72 C 0.98586 0.20387 0.15771 0.0
C73 C 0.01987 0.2099 0.11347 0.0
C74 C 0.9697 0.22978 0.22291 0.0
C75 C 0.98676 0.26343 0.24156 0.0
C76 C 0.02207 0.2702 0.20898 0.0
C77 C 0.0387 0.24335 0.14226 0.0
H78 H 0.36343 0.0911 0.13498 0.0
H79 H 0.26898 0.08732 0.32674 0.0
H80 H 0.29523 0.9954 0.13055 0.0
H81 H 0.19832 0.02915 0.2043 0.0
C82 C 0.21204 0.03474 0.28507 0.0
O83 O 0.24823 0.0219 0.28341 0.0
H84 H 0.21241 0.06485 0.28703 0.0
C85 C 0.33927 0.07705 0.16045 0.0
C86 C 0.33296 0.04184 0.12056 0.0
C87 C 0.31788 0.09298 0.23939 0.0
C88 C 0.28591 0.07483 0.26845 0.0
C89 C 0.27677 0.03974 0.2327 0.0
C90 C 0.30083 0.0229 0.15734 0.0
H91 H 0.61017 0.34563 0.1907 0.0
H92 H 0.61265 0.24158 0.34609 0.0
H93 H 0.51813 0.27284 0.14694 0.0
H94 H 0.51456 0.23072 0.41569 0.0
C95 C 0.53863 0.21457 0.39695 0.0
O96 O 0.54673 0.22085 0.28699 0.0
H97 H 0.56053 0.22639 0.45178 0.0
C98 C 0.59725 0.31946 0.20401 0.0
C99 C 0.5633 0.31191 0.15228 0.0
C100 C 0.61429 0.29462 0.27599 0.0
C101 C 0.59858 0.26044 0.29169 0.0
C102 C 0.56302 0.25262 0.25231 0.0
C103 C 0.54527 0.27855 0.18039 0.0
Eu104 Eu 1.00472 0.02269 0.64821 0.0
Eu105 Eu 0.05484 0.99042 0.83454 0.0
C106 C 0.03858 0.07726 0.84591 0.0
C107 C 0.93734 0.07179 0.44536 0.0
C108 C 0.91061 0.0841 0.51395 0.0
C109 C 0.92083 0.11819 0.3131 0.0
C110 C 0.88985 0.11438 0.48334 0.0
C111 C 0.94086 0.08776 0.34258 0.0
C112 C 0.89637 0.13312 0.38545 0.0
C113 C 0.96419 0.04475 0.4808 0.0
O114 O 0.99505 0.98285 0.88836 0.0
O115 O 0.96662 0.02708 0.79083 0.0
C116 C 0.96719 1.00501 0.8757 0.0
O117 O 0.99991 0.96046 0.62291 0.0
O118 O 0.06309 0.98336 1.01233 0.0
O119 O 0.09214 0.94962 0.90448 0.0
O120 O 0.05322 0.94511 0.70703 0.0
C121 C 0.02572 0.93634 0.64058 0.0
O122 O 0.06146 0.02314 0.57304 0.0
O123 O 0.09972 1.00634 0.71662 0.0
O124 O 0.06099 0.05086 0.87567 0.0
O125 O 0.99697 0.05711 0.50416 0.0
O126 O 0.95424 0.01933 0.54815 0.0
O127 O 1.01442 0.07216 0.76314 0.0
C128 C 0.05345 0.92098 0.02543 0.0
C129 C 0.02743 0.91062 0.94358 0.0
C130 C 0.02314 0.881 0.15159 0.0
C131 C 0.99935 0.88687 0.96475 0.0
C132 C 0.05118 0.90602 0.13062 0.0
C133 C 0.99712 0.8715 0.06801 0.0
C134 C 0.0776 0.95174 0.99942 0.0
C135 C 0.09481 0.01613 0.61228 0.0
H136 H 0.90713 0.0716 0.59322 0.0
H137 H 0.92704 0.13175 0.23736 0.0
H138 H 0.87055 0.1244 0.53946 0.0
H139 H 0.96101 0.07825 0.28793 0.0
H140 H 0.02735 0.92238 0.86358 0.0
H141 H 0.02112 0.86973 0.23301 0.0
H142 H 0.97911 0.88056 0.90052 0.0
H143 H 0.07018 0.91425 0.19626 0.0
Eu144 Eu 0.55922 0.04261 0.88218 0.0
Eu145 Eu 0.52334 0.99328 0.70124 0.0
C146 C 0.55068 0.95401 0.93022 0.0
C147 C 0.60784 0.11693 0.05692 0.0
C148 C 0.62154 0.12227 0.16394 0.0
C149 C 0.65242 0.15965 0.99132 0.0
C150 C 0.65219 0.14405 0.18384 0.0
C151 C 0.62194 0.13732 0.97129 0.0
C152 C 0.67007 0.16052 0.09616 0.0
C153 C 0.58157 0.08746 0.03619 0.0
O154 O 0.47905 0.9927 0.82806 0.0
O155 O 0.49709 0.04451 0.91271 0.0
C156 C 0.47192 0.01894 0.89554 0.0
O157 O 0.56198 0.07736 0.72861 0.0
O158 O 0.48235 0.95515 0.63181 0.0
O159 O 0.51485 0.98655 0.52371 0.0
O160 O 0.50995 0.053 0.65961 0.0
C161 C 0.53458 0.07913 0.65722 0.0
O162 O 0.60971 0.03017 0.7811 0.0
O163 O 0.58283 0.99494 0.64601 0.0
O164 O 0.53983 0.9489 0.8264 0.0
O165 O 0.55458 0.09405 0.9666 0.0
O166 O 0.59509 0.05522 0.02395 0.0
O167 O 0.55989 0.98687 0.96504 0.0
C168 C 0.45241 0.99386 0.50502 0.0
C169 C 0.43956 0.01632 0.58692 0.0
C170 C 0.41877 0.03028 0.37026 0.0
C171 C 0.41912 0.04663 0.56141 0.0
C172 C 0.44173 1.00098 0.39561 0.0
C173 C 0.40775 0.05358 0.45351 0.0
C174 C 0.48356 0.97068 0.53596 0.0
C175 C 0.61211 1.01237 0.68715 0.0
H176 H 0.61034 0.10726 0.23128 0.0
H177 H 0.66407 0.1732 0.92246 0.0
H178 H 0.66394 0.1442 0.26655 0.0
H179 H 0.61098 0.13413 0.8881 0.0
H180 H 0.44739 1.01225 0.67123 0.0
H181 H 0.41083 0.03579 0.28554 0.0
H182 H 0.41219 0.06477 0.62636 0.0
H183 H 0.45217 0.985 0.33025 0.0
Eu184 Eu 0.51174 0.52716 0.86573 0.0
Eu185 Eu 0.56543 0.4988 0.68672 0.0
C186 C 0.59828 0.51621 0.93472 0.0
C187 C 0.43817 0.57516 0.01944 0.0
C188 C 0.42116 0.59146 0.92714 0.0
C189 C 0.41465 0.62156 0.13413 0.0
C190 C 0.40239 0.62386 0.93801 0.0
C191 C 0.43275 0.58901 0.1233 0.0
C192 C 0.40171 0.64101 0.04062 0.0
C193 C 0.46564 0.54731 1.00874 0.0
O194 O 0.5639 0.45047 0.80662 0.0
O195 O 0.51239 0.46555 0.89247 0.0
C196 C 0.53865 0.44242 0.87661 0.0
O197 O 0.47642 0.52583 0.70781 0.0
O198 O 0.615 0.50673 0.59727 0.0
O199 O 0.57674 0.46373 0.55052 0.0
O200 O 0.50851 0.48395 0.61732 0.0
C201 C 0.47862 0.50255 0.62745 0.0
O202 O 0.52956 0.58028 0.7814 0.0
O203 O 0.54925 0.55528 0.62489 0.0
O204 O 0.60477 0.51488 0.82953 0.0
O205 O 0.45866 0.52206 0.93628 0.0
O206 O 0.49909 0.55933 1.00746 0.0
O207 O 0.56473 0.51848 0.9664 0.0
C208 C 0.63713 0.4552 0.50629 0.0
C209 C 0.63655 0.44037 0.40135 0.0
C210 C 0.6851 0.4139 0.56414 0.0
C211 C 0.65829 0.41099 0.37974 0.0
C212 C 0.66266 0.44309 0.58645 0.0
C213 C 0.6813 0.39587 0.46287 0.0
C214 C 0.60768 0.47954 0.53175 0.0
C215 C 0.53925 0.58399 0.67893 0.0
H216 H 0.42449 0.58058 0.84611 0.0
H217 H 0.41465 0.63317 0.21526 0.0
H218 H 0.39122 0.63672 0.86472 0.0
H219 H 0.4453 0.57641 0.19554 0.0
H220 H 0.61725 0.44974 0.33813 0.0
H221 H 0.70347 0.40408 0.62863 0.0
H222 H 0.65426 0.39811 0.30065 0.0
H223 H 0.66376 0.45467 0.66779 0.0
Eu224 Eu 0.05454 0.53316 0.66932 0.0
Eu225 Eu 0.02631 0.47723 0.847 0.0
C226 C 0.111 0.50114 0.86793 0.0
C227 C 0.11433 0.59734 0.50179 0.0
C228 C 0.12878 0.62074 0.58348 0.0
C229 C 0.16444 0.61205 0.38888 0.0
C230 C 0.16196 0.63879 0.569 0.0
C231 C 0.13186 0.59402 0.40376 0.0
C232 C 0.18085 0.63329 0.4732 0.0
C233 C 0.08346 0.57295 0.51877 0.0
O234 O 0.02296 0.53279 0.93341 0.0
O235 O 0.04173 0.57321 0.80371 0.0
C236 C 0.03036 0.56651 0.90254 0.0
O237 O 0.99404 0.53417 0.6235 0.0
O238 O 1.01558 0.46271 0.01606 0.0
O239 O 0.99955 0.42581 0.88579 0.0
O240 O 0.97444 0.49139 0.74472 0.0
C241 C 0.96784 0.51432 0.66334 0.0
O242 O 0.0457 0.47887 0.57631 0.0
O243 O 0.0456 0.43851 0.71772 0.0
O244 O 0.08711 0.47532 0.88672 0.0
O245 O 0.09172 0.53912 0.53771 0.0
O246 O 0.05749 0.58424 0.57853 0.0
O247 O 0.10297 0.52677 0.7948 0.0
C248 C 0.95522 0.44303 1.00671 0.0
C249 C 0.93048 0.44827 0.91672 0.0
C250 C 0.91755 0.47994 0.11743 0.0
C251 C 0.90185 0.47218 0.9243 0.0
C252 C 0.94696 0.45686 0.10911 0.0
C253 C 0.89617 0.48926 0.0237 0.0
C254 C 0.99346 0.43647 0.98466 0.0
C255 C 0.04641 0.44498 0.61204 0.0
H256 H 0.11551 0.62355 0.66015 0.0
H257 H 0.17834 0.60655 0.31476 0.0
H258 H 0.17366 0.65532 0.63474 0.0
H259 H 0.12163 0.57544 0.34121 0.0
H260 H 0.93564 0.43756 0.83668 0.0
H261 H 0.91347 0.49308 0.1948 0.0
H262 H 0.88566 0.47911 0.85112 0.0
H263 H 0.96561 0.45343 0.17943 0.0
C264 C 0.19011 0.03932 0.48742 0.0
C265 C 0.18737 0.02203 0.38258 0.0
C266 C 0.12545 0.99989 0.43037 0.0
C267 C 0.12725 0.01812 0.53406 0.0
N268 N 0.16403 0.05353 0.66289 0.0
N269 N 0.15402 0.97728 0.27273 0.0
C270 C 0.16064 0.03699 0.56313 0.0
C271 C 0.15585 0.99989 0.3605 0.0
N272 N 0.2209 0.05895 0.51348 0.0
N273 N 0.09462 0.98143 0.39645 0.0
H274 H 0.17556 0.97294 0.22206 0.0
H275 H 0.17556 0.97294 0.22206 0.0
H276 H 0.07165 0.97902 0.44223 0.0
H277 H 0.09194 0.96844 0.32082 0.0
H278 H 0.22422 0.07631 0.57996 0.0
H279 H 0.24378 0.05758 0.46698 0.0
H280 H 0.18819 0.06423 0.69681 0.0
H281 H 0.14244 0.05618 0.71413 0.0
C282 C 0.50145 0.16137 0.47707 0.0
C283 C 0.5346 0.1739 0.43342 0.0
C284 C 0.56345 0.11794 0.50928 0.0
C285 C 0.53276 0.10997 0.57246 0.0
N286 N 0.47218 0.12627 0.61773 0.0
N287 N 0.59756 0.16189 0.40586 0.0
C288 C 0.50146 0.13204 0.55544 0.0
C289 C 0.56557 0.15128 0.44824 0.0
N290 N 0.46966 0.1771 0.44184 0.0
N291 N 0.59 0.09264 0.50275 0.0
H292 H 0.59921 0.18292 0.34943 0.0
H293 H 0.62239 0.15022 0.42848 0.0
H294 H 0.58829 0.0673 0.54033 0.0
H295 H 0.61146 0.095 0.45058 0.0
H296 H 0.44424 0.16837 0.46562 0.0
H297 H 0.4684 0.19587 0.37767 0.0
H298 H 0.45011 0.14359 0.61836 0.0
H299 H 0.47133 0.10572 0.67593 0.0
C300 C 0.41707 0.49567 0.36128 0.0
C301 C 0.38343 0.48306 0.40227 0.0
C302 C 0.41339 0.48085 0.58912 0.0
C303 C 0.44594 0.49593 0.54944 0.0
N304 N 0.47727 0.52211 0.39923 0.0
N305 N 0.35687 0.44864 0.54868 0.0
C306 C 0.44736 0.50435 0.43574 0.0
C307 C 0.38354 0.47171 0.51466 0.0
N308 N 0.42141 0.49616 0.2509 0.0
N309 N 0.41078 0.47495 0.69901 0.0
H310 H 0.33671 0.43733 0.49657 0.0
H311 H 0.35737 0.4364 0.62563 0.0
H312 H 0.43269 0.47759 0.75546 0.0
H313 H 0.38625 0.46966 0.73535 0.0
H314 H 0.44609 0.50154 0.21571 0.0
H315 H 0.40173 0.48652 0.19423 0.0
H316 H 0.47873 0.53293 0.32076 0.0
H317 H 0.49975 0.52878 0.45039 0.0
C318 C 0.06878 0.37977 0.37199 0.0
C319 C 0.04708 0.34843 0.3941 0.0
C320 C 0.01899 0.38455 0.53999 0.0
C321 C 0.04553 0.41285 0.53161 0.0
N322 N 0.09818 0.43514 0.44125 0.0
N323 N 1.00039 0.32222 0.50328 0.0
C324 C 0.07078 0.41002 0.44695 0.0
C325 C 0.02169 0.35139 0.47874 0.0
N326 N 0.08737 0.38091 0.27799 0.0
N327 N 0.98985 0.38994 0.60294 0.0
H328 H 0.99854 0.29901 0.45554 0.0
H329 H 0.98566 0.32043 0.57383 0.0
H330 H 0.98608 0.41386 0.64585 0.0
H331 H 0.96743 0.37249 0.60339 0.0
H332 H 0.10093 0.40401 0.25108 0.0
H333 H 0.08574 0.36001 0.22071 0.0
H334 H 0.11974 0.43259 0.38981 0.0
H335 H 0.10127 0.45691 0.49503 0.0
C336 C 0.88974 0.97379 0.07183 0.0
C337 C 0.8808 1.00685 0.12517 0.0
C338 C 0.92682 0.03837 1.01164 0.0
C339 C 0.93627 1.00546 0.95895 0.0
N340 N 0.92193 0.94246 0.92898 0.0
N341 N 0.88411 0.07217 0.11556 0.0
C342 C 0.91624 0.97335 0.98666 0.0
C343 C 0.8973 0.03946 0.08557 0.0
N344 N 0.87262 0.94257 0.10284 0.0
N345 N 0.94759 0.0688 0.99683 0.0
H346 H 0.86325 0.07486 0.16906 0.0
H347 H 0.89127 0.09661 0.0787 0.0
H348 H 0.96904 0.06978 0.94456 0.0
H349 H 0.94583 0.09208 0.04409 0.0
H350 H 0.87853 0.91682 0.07516 0.0
H351 H 0.85199 0.94231 0.15836 0.0
H352 H 0.90771 0.9182 0.93797 0.0
H353 H 0.93987 0.94162 0.86574 0.0
C354 C 0.53163 0.90018 0.19834 0.0
C355 C 0.54962 0.86636 0.18401 0.0
C356 C 0.56767 0.88933 1.00104 0.0
C357 C 0.54972 0.92303 0.01552 0.0
N358 N 0.51809 0.96152 0.1387 0.0
N359 N 0.5965 0.83679 0.08727 0.0
C360 C 0.53274 0.92853 0.11711 0.0
C361 C 0.57073 0.86302 0.08931 0.0
N362 N 0.51309 0.90571 0.2912 0.0
N363 N 0.58293 0.88255 0.9037 0.0
H364 H 0.60324 0.82039 0.15442 0.0
H365 H 0.61491 0.83472 0.02562 0.0
H366 H 0.58468 0.90182 0.84154 0.0
H367 H 0.59191 0.85699 0.88214 0.0
H368 H 0.49307 0.92518 0.29724 0.0
H369 H 0.51709 0.8907 0.36302 0.0
H370 H 0.51214 0.97007 0.21679 0.0
H371 H 0.51252 0.9813 0.07967 0.0
C372 C 0.67783 0.47582 0.11396 0.0
C373 C 0.684 0.50262 0.19744 0.0
C374 C 0.63344 0.53804 0.10926 0.0
C375 C 0.62919 0.51259 0.02185 0.0
N376 N 0.65103 0.45848 0.93693 0.0
N377 N 0.65549 0.55022 0.29597 0.0
C378 C 0.65262 0.48207 0.02295 0.0
C379 C 0.65851 0.53139 0.20099 0.0
N380 N 0.69309 0.4423 0.12724 0.0
N381 N 0.61457 0.56969 0.10258 0.0
H382 H 0.66975 0.54348 0.36851 0.0
H383 H 0.63522 0.56904 0.30763 0.0
H384 H 0.59677 0.57597 0.03663 0.0
H385 H 0.61932 0.59124 0.1563 0.0
H386 H 0.68619 0.42015 0.07775 0.0
H387 H 0.70893 0.43458 0.19586 0.0
H388 H 0.67117 0.43966 0.92363 0.0
H389 H 0.63103 0.4589 0.87433 0.0
C390 C 0.04236 0.62683 0.16441 0.0
C391 C 0.02797 0.66074 0.12846 0.0
C392 C 1.00672 0.62961 0.95506 0.0
C393 C 0.02732 0.59814 0.98347 0.0
N394 N 0.0687 0.56962 0.11436 0.0
N395 N 0.99353 0.69315 0.98768 0.0
C396 C 0.04567 0.59737 0.08872 0.0
C397 C 1.00904 0.66159 0.02347 0.0
N398 N 0.05271 0.62244 0.27207 0.0
N399 N 0.9836 0.62847 0.86453 0.0
H400 H 0.99076 0.71544 0.0383 0.0
H401 H 0.98421 0.6976 0.90713 0.0
H402 H 0.98074 0.60567 0.8146 0.0
H403 H 0.96483 0.64856 0.8445 0.0
H404 H 0.05855 0.59711 0.30595 0.0
H405 H 0.05098 0.64311 0.32944 0.0
H406 H 0.08565 0.56919 0.18466 0.0
H407 H 0.07379 0.54894 0.05989 0.0
C408 C 0.93675 0.21448 0.39422 0.0
C409 C 0.93598 0.2196 0.27844 0.0
C410 C 0.87978 0.18365 0.26194 0.0
C411 C 0.88672 0.17201 0.37066 0.0
N412 N 0.90115 0.19679 0.54823 0.0
N413 N 0.89931 0.21778 0.10796 0.0
C414 C 0.90753 0.19536 0.43966 0.0
C415 C 0.90461 0.20806 0.21482 0.0
N416 N 0.96641 0.22392 0.4593 0.0
N417 N 0.85247 0.16758 0.20044 0.0
H418 H 0.91652 0.2357 0.06812 0.0
H419 H 0.91652 0.2357 0.06812 0.0
H420 H 0.83522 0.14835 0.23478 0.0
H421 H 0.84741 0.17389 0.11784 0.0
H422 H 0.96873 0.21725 0.54228 0.0
H423 H 0.98996 0.23533 0.42965 0.0
H424 H 0.91498 0.21467 0.60168 0.0
H425 H 0.87907 0.18305 0.5802 0.0
C426 C 0.32776 0.11688 0.42218 0.0
C427 C 0.33323 0.12343 0.31109 0.0
C428 C 0.39671 0.11111 0.34585 0.0
C429 C 0.38542 0.08587 0.42709 0.0
N430 N 0.33833 0.06945 0.55503 0.0
N431 N 0.37675 0.15968 0.21997 0.0
C432 C 0.35089 0.09106 0.47381 0.0
C433 C 0.36951 0.1332 0.29377 0.0
N434 N 0.29869 0.13106 0.47032 0.0
N435 N 0.43184 0.11232 0.31574 0.0
H436 H 0.35553 0.17349 0.17912 0.0
H437 H 0.40293 0.16868 0.20459 0.0
H438 H 0.45215 0.09753 0.35738 0.0
H439 H 0.44058 0.12799 0.25072 0.0
H440 H 0.29412 0.12719 0.55316 0.0
H441 H 0.28102 0.14832 0.42645 0.0
H442 H 0.31207 0.07174 0.5823 0.0
H443 H 0.35241 0.04748 0.58837 0.0
C444 C 0.64439 0.31193 0.45863 0.0
C445 C 0.6467 0.30673 0.34358 0.0
C446 C 0.70064 0.34602 0.34578 0.0
C447 C 0.6921 0.35723 0.45146 0.0
N448 N 0.67758 0.33123 0.62438 0.0
N449 N 0.68512 0.31018 0.18746 0.0
C450 C 0.67188 0.33279 0.51375 0.0
C451 C 0.67795 0.31999 0.2912 0.0
N452 N 0.61487 0.30057 0.51358 0.0
N453 N 0.72749 0.36358 0.29333 0.0
H454 H 0.66959 0.291 0.14282 0.0
H455 H 0.66959 0.291 0.14282 0.0
H456 H 0.74325 0.3838 0.33275 0.0
H457 H 0.73363 0.35754 0.21295 0.0
H458 H 0.61124 0.30745 0.59493 0.0
H459 H 0.59261 0.28707 0.47699 0.0
H460 H 0.66425 0.31251 0.67318 0.0
H461 H 0.69892 0.34557 0.66374 0.0
C462 C 0.25393 0.6313 0.30468 0.0
C463 C 0.26369 0.59658 0.34687 0.0
C464 C 0.2419 0.61477 0.52353 0.0
C465 C 0.22039 0.64086 0.4682 0.0
N466 N 0.21795 0.68497 0.32432 0.0
N467 N 0.26918 0.5562 0.50478 0.0
C468 C 0.23199 0.65373 0.36681 0.0
C469 C 0.25963 0.58895 0.46014 0.0
N470 N 0.263 0.64239 0.20319 0.0
N471 N 0.24279 0.61323 0.63485 0.0
H472 H 0.28122 0.53573 0.46144 0.0
H473 H 0.26282 0.54845 0.58379 0.0
H474 H 0.22955 0.63245 0.68035 0.0
H475 H 0.25968 0.59578 0.68037 0.0
H476 H 0.27911 0.6272 0.15288 0.0
H477 H 0.27911 0.6272 0.15288 0.0
H478 H 0.22429 0.69475 0.2471 0.0
H479 H 0.20048 0.70066 0.36896 0.0
C480 C 0.91604 0.82914 0.2005 0.0
C481 C 0.92704 0.7932 0.18553 0.0
C482 C 0.96368 0.81185 0.0379 0.0
C483 C 0.96644 0.84666 0.08857 0.0
N484 N 0.9373 0.89187 0.19663 0.0
N485 N 0.92687 0.75647 0.02487 0.0
C486 C 0.93924 0.85699 0.16116 0.0
C487 C 0.93827 0.78683 0.07937 0.0
N488 N 0.8875 0.83568 0.26365 0.0
N489 N 0.98641 0.80175 0.95891 0.0
H490 H 0.90898 0.73812 0.06033 0.0
H491 H 0.93326 0.7514 0.94421 0.0
H492 H 1.00661 0.81873 0.92973 0.0
H493 H 0.98636 0.77554 0.92739 0.0
H494 H 0.87757 0.86156 0.27654 0.0
H495 H 0.87293 0.81413 0.29709 0.0
H496 H 0.92023 0.89979 0.25746 0.0
H497 H 0.95329 0.9127 0.16539 0.0
C498 C 0.74502 0.14253 0.26402 0.0
C499 C 0.74919 0.1101 0.20273 0.0
C500 C 0.72974 0.14419 0.04036 0.0
C501 C 0.7103 0.16696 0.10761 0.0
N502 N 0.71623 0.20104 0.27335 0.0
N503 N 0.7452 0.08155 0.02241 0.0
C504 C 0.72521 0.17149 0.21485 0.0
C505 C 0.74269 0.11145 0.08678 0.0
N506 N 0.75815 0.14587 0.36926 0.0
N507 N 0.73333 0.15263 0.93303 0.0
H508 H 0.75099 0.05577 0.05291 0.0
H509 H 0.7378 0.08199 0.93903 0.0
H510 H 0.72432 0.17744 0.90115 0.0
H511 H 0.74841 0.13688 0.88145 0.0
H512 H 0.77361 0.12599 0.40991 0.0
H513 H 0.77361 0.12599 0.40991 0.0
H514 H 0.72508 0.20468 0.35496 0.0
H515 H 0.70011 0.22142 0.23757 0.0
C516 C 0.45477 0.7153 0.05388 0.0
C517 C 0.45047 0.72192 0.16714 0.0
C518 C 0.38928 0.69522 0.15072 0.0
C519 C 0.39851 0.68135 0.04846 0.0
N520 N 0.42195 0.70397 0.88117 0.0
N521 N 0.40888 0.73046 0.31148 0.0
C522 C 0.42489 0.70076 0.99207 0.0
C523 C 0.41572 0.71647 0.21151 0.0
N524 N 0.48742 0.71979 1.00699 0.0
N525 N 0.35762 0.68368 0.19324 0.0
H526 H 0.42799 0.74639 0.35559 0.0
H527 H 0.38388 0.72831 0.3472 0.0
H528 H 0.33946 0.66724 0.1471 0.0
H529 H 0.34978 0.68971 0.27168 0.0
H530 H 0.49149 0.71201 0.92661 0.0
H531 H 0.51107 0.72809 0.04999 0.0
H532 H 0.44023 0.71933 0.83699 0.0
H533 H 0.39866 0.69507 0.83703 0.0
C534 C 0.81056 0.54349 0.04098 0.0
C535 C 0.82489 0.56876 0.11784 0.0
C536 C 0.8851 0.55494 0.05885 0.0
C537 C 0.87106 0.52 0.02856 0.0
N538 N 0.81827 0.48258 0.97736 0.0
N539 N 0.87274 0.61173 0.15208 0.0
C540 C 0.83303 0.51481 1.01234 0.0
C541 C 0.86116 0.57989 0.10574 0.0
N542 N 0.77617 0.54692 0.9974 0.0
N543 N 0.92084 0.56325 0.04585 0.0
H544 H 0.85437 0.62869 0.1888 0.0
H545 H 0.89957 0.6209 0.15502 0.0
H546 H 0.93827 0.54523 1.00971 0.0
H547 H 0.93255 0.58846 0.06396 0.0
H548 H 0.7652 0.52949 0.93729 0.0
H549 H 0.76089 0.56983 1.01289 0.0
H550 H 0.79032 0.47764 0.97424 0.0
H551 H 0.83381 0.46021 0.95901 0.0
C552 C 0.04105 0.14456 0.09378 0.0
C553 C 0.03388 0.17879 0.0432 0.0
C554 C 0.03688 0.1477 0.86251 0.0
C555 C 0.03864 0.1127 0.9136 0.0
N556 N 0.03484 0.07909 0.08336 0.0
N557 N 0.02133 0.21168 0.8758 0.0
C558 C 0.03917 0.11157 0.03084 0.0
C559 C 0.03106 0.17995 0.92639 0.0
N560 N 0.04944 0.14351 0.20369 0.0
N561 N 0.04195 0.15048 0.75287 0.0
H562 H 1.01819 0.2357 0.91885 0.0
H563 H 1.01425 0.21361 0.79254 0.0
H564 H 0.04732 0.12811 0.70466 0.0
H565 H 0.04447 0.17519 0.7121 0.0
H566 H 0.05848 0.12024 0.24464 0.0
H567 H 0.05102 0.16691 0.25149 0.0
H568 H 0.03088 0.0769 0.16695 0.0
H569 H 0.03072 0.05457 0.04256 0.0
C570 C 0.37319 0.05049 0.95582 0.0
C571 C 0.36305 0.02806 0.04553 0.0
C572 C 0.42023 0.99382 0.01751 0.0
C573 C 0.43369 0.02111 0.94498 0.0
N574 N 0.42109 0.07729 0.85038 0.0
N575 N 0.38024 0.97856 0.16531 0.0
C576 C 0.40949 0.04989 0.91595 0.0
C577 C 0.38739 0.99951 0.07642 0.0
N578 N 0.34754 0.07243 0.90728 0.0
N579 N 0.43837 0.96194 0.02951 0.0
H580 H 0.35693 0.9815 0.2092 0.0
H581 H 0.39868 0.96017 0.20013 0.0
H582 H 0.46138 0.95626 0.98673 0.0
H583 H 0.42851 0.93979 0.07279 0.0
H584 H 0.35149 0.08693 0.83534 0.0
H585 H 0.3209 0.07284 0.93272 0.0
H586 H 0.40669 0.1011 0.83612 0.0
H587 H 0.44636 0.0772 0.81606 0.0
C588 C 0.5367 0.37462 0.12284 0.0
C589 C 0.54793 0.34163 0.07615 0.0
C590 C 0.54652 0.37288 0.89476 0.0
C591 C 0.54057 0.40717 0.94445 0.0
N592 N 0.53662 0.44026 0.11397 0.0
N593 N 0.56675 0.31041 0.91672 0.0
C594 C 0.53697 0.40781 0.06058 0.0
C595 C 0.55348 0.34107 0.96155 0.0
N596 N 0.52602 0.3743 0.22834 0.0
N597 N 0.5443 0.37026 0.78328 0.0
H598 H 0.57059 0.28649 0.96154 0.0
H599 H 0.57585 0.30934 0.83742 0.0
H600 H 0.53823 0.39231 0.73223 0.0
H601 H 0.54491 0.34569 0.74186 0.0
H602 H 0.51403 0.39637 0.26465 0.0
H603 H 0.52572 0.35065 0.27563 0.0
H604 H 0.53836 0.44251 0.19893 0.0
H605 H 0.5386 0.4652 0.07461 0.0
C606 C 0.21337 0.51952 0.94591 0.0
C607 C 0.21595 0.5105 0.05931 0.0
C608 C 0.15018 0.4948 0.04883 0.0
C609 C 0.14769 0.50218 0.93335 0.0
N610 N 0.18084 0.51199 0.76973 0.0
N611 N 0.18851 0.48116 0.21107 0.0
C612 C 0.18048 0.5118 0.88141 0.0
C613 C 0.18487 0.49532 0.1077 0.0
N614 N 0.24203 0.53659 0.89987 0.0
N615 N 0.11939 0.48961 0.10536 0.0
H616 H 0.21324 0.48127 0.25617 0.0
H617 H 0.16818 0.46607 0.24733 0.0
H618 H 0.09329 0.48978 0.06964 0.0
H619 H 0.11936 0.48877 0.19052 0.0
H620 H 0.2405 0.54796 0.82167 0.0
H621 H 0.26668 0.54149 0.94289 0.0
H622 H 0.20441 0.51556 0.72693 0.0
H623 H 0.15837 0.50443 0.71977 0.0
C624 C 0.04479 0.84973 0.46867 0.0
C625 C 1.01475 0.82641 0.4897 0.0
C626 C 0.99303 0.87414 0.61522 0.0
C627 C 0.02287 0.89767 0.59251 0.0
N628 N 0.08158 0.9018 0.50859 0.0
N629 N 0.9668 0.81301 0.61054 0.0
C630 C 0.05004 0.88346 0.52477 0.0
C631 C 0.99101 0.83775 0.57187 0.0
N632 N 0.06929 0.84106 0.39353 0.0
N633 N 0.96606 0.88655 0.67755 0.0
H634 H 0.96539 0.78631 0.58246 0.0
H635 H 0.95107 0.81761 0.67755 0.0
H636 H 0.96747 0.91155 0.71681 0.0
H637 H 0.94145 0.8729 0.68595 0.0
H638 H 0.06786 0.81741 0.34701 0.0
H639 H 0.06786 0.81741 0.34701 0.0
H640 H 0.08903 0.92603 0.54746 0.0
H641 H 0.08903 0.92603 0.54746 0.0
C642 C 0.70587 0.04426 0.56721 0.0
C643 C 0.71187 0.01869 0.4825 0.0
C644 C 0.65798 0.98447 0.5513 0.0
C645 C 0.64803 1.01362 0.62157 0.0
N646 N 0.66193 0.07617 0.67076 0.0
N647 N 0.68842 0.96581 0.38763 0.0
C648 C 0.67208 0.04466 0.62325 0.0
C649 C 0.68648 0.98911 0.47333 0.0
N650 N 0.7328 0.06872 0.59488 0.0
N651 N 0.64148 0.95138 0.56173 0.0
H652 H 0.70858 0.96791 0.33082 0.0
H653 H 0.66842 0.94634 0.36853 0.0
H654 H 0.62315 0.94573 0.62209 0.0
H655 H 0.64947 0.92843 0.52014 0.0
H656 H 0.73185 0.08579 0.66238 0.0
H657 H 0.75777 0.06889 0.55793 0.0
H658 H 0.67668 0.10034 0.66461 0.0
H659 H 0.63673 0.07992 0.70331 0.0
C660 C 0.50824 0.67871 0.56385 0.0
C661 C 0.53374 0.6857 0.48165 0.0
C662 C 0.56728 0.63136 0.55029 0.0
C663 C 0.5385 0.62096 0.61918 0.0
N664 N 0.4781 0.63403 0.67606 0.0
N665 N 0.58582 0.66481 0.38951 0.0
C666 C 0.50825 0.64473 0.62285 0.0
C667 C 0.56295 0.66106 0.47363 0.0
N668 N 0.48371 0.70484 0.58572 0.0
N669 N 0.59958 0.61363 0.56045 0.0
H670 H 0.58403 0.68614 0.33332 0.0
H671 H 0.60472 0.64528 0.37077 0.0
H672 H 0.60462 0.59335 0.61873 0.0
H673 H 0.6226 0.62185 0.52015 0.0
H674 H 0.46667 0.70326 0.65123 0.0
H675 H 0.48315 0.72982 0.54513 0.0
H676 H 0.45388 0.64831 0.67182 0.0
H677 H 0.47573 0.60905 0.71529 0.0
C678 C 0.88534 0.49798 0.46182 0.0
C679 C 0.8601 0.52439 0.49398 0.0
C680 C 0.90303 0.53951 0.65125 0.0
C681 C 0.9298 0.5163 0.60973 0.0
N682 N 0.94347 0.47082 0.47488 0.0
N683 N 0.84583 0.5715 0.61971 0.0
C684 C 0.92004 0.49492 0.51604 0.0
C685 C 0.86905 0.54511 0.59004 0.0
N686 N 0.87736 0.4752 0.37657 0.0
N687 N 0.90991 0.55579 0.75026 0.0
H688 H 0.82062 0.5754 0.57941 0.0
H689 H 0.85209 0.59055 0.68037 0.0
H690 H 0.93437 0.55259 0.79541 0.0
H691 H 0.89061 0.56999 0.79172 0.0
H692 H 0.85245 0.4747 0.33233 0.0
H693 H 0.85245 0.4747 0.33233 0.0
H694 H 0.96962 0.46635 0.50802 0.0
H695 H 0.96962 0.46635 0.50802 0.0
loop_
_geom_bond_atom_site_label_1
_geom_bond_atom_site_label_2
_geom_bond_distance
_geom_bond_site_symmetry_2
_ccdc_geom_bond_type
H0 C7 0.929 . S
H1 C10 0.930 . S
H2 C12 0.929 . S
H3 C4 0.969 . S
C4 H3 0.969 . S
C4 O5 1.550 . S
C4 H6 0.973 . S
O5 C4 1.550 . S
O5 C11 1.412 . S
H6 C4 0.973 . S
C7 H0 0.929 . S
C7 C8 1.400 . S
C7 C9 1.364 . S
C8 C7 1.400 . S
C8 C12 1.377 . S
C9 C7 1.364 . S
C9 C10 1.374 . S
C10 H1 0.930 . S
C10 C9 1.374 . S
C10 C11 1.383 . S
C11 O5 1.412 . S
C11 C10 1.383 . S
C11 C12 1.394 . S
C12 H2 0.929 . S
C12 C8 1.377 . S
C12 C11 1.394 . S
H13 C20 0.929 . S
H14 C23 0.930 . S
H15 C25 0.929 . S
H16 C17 0.969 1_455 S
C17 H16 0.969 1_655 S
C17 O18 1.550 . S
C17 H19 0.973 . S
O18 C17 1.550 . S
O18 C24 1.412 . S
H19 C17 0.973 . S
C20 H13 0.929 . S
C20 C21 1.400 . S
C20 C22 1.364 . S
C21 C20 1.400 . S
C21 C25 1.377 . S
C22 C20 1.364 . S
C22 C23 1.374 . S
C23 H14 0.930 . S
C23 C22 1.374 . S
C23 C24 1.383 . S
C24 O18 1.412 . S
C24 C23 1.383 . S
C24 C25 1.394 . S
C25 H15 0.929 . S
C25 C21 1.377 . S
C25 C24 1.394 . S
H26 C33 0.929 . S
H27 C36 0.930 . S
H28 C38 0.929 . S
H29 C30 0.969 1_545 S
C30 H29 0.969 1_565 S
C30 O31 1.550 . S
C30 H32 0.973 . S
O31 C30 1.550 . S
O31 C37 1.412 . S
H32 C30 0.973 . S
C33 H26 0.929 . S
C33 C34 1.400 . S
C33 C35 1.364 . S
C34 C33 1.400 . S
C34 C38 1.377 . S
C35 C33 1.364 . S
C35 C36 1.374 . S
C36 H27 0.930 . S
C36 C35 1.374 . S
C36 C37 1.383 . S
C37 O31 1.412 . S
C37 C36 1.383 . S
C37 C38 1.394 . S
C38 H28 0.929 . S
C38 C34 1.377 . S
C38 C37 1.394 . S
H39 C46 0.929 . S
H40 C49 0.930 . S
H41 C51 0.929 . S
H42 C43 0.969 . S
C43 H42 0.969 . S
C43 O44 1.550 . S
C43 H45 0.973 . S
O44 C43 1.550 . S
O44 C50 1.412 . S
H45 C43 0.973 . S
C46 H39 0.929 . S
C46 C47 1.400 . S
C46 C48 1.364 . S
C47 C46 1.400 . S
C47 C51 1.377 . S
C48 C46 1.364 . S
C48 C49 1.374 . S
C49 H40 0.930 . S
C49 C48 1.374 . S
C49 C50 1.383 . S
C50 O44 1.412 . S
C50 C49 1.383 . S
C50 C51 1.394 . S
C51 H41 0.929 . S
C51 C47 1.377 . S
C51 C50 1.394 . S
H52 C59 0.929 . S
H53 C62 0.930 . S
H54 C64 0.929 . S
H55 C56 0.969 . S
C56 H55 0.969 . S
C56 O57 1.550 . S
C56 H58 0.973 . S
O57 C56 1.550 . S
O57 C63 1.412 . S
H58 C56 0.973 . S
C59 H52 0.929 . S
C59 C60 1.400 1_554 S
C59 C61 1.364 . S
C60 C59 1.400 1_556 S
C60 C64 1.377 . S
C61 C59 1.364 . S
C61 C62 1.374 . S
C62 H53 0.930 . S
C62 C61 1.374 . S
C62 C63 1.383 . S
C63 O57 1.412 . S
C63 C62 1.383 . S
C63 C64 1.394 1_554 S
C64 H54 0.929 . S
C64 C60 1.377 . S
C64 C63 1.394 1_556 S
H65 C72 0.929 . S
H66 C75 0.930 . S
H67 C77 0.929 . S
H68 C69 0.969 . S
C69 H68 0.969 . S
C69 O70 1.550 . S
C69 H71 0.973 . S
O70 C69 1.550 . S
O70 C76 1.412 . S
H71 C69 0.973 . S
C72 H65 0.929 . S
C72 C73 1.400 1_554 S
C72 C74 1.364 . S
C73 C72 1.400 1_556 S
C73 C77 1.377 . S
C74 C72 1.364 . S
C74 C75 1.374 . S
C75 H66 0.930 . S
C75 C74 1.374 . S
C75 C76 1.383 . S
C76 O70 1.412 . S
C76 C75 1.383 . S
C76 C77 1.394 1_554 S
C77 H67 0.929 . S
C77 C73 1.377 . S
C77 C76 1.394 1_556 S
H78 C85 0.930 . S
H79 C88 0.930 . S
H80 C90 0.929 . S
H81 C82 0.969 . S
C82 H81 0.969 . S
C82 O83 1.550 . S
C82 H84 0.973 . S
O83 C82 1.550 . S
O83 C89 1.412 . S
H84 C82 0.973 . S
C85 H78 0.930 . S
C85 C86 1.406 . S
C85 C87 1.356 1_556 S
C86 C85 1.406 . S
C86 C90 1.377 . S
C87 C85 1.356 1_554 S
C87 C88 1.374 . S
C88 H79 0.930 . S
C88 C87 1.374 . S
C88 C89 1.383 . S
C89 O83 1.412 . S
C89 C88 1.383 . S
C89 C90 1.394 1_554 S
C90 H80 0.929 . S
C90 C86 1.377 . S
C90 C89 1.394 1_556 S
H91 C98 0.929 . S
H92 C101 0.930 . S
H93 C103 0.929 . S
H94 C95 0.969 . S
C95 H94 0.969 . S
C95 O96 1.550 . S
C95 H97 0.973 . S
O96 C95 1.550 . S
O96 C102 1.412 . S
H97 C95 0.973 . S
C98 H91 0.929 . S
C98 C99 1.400 1_554 S
C98 C100 1.364 . S
C99 C98 1.400 1_556 S
C99 C103 1.377 . S
C100 C98 1.364 . S
C100 C101 1.374 . S
C101 H92 0.930 . S
C101 C100 1.374 . S
C101 C102 1.383 . S
C102 O96 1.412 . S
C102 C101 1.383 . S
C102 C103 1.394 1_554 S
C103 H93 0.929 . S
C103 C99 1.377 . S
C103 C102 1.394 1_556 S
Eu104 C113 2.828 . S
Eu104 O115 2.392 . S
Eu104 O117 2.418 1_545 S
Eu104 O122 2.373 1_655 S
Eu104 O125 2.488 . S
Eu104 O126 2.471 . S
Eu104 O127 2.349 1_655 S
Eu105 O114 2.373 1_455 S
Eu105 O118 2.488 1_556 S
Eu105 O119 2.471 . S
Eu105 O120 2.349 . S
Eu105 O123 2.392 1_565 S
Eu105 O124 2.418 1_565 S
Eu105 C134 2.828 1_556 S
C106 O124 1.244 . S
C106 O127 1.265 . S
C107 C108 1.379 1_655 S
C107 C111 1.373 . S
C107 C113 1.505 . S
C108 C107 1.379 1_455 S
C108 C110 1.369 . S
C108 H136 0.930 . S
C109 C111 1.383 . S
C109 C112 1.382 . S
C109 H137 0.930 . S
C110 C108 1.369 . S
C110 C112 1.392 1_455 S
C110 H138 0.930 . S
C111 C107 1.373 . S
C111 C109 1.383 . S
C111 H139 0.931 . S
C112 C109 1.382 . S
C112 C110 1.392 1_655 S
C113 Eu104 2.828 . S
C113 C107 1.505 . S
C113 O125 1.249 . S
C113 O126 1.244 . S
O114 Eu105 2.373 1_655 S
O114 C116 1.259 . S
O115 Eu104 2.392 . S
O115 C116 1.240 1_545 S
C116 O114 1.259 . S
C116 O115 1.240 1_565 S
O117 Eu104 2.418 1_565 S
O117 C121 1.244 . S
O118 Eu105 2.488 1_554 S
O118 C134 1.249 . S
O119 Eu105 2.471 . S
O119 C134 1.244 1_556 S
O120 Eu105 2.349 . S
O120 C121 1.265 1_455 S
C121 O117 1.244 . S
C121 O120 1.265 1_655 S
O122 Eu104 2.373 1_455 S
O122 C135 1.258 . S
O123 Eu105 2.392 1_545 S
O123 C135 1.242 . S
O124 Eu105 2.418 1_545 S
O124 C106 1.244 . S
O125 Eu104 2.488 . S
O125 C113 1.249 . S
O126 Eu104 2.471 . S
O126 C113 1.244 . S
O127 Eu104 2.349 1_455 S
O127 C106 1.265 . S
C128 C129 1.379 . S
C128 C132 1.373 . S
C128 C134 1.505 . S
C129 C128 1.379 . S
C129 C131 1.369 . S
C129 H140 0.928 1_455 S
C130 C132 1.383 . S
C130 C133 1.382 . S
C130 H141 0.930 . S
C131 C129 1.369 . S
C131 C133 1.392 . S
C131 H142 0.930 1_455 S
C132 C128 1.373 . S
C132 C130 1.383 . S
C132 H143 0.931 . S
C133 C130 1.382 . S
C133 C131 1.392 . S
C134 Eu105 2.828 1_554 S
C134 O118 1.249 . S
C134 O119 1.244 1_554 S
C134 C128 1.505 . S
C135 O122 1.258 . S
C135 O123 1.242 . S
H136 C108 0.930 . S
H137 C109 0.930 . S
H138 C110 0.930 . S
H139 C111 0.931 . S
H140 C129 0.928 1_655 S
H141 C130 0.930 . S
H142 C131 0.930 1_655 S
H143 C132 0.931 . S
Eu144 C153 2.828 . S
Eu144 O155 2.392 . S
Eu144 O157 2.418 . S
Eu144 O162 2.373 . S
Eu144 O165 2.488 . S
Eu144 O166 2.471 . S
Eu144 O167 2.349 1_545 S
Eu145 O154 2.373 1_565 S
Eu145 O158 2.488 . S
Eu145 O159 2.471 1_565 S
Eu145 O160 2.349 1_565 S
Eu145 O163 2.392 . S
Eu145 O164 2.418 . S
Eu145 C174 2.828 . S
C146 O164 1.244 . S
C146 O167 1.265 . S
C147 C148 1.379 . S
C147 C151 1.373 . S
C147 C153 1.505 1_554 S
C148 C147 1.379 . S
C148 C150 1.369 . S
C148 H176 0.930 1_545 S
C149 C151 1.383 . S
C149 C152 1.382 . S
C149 H177 0.930 . S
C150 C148 1.369 . S
C150 C152 1.392 . S
C150 H178 0.930 1_545 S
C151 C147 1.373 . S
C151 C149 1.383 . S
C151 H179 0.931 . S
C152 C149 1.382 . S
C152 C150 1.392 . S
C153 Eu144 2.828 . S
C153 C147 1.505 1_556 S
C153 O165 1.249 . S
C153 O166 1.244 . S
O154 Eu145 2.373 1_545 S
O154 C156 1.258 . S
O155 Eu144 2.392 . S
O155 C156 1.242 . S
C156 O154 1.258 . S
C156 O155 1.242 . S
O157 Eu144 2.418 . S
O157 C161 1.244 . S
O158 Eu145 2.488 . S
O158 C174 1.249 . S
O159 Eu145 2.471 1_545 S
O159 C174 1.244 1_545 S
O160 Eu145 2.349 1_545 S
O160 C161 1.265 . S
C161 O157 1.244 . S
C161 O160 1.265 . S
O162 Eu144 2.373 . S
O162 C175 1.258 1_545 S
O163 Eu145 2.392 . S
O163 C175 1.242 . S
O164 Eu145 2.418 . S
O164 C146 1.244 . S
O165 Eu144 2.488 . S
O165 C153 1.249 . S
O166 Eu144 2.471 . S
O166 C153 1.244 . S
O167 Eu144 2.349 1_565 S
O167 C146 1.265 . S
C168 C169 1.379 1_565 S
C168 C172 1.373 . S
C168 C174 1.505 . S
C169 C168 1.379 1_545 S
C169 C171 1.369 . S
C169 H180 0.930 . S
C170 C172 1.383 . S
C170 C173 1.382 . S
C170 H181 0.930 . S
C171 C169 1.369 . S
C171 C173 1.392 1_545 S
C171 H182 0.930 . S
C172 C168 1.373 . S
C172 C170 1.383 . S
C172 H183 0.931 . S
C173 C170 1.382 . S
C173 C171 1.392 1_565 S
C174 Eu145 2.828 . S
C174 O158 1.249 . S
C174 O159 1.244 1_565 S
C174 C168 1.505 . S
C175 O162 1.258 1_565 S
C175 O163 1.242 . S
H176 C148 0.930 1_565 S
H177 C149 0.930 . S
H178 C150 0.930 1_565 S
H179 C151 0.931 . S
H180 C169 0.930 . S
H181 C170 0.930 . S
H182 C171 0.930 . S
H183 C172 0.931 . S
Eu184 C193 2.828 . S
Eu184 O195 2.392 . S
Eu184 O197 2.418 . S
Eu184 O202 2.373 . S
Eu184 O205 2.488 . S
Eu184 O206 2.471 . S
Eu184 O207 2.349 . S
Eu185 O194 2.373 . S
Eu185 O198 2.488 . S
Eu185 O199 2.471 . S
Eu185 O200 2.349 . S
Eu185 O203 2.392 . S
Eu185 O204 2.418 . S
Eu185 C214 2.828 . S
C186 O204 1.244 . S
C186 O207 1.265 . S
C187 C188 1.379 . S
C187 C191 1.373 . S
C187 C193 1.505 1_554 S
C188 C187 1.379 . S
C188 C190 1.369 . S
C188 H216 0.930 . S
C189 C191 1.383 . S
C189 C192 1.382 . S
C189 H217 0.930 . S
C190 C188 1.369 . S
C190 C192 1.392 . S
C190 H218 0.930 . S
C191 C187 1.373 . S
C191 C189 1.383 . S
C191 H219 0.931 . S
C192 C189 1.382 . S
C192 C190 1.392 . S
C193 Eu184 2.828 . S
C193 C187 1.505 1_556 S
C193 O205 1.249 . S
C193 O206 1.244 . S
O194 Eu185 2.373 . S
O194 C196 1.258 . S
O195 Eu184 2.392 . S
O195 C196 1.242 . S
C196 O194 1.258 . S
C196 O195 1.242 . S
O197 Eu184 2.418 . S
O197 C201 1.244 . S
O198 Eu185 2.488 . S
O198 C214 1.249 . S
O199 Eu185 2.471 . S
O199 C214 1.244 . S
O200 Eu185 2.349 . S
O200 C201 1.265 . S
C201 O197 1.244 . S
C201 O200 1.265 . S
O202 Eu184 2.373 . S
O202 C215 1.258 . S
O203 Eu185 2.392 . S
O203 C215 1.242 . S
O204 Eu185 2.418 . S
O204 C186 1.244 . S
O205 Eu184 2.488 . S
O205 C193 1.249 . S
O206 Eu184 2.471 . S
O206 C193 1.244 . S
O207 Eu184 2.349 . S
O207 C186 1.265 . S
C208 C209 1.379 . S
C208 C212 1.373 . S
C208 C214 1.505 . S
C209 C208 1.379 . S
C209 C211 1.369 . S
C209 H220 0.930 . S
C210 C212 1.383 . S
C210 C213 1.382 . S
C210 H221 0.930 . S
C211 C209 1.369 . S
C211 C213 1.392 . S
C211 H222 0.930 . S
C212 C208 1.373 . S
C212 C210 1.383 . S
C212 H223 0.931 . S
C213 C210 1.382 . S
C213 C211 1.392 . S
C214 Eu185 2.828 . S
C214 O198 1.249 . S
C214 O199 1.244 . S
C214 C208 1.505 . S
C215 O202 1.258 . S
C215 O203 1.242 . S
H216 C188 0.930 . S
H217 C189 0.930 . S
H218 C190 0.930 . S
H219 C191 0.931 . S
H220 C209 0.930 . S
H221 C210 0.930 . S
H222 C211 0.930 . S
H223 C212 0.931 . S
Eu224 C233 2.828 . S
Eu224 O235 2.392 . S
Eu224 O237 2.418 1_455 S
Eu224 O242 2.373 . S
Eu224 O245 2.488 . S
Eu224 O246 2.471 . S
Eu224 O247 2.349 . S
Eu225 O234 2.373 . S
Eu225 O238 2.488 1_556 S
Eu225 O239 2.471 . S
Eu225 O240 2.349 . S
Eu225 O243 2.392 1_655 S
Eu225 O244 2.418 1_655 S
Eu225 C254 2.828 1_556 S
C226 O244 1.244 . S
C226 O247 1.265 . S
C227 C228 1.379 . S
C227 C231 1.373 . S
C227 C233 1.505 . S
C228 C227 1.379 . S
C228 C230 1.369 . S
C228 H256 0.930 . S
C229 C231 1.383 . S
C229 C232 1.382 . S
C229 H257 0.930 . S
C230 C228 1.369 . S
C230 C232 1.392 . S
C230 H258 0.930 . S
C231 C227 1.373 . S
C231 C229 1.383 . S
C231 H259 0.931 . S
C232 C229 1.382 . S
C232 C230 1.392 . S
C233 Eu224 2.828 . S
C233 C227 1.505 . S
C233 O245 1.249 . S
C233 O246 1.244 . S
O234 Eu225 2.373 . S
O234 C236 1.258 . S
O235 Eu224 2.392 . S
O235 C236 1.242 1_455 S
C236 O234 1.258 . S
C236 O235 1.242 1_655 S
O237 Eu224 2.418 1_655 S
O237 C241 1.244 . S
O238 Eu225 2.488 1_554 S
O238 C254 1.249 . S
O239 Eu225 2.471 . S
O239 C254 1.244 1_556 S
O240 Eu225 2.349 . S
O240 C241 1.265 . S
C241 O237 1.244 . S
C241 O240 1.265 . S
O242 Eu224 2.373 . S
O242 C255 1.258 . S
O243 Eu225 2.392 1_455 S
O243 C255 1.242 . S
O244 Eu225 2.418 1_455 S
O244 C226 1.244 . S
O245 Eu224 2.488 . S
O245 C233 1.249 . S
O246 Eu224 2.471 . S
O246 C233 1.244 . S
O247 Eu224 2.349 . S
O247 C226 1.265 . S
C248 C249 1.379 . S
C248 C252 1.373 . S
C248 C254 1.505 . S
C249 C248 1.379 . S
C249 C251 1.369 . S
C249 H260 0.930 . S
C250 C252 1.383 . S
C250 C253 1.382 . S
C250 H261 0.930 . S
C251 C249 1.369 . S
C251 C253 1.392 . S
C251 H262 0.930 . S
C252 C248 1.373 . S
C252 C250 1.383 . S
C252 H263 0.931 . S
C253 C250 1.382 . S
C253 C251 1.392 . S
C254 Eu225 2.828 1_554 S
C254 O238 1.249 . S
C254 O239 1.244 1_554 S
C254 C248 1.505 . S
C255 O242 1.258 . S
C255 O243 1.242 . S
H256 C228 0.930 . S
H257 C229 0.930 . S
H258 C230 0.930 . S
H259 C231 0.931 . S
H260 C249 0.930 . S
H261 C250 0.930 . S
H262 C251 0.930 . S
H263 C252 0.931 . S
C264 C265 1.363 . S
C264 C270 1.379 . S
C264 N272 1.356 . S
C265 C264 1.363 . S
C265 C271 1.363 . S
C266 C267 1.353 1_565 S
C266 C271 1.378 1_565 S
C266 N273 1.365 . S
C267 C266 1.353 1_545 S
C267 C270 1.363 . S
N268 C270 1.356 . S
N268 H280 0.984 . S
N268 H281 0.985 . S
N269 C271 1.356 1_565 S
N269 H274 0.984 . S
N269 H275 0.985 . S
C270 C264 1.379 . S
C270 C267 1.363 . S
C270 N268 1.356 . S
C271 C265 1.363 . S
C271 C266 1.378 1_545 S
C271 N269 1.356 1_545 S
N272 C264 1.356 . S
N272 H278 0.984 . S
N272 H279 0.984 . S
N273 C266 1.365 . S
N273 H276 0.984 . S
N273 H277 0.985 . S
H274 N269 0.984 . S
H275 N269 0.985 . S
H276 N273 0.984 . S
H277 N273 0.985 . S
H278 N272 0.984 . S
H279 N272 0.984 . S
H280 N268 0.984 . S
H281 N268 0.985 . S
C282 C283 1.363 . S
C282 C288 1.379 . S
C282 N290 1.356 . S
C283 C282 1.363 . S
C283 C289 1.363 . S
C284 C285 1.363 . S
C284 C289 1.379 . S
C284 N291 1.356 . S
C285 C284 1.363 . S
C285 C288 1.363 . S
N286 C288 1.356 . S
N286 H298 0.984 . S
N286 H299 0.985 . S
N287 C289 1.356 . S
N287 H292 0.984 . S
N287 H293 0.985 . S
C288 C282 1.379 . S
C288 C285 1.363 . S
C288 N286 1.356 . S
C289 C283 1.363 . S
C289 C284 1.379 . S
C289 N287 1.356 . S
N290 C282 1.356 . S
N290 H296 0.984 . S
N290 H297 0.984 . S
N291 C284 1.356 . S
N291 H294 0.984 . S
N291 H295 0.985 . S
H292 N287 0.984 . S
H293 N287 0.985 . S
H294 N291 0.984 . S
H295 N291 0.985 . S
H296 N290 0.984 . S
H297 N290 0.984 . S
H298 N286 0.984 . S
H299 N286 0.985 . S
C300 C301 1.363 . S
C300 C306 1.379 . S
C300 N308 1.356 . S
C301 C300 1.363 . S
C301 C307 1.363 . S
C302 C303 1.363 . S
C302 C307 1.379 . S
C302 N309 1.356 . S
C303 C302 1.363 . S
C303 C306 1.363 . S
N304 C306 1.356 . S
N304 H316 0.984 . S
N304 H317 0.985 . S
N305 C307 1.356 . S
N305 H310 0.984 . S
N305 H311 0.985 . S
C306 C300 1.379 . S
C306 C303 1.363 . S
C306 N304 1.356 . S
C307 C301 1.363 . S
C307 C302 1.379 . S
C307 N305 1.356 . S
N308 C300 1.356 . S
N308 H314 0.984 . S
N308 H315 0.984 . S
N309 C302 1.356 . S
N309 H312 0.984 . S
N309 H313 0.985 . S
H310 N305 0.984 . S
H311 N305 0.985 . S
H312 N309 0.984 . S
H313 N309 0.985 . S
H314 N308 0.984 . S
H315 N308 0.984 . S
H316 N304 0.984 . S
H317 N304 0.985 . S
C318 C319 1.363 . S
C318 C324 1.379 . S
C318 N326 1.356 . S
C319 C318 1.363 . S
C319 C325 1.363 . S
C320 C321 1.363 . S
C320 C325 1.379 . S
C320 N327 1.356 . S
C321 C320 1.363 . S
C321 C324 1.363 . S
N322 C324 1.356 . S
N322 H334 0.984 . S
N322 H335 0.985 . S
N323 C325 1.356 . S
N323 H328 0.984 . S
N323 H329 0.985 1_455 S
C324 C318 1.379 . S
C324 C321 1.363 . S
C324 N322 1.356 . S
C325 C319 1.363 . S
C325 C320 1.379 . S
C325 N323 1.356 . S
N326 C318 1.356 . S
N326 H332 0.984 . S
N326 H333 0.984 . S
N327 C320 1.356 . S
N327 H330 0.984 . S
N327 H331 0.985 1_455 S
H328 N323 0.984 . S
H329 N323 0.985 1_655 S
H330 N327 0.984 . S
H331 N327 0.985 1_655 S
H332 N326 0.984 . S
H333 N326 0.984 . S
H334 N322 0.984 . S
H335 N322 0.985 . S
C336 C337 1.363 . S
C336 C342 1.379 . S
C336 N344 1.356 . S
C337 C336 1.363 . S
C337 C343 1.363 1_565 S
C338 C339 1.363 1_545 S
C338 C343 1.379 . S
C338 N345 1.356 . S
C339 C338 1.363 1_565 S
C339 C342 1.363 . S
N340 C342 1.356 . S
N340 H352 0.984 . S
N340 H353 0.985 1_554 S
N341 C343 1.356 . S
N341 H346 0.984 . S
N341 H347 0.985 . S
C342 C336 1.379 . S
C342 C339 1.363 . S
C342 N340 1.356 . S
C343 C337 1.363 1_545 S
C343 C338 1.379 . S
C343 N341 1.356 . S
N344 C336 1.356 . S
N344 H350 0.984 . S
N344 H351 0.984 . S
N345 C338 1.356 . S
N345 H348 0.984 1_554 S
N345 H349 0.985 . S
H346 N341 0.984 . S
H347 N341 0.985 . S
H348 N345 0.984 1_556 S
H349 N345 0.985 . S
H350 N344 0.984 . S
H351 N344 0.984 . S
H352 N340 0.984 . S
H353 N340 0.985 1_556 S
C354 C355 1.363 . S
C354 C360 1.379 . S
C354 N362 1.356 . S
C355 C354 1.363 . S
C355 C361 1.363 . S
C356 C357 1.363 . S
C356 C361 1.379 . S
C356 N363 1.356 1_554 S
C357 C356 1.363 . S
C357 C360 1.363 . S
N358 C360 1.356 . S
N358 H370 0.984 . S
N358 H371 0.985 1_554 S
N359 C361 1.356 . S
N359 H364 0.984 . S
N359 H365 0.985 . S
C360 C354 1.379 . S
C360 C357 1.363 . S
C360 N358 1.356 . S
C361 C355 1.363 . S
C361 C356 1.379 . S
C361 N359 1.356 . S
N362 C354 1.356 . S
N362 H368 0.984 . S
N362 H369 0.984 . S
N363 C356 1.356 1_556 S
N363 H366 0.984 . S
N363 H367 0.985 . S
H364 N359 0.984 . S
H365 N359 0.985 . S
H366 N363 0.984 . S
H367 N363 0.985 . S
H368 N362 0.984 . S
H369 N362 0.984 . S
H370 N358 0.984 . S
H371 N358 0.985 1_556 S
C372 C373 1.363 . S
C372 C378 1.379 . S
C372 N380 1.356 . S
C373 C372 1.363 . S
C373 C379 1.363 . S
C374 C375 1.363 . S
C374 C379 1.379 . S
C374 N381 1.356 . S
C375 C374 1.363 . S
C375 C378 1.363 . S
N376 C378 1.356 1_556 S
N376 H388 0.984 . S
N376 H389 0.985 . S
N377 C379 1.356 . S
N377 H382 0.984 . S
N377 H383 0.985 . S
C378 C372 1.379 . S
C378 C375 1.363 . S
C378 N376 1.356 1_554 S
C379 C373 1.363 . S
C379 C374 1.379 . S
C379 N377 1.356 . S
N380 C372 1.356 . S
N380 H386 0.984 . S
N380 H387 0.984 . S
N381 C374 1.356 . S
N381 H384 0.984 1_554 S
N381 H385 0.985 . S
H382 N377 0.984 . S
H383 N377 0.985 . S
H384 N381 0.984 1_556 S
H385 N381 0.985 . S
H386 N380 0.984 . S
H387 N380 0.984 . S
H388 N376 0.984 . S
H389 N376 0.985 . S
C390 C391 1.363 . S
C390 C396 1.379 . S
C390 N398 1.356 . S
C391 C390 1.363 . S
C391 C397 1.363 . S
C392 C393 1.363 . S
C392 C397 1.379 . S
C392 N399 1.356 1_554 S
C393 C392 1.363 . S
C393 C396 1.363 . S
N394 C396 1.356 1_455 S
N394 H406 0.984 . S
N394 H407 0.985 . S
N395 C397 1.356 . S
N395 H400 0.984 . S
N395 H401 0.985 . S
C396 C390 1.379 . S
C396 C393 1.363 . S
C396 N394 1.356 1_655 S
C397 C391 1.363 . S
C397 C392 1.379 . S
C397 N395 1.356 . S
N398 C390 1.356 . S
N398 H404 0.984 1_655 S
N398 H405 0.984 . S
N399 C392 1.356 1_556 S
N399 H402 0.984 . S
N399 H403 0.985 . S
H400 N395 0.984 . S
H401 N395 0.985 . S
H402 N399 0.984 . S
H403 N399 0.985 . S
H404 N398 0.984 1_455 S
H405 N398 0.984 . S
H406 N394 0.984 . S
H407 N394 0.985 . S
C408 C409 1.363 . S
C408 C414 1.379 . S
C408 N416 1.356 . S
C409 C408 1.363 . S
C409 C415 1.363 . S
C410 C411 1.363 1_655 S
C410 C415 1.379 1_655 S
C410 N417 1.356 . S
C411 C410 1.363 1_455 S
C411 C414 1.363 . S
N412 C414 1.356 . S
N412 H424 0.984 . S
N412 H425 0.985 . S
N413 C415 1.356 . S
N413 H418 0.984 . S
N413 H419 0.985 1_554 S
C414 C408 1.379 . S
C414 C411 1.363 . S
C414 N412 1.356 . S
C415 C409 1.363 . S
C415 C410 1.379 1_455 S
C415 N413 1.356 . S
N416 C408 1.356 . S
N416 H422 0.984 . S
N416 H423 0.984 . S
N417 C410 1.356 . S
N417 H420 0.984 . S
N417 H421 0.985 1_554 S
H418 N413 0.984 . S
H419 N413 0.985 1_556 S
H420 N417 0.984 . S
H421 N417 0.985 1_556 S
H422 N416 0.984 . S
H423 N416 0.984 . S
H424 N412 0.984 . S
H425 N412 0.985 . S
C426 C427 1.363 . S
C426 C432 1.379 1_545 S
C426 N434 1.356 . S
C427 C426 1.363 . S
C427 C433 1.363 . S
C428 C429 1.363 1_545 S
C428 C433 1.379 . S
C428 N435 1.356 1_545 S
C429 C428 1.363 1_565 S
C429 C432 1.363 . S
N430 C432 1.356 . S
N430 H442 0.984 . S
N430 H443 0.985 . S
N431 C433 1.356 . S
N431 H436 0.984 . S
N431 H437 0.985 . S
C432 C426 1.379 1_565 S
C432 C429 1.363 . S
C432 N430 1.356 . S
C433 C427 1.363 . S
C433 C428 1.379 . S
C433 N431 1.356 . S
N434 C426 1.356 . S
N434 H440 0.984 . S
N434 H441 0.984 . S
N435 C428 1.356 1_565 S
N435 H438 0.984 . S
N435 H439 0.985 1_565 S
H436 N431 0.984 . S
H437 N431 0.985 . S
H438 N435 0.984 . S
H439 N435 0.985 1_545 S
H440 N434 0.984 . S
H441 N434 0.984 . S
H442 N430 0.984 . S
H443 N430 0.985 . S
C444 C445 1.363 . S
C444 C450 1.379 . S
C444 N452 1.356 . S
C445 C444 1.363 . S
C445 C451 1.363 . S
C446 C447 1.363 . S
C446 C451 1.379 . S
C446 N453 1.356 . S
C447 C446 1.363 . S
C447 C450 1.363 . S
N448 C450 1.356 . S
N448 H460 0.984 . S
N448 H461 0.985 . S
N449 C451 1.356 . S
N449 H454 0.984 . S
N449 H455 0.985 . S
C450 C444 1.379 . S
C450 C447 1.363 . S
C450 N448 1.356 . S
C451 C445 1.363 . S
C451 C446 1.379 . S
C451 N449 1.356 . S
N452 C444 1.356 . S
N452 H458 0.984 . S
N452 H459 0.984 . S
N453 C446 1.356 . S
N453 H456 0.984 . S
N453 H457 0.985 . S
H454 N449 0.984 . S
H455 N449 0.985 . S
H456 N453 0.984 . S
H457 N453 0.985 . S
H458 N452 0.984 . S
H459 N452 0.984 . S
H460 N448 0.984 . S
H461 N448 0.985 . S
C462 C463 1.363 . S
C462 C468 1.379 . S
C462 N470 1.356 . S
C463 C462 1.363 . S
C463 C469 1.363 . S
C464 C465 1.363 . S
C464 C469 1.379 . S
C464 N471 1.356 . S
C465 C464 1.363 . S
C465 C468 1.363 . S
N466 C468 1.356 . S
N466 H478 0.984 1_554 S
N466 H479 0.985 . S
N467 C469 1.356 . S
N467 H472 0.984 . S
N467 H473 0.985 . S
C468 C462 1.379 . S
C468 C465 1.363 . S
C468 N466 1.356 . S
C469 C463 1.363 . S
C469 C464 1.379 . S
C469 N467 1.356 . S
N470 C462 1.356 . S
N470 H476 0.984 1_554 S
N470 H477 0.984 . S
N471 C464 1.356 . S
N471 H474 0.984 . S
N471 H475 0.985 . S
H472 N467 0.984 . S
H473 N467 0.985 . S
H474 N471 0.984 . S
H475 N471 0.985 . S
H476 N470 0.984 1_556 S
H477 N470 0.984 . S
H478 N466 0.984 1_556 S
H479 N466 0.985 . S
C480 C481 1.363 . S
C480 C486 1.379 . S
C480 N488 1.356 . S
C481 C480 1.363 . S
C481 C487 1.351 1_655 S
C482 C483 1.363 . S
C482 C487 1.389 . S
C482 N489 1.356 . S
C483 C482 1.363 . S
C483 C486 1.363 1_455 S
N484 C486 1.356 1_455 S
N484 H496 0.984 1_455 S
N484 H497 0.985 . S
N485 C487 1.355 1_655 S
N485 H490 0.984 . S
N485 H491 0.985 1_655 S
C486 C480 1.379 . S
C486 C483 1.363 1_655 S
C486 N484 1.356 1_655 S
C487 C481 1.351 1_455 S
C487 C482 1.389 . S
C487 N485 1.355 1_455 S
N488 C480 1.356 . S
N488 H494 0.984 . S
N488 H495 0.984 . S
N489 C482 1.356 . S
N489 H492 0.984 . S
N489 H493 0.985 . S
H490 N485 0.984 . S
H491 N485 0.985 1_455 S
H492 N489 0.984 . S
H493 N489 0.985 . S
H494 N488 0.984 . S
H495 N488 0.984 . S
H496 N484 0.984 1_655 S
H497 N484 0.985 . S
C498 C499 1.363 1_545 S
C498 C504 1.379 . S
C498 N506 1.356 . S
C499 C498 1.363 1_565 S
C499 C505 1.363 . S
C500 C501 1.363 . S
C500 C505 1.379 1_545 S
C500 N507 1.356 . S
C501 C500 1.363 . S
C501 C504 1.363 . S
N502 C504 1.356 . S
N502 H514 0.984 . S
N502 H515 0.985 . S
N503 C505 1.356 . S
N503 H508 0.984 . S
N503 H509 0.985 . S
C504 C498 1.379 . S
C504 C501 1.363 . S
C504 N502 1.356 . S
C505 C499 1.363 . S
C505 C500 1.379 1_565 S
C505 N503 1.356 . S
N506 C498 1.356 . S
N506 H512 0.984 . S
N506 H513 0.984 1_545 S
N507 C500 1.356 . S
N507 H510 0.984 . S
N507 H511 0.985 1_545 S
H508 N503 0.984 . S
H509 N503 0.985 . S
H510 N507 0.984 . S
H511 N507 0.985 1_565 S
H512 N506 0.984 . S
H513 N506 0.984 1_565 S
H514 N502 0.984 . S
H515 N502 0.985 . S
C516 C517 1.363 . S
C516 C522 1.379 . S
C516 N524 1.356 . S
C517 C516 1.363 . S
C517 C523 1.363 . S
C518 C519 1.363 . S
C518 C523 1.379 . S
C518 N525 1.356 . S
C519 C518 1.363 . S
C519 C522 1.363 . S
N520 C522 1.356 . S
N520 H532 0.984 . S
N520 H533 0.985 . S
N521 C523 1.356 . S
N521 H526 0.984 . S
N521 H527 0.985 . S
C522 C516 1.379 . S
C522 C519 1.363 . S
C522 N520 1.356 . S
C523 C517 1.363 . S
C523 C518 1.379 . S
C523 N521 1.356 . S
N524 C516 1.356 . S
N524 H530 0.984 . S
N524 H531 0.984 . S
N525 C518 1.356 . S
N525 H528 0.984 . S
N525 H529 0.985 . S
H526 N521 0.984 . S
H527 N521 0.985 . S
H528 N525 0.984 . S
H529 N525 0.985 . S
H530 N524 0.984 . S
H531 N524 0.984 . S
H532 N520 0.984 . S
H533 N520 0.985 . S
C534 C535 1.363 . S
C534 C540 1.379 . S
C534 N542 1.356 . S
C535 C534 1.363 . S
C535 C541 1.363 . S
C536 C537 1.363 . S
C536 C541 1.379 . S
C536 N543 1.356 . S
C537 C536 1.363 . S
C537 C540 1.363 . S
N538 C540 1.356 . S
N538 H550 0.984 . S
N538 H551 0.985 . S
N539 C541 1.356 . S
N539 H544 0.984 . S
N539 H545 0.985 . S
C540 C534 1.379 . S
C540 C537 1.363 . S
C540 N538 1.356 . S
C541 C535 1.363 . S
C541 C536 1.379 . S
C541 N539 1.356 . S
N542 C534 1.356 . S
N542 H548 0.984 . S
N542 H549 0.984 . S
N543 C536 1.356 . S
N543 H546 0.984 . S
N543 H547 0.985 . S
H544 N539 0.984 . S
H545 N539 0.985 . S
H546 N543 0.984 . S
H547 N543 0.985 . S
H548 N542 0.984 . S
H549 N542 0.984 . S
H550 N538 0.984 . S
H551 N538 0.985 . S
C552 C553 1.363 . S
C552 C558 1.379 . S
C552 N560 1.356 1_556 S
C553 C552 1.363 . S
C553 C559 1.363 . S
C554 C555 1.363 . S
C554 C559 1.379 . S
C554 N561 1.356 . S
C555 C554 1.363 . S
C555 C558 1.363 . S
N556 C558 1.356 1_554 S
N556 H568 0.984 . S
N556 H569 0.985 1_554 S
N557 C559 1.356 . S
N557 H562 0.984 . S
N557 H563 0.985 1_455 S
C558 C552 1.379 . S
C558 C555 1.363 . S
C558 N556 1.356 1_556 S
C559 C553 1.363 . S
C559 C554 1.379 . S
C559 N557 1.356 . S
N560 C552 1.356 1_554 S
N560 H566 0.984 . S
N560 H567 0.984 1_554 S
N561 C554 1.356 . S
N561 H564 0.984 . S
N561 H565 0.985 1_455 S
H562 N557 0.984 . S
H563 N557 0.985 1_655 S
H564 N561 0.984 . S
H565 N561 0.985 1_655 S
H566 N560 0.984 . S
H567 N560 0.984 1_556 S
H568 N556 0.984 . S
H569 N556 0.985 1_556 S
C570 C571 1.363 . S
C570 C576 1.379 . S
C570 N578 1.356 . S
C571 C570 1.363 . S
C571 C577 1.363 . S
C572 C573 1.363 . S
C572 C577 1.379 . S
C572 N579 1.356 1_545 S
C573 C572 1.363 . S
C573 C576 1.363 . S
N574 C576 1.356 . S
N574 H586 0.984 . S
N574 H587 0.985 . S
N575 C577 1.356 1_565 S
N575 H580 0.984 . S
N575 H581 0.985 . S
C576 C570 1.379 . S
C576 C573 1.363 . S
C576 N574 1.356 . S
C577 C571 1.363 . S
C577 C572 1.379 . S
C577 N575 1.356 1_545 S
N578 C570 1.356 . S
N578 H584 0.984 . S
N578 H585 0.984 . S
N579 C572 1.356 1_565 S
N579 H582 0.984 . S
N579 H583 0.985 . S
H580 N575 0.984 . S
H581 N575 0.985 . S
H582 N579 0.984 . S
H583 N579 0.985 . S
H584 N578 0.984 . S
H585 N578 0.984 . S
H586 N574 0.984 . S
H587 N574 0.985 . S
C588 C589 1.363 . S
C588 C594 1.379 . S
C588 N596 1.356 1_556 S
C589 C588 1.363 . S
C589 C595 1.363 . S
C590 C591 1.363 . S
C590 C595 1.379 . S
C590 N597 1.356 . S
C591 C590 1.363 . S
C591 C594 1.363 . S
N592 C594 1.355 1_554 S
N592 H604 0.987 . S
N592 H605 0.983 1_554 S
N593 C595 1.356 . S
N593 H598 0.984 . S
N593 H599 0.985 . S
C594 C588 1.379 . S
C594 C591 1.363 . S
C594 N592 1.355 1_556 S
C595 C589 1.363 . S
C595 C590 1.379 . S
C595 N593 1.356 . S
N596 C588 1.356 1_554 S
N596 H602 0.984 . S
N596 H603 0.984 . S
N597 C590 1.356 . S
N597 H600 0.984 . S
N597 H601 0.985 . S
H598 N593 0.984 . S
H599 N593 0.985 . S
H600 N597 0.984 . S
H601 N597 0.985 . S
H602 N596 0.984 . S
H603 N596 0.984 . S
H604 N592 0.987 . S
H605 N592 0.983 1_556 S
C606 C607 1.363 . S
C606 C612 1.379 . S
C606 N614 1.356 . S
C607 C606 1.363 . S
C607 C613 1.363 . S
C608 C609 1.363 . S
C608 C613 1.379 . S
C608 N615 1.356 1_556 S
C609 C608 1.363 . S
C609 C612 1.363 . S
N610 C612 1.356 . S
N610 H622 0.984 . S
N610 H623 0.985 . S
N611 C613 1.356 1_554 S
N611 H616 0.984 . S
N611 H617 0.985 . S
C612 C606 1.379 . S
C612 C609 1.363 . S
C612 N610 1.356 . S
C613 C607 1.363 . S
C613 C608 1.379 . S
C613 N611 1.356 1_556 S
N614 C606 1.356 . S
N614 H620 0.984 . S
N614 H621 0.984 . S
N615 C608 1.356 1_554 S
N615 H618 0.984 . S
N615 H619 0.985 . S
H616 N611 0.984 . S
H617 N611 0.985 . S
H618 N615 0.984 . S
H619 N615 0.985 . S
H620 N614 0.984 . S
H621 N614 0.984 . S
H622 N610 0.984 . S
H623 N610 0.985 . S
C624 C625 1.363 . S
C624 C630 1.379 . S
C624 N632 1.356 1_655 S
C625 C624 1.363 . S
C625 C631 1.363 . S
C626 C627 1.363 . S
C626 C631 1.379 . S
C626 N633 1.356 . S
C627 C626 1.363 . S
C627 C630 1.363 . S
N628 C630 1.356 1_455 S
N628 H640 0.984 . S
N628 H641 0.985 . S
N629 C631 1.356 . S
N629 H634 0.984 . S
N629 H635 0.985 . S
C630 C624 1.379 . S
C630 C627 1.363 . S
C630 N628 1.356 1_655 S
C631 C625 1.363 . S
C631 C626 1.379 . S
C631 N629 1.356 . S
N632 C624 1.356 1_455 S
N632 H638 0.984 . S
N632 H639 0.979 1_455 S
N633 C626 1.356 . S
N633 H636 0.984 . S
N633 H637 0.985 . S
H634 N629 0.984 . S
H635 N629 0.985 . S
H636 N633 0.984 . S
H637 N633 0.985 . S
H638 N632 0.984 . S
H639 N632 0.979 1_655 S
H640 N628 0.984 . S
H641 N628 0.985 . S
C642 C643 1.363 1_545 S
C642 C648 1.379 . S
C642 N650 1.356 . S
C643 C642 1.363 1_565 S
C643 C649 1.363 . S
C644 C645 1.363 . S
C644 C649 1.379 . S
C644 N651 1.356 . S
C645 C644 1.363 . S
C645 C648 1.363 1_565 S
N646 C648 1.356 . S
N646 H658 0.984 . S
N646 H659 0.985 . S
N647 C649 1.356 . S
N647 H652 0.984 . S
N647 H653 0.985 . S
C648 C642 1.379 . S
C648 C645 1.363 1_545 S
C648 N646 1.356 . S
C649 C643 1.363 . S
C649 C644 1.379 . S
C649 N647 1.356 . S
N650 C642 1.356 . S
N650 H656 0.984 . S
N650 H657 0.984 . S
N651 C644 1.356 . S
N651 H654 0.984 . S
N651 H655 0.985 . S
H652 N647 0.984 . S
H653 N647 0.985 . S
H654 N651 0.984 . S
H655 N651 0.985 . S
H656 N650 0.984 . S
H657 N650 0.984 . S
H658 N646 0.984 . S
H659 N646 0.985 . S
C660 C661 1.363 . S
C660 C666 1.379 . S
C660 N668 1.356 . S
C661 C660 1.363 . S
C661 C667 1.363 . S
C662 C663 1.363 . S
C662 C667 1.379 . S
C662 N669 1.356 . S
C663 C662 1.363 . S
C663 C666 1.363 . S
N664 C666 1.356 . S
N664 H676 0.984 . S
N664 H677 0.985 . S
N665 C667 1.356 . S
N665 H670 0.984 . S
N665 H671 0.985 . S
C666 C660 1.379 . S
C666 C663 1.363 . S
C666 N664 1.356 . S
C667 C661 1.363 . S
C667 C662 1.379 . S
C667 N665 1.356 . S
N668 C660 1.356 . S
N668 H674 0.984 . S
N668 H675 0.984 . S
N669 C662 1.356 . S
N669 H672 0.984 . S
N669 H673 0.985 . S
H670 N665 0.984 . S
H671 N665 0.985 . S
H672 N669 0.984 . S
H673 N669 0.985 . S
H674 N668 0.984 . S
H675 N668 0.984 . S
H676 N664 0.984 . S
H677 N664 0.985 . S
C678 C679 1.363 . S
C678 C684 1.379 . S
C678 N686 1.356 . S
C679 C678 1.363 . S
C679 C685 1.363 . S
C680 C681 1.363 . S
C680 C685 1.379 . S
C680 N687 1.356 . S
C681 C680 1.363 . S
C681 C684 1.363 . S
N682 C684 1.356 . S
N682 H694 0.984 . S
N682 H695 0.985 . S
N683 C685 1.356 . S
N683 H688 0.984 . S
N683 H689 0.985 . S
C684 C678 1.379 . S
C684 C681 1.363 . S
C684 N682 1.356 . S
C685 C679 1.363 . S
C685 C680 1.379 . S
C685 N683 1.356 . S
N686 C678 1.356 . S
N686 H692 0.984 . S
N686 H693 0.984 . S
N687 C680 1.356 . S
N687 H690 0.984 . S
N687 H691 0.985 . S
H688 N683 0.984 . S
H689 N683 0.985 . S
H690 N687 0.984 . S
H691 N687 0.985 . S
H692 N686 0.984 . S
H693 N686 0.984 . S
H694 N682 0.984 . S
H695 N682 0.985 . S
C265 C82 2.028 . S
C267 C135 2.463 . S
C285 C161 2.194 . S
C283 C95 1.697 . S
C303 C201 2.186 . S
C301 C56 1.770 . S
C321 C255 2.453 . S
C319 C69 2.064 . S
C339 C116 2.464 1_554 S
C337 C30 2.003 . S
C355 C43 1.740 . S
C357 C146 2.194 1_554 S
C373 C4 1.750 . S
C375 C186 2.186 1_554 S
C391 C17 2.019 . S
C393 C236 2.453 1_554 S
C411 C112 0.890 1_455 S
C409 C74 0.876 . S
C429 C173 0.926 . S
C427 C87 0.943 . S
C447 C213 0.779 . S
C445 C100 0.782 . S
C463 C61 0.792 . S
C465 C232 0.798 . S
C481 C22 0.873 . S
C483 C133 0.890 . S
C501 C152 0.926 . S
C499 C35 0.939 . S
C519 C192 0.778 . S
C517 C48 0.782 . S
C535 C9 0.791 . S
C537 C253 0.798 . S
C553 C73 2.067 . S
C555 C106 2.401 . S
C571 C86 2.429 . S
C573 C156 2.708 . S
C591 C196 2.538 . S
C589 C99 2.275 . S
C609 C226 2.207 . S
C607 C60 1.900 . S
C625 C21 2.064 . S
C627 C121 2.401 . S
C645 C175 2.708 . S
C643 C34 2.430 . S
C663 C215 2.538 . S
C661 C47 2.282 . S
C679 C8 1.900 . S
C681 C241 2.207 . S
