# Generated by pormake.
# Topology anh, (6,3)-cn, num edge types: 1
# Building blocks:
#     Node 0, Type 0, BuildingBlock: INOVEN_clean_sbu_0, # of connection points: 6
#     Node 1, Type 0, BuildingBlock: INOVEN_clean_sbu_0, # of connection points: 6
#     Node 2, Type 0, BuildingBlock: INOVEN_clean_sbu_0, # of connection points: 6
#     Node 3, Type 1, BuildingBlock: BELTOD_clean_linker_0, # of connection points: 3
#     Node 4, Type 1, BuildingBlock: BELTOD_clean_linker_0, # of connection points: 3
#     Node 5, Type 1, BuildingBlock: BELTOD_clean_linker_0, # of connection points: 3
#     Node 6, Type 1, BuildingBlock: BELTOD_clean_linker_0, # of connection points: 3
#     Node 7, Type 1, BuildingBlock: BELTOD_clean_linker_0, # of connection points: 3
#     Node 8, Type 1, BuildingBlock: BELTOD_clean_linker_0, # of connection points: 3
#     Edge 9, Type (0, 1), BuildingBlock: XUDNAN_clean_linker_2, # of connection points: 2
#     Edge 10, Type (0, 1), BuildingBlock: XUDNAN_clean_linker_2, # of connection points: 2
#     Edge 11, Type (0, 1), BuildingBlock: XUDNAN_clean_linker_2, # of connection points: 2
#     Edge 12, Type (0, 1), BuildingBlock: XUDNAN_clean_linker_2, # of connection points: 2
#     Edge 13, Type (0, 1), BuildingBlock: XUDNAN_clean_linker_2, # of connection points: 2
#     Edge 14, Type (0, 1), BuildingBlock: XUDNAN_clean_linker_2, # of connection points: 2
#     Edge 15, Type (0, 1), BuildingBlock: XUDNAN_clean_linker_2, # of connection points: 2
#     Edge 16, Type (0, 1), BuildingBlock: XUDNAN_clean_linker_2, # of connection points: 2
#     Edge 17, Type (0, 1), BuildingBlock: XUDNAN_clean_linker_2, # of connection points: 2
#     Edge 18, Type (0, 1), BuildingBlock: XUDNAN_clean_linker_2, # of connection points: 2
#     Edge 19, Type (0, 1), BuildingBlock: XUDNAN_clean_linker_2, # of connection points: 2
#     Edge 20, Type (0, 1), BuildingBlock: XUDNAN_clean_linker_2, # of connection points: 2
#     Edge 21, Type (0, 1), BuildingBlock: XUDNAN_clean_linker_2, # of connection points: 2
#     Edge 22, Type (0, 1), BuildingBlock: XUDNAN_clean_linker_2, # of connection points: 2
#     Edge 23, Type (0, 1), BuildingBlock: XUDNAN_clean_linker_2, # of connection points: 2
#     Edge 24, Type (0, 1), BuildingBlock: XUDNAN_clean_linker_2, # of connection points: 2
#     Edge 25, Type (0, 1), BuildingBlock: XUDNAN_clean_linker_2, # of connection points: 2
#     Edge 26, Type (0, 1), BuildingBlock: XUDNAN_clean_linker_2, # of connection points: 2
# Relax obj value: 0.176
# Max RMSD: 0.211
# Mean RMSD: 0.150
data_MOF--net-anh--node1-INOVEN_clean_sbu_0--node2-BELTOD_clean_linker_0--edge1-XUDNAN_clean_linker_2
_symmetry_space_group_name_H-M    P1
_symmetry_Int_Tables_number       1
_symmetry_cell_setting            triclinic
loop_
_symmetry_equiv_pos_as_xyz
'x, y, z'
_cell_length_a     34.876057
_cell_length_b     41.059917
_cell_length_c     60.709194
_cell_angle_alpha  92.822529
_cell_angle_beta   89.837734
_cell_angle_gamma 128.6009
loop_
_atom_site_label
_atom_site_type_symbol
_atom_site_fract_x
_atom_site_fract_y
_atom_site_fract_z
_atom_type_partial_charge
Gd0 Gd 0.10105 0.52264 0.14626 0.0
Gd1 Gd 1.04614 0.55545 0.15737 0.0
C2 C 0.16009 0.62435 0.15077 0.0
C3 C 0.15334 0.50502 0.12795 0.0
C4 C 0.20186 0.51596 0.13118 0.0
C5 C 0.20474 0.48347 0.13028 0.0
C6 C 0.24449 0.55725 0.1361 0.0
C7 C 0.29202 0.53275 0.13955 0.0
C8 C 0.28957 0.56565 0.14005 0.0
C9 C 0.24927 0.49172 0.13445 0.0
C10 C 0.09328 0.53113 0.18991 0.0
C11 C 0.98846 0.45542 0.1547 0.0
C12 C 0.98858 0.56841 0.17448 0.0
C13 C 0.93896 0.53976 0.18305 0.0
C14 C 0.90218 0.54116 0.17541 0.0
C15 C 0.92621 0.50711 0.19605 0.0
C16 C 0.83977 0.4742 0.1906 0.0
C17 C 0.87697 0.47463 0.19983 0.0
C18 C 0.85296 0.50866 0.17915 0.0
C19 C 1.05605 0.54581 0.11383 0.0
O20 O 0.1608 0.59322 0.14463 0.0
O21 O 0.12024 0.6176 0.15823 0.0
O22 O 0.12243 0.48346 0.14337 0.0
O23 O 0.15136 0.53366 0.12099 0.0
O24 O 0.09504 0.50296 0.18076 0.0
O25 O 0.10087 0.55612 0.17593 0.0
O26 O 0.99273 0.48701 0.16459 0.0
O27 O 1.02374 0.46235 0.14228 0.0
O28 O 0.99109 0.56367 0.1532 0.0
O29 O 1.0241 0.57354 0.18577 0.0
O30 O 0.05899 0.57691 0.12242 0.0
O31 O 1.04592 0.52099 0.12834 0.0
H32 H 0.17228 0.45149 0.1265 0.0
H33 H 0.2429 0.5828 0.13702 0.0
H34 H 0.3222 0.59754 0.14375 0.0
H35 H 0.25039 0.46589 0.13341 0.0
H36 H 0.91126 0.56599 0.1653 0.0
H37 H 0.95393 0.50528 0.20217 0.0
H38 H 0.86785 0.4487 0.20893 0.0
H39 H 0.82517 0.5091 0.17162 0.0
Gd40 Gd 0.61993 0.02623 0.46814 0.0
Gd41 Gd 0.55556 0.05161 0.46688 0.0
C42 C 0.50115 0.95544 0.46464 0.0
C43 C 0.66058 0.99295 0.47771 0.0
C44 C 0.6448 0.95286 0.48529 0.0
C45 C 0.6767 0.94308 0.48377 0.0
C46 C 0.59855 0.92446 0.49428 0.0
C47 C 0.61692 0.87725 0.50075 0.0
C48 C 0.58468 0.88695 0.50189 0.0
C49 C 0.66299 0.90569 0.49144 0.0
C50 C 0.60511 0.04076 0.42754 0.0
C51 C 0.67546 0.12398 0.46785 0.0
C52 C 0.51206 0.0831 0.45911 0.0
C53 C 0.51589 0.11932 0.46735 0.0
C54 C 0.47741 0.12045 0.4628 0.0
C55 C 0.55649 0.15191 0.48049 0.0
C56 C 0.51949 0.1862 0.48479 0.0
C57 C 0.5584 0.18521 0.48905 0.0
C58 C 0.47913 0.15356 0.47144 0.0
C59 C 0.57717 0.04234 0.50786 0.0
O60 O 0.54274 0.9659 0.47301 0.0
O61 O 0.49961 0.98399 0.45686 0.0
O62 O 0.64613 0.9921 0.4577 0.0
O63 O 0.65713 0.01602 0.49187 0.0
O64 O 0.64625 0.05037 0.43472 0.0
O65 O 0.57254 0.02187 0.44178 0.0
O66 O 0.63143 0.11368 0.46472 0.0
O67 O 0.68122 0.09566 0.47133 0.0
O68 O 0.49659 0.05448 0.47319 0.0
O69 O 0.54862 0.09095 0.44768 0.0
O70 O 0.53536 0.03288 0.50227 0.0
O71 O 0.60558 0.05851 0.49215 0.0
H72 H 0.71258 0.96468 0.47691 0.0
H73 H 0.57339 0.93146 0.49563 0.0
H74 H 0.54875 0.86561 0.50872 0.0
H75 H 0.68906 0.89963 0.49061 0.0
H76 H 0.44573 0.09547 0.45274 0.0
H77 H 0.58629 0.15127 0.48437 0.0
H78 H 0.58973 0.20961 0.49947 0.0
H79 H 0.44886 0.15363 0.46762 0.0
Gd80 Gd 0.63208 0.58625 0.85203 0.0
Gd81 Gd 0.57125 0.49186 0.85097 0.0
C82 C 0.51144 0.52841 0.85229 0.0
C83 C 0.67105 0.66192 0.84318 0.0
C84 C 0.65451 0.6864 0.83889 0.0
C85 C 0.68725 0.7298 0.84291 0.0
C86 C 0.60723 0.66728 0.83004 0.0
C87 C 0.6269 0.73529 0.82791 0.0
C88 C 0.59351 0.69153 0.82459 0.0
C89 C 0.6736 0.75405 0.83751 0.0
C90 C 0.61729 0.55457 0.8916 0.0
C91 C 0.69276 0.55028 0.85174 0.0
C92 C 0.53163 0.41582 0.85951 0.0
C93 C 0.53954 0.38514 0.85467 0.0
C94 C 0.5789 0.39499 0.84205 0.0
C95 C 0.50697 0.3453 0.86266 0.0
C96 C 0.55241 0.32473 0.84515 0.0
C97 C 0.51327 0.31531 0.85794 0.0
C98 C 0.58529 0.36498 0.83731 0.0
C99 C 0.59068 0.52391 0.81089 0.0
O100 O 0.55365 0.56485 0.84788 0.0
O101 O 0.51025 0.49646 0.8568 0.0
O102 O 0.66697 0.65039 0.86332 0.0
O103 O 0.65837 0.63257 0.82811 0.0
O104 O 0.65781 0.59024 0.88672 0.0
O105 O 0.5858 0.53885 0.87592 0.0
O106 O 0.64988 0.51288 0.85431 0.0
O107 O 0.69463 0.5831 0.84862 0.0
O108 O 0.51772 0.42549 0.84274 0.0
O109 O 0.56486 0.44828 0.87245 0.0
O110 O 0.55041 0.48757 0.81499 0.0
O111 O 0.61944 0.53927 0.82751 0.0
H112 H 0.72377 0.74504 0.84986 0.0
H113 H 0.58133 0.63374 0.82683 0.0
H114 H 0.55743 0.67611 0.81709 0.0
H115 H 0.69984 0.78758 0.84068 0.0
H116 H 0.60454 0.42579 0.83585 0.0
H117 H 0.47639 0.33728 0.87243 0.0
H118 H 0.48698 0.2845 0.864 0.0
H119 H 0.61616 0.37339 0.82768 0.0
P120 P 0.6381 0.01873 0.19351 0.0
H121 H 0.57401 0.93371 0.20576 0.0
H122 H 0.49278 0.87181 0.19301 0.0
H123 H 0.49004 0.94212 0.14324 0.0
H124 H 0.57189 1.00459 0.15644 0.0
H125 H 0.73908 0.07893 0.1799 0.0
H126 H 0.78796 0.15161 0.17114 0.0
H127 H 0.65792 0.14289 0.17222 0.0
H128 H 0.60926 0.07001 0.18167 0.0
H129 H 0.57045 0.02896 0.21456 0.0
H130 H 0.685 0.02417 0.23508 0.0
O131 O 0.67428 1.00508 0.19269 0.0
H132 H 0.55522 0.0361 0.25315 0.0
H133 H 0.66875 0.02945 0.27361 0.0
C134 C 0.57898 0.97384 0.18214 0.0
C135 C 0.55612 0.93581 0.19198 0.0
C136 C 0.50968 0.90022 0.18454 0.0
C137 C 0.48471 0.9017 0.16699 0.0
C138 C 0.50801 0.9399 0.15692 0.0
C139 C 0.55487 0.9757 0.16441 0.0
C140 C 0.67015 0.06856 0.18123 0.0
C141 C 0.72061 0.09214 0.17769 0.0
C142 C 0.74876 0.13401 0.17261 0.0
C143 C 0.72722 0.15356 0.17108 0.0
C144 C 0.67607 0.1292 0.17359 0.0
C145 C 0.64793 0.08724 0.17876 0.0
C146 C 0.62882 0.02603 0.22196 0.0
C147 C 0.59246 0.02962 0.22739 0.0
C148 C 0.58347 0.03328 0.24948 0.0
C149 C 0.61062 0.03324 0.26658 0.0
C150 C 0.64759 0.03026 0.26096 0.0
C151 C 0.65672 0.02689 0.23887 0.0
P152 P 0.66001 0.57819 0.5776 0.0
H153 H 0.69675 0.53148 0.5734 0.0
H154 H 0.66161 0.4618 0.5579 0.0
H155 H 0.52947 0.44277 0.53849 0.0
H156 H 0.56473 0.5125 0.55452 0.0
H157 H 0.70378 0.64519 0.5472 0.0
H158 H 0.68022 0.68619 0.53498 0.0
H159 H 0.54325 0.6066 0.56832 0.0
H160 H 0.56853 0.56689 0.5814 0.0
H161 H 0.61148 0.50945 0.60801 0.0
H162 H 0.68675 0.64197 0.6115 0.0
O163 O 0.72067 0.60839 0.57486 0.0
H164 H 0.60526 0.50902 0.6481 0.0
H165 H 0.67979 0.64162 0.65157 0.0
C166 C 0.63379 0.52751 0.56472 0.0
C167 C 0.66043 0.51251 0.56557 0.0
C168 C 0.64031 0.47264 0.55663 0.0
C169 C 0.59285 0.44673 0.54674 0.0
C170 C 0.56602 0.4618 0.54608 0.0
C171 C 0.58627 0.50182 0.55509 0.0
C172 C 0.63812 0.60326 0.56539 0.0
C173 C 0.66845 0.63626 0.55171 0.0
C174 C 0.65465 0.65956 0.54455 0.0
C175 C 0.60986 0.65004 0.55075 0.0
C176 C 0.57842 0.61544 0.56357 0.0
C177 C 0.59256 0.5924 0.5709 0.0
C178 C 0.64975 0.57585 0.60677 0.0
C179 C 0.62612 0.53838 0.61733 0.0
C180 C 0.62232 0.53811 0.64029 0.0
C181 C 0.64232 0.57535 0.65306 0.0
C182 C 0.66468 0.61253 0.64227 0.0
C183 C 0.66841 0.61274 0.61936 0.0
P184 P 0.12341 0.56854 0.87915 0.0
H185 H 0.21803 0.61342 0.85634 0.0
H186 H 0.27516 0.59914 0.84935 0.0
H187 H 0.16931 0.47563 0.87266 0.0
H188 H 0.11152 0.48934 0.87812 0.0
H189 H 0.0911 0.58245 0.83809 0.0
H190 H 1.02062 0.57955 0.82903 0.0
H191 H 0.9525 0.51771 0.88879 0.0
H192 H 1.02202 0.52025 0.8976 0.0
H193 H 0.16956 0.62704 0.91846 0.0
H194 H 0.06861 0.49356 0.90485 0.0
O195 O 0.15956 0.62011 0.87689 0.0
H196 H 0.16229 0.61716 0.95792 0.0
H197 H 0.06055 0.48346 0.94425 0.0
C198 C 0.15938 0.55261 0.86786 0.0
C199 C 0.20624 0.58271 0.85943 0.0
C200 C 0.23983 0.57468 0.85576 0.0
C201 C 0.22838 0.53623 0.86059 0.0
C202 C 0.18058 0.50561 0.8683 0.0
C203 C 0.1468 0.51352 0.87164 0.0
C204 C 0.06309 0.55124 0.86849 0.0
C205 C 0.06033 0.5668 0.84891 0.0
C206 C 1.01993 0.56576 0.84392 0.0
C207 C 0.98042 0.54905 0.85834 0.0
C208 C 0.98155 0.53076 0.87711 0.0
C209 C 1.0221 0.53211 0.88215 0.0
C210 C 0.11975 0.56102 0.9085 0.0
C211 C 0.14589 0.59553 0.92386 0.0
C212 C 0.14145 0.58986 0.94654 0.0
C213 C 0.1107 0.5495 0.95437 0.0
C214 C 0.08526 0.515 0.9389 0.0
C215 C 0.08997 0.52073 0.91626 0.0
P216 P 0.13727 0.51391 0.42229 0.0
H217 H 0.24342 0.57643 0.42747 0.0
H218 H 0.29651 0.6501 0.43937 0.0
H219 H 0.16993 0.63749 0.46122 0.0
H220 H 0.11672 0.56377 0.44827 0.0
H221 H 0.10813 0.44598 0.45019 0.0
H222 H 1.02849 0.38644 0.46277 0.0
H223 H 0.96079 0.43479 0.43442 0.0
H224 H 1.04081 0.49474 0.42249 0.0
H225 H 0.17806 0.58805 0.39673 0.0
H226 H 0.06855 0.45425 0.38692 0.0
O227 O 0.16889 0.496 0.41938 0.0
H228 H 0.16337 0.59605 0.3591 0.0
H229 H 1.05239 0.46222 0.3492 0.0
C230 C 0.17607 0.56431 0.43727 0.0
C231 C 0.22715 0.58915 0.43544 0.0
C232 C 0.25766 0.63155 0.4423 0.0
C233 C 0.23778 0.65024 0.45116 0.0
C234 C 0.18665 0.62454 0.45412 0.0
C235 C 0.15608 0.58211 0.44702 0.0
C236 C 0.0804 0.47467 0.43522 0.0
C237 C 0.07627 0.44412 0.44701 0.0
C238 C 1.03049 0.40976 0.454 0.0
C239 C 0.98782 0.40527 0.44939 0.0
C240 C 0.99269 0.43715 0.43846 0.0
C241 C 1.03853 0.47155 0.43156 0.0
C242 C 0.12392 0.52046 0.39488 0.0
C243 C 0.1502 0.56029 0.38668 0.0
C244 C 0.14152 0.56494 0.36505 0.0
C245 C 0.10646 0.52983 0.35109 0.0
C246 C 0.07996 0.48994 0.35942 0.0
C247 C 0.08888 0.48534 0.38105 0.0
P248 P 0.66416 0.07154 0.74286 0.0
H249 H 0.68194 0.10421 0.78826 0.0
H250 H 0.65551 0.13864 0.8096 0.0
H251 H 0.56918 0.12301 0.75311 0.0
H252 H 0.59588 0.08852 0.7318 0.0
H253 H 0.67957 0.01301 0.72698 0.0
H254 H 0.65603 0.94798 0.74054 0.0
H255 H 0.57468 0.95449 0.79197 0.0
H256 H 0.59701 0.01875 0.77784 0.0
H257 H 0.72048 0.13228 0.70986 0.0
H258 H 0.58462 0.00686 0.71166 0.0
O259 O 0.72474 0.10262 0.74785 0.0
H260 H 0.71142 0.12856 0.66976 0.0
H261 H 0.57551 1.00266 0.6713 0.0
C262 C 0.64115 0.0941 0.75845 0.0
C263 C 0.65707 0.10797 0.78052 0.0
C264 C 0.64173 0.12742 0.79272 0.0
C265 C 0.61032 0.13358 0.78302 0.0
C266 C 0.59379 0.11906 0.76094 0.0
C267 C 0.6089 0.09922 0.74878 0.0
C268 C 0.64026 0.02081 0.75141 0.0
C269 C 0.656 1.00005 0.74095 0.0
C270 C 0.64284 0.96306 0.74885 0.0
C271 C 0.61398 0.94629 0.76753 0.0
C272 C 0.59667 0.9664 0.77747 0.0
C273 C 0.60975 1.0034 0.76947 0.0
C274 C 0.65392 0.06948 0.71361 0.0
C275 C 0.68864 0.10393 0.7016 0.0
C276 C 0.68348 0.1017 0.67867 0.0
C277 C 0.64321 0.06502 0.66734 0.0
C278 C 0.60697 0.03129 0.67957 0.0
C279 C 0.61228 0.03355 0.70259 0.0
P280 P 0.42977 0.30779 0.07952 0.0
H281 H 0.42602 0.30329 0.12706 0.0
H282 H 0.47674 0.30227 0.15404 0.0
H283 H 0.54506 0.28296 0.10115 0.0
H284 H 0.49249 0.28229 0.07419 0.0
H285 H 0.35566 0.31421 0.09662 0.0
H286 H 0.36234 0.3725 0.11427 0.0
H287 H 0.52007 0.45236 0.10973 0.0
H288 H 0.51322 0.39379 0.09233 0.0
H289 H 0.39423 0.31207 0.03768 0.0
H290 H 0.53225 0.3533 0.06593 0.0
O291 O 0.37129 0.2659 0.07458 0.0
H292 H 0.43637 0.35476 0.00659 0.0
H293 H 0.57424 0.39279 0.03394 0.0
C294 C 0.45788 0.29555 0.09861 0.0
C295 C 0.45129 0.2981 0.12124 0.0
C296 C 0.48018 0.29738 0.13667 0.0
C297 C 0.51593 0.29387 0.12969 0.0
C298 C 0.51813 0.28612 0.10705 0.0
C299 C 0.48871 0.28645 0.09158 0.0
C300 C 0.43384 0.34994 0.09284 0.0
C301 C 0.39163 0.34416 0.09949 0.0
C302 C 0.39559 0.37739 0.10974 0.0
C303 C 0.44183 0.41687 0.11341 0.0
C304 C 0.48407 0.42233 0.10699 0.0
C305 C 0.48009 0.38897 0.09697 0.0
C306 C 0.45962 0.32813 0.05384 0.0
C307 C 0.43334 0.32862 0.03664 0.0
C308 C 0.4577 0.3532 0.01876 0.0
C309 C 0.50907 0.37767 0.01759 0.0
C310 C 0.53487 0.37515 0.03434 0.0
C311 C 0.51057 0.35144 0.0525 0.0
H312 H 0.30893 0.49278 0.16691 0.0
H313 H 0.3779 0.58639 0.11861 0.0
H314 H 0.4433 0.57977 0.11501 0.0
H315 H 0.42835 0.51166 0.18845 0.0
H316 H 0.39285 0.45612 0.19033 0.0
H317 H 0.36528 0.48074 0.19633 0.0
H318 H 0.29546 0.4293 0.16749 0.0
H319 H 0.32294 0.40519 0.16106 0.0
H320 H 0.31068 0.42643 0.13941 0.0
H321 H 0.48269 0.54749 0.1075 0.0
H322 H 0.49252 0.49422 0.09733 0.0
H323 H 0.39642 0.41884 0.14934 0.0
C324 C 0.33947 0.51344 0.15653 0.0
C325 C 0.33876 0.54005 0.14306 0.0
C326 C 0.37838 0.56627 0.12929 0.0
C327 C 0.41564 0.56261 0.12716 0.0
C328 C 0.41283 0.53301 0.13913 0.0
C329 C 0.37616 0.50945 0.15399 0.0
C330 C 0.37437 0.47375 0.16118 0.0
C331 C 0.39124 0.48102 0.18552 0.0
C332 C 0.32286 0.43123 0.157 0.0
C333 C 0.41167 0.47791 0.14619 0.0
C334 C 0.43518 0.51336 0.13435 0.0
C335 C 0.46585 0.52048 0.1172 0.0
C336 C 0.47115 0.49001 0.11148 0.0
C337 C 0.44513 0.45258 0.12262 0.0
C338 C 0.41686 0.44742 0.14073 0.0
H339 H 0.77175 0.15929 0.45898 0.0
H340 H 0.67695 0.19045 0.47662 0.0
H341 H 0.74704 0.26528 0.47561 0.0
H342 H 0.88218 0.24772 0.48947 0.0
H343 H 0.92302 0.25529 0.46833 0.0
H344 H 0.86611 0.20396 0.4718 0.0
H345 H 0.84138 0.19834 0.43076 0.0
H346 H 0.89819 0.2496 0.42717 0.0
H347 H 0.84053 0.23828 0.42037 0.0
H348 H 0.82668 0.3368 0.47201 0.0
H349 H 0.90987 0.40009 0.46455 0.0
H350 H 0.95308 0.32338 0.44735 0.0
C351 C 0.76597 0.18192 0.46291 0.0
C352 C 0.71881 0.16891 0.46801 0.0
C353 C 0.71261 0.19953 0.47264 0.0
C354 C 0.75229 0.24221 0.4722 0.0
C355 C 0.79813 0.25402 0.46691 0.0
C356 C 0.80523 0.22486 0.46223 0.0
C357 C 0.85782 0.24608 0.45588 0.0
C358 C 0.88381 0.23776 0.47236 0.0
C359 C 0.85956 0.23225 0.43214 0.0
C360 C 0.87898 0.2916 0.45769 0.0
C361 C 0.84395 0.29542 0.46424 0.0
C362 C 0.85442 0.33419 0.46682 0.0
C363 C 0.9018 0.37002 0.46238 0.0
C364 C 0.93833 0.36704 0.45525 0.0
C365 C 0.92649 0.32707 0.45307 0.0
H366 H 0.68612 0.80845 0.80723 0.0
H367 H 0.5389 0.72133 0.83126 0.0
H368 H 0.51842 0.76506 0.81799 0.0
H369 H 0.70174 0.90192 0.82243 0.0
H370 H 0.73595 0.92798 0.7984 0.0
H371 H 0.73817 0.88941 0.80965 0.0
H372 H 0.70971 0.8482 0.77157 0.0
H373 H 0.70708 0.8865 0.76023 0.0
H374 H 0.6536 0.83222 0.75844 0.0
H375 H 0.51487 0.81949 0.80207 0.0
H376 H 0.52852 0.87932 0.78494 0.0
H377 H 0.67884 0.93056 0.77263 0.0
C378 C 0.64972 0.79873 0.80999 0.0
C379 C 0.6142 0.76155 0.82041 0.0
C380 C 0.56663 0.74954 0.82319 0.0
C381 C 0.55473 0.77426 0.81579 0.0
C382 C 0.59079 0.8108 0.80562 0.0
C383 C 0.63731 0.82293 0.80277 0.0
C384 C 0.66959 0.86345 0.79138 0.0
C385 C 0.71397 0.89771 0.80636 0.0
C386 C 0.68593 0.85719 0.76909 0.0
C387 C 0.63403 0.87237 0.78825 0.0
C388 C 0.58874 0.84174 0.79654 0.0
C389 C 0.55023 0.84365 0.79555 0.0
C390 C 0.55838 0.87782 0.78588 0.0
C391 C 0.60465 0.90954 0.77731 0.0
C392 C 0.64276 0.90651 0.77861 0.0
H393 H 0.75726 0.46757 0.19649 0.0
H394 H 0.80577 0.39469 0.18093 0.0
H395 H 0.72071 0.33303 0.17124 0.0
H396 H 0.6286 0.37756 0.21509 0.0
H397 H 0.603 0.39893 0.202 0.0
H398 H 0.66455 0.4333 0.21394 0.0
H399 H 0.6972 0.46726 0.17651 0.0
H400 H 0.63616 0.43307 0.1645 0.0
H401 H 0.68427 0.43465 0.15207 0.0
H402 H 0.63623 0.28575 0.15452 0.0
H403 H 0.55909 0.25649 0.13365 0.0
H404 H 0.56535 0.36004 0.15959 0.0
C405 C 0.74954 0.43814 0.19189 0.0
C406 C 0.78796 0.43568 0.18982 0.0
C407 C 0.77674 0.39691 0.18332 0.0
C408 C 0.72845 0.36172 0.17765 0.0
C409 C 0.69163 0.3657 0.17877 0.0
C410 C 0.70151 0.40283 0.18607 0.0
C411 C 0.65734 0.40107 0.18253 0.0
C412 C 0.63718 0.4028 0.20472 0.0
C413 C 0.66949 0.43604 0.16804 0.0
C414 C 0.62241 0.35844 0.17065 0.0
C415 C 0.64229 0.33803 0.16908 0.0
C416 C 0.61953 0.30076 0.15624 0.0
C417 C 0.57596 0.28449 0.14432 0.0
C418 C 0.55586 0.30562 0.14531 0.0
C419 C 0.57879 0.34233 0.15917 0.0
H420 H 0.48987 0.88409 0.47317 0.0
H421 H 0.40876 0.92653 0.45326 0.0
H422 H 0.33273 0.85391 0.45008 0.0
H423 H 0.42646 0.79343 0.43646 0.0
H424 H 0.42607 0.76086 0.45546 0.0
H425 H 0.47426 0.8165 0.45765 0.0
H426 H 0.45395 0.81931 0.49836 0.0
H427 H 0.40577 0.76361 0.49637 0.0
H428 H 0.3922 0.79792 0.50515 0.0
H429 H 0.26613 0.7772 0.44717 0.0
H430 H 0.21315 0.70062 0.44388 0.0
H431 H 0.33521 0.70592 0.46646 0.0
C432 C 0.45604 0.87813 0.46837 0.0
C433 C 0.45552 0.91127 0.46351 0.0
C434 C 0.41041 0.90192 0.45705 0.0
C435 C 0.36682 0.86067 0.45525 0.0
C436 C 0.36859 0.82881 0.45999 0.0
C437 C 0.41191 0.83688 0.46642 0.0
C438 C 0.40358 0.79645 0.46969 0.0
C439 C 0.43442 0.79153 0.45387 0.0
C440 C 0.41452 0.7942 0.49383 0.0
C441 C 0.34904 0.76454 0.46372 0.0
C442 C 0.32967 0.78405 0.45837 0.0
C443 C 0.28067 0.76149 0.4516 0.0
C444 C 0.25065 0.71779 0.44998 0.0
C445 C 0.26944 0.6967 0.45513 0.0
C446 C 0.31942 0.72075 0.46233 0.0
H447 H 0.57671 0.30756 0.80559 0.0
H448 H 0.54171 0.26891 0.87279 0.0
H449 H 0.54973 0.21413 0.86384 0.0
H450 H 0.51293 0.2052 0.77902 0.0
H451 H 0.55861 0.22188 0.75863 0.0
H452 H 0.54958 0.2578 0.77021 0.0
H453 H 0.64169 0.31027 0.78225 0.0
H454 H 0.65109 0.27466 0.77057 0.0
H455 H 0.66812 0.29338 0.7991 0.0
H456 H 0.56281 0.16432 0.84775 0.0
H457 H 0.58119 0.12358 0.82575 0.0
H458 H 0.60859 0.1953 0.76921 0.0
C459 C 0.57113 0.28782 0.81848 0.0
C460 C 0.55845 0.29247 0.83989 0.0
C461 C 0.55081 0.26558 0.8562 0.0
C462 C 0.55547 0.23449 0.8513 0.0
C463 C 0.56774 0.23063 0.83001 0.0
C464 C 0.57557 0.2566 0.81387 0.0
C465 C 0.58882 0.24614 0.79236 0.0
C466 C 0.55017 0.2319 0.77397 0.0
C467 C 0.6405 0.28332 0.78569 0.0
C468 C 0.58744 0.21034 0.79894 0.0
C469 C 0.57515 0.20186 0.82073 0.0
C470 C 0.57245 0.17066 0.83068 0.0
C471 C 0.5831 0.1478 0.81808 0.0
C472 C 0.59625 0.15623 0.79578 0.0
C473 C 0.59796 0.18772 0.78611 0.0
H474 H 0.63562 0.82499 0.48395 0.0
H475 H 0.56939 0.84266 0.53902 0.0
H476 H 0.55296 0.78189 0.556 0.0
H477 H 0.55404 0.70997 0.48245 0.0
H478 H 0.60308 0.70808 0.47587 0.0
H479 H 0.60477 0.75013 0.46686 0.0
H480 H 0.69033 0.80394 0.48631 0.0
H481 H 0.68886 0.76214 0.4954 0.0
H482 H 0.69799 0.8007 0.51527 0.0
H483 H 0.55142 0.72389 0.56885 0.0
H484 H 0.56429 0.67294 0.57647 0.0
H485 H 0.63 0.69175 0.51269 0.0
C486 C 0.61732 0.81593 0.4995 0.0
C487 C 0.60366 0.83864 0.51008 0.0
C488 C 0.5795 0.82546 0.53037 0.0
C489 C 0.57017 0.79103 0.54021 0.0
C490 C 0.58491 0.76986 0.52952 0.0
C491 C 0.60769 0.78162 0.50954 0.0
C492 C 0.62228 0.75505 0.50208 0.0
C493 C 0.59436 0.72928 0.48054 0.0
C494 C 0.67818 0.78208 0.49963 0.0
C495 C 0.60551 0.72736 0.52131 0.0
C496 C 0.58362 0.73612 0.53686 0.0
C497 C 0.56771 0.71624 0.55661 0.0
C498 C 0.57492 0.68704 0.56072 0.0
C499 C 0.59789 0.67787 0.54515 0.0
C500 C 0.61255 0.69801 0.52503 0.0
H501 H 0.71141 0.49516 0.86296 0.0
H502 H 0.78276 0.61832 0.83915 0.0
H503 H 0.86075 0.62963 0.83758 0.0
H504 H 0.81496 0.52483 0.89769 0.0
H505 H 0.80554 0.47678 0.89185 0.0
H506 H 0.75419 0.47716 0.89068 0.0
H507 H 0.73301 0.44489 0.85064 0.0
H508 H 0.78433 0.44443 0.85168 0.0
H509 H 0.77927 0.47044 0.83018 0.0
H510 H 0.93229 0.62851 0.83815 0.0
H511 H 0.99253 0.61645 0.84258 0.0
H512 H 0.87893 0.49472 0.86695 0.0
C513 C 0.7434 0.5245 0.85737 0.0
C514 C 0.74008 0.55581 0.85115 0.0
C515 C 0.78346 0.5937 0.84408 0.0
C516 C 0.82831 0.60047 0.84306 0.0
C517 C 0.83035 0.56929 0.84928 0.0
C518 C 0.78918 0.53208 0.85645 0.0
C519 C 0.80234 0.5043 0.86263 0.0
C520 C 0.79374 0.49523 0.88718 0.0
C521 C 0.77298 0.46359 0.84791 0.0
C522 C 0.85716 0.53175 0.85787 0.0
C523 C 0.87219 0.56895 0.85 0.0
C524 C 0.92074 0.59939 0.84425 0.0
C525 C 0.95489 0.592 0.84667 0.0
C526 C 0.94131 0.55441 0.85492 0.0
C527 C 0.89124 0.52392 0.86063 0.0
H528 H 0.25728 0.65657 0.15407 0.0
H529 H 0.16431 0.6918 0.14533 0.0
H530 H 0.2376 0.76581 0.14537 0.0
H531 H 0.34189 0.74121 0.19203 0.0
H532 H 0.39536 0.74856 0.18201 0.0
H533 H 0.33605 0.69781 0.17901 0.0
H534 H 0.34651 0.69536 0.13688 0.0
H535 H 0.40597 0.74615 0.13974 0.0
H536 H 0.35972 0.73714 0.12105 0.0
H537 H 0.32021 0.83631 0.14829 0.0
H538 H 0.40631 0.89869 0.1559 0.0
H539 H 0.44688 0.81898 0.16347 0.0
C540 C 0.2525 0.67985 0.15179 0.0
C541 C 0.20502 0.66835 0.14958 0.0
C542 C 0.20025 0.69983 0.14709 0.0
C543 C 0.24171 0.74199 0.14698 0.0
C544 C 0.28793 0.75244 0.14953 0.0
C545 C 0.29368 0.72237 0.15198 0.0
C546 C 0.34741 0.74248 0.15603 0.0
C547 C 0.35564 0.73188 0.17861 0.0
C548 C 0.36599 0.72951 0.1373 0.0
C549 C 0.37071 0.78842 0.15576 0.0
C550 C 0.33576 0.79339 0.15169 0.0
C551 C 0.34802 0.83283 0.1513 0.0
C552 C 0.39718 0.86816 0.1555 0.0
C553 C 0.43367 0.86401 0.16024 0.0
C554 C 0.42 0.8234 0.16003 0.0
H555 H 0.59712 0.27035 0.48805 0.0
H556 H 0.44388 0.17976 0.50386 0.0
H557 H 0.44505 0.23658 0.52034 0.0
H558 H 0.6354 0.33631 0.53742 0.0
H559 H 0.67763 0.3841 0.52381 0.0
H560 H 0.66428 0.33638 0.51272 0.0
H561 H 0.63815 0.34565 0.47512 0.0
H562 H 0.65137 0.3934 0.4861 0.0
H563 H 0.59139 0.35188 0.4741 0.0
H564 H 0.46357 0.30324 0.53601 0.0
H565 H 0.49823 0.37463 0.54984 0.0
H566 H 0.639 0.42173 0.52331 0.0
C567 C 0.56386 0.26245 0.49506 0.0
C568 C 0.52035 0.22058 0.49459 0.0
C569 C 0.47746 0.21163 0.50374 0.0
C570 C 0.47781 0.24367 0.51323 0.0
C571 C 0.52129 0.28457 0.5134 0.0
C572 C 0.5635 0.29406 0.50452 0.0
C573 C 0.60548 0.34054 0.50693 0.0
C574 C 0.64821 0.34986 0.52107 0.0
C575 C 0.62259 0.35894 0.48421 0.0
C576 C 0.58045 0.35564 0.51881 0.0
C577 C 0.53186 0.32292 0.52231 0.0
C578 C 0.50151 0.32916 0.53323 0.0
C579 C 0.52146 0.36989 0.5409 0.0
C580 C 0.57134 0.40392 0.53765 0.0
C581 C 0.6009 0.39644 0.52629 0.0
H582 H 0.49695 0.58885 0.85576 0.0
H583 H 0.41743 0.45498 0.84936 0.0
H584 H 0.33906 0.44337 0.84968 0.0
H585 H 0.41288 0.58441 0.89362 0.0
H586 H 0.41787 0.62658 0.88221 0.0
H587 H 0.46835 0.62508 0.88055 0.0
H588 H 0.46764 0.62897 0.83824 0.0
H589 H 0.41706 0.63038 0.83972 0.0
H590 H 0.41172 0.59089 0.82221 0.0
H591 H 0.26797 0.44545 0.84982 0.0
H592 H 0.21013 0.46037 0.85233 0.0
H593 H 0.33274 0.59299 0.86184 0.0
C594 C 0.46306 0.55708 0.85432 0.0
C595 C 0.46408 0.52281 0.85242 0.0
C596 C 0.4184 0.48188 0.85084 0.0
C597 C 0.37335 0.47491 0.85095 0.0
C598 C 0.37358 0.50907 0.8529 0.0
C599 C 0.41721 0.54942 0.85476 0.0
C600 C 0.40654 0.58036 0.85751 0.0
C601 C 0.42767 0.6056 0.8798 0.0
C602 C 0.42696 0.60937 0.83828 0.0
C603 C 0.35026 0.55109 0.85686 0.0
C604 C 0.33227 0.51015 0.85397 0.0
C605 C 0.28183 0.47744 0.85242 0.0
C606 C 0.24889 0.48641 0.85414 0.0
C607 C 0.26551 0.52798 0.8578 0.0
C608 C 0.3176 0.56072 0.85897 0.0
H609 H 0.96405 0.38037 0.13737 0.0
H610 H 0.91178 0.43168 0.1805 0.0
H611 H 0.83887 0.36065 0.18796 0.0
H612 H 0.844 0.29092 0.11401 0.0
H613 H 0.8586 0.25582 0.11374 0.0
H614 H 0.90659 0.31084 0.11103 0.0
H615 H 0.95435 0.31323 0.1445 0.0
H616 H 0.90654 0.25825 0.14729 0.0
H617 H 0.92442 0.29496 0.17038 0.0
H618 H 0.77119 0.28489 0.19082 0.0
H619 H 0.71656 0.20835 0.19159 0.0
H620 H 0.81052 0.20415 0.14645 0.0
C621 C 0.93693 0.3767 0.14813 0.0
C622 C 0.94367 0.41197 0.15814 0.0
C623 C 0.90747 0.40551 0.17238 0.0
C624 C 0.86565 0.36519 0.17666 0.0
C625 C 0.85987 0.33126 0.16642 0.0
C626 C 0.89453 0.3364 0.15254 0.0
C627 C 0.88005 0.29426 0.14454 0.0
C628 C 0.87182 0.28758 0.11933 0.0
C629 C 0.91864 0.28993 0.15213 0.0
C630 C 0.83206 0.26488 0.15618 0.0
C631 C 0.82108 0.28702 0.16858 0.0
C632 C 0.77923 0.26713 0.18108 0.0
C633 C 0.74807 0.22345 0.18123 0.0
C634 C 0.75866 0.19976 0.16896 0.0
C635 C 0.80123 0.22108 0.15612 0.0
H636 H 0.07371 0.59439 0.07955 0.0
H637 H 1.05736 0.48461 0.09565 0.0
H638 H 0.07198 0.47485 0.05696 0.0
H639 H 1.01167 0.55347 0.02629 0.0
H640 H 1.05168 0.60264 0.01359 0.0
H641 H 1.0415 0.6018 0.04273 0.0
H642 H 0.13531 0.64875 0.05098 0.0
H643 H 0.14576 0.6496 0.02186 0.0
H644 H 0.16957 0.63243 0.04026 0.0
H645 H 0.08816 0.47681 0.01658 0.0
H646 H 0.10219 0.48901 0.97696 0.0
H647 H 0.1048 0.59593 0.98658 0.0
C648 C 0.07334 0.56839 0.07489 0.0
C649 C 0.06459 0.54032 0.09057 0.0
C650 C 0.0641 0.50652 0.08389 0.0
C651 C 0.07243 0.50075 0.06197 0.0
C652 C 0.08095 0.52893 0.04688 0.0
C653 C 0.08126 0.56199 0.05299 0.0
C654 C 0.09012 0.58709 0.03336 0.0
C655 C 1.04611 0.58617 0.02872 0.0
C656 C 0.13804 0.63213 0.03683 0.0
C657 C 0.09458 0.5629 0.01528 0.0
C658 C 0.08944 0.52962 0.02347 0.0
C659 C 0.09202 0.50268 0.00995 0.0
C660 C 0.09969 0.50972 0.98741 0.0
C661 C 0.10441 0.54332 0.97851 0.0
C662 C 0.10202 0.57029 0.9928 0.0
H663 H 0.67225 0.07847 0.39572 0.0
H664 H 0.51603 1.00321 0.40619 0.0
H665 H 0.50038 0.99778 0.36583 0.0
H666 H 0.67528 0.1342 0.34887 0.0
H667 H 0.72085 0.13362 0.33522 0.0
H668 H 0.71945 0.13519 0.36492 0.0
H669 H 0.71326 0.06891 0.36482 0.0
H670 H 0.71418 0.06689 0.33518 0.0
H671 H 0.66428 0.02233 0.34899 0.0
H672 H 0.50196 0.99451 0.32399 0.0
H673 H 0.52025 0.99512 0.28464 0.0
H674 H 0.67599 0.07457 0.3021 0.0
C675 C 0.63479 0.06148 0.38957 0.0
C676 C 0.59529 0.04121 0.40398 0.0
C677 C 0.54678 0.01909 0.39536 0.0
C678 C 0.53761 0.01586 0.3725 0.0
C679 C 0.57743 0.03535 0.35863 0.0
C680 C 0.62511 0.05812 0.36691 0.0
C681 C 0.66132 0.07416 0.34861 0.0
C682 C 0.69628 0.12214 0.34946 0.0
C683 C 0.68991 0.05703 0.34946 0.0
C684 C 0.62654 0.05583 0.32865 0.0
C685 C 0.57835 0.03384 0.33471 0.0
C686 C 0.53963 0.01227 0.31907 0.0
C687 C 0.55045 0.01297 0.29671 0.0
C688 C 0.59963 0.03503 0.29015 0.0
C689 C 0.63799 0.05714 0.30646 0.0
H690 H 0.53676 0.48883 0.77184 0.0
H691 H 0.6795 0.59427 0.79974 0.0
H692 H 0.7066 0.62042 0.76263 0.0
H693 H 0.58188 0.47163 0.72361 0.0
H694 H 0.53186 0.4572 0.70559 0.0
H695 H 0.52222 0.44814 0.73453 0.0
H696 H 0.49062 0.4909 0.73773 0.0
H697 H 0.50004 0.50001 0.70877 0.0
H698 H 0.52855 0.54353 0.7289 0.0
H699 H 0.71934 0.63393 0.72261 0.0
H700 H 0.71771 0.63326 0.682 0.0
H701 H 0.56726 0.5184 0.67956 0.0
C702 C 0.57352 0.51764 0.77012 0.0
C703 C 0.60583 0.53991 0.78868 0.0
C704 C 0.65388 0.57714 0.78579 0.0
C705 C 0.66967 0.59216 0.76476 0.0
C706 C 0.63706 0.56942 0.74678 0.0
C707 C 0.59004 0.53291 0.74918 0.0
C708 C 0.56313 0.51361 0.72698 0.0
C709 C 0.54895 0.47007 0.72242 0.0
C710 C 0.51791 0.51193 0.72552 0.0
C711 C 0.60253 0.54481 0.71174 0.0
C712 C 0.64473 0.57689 0.72355 0.0
C713 C 0.68639 0.60915 0.71318 0.0
C714 C 0.685 0.60861 0.69009 0.0
C715 C 0.64227 0.57595 0.67757 0.0
C716 C 0.60053 0.54369 0.68864 0.0
H717 H 0.5241 0.01864 0.54568 0.0
H718 H 0.66858 0.07251 0.52136 0.0
H719 H 0.69927 0.0802 0.55925 0.0
H720 H 0.56604 0.08626 0.59391 0.0
H721 H 0.51928 0.04718 0.61136 0.0
H722 H 0.50698 0.04242 0.58211 0.0
H723 H 0.48392 0.96888 0.57979 0.0
H724 H 0.49602 0.97336 0.60908 0.0
H725 H 0.52703 0.96237 0.59013 0.0
H726 H 0.716 0.086 0.59942 0.0
H727 H 0.71784 0.08919 0.64007 0.0
H728 H 0.56328 0.03295 0.63928 0.0
C729 C 0.56197 0.03151 0.54837 0.0
C730 C 0.59386 0.04452 0.53058 0.0
C731 C 0.64335 0.06175 0.5347 0.0
C732 C 0.66119 0.06637 0.55618 0.0
C733 C 0.6291 0.05368 0.5734 0.0
C734 C 0.58053 0.03652 0.56982 0.0
C735 C 0.55463 0.02725 0.59149 0.0
C736 C 0.53563 0.05228 0.59491 0.0
C737 C 0.51293 0.98016 0.59269 0.0
C738 C 0.5965 0.04254 0.60773 0.0
C739 C 0.63898 0.05742 0.59686 0.0
C740 C 0.68296 0.07433 0.60816 0.0
C741 C 0.68371 0.07629 0.63124 0.0
C742 C 0.64082 0.06158 0.64284 0.0
C743 C 0.59653 0.04411 0.63086 0.0
H744 H 0.53693 0.47727 0.90291 0.0
H745 H 0.68142 0.5864 0.92694 0.0
H746 H 0.67065 0.55215 0.96135 0.0
H747 H 0.47724 0.4509 0.95415 0.0
H748 H 0.44156 0.39534 0.94867 0.0
H749 H 0.46042 0.42878 0.92613 0.0
H750 H 0.50121 0.39914 0.90854 0.0
H751 H 0.48359 0.36603 0.93111 0.0
H752 H 0.5472 0.40196 0.92413 0.0
H753 H 0.64248 0.50744 0.99363 0.0
H754 H 0.60042 0.45495 0.02132 0.0
H755 H 0.47795 0.3713 0.97449 0.0
C756 C 0.56644 0.49378 0.91534 0.0
C757 C 0.61012 0.53435 0.91229 0.0
C758 C 0.64768 0.55525 0.929 0.0
C759 C 0.64196 0.53602 0.94855 0.0
C760 C 0.59874 0.49571 0.95092 0.0
C761 C 0.56179 0.47467 0.93472 0.0
C762 C 0.51933 0.43135 0.94126 0.0
C763 C 0.47184 0.42632 0.94264 0.0
C764 C 0.51247 0.39764 0.92532 0.0
C765 C 0.53781 0.43165 0.96388 0.0
C766 C 0.58358 0.4691 0.96914 0.0
C767 C 0.60702 0.47764 0.98956 0.0
C768 C 0.58287 0.44724 0.00515 0.0
C769 C 0.53585 0.40833 0.00019 0.0
C770 C 0.51359 0.40056 0.97905 0.0
H771 H 0.08351 0.48143 0.22106 0.0
H772 H 0.10019 0.59399 0.21299 0.0
H773 H 0.09967 0.60362 0.2536 0.0
H774 H 1.00415 0.44525 0.26808 0.0
H775 H 1.03283 0.42636 0.281 0.0
H776 H 1.03087 0.42699 0.25138 0.0
H777 H 0.12555 0.47118 0.25116 0.0
H778 H 0.1278 0.4706 0.28073 0.0
H779 H 0.16354 0.51965 0.26774 0.0
H780 H 0.10092 0.60207 0.29536 0.0
H781 H 0.10606 0.59086 0.3345 0.0
H782 H 0.09179 0.48064 0.31455 0.0
C783 C 0.08661 0.50793 0.22782 0.0
C784 C 0.09158 0.53687 0.21396 0.0
C785 C 0.0959 0.57129 0.22338 0.0
C786 C 0.09566 0.57697 0.24639 0.0
C787 C 0.09107 0.54793 0.25963 0.0
C788 C 0.08668 0.51412 0.25064 0.0
C789 C 0.08467 0.48848 0.26835 0.0
C790 C 1.03518 0.44415 0.26713 0.0
C791 C 0.12797 0.48745 0.2669 0.0
C792 C 0.08942 0.51347 0.2888 0.0
C793 C 0.09259 0.54741 0.28348 0.0
C794 C 0.0984 0.57554 0.29969 0.0
C795 C 0.1016 0.56905 0.32188 0.0
C796 C 0.0994 0.53487 0.32768 0.0
C797 C 0.09273 0.50663 0.3108 0.0
loop_
_geom_bond_atom_site_label_1
_geom_bond_atom_site_label_2
_geom_bond_distance
_geom_bond_site_symmetry_2
_ccdc_geom_bond_type
Gd0 C3 2.818 . S
Gd0 O20 2.377 . S
Gd0 O22 2.448 . S
Gd0 O23 2.506 . S
Gd0 O24 2.435 . S
Gd0 O25 2.717 . S
Gd0 O27 2.395 1_455 S
Gd0 O31 2.327 . S
Gd1 C12 2.818 1_455 S
Gd1 O21 2.395 . S
Gd1 O25 2.327 . S
Gd1 O26 2.377 1_455 S
Gd1 O28 2.448 1_455 S
Gd1 O29 2.506 1_455 S
Gd1 O30 2.435 . S
Gd1 O31 2.717 . S
C2 O20 1.240 . S
C2 O21 1.240 . S
C3 Gd0 2.818 . S
C3 C4 1.510 . S
C3 O22 1.249 . S
C3 O23 1.252 . S
C4 C3 1.510 . S
C4 C5 1.404 . S
C4 C6 1.352 . S
C5 C4 1.404 . S
C5 C9 1.389 . S
C5 H32 0.930 . S
C6 C4 1.352 . S
C6 C8 1.374 . S
C6 H33 0.931 . S
C7 C8 1.359 . S
C7 C9 1.364 . S
C8 C6 1.374 . S
C8 C7 1.359 . S
C8 H34 0.931 . S
C9 C5 1.389 . S
C9 C7 1.364 . S
C9 H35 0.931 . S
C10 O24 1.256 . S
C10 O25 1.257 . S
C11 O26 1.240 . S
C11 O27 1.240 . S
C12 Gd1 2.818 1_655 S
C12 C13 1.510 . S
C12 O28 1.249 . S
C12 O29 1.252 . S
C13 C12 1.510 . S
C13 C14 1.404 . S
C13 C15 1.352 . S
C14 C13 1.404 . S
C14 C18 1.389 . S
C14 H36 0.930 . S
C15 C13 1.352 . S
C15 C17 1.374 . S
C15 H37 0.931 . S
C16 C17 1.359 . S
C16 C18 1.364 . S
C17 C15 1.374 . S
C17 C16 1.359 . S
C17 H38 0.931 . S
C18 C14 1.389 . S
C18 C16 1.364 . S
C18 H39 0.931 . S
C19 O30 1.256 . S
C19 O31 1.257 . S
O20 Gd0 2.377 . S
O20 C2 1.240 . S
O21 Gd1 2.395 . S
O21 C2 1.240 . S
O22 Gd0 2.448 . S
O22 C3 1.249 . S
O23 Gd0 2.506 . S
O23 C3 1.252 . S
O24 Gd0 2.435 . S
O24 C10 1.256 . S
O25 Gd0 2.717 . S
O25 Gd1 2.327 . S
O25 C10 1.257 . S
O26 Gd1 2.377 1_655 S
O26 C11 1.240 . S
O27 Gd0 2.395 1_655 S
O27 C11 1.240 . S
O28 Gd1 2.448 1_655 S
O28 C12 1.249 . S
O29 Gd1 2.506 1_655 S
O29 C12 1.252 . S
O30 Gd1 2.435 . S
O30 C19 1.256 . S
O31 Gd0 2.327 . S
O31 Gd1 2.717 . S
O31 C19 1.257 . S
H32 C5 0.930 . S
H33 C6 0.931 . S
H34 C8 0.931 . S
H35 C9 0.931 . S
H36 C14 0.930 . S
H37 C15 0.931 . S
H38 C17 0.931 . S
H39 C18 0.931 . S
Gd40 C43 2.818 . S
Gd40 O60 2.377 . S
Gd40 O62 2.448 . S
Gd40 O63 2.506 . S
Gd40 O64 2.435 . S
Gd40 O65 2.717 1_565 S
Gd40 O67 2.395 1_565 S
Gd40 O71 2.327 1_565 S
Gd41 C52 2.818 . S
Gd41 O61 2.395 1_545 S
Gd41 O65 2.327 . S
Gd41 O66 2.377 . S
Gd41 O68 2.448 . S
Gd41 O69 2.506 . S
Gd41 O70 2.435 . S
Gd41 O71 2.717 . S
C42 O60 1.240 . S
C42 O61 1.240 . S
C43 Gd40 2.818 . S
C43 C44 1.510 . S
C43 O62 1.249 . S
C43 O63 1.252 . S
C44 C43 1.510 . S
C44 C45 1.404 . S
C44 C46 1.352 . S
C45 C44 1.404 . S
C45 C49 1.389 . S
C45 H72 0.930 . S
C46 C44 1.352 . S
C46 C48 1.374 . S
C46 H73 0.931 . S
C47 C48 1.359 . S
C47 C49 1.364 . S
C48 C46 1.374 . S
C48 C47 1.359 . S
C48 H74 0.931 . S
C49 C45 1.389 . S
C49 C47 1.364 . S
C49 H75 0.931 . S
C50 O64 1.256 1_545 S
C50 O65 1.257 . S
C51 O66 1.240 . S
C51 O67 1.240 . S
C52 Gd41 2.818 . S
C52 C53 1.510 . S
C52 O68 1.249 . S
C52 O69 1.252 . S
C53 C52 1.510 . S
C53 C54 1.404 . S
C53 C55 1.352 . S
C54 C53 1.404 . S
C54 C58 1.389 . S
C54 H76 0.930 . S
C55 C53 1.352 . S
C55 C57 1.374 . S
C55 H77 0.931 . S
C56 C57 1.359 . S
C56 C58 1.364 . S
C57 C55 1.374 . S
C57 C56 1.359 . S
C57 H78 0.931 . S
C58 C54 1.389 . S
C58 C56 1.364 . S
C58 H79 0.931 . S
C59 O70 1.256 . S
C59 O71 1.257 . S
O60 Gd40 2.377 . S
O60 C42 1.240 . S
O61 Gd41 2.395 1_565 S
O61 C42 1.240 . S
O62 Gd40 2.448 . S
O62 C43 1.249 . S
O63 Gd40 2.506 . S
O63 C43 1.252 . S
O64 Gd40 2.435 . S
O64 C50 1.256 1_565 S
O65 Gd40 2.717 1_545 S
O65 Gd41 2.327 . S
O65 C50 1.257 . S
O66 Gd41 2.377 . S
O66 C51 1.240 . S
O67 Gd40 2.395 1_545 S
O67 C51 1.240 . S
O68 Gd41 2.448 . S
O68 C52 1.249 . S
O69 Gd41 2.506 . S
O69 C52 1.252 . S
O70 Gd41 2.435 . S
O70 C59 1.256 . S
O71 Gd40 2.327 1_545 S
O71 Gd41 2.717 . S
O71 C59 1.257 . S
H72 C45 0.930 . S
H73 C46 0.931 . S
H74 C48 0.931 . S
H75 C49 0.931 . S
H76 C54 0.930 . S
H77 C55 0.931 . S
H78 C57 0.931 . S
H79 C58 0.931 . S
Gd80 C83 2.818 . S
Gd80 O100 2.377 . S
Gd80 O102 2.448 . S
Gd80 O103 2.506 . S
Gd80 O104 2.435 . S
Gd80 O105 2.717 . S
Gd80 O107 2.395 . S
Gd80 O111 2.327 . S
Gd81 C92 2.818 . S
Gd81 O101 2.395 . S
Gd81 O105 2.327 . S
Gd81 O106 2.377 . S
Gd81 O108 2.448 . S
Gd81 O109 2.506 . S
Gd81 O110 2.435 . S
Gd81 O111 2.717 . S
C82 O100 1.240 . S
C82 O101 1.240 . S
C83 Gd80 2.818 . S
C83 C84 1.510 . S
C83 O102 1.249 . S
C83 O103 1.252 . S
C84 C83 1.510 . S
C84 C85 1.404 . S
C84 C86 1.352 . S
C85 C84 1.404 . S
C85 C89 1.389 . S
C85 H112 0.930 . S
C86 C84 1.352 . S
C86 C88 1.374 . S
C86 H113 0.931 . S
C87 C88 1.359 . S
C87 C89 1.364 . S
C88 C86 1.374 . S
C88 C87 1.359 . S
C88 H114 0.931 . S
C89 C85 1.389 . S
C89 C87 1.364 . S
C89 H115 0.931 . S
C90 O104 1.256 . S
C90 O105 1.257 . S
C91 O106 1.240 . S
C91 O107 1.240 . S
C92 Gd81 2.818 . S
C92 C93 1.510 . S
C92 O108 1.249 . S
C92 O109 1.252 . S
C93 C92 1.510 . S
C93 C94 1.404 . S
C93 C95 1.352 . S
C94 C93 1.404 . S
C94 C98 1.389 . S
C94 H116 0.930 . S
C95 C93 1.352 . S
C95 C97 1.374 . S
C95 H117 0.931 . S
C96 C97 1.359 . S
C96 C98 1.364 . S
C97 C95 1.374 . S
C97 C96 1.359 . S
C97 H118 0.931 . S
C98 C94 1.389 . S
C98 C96 1.364 . S
C98 H119 0.931 . S
C99 O110 1.256 . S
C99 O111 1.257 . S
O100 Gd80 2.377 . S
O100 C82 1.240 . S
O101 Gd81 2.395 . S
O101 C82 1.240 . S
O102 Gd80 2.448 . S
O102 C83 1.249 . S
O103 Gd80 2.506 . S
O103 C83 1.252 . S
O104 Gd80 2.435 . S
O104 C90 1.256 . S
O105 Gd80 2.717 . S
O105 Gd81 2.327 . S
O105 C90 1.257 . S
O106 Gd81 2.377 . S
O106 C91 1.240 . S
O107 Gd80 2.395 . S
O107 C91 1.240 . S
O108 Gd81 2.448 . S
O108 C92 1.249 . S
O109 Gd81 2.506 . S
O109 C92 1.252 . S
O110 Gd81 2.435 . S
O110 C99 1.256 . S
O111 Gd80 2.327 . S
O111 Gd81 2.717 . S
O111 C99 1.257 . S
H112 C85 0.930 . S
H113 C86 0.931 . S
H114 C88 0.931 . S
H115 C89 0.931 . S
H116 C94 0.930 . S
H117 C95 0.931 . S
H118 C97 0.931 . S
H119 C98 0.931 . S
P120 O131 1.490 1_545 S
P120 C134 1.812 1_545 S
P120 C140 1.803 . S
P120 C146 1.819 . S
H121 C135 0.941 . S
H122 C136 0.939 . S
H123 C138 0.940 . S
H124 C139 0.940 . S
H125 C141 0.939 . S
H126 C142 0.942 . S
H127 C144 0.940 . S
H128 C145 0.939 . S
H129 C147 0.941 . S
H130 C151 0.939 . S
O131 P120 1.490 1_565 S
H132 C148 0.939 . S
H133 C150 0.940 . S
C134 P120 1.812 1_565 S
C134 C135 1.389 . S
C134 C139 1.391 . S
C135 H121 0.941 . S
C135 C134 1.389 . S
C135 C136 1.397 . S
C136 H122 0.939 . S
C136 C135 1.397 . S
C136 C137 1.378 . S
C137 C136 1.378 . S
C137 C138 1.378 . S
C138 H123 0.940 . S
C138 C137 1.378 . S
C138 C139 1.396 . S
C139 H124 0.940 . S
C139 C134 1.391 . S
C139 C138 1.396 . S
C140 P120 1.803 . S
C140 C141 1.378 . S
C140 C145 1.400 . S
C141 H125 0.939 . S
C141 C140 1.378 . S
C141 C142 1.361 . S
C142 H126 0.942 . S
C142 C141 1.361 . S
C142 C143 1.369 . S
C143 C142 1.369 . S
C143 C144 1.404 . S
C144 H127 0.940 . S
C144 C143 1.404 . S
C144 C145 1.389 . S
C145 H128 0.939 . S
C145 C140 1.400 . S
C145 C144 1.389 . S
C146 P120 1.819 . S
C146 C147 1.391 1_545 S
C146 C151 1.391 . S
C147 H129 0.941 . S
C147 C146 1.391 1_565 S
C147 C148 1.396 . S
C148 H132 0.939 . S
C148 C147 1.396 . S
C148 C149 1.397 1_565 S
C149 C148 1.397 1_545 S
C149 C150 1.385 . S
C150 H133 0.940 . S
C150 C149 1.385 . S
C150 C151 1.388 . S
C151 H130 0.939 . S
C151 C146 1.391 . S
C151 C150 1.388 . S
P152 O163 1.490 . S
P152 C166 1.812 . S
P152 C172 1.803 . S
P152 C178 1.819 . S
H153 C167 0.941 . S
H154 C168 0.939 . S
H155 C170 0.940 . S
H156 C171 0.940 . S
H157 C173 0.939 . S
H158 C174 0.942 . S
H159 C176 0.940 . S
H160 C177 0.939 . S
H161 C179 0.941 . S
H162 C183 0.939 . S
O163 P152 1.490 . S
H164 C180 0.939 . S
H165 C182 0.940 . S
C166 P152 1.812 . S
C166 C167 1.389 . S
C166 C171 1.391 . S
C167 H153 0.941 . S
C167 C166 1.389 . S
C167 C168 1.397 . S
C168 H154 0.939 . S
C168 C167 1.397 . S
C168 C169 1.378 . S
C169 C168 1.378 . S
C169 C170 1.378 . S
C170 H155 0.940 . S
C170 C169 1.378 . S
C170 C171 1.396 . S
C171 H156 0.940 . S
C171 C166 1.391 . S
C171 C170 1.396 . S
C172 P152 1.803 . S
C172 C173 1.378 . S
C172 C177 1.400 . S
C173 H157 0.939 . S
C173 C172 1.378 . S
C173 C174 1.361 . S
C174 H158 0.942 . S
C174 C173 1.361 . S
C174 C175 1.369 . S
C175 C174 1.369 . S
C175 C176 1.404 . S
C176 H159 0.940 . S
C176 C175 1.404 . S
C176 C177 1.389 . S
C177 H160 0.939 . S
C177 C172 1.400 . S
C177 C176 1.389 . S
C178 P152 1.819 . S
C178 C179 1.391 . S
C178 C183 1.391 . S
C179 H161 0.941 . S
C179 C178 1.391 . S
C179 C180 1.396 . S
C180 H164 0.939 . S
C180 C179 1.396 . S
C180 C181 1.397 . S
C181 C180 1.397 . S
C181 C182 1.385 . S
C182 H165 0.940 . S
C182 C181 1.385 . S
C182 C183 1.388 . S
C183 H162 0.939 . S
C183 C178 1.391 . S
C183 C182 1.388 . S
P184 O195 1.490 . S
P184 C198 1.812 . S
P184 C204 1.803 . S
P184 C210 1.819 . S
H185 C199 0.941 . S
H186 C200 0.939 . S
H187 C202 0.940 . S
H188 C203 0.940 . S
H189 C205 0.939 . S
H190 C206 0.942 . S
H191 C208 0.940 . S
H192 C209 0.939 . S
H193 C211 0.941 . S
H194 C215 0.939 . S
O195 P184 1.490 . S
H196 C212 0.939 . S
H197 C214 0.940 1_655 S
C198 P184 1.812 . S
C198 C199 1.389 . S
C198 C203 1.391 . S
C199 H185 0.941 . S
C199 C198 1.389 . S
C199 C200 1.397 . S
C200 H186 0.939 . S
C200 C199 1.397 . S
C200 C201 1.378 . S
C201 C200 1.378 . S
C201 C202 1.378 . S
C202 H187 0.940 . S
C202 C201 1.378 . S
C202 C203 1.396 . S
C203 H188 0.940 . S
C203 C198 1.391 . S
C203 C202 1.396 . S
C204 P184 1.803 . S
C204 C205 1.378 . S
C204 C209 1.400 . S
C205 H189 0.939 . S
C205 C204 1.378 . S
C205 C206 1.361 1_455 S
C206 H190 0.942 . S
C206 C205 1.361 1_655 S
C206 C207 1.369 . S
C207 C206 1.369 . S
C207 C208 1.404 . S
C208 H191 0.940 . S
C208 C207 1.404 . S
C208 C209 1.389 1_655 S
C209 H192 0.939 . S
C209 C204 1.400 . S
C209 C208 1.389 1_455 S
C210 P184 1.819 . S
C210 C211 1.391 . S
C210 C215 1.391 . S
C211 H193 0.941 . S
C211 C210 1.391 . S
C211 C212 1.396 . S
C212 H196 0.939 . S
C212 C211 1.396 . S
C212 C213 1.397 . S
C213 C212 1.397 . S
C213 C214 1.385 . S
C214 H197 0.940 1_455 S
C214 C213 1.385 . S
C214 C215 1.388 . S
C215 H194 0.939 . S
C215 C210 1.391 . S
C215 C214 1.388 . S
P216 O227 1.490 . S
P216 C230 1.812 . S
P216 C236 1.803 1_455 S
P216 C242 1.819 . S
H217 C231 0.941 . S
H218 C232 0.939 . S
H219 C234 0.940 . S
H220 C235 0.940 . S
H221 C237 0.939 . S
H222 C238 0.942 . S
H223 C240 0.940 . S
H224 C241 0.939 . S
H225 C243 0.941 . S
H226 C247 0.939 . S
O227 P216 1.490 . S
H228 C244 0.939 . S
H229 C246 0.940 . S
C230 P216 1.812 . S
C230 C231 1.389 . S
C230 C235 1.391 . S
C231 H217 0.941 . S
C231 C230 1.389 . S
C231 C232 1.397 . S
C232 H218 0.939 . S
C232 C231 1.397 . S
C232 C233 1.378 . S
C233 C232 1.378 . S
C233 C234 1.378 . S
C234 H219 0.940 . S
C234 C233 1.378 . S
C234 C235 1.396 . S
C235 H220 0.940 . S
C235 C230 1.391 . S
C235 C234 1.396 . S
C236 P216 1.803 1_655 S
C236 C237 1.378 . S
C236 C241 1.400 . S
C237 H221 0.939 . S
C237 C236 1.378 . S
C237 C238 1.361 . S
C238 H222 0.942 . S
C238 C237 1.361 . S
C238 C239 1.369 . S
C239 C238 1.369 . S
C239 C240 1.404 . S
C240 H223 0.940 . S
C240 C239 1.404 . S
C240 C241 1.389 . S
C241 H224 0.939 . S
C241 C236 1.400 . S
C241 C240 1.389 . S
C242 P216 1.819 . S
C242 C243 1.391 . S
C242 C247 1.391 1_455 S
C243 H225 0.941 . S
C243 C242 1.391 . S
C243 C244 1.396 . S
C244 H228 0.939 . S
C244 C243 1.396 . S
C244 C245 1.397 . S
C245 C244 1.397 . S
C245 C246 1.385 1_455 S
C246 H229 0.940 . S
C246 C245 1.385 1_655 S
C246 C247 1.388 . S
C247 H226 0.939 . S
C247 C242 1.391 1_655 S
C247 C246 1.388 . S
P248 O259 1.490 . S
P248 C262 1.812 . S
P248 C268 1.803 1_545 S
P248 C274 1.819 . S
H249 C263 0.941 . S
H250 C264 0.939 . S
H251 C266 0.940 . S
H252 C267 0.940 . S
H253 C269 0.940 . S
H254 C270 0.942 . S
H255 C272 0.940 . S
H256 C273 0.939 . S
H257 C275 0.941 . S
H258 C279 0.939 . S
O259 P248 1.490 . S
H260 C276 0.939 . S
H261 C278 0.940 . S
C262 P248 1.812 . S
C262 C263 1.389 . S
C262 C267 1.391 . S
C263 H249 0.941 . S
C263 C262 1.389 . S
C263 C264 1.397 . S
C264 H250 0.939 . S
C264 C263 1.397 . S
C264 C265 1.378 . S
C265 C264 1.378 . S
C265 C266 1.378 . S
C266 H251 0.940 . S
C266 C265 1.378 . S
C266 C267 1.396 . S
C267 H252 0.940 . S
C267 C262 1.391 . S
C267 C266 1.396 . S
C268 P248 1.803 1_565 S
C268 C269 1.378 . S
C268 C273 1.400 . S
C269 H253 0.940 . S
C269 C268 1.378 . S
C269 C270 1.361 . S
C270 H254 0.942 . S
C270 C269 1.361 . S
C270 C271 1.369 . S
C271 C270 1.369 . S
C271 C272 1.404 . S
C272 H255 0.940 . S
C272 C271 1.404 . S
C272 C273 1.389 . S
C273 H256 0.939 . S
C273 C268 1.400 . S
C273 C272 1.389 . S
C274 P248 1.819 . S
C274 C275 1.391 . S
C274 C279 1.391 1_545 S
C275 H257 0.941 . S
C275 C274 1.391 . S
C275 C276 1.396 . S
C276 H260 0.939 . S
C276 C275 1.396 . S
C276 C277 1.397 . S
C277 C276 1.397 . S
C277 C278 1.385 1_545 S
C278 H261 0.940 . S
C278 C277 1.385 1_565 S
C278 C279 1.388 . S
C279 H258 0.939 . S
C279 C274 1.391 1_565 S
C279 C278 1.388 . S
P280 O291 1.490 . S
P280 C294 1.812 . S
P280 C300 1.803 . S
P280 C306 1.819 . S
H281 C295 0.941 . S
H282 C296 0.939 . S
H283 C298 0.940 . S
H284 C299 0.940 . S
H285 C301 0.939 . S
H286 C302 0.942 . S
H287 C304 0.940 . S
H288 C305 0.939 . S
H289 C307 0.941 . S
H290 C311 0.939 . S
O291 P280 1.490 . S
H292 C308 0.939 . S
H293 C310 0.940 . S
C294 P280 1.812 . S
C294 C295 1.389 . S
C294 C299 1.391 . S
C295 H281 0.941 . S
C295 C294 1.389 . S
C295 C296 1.397 . S
C296 H282 0.939 . S
C296 C295 1.397 . S
C296 C297 1.378 . S
C297 C296 1.378 . S
C297 C298 1.378 . S
C298 H283 0.940 . S
C298 C297 1.378 . S
C298 C299 1.396 . S
C299 H284 0.940 . S
C299 C294 1.391 . S
C299 C298 1.396 . S
C300 P280 1.803 . S
C300 C301 1.378 . S
C300 C305 1.400 . S
C301 H285 0.939 . S
C301 C300 1.378 . S
C301 C302 1.361 . S
C302 H286 0.942 . S
C302 C301 1.361 . S
C302 C303 1.369 . S
C303 C302 1.369 . S
C303 C304 1.404 . S
C304 H287 0.940 . S
C304 C303 1.404 . S
C304 C305 1.389 . S
C305 H288 0.939 . S
C305 C300 1.400 . S
C305 C304 1.389 . S
C306 P280 1.819 . S
C306 C307 1.391 . S
C306 C311 1.391 . S
C307 H289 0.941 . S
C307 C306 1.391 . S
C307 C308 1.396 . S
C308 H292 0.939 . S
C308 C307 1.396 . S
C308 C309 1.397 . S
C309 C308 1.397 . S
C309 C310 1.385 . S
C310 H293 0.940 . S
C310 C309 1.385 . S
C310 C311 1.388 . S
C311 H290 0.939 . S
C311 C306 1.391 . S
C311 C310 1.388 . S
H312 C324 0.930 . S
H313 C326 0.930 . S
H314 C327 0.930 . S
H315 C331 0.959 . S
H316 C331 0.959 . S
H317 C331 0.961 . S
H318 C332 0.960 . S
H319 C332 0.961 . S
H320 C332 0.959 . S
H321 C335 0.929 . S
H322 C336 0.931 . S
H323 C338 0.930 . S
C324 H312 0.930 . S
C324 C325 1.399 . S
C324 C329 1.399 . S
C325 C324 1.399 . S
C325 C326 1.376 . S
C326 H313 0.930 . S
C326 C325 1.376 . S
C326 C327 1.388 . S
C327 H314 0.930 . S
C327 C326 1.388 . S
C327 C328 1.390 . S
C328 C327 1.390 . S
C328 C329 1.394 . S
C328 C334 1.465 . S
C329 C324 1.399 . S
C329 C328 1.394 . S
C329 C330 1.516 . S
C330 C329 1.516 . S
C330 C331 1.502 . S
C330 C332 1.561 . S
C330 C333 1.526 . S
C331 H315 0.959 . S
C331 H316 0.959 . S
C331 H317 0.961 . S
C331 C330 1.502 . S
C332 H318 0.960 . S
C332 H319 0.961 . S
C332 H320 0.959 . S
C332 C330 1.561 . S
C333 C330 1.526 . S
C333 C334 1.396 . S
C333 C338 1.390 . S
C334 C328 1.465 . S
C334 C333 1.396 . S
C334 C335 1.399 . S
C335 H321 0.929 . S
C335 C334 1.399 . S
C335 C336 1.385 . S
C336 H322 0.931 . S
C336 C335 1.385 . S
C336 C337 1.389 . S
C337 C336 1.389 . S
C337 C338 1.387 . S
C338 H323 0.930 . S
C338 C333 1.390 . S
C338 C337 1.387 . S
H339 C351 0.930 . S
H340 C353 0.930 . S
H341 C354 0.930 . S
H342 C358 0.959 . S
H343 C358 0.959 . S
H344 C358 0.961 . S
H345 C359 0.960 . S
H346 C359 0.961 . S
H347 C359 0.959 . S
H348 C362 0.929 . S
H349 C363 0.931 . S
H350 C365 0.930 . S
C351 H339 0.930 . S
C351 C352 1.399 . S
C351 C356 1.399 . S
C352 C351 1.399 . S
C352 C353 1.376 . S
C353 H340 0.930 . S
C353 C352 1.376 . S
C353 C354 1.388 . S
C354 H341 0.930 . S
C354 C353 1.388 . S
C354 C355 1.390 . S
C355 C354 1.390 . S
C355 C356 1.394 . S
C355 C361 1.465 . S
C356 C351 1.399 . S
C356 C355 1.394 . S
C356 C357 1.516 . S
C357 C356 1.516 . S
C357 C358 1.502 . S
C357 C359 1.561 . S
C357 C360 1.526 . S
C358 H342 0.959 . S
C358 H343 0.959 . S
C358 H344 0.961 . S
C358 C357 1.502 . S
C359 H345 0.960 . S
C359 H346 0.961 . S
C359 H347 0.959 . S
C359 C357 1.561 . S
C360 C357 1.526 . S
C360 C361 1.396 . S
C360 C365 1.390 . S
C361 C355 1.465 . S
C361 C360 1.396 . S
C361 C362 1.399 . S
C362 H348 0.929 . S
C362 C361 1.399 . S
C362 C363 1.385 . S
C363 H349 0.931 . S
C363 C362 1.385 . S
C363 C364 1.389 . S
C364 C363 1.389 . S
C364 C365 1.387 . S
C365 H350 0.930 . S
C365 C360 1.390 . S
C365 C364 1.387 . S
H366 C378 0.930 . S
H367 C380 0.930 . S
H368 C381 0.930 . S
H369 C385 0.959 . S
H370 C385 0.959 . S
H371 C385 0.961 . S
H372 C386 0.960 . S
H373 C386 0.961 . S
H374 C386 0.959 . S
H375 C389 0.929 . S
H376 C390 0.931 . S
H377 C392 0.930 . S
C378 H366 0.930 . S
C378 C379 1.399 . S
C378 C383 1.399 . S
C379 C378 1.399 . S
C379 C380 1.376 . S
C380 H367 0.930 . S
C380 C379 1.376 . S
C380 C381 1.388 . S
C381 H368 0.930 . S
C381 C380 1.388 . S
C381 C382 1.390 . S
C382 C381 1.390 . S
C382 C383 1.394 . S
C382 C388 1.465 . S
C383 C378 1.399 . S
C383 C382 1.394 . S
C383 C384 1.516 . S
C384 C383 1.516 . S
C384 C385 1.502 . S
C384 C386 1.561 . S
C384 C387 1.526 . S
C385 H369 0.959 . S
C385 H370 0.959 . S
C385 H371 0.961 . S
C385 C384 1.502 . S
C386 H372 0.960 . S
C386 H373 0.961 . S
C386 H374 0.959 . S
C386 C384 1.561 . S
C387 C384 1.526 . S
C387 C388 1.396 . S
C387 C392 1.390 . S
C388 C382 1.465 . S
C388 C387 1.396 . S
C388 C389 1.399 . S
C389 H375 0.929 . S
C389 C388 1.399 . S
C389 C390 1.385 . S
C390 H376 0.931 . S
C390 C389 1.385 . S
C390 C391 1.389 . S
C391 C390 1.389 . S
C391 C392 1.387 . S
C392 H377 0.930 . S
C392 C387 1.390 . S
C392 C391 1.387 . S
H393 C405 0.930 . S
H394 C407 0.930 . S
H395 C408 0.930 . S
H396 C412 0.959 . S
H397 C412 0.959 . S
H398 C412 0.961 . S
H399 C413 0.960 . S
H400 C413 0.961 . S
H401 C413 0.959 . S
H402 C416 0.929 . S
H403 C417 0.931 . S
H404 C419 0.930 . S
C405 H393 0.930 . S
C405 C406 1.399 . S
C405 C410 1.399 . S
C406 C405 1.399 . S
C406 C407 1.376 . S
C407 H394 0.930 . S
C407 C406 1.376 . S
C407 C408 1.388 . S
C408 H395 0.930 . S
C408 C407 1.388 . S
C408 C409 1.390 . S
C409 C408 1.390 . S
C409 C410 1.394 . S
C409 C415 1.465 . S
C410 C405 1.399 . S
C410 C409 1.394 . S
C410 C411 1.516 . S
C411 C410 1.516 . S
C411 C412 1.502 . S
C411 C413 1.561 . S
C411 C414 1.526 . S
C412 H396 0.959 . S
C412 H397 0.959 . S
C412 H398 0.961 . S
C412 C411 1.502 . S
C413 H399 0.960 . S
C413 H400 0.961 . S
C413 H401 0.959 . S
C413 C411 1.561 . S
C414 C411 1.526 . S
C414 C415 1.396 . S
C414 C419 1.390 . S
C415 C409 1.465 . S
C415 C414 1.396 . S
C415 C416 1.399 . S
C416 H402 0.929 . S
C416 C415 1.399 . S
C416 C417 1.385 . S
C417 H403 0.931 . S
C417 C416 1.385 . S
C417 C418 1.389 . S
C418 C417 1.389 . S
C418 C419 1.387 . S
C419 H404 0.930 . S
C419 C414 1.390 . S
C419 C418 1.387 . S
H420 C432 0.930 . S
H421 C434 0.930 . S
H422 C435 0.930 . S
H423 C439 0.959 . S
H424 C439 0.959 . S
H425 C439 0.961 . S
H426 C440 0.960 . S
H427 C440 0.961 . S
H428 C440 0.959 . S
H429 C443 0.929 . S
H430 C444 0.931 . S
H431 C446 0.930 . S
C432 H420 0.930 . S
C432 C433 1.399 . S
C432 C437 1.399 . S
C433 C432 1.399 . S
C433 C434 1.376 . S
C434 H421 0.930 . S
C434 C433 1.376 . S
C434 C435 1.388 . S
C435 H422 0.930 . S
C435 C434 1.388 . S
C435 C436 1.390 . S
C436 C435 1.390 . S
C436 C437 1.394 . S
C436 C442 1.465 . S
C437 C432 1.399 . S
C437 C436 1.394 . S
C437 C438 1.516 . S
C438 C437 1.516 . S
C438 C439 1.502 . S
C438 C440 1.561 . S
C438 C441 1.526 . S
C439 H423 0.959 . S
C439 H424 0.959 . S
C439 H425 0.961 . S
C439 C438 1.502 . S
C440 H426 0.960 . S
C440 H427 0.961 . S
C440 H428 0.959 . S
C440 C438 1.561 . S
C441 C438 1.526 . S
C441 C442 1.396 . S
C441 C446 1.390 . S
C442 C436 1.465 . S
C442 C441 1.396 . S
C442 C443 1.399 . S
C443 H429 0.929 . S
C443 C442 1.399 . S
C443 C444 1.385 . S
C444 H430 0.931 . S
C444 C443 1.385 . S
C444 C445 1.389 . S
C445 C444 1.389 . S
C445 C446 1.387 . S
C446 H431 0.930 . S
C446 C441 1.390 . S
C446 C445 1.387 . S
H447 C459 0.930 . S
H448 C461 0.930 . S
H449 C462 0.930 . S
H450 C466 0.959 . S
H451 C466 0.959 . S
H452 C466 0.961 . S
H453 C467 0.960 . S
H454 C467 0.961 . S
H455 C467 0.959 . S
H456 C470 0.929 . S
H457 C471 0.931 . S
H458 C473 0.930 . S
C459 H447 0.930 . S
C459 C460 1.399 . S
C459 C464 1.399 . S
C460 C459 1.399 . S
C460 C461 1.376 . S
C461 H448 0.930 . S
C461 C460 1.376 . S
C461 C462 1.388 . S
C462 H449 0.930 . S
C462 C461 1.388 . S
C462 C463 1.390 . S
C463 C462 1.390 . S
C463 C464 1.394 . S
C463 C469 1.465 . S
C464 C459 1.399 . S
C464 C463 1.394 . S
C464 C465 1.516 . S
C465 C464 1.516 . S
C465 C466 1.502 . S
C465 C467 1.561 . S
C465 C468 1.526 . S
C466 H450 0.959 . S
C466 H451 0.959 . S
C466 H452 0.961 . S
C466 C465 1.502 . S
C467 H453 0.960 . S
C467 H454 0.961 . S
C467 H455 0.959 . S
C467 C465 1.561 . S
C468 C465 1.526 . S
C468 C469 1.396 . S
C468 C473 1.390 . S
C469 C463 1.465 . S
C469 C468 1.396 . S
C469 C470 1.399 . S
C470 H456 0.929 . S
C470 C469 1.399 . S
C470 C471 1.385 . S
C471 H457 0.931 . S
C471 C470 1.385 . S
C471 C472 1.389 . S
C472 C471 1.389 . S
C472 C473 1.387 . S
C473 H458 0.930 . S
C473 C468 1.390 . S
C473 C472 1.387 . S
H474 C486 0.930 . S
H475 C488 0.930 . S
H476 C489 0.930 . S
H477 C493 0.959 . S
H478 C493 0.959 . S
H479 C493 0.961 . S
H480 C494 0.960 . S
H481 C494 0.961 . S
H482 C494 0.959 . S
H483 C497 0.929 . S
H484 C498 0.931 . S
H485 C500 0.930 . S
C486 H474 0.930 . S
C486 C487 1.399 . S
C486 C491 1.399 . S
C487 C486 1.399 . S
C487 C488 1.376 . S
C488 H475 0.930 . S
C488 C487 1.376 . S
C488 C489 1.388 . S
C489 H476 0.930 . S
C489 C488 1.388 . S
C489 C490 1.390 . S
C490 C489 1.390 . S
C490 C491 1.394 . S
C490 C496 1.465 . S
C491 C486 1.399 . S
C491 C490 1.394 . S
C491 C492 1.516 . S
C492 C491 1.516 . S
C492 C493 1.502 . S
C492 C494 1.561 . S
C492 C495 1.526 . S
C493 H477 0.959 . S
C493 H478 0.959 . S
C493 H479 0.961 . S
C493 C492 1.502 . S
C494 H480 0.960 . S
C494 H481 0.961 . S
C494 H482 0.959 . S
C494 C492 1.561 . S
C495 C492 1.526 . S
C495 C496 1.396 . S
C495 C500 1.390 . S
C496 C490 1.465 . S
C496 C495 1.396 . S
C496 C497 1.399 . S
C497 H483 0.929 . S
C497 C496 1.399 . S
C497 C498 1.385 . S
C498 H484 0.931 . S
C498 C497 1.385 . S
C498 C499 1.389 . S
C499 C498 1.389 . S
C499 C500 1.387 . S
C500 H485 0.930 . S
C500 C495 1.390 . S
C500 C499 1.387 . S
H501 C513 0.930 . S
H502 C515 0.930 . S
H503 C516 0.930 . S
H504 C520 0.959 . S
H505 C520 0.959 . S
H506 C520 0.961 . S
H507 C521 0.960 . S
H508 C521 0.961 . S
H509 C521 0.959 . S
H510 C524 0.929 . S
H511 C525 0.931 . S
H512 C527 0.930 . S
C513 H501 0.930 . S
C513 C514 1.399 . S
C513 C518 1.399 . S
C514 C513 1.399 . S
C514 C515 1.376 . S
C515 H502 0.930 . S
C515 C514 1.376 . S
C515 C516 1.388 . S
C516 H503 0.930 . S
C516 C515 1.388 . S
C516 C517 1.390 . S
C517 C516 1.390 . S
C517 C518 1.394 . S
C517 C523 1.465 . S
C518 C513 1.399 . S
C518 C517 1.394 . S
C518 C519 1.516 . S
C519 C518 1.516 . S
C519 C520 1.502 . S
C519 C521 1.561 . S
C519 C522 1.526 . S
C520 H504 0.959 . S
C520 H505 0.959 . S
C520 H506 0.961 . S
C520 C519 1.502 . S
C521 H507 0.960 . S
C521 H508 0.961 . S
C521 H509 0.959 . S
C521 C519 1.561 . S
C522 C519 1.526 . S
C522 C523 1.396 . S
C522 C527 1.390 . S
C523 C517 1.465 . S
C523 C522 1.396 . S
C523 C524 1.399 . S
C524 H510 0.929 . S
C524 C523 1.399 . S
C524 C525 1.385 . S
C525 H511 0.931 . S
C525 C524 1.385 . S
C525 C526 1.389 . S
C526 C525 1.389 . S
C526 C527 1.387 . S
C527 H512 0.930 . S
C527 C522 1.390 . S
C527 C526 1.387 . S
H528 C540 0.930 . S
H529 C542 0.930 . S
H530 C543 0.930 . S
H531 C547 0.959 . S
H532 C547 0.959 . S
H533 C547 0.961 . S
H534 C548 0.960 . S
H535 C548 0.961 . S
H536 C548 0.959 . S
H537 C551 0.929 . S
H538 C552 0.931 . S
H539 C554 0.930 . S
C540 H528 0.930 . S
C540 C541 1.399 . S
C540 C545 1.399 . S
C541 C540 1.399 . S
C541 C542 1.376 . S
C542 H529 0.930 . S
C542 C541 1.376 . S
C542 C543 1.388 . S
C543 H530 0.930 . S
C543 C542 1.388 . S
C543 C544 1.390 . S
C544 C543 1.390 . S
C544 C545 1.394 . S
C544 C550 1.465 . S
C545 C540 1.399 . S
C545 C544 1.394 . S
C545 C546 1.516 . S
C546 C545 1.516 . S
C546 C547 1.502 . S
C546 C548 1.561 . S
C546 C549 1.526 . S
C547 H531 0.959 . S
C547 H532 0.959 . S
C547 H533 0.961 . S
C547 C546 1.502 . S
C548 H534 0.960 . S
C548 H535 0.961 . S
C548 H536 0.959 . S
C548 C546 1.561 . S
C549 C546 1.526 . S
C549 C550 1.396 . S
C549 C554 1.390 . S
C550 C544 1.465 . S
C550 C549 1.396 . S
C550 C551 1.399 . S
C551 H537 0.929 . S
C551 C550 1.399 . S
C551 C552 1.385 . S
C552 H538 0.931 . S
C552 C551 1.385 . S
C552 C553 1.389 . S
C553 C552 1.389 . S
C553 C554 1.387 . S
C554 H539 0.930 . S
C554 C549 1.390 . S
C554 C553 1.387 . S
H555 C567 0.930 . S
H556 C569 0.930 . S
H557 C570 0.930 . S
H558 C574 0.959 . S
H559 C574 0.959 . S
H560 C574 0.961 . S
H561 C575 0.960 . S
H562 C575 0.961 . S
H563 C575 0.959 . S
H564 C578 0.929 . S
H565 C579 0.931 . S
H566 C581 0.930 . S
C567 H555 0.930 . S
C567 C568 1.399 . S
C567 C572 1.399 . S
C568 C567 1.399 . S
C568 C569 1.376 . S
C569 H556 0.930 . S
C569 C568 1.376 . S
C569 C570 1.388 . S
C570 H557 0.930 . S
C570 C569 1.388 . S
C570 C571 1.390 . S
C571 C570 1.390 . S
C571 C572 1.394 . S
C571 C577 1.465 . S
C572 C567 1.399 . S
C572 C571 1.394 . S
C572 C573 1.516 . S
C573 C572 1.516 . S
C573 C574 1.502 . S
C573 C575 1.561 . S
C573 C576 1.526 . S
C574 H558 0.959 . S
C574 H559 0.959 . S
C574 H560 0.961 . S
C574 C573 1.502 . S
C575 H561 0.960 . S
C575 H562 0.961 . S
C575 H563 0.959 . S
C575 C573 1.561 . S
C576 C573 1.526 . S
C576 C577 1.396 . S
C576 C581 1.390 . S
C577 C571 1.465 . S
C577 C576 1.396 . S
C577 C578 1.399 . S
C578 H564 0.929 . S
C578 C577 1.399 . S
C578 C579 1.385 . S
C579 H565 0.931 . S
C579 C578 1.385 . S
C579 C580 1.389 . S
C580 C579 1.389 . S
C580 C581 1.387 . S
C581 H566 0.930 . S
C581 C576 1.390 . S
C581 C580 1.387 . S
H582 C594 0.930 . S
H583 C596 0.930 . S
H584 C597 0.930 . S
H585 C601 0.959 . S
H586 C601 0.959 . S
H587 C601 0.961 . S
H588 C602 0.960 . S
H589 C602 0.961 . S
H590 C602 0.959 . S
H591 C605 0.929 . S
H592 C606 0.931 . S
H593 C608 0.930 . S
C594 H582 0.930 . S
C594 C595 1.399 . S
C594 C599 1.399 . S
C595 C594 1.399 . S
C595 C596 1.376 . S
C596 H583 0.930 . S
C596 C595 1.376 . S
C596 C597 1.388 . S
C597 H584 0.930 . S
C597 C596 1.388 . S
C597 C598 1.390 . S
C598 C597 1.390 . S
C598 C599 1.394 . S
C598 C604 1.465 . S
C599 C594 1.399 . S
C599 C598 1.394 . S
C599 C600 1.516 . S
C600 C599 1.516 . S
C600 C601 1.502 . S
C600 C602 1.561 . S
C600 C603 1.526 . S
C601 H585 0.959 . S
C601 H586 0.959 . S
C601 H587 0.961 . S
C601 C600 1.502 . S
C602 H588 0.960 . S
C602 H589 0.961 . S
C602 H590 0.959 . S
C602 C600 1.561 . S
C603 C600 1.526 . S
C603 C604 1.396 . S
C603 C608 1.390 . S
C604 C598 1.465 . S
C604 C603 1.396 . S
C604 C605 1.399 . S
C605 H591 0.929 . S
C605 C604 1.399 . S
C605 C606 1.385 . S
C606 H592 0.931 . S
C606 C605 1.385 . S
C606 C607 1.389 . S
C607 C606 1.389 . S
C607 C608 1.387 . S
C608 H593 0.930 . S
C608 C603 1.390 . S
C608 C607 1.387 . S
H609 C621 0.930 . S
H610 C623 0.930 . S
H611 C624 0.930 . S
H612 C628 0.959 . S
H613 C628 0.959 . S
H614 C628 0.961 . S
H615 C629 0.960 . S
H616 C629 0.961 . S
H617 C629 0.959 . S
H618 C632 0.929 . S
H619 C633 0.931 . S
H620 C635 0.930 . S
C621 H609 0.930 . S
C621 C622 1.399 . S
C621 C626 1.399 . S
C622 C621 1.399 . S
C622 C623 1.376 . S
C623 H610 0.930 . S
C623 C622 1.376 . S
C623 C624 1.388 . S
C624 H611 0.930 . S
C624 C623 1.388 . S
C624 C625 1.390 . S
C625 C624 1.390 . S
C625 C626 1.394 . S
C625 C631 1.465 . S
C626 C621 1.399 . S
C626 C625 1.394 . S
C626 C627 1.516 . S
C627 C626 1.516 . S
C627 C628 1.502 . S
C627 C629 1.561 . S
C627 C630 1.526 . S
C628 H612 0.959 . S
C628 H613 0.959 . S
C628 H614 0.961 . S
C628 C627 1.502 . S
C629 H615 0.960 . S
C629 H616 0.961 . S
C629 H617 0.959 . S
C629 C627 1.561 . S
C630 C627 1.526 . S
C630 C631 1.396 . S
C630 C635 1.390 . S
C631 C625 1.465 . S
C631 C630 1.396 . S
C631 C632 1.399 . S
C632 H618 0.929 . S
C632 C631 1.399 . S
C632 C633 1.385 . S
C633 H619 0.931 . S
C633 C632 1.385 . S
C633 C634 1.389 . S
C634 C633 1.389 . S
C634 C635 1.387 . S
C635 H620 0.930 . S
C635 C630 1.390 . S
C635 C634 1.387 . S
H636 C648 0.930 . S
H637 C650 0.930 . S
H638 C651 0.930 . S
H639 C655 0.959 1_655 S
H640 C655 0.959 . S
H641 C655 0.961 . S
H642 C656 0.960 . S
H643 C656 0.961 . S
H644 C656 0.959 . S
H645 C659 0.929 . S
H646 C660 0.931 . S
H647 C662 0.930 1_556 S
C648 H636 0.930 . S
C648 C649 1.399 . S
C648 C653 1.399 . S
C649 C648 1.399 . S
C649 C650 1.376 . S
C650 H637 0.930 . S
C650 C649 1.376 . S
C650 C651 1.388 . S
C651 H638 0.930 . S
C651 C650 1.388 . S
C651 C652 1.390 . S
C652 C651 1.390 . S
C652 C653 1.394 . S
C652 C658 1.465 . S
C653 C648 1.399 . S
C653 C652 1.394 . S
C653 C654 1.516 . S
C654 C653 1.516 . S
C654 C655 1.502 . S
C654 C656 1.561 . S
C654 C657 1.526 . S
C655 H639 0.959 1_455 S
C655 H640 0.959 . S
C655 H641 0.961 . S
C655 C654 1.502 . S
C656 H642 0.960 . S
C656 H643 0.961 . S
C656 H644 0.959 . S
C656 C654 1.561 . S
C657 C654 1.526 . S
C657 C658 1.396 . S
C657 C662 1.390 . S
C658 C652 1.465 . S
C658 C657 1.396 . S
C658 C659 1.399 . S
C659 H645 0.929 . S
C659 C658 1.399 . S
C659 C660 1.385 1_554 S
C660 H646 0.931 . S
C660 C659 1.385 1_556 S
C660 C661 1.389 . S
C661 C660 1.389 . S
C661 C662 1.387 1_556 S
C662 H647 0.930 1_554 S
C662 C657 1.390 . S
C662 C661 1.387 1_554 S
H663 C675 0.930 . S
H664 C677 0.930 . S
H665 C678 0.930 . S
H666 C682 0.959 . S
H667 C682 0.959 . S
H668 C682 0.961 . S
H669 C683 0.960 . S
H670 C683 0.961 . S
H671 C683 0.959 . S
H672 C686 0.929 . S
H673 C687 0.931 . S
H674 C689 0.930 . S
C675 H663 0.930 . S
C675 C676 1.399 . S
C675 C680 1.399 . S
C676 C675 1.399 . S
C676 C677 1.376 1_545 S
C677 H664 0.930 . S
C677 C676 1.376 1_565 S
C677 C678 1.388 . S
C678 H665 0.930 . S
C678 C677 1.388 . S
C678 C679 1.390 1_565 S
C679 C678 1.390 1_545 S
C679 C680 1.394 . S
C679 C685 1.465 . S
C680 C675 1.399 . S
C680 C679 1.394 . S
C680 C681 1.516 . S
C681 C680 1.516 . S
C681 C682 1.502 . S
C681 C683 1.561 . S
C681 C684 1.526 . S
C682 H666 0.959 . S
C682 H667 0.959 . S
C682 H668 0.961 . S
C682 C681 1.502 . S
C683 H669 0.960 . S
C683 H670 0.961 . S
C683 H671 0.959 . S
C683 C681 1.561 . S
C684 C681 1.526 . S
C684 C685 1.396 . S
C684 C689 1.390 . S
C685 C679 1.465 . S
C685 C684 1.396 . S
C685 C686 1.399 1_545 S
C686 H672 0.929 . S
C686 C685 1.399 1_565 S
C686 C687 1.385 . S
C687 H673 0.931 . S
C687 C686 1.385 . S
C687 C688 1.389 1_565 S
C688 C687 1.389 1_545 S
C688 C689 1.387 . S
C689 H674 0.930 . S
C689 C684 1.390 . S
C689 C688 1.387 . S
H690 C702 0.930 . S
H691 C704 0.930 . S
H692 C705 0.930 . S
H693 C709 0.959 . S
H694 C709 0.959 . S
H695 C709 0.961 . S
H696 C710 0.960 . S
H697 C710 0.961 . S
H698 C710 0.959 . S
H699 C713 0.929 . S
H700 C714 0.931 . S
H701 C716 0.930 . S
C702 H690 0.930 . S
C702 C703 1.399 . S
C702 C707 1.399 . S
C703 C702 1.399 . S
C703 C704 1.376 . S
C704 H691 0.930 . S
C704 C703 1.376 . S
C704 C705 1.388 . S
C705 H692 0.930 . S
C705 C704 1.388 . S
C705 C706 1.390 . S
C706 C705 1.390 . S
C706 C707 1.394 . S
C706 C712 1.465 . S
C707 C702 1.399 . S
C707 C706 1.394 . S
C707 C708 1.516 . S
C708 C707 1.516 . S
C708 C709 1.502 . S
C708 C710 1.561 . S
C708 C711 1.526 . S
C709 H693 0.959 . S
C709 H694 0.959 . S
C709 H695 0.961 . S
C709 C708 1.502 . S
C710 H696 0.960 . S
C710 H697 0.961 . S
C710 H698 0.959 . S
C710 C708 1.561 . S
C711 C708 1.526 . S
C711 C712 1.396 . S
C711 C716 1.390 . S
C712 C706 1.465 . S
C712 C711 1.396 . S
C712 C713 1.399 . S
C713 H699 0.929 . S
C713 C712 1.399 . S
C713 C714 1.385 . S
C714 H700 0.931 . S
C714 C713 1.385 . S
C714 C715 1.389 . S
C715 C714 1.389 . S
C715 C716 1.387 . S
C716 H701 0.930 . S
C716 C711 1.390 . S
C716 C715 1.387 . S
H717 C729 0.930 . S
H718 C731 0.930 . S
H719 C732 0.930 . S
H720 C736 0.959 . S
H721 C736 0.959 . S
H722 C736 0.961 . S
H723 C737 0.960 . S
H724 C737 0.961 . S
H725 C737 0.959 . S
H726 C740 0.929 . S
H727 C741 0.931 . S
H728 C743 0.930 . S
C729 H717 0.930 . S
C729 C730 1.399 1_565 S
C729 C734 1.399 . S
C730 C729 1.399 1_545 S
C730 C731 1.376 . S
C731 H718 0.930 . S
C731 C730 1.376 . S
C731 C732 1.388 . S
C732 H719 0.930 . S
C732 C731 1.388 . S
C732 C733 1.390 . S
C733 C732 1.390 . S
C733 C734 1.394 1_545 S
C733 C739 1.465 . S
C734 C729 1.399 . S
C734 C733 1.394 1_565 S
C734 C735 1.516 . S
C735 C734 1.516 . S
C735 C736 1.502 . S
C735 C737 1.561 . S
C735 C738 1.526 . S
C736 H720 0.959 . S
C736 H721 0.959 . S
C736 H722 0.961 . S
C736 C735 1.502 . S
C737 H723 0.960 . S
C737 H724 0.961 . S
C737 H725 0.959 . S
C737 C735 1.561 . S
C738 C735 1.526 . S
C738 C739 1.396 1_565 S
C738 C743 1.390 . S
C739 C733 1.465 . S
C739 C738 1.396 1_545 S
C739 C740 1.399 . S
C740 H726 0.929 . S
C740 C739 1.399 . S
C740 C741 1.385 . S
C741 H727 0.931 . S
C741 C740 1.385 . S
C741 C742 1.389 . S
C742 C741 1.389 . S
C742 C743 1.387 1_545 S
C743 H728 0.930 . S
C743 C738 1.390 . S
C743 C742 1.387 1_565 S
H744 C756 0.930 . S
H745 C758 0.930 . S
H746 C759 0.930 . S
H747 C763 0.959 . S
H748 C763 0.959 . S
H749 C763 0.961 . S
H750 C764 0.960 . S
H751 C764 0.961 . S
H752 C764 0.959 . S
H753 C767 0.929 . S
H754 C768 0.931 1_554 S
H755 C770 0.930 . S
C756 H744 0.930 . S
C756 C757 1.399 . S
C756 C761 1.399 . S
C757 C756 1.399 . S
C757 C758 1.376 . S
C758 H745 0.930 . S
C758 C757 1.376 . S
C758 C759 1.388 . S
C759 H746 0.930 . S
C759 C758 1.388 . S
C759 C760 1.390 . S
C760 C759 1.390 . S
C760 C761 1.394 . S
C760 C766 1.465 . S
C761 C756 1.399 . S
C761 C760 1.394 . S
C761 C762 1.516 . S
C762 C761 1.516 . S
C762 C763 1.502 . S
C762 C764 1.561 . S
C762 C765 1.526 . S
C763 H747 0.959 . S
C763 H748 0.959 . S
C763 H749 0.961 . S
C763 C762 1.502 . S
C764 H750 0.960 . S
C764 H751 0.961 . S
C764 H752 0.959 . S
C764 C762 1.561 . S
C765 C762 1.526 . S
C765 C766 1.396 . S
C765 C770 1.390 . S
C766 C760 1.465 . S
C766 C765 1.396 . S
C766 C767 1.399 . S
C767 H753 0.929 . S
C767 C766 1.399 . S
C767 C768 1.385 . S
C768 H754 0.931 1_556 S
C768 C767 1.385 . S
C768 C769 1.389 1_556 S
C769 C768 1.389 1_554 S
C769 C770 1.387 1_554 S
C770 H755 0.930 . S
C770 C765 1.390 . S
C770 C769 1.387 1_556 S
H771 C783 0.930 . S
H772 C785 0.930 . S
H773 C786 0.930 . S
H774 C790 0.959 . S
H775 C790 0.959 . S
H776 C790 0.961 . S
H777 C791 0.960 . S
H778 C791 0.961 . S
H779 C791 0.959 . S
H780 C794 0.929 . S
H781 C795 0.931 . S
H782 C797 0.930 . S
C783 H771 0.930 . S
C783 C784 1.399 1_655 S
C783 C788 1.399 . S
C784 C783 1.399 1_455 S
C784 C785 1.376 . S
C785 H772 0.930 . S
C785 C784 1.376 . S
C785 C786 1.388 . S
C786 H773 0.930 . S
C786 C785 1.388 . S
C786 C787 1.390 . S
C787 C786 1.390 . S
C787 C788 1.394 1_455 S
C787 C793 1.465 . S
C788 C783 1.399 . S
C788 C787 1.394 1_655 S
C788 C789 1.516 . S
C789 C788 1.516 . S
C789 C790 1.502 . S
C789 C791 1.561 . S
C789 C792 1.526 . S
C790 H774 0.959 . S
C790 H775 0.959 . S
C790 H776 0.961 . S
C790 C789 1.502 . S
C791 H777 0.960 . S
C791 H778 0.961 . S
C791 H779 0.959 . S
C791 C789 1.561 . S
C792 C789 1.526 . S
C792 C793 1.396 1_655 S
C792 C797 1.390 . S
C793 C787 1.465 . S
C793 C792 1.396 1_455 S
C793 C794 1.399 . S
C794 H780 0.929 . S
C794 C793 1.399 . S
C794 C795 1.385 . S
C795 H781 0.931 . S
C795 C794 1.385 . S
C795 C796 1.389 . S
C796 C795 1.389 . S
C796 C797 1.387 1_455 S
C797 H782 0.930 . S
C797 C792 1.390 . S
C797 C796 1.387 1_655 S
C325 C7 0.583 . S
C337 C303 0.592 . S
C352 C51 1.884 . S
C364 C239 1.851 . S
C379 C87 1.200 . S
C391 C271 1.233 . S
C406 C16 0.436 . S
C418 C297 0.371 . S
C445 C233 1.906 . S
C433 C42 1.959 . S
C472 C265 1.288 . S
C460 C96 1.329 . S
C487 C47 1.171 . S
C499 C175 1.202 . S
C514 C91 3.049 . S
C526 C207 2.980 . S
C541 C2 1.987 . S
C553 C137 1.944 . S
C580 C169 1.304 . S
C568 C56 1.268 . S
C607 C201 2.944 . S
C595 C82 2.969 . S
C622 C11 1.871 . S
C634 C143 1.800 . S
C661 C213 1.755 . S
C649 C19 1.737 . S
C676 C50 1.299 . S
C688 C149 1.320 . S
C703 C99 1.484 . S
C715 C181 1.474 . S
C742 C277 1.414 . S
C730 C59 1.462 . S
C769 C309 1.119 . S
C757 C90 1.067 . S
C784 C10 1.316 . S
C796 C245 1.330 . S
