# Generated by pormake.
# Topology pyr, (3,6)-cn, num edge types: 1
# Building blocks:
#     Node 0, Type 0, BuildingBlock: CUQRIR_clean_linker_1, # of connection points: 3
#     Node 1, Type 0, BuildingBlock: CUQRIR_clean_linker_1, # of connection points: 3
#     Node 2, Type 0, BuildingBlock: CUQRIR_clean_linker_1, # of connection points: 3
#     Node 3, Type 0, BuildingBlock: CUQRIR_clean_linker_1, # of connection points: 3
#     Node 4, Type 0, BuildingBlock: CUQRIR_clean_linker_1, # of connection points: 3
#     Node 5, Type 0, BuildingBlock: CUQRIR_clean_linker_1, # of connection points: 3
#     Node 6, Type 0, BuildingBlock: CUQRIR_clean_linker_1, # of connection points: 3
#     Node 7, Type 0, BuildingBlock: CUQRIR_clean_linker_1, # of connection points: 3
#     Node 8, Type 1, BuildingBlock: BETFAJ_clean_sbu_0, # of connection points: 6
#     Node 9, Type 1, BuildingBlock: BETFAJ_clean_sbu_0, # of connection points: 6
#     Node 10, Type 1, BuildingBlock: BETFAJ_clean_sbu_0, # of connection points: 6
#     Node 11, Type 1, BuildingBlock: BETFAJ_clean_sbu_0, # of connection points: 6
#     Edge 12, Type (0, 1), BuildingBlock: TEMPAE_clean_linker_10, # of connection points: 2
#     Edge 13, Type (0, 1), BuildingBlock: TEMPAE_clean_linker_10, # of connection points: 2
#     Edge 14, Type (0, 1), BuildingBlock: TEMPAE_clean_linker_10, # of connection points: 2
#     Edge 15, Type (0, 1), BuildingBlock: TEMPAE_clean_linker_10, # of connection points: 2
#     Edge 16, Type (0, 1), BuildingBlock: TEMPAE_clean_linker_10, # of connection points: 2
#     Edge 17, Type (0, 1), BuildingBlock: TEMPAE_clean_linker_10, # of connection points: 2
#     Edge 18, Type (0, 1), BuildingBlock: TEMPAE_clean_linker_10, # of connection points: 2
#     Edge 19, Type (0, 1), BuildingBlock: TEMPAE_clean_linker_10, # of connection points: 2
#     Edge 20, Type (0, 1), BuildingBlock: TEMPAE_clean_linker_10, # of connection points: 2
#     Edge 21, Type (0, 1), BuildingBlock: TEMPAE_clean_linker_10, # of connection points: 2
#     Edge 22, Type (0, 1), BuildingBlock: TEMPAE_clean_linker_10, # of connection points: 2
#     Edge 23, Type (0, 1), BuildingBlock: TEMPAE_clean_linker_10, # of connection points: 2
#     Edge 24, Type (0, 1), BuildingBlock: TEMPAE_clean_linker_10, # of connection points: 2
#     Edge 25, Type (0, 1), BuildingBlock: TEMPAE_clean_linker_10, # of connection points: 2
#     Edge 26, Type (0, 1), BuildingBlock: TEMPAE_clean_linker_10, # of connection points: 2
#     Edge 27, Type (0, 1), BuildingBlock: TEMPAE_clean_linker_10, # of connection points: 2
#     Edge 28, Type (0, 1), BuildingBlock: TEMPAE_clean_linker_10, # of connection points: 2
#     Edge 29, Type (0, 1), BuildingBlock: TEMPAE_clean_linker_10, # of connection points: 2
#     Edge 30, Type (0, 1), BuildingBlock: TEMPAE_clean_linker_10, # of connection points: 2
#     Edge 31, Type (0, 1), BuildingBlock: TEMPAE_clean_linker_10, # of connection points: 2
#     Edge 32, Type (0, 1), BuildingBlock: TEMPAE_clean_linker_10, # of connection points: 2
#     Edge 33, Type (0, 1), BuildingBlock: TEMPAE_clean_linker_10, # of connection points: 2
#     Edge 34, Type (0, 1), BuildingBlock: TEMPAE_clean_linker_10, # of connection points: 2
#     Edge 35, Type (0, 1), BuildingBlock: TEMPAE_clean_linker_10, # of connection points: 2
# Relax obj value: 0.203
# Max RMSD: 0.258
# Mean RMSD: 0.169
data_MOF--net-pyr--node1-BETFAJ_clean_sbu_0--node2-CUQRIR_clean_linker_1--edge1-TEMPAE_clean_linker_10
_symmetry_space_group_name_H-M    P1
_symmetry_Int_Tables_number       1
_symmetry_cell_setting            triclinic
loop_
_symmetry_equiv_pos_as_xyz
'x, y, z'
_cell_length_a     35.908679
_cell_length_b     38.888268
_cell_length_c     34.975441
_cell_angle_alpha  90.198639
_cell_angle_beta   90.306789
_cell_angle_gamma 103.58206
loop_
_atom_site_label
_atom_site_type_symbol
_atom_site_fract_x
_atom_site_fract_y
_atom_site_fract_z
_atom_type_partial_charge
C0 C 0.33649 0.35261 0.21434 0.0
N1 N 0.35443 0.32617 0.22047 0.0
N2 N 0.34692 0.36844 0.18036 0.0
C3 C 0.30391 0.35866 0.23864 0.0
C4 C 0.37146 0.35019 0.16574 0.0
N5 N 0.37599 0.3243 0.19011 0.0
C6 C 0.3907 0.35798 0.12768 0.0
H7 H 0.28312 0.33314 0.24381 0.0
H8 H 0.2882 0.37698 0.22556 0.0
H9 H 0.31541 0.3695 0.26682 0.0
H10 H 0.39475 0.38644 0.1207 0.0
H11 H 0.37218 0.34242 0.10516 0.0
H12 H 0.41883 0.3508 0.12764 0.0
C13 C 0.29826 0.92833 0.62087 0.0
N14 N 0.27901 0.94068 0.6488 0.0
N15 N 0.31935 0.90715 0.6358 0.0
C16 C 0.29594 0.93636 0.57902 0.0
C17 C 0.31226 0.90696 0.67376 0.0
N18 N 0.28712 0.92704 0.68167 0.0
C19 C 0.33316 0.89049 0.70341 0.0
H20 H 0.30422 0.91576 0.56114 0.0
H21 H 0.31584 0.96221 0.57302 0.0
H22 H 0.26653 0.93835 0.57114 0.0
H23 H 0.34153 0.90865 0.72816 0.0
H24 H 0.35923 0.88385 0.69162 0.0
H25 H 0.31375 0.86585 0.71394 0.0
C26 C 0.61754 0.37721 0.8628 0.0
N27 N 0.63976 0.37238 0.89376 0.0
N28 N 0.63168 0.40865 0.84429 0.0
C29 C 0.58378 0.34955 0.84826 0.0
C30 C 0.6638 0.42272 0.86546 0.0
N31 N 0.66925 0.40111 0.89486 0.0
C32 C 0.68905 0.45901 0.85895 0.0
H33 H 0.58696 0.32257 0.8552 0.0
H34 H 0.58059 0.35161 0.81684 0.0
H35 H 0.55732 0.35356 0.86196 0.0
H36 H 0.67273 0.47678 0.84554 0.0
H37 H 0.71286 0.45671 0.83976 0.0
H38 H 0.70171 0.47118 0.8862 0.0
C39 C 0.83622 0.70534 0.35251 0.0
N40 N 0.8692 0.7298 0.343 0.0
N41 N 0.81843 0.71534 0.38364 0.0
C42 C 0.82082 0.67145 0.33071 0.0
C43 C 0.84213 0.74701 0.39318 0.0
N44 N 0.87277 0.75657 0.36897 0.0
C45 C 0.83616 0.76827 0.42783 0.0
H46 H 0.82645 0.67497 0.29968 0.0
H47 H 0.78952 0.66175 0.33482 0.0
H48 H 0.83537 0.65104 0.34115 0.0
H49 H 0.86392 0.78252 0.44047 0.0
H50 H 0.81954 0.75106 0.45007 0.0
H51 H 0.82011 0.78815 0.41917 0.0
C52 C 0.666 0.83378 0.89432 0.0
N53 N 0.6925 0.82343 0.8725 0.0
N54 N 0.64935 0.8563 0.87468 0.0
C55 C 0.65913 0.82492 0.93595 0.0
C56 C 0.66666 0.85886 0.8401 0.0
N57 N 0.69283 0.83896 0.83875 0.0
C58 C 0.66041 0.88302 0.80847 0.0
H59 H 0.62801 0.81617 0.94148 0.0
H60 H 0.67053 0.84898 0.95346 0.0
H61 H 0.67284 0.80354 0.94513 0.0
H62 H 0.68329 0.90777 0.80969 0.0
H63 H 0.63211 0.88964 0.8111 0.0
H64 H 0.66235 0.87032 0.7803 0.0
C65 C 0.7992 0.27618 0.48978 0.0
N66 N 0.81427 0.26072 0.46095 0.0
N67 N 0.77838 0.29818 0.47576 0.0
C68 C 0.80418 0.26919 0.53149 0.0
C69 C 0.78109 0.29518 0.43728 0.0
N70 N 0.80343 0.27275 0.42829 0.0
C71 C 0.7572 0.30985 0.40877 0.0
H72 H 0.79974 0.29153 0.54933 0.0
H73 H 0.83319 0.26482 0.537 0.0
H74 H 0.78287 0.24483 0.53976 0.0
H75 H 0.77276 0.33704 0.40097 0.0
H76 H 0.72919 0.31122 0.42112 0.0
H77 H 0.75166 0.29364 0.38231 0.0
C78 C 0.34435 0.7158 0.24709 0.0
N79 N 0.37586 0.74073 0.25955 0.0
N80 N 0.3276 0.72658 0.21581 0.0
C81 C 0.33025 0.67992 0.26493 0.0
C82 C 0.35022 0.7592 0.20904 0.0
N83 N 0.37953 0.76844 0.23515 0.0
C84 C 0.34237 0.78344 0.17797 0.0
H85 H 0.35454 0.66954 0.27581 0.0
H86 H 0.31351 0.66075 0.24406 0.0
H87 H 0.31137 0.68228 0.28933 0.0
H88 H 0.33183 0.80534 0.19113 0.0
H89 H 0.32052 0.76974 0.15717 0.0
H90 H 0.3692 0.79531 0.16252 0.0
C91 C 0.12447 0.38866 0.7471 0.0
N92 N 0.14751 0.38306 0.71721 0.0
N93 N 0.13931 0.41941 0.7669 0.0
C94 C 0.08842 0.36277 0.75902 0.0
C95 C 0.17275 0.43237 0.74782 0.0
N96 N 0.17809 0.41102 0.71781 0.0
C97 C 0.20047 0.46636 0.75912 0.0
H98 H 0.06386 0.36804 0.74259 0.0
H99 H 0.08283 0.36571 0.78989 0.0
H100 H 0.09037 0.33517 0.75329 0.0
H101 H 0.21753 0.4612 0.78407 0.0
H102 H 0.18463 0.48637 0.76793 0.0
H103 H 0.22065 0.47739 0.73601 0.0
Sm104 Sm 0.03859 0.08685 0.49366 0.0
Sm105 Sm 0.01503 0.05452 0.56987 0.0
C106 C 0.05332 0.12484 0.43052 0.0
C107 C 0.0876 0.1487 0.41506 0.0
C108 C 0.08686 0.16172 0.37791 0.0
C109 C 0.1206 0.18069 0.36108 0.0
C110 C 0.15565 0.1868 0.38117 0.0
C111 C 0.15603 0.17439 0.41884 0.0
C112 C 0.12221 0.15547 0.43567 0.0
C113 C 0.09349 0.06 0.53016 0.0
C114 C 0.05779 0.14055 0.57203 0.0
C115 C 1.00602 1.0145 0.63178 0.0
C116 C 0.97824 0.98298 0.64506 0.0
C117 C 0.98003 0.97187 0.6829 0.0
C118 C 0.95035 0.94553 0.69778 0.0
C119 C 0.91835 0.93004 0.675 0.0
C120 C 0.91783 0.93988 0.63635 0.0
C121 C 0.94755 0.96622 0.62151 0.0
C122 C 0.96206 0.08603 0.53827 0.0
C123 C 0.99366 1.00176 0.49052 0.0
O124 O 0.0381 0.13572 0.46081 0.0
O125 O 0.0555 0.09191 0.43292 0.0
O126 O 0.07241 0.07751 0.5453 0.0
O127 O 0.08803 0.05774 0.49357 0.0
O128 O 0.05382 0.13817 0.534 0.0
O129 O 0.04869 0.11088 0.59253 0.0
O130 O 0.02798 1.01011 0.60328 0.0
O131 O 0.9926 0.04282 0.62835 0.0
O132 O 0.98046 0.06758 0.51967 0.0
O133 O 0.96825 0.08487 0.57474 0.0
O134 O 0.99637 1.00386 0.52865 0.0
O135 O 1.00454 0.0313 0.47034 0.0
H136 H 0.06043 0.15627 0.3615 0.0
H137 H 0.11946 0.18954 0.33186 0.0
H138 H 0.18249 0.17903 0.43513 0.0
H139 H 0.12321 0.14527 0.46436 0.0
H140 H 1.00347 0.98472 0.70147 0.0
H141 H 0.9514 0.93888 0.72775 0.0
H142 H 0.89374 0.92819 0.61802 0.0
H143 H 0.94577 0.97458 0.59217 0.0
Sm144 Sm 0.55093 0.07748 0.10155 0.0
Sm145 Sm 0.48873 0.07299 0.06183 0.0
C146 C 0.62143 0.08447 0.12897 0.0
C147 C 0.65324 0.11107 0.1454 0.0
C148 C 0.65364 0.14718 0.14427 0.0
C149 C 0.68161 0.17154 0.16467 0.0
C150 C 0.70924 0.16 0.18675 0.0
C151 C 0.70971 0.12393 0.18598 0.0
C152 C 0.68193 0.09972 0.16545 0.0
C153 C 0.49712 1.01797 0.13027 0.0
C154 C 0.49828 0.12379 0.13444 0.0
C155 C 0.41799 0.06663 0.03462 0.0
C156 C 0.39281 0.04562 1.0056 0.0
C157 C 0.39725 1.01214 0.99448 0.0
C158 C 0.37585 0.99426 0.9639 0.0
C159 C 0.35002 1.00978 0.94365 0.0
C160 C 0.34476 0.04279 0.95592 0.0
C161 C 0.36599 0.06052 0.98664 0.0
C162 C 0.54441 0.13148 0.03297 0.0
C163 C 0.54163 1.02915 0.02447 0.0
O164 O 0.61384 0.08734 0.09275 0.0
O165 O 0.5907 0.07604 0.14987 0.0
O166 O 0.5027 1.02568 0.09484 0.0
O167 O 0.5172 0.04382 0.15047 0.0
O168 O 0.53459 0.1261 0.12769 0.0
O169 O 0.47338 0.09812 0.11771 0.0
O170 O 0.42587 0.05006 0.06483 0.0
O171 O 0.44791 0.08899 1.02151 0.0
O172 O 0.53752 0.1244 0.06826 0.0
O173 O 0.52432 0.10556 1.01276 0.0
O174 O 0.50557 1.03026 0.02574 0.0
O175 O 0.56623 0.04903 0.04797 0.0
H176 H 0.63157 0.15631 0.12883 0.0
H177 H 0.68073 0.19919 0.16435 0.0
H178 H 0.73007 0.11398 0.2031 0.0
H179 H 0.68183 0.07185 0.16667 0.0
H180 H 0.41798 1.00027 1.00872 0.0
H181 H 0.38022 0.96867 0.9555 0.0
H182 H 0.32559 0.05575 0.94068 0.0
H183 H 0.36244 0.08648 0.99474 0.0
Sm184 Sm 0.49019 0.53912 0.52632 0.0
Sm185 Sm 0.50237 0.59418 0.57069 0.0
C186 C 0.49841 0.48382 0.48529 0.0
C187 C 0.516 0.45392 0.49178 0.0
C188 C 0.51749 0.43966 0.52844 0.0
C189 C 0.5399 0.41533 0.53522 0.0
C190 C 0.56125 0.4051 0.50545 0.0
C191 C 0.55828 0.4185 0.46849 0.0
C192 C 0.53581 0.4426 0.46176 0.0
C193 C 0.42236 0.53216 0.56809 0.0
C194 C 0.52875 0.53065 0.61318 0.0
C195 C 0.49679 0.65127 0.60913 0.0
C196 C 0.49506 0.68725 0.59785 0.0
C197 C 0.46755 0.69268 0.57132 0.0
C198 C 0.46414 0.72677 0.56302 0.0
C199 C 0.48835 0.75625 0.58082 0.0
C200 C 0.51769 0.75082 0.60526 0.0
C201 C 0.52084 0.71656 0.61389 0.0
C202 C 0.56941 0.59869 0.52808 0.0
C203 C 0.46732 0.60671 0.48408 0.0
O204 O 0.52246 0.5146 0.48453 0.0
O205 O 0.46746 0.48434 0.50432 0.0
O206 O 0.45637 0.54222 0.58194 0.0
O207 O 0.42437 0.52936 0.53116 0.0
O208 O 0.52384 0.51823 0.57755 0.0
O209 O 0.51914 0.56069 0.61996 0.0
O210 O 0.46721 0.62587 0.59987 0.0
O211 O 0.5294 0.64275 0.60368 0.0
O212 O 0.53524 0.59065 0.51496 0.0
O213 O 0.56822 0.60171 0.56498 0.0
O214 O 0.47657 0.6202 0.51858 0.0
O215 O 0.47 0.57371 0.47837 0.0
H216 H 0.50245 0.44822 0.55206 0.0
H217 H 0.54128 0.40525 0.56389 0.0
H218 H 0.57488 0.41182 0.44503 0.0
H219 H 0.53535 0.4537 0.43342 0.0
H220 H 0.44762 0.67061 0.55796 0.0
H221 H 0.44084 0.72968 0.54447 0.0
H222 H 0.53722 0.77297 0.61895 0.0
H223 H 0.54273 0.71292 0.63389 0.0
Sm224 Sm 0.99612 0.54544 0.07918 0.0
Sm225 Sm 0.99742 0.59547 0.03084 0.0
C226 C 0.01548 0.49646 0.12256 0.0
C227 C 0.0511 0.48381 0.12439 0.0
C228 C 0.06648 0.47783 0.15996 0.0
C229 C 0.10182 0.46862 0.16222 0.0
C230 C 0.12246 0.46503 0.12887 0.0
C231 C 0.10682 0.47102 0.09321 0.0
C232 C 0.07165 0.48051 0.09101 0.0
C233 C 0.96174 0.59549 0.11718 0.0
C234 C 0.07554 0.60628 0.07908 0.0
C235 C 0.98421 0.64767 0.98744 0.0
C236 C 0.95219 0.66297 0.97531 0.0
C237 C 0.92537 0.66977 1.00165 0.0
C238 C 0.89639 0.68593 0.98972 0.0
C239 C 0.89344 0.69537 0.95118 0.0
C240 C 0.91994 0.68781 0.92482 0.0
C241 C 0.94905 0.67188 0.93682 0.0
C242 C 0.03667 0.54916 0.9941 0.0
C243 C 0.9184 0.53019 0.03024 0.0
O244 O 0.99488 0.48906 0.0915 0.0
O245 O 0.01864 0.52893 0.13385 0.0
O246 O 0.99166 0.60252 0.09627 0.0
O247 O 0.94768 0.56152 0.11535 0.0
O248 O 0.06155 0.57201 0.08215 0.0
O249 O 0.05385 0.62452 0.06189 0.0
O250 O 0.99466 0.65149 0.0232 0.0
O251 O 0.98452 0.61645 0.97417 0.0
O252 O 1.00585 0.53973 1.01376 0.0
O253 O 0.04842 0.58329 0.99671 0.0
O254 O 0.93249 0.56419 0.02302 0.0
O255 O 0.93954 0.51413 0.05121 0.0
H256 H 0.05147 0.48091 0.18607 0.0
H257 H 0.11326 0.4649 0.19021 0.0
H258 H 0.1216 0.46813 0.06692 0.0
H259 H 0.06072 0.48561 0.06318 0.0
H260 H 0.92707 0.66306 0.03154 0.0
H261 H 0.8768 0.69169 1.01091 0.0
H262 H 0.91815 0.69412 0.89483 0.0
H263 H 0.96936 0.66673 0.91602 0.0
C264 C 0.34319 0.30639 0.28666 0.0
C265 C 0.34134 0.29836 0.2476 0.0
C266 C 0.31895 0.28452 0.31252 0.0
C267 C 0.2924 0.25411 0.29864 0.0
C268 C 0.29401 0.2437 0.25993 0.0
C269 C 0.31857 0.26611 0.23477 0.0
C270 C 0.31871 0.29627 0.35366 0.0
C271 C 0.26659 0.21128 0.24399 0.0
C272 C 0.22489 0.19214 0.36528 0.0
C273 C 0.19169 0.20519 0.36225 0.0
C274 C 0.25836 0.20814 0.3454 0.0
C275 C 0.25845 0.23771 0.32195 0.0
C276 C 0.22528 0.25146 0.31959 0.0
C277 C 0.1924 0.23507 0.33982 0.0
C278 C 0.29322 0.1929 0.34873 0.0
C279 C 0.22424 0.2832 0.29516 0.0
H280 H 0.36099 0.33147 0.29625 0.0
H281 H 0.31712 0.26024 0.20441 0.0
H282 H 0.29454 0.30914 0.35796 0.0
H283 H 0.31452 0.27335 0.37328 0.0
H284 H 0.34572 0.31557 0.36156 0.0
H285 H 0.27623 0.20328 0.21589 0.0
H286 H 0.26328 0.18873 0.26401 0.0
H287 H 0.23797 0.21703 0.24004 0.0
H288 H 0.22438 0.16882 0.38233 0.0
H289 H 0.16704 0.2456 0.33793 0.0
H290 H 0.31896 0.21405 0.35577 0.0
H291 H 0.29861 0.18127 0.32089 0.0
H292 H 0.28973 0.17203 0.37091 0.0
H293 H 0.24701 0.30625 0.30455 0.0
H294 H 0.19623 0.29062 0.2966 0.0
H295 H 0.22986 0.27757 0.26489 0.0
C296 C 0.29237 0.97467 0.72868 0.0
C297 C 0.27937 0.93893 0.71908 0.0
C298 C 0.29557 0.98557 0.76702 0.0
C299 C 0.28568 0.95993 0.79622 0.0
C300 C 0.26866 0.92434 0.7864 0.0
C301 C 0.26567 0.91425 0.74774 0.0
C302 C 0.31344 1.02387 0.77619 0.0
C303 C 0.25728 0.89626 0.81657 0.0
C304 C 0.35276 0.97879 0.88142 0.0
C305 C 0.33145 0.99338 0.90779 0.0
C306 C 0.33745 0.96656 0.84566 0.0
C307 C 0.2999 0.96913 0.83578 0.0
C308 C 0.2776 0.98254 0.86271 0.0
C309 C 0.29367 0.99455 0.89846 0.0
C310 C 0.36217 0.95222 0.8178 0.0
C311 C 0.23737 0.98536 0.85328 0.0
H312 H 0.30322 0.99358 0.70637 0.0
H313 H 0.25536 0.88664 0.73997 0.0
H314 H 0.2979 0.03346 0.79975 0.0
H315 H 0.34348 1.02647 0.78582 0.0
H316 H 0.31362 0.04116 0.75093 0.0
H317 H 0.23758 0.87205 0.8049 0.0
H318 H 0.28333 0.88886 0.82765 0.0
H319 H 0.24326 0.90623 0.84104 0.0
H320 H 0.38214 0.97827 0.88806 0.0
H321 H 0.27685 1.00537 0.91889 0.0
H322 H 0.36799 0.96961 0.79237 0.0
H323 H 0.34698 0.92551 0.80768 0.0
H324 H 0.39001 0.9504 0.83062 0.0
H325 H 0.23833 1.00594 0.83118 0.0
H326 H 0.22231 0.99245 0.87873 0.0
H327 H 0.22042 0.96003 0.84124 0.0
C328 C 0.57736 0.42345 0.80541 0.0
C329 C 0.61662 0.42385 0.80997 0.0
C330 C 0.56288 0.43896 0.77309 0.0
C331 C 0.58782 0.4565 0.74384 0.0
C332 C 0.62744 0.45684 0.74825 0.0
C333 C 0.641 0.44041 0.78036 0.0
C334 C 0.52047 0.43672 0.77041 0.0
C335 C 0.65598 0.4752 0.71909 0.0
C336 C 0.54849 0.47609 0.64275 0.0
C337 C 0.54459 0.51134 0.6459 0.0
C338 C 0.56195 0.45809 0.67382 0.0
C339 C 0.57288 0.47533 0.70972 0.0
C340 C 0.56953 0.51106 0.71274 0.0
C341 C 0.55536 0.52815 0.68156 0.0
C342 C 0.5641 0.42016 0.66819 0.0
C343 C 0.58126 0.53165 0.74921 0.0
H344 H 0.55773 0.41139 0.82759 0.0
H345 H 0.67115 0.44065 0.78225 0.0
H346 H 0.51515 0.46364 0.77234 0.0
H347 H 0.50921 0.42543 0.7423 0.0
H348 H 0.50422 0.42021 0.79344 0.0
H349 H 0.68581 0.47422 0.7266 0.0
H350 H 0.64878 0.46272 0.6906 0.0
H351 H 0.65456 0.5033 0.71656 0.0
H352 H 0.54047 0.46219 0.61598 0.0
H353 H 0.55297 0.55523 0.6852 0.0
H354 H 0.54747 0.40337 0.69076 0.0
H355 H 0.59425 0.418 0.67093 0.0
H356 H 0.55294 0.40958 0.63977 0.0
H357 H 0.56334 0.51866 0.77321 0.0
H358 H 0.57843 0.55942 0.74712 0.0
H359 H 0.61146 0.53185 0.75636 0.0
C360 C 0.88411 0.72839 0.27253 0.0
C361 C 0.89414 0.7234 0.31103 0.0
C362 C 0.89678 0.71048 0.24073 0.0
C363 C 0.9205 0.68598 0.2461 0.0
C364 C 0.93202 0.68199 0.28475 0.0
C365 C 0.91861 0.69998 0.316 0.0
C366 C 0.88261 0.71631 0.20122 0.0
C367 C 0.95723 0.65703 0.29358 0.0
C368 C 0.91811 0.60816 0.17212 0.0
C369 C 0.95114 0.61961 0.14924 0.0
C370 C 0.90797 0.62913 0.2026 0.0
C371 C 0.93118 0.66327 0.21223 0.0
C372 C 0.96462 0.67504 0.18923 0.0
C373 C 0.97391 0.65362 0.15855 0.0
C374 C 0.87191 0.61442 0.2248 0.0
C375 C 0.99116 0.71051 0.19732 0.0
H376 H 0.86378 0.74452 0.26744 0.0
H377 H 0.92548 0.6939 0.34502 0.0
H378 H 0.90684 0.72227 0.18086 0.0
H379 H 0.86247 0.69174 0.19109 0.0
H380 H 0.86762 0.73825 0.20054 0.0
H381 H 0.96761 0.65955 0.32367 0.0
H382 H 0.94094 0.62939 0.28859 0.0
H383 H 0.98233 0.66205 0.27426 0.0
H384 H 0.89975 0.58232 0.16618 0.0
H385 H 0.9996 0.66353 0.14203 0.0
H386 H 0.85278 0.63304 0.22354 0.0
H387 H 0.87913 0.61161 0.25533 0.0
H388 H 0.85602 0.58824 0.21375 0.0
H389 H 0.97529 0.73168 0.19471 0.0
H390 H 0.01596 0.7164 0.17759 0.0
H391 H 1.00203 0.71127 0.22715 0.0
C392 C 0.41951 0.28858 0.21389 0.0
C393 C 0.39718 0.29742 0.18418 0.0
C394 C 0.43818 0.26081 0.20981 0.0
C395 C 0.43502 0.24189 0.17483 0.0
C396 C 0.41303 0.25117 0.14446 0.0
C397 C 0.39387 0.27841 0.14975 0.0
C398 C 0.46056 0.25125 0.24316 0.0
C399 C 0.40922 0.23195 0.10653 0.0
C400 C 0.50692 0.18832 0.14729 0.0
C401 C 0.48505 0.1536 0.15158 0.0
C402 C 0.49148 0.21744 0.15589 0.0
C403 C 0.45363 0.21166 0.17008 0.0
C404 C 0.43244 0.17664 0.17691 0.0
C405 C 0.4482 0.14802 0.16703 0.0
C406 C 0.51474 0.25426 0.1474 0.0
C407 C 0.39239 0.16934 0.19293 0.0
H408 H 0.42192 0.30323 0.24056 0.0
H409 H 0.37557 0.28429 0.12723 0.0
H410 H 0.44817 0.22349 0.25173 0.0
H411 H 0.49067 0.25298 0.23472 0.0
H412 H 0.46046 0.26875 0.26831 0.0
H413 H 0.39327 0.24396 0.08505 0.0
H414 H 0.438 0.23214 0.095 0.0
H415 H 0.39397 0.2039 0.11048 0.0
H416 H 0.53523 0.19276 0.13482 0.0
H417 H 0.43123 0.1212 0.17034 0.0
H418 H 0.51564 0.27172 0.17269 0.0
H419 H 0.50093 0.26575 0.12374 0.0
H420 H 0.54457 0.25444 0.13896 0.0
H421 H 0.39157 0.186 0.21859 0.0
H422 H 0.38163 0.14111 0.20082 0.0
H423 H 0.37259 0.17622 0.17139 0.0
C424 C 0.21317 0.94746 0.64735 0.0
C425 C 0.25228 0.96231 0.64332 0.0
C426 C 0.18609 0.96503 0.63326 0.0
C427 C 0.19891 0.99828 0.6153 0.0
C428 C 0.23851 1.01458 0.61422 0.0
C429 C 0.26483 0.99614 0.62803 0.0
C430 C 0.14411 0.94675 0.63477 0.0
C431 C 0.25323 0.05029 0.596 0.0
C432 C 0.13953 1.02129 0.53377 0.0
C433 C 0.12069 0.04451 0.5517 0.0
C434 C 0.16477 1.00572 0.55441 0.0
C435 C 0.1715 1.01401 0.59371 0.0
C436 C 0.15262 0.03758 0.6119 0.0
C437 C 0.12719 0.05244 0.59066 0.0
C438 C 0.18418 0.98036 0.53418 0.0
C439 C 0.15946 0.04725 0.65362 0.0
H440 H 0.20397 0.92105 0.65901 0.0
H441 H 0.29533 1.00722 0.62515 0.0
H442 H 0.12693 0.96525 0.64479 0.0
H443 H 0.13383 0.93782 0.60559 0.0
H444 H 0.13867 0.92335 0.65386 0.0
H445 H 0.28412 0.06127 0.60223 0.0
H446 H 0.24932 0.04779 0.56454 0.0
H447 H 0.23679 0.06936 0.60617 0.0
H448 H 0.13425 1.01503 0.5037 0.0
H449 H 0.11252 0.07041 0.60455 0.0
H450 H 0.17757 0.95442 0.5489 0.0
H451 H 0.21572 0.99064 0.53524 0.0
H452 H 0.1751 0.9761 0.50378 0.0
H453 H 0.15197 1.02311 0.67145 0.0
H454 H 0.14245 0.06603 0.66343 0.0
H455 H 0.19029 0.05943 0.65863 0.0
C456 C 0.70097 0.42632 0.95619 0.0
C457 C 0.70268 0.40951 0.92072 0.0
C458 C 0.73472 0.44454 0.9762 0.0
C459 C 0.77186 0.44689 0.96052 0.0
C460 C 0.77361 0.42886 0.92531 0.0
C461 C 0.73949 0.41081 0.90611 0.0
C462 C 0.73046 0.46278 1.01345 0.0
C463 C 0.81169 0.43008 0.90673 0.0
C464 C 0.85814 0.52504 0.98806 0.0
C465 C 0.87978 0.50964 1.01387 0.0
C466 C 0.82325 0.50536 0.97117 0.0
C467 C 0.80858 0.4689 0.97993 0.0
C468 C 0.83003 0.45341 1.00641 0.0
C469 C 0.86487 0.47362 0.02271 0.0
C470 C 0.80227 0.52364 0.94327 0.0
C471 C 0.81635 0.41504 1.01728 0.0
H472 H 0.67302 0.42693 0.96729 0.0
H473 H 0.74147 0.39924 0.87818 0.0
H474 H 0.74927 0.4554 0.03569 0.0
H475 H 0.73959 0.49185 1.00967 0.0
H476 H 0.70044 0.45607 0.02382 0.0
H477 H 0.80879 0.41308 0.88078 0.0
H478 H 0.82526 0.4577 0.89851 0.0
H479 H 0.83132 0.42143 0.92721 0.0
H480 H 0.86878 0.55258 0.98047 0.0
H481 H 0.88073 0.46087 0.04237 0.0
H482 H 0.77243 0.52138 0.95299 0.0
H483 H 0.80063 0.5105 0.91489 0.0
H484 H 0.81642 0.55209 0.93988 0.0
H485 H 0.78669 0.41003 0.02843 0.0
H486 H 0.835 0.40695 0.03926 0.0
H487 H 0.81562 0.39806 0.99161 0.0
C488 C 0.7534 0.7156 0.41034 0.0
C489 C 0.78204 0.69734 0.40205 0.0
C490 C 0.71884 0.69926 0.42947 0.0
C491 C 0.71146 0.6631 0.44064 0.0
C492 C 0.74 0.64432 0.43169 0.0
C493 C 0.7746 0.6615 0.41299 0.0
C494 C 0.69028 0.72105 0.43823 0.0
C495 C 0.73415 0.60589 0.44227 0.0
C496 C 0.64025 0.63023 0.52372 0.0
C497 C 0.60563 0.61396 0.50501 0.0
C498 C 0.67424 0.64596 0.50343 0.0
C499 C 0.67483 0.64554 0.46274 0.0
C500 C 0.64008 0.62873 0.4436 0.0
C501 C 0.60623 0.61351 0.46469 0.0
C502 C 0.70966 0.66358 0.52581 0.0
C503 C 0.63857 0.62686 0.40056 0.0
H504 H 0.75809 0.74303 0.40184 0.0
H505 H 0.79623 0.64689 0.40738 0.0
H506 H 0.66217 0.70868 0.42497 0.0
H507 H 0.68584 0.72181 0.46957 0.0
H508 H 0.69973 0.74863 0.42771 0.0
H509 H 0.75757 0.5942 0.43161 0.0
H510 H 0.73268 0.60309 0.47381 0.0
H511 H 0.70651 0.59048 0.43039 0.0
H512 H 0.64077 0.63112 0.55469 0.0
H513 H 0.5801 0.60123 0.44947 0.0
H514 H 0.71883 0.69186 0.5177 0.0
H515 H 0.73353 0.65105 0.51877 0.0
H516 H 0.70496 0.66195 0.55718 0.0
H517 H 0.64476 0.65397 0.38858 0.0
H518 H 0.61021 0.612 0.38966 0.0
H519 H 0.66095 0.61392 0.38982 0.0
C520 C 0.30065 0.37588 0.13124 0.0
C521 C 0.32639 0.39056 0.16038 0.0
C522 C 0.27123 0.39201 0.12009 0.0
C523 C 0.2674 0.42329 0.13897 0.0
C524 C 0.29587 0.44011 0.16554 0.0
C525 C 0.32527 0.42357 0.17574 0.0
C526 C 0.242 0.37354 0.09108 0.0
C527 C 0.293 0.47342 0.18638 0.0
C528 C 0.19029 0.46984 0.10687 0.0
C529 C 0.15991 0.45477 0.13131 0.0
C530 C 0.22549 0.45991 0.1088 0.0
C531 C 0.2306 0.43461 0.13609 0.0
C532 C 0.20019 0.41953 0.161 0.0
C533 C 0.16526 0.4296 0.15813 0.0
C534 C 0.25713 0.47639 0.08165 0.0
C535 C 0.2045 0.39263 0.19078 0.0
H536 H 0.30148 0.35018 0.11968 0.0
H537 H 0.34518 0.4346 0.19848 0.0
H538 H 0.21554 0.35982 0.10607 0.0
H539 H 0.23417 0.39288 0.07117 0.0
H540 H 0.25265 0.3536 0.07421 0.0
H541 H 0.32044 0.48643 0.20064 0.0
H542 H 0.28462 0.49252 0.16655 0.0
H543 H 0.27051 0.4667 0.20857 0.0
H544 H 0.18671 0.4897 0.08641 0.0
H545 H 0.14188 0.41731 0.17669 0.0
H546 H 0.26573 0.45545 0.0646 0.0
H547 H 0.28276 0.49051 0.098 0.0
H548 H 0.24846 0.49535 0.06175 0.0
H549 H 0.21147 0.36928 0.17682 0.0
H550 H 0.17814 0.38349 0.20799 0.0
H551 H 0.22854 0.40424 0.21046 0.0
C552 C 0.59376 0.33002 0.93571 0.0
C553 C 0.63091 0.34175 0.92034 0.0
C554 C 0.58169 0.29741 0.95583 0.0
C555 C 0.60711 0.27476 0.96194 0.0
C556 C 0.64529 0.28716 0.94792 0.0
C557 C 0.65657 0.31997 0.92747 0.0
C558 C 0.54084 0.28659 0.96944 0.0
C559 C 0.6742 0.26512 0.95353 0.0
C560 C 0.57841 0.19847 0.038 0.0
C561 C 0.56229 0.16819 1.01569 0.0
C562 C 0.59357 0.23259 1.02129 0.0
C563 C 0.59293 0.2377 0.9808 0.0
C564 C 0.5769 0.20709 0.95832 0.0
C565 C 0.5622 0.17341 0.97568 0.0
C566 C 0.6101 0.26344 0.04726 0.0
C567 C 0.57463 0.20996 0.91542 0.0
H568 H 0.5734 0.34619 0.93098 0.0
H569 H 0.68516 0.32786 0.91577 0.0
H570 H 0.52574 0.26207 0.95435 0.0
H571 H 0.54018 0.2806 1.00044 0.0
H572 H 0.52487 0.3074 0.96433 0.0
H573 H 0.70341 0.2793 0.94462 0.0
H574 H 0.67517 0.25748 0.984 0.0
H575 H 0.66548 0.24035 0.93655 0.0
H576 H 0.57896 0.19563 0.06879 0.0
H577 H 0.55004 0.1509 0.95753 0.0
H578 H 0.59296 0.28365 0.04479 0.0
H579 H 0.63976 0.27615 0.03841 0.0
H580 H 0.61052 0.25542 0.07769 0.0
H581 H 0.5568 0.22871 0.90775 0.0
H582 H 0.56218 0.18407 0.90151 0.0
H583 H 0.60364 0.22071 0.90364 0.0
C584 C 0.8843 0.82251 0.36683 0.0
C585 C 0.89927 0.7922 0.37199 0.0
C586 C 0.9005 0.85609 0.38447 0.0
C587 C 0.93398 0.86138 0.40799 0.0
C588 C 0.9508 0.83157 0.41139 0.0
C589 C 0.93313 0.79781 0.3944 0.0
C590 C 0.87975 0.88536 0.38009 0.0
C591 C 0.98687 0.8347 0.43465 0.0
C592 C 0.98836 0.95997 0.43147 0.0
C593 C 0.97844 0.96562 0.46976 0.0
C594 C 0.97535 0.9267 0.41189 0.0
C595 C 0.95012 0.89727 0.42971 0.0
C596 C 0.93964 0.90295 0.46825 0.0
C597 C 0.95419 0.93614 0.48764 0.0
C598 C 0.98922 0.92296 0.37184 0.0
C599 C 0.91231 0.87384 0.48915 0.0
H600 H 0.85732 0.81897 0.35155 0.0
H601 H 0.94466 0.77509 0.40072 0.0
H602 H 0.86881 0.89142 0.40835 0.0
H603 H 0.89964 0.90987 0.36996 0.0
H604 H 0.85523 0.87824 0.35977 0.0
H605 H 1.00776 0.85995 0.4284 0.0
H606 H 0.97993 0.83471 0.4655 0.0
H607 H 1.00055 0.81238 0.42898 0.0
H608 H 1.0072 0.98164 0.4167 0.0
H609 H 0.94576 0.93919 0.51692 0.0
H610 H 0.9647 0.91819 0.35154 0.0
H611 H 1.00215 0.89972 0.37011 0.0
H612 H 1.01075 0.94684 0.36254 0.0
H613 H 0.88562 0.86467 0.47211 0.0
H614 H 0.90475 0.88245 0.51781 0.0
H615 H 0.92532 0.85085 0.49275 0.0
C616 C 0.37944 0.91228 0.60102 0.0
C617 C 0.34607 0.89117 0.61662 0.0
C618 C 0.40849 0.89697 0.58734 0.0
C619 C 0.40356 0.85985 0.58952 0.0
C620 C 0.36856 0.8384 0.60293 0.0
C621 C 0.34028 0.85447 0.61658 0.0
C622 C 0.44524 0.92069 0.5732 0.0
C623 C 0.3619 0.79863 0.60525 0.0
C624 C 0.46145 0.80125 0.54583 0.0
C625 C 0.47828 0.7911 0.57897 0.0
C626 C 0.44 0.82704 0.54756 0.0
C627 C 0.4361 0.84324 0.58308 0.0
C628 C 0.45781 0.83698 0.61506 0.0
C629 C 0.47849 0.81075 0.61271 0.0
C630 C 0.41802 0.83373 0.51259 0.0
C631 C 0.45526 0.85455 0.65323 0.0
H632 H 0.38348 0.94079 0.60137 0.0
H633 H 0.31413 0.83859 0.62866 0.0
H634 H 0.46687 0.92502 0.59657 0.0
H635 H 0.45707 0.90845 0.54882 0.0
H636 H 0.44098 0.9469 0.56428 0.0
H637 H 0.33186 0.78578 0.61286 0.0
H638 H 0.36865 0.7876 0.57753 0.0
H639 H 0.38118 0.79157 0.62725 0.0
H640 H 0.46235 0.78703 0.51926 0.0
H641 H 0.49148 0.8034 0.63851 0.0
H642 H 0.41697 0.86195 0.51075 0.0
H643 H 0.3881 0.81776 0.51443 0.0
H644 H 0.4308 0.82608 0.48594 0.0
H645 H 0.45656 0.88312 0.64958 0.0
H646 H 0.47863 0.85163 0.67301 0.0
H647 H 0.42743 0.84228 0.66675 0.0
C648 C 0.72683 0.82423 0.78226 0.0
C649 C 0.72529 0.84594 0.81382 0.0
C650 C 0.75825 0.83203 0.75733 0.0
C651 C 0.78813 0.86249 0.76417 0.0
C652 C 0.78677 0.88393 0.79673 0.0
C653 C 0.75537 0.87521 0.82125 0.0
C654 C 0.75908 0.80829 0.7233 0.0
C655 C 0.81784 0.91673 0.80505 0.0
C656 C 0.88704 0.88202 0.72033 0.0
C657 C 0.88378 0.90743 0.6929 0.0
C658 C 0.85525 0.86495 0.74197 0.0
C659 C 0.8196 0.87386 0.73625 0.0
C660 C 0.81563 0.89778 0.70696 0.0
C661 C 0.84774 0.9142 0.68559 0.0
C662 C 0.8604 0.83913 0.77257 0.0
C663 C 0.7782 0.90824 0.70017 0.0
H664 H 0.70332 0.80151 0.77703 0.0
H665 H 0.75371 0.8916 0.84603 0.0
H666 H 0.75617 0.82274 0.69658 0.0
H667 H 0.78695 0.80067 0.72206 0.0
H668 H 0.73565 0.78389 0.72415 0.0
H669 H 0.8129 0.92984 0.83221 0.0
H670 H 0.84612 0.90995 0.80683 0.0
H671 H 0.81927 0.93594 0.7814 0.0
H672 H 0.91475 0.87637 0.72574 0.0
H673 H 0.84506 0.9341 0.66479 0.0
H674 H 0.83635 0.81526 0.77188 0.0
H675 H 0.86032 0.85163 0.80113 0.0
H676 H 0.88779 0.83083 0.76938 0.0
H677 H 0.77869 0.92406 0.67371 0.0
H678 H 0.77226 0.92424 0.72475 0.0
H679 H 0.75417 0.88446 0.69806 0.0
C680 C 0.81989 0.278 0.36016 0.0
C681 C 0.80505 0.25691 0.39139 0.0
C682 C 0.81307 0.26493 0.32268 0.0
C683 C 0.79081 0.23009 0.31676 0.0
C684 C 0.77883 0.2078 0.34852 0.0
C685 C 0.78591 0.22163 0.38552 0.0
C686 C 0.82674 0.28936 0.28963 0.0
C687 C 0.75526 0.17039 0.34355 0.0
C688 C 0.71802 0.20676 0.23719 0.0
C689 C 0.73393 0.18407 0.21461 0.0
C690 C 0.73777 0.22419 0.26897 0.0
C691 C 0.77429 0.21867 0.27853 0.0
C692 C 0.79189 0.1982 0.25413 0.0
C693 C 0.77147 0.1811 0.22236 0.0
C694 C 0.71808 0.2461 0.29412 0.0
C695 C 0.83103 0.19221 0.26307 0.0
H696 H 0.83453 0.30538 0.3651 0.0
H697 H 0.77385 0.20572 0.40978 0.0
H698 H 0.837 0.27507 0.26588 0.0
H699 H 0.80253 0.29973 0.27851 0.0
H700 H 0.85013 0.31221 0.29842 0.0
H701 H 0.75256 0.15529 0.37071 0.0
H702 H 0.72608 0.17098 0.3334 0.0
H703 H 0.76819 0.15608 0.32174 0.0
H704 H 0.68895 0.20902 0.23172 0.0
H705 H 0.78423 0.16412 0.20458 0.0
H706 H 0.73766 0.27204 0.30079 0.0
H707 H 0.71012 0.23224 0.32163 0.0
H708 H 0.69168 0.25084 0.28059 0.0
H709 H 0.85088 0.21712 0.27271 0.0
H710 H 0.84364 0.18165 0.23795 0.0
H711 H 0.82867 0.17286 0.28669 0.0
C712 C 0.3777 0.72864 0.32969 0.0
C713 C 0.39742 0.73531 0.29453 0.0
C714 C 0.38992 0.70957 0.36042 0.0
C715 C 0.42403 0.69693 0.35777 0.0
C716 C 0.44558 0.70565 0.32336 0.0
C717 C 0.43183 0.7237 0.29238 0.0
C718 C 0.36441 0.70067 0.39484 0.0
C719 C 0.48272 0.69454 0.31839 0.0
C720 C 0.46583 0.66701 0.45333 0.0
C721 C 0.45598 0.62956 0.45165 0.0
C722 C 0.45676 0.68878 0.42325 0.0
C723 C 0.43585 0.67363 0.38999 0.0
C724 C 0.42532 0.63582 0.38843 0.0
C725 C 0.4359 0.61466 0.41836 0.0
C726 C 0.47024 0.7284 0.42698 0.0
C727 C 0.40212 0.61742 0.35506 0.0
H728 H 0.3504 0.73581 0.33187 0.0
H729 H 0.44707 0.72696 0.26549 0.0
H730 H 0.35319 0.67157 0.39634 0.0
H731 H 0.38093 0.70904 0.42151 0.0
H732 H 0.33978 0.7134 0.39387 0.0
H733 H 0.49967 0.7085 0.29419 0.0
H734 H 0.50032 0.69984 0.3449 0.0
H735 H 0.47662 0.66569 0.31265 0.0
H736 H 0.48153 0.6796 0.47816 0.0
H737 H 0.42771 0.58609 0.41589 0.0
H738 H 0.4453 0.74062 0.42793 0.0
H739 H 0.4874 0.73921 0.40157 0.0
H740 H 0.4879 0.73646 0.45312 0.0
H741 H 0.39377 0.58826 0.35871 0.0
H742 H 0.4189 0.62341 0.32839 0.0
H743 H 0.37578 0.62738 0.35141 0.0
C744 C 0.08694 0.44352 0.7988 0.0
C745 C 0.1233 0.43536 0.8002 0.0
C746 C 0.0721 0.46054 0.8299 0.0
C747 C 0.09318 0.46963 0.8648 0.0
C748 C 0.12959 0.4607 0.86654 0.0
C749 C 0.14407 0.44433 0.83475 0.0
C750 C 0.03379 0.46955 0.82494 0.0
C751 C 0.15364 0.46851 0.90237 0.0
C752 C 0.07496 0.54534 0.9324 0.0
C753 C 0.05051 0.52775 0.96154 0.0
C754 C 0.08821 0.52719 0.90139 0.0
C755 C 0.07812 0.48953 0.89842 0.0
C756 C 0.05378 0.47144 0.92801 0.0
C757 C 0.04016 0.4904 0.95841 0.0
C758 C 0.11308 0.54876 0.87129 0.0
C759 C 0.04226 0.43162 0.92781 0.0
H760 H 0.07027 0.43731 0.77273 0.0
H761 H 0.17189 0.43821 0.83715 0.0
H762 H 0.01397 0.45686 0.84775 0.0
H763 H 0.03725 0.49857 0.82783 0.0
H764 H 0.02049 0.46093 0.7967 0.0
H765 H 0.17993 0.45817 0.90081 0.0
H766 H 0.16222 0.49749 0.90729 0.0
H767 H 0.13665 0.45665 0.92747 0.0
H768 H 0.08361 0.57396 0.93345 0.0
H769 H 0.02165 0.47575 0.98012 0.0
H770 H 0.09985 0.54222 0.84263 0.0
H771 H 0.14146 0.54209 0.87082 0.0
H772 H 0.11749 0.57766 0.87627 0.0
H773 H 0.0258 0.42209 0.90138 0.0
H774 H 0.02453 0.42096 0.95293 0.0
H775 H 0.06822 0.42076 0.92769 0.0
C776 C 0.64495 0.91711 0.88928 0.0
C777 C 0.629 0.88064 0.89089 0.0
C778 C 0.62732 0.94125 0.90737 0.0
C779 C 0.59379 0.9285 0.92905 0.0
C780 C 0.57707 0.89169 0.93014 0.0
C781 C 0.59458 0.86821 0.91041 0.0
C782 C 0.64559 0.98032 0.90464 0.0
C783 C 0.54192 0.87697 0.95376 0.0
C784 C 0.58331 0.9877 1.01256 0.0
C785 C 0.5543 1.00345 0.99965 0.0
C786 C 0.59534 0.96235 0.99034 0.0
C787 C 0.57888 0.95343 0.9537 0.0
C788 C 0.54966 0.96943 0.94037 0.0
C789 C 0.53718 0.99386 0.9639 0.0
C790 C 0.62576 0.94516 1.00612 0.0
C791 C 0.53237 0.96146 0.90098 0.0
H792 H 0.67194 0.9267 0.87478 0.0
H793 H 0.58199 0.84004 0.91104 0.0
H794 H 0.62365 0.99532 0.89789 0.0
H795 H 0.65874 0.99017 0.93255 0.0
H796 H 0.66821 0.98608 0.88245 0.0
H797 H 0.53097 0.84802 0.94947 0.0
H798 H 0.54895 0.88208 0.98451 0.0
H799 H 0.51877 0.89039 0.94658 0.0
H800 H 0.59612 0.9947 0.04051 0.0
H801 H 0.51472 1.00611 0.95398 0.0
H802 H 0.65204 0.95267 0.98859 0.0
H803 H 0.61574 0.91592 1.00467 0.0
H804 H 0.63341 0.953 0.03625 0.0
H805 H 0.555 0.96948 0.87911 0.0
H806 H 0.5093 0.97547 0.89526 0.0
H807 H 0.52041 0.93262 0.89746 0.0
C808 C 0.81618 0.20032 0.47878 0.0
C809 C 0.83469 0.23334 0.46441 0.0
C810 C 0.83633 0.17402 0.48474 0.0
C811 C 0.87613 0.18156 0.47719 0.0
C812 C 0.89454 0.21455 0.46114 0.0
C813 C 0.87331 0.24 0.45449 0.0
C814 C 0.81547 0.13894 0.50106 0.0
C815 C 0.93704 0.22388 0.45349 0.0
C816 C 0.93215 0.13681 0.54454 0.0
C817 C 0.94036 0.11004 0.52149 0.0
C818 C 0.91212 0.16068 0.53002 0.0
C819 C 0.89922 0.15727 0.49161 0.0
C820 C 0.90745 0.13032 0.46801 0.0
C821 C 0.92842 0.10712 0.48319 0.0
C822 C 0.90458 0.18945 0.55597 0.0
C823 C 0.89352 0.12565 0.42712 0.0
H824 H 0.78603 0.19542 0.48578 0.0
H825 H 0.88714 0.26573 0.44321 0.0
H826 H 0.8232 0.11679 0.48536 0.0
H827 H 0.8241 0.13724 0.53138 0.0
H828 H 0.78387 0.1354 0.49984 0.0
H829 H 0.94599 0.24868 0.43681 0.0
H830 H 0.95289 0.2274 0.4811 0.0
H831 H 0.94559 0.20218 0.43774 0.0
H832 H 0.9418 0.1394 0.57407 0.0
H833 H 0.93493 0.08645 0.46537 0.0
H834 H 0.8733 0.18579 0.56018 0.0
H835 H 0.9153 0.21575 0.54266 0.0
H836 H 0.91844 0.18958 0.58446 0.0
H837 H 0.86175 0.11972 0.42638 0.0
H838 H 0.90311 0.10395 0.4123 0.0
H839 H 0.90402 0.15053 0.41101 0.0
C840 C 0.2924 0.69932 0.15691 0.0
C841 C 0.29227 0.70845 0.19587 0.0
C842 C 0.25825 0.68262 0.13706 0.0
C843 C 0.22243 0.6744 0.1563 0.0
C844 C 0.22234 0.68319 0.19586 0.0
C845 C 0.25696 0.69985 0.215 0.0
C846 C 0.26052 0.67384 0.09523 0.0
C847 C 0.18545 0.67522 0.21806 0.0
C848 C 0.12762 0.66088 0.09806 0.0
C849 C 0.11416 0.62381 0.09684 0.0
C850 C 0.16249 0.67747 0.11686 0.0
C851 C 0.18526 0.65686 0.13519 0.0
C852 C 0.17205 0.6194 0.13356 0.0
C853 C 0.13702 0.60353 0.11473 0.0
C854 C 0.17475 0.71731 0.11753 0.0
C855 C 0.1948 0.59588 0.15216 0.0
H856 H 0.31946 0.70542 0.1419 0.0
H857 H 0.2564 0.70667 0.24501 0.0
H858 H 0.24923 0.64504 0.09053 0.0
H859 H 0.24237 0.68768 0.07823 0.0
H860 H 0.2903 0.6815 0.08428 0.0
H861 H 0.18989 0.68329 0.24855 0.0
H862 H 0.16495 0.68922 0.20505 0.0
H863 H 0.17199 0.64648 0.21666 0.0
H864 H 0.11052 0.67713 0.08477 0.0
H865 H 0.12733 0.57495 0.11438 0.0
H866 H 0.20368 0.72619 0.10489 0.0
H867 H 0.1767 0.72699 0.14753 0.0
H868 H 0.15457 0.72977 0.10157 0.0
H869 H 0.22431 0.60178 0.14059 0.0
H870 H 0.18152 0.56733 0.1476 0.0
H871 H 0.19721 0.60125 0.18336 0.0
C872 C 0.24389 0.40951 0.69398 0.0
C873 C 0.20964 0.42104 0.68995 0.0
C874 C 0.27816 0.42572 0.67387 0.0
C875 C 0.27977 0.45575 0.64995 0.0
C876 C 0.24507 0.46722 0.64561 0.0
C877 C 0.21095 0.44976 0.66499 0.0
C878 C 0.31316 0.41112 0.67921 0.0
C879 C 0.24437 0.49936 0.62188 0.0
C880 C 0.3794 0.52037 0.62853 0.0
C881 C 0.38654 0.51275 0.59014 0.0
C882 C 0.34524 0.50256 0.64799 0.0
C883 C 0.31722 0.47512 0.62965 0.0
C884 C 0.32493 0.46683 0.59124 0.0
C885 C 0.35851 0.48581 0.57213 0.0
C886 C 0.33883 0.51362 0.68829 0.0
C887 C 0.29766 0.43739 0.57012 0.0
H888 H 0.24436 0.38854 0.71413 0.0
H889 H 0.18554 0.46012 0.66257 0.0
H890 H 0.32618 0.40782 0.65112 0.0
H891 H 0.3349 0.42999 0.69634 0.0
H892 H 0.30642 0.38523 0.69409 0.0
H893 H 0.21554 0.50518 0.62098 0.0
H894 H 0.26513 0.52273 0.63385 0.0
H895 H 0.25337 0.49554 0.5922 0.0
H896 H 0.4002 0.54093 0.64324 0.0
H897 H 0.36311 0.47896 0.54276 0.0
H898 H 0.33771 0.49115 0.70801 0.0
H899 H 0.31084 0.52099 0.69013 0.0
H900 H 0.36177 0.53637 0.69821 0.0
H901 H 0.30848 0.43233 0.54145 0.0
H902 H 0.26949 0.44409 0.56648 0.0
H903 H 0.2928 0.41264 0.58702 0.0
C904 C 0.72383 0.77427 0.86398 0.0
C905 C 0.72027 0.80426 0.88444 0.0
C906 C 0.75192 0.7561 0.87384 0.0
C907 C 0.77684 0.76826 0.90509 0.0
C908 C 0.77339 0.79876 0.92575 0.0
C909 C 0.74531 0.81661 0.91489 0.0
C910 C 0.75503 0.72403 0.85075 0.0
C911 C 0.79942 0.81257 0.95919 0.0
C912 C 0.82618 0.7037 0.95382 0.0
C913 C 0.86327 0.71355 0.93869 0.0
C914 C 0.79778 0.72122 0.94307 0.0
C915 C 0.80651 0.74909 0.91624 0.0
C916 C 0.84366 0.75888 0.90039 0.0
C917 C 0.87164 0.74113 0.91196 0.0
C918 C 0.75845 0.71005 0.96058 0.0
C919 C 0.85396 0.78832 0.87147 0.0
H920 H 0.70452 0.76516 0.8402 0.0
H921 H 0.74301 0.84042 0.92993 0.0
H922 H 0.78414 0.72816 0.83841 0.0
H923 H 0.75079 0.70053 0.86954 0.0
H924 H 0.73367 0.71827 0.8271 0.0
H925 H 0.79256 0.83627 0.97259 0.0
H926 H 0.79701 0.79169 0.9812 0.0
H927 H 0.82967 0.8196 0.94967 0.0
H928 H 0.81922 0.68206 0.97398 0.0
H929 H 0.90032 0.74933 0.9005 0.0
H930 H 0.73655 0.70169 0.93779 0.0
H931 H 0.75143 0.73278 0.9758 0.0
H932 H 0.75628 0.68791 0.98107 0.0
H933 H 0.83399 0.78278 0.84669 0.0
H934 H 0.88372 0.79189 0.86086 0.0
H935 H 0.85095 0.81359 0.88445 0.0
C936 C 0.43846 0.81047 0.21069 0.0
C937 C 0.40586 0.80398 0.23447 0.0
C938 C 0.45519 0.84473 0.19523 0.0
C939 C 0.43869 0.87423 0.20205 0.0
C940 C 0.40675 0.86816 0.22729 0.0
C941 C 0.39136 0.8339 0.24316 0.0
C942 C 0.48971 0.84882 0.16986 0.0
C943 C 0.38679 0.89741 0.2355 0.0
C944 C 0.49406 0.97251 0.18418 0.0
C945 C 0.48197 0.98067 0.1474 0.0
C946 C 0.4812 0.93852 0.20144 0.0
C947 C 0.45412 0.91087 0.18267 0.0
C948 C 0.44148 0.91894 0.14558 0.0
C949 C 0.45575 0.95302 0.12841 0.0
C950 C 0.49709 0.93215 0.24009 0.0
C951 C 0.41222 0.8915 0.12402 0.0
H952 H 0.4494 0.78799 0.20189 0.0
H953 H 0.36526 0.82965 0.25971 0.0
H954 H 0.48116 0.85173 0.13975 0.0
H955 H 0.51169 0.87304 0.17773 0.0
H956 H 0.50276 0.82565 0.17164 0.0
H957 H 0.36366 0.88955 0.25692 0.0
H958 H 0.40762 0.92131 0.24613 0.0
H959 H 0.37411 0.90482 0.20864 0.0
H960 H 0.51437 0.99288 0.19966 0.0
H961 H 0.4457 0.95818 0.10022 0.0
H962 H 0.50967 0.90868 0.23873 0.0
H963 H 0.47369 0.92636 0.26137 0.0
H964 H 0.51943 0.95521 0.25036 0.0
H965 H 0.42395 0.8681 0.118 0.0
H966 H 0.4037 0.90175 0.09653 0.0
H967 H 0.38628 0.88238 0.1418 0.0
C968 C 0.16406 0.32912 0.68579 0.0
C969 C 0.1389 0.35182 0.6908 0.0
C970 C 0.15299 0.29591 0.66553 0.0
C971 C 0.11526 0.28356 0.64978 0.0
C972 C 0.09019 0.30685 0.65412 0.0
C973 C 0.10219 0.34005 0.67379 0.0
C974 C 0.18174 0.27347 0.66178 0.0
C975 C 0.04974 0.29618 0.63888 0.0
C976 C 0.08958 0.20817 0.57123 0.0
C977 C 0.07323 0.17709 0.59195 0.0
C978 C 0.10381 0.24203 0.5893 0.0
C979 C 0.10162 0.24651 0.62976 0.0
C980 C 0.08502 0.21524 0.65078 0.0
C981 C 0.07163 0.18159 0.63207 0.0
C982 C 0.12145 0.27332 0.56473 0.0
C983 C 0.08086 0.21737 0.69352 0.0
H984 H 0.19215 0.33663 0.69896 0.0
H985 H 0.08207 0.35669 0.67681 0.0
H986 H 0.17225 0.249 0.67882 0.0
H987 H 0.18359 0.26533 0.63154 0.0
H988 H 0.21073 0.28757 0.67181 0.0
H989 H 0.03353 0.31682 0.64391 0.0
H990 H 0.04999 0.29082 0.60772 0.0
H991 H 0.03433 0.27133 0.65278 0.0
H992 H 0.09158 0.20608 0.54045 0.0
H993 H 0.05925 0.15862 0.64917 0.0
H994 H 0.15067 0.28588 0.57536 0.0
H995 H 0.10421 0.29348 0.56658 0.0
H996 H 0.12328 0.26581 0.53425 0.0
H997 H 0.10939 0.22742 0.70701 0.0
H998 H 0.06734 0.19132 0.70623 0.0
H999 H 0.06319 0.23639 0.7006 0.0
C1000 C 0.75176 0.34953 0.48811 0.0
C1001 C 0.75197 0.31433 0.49567 0.0
C1002 C 0.7205 0.3632 0.49855 0.0
C1003 C 0.68918 0.34116 0.51773 0.0
C1004 C 0.69134 0.30683 0.52923 0.0
C1005 C 0.72261 0.29358 0.51755 0.0
C1006 C 0.71934 0.39993 0.48558 0.0
C1007 C 0.6592 0.28299 0.55088 0.0
C1008 C 0.61319 0.38953 0.54537 0.0
C1009 C 0.58923 0.38319 0.51296 0.0
C1010 C 0.6444 0.37374 0.54902 0.0
C1011 C 0.65216 0.35183 0.5192 0.0
C1012 C 0.62646 0.34332 0.48786 0.0
C1013 C 0.59504 0.35873 0.48543 0.0
C1014 C 0.67035 0.38241 0.58353 0.0
C1015 C 0.63363 0.31999 0.45538 0.0
H1016 H 0.77478 0.3654 0.47137 0.0
H1017 H 0.72273 0.26623 0.52314 0.0
H1018 H 0.69765 0.39803 0.46245 0.0
H1019 H 0.71073 0.4152 0.50942 0.0
H1020 H 0.74746 0.41483 0.47456 0.0
H1021 H 0.66888 0.26111 0.56514 0.0
H1022 H 0.64735 0.29815 0.57274 0.0
H1023 H 0.63567 0.2712 0.53072 0.0
H1024 H 0.60897 0.40838 0.56686 0.0
H1025 H 0.57596 0.35291 0.46091 0.0
H1026 H 0.69621 0.40301 0.57587 0.0
H1027 H 0.68001 0.35879 0.59331 0.0
H1028 H 0.65593 0.39264 0.60761 0.0
H1029 H 0.66041 0.33301 0.44044 0.0
H1030 H 0.60982 0.31453 0.43416 0.0
H1031 H 0.63754 0.29441 0.46652 0.0
loop_
_geom_bond_atom_site_label_1
_geom_bond_atom_site_label_2
_geom_bond_distance
_geom_bond_site_symmetry_2
_ccdc_geom_bond_type
C0 N1 1.317 . S
C0 N2 1.348 . S
C0 C3 1.485 . S
N1 C0 1.317 . S
N1 N5 1.370 . S
N2 C0 1.348 . S
N2 C4 1.346 . S
C3 C0 1.485 . S
C3 H7 0.960 . S
C3 H8 0.961 . S
C3 H9 0.960 . S
C4 N2 1.346 . S
C4 N5 1.307 . S
C4 C6 1.486 . S
N5 N1 1.370 . S
N5 C4 1.307 . S
C6 C4 1.486 . S
C6 H10 0.960 . S
C6 H11 0.960 . S
C6 H12 0.959 . S
H7 C3 0.960 . S
H8 C3 0.961 . S
H9 C3 0.960 . S
H10 C6 0.960 . S
H11 C6 0.960 . S
H12 C6 0.959 . S
C13 N14 1.317 . S
C13 N15 1.348 . S
C13 C16 1.485 . S
N14 C13 1.317 . S
N14 N18 1.370 . S
N15 C13 1.348 . S
N15 C17 1.346 . S
C16 C13 1.485 . S
C16 H20 0.960 . S
C16 H21 0.961 . S
C16 H22 0.960 . S
C17 N15 1.346 . S
C17 N18 1.307 . S
C17 C19 1.486 . S
N18 N14 1.370 . S
N18 C17 1.307 . S
C19 C17 1.486 . S
C19 H23 0.960 . S
C19 H24 0.960 . S
C19 H25 0.959 . S
H20 C16 0.960 . S
H21 C16 0.961 . S
H22 C16 0.960 . S
H23 C19 0.960 . S
H24 C19 0.960 . S
H25 C19 0.959 . S
C26 N27 1.317 . S
C26 N28 1.348 . S
C26 C29 1.485 . S
N27 C26 1.317 . S
N27 N31 1.370 . S
N28 C26 1.348 . S
N28 C30 1.346 . S
C29 C26 1.485 . S
C29 H33 0.960 . S
C29 H34 0.961 . S
C29 H35 0.960 . S
C30 N28 1.346 . S
C30 N31 1.307 . S
C30 C32 1.486 . S
N31 N27 1.370 . S
N31 C30 1.307 . S
C32 C30 1.486 . S
C32 H36 0.960 . S
C32 H37 0.960 . S
C32 H38 0.959 . S
H33 C29 0.960 . S
H34 C29 0.961 . S
H35 C29 0.960 . S
H36 C32 0.960 . S
H37 C32 0.960 . S
H38 C32 0.959 . S
C39 N40 1.317 . S
C39 N41 1.348 . S
C39 C42 1.485 . S
N40 C39 1.317 . S
N40 N44 1.370 . S
N41 C39 1.348 . S
N41 C43 1.346 . S
C42 C39 1.485 . S
C42 H46 0.960 . S
C42 H47 0.961 . S
C42 H48 0.960 . S
C43 N41 1.346 . S
C43 N44 1.307 . S
C43 C45 1.486 . S
N44 N40 1.370 . S
N44 C43 1.307 . S
C45 C43 1.486 . S
C45 H49 0.960 . S
C45 H50 0.960 . S
C45 H51 0.959 . S
H46 C42 0.960 . S
H47 C42 0.961 . S
H48 C42 0.960 . S
H49 C45 0.960 . S
H50 C45 0.960 . S
H51 C45 0.959 . S
C52 N53 1.317 . S
C52 N54 1.348 . S
C52 C55 1.485 . S
N53 C52 1.317 . S
N53 N57 1.370 . S
N54 C52 1.348 . S
N54 C56 1.346 . S
C55 C52 1.485 . S
C55 H59 0.960 . S
C55 H60 0.961 . S
C55 H61 0.960 . S
C56 N54 1.346 . S
C56 N57 1.307 . S
C56 C58 1.486 . S
N57 N53 1.370 . S
N57 C56 1.307 . S
C58 C56 1.486 . S
C58 H62 0.960 . S
C58 H63 0.960 . S
C58 H64 0.959 . S
H59 C55 0.960 . S
H60 C55 0.961 . S
H61 C55 0.960 . S
H62 C58 0.960 . S
H63 C58 0.960 . S
H64 C58 0.959 . S
C65 N66 1.317 . S
C65 N67 1.348 . S
C65 C68 1.485 . S
N66 C65 1.317 . S
N66 N70 1.370 . S
N67 C65 1.348 . S
N67 C69 1.346 . S
C68 C65 1.485 . S
C68 H72 0.960 . S
C68 H73 0.961 . S
C68 H74 0.960 . S
C69 N67 1.346 . S
C69 N70 1.307 . S
C69 C71 1.486 . S
N70 N66 1.370 . S
N70 C69 1.307 . S
C71 C69 1.486 . S
C71 H75 0.960 . S
C71 H76 0.960 . S
C71 H77 0.959 . S
H72 C68 0.960 . S
H73 C68 0.961 . S
H74 C68 0.960 . S
H75 C71 0.960 . S
H76 C71 0.960 . S
H77 C71 0.959 . S
C78 N79 1.317 . S
C78 N80 1.348 . S
C78 C81 1.485 . S
N79 C78 1.317 . S
N79 N83 1.370 . S
N80 C78 1.348 . S
N80 C82 1.346 . S
C81 C78 1.485 . S
C81 H85 0.960 . S
C81 H86 0.961 . S
C81 H87 0.960 . S
C82 N80 1.346 . S
C82 N83 1.307 . S
C82 C84 1.486 . S
N83 N79 1.370 . S
N83 C82 1.307 . S
C84 C82 1.486 . S
C84 H88 0.960 . S
C84 H89 0.960 . S
C84 H90 0.959 . S
H85 C81 0.960 . S
H86 C81 0.961 . S
H87 C81 0.960 . S
H88 C84 0.960 . S
H89 C84 0.960 . S
H90 C84 0.959 . S
C91 N92 1.317 . S
C91 N93 1.348 . S
C91 C94 1.485 . S
N92 C91 1.317 . S
N92 N96 1.370 . S
N93 C91 1.348 . S
N93 C95 1.346 . S
C94 C91 1.485 . S
C94 H98 0.960 . S
C94 H99 0.961 . S
C94 H100 0.960 . S
C95 N93 1.346 . S
C95 N96 1.307 . S
C95 C97 1.486 . S
N96 N92 1.370 . S
N96 C95 1.307 . S
C97 C95 1.486 . S
C97 H101 0.960 . S
C97 H102 0.960 . S
C97 H103 0.959 . S
H98 C94 0.960 . S
H99 C94 0.961 . S
H100 C94 0.960 . S
H101 C97 0.960 . S
H102 C97 0.960 . S
H103 C97 0.959 . S
Sm104 C106 2.846 . S
Sm104 O124 2.543 . S
Sm104 O125 2.450 . S
Sm104 O126 2.681 . S
Sm104 O127 2.464 . S
Sm104 O128 2.396 . S
Sm104 O132 2.386 . S
Sm104 O135 2.408 1_545 S
Sm105 C115 2.846 1_445 S
Sm105 O126 2.386 . S
Sm105 O129 2.408 . S
Sm105 O130 2.543 1_445 S
Sm105 O131 2.450 1_445 S
Sm105 O132 2.681 . S
Sm105 O133 2.464 1_455 S
Sm105 O134 2.396 1_445 S
C106 Sm104 2.846 . S
C106 C107 1.506 . S
C106 O124 1.261 . S
C106 O125 1.242 . S
C107 C106 1.506 . S
C107 C108 1.358 . S
C107 C112 1.382 . S
C108 C107 1.358 . S
C108 C109 1.385 . S
C108 H136 0.930 . S
C109 C108 1.385 . S
C109 C110 1.395 . S
C109 H137 0.929 . S
C110 C109 1.395 . S
C110 C111 1.335 . S
C111 C110 1.335 . S
C111 C112 1.398 . S
C111 H138 0.930 . S
C112 C107 1.382 . S
C112 C111 1.398 . S
C112 H139 0.929 . S
C113 O126 1.263 1_565 S
C113 O127 1.247 1_565 S
C114 O128 1.252 . S
C114 O129 1.272 . S
C115 Sm105 2.846 1_665 S
C115 C116 1.506 . S
C115 O130 1.261 . S
C115 O131 1.242 . S
C116 C115 1.506 . S
C116 C117 1.358 . S
C116 C121 1.382 . S
C117 C116 1.358 . S
C117 C118 1.385 . S
C117 H140 0.930 . S
C118 C117 1.385 . S
C118 C119 1.395 . S
C118 H141 0.929 . S
C119 C118 1.395 . S
C119 C120 1.335 . S
C120 C119 1.335 . S
C120 C121 1.398 . S
C120 H142 0.930 . S
C121 C116 1.382 . S
C121 C120 1.398 . S
C121 H143 0.929 . S
C122 O132 1.271 1_655 S
C122 O133 1.251 . S
C123 O134 1.252 . S
C123 O135 1.272 1_655 S
O124 Sm104 2.543 . S
O124 C106 1.261 . S
O125 Sm104 2.450 . S
O125 C106 1.242 . S
O126 Sm104 2.681 . S
O126 Sm105 2.386 . S
O126 C113 1.263 1_545 S
O127 Sm104 2.464 . S
O127 C113 1.247 1_545 S
O128 Sm104 2.396 . S
O128 C114 1.252 . S
O129 Sm105 2.408 . S
O129 C114 1.272 . S
O130 Sm105 2.543 1_665 S
O130 C115 1.261 . S
O131 Sm105 2.450 1_665 S
O131 C115 1.242 . S
O132 Sm104 2.386 . S
O132 Sm105 2.681 . S
O132 C122 1.271 1_455 S
O133 Sm105 2.464 1_655 S
O133 C122 1.251 . S
O134 Sm105 2.396 1_665 S
O134 C123 1.252 . S
O135 Sm104 2.408 1_565 S
O135 C123 1.272 1_455 S
H136 C108 0.930 . S
H137 C109 0.929 . S
H138 C111 0.930 . S
H139 C112 0.929 . S
H140 C117 0.930 . S
H141 C118 0.929 . S
H142 C120 0.930 . S
H143 C121 0.929 . S
Sm144 C146 2.846 . S
Sm144 O164 2.543 . S
Sm144 O165 2.450 . S
Sm144 O166 2.681 . S
Sm144 O167 2.464 1_545 S
Sm144 O168 2.396 . S
Sm144 O172 2.386 . S
Sm144 O175 2.408 . S
Sm145 C155 2.846 1_554 S
Sm145 O166 2.386 . S
Sm145 O169 2.408 . S
Sm145 O170 2.543 1_544 S
Sm145 O171 2.450 1_554 S
Sm145 O172 2.681 . S
Sm145 O173 2.464 1_554 S
Sm145 O174 2.396 1_554 S
C146 Sm144 2.846 . S
C146 C147 1.506 . S
C146 O164 1.261 . S
C146 O165 1.242 . S
C147 C146 1.506 . S
C147 C148 1.358 . S
C147 C152 1.382 . S
C148 C147 1.358 . S
C148 C149 1.385 . S
C148 H176 0.930 . S
C149 C148 1.385 . S
C149 C150 1.395 . S
C149 H177 0.929 . S
C150 C149 1.395 . S
C150 C151 1.335 . S
C151 C150 1.335 . S
C151 C152 1.398 . S
C151 H178 0.930 . S
C152 C147 1.382 . S
C152 C151 1.398 . S
C152 H179 0.929 . S
C153 O166 1.271 1_565 S
C153 O167 1.251 . S
C154 O168 1.252 . S
C154 O169 1.272 . S
C155 Sm145 2.846 1_556 S
C155 C156 1.506 1_545 S
C155 O170 1.261 1_545 S
C155 O171 1.242 . S
C156 C155 1.506 1_565 S
C156 C157 1.358 . S
C156 C161 1.382 1_565 S
C157 C156 1.358 . S
C157 C158 1.385 . S
C157 H180 0.930 . S
C158 C157 1.385 . S
C158 C159 1.395 . S
C158 H181 0.929 . S
C159 C158 1.395 . S
C159 C160 1.335 . S
C160 C159 1.335 . S
C160 C161 1.398 1_565 S
C160 H182 0.930 . S
C161 C156 1.382 1_545 S
C161 C160 1.398 1_545 S
C161 H183 0.929 . S
C162 O172 1.271 . S
C162 O173 1.251 1_554 S
C163 O174 1.252 1_554 S
C163 O175 1.272 . S
O164 Sm144 2.543 . S
O164 C146 1.261 . S
O165 Sm144 2.450 . S
O165 C146 1.242 . S
O166 Sm144 2.681 . S
O166 Sm145 2.386 . S
O166 C153 1.271 1_545 S
O167 Sm144 2.464 1_565 S
O167 C153 1.251 . S
O168 Sm144 2.396 . S
O168 C154 1.252 . S
O169 Sm145 2.408 . S
O169 C154 1.272 . S
O170 Sm145 2.543 1_566 S
O170 C155 1.261 1_565 S
O171 Sm145 2.450 1_556 S
O171 C155 1.242 . S
O172 Sm144 2.386 . S
O172 Sm145 2.681 . S
O172 C162 1.271 . S
O173 Sm145 2.464 1_556 S
O173 C162 1.251 1_556 S
O174 Sm145 2.396 1_556 S
O174 C163 1.252 1_556 S
O175 Sm144 2.408 . S
O175 C163 1.272 . S
H176 C148 0.930 . S
H177 C149 0.929 . S
H178 C151 0.930 . S
H179 C152 0.929 . S
H180 C157 0.930 . S
H181 C158 0.929 . S
H182 C160 0.930 . S
H183 C161 0.929 . S
Sm184 C186 2.846 . S
Sm184 O204 2.543 . S
Sm184 O205 2.450 . S
Sm184 O206 2.681 . S
Sm184 O207 2.464 . S
Sm184 O208 2.396 . S
Sm184 O212 2.386 . S
Sm184 O215 2.408 . S
Sm185 C195 2.846 . S
Sm185 O206 2.386 . S
Sm185 O209 2.408 . S
Sm185 O210 2.543 . S
Sm185 O211 2.450 . S
Sm185 O212 2.681 . S
Sm185 O213 2.464 . S
Sm185 O214 2.396 . S
C186 Sm184 2.846 . S
C186 C187 1.506 . S
C186 O204 1.261 . S
C186 O205 1.242 . S
C187 C186 1.506 . S
C187 C188 1.358 . S
C187 C192 1.382 . S
C188 C187 1.358 . S
C188 C189 1.385 . S
C188 H216 0.930 . S
C189 C188 1.385 . S
C189 C190 1.395 . S
C189 H217 0.929 . S
C190 C189 1.395 . S
C190 C191 1.335 . S
C191 C190 1.335 . S
C191 C192 1.398 . S
C191 H218 0.930 . S
C192 C187 1.382 . S
C192 C191 1.398 . S
C192 H219 0.929 . S
C193 O206 1.271 . S
C193 O207 1.251 . S
C194 O208 1.252 . S
C194 O209 1.272 . S
C195 Sm185 2.846 . S
C195 C196 1.506 . S
C195 O210 1.261 . S
C195 O211 1.242 . S
C196 C195 1.506 . S
C196 C197 1.358 . S
C196 C201 1.382 . S
C197 C196 1.358 . S
C197 C198 1.385 . S
C197 H220 0.930 . S
C198 C197 1.385 . S
C198 C199 1.395 . S
C198 H221 0.929 . S
C199 C198 1.395 . S
C199 C200 1.335 . S
C200 C199 1.335 . S
C200 C201 1.398 . S
C200 H222 0.930 . S
C201 C196 1.382 . S
C201 C200 1.398 . S
C201 H223 0.929 . S
C202 O212 1.271 . S
C202 O213 1.251 . S
C203 O214 1.252 . S
C203 O215 1.272 . S
O204 Sm184 2.543 . S
O204 C186 1.261 . S
O205 Sm184 2.450 . S
O205 C186 1.242 . S
O206 Sm184 2.681 . S
O206 Sm185 2.386 . S
O206 C193 1.271 . S
O207 Sm184 2.464 . S
O207 C193 1.251 . S
O208 Sm184 2.396 . S
O208 C194 1.252 . S
O209 Sm185 2.408 . S
O209 C194 1.272 . S
O210 Sm185 2.543 . S
O210 C195 1.261 . S
O211 Sm185 2.450 . S
O211 C195 1.242 . S
O212 Sm184 2.386 . S
O212 Sm185 2.681 . S
O212 C202 1.271 . S
O213 Sm185 2.464 . S
O213 C202 1.251 . S
O214 Sm185 2.396 . S
O214 C203 1.252 . S
O215 Sm184 2.408 . S
O215 C203 1.272 . S
H216 C188 0.930 . S
H217 C189 0.929 . S
H218 C191 0.930 . S
H219 C192 0.929 . S
H220 C197 0.930 . S
H221 C198 0.929 . S
H222 C200 0.930 . S
H223 C201 0.929 . S
Sm224 C226 2.846 . S
Sm224 O244 2.543 . S
Sm224 O245 2.450 . S
Sm224 O246 2.681 1_455 S
Sm224 O247 2.464 1_455 S
Sm224 O248 2.396 . S
Sm224 O252 2.386 1_554 S
Sm224 O255 2.408 1_455 S
Sm225 C235 2.832 1_455 S
Sm225 O246 2.382 1_456 S
Sm225 O249 2.422 1_556 S
Sm225 O250 2.527 1_455 S
Sm225 O251 2.441 1_455 S
Sm225 O252 2.691 . S
Sm225 O253 2.472 . S
Sm225 O254 2.387 1_455 S
C226 Sm224 2.846 . S
C226 C227 1.506 . S
C226 O244 1.261 . S
C226 O245 1.242 . S
C227 C226 1.506 . S
C227 C228 1.358 . S
C227 C232 1.382 . S
C228 C227 1.358 . S
C228 C229 1.385 . S
C228 H256 0.930 . S
C229 C228 1.385 . S
C229 C230 1.395 . S
C229 H257 0.929 . S
C230 C229 1.395 . S
C230 C231 1.335 . S
C231 C230 1.335 . S
C231 C232 1.398 . S
C231 H258 0.930 . S
C232 C227 1.382 . S
C232 C231 1.398 . S
C232 H259 0.929 . S
C233 O246 1.271 . S
C233 O247 1.251 . S
C234 O248 1.252 . S
C234 O249 1.272 . S
C235 Sm225 2.832 1_655 S
C235 C236 1.506 . S
C235 O250 1.261 . S
C235 O251 1.242 . S
C236 C235 1.506 . S
C236 C237 1.358 . S
C236 C241 1.382 . S
C237 C236 1.358 . S
C237 C238 1.385 . S
C237 H260 0.930 . S
C238 C237 1.385 . S
C238 C239 1.395 . S
C238 H261 0.929 . S
C239 C238 1.395 . S
C239 C240 1.335 . S
C240 C239 1.335 . S
C240 C241 1.398 . S
C240 H262 0.930 . S
C241 C236 1.382 . S
C241 C240 1.398 . S
C241 H263 0.929 . S
C242 O252 1.271 . S
C242 O253 1.251 . S
C243 O254 1.252 . S
C243 O255 1.272 1_556 S
O244 Sm224 2.543 . S
O244 C226 1.261 . S
O245 Sm224 2.450 . S
O245 C226 1.242 . S
O246 Sm224 2.681 1_655 S
O246 Sm225 2.382 1_654 S
O246 C233 1.271 . S
O247 Sm224 2.464 1_655 S
O247 C233 1.251 . S
O248 Sm224 2.396 . S
O248 C234 1.252 . S
O249 Sm225 2.422 1_554 S
O249 C234 1.272 . S
O250 Sm225 2.527 1_655 S
O250 C235 1.261 . S
O251 Sm225 2.441 1_655 S
O251 C235 1.242 . S
O252 Sm224 2.386 1_556 S
O252 Sm225 2.691 . S
O252 C242 1.271 . S
O253 Sm225 2.472 . S
O253 C242 1.251 . S
O254 Sm225 2.387 1_655 S
O254 C243 1.252 . S
O255 Sm224 2.408 1_655 S
O255 C243 1.272 1_554 S
H256 C228 0.930 . S
H257 C229 0.929 . S
H258 C231 0.930 . S
H259 C232 0.929 . S
H260 C237 0.930 . S
H261 C238 0.929 . S
H262 C240 0.930 . S
H263 C241 0.929 . S
C264 C265 1.391 . S
C264 C266 1.394 . S
C264 H280 0.931 . S
C265 C264 1.391 . S
C265 C269 1.376 . S
C266 C264 1.394 . S
C266 C267 1.369 . S
C266 C270 1.531 . S
C267 C266 1.369 . S
C267 C268 1.410 . S
C267 C275 1.503 . S
C268 C267 1.410 . S
C268 C269 1.392 . S
C268 C271 1.511 . S
C269 C265 1.376 . S
C269 C268 1.392 . S
C269 H281 0.929 . S
C270 C266 1.531 . S
C270 H282 0.960 . S
C270 H283 0.962 . S
C270 H284 0.960 . S
C271 C268 1.511 . S
C271 H285 0.961 . S
C271 H286 0.961 . S
C271 H287 0.961 . S
C272 C273 1.370 . S
C272 C274 1.363 . S
C272 H288 0.931 . S
C273 C272 1.370 . S
C273 C277 1.408 . S
C274 C272 1.363 . S
C274 C275 1.370 . S
C274 C278 1.524 . S
C275 C267 1.503 . S
C275 C274 1.370 . S
C275 C276 1.403 . S
C276 C275 1.403 . S
C276 C277 1.404 . S
C276 C279 1.539 . S
C277 C273 1.408 . S
C277 C276 1.404 . S
C277 H289 0.930 . S
C278 C274 1.524 . S
C278 H290 0.956 . S
C278 H291 0.961 . S
C278 H292 0.961 . S
C279 C276 1.539 . S
C279 H293 0.958 . S
C279 H294 0.961 . S
C279 H295 0.960 . S
H280 C264 0.931 . S
H281 C269 0.929 . S
H282 C270 0.960 . S
H283 C270 0.962 . S
H284 C270 0.960 . S
H285 C271 0.961 . S
H286 C271 0.961 . S
H287 C271 0.961 . S
H288 C272 0.931 . S
H289 C277 0.930 . S
H290 C278 0.956 . S
H291 C278 0.961 . S
H292 C278 0.961 . S
H293 C279 0.958 . S
H294 C279 0.961 . S
H295 C279 0.960 . S
C296 C297 1.391 . S
C296 C298 1.394 . S
C296 H312 0.931 . S
C297 C296 1.391 . S
C297 C301 1.376 . S
C298 C296 1.394 . S
C298 C299 1.369 . S
C298 C302 1.531 . S
C299 C298 1.369 . S
C299 C300 1.410 . S
C299 C307 1.503 . S
C300 C299 1.410 . S
C300 C301 1.392 . S
C300 C303 1.511 . S
C301 C297 1.376 . S
C301 C300 1.392 . S
C301 H313 0.929 . S
C302 C298 1.531 . S
C302 H314 0.960 . S
C302 H315 0.962 . S
C302 H316 0.960 . S
C303 C300 1.511 . S
C303 H317 0.961 . S
C303 H318 0.961 . S
C303 H319 0.961 . S
C304 C305 1.370 . S
C304 C306 1.363 . S
C304 H320 0.931 . S
C305 C304 1.370 . S
C305 C309 1.408 . S
C306 C304 1.363 . S
C306 C307 1.370 . S
C306 C310 1.524 . S
C307 C299 1.503 . S
C307 C306 1.370 . S
C307 C308 1.403 . S
C308 C307 1.403 . S
C308 C309 1.404 . S
C308 C311 1.539 . S
C309 C305 1.408 . S
C309 C308 1.404 . S
C309 H321 0.930 . S
C310 C306 1.524 . S
C310 H322 0.956 . S
C310 H323 0.961 . S
C310 H324 0.961 . S
C311 C308 1.539 . S
C311 H325 0.958 . S
C311 H326 0.961 . S
C311 H327 0.960 . S
H312 C296 0.931 . S
H313 C301 0.929 . S
H314 C302 0.960 . S
H315 C302 0.962 . S
H316 C302 0.960 . S
H317 C303 0.961 . S
H318 C303 0.961 . S
H319 C303 0.961 . S
H320 C304 0.931 . S
H321 C309 0.930 . S
H322 C310 0.956 . S
H323 C310 0.961 . S
H324 C310 0.961 . S
H325 C311 0.958 . S
H326 C311 0.961 . S
H327 C311 0.960 . S
C328 C329 1.391 . S
C328 C330 1.394 . S
C328 H344 0.931 . S
C329 C328 1.391 . S
C329 C333 1.376 . S
C330 C328 1.394 . S
C330 C331 1.369 . S
C330 C334 1.531 . S
C331 C330 1.369 . S
C331 C332 1.410 . S
C331 C339 1.503 . S
C332 C331 1.410 . S
C332 C333 1.392 . S
C332 C335 1.511 . S
C333 C329 1.376 . S
C333 C332 1.392 . S
C333 H345 0.929 . S
C334 C330 1.531 . S
C334 H346 0.960 . S
C334 H347 0.962 . S
C334 H348 0.960 . S
C335 C332 1.511 . S
C335 H349 0.961 . S
C335 H350 0.961 . S
C335 H351 0.961 . S
C336 C337 1.370 . S
C336 C338 1.363 . S
C336 H352 0.931 . S
C337 C336 1.370 . S
C337 C341 1.408 . S
C338 C336 1.363 . S
C338 C339 1.370 . S
C338 C342 1.524 . S
C339 C331 1.503 . S
C339 C338 1.370 . S
C339 C340 1.403 . S
C340 C339 1.403 . S
C340 C341 1.404 . S
C340 C343 1.539 . S
C341 C337 1.408 . S
C341 C340 1.404 . S
C341 H353 0.930 . S
C342 C338 1.524 . S
C342 H354 0.956 . S
C342 H355 0.961 . S
C342 H356 0.961 . S
C343 C340 1.539 . S
C343 H357 0.958 . S
C343 H358 0.961 . S
C343 H359 0.960 . S
H344 C328 0.931 . S
H345 C333 0.929 . S
H346 C334 0.960 . S
H347 C334 0.962 . S
H348 C334 0.960 . S
H349 C335 0.961 . S
H350 C335 0.961 . S
H351 C335 0.961 . S
H352 C336 0.931 . S
H353 C341 0.930 . S
H354 C342 0.956 . S
H355 C342 0.961 . S
H356 C342 0.961 . S
H357 C343 0.958 . S
H358 C343 0.961 . S
H359 C343 0.960 . S
C360 C361 1.391 . S
C360 C362 1.394 . S
C360 H376 0.931 . S
C361 C360 1.391 . S
C361 C365 1.376 . S
C362 C360 1.394 . S
C362 C363 1.369 . S
C362 C366 1.531 . S
C363 C362 1.369 . S
C363 C364 1.410 . S
C363 C371 1.503 . S
C364 C363 1.410 . S
C364 C365 1.392 . S
C364 C367 1.511 . S
C365 C361 1.376 . S
C365 C364 1.392 . S
C365 H377 0.929 . S
C366 C362 1.531 . S
C366 H378 0.960 . S
C366 H379 0.962 . S
C366 H380 0.960 . S
C367 C364 1.511 . S
C367 H381 0.961 . S
C367 H382 0.961 . S
C367 H383 0.961 . S
C368 C369 1.370 . S
C368 C370 1.363 . S
C368 H384 0.931 . S
C369 C368 1.370 . S
C369 C373 1.408 . S
C370 C368 1.363 . S
C370 C371 1.370 . S
C370 C374 1.524 . S
C371 C363 1.503 . S
C371 C370 1.370 . S
C371 C372 1.403 . S
C372 C371 1.403 . S
C372 C373 1.404 . S
C372 C375 1.539 . S
C373 C369 1.408 . S
C373 C372 1.404 . S
C373 H385 0.940 . S
C374 C370 1.524 . S
C374 H386 0.956 . S
C374 H387 0.961 . S
C374 H388 0.961 . S
C375 C372 1.539 . S
C375 H389 0.958 . S
C375 H390 0.961 1_655 S
C375 H391 0.960 . S
H376 C360 0.931 . S
H377 C365 0.929 . S
H378 C366 0.960 . S
H379 C366 0.962 . S
H380 C366 0.960 . S
H381 C367 0.961 . S
H382 C367 0.961 . S
H383 C367 0.961 . S
H384 C368 0.931 . S
H385 C373 0.940 . S
H386 C374 0.956 . S
H387 C374 0.961 . S
H388 C374 0.961 . S
H389 C375 0.958 . S
H390 C375 0.961 1_455 S
H391 C375 0.960 . S
C392 C393 1.391 . S
C392 C394 1.394 . S
C392 H408 0.931 . S
C393 C392 1.391 . S
C393 C397 1.376 . S
C394 C392 1.394 . S
C394 C395 1.369 . S
C394 C398 1.531 . S
C395 C394 1.369 . S
C395 C396 1.410 . S
C395 C403 1.503 . S
C396 C395 1.410 . S
C396 C397 1.392 . S
C396 C399 1.511 . S
C397 C393 1.376 . S
C397 C396 1.392 . S
C397 H409 0.929 . S
C398 C394 1.531 . S
C398 H410 0.960 . S
C398 H411 0.962 . S
C398 H412 0.960 . S
C399 C396 1.511 . S
C399 H413 0.961 . S
C399 H414 0.961 . S
C399 H415 0.961 . S
C400 C401 1.370 . S
C400 C402 1.363 . S
C400 H416 0.931 . S
C401 C400 1.370 . S
C401 C405 1.408 . S
C402 C400 1.363 . S
C402 C403 1.370 . S
C402 C406 1.524 . S
C403 C395 1.503 . S
C403 C402 1.370 . S
C403 C404 1.403 . S
C404 C403 1.403 . S
C404 C405 1.404 . S
C404 C407 1.539 . S
C405 C401 1.408 . S
C405 C404 1.404 . S
C405 H417 0.930 . S
C406 C402 1.524 . S
C406 H418 0.956 . S
C406 H419 0.961 . S
C406 H420 0.961 . S
C407 C404 1.539 . S
C407 H421 0.958 . S
C407 H422 0.961 . S
C407 H423 0.960 . S
H408 C392 0.931 . S
H409 C397 0.929 . S
H410 C398 0.960 . S
H411 C398 0.962 . S
H412 C398 0.960 . S
H413 C399 0.961 . S
H414 C399 0.961 . S
H415 C399 0.961 . S
H416 C400 0.931 . S
H417 C405 0.930 . S
H418 C406 0.956 . S
H419 C406 0.961 . S
H420 C406 0.961 . S
H421 C407 0.958 . S
H422 C407 0.961 . S
H423 C407 0.960 . S
C424 C425 1.391 . S
C424 C426 1.394 . S
C424 H440 0.931 . S
C425 C424 1.391 . S
C425 C429 1.376 . S
C426 C424 1.394 . S
C426 C427 1.369 . S
C426 C430 1.531 . S
C427 C426 1.369 . S
C427 C428 1.410 . S
C427 C435 1.503 . S
C428 C427 1.410 . S
C428 C429 1.392 . S
C428 C431 1.511 . S
C429 C425 1.376 . S
C429 C428 1.392 . S
C429 H441 0.929 . S
C430 C426 1.531 . S
C430 H442 0.960 . S
C430 H443 0.962 . S
C430 H444 0.960 . S
C431 C428 1.511 . S
C431 H445 0.961 . S
C431 H446 0.961 . S
C431 H447 0.961 . S
C432 C433 1.370 . S
C432 C434 1.363 . S
C432 H448 0.931 . S
C433 C432 1.370 . S
C433 C437 1.408 1_565 S
C434 C432 1.363 . S
C434 C435 1.370 . S
C434 C438 1.524 . S
C435 C427 1.503 . S
C435 C434 1.370 . S
C435 C436 1.403 . S
C436 C435 1.403 . S
C436 C437 1.404 1_565 S
C436 C439 1.539 1_565 S
C437 C433 1.408 1_545 S
C437 C436 1.404 1_545 S
C437 H449 0.930 . S
C438 C434 1.524 . S
C438 H450 0.956 . S
C438 H451 0.961 . S
C438 H452 0.961 . S
C439 C436 1.539 1_545 S
C439 H453 0.958 1_545 S
C439 H454 0.961 . S
C439 H455 0.961 1_545 S
H440 C424 0.931 . S
H441 C429 0.929 . S
H442 C430 0.960 . S
H443 C430 0.962 . S
H444 C430 0.960 . S
H445 C431 0.961 . S
H446 C431 0.961 . S
H447 C431 0.961 . S
H448 C432 0.931 . S
H449 C437 0.930 . S
H450 C438 0.956 . S
H451 C438 0.961 . S
H452 C438 0.961 . S
H453 C439 0.958 1_565 S
H454 C439 0.961 . S
H455 C439 0.961 1_565 S
C456 C457 1.391 . S
C456 C458 1.394 . S
C456 H472 0.931 . S
C457 C456 1.391 . S
C457 C461 1.376 . S
C458 C456 1.394 . S
C458 C459 1.369 . S
C458 C462 1.531 . S
C459 C458 1.369 . S
C459 C460 1.410 . S
C459 C467 1.503 . S
C460 C459 1.410 . S
C460 C461 1.392 . S
C460 C463 1.511 . S
C461 C457 1.376 . S
C461 C460 1.392 . S
C461 H473 0.929 . S
C462 C458 1.531 . S
C462 H474 0.960 . S
C462 H475 0.962 . S
C462 H476 0.960 . S
C463 C460 1.511 . S
C463 H477 0.961 . S
C463 H478 0.961 . S
C463 H479 0.961 . S
C464 C465 1.370 . S
C464 C466 1.363 . S
C464 H480 0.931 . S
C465 C464 1.370 . S
C465 C469 1.408 . S
C466 C464 1.363 . S
C466 C467 1.370 . S
C466 C470 1.524 . S
C467 C459 1.503 . S
C467 C466 1.370 . S
C467 C468 1.403 . S
C468 C467 1.403 . S
C468 C469 1.404 . S
C468 C471 1.539 . S
C469 C465 1.408 . S
C469 C468 1.404 . S
C469 H481 0.930 . S
C470 C466 1.524 . S
C470 H482 0.956 . S
C470 H483 0.961 . S
C470 H484 0.961 . S
C471 C468 1.539 . S
C471 H485 0.958 . S
C471 H486 0.961 . S
C471 H487 0.960 . S
H472 C456 0.931 . S
H473 C461 0.929 . S
H474 C462 0.960 . S
H475 C462 0.962 . S
H476 C462 0.960 . S
H477 C463 0.961 . S
H478 C463 0.961 . S
H479 C463 0.961 . S
H480 C464 0.931 . S
H481 C469 0.930 . S
H482 C470 0.956 . S
H483 C470 0.961 . S
H484 C470 0.961 . S
H485 C471 0.958 . S
H486 C471 0.961 . S
H487 C471 0.960 . S
C488 C489 1.391 . S
C488 C490 1.394 . S
C488 H504 0.931 . S
C489 C488 1.391 . S
C489 C493 1.376 . S
C490 C488 1.394 . S
C490 C491 1.369 . S
C490 C494 1.531 . S
C491 C490 1.369 . S
C491 C492 1.410 . S
C491 C499 1.503 . S
C492 C491 1.410 . S
C492 C493 1.392 . S
C492 C495 1.511 . S
C493 C489 1.376 . S
C493 C492 1.392 . S
C493 H505 0.929 . S
C494 C490 1.531 . S
C494 H506 0.960 . S
C494 H507 0.962 . S
C494 H508 0.960 . S
C495 C492 1.511 . S
C495 H509 0.961 . S
C495 H510 0.961 . S
C495 H511 0.961 . S
C496 C497 1.370 . S
C496 C498 1.363 . S
C496 H512 0.931 . S
C497 C496 1.370 . S
C497 C501 1.408 . S
C498 C496 1.363 . S
C498 C499 1.370 . S
C498 C502 1.524 . S
C499 C491 1.503 . S
C499 C498 1.370 . S
C499 C500 1.403 . S
C500 C499 1.403 . S
C500 C501 1.404 . S
C500 C503 1.539 . S
C501 C497 1.408 . S
C501 C500 1.404 . S
C501 H513 0.930 . S
C502 C498 1.524 . S
C502 H514 0.956 . S
C502 H515 0.961 . S
C502 H516 0.961 . S
C503 C500 1.539 . S
C503 H517 0.958 . S
C503 H518 0.961 . S
C503 H519 0.960 . S
H504 C488 0.931 . S
H505 C493 0.929 . S
H506 C494 0.960 . S
H507 C494 0.962 . S
H508 C494 0.960 . S
H509 C495 0.961 . S
H510 C495 0.961 . S
H511 C495 0.961 . S
H512 C496 0.931 . S
H513 C501 0.930 . S
H514 C502 0.956 . S
H515 C502 0.961 . S
H516 C502 0.961 . S
H517 C503 0.958 . S
H518 C503 0.961 . S
H519 C503 0.960 . S
C520 C521 1.391 . S
C520 C522 1.394 . S
C520 H536 0.931 . S
C521 C520 1.391 . S
C521 C525 1.376 . S
C522 C520 1.394 . S
C522 C523 1.369 . S
C522 C526 1.531 . S
C523 C522 1.369 . S
C523 C524 1.410 . S
C523 C531 1.503 . S
C524 C523 1.410 . S
C524 C525 1.392 . S
C524 C527 1.511 . S
C525 C521 1.376 . S
C525 C524 1.392 . S
C525 H537 0.929 . S
C526 C522 1.531 . S
C526 H538 0.960 . S
C526 H539 0.962 . S
C526 H540 0.960 . S
C527 C524 1.511 . S
C527 H541 0.961 . S
C527 H542 0.961 . S
C527 H543 0.961 . S
C528 C529 1.370 . S
C528 C530 1.363 . S
C528 H544 0.931 . S
C529 C528 1.370 . S
C529 C533 1.408 . S
C530 C528 1.363 . S
C530 C531 1.370 . S
C530 C534 1.524 . S
C531 C523 1.503 . S
C531 C530 1.370 . S
C531 C532 1.403 . S
C532 C531 1.403 . S
C532 C533 1.404 . S
C532 C535 1.539 . S
C533 C529 1.408 . S
C533 C532 1.404 . S
C533 H545 0.930 . S
C534 C530 1.524 . S
C534 H546 0.956 . S
C534 H547 0.961 . S
C534 H548 0.961 . S
C535 C532 1.539 . S
C535 H549 0.958 . S
C535 H550 0.961 . S
C535 H551 0.960 . S
H536 C520 0.931 . S
H537 C525 0.929 . S
H538 C526 0.960 . S
H539 C526 0.962 . S
H540 C526 0.960 . S
H541 C527 0.961 . S
H542 C527 0.961 . S
H543 C527 0.961 . S
H544 C528 0.931 . S
H545 C533 0.930 . S
H546 C534 0.956 . S
H547 C534 0.961 . S
H548 C534 0.961 . S
H549 C535 0.958 . S
H550 C535 0.961 . S
H551 C535 0.960 . S
C552 C553 1.391 . S
C552 C554 1.394 . S
C552 H568 0.931 . S
C553 C552 1.391 . S
C553 C557 1.376 . S
C554 C552 1.394 . S
C554 C555 1.369 . S
C554 C558 1.531 . S
C555 C554 1.369 . S
C555 C556 1.410 . S
C555 C563 1.503 . S
C556 C555 1.410 . S
C556 C557 1.392 . S
C556 C559 1.511 . S
C557 C553 1.376 . S
C557 C556 1.392 . S
C557 H569 0.929 . S
C558 C554 1.531 . S
C558 H570 0.960 . S
C558 H571 0.962 . S
C558 H572 0.960 . S
C559 C556 1.511 . S
C559 H573 0.961 . S
C559 H574 0.961 . S
C559 H575 0.961 . S
C560 C561 1.370 . S
C560 C562 1.363 . S
C560 H576 0.931 . S
C561 C560 1.370 . S
C561 C565 1.408 1_556 S
C562 C560 1.363 . S
C562 C563 1.370 . S
C562 C566 1.524 . S
C563 C555 1.503 . S
C563 C562 1.370 . S
C563 C564 1.403 . S
C564 C563 1.403 . S
C564 C565 1.404 1_556 S
C564 C567 1.536 1_556 S
C565 C561 1.408 1_554 S
C565 C564 1.404 1_554 S
C565 H577 0.930 . S
C566 C562 1.524 . S
C566 H578 0.956 . S
C566 H579 0.961 . S
C566 H580 0.961 . S
C567 C564 1.536 1_554 S
C567 H581 0.964 . S
C567 H582 0.965 . S
C567 H583 0.953 1_554 S
H568 C552 0.931 . S
H569 C557 0.929 . S
H570 C558 0.960 . S
H571 C558 0.962 . S
H572 C558 0.960 . S
H573 C559 0.961 . S
H574 C559 0.961 . S
H575 C559 0.961 . S
H576 C560 0.931 . S
H577 C565 0.930 . S
H578 C566 0.956 . S
H579 C566 0.961 . S
H580 C566 0.961 . S
H581 C567 0.964 . S
H582 C567 0.965 . S
H583 C567 0.953 1_556 S
C584 C585 1.391 . S
C584 C586 1.394 . S
C584 H600 0.931 . S
C585 C584 1.391 . S
C585 C589 1.376 . S
C586 C584 1.394 . S
C586 C587 1.369 . S
C586 C590 1.531 . S
C587 C586 1.369 . S
C587 C588 1.410 . S
C587 C595 1.503 . S
C588 C587 1.410 . S
C588 C589 1.392 . S
C588 C591 1.511 . S
C589 C585 1.376 . S
C589 C588 1.392 . S
C589 H601 0.929 . S
C590 C586 1.531 . S
C590 H602 0.960 . S
C590 H603 0.962 . S
C590 H604 0.960 . S
C591 C588 1.511 . S
C591 H605 0.961 . S
C591 H606 0.961 . S
C591 H607 0.961 . S
C592 C593 1.370 . S
C592 C594 1.363 . S
C592 H608 0.935 . S
C593 C592 1.370 . S
C593 C597 1.408 . S
C594 C592 1.363 . S
C594 C595 1.370 . S
C594 C598 1.524 . S
C595 C587 1.503 . S
C595 C594 1.370 . S
C595 C596 1.403 . S
C596 C595 1.403 . S
C596 C597 1.404 . S
C596 C599 1.539 . S
C597 C593 1.408 . S
C597 C596 1.404 . S
C597 H609 0.930 . S
C598 C594 1.524 . S
C598 H610 0.956 . S
C598 H611 0.961 . S
C598 H612 0.961 . S
C599 C596 1.539 . S
C599 H613 0.958 . S
C599 H614 0.961 . S
C599 H615 0.960 . S
H600 C584 0.931 . S
H601 C589 0.929 . S
H602 C590 0.960 . S
H603 C590 0.962 . S
H604 C590 0.960 . S
H605 C591 0.961 . S
H606 C591 0.961 . S
H607 C591 0.961 . S
H608 C592 0.935 . S
H609 C597 0.930 . S
H610 C598 0.956 . S
H611 C598 0.961 . S
H612 C598 0.961 . S
H613 C599 0.958 . S
H614 C599 0.961 . S
H615 C599 0.960 . S
C616 C617 1.391 . S
C616 C618 1.394 . S
C616 H632 0.931 . S
C617 C616 1.391 . S
C617 C621 1.376 . S
C618 C616 1.394 . S
C618 C619 1.369 . S
C618 C622 1.531 . S
C619 C618 1.369 . S
C619 C620 1.410 . S
C619 C627 1.503 . S
C620 C619 1.410 . S
C620 C621 1.392 . S
C620 C623 1.511 . S
C621 C617 1.376 . S
C621 C620 1.392 . S
C621 H633 0.929 . S
C622 C618 1.531 . S
C622 H634 0.960 . S
C622 H635 0.962 . S
C622 H636 0.960 . S
C623 C620 1.511 . S
C623 H637 0.961 . S
C623 H638 0.961 . S
C623 H639 0.961 . S
C624 C625 1.370 . S
C624 C626 1.363 . S
C624 H640 0.931 . S
C625 C624 1.370 . S
C625 C629 1.408 . S
C626 C624 1.363 . S
C626 C627 1.370 . S
C626 C630 1.524 . S
C627 C619 1.503 . S
C627 C626 1.370 . S
C627 C628 1.403 . S
C628 C627 1.403 . S
C628 C629 1.404 . S
C628 C631 1.539 . S
C629 C625 1.408 . S
C629 C628 1.404 . S
C629 H641 0.930 . S
C630 C626 1.524 . S
C630 H642 0.956 . S
C630 H643 0.961 . S
C630 H644 0.961 . S
C631 C628 1.539 . S
C631 H645 0.958 . S
C631 H646 0.961 . S
C631 H647 0.960 . S
H632 C616 0.931 . S
H633 C621 0.929 . S
H634 C622 0.960 . S
H635 C622 0.962 . S
H636 C622 0.960 . S
H637 C623 0.961 . S
H638 C623 0.961 . S
H639 C623 0.961 . S
H640 C624 0.931 . S
H641 C629 0.930 . S
H642 C630 0.956 . S
H643 C630 0.961 . S
H644 C630 0.961 . S
H645 C631 0.958 . S
H646 C631 0.961 . S
H647 C631 0.960 . S
C648 C649 1.391 . S
C648 C650 1.394 . S
C648 H664 0.931 . S
C649 C648 1.391 . S
C649 C653 1.376 . S
C650 C648 1.394 . S
C650 C651 1.369 . S
C650 C654 1.531 . S
C651 C650 1.369 . S
C651 C652 1.410 . S
C651 C659 1.503 . S
C652 C651 1.410 . S
C652 C653 1.392 . S
C652 C655 1.511 . S
C653 C649 1.376 . S
C653 C652 1.392 . S
C653 H665 0.929 . S
C654 C650 1.531 . S
C654 H666 0.960 . S
C654 H667 0.962 . S
C654 H668 0.960 . S
C655 C652 1.511 . S
C655 H669 0.961 . S
C655 H670 0.961 . S
C655 H671 0.961 . S
C656 C657 1.370 . S
C656 C658 1.363 . S
C656 H672 0.931 . S
C657 C656 1.370 . S
C657 C661 1.408 . S
C658 C656 1.363 . S
C658 C659 1.370 . S
C658 C662 1.524 . S
C659 C651 1.503 . S
C659 C658 1.370 . S
C659 C660 1.403 . S
C660 C659 1.403 . S
C660 C661 1.404 . S
C660 C663 1.539 . S
C661 C657 1.408 . S
C661 C660 1.404 . S
C661 H673 0.930 . S
C662 C658 1.524 . S
C662 H674 0.956 . S
C662 H675 0.961 . S
C662 H676 0.961 . S
C663 C660 1.539 . S
C663 H677 0.958 . S
C663 H678 0.961 . S
C663 H679 0.960 . S
H664 C648 0.931 . S
H665 C653 0.929 . S
H666 C654 0.960 . S
H667 C654 0.962 . S
H668 C654 0.960 . S
H669 C655 0.961 . S
H670 C655 0.961 . S
H671 C655 0.961 . S
H672 C656 0.931 . S
H673 C661 0.930 . S
H674 C662 0.956 . S
H675 C662 0.961 . S
H676 C662 0.961 . S
H677 C663 0.958 . S
H678 C663 0.961 . S
H679 C663 0.960 . S
C680 C681 1.391 . S
C680 C682 1.394 . S
C680 H696 0.931 . S
C681 C680 1.391 . S
C681 C685 1.376 . S
C682 C680 1.394 . S
C682 C683 1.369 . S
C682 C686 1.531 . S
C683 C682 1.369 . S
C683 C684 1.410 . S
C683 C691 1.503 . S
C684 C683 1.410 . S
C684 C685 1.392 . S
C684 C687 1.511 . S
C685 C681 1.376 . S
C685 C684 1.392 . S
C685 H697 0.929 . S
C686 C682 1.531 . S
C686 H698 0.960 . S
C686 H699 0.962 . S
C686 H700 0.960 . S
C687 C684 1.511 . S
C687 H701 0.961 . S
C687 H702 0.961 . S
C687 H703 0.961 . S
C688 C689 1.370 . S
C688 C690 1.363 . S
C688 H704 0.931 . S
C689 C688 1.370 . S
C689 C693 1.408 . S
C690 C688 1.363 . S
C690 C691 1.370 . S
C690 C694 1.524 . S
C691 C683 1.503 . S
C691 C690 1.370 . S
C691 C692 1.403 . S
C692 C691 1.403 . S
C692 C693 1.404 . S
C692 C695 1.539 . S
C693 C689 1.408 . S
C693 C692 1.404 . S
C693 H705 0.930 . S
C694 C690 1.524 . S
C694 H706 0.956 . S
C694 H707 0.961 . S
C694 H708 0.961 . S
C695 C692 1.539 . S
C695 H709 0.958 . S
C695 H710 0.961 . S
C695 H711 0.960 . S
H696 C680 0.931 . S
H697 C685 0.929 . S
H698 C686 0.960 . S
H699 C686 0.962 . S
H700 C686 0.960 . S
H701 C687 0.961 . S
H702 C687 0.961 . S
H703 C687 0.961 . S
H704 C688 0.931 . S
H705 C693 0.930 . S
H706 C694 0.956 . S
H707 C694 0.961 . S
H708 C694 0.961 . S
H709 C695 0.958 . S
H710 C695 0.961 . S
H711 C695 0.960 . S
C712 C713 1.391 . S
C712 C714 1.394 . S
C712 H728 0.931 . S
C713 C712 1.391 . S
C713 C717 1.376 . S
C714 C712 1.394 . S
C714 C715 1.369 . S
C714 C718 1.531 . S
C715 C714 1.369 . S
C715 C716 1.410 . S
C715 C723 1.503 . S
C716 C715 1.410 . S
C716 C717 1.392 . S
C716 C719 1.511 . S
C717 C713 1.376 . S
C717 C716 1.392 . S
C717 H729 0.929 . S
C718 C714 1.531 . S
C718 H730 0.960 . S
C718 H731 0.962 . S
C718 H732 0.960 . S
C719 C716 1.511 . S
C719 H733 0.961 . S
C719 H734 0.961 . S
C719 H735 0.961 . S
C720 C721 1.370 . S
C720 C722 1.363 . S
C720 H736 0.931 . S
C721 C720 1.370 . S
C721 C725 1.408 . S
C722 C720 1.363 . S
C722 C723 1.370 . S
C722 C726 1.524 . S
C723 C715 1.503 . S
C723 C722 1.370 . S
C723 C724 1.403 . S
C724 C723 1.403 . S
C724 C725 1.404 . S
C724 C727 1.539 . S
C725 C721 1.408 . S
C725 C724 1.404 . S
C725 H737 0.930 . S
C726 C722 1.524 . S
C726 H738 0.956 . S
C726 H739 0.961 . S
C726 H740 0.961 . S
C727 C724 1.539 . S
C727 H741 0.958 . S
C727 H742 0.961 . S
C727 H743 0.960 . S
H728 C712 0.931 . S
H729 C717 0.929 . S
H730 C718 0.960 . S
H731 C718 0.962 . S
H732 C718 0.960 . S
H733 C719 0.961 . S
H734 C719 0.961 . S
H735 C719 0.961 . S
H736 C720 0.931 . S
H737 C725 0.930 . S
H738 C726 0.956 . S
H739 C726 0.961 . S
H740 C726 0.961 . S
H741 C727 0.958 . S
H742 C727 0.961 . S
H743 C727 0.960 . S
C744 C745 1.391 . S
C744 C746 1.394 . S
C744 H760 0.931 . S
C745 C744 1.391 . S
C745 C749 1.376 . S
C746 C744 1.394 . S
C746 C747 1.369 . S
C746 C750 1.531 . S
C747 C746 1.369 . S
C747 C748 1.410 . S
C747 C755 1.503 . S
C748 C747 1.410 . S
C748 C749 1.392 . S
C748 C751 1.511 . S
C749 C745 1.376 . S
C749 C748 1.392 . S
C749 H761 0.929 . S
C750 C746 1.531 . S
C750 H762 0.960 . S
C750 H763 0.962 . S
C750 H764 0.960 . S
C751 C748 1.511 . S
C751 H765 0.961 . S
C751 H766 0.961 . S
C751 H767 0.961 . S
C752 C753 1.370 . S
C752 C754 1.363 . S
C752 H768 0.931 . S
C753 C752 1.370 . S
C753 C757 1.408 . S
C754 C752 1.363 . S
C754 C755 1.370 . S
C754 C758 1.524 . S
C755 C747 1.503 . S
C755 C754 1.370 . S
C755 C756 1.403 . S
C756 C755 1.403 . S
C756 C757 1.404 . S
C756 C759 1.539 . S
C757 C753 1.408 . S
C757 C756 1.404 . S
C757 H769 0.930 . S
C758 C754 1.524 . S
C758 H770 0.956 . S
C758 H771 0.961 . S
C758 H772 0.961 . S
C759 C756 1.539 . S
C759 H773 0.958 . S
C759 H774 0.961 . S
C759 H775 0.960 . S
H760 C744 0.931 . S
H761 C749 0.929 . S
H762 C750 0.960 . S
H763 C750 0.962 . S
H764 C750 0.960 . S
H765 C751 0.961 . S
H766 C751 0.961 . S
H767 C751 0.961 . S
H768 C752 0.931 . S
H769 C757 0.930 . S
H770 C758 0.956 . S
H771 C758 0.961 . S
H772 C758 0.961 . S
H773 C759 0.958 . S
H774 C759 0.961 . S
H775 C759 0.960 . S
C776 C777 1.391 . S
C776 C778 1.394 . S
C776 H792 0.931 . S
C777 C776 1.391 . S
C777 C781 1.376 . S
C778 C776 1.394 . S
C778 C779 1.369 . S
C778 C782 1.531 . S
C779 C778 1.369 . S
C779 C780 1.410 . S
C779 C787 1.503 . S
C780 C779 1.410 . S
C780 C781 1.392 . S
C780 C783 1.511 . S
C781 C777 1.376 . S
C781 C780 1.392 . S
C781 H793 0.929 . S
C782 C778 1.531 . S
C782 H794 0.960 . S
C782 H795 0.962 . S
C782 H796 0.960 . S
C783 C780 1.511 . S
C783 H797 0.961 . S
C783 H798 0.961 . S
C783 H799 0.961 . S
C784 C785 1.370 . S
C784 C786 1.363 . S
C784 H800 0.931 . S
C785 C784 1.370 . S
C785 C789 1.408 . S
C786 C784 1.363 . S
C786 C787 1.370 . S
C786 C790 1.524 . S
C787 C779 1.503 . S
C787 C786 1.370 . S
C787 C788 1.403 . S
C788 C787 1.403 . S
C788 C789 1.404 . S
C788 C791 1.539 . S
C789 C785 1.408 . S
C789 C788 1.404 . S
C789 H801 0.930 . S
C790 C786 1.524 . S
C790 H802 0.956 . S
C790 H803 0.961 . S
C790 H804 0.961 . S
C791 C788 1.539 . S
C791 H805 0.958 . S
C791 H806 0.961 . S
C791 H807 0.960 . S
H792 C776 0.931 . S
H793 C781 0.929 . S
H794 C782 0.960 . S
H795 C782 0.962 . S
H796 C782 0.960 . S
H797 C783 0.961 . S
H798 C783 0.961 . S
H799 C783 0.961 . S
H800 C784 0.931 . S
H801 C789 0.930 . S
H802 C790 0.956 . S
H803 C790 0.961 . S
H804 C790 0.961 . S
H805 C791 0.958 . S
H806 C791 0.961 . S
H807 C791 0.960 . S
C808 C809 1.391 . S
C808 C810 1.394 . S
C808 H824 0.931 . S
C809 C808 1.391 . S
C809 C813 1.376 . S
C810 C808 1.394 . S
C810 C811 1.369 . S
C810 C814 1.531 . S
C811 C810 1.369 . S
C811 C812 1.410 . S
C811 C819 1.503 . S
C812 C811 1.410 . S
C812 C813 1.392 . S
C812 C815 1.511 . S
C813 C809 1.376 . S
C813 C812 1.392 . S
C813 H825 0.929 . S
C814 C810 1.531 . S
C814 H826 0.960 . S
C814 H827 0.962 . S
C814 H828 0.960 . S
C815 C812 1.511 . S
C815 H829 0.961 . S
C815 H830 0.961 . S
C815 H831 0.961 . S
C816 C817 1.370 . S
C816 C818 1.363 . S
C816 H832 0.931 . S
C817 C816 1.370 . S
C817 C821 1.408 . S
C818 C816 1.363 . S
C818 C819 1.370 . S
C818 C822 1.524 . S
C819 C811 1.503 . S
C819 C818 1.370 . S
C819 C820 1.403 . S
C820 C819 1.403 . S
C820 C821 1.404 . S
C820 C823 1.539 . S
C821 C817 1.408 . S
C821 C820 1.404 . S
C821 H833 0.930 . S
C822 C818 1.524 . S
C822 H834 0.956 . S
C822 H835 0.961 . S
C822 H836 0.961 . S
C823 C820 1.539 . S
C823 H837 0.958 . S
C823 H838 0.961 . S
C823 H839 0.960 . S
H824 C808 0.931 . S
H825 C813 0.929 . S
H826 C814 0.960 . S
H827 C814 0.962 . S
H828 C814 0.960 . S
H829 C815 0.961 . S
H830 C815 0.961 . S
H831 C815 0.961 . S
H832 C816 0.931 . S
H833 C821 0.930 . S
H834 C822 0.956 . S
H835 C822 0.961 . S
H836 C822 0.961 . S
H837 C823 0.958 . S
H838 C823 0.961 . S
H839 C823 0.960 . S
C840 C841 1.391 . S
C840 C842 1.394 . S
C840 H856 0.931 . S
C841 C840 1.391 . S
C841 C845 1.376 . S
C842 C840 1.394 . S
C842 C843 1.369 . S
C842 C846 1.531 . S
C843 C842 1.369 . S
C843 C844 1.410 . S
C843 C851 1.503 . S
C844 C843 1.410 . S
C844 C845 1.392 . S
C844 C847 1.511 . S
C845 C841 1.376 . S
C845 C844 1.392 . S
C845 H857 0.929 . S
C846 C842 1.531 . S
C846 H858 0.960 . S
C846 H859 0.962 . S
C846 H860 0.960 . S
C847 C844 1.511 . S
C847 H861 0.961 . S
C847 H862 0.961 . S
C847 H863 0.961 . S
C848 C849 1.370 . S
C848 C850 1.363 . S
C848 H864 0.931 . S
C849 C848 1.370 . S
C849 C853 1.408 . S
C850 C848 1.363 . S
C850 C851 1.370 . S
C850 C854 1.524 . S
C851 C843 1.503 . S
C851 C850 1.370 . S
C851 C852 1.403 . S
C852 C851 1.403 . S
C852 C853 1.404 . S
C852 C855 1.539 . S
C853 C849 1.408 . S
C853 C852 1.404 . S
C853 H865 0.930 . S
C854 C850 1.524 . S
C854 H866 0.956 . S
C854 H867 0.961 . S
C854 H868 0.961 . S
C855 C852 1.539 . S
C855 H869 0.958 . S
C855 H870 0.961 . S
C855 H871 0.960 . S
H856 C840 0.931 . S
H857 C845 0.929 . S
H858 C846 0.960 . S
H859 C846 0.962 . S
H860 C846 0.960 . S
H861 C847 0.961 . S
H862 C847 0.961 . S
H863 C847 0.961 . S
H864 C848 0.931 . S
H865 C853 0.930 . S
H866 C854 0.956 . S
H867 C854 0.961 . S
H868 C854 0.961 . S
H869 C855 0.958 . S
H870 C855 0.961 . S
H871 C855 0.960 . S
C872 C873 1.391 . S
C872 C874 1.394 . S
C872 H888 0.931 . S
C873 C872 1.391 . S
C873 C877 1.376 . S
C874 C872 1.394 . S
C874 C875 1.369 . S
C874 C878 1.531 . S
C875 C874 1.369 . S
C875 C876 1.410 . S
C875 C883 1.503 . S
C876 C875 1.410 . S
C876 C877 1.392 . S
C876 C879 1.511 . S
C877 C873 1.376 . S
C877 C876 1.392 . S
C877 H889 0.929 . S
C878 C874 1.531 . S
C878 H890 0.960 . S
C878 H891 0.962 . S
C878 H892 0.960 . S
C879 C876 1.511 . S
C879 H893 0.961 . S
C879 H894 0.961 . S
C879 H895 0.961 . S
C880 C881 1.370 . S
C880 C882 1.363 . S
C880 H896 0.931 . S
C881 C880 1.370 . S
C881 C885 1.408 . S
C882 C880 1.363 . S
C882 C883 1.370 . S
C882 C886 1.524 . S
C883 C875 1.503 . S
C883 C882 1.370 . S
C883 C884 1.403 . S
C884 C883 1.403 . S
C884 C885 1.404 . S
C884 C887 1.539 . S
C885 C881 1.408 . S
C885 C884 1.404 . S
C885 H897 0.930 . S
C886 C882 1.524 . S
C886 H898 0.956 . S
C886 H899 0.961 . S
C886 H900 0.961 . S
C887 C884 1.539 . S
C887 H901 0.958 . S
C887 H902 0.961 . S
C887 H903 0.960 . S
H888 C872 0.931 . S
H889 C877 0.929 . S
H890 C878 0.960 . S
H891 C878 0.962 . S
H892 C878 0.960 . S
H893 C879 0.961 . S
H894 C879 0.961 . S
H895 C879 0.961 . S
H896 C880 0.931 . S
H897 C885 0.930 . S
H898 C886 0.956 . S
H899 C886 0.961 . S
H900 C886 0.961 . S
H901 C887 0.958 . S
H902 C887 0.961 . S
H903 C887 0.960 . S
C904 C905 1.391 . S
C904 C906 1.394 . S
C904 H920 0.931 . S
C905 C904 1.391 . S
C905 C909 1.376 . S
C906 C904 1.394 . S
C906 C907 1.369 . S
C906 C910 1.531 . S
C907 C906 1.369 . S
C907 C908 1.410 . S
C907 C915 1.503 . S
C908 C907 1.410 . S
C908 C909 1.392 . S
C908 C911 1.511 . S
C909 C905 1.376 . S
C909 C908 1.392 . S
C909 H921 0.929 . S
C910 C906 1.531 . S
C910 H922 0.960 . S
C910 H923 0.962 . S
C910 H924 0.960 . S
C911 C908 1.511 . S
C911 H925 0.961 . S
C911 H926 0.961 . S
C911 H927 0.961 . S
C912 C913 1.370 . S
C912 C914 1.363 . S
C912 H928 0.931 . S
C913 C912 1.370 . S
C913 C917 1.408 . S
C914 C912 1.363 . S
C914 C915 1.370 . S
C914 C918 1.524 . S
C915 C907 1.503 . S
C915 C914 1.370 . S
C915 C916 1.403 . S
C916 C915 1.403 . S
C916 C917 1.404 . S
C916 C919 1.539 . S
C917 C913 1.408 . S
C917 C916 1.404 . S
C917 H929 0.930 . S
C918 C914 1.524 . S
C918 H930 0.956 . S
C918 H931 0.961 . S
C918 H932 0.961 . S
C919 C916 1.539 . S
C919 H933 0.958 . S
C919 H934 0.961 . S
C919 H935 0.960 . S
H920 C904 0.931 . S
H921 C909 0.929 . S
H922 C910 0.960 . S
H923 C910 0.962 . S
H924 C910 0.960 . S
H925 C911 0.961 . S
H926 C911 0.961 . S
H927 C911 0.961 . S
H928 C912 0.931 . S
H929 C917 0.930 . S
H930 C918 0.956 . S
H931 C918 0.961 . S
H932 C918 0.961 . S
H933 C919 0.958 . S
H934 C919 0.961 . S
H935 C919 0.960 . S
C936 C937 1.391 . S
C936 C938 1.394 . S
C936 H952 0.931 . S
C937 C936 1.391 . S
C937 C941 1.376 . S
C938 C936 1.394 . S
C938 C939 1.369 . S
C938 C942 1.531 . S
C939 C938 1.369 . S
C939 C940 1.410 . S
C939 C947 1.503 . S
C940 C939 1.410 . S
C940 C941 1.392 . S
C940 C943 1.511 . S
C941 C937 1.376 . S
C941 C940 1.392 . S
C941 H953 0.929 . S
C942 C938 1.531 . S
C942 H954 0.960 . S
C942 H955 0.962 . S
C942 H956 0.960 . S
C943 C940 1.511 . S
C943 H957 0.961 . S
C943 H958 0.961 . S
C943 H959 0.961 . S
C944 C945 1.370 . S
C944 C946 1.363 . S
C944 H960 0.931 . S
C945 C944 1.370 . S
C945 C949 1.408 . S
C946 C944 1.363 . S
C946 C947 1.370 . S
C946 C950 1.524 . S
C947 C939 1.503 . S
C947 C946 1.370 . S
C947 C948 1.403 . S
C948 C947 1.403 . S
C948 C949 1.404 . S
C948 C951 1.539 . S
C949 C945 1.408 . S
C949 C948 1.404 . S
C949 H961 0.930 . S
C950 C946 1.524 . S
C950 H962 0.956 . S
C950 H963 0.961 . S
C950 H964 0.961 . S
C951 C948 1.539 . S
C951 H965 0.958 . S
C951 H966 0.961 . S
C951 H967 0.960 . S
H952 C936 0.931 . S
H953 C941 0.929 . S
H954 C942 0.960 . S
H955 C942 0.962 . S
H956 C942 0.960 . S
H957 C943 0.961 . S
H958 C943 0.961 . S
H959 C943 0.961 . S
H960 C944 0.931 . S
H961 C949 0.930 . S
H962 C950 0.956 . S
H963 C950 0.961 . S
H964 C950 0.961 . S
H965 C951 0.958 . S
H966 C951 0.961 . S
H967 C951 0.960 . S
C968 C969 1.391 . S
C968 C970 1.394 . S
C968 H984 0.931 . S
C969 C968 1.391 . S
C969 C973 1.376 . S
C970 C968 1.394 . S
C970 C971 1.369 . S
C970 C974 1.531 . S
C971 C970 1.369 . S
C971 C972 1.410 . S
C971 C979 1.503 . S
C972 C971 1.410 . S
C972 C973 1.392 . S
C972 C975 1.511 . S
C973 C969 1.376 . S
C973 C972 1.392 . S
C973 H985 0.929 . S
C974 C970 1.531 . S
C974 H986 0.960 . S
C974 H987 0.962 . S
C974 H988 0.960 . S
C975 C972 1.511 . S
C975 H989 0.961 . S
C975 H990 0.961 . S
C975 H991 0.961 . S
C976 C977 1.370 . S
C976 C978 1.363 . S
C976 H992 0.931 . S
C977 C976 1.370 . S
C977 C981 1.408 . S
C978 C976 1.363 . S
C978 C979 1.370 . S
C978 C982 1.524 . S
C979 C971 1.503 . S
C979 C978 1.370 . S
C979 C980 1.403 . S
C980 C979 1.403 . S
C980 C981 1.404 . S
C980 C983 1.539 . S
C981 C977 1.408 . S
C981 C980 1.404 . S
C981 H993 0.930 . S
C982 C978 1.524 . S
C982 H994 0.956 . S
C982 H995 0.961 . S
C982 H996 0.961 . S
C983 C980 1.539 . S
C983 H997 0.958 . S
C983 H998 0.961 . S
C983 H999 0.960 . S
H984 C968 0.931 . S
H985 C973 0.929 . S
H986 C974 0.960 . S
H987 C974 0.962 . S
H988 C974 0.960 . S
H989 C975 0.961 . S
H990 C975 0.961 . S
H991 C975 0.961 . S
H992 C976 0.931 . S
H993 C981 0.930 . S
H994 C982 0.956 . S
H995 C982 0.961 . S
H996 C982 0.961 . S
H997 C983 0.958 . S
H998 C983 0.961 . S
H999 C983 0.960 . S
C1000 C1001 1.391 . S
C1000 C1002 1.394 . S
C1000 H1016 0.931 . S
C1001 C1000 1.391 . S
C1001 C1005 1.376 . S
C1002 C1000 1.394 . S
C1002 C1003 1.369 . S
C1002 C1006 1.531 . S
C1003 C1002 1.369 . S
C1003 C1004 1.410 . S
C1003 C1011 1.503 . S
C1004 C1003 1.410 . S
C1004 C1005 1.392 . S
C1004 C1007 1.511 . S
C1005 C1001 1.376 . S
C1005 C1004 1.392 . S
C1005 H1017 0.929 . S
C1006 C1002 1.531 . S
C1006 H1018 0.960 . S
C1006 H1019 0.962 . S
C1006 H1020 0.960 . S
C1007 C1004 1.511 . S
C1007 H1021 0.961 . S
C1007 H1022 0.961 . S
C1007 H1023 0.961 . S
C1008 C1009 1.370 . S
C1008 C1010 1.363 . S
C1008 H1024 0.931 . S
C1009 C1008 1.370 . S
C1009 C1013 1.408 . S
C1010 C1008 1.363 . S
C1010 C1011 1.370 . S
C1010 C1014 1.524 . S
C1011 C1003 1.503 . S
C1011 C1010 1.370 . S
C1011 C1012 1.403 . S
C1012 C1011 1.403 . S
C1012 C1013 1.404 . S
C1012 C1015 1.539 . S
C1013 C1009 1.408 . S
C1013 C1012 1.404 . S
C1013 H1025 0.930 . S
C1014 C1010 1.524 . S
C1014 H1026 0.956 . S
C1014 H1027 0.961 . S
C1014 H1028 0.961 . S
C1015 C1012 1.539 . S
C1015 H1029 0.958 . S
C1015 H1030 0.961 . S
C1015 H1031 0.960 . S
H1016 C1000 0.931 . S
H1017 C1005 0.929 . S
H1018 C1006 0.960 . S
H1019 C1006 0.962 . S
H1020 C1006 0.960 . S
H1021 C1007 0.961 . S
H1022 C1007 0.961 . S
H1023 C1007 0.961 . S
H1024 C1008 0.931 . S
H1025 C1013 0.930 . S
H1026 C1014 0.956 . S
H1027 C1014 0.961 . S
H1028 C1014 0.961 . S
H1029 C1015 0.958 . S
H1030 C1015 0.961 . S
H1031 C1015 0.960 . S
C265 N1 0.938 . S
C273 C110 0.970 . S
C297 N18 1.128 . S
C305 C159 1.114 . S
C337 C194 2.090 . S
C329 N28 2.119 . S
C361 N40 2.615 . S
C369 C233 2.600 . S
C401 C154 2.416 . S
C393 N5 2.356 . S
C433 C113 0.722 . S
C425 N14 0.714 . S
C465 C243 2.019 . S
C457 N31 2.042 . S
C497 C202 1.403 . S
C489 N41 1.425 . S
C521 N2 1.350 . S
C529 C230 1.360 . S
C561 C162 2.450 1_556 S
C553 N27 2.516 . S
C585 N44 2.399 . S
C593 C123 2.450 . S
C617 N15 0.692 . S
C625 C199 0.664 . S
C657 C119 1.448 . S
C649 N57 1.468 . S
C681 N70 0.912 . S
C689 C150 0.930 . S
C713 N79 2.289 . S
C721 C203 2.328 . S
C745 N93 2.395 . S
C753 C242 2.383 . S
C777 N54 1.932 . S
C785 C163 2.016 1_566 S
C817 C122 1.473 . S
C809 N66 1.538 . S
C849 C234 1.413 . S
C841 N80 1.471 . S
C881 C193 1.714 . S
C873 N96 1.724 . S
C905 N53 1.455 . S
C913 C239 1.498 . S
C945 C153 2.146 . S
C937 N83 2.134 . S
C977 C114 2.636 . S
C969 N92 2.608 . S
C1001 N67 0.857 . S
C1009 C190 0.896 . S
