# Generated by pormake.
# Topology zzz, (3,6)-cn, num edge types: 1
# Building blocks:
#     Node 0, Type 0, BuildingBlock: BETDAH_clean_linker_0, # of connection points: 3
#     Node 1, Type 0, BuildingBlock: BETDAH_clean_linker_0, # of connection points: 3
#     Node 2, Type 0, BuildingBlock: BETDAH_clean_linker_0, # of connection points: 3
#     Node 3, Type 0, BuildingBlock: BETDAH_clean_linker_0, # of connection points: 3
#     Node 4, Type 0, BuildingBlock: BETDAH_clean_linker_0, # of connection points: 3
#     Node 5, Type 0, BuildingBlock: BETDAH_clean_linker_0, # of connection points: 3
#     Node 6, Type 0, BuildingBlock: BETDAH_clean_linker_0, # of connection points: 3
#     Node 7, Type 0, BuildingBlock: BETDAH_clean_linker_0, # of connection points: 3
#     Node 8, Type 1, BuildingBlock: BETDAH_clean_sbu_0, # of connection points: 6
#     Node 9, Type 1, BuildingBlock: BETDAH_clean_sbu_0, # of connection points: 6
#     Node 10, Type 1, BuildingBlock: BETDAH_clean_sbu_0, # of connection points: 6
#     Node 11, Type 1, BuildingBlock: BETDAH_clean_sbu_0, # of connection points: 6
#     Edge 12, Type (0, 1), BuildingBlock: UVAHIK_clean_linker_0, # of connection points: 2
#     Edge 13, Type (0, 1), BuildingBlock: UVAHIK_clean_linker_0, # of connection points: 2
#     Edge 14, Type (0, 1), BuildingBlock: UVAHIK_clean_linker_0, # of connection points: 2
#     Edge 15, Type (0, 1), BuildingBlock: UVAHIK_clean_linker_0, # of connection points: 2
#     Edge 16, Type (0, 1), BuildingBlock: UVAHIK_clean_linker_0, # of connection points: 2
#     Edge 17, Type (0, 1), BuildingBlock: UVAHIK_clean_linker_0, # of connection points: 2
#     Edge 18, Type (0, 1), BuildingBlock: UVAHIK_clean_linker_0, # of connection points: 2
#     Edge 19, Type (0, 1), BuildingBlock: UVAHIK_clean_linker_0, # of connection points: 2
#     Edge 20, Type (0, 1), BuildingBlock: UVAHIK_clean_linker_0, # of connection points: 2
#     Edge 21, Type (0, 1), BuildingBlock: UVAHIK_clean_linker_0, # of connection points: 2
#     Edge 22, Type (0, 1), BuildingBlock: UVAHIK_clean_linker_0, # of connection points: 2
#     Edge 23, Type (0, 1), BuildingBlock: UVAHIK_clean_linker_0, # of connection points: 2
#     Edge 24, Type (0, 1), BuildingBlock: UVAHIK_clean_linker_0, # of connection points: 2
#     Edge 25, Type (0, 1), BuildingBlock: UVAHIK_clean_linker_0, # of connection points: 2
#     Edge 26, Type (0, 1), BuildingBlock: UVAHIK_clean_linker_0, # of connection points: 2
#     Edge 27, Type (0, 1), BuildingBlock: UVAHIK_clean_linker_0, # of connection points: 2
#     Edge 28, Type (0, 1), BuildingBlock: UVAHIK_clean_linker_0, # of connection points: 2
#     Edge 29, Type (0, 1), BuildingBlock: UVAHIK_clean_linker_0, # of connection points: 2
#     Edge 30, Type (0, 1), BuildingBlock: UVAHIK_clean_linker_0, # of connection points: 2
#     Edge 31, Type (0, 1), BuildingBlock: UVAHIK_clean_linker_0, # of connection points: 2
#     Edge 32, Type (0, 1), BuildingBlock: UVAHIK_clean_linker_0, # of connection points: 2
#     Edge 33, Type (0, 1), BuildingBlock: UVAHIK_clean_linker_0, # of connection points: 2
#     Edge 34, Type (0, 1), BuildingBlock: UVAHIK_clean_linker_0, # of connection points: 2
#     Edge 35, Type (0, 1), BuildingBlock: UVAHIK_clean_linker_0, # of connection points: 2
# Relax obj value: 0.229
# Max RMSD: 0.176
# Mean RMSD: 0.162
data_MOF--net-zzz--node1-BETDAH_clean_sbu_0--node2-BETDAH_clean_linker_0--edge1-UVAHIK_clean_linker_0
_symmetry_space_group_name_H-M    P1
_symmetry_Int_Tables_number       1
_symmetry_cell_setting            triclinic
loop_
_symmetry_equiv_pos_as_xyz
'x, y, z'
_cell_length_a     68.082581
_cell_length_b     68.129258
_cell_length_c     17.001813
_cell_angle_alpha  89.96998
_cell_angle_beta   89.998796
_cell_angle_gamma 89.928694
loop_
_atom_site_label
_atom_site_type_symbol
_atom_site_fract_x
_atom_site_fract_y
_atom_site_fract_z
_atom_type_partial_charge
H0 H 0.79322 0.52529 0.26054 0.0
H1 H 0.73194 0.51716 0.21599 0.0
H2 H 0.753 0.52117 0.45514 0.0
C3 C 0.77836 0.52402 0.28298 0.0
C4 C 0.77515 0.52383 0.36445 0.0
C5 C 0.76287 0.52169 0.22967 0.0
C6 C 0.74375 0.51915 0.25784 0.0
C7 C 0.74 0.51923 0.33938 0.0
C8 C 0.75582 0.52127 0.39243 0.0
N9 N 0.72053 0.51735 0.36918 0.0
C10 C 0.7039 0.5173 0.32118 0.0
H11 H 0.02272 0.78752 0.28442 0.0
H12 H 0.019 0.72636 0.22638 0.0
H13 H 0.99473 0.74779 0.44514 0.0
C14 C 0.01854 0.77267 0.3003 0.0
C15 C 1.0085 0.76952 0.37089 0.0
C16 C 0.02248 0.75719 0.24836 0.0
C17 C 0.0162 0.73819 0.26741 0.0
C18 C 1.00632 0.7346 0.33896 0.0
C19 C 1.00264 0.75036 0.39081 0.0
N20 N 0.99955 0.71547 0.35921 0.0
C21 C 1.00115 0.69924 0.30961 0.0
H22 H 0.72978 0.99536 0.26026 0.0
H23 H 0.79108 1.0028 0.214 0.0
H24 H 0.77043 0.99851 0.4537 0.0
C25 C 0.74469 0.99641 0.28227 0.0
C26 C 0.74807 0.99636 0.36363 0.0
C27 C 0.76012 0.99868 0.22856 0.0
C28 C 0.77932 1.00089 0.25616 0.0
C29 C 0.78324 1.00056 0.33757 0.0
C30 C 0.76748 0.99862 0.39108 0.0
N31 N 0.80279 1.00206 0.3668 0.0
C32 C 0.81935 1.00192 0.31839 0.0
H33 H 0.50287 0.73131 0.27571 0.0
H34 H 0.50881 0.79173 0.20976 0.0
H35 H 0.5235 0.77314 0.44589 0.0
C36 C 0.50663 0.74628 0.29148 0.0
C37 C 0.51307 0.7504 0.36775 0.0
C38 C 0.50526 0.76108 0.23469 0.0
C39 C 0.50999 0.78044 0.25436 0.0
C40 C 0.51665 0.78496 0.33083 0.0
C41 C 0.51833 0.76979 0.38714 0.0
N42 N 0.52184 0.80449 0.35235 0.0
C43 C 0.52055 0.8205 0.30141 0.0
H44 H 0.2291 0.51193 0.149 0.0
H45 H 0.29087 0.51712 0.19126 0.0
H46 H 0.26989 0.49639 0.96609 0.0
C47 C 0.24408 0.51004 0.12846 0.0
C48 C 0.24748 0.50336 0.05182 0.0
C49 C 0.25962 0.51506 0.17832 0.0
C50 C 0.27899 0.51316 0.15205 0.0
C51 C 0.28285 0.5061 0.07556 0.0
C52 C 0.267 0.50162 0.02513 0.0
N53 N 0.30243 0.50326 0.04836 0.0
C54 C 0.31881 0.50424 0.09745 0.0
H55 H 0.99861 0.22811 0.11042 0.0
H56 H 1.00371 0.2888 0.17487 0.0
H57 H 0.02965 0.26774 0.95873 0.0
C58 C 1.00336 0.24292 0.09669 0.0
C59 C 0.01425 0.24613 0.02824 0.0
C60 C 0.99941 0.25822 0.14951 0.0
C61 C 1.00654 0.27709 0.1333 0.0
C62 C 0.01732 0.28073 0.0639 0.0
C63 C 0.02102 0.26515 0.01129 0.0
N64 N 0.02498 0.29969 0.04668 0.0
C65 C 0.02409 0.31546 0.0988 0.0
H66 H 0.29201 0.99956 0.11869 0.0
H67 H 0.23168 1.0075 0.18272 0.0
H68 H 0.25141 0.02287 0.94879 0.0
C69 C 0.27721 1.00392 0.10246 0.0
C70 C 0.27357 0.01108 0.02678 0.0
C71 C 0.26222 1.00278 0.15843 0.0
C72 C 0.24312 0.00848 0.13863 0.0
C73 C 0.23903 0.01571 0.06255 0.0
C74 C 0.25441 0.01719 0.00711 0.0
N75 N 0.21973 0.02167 0.04055 0.0
C76 C 0.20362 0.02099 0.0912 0.0
H77 H 0.49992 0.29613 0.12599 0.0
H78 H 0.50206 0.2353 0.19113 0.0
H79 H 0.49841 0.25193 0.94624 0.0
C80 C 0.49945 0.28075 0.10949 0.0
C81 C 0.49876 0.27579 0.02982 0.0
C82 C 0.50071 0.26624 0.16773 0.0
C83 C 0.50088 0.24641 0.14582 0.0
C84 C 0.49969 0.24107 0.0658 0.0
C85 C 0.49885 0.25589 0.00793 0.0
N86 N 0.49962 0.22103 0.04193 0.0
C87 C 0.49992 0.20527 0.09432 0.0
Ho88 Ho 0.02252 1.00208 0.77365 0.0
Ho89 Ho 0.99962 0.01335 0.63216 0.0
C90 C 1.00714 0.96822 0.65036 0.0
C91 C 0.03464 0.98292 0.89457 0.0
C92 C 0.03455 0.96146 0.90635 0.0
C93 C 0.0171 0.95067 0.89694 0.0
C94 C 0.01755 0.93022 0.8947 0.0
C95 C 0.03545 0.92007 0.90144 0.0
C96 C 0.05282 0.93082 0.9132 0.0
C97 C 0.05236 0.95133 0.9158 0.0
C98 C 0.04495 0.01338 0.65109 0.0
C99 C 0.01518 0.04723 0.75497 0.0
C100 C 0.98709 0.03234 0.51132 0.0
C101 C 0.9867 0.05378 0.49896 0.0
C102 C 1.00371 0.06507 0.51115 0.0
C103 C 1.00269 0.0855 0.51163 0.0
C104 C 0.98466 0.09513 0.50023 0.0
C105 C 0.96773 0.08386 0.48606 0.0
C106 C 0.96876 0.06336 0.48532 0.0
C107 C 0.97738 1.00234 0.7561 0.0
O108 O 0.01288 0.97285 0.72238 0.0
O109 O 1.00279 0.98189 0.59821 0.0
O110 O 0.04647 0.98911 0.83936 0.0
O111 O 0.01747 0.99158 0.89201 0.0
O112 O 0.04865 0.01772 0.7239 0.0
O113 O 0.02984 1.00265 0.64696 0.0
O114 O 0.00932 0.04258 0.68312 0.0
O115 O 0.01955 0.03358 0.80723 0.0
O116 O 0.97543 0.02599 0.56677 0.0
O117 O 1.00445 0.02407 0.51398 0.0
O118 O 0.97352 0.99774 0.68366 0.0
O119 O 0.99248 0.01305 0.75873 0.0
H120 H 1.00314 0.95799 0.88812 0.0
H121 H 1.00394 0.92239 0.88477 0.0
H122 H 0.06679 0.92338 0.92 0.0
H123 H 0.06601 0.95932 0.92248 0.0
H124 H 0.01773 0.05816 0.52327 0.0
H125 H 0.01595 0.09375 0.52363 0.0
H126 H 0.95369 0.09089 0.47579 0.0
H127 H 0.95544 0.05496 0.4765 0.0
Ho128 Ho 0.51713 0.02347 0.77734 0.0
Ho129 Ho 0.50556 1.00384 0.6135 0.0
C130 C 0.55114 1.00807 0.65149 0.0
C131 C 0.53644 0.03172 0.90245 0.0
C132 C 0.5575 0.02797 0.91537 0.0
C133 C 0.56578 0.00996 0.89213 0.0
C134 C 0.58609 1.00789 0.88552 0.0
C135 C 0.59859 0.02375 0.9021 0.0
C136 C 0.59033 0.04141 0.92965 0.0
C137 C 0.56995 0.0435 0.93603 0.0
C138 C 0.50729 0.04789 0.65912 0.0
C139 C 0.47193 0.01514 0.74666 0.0
C140 C 0.48898 1.0004 0.47891 0.0
C141 C 0.46844 0.99454 0.46273 0.0
C142 C 0.45283 1.00672 0.48658 0.0
C143 C 0.43358 0.99986 0.48545 0.0
C144 C 0.42943 0.98078 0.45963 0.0
C145 C 0.44477 0.96897 0.43107 0.0
C146 C 0.46417 0.97577 0.433 0.0
C147 C 0.50802 0.97633 0.72973 0.0
O148 O 0.54609 0.01388 0.7233 0.0
O149 O 0.5381 1.00449 0.59539 0.0
O150 O 0.53278 0.04473 0.84772 0.0
O151 O 0.52509 0.01624 0.89715 0.0
O152 O 0.50303 0.05117 0.73254 0.0
O153 O 0.51721 0.03228 0.65292 0.0
O154 O 0.47664 0.01166 0.672 0.0
O155 O 0.4853 0.01819 0.80208 0.0
O156 O 0.50039 0.98667 0.50821 0.0
O157 O 0.49121 0.01735 0.51431 0.0
O158 O 0.50412 0.97222 0.65686 0.0
O159 O 0.51041 0.99458 0.73369 0.0
H160 H 0.55657 0.99778 0.87443 0.0
H161 H 0.59188 0.99415 0.86338 0.0
H162 H 0.59958 0.05377 0.94473 0.0
H163 H 0.56389 0.05757 0.95331 0.0
H164 H 0.45545 0.02132 0.5094 0.0
H165 H 0.42191 0.00941 0.50597 0.0
H166 H 0.44183 0.95426 0.40997 0.0
H167 H 0.4759 0.96609 0.41412 0.0
Ho168 Ho 0.5015 0.51832 0.77775 0.0
Ho169 Ho 0.52288 0.50808 0.63287 0.0
C170 C 0.51524 0.55295 0.65509 0.0
C171 C 0.48915 0.53558 0.90339 0.0
C172 C 0.48468 0.55651 0.91717 0.0
C173 C 0.49877 0.57099 0.90076 0.0
C174 C 0.49356 0.59078 0.90055 0.0
C175 C 0.47423 0.5965 0.91729 0.0
C176 C 0.46035 0.58218 0.93813 0.0
C177 C 0.46553 0.56229 0.93762 0.0
C178 C 0.47789 0.5091 0.65554 0.0
C179 C 0.50877 0.47334 0.75336 0.0
C180 C 0.5355 0.48997 0.51003 0.0
C181 C 0.54166 0.46934 0.50472 0.0
C182 C 0.53794 0.45853 0.43641 0.0
C183 C 0.54079 0.4382 0.43598 0.0
C184 C 0.54735 0.42838 0.5041 0.0
C185 C 0.55174 0.43943 0.57152 0.0
C186 C 0.54888 0.4597 0.57189 0.0
C187 C 0.54637 0.51674 0.75658 0.0
O188 O 0.51123 0.54789 0.72868 0.0
O189 O 0.51777 0.53944 0.60046 0.0
O190 O 0.47745 0.52674 0.85397 0.0
O191 O 0.50761 0.53108 0.89159 0.0
O192 O 0.47481 0.50368 0.72755 0.0
O193 O 0.49314 0.5196 0.65176 0.0
O194 O 0.513 0.47852 0.68034 0.0
O195 O 0.50614 0.48673 0.80843 0.0
O196 O 0.54666 0.5013 0.55298 0.0
O197 O 0.51683 0.49249 0.52468 0.0
O198 O 0.54977 0.52221 0.68492 0.0
O199 O 0.53102 0.50644 0.75878 0.0
H200 H 0.51369 0.56708 0.88509 0.0
H201 H 0.50462 0.60164 0.88621 0.0
H202 H 0.44539 0.58633 0.95213 0.0
H203 H 0.45441 0.55138 0.95043 0.0
H204 H 0.53205 0.46567 0.38454 0.0
H205 H 0.53696 0.43009 0.38343 0.0
H206 H 0.55697 0.43236 0.62464 0.0
H207 H 0.5516 0.46774 0.62577 0.0
Ho208 Ho 1.00533 0.49663 0.78293 0.0
Ho209 Ho 0.0178 0.51664 0.62085 0.0
C210 C 0.97204 0.51216 0.65453 0.0
C211 C 0.98533 0.48817 0.90606 0.0
C212 C 0.96424 0.49208 0.91752 0.0
C213 C 0.9562 0.51016 0.89389 0.0
C214 C 0.93595 0.51241 0.88597 0.0
C215 C 0.92325 0.49663 0.90159 0.0
C216 C 0.93126 0.47887 0.92943 0.0
C217 C 0.95159 0.47661 0.93713 0.0
C218 C 0.01602 0.47243 0.66526 0.0
C219 C 0.05064 0.50523 0.75707 0.0
C220 C 0.03521 0.52054 0.48819 0.0
C221 C 0.05567 0.52694 0.47451 0.0
C222 C 0.0713 0.5169 0.51082 0.0
C223 C 0.09025 0.52453 0.50888 0.0
C224 C 0.09409 0.5423 0.47028 0.0
C225 C 0.07872 0.55196 0.4308 0.0
C226 C 0.0596 0.54437 0.4333 0.0
C227 C 0.01454 0.5439 0.7375 0.0
O228 O 0.97672 0.50629 0.72664 0.0
O229 O 0.98536 0.51586 0.59962 0.0
O230 O 0.98912 0.4753 0.85099 0.0
O231 O 0.99684 0.50357 0.9024 0.0
O232 O 0.01976 0.46906 0.73908 0.0
O233 O 1.00608 0.48802 0.65825 0.0
O234 O 0.04644 0.50921 0.68237 0.0
O235 O 0.03699 0.50165 0.81079 0.0
O236 O 0.02331 0.53399 0.51626 0.0
O237 O 0.03315 0.50351 0.52323 0.0
O238 O 0.01881 0.54817 0.6651 0.0
O239 O 0.01218 0.52564 0.74077 0.0
H240 H 0.96558 0.52229 0.87695 0.0
H241 H 0.93035 0.52621 0.86366 0.0
H242 H 0.92185 0.46658 0.94378 0.0
H243 H 0.95747 0.46249 0.95465 0.0
H244 H 0.0689 0.50341 0.54311 0.0
H245 H 0.10192 0.51653 0.53816 0.0
H246 H 0.08138 0.56562 0.40003 0.0
H247 H 0.0478 0.55243 0.40518 0.0
C248 C 0.16981 0.01057 0.12406 0.0
C249 C 0.18711 0.02041 0.14477 0.0
C250 C 0.15388 0.00997 0.17628 0.0
C251 C 0.14156 0.01611 0.38779 0.0
H252 H 0.0881 0.02131 0.3117 0.0
C253 C 0.07694 0.02634 0.60191 0.0
C254 C 0.05968 0.01567 0.58756 0.0
C255 C 0.09182 0.02728 0.54537 0.0
C256 C 0.10293 0.01964 0.33385 0.0
H257 H 0.20161 0.0374 0.23497 0.0
H258 H 0.1738 0.03664 0.32616 0.0
H259 H 0.11542 0.02207 0.2185 0.0
H260 H 0.04413 0.99815 0.50149 0.0
H261 H 0.07023 0.99968 0.40232 0.0
H262 H 0.12915 0.01369 0.50296 0.0
C263 C 0.17246 0.02911 0.27033 0.0
C264 C 0.11861 0.02006 0.28037 0.0
C265 C 0.18835 0.02968 0.21808 0.0
C266 C 0.0573 1.00648 0.5142 0.0
C267 C 0.07224 1.00741 0.45736 0.0
C268 C 0.12592 0.01571 0.44111 0.0
C269 C 0.155 0.0192 0.25029 0.0
C270 C 0.13817 0.01841 0.3067 0.0
C271 C 0.08985 0.01755 0.47284 0.0
C272 C 0.10639 0.01761 0.41504 0.0
H273 H 0.16863 1.00327 0.06765 0.0
H274 H 0.14081 1.00201 0.15914 0.0
H275 H 0.15635 0.01436 0.41023 0.0
H276 H 0.07914 0.03374 0.6576 0.0
H277 H 0.10496 0.03558 0.55876 0.0
C278 C 0.49025 0.19013 0.22051 0.0
C279 C 0.50014 0.18888 0.14844 0.0
C280 C 0.4904 0.17425 0.27287 0.0
C281 C 0.51787 0.12868 0.32132 0.0
H282 H 0.47085 0.11581 0.43909 0.0
C283 C 0.51367 0.05999 0.52191 0.0
C284 C 0.5047 0.06257 0.59562 0.0
C285 C 0.51236 0.07463 0.46419 0.0
C286 C 0.48417 0.11929 0.4072 0.0
H287 H 0.51787 0.17034 0.07352 0.0
H288 H 0.51806 0.14242 0.16441 0.0
H289 H 0.47024 0.14291 0.34537 0.0
H290 H 0.48701 0.08229 0.66614 0.0
H291 H 0.4848 0.10784 0.566 0.0
H292 H 0.53183 0.10514 0.38351 0.0
C293 C 0.51037 0.15567 0.1814 0.0
C294 C 0.48383 0.13487 0.35344 0.0
C295 C 0.51019 0.17158 0.12913 0.0
C296 C 0.49404 0.07986 0.60981 0.0
C297 C 0.49269 0.09448 0.55216 0.0
C298 C 0.51821 0.11309 0.37506 0.0
C299 C 0.50047 0.15678 0.25404 0.0
C300 C 0.50071 0.13987 0.31008 0.0
C301 C 0.50202 0.09217 0.47884 0.0
C302 C 0.5014 0.10825 0.41911 0.0
H303 H 0.48243 0.20341 0.23647 0.0
H304 H 0.48286 0.17576 0.3286 0.0
H305 H 0.53124 0.13225 0.28991 0.0
H306 H 0.52202 0.04681 0.50932 0.0
H307 H 0.5195 0.07223 0.4081 0.0
C308 C 0.33402 0.49547 0.22416 0.0
C309 C 0.33532 0.50477 0.1509 0.0
C310 C 0.3499 0.49593 0.27643 0.0
C311 C 0.40376 0.50457 0.28652 0.0
H312 H 0.39325 0.51087 0.50916 0.0
C313 C 0.46524 0.51702 0.52012 0.0
C314 C 0.46286 0.50755 0.59292 0.0
C315 C 0.45021 0.51652 0.46364 0.0
C316 C 0.39647 0.50887 0.44729 0.0
H317 H 0.3539 0.52185 0.07381 0.0
H318 H 0.38172 0.52292 0.1654 0.0
H319 H 0.36606 0.51056 0.41635 0.0
H320 H 0.44323 0.48954 0.66256 0.0
H321 H 0.41722 0.48849 0.56432 0.0
H322 H 0.43424 0.50295 0.3179 0.0
C323 C 0.3686 0.51503 0.18247 0.0
C324 C 0.38084 0.50869 0.39394 0.0
C325 C 0.35267 0.51454 0.13021 0.0
C326 C 0.44543 0.49713 0.60726 0.0
C327 C 0.43046 0.49664 0.55109 0.0
C328 C 0.41943 0.50478 0.34002 0.0
C329 C 0.36741 0.50576 0.25644 0.0
C330 C 0.38423 0.5064 0.31285 0.0
C331 C 0.4325 0.50656 0.47896 0.0
C332 C 0.41597 0.50678 0.42121 0.0
H333 H 0.32073 0.48781 0.24099 0.0
H334 H 0.34852 0.48838 0.33221 0.0
H335 H 0.40693 0.50256 0.22464 0.0
H336 H 0.47853 0.52516 0.50745 0.0
H337 H 0.45225 0.5244 0.40892 0.0
C338 C 0.03207 0.32956 0.22848 0.0
C339 C 0.02351 0.3316 0.15402 0.0
C340 C 0.03166 0.34516 0.28205 0.0
C341 C 0.02471 0.39926 0.29469 0.0
H342 H 0.01605 0.38823 0.51566 0.0
C343 C 0.01029 0.46022 0.52765 0.0
C344 C 0.01869 0.45761 0.60244 0.0
C345 C 0.01151 0.44533 0.4709 0.0
C346 C 0.01874 0.39158 0.45432 0.0
H347 H 1.00776 0.35118 0.07626 0.0
H348 H 1.00675 0.37848 0.17002 0.0
H349 H 0.01661 0.36135 0.4215 0.0
H350 H 0.03548 0.43766 0.67557 0.0
H351 H 0.03779 0.41184 0.57671 0.0
H352 H 0.0267 0.42956 0.32781 0.0
C353 C 0.01406 0.36501 0.18709 0.0
C354 C 0.01906 0.37612 0.40019 0.0
C355 C 0.0145 0.34938 0.13356 0.0
C356 C 0.02877 0.44007 0.6186 0.0
C357 C 0.02997 0.4252 0.56206 0.0
C358 C 0.02435 0.41475 0.34892 0.0
C359 C 0.02264 0.36312 0.26216 0.0
C360 C 0.02211 0.37972 0.31962 0.0
C361 C 0.02111 0.4275 0.48784 0.0
C362 C 0.02144 0.4111 0.42954 0.0
H363 H 0.03914 0.31592 0.24518 0.0
H364 H 0.03866 0.34322 0.33872 0.0
H365 H 0.02737 0.40259 0.23332 0.0
H366 H 1.00236 0.47356 0.51365 0.0
H367 H 1.0044 0.44757 0.41462 0.0
C368 C 0.85327 0.01182 0.28428 0.0
C369 C 0.83614 1.00138 0.26613 0.0
C370 C 0.86945 0.0113 0.23327 0.0
C371 C 0.89103 0.98243 0.06841 0.0
H372 H 0.92072 0.02995 0.02909 0.0
C373 C 0.94554 0.98972 0.80914 0.0
C374 C 0.96292 1.00041 0.82081 0.0
C375 C 0.93108 0.98902 0.86757 0.0
C376 C 0.91278 0.01647 0.0402 0.0
H377 H 0.82219 0.98228 0.18146 0.0
H378 H 0.85023 0.98153 0.09155 0.0
H379 H 0.89349 0.03054 0.12225 0.0
H380 H 0.97906 0.01833 0.90379 0.0
H381 H 0.95382 0.01707 0.00631 0.0
H382 H 0.91016 0.96842 0.98558 0.0
C383 C 0.85145 0.98989 0.14547 0.0
C384 C 0.89712 0.01681 0.09371 0.0
C385 C 0.83533 0.99041 0.19656 0.0
C386 C 0.96578 0.01001 0.89303 0.0
C387 C 0.95125 0.00939 0.9515 0.0
C388 C 0.90665 0.9821 0.01483 0.0
C389 C 0.86877 1.00032 0.16308 0.0
C390 C 0.88592 0.99983 0.10811 0.0
C391 C 0.93362 0.99905 0.93921 0.0
C392 C 0.91764 0.99915 0.99948 0.0
H393 H 0.85416 0.02035 0.33794 0.0
H394 H 0.88256 0.01933 0.24934 0.0
H395 H 0.88302 0.96896 0.07903 0.0
H396 H 0.94292 0.98216 0.75408 0.0
H397 H 0.91764 0.98109 0.85558 0.0
C398 C 0.50076 0.84283 0.21872 0.0
C399 C 0.51908 0.83707 0.24836 0.0
C400 C 0.49931 0.85873 0.16673 0.0
C401 C 0.52629 0.90272 0.09376 0.0
H402 H 0.49066 0.89815 0.91699 0.0
C403 C 0.51137 0.96679 0.87284 0.0
C404 C 0.50988 0.96152 0.79325 0.0
C405 C 0.51248 0.95228 0.93148 0.0
C406 C 0.50077 0.89967 0.96577 0.0
H407 H 0.55023 0.84314 0.24804 0.0
H408 H 0.54785 0.87082 0.15636 0.0
H409 H 0.49282 0.87161 0.01231 0.0
H410 H 0.50851 0.93694 0.71257 0.0
H411 H 0.51058 0.91181 0.81376 0.0
H412 H 0.53457 0.93065 0.04568 0.0
C413 C 0.53452 0.86335 0.17383 0.0
C414 C 0.50184 0.8845 0.02112 0.0
C415 C 0.53594 0.84743 0.22585 0.0
C416 C 0.5096 0.94151 0.77345 0.0
C417 C 0.51066 0.92707 0.83164 0.0
C418 C 0.5252 0.91795 0.03832 0.0
C419 C 0.51618 0.86918 0.14324 0.0
C420 C 0.5147 0.88573 0.08566 0.0
C421 C 0.51196 0.9322 0.91155 0.0
C422 C 0.51256 0.91653 0.97311 0.0
H423 H 0.48756 0.83502 0.23565 0.0
H424 H 0.48492 0.86292 0.14535 0.0
H425 H 0.5362 0.9043 0.14316 0.0
H426 H 0.51125 0.98205 0.8899 0.0
H427 H 0.51326 0.95678 0.99247 0.0
C428 C 0.67025 0.50681 0.28594 0.0
C429 C 0.68717 0.51768 0.26873 0.0
C430 C 0.65414 0.50713 0.23453 0.0
C431 C 0.63226 0.53609 0.07051 0.0
H432 H 0.60363 0.48811 0.02783 0.0
C433 C 0.57836 0.52885 0.80964 0.0
C434 C 0.56101 0.51808 0.82076 0.0
C435 C 0.59282 0.52937 0.86808 0.0
C436 C 0.61128 0.50171 0.03986 0.0
H437 H 0.70083 0.53736 0.18535 0.0
H438 H 0.67294 0.53777 0.09474 0.0
H439 H 0.63069 0.48775 0.12188 0.0
H440 H 0.54499 0.49968 0.90244 0.0
H441 H 0.57024 0.5006 0.005 0.0
H442 H 0.61302 0.54998 0.98773 0.0
C443 C 0.6718 0.52922 0.14824 0.0
C444 C 0.62683 0.50151 0.09389 0.0
C445 C 0.68785 0.52889 0.19973 0.0
C446 C 0.55825 0.50807 0.89219 0.0
C447 C 0.57277 0.50851 0.95066 0.0
C448 C 0.61676 0.53628 0.01641 0.0
C449 C 0.6547 0.51836 0.16489 0.0
C450 C 0.63765 0.51867 0.10948 0.0
C451 C 0.59031 0.51907 0.93914 0.0
C452 C 0.60616 0.51906 0.99983 0.0
H453 H 0.66946 0.49808 0.33914 0.0
H454 H 0.64118 0.49877 0.24984 0.0
H455 H 0.63996 0.54969 0.08208 0.0
H456 H 0.58092 0.5367 0.75516 0.0
H457 H 0.6062 0.53746 0.85669 0.0
C458 C 0.02112 0.67672 0.22852 0.0
C459 C 1.00275 0.68254 0.25738 0.0
C460 C 0.02266 0.66079 0.17681 0.0
C461 C 0.99571 0.6169 0.10281 0.0
H462 H 0.0316 0.62158 0.92689 0.0
C463 C 0.01077 0.55314 0.8807 0.0
C464 C 0.01241 0.55857 0.80131 0.0
C465 C 0.00958 0.56754 0.93969 0.0
C466 C 0.02142 0.62003 0.97543 0.0
H467 H 0.97158 0.67653 0.25605 0.0
H468 H 0.97411 0.64879 0.16487 0.0
H469 H 0.0294 0.64801 0.02259 0.0
H470 H 0.0139 0.5833 0.72131 0.0
H471 H 0.01165 0.60823 0.82308 0.0
H472 H 0.9874 0.58907 0.05404 0.0
C473 C 0.98742 0.65624 0.18275 0.0
C474 C 0.02033 0.63513 0.03101 0.0
C475 C 0.98592 0.67219 0.23449 0.0
C476 C 0.0127 0.57861 0.78202 0.0
C477 C 0.01155 0.59295 0.84055 0.0
C478 C 0.99683 0.60174 0.04713 0.0
C479 C 1.00581 0.65037 0.15283 0.0
C480 C 1.00736 0.63386 0.09521 0.0
C481 C 0.01015 0.58766 0.92029 0.0
C482 C 0.00955 0.60321 0.9822 0.0
H483 H 0.03429 0.68454 0.24572 0.0
H484 H 0.03708 0.65657 0.15593 0.0
H485 H 0.98572 0.61529 0.15195 0.0
H486 H 0.01087 0.53785 0.89736 0.0
H487 H 0.0087 0.56293 1.00054 0.0
C488 C 0.97317 0.24095 0.2243 0.0
C489 C 0.98951 0.25347 0.22466 0.0
C490 C 0.96775 0.23093 0.29233 0.0
C491 C 0.99537 0.21049 0.45594 0.0
H492 H 0.94798 0.17923 0.46944 0.0
C493 C 0.99835 0.12805 0.46586 0.0
C494 C 0.98367 0.11688 0.50249 0.0
C495 C 0.99727 0.14846 0.46524 0.0
C496 C 0.96124 0.18797 0.46849 0.0
H497 H 0.01105 0.2678 0.29865 0.0
H498 H 1.00115 0.2508 0.41872 0.0
H499 H 0.94643 0.2121 0.41396 0.0
H500 H 0.9567 0.11839 0.57019 0.0
H501 H 0.95469 0.15427 0.56835 0.0
H502 H 0.01023 0.18621 0.50893 0.0
C503 C 0.99296 0.24811 0.36522 0.0
C504 C 0.9604 0.2068 0.43582 0.0
C505 C 0.99852 0.25803 0.29664 0.0
C506 C 0.96807 0.12662 0.5403 0.0
C507 C 0.96698 0.14715 0.53969 0.0
C508 C 0.99614 0.19185 0.48971 0.0
C509 C 0.97851 0.23333 0.36241 0.0
C510 C 0.97773 0.21763 0.42342 0.0
C511 C 0.98148 0.15829 0.50138 0.0
C512 C 0.97939 0.17983 0.49076 0.0
H513 H 0.96575 0.2375 0.16966 0.0
H514 H 0.9565 0.2198 0.28708 0.0
H515 H 0.00907 0.2183 0.44839 0.0
H516 H 0.0104 0.121 0.43525 0.0
H517 H 1.00843 0.15649 0.43327 0.0
C518 C 0.27832 0.00922 0.28553 0.0
C519 C 0.26748 0.99639 0.23823 0.0
C520 C 0.28971 1.00193 0.34703 0.0
C521 C 0.3177 0.95711 0.37762 0.0
H522 H 0.34208 0.99072 0.533 0.0
C523 C 0.40003 0.96625 0.39433 0.0
C524 C 0.40898 0.97359 0.46232 0.0
C525 C 0.37987 0.96254 0.39342 0.0
C526 C 0.33538 0.98072 0.49146 0.0
H527 H 0.25812 0.96637 0.22204 0.0
H528 H 0.27757 0.9535 0.33177 0.0
H529 H 0.30835 0.99669 0.49434 0.0
H530 H 0.40451 0.98108 0.58482 0.0
H531 H 0.36934 0.97412 0.5842 0.0
H532 H 0.34479 0.94127 0.37409 0.0
C533 C 0.27766 0.96915 0.32062 0.0
C534 C 0.31601 0.98433 0.46854 0.0
C535 C 0.26634 0.97649 0.25848 0.0
C536 C 0.39778 0.97574 0.53121 0.0
C537 C 0.37766 0.97179 0.53072 0.0
C538 C 0.33693 0.95326 0.40163 0.0
C539 C 0.29051 0.98161 0.36214 0.0
C540 C 0.30746 0.9735 0.40705 0.0
C541 C 0.36829 0.96587 0.46093 0.0
C542 C 0.34647 0.96591 0.45452 0.0
H543 H 0.27951 0.02461 0.27001 0.0
H544 H 0.29943 0.01207 0.37677 0.0
H545 H 0.31168 0.94828 0.33053 0.0
H546 H 0.40836 0.96455 0.34047 0.0
H547 H 0.37324 0.95832 0.33811 0.0
C548 C 0.49179 0.28719 0.28211 0.0
C549 C 0.5037 0.2724 0.2502 0.0
C550 C 0.49784 0.29747 0.34863 0.0
C551 C 0.5137 0.31959 0.48717 0.0
H552 H 0.56653 0.33619 0.43442 0.0
C553 C 0.54101 0.39625 0.57204 0.0
C554 C 0.54813 0.4066 0.50629 0.0
C555 C 0.53918 0.37583 0.56994 0.0
C556 C 0.55185 0.33162 0.45068 0.0
H557 H 0.52997 0.255 0.26776 0.0
H558 H 0.54053 0.27284 0.3852 0.0
H559 H 0.55417 0.30535 0.38339 0.0
H560 H 0.56043 0.40347 0.38941 0.0
H561 H 0.55692 0.36803 0.38485 0.0
H562 H 0.51079 0.34687 0.54804 0.0
C563 C 0.52668 0.27675 0.35801 0.0
C564 C 0.54481 0.31375 0.42233 0.0
C565 C 0.52057 0.26643 0.29123 0.0
C566 C 0.55457 0.39598 0.44045 0.0
C567 C 0.55282 0.37559 0.43841 0.0
C568 C 0.52071 0.33755 0.51509 0.0
C569 C 0.51598 0.29316 0.38448 0.0
C570 C 0.52523 0.30811 0.43618 0.0
C571 C 0.54459 0.36532 0.50223 0.0
C572 C 0.53945 0.34427 0.49304 0.0
H573 H 0.4786 0.2919 0.25175 0.0
H574 H 0.4892 0.31002 0.36682 0.0
H575 H 0.4987 0.31545 0.50034 0.0
H576 H 0.53596 0.40399 0.62379 0.0
H577 H 0.53293 0.36834 0.62026 0.0
C578 C 0.24374 0.51142 0.30819 0.0
C579 C 0.2548 0.52298 0.25651 0.0
C580 C 0.23274 0.5202 0.36764 0.0
C581 C 0.2055 0.56565 0.38125 0.0
H582 H 0.18104 0.53631 0.54995 0.0
C583 C 0.12335 0.55558 0.39946 0.0
C584 C 0.11432 0.55021 0.4703 0.0
C585 C 0.14342 0.55973 0.39752 0.0
C586 C 0.18777 0.54516 0.50445 0.0
H587 H 0.26513 0.55231 0.23131 0.0
H588 H 0.24611 0.56782 0.33664 0.0
H589 H 0.21482 0.52935 0.5142 0.0
H590 H 0.11858 0.54681 0.59591 0.0
H591 H 0.1536 0.55447 0.59297 0.0
H592 H 0.1783 0.58112 0.37018 0.0
C593 C 0.24564 0.55201 0.33064 0.0
C594 C 0.20716 0.541 0.48342 0.0
C595 C 0.25669 0.54315 0.27093 0.0
C596 C 0.12534 0.55058 0.54021 0.0
C597 C 0.14538 0.55494 0.53847 0.0
C598 C 0.18621 0.57002 0.40307 0.0
C599 C 0.23252 0.54076 0.37609 0.0
C600 C 0.21572 0.55014 0.41769 0.0
C601 C 0.15484 0.55879 0.46661 0.0
C602 C 0.17667 0.55883 0.46102 0.0
H603 H 0.24205 0.49582 0.29763 0.0
H604 H 0.2228 0.51097 0.40083 0.0
H605 H 0.21155 0.57315 0.33064 0.0
H606 H 0.11521 0.5553 0.34474 0.0
H607 H 0.15016 0.56232 0.34079 0.0
C608 C 0.02179 0.75723 0.10133 0.0
C609 C 0.03158 0.76182 0.17158 0.0
C610 C 0.0266 0.76711 0.03174 0.0
C611 C 0.05858 0.80811 0.95469 0.0
H612 H 1.00812 0.8293 0.89197 0.0
C613 C 0.05071 0.88849 0.85482 0.0
C614 C 0.03586 0.89834 0.89678 0.0
C615 C 0.05142 0.86796 0.85371 0.0
C616 C 0.02238 0.82349 0.90818 0.0
H617 H 0.05587 0.77785 0.22238 0.0
H618 H 0.06393 0.79539 0.10313 0.0
H619 H 0.00969 0.79715 0.95196 0.0
H620 H 0.00995 0.89439 0.96912 0.0
H621 H 0.01126 0.85887 0.96812 0.0
H622 H 0.07088 0.83555 0.9188 0.0
C623 C 0.05262 0.78427 0.09999 0.0
C624 C 0.02337 0.80482 0.94162 0.0
C625 C 0.04791 0.77433 0.16904 0.0
C626 C 0.02143 0.88727 0.93546 0.0
C627 C 0.02213 0.86684 0.93436 0.0
C628 C 0.05754 0.82695 0.92231 0.0
C629 C 0.04112 0.78183 0.03185 0.0
C630 C 0.04131 0.79748 0.97056 0.0
C631 C 0.03726 0.8569 0.89441 0.0
C632 C 0.03923 0.83531 0.90386 0.0
H633 H 0.00923 0.74748 0.1017 0.0
H634 H 0.01781 0.76443 0.97977 0.0
H635 H 0.07274 0.80264 0.9738 0.0
H636 H 0.06183 0.89666 0.82321 0.0
H637 H 0.06319 0.86074 0.82205 0.0
C638 C 0.7593 0.01685 0.10099 0.0
C639 C 0.75543 0.99968 0.14391 0.0
C640 C 0.74968 0.02022 0.02949 0.0
C641 C 0.71231 0.99845 0.89205 0.0
H642 H 0.68473 0.04696 0.93709 0.0
C643 C 0.62989 1.00437 0.90747 0.0
C644 C 0.6201 0.02194 0.88917 0.0
C645 C 0.65021 1.00292 0.89908 0.0
C646 C 0.69248 0.03362 0.92148 0.0
H647 H 0.74076 0.97156 0.14224 0.0
H648 H 0.72388 0.97735 0.01888 0.0
H649 H 0.71712 0.04167 0.99144 0.0
H650 H 0.62387 0.05134 0.84225 0.0
H651 H 0.65958 0.04898 0.83037 0.0
H652 H 0.68662 0.98977 0.82815 0.0
C653 C 0.73426 0.98829 0.03895 0.0
C654 C 0.7112 0.03058 0.95257 0.0
C655 C 0.74379 0.98497 0.1102 0.0
C656 C 0.63103 0.03777 0.859 0.0
C657 C 0.65143 0.03636 0.85117 0.0
C658 C 0.6935 1.00146 0.86134 0.0
C659 C 0.73609 1.00647 1.00029 0.0
C660 C 0.7207 0.01238 0.94295 0.0
C661 C 0.66126 0.01904 0.8727 0.0
C662 C 0.68293 0.01853 0.88038 0.0
H663 H 0.7683 0.02836 0.12598 0.0
H664 H 0.75164 0.03424 1.00046 0.0
H665 H 0.71948 0.98448 0.88182 0.0
H666 H 0.622 0.99195 0.93148 0.0
H667 H 0.65737 0.9895 0.9178 0.0
C668 C 0.48017 0.75863 0.12845 0.0
C669 C 0.49945 0.75549 0.1545 0.0
C670 C 0.47289 0.748 0.06432 0.0
C671 C 0.48722 0.70906 0.91783 0.0
H672 H 0.44007 0.68391 0.99578 0.0
C673 C 0.4736 0.62864 0.84659 0.0
C674 C 0.46887 0.61748 0.91343 0.0
C675 C 0.47118 0.649 0.847 0.0
C676 C 0.45323 0.69076 0.97286 0.0
H677 H 0.52684 0.74055 0.13116 0.0
H678 H 0.51437 0.72191 0.0208 0.0
H679 H 0.44911 0.716 0.04499 0.0
H680 H 0.45693 0.61847 0.03118 0.0
H681 H 0.45348 0.65395 0.03391 0.0
H682 H 0.4926 0.68289 0.85283 0.0
C683 C 0.50472 0.73261 0.0477 0.0
C684 C 0.45826 0.70942 1.00007 0.0
C685 C 0.51194 0.74322 0.11137 0.0
C686 C 0.46061 0.6268 0.97891 0.0
C687 C 0.45849 0.64718 0.97993 0.0
C688 C 0.48241 0.69024 0.89185 0.0
C689 C 0.48479 0.734 0.02614 0.0
C690 C 0.47604 0.71821 0.9769 0.0
C691 C 0.46434 0.65864 0.9149 0.0
C692 C 0.46603 0.68035 0.9231 0.0
H693 H 0.47032 0.76802 0.16149 0.0
H694 H 0.45758 0.74969 0.04841 0.0
H695 H 0.50068 0.71569 0.89673 0.0
H696 H 0.47971 0.62164 0.79484 0.0
H697 H 0.47543 0.65723 0.79522 0.0
C698 C 0.77903 0.53562 0.11122 0.0
C699 C 0.76738 0.52089 0.1448 0.0
C700 C 0.78831 0.53247 0.03934 0.0
C701 C 0.81078 0.4903 0.95003 0.0
H702 H 0.83544 0.53134 0.82694 0.0
C703 C 0.89083 0.48294 0.85663 0.0
C704 C 0.90181 0.49864 0.8876 0.0
C705 C 0.87046 0.4845 0.84823 0.0
C706 C 0.82852 0.51959 0.85972 0.0
H707 H 0.75421 0.49238 0.12603 0.0
H708 H 0.77044 0.4868 0.99943 0.0
H709 H 0.80269 0.53667 0.8817 0.0
H710 H 0.90002 0.52858 0.93053 0.0
H711 H 0.86469 0.53127 0.916 0.0
H712 H 0.83711 0.4738 0.93318 0.0
C713 C 0.7726 0.50069 0.02906 0.0
C714 C 0.80979 0.52262 0.89104 0.0
C715 C 0.76324 0.5039 0.10121 0.0
C716 C 0.8921 0.51625 0.90595 0.0
C717 C 0.8718 0.51785 0.89704 0.0
C718 C 0.82943 0.48723 0.91833 0.0
C719 C 0.78621 0.51444 0.99987 0.0
C720 C 0.80139 0.50859 0.94158 0.0
C721 C 0.8607 0.50183 0.87007 0.0
C722 C 0.83903 0.5024 0.87779 0.0
H723 H 0.78225 0.54892 0.14369 0.0
H724 H 0.79871 0.5434 0.01928 0.0
H725 H 0.80485 0.47911 0.98853 0.0
H726 H 0.89794 0.46935 0.83981 0.0
H727 H 0.86227 0.47196 0.82693 0.0
C728 C 1.00826 0.22377 0.91365 0.0
C729 C 0.01947 0.22882 0.9799 0.0
C730 C 0.00981 0.20493 0.88061 0.0
C731 C 0.02164 0.15475 0.9443 0.0
H732 H 0.02037 0.1416 0.72265 0.0
C733 C 0.02776 0.07425 0.84213 0.0
C734 C 0.01674 0.06832 0.77652 0.0
C735 C 0.02918 0.09414 0.86217 0.0
C736 C 0.0205 0.14498 0.78486 0.0
H737 H 0.04157 0.21867 0.0617 0.0
H738 H 0.04461 0.18602 0.00354 0.0
H739 H 0.02145 0.17605 0.763 0.0
H740 H 0.99832 0.0787 0.68115 0.0
H741 H 1.00041 0.11325 0.71676 0.0
H742 H 0.02011 0.12397 0.96696 0.0
C743 C 0.0345 0.19641 0.97724 0.0
C744 C 0.0212 0.16476 0.80789 0.0
C745 C 0.03297 0.21517 0.00995 0.0
C746 C 1.00716 0.08277 0.73144 0.0
C747 C 1.00842 0.10266 0.75184 0.0
C748 C 0.02077 0.13507 0.92145 0.0
C749 C 0.02245 0.1908 0.91395 0.0
C750 C 0.02192 0.16987 0.88797 0.0
C751 C 0.0194 0.10865 0.81777 0.0
C752 C 0.0203 0.12982 0.84142 0.0
H753 H 0.99745 0.23393 0.89058 0.0
H754 H 1.00024 0.20106 0.83215 0.0
H755 H 0.02169 0.15814 0.00653 0.0
H756 H 0.03547 0.06353 0.87771 0.0
H757 H 0.03811 0.09811 0.91236 0.0
C758 C 0.29752 0.03065 0.94642 0.0
C759 C 0.29037 0.01235 0.97132 0.0
C760 C 0.316 0.03207 0.91012 0.0
C761 C 0.35592 1.00278 0.81562 0.0
H762 H 0.3902 0.04275 0.90191 0.0
C763 C 0.43627 0.01205 0.7102 0.0
C764 C 0.45067 0.01583 0.76763 0.0
C765 C 0.41626 0.01267 0.72885 0.0
C766 C 0.38086 0.03144 0.87741 0.0
H767 H 0.29634 0.98117 0.97452 0.0
H768 H 0.32827 0.98351 0.91022 0.0
H769 H 0.35564 0.04199 0.93997 0.0
H770 H 0.45507 0.02324 0.89041 0.0
H771 H 0.42015 0.02407 0.92332 0.0
H772 H 0.38121 0.99186 0.75483 0.0
C773 C 0.31976 0.9968 0.91824 0.0
C774 C 0.36095 0.03118 0.89838 0.0
C775 C 0.30145 0.99542 0.95507 0.0
C776 C 0.44445 0.02028 0.8445 0.0
C777 C 0.42438 0.0209 0.86325 0.0
C778 C 0.3758 1.00309 0.79437 0.0
C779 C 0.32757 0.01519 0.89745 0.0
C780 C 0.34826 0.01668 0.86862 0.0
C781 C 0.41001 0.01705 0.80568 0.0
C782 C 0.38862 0.01727 0.82579 0.0
H783 H 0.28939 0.04394 0.95927 0.0
H784 H 0.32148 0.04644 0.89406 0.0
H785 H 0.34656 0.99149 0.79108 0.0
H786 H 0.44041 0.00856 0.65047 0.0
H787 H 0.40567 0.00991 0.68266 0.0
C788 C 0.51746 0.29918 0.94595 0.0
C789 C 0.49927 0.29197 0.97177 0.0
C790 C 0.51873 0.31757 0.90941 0.0
C791 C 0.49029 0.35776 0.81541 0.0
H792 H 0.52948 0.39142 0.9112 0.0
C793 C 0.50552 0.438 0.71315 0.0
C794 C 0.50743 0.45213 0.77307 0.0
C795 C 0.50442 0.41797 0.73138 0.0
C796 C 0.51845 0.38223 0.88392 0.0
H797 H 0.46811 0.29788 0.97785 0.0
H798 H 0.47016 0.32984 0.91202 0.0
H799 H 0.5279 0.35682 0.94773 0.0
H800 H 0.50982 0.45619 0.89914 0.0
H801 H 0.50839 0.42121 0.93075 0.0
H802 H 0.48074 0.38334 0.75221 0.0
C803 C 0.48345 0.32127 0.91935 0.0
C804 C 0.51768 0.36233 0.90416 0.0
C805 C 0.48223 0.30296 0.95666 0.0
C806 C 0.50831 0.44572 0.85159 0.0
C807 C 0.50761 0.42566 0.86966 0.0
C808 C 0.49123 0.37765 0.79435 0.0
C809 C 0.5018 0.32911 0.89785 0.0
C810 C 0.50346 0.34988 0.87086 0.0
C811 C 0.50568 0.41154 0.80978 0.0
C812 C 0.50515 0.39019 0.82924 0.0
H813 H 0.53084 0.29114 0.95854 0.0
H814 H 0.53306 0.32311 0.89292 0.0
H815 H 0.47921 0.34855 0.78855 0.0
H816 H 0.50478 0.4424 0.65198 0.0
H817 H 0.50293 0.40748 0.68394 0.0
C818 C 0.22735 0.50808 0.92884 0.0
C819 C 0.23018 0.49876 0.00168 0.0
C820 C 0.20912 0.50692 0.89037 0.0
C821 C 0.16068 0.48063 0.89353 0.0
H822 H 0.14048 0.52986 0.81244 0.0
C823 C 0.07761 0.49451 0.84897 0.0
C824 C 0.0717 0.50428 0.78007 0.0
C825 C 0.09756 0.49299 0.86848 0.0
C826 C 0.14595 0.51593 0.834 0.0
H827 H 0.21667 0.47986 0.08862 0.0
H828 H 0.18511 0.47791 0.02269 0.0
H829 H 0.17461 0.52771 0.85511 0.0
H830 H 0.08219 0.52066 0.67909 0.0
H831 H 0.1169 0.51796 0.71293 0.0
H832 H 0.13181 0.46905 0.87457 0.0
C833 C 0.19678 0.48606 0.99438 0.0
C834 C 0.1656 0.51465 0.85815 0.0
C835 C 0.2149 0.48724 0.03258 0.0
C836 C 0.08621 0.5128 0.732 0.0
C837 C 0.10613 0.51141 0.75177 0.0
C838 C 0.14102 0.48195 0.86995 0.0
C839 C 0.1934 0.49633 0.92386 0.0
C840 C 0.17317 0.49706 0.88952 0.0
C841 C 0.11208 0.50136 0.82 0.0
C842 C 0.13331 0.4997 0.84102 0.0
H843 H 0.23882 0.51715 0.90391 0.0
H844 H 0.20717 0.51476 0.83552 0.0
H845 H 0.16603 0.46672 0.91579 0.0
H846 H 0.06686 0.48779 0.88737 0.0
H847 H 0.1016 0.48539 0.92208 0.0
C848 C 0.01383 0.7915 0.48768 0.0
C849 C 1.00336 0.78697 0.41889 0.0
C850 C 0.01243 0.81031 0.52125 0.0
C851 C 1.0024 0.86102 0.45756 0.0
H852 H 1.00151 0.87366 0.67971 0.0
C853 C 0.99527 0.94126 0.56127 0.0
C854 C 1.00573 0.94713 0.62843 0.0
C855 C 0.99406 0.9214 0.54059 0.0
C856 C 1.00198 0.87041 0.61741 0.0
H857 H 0.98253 0.79799 0.33356 0.0
H858 H 0.97969 0.8305 0.39264 0.0
H859 H 1.00049 0.8393 0.63788 0.0
H860 H 0.02333 0.93663 0.72608 0.0
H861 H 0.02155 0.9021 0.6895 0.0
H862 H 1.00439 0.89184 0.43637 0.0
C863 C 0.98922 0.81979 0.42031 0.0
C864 C 1.00134 0.85068 0.59351 0.0
C865 C 0.99063 0.8011 0.38699 0.0
C866 C 0.01493 0.93261 0.67452 0.0
C867 C 0.01385 0.91275 0.65356 0.0
C868 C 1.00319 0.88064 0.48129 0.0
C869 C 1.00064 0.8249 0.48612 0.0
C870 C 1.00135 0.84576 0.51316 0.0
C871 C 1.00348 0.90683 0.58596 0.0
C872 C 1.00283 0.8857 0.56151 0.0
H873 H 0.02401 0.78094 0.51247 0.0
H874 H 0.02147 0.81376 0.57177 0.0
H875 H 1.00296 0.85779 0.39522 0.0
H876 H 0.98786 0.95201 0.52483 0.0
H877 H 0.98558 0.91748 0.48908 0.0
C878 C 0.72778 1.00746 0.48015 0.0
C879 C 0.73084 0.99437 0.41743 0.0
C880 C 0.70978 1.00766 0.52078 0.0
C881 C 0.66241 0.97962 0.54417 0.0
H882 H 0.64065 0.03096 0.58989 0.0
C883 C 0.57891 0.99395 0.57166 0.0
C884 C 0.57243 1.00589 0.63386 0.0
C885 C 0.59902 0.99179 0.55605 0.0
C886 C 0.64659 0.01649 0.57825 0.0
H887 H 0.71796 0.97028 0.35224 0.0
H888 H 0.68677 0.97092 0.42056 0.0
H889 H 0.67474 0.0281 0.54714 0.0
H890 H 0.58208 0.02531 0.72728 0.0
H891 H 0.61712 0.02165 0.69949 0.0
H892 H 0.63391 0.96818 0.57194 0.0
C893 C 0.6981 0.98098 0.43968 0.0
C894 C 0.66622 0.01481 0.55412 0.0
C895 C 0.71601 0.98072 0.39968 0.0
C896 C 0.58655 0.01579 0.67953 0.0
C897 C 0.60664 0.01383 0.6633 0.0
C898 C 0.64273 0.98135 0.56716 0.0
C899 C 0.69446 0.99476 0.4996 0.0
C900 C 0.67434 0.99637 0.53508 0.0
C901 C 0.61313 1.00175 0.6015 0.0
C902 C 0.63447 0.99983 0.58308 0.0
H903 H 0.73889 0.01819 0.4952 0.0
H904 H 0.70773 0.01825 0.56752 0.0
H905 H 0.66816 0.9651 0.53231 0.0
H906 H 0.56845 0.98612 0.53539 0.0
H907 H 0.60352 0.98256 0.50744 0.0
C908 C 0.49733 0.72324 0.44316 0.0
C909 C 0.51437 0.73387 0.42437 0.0
C910 C 0.49861 0.70503 0.48097 0.0
C911 C 0.5322 0.66314 0.49748 0.0
H912 H 0.49425 0.64417 0.64958 0.0
C913 C 0.51977 0.58017 0.55598 0.0
C914 C 0.51649 0.57416 0.63404 0.0
C915 C 0.52063 0.60018 0.53664 0.0
C916 C 0.50508 0.64924 0.60757 0.0
H917 H 0.54606 0.73413 0.43231 0.0
H918 H 0.5484 0.70221 0.49896 0.0
H919 H 0.49409 0.67874 0.61144 0.0
H920 H 0.51196 0.58464 0.75276 0.0
H921 H 0.51338 0.61936 0.71944 0.0
H922 H 0.54308 0.63362 0.49298 0.0
C923 C 0.53402 0.70799 0.48449 0.0
C924 C 0.5049 0.66905 0.58532 0.0
C925 C 0.5327 0.72636 0.44733 0.0
C926 C 0.51427 0.58868 0.69212 0.0
C927 C 0.51504 0.60865 0.67287 0.0
C928 C 0.5323 0.6433 0.51927 0.0
C929 C 0.517 0.69686 0.49991 0.0
C930 C 0.51833 0.67623 0.52937 0.0
C931 C 0.51818 0.6147 0.5948 0.0
C932 C 0.51861 0.63602 0.57399 0.0
H933 H 0.48305 0.72859 0.42492 0.0
H934 H 0.48522 0.69685 0.49113 0.0
H935 H 0.54262 0.66808 0.45362 0.0
H936 H 0.52154 0.56944 0.50954 0.0
H937 H 0.52285 0.60427 0.47573 0.0
C938 C 0.7956 0.5127 0.48044 0.0
C939 C 0.79245 0.52583 0.41785 0.0
C940 C 0.81364 0.51252 0.52075 0.0
C941 C 0.861 0.54058 0.54343 0.0
H942 H 0.88275 0.48921 0.58883 0.0
C943 C 0.94453 0.52626 0.573 0.0
C944 C 0.95082 0.51427 0.63541 0.0
C945 C 0.92446 0.52841 0.5565 0.0
C946 C 0.87682 0.50369 0.57724 0.0
H947 H 0.80519 0.55001 0.35268 0.0
H948 H 0.83647 0.54937 0.42037 0.0
H949 H 0.84867 0.4921 0.5462 0.0
H950 H 0.94091 0.49477 0.72818 0.0
H951 H 0.90598 0.49843 0.69888 0.0
H952 H 0.88951 0.552 0.57122 0.0
C953 C 0.82518 0.53928 0.43962 0.0
C954 C 0.85719 0.50539 0.5532 0.0
C955 C 0.80722 0.53953 0.39995 0.0
C956 C 0.93658 0.50432 0.68028 0.0
C957 C 0.91655 0.50628 0.66319 0.0
C958 C 0.88068 0.53884 0.56633 0.0
C959 C 0.82891 0.52546 0.49935 0.0
C960 C 0.84907 0.52384 0.5344 0.0
C961 C 0.91023 0.51841 0.60126 0.0
C962 C 0.88893 0.52035 0.58221 0.0
H963 H 0.78454 0.50194 0.49563 0.0
H964 H 0.81576 0.50191 0.56741 0.0
H965 H 0.85524 0.55511 0.53169 0.0
H966 H 0.95509 0.53414 0.53735 0.0
H967 H 0.92008 0.53769 0.50781 0.0
loop_
_geom_bond_atom_site_label_1
_geom_bond_atom_site_label_2
_geom_bond_distance
_geom_bond_site_symmetry_2
_ccdc_geom_bond_type
H0 C3 0.929 . S
H1 C6 0.929 . S
H2 C8 0.930 . S
C3 H0 0.929 . S
C3 C4 1.398 . S
C3 C5 1.396 . S
C4 C3 1.398 . S
C4 C8 1.407 . S
C5 C3 1.396 . S
C5 C6 1.394 . S
C6 H1 0.929 . S
C6 C5 1.394 . S
C6 C7 1.382 . S
C7 C6 1.382 . S
C7 C8 1.392 . S
C7 N9 1.420 . S
C8 H2 0.930 . S
C8 C4 1.407 . S
C8 C7 1.392 . S
N9 C7 1.420 . S
N9 C10 1.244 . S
C10 N9 1.244 . S
H11 C14 0.929 . S
H12 C17 0.929 . S
H13 C19 0.930 . S
C14 H11 0.929 . S
C14 C15 1.398 1_655 S
C14 C16 1.396 . S
C15 C14 1.398 1_455 S
C15 C19 1.408 . S
C16 C14 1.396 . S
C16 C17 1.394 1_655 S
C17 H12 0.929 . S
C17 C16 1.394 1_455 S
C17 C18 1.382 . S
C18 C17 1.382 . S
C18 C19 1.392 . S
C18 N20 1.420 . S
C19 H13 0.930 . S
C19 C15 1.408 . S
C19 C18 1.392 . S
N20 C18 1.420 . S
N20 C21 1.221 1_455 S
C21 N20 1.221 1_655 S
H22 C25 0.929 . S
H23 C28 0.929 . S
H24 C30 0.930 . S
C25 H22 0.929 . S
C25 C26 1.398 1_565 S
C25 C27 1.396 . S
C26 C25 1.398 1_545 S
C26 C30 1.407 . S
C27 C25 1.396 . S
C27 C28 1.394 1_565 S
C28 H23 0.929 . S
C28 C27 1.394 1_545 S
C28 C29 1.382 . S
C29 C28 1.382 . S
C29 C30 1.392 . S
C29 N31 1.420 . S
C30 H24 0.930 . S
C30 C26 1.407 . S
C30 C29 1.392 . S
N31 C29 1.420 . S
N31 C32 1.220 1_545 S
C32 N31 1.220 1_565 S
H33 C36 0.929 . S
H34 C39 0.929 . S
H35 C41 0.930 . S
C36 H33 0.929 . S
C36 C37 1.398 . S
C36 C38 1.396 . S
C37 C36 1.398 . S
C37 C41 1.407 . S
C38 C36 1.396 . S
C38 C39 1.394 . S
C39 H34 0.929 . S
C39 C38 1.394 . S
C39 C40 1.382 . S
C40 C39 1.382 . S
C40 C41 1.392 . S
C40 N42 1.420 . S
C41 H35 0.930 . S
C41 C37 1.407 . S
C41 C40 1.392 . S
N42 C40 1.420 . S
N42 C43 1.244 . S
C43 N42 1.244 . S
H44 C47 0.929 . S
H45 C50 0.929 . S
H46 C52 0.930 . S
C47 H44 0.929 . S
C47 C48 1.398 1_554 S
C47 C49 1.396 . S
C48 C47 1.398 1_556 S
C48 C52 1.407 . S
C49 C47 1.396 . S
C49 C50 1.394 . S
C50 H45 0.929 . S
C50 C49 1.394 . S
C50 C51 1.382 . S
C51 C50 1.382 . S
C51 C52 1.392 1_554 S
C51 N53 1.420 . S
C52 H46 0.930 . S
C52 C48 1.407 . S
C52 C51 1.392 1_556 S
N53 C51 1.420 . S
N53 C54 1.244 . S
C54 N53 1.244 . S
H55 C58 0.936 . S
H56 C61 0.929 . S
H57 C63 0.930 . S
C58 H55 0.936 . S
C58 C59 1.398 1_554 S
C58 C60 1.396 . S
C59 C58 1.398 1_556 S
C59 C63 1.407 . S
C60 C58 1.396 . S
C60 C61 1.394 . S
C61 H56 0.929 . S
C61 C60 1.394 . S
C61 C62 1.382 . S
C62 C61 1.382 . S
C62 C63 1.392 1_554 S
C62 N64 1.420 . S
C63 H57 0.930 . S
C63 C59 1.407 . S
C63 C62 1.392 1_556 S
N64 C62 1.420 . S
N64 C65 1.244 . S
C65 N64 1.244 . S
H66 C69 0.936 . S
H67 C72 0.929 . S
H68 C74 0.930 . S
C69 H66 0.936 . S
C69 C70 1.398 1_554 S
C69 C71 1.396 . S
C70 C69 1.398 1_556 S
C70 C74 1.407 . S
C71 C69 1.396 . S
C71 C72 1.394 . S
C72 H67 0.929 . S
C72 C71 1.394 . S
C72 C73 1.382 . S
C73 C72 1.382 . S
C73 C74 1.392 1_554 S
C73 N75 1.420 . S
C74 H68 0.930 . S
C74 C70 1.407 . S
C74 C73 1.392 1_556 S
N75 C73 1.420 . S
N75 C76 1.244 . S
C76 N75 1.244 . S
H77 C80 0.929 . S
H78 C83 0.929 . S
H79 C85 0.930 . S
C80 H77 0.929 . S
C80 C81 1.398 1_554 S
C80 C82 1.396 . S
C81 C80 1.398 1_556 S
C81 C85 1.407 . S
C82 C80 1.396 . S
C82 C83 1.394 . S
C83 H78 0.929 . S
C83 C82 1.394 . S
C83 C84 1.382 . S
C84 C83 1.382 . S
C84 C85 1.392 1_554 S
C84 N86 1.420 . S
C85 H79 0.930 . S
C85 C81 1.407 . S
C85 C84 1.392 1_556 S
N86 C84 1.420 . S
N86 C87 1.244 . S
C87 N86 1.244 . S
Ho88 C91 2.811 . S
Ho88 O108 2.322 . S
Ho88 O110 2.378 . S
Ho88 O111 2.541 . S
Ho88 O112 2.381 . S
Ho88 O113 2.669 1_565 S
Ho88 O115 2.346 1_565 S
Ho88 O119 2.305 1_455 S
Ho89 C100 2.811 . S
Ho89 O109 2.346 1_545 S
Ho89 O113 2.305 1_655 S
Ho89 O114 2.322 . S
Ho89 O116 2.378 . S
Ho89 O117 2.524 1_655 S
Ho89 O118 2.381 . S
Ho89 O119 2.669 1_545 S
C90 O108 1.259 1_655 S
C90 O109 1.268 . S
C91 Ho88 2.811 . S
C91 C92 1.488 . S
C91 O110 1.215 . S
C91 O111 1.327 . S
C92 C91 1.488 . S
C92 C93 1.348 . S
C92 C97 1.413 . S
C93 C92 1.348 . S
C93 C94 1.442 . S
C93 H120 0.930 1_455 S
C94 C93 1.442 . S
C94 C95 1.381 . S
C94 H121 0.931 1_455 S
C95 C94 1.381 . S
C95 C96 1.321 . S
C96 C95 1.321 . S
C96 C97 1.403 . S
C96 H122 0.934 . S
C97 C92 1.413 . S
C97 C96 1.403 . S
C97 H123 0.930 . S
C98 O112 1.275 1_545 S
C98 O113 1.256 . S
C99 O114 1.259 1_455 S
C99 O115 1.268 . S
C100 Ho89 2.811 . S
C100 C101 1.488 . S
C100 O116 1.215 . S
C100 O117 1.289 1_655 S
C101 C100 1.488 . S
C101 C102 1.343 1_655 S
C101 C106 1.413 . S
C102 C101 1.343 1_455 S
C102 C103 1.441 1_455 S
C102 H124 0.935 . S
C103 C102 1.441 1_655 S
C103 C104 1.381 . S
C103 H125 0.931 1_655 S
C104 C103 1.381 . S
C104 C105 1.321 . S
C105 C104 1.321 . S
C105 C106 1.403 . S
C105 H126 0.934 . S
C106 C101 1.413 . S
C106 C105 1.403 . S
C106 H127 0.930 . S
C107 O118 1.275 . S
C107 O119 1.256 1_545 S
O108 Ho88 2.322 . S
O108 C90 1.259 1_455 S
O109 Ho89 2.346 1_565 S
O109 C90 1.268 . S
O110 Ho88 2.378 . S
O110 C91 1.215 . S
O111 Ho88 2.541 . S
O111 C91 1.327 . S
O112 Ho88 2.381 . S
O112 C98 1.275 1_565 S
O113 Ho88 2.669 1_545 S
O113 Ho89 2.305 1_455 S
O113 C98 1.256 . S
O114 Ho89 2.322 . S
O114 C99 1.259 1_655 S
O115 Ho88 2.346 1_545 S
O115 C99 1.268 . S
O116 Ho89 2.378 . S
O116 C100 1.215 . S
O117 Ho89 2.524 1_455 S
O117 C100 1.289 1_455 S
O118 Ho89 2.381 . S
O118 C107 1.275 . S
O119 Ho88 2.305 1_655 S
O119 Ho89 2.669 1_565 S
O119 C107 1.256 1_565 S
H120 C93 0.930 1_655 S
H121 C94 0.931 1_655 S
H122 C96 0.934 . S
H123 C97 0.930 . S
H124 C102 0.935 . S
H125 C103 0.931 1_455 S
H126 C105 0.934 . S
H127 C106 0.930 . S
Ho128 C131 2.811 . S
Ho128 O148 2.322 . S
Ho128 O150 2.378 . S
Ho128 O151 2.540 . S
Ho128 O152 2.381 . S
Ho128 O153 2.669 . S
Ho128 O155 2.346 . S
Ho128 O159 2.305 1_545 S
Ho129 C140 2.811 . S
Ho129 O149 2.346 . S
Ho129 O153 2.305 1_565 S
Ho129 O154 2.322 . S
Ho129 O156 2.378 . S
Ho129 O157 2.524 1_565 S
Ho129 O158 2.381 . S
Ho129 O159 2.669 . S
C130 O148 1.259 1_565 S
C130 O149 1.268 . S
C131 Ho128 2.811 . S
C131 C132 1.488 . S
C131 O150 1.215 . S
C131 O151 1.324 . S
C132 C131 1.488 . S
C132 C133 1.348 . S
C132 C137 1.413 . S
C133 C132 1.348 . S
C133 C134 1.442 . S
C133 H160 0.930 1_545 S
C134 C133 1.442 . S
C134 C135 1.381 . S
C134 H161 0.931 1_545 S
C135 C134 1.381 . S
C135 C136 1.321 . S
C136 C135 1.321 . S
C136 C137 1.403 . S
C136 H162 0.934 . S
C137 C132 1.413 . S
C137 C136 1.403 . S
C137 H163 0.930 . S
C138 O152 1.275 . S
C138 O153 1.256 . S
C139 O154 1.259 1_545 S
C139 O155 1.268 . S
C140 Ho129 2.811 . S
C140 C141 1.488 . S
C140 O156 1.215 . S
C140 O157 1.289 1_565 S
C141 C140 1.488 . S
C141 C142 1.345 1_565 S
C141 C146 1.413 . S
C142 C141 1.345 1_545 S
C142 C143 1.441 1_545 S
C142 H164 0.933 . S
C143 C142 1.441 1_565 S
C143 C144 1.381 . S
C143 H165 0.931 1_565 S
C144 C143 1.381 . S
C144 C145 1.321 . S
C145 C144 1.321 . S
C145 C146 1.403 . S
C145 H166 0.934 . S
C146 C141 1.413 . S
C146 C145 1.403 . S
C146 H167 0.930 . S
C147 O158 1.275 . S
C147 O159 1.256 . S
O148 Ho128 2.322 . S
O148 C130 1.259 1_545 S
O149 Ho129 2.346 . S
O149 C130 1.268 . S
O150 Ho128 2.378 . S
O150 C131 1.215 . S
O151 Ho128 2.540 . S
O151 C131 1.324 . S
O152 Ho128 2.381 . S
O152 C138 1.275 . S
O153 Ho128 2.669 . S
O153 Ho129 2.305 1_545 S
O153 C138 1.256 . S
O154 Ho129 2.322 . S
O154 C139 1.259 1_565 S
O155 Ho128 2.346 . S
O155 C139 1.268 . S
O156 Ho129 2.378 . S
O156 C140 1.215 . S
O157 Ho129 2.524 1_545 S
O157 C140 1.289 1_545 S
O158 Ho129 2.381 . S
O158 C147 1.275 . S
O159 Ho128 2.305 1_565 S
O159 Ho129 2.669 . S
O159 C147 1.256 . S
H160 C133 0.930 1_565 S
H161 C134 0.931 1_565 S
H162 C136 0.934 . S
H163 C137 0.930 . S
H164 C142 0.933 . S
H165 C143 0.931 1_545 S
H166 C145 0.934 . S
H167 C146 0.930 . S
Ho168 C171 2.811 . S
Ho168 O188 2.322 . S
Ho168 O190 2.378 . S
Ho168 O191 2.524 . S
Ho168 O192 2.381 . S
Ho168 O193 2.669 . S
Ho168 O195 2.346 . S
Ho168 O199 2.305 . S
Ho169 C180 2.811 . S
Ho169 O189 2.346 . S
Ho169 O193 2.305 . S
Ho169 O194 2.322 . S
Ho169 O196 2.378 . S
Ho169 O197 2.524 . S
Ho169 O198 2.381 . S
Ho169 O199 2.669 . S
C170 O188 1.259 . S
C170 O189 1.268 . S
C171 Ho168 2.811 . S
C171 C172 1.488 . S
C171 O190 1.215 . S
C171 O191 1.289 . S
C172 C171 1.488 . S
C172 C173 1.348 . S
C172 C177 1.413 . S
C173 C172 1.348 . S
C173 C174 1.442 . S
C173 H200 0.930 . S
C174 C173 1.442 . S
C174 C175 1.381 . S
C174 H201 0.931 . S
C175 C174 1.381 . S
C175 C176 1.321 . S
C176 C175 1.321 . S
C176 C177 1.403 . S
C176 H202 0.934 . S
C177 C172 1.413 . S
C177 C176 1.403 . S
C177 H203 0.930 . S
C178 O192 1.275 . S
C178 O193 1.256 . S
C179 O194 1.259 . S
C179 O195 1.268 . S
C180 Ho169 2.811 . S
C180 C181 1.488 . S
C180 O196 1.215 . S
C180 O197 1.289 . S
C181 C180 1.488 . S
C181 C182 1.348 . S
C181 C186 1.413 . S
C182 C181 1.348 . S
C182 C183 1.442 . S
C182 H204 0.930 . S
C183 C182 1.442 . S
C183 C184 1.381 . S
C183 H205 0.931 . S
C184 C183 1.381 . S
C184 C185 1.321 . S
C185 C184 1.321 . S
C185 C186 1.403 . S
C185 H206 0.934 . S
C186 C181 1.413 . S
C186 C185 1.403 . S
C186 H207 0.930 . S
C187 O198 1.275 . S
C187 O199 1.256 . S
O188 Ho168 2.322 . S
O188 C170 1.259 . S
O189 Ho169 2.346 . S
O189 C170 1.268 . S
O190 Ho168 2.378 . S
O190 C171 1.215 . S
O191 Ho168 2.524 . S
O191 C171 1.289 . S
O192 Ho168 2.381 . S
O192 C178 1.275 . S
O193 Ho168 2.669 . S
O193 Ho169 2.305 . S
O193 C178 1.256 . S
O194 Ho169 2.322 . S
O194 C179 1.259 . S
O195 Ho168 2.346 . S
O195 C179 1.268 . S
O196 Ho169 2.378 . S
O196 C180 1.215 . S
O197 Ho169 2.524 . S
O197 C180 1.289 . S
O198 Ho169 2.381 . S
O198 C187 1.275 . S
O199 Ho168 2.305 . S
O199 Ho169 2.669 . S
O199 C187 1.256 . S
H200 C173 0.930 . S
H201 C174 0.931 . S
H202 C176 0.934 . S
H203 C177 0.930 . S
H204 C182 0.930 . S
H205 C183 0.931 . S
H206 C185 0.934 . S
H207 C186 0.930 . S
Ho208 C211 2.811 . S
Ho208 O228 2.322 . S
Ho208 O230 2.378 . S
Ho208 O231 2.524 . S
Ho208 O232 2.381 . S
Ho208 O233 2.669 1_655 S
Ho208 O235 2.346 1_655 S
Ho208 O239 2.305 . S
Ho209 C220 2.811 . S
Ho209 O229 2.346 1_455 S
Ho209 O233 2.305 . S
Ho209 O234 2.322 . S
Ho209 O236 2.378 . S
Ho209 O237 2.524 . S
Ho209 O238 2.381 . S
Ho209 O239 2.669 1_455 S
C210 O228 1.259 . S
C210 O229 1.268 . S
C211 Ho208 2.811 . S
C211 C212 1.488 . S
C211 O230 1.215 . S
C211 O231 1.289 . S
C212 C211 1.488 . S
C212 C213 1.348 . S
C212 C217 1.413 . S
C213 C212 1.348 . S
C213 C214 1.442 . S
C213 H240 0.930 . S
C214 C213 1.442 . S
C214 C215 1.381 . S
C214 H241 0.931 . S
C215 C214 1.381 . S
C215 C216 1.321 . S
C216 C215 1.321 . S
C216 C217 1.403 . S
C216 H242 0.934 . S
C217 C212 1.413 . S
C217 C216 1.403 . S
C217 H243 0.930 . S
C218 O232 1.275 1_455 S
C218 O233 1.256 . S
C219 O234 1.259 . S
C219 O235 1.268 . S
C220 Ho209 2.811 . S
C220 C221 1.488 . S
C220 O236 1.215 . S
C220 O237 1.289 . S
C221 C220 1.488 . S
C221 C222 1.348 . S
C221 C226 1.413 . S
C222 C221 1.348 . S
C222 C223 1.442 . S
C222 H244 0.930 . S
C223 C222 1.442 . S
C223 C224 1.381 . S
C223 H245 0.931 . S
C224 C223 1.381 . S
C224 C225 1.321 . S
C225 C224 1.321 . S
C225 C226 1.403 . S
C225 H246 0.934 . S
C226 C221 1.413 . S
C226 C225 1.403 . S
C226 H247 0.930 . S
C227 O238 1.275 . S
C227 O239 1.256 1_455 S
O228 Ho208 2.322 . S
O228 C210 1.259 . S
O229 Ho209 2.346 1_655 S
O229 C210 1.268 . S
O230 Ho208 2.378 . S
O230 C211 1.215 . S
O231 Ho208 2.524 . S
O231 C211 1.289 . S
O232 Ho208 2.381 . S
O232 C218 1.275 1_655 S
O233 Ho208 2.669 1_455 S
O233 Ho209 2.305 . S
O233 C218 1.256 . S
O234 Ho209 2.322 . S
O234 C219 1.259 . S
O235 Ho208 2.346 1_455 S
O235 C219 1.268 . S
O236 Ho209 2.378 . S
O236 C220 1.215 . S
O237 Ho209 2.524 . S
O237 C220 1.289 . S
O238 Ho209 2.381 . S
O238 C227 1.275 . S
O239 Ho208 2.305 . S
O239 Ho209 2.669 1_655 S
O239 C227 1.256 1_655 S
H240 C213 0.930 . S
H241 C214 0.931 . S
H242 C216 0.934 . S
H243 C217 0.930 . S
H244 C222 0.930 . S
H245 C223 0.931 . S
H246 C225 0.934 . S
H247 C226 0.930 . S
C248 C249 1.349 . S
C248 C250 1.327 . S
C248 H273 0.950 . S
C249 C248 1.349 . S
C249 C265 1.349 1_545 S
C250 C248 1.327 . S
C250 C269 1.429 . S
C250 H274 0.950 . S
C251 C268 1.574 . S
C251 C270 1.368 1_565 S
C251 H275 0.949 . S
H252 C256 0.949 . S
C253 C254 1.349 1_565 S
C253 C255 1.327 . S
C253 H276 0.950 . S
C254 C253 1.349 1_545 S
C254 C266 1.349 . S
C255 C253 1.327 . S
C255 C271 1.429 1_565 S
C255 H277 0.950 . S
C256 H252 0.949 . S
C256 C264 1.574 . S
C256 C272 1.368 . S
H257 C265 0.950 . S
H258 C263 0.950 . S
H259 C264 0.949 . S
H260 C266 0.950 . S
H261 C267 0.950 . S
H262 C268 0.949 . S
C263 H258 0.950 . S
C263 C265 1.327 . S
C263 C269 1.429 1_565 S
C264 C256 1.574 . S
C264 H259 0.949 . S
C264 C270 1.368 . S
C265 C249 1.349 1_565 S
C265 H257 0.950 . S
C265 C263 1.327 . S
C266 C254 1.349 . S
C266 H260 0.950 . S
C266 C267 1.327 . S
C267 H261 0.950 . S
C267 C266 1.327 . S
C267 C271 1.429 . S
C268 C251 1.574 . S
C268 H262 0.949 . S
C268 C272 1.368 1_565 S
C269 C250 1.429 . S
C269 C263 1.429 1_545 S
C269 C270 1.523 . S
C270 C251 1.368 1_545 S
C270 C264 1.368 . S
C270 C269 1.523 . S
C271 C255 1.429 1_545 S
C271 C267 1.429 . S
C271 C272 1.523 . S
C272 C256 1.368 . S
C272 C268 1.368 1_545 S
C272 C271 1.523 . S
H273 C248 0.950 . S
H274 C250 0.950 . S
H275 C251 0.949 . S
H276 C253 0.950 . S
H277 C255 0.950 . S
C278 C279 1.349 . S
C278 C280 1.327 . S
C278 H303 0.950 . S
C279 C278 1.349 . S
C279 C295 1.349 . S
C280 C278 1.327 . S
C280 C299 1.429 . S
C280 H304 0.950 . S
C281 C298 1.574 . S
C281 C300 1.368 . S
C281 H305 0.949 . S
H282 C286 0.949 . S
C283 C284 1.349 . S
C283 C285 1.327 . S
C283 H306 0.950 . S
C284 C283 1.349 . S
C284 C296 1.349 . S
C285 C283 1.327 . S
C285 C301 1.429 . S
C285 H307 0.950 . S
C286 H282 0.949 . S
C286 C294 1.574 . S
C286 C302 1.368 . S
H287 C295 0.950 . S
H288 C293 0.950 . S
H289 C294 0.949 . S
H290 C296 0.950 . S
H291 C297 0.950 . S
H292 C298 0.949 . S
C293 H288 0.950 . S
C293 C295 1.327 . S
C293 C299 1.429 . S
C294 C286 1.574 . S
C294 H289 0.949 . S
C294 C300 1.368 . S
C295 C279 1.349 . S
C295 H287 0.950 . S
C295 C293 1.327 . S
C296 C284 1.349 . S
C296 H290 0.950 . S
C296 C297 1.327 . S
C297 H291 0.950 . S
C297 C296 1.327 . S
C297 C301 1.429 . S
C298 C281 1.574 . S
C298 H292 0.949 . S
C298 C302 1.368 . S
C299 C280 1.429 . S
C299 C293 1.429 . S
C299 C300 1.523 . S
C300 C281 1.368 . S
C300 C294 1.368 . S
C300 C299 1.523 . S
C301 C285 1.429 . S
C301 C297 1.429 . S
C301 C302 1.523 . S
C302 C286 1.368 . S
C302 C298 1.368 . S
C302 C301 1.523 . S
H303 C278 0.950 . S
H304 C280 0.950 . S
H305 C281 0.949 . S
H306 C283 0.950 . S
H307 C285 0.950 . S
C308 C309 1.349 . S
C308 C310 1.327 . S
C308 H333 0.950 . S
C309 C308 1.349 . S
C309 C325 1.349 . S
C310 C308 1.327 . S
C310 C329 1.429 . S
C310 H334 0.950 . S
C311 C328 1.574 . S
C311 C330 1.368 . S
C311 H335 0.949 . S
H312 C316 0.949 . S
C313 C314 1.349 . S
C313 C315 1.327 . S
C313 H336 0.950 . S
C314 C313 1.349 . S
C314 C326 1.349 . S
C315 C313 1.327 . S
C315 C331 1.429 . S
C315 H337 0.950 . S
C316 H312 0.949 . S
C316 C324 1.574 . S
C316 C332 1.368 . S
H317 C325 0.950 . S
H318 C323 0.950 . S
H319 C324 0.949 . S
H320 C326 0.950 . S
H321 C327 0.950 . S
H322 C328 0.949 . S
C323 H318 0.950 . S
C323 C325 1.327 . S
C323 C329 1.429 . S
C324 C316 1.574 . S
C324 H319 0.949 . S
C324 C330 1.368 . S
C325 C309 1.349 . S
C325 H317 0.950 . S
C325 C323 1.327 . S
C326 C314 1.349 . S
C326 H320 0.950 . S
C326 C327 1.327 . S
C327 H321 0.950 . S
C327 C326 1.327 . S
C327 C331 1.429 . S
C328 C311 1.574 . S
C328 H322 0.949 . S
C328 C332 1.368 . S
C329 C310 1.429 . S
C329 C323 1.429 . S
C329 C330 1.523 . S
C330 C311 1.368 . S
C330 C324 1.368 . S
C330 C329 1.523 . S
C331 C315 1.429 . S
C331 C327 1.429 . S
C331 C332 1.523 . S
C332 C316 1.368 . S
C332 C328 1.368 . S
C332 C331 1.523 . S
H333 C308 0.950 . S
H334 C310 0.950 . S
H335 C311 0.949 . S
H336 C313 0.950 . S
H337 C315 0.950 . S
C338 C339 1.349 . S
C338 C340 1.327 . S
C338 H363 0.950 . S
C339 C338 1.349 . S
C339 C355 1.349 1_455 S
C340 C338 1.327 . S
C340 C359 1.429 . S
C340 H364 0.950 . S
C341 C358 1.574 . S
C341 C360 1.368 1_655 S
C341 H365 0.949 . S
H342 C346 0.949 . S
C343 C344 1.349 1_655 S
C343 C345 1.327 . S
C343 H366 0.950 . S
C344 C343 1.349 1_455 S
C344 C356 1.349 . S
C345 C343 1.327 . S
C345 C361 1.429 1_655 S
C345 H367 0.950 . S
C346 H342 0.949 . S
C346 C354 1.574 . S
C346 C362 1.368 . S
H347 C355 0.950 . S
H348 C353 0.950 . S
H349 C354 0.949 . S
H350 C356 0.950 . S
H351 C357 0.950 . S
H352 C358 0.949 . S
C353 H348 0.950 . S
C353 C355 1.327 . S
C353 C359 1.429 1_655 S
C354 C346 1.574 . S
C354 H349 0.949 . S
C354 C360 1.368 . S
C355 C339 1.349 1_655 S
C355 H347 0.950 . S
C355 C353 1.327 . S
C356 C344 1.349 . S
C356 H350 0.950 . S
C356 C357 1.327 . S
C357 H351 0.950 . S
C357 C356 1.327 . S
C357 C361 1.429 . S
C358 C341 1.574 . S
C358 H352 0.949 . S
C358 C362 1.368 1_655 S
C359 C340 1.429 . S
C359 C353 1.429 1_455 S
C359 C360 1.523 . S
C360 C341 1.368 1_455 S
C360 C354 1.368 . S
C360 C359 1.523 . S
C361 C345 1.429 1_455 S
C361 C357 1.429 . S
C361 C362 1.523 . S
C362 C346 1.368 . S
C362 C358 1.368 1_455 S
C362 C361 1.523 . S
H363 C338 0.950 . S
H364 C340 0.950 . S
H365 C341 0.949 . S
H366 C343 0.950 . S
H367 C345 0.950 . S
C368 C369 1.333 1_545 S
C368 C370 1.327 . S
C368 H393 0.950 . S
C369 C368 1.333 1_565 S
C369 C385 1.364 . S
C370 C368 1.327 . S
C370 C389 1.423 1_545 S
C370 H394 0.950 . S
C371 C388 1.574 1_554 S
C371 C390 1.368 . S
C371 H395 0.949 . S
H372 C376 0.949 . S
C373 C374 1.334 1_565 S
C373 C375 1.327 . S
C373 H396 0.950 . S
C374 C373 1.334 1_545 S
C374 C386 1.364 . S
C375 C373 1.327 . S
C375 C391 1.424 1_565 S
C375 H397 0.950 . S
C376 H372 0.949 . S
C376 C384 1.574 . S
C376 C392 1.368 1_554 S
H377 C385 0.950 . S
H378 C383 0.950 . S
H379 C384 0.949 . S
H380 C386 0.950 . S
H381 C387 0.950 . S
H382 C388 0.949 . S
C383 H378 0.950 . S
C383 C385 1.327 . S
C383 C389 1.434 . S
C384 C376 1.574 . S
C384 H379 0.949 . S
C384 C390 1.368 1_545 S
C385 C369 1.364 . S
C385 H377 0.950 . S
C385 C383 1.327 . S
C386 C374 1.364 . S
C386 H380 0.950 . S
C386 C387 1.327 . S
C387 H381 0.950 . S
C387 C386 1.327 . S
C387 C391 1.434 . S
C388 C371 1.574 1_556 S
C388 H382 0.949 . S
C388 C392 1.369 1_565 S
C389 C370 1.423 1_565 S
C389 C383 1.434 . S
C389 C390 1.523 . S
C390 C371 1.368 . S
C390 C384 1.368 1_565 S
C390 C389 1.523 . S
C391 C375 1.424 1_545 S
C391 C387 1.434 . S
C391 C392 1.523 . S
C392 C376 1.368 1_556 S
C392 C388 1.369 1_545 S
C392 C391 1.523 . S
H393 C368 0.950 . S
H394 C370 0.950 . S
H395 C371 0.949 . S
H396 C373 0.950 . S
H397 C375 0.950 . S
C398 C399 1.349 . S
C398 C400 1.327 . S
C398 H423 0.950 . S
C399 C398 1.349 . S
C399 C415 1.349 . S
C400 C398 1.327 . S
C400 C419 1.429 . S
C400 H424 0.950 . S
C401 C418 1.574 . S
C401 C420 1.368 . S
C401 H425 0.949 . S
H402 C406 0.949 . S
C403 C404 1.349 . S
C403 C405 1.327 . S
C403 H426 0.950 . S
C404 C403 1.349 . S
C404 C416 1.349 . S
C405 C403 1.327 . S
C405 C421 1.429 . S
C405 H427 0.950 1_556 S
C406 H402 0.949 . S
C406 C414 1.574 1_556 S
C406 C422 1.368 . S
H407 C415 0.950 . S
H408 C413 0.950 . S
H409 C414 0.949 . S
H410 C416 0.950 . S
H411 C417 0.950 . S
H412 C418 0.949 . S
C413 H408 0.950 . S
C413 C415 1.327 . S
C413 C419 1.429 . S
C414 C406 1.574 1_554 S
C414 H409 0.949 . S
C414 C420 1.368 . S
C415 C399 1.349 . S
C415 H407 0.950 . S
C415 C413 1.327 . S
C416 C404 1.349 . S
C416 H410 0.950 . S
C416 C417 1.327 . S
C417 H411 0.950 . S
C417 C416 1.327 . S
C417 C421 1.429 . S
C418 C401 1.574 . S
C418 H412 0.949 . S
C418 C422 1.368 1_554 S
C419 C400 1.429 . S
C419 C413 1.429 . S
C419 C420 1.523 . S
C420 C401 1.368 . S
C420 C414 1.368 . S
C420 C419 1.523 . S
C421 C405 1.429 . S
C421 C417 1.429 . S
C421 C422 1.523 . S
C422 C406 1.368 . S
C422 C418 1.368 1_556 S
C422 C421 1.523 . S
H423 C398 0.950 . S
H424 C400 0.950 . S
H425 C401 0.949 . S
H426 C403 0.950 . S
H427 C405 0.950 1_554 S
C428 C429 1.349 . S
C428 C430 1.327 . S
C428 H453 0.950 . S
C429 C428 1.349 . S
C429 C445 1.349 . S
C430 C428 1.327 . S
C430 C449 1.429 . S
C430 H454 0.950 . S
C431 C448 1.574 1_554 S
C431 C450 1.368 . S
C431 H455 0.949 . S
H432 C436 0.949 . S
C433 C434 1.349 . S
C433 C435 1.327 . S
C433 H456 0.950 . S
C434 C433 1.349 . S
C434 C446 1.349 . S
C435 C433 1.327 . S
C435 C451 1.429 . S
C435 H457 0.950 . S
C436 H432 0.949 . S
C436 C444 1.574 . S
C436 C452 1.368 1_554 S
H437 C445 0.950 . S
H438 C443 0.950 . S
H439 C444 0.949 . S
H440 C446 0.950 . S
H441 C447 0.950 . S
H442 C448 0.949 . S
C443 H438 0.950 . S
C443 C445 1.327 . S
C443 C449 1.429 . S
C444 C436 1.574 . S
C444 H439 0.949 . S
C444 C450 1.368 . S
C445 C429 1.349 . S
C445 H437 0.950 . S
C445 C443 1.327 . S
C446 C434 1.349 . S
C446 H440 0.950 . S
C446 C447 1.327 . S
C447 H441 0.950 . S
C447 C446 1.327 . S
C447 C451 1.429 . S
C448 C431 1.574 1_556 S
C448 H442 0.949 . S
C448 C452 1.368 . S
C449 C430 1.429 . S
C449 C443 1.429 . S
C449 C450 1.523 . S
C450 C431 1.368 . S
C450 C444 1.368 . S
C450 C449 1.523 . S
C451 C435 1.429 . S
C451 C447 1.429 . S
C451 C452 1.523 . S
C452 C436 1.368 1_556 S
C452 C448 1.368 . S
C452 C451 1.523 . S
H453 C428 0.950 . S
H454 C430 0.950 . S
H455 C431 0.949 . S
H456 C433 0.950 . S
H457 C435 0.950 . S
C458 C459 1.342 1_455 S
C458 C460 1.327 . S
C458 H483 0.950 . S
C459 C458 1.342 1_655 S
C459 C475 1.356 . S
C460 C458 1.327 . S
C460 C479 1.427 1_455 S
C460 H484 0.950 . S
C461 C478 1.574 . S
C461 C480 1.367 . S
C461 H485 0.949 . S
H462 C466 0.949 . S
C463 C464 1.340 1_655 S
C463 C465 1.327 . S
C463 H486 0.950 . S
C464 C463 1.340 1_455 S
C464 C476 1.358 . S
C465 C463 1.327 . S
C465 C481 1.425 1_655 S
C465 H487 0.950 1_556 S
C466 H462 0.949 . S
C466 C474 1.574 1_556 S
C466 C482 1.369 . S
H467 C475 0.950 . S
H468 C473 0.950 . S
H469 C474 0.949 . S
H470 C476 0.950 . S
H471 C477 0.950 . S
H472 C478 0.949 . S
C473 H468 0.950 . S
C473 C475 1.327 . S
C473 C479 1.430 . S
C474 C466 1.574 1_554 S
C474 H469 0.949 . S
C474 C480 1.369 1_455 S
C475 C459 1.356 . S
C475 H467 0.950 . S
C475 C473 1.327 . S
C476 C464 1.358 . S
C476 H470 0.950 . S
C476 C477 1.327 . S
C477 H471 0.950 . S
C477 C476 1.327 . S
C477 C481 1.432 . S
C478 C461 1.574 . S
C478 H472 0.949 . S
C478 C482 1.367 1_654 S
C479 C460 1.427 1_655 S
C479 C473 1.430 . S
C479 C480 1.523 . S
C480 C461 1.367 . S
C480 C474 1.369 1_655 S
C480 C479 1.523 . S
C481 C465 1.425 1_455 S
C481 C477 1.432 . S
C481 C482 1.523 . S
C482 C466 1.369 . S
C482 C478 1.367 1_456 S
C482 C481 1.523 . S
H483 C458 0.950 . S
H484 C460 0.950 . S
H485 C461 0.949 . S
H486 C463 0.950 . S
H487 C465 0.950 1_554 S
C488 C489 1.349 1_655 S
C488 C490 1.327 . S
C488 H513 0.950 . S
C489 C488 1.349 1_455 S
C489 C505 1.349 . S
C490 C488 1.327 . S
C490 C509 1.429 . S
C490 H514 0.950 . S
C491 C508 1.576 . S
C491 C510 1.368 1_455 S
C491 H515 0.949 . S
H492 C496 0.949 . S
C493 C494 1.349 . S
C493 C495 1.327 . S
C493 H516 0.950 . S
C494 C493 1.349 . S
C494 C506 1.349 . S
C495 C493 1.327 . S
C495 C511 1.429 . S
C495 H517 0.915 1_655 S
C496 H492 0.949 . S
C496 C504 1.574 . S
C496 C512 1.368 . S
H497 C505 0.950 . S
H498 C503 0.950 . S
H499 C504 0.949 . S
H500 C506 0.950 . S
H501 C507 0.950 . S
H502 C508 0.954 . S
C503 H498 0.950 . S
C503 C505 1.327 . S
C503 C509 1.429 1_455 S
C504 C496 1.574 . S
C504 H499 0.949 . S
C504 C510 1.368 . S
C505 C489 1.349 . S
C505 H497 0.950 . S
C505 C503 1.327 . S
C506 C494 1.349 . S
C506 H500 0.950 . S
C506 C507 1.327 . S
C507 H501 0.950 . S
C507 C506 1.327 . S
C507 C511 1.429 . S
C508 C491 1.576 . S
C508 H502 0.954 . S
C508 C512 1.360 1_455 S
C509 C490 1.429 . S
C509 C503 1.429 1_655 S
C509 C510 1.523 . S
C510 C491 1.368 1_655 S
C510 C504 1.368 . S
C510 C509 1.523 . S
C511 C495 1.429 . S
C511 C507 1.429 . S
C511 C512 1.523 . S
C512 C496 1.368 . S
C512 C508 1.360 1_655 S
C512 C511 1.523 . S
H513 C488 0.950 . S
H514 C490 0.950 . S
H515 C491 0.949 . S
H516 C493 0.950 . S
H517 C495 0.915 1_455 S
C518 C519 1.349 . S
C518 C520 1.327 . S
C518 H543 0.950 . S
C519 C518 1.349 . S
C519 C535 1.349 1_545 S
C520 C518 1.327 . S
C520 C539 1.429 1_545 S
C520 H544 0.950 . S
C521 C538 1.574 . S
C521 C540 1.368 . S
C521 H545 0.949 . S
H522 C526 0.949 . S
C523 C524 1.349 . S
C523 C525 1.327 . S
C523 H546 0.950 . S
C524 C523 1.349 . S
C524 C536 1.349 . S
C525 C523 1.327 . S
C525 C541 1.429 . S
C525 H547 0.950 . S
C526 H522 0.949 . S
C526 C534 1.574 . S
C526 C542 1.368 1_545 S
H527 C535 0.950 . S
H528 C533 0.950 . S
H529 C534 0.949 . S
H530 C536 0.950 1_545 S
H531 C537 0.950 1_545 S
H532 C538 0.949 . S
C533 H528 0.950 . S
C533 C535 1.327 . S
C533 C539 1.429 . S
C534 C526 1.574 . S
C534 H529 0.949 . S
C534 C540 1.368 1_545 S
C535 C519 1.349 1_565 S
C535 H527 0.950 . S
C535 C533 1.327 . S
C536 C524 1.349 . S
C536 H530 0.950 1_565 S
C536 C537 1.327 . S
C537 H531 0.950 1_565 S
C537 C536 1.327 . S
C537 C541 1.429 . S
C538 C521 1.574 . S
C538 H532 0.949 . S
C538 C542 1.368 . S
C539 C520 1.429 1_565 S
C539 C533 1.429 . S
C539 C540 1.523 . S
C540 C521 1.368 . S
C540 C534 1.368 1_565 S
C540 C539 1.523 . S
C541 C525 1.429 . S
C541 C537 1.429 . S
C541 C542 1.523 . S
C542 C526 1.368 1_565 S
C542 C538 1.368 . S
C542 C541 1.523 . S
H543 C518 0.950 . S
H544 C520 0.950 . S
H545 C521 0.949 . S
H546 C523 0.950 . S
H547 C525 0.950 . S
C548 C549 1.349 . S
C548 C550 1.327 . S
C548 H573 0.950 . S
C549 C548 1.349 . S
C549 C565 1.349 . S
C550 C548 1.327 . S
C550 C569 1.429 . S
C550 H574 0.950 . S
C551 C568 1.574 . S
C551 C570 1.368 . S
C551 H575 0.949 . S
H552 C556 0.949 . S
C553 C554 1.349 . S
C553 C555 1.327 . S
C553 H576 0.950 . S
C554 C553 1.349 . S
C554 C566 1.349 . S
C555 C553 1.327 . S
C555 C571 1.429 . S
C555 H577 0.950 . S
C556 H552 0.949 . S
C556 C564 1.574 . S
C556 C572 1.368 . S
H557 C565 0.950 . S
H558 C563 0.950 . S
H559 C564 0.949 . S
H560 C566 0.950 . S
H561 C567 0.950 . S
H562 C568 0.949 . S
C563 H558 0.950 . S
C563 C565 1.327 . S
C563 C569 1.429 . S
C564 C556 1.574 . S
C564 H559 0.949 . S
C564 C570 1.368 . S
C565 C549 1.349 . S
C565 H557 0.950 . S
C565 C563 1.327 . S
C566 C554 1.349 . S
C566 H560 0.950 . S
C566 C567 1.327 . S
C567 H561 0.950 . S
C567 C566 1.327 . S
C567 C571 1.429 . S
C568 C551 1.574 . S
C568 H562 0.949 . S
C568 C572 1.368 . S
C569 C550 1.429 . S
C569 C563 1.429 . S
C569 C570 1.523 . S
C570 C551 1.368 . S
C570 C564 1.368 . S
C570 C569 1.523 . S
C571 C555 1.429 . S
C571 C567 1.429 . S
C571 C572 1.523 . S
C572 C556 1.368 . S
C572 C568 1.368 . S
C572 C571 1.523 . S
H573 C548 0.950 . S
H574 C550 0.950 . S
H575 C551 0.949 . S
H576 C553 0.950 . S
H577 C555 0.950 . S
C578 C579 1.349 . S
C578 C580 1.327 . S
C578 H603 0.950 . S
C579 C578 1.349 . S
C579 C595 1.349 . S
C580 C578 1.327 . S
C580 C599 1.429 . S
C580 H604 0.950 . S
C581 C598 1.574 . S
C581 C600 1.368 . S
C581 H605 0.949 . S
H582 C586 0.949 . S
C583 C584 1.349 . S
C583 C585 1.327 . S
C583 H606 0.950 . S
C584 C583 1.349 . S
C584 C596 1.349 . S
C585 C583 1.327 . S
C585 C601 1.429 . S
C585 H607 0.950 . S
C586 H582 0.949 . S
C586 C594 1.574 . S
C586 C602 1.368 . S
H587 C595 0.950 . S
H588 C593 0.950 . S
H589 C594 0.949 . S
H590 C596 0.950 . S
H591 C597 0.950 . S
H592 C598 0.949 . S
C593 H588 0.950 . S
C593 C595 1.327 . S
C593 C599 1.429 . S
C594 C586 1.574 . S
C594 H589 0.949 . S
C594 C600 1.368 . S
C595 C579 1.349 . S
C595 H587 0.950 . S
C595 C593 1.327 . S
C596 C584 1.349 . S
C596 H590 0.950 . S
C596 C597 1.327 . S
C597 H591 0.950 . S
C597 C596 1.327 . S
C597 C601 1.429 . S
C598 C581 1.574 . S
C598 H592 0.949 . S
C598 C602 1.368 . S
C599 C580 1.429 . S
C599 C593 1.429 . S
C599 C600 1.523 . S
C600 C581 1.368 . S
C600 C594 1.368 . S
C600 C599 1.523 . S
C601 C585 1.429 . S
C601 C597 1.429 . S
C601 C602 1.523 . S
C602 C586 1.368 . S
C602 C598 1.368 . S
C602 C601 1.523 . S
H603 C578 0.950 . S
H604 C580 0.950 . S
H605 C581 0.949 . S
H606 C583 0.950 . S
H607 C585 0.950 . S
C608 C609 1.349 . S
C608 C610 1.327 . S
C608 H633 0.950 . S
C609 C608 1.349 . S
C609 C625 1.349 1_655 S
C610 C608 1.327 . S
C610 C629 1.429 1_655 S
C610 H634 0.950 . S
C611 C628 1.574 . S
C611 C630 1.368 . S
C611 H635 0.949 . S
H612 C616 0.974 . S
C613 C614 1.349 . S
C613 C615 1.327 1_556 S
C613 H636 0.950 . S
C614 C613 1.349 . S
C614 C626 1.349 1_556 S
C615 C613 1.327 1_554 S
C615 C631 1.429 . S
C615 H637 0.950 . S
C616 H612 0.974 . S
C616 C624 1.581 . S
C616 C632 1.334 1_655 S
H617 C625 0.950 . S
H618 C623 0.950 . S
H619 C624 0.949 . S
H620 C626 0.950 . S
H621 C627 0.950 1_655 S
H622 C628 0.949 . S
C623 H618 0.950 . S
C623 C625 1.327 . S
C623 C629 1.429 . S
C624 C616 1.581 . S
C624 H619 0.949 . S
C624 C630 1.368 1_655 S
C625 C609 1.349 1_455 S
C625 H617 0.950 . S
C625 C623 1.327 . S
C626 C614 1.349 1_554 S
C626 H620 0.950 . S
C626 C627 1.327 . S
C627 H621 0.950 1_455 S
C627 C626 1.327 . S
C627 C631 1.429 . S
C628 C611 1.574 . S
C628 H622 0.949 . S
C628 C632 1.368 . S
C629 C610 1.429 1_455 S
C629 C623 1.429 . S
C629 C630 1.523 . S
C630 C611 1.368 . S
C630 C624 1.368 1_455 S
C630 C629 1.523 . S
C631 C615 1.429 . S
C631 C627 1.429 . S
C631 C632 1.523 . S
C632 C616 1.334 1_455 S
C632 C628 1.368 . S
C632 C631 1.523 . S
H633 C608 0.950 . S
H634 C610 0.950 . S
H635 C611 0.949 . S
H636 C613 0.950 . S
H637 C615 0.950 . S
C638 C639 1.349 1_545 S
C638 C640 1.327 . S
C638 H663 0.950 . S
C639 C638 1.349 1_565 S
C639 C655 1.349 . S
C640 C638 1.327 . S
C640 C659 1.429 . S
C640 H664 0.950 . S
C641 C658 1.574 . S
C641 C660 1.368 1_565 S
C641 H665 0.949 . S
H642 C646 0.949 . S
C643 C644 1.349 . S
C643 C645 1.327 1_556 S
C643 H666 0.950 1_545 S
C644 C643 1.349 . S
C644 C656 1.349 . S
C645 C643 1.327 1_554 S
C645 C661 1.429 . S
C645 H667 0.950 1_545 S
C646 H642 0.949 . S
C646 C654 1.574 . S
C646 C662 1.368 . S
H647 C655 0.950 . S
H648 C653 0.950 . S
H649 C654 0.949 . S
H650 C656 0.950 . S
H651 C657 0.950 . S
H652 C658 0.949 . S
C653 H648 0.950 . S
C653 C655 1.327 . S
C653 C659 1.429 1_565 S
C654 C646 1.574 . S
C654 H649 0.949 . S
C654 C660 1.368 . S
C655 C639 1.349 . S
C655 H647 0.950 . S
C655 C653 1.327 . S
C656 C644 1.349 . S
C656 H650 0.950 . S
C656 C657 1.327 1_556 S
C657 H651 0.950 . S
C657 C656 1.327 1_554 S
C657 C661 1.429 . S
C658 C641 1.574 . S
C658 H652 0.949 . S
C658 C662 1.368 1_565 S
C659 C640 1.429 . S
C659 C653 1.429 1_545 S
C659 C660 1.523 . S
C660 C641 1.368 1_545 S
C660 C654 1.368 . S
C660 C659 1.523 . S
C661 C645 1.429 . S
C661 C657 1.429 . S
C661 C662 1.523 . S
C662 C646 1.368 . S
C662 C658 1.368 1_545 S
C662 C661 1.523 . S
H663 C638 0.950 . S
H664 C640 0.950 . S
H665 C641 0.949 . S
H666 C643 0.950 1_565 S
H667 C645 0.950 1_565 S
C668 C669 1.349 . S
C668 C670 1.327 . S
C668 H693 0.950 . S
C669 C668 1.349 . S
C669 C685 1.349 . S
C670 C668 1.327 . S
C670 C689 1.429 . S
C670 H694 0.950 . S
C671 C688 1.574 . S
C671 C690 1.368 . S
C671 H695 0.949 . S
H672 C676 0.949 . S
C673 C674 1.349 . S
C673 C675 1.327 . S
C673 H696 0.950 . S
C674 C673 1.349 . S
C674 C686 1.349 1_556 S
C675 C673 1.327 . S
C675 C691 1.429 1_556 S
C675 H697 0.950 . S
C676 H672 0.949 . S
C676 C684 1.574 . S
C676 C692 1.368 . S
H677 C685 0.950 . S
H678 C683 0.950 . S
H679 C684 0.949 . S
H680 C686 0.950 . S
H681 C687 0.950 . S
H682 C688 0.949 . S
C683 H678 0.950 . S
C683 C685 1.327 . S
C683 C689 1.429 . S
C684 C676 1.574 . S
C684 H679 0.949 . S
C684 C690 1.368 . S
C685 C669 1.349 . S
C685 H677 0.950 . S
C685 C683 1.327 . S
C686 C674 1.349 1_554 S
C686 H680 0.950 . S
C686 C687 1.327 . S
C687 H681 0.950 . S
C687 C686 1.327 . S
C687 C691 1.429 . S
C688 C671 1.574 . S
C688 H682 0.949 . S
C688 C692 1.368 . S
C689 C670 1.429 . S
C689 C683 1.429 . S
C689 C690 1.523 . S
C690 C671 1.368 . S
C690 C684 1.368 . S
C690 C689 1.523 . S
C691 C675 1.429 1_554 S
C691 C687 1.429 . S
C691 C692 1.523 . S
C692 C676 1.368 . S
C692 C688 1.368 . S
C692 C691 1.523 . S
H693 C668 0.950 . S
H694 C670 0.950 . S
H695 C671 0.949 . S
H696 C673 0.950 . S
H697 C675 0.950 . S
C698 C699 1.349 . S
C698 C700 1.327 . S
C698 H723 0.950 . S
C699 C698 1.349 . S
C699 C715 1.349 . S
C700 C698 1.327 . S
C700 C719 1.429 . S
C700 H724 0.950 . S
C701 C718 1.574 . S
C701 C720 1.368 . S
C701 H725 0.949 . S
H702 C706 0.949 . S
C703 C704 1.349 . S
C703 C705 1.327 1_556 S
C703 H726 0.950 . S
C704 C703 1.349 . S
C704 C716 1.349 . S
C705 C703 1.327 1_554 S
C705 C721 1.429 . S
C705 H727 0.950 . S
C706 H702 0.949 . S
C706 C714 1.574 . S
C706 C722 1.368 . S
H707 C715 0.950 . S
H708 C713 0.950 . S
H709 C714 0.949 . S
H710 C716 0.950 . S
H711 C717 0.950 . S
H712 C718 0.949 . S
C713 H708 0.950 . S
C713 C715 1.327 . S
C713 C719 1.429 . S
C714 C706 1.574 . S
C714 H709 0.949 . S
C714 C720 1.368 . S
C715 C699 1.349 . S
C715 H707 0.950 . S
C715 C713 1.327 . S
C716 C704 1.349 . S
C716 H710 0.950 . S
C716 C717 1.327 1_556 S
C717 H711 0.950 . S
C717 C716 1.327 1_554 S
C717 C721 1.429 . S
C718 C701 1.574 . S
C718 H712 0.949 . S
C718 C722 1.368 . S
C719 C700 1.429 . S
C719 C713 1.429 . S
C719 C720 1.523 . S
C720 C701 1.368 . S
C720 C714 1.368 . S
C720 C719 1.523 . S
C721 C705 1.429 . S
C721 C717 1.429 . S
C721 C722 1.523 . S
C722 C706 1.368 . S
C722 C718 1.368 . S
C722 C721 1.523 . S
H723 C698 0.950 . S
H724 C700 0.950 . S
H725 C701 0.949 . S
H726 C703 0.950 . S
H727 C705 0.950 . S
C728 C729 1.349 . S
C728 C730 1.327 . S
C728 H753 0.950 . S
C729 C728 1.349 . S
C729 C745 1.349 . S
C730 C728 1.327 . S
C730 C749 1.429 . S
C730 H754 0.950 . S
C731 C748 1.574 . S
C731 C750 1.368 . S
C731 H755 0.960 . S
H732 C736 0.949 . S
C733 C734 1.349 . S
C733 C735 1.327 . S
C733 H756 0.950 . S
C734 C733 1.349 . S
C734 C746 1.349 . S
C735 C733 1.327 . S
C735 C751 1.429 . S
C735 H757 0.950 . S
C736 H732 0.949 . S
C736 C744 1.574 . S
C736 C752 1.368 . S
H737 C745 0.950 1_655 S
H738 C743 0.949 1_655 S
H739 C744 0.949 . S
H740 C746 0.950 . S
H741 C747 0.950 . S
H742 C748 0.949 . S
C743 H738 0.949 1_455 S
C743 C745 1.327 . S
C743 C749 1.429 . S
C744 C736 1.574 . S
C744 H739 0.949 . S
C744 C750 1.368 . S
C745 C729 1.349 . S
C745 H737 0.950 1_455 S
C745 C743 1.327 . S
C746 C734 1.349 . S
C746 H740 0.950 . S
C746 C747 1.327 . S
C747 H741 0.950 . S
C747 C746 1.327 . S
C747 C751 1.429 . S
C748 C731 1.574 . S
C748 H742 0.949 . S
C748 C752 1.368 . S
C749 C730 1.429 . S
C749 C743 1.429 . S
C749 C750 1.523 . S
C750 C731 1.368 . S
C750 C744 1.368 . S
C750 C749 1.523 . S
C751 C735 1.429 . S
C751 C747 1.429 . S
C751 C752 1.523 . S
C752 C736 1.368 . S
C752 C748 1.368 . S
C752 C751 1.523 . S
H753 C728 0.950 . S
H754 C730 0.950 . S
H755 C731 0.960 . S
H756 C733 0.950 . S
H757 C735 0.950 . S
C758 C759 1.349 . S
C758 C760 1.327 . S
C758 H783 0.950 . S
C759 C758 1.349 . S
C759 C775 1.349 1_545 S
C760 C758 1.327 . S
C760 C779 1.429 . S
C760 H784 0.950 . S
C761 C778 1.574 . S
C761 C780 1.368 1_565 S
C761 H785 0.949 . S
H762 C766 0.949 . S
C763 C764 1.349 1_565 S
C763 C765 1.327 . S
C763 H786 0.950 . S
C764 C763 1.349 1_545 S
C764 C776 1.349 . S
C765 C763 1.327 . S
C765 C781 1.429 1_565 S
C765 H787 0.950 . S
C766 H762 0.949 . S
C766 C774 1.574 . S
C766 C782 1.368 . S
H767 C775 0.950 . S
H768 C773 0.950 . S
H769 C774 0.949 . S
H770 C776 0.950 . S
H771 C777 0.950 . S
H772 C778 0.949 . S
C773 H768 0.950 . S
C773 C775 1.327 . S
C773 C779 1.429 1_565 S
C774 C766 1.574 . S
C774 H769 0.949 . S
C774 C780 1.368 . S
C775 C759 1.349 1_565 S
C775 H767 0.950 . S
C775 C773 1.327 . S
C776 C764 1.349 . S
C776 H770 0.950 . S
C776 C777 1.327 . S
C777 H771 0.950 . S
C777 C776 1.327 . S
C777 C781 1.429 . S
C778 C761 1.574 . S
C778 H772 0.949 . S
C778 C782 1.368 1_565 S
C779 C760 1.429 . S
C779 C773 1.429 1_545 S
C779 C780 1.523 . S
C780 C761 1.368 1_545 S
C780 C774 1.368 . S
C780 C779 1.523 . S
C781 C765 1.429 1_545 S
C781 C777 1.429 . S
C781 C782 1.523 . S
C782 C766 1.368 . S
C782 C778 1.368 1_545 S
C782 C781 1.523 . S
H783 C758 0.950 . S
H784 C760 0.950 . S
H785 C761 0.949 . S
H786 C763 0.950 . S
H787 C765 0.950 . S
C788 C789 1.349 . S
C788 C790 1.327 . S
C788 H813 0.950 . S
C789 C788 1.349 . S
C789 C805 1.349 . S
C790 C788 1.327 . S
C790 C809 1.429 . S
C790 H814 0.950 . S
C791 C808 1.574 . S
C791 C810 1.368 . S
C791 H815 0.949 . S
H792 C796 0.949 . S
C793 C794 1.349 . S
C793 C795 1.327 . S
C793 H816 0.950 . S
C794 C793 1.349 . S
C794 C806 1.349 . S
C795 C793 1.327 . S
C795 C811 1.429 . S
C795 H817 0.950 . S
C796 H792 0.949 . S
C796 C804 1.574 . S
C796 C812 1.368 . S
H797 C805 0.950 . S
H798 C803 0.950 . S
H799 C804 0.949 . S
H800 C806 0.950 . S
H801 C807 0.950 . S
H802 C808 0.949 . S
C803 H798 0.950 . S
C803 C805 1.327 . S
C803 C809 1.429 . S
C804 C796 1.574 . S
C804 H799 0.949 . S
C804 C810 1.368 . S
C805 C789 1.349 . S
C805 H797 0.950 . S
C805 C803 1.327 . S
C806 C794 1.349 . S
C806 H800 0.950 . S
C806 C807 1.327 . S
C807 H801 0.950 . S
C807 C806 1.327 . S
C807 C811 1.429 . S
C808 C791 1.574 . S
C808 H802 0.949 . S
C808 C812 1.368 . S
C809 C790 1.429 . S
C809 C803 1.429 . S
C809 C810 1.523 . S
C810 C791 1.368 . S
C810 C804 1.368 . S
C810 C809 1.523 . S
C811 C795 1.429 . S
C811 C807 1.429 . S
C811 C812 1.523 . S
C812 C796 1.368 . S
C812 C808 1.368 . S
C812 C811 1.523 . S
H813 C788 0.950 . S
H814 C790 0.950 . S
H815 C791 0.949 . S
H816 C793 0.950 . S
H817 C795 0.950 . S
C818 C819 1.349 . S
C818 C820 1.327 . S
C818 H843 0.950 . S
C819 C818 1.349 . S
C819 C835 1.349 . S
C820 C818 1.327 . S
C820 C839 1.429 . S
C820 H844 0.950 . S
C821 C838 1.574 . S
C821 C840 1.368 . S
C821 H845 0.949 . S
H822 C826 0.949 . S
C823 C824 1.349 . S
C823 C825 1.327 . S
C823 H846 0.950 . S
C824 C823 1.349 . S
C824 C836 1.349 . S
C825 C823 1.327 . S
C825 C841 1.429 . S
C825 H847 0.950 . S
C826 H822 0.949 . S
C826 C834 1.574 . S
C826 C842 1.368 . S
H827 C835 0.950 . S
H828 C833 0.950 . S
H829 C834 0.949 . S
H830 C836 0.950 . S
H831 C837 0.950 . S
H832 C838 0.949 . S
C833 H828 0.950 . S
C833 C835 1.327 . S
C833 C839 1.429 . S
C834 C826 1.574 . S
C834 H829 0.949 . S
C834 C840 1.368 . S
C835 C819 1.349 . S
C835 H827 0.950 . S
C835 C833 1.327 . S
C836 C824 1.349 . S
C836 H830 0.950 . S
C836 C837 1.327 . S
C837 H831 0.950 . S
C837 C836 1.327 . S
C837 C841 1.429 . S
C838 C821 1.574 . S
C838 H832 0.949 . S
C838 C842 1.368 . S
C839 C820 1.429 . S
C839 C833 1.429 . S
C839 C840 1.523 . S
C840 C821 1.368 . S
C840 C834 1.368 . S
C840 C839 1.523 . S
C841 C825 1.429 . S
C841 C837 1.429 . S
C841 C842 1.523 . S
C842 C826 1.368 . S
C842 C838 1.368 . S
C842 C841 1.523 . S
H843 C818 0.950 . S
H844 C820 0.950 . S
H845 C821 0.949 . S
H846 C823 0.950 . S
H847 C825 0.950 . S
C848 C849 1.349 1_455 S
C848 C850 1.330 . S
C848 H873 0.950 . S
C849 C848 1.349 1_655 S
C849 C865 1.349 . S
C850 C848 1.330 . S
C850 C869 1.420 1_455 S
C850 H874 0.959 . S
C851 C868 1.574 . S
C851 C870 1.368 . S
C851 H875 0.949 . S
H852 C856 0.946 1_455 S
C853 C854 1.349 . S
C853 C855 1.327 . S
C853 H876 0.950 . S
C854 C853 1.349 . S
C854 C866 1.349 . S
C855 C853 1.327 . S
C855 C871 1.429 . S
C855 H877 0.950 . S
C856 H852 0.946 1_655 S
C856 C864 1.574 . S
C856 C872 1.368 . S
H857 C865 0.950 . S
H858 C863 0.950 . S
H859 C864 0.946 1_455 S
H860 C866 0.950 . S
H861 C867 0.954 . S
H862 C868 0.949 . S
C863 H858 0.950 . S
C863 C865 1.327 . S
C863 C869 1.429 . S
C864 C856 1.574 . S
C864 H859 0.946 1_655 S
C864 C870 1.371 . S
C865 C849 1.349 . S
C865 H857 0.950 . S
C865 C863 1.327 . S
C866 C854 1.349 . S
C866 H860 0.950 . S
C866 C867 1.327 . S
C867 H861 0.954 . S
C867 C866 1.327 . S
C867 C871 1.429 . S
C868 C851 1.574 . S
C868 H862 0.949 . S
C868 C872 1.368 . S
C869 C850 1.420 1_655 S
C869 C863 1.429 . S
C869 C870 1.523 . S
C870 C851 1.368 . S
C870 C864 1.371 . S
C870 C869 1.523 . S
C871 C855 1.429 . S
C871 C867 1.429 . S
C871 C872 1.523 . S
C872 C856 1.368 . S
C872 C868 1.368 . S
C872 C871 1.523 . S
H873 C848 0.950 . S
H874 C850 0.959 . S
H875 C851 0.949 . S
H876 C853 0.950 . S
H877 C855 0.950 . S
C878 C879 1.349 1_545 S
C878 C880 1.327 . S
C878 H903 0.950 . S
C879 C878 1.349 1_565 S
C879 C895 1.349 . S
C880 C878 1.327 . S
C880 C899 1.429 1_545 S
C880 H904 0.950 . S
C881 C898 1.574 . S
C881 C900 1.368 . S
C881 H905 0.949 . S
H882 C886 0.949 . S
C883 C884 1.349 . S
C883 C885 1.327 . S
C883 H906 0.950 . S
C884 C883 1.349 . S
C884 C896 1.349 1_565 S
C885 C883 1.327 . S
C885 C901 1.429 . S
C885 H907 0.950 . S
C886 H882 0.949 . S
C886 C894 1.574 . S
C886 C902 1.368 1_545 S
H887 C895 0.950 . S
H888 C893 0.950 . S
H889 C894 0.949 . S
H890 C896 0.950 . S
H891 C897 0.950 . S
H892 C898 0.949 . S
C893 H888 0.950 . S
C893 C895 1.327 . S
C893 C899 1.429 . S
C894 C886 1.574 . S
C894 H889 0.949 . S
C894 C900 1.368 1_545 S
C895 C879 1.349 . S
C895 H887 0.950 . S
C895 C893 1.327 . S
C896 C884 1.349 1_545 S
C896 H890 0.950 . S
C896 C897 1.327 . S
C897 H891 0.950 . S
C897 C896 1.327 . S
C897 C901 1.429 1_545 S
C898 C881 1.574 . S
C898 H892 0.949 . S
C898 C902 1.368 . S
C899 C880 1.429 1_565 S
C899 C893 1.429 . S
C899 C900 1.523 . S
C900 C881 1.368 . S
C900 C894 1.368 1_565 S
C900 C899 1.523 . S
C901 C885 1.429 . S
C901 C897 1.429 1_565 S
C901 C902 1.523 . S
C902 C886 1.368 1_565 S
C902 C898 1.368 . S
C902 C901 1.523 . S
H903 C878 0.950 . S
H904 C880 0.950 . S
H905 C881 0.949 . S
H906 C883 0.950 . S
H907 C885 0.950 . S
C908 C909 1.349 . S
C908 C910 1.327 . S
C908 H933 0.950 . S
C909 C908 1.349 . S
C909 C925 1.349 . S
C910 C908 1.327 . S
C910 C929 1.429 . S
C910 H934 0.950 . S
C911 C928 1.574 . S
C911 C930 1.368 . S
C911 H935 0.949 . S
H912 C916 0.949 . S
C913 C914 1.349 . S
C913 C915 1.327 . S
C913 H936 0.950 . S
C914 C913 1.349 . S
C914 C926 1.349 . S
C915 C913 1.327 . S
C915 C931 1.429 . S
C915 H937 0.950 . S
C916 H912 0.949 . S
C916 C924 1.574 . S
C916 C932 1.368 . S
H917 C925 0.950 . S
H918 C923 0.950 . S
H919 C924 0.949 . S
H920 C926 0.950 . S
H921 C927 0.950 . S
H922 C928 0.949 . S
C923 H918 0.950 . S
C923 C925 1.327 . S
C923 C929 1.429 . S
C924 C916 1.574 . S
C924 H919 0.949 . S
C924 C930 1.368 . S
C925 C909 1.349 . S
C925 H917 0.950 . S
C925 C923 1.327 . S
C926 C914 1.349 . S
C926 H920 0.950 . S
C926 C927 1.327 . S
C927 H921 0.950 . S
C927 C926 1.327 . S
C927 C931 1.429 . S
C928 C911 1.574 . S
C928 H922 0.949 . S
C928 C932 1.368 . S
C929 C910 1.429 . S
C929 C923 1.429 . S
C929 C930 1.523 . S
C930 C911 1.368 . S
C930 C924 1.368 . S
C930 C929 1.523 . S
C931 C915 1.429 . S
C931 C927 1.429 . S
C931 C932 1.523 . S
C932 C916 1.368 . S
C932 C928 1.368 . S
C932 C931 1.523 . S
H933 C908 0.950 . S
H934 C910 0.950 . S
H935 C911 0.949 . S
H936 C913 0.950 . S
H937 C915 0.950 . S
C938 C939 1.349 . S
C938 C940 1.327 . S
C938 H963 0.950 . S
C939 C938 1.349 . S
C939 C955 1.349 . S
C940 C938 1.327 . S
C940 C959 1.429 . S
C940 H964 0.950 . S
C941 C958 1.574 . S
C941 C960 1.368 . S
C941 H965 0.949 . S
H942 C946 0.949 . S
C943 C944 1.349 . S
C943 C945 1.327 . S
C943 H966 0.950 . S
C944 C943 1.349 . S
C944 C956 1.349 . S
C945 C943 1.327 . S
C945 C961 1.429 . S
C945 H967 0.950 . S
C946 H942 0.949 . S
C946 C954 1.574 . S
C946 C962 1.368 . S
H947 C955 0.950 . S
H948 C953 0.950 . S
H949 C954 0.949 . S
H950 C956 0.950 . S
H951 C957 0.950 . S
H952 C958 0.949 . S
C953 H948 0.950 . S
C953 C955 1.327 . S
C953 C959 1.429 . S
C954 C946 1.574 . S
C954 H949 0.949 . S
C954 C960 1.368 . S
C955 C939 1.349 . S
C955 H947 0.950 . S
C955 C953 1.327 . S
C956 C944 1.349 . S
C956 H950 0.950 . S
C956 C957 1.327 . S
C957 H951 0.950 . S
C957 C956 1.327 . S
C957 C961 1.429 . S
C958 C941 1.574 . S
C958 H952 0.949 . S
C958 C962 1.368 . S
C959 C940 1.429 . S
C959 C953 1.429 . S
C959 C960 1.523 . S
C960 C941 1.368 . S
C960 C954 1.368 . S
C960 C959 1.523 . S
C961 C945 1.429 . S
C961 C957 1.429 . S
C961 C962 1.523 . S
C962 C946 1.368 . S
C962 C958 1.368 . S
C962 C961 1.523 . S
H963 C938 0.950 . S
H964 C940 0.950 . S
H965 C941 0.949 . S
H966 C943 0.950 . S
H967 C945 0.950 . S
C249 C76 1.731 . S
C254 C98 1.816 . S
C284 C138 1.817 . S
C279 C87 1.732 . S
C314 C178 1.817 . S
C309 C54 1.732 . S
C344 C218 1.816 . S
C339 C65 1.731 . S
C374 C107 1.818 . S
C369 C32 1.732 . S
C399 C43 1.732 . S
C404 C147 1.816 . S
C429 C10 1.732 . S
C434 C187 1.816 . S
C459 C21 1.732 . S
C464 C227 1.819 . S
C494 C104 0.333 . S
C489 C60 0.393 . S
C524 C144 0.333 . S
C519 C71 0.393 . S
C554 C184 0.333 . S
C549 C82 0.393 . S
C579 C49 0.393 . S
C584 C224 0.333 . S
C609 C16 0.403 . S
C614 C95 0.332 . S
C644 C135 0.332 . S
C639 C27 0.404 . S
C674 C175 0.333 . S
C669 C38 0.403 . S
C699 C5 0.403 . S
C704 C215 0.332 . S
C729 C59 1.865 . S
C734 C99 2.059 . S
C759 C70 1.865 . S
C764 C139 2.060 . S
C794 C179 2.060 . S
C789 C81 1.865 . S
C824 C219 2.059 . S
C819 C48 1.864 . S
C849 C15 1.867 1_655 S
C854 C90 2.059 . S
C884 C130 2.059 . S
C879 C26 1.866 1_565 S
C914 C170 2.059 . S
C909 C37 1.866 . S
C939 C4 1.867 . S
C944 C210 2.060 . S
