# Generated by pormake.
# Topology nom, (4,4)-cn, num edge types: 1
# Building blocks:
#     Node 0, Type 0, BuildingBlock: NAWXER_clean_linker_0, # of connection points: 4
#     Node 1, Type 0, BuildingBlock: NAWXER_clean_linker_0, # of connection points: 4
#     Node 2, Type 0, BuildingBlock: NAWXER_clean_linker_0, # of connection points: 4
#     Node 3, Type 0, BuildingBlock: NAWXER_clean_linker_0, # of connection points: 4
#     Node 4, Type 0, BuildingBlock: NAWXER_clean_linker_0, # of connection points: 4
#     Node 5, Type 0, BuildingBlock: NAWXER_clean_linker_0, # of connection points: 4
#     Node 6, Type 1, BuildingBlock: KUFVIS_clean_sbu_0, # of connection points: 4
#     Node 7, Type 1, BuildingBlock: KUFVIS_clean_sbu_0, # of connection points: 4
#     Node 8, Type 1, BuildingBlock: KUFVIS_clean_sbu_0, # of connection points: 4
#     Node 9, Type 1, BuildingBlock: KUFVIS_clean_sbu_0, # of connection points: 4
#     Node 10, Type 1, BuildingBlock: KUFVIS_clean_sbu_0, # of connection points: 4
#     Node 11, Type 1, BuildingBlock: KUFVIS_clean_sbu_0, # of connection points: 4
#     Edge 12, Type (0, 1), BuildingBlock: XIVTED_clean_linker_0, # of connection points: 2
#     Edge 13, Type (0, 1), BuildingBlock: XIVTED_clean_linker_0, # of connection points: 2
#     Edge 14, Type (0, 1), BuildingBlock: XIVTED_clean_linker_0, # of connection points: 2
#     Edge 15, Type (0, 1), BuildingBlock: XIVTED_clean_linker_0, # of connection points: 2
#     Edge 16, Type (0, 1), BuildingBlock: XIVTED_clean_linker_0, # of connection points: 2
#     Edge 17, Type (0, 1), BuildingBlock: XIVTED_clean_linker_0, # of connection points: 2
#     Edge 18, Type (0, 1), BuildingBlock: XIVTED_clean_linker_0, # of connection points: 2
#     Edge 19, Type (0, 1), BuildingBlock: XIVTED_clean_linker_0, # of connection points: 2
#     Edge 20, Type (0, 1), BuildingBlock: XIVTED_clean_linker_0, # of connection points: 2
#     Edge 21, Type (0, 1), BuildingBlock: XIVTED_clean_linker_0, # of connection points: 2
#     Edge 22, Type (0, 1), BuildingBlock: XIVTED_clean_linker_0, # of connection points: 2
#     Edge 23, Type (0, 1), BuildingBlock: XIVTED_clean_linker_0, # of connection points: 2
#     Edge 24, Type (0, 1), BuildingBlock: XIVTED_clean_linker_0, # of connection points: 2
#     Edge 25, Type (0, 1), BuildingBlock: XIVTED_clean_linker_0, # of connection points: 2
#     Edge 26, Type (0, 1), BuildingBlock: XIVTED_clean_linker_0, # of connection points: 2
#     Edge 27, Type (0, 1), BuildingBlock: XIVTED_clean_linker_0, # of connection points: 2
#     Edge 28, Type (0, 1), BuildingBlock: XIVTED_clean_linker_0, # of connection points: 2
#     Edge 29, Type (0, 1), BuildingBlock: XIVTED_clean_linker_0, # of connection points: 2
#     Edge 30, Type (0, 1), BuildingBlock: XIVTED_clean_linker_0, # of connection points: 2
#     Edge 31, Type (0, 1), BuildingBlock: XIVTED_clean_linker_0, # of connection points: 2
#     Edge 32, Type (0, 1), BuildingBlock: XIVTED_clean_linker_0, # of connection points: 2
#     Edge 33, Type (0, 1), BuildingBlock: XIVTED_clean_linker_0, # of connection points: 2
#     Edge 34, Type (0, 1), BuildingBlock: XIVTED_clean_linker_0, # of connection points: 2
#     Edge 35, Type (0, 1), BuildingBlock: XIVTED_clean_linker_0, # of connection points: 2
# Relax obj value: 0.005
# Max RMSD: 0.110
# Mean RMSD: 0.070
data_MOF--net-nom--node1-KUFVIS_clean_sbu_0--node2-NAWXER_clean_linker_0--edge1-XIVTED_clean_linker_0
_symmetry_space_group_name_H-M    P1
_symmetry_Int_Tables_number       1
_symmetry_cell_setting            triclinic
loop_
_symmetry_equiv_pos_as_xyz
'x, y, z'
_cell_length_a     52.094589
_cell_length_b     52.69068
_cell_length_c     58.027073
_cell_angle_alpha  90.656683
_cell_angle_beta   90.754182
_cell_angle_gamma 120.02066
loop_
_atom_site_label
_atom_site_type_symbol
_atom_site_fract_x
_atom_site_fract_y
_atom_site_fract_z
_atom_type_partial_charge
C0 C 0.89938 0.49908 0.3284 0.0
C1 C 0.88556 0.47651 0.34434 0.0
C2 C 0.92861 0.50915 0.32218 0.0
C3 C 0.94462 0.49658 0.33143 0.0
C4 C 0.90141 0.46361 0.35342 0.0
C5 C 0.93083 0.47377 0.34715 0.0
C6 C 0.97635 0.50901 0.326 0.0
C7 C 0.92631 0.46766 0.26004 0.0
C8 C 0.93028 0.48777 0.24277 0.0
C9 C 0.94459 0.47671 0.27978 0.0
C10 C 0.96714 0.50606 0.28266 0.0
C11 C 0.95308 0.51709 0.24566 0.0
C12 C 0.97145 0.52607 0.26533 0.0
C13 C 0.98688 0.5159 0.30333 0.0
C14 C 0.11974 0.57282 0.31394 0.0
C15 C 0.12745 0.59591 0.29858 0.0
C16 C 0.09034 0.55542 0.32075 0.0
C17 C 0.06823 0.56102 0.31248 0.0
C18 C 0.10524 0.60154 0.29055 0.0
C19 C 0.07598 0.5842 0.29733 0.0
C20 C 0.03661 0.54194 0.318 0.0
C21 C 0.08069 0.58394 0.38653 0.0
C22 C 0.08213 0.5637 0.40126 0.0
C23 C 0.06288 0.57427 0.36653 0.0
C24 C 0.046 0.5442 0.36112 0.0
C25 C 0.06533 0.53361 0.39573 0.0
C26 C 0.04709 0.52392 0.37595 0.0
C27 C 0.02621 0.53379 0.34058 0.0
H28 H 0.88771 0.50933 0.32097 0.0
H29 H 0.93893 0.52738 0.31057 0.0
H30 H 0.89144 0.44641 0.36593 0.0
H31 H 0.9429 0.46403 0.35474 0.0
H32 H 0.90938 0.44479 0.25816 0.0
H33 H 0.94134 0.46071 0.29266 0.0
H34 H 0.95653 0.53325 0.23287 0.0
H35 H 0.98878 0.54881 0.26718 0.0
H36 H 0.13626 0.5677 0.32021 0.0
H37 H 0.08481 0.53717 0.33195 0.0
H38 H 0.11047 0.61945 0.27904 0.0
H39 H 0.05931 0.58893 0.29069 0.0
H40 H 0.09354 0.60725 0.3904 0.0
H41 H 0.06199 0.59021 0.35542 0.0
H42 H 0.06593 0.5176 0.40693 0.0
H43 H 0.03399 0.50062 0.37212 0.0
N44 N 0.99645 0.5178 0.34378 0.0
N45 N 0.01652 0.53245 0.30026 0.0
C46 C 0.42143 0.90728 0.49881 0.0
C47 C 0.43179 0.89723 0.51705 0.0
C48 C 0.43781 0.93629 0.49176 0.0
C49 C 0.46532 0.95574 0.50239 0.0
C50 C 0.45905 0.91678 0.52795 0.0
C51 C 0.47563 0.94574 0.52068 0.0
C52 C 0.48214 0.98705 0.49594 0.0
C53 C 0.47833 0.93759 0.4307 0.0
C54 C 0.46165 0.9404 0.41263 0.0
C55 C 0.48597 0.9555 0.4505 0.0
C56 C 0.47706 0.97652 0.45263 0.0
C57 C 0.45276 0.96149 0.41494 0.0
C58 C 0.46062 0.97951 0.43462 0.0
C59 C 0.48603 0.99656 0.47294 0.0
C60 C 0.56053 0.12925 0.48282 0.0
C61 C 0.54705 0.13621 0.46463 0.0
C62 C 0.54883 0.1002 0.48979 0.0
C63 C 0.52272 0.07758 0.47935 0.0
C64 C 0.52177 0.11318 0.45353 0.0
C65 C 0.5097 0.08441 0.4609 0.0
C66 C 0.50928 0.04647 0.48627 0.0
C67 C 0.51577 0.0969 0.5517 0.0
C68 C 0.5312 0.09273 0.56994 0.0
C69 C 0.50726 0.07876 0.53199 0.0
C70 C 0.51499 0.05683 0.52986 0.0
C71 C 0.53807 0.07022 0.56811 0.0
C72 C 0.53008 0.05248 0.54824 0.0
C73 C 0.50595 0.03698 0.50936 0.0
H74 H 0.40019 0.89291 0.49043 0.0
H75 H 0.42853 0.94363 0.47836 0.0
H76 H 0.46761 0.90963 0.54202 0.0
H77 H 0.49653 0.96039 0.52942 0.0
H78 H 0.48602 0.92198 0.42937 0.0
H79 H 0.49928 0.95328 0.46396 0.0
H80 H 0.43948 0.96397 0.40161 0.0
H81 H 0.45361 0.99567 0.43589 0.0
H82 H 0.57996 0.14618 0.49192 0.0
H83 H 0.56023 0.09554 0.50337 0.0
H84 H 0.51123 0.11718 0.43893 0.0
H85 H 0.48995 0.0674 0.45212 0.0
H86 H 0.50982 0.11384 0.55289 0.0
H87 H 0.49455 0.08181 0.5185 0.0
H88 H 0.55 0.06661 0.58193 0.0
H89 H 0.53587 0.03542 0.54718 0.0
N90 N 0.4926 0.00769 0.51317 0.0
N91 N 0.49914 0.02575 0.4691 0.0
C92 C 0.55677 0.47959 0.59921 0.0
C93 C 0.53838 0.46912 0.57928 0.0
C94 C 0.54886 0.49055 0.61818 0.0
C95 C 0.5216 0.48997 0.61834 0.0
C96 C 0.51152 0.46948 0.57922 0.0
C97 C 0.50316 0.4795 0.59853 0.0
C98 C 0.51272 0.50175 0.63826 0.0
C99 C 0.52529 0.43155 0.67118 0.0
C100 C 0.55108 0.44276 0.68509 0.0
C101 C 0.51541 0.4501 0.66307 0.0
C102 C 0.531 0.4801 0.66892 0.0
C103 C 0.56685 0.47284 0.69076 0.0
C104 C 0.55662 0.49131 0.683 0.0
C105 C 0.51941 0.49924 0.66155 0.0
C106 C 0.44541 0.5331 0.71626 0.0
C107 C 0.46595 0.55292 0.73271 0.0
C108 C 0.45511 0.52462 0.69687 0.0
C109 C 0.48552 0.53598 0.69346 0.0
C110 C 0.4964 0.56431 0.7292 0.0
C111 C 0.50608 0.55571 0.70983 0.0
C112 C 0.49589 0.52587 0.6737 0.0
C113 C 0.45243 0.57506 0.64694 0.0
C114 C 0.42744 0.55741 0.63276 0.0
C115 C 0.47283 0.56595 0.65232 0.0
C116 C 0.46839 0.53893 0.64378 0.0
C117 C 0.42398 0.53115 0.62335 0.0
C118 C 0.44424 0.52206 0.62876 0.0
C119 C 0.48801 0.52731 0.65056 0.0
H120 H 0.57746 0.47948 0.60032 0.0
H121 H 0.56447 0.49985 0.63254 0.0
H122 H 0.497 0.46253 0.56414 0.0
H123 H 0.48223 0.47923 0.59785 0.0
H124 H 0.51283 0.40844 0.66654 0.0
H125 H 0.49531 0.44094 0.65253 0.0
H126 H 0.58668 0.48189 0.7016 0.0
H127 H 0.56873 0.51436 0.6879 0.0
H128 H 0.42182 0.52407 0.71842 0.0
H129 H 0.43882 0.50885 0.68471 0.0
H130 H 0.51273 0.57927 0.74173 0.0
H131 H 0.52962 0.56438 0.70765 0.0
H132 H 0.45578 0.59546 0.65438 0.0
H133 H 0.49176 0.57978 0.66343 0.0
H134 H 0.4054 0.5174 0.6119 0.0
H135 H 0.44052 0.50133 0.62171 0.0
N136 N 0.49694 0.51539 0.63381 0.0
N137 N 0.5112 0.51183 0.67829 0.0
C138 C 0.89544 0.4402 0.81774 0.0
C139 C 0.88206 0.44767 0.8 0.0
C140 C 0.92518 0.4588 0.82387 0.0
C141 C 0.9419 0.48587 0.81304 0.0
C142 C 0.89883 0.47432 0.7887 0.0
C143 C 0.92849 0.49332 0.79524 0.0
C144 C 0.97393 0.50501 0.81878 0.0
C145 C 0.92502 0.49542 0.88418 0.0
C146 C 0.93156 0.48134 0.90188 0.0
C147 C 0.94278 0.50536 0.86474 0.0
C148 C 0.96711 0.50096 0.86244 0.0
C149 C 0.95666 0.47812 0.89989 0.0
C150 C 0.9742 0.48781 0.88043 0.0
C151 C 0.98562 0.51007 0.84161 0.0
C152 C 0.11902 0.5757 0.82855 0.0
C153 C 0.12561 0.55816 0.84278 0.0
C154 C 0.0895 0.56772 0.82357 0.0
C155 C 0.06617 0.54197 0.83261 0.0
C156 C 0.10215 0.53303 0.8524 0.0
C157 C 0.07283 0.52509 0.8474 0.0
C158 C 0.03465 0.53187 0.82706 0.0
C159 C 0.07738 0.53147 0.7602 0.0
C160 C 0.07776 0.55186 0.74456 0.0
C161 C 0.05958 0.52382 0.77959 0.0
C162 C 0.04199 0.53657 0.78383 0.0
C163 C 0.05986 0.56436 0.74875 0.0
C164 C 0.04196 0.55659 0.76813 0.0
C165 C 0.02317 0.52861 0.80435 0.0
H166 H 0.88318 0.41941 0.82628 0.0
H167 H 0.93522 0.45158 0.83675 0.0
H168 H 0.88901 0.48038 0.77479 0.0
H169 H 0.94103 0.51374 0.78626 0.0
H170 H 0.90586 0.49826 0.88511 0.0
H171 H 0.9373 0.5162 0.85142 0.0
H172 H 0.96286 0.46811 0.91343 0.0
H173 H 0.99308 0.48451 0.87927 0.0
H174 H 0.13663 0.59524 0.82094 0.0
H175 H 0.08494 0.58153 0.81257 0.0
H176 H 0.10642 0.51944 0.86389 0.0
H177 H 0.05525 0.50531 0.8548 0.0
H178 H 0.09103 0.52158 0.75756 0.0
H179 H 0.05955 0.50792 0.79128 0.0
H180 H 0.05932 0.57978 0.73685 0.0
H181 H 0.02827 0.56641 0.77099 0.0
N182 N 0.99324 0.51516 0.80107 0.0
N183 N 0.01543 0.52277 0.84473 0.0
C184 C 0.46758 0.90479 0.98163 0.0
C185 C 0.44533 0.89268 0.96436 0.0
C186 C 0.48019 0.93421 0.98825 0.0
C187 C 0.4702 0.95198 0.97826 0.0
C188 C 0.43571 0.9105 0.95395 0.0
C189 C 0.44804 0.93992 0.96089 0.0
C190 C 0.48496 0.98371 0.98419 0.0
C191 C 0.44611 0.93808 0.05084 0.0
C192 C 0.46762 0.94159 0.06751 0.0
C193 C 0.4543 0.95523 0.03109 0.0
C194 C 0.48413 0.97625 0.02763 0.0
C195 C 0.49748 0.96268 0.06384 0.0
C196 C 0.50555 0.97998 0.04428 0.0
C197 C 0.49334 0.99491 0.00703 0.0
C198 C 0.56027 0.12663 0.99441 0.0
C199 C 0.58539 0.13351 0.00822 0.0
C200 C 0.539 0.09739 0.98946 0.0
C201 C 0.54266 0.07454 0.99805 0.0
C202 C 0.58845 0.11051 0.01732 0.0
C203 C 0.56729 0.08138 0.01232 0.0
C204 C 0.521 0.04339 0.99269 0.0
C205 C 0.56272 0.08012 0.92385 0.0
C206 C 0.54447 0.08799 0.91131 0.0
C207 C 0.55197 0.06213 0.94298 0.0
C208 C 0.52263 0.05117 0.94975 0.0
C209 C 0.51497 0.07684 0.91833 0.0
C210 C 0.50408 0.05828 0.93716 0.0
C211 C 0.51148 0.03238 0.97004 0.0
H212 H 0.47593 0.89173 0.98951 0.0
H213 H 0.49836 0.94317 0.00074 0.0
H214 H 0.41866 0.90167 0.94052 0.0
H215 H 0.4404 0.95333 0.95257 0.0
H216 H 0.42288 0.92244 0.0532 0.0
H217 H 0.43729 0.95231 0.01866 0.0
H218 H 0.51481 0.96566 0.07594 0.0
H219 H 0.52871 0.99599 0.04195 0.0
H220 H 0.55723 0.14382 0.98717 0.0
H221 H 0.51968 0.09268 0.97903 0.0
H222 H 0.60716 0.115 0.02847 0.0
H223 H 0.57041 0.06414 0.01939 0.0
H224 H 0.58527 0.08751 0.91881 0.0
H225 H 0.56652 0.05659 0.95244 0.0
H226 H 0.5003 0.08273 0.90956 0.0
H227 H 0.48137 0.05005 0.94224 0.0
N228 N 0.49401 0.00297 0.96659 0.0
N229 N 0.51144 0.02425 0.01031 0.0
C230 C 0.49252 0.605 0.16845 0.0
C231 C 0.46405 0.59551 0.17708 0.0
C232 C 0.50163 0.58493 0.163 0.0
C233 C 0.48276 0.55493 0.16639 0.0
C234 C 0.44521 0.56526 0.18057 0.0
C235 C 0.45465 0.54519 0.17551 0.0
C236 C 0.49293 0.53424 0.1602 0.0
C237 C 0.45488 0.54868 0.09495 0.0
C238 C 0.47617 0.56457 0.0783 0.0
C239 C 0.46237 0.53798 0.11429 0.0
C240 C 0.49132 0.543 0.11742 0.0
C241 C 0.50517 0.56959 0.08157 0.0
C242 C 0.51258 0.55873 0.10084 0.0
C243 C 0.49927 0.53072 0.13727 0.0
C244 C 0.55664 0.45486 0.14615 0.0
C245 C 0.57778 0.46875 0.12892 0.0
C246 C 0.53837 0.46592 0.15301 0.0
C247 C 0.54155 0.49167 0.14334 0.0
C248 C 0.57977 0.49367 0.11858 0.0
C249 C 0.56215 0.50506 0.12582 0.0
C250 C 0.52316 0.5047 0.1502 0.0
C251 C 0.56637 0.50001 0.21692 0.0
C252 C 0.54586 0.48085 0.23282 0.0
C253 C 0.55672 0.50849 0.19742 0.0
C254 C 0.52636 0.49783 0.19335 0.0
C255 C 0.51546 0.47028 0.2287 0.0
C256 C 0.50585 0.47891 0.20924 0.0
C257 C 0.51602 0.5075 0.17323 0.0
H258 H 0.5081 0.62805 0.16615 0.0
H259 H 0.52359 0.59286 0.15624 0.0
H260 H 0.42303 0.55698 0.18692 0.0
H261 H 0.43981 0.52204 0.17821 0.0
H262 H 0.43219 0.54386 0.09278 0.0
H263 H 0.44535 0.52518 0.12651 0.0
H264 H 0.52225 0.58208 0.06931 0.0
H265 H 0.53505 0.5628 0.10287 0.0
H266 H 0.55434 0.43563 0.15456 0.0
H267 H 0.5218 0.45425 0.16581 0.0
H268 H 0.59488 0.50447 0.10469 0.0
H269 H 0.56481 0.52463 0.11769 0.0
H270 H 0.58991 0.50843 0.21954 0.0
H271 H 0.57299 0.52356 0.1856 0.0
H272 H 0.49916 0.45586 0.24079 0.0
H273 H 0.48236 0.47076 0.20656 0.0
N274 N 0.50126 0.5223 0.17734 0.0
N275 N 0.51428 0.51633 0.13321 0.0
Mn276 Mn 0.62087 0.38835 0.41004 0.0
Mn277 Mn 0.65491 0.46092 0.42254 0.0
C278 C 0.60147 0.40598 0.43744 0.0
C279 C 0.61464 0.34195 0.41616 0.0
C280 C 0.61782 0.43334 0.37896 0.0
O281 O 0.66213 0.40367 0.39693 0.0
O282 O 0.68347 0.45104 0.40858 0.0
C283 C 0.69711 0.46491 0.45901 0.0
N284 N 0.67465 0.46934 0.45195 0.0
C285 C 0.67529 0.49186 0.48842 0.0
C286 C 0.69853 0.48767 0.49606 0.0
C287 C 0.70941 0.47405 0.48131 0.0
C288 C 0.66394 0.48234 0.46602 0.0
H289 H 0.70556 0.45451 0.44769 0.0
C290 C 0.68449 0.42955 0.39893 0.0
O291 O 0.60648 0.3483 0.39686 0.0
O292 O 0.62728 0.3628 0.43162 0.0
N293 N 0.6298 0.47339 0.43634 0.0
C294 C 0.606 0.47393 0.42689 0.0
C295 C 0.59169 0.48577 0.43976 0.0
C296 C 0.6022 0.49722 0.46208 0.0
C297 C 0.62691 0.49667 0.47134 0.0
C298 C 0.64025 0.48459 0.45771 0.0
H299 H 0.5979 0.46526 0.40971 0.0
O300 O 0.58476 0.38076 0.42727 0.0
O301 O 0.62901 0.4201 0.43132 0.0
O302 O 0.60965 0.40678 0.38358 0.0
O303 O 0.63506 0.45494 0.39217 0.0
C304 C 0.63851 0.50717 0.49371 0.0
C305 C 0.66262 0.50469 0.50227 0.0
H306 H 0.70803 0.49462 0.51327 0.0
H307 H 0.72726 0.47064 0.48712 0.0
H308 H 0.57261 0.48608 0.4325 0.0
H309 H 0.59101 0.50619 0.47201 0.0
H310 H 0.6287 0.51671 0.50463 0.0
H311 H 0.67098 0.51235 0.51966 0.0
Mn312 Mn 0.24913 0.64578 0.57098 0.0
Mn313 Mn 0.20973 0.57288 0.55981 0.0
C314 C 0.21113 0.62719 0.5436 0.0
C315 C 0.2899 0.69171 0.5637 0.0
C316 C 0.20113 0.60163 0.60238 0.0
O317 O 0.27531 0.6311 0.58486 0.0
O318 O 0.24847 0.58324 0.57462 0.0
C319 C 0.24789 0.56856 0.52445 0.0
N320 N 0.22089 0.56404 0.53089 0.0
C321 C 0.19897 0.5419 0.494 0.0
C322 C 0.2265 0.54615 0.48703 0.0
C323 C 0.25107 0.5596 0.5023 0.0
C324 C 0.19711 0.55114 0.51632 0.0
H325 H 0.26683 0.57895 0.53613 0.0
C326 C 0.27143 0.60518 0.58393 0.0
O327 O 0.27622 0.68645 0.58315 0.0
O328 O 0.28036 0.67013 0.54889 0.0
N329 N 0.17185 0.55986 0.54529 0.0
C330 C 0.14737 0.55906 0.55418 0.0
C331 C 0.12111 0.54719 0.54077 0.0
C332 C 0.12022 0.53606 0.51848 0.0
C333 C 0.14559 0.53684 0.5098 0.0
C334 C 0.17108 0.54878 0.524 0.0
H335 H 0.14794 0.56758 0.5713 0.0
O336 O 0.22014 0.65272 0.55318 0.0
O337 O 0.22463 0.61337 0.55032 0.0
O338 O 0.22001 0.62809 0.59757 0.0
O339 O 0.19616 0.57968 0.58958 0.0
C340 C 0.14679 0.52684 0.48743 0.0
C341 C 0.17347 0.52941 0.47953 0.0
H342 H 0.2291 0.53943 0.46991 0.0
H343 H 0.27242 0.56309 0.497 0.0
H344 H 0.10163 0.54668 0.54759 0.0
H345 H 0.1 0.52717 0.50811 0.0
H346 H 0.12746 0.51759 0.47603 0.0
H347 H 0.17424 0.52207 0.46217 0.0
Mn348 Mn 0.61763 0.25792 0.73936 0.0
Mn349 Mn 0.65404 0.22159 0.72795 0.0
C350 C 0.59823 0.22012 0.71227 0.0
C351 C 0.611 0.29776 0.73276 0.0
C352 C 0.61876 0.21328 0.77133 0.0
O353 O 0.65898 0.28434 0.75339 0.0
O354 O 0.68289 0.26178 0.73959 0.0
C355 C 0.69029 0.25633 0.68902 0.0
N356 N 0.66981 0.23008 0.69765 0.0
C357 C 0.66521 0.20535 0.66139 0.0
C358 C 0.68652 0.23206 0.65222 0.0
C359 C 0.69905 0.25767 0.66608 0.0
C360 C 0.65749 0.20534 0.68442 0.0
H361 H 0.69973 0.27611 0.69954 0.0
C362 C 0.6826 0.28329 0.74991 0.0
O363 O 0.60301 0.28359 0.75192 0.0
O364 O 0.62328 0.28911 0.71766 0.0
N365 N 0.62858 0.18257 0.71617 0.0
C366 C 0.60727 0.15885 0.72727 0.0
C367 C 0.59203 0.13161 0.71559 0.0
C368 C 0.59893 0.12899 0.69269 0.0
C369 C 0.62112 0.15362 0.68169 0.0
C370 C 0.63578 0.18014 0.69427 0.0
H371 H 0.60185 0.16067 0.74487 0.0
O372 O 0.58135 0.22886 0.72148 0.0
O373 O 0.62592 0.2342 0.71886 0.0
O374 O 0.60755 0.22893 0.76538 0.0
O375 O 0.63785 0.21071 0.7594 0.0
C376 C 0.62889 0.15302 0.65861 0.0
C377 C 0.65087 0.17888 0.64845 0.0
H378 H 0.6932 0.23322 0.63448 0.0
H379 H 0.71532 0.27841 0.65906 0.0
H380 H 0.57492 0.11271 0.7242 0.0
H381 H 0.58691 0.10801 0.68367 0.0
H382 H 0.6178 0.13288 0.64841 0.0
H383 H 0.65635 0.17823 0.63059 0.0
Mn384 Mn 0.39128 0.6444 0.91015 0.0
Mn385 Mn 0.35744 0.57209 0.92092 0.0
C386 C 0.41126 0.62737 0.93745 0.0
C387 C 0.39554 0.68993 0.91727 0.0
C388 C 0.3941 0.59921 0.87848 0.0
O389 O 0.35018 0.62861 0.89578 0.0
O390 O 0.32836 0.58147 0.90651 0.0
C391 C 0.3165 0.56961 0.95686 0.0
N392 N 0.33869 0.56483 0.95009 0.0
C393 C 0.34062 0.54568 0.98712 0.0
C394 C 0.31765 0.55021 0.99444 0.0
C395 C 0.30559 0.56229 0.97925 0.0
C396 C 0.35052 0.55332 0.96459 0.0
H397 H 0.30726 0.579 0.94526 0.0
C398 C 0.32767 0.60293 0.8969 0.0
O399 O 0.40428 0.68422 0.89802 0.0
O400 O 0.38414 0.66914 0.93213 0.0
N401 N 0.3829 0.55996 0.93499 0.0
C402 C 0.40574 0.55811 0.92557 0.0
C403 C 0.42065 0.54702 0.93869 0.0
C404 C 0.41179 0.53776 0.96127 0.0
C405 C 0.38795 0.5395 0.97048 0.0
C406 C 0.37378 0.55052 0.95653 0.0
H407 H 0.41264 0.56516 0.90822 0.0
O408 O 0.42769 0.65272 0.92829 0.0
O409 O 0.3837 0.61302 0.93051 0.0
O410 O 0.40251 0.62588 0.88376 0.0
O411 O 0.37675 0.57763 0.89087 0.0
C412 C 0.37803 0.53122 0.9931 0.0
C413 C 0.35443 0.53437 0.00143 0.0
H414 H 0.30926 0.54472 0.01173 0.0
H415 H 0.28797 0.566 0.98481 0.0
H416 H 0.43901 0.54572 0.93145 0.0
H417 H 0.42354 0.52952 0.97143 0.0
H418 H 0.38869 0.52281 0.00435 0.0
H419 H 0.34727 0.52831 0.01896 0.0
Mn420 Mn 0.76066 0.39817 0.07437 0.0
Mn421 Mn 0.8008 0.36541 0.08583 0.0
C422 C 0.79793 0.41798 0.10214 0.0
C423 C 0.71929 0.40295 0.08059 0.0
C424 C 0.8096 0.40212 0.04358 0.0
O425 O 0.73568 0.35756 0.05973 0.0
O426 O 0.76239 0.33667 0.07079 0.0
C427 C 0.76256 0.32412 0.12108 0.0
N428 N 0.7895 0.34636 0.11479 0.0
C429 C 0.81089 0.34787 0.15215 0.0
C430 C 0.78341 0.32484 0.15899 0.0
C431 C 0.75913 0.31297 0.1434 0.0
C432 C 0.81298 0.35802 0.12967 0.0
H433 H 0.74382 0.31501 0.10917 0.0
C434 C 0.7397 0.33561 0.06092 0.0
O435 O 0.73392 0.41153 0.06161 0.0
O436 O 0.72819 0.39087 0.09565 0.0
N437 N 0.83846 0.39064 0.10055 0.0
C438 C 0.86312 0.41347 0.09153 0.0
C439 C 0.88925 0.42816 0.10507 0.0
C440 C 0.88983 0.41908 0.12764 0.0
C441 C 0.86431 0.39524 0.13642 0.0
C442 C 0.83898 0.38131 0.12206 0.0
H443 H 0.86283 0.42054 0.07418 0.0
O444 O 0.78848 0.43408 0.09274 0.0
O445 O 0.78505 0.39073 0.09522 0.0
O446 O 0.79069 0.40985 0.04855 0.0
O447 O 0.81446 0.38503 0.05601 0.0
C448 C 0.86285 0.38509 0.15899 0.0
C449 C 0.83614 0.36147 0.16687 0.0
H450 H 0.78065 0.31626 0.17621 0.0
H451 H 0.73782 0.2953 0.14859 0.0
H452 H 0.90886 0.44651 0.09816 0.0
H453 H 0.90992 0.43066 0.13812 0.0
H454 H 0.88202 0.39556 0.17054 0.0
H455 H 0.83518 0.35411 0.18435 0.0
Mn456 Mn 0.3816 0.77559 0.24291 0.0
Mn457 Mn 0.45569 0.81319 0.25244 0.0
C458 C 0.40223 0.81415 0.26923 0.0
C459 C 0.33494 0.73649 0.25122 0.0
C460 C 0.42596 0.82215 0.21055 0.0
O461 O 0.39461 0.74817 0.22957 0.0
O462 O 0.44382 0.77469 0.23708 0.0
C463 C 0.45903 0.774 0.28702 0.0
N464 N 0.46441 0.80112 0.28102 0.0
C465 C 0.48618 0.82134 0.31837 0.0
C466 C 0.48108 0.79367 0.32489 0.0
C467 C 0.4674 0.7699 0.30915 0.0
C468 C 0.47751 0.82413 0.29604 0.0
H469 H 0.44836 0.75563 0.27504 0.0
C470 C 0.42067 0.75173 0.2291 0.0
O471 O 0.34006 0.74945 0.23151 0.0
O472 O 0.35703 0.74593 0.26581 0.0
N473 N 0.47036 0.85066 0.26738 0.0
C474 C 0.47266 0.87563 0.25872 0.0
C475 C 0.48546 0.90136 0.27243 0.0
C476 C 0.49586 0.90118 0.29485 0.0
C477 C 0.49354 0.87531 0.3033 0.0
C478 C 0.48091 0.85044 0.28874 0.0
H479 H 0.46453 0.87586 0.24157 0.0
O480 O 0.37627 0.80564 0.26004 0.0
O481 O 0.4153 0.79979 0.26277 0.0
O482 O 0.39939 0.80314 0.21555 0.0
O483 O 0.44852 0.82751 0.22313 0.0
C484 C 0.50279 0.8731 0.32575 0.0
C485 C 0.49907 0.84612 0.33329 0.0
H486 H 0.48736 0.79038 0.34199 0.0
H487 H 0.46325 0.74845 0.3141 0.0
H488 H 0.48712 0.92122 0.2658 0.0
H489 H 0.50538 0.92097 0.30548 0.0
H490 H 0.51247 0.89192 0.33744 0.0
H491 H 0.50595 0.8446 0.35067 0.0
H492 H 0.14606 0.61588 0.25512 0.0
H493 H 0.31801 0.70718 0.29172 0.0
H494 H 0.17937 0.61715 0.32389 0.0
H495 H 0.28371 0.71242 0.22492 0.0
H496 H 0.26794 0.67073 0.30272 0.0
H497 H 0.19676 0.64797 0.24283 0.0
C498 C 0.16404 0.62297 0.26767 0.0
C499 C 0.15838 0.61403 0.29066 0.0
C500 C 0.27136 0.67973 0.28562 0.0
C501 C 0.21664 0.65056 0.27657 0.0
C502 C 0.29996 0.70052 0.27929 0.0
C503 C 0.30503 0.71298 0.25739 0.0
C504 C 0.24757 0.67128 0.26993 0.0
C505 C 0.28081 0.70347 0.242 0.0
C506 C 0.19301 0.64117 0.26059 0.0
C507 C 0.18266 0.62334 0.30599 0.0
N508 N 0.2531 0.68327 0.2486 0.0
N509 N 0.21071 0.64122 0.2987 0.0
H510 H 0.60526 0.18205 0.46549 0.0
H511 H 0.57219 0.29122 0.39536 0.0
H512 H 0.51622 0.16167 0.44675 0.0
H513 H 0.6405 0.32391 0.44857 0.0
H514 H 0.557 0.24103 0.4066 0.0
H515 H 0.6236 0.23235 0.45295 0.0
C516 C 0.58947 0.18795 0.45889 0.0
C517 C 0.55899 0.16715 0.45717 0.0
C518 C 0.57547 0.25924 0.41566 0.0
C519 C 0.58025 0.2245 0.442 0.0
C520 C 0.58428 0.28783 0.40917 0.0
C521 C 0.60754 0.31171 0.42114 0.0
C522 C 0.59043 0.2545 0.43389 0.0
C523 C 0.62233 0.30605 0.43901 0.0
C524 C 0.60008 0.21666 0.45158 0.0
C525 C 0.53992 0.17636 0.44792 0.0
N526 N 0.61358 0.27797 0.44483 0.0
N527 N 0.55089 0.20419 0.44054 0.0
H528 H 0.36737 0.52159 0.63215 0.0
H529 H 0.32915 0.64556 0.59656 0.0
H530 H 0.43492 0.61186 0.62326 0.0
H531 H 0.26684 0.55248 0.59339 0.0
H532 H 0.36752 0.63517 0.61066 0.0
H533 H 0.3296 0.53416 0.62238 0.0
C534 C 0.37429 0.54409 0.62804 0.0
C535 C 0.40443 0.56561 0.62816 0.0
C536 C 0.34539 0.6171 0.60694 0.0
C537 C 0.36106 0.5803 0.61718 0.0
C538 C 0.32346 0.623 0.59897 0.0
C539 C 0.29473 0.59986 0.59364 0.0
C540 C 0.33842 0.5879 0.60978 0.0
C541 C 0.28867 0.57106 0.59706 0.0
C542 C 0.35266 0.55129 0.62256 0.0
C543 C 0.41195 0.59458 0.62336 0.0
N544 N 0.31029 0.56595 0.60486 0.0
N545 N 0.3904 0.60107 0.61791 0.0
H546 H 0.83249 0.42138 0.82624 0.0
H547 H 0.7369 0.2999 0.73226 0.0
H548 H 0.86216 0.4255 0.75666 0.0
H549 H 0.69421 0.32466 0.78398 0.0
H550 H 0.78449 0.34217 0.7438 0.0
H551 H 0.78262 0.38263 0.81376 0.0
C552 C 0.82835 0.41427 0.80831 0.0
C553 C 0.85129 0.42657 0.79239 0.0
C554 C 0.76468 0.3384 0.75255 0.0
C555 C 0.7949 0.38214 0.77823 0.0
C556 C 0.73751 0.31417 0.7461 0.0
C557 C 0.71149 0.30871 0.75719 0.0
C558 C 0.76605 0.35701 0.77057 0.0
C559 C 0.71371 0.32811 0.77494 0.0
C560 C 0.8 0.3923 0.80122 0.0
C561 C 0.84495 0.41668 0.76938 0.0
N562 N 0.74062 0.35129 0.78128 0.0
N563 N 0.81743 0.39473 0.76303 0.0
H564 H 0.42546 0.84473 0.99136 0.0
H565 H 0.41607 0.73767 0.8893 0.0
H566 H 0.4383 0.87061 0.9203 0.0
H567 H 0.38356 0.70854 0.95758 0.0
H568 H 0.42457 0.78653 0.89987 0.0
H569 H 0.41012 0.79456 0.97903 0.0
C570 C 0.42484 0.83973 0.97312 0.0
C571 C 0.43324 0.86177 0.95681 0.0
C572 C 0.41535 0.76934 0.91244 0.0
C573 C 0.41596 0.80451 0.94254 0.0
C574 C 0.41056 0.7415 0.90644 0.0
C575 C 0.39926 0.71907 0.92263 0.0
C576 C 0.40904 0.77478 0.93483 0.0
C577 C 0.39242 0.72519 0.94457 0.0
C578 C 0.41601 0.8111 0.96607 0.0
C579 C 0.43182 0.85414 0.93339 0.0
N580 N 0.39763 0.75249 0.95007 0.0
N581 N 0.42366 0.82616 0.92694 0.0
H582 H 0.6353 0.50074 0.11455 0.0
H583 H 0.67488 0.3756 0.11156 0.0
H584 H 0.56673 0.41156 0.12695 0.0
H585 H 0.70957 0.44461 0.06182 0.0
H586 H 0.63841 0.38989 0.1227 0.0
H587 H 0.66703 0.48248 0.10075 0.0
C588 C 0.62665 0.47729 0.1142 0.0
C589 C 0.59786 0.4577 0.12164 0.0
C590 C 0.65384 0.4016 0.10918 0.0
C591 C 0.63491 0.43687 0.1066 0.0
C592 C 0.67462 0.39355 0.10286 0.0
C593 C 0.69522 0.409 0.08577 0.0
C594 C 0.65435 0.42574 0.09878 0.0
C595 C 0.69399 0.43207 0.07501 0.0
C596 C 0.64496 0.46696 0.10642 0.0
C597 C 0.58872 0.42762 0.12161 0.0
N598 N 0.6742 0.44005 0.08195 0.0
N599 N 0.60727 0.41812 0.11433 0.0
H600 H 0.41888 0.87796 0.56139 0.0
H601 H 0.3185 0.7092 0.52292 0.0
H602 H 0.40347 0.84692 0.49067 0.0
H603 H 0.31608 0.74173 0.59099 0.0
H604 H 0.35535 0.75878 0.51221 0.0
H605 H 0.38685 0.82745 0.57379 0.0
C606 C 0.40899 0.86047 0.5485 0.0
C607 C 0.41373 0.86663 0.52495 0.0
C608 C 0.34688 0.75509 0.52953 0.0
C609 C 0.37708 0.80893 0.53899 0.0
C610 C 0.32589 0.72674 0.5357 0.0
C611 C 0.31404 0.72132 0.55787 0.0
C612 C 0.35629 0.77829 0.54563 0.0
C613 C 0.32453 0.74495 0.57369 0.0
C614 C 0.39058 0.83171 0.55557 0.0
C615 C 0.40012 0.84319 0.50897 0.0
N616 N 0.34502 0.77245 0.56725 0.0
N617 N 0.38245 0.81541 0.51627 0.0
H618 H 0.51888 0.39229 0.70858 0.0
H619 H 0.6368 0.34 0.70038 0.0
H620 H 0.60586 0.44812 0.68162 0.0
H621 H 0.57122 0.30965 0.75341 0.0
H622 H 0.62379 0.37727 0.6903 0.0
H623 H 0.53525 0.35867 0.72215 0.0
C624 C 0.54144 0.39741 0.70556 0.0
C625 C 0.56109 0.42288 0.69397 0.0
C626 C 0.61247 0.36261 0.70428 0.0
C627 C 0.57983 0.38458 0.70918 0.0
C628 C 0.6198 0.34131 0.70999 0.0
C629 C 0.60501 0.32172 0.72773 0.0
C630 C 0.58976 0.36385 0.71605 0.0
C631 C 0.58321 0.3244 0.73966 0.0
C632 C 0.5508 0.37838 0.7134 0.0
C633 C 0.59014 0.42871 0.69059 0.0
N634 N 0.57596 0.34485 0.73341 0.0
N635 N 0.59858 0.40951 0.69794 0.0
H636 H 0.14762 0.5208 0.84431 0.0
H637 H 0.31252 0.6433 0.88225 0.0
H638 H 0.17444 0.61236 0.85231 0.0
H639 H 0.27744 0.55011 0.88854 0.0
H640 H 0.26433 0.63332 0.8667 0.0
H641 H 0.19752 0.53226 0.85564 0.0
C642 C 0.16402 0.54335 0.84849 0.0
C643 C 0.15668 0.56559 0.84771 0.0
C644 C 0.26728 0.61511 0.87145 0.0
C645 C 0.21412 0.57894 0.8605 0.0
C646 C 0.29479 0.62075 0.88027 0.0
C647 C 0.29905 0.5975 0.88683 0.0
C648 C 0.244 0.58603 0.86897 0.0
C649 C 0.27521 0.56876 0.88389 0.0
C650 C 0.19256 0.5499 0.85489 0.0
C651 C 0.17912 0.59454 0.85267 0.0
N652 N 0.24878 0.56388 0.87519 0.0
N653 N 0.20683 0.60038 0.85901 0.0
H654 H 0.64556 0.15698 0.00955 0.0
H655 H 0.68263 0.31878 0.04671 0.0
H656 H 0.57791 0.18058 0.01825 0.0
H657 H 0.74471 0.2873 0.05202 0.0
H658 H 0.64495 0.27041 0.03162 0.0
H659 H 0.68318 0.20693 0.02039 0.0
C660 C 0.63859 0.17266 0.0138 0.0
C661 C 0.60846 0.16443 0.01329 0.0
C662 C 0.66688 0.27422 0.03604 0.0
C663 C 0.65159 0.22193 0.02546 0.0
C664 C 0.68842 0.30182 0.04458 0.0
C665 C 0.71687 0.3071 0.05077 0.0
C666 C 0.67396 0.25189 0.03348 0.0
C667 C 0.72306 0.28425 0.04767 0.0
C668 C 0.66012 0.20124 0.01989 0.0
C669 C 0.60087 0.18596 0.01835 0.0
N670 N 0.70181 0.25772 0.03927 0.0
N671 N 0.62229 0.21372 0.02436 0.0
H672 H 0.47874 0.64695 0.15508 0.0
H673 H 0.38171 0.69272 0.23023 0.0
H674 H 0.42727 0.59399 0.21163 0.0
H675 H 0.46828 0.75626 0.20641 0.0
H676 H 0.38992 0.65322 0.21615 0.0
H677 H 0.46675 0.6844 0.16658 0.0
C678 C 0.46502 0.6431 0.16995 0.0
C679 C 0.45454 0.61729 0.18264 0.0
C680 C 0.40696 0.67584 0.21394 0.0
C681 C 0.43984 0.65985 0.19522 0.0
C682 C 0.40227 0.69833 0.22181 0.0
C683 C 0.42442 0.72775 0.21951 0.0
C684 C 0.43362 0.68292 0.20319 0.0
C685 C 0.45074 0.73385 0.20864 0.0
C686 C 0.45804 0.66447 0.17635 0.0
C687 C 0.4358 0.6133 0.20117 0.0
N688 N 0.45455 0.71161 0.20074 0.0
N689 N 0.42905 0.63437 0.20691 0.0
H690 H 0.83823 0.42105 0.35108 0.0
H691 H 0.73444 0.48283 0.39479 0.0
H692 H 0.86438 0.51266 0.35614 0.0
H693 H 0.70119 0.39032 0.38304 0.0
H694 H 0.78258 0.49318 0.38163 0.0
H695 H 0.78849 0.40839 0.36399 0.0
C696 C 0.83353 0.43846 0.35495 0.0
C697 C 0.85539 0.46795 0.35235 0.0
C698 C 0.76483 0.47058 0.38184 0.0
C699 C 0.79881 0.4537 0.36702 0.0
C700 C 0.73718 0.46459 0.38941 0.0
C701 C 0.71356 0.43559 0.39008 0.0
C702 C 0.76925 0.44747 0.3749 0.0
C703 C 0.71871 0.41301 0.38276 0.0
C704 C 0.80515 0.43123 0.36218 0.0
C705 C 0.84811 0.48963 0.35749 0.0
N706 N 0.74607 0.41942 0.37553 0.0
N707 N 0.82054 0.48207 0.36457 0.0
H708 H 0.08362 0.60096 0.43507 0.0
H709 H 0.22288 0.61164 0.5022 0.0
H710 H 0.12357 0.5496 0.4153 0.0
H711 H 0.15849 0.62592 0.53693 0.0
H712 H 0.19155 0.59675 0.46717 0.0
H713 H 0.1154 0.61764 0.47001 0.0
C714 C 0.09919 0.59333 0.43809 0.0
C715 C 0.10108 0.57393 0.42238 0.0
C716 C 0.18417 0.60296 0.48249 0.0
C717 C 0.13749 0.59307 0.46191 0.0
C718 C 0.20188 0.61124 0.50244 0.0
C719 C 0.19239 0.61858 0.5226 0.0
C720 C 0.15718 0.60283 0.48259 0.0
C721 C 0.16597 0.61947 0.52181 0.0
C722 C 0.11714 0.60271 0.458 0.0
C723 C 0.12138 0.56445 0.42709 0.0
N724 N 0.14907 0.61143 0.50211 0.0
N725 N 0.13899 0.5743 0.44637 0.0
H726 H 0.56091 0.15253 0.57232 0.0
H727 H 0.55153 0.16426 0.70876 0.0
H728 H 0.5221 0.07621 0.61494 0.0
H729 H 0.61997 0.23297 0.66931 0.0
H730 H 0.5341 0.13275 0.67379 0.0
H731 H 0.57672 0.18382 0.60722 0.0
C732 C 0.55557 0.14242 0.58905 0.0
C733 C 0.54022 0.11183 0.59084 0.0
C734 C 0.55299 0.15469 0.67285 0.0
C735 C 0.55795 0.1473 0.63065 0.0
C736 C 0.56286 0.17255 0.6927 0.0
C737 C 0.5877 0.20067 0.69184 0.0
C738 C 0.56752 0.16559 0.65198 0.0
C739 C 0.60125 0.21098 0.67065 0.0
C740 C 0.56471 0.16022 0.6089 0.0
C741 C 0.53405 0.09975 0.61289 0.0
N742 N 0.59099 0.19342 0.65149 0.0
N743 N 0.54279 0.11753 0.63198 0.0
H744 H 0.48797 0.60714 0.75357 0.0
H745 H 0.3776 0.54533 0.85935 0.0
H746 H 0.42043 0.51643 0.7602 0.0
H747 H 0.43501 0.63789 0.8483 0.0
H748 H 0.39503 0.53455 0.82392 0.0
H749 H 0.47084 0.61902 0.78907 0.0
C750 C 0.46958 0.58973 0.76251 0.0
C751 C 0.45555 0.56076 0.75389 0.0
C752 C 0.4038 0.55724 0.82919 0.0
C753 C 0.43585 0.57417 0.79442 0.0
C754 C 0.39389 0.56346 0.84951 0.0
C755 C 0.40478 0.59262 0.8569 0.0
C756 C 0.42494 0.58028 0.81609 0.0
C757 C 0.4259 0.61509 0.84329 0.0
C758 C 0.45973 0.59654 0.78269 0.0
C759 C 0.43165 0.53912 0.76604 0.0
N760 N 0.43533 0.60844 0.82356 0.0
N761 N 0.42264 0.54625 0.7857 0.0
H762 H 0.9033 0.50555 0.92574 0.0
H763 H 0.84526 0.38444 0.02312 0.0
H764 H 0.91553 0.4303 0.92446 0.0
H765 H 0.81375 0.44581 0.01563 0.0
H766 H 0.87397 0.40345 0.98838 0.0
H767 H 0.87262 0.48606 0.95975 0.0
C768 C 0.89942 0.48487 0.93247 0.0
C769 C 0.91226 0.46968 0.92224 0.0
C770 C 0.86071 0.41272 0.99428 0.0
C771 C 0.87754 0.44753 0.96138 0.0
C772 C 0.84435 0.40193 0.01419 0.0
C773 C 0.82697 0.41349 0.02236 0.0
C774 C 0.86001 0.43546 0.98245 0.0
C775 C 0.82672 0.43613 0.00996 0.0
C776 C 0.882 0.47384 0.95196 0.0
C777 C 0.90669 0.44315 0.93198 0.0
N778 N 0.84309 0.44646 0.99067 0.0
N779 N 0.8899 0.43303 0.95101 0.0
H780 H 0.42423 0.88365 0.07238 0.0
H781 H 0.47589 0.8731 0.19963 0.0
H782 H 0.49167 0.95831 0.11126 0.0
H783 H 0.38824 0.81104 0.1732 0.0
H784 H 0.48449 0.90198 0.16518 0.0
H785 H 0.41251 0.85443 0.10726 0.0
C786 C 0.43644 0.89403 0.0882 0.0
C787 C 0.45923 0.92356 0.08869 0.0
C788 C 0.46333 0.88209 0.16693 0.0
C789 C 0.44626 0.88993 0.1285 0.0
C790 C 0.4584 0.86547 0.18659 0.0
C791 C 0.43122 0.83956 0.18942 0.0
C792 C 0.44116 0.87264 0.14967 0.0
C793 C 0.40947 0.83092 0.17182 0.0
C794 C 0.42979 0.87725 0.10807 0.0
C795 C 0.47447 0.93553 0.10974 0.0
N796 N 0.41497 0.84733 0.15259 0.0
N797 N 0.46788 0.91865 0.12868 0.0
H798 H 0.52258 0.42671 0.2525 0.0
H799 H 0.63501 0.48717 0.361 0.0
H800 H 0.5926 0.5166 0.26152 0.0
H801 H 0.57613 0.39473 0.34726 0.0
H802 H 0.61758 0.49811 0.32549 0.0
H803 H 0.53974 0.4144 0.28796 0.0
C804 C 0.54152 0.44385 0.26195 0.0
C805 C 0.55621 0.47273 0.254 0.0
C806 C 0.60847 0.47541 0.33017 0.0
C807 C 0.57594 0.4588 0.29453 0.0
C808 C 0.61838 0.46909 0.35055 0.0
C809 C 0.60708 0.43991 0.35723 0.0
C810 C 0.58689 0.45248 0.31627 0.0
C811 C 0.58555 0.41754 0.34282 0.0
C812 C 0.55138 0.43678 0.28211 0.0
C813 C 0.58082 0.49399 0.26682 0.0
N814 N 0.57609 0.42429 0.32304 0.0
N815 N 0.5898 0.48662 0.28645 0.0
H816 H 0.44604 0.8823 0.40889 0.0
H817 H 0.40833 0.86843 0.27368 0.0
H818 H 0.45902 0.95551 0.36782 0.0
H819 H 0.41576 0.8025 0.31156 0.0
H820 H 0.42335 0.89964 0.30868 0.0
H821 H 0.43234 0.85181 0.37387 0.0
C822 C 0.44622 0.89207 0.39254 0.0
C823 C 0.45364 0.92158 0.39141 0.0
C824 C 0.4219 0.87843 0.30931 0.0
C825 C 0.43731 0.88651 0.35125 0.0
C826 C 0.41334 0.86072 0.2894 0.0
C827 C 0.41196 0.83352 0.28973 0.0
C828 C 0.42821 0.86837 0.32977 0.0
C829 C 0.41767 0.82389 0.31055 0.0
C830 C 0.43821 0.87457 0.37255 0.0
C831 C 0.45294 0.93278 0.36968 0.0
N832 N 0.42565 0.84134 0.32977 0.0
N833 N 0.44481 0.91522 0.3505 0.0
H834 H 0.59503 0.48638 0.56463 0.0
H835 H 0.54935 0.40569 0.44293 0.0
H836 H 0.5028 0.42769 0.546 0.0
H837 H 0.62894 0.42211 0.47938 0.0
H838 H 0.53283 0.41944 0.47811 0.0
H839 H 0.60921 0.46836 0.53131 0.0
C840 C 0.57762 0.46962 0.55378 0.0
C841 C 0.54748 0.45858 0.55856 0.0
C842 C 0.55393 0.42007 0.47833 0.0
C843 C 0.56404 0.43925 0.51924 0.0
C844 C 0.56335 0.41238 0.45833 0.0
C845 C 0.59107 0.41411 0.45816 0.0
C846 C 0.57238 0.42934 0.49815 0.0
C847 C 0.60805 0.42189 0.47863 0.0
C848 C 0.58589 0.45965 0.53449 0.0
C849 C 0.52629 0.43751 0.54302 0.0
N850 N 0.59867 0.42967 0.49776 0.0
N851 N 0.53497 0.42879 0.52395 0.0
H852 H 0.08549 0.51491 0.71572 0.0
H853 H 0.19973 0.64102 0.63346 0.0
H854 H 0.11219 0.60616 0.72583 0.0
H855 H 0.16263 0.54821 0.6201 0.0
H856 H 0.17007 0.62954 0.66831 0.0
H857 H 0.1161 0.52757 0.68167 0.0
C858 C 0.09795 0.53767 0.71085 0.0
C859 C 0.09631 0.5595 0.72371 0.0
C860 C 0.16849 0.61176 0.6577 0.0
C861 C 0.13134 0.57422 0.68447 0.0
C862 C 0.18546 0.61828 0.63782 0.0
C863 C 0.18376 0.59558 0.62374 0.0
C864 C 0.14982 0.58235 0.66359 0.0
C865 C 0.16476 0.56652 0.6303 0.0
C866 C 0.11531 0.54489 0.69129 0.0
C867 C 0.11259 0.58859 0.71631 0.0
N868 N 0.14865 0.5608 0.64969 0.0
N869 N 0.12949 0.59513 0.69721 0.0
H870 H 0.60157 0.13301 0.90403 0.0
H871 H 0.56438 0.19145 0.79061 0.0
H872 H 0.51414 0.08812 0.87192 0.0
H873 H 0.64886 0.19598 0.80033 0.0
H874 H 0.54637 0.16138 0.82501 0.0
H875 H 0.62012 0.16371 0.87021 0.0
C876 C 0.58621 0.12933 0.88994 0.0
C877 C 0.5561 0.10756 0.89102 0.0
C878 C 0.56886 0.16907 0.8196 0.0
C879 C 0.57728 0.14365 0.85259 0.0
C880 C 0.57922 0.18634 0.8001 0.0
C881 C 0.60817 0.1962 0.79262 0.0
C882 C 0.58778 0.16217 0.83201 0.0
C883 C 0.62636 0.18871 0.80546 0.0
C884 C 0.59689 0.14709 0.8707 0.0
C885 C 0.53734 0.10479 0.87229 0.0
N886 N 0.61594 0.17231 0.82466 0.0
N887 N 0.5482 0.12271 0.85395 0.0
H888 H 0.49471 0.56645 0.03389 0.0
H889 H 0.38696 0.61737 0.97957 0.0
H890 H 0.43889 0.58725 0.07499 0.0
H891 H 0.46031 0.62177 0.9428 0.0
H892 H 0.40404 0.60396 0.01443 0.0
H893 H 0.48063 0.5839 0.99985 0.0
C894 C 0.47974 0.57495 0.03585 0.0
C895 C 0.46805 0.57541 0.05744 0.0
C896 C 0.41649 0.60791 0.99878 0.0
C897 C 0.45154 0.59504 0.01838 0.0
C898 C 0.40661 0.6153 0.97891 0.0
C899 C 0.42177 0.61958 0.9583 0.0
C900 C 0.44168 0.60475 0.99794 0.0
C901 C 0.44771 0.61786 0.95836 0.0
C902 C 0.47164 0.58481 0.01636 0.0
C903 C 0.44818 0.58606 0.05871 0.0
N904 N 0.45666 0.6101 0.97784 0.0
N905 N 0.44049 0.59535 0.03945 0.0
H906 H 0.94555 0.50479 0.19811 0.0
H907 H 0.78547 0.39416 0.14439 0.0
H908 H 0.87044 0.44887 0.23958 0.0
H909 H 0.85226 0.46704 0.10712 0.0
H910 H 0.81723 0.41193 0.17915 0.0
H911 H 0.91287 0.48904 0.164 0.0
C912 C 0.92217 0.48939 0.20011 0.0
C913 C 0.91075 0.47822 0.22182 0.0
C914 C 0.82498 0.4241 0.1634 0.0
C915 C 0.87334 0.45986 0.18275 0.0
C916 C 0.807 0.41384 0.1436 0.0
C917 C 0.81695 0.4287 0.12289 0.0
C918 C 0.85306 0.44938 0.16237 0.0
C919 C 0.84434 0.45468 0.12276 0.0
C920 C 0.90356 0.48036 0.1806 0.0
C921 C 0.88035 0.45779 0.2232 0.0
N922 N 0.86174 0.46403 0.14218 0.0
N923 N 0.86272 0.44923 0.20393 0.0
loop_
_geom_bond_atom_site_label_1
_geom_bond_atom_site_label_2
_geom_bond_distance
_geom_bond_site_symmetry_2
_ccdc_geom_bond_type
C0 C1 1.384 . S
C0 C2 1.384 . S
C0 H28 0.931 . S
C1 C0 1.384 . S
C1 C4 1.382 . S
C2 C0 1.384 . S
C2 C3 1.381 . S
C2 H29 0.930 . S
C3 C2 1.381 . S
C3 C5 1.381 . S
C3 C6 1.487 . S
C4 C1 1.382 . S
C4 C5 1.387 . S
C4 H30 0.930 . S
C5 C3 1.381 . S
C5 C4 1.387 . S
C5 H31 0.931 . S
C6 C3 1.487 . S
C6 C13 1.399 . S
C6 N44 1.343 . S
C7 C8 1.384 . S
C7 C9 1.384 . S
C7 H32 0.931 . S
C8 C7 1.384 . S
C8 C11 1.382 . S
C9 C7 1.384 . S
C9 C10 1.381 . S
C9 H33 0.930 . S
C10 C9 1.381 . S
C10 C12 1.381 . S
C10 C13 1.487 . S
C11 C8 1.382 . S
C11 C12 1.387 . S
C11 H34 0.930 . S
C12 C10 1.381 . S
C12 C11 1.387 . S
C12 H35 0.931 . S
C13 C6 1.399 . S
C13 C10 1.487 . S
C13 N45 1.343 1_655 S
C14 C15 1.384 . S
C14 C16 1.384 . S
C14 H36 0.931 . S
C15 C14 1.384 . S
C15 C18 1.382 . S
C16 C14 1.384 . S
C16 C17 1.381 . S
C16 H37 0.930 . S
C17 C16 1.381 . S
C17 C19 1.381 . S
C17 C20 1.487 . S
C18 C15 1.382 . S
C18 C19 1.387 . S
C18 H38 0.930 . S
C19 C17 1.381 . S
C19 C18 1.387 . S
C19 H39 0.931 . S
C20 C17 1.487 . S
C20 C27 1.399 . S
C20 N45 1.343 . S
C21 C22 1.384 . S
C21 C23 1.384 . S
C21 H40 0.931 . S
C22 C21 1.384 . S
C22 C25 1.382 . S
C23 C21 1.384 . S
C23 C24 1.381 . S
C23 H41 0.930 . S
C24 C23 1.381 . S
C24 C26 1.381 . S
C24 C27 1.487 . S
C25 C22 1.382 . S
C25 C26 1.387 . S
C25 H42 0.930 . S
C26 C24 1.381 . S
C26 C25 1.387 . S
C26 H43 0.931 . S
C27 C20 1.399 . S
C27 C24 1.487 . S
C27 N44 1.343 1_455 S
H28 C0 0.931 . S
H29 C2 0.930 . S
H30 C4 0.930 . S
H31 C5 0.931 . S
H32 C7 0.931 . S
H33 C9 0.930 . S
H34 C11 0.930 . S
H35 C12 0.931 . S
H36 C14 0.931 . S
H37 C16 0.930 . S
H38 C18 0.930 . S
H39 C19 0.931 . S
H40 C21 0.931 . S
H41 C23 0.930 . S
H42 C25 0.930 . S
H43 C26 0.931 . S
N44 C6 1.343 . S
N44 C27 1.343 1_655 S
N45 C13 1.343 1_455 S
N45 C20 1.343 . S
C46 C47 1.384 . S
C46 C48 1.384 . S
C46 H74 0.931 . S
C47 C46 1.384 . S
C47 C50 1.382 . S
C48 C46 1.384 . S
C48 C49 1.381 . S
C48 H75 0.930 . S
C49 C48 1.381 . S
C49 C51 1.381 . S
C49 C52 1.487 . S
C50 C47 1.382 . S
C50 C51 1.387 . S
C50 H76 0.930 . S
C51 C49 1.381 . S
C51 C50 1.387 . S
C51 H77 0.931 . S
C52 C49 1.487 . S
C52 C59 1.399 . S
C52 N90 1.343 1_565 S
C53 C54 1.384 . S
C53 C55 1.384 . S
C53 H78 0.931 . S
C54 C53 1.384 . S
C54 C57 1.382 . S
C55 C53 1.384 . S
C55 C56 1.381 . S
C55 H79 0.930 . S
C56 C55 1.381 . S
C56 C58 1.381 . S
C56 C59 1.487 . S
C57 C54 1.382 . S
C57 C58 1.387 . S
C57 H80 0.930 . S
C58 C56 1.381 . S
C58 C57 1.387 . S
C58 H81 0.931 . S
C59 C52 1.399 . S
C59 C56 1.487 . S
C59 N91 1.343 1_565 S
C60 C61 1.384 . S
C60 C62 1.384 . S
C60 H82 0.931 . S
C61 C60 1.384 . S
C61 C64 1.382 . S
C62 C60 1.384 . S
C62 C63 1.381 . S
C62 H83 0.930 . S
C63 C62 1.381 . S
C63 C65 1.381 . S
C63 C66 1.487 . S
C64 C61 1.382 . S
C64 C65 1.387 . S
C64 H84 0.930 . S
C65 C63 1.381 . S
C65 C64 1.387 . S
C65 H85 0.931 . S
C66 C63 1.487 . S
C66 C73 1.399 . S
C66 N91 1.343 . S
C67 C68 1.384 . S
C67 C69 1.384 . S
C67 H86 0.931 . S
C68 C67 1.384 . S
C68 C71 1.382 . S
C69 C67 1.384 . S
C69 C70 1.381 . S
C69 H87 0.930 . S
C70 C69 1.381 . S
C70 C72 1.381 . S
C70 C73 1.487 . S
C71 C68 1.382 . S
C71 C72 1.387 . S
C71 H88 0.930 . S
C72 C70 1.381 . S
C72 C71 1.387 . S
C72 H89 0.931 . S
C73 C66 1.399 . S
C73 C70 1.487 . S
C73 N90 1.343 . S
H74 C46 0.931 . S
H75 C48 0.930 . S
H76 C50 0.930 . S
H77 C51 0.931 . S
H78 C53 0.931 . S
H79 C55 0.930 . S
H80 C57 0.930 . S
H81 C58 0.931 . S
H82 C60 0.931 . S
H83 C62 0.930 . S
H84 C64 0.930 . S
H85 C65 0.931 . S
H86 C67 0.931 . S
H87 C69 0.930 . S
H88 C71 0.930 . S
H89 C72 0.931 . S
N90 C52 1.343 1_545 S
N90 C73 1.343 . S
N91 C59 1.343 1_545 S
N91 C66 1.343 . S
C92 C93 1.384 . S
C92 C94 1.384 . S
C92 H120 0.931 . S
C93 C92 1.384 . S
C93 C96 1.382 . S
C94 C92 1.384 . S
C94 C95 1.381 . S
C94 H121 0.930 . S
C95 C94 1.381 . S
C95 C97 1.381 . S
C95 C98 1.487 . S
C96 C93 1.382 . S
C96 C97 1.387 . S
C96 H122 0.930 . S
C97 C95 1.381 . S
C97 C96 1.387 . S
C97 H123 0.931 . S
C98 C95 1.487 . S
C98 C105 1.399 . S
C98 N136 1.343 . S
C99 C100 1.384 . S
C99 C101 1.384 . S
C99 H124 0.931 . S
C100 C99 1.384 . S
C100 C103 1.382 . S
C101 C99 1.384 . S
C101 C102 1.381 . S
C101 H125 0.930 . S
C102 C101 1.381 . S
C102 C104 1.381 . S
C102 C105 1.487 . S
C103 C100 1.382 . S
C103 C104 1.387 . S
C103 H126 0.930 . S
C104 C102 1.381 . S
C104 C103 1.387 . S
C104 H127 0.931 . S
C105 C98 1.399 . S
C105 C102 1.487 . S
C105 N137 1.343 . S
C106 C107 1.384 . S
C106 C108 1.384 . S
C106 H128 0.931 . S
C107 C106 1.384 . S
C107 C110 1.382 . S
C108 C106 1.384 . S
C108 C109 1.381 . S
C108 H129 0.930 . S
C109 C108 1.381 . S
C109 C111 1.381 . S
C109 C112 1.487 . S
C110 C107 1.382 . S
C110 C111 1.387 . S
C110 H130 0.930 . S
C111 C109 1.381 . S
C111 C110 1.387 . S
C111 H131 0.931 . S
C112 C109 1.487 . S
C112 C119 1.399 . S
C112 N137 1.343 . S
C113 C114 1.384 . S
C113 C115 1.384 . S
C113 H132 0.931 . S
C114 C113 1.384 . S
C114 C117 1.382 . S
C115 C113 1.384 . S
C115 C116 1.381 . S
C115 H133 0.930 . S
C116 C115 1.381 . S
C116 C118 1.381 . S
C116 C119 1.487 . S
C117 C114 1.382 . S
C117 C118 1.387 . S
C117 H134 0.930 . S
C118 C116 1.381 . S
C118 C117 1.387 . S
C118 H135 0.931 . S
C119 C112 1.399 . S
C119 C116 1.487 . S
C119 N136 1.343 . S
H120 C92 0.931 . S
H121 C94 0.930 . S
H122 C96 0.930 . S
H123 C97 0.931 . S
H124 C99 0.931 . S
H125 C101 0.930 . S
H126 C103 0.930 . S
H127 C104 0.931 . S
H128 C106 0.931 . S
H129 C108 0.930 . S
H130 C110 0.930 . S
H131 C111 0.931 . S
H132 C113 0.931 . S
H133 C115 0.930 . S
H134 C117 0.930 . S
H135 C118 0.931 . S
N136 C98 1.343 . S
N136 C119 1.343 . S
N137 C105 1.343 . S
N137 C112 1.343 . S
C138 C139 1.384 . S
C138 C140 1.384 . S
C138 H166 0.931 . S
C139 C138 1.384 . S
C139 C142 1.382 . S
C140 C138 1.384 . S
C140 C141 1.381 . S
C140 H167 0.930 . S
C141 C140 1.381 . S
C141 C143 1.381 . S
C141 C144 1.487 . S
C142 C139 1.382 . S
C142 C143 1.387 . S
C142 H168 0.930 . S
C143 C141 1.381 . S
C143 C142 1.387 . S
C143 H169 0.931 . S
C144 C141 1.487 . S
C144 C151 1.399 . S
C144 N182 1.343 . S
C145 C146 1.384 . S
C145 C147 1.384 . S
C145 H170 0.931 . S
C146 C145 1.384 . S
C146 C149 1.382 . S
C147 C145 1.384 . S
C147 C148 1.381 . S
C147 H171 0.930 . S
C148 C147 1.381 . S
C148 C150 1.381 . S
C148 C151 1.487 . S
C149 C146 1.382 . S
C149 C150 1.387 . S
C149 H172 0.930 . S
C150 C148 1.381 . S
C150 C149 1.387 . S
C150 H173 0.931 . S
C151 C144 1.399 . S
C151 C148 1.487 . S
C151 N183 1.343 1_655 S
C152 C153 1.384 . S
C152 C154 1.384 . S
C152 H174 0.931 . S
C153 C152 1.384 . S
C153 C156 1.382 . S
C154 C152 1.384 . S
C154 C155 1.381 . S
C154 H175 0.930 . S
C155 C154 1.381 . S
C155 C157 1.381 . S
C155 C158 1.487 . S
C156 C153 1.382 . S
C156 C157 1.387 . S
C156 H176 0.930 . S
C157 C155 1.381 . S
C157 C156 1.387 . S
C157 H177 0.931 . S
C158 C155 1.487 . S
C158 C165 1.399 . S
C158 N183 1.343 . S
C159 C160 1.384 . S
C159 C161 1.384 . S
C159 H178 0.931 . S
C160 C159 1.384 . S
C160 C163 1.382 . S
C161 C159 1.384 . S
C161 C162 1.381 . S
C161 H179 0.930 . S
C162 C161 1.381 . S
C162 C164 1.381 . S
C162 C165 1.487 . S
C163 C160 1.382 . S
C163 C164 1.387 . S
C163 H180 0.930 . S
C164 C162 1.381 . S
C164 C163 1.387 . S
C164 H181 0.931 . S
C165 C158 1.399 . S
C165 C162 1.487 . S
C165 N182 1.343 1_455 S
H166 C138 0.931 . S
H167 C140 0.930 . S
H168 C142 0.930 . S
H169 C143 0.931 . S
H170 C145 0.931 . S
H171 C147 0.930 . S
H172 C149 0.930 . S
H173 C150 0.931 . S
H174 C152 0.931 . S
H175 C154 0.930 . S
H176 C156 0.930 . S
H177 C157 0.931 . S
H178 C159 0.931 . S
H179 C161 0.930 . S
H180 C163 0.930 . S
H181 C164 0.931 . S
N182 C144 1.343 . S
N182 C165 1.343 1_655 S
N183 C151 1.343 1_455 S
N183 C158 1.343 . S
C184 C185 1.384 . S
C184 C186 1.384 . S
C184 H212 0.931 . S
C185 C184 1.384 . S
C185 C188 1.382 . S
C186 C184 1.384 . S
C186 C187 1.381 . S
C186 H213 0.902 1_556 S
C187 C186 1.381 . S
C187 C189 1.381 . S
C187 C190 1.487 . S
C188 C185 1.382 . S
C188 C189 1.387 . S
C188 H214 0.930 . S
C189 C187 1.381 . S
C189 C188 1.387 . S
C189 H215 0.931 . S
C190 C187 1.487 . S
C190 C197 1.399 1_566 S
C190 N228 1.343 1_565 S
C191 C192 1.384 . S
C191 C193 1.384 . S
C191 H216 0.931 . S
C192 C191 1.384 . S
C192 C195 1.382 . S
C193 C191 1.384 . S
C193 C194 1.381 . S
C193 H217 0.930 . S
C194 C193 1.381 . S
C194 C196 1.381 . S
C194 C197 1.487 1_565 S
C195 C192 1.382 . S
C195 C196 1.387 . S
C195 H218 0.930 . S
C196 C194 1.381 . S
C196 C195 1.387 . S
C196 H219 0.931 1_565 S
C197 C190 1.399 1_544 S
C197 C194 1.487 1_545 S
C197 N229 1.343 . S
C198 C199 1.384 . S
C198 C200 1.384 1_554 S
C198 H220 0.920 1_554 S
C199 C198 1.384 . S
C199 C202 1.382 . S
C200 C198 1.384 1_556 S
C200 C201 1.381 1_556 S
C200 H221 0.930 . S
C201 C200 1.381 1_554 S
C201 C203 1.381 . S
C201 C204 1.487 1_554 S
C202 C199 1.382 . S
C202 C203 1.387 . S
C202 H222 0.930 . S
C203 C201 1.381 . S
C203 C202 1.387 . S
C203 H223 0.931 . S
C204 C201 1.487 1_556 S
C204 C211 1.399 . S
C204 N229 1.343 1_556 S
C205 C206 1.384 . S
C205 C207 1.384 . S
C205 H224 0.931 . S
C206 C205 1.384 . S
C206 C209 1.382 . S
C207 C205 1.384 . S
C207 C208 1.381 . S
C207 H225 0.930 . S
C208 C207 1.381 . S
C208 C210 1.381 . S
C208 C211 1.487 . S
C209 C206 1.382 . S
C209 C210 1.387 . S
C209 H226 0.930 . S
C210 C208 1.381 . S
C210 C209 1.387 . S
C210 H227 0.931 . S
C211 C204 1.399 . S
C211 C208 1.487 . S
C211 N228 1.343 . S
H212 C184 0.931 . S
H213 C186 0.902 1_554 S
H214 C188 0.930 . S
H215 C189 0.931 . S
H216 C191 0.931 . S
H217 C193 0.930 . S
H218 C195 0.930 . S
H219 C196 0.931 1_545 S
H220 C198 0.920 1_556 S
H221 C200 0.930 . S
H222 C202 0.930 . S
H223 C203 0.931 . S
H224 C205 0.931 . S
H225 C207 0.930 . S
H226 C209 0.930 . S
H227 C210 0.931 . S
N228 C190 1.343 1_545 S
N228 C211 1.343 . S
N229 C197 1.343 . S
N229 C204 1.343 1_554 S
C230 C231 1.384 . S
C230 C232 1.384 . S
C230 H258 0.931 . S
C231 C230 1.384 . S
C231 C234 1.382 . S
C232 C230 1.384 . S
C232 C233 1.381 . S
C232 H259 0.930 . S
C233 C232 1.381 . S
C233 C235 1.381 . S
C233 C236 1.487 . S
C234 C231 1.382 . S
C234 C235 1.387 . S
C234 H260 0.930 . S
C235 C233 1.381 . S
C235 C234 1.387 . S
C235 H261 0.931 . S
C236 C233 1.487 . S
C236 C243 1.399 . S
C236 N274 1.343 . S
C237 C238 1.384 . S
C237 C239 1.384 . S
C237 H262 0.931 . S
C238 C237 1.384 . S
C238 C241 1.382 . S
C239 C237 1.384 . S
C239 C240 1.381 . S
C239 H263 0.930 . S
C240 C239 1.381 . S
C240 C242 1.381 . S
C240 C243 1.487 . S
C241 C238 1.382 . S
C241 C242 1.387 . S
C241 H264 0.930 . S
C242 C240 1.381 . S
C242 C241 1.387 . S
C242 H265 0.931 . S
C243 C236 1.399 . S
C243 C240 1.487 . S
C243 N275 1.343 . S
C244 C245 1.384 . S
C244 C246 1.384 . S
C244 H266 0.931 . S
C245 C244 1.384 . S
C245 C248 1.382 . S
C246 C244 1.384 . S
C246 C247 1.381 . S
C246 H267 0.930 . S
C247 C246 1.381 . S
C247 C249 1.381 . S
C247 C250 1.487 . S
C248 C245 1.382 . S
C248 C249 1.387 . S
C248 H268 0.930 . S
C249 C247 1.381 . S
C249 C248 1.387 . S
C249 H269 0.931 . S
C250 C247 1.487 . S
C250 C257 1.399 . S
C250 N275 1.343 . S
C251 C252 1.384 . S
C251 C253 1.384 . S
C251 H270 0.931 . S
C252 C251 1.384 . S
C252 C255 1.382 . S
C253 C251 1.384 . S
C253 C254 1.381 . S
C253 H271 0.930 . S
C254 C253 1.381 . S
C254 C256 1.381 . S
C254 C257 1.487 . S
C255 C252 1.382 . S
C255 C256 1.387 . S
C255 H272 0.930 . S
C256 C254 1.381 . S
C256 C255 1.387 . S
C256 H273 0.931 . S
C257 C250 1.399 . S
C257 C254 1.487 . S
C257 N274 1.343 . S
H258 C230 0.931 . S
H259 C232 0.930 . S
H260 C234 0.930 . S
H261 C235 0.931 . S
H262 C237 0.931 . S
H263 C239 0.930 . S
H264 C241 0.930 . S
H265 C242 0.931 . S
H266 C244 0.931 . S
H267 C246 0.930 . S
H268 C248 0.930 . S
H269 C249 0.931 . S
H270 C251 0.931 . S
H271 C253 0.930 . S
H272 C255 0.930 . S
H273 C256 0.931 . S
N274 C236 1.343 . S
N274 C257 1.343 . S
N275 C243 1.343 . S
N275 C250 1.343 . S
Mn276 O281 2.095 . S
Mn276 O291 2.162 . S
Mn276 O292 2.297 . S
Mn276 O300 2.385 . S
Mn276 O301 2.209 . S
Mn276 O302 2.094 . S
Mn277 O282 2.121 . S
Mn277 N284 2.257 . S
Mn277 N293 2.282 . S
Mn277 O301 2.215 . S
Mn277 O303 2.117 . S
C278 O300 1.234 . S
C278 O301 1.283 . S
C279 O291 1.281 . S
C279 O292 1.236 . S
C280 O302 1.240 . S
C280 O303 1.264 . S
O281 Mn276 2.095 . S
O281 C290 1.250 . S
O282 Mn277 2.121 . S
O282 C290 1.258 . S
C283 N284 1.326 . S
C283 C287 1.460 . S
C283 H289 0.929 . S
N284 Mn277 2.257 . S
N284 C283 1.326 . S
N284 C288 1.362 . S
C285 C286 1.258 . S
C285 C288 1.431 . S
C285 C305 1.449 . S
C286 C285 1.258 . S
C286 C287 1.477 . S
C286 H306 0.931 . S
C287 C283 1.460 . S
C287 C286 1.477 . S
C287 H307 0.930 . S
C288 N284 1.362 . S
C288 C285 1.431 . S
C288 C298 1.476 . S
H289 C283 0.929 . S
C290 O281 1.250 . S
C290 O282 1.258 . S
O291 Mn276 2.162 . S
O291 C279 1.281 . S
O292 Mn276 2.297 . S
O292 C279 1.236 . S
N293 Mn277 2.282 . S
N293 C294 1.328 . S
N293 C298 1.318 . S
C294 N293 1.328 . S
C294 C295 1.457 . S
C294 H299 0.929 . S
C295 C294 1.457 . S
C295 C296 1.291 . S
C295 H308 0.931 . S
C296 C295 1.291 . S
C296 C297 1.373 . S
C296 H309 0.929 . S
C297 C296 1.373 . S
C297 C298 1.396 . S
C297 C304 1.403 . S
C298 C288 1.476 . S
C298 N293 1.318 . S
C298 C297 1.396 . S
H299 C294 0.929 . S
O300 Mn276 2.385 . S
O300 C278 1.234 . S
O301 Mn276 2.209 . S
O301 Mn277 2.215 . S
O301 C278 1.283 . S
O302 Mn276 2.094 . S
O302 C280 1.240 . S
O303 Mn277 2.117 . S
O303 C280 1.264 . S
C304 C297 1.403 . S
C304 C305 1.399 . S
C304 H310 0.929 . S
C305 C285 1.449 . S
C305 C304 1.399 . S
C305 H311 0.930 . S
H306 C286 0.931 . S
H307 C287 0.930 . S
H308 C295 0.931 . S
H309 C296 0.929 . S
H310 C304 0.929 . S
H311 C305 0.930 . S
Mn312 O317 2.095 . S
Mn312 O327 2.162 . S
Mn312 O328 2.297 . S
Mn312 O336 2.385 . S
Mn312 O337 2.209 . S
Mn312 O338 2.094 . S
Mn313 O318 2.121 . S
Mn313 N320 2.257 . S
Mn313 N329 2.282 . S
Mn313 O337 2.215 . S
Mn313 O339 2.117 . S
C314 O336 1.234 . S
C314 O337 1.283 . S
C315 O327 1.281 . S
C315 O328 1.236 . S
C316 O338 1.240 . S
C316 O339 1.264 . S
O317 Mn312 2.095 . S
O317 C326 1.250 . S
O318 Mn313 2.121 . S
O318 C326 1.258 . S
C319 N320 1.326 . S
C319 C323 1.460 . S
C319 H325 0.929 . S
N320 Mn313 2.257 . S
N320 C319 1.326 . S
N320 C324 1.362 . S
C321 C322 1.258 . S
C321 C324 1.431 . S
C321 C341 1.449 . S
C322 C321 1.258 . S
C322 C323 1.477 . S
C322 H342 0.931 . S
C323 C319 1.460 . S
C323 C322 1.477 . S
C323 H343 0.930 . S
C324 N320 1.362 . S
C324 C321 1.431 . S
C324 C334 1.476 . S
H325 C319 0.929 . S
C326 O317 1.250 . S
C326 O318 1.258 . S
O327 Mn312 2.162 . S
O327 C315 1.281 . S
O328 Mn312 2.297 . S
O328 C315 1.236 . S
N329 Mn313 2.282 . S
N329 C330 1.328 . S
N329 C334 1.318 . S
C330 N329 1.328 . S
C330 C331 1.457 . S
C330 H335 0.929 . S
C331 C330 1.457 . S
C331 C332 1.291 . S
C331 H344 0.931 . S
C332 C331 1.291 . S
C332 C333 1.373 . S
C332 H345 0.929 . S
C333 C332 1.373 . S
C333 C334 1.396 . S
C333 C340 1.403 . S
C334 C324 1.476 . S
C334 N329 1.318 . S
C334 C333 1.396 . S
H335 C330 0.929 . S
O336 Mn312 2.385 . S
O336 C314 1.234 . S
O337 Mn312 2.209 . S
O337 Mn313 2.215 . S
O337 C314 1.283 . S
O338 Mn312 2.094 . S
O338 C316 1.240 . S
O339 Mn313 2.117 . S
O339 C316 1.264 . S
C340 C333 1.403 . S
C340 C341 1.399 . S
C340 H346 0.929 . S
C341 C321 1.449 . S
C341 C340 1.399 . S
C341 H347 0.930 . S
H342 C322 0.931 . S
H343 C323 0.930 . S
H344 C331 0.931 . S
H345 C332 0.929 . S
H346 C340 0.929 . S
H347 C341 0.930 . S
Mn348 O353 2.095 . S
Mn348 O363 2.162 . S
Mn348 O364 2.297 . S
Mn348 O372 2.385 . S
Mn348 O373 2.209 . S
Mn348 O374 2.094 . S
Mn349 O354 2.121 . S
Mn349 N356 2.257 . S
Mn349 N365 2.282 . S
Mn349 O373 2.215 . S
Mn349 O375 2.117 . S
C350 O372 1.234 . S
C350 O373 1.283 . S
C351 O363 1.281 . S
C351 O364 1.236 . S
C352 O374 1.240 . S
C352 O375 1.264 . S
O353 Mn348 2.095 . S
O353 C362 1.250 . S
O354 Mn349 2.121 . S
O354 C362 1.258 . S
C355 N356 1.326 . S
C355 C359 1.460 . S
C355 H361 0.929 . S
N356 Mn349 2.257 . S
N356 C355 1.326 . S
N356 C360 1.362 . S
C357 C358 1.258 . S
C357 C360 1.431 . S
C357 C377 1.449 . S
C358 C357 1.258 . S
C358 C359 1.477 . S
C358 H378 0.931 . S
C359 C355 1.460 . S
C359 C358 1.477 . S
C359 H379 0.930 . S
C360 N356 1.362 . S
C360 C357 1.431 . S
C360 C370 1.476 . S
H361 C355 0.929 . S
C362 O353 1.250 . S
C362 O354 1.258 . S
O363 Mn348 2.162 . S
O363 C351 1.281 . S
O364 Mn348 2.297 . S
O364 C351 1.236 . S
N365 Mn349 2.282 . S
N365 C366 1.328 . S
N365 C370 1.318 . S
C366 N365 1.328 . S
C366 C367 1.457 . S
C366 H371 0.929 . S
C367 C366 1.457 . S
C367 C368 1.291 . S
C367 H380 0.931 . S
C368 C367 1.291 . S
C368 C369 1.373 . S
C368 H381 0.929 . S
C369 C368 1.373 . S
C369 C370 1.396 . S
C369 C376 1.403 . S
C370 C360 1.476 . S
C370 N365 1.318 . S
C370 C369 1.396 . S
H371 C366 0.929 . S
O372 Mn348 2.385 . S
O372 C350 1.234 . S
O373 Mn348 2.209 . S
O373 Mn349 2.215 . S
O373 C350 1.283 . S
O374 Mn348 2.094 . S
O374 C352 1.240 . S
O375 Mn349 2.117 . S
O375 C352 1.264 . S
C376 C369 1.403 . S
C376 C377 1.399 . S
C376 H382 0.929 . S
C377 C357 1.449 . S
C377 C376 1.399 . S
C377 H383 0.930 . S
H378 C358 0.931 . S
H379 C359 0.930 . S
H380 C367 0.931 . S
H381 C368 0.929 . S
H382 C376 0.929 . S
H383 C377 0.930 . S
Mn384 O389 2.095 . S
Mn384 O399 2.162 . S
Mn384 O400 2.297 . S
Mn384 O408 2.385 . S
Mn384 O409 2.209 . S
Mn384 O410 2.094 . S
Mn385 O390 2.121 . S
Mn385 N392 2.257 . S
Mn385 N401 2.282 . S
Mn385 O409 2.215 . S
Mn385 O411 2.117 . S
C386 O408 1.234 . S
C386 O409 1.283 . S
C387 O399 1.281 . S
C387 O400 1.236 . S
C388 O410 1.240 . S
C388 O411 1.264 . S
O389 Mn384 2.095 . S
O389 C398 1.250 . S
O390 Mn385 2.121 . S
O390 C398 1.258 . S
C391 N392 1.326 . S
C391 C395 1.460 . S
C391 H397 0.929 . S
N392 Mn385 2.257 . S
N392 C391 1.326 . S
N392 C396 1.362 . S
C393 C394 1.258 . S
C393 C396 1.431 . S
C393 C413 1.449 . S
C394 C393 1.258 . S
C394 C395 1.477 . S
C394 H414 0.931 . S
C395 C391 1.460 . S
C395 C394 1.477 . S
C395 H415 0.930 . S
C396 N392 1.362 . S
C396 C393 1.431 . S
C396 C406 1.476 . S
H397 C391 0.929 . S
C398 O389 1.250 . S
C398 O390 1.258 . S
O399 Mn384 2.162 . S
O399 C387 1.281 . S
O400 Mn384 2.297 . S
O400 C387 1.236 . S
N401 Mn385 2.282 . S
N401 C402 1.328 . S
N401 C406 1.318 . S
C402 N401 1.328 . S
C402 C403 1.457 . S
C402 H407 0.929 . S
C403 C402 1.457 . S
C403 C404 1.291 . S
C403 H416 0.931 . S
C404 C403 1.291 . S
C404 C405 1.373 . S
C404 H417 0.929 . S
C405 C404 1.373 . S
C405 C406 1.396 . S
C405 C412 1.403 . S
C406 C396 1.476 . S
C406 N401 1.318 . S
C406 C405 1.396 . S
H407 C402 0.929 . S
O408 Mn384 2.385 . S
O408 C386 1.234 . S
O409 Mn384 2.209 . S
O409 Mn385 2.215 . S
O409 C386 1.283 . S
O410 Mn384 2.094 . S
O410 C388 1.240 . S
O411 Mn385 2.117 . S
O411 C388 1.264 . S
C412 C405 1.403 . S
C412 C413 1.399 . S
C412 H418 0.929 . S
C413 C393 1.449 . S
C413 C412 1.399 . S
C413 H419 0.930 . S
H414 C394 0.931 . S
H415 C395 0.930 . S
H416 C403 0.931 . S
H417 C404 0.929 . S
H418 C412 0.929 . S
H419 C413 0.930 . S
Mn420 O425 2.095 . S
Mn420 O435 2.162 . S
Mn420 O436 2.297 . S
Mn420 O444 2.385 . S
Mn420 O445 2.209 . S
Mn420 O446 2.094 . S
Mn421 O426 2.121 . S
Mn421 N428 2.257 . S
Mn421 N437 2.282 . S
Mn421 O445 2.215 . S
Mn421 O447 2.117 . S
C422 O444 1.234 . S
C422 O445 1.283 . S
C423 O435 1.281 . S
C423 O436 1.236 . S
C424 O446 1.240 . S
C424 O447 1.264 . S
O425 Mn420 2.095 . S
O425 C434 1.250 . S
O426 Mn421 2.121 . S
O426 C434 1.258 . S
C427 N428 1.326 . S
C427 C431 1.460 . S
C427 H433 0.929 . S
N428 Mn421 2.257 . S
N428 C427 1.326 . S
N428 C432 1.362 . S
C429 C430 1.258 . S
C429 C432 1.431 . S
C429 C449 1.449 . S
C430 C429 1.258 . S
C430 C431 1.477 . S
C430 H450 0.931 . S
C431 C427 1.460 . S
C431 C430 1.477 . S
C431 H451 0.930 . S
C432 N428 1.362 . S
C432 C429 1.431 . S
C432 C442 1.476 . S
H433 C427 0.929 . S
C434 O425 1.250 . S
C434 O426 1.258 . S
O435 Mn420 2.162 . S
O435 C423 1.281 . S
O436 Mn420 2.297 . S
O436 C423 1.236 . S
N437 Mn421 2.282 . S
N437 C438 1.328 . S
N437 C442 1.318 . S
C438 N437 1.328 . S
C438 C439 1.457 . S
C438 H443 0.929 . S
C439 C438 1.457 . S
C439 C440 1.291 . S
C439 H452 0.931 . S
C440 C439 1.291 . S
C440 C441 1.373 . S
C440 H453 0.929 . S
C441 C440 1.373 . S
C441 C442 1.396 . S
C441 C448 1.403 . S
C442 C432 1.476 . S
C442 N437 1.318 . S
C442 C441 1.396 . S
H443 C438 0.929 . S
O444 Mn420 2.385 . S
O444 C422 1.234 . S
O445 Mn420 2.209 . S
O445 Mn421 2.215 . S
O445 C422 1.283 . S
O446 Mn420 2.094 . S
O446 C424 1.240 . S
O447 Mn421 2.117 . S
O447 C424 1.264 . S
C448 C441 1.403 . S
C448 C449 1.399 . S
C448 H454 0.929 . S
C449 C429 1.449 . S
C449 C448 1.399 . S
C449 H455 0.930 . S
H450 C430 0.931 . S
H451 C431 0.930 . S
H452 C439 0.931 . S
H453 C440 0.929 . S
H454 C448 0.929 . S
H455 C449 0.930 . S
Mn456 O461 2.095 . S
Mn456 O471 2.162 . S
Mn456 O472 2.297 . S
Mn456 O480 2.385 . S
Mn456 O481 2.209 . S
Mn456 O482 2.094 . S
Mn457 O462 2.121 . S
Mn457 N464 2.257 . S
Mn457 N473 2.282 . S
Mn457 O481 2.215 . S
Mn457 O483 2.117 . S
C458 O480 1.234 . S
C458 O481 1.283 . S
C459 O471 1.281 . S
C459 O472 1.236 . S
C460 O482 1.240 . S
C460 O483 1.264 . S
O461 Mn456 2.095 . S
O461 C470 1.250 . S
O462 Mn457 2.121 . S
O462 C470 1.258 . S
C463 N464 1.326 . S
C463 C467 1.460 . S
C463 H469 0.929 . S
N464 Mn457 2.257 . S
N464 C463 1.326 . S
N464 C468 1.362 . S
C465 C466 1.258 . S
C465 C468 1.431 . S
C465 C485 1.449 . S
C466 C465 1.258 . S
C466 C467 1.477 . S
C466 H486 0.931 . S
C467 C463 1.460 . S
C467 C466 1.477 . S
C467 H487 0.930 . S
C468 N464 1.362 . S
C468 C465 1.431 . S
C468 C478 1.476 . S
H469 C463 0.929 . S
C470 O461 1.250 . S
C470 O462 1.258 . S
O471 Mn456 2.162 . S
O471 C459 1.281 . S
O472 Mn456 2.297 . S
O472 C459 1.236 . S
N473 Mn457 2.282 . S
N473 C474 1.328 . S
N473 C478 1.318 . S
C474 N473 1.328 . S
C474 C475 1.457 . S
C474 H479 0.929 . S
C475 C474 1.457 . S
C475 C476 1.291 . S
C475 H488 0.931 . S
C476 C475 1.291 . S
C476 C477 1.373 . S
C476 H489 0.929 . S
C477 C476 1.373 . S
C477 C478 1.396 . S
C477 C484 1.403 . S
C478 C468 1.476 . S
C478 N473 1.318 . S
C478 C477 1.396 . S
H479 C474 0.929 . S
O480 Mn456 2.385 . S
O480 C458 1.234 . S
O481 Mn456 2.209 . S
O481 Mn457 2.215 . S
O481 C458 1.283 . S
O482 Mn456 2.094 . S
O482 C460 1.240 . S
O483 Mn457 2.117 . S
O483 C460 1.264 . S
C484 C477 1.403 . S
C484 C485 1.399 . S
C484 H490 0.929 . S
C485 C465 1.449 . S
C485 C484 1.399 . S
C485 H491 0.930 . S
H486 C466 0.931 . S
H487 C467 0.930 . S
H488 C475 0.931 . S
H489 C476 0.929 . S
H490 C484 0.929 . S
H491 C485 0.930 . S
H492 C498 0.930 . S
H493 C502 0.930 . S
H494 C507 0.929 . S
H495 C505 0.929 . S
H496 C500 0.929 . S
H497 C506 0.929 . S
C498 H492 0.930 . S
C498 C499 1.367 . S
C498 C506 1.378 . S
C499 C498 1.367 . S
C499 C507 1.433 . S
C500 H496 0.929 . S
C500 C502 1.378 . S
C500 C504 1.350 . S
C501 C504 1.463 . S
C501 C506 1.350 . S
C501 N509 1.427 . S
C502 H493 0.930 . S
C502 C500 1.378 . S
C502 C503 1.367 . S
C503 C502 1.367 . S
C503 C505 1.433 . S
C504 C500 1.350 . S
C504 C501 1.463 . S
C504 N508 1.427 . S
C505 H495 0.929 . S
C505 C503 1.433 . S
C505 N508 1.384 . S
C506 H497 0.929 . S
C506 C498 1.378 . S
C506 C501 1.350 . S
C507 H494 0.929 . S
C507 C499 1.433 . S
C507 N509 1.384 . S
N508 C504 1.427 . S
N508 C505 1.384 . S
N509 C501 1.427 . S
N509 C507 1.384 . S
H510 C516 0.930 . S
H511 C520 0.930 . S
H512 C525 0.929 . S
H513 C523 0.929 . S
H514 C518 0.929 . S
H515 C524 0.929 . S
C516 H510 0.930 . S
C516 C517 1.367 . S
C516 C524 1.378 . S
C517 C516 1.367 . S
C517 C525 1.433 . S
C518 H514 0.929 . S
C518 C520 1.378 . S
C518 C522 1.350 . S
C519 C522 1.463 . S
C519 C524 1.350 . S
C519 N527 1.427 . S
C520 H511 0.930 . S
C520 C518 1.378 . S
C520 C521 1.367 . S
C521 C520 1.367 . S
C521 C523 1.433 . S
C522 C518 1.350 . S
C522 C519 1.463 . S
C522 N526 1.427 . S
C523 H513 0.929 . S
C523 C521 1.433 . S
C523 N526 1.384 . S
C524 H515 0.929 . S
C524 C516 1.378 . S
C524 C519 1.350 . S
C525 H512 0.929 . S
C525 C517 1.433 . S
C525 N527 1.384 . S
N526 C522 1.427 . S
N526 C523 1.384 . S
N527 C519 1.427 . S
N527 C525 1.384 . S
H528 C534 0.930 . S
H529 C538 0.930 . S
H530 C543 0.929 . S
H531 C541 0.929 . S
H532 C536 0.929 . S
H533 C542 0.929 . S
C534 H528 0.930 . S
C534 C535 1.367 . S
C534 C542 1.378 . S
C535 C534 1.367 . S
C535 C543 1.433 . S
C536 H532 0.929 . S
C536 C538 1.378 . S
C536 C540 1.350 . S
C537 C540 1.463 . S
C537 C542 1.350 . S
C537 N545 1.427 . S
C538 H529 0.930 . S
C538 C536 1.378 . S
C538 C539 1.367 . S
C539 C538 1.367 . S
C539 C541 1.433 . S
C540 C536 1.350 . S
C540 C537 1.463 . S
C540 N544 1.427 . S
C541 H531 0.929 . S
C541 C539 1.433 . S
C541 N544 1.384 . S
C542 H533 0.929 . S
C542 C534 1.378 . S
C542 C537 1.350 . S
C543 H530 0.929 . S
C543 C535 1.433 . S
C543 N545 1.384 . S
N544 C540 1.427 . S
N544 C541 1.384 . S
N545 C537 1.427 . S
N545 C543 1.384 . S
H546 C552 0.930 . S
H547 C556 0.930 . S
H548 C561 0.929 . S
H549 C559 0.929 . S
H550 C554 0.929 . S
H551 C560 0.929 . S
C552 H546 0.930 . S
C552 C553 1.367 . S
C552 C560 1.378 . S
C553 C552 1.367 . S
C553 C561 1.433 . S
C554 H550 0.929 . S
C554 C556 1.378 . S
C554 C558 1.350 . S
C555 C558 1.463 . S
C555 C560 1.350 . S
C555 N563 1.427 . S
C556 H547 0.930 . S
C556 C554 1.378 . S
C556 C557 1.367 . S
C557 C556 1.367 . S
C557 C559 1.433 . S
C558 C554 1.350 . S
C558 C555 1.463 . S
C558 N562 1.427 . S
C559 H549 0.929 . S
C559 C557 1.433 . S
C559 N562 1.384 . S
C560 H551 0.929 . S
C560 C552 1.378 . S
C560 C555 1.350 . S
C561 H548 0.929 . S
C561 C553 1.433 . S
C561 N563 1.384 . S
N562 C558 1.427 . S
N562 C559 1.384 . S
N563 C555 1.427 . S
N563 C561 1.384 . S
H564 C570 0.930 . S
H565 C574 0.930 . S
H566 C579 0.929 . S
H567 C577 0.929 . S
H568 C572 0.929 . S
H569 C578 0.929 . S
C570 H564 0.930 . S
C570 C571 1.367 . S
C570 C578 1.378 . S
C571 C570 1.367 . S
C571 C579 1.433 . S
C572 H568 0.929 . S
C572 C574 1.378 . S
C572 C576 1.350 . S
C573 C576 1.463 . S
C573 C578 1.350 . S
C573 N581 1.427 . S
C574 H565 0.930 . S
C574 C572 1.378 . S
C574 C575 1.367 . S
C575 C574 1.367 . S
C575 C577 1.433 . S
C576 C572 1.350 . S
C576 C573 1.463 . S
C576 N580 1.427 . S
C577 H567 0.929 . S
C577 C575 1.433 . S
C577 N580 1.384 . S
C578 H569 0.929 . S
C578 C570 1.378 . S
C578 C573 1.350 . S
C579 H566 0.929 . S
C579 C571 1.433 . S
C579 N581 1.384 . S
N580 C576 1.427 . S
N580 C577 1.384 . S
N581 C573 1.427 . S
N581 C579 1.384 . S
H582 C588 0.930 . S
H583 C592 0.930 . S
H584 C597 0.929 . S
H585 C595 0.929 . S
H586 C590 0.929 . S
H587 C596 0.929 . S
C588 H582 0.930 . S
C588 C589 1.367 . S
C588 C596 1.378 . S
C589 C588 1.367 . S
C589 C597 1.433 . S
C590 H586 0.929 . S
C590 C592 1.378 . S
C590 C594 1.350 . S
C591 C594 1.463 . S
C591 C596 1.350 . S
C591 N599 1.427 . S
C592 H583 0.930 . S
C592 C590 1.378 . S
C592 C593 1.367 . S
C593 C592 1.367 . S
C593 C595 1.433 . S
C594 C590 1.350 . S
C594 C591 1.463 . S
C594 N598 1.427 . S
C595 H585 0.929 . S
C595 C593 1.433 . S
C595 N598 1.384 . S
C596 H587 0.929 . S
C596 C588 1.378 . S
C596 C591 1.350 . S
C597 H584 0.929 . S
C597 C589 1.433 . S
C597 N599 1.384 . S
N598 C594 1.427 . S
N598 C595 1.384 . S
N599 C591 1.427 . S
N599 C597 1.384 . S
H600 C606 0.930 . S
H601 C610 0.930 . S
H602 C615 0.929 . S
H603 C613 0.929 . S
H604 C608 0.929 . S
H605 C614 0.929 . S
C606 H600 0.930 . S
C606 C607 1.367 . S
C606 C614 1.378 . S
C607 C606 1.367 . S
C607 C615 1.433 . S
C608 H604 0.929 . S
C608 C610 1.378 . S
C608 C612 1.350 . S
C609 C612 1.463 . S
C609 C614 1.350 . S
C609 N617 1.427 . S
C610 H601 0.930 . S
C610 C608 1.378 . S
C610 C611 1.367 . S
C611 C610 1.367 . S
C611 C613 1.433 . S
C612 C608 1.350 . S
C612 C609 1.463 . S
C612 N616 1.427 . S
C613 H603 0.929 . S
C613 C611 1.433 . S
C613 N616 1.384 . S
C614 H605 0.929 . S
C614 C606 1.378 . S
C614 C609 1.350 . S
C615 H602 0.929 . S
C615 C607 1.433 . S
C615 N617 1.384 . S
N616 C612 1.427 . S
N616 C613 1.384 . S
N617 C609 1.427 . S
N617 C615 1.384 . S
H618 C624 0.930 . S
H619 C628 0.930 . S
H620 C633 0.929 . S
H621 C631 0.929 . S
H622 C626 0.929 . S
H623 C632 0.929 . S
C624 H618 0.930 . S
C624 C625 1.367 . S
C624 C632 1.378 . S
C625 C624 1.367 . S
C625 C633 1.433 . S
C626 H622 0.929 . S
C626 C628 1.378 . S
C626 C630 1.350 . S
C627 C630 1.463 . S
C627 C632 1.350 . S
C627 N635 1.427 . S
C628 H619 0.930 . S
C628 C626 1.378 . S
C628 C629 1.367 . S
C629 C628 1.367 . S
C629 C631 1.433 . S
C630 C626 1.350 . S
C630 C627 1.463 . S
C630 N634 1.427 . S
C631 H621 0.929 . S
C631 C629 1.433 . S
C631 N634 1.384 . S
C632 H623 0.929 . S
C632 C624 1.378 . S
C632 C627 1.350 . S
C633 H620 0.929 . S
C633 C625 1.433 . S
C633 N635 1.384 . S
N634 C630 1.427 . S
N634 C631 1.384 . S
N635 C627 1.427 . S
N635 C633 1.384 . S
H636 C642 0.930 . S
H637 C646 0.930 . S
H638 C651 0.929 . S
H639 C649 0.929 . S
H640 C644 0.929 . S
H641 C650 0.929 . S
C642 H636 0.930 . S
C642 C643 1.367 . S
C642 C650 1.378 . S
C643 C642 1.367 . S
C643 C651 1.433 . S
C644 H640 0.929 . S
C644 C646 1.378 . S
C644 C648 1.350 . S
C645 C648 1.463 . S
C645 C650 1.350 . S
C645 N653 1.427 . S
C646 H637 0.930 . S
C646 C644 1.378 . S
C646 C647 1.367 . S
C647 C646 1.367 . S
C647 C649 1.433 . S
C648 C644 1.350 . S
C648 C645 1.463 . S
C648 N652 1.427 . S
C649 H639 0.929 . S
C649 C647 1.433 . S
C649 N652 1.384 . S
C650 H641 0.929 . S
C650 C642 1.378 . S
C650 C645 1.350 . S
C651 H638 0.929 . S
C651 C643 1.433 . S
C651 N653 1.384 . S
N652 C648 1.427 . S
N652 C649 1.384 . S
N653 C645 1.427 . S
N653 C651 1.384 . S
H654 C660 0.930 . S
H655 C664 0.930 . S
H656 C669 0.929 . S
H657 C667 0.929 . S
H658 C662 0.929 . S
H659 C668 0.929 . S
C660 H654 0.930 . S
C660 C661 1.367 . S
C660 C668 1.378 . S
C661 C660 1.367 . S
C661 C669 1.433 . S
C662 H658 0.929 . S
C662 C664 1.378 . S
C662 C666 1.350 . S
C663 C666 1.463 . S
C663 C668 1.350 . S
C663 N671 1.427 . S
C664 H655 0.930 . S
C664 C662 1.378 . S
C664 C665 1.367 . S
C665 C664 1.367 . S
C665 C667 1.433 . S
C666 C662 1.350 . S
C666 C663 1.463 . S
C666 N670 1.427 . S
C667 H657 0.929 . S
C667 C665 1.433 . S
C667 N670 1.384 . S
C668 H659 0.929 . S
C668 C660 1.378 . S
C668 C663 1.350 . S
C669 H656 0.929 . S
C669 C661 1.433 . S
C669 N671 1.384 . S
N670 C666 1.427 . S
N670 C667 1.384 . S
N671 C663 1.427 . S
N671 C669 1.384 . S
H672 C678 0.930 . S
H673 C682 0.930 . S
H674 C687 0.929 . S
H675 C685 0.929 . S
H676 C680 0.929 . S
H677 C686 0.929 . S
C678 H672 0.930 . S
C678 C679 1.367 . S
C678 C686 1.378 . S
C679 C678 1.367 . S
C679 C687 1.433 . S
C680 H676 0.929 . S
C680 C682 1.378 . S
C680 C684 1.350 . S
C681 C684 1.463 . S
C681 C686 1.350 . S
C681 N689 1.427 . S
C682 H673 0.930 . S
C682 C680 1.378 . S
C682 C683 1.367 . S
C683 C682 1.367 . S
C683 C685 1.433 . S
C684 C680 1.350 . S
C684 C681 1.463 . S
C684 N688 1.427 . S
C685 H675 0.929 . S
C685 C683 1.433 . S
C685 N688 1.384 . S
C686 H677 0.929 . S
C686 C678 1.378 . S
C686 C681 1.350 . S
C687 H674 0.929 . S
C687 C679 1.433 . S
C687 N689 1.384 . S
N688 C684 1.427 . S
N688 C685 1.384 . S
N689 C681 1.427 . S
N689 C687 1.384 . S
H690 C696 0.930 . S
H691 C700 0.930 . S
H692 C705 0.929 . S
H693 C703 0.929 . S
H694 C698 0.929 . S
H695 C704 0.929 . S
C696 H690 0.930 . S
C696 C697 1.367 . S
C696 C704 1.378 . S
C697 C696 1.367 . S
C697 C705 1.433 . S
C698 H694 0.929 . S
C698 C700 1.378 . S
C698 C702 1.350 . S
C699 C702 1.463 . S
C699 C704 1.350 . S
C699 N707 1.427 . S
C700 H691 0.930 . S
C700 C698 1.378 . S
C700 C701 1.367 . S
C701 C700 1.367 . S
C701 C703 1.433 . S
C702 C698 1.350 . S
C702 C699 1.463 . S
C702 N706 1.427 . S
C703 H693 0.929 . S
C703 C701 1.433 . S
C703 N706 1.384 . S
C704 H695 0.929 . S
C704 C696 1.378 . S
C704 C699 1.350 . S
C705 H692 0.929 . S
C705 C697 1.433 . S
C705 N707 1.384 . S
N706 C702 1.427 . S
N706 C703 1.384 . S
N707 C699 1.427 . S
N707 C705 1.384 . S
H708 C714 0.930 . S
H709 C718 0.930 . S
H710 C723 0.929 . S
H711 C721 0.929 . S
H712 C716 0.929 . S
H713 C722 0.929 . S
C714 H708 0.930 . S
C714 C715 1.367 . S
C714 C722 1.378 . S
C715 C714 1.367 . S
C715 C723 1.433 . S
C716 H712 0.929 . S
C716 C718 1.378 . S
C716 C720 1.350 . S
C717 C720 1.463 . S
C717 C722 1.350 . S
C717 N725 1.427 . S
C718 H709 0.930 . S
C718 C716 1.378 . S
C718 C719 1.367 . S
C719 C718 1.367 . S
C719 C721 1.433 . S
C720 C716 1.350 . S
C720 C717 1.463 . S
C720 N724 1.427 . S
C721 H711 0.929 . S
C721 C719 1.433 . S
C721 N724 1.384 . S
C722 H713 0.929 . S
C722 C714 1.378 . S
C722 C717 1.350 . S
C723 H710 0.929 . S
C723 C715 1.433 . S
C723 N725 1.384 . S
N724 C720 1.427 . S
N724 C721 1.384 . S
N725 C717 1.427 . S
N725 C723 1.384 . S
H726 C732 0.930 . S
H727 C736 0.930 . S
H728 C741 0.929 . S
H729 C739 0.929 . S
H730 C734 0.929 . S
H731 C740 0.929 . S
C732 H726 0.930 . S
C732 C733 1.367 . S
C732 C740 1.378 . S
C733 C732 1.367 . S
C733 C741 1.433 . S
C734 H730 0.929 . S
C734 C736 1.378 . S
C734 C738 1.350 . S
C735 C738 1.463 . S
C735 C740 1.350 . S
C735 N743 1.427 . S
C736 H727 0.930 . S
C736 C734 1.378 . S
C736 C737 1.367 . S
C737 C736 1.367 . S
C737 C739 1.433 . S
C738 C734 1.350 . S
C738 C735 1.463 . S
C738 N742 1.427 . S
C739 H729 0.929 . S
C739 C737 1.433 . S
C739 N742 1.384 . S
C740 H731 0.929 . S
C740 C732 1.378 . S
C740 C735 1.350 . S
C741 H728 0.929 . S
C741 C733 1.433 . S
C741 N743 1.384 . S
N742 C738 1.427 . S
N742 C739 1.384 . S
N743 C735 1.427 . S
N743 C741 1.384 . S
H744 C750 0.930 . S
H745 C754 0.930 . S
H746 C759 0.929 . S
H747 C757 0.929 . S
H748 C752 0.929 . S
H749 C758 0.929 . S
C750 H744 0.930 . S
C750 C751 1.367 . S
C750 C758 1.378 . S
C751 C750 1.367 . S
C751 C759 1.433 . S
C752 H748 0.929 . S
C752 C754 1.378 . S
C752 C756 1.350 . S
C753 C756 1.463 . S
C753 C758 1.350 . S
C753 N761 1.427 . S
C754 H745 0.930 . S
C754 C752 1.378 . S
C754 C755 1.367 . S
C755 C754 1.367 . S
C755 C757 1.433 . S
C756 C752 1.350 . S
C756 C753 1.463 . S
C756 N760 1.427 . S
C757 H747 0.929 . S
C757 C755 1.433 . S
C757 N760 1.384 . S
C758 H749 0.929 . S
C758 C750 1.378 . S
C758 C753 1.350 . S
C759 H746 0.929 . S
C759 C751 1.433 . S
C759 N761 1.384 . S
N760 C756 1.427 . S
N760 C757 1.384 . S
N761 C753 1.427 . S
N761 C759 1.384 . S
H762 C768 0.930 . S
H763 C772 0.930 . S
H764 C777 0.929 . S
H765 C775 0.929 . S
H766 C770 0.929 . S
H767 C776 0.929 . S
C768 H762 0.930 . S
C768 C769 1.367 . S
C768 C776 1.378 . S
C769 C768 1.367 . S
C769 C777 1.433 . S
C770 H766 0.929 . S
C770 C772 1.378 1_556 S
C770 C774 1.350 . S
C771 C774 1.463 . S
C771 C776 1.350 . S
C771 N779 1.427 . S
C772 H763 0.930 . S
C772 C770 1.378 1_554 S
C772 C773 1.367 . S
C773 C772 1.367 . S
C773 C775 1.433 . S
C774 C770 1.350 . S
C774 C771 1.463 . S
C774 N778 1.427 . S
C775 H765 0.929 . S
C775 C773 1.433 . S
C775 N778 1.384 1_554 S
C776 H767 0.929 . S
C776 C768 1.378 . S
C776 C771 1.350 . S
C777 H764 0.929 . S
C777 C769 1.433 . S
C777 N779 1.384 . S
N778 C774 1.427 . S
N778 C775 1.384 1_556 S
N779 C771 1.427 . S
N779 C777 1.384 . S
H780 C786 0.930 . S
H781 C790 0.930 . S
H782 C795 0.929 . S
H783 C793 0.929 . S
H784 C788 0.929 . S
H785 C794 0.929 . S
C786 H780 0.930 . S
C786 C787 1.367 . S
C786 C794 1.378 . S
C787 C786 1.367 . S
C787 C795 1.433 . S
C788 H784 0.929 . S
C788 C790 1.378 . S
C788 C792 1.350 . S
C789 C792 1.463 . S
C789 C794 1.350 . S
C789 N797 1.427 . S
C790 H781 0.930 . S
C790 C788 1.378 . S
C790 C791 1.367 . S
C791 C790 1.367 . S
C791 C793 1.433 . S
C792 C788 1.350 . S
C792 C789 1.463 . S
C792 N796 1.427 . S
C793 H783 0.929 . S
C793 C791 1.433 . S
C793 N796 1.384 . S
C794 H785 0.929 . S
C794 C786 1.378 . S
C794 C789 1.350 . S
C795 H782 0.929 . S
C795 C787 1.433 . S
C795 N797 1.384 . S
N796 C792 1.427 . S
N796 C793 1.384 . S
N797 C789 1.427 . S
N797 C795 1.384 . S
H798 C804 0.930 . S
H799 C808 0.930 . S
H800 C813 0.929 . S
H801 C811 0.929 . S
H802 C806 0.929 . S
H803 C812 0.929 . S
C804 H798 0.930 . S
C804 C805 1.367 . S
C804 C812 1.378 . S
C805 C804 1.367 . S
C805 C813 1.433 . S
C806 H802 0.929 . S
C806 C808 1.378 . S
C806 C810 1.350 . S
C807 C810 1.463 . S
C807 C812 1.350 . S
C807 N815 1.427 . S
C808 H799 0.930 . S
C808 C806 1.378 . S
C808 C809 1.367 . S
C809 C808 1.367 . S
C809 C811 1.433 . S
C810 C806 1.350 . S
C810 C807 1.463 . S
C810 N814 1.427 . S
C811 H801 0.929 . S
C811 C809 1.433 . S
C811 N814 1.384 . S
C812 H803 0.929 . S
C812 C804 1.378 . S
C812 C807 1.350 . S
C813 H800 0.929 . S
C813 C805 1.433 . S
C813 N815 1.384 . S
N814 C810 1.427 . S
N814 C811 1.384 . S
N815 C807 1.427 . S
N815 C813 1.384 . S
H816 C822 0.930 . S
H817 C826 0.930 . S
H818 C831 0.929 . S
H819 C829 0.929 . S
H820 C824 0.929 . S
H821 C830 0.929 . S
C822 H816 0.930 . S
C822 C823 1.367 . S
C822 C830 1.378 . S
C823 C822 1.367 . S
C823 C831 1.433 . S
C824 H820 0.929 . S
C824 C826 1.378 . S
C824 C828 1.350 . S
C825 C828 1.463 . S
C825 C830 1.350 . S
C825 N833 1.427 . S
C826 H817 0.930 . S
C826 C824 1.378 . S
C826 C827 1.367 . S
C827 C826 1.367 . S
C827 C829 1.433 . S
C828 C824 1.350 . S
C828 C825 1.463 . S
C828 N832 1.427 . S
C829 H819 0.929 . S
C829 C827 1.433 . S
C829 N832 1.384 . S
C830 H821 0.929 . S
C830 C822 1.378 . S
C830 C825 1.350 . S
C831 H818 0.929 . S
C831 C823 1.433 . S
C831 N833 1.384 . S
N832 C828 1.427 . S
N832 C829 1.384 . S
N833 C825 1.427 . S
N833 C831 1.384 . S
H834 C840 0.930 . S
H835 C844 0.930 . S
H836 C849 0.929 . S
H837 C847 0.929 . S
H838 C842 0.929 . S
H839 C848 0.929 . S
C840 H834 0.930 . S
C840 C841 1.367 . S
C840 C848 1.378 . S
C841 C840 1.367 . S
C841 C849 1.433 . S
C842 H838 0.929 . S
C842 C844 1.378 . S
C842 C846 1.350 . S
C843 C846 1.463 . S
C843 C848 1.350 . S
C843 N851 1.427 . S
C844 H835 0.930 . S
C844 C842 1.378 . S
C844 C845 1.367 . S
C845 C844 1.367 . S
C845 C847 1.433 . S
C846 C842 1.350 . S
C846 C843 1.463 . S
C846 N850 1.427 . S
C847 H837 0.929 . S
C847 C845 1.433 . S
C847 N850 1.384 . S
C848 H839 0.929 . S
C848 C840 1.378 . S
C848 C843 1.350 . S
C849 H836 0.929 . S
C849 C841 1.433 . S
C849 N851 1.384 . S
N850 C846 1.427 . S
N850 C847 1.384 . S
N851 C843 1.427 . S
N851 C849 1.384 . S
H852 C858 0.930 . S
H853 C862 0.930 . S
H854 C867 0.929 . S
H855 C865 0.929 . S
H856 C860 0.929 . S
H857 C866 0.929 . S
C858 H852 0.930 . S
C858 C859 1.367 . S
C858 C866 1.378 . S
C859 C858 1.367 . S
C859 C867 1.433 . S
C860 H856 0.929 . S
C860 C862 1.378 . S
C860 C864 1.350 . S
C861 C864 1.463 . S
C861 C866 1.350 . S
C861 N869 1.427 . S
C862 H853 0.930 . S
C862 C860 1.378 . S
C862 C863 1.367 . S
C863 C862 1.367 . S
C863 C865 1.433 . S
C864 C860 1.350 . S
C864 C861 1.463 . S
C864 N868 1.427 . S
C865 H855 0.929 . S
C865 C863 1.433 . S
C865 N868 1.384 . S
C866 H857 0.929 . S
C866 C858 1.378 . S
C866 C861 1.350 . S
C867 H854 0.929 . S
C867 C859 1.433 . S
C867 N869 1.384 . S
N868 C864 1.427 . S
N868 C865 1.384 . S
N869 C861 1.427 . S
N869 C867 1.384 . S
H870 C876 0.930 . S
H871 C880 0.930 . S
H872 C885 0.929 . S
H873 C883 0.929 . S
H874 C878 0.929 . S
H875 C884 0.929 . S
C876 H870 0.930 . S
C876 C877 1.367 . S
C876 C884 1.378 . S
C877 C876 1.367 . S
C877 C885 1.433 . S
C878 H874 0.929 . S
C878 C880 1.378 . S
C878 C882 1.350 . S
C879 C882 1.463 . S
C879 C884 1.350 . S
C879 N887 1.427 . S
C880 H871 0.930 . S
C880 C878 1.378 . S
C880 C881 1.367 . S
C881 C880 1.367 . S
C881 C883 1.433 . S
C882 C878 1.350 . S
C882 C879 1.463 . S
C882 N886 1.427 . S
C883 H873 0.929 . S
C883 C881 1.433 . S
C883 N886 1.384 . S
C884 H875 0.929 . S
C884 C876 1.378 . S
C884 C879 1.350 . S
C885 H872 0.929 . S
C885 C877 1.433 . S
C885 N887 1.384 . S
N886 C882 1.427 . S
N886 C883 1.384 . S
N887 C879 1.427 . S
N887 C885 1.384 . S
H888 C894 0.930 . S
H889 C898 0.930 . S
H890 C903 0.929 . S
H891 C901 0.929 . S
H892 C896 0.907 1_554 S
H893 C902 0.933 . S
C894 H888 0.930 . S
C894 C895 1.367 . S
C894 C902 1.378 . S
C895 C894 1.367 . S
C895 C903 1.433 . S
C896 H892 0.907 1_556 S
C896 C898 1.397 . S
C896 C900 1.353 . S
C897 C900 1.463 1_554 S
C897 C902 1.350 . S
C897 N905 1.427 . S
C898 H889 0.930 . S
C898 C896 1.397 . S
C898 C899 1.367 . S
C899 C898 1.367 . S
C899 C901 1.433 . S
C900 C896 1.353 . S
C900 C897 1.463 1_556 S
C900 N904 1.427 . S
C901 H891 0.929 . S
C901 C899 1.433 . S
C901 N904 1.384 . S
C902 H893 0.933 . S
C902 C894 1.378 . S
C902 C897 1.350 . S
C903 H890 0.929 . S
C903 C895 1.433 . S
C903 N905 1.384 . S
N904 C900 1.427 . S
N904 C901 1.384 . S
N905 C897 1.427 . S
N905 C903 1.384 . S
H906 C912 0.930 . S
H907 C916 0.930 . S
H908 C921 0.929 . S
H909 C919 0.929 . S
H910 C914 0.929 . S
H911 C920 0.929 . S
C912 H906 0.930 . S
C912 C913 1.367 . S
C912 C920 1.378 . S
C913 C912 1.367 . S
C913 C921 1.433 . S
C914 H910 0.929 . S
C914 C916 1.378 . S
C914 C918 1.350 . S
C915 C918 1.463 . S
C915 C920 1.350 . S
C915 N923 1.427 . S
C916 H907 0.930 . S
C916 C914 1.378 . S
C916 C917 1.367 . S
C917 C916 1.367 . S
C917 C919 1.433 . S
C918 C914 1.350 . S
C918 C915 1.463 . S
C918 N922 1.427 . S
C919 H909 0.929 . S
C919 C917 1.433 . S
C919 N922 1.384 . S
C920 H911 0.929 . S
C920 C912 1.378 . S
C920 C915 1.350 . S
C921 H908 0.929 . S
C921 C913 1.433 . S
C921 N923 1.384 . S
N922 C918 1.427 . S
N922 C919 1.384 . S
N923 C915 1.427 . S
N923 C921 1.384 . S
C503 C459 1.600 . S
C499 C15 1.578 . S
C517 C61 1.618 . S
C521 C279 1.640 . S
C535 C114 1.584 . S
C539 C326 1.601 . S
C553 C139 1.545 . S
C557 C362 1.535 . S
C575 C387 1.578 . S
C571 C185 1.569 . S
C589 C245 1.558 . S
C593 C423 1.581 . S
C607 C47 1.618 . S
C611 C315 1.629 . S
C625 C100 1.570 . S
C629 C351 1.580 . S
C643 C153 1.521 . S
C647 C398 1.530 . S
C665 C434 1.581 . S
C661 C199 1.566 . S
C683 C470 1.589 . S
C679 C231 1.587 . S
C701 C290 1.598 . S
C697 C1 1.608 . S
C715 C22 1.473 . S
C719 C314 1.466 . S
C733 C68 1.488 . S
C737 C350 1.480 . S
C755 C388 1.484 . S
C751 C107 1.488 . S
C769 C146 1.491 . S
C773 C424 1.484 . S
C791 C460 1.455 . S
C787 C192 1.460 . S
C809 C280 1.441 . S
C805 C252 1.446 . S
C827 C458 1.460 . S
C823 C54 1.470 . S
C841 C93 1.470 . S
C845 C278 1.455 . S
C863 C316 1.470 . S
C859 C160 1.473 . S
C877 C206 1.485 . S
C881 C352 1.483 . S
C895 C238 1.515 . S
C899 C386 1.505 . S
C913 C8 1.499 . S
C917 C422 1.487 . S
