# Generated by pormake.
# Topology pyr, (3,6)-cn, num edge types: 1
# Building blocks:
#     Node 0, Type 0, BuildingBlock: BELTOD_clean_linker_0, # of connection points: 3
#     Node 1, Type 0, BuildingBlock: BELTOD_clean_linker_0, # of connection points: 3
#     Node 2, Type 0, BuildingBlock: BELTOD_clean_linker_0, # of connection points: 3
#     Node 3, Type 0, BuildingBlock: BELTOD_clean_linker_0, # of connection points: 3
#     Node 4, Type 0, BuildingBlock: BELTOD_clean_linker_0, # of connection points: 3
#     Node 5, Type 0, BuildingBlock: BELTOD_clean_linker_0, # of connection points: 3
#     Node 6, Type 0, BuildingBlock: BELTOD_clean_linker_0, # of connection points: 3
#     Node 7, Type 0, BuildingBlock: BELTOD_clean_linker_0, # of connection points: 3
#     Node 8, Type 1, BuildingBlock: INOVEN_clean_sbu_0, # of connection points: 6
#     Node 9, Type 1, BuildingBlock: INOVEN_clean_sbu_0, # of connection points: 6
#     Node 10, Type 1, BuildingBlock: INOVEN_clean_sbu_0, # of connection points: 6
#     Node 11, Type 1, BuildingBlock: INOVEN_clean_sbu_0, # of connection points: 6
#     Edge 12, Type (0, 1), BuildingBlock: EZIPEK_clean_linker_0, # of connection points: 2
#     Edge 13, Type (0, 1), BuildingBlock: EZIPEK_clean_linker_0, # of connection points: 2
#     Edge 14, Type (0, 1), BuildingBlock: EZIPEK_clean_linker_0, # of connection points: 2
#     Edge 15, Type (0, 1), BuildingBlock: EZIPEK_clean_linker_0, # of connection points: 2
#     Edge 16, Type (0, 1), BuildingBlock: EZIPEK_clean_linker_0, # of connection points: 2
#     Edge 17, Type (0, 1), BuildingBlock: EZIPEK_clean_linker_0, # of connection points: 2
#     Edge 18, Type (0, 1), BuildingBlock: EZIPEK_clean_linker_0, # of connection points: 2
#     Edge 19, Type (0, 1), BuildingBlock: EZIPEK_clean_linker_0, # of connection points: 2
#     Edge 20, Type (0, 1), BuildingBlock: EZIPEK_clean_linker_0, # of connection points: 2
#     Edge 21, Type (0, 1), BuildingBlock: EZIPEK_clean_linker_0, # of connection points: 2
#     Edge 22, Type (0, 1), BuildingBlock: EZIPEK_clean_linker_0, # of connection points: 2
#     Edge 23, Type (0, 1), BuildingBlock: EZIPEK_clean_linker_0, # of connection points: 2
#     Edge 24, Type (0, 1), BuildingBlock: EZIPEK_clean_linker_0, # of connection points: 2
#     Edge 25, Type (0, 1), BuildingBlock: EZIPEK_clean_linker_0, # of connection points: 2
#     Edge 26, Type (0, 1), BuildingBlock: EZIPEK_clean_linker_0, # of connection points: 2
#     Edge 27, Type (0, 1), BuildingBlock: EZIPEK_clean_linker_0, # of connection points: 2
#     Edge 28, Type (0, 1), BuildingBlock: EZIPEK_clean_linker_0, # of connection points: 2
#     Edge 29, Type (0, 1), BuildingBlock: EZIPEK_clean_linker_0, # of connection points: 2
#     Edge 30, Type (0, 1), BuildingBlock: EZIPEK_clean_linker_0, # of connection points: 2
#     Edge 31, Type (0, 1), BuildingBlock: EZIPEK_clean_linker_0, # of connection points: 2
#     Edge 32, Type (0, 1), BuildingBlock: EZIPEK_clean_linker_0, # of connection points: 2
#     Edge 33, Type (0, 1), BuildingBlock: EZIPEK_clean_linker_0, # of connection points: 2
#     Edge 34, Type (0, 1), BuildingBlock: EZIPEK_clean_linker_0, # of connection points: 2
#     Edge 35, Type (0, 1), BuildingBlock: EZIPEK_clean_linker_0, # of connection points: 2
# Relax obj value: 0.149
# Max RMSD: 0.144
# Mean RMSD: 0.067
data_MOF--net-pyr--node1-INOVEN_clean_sbu_0--node2-BELTOD_clean_linker_0--edge1-EZIPEK_clean_linker_0
_symmetry_space_group_name_H-M    P1
_symmetry_Int_Tables_number       1
_symmetry_cell_setting            triclinic
loop_
_symmetry_equiv_pos_as_xyz
'x, y, z'
_cell_length_a     32.736298
_cell_length_b     35.74538
_cell_length_c     32.302316
_cell_angle_alpha  91.344139
_cell_angle_beta   89.04455
_cell_angle_gamma 102.5519
loop_
_atom_site_label
_atom_site_type_symbol
_atom_site_fract_x
_atom_site_fract_y
_atom_site_fract_z
_atom_type_partial_charge
P0 P 0.36779 0.31682 0.24018 0.0
H1 H 0.44999 0.30677 0.21132 0.0
H2 H 0.47489 0.25035 0.18492 0.0
H3 H 0.35279 0.17909 0.2079 0.0
H4 H 0.32788 0.23484 0.23398 0.0
H5 H 0.3528 0.39296 0.23053 0.0
H6 H 0.3184 0.42048 0.17815 0.0
H7 H 0.31333 0.31809 0.10155 0.0
H8 H 0.3477 0.29189 0.15446 0.0
H9 H 0.35287 0.303 0.32878 0.0
H10 H 0.27926 0.29599 0.21804 0.0
O11 O 0.40379 0.34682 0.26793 0.0
H12 H 0.28922 0.2741 0.3682 0.0
H13 H 0.21647 0.26719 0.25717 0.0
C14 C 0.38728 0.27503 0.22508 0.0
C15 C 0.42885 0.27888 0.2114 0.0
C16 C 0.44307 0.24681 0.19654 0.0
C17 C 0.41571 0.21066 0.19506 0.0
C18 C 0.37442 0.20672 0.20943 0.0
C19 C 0.36025 0.23868 0.22421 0.0
C20 C 0.35448 0.3411 0.19584 0.0
C21 C 0.34641 0.37765 0.20119 0.0
C22 C 0.32685 0.39366 0.17018 0.0
C23 C 0.31531 0.37397 0.13206 0.0
C24 C 0.3239 0.33685 0.12751 0.0
C25 C 0.34358 0.32099 0.15863 0.0
C26 C 0.32076 0.3023 0.27067 0.0
C27 C 0.32305 0.29624 0.31322 0.0
C28 C 0.2869 0.27981 0.33564 0.0
C29 C 0.24839 0.26885 0.31542 0.0
C30 C 0.24594 0.27588 0.27321 0.0
C31 C 0.28187 0.29245 0.25097 0.0
P32 P 0.37983 0.98383 0.53637 0.0
H33 H 0.44596 1.02403 0.59223 0.0
H34 H 0.44922 1.02973 0.66834 0.0
H35 H 0.32355 0.9615 0.67753 0.0
H36 H 0.32 0.9561 0.60195 0.0
H37 H 0.45384 0.95636 0.51014 0.0
H38 H 0.47131 0.89336 0.51534 0.0
H39 H 0.34394 0.84422 0.55139 0.0
H40 H 0.32658 0.90726 0.54721 0.0
H41 H 0.33811 0.04526 0.5565 0.0
H42 H 0.31102 0.93981 0.48431 0.0
O43 O 0.41705 1.01633 0.51332 0.0
H44 H 0.2663 0.05281 0.54709 0.0
H45 H 0.23867 0.94715 0.47559 0.0
C46 C 0.38252 0.99019 0.5916 0.0
C47 C 0.41901 1.01068 0.61063 0.0
C48 C 0.42092 1.01384 0.65384 0.0
C49 C 0.38652 0.99611 0.67814 0.0
C50 C 0.35024 0.97542 0.65907 0.0
C51 C 0.34828 0.97243 0.61606 0.0
C52 C 0.38861 0.93639 0.52716 0.0
C53 C 0.42923 0.93184 0.51765 0.0
C54 C 0.4393 0.896 0.5208 0.0
C55 C 0.40886 0.86435 0.53368 0.0
C56 C 0.36767 0.86836 0.54102 0.0
C57 C 0.35774 0.90429 0.5383 0.0
C58 C 0.32948 0.99147 0.52206 0.0
C59 C 0.31684 1.02394 0.53828 0.0
C60 C 0.27598 1.02825 0.53305 0.0
C61 C 0.24732 1.00023 0.51124 0.0
C62 C 0.26048 0.96878 0.49291 0.0
C63 C 0.3016 0.96456 0.49803 0.0
P64 P 0.66731 0.34556 0.84381 0.0
H65 H 0.74938 0.32974 0.86188 0.0
H66 H 0.80995 0.3634 0.90158 0.0
H67 H 0.74474 0.45242 0.93469 0.0
H68 H 0.68365 0.41865 0.89427 0.0
H69 H 0.5996 0.27806 0.82399 0.0
H70 H 0.56442 0.22212 0.86363 0.0
H71 H 0.63123 0.27071 0.97274 0.0
H72 H 0.66507 0.32732 0.93367 0.0
H73 H 0.69902 0.42004 0.80398 0.0
H74 H 0.58167 0.33767 0.80823 0.0
O75 O 0.68843 0.32062 0.80826 0.0
H76 H 0.67151 0.45505 0.75026 0.0
H77 H 0.55444 0.37226 0.75383 0.0
C78 C 0.71192 0.37192 0.87402 0.0
C79 C 0.74789 0.35664 0.8773 0.0
C80 C 0.78261 0.37578 0.90026 0.0
C81 C 0.78227 0.41059 0.92121 0.0
C82 C 0.74595 0.42565 0.91883 0.0
C83 C 0.71108 0.40643 0.89559 0.0
C84 C 0.63442 0.30809 0.87562 0.0
C85 C 0.60568 0.27759 0.85678 0.0
C86 C 0.58597 0.2451 0.8794 0.0
C87 C 0.59502 0.24156 0.92149 0.0
C88 C 0.62337 0.27231 0.94049 0.0
C89 C 0.64261 0.30504 0.918 0.0
C90 C 0.64235 0.37641 0.81177 0.0
C91 C 0.66692 0.40988 0.7944 0.0
C92 C 0.65129 0.42979 0.76307 0.0
C93 C 0.61067 0.41661 0.74729 0.0
C94 C 0.58579 0.38345 0.76509 0.0
C95 C 0.6014 0.36366 0.79665 0.0
P96 P 0.84599 0.69301 0.33446 0.0
H97 H 0.90054 0.76535 0.30698 0.0
H98 H 0.93257 0.82552 0.34347 0.0
H99 H 0.89294 0.77319 0.4603 0.0
H100 H 0.86128 0.71293 0.42396 0.0
H101 H 0.8166 0.62049 0.28775 0.0
H102 H 0.84882 0.58531 0.23474 0.0
H103 H 0.96628 0.66606 0.25015 0.0
H104 H 0.93407 0.70108 0.3036 0.0
H105 H 0.77614 0.7165 0.37674 0.0
H106 H 0.82401 0.61338 0.36904 0.0
O107 O 0.82021 0.71322 0.30031 0.0
H108 H 0.71768 0.684 0.42018 0.0
H109 H 0.76473 0.58045 0.41247 0.0
C110 C 0.87843 0.73406 0.36239 0.0
C111 C 0.89957 0.76634 0.3405 0.0
C112 C 0.91767 0.80094 0.36138 0.0
C113 C 0.91507 0.80434 0.40482 0.0
C114 C 0.89541 0.77161 0.42686 0.0
C115 C 0.87743 0.73695 0.40596 0.0
C116 C 0.87297 0.66294 0.30133 0.0
C117 C 0.8496 0.63021 0.28072 0.0
C118 C 0.86793 0.61031 0.24979 0.0
C119 C 0.91021 0.62277 0.23784 0.0
C120 C 0.93368 0.65555 0.25845 0.0
C121 C 0.9153 0.67542 0.28952 0.0
C122 C 0.80454 0.66748 0.36895 0.0
C123 C 0.77421 0.68683 0.38441 0.0
C124 C 0.74069 0.66824 0.40936 0.0
C125 C 0.73638 0.6296 0.4198 0.0
C126 C 0.76716 0.61023 0.40502 0.0
C127 C 0.80103 0.62904 0.38005 0.0
P128 P 0.73256 0.83569 0.98909 0.0
H129 H 0.66821 0.85924 0.04031 0.0
H130 H 0.61363 0.89304 1.02273 0.0
H131 H 0.63601 0.87425 0.89274 0.0
H132 H 0.6911 0.84052 0.91027 0.0
H133 H 0.77094 0.78761 0.03967 0.0
H134 H 0.78879 0.72635 1.02314 0.0
H135 H 0.70623 0.71058 0.91851 0.0
H136 H 0.68914 0.77303 0.93438 0.0
H137 H 0.75423 0.91239 0.95459 0.0
H138 H 0.79853 0.8072 0.94251 0.0
O139 O 0.74751 0.85361 0.03597 0.0
H140 H 0.80377 0.94062 0.89988 0.0
H141 H 0.84746 0.8354 0.88824 0.0
C142 C 0.6842 0.84827 0.97656 0.0
C143 C 0.66059 0.86128 1.00807 0.0
C144 C 0.62939 0.88041 0.99808 0.0
C145 C 0.62145 0.88641 0.95653 0.0
C146 C 0.64189 0.86975 0.92495 0.0
C147 C 0.67327 0.85066 0.935 0.0
C148 C 0.72888 0.78493 0.98819 0.0
C149 C 0.75513 0.77039 1.01426 0.0
C150 C 0.76548 0.73545 1.00471 0.0
C151 C 0.74958 0.7146 0.96905 0.0
C152 C 0.71904 0.72663 0.94593 0.0
C153 C 0.7092 0.76214 0.95513 0.0
C154 C 0.77191 0.85741 0.95208 0.0
C155 C 0.77468 0.89549 0.9405 0.0
C156 C 0.8029 0.91162 0.90948 0.0
C157 C 0.82895 0.88991 0.89015 0.0
C158 C 0.82745 0.85244 0.9029 0.0
C159 C 0.79926 0.83634 0.9338 0.0
P160 P 0.88421 0.26758 0.41236 0.0
H161 H 0.88532 0.33632 0.46463 0.0
H162 H 0.82983 0.37034 0.48477 0.0
H163 H 0.73928 0.28452 0.41952 0.0
H164 H 0.79393 0.25043 0.4 0.0
H165 H 0.95328 0.23191 0.43304 0.0
H166 H 0.95614 0.17476 0.47282 0.0
H167 H 0.8251 0.16043 0.50379 0.0
H168 H 0.82219 0.2175 0.46454 0.0
H169 H 0.87811 0.30546 0.33476 0.0
H170 H 0.85401 0.18938 0.37844 0.0
O171 O 0.93003 0.29896 0.40979 0.0
H172 H 0.83866 0.28274 0.27162 0.0
H173 H 0.8147 0.16705 0.3158 0.0
C174 C 0.84388 0.29138 0.43011 0.0
C175 C 0.85349 0.32476 0.45493 0.0
C176 C 0.82199 0.34404 0.46648 0.0
C177 C 0.78077 0.32987 0.4533 0.0
C178 C 0.77102 0.29582 0.42974 0.0
C179 C 0.80229 0.27658 0.41845 0.0
C180 C 0.88778 0.22942 0.44652 0.0
C181 C 0.92544 0.21706 0.44922 0.0
C182 C 0.92706 0.18453 0.47176 0.0
C183 C 0.89088 0.16383 0.49142 0.0
C184 C 0.85336 0.17644 0.4892 0.0
C185 C 0.85182 0.20906 0.46686 0.0
C186 C 0.86915 0.24918 0.36126 0.0
C187 C 0.86583 0.27502 0.33008 0.0
C188 C 0.84318 0.26217 0.29426 0.0
C189 C 0.82356 0.22336 0.28951 0.0
C190 C 0.82964 0.19712 0.31914 0.0
C191 C 0.85224 0.20995 0.35486 0.0
P192 P 0.38316 0.69503 0.21014 0.0
H193 H 0.35954 0.656 0.12998 0.0
H194 H 0.29326 0.62258 0.09987 0.0
H195 H 0.22778 0.64651 0.21079 0.0
H196 H 0.29493 0.67963 0.24164 0.0
H197 H 0.45754 0.75766 0.22281 0.0
H198 H 0.47765 0.82313 0.19605 0.0
H199 H 0.35301 0.81311 0.15007 0.0
H200 H 0.33302 0.7476 0.17628 0.0
H201 H 0.4003 0.6215 0.23272 0.0
H202 H 0.38809 0.72435 0.29923 0.0
O203 O 0.41923 0.68196 0.17923 0.0
H204 H 0.41901 0.59428 0.29671 0.0
H205 H 0.40567 0.69635 0.3643 0.0
C206 C 0.33274 0.67019 0.18855 0.0
C207 C 0.3312 0.654 0.14829 0.0
C208 C 0.29312 0.63486 0.13084 0.0
C209 C 0.25514 0.63176 0.15282 0.0
C210 C 0.25648 0.64827 0.19306 0.0
C211 C 0.29487 0.66724 0.21073 0.0
C212 C 0.39337 0.74727 0.2026 0.0
C213 C 0.434 0.76982 0.20822 0.0
C214 C 0.44568 0.80728 0.19248 0.0
C215 C 0.41707 0.8235 0.17064 0.0
C216 C 0.37585 0.80167 0.16673 0.0
C217 C 0.3643 0.76408 0.18216 0.0
C218 C 0.39297 0.67533 0.26051 0.0
C219 C 0.40128 0.63828 0.26118 0.0
C220 C 0.41204 0.62256 0.29799 0.0
C221 C 0.41423 0.64297 0.33598 0.0
C222 C 0.4046 0.67976 0.3357 0.0
C223 C 0.39436 0.69583 0.29843 0.0
P224 P 0.18209 0.35077 0.73996 0.0
H225 H 0.20649 0.30749 0.66883 0.0
H226 H 0.17245 0.24915 0.63109 0.0
H227 H 0.06 0.24482 0.70359 0.0
H228 H 0.09404 0.30406 0.7411 0.0
H229 H 0.26476 0.39673 0.76217 0.0
H230 H 0.32368 0.43317 0.72171 0.0
H231 H 0.24847 0.41403 0.61192 0.0
H232 H 0.18917 0.37765 0.65258 0.0
H233 H 0.1325 0.32623 0.81526 0.0
H234 H 0.16926 0.43108 0.74807 0.0
O235 O 0.20911 0.3282 0.77052 0.0
H236 H 0.10364 0.36074 0.87133 0.0
H237 H 0.13969 0.4656 0.80399 0.0
C238 C 0.15266 0.31157 0.70712 0.0
C239 C 0.17404 0.29496 0.67592 0.0
C240 C 0.15468 0.26114 0.65452 0.0
C241 C 0.11341 0.24213 0.66412 0.0
C242 C 0.09172 0.25877 0.69517 0.0
C243 C 0.11115 0.2929 0.71651 0.0
C244 C 0.22245 0.38366 0.71051 0.0
C245 C 0.26053 0.40072 0.72952 0.0
C246 C 0.29433 0.42158 0.70637 0.0
C247 C 0.29094 0.42618 0.66353 0.0
C248 C 0.25212 0.41084 0.64483 0.0
C249 C 0.21817 0.39001 0.66811 0.0
C250 C 0.15286 0.37565 0.77675 0.0
C251 C 0.13358 0.35651 0.81197 0.0
C252 C 0.11727 0.37636 0.84433 0.0
C253 C 0.11936 0.41609 0.84248 0.0
C254 C 0.13753 0.43508 0.8066 0.0
C255 C 0.1542 0.4152 0.77432 0.0
Gd256 Gd 1.006 0.0432 0.49417 0.0
Gd257 Gd 1.0035 1.00435 0.57355 0.0
C258 C 0.04034 0.09471 0.57858 0.0
C259 C 1.00106 0.09013 0.43587 0.0
C260 C 0.0321 0.12359 0.42188 0.0
C261 C 0.06745 0.13794 0.44618 0.0
C262 C 0.02945 0.13832 0.38242 0.0
C263 C 0.09897 0.17869 0.39034 0.0
C264 C 0.06281 0.1659 0.36669 0.0
C265 C 0.10068 0.16531 0.43051 0.0
C266 C 0.07555 1.01572 0.50605 0.0
C267 C 0.97604 0.95355 0.49021 0.0
C268 C 1.00352 0.9599 0.63571 0.0
C269 C 0.98405 0.95636 0.67701 0.0
C270 C 0.95442 0.97798 0.68826 0.0
C271 C 0.99178 0.92845 0.70375 0.0
C272 C 0.93785 0.94145 0.75092 0.0
C273 C 0.96882 0.92106 0.74065 0.0
C274 C 0.93134 0.97049 0.72503 0.0
C275 C 0.93516 1.03426 0.55895 0.0
O276 O 0.02957 0.09391 0.53906 0.0
O277 O 0.03578 0.06245 0.59909 0.0
O278 O 1.01191 0.05739 0.42927 0.0
O279 O 0.98553 0.09317 0.47306 0.0
O280 O 0.05828 1.01691 0.47052 0.0
O281 O 0.05682 1.03136 0.53362 0.0
O282 O 0.99787 0.95595 0.52469 0.0
O283 O 0.96733 0.98498 0.47516 0.0
O284 O 0.03301 0.99035 0.62924 0.0
O285 O 0.97723 0.95196 0.60517 0.0
O286 O 0.95313 1.03554 0.59445 0.0
O287 O 0.95396 1.01639 0.53387 0.0
H288 H 0.07033 0.12664 0.47649 0.0
H289 H 1.00254 0.12729 0.36318 0.0
H290 H 0.06133 0.17584 0.33544 0.0
H291 H 0.12856 0.1747 0.44891 0.0
H292 H 0.94795 0.99952 0.66785 0.0
H293 H 1.01438 0.9114 0.69535 0.0
H294 H 0.97395 0.89842 0.76032 0.0
H295 H 0.90736 0.98629 0.73254 0.0
Gd296 Gd 0.53556 0.04245 0.07436 0.0
Gd297 Gd 0.46136 1.03284 1.03247 0.0
C298 C 0.4654 0.08324 0.10971 0.0
C299 C 0.60273 0.06204 0.11833 0.0
C300 C 0.63136 0.0935 0.14016 0.0
C301 C 0.64076 0.0883 0.18154 0.0
C302 C 0.65281 0.12646 0.11963 0.0
C303 C 0.69437 0.14691 0.18094 0.0
C304 C 0.68417 0.15309 0.14 0.0
C305 C 0.67195 0.11482 0.2018 0.0
C306 C 0.48472 0.97212 0.09103 0.0
C307 C 0.53511 0.99814 0.98992 0.0
C308 C 0.39532 1.00859 0.98846 0.0
C309 C 0.39233 1.00665 0.94328 0.0
C310 C 0.35416 0.99177 0.9238 0.0
C311 C 0.42856 1.01983 0.9193 0.0
C312 C 0.38868 1.00302 0.85668 0.0
C313 C 0.42677 1.01791 0.87625 0.0
C314 C 0.35231 0.99003 0.88052 0.0
C315 C 0.51295 0.10171 1.0112 0.0
O316 O 0.50558 0.08927 0.10059 0.0
O317 O 0.4401 0.05333 0.09319 0.0
O318 O 0.56555 0.0497 0.13442 0.0
O319 O 0.60272 0.06214 0.07796 0.0
O320 O 0.52406 0.97822 0.08177 0.0
O321 O 0.473 1.00376 0.08998 0.0
O322 O 0.49462 0.99552 0.99311 0.0
O323 O 0.56004 1.01928 1.01687 0.0
O324 O 0.4053 0.04318 1.00432 0.0
O325 O 0.41689 0.98573 1.0041 0.0
O326 O 0.47307 0.0958 1.01727 0.0
O327 O 0.52438 0.07028 1.0157 0.0
H328 H 0.6249 0.06297 0.19782 0.0
H329 H 0.64624 0.1311 0.08764 0.0
H330 H 0.70117 0.1779 0.12363 0.0
H331 H 0.67944 0.10979 0.23346 0.0
H332 H 0.326 0.98153 0.94197 0.0
H333 H 0.45826 1.03159 0.93395 0.0
H334 H 0.45501 1.02806 0.85817 0.0
H335 H 0.32272 0.97846 0.86562 0.0
Gd336 Gd 0.50895 0.49963 0.51712 0.0
Gd337 Gd 0.51567 0.56592 0.57052 0.0
C338 C 0.54987 0.49799 0.60965 0.0
C339 C 0.52825 0.44452 0.47324 0.0
C340 C 0.56545 0.42798 0.47442 0.0
C341 C 0.56422 0.39098 0.45849 0.0
C342 C 0.6028 0.44957 0.49122 0.0
C343 C 0.63777 0.398 0.47442 0.0
C344 C 0.63879 0.43469 0.49113 0.0
C345 C 0.60029 0.37601 0.4585 0.0
C346 C 0.43757 0.49658 0.56265 0.0
C347 C 0.47257 0.56777 0.47916 0.0
C348 C 0.50014 0.62402 0.61193 0.0
C349 C 0.48575 0.65867 0.60015 0.0
C350 C 0.5124 0.69492 0.6053 0.0
C351 C 0.44597 0.65598 0.58285 0.0
C352 C 0.4599 0.72505 0.57632 0.0
C353 C 0.43312 0.68896 0.57121 0.0
C354 C 0.49967 0.72787 0.59325 0.0
C355 C 0.58684 0.56875 0.52309 0.0
O356 O 0.54866 0.48535 0.57056 0.0
O357 O 0.53507 0.52875 0.61898 0.0
O358 O 0.50346 0.43858 0.50559 0.0
O359 O 0.53528 0.47993 0.46111 0.0
O360 O 0.43866 0.48555 0.52411 0.0
O361 O 0.47473 0.50789 0.5755 0.0
O362 O 0.47836 0.5828 0.51705 0.0
O363 O 0.48347 0.53493 0.47026 0.0
O364 O 0.5378 0.62191 0.59953 0.0
O365 O 0.47317 0.59132 0.60805 0.0
O366 O 0.58634 0.57971 0.56168 0.0
O367 O 0.54929 0.55737 0.51176 0.0
H368 H 0.53562 0.37397 0.44558 0.0
H369 H 0.6043 0.47823 0.50374 0.0
H370 H 0.66757 0.45197 0.50339 0.0
H371 H 0.59925 0.34766 0.44536 0.0
H372 H 0.54316 0.69775 0.61849 0.0
H373 H 0.42471 0.62846 0.57821 0.0
H374 H 0.40231 0.68638 0.55822 0.0
H375 H 0.52063 0.75561 0.59746 0.0
Gd376 Gd 1.01646 0.47899 0.0662 0.0
Gd377 Gd 1.01706 0.55774 1.01808 0.0
C378 C 0.09601 0.5539 0.0751 0.0
C379 C 0.03802 0.41612 0.08258 0.0
C380 C 0.07942 0.40665 0.07823 0.0
C381 C 0.09276 0.38402 0.10787 0.0
C382 C 0.10797 0.42462 0.04797 0.0
C383 C 0.16317 0.39934 0.07872 0.0
C384 C 0.14954 0.4208 0.04808 0.0
C385 C 0.13444 0.38035 0.1081 0.0
C386 C 0.97936 0.52795 0.11382 0.0
C387 C 0.93699 0.48356 1.00816 0.0
C388 C 0.99687 0.62027 0.99766 0.0
C389 C 0.95688 0.62725 0.9836 0.0
C390 C 0.9295 0.59936 0.95985 0.0
C391 C 0.94446 0.66075 0.99656 0.0
C392 C 0.87765 0.63837 0.96282 0.0
C393 C 0.90509 0.66631 0.98615 0.0
C394 C 0.89005 0.60495 0.94942 0.0
C395 C 0.05518 0.50849 0.97165 0.0
O396 O 0.08257 0.51589 0.07507 0.0
O397 O 0.07401 0.57658 0.05813 0.0
O398 O 0.03601 0.44254 0.1109 0.0
O399 O 1.01934 0.4209 0.04803 0.0
O400 O 0.98278 0.49407 0.12516 0.0
O401 O 0.99463 0.53202 0.07745 0.0
O402 O 0.95342 0.52048 1.00202 0.0
O403 O 0.95545 0.46151 1.03097 0.0
O404 O 1.01584 0.60045 0.97215 0.0
O405 O 0.99708 0.60974 0.0362 0.0
O406 O 0.05316 0.54267 0.96033 0.0
O407 O 0.03855 0.50451 1.00732 0.0
H408 H 0.07139 0.37047 0.1318 0.0
H409 H 0.09858 0.44285 1.02526 0.0
H410 H 0.17142 0.43569 1.02528 0.0
H411 H 0.14462 0.36374 0.13195 0.0
H412 H 0.93839 0.57312 0.94974 0.0
H413 H 0.96497 0.6823 1.01522 0.0
H414 H 0.89581 0.69232 0.99656 0.0
H415 H 0.86918 0.58326 0.93126 0.0
C416 C 0.1808 0.26504 0.35461 0.0
C417 C 0.21118 0.24633 0.33699 0.0
C418 C 0.16672 0.18356 0.35208 0.0
C419 C 0.1372 0.20228 0.37147 0.0
N420 N 0.11743 0.25996 0.39632 0.0
N421 N 0.23656 0.18867 0.32333 0.0
C422 C 0.1446 0.24284 0.37422 0.0
C423 C 0.20517 0.2058 0.33709 0.0
N424 N 0.18625 0.30393 0.3517 0.0
N425 N 0.15739 0.1445 0.34704 0.0
H426 H 0.26463 0.20381 0.31062 0.0
H427 H 0.23627 0.15978 0.32705 0.0
H428 H 0.13007 0.12701 0.35864 0.0
H429 H 0.17516 0.12938 0.32896 0.0
H430 H 0.16332 0.319 0.35965 0.0
H431 H 0.2132 0.32115 0.33903 0.0
H432 H 0.12311 0.28917 0.40338 0.0
H433 H 0.09003 0.24448 0.41002 0.0
C434 C 0.40036 0.96891 0.74578 0.0
C435 C 0.38827 0.99859 0.72384 0.0
C436 C 0.37812 1.03204 0.78898 0.0
C437 C 0.38732 1.00103 0.81094 0.0
N438 N 0.40242 0.93798 0.81157 0.0
N439 N 0.36093 0.056 0.7233 0.0
C440 C 0.39713 0.96887 0.7897 0.0
C441 C 0.37587 1.02956 0.74509 0.0
N442 N 0.41573 0.94127 0.72456 0.0
N443 N 0.37259 0.06422 0.81011 0.0
H444 H 0.36007 0.05577 0.69102 0.0
H445 H 0.34684 0.07669 0.73705 0.0
H446 H 0.37277 0.0666 0.84236 0.0
H447 H 0.37061 0.08956 0.79584 0.0
H448 H 0.42932 0.9212 0.73872 0.0
H449 H 0.41773 0.93998 0.69231 0.0
H450 H 0.40512 0.91195 0.79793 0.0
H451 H 0.40113 0.93729 0.84384 0.0
C452 C 0.56014 0.45461 0.71728 0.0
C453 C 0.59479 0.43683 0.71158 0.0
C454 C 0.60217 0.46083 0.63955 0.0
C455 C 0.56527 0.4759 0.6442 0.0
N456 N 0.50276 0.47562 0.68531 0.0
N457 N 0.64258 0.41598 0.6633 0.0
C458 C 0.54256 0.46962 0.68252 0.0
C459 C 0.61398 0.43797 0.67153 0.0
N460 N 0.54445 0.45827 0.75624 0.0
N461 N 0.62722 0.46943 0.60535 0.0
H462 H 0.65156 0.39854 0.68531 0.0
H463 H 0.65417 0.41202 0.63366 0.0
H464 H 0.62048 0.48608 0.58153 0.0
H465 H 0.65669 0.463 0.60234 0.0
H466 H 0.52228 0.47457 0.76297 0.0
H467 H 0.55651 0.44821 0.78243 0.0
H468 H 0.48329 0.46792 0.71097 0.0
H469 H 0.48722 0.48369 0.66027 0.0
C470 C 0.96051 0.58029 0.21543 0.0
C471 C 0.92994 0.60103 0.20457 0.0
C472 C 0.93303 0.57618 0.13213 0.0
C473 C 0.96519 0.55707 0.14281 0.0
N474 N 1.01709 0.5506 0.1926 0.0
N475 N 0.89322 0.6246 0.15033 0.0
C476 C 0.98104 0.56203 0.1839 0.0
C477 C 0.91807 0.6007 0.16218 0.0
N478 N 0.96889 0.5765 0.25624 0.0
N479 N 0.91531 0.56962 0.09394 0.0
H480 H 0.88191 0.64278 0.17118 0.0
H481 H 0.88685 0.6289 0.11954 0.0
H482 H 0.92555 0.55234 0.07138 0.0
H483 H 0.88872 0.57906 0.08559 0.0
H484 H 0.98715 0.5581 0.2664 0.0
H485 H 0.95448 0.58893 0.28032 0.0
H486 H 0.03275 0.55688 0.22057 0.0
H487 H 0.03398 0.5388 0.17014 0.0
C488 C 0.41621 0.16857 0.13248 0.0
C489 C 0.42845 0.17761 0.17398 0.0
C490 C 0.46365 0.1236 0.17425 0.0
C491 C 0.44901 0.11304 0.13351 0.0
N492 N 0.40401 0.12133 0.07706 0.0
N493 N 0.45886 0.16175 0.23676 0.0
C494 C 0.42291 0.13412 0.11368 0.0
C495 C 0.45084 0.15457 0.19559 0.0
N496 N 0.39952 0.19374 0.11039 0.0
N497 N 0.48988 0.10402 0.19246 0.0
H498 H 0.45067 0.1847 0.25294 0.0
H499 H 0.47106 0.14372 0.25558 0.0
H500 H 0.49708 0.07926 0.17933 0.0
H501 H 0.50591 0.11309 0.2197 0.0
H502 H 0.39506 0.19128 0.07851 0.0
H503 H 0.39364 0.21919 0.12305 0.0
H504 H 0.38084 0.13307 0.06407 0.0
H505 H 0.40816 0.09685 0.06124 0.0
C506 C 0.19143 1.02902 0.4815 0.0
C507 C 0.20304 1.00337 0.50948 0.0
C508 C 0.13084 0.98562 0.5357 0.0
C509 C 0.11982 1.01296 0.50936 0.0
N510 N 0.14191 0.06776 0.46559 0.0
N511 N 0.18633 0.96195 0.56809 0.0
C512 C 0.15074 1.03665 0.48451 0.0
C513 C 0.17345 0.98295 0.53801 0.0
N514 N 0.21911 0.04562 0.45161 0.0
N515 N 0.10046 0.96146 0.55761 0.0
H516 H 0.21712 0.95868 0.5703 0.0
H517 H 0.16735 0.95006 0.59271 0.0
H518 H 0.06924 0.96355 0.55796 0.0
H519 H 0.10564 0.93787 0.57337 0.0
H520 H 0.2109 0.0613 0.42752 0.0
H521 H 0.24942 0.04096 0.44877 0.0
H522 H 0.16435 0.08815 0.45037 0.0
H523 H 0.1132 0.07568 0.46899 0.0
C524 C 0.8548 0.45403 0.92233 0.0
C525 C 0.82067 0.43139 0.94438 0.0
C526 C 0.86079 0.44674 1.0092 0.0
C527 C 0.89659 0.46584 0.98642 0.0
N528 N 0.92912 0.48253 0.9197 0.0
N529 N 0.79269 0.40266 1.00837 0.0
C530 C 0.89386 0.46831 0.94256 0.0
C531 C 0.82412 0.42682 0.98775 0.0
N532 N 0.84967 0.46257 0.88197 0.0
N533 N 0.86108 0.44907 0.05148 0.0
H534 H 0.76509 0.38857 0.99407 0.0
H535 H 0.79514 0.39446 0.03879 0.0
H536 H 0.88677 0.46397 0.06816 0.0
H537 H 0.8347 0.43935 0.06995 0.0
H538 H 0.87143 0.48252 0.86548 0.0
H539 H 0.82193 0.45225 0.86599 0.0
H540 H 0.93029 0.48084 0.8875 0.0
H541 H 0.95839 0.49295 0.93271 0.0
C542 C 0.6581 0.60373 0.42742 0.0
C543 C 0.69857 0.60976 0.4448 0.0
C544 C 0.66583 0.58118 0.50954 0.0
C545 C 0.62491 0.58101 0.49457 0.0
N546 N 0.58465 0.60053 0.43947 0.0
N547 N 0.74055 0.60833 0.50498 0.0
C548 C 0.62164 0.59418 0.45341 0.0
C549 C 0.70231 0.59944 0.48654 0.0
N550 N 0.65429 0.60669 0.38562 0.0
N551 N 0.67018 0.56274 0.54523 0.0
H552 H 0.76786 0.62137 0.48932 0.0
H553 H 0.74458 0.60569 0.53662 0.0
H554 H 0.64481 0.54836 0.56262 0.0
H555 H 0.6988 0.55829 0.55524 0.0
H556 H 0.6258 0.59849 0.37042 0.0
H557 H 0.68008 0.61342 0.36562 0.0
H558 H 0.58208 0.61419 0.4118 0.0
H559 H 0.55745 0.59663 0.45708 0.0
C560 C 0.26537 0.36538 0.07046 0.0
C561 C 0.28825 0.38926 0.1015 0.0
C562 C 0.23617 0.42892 0.10204 0.0
C563 C 0.20806 0.39844 0.08161 0.0
N564 N 0.19727 0.33936 0.04136 0.0
N565 N 0.30898 0.45662 0.11695 0.0
C566 C 0.22316 0.36732 0.06382 0.0
C567 C 0.27796 0.42538 0.10836 0.0
N568 N 0.28571 0.34578 0.04337 0.0
N569 N 0.22264 0.4602 0.11711 0.0
H570 H 0.34028 0.45443 0.1177 0.0
H571 H 0.30421 0.48451 0.11869 0.0
H572 H 0.19236 0.46409 0.11267 0.0
H573 H 0.24087 0.48112 0.13605 0.0
H574 H 0.27134 0.33042 1.01776 0.0
H575 H 0.31827 0.34965 0.04375 0.0
H576 H 0.20594 0.31418 1.03146 0.0
H577 H 0.16653 0.34058 0.03458 0.0
C578 C 0.58275 0.16909 0.93284 0.0
C579 C 0.5754 0.2056 0.94534 0.0
C580 C 0.53372 0.17428 1.00469 0.0
C581 C 0.53691 0.13724 0.98935 0.0
N582 N 0.55643 0.10023 0.93174 0.0
N583 N 0.53642 0.24099 0.98941 0.0
C584 C 0.55943 0.13485 0.95158 0.0
C585 C 0.54889 0.20762 0.98034 0.0
N586 N 0.61292 0.16696 0.90371 0.0
N587 N 0.51703 0.17795 0.04324 0.0
H588 H 0.54575 0.26563 0.97196 0.0
H589 H 0.51355 0.24314 1.01162 0.0
H590 H 0.50613 0.15468 0.06228 0.0
H591 H 0.51779 0.20433 0.05797 0.0
H592 H 0.62258 0.14164 0.89644 0.0
H593 H 0.63125 0.19112 0.88994 0.0
H594 H 0.56868 0.09736 0.90214 0.0
H595 H 0.53782 0.07487 0.94261 0.0
C596 C 0.90235 0.86445 0.44228 0.0
C597 C 0.93104 0.84253 0.42697 0.0
C598 C 0.98957 0.89445 0.45085 0.0
C599 C 0.96072 0.91503 0.46874 0.0
N600 N 0.88967 0.91495 0.48919 0.0
N601 N 1.00197 0.8342 0.42217 0.0
C602 C 0.9171 0.89874 0.46644 0.0
C603 C 0.97469 0.85693 0.4328 0.0
N604 N 0.86091 0.85309 0.43281 0.0
N605 N 0.03125 0.9113 0.44986 0.0
H606 H 0.99233 0.80698 0.40864 0.0
H607 H 0.03356 0.84089 0.42966 0.0
H608 H 0.04332 0.93824 0.46306 0.0
H609 H 0.0535 0.90003 0.43331 0.0
H610 H 0.83916 0.86993 0.43892 0.0
H611 H 0.84881 0.82822 0.41557 0.0
H612 H 0.85796 0.90247 0.49237 0.0
H613 H 0.89942 0.93886 0.50854 0.0
C614 C 0.42592 0.8198 0.58635 0.0
C615 C 0.42128 0.82826 0.54415 0.0
C616 C 0.44346 0.76933 0.52261 0.0
C617 C 0.44584 0.76015 0.56494 0.0
N618 N 0.43641 0.77517 0.63741 0.0
N619 N 0.41941 0.80884 0.47215 0.0
C620 C 0.43603 0.78485 0.59673 0.0
C621 C 0.42836 0.80237 0.51221 0.0
N622 N 0.42114 0.84472 0.61774 0.0
N623 N 0.45725 0.74732 0.49251 0.0
H624 H 0.40872 0.83294 0.4635 0.0
H625 H 0.41949 0.7891 0.44797 0.0
H626 H 0.46848 0.72295 0.49896 0.0
H627 H 0.4606 0.75465 0.46145 0.0
H628 H 0.4147 0.87172 0.6136 0.0
H629 H 0.4147 0.87172 0.6136 0.0
H630 H 0.42944 0.79279 0.66155 0.0
H631 H 0.44232 0.7492 0.64694 0.0
C632 C 0.84262 0.89341 0.81389 0.0
C633 C 0.85603 0.90528 0.85457 0.0
C634 C 0.92106 0.94469 0.82685 0.0
C635 C 0.90941 0.92977 0.78667 0.0
N636 N 0.86185 0.88668 0.7418 0.0
N637 N 0.90906 0.93892 0.90103 0.0
C638 C 0.87087 0.90328 0.78011 0.0
C639 C 0.89551 0.93019 0.86144 0.0
N640 N 0.80246 0.8735 0.80753 0.0
N641 N 0.95614 0.97315 0.83173 0.0
H642 H 0.8908 0.92936 0.92705 0.0
H643 H 0.93931 0.95343 0.90826 0.0
H644 H 0.97593 0.98383 0.80709 0.0
H645 H 0.96405 0.98816 0.85948 0.0
H646 H 0.78932 0.86764 0.77833 0.0
H647 H 0.78089 0.8655 0.83159 0.0
H648 H 0.83671 0.86382 0.73615 0.0
H649 H 0.88124 0.89379 0.71593 0.0
C650 C 0.80326 0.18912 0.222 0.0
C651 C 0.7925 0.21037 0.25648 0.0
C652 C 0.72009 0.19929 0.23267 0.0
C653 C 0.72938 0.17302 0.20237 0.0
N654 N 0.77902 0.14142 0.16814 0.0
N655 N 0.74045 0.23433 0.29678 0.0
C656 C 0.77093 0.16792 0.19655 0.0
C657 C 0.75095 0.21562 0.26211 0.0
N658 N 0.8444 0.18941 0.2137 0.0
N659 N 0.68168 0.2085 0.23316 0.0
H660 H 0.76212 0.24715 0.31896 0.0
H661 H 0.70976 0.23499 0.30514 0.0
H662 H 0.65842 0.19675 0.21197 0.0
H663 H 0.67417 0.23021 0.25187 0.0
H664 H 0.85481 0.17747 0.1869 0.0
H665 H 0.86862 0.20463 0.23206 0.0
H666 H 0.80749 0.133 0.16581 0.0
H667 H 0.75636 0.12604 0.14825 0.0
C668 C 0.40294 0.59028 0.39043 0.0
C669 C 0.42709 0.62553 0.37529 0.0
C670 C 0.47555 0.62688 0.43396 0.0
C671 C 0.45503 0.58891 0.44534 0.0
N672 N 0.39873 0.53414 0.43282 0.0
N673 N 0.49097 0.6739 0.37962 0.0
C674 C 0.41872 0.57053 0.42289 0.0
C675 C 0.46441 0.64301 0.39652 0.0
N676 N 0.36379 0.57644 0.37506 0.0
N677 N 0.50579 0.64809 0.45873 0.0
H678 H 0.48493 0.68606 0.35199 0.0
H679 H 0.52093 0.68508 0.39073 0.0
H680 H 0.5166 0.63783 0.48534 0.0
H681 H 0.51777 0.67728 0.45475 0.0
H682 H 0.34264 0.5532 0.38735 0.0
H683 H 0.35076 0.59054 0.3525 0.0
H684 H 0.37587 0.51709 0.41442 0.0
H685 H 0.40628 0.52019 0.45866 0.0
C686 C 0.06016 0.42991 0.88946 0.0
C687 C 0.10346 0.43774 0.87842 0.0
C688 C 0.11609 0.48903 0.93284 0.0
C689 C 0.07304 0.48026 0.94474 0.0
N690 N 1.00656 0.43578 0.94065 0.0
N691 N 0.17387 0.46907 0.89664 0.0
C692 C 0.04598 0.44849 0.92511 0.0
C693 C 0.13176 0.46573 0.90218 0.0
N694 N 0.032 0.40618 0.86459 0.0
N695 N 0.14219 0.52 0.95076 0.0
H696 H 0.18646 0.45225 0.87525 0.0
H697 H 0.19626 0.48589 0.91569 0.0
H698 H 0.13276 0.5356 0.97545 0.0
H699 H 0.17245 0.53122 0.94004 0.0
H700 H 0.99972 0.4026 0.86811 0.0
H701 H 0.04078 0.39273 0.83793 0.0
H702 H 0.98644 0.41062 0.93056 0.0
H703 H 0.99564 0.44842 0.96663 0.0
C704 C 0.61939 0.95471 0.94591 0.0
C705 C 0.5976 0.91577 0.94722 0.0
C706 C 0.53082 0.93572 0.95043 0.0
C707 C 0.55312 0.97337 0.96028 0.0
N708 N 0.61476 1.02173 0.94702 0.0
N709 N 0.53302 0.86829 0.94618 0.0
C710 C 0.59636 0.98385 0.95101 0.0
C711 C 0.5533 0.90596 0.94715 0.0
N712 N 0.66214 0.96358 0.94313 0.0
N713 N 0.48899 0.92887 0.94265 0.0
H714 H 0.54891 0.8461 0.94204 0.0
H715 H 0.50093 0.85909 0.95119 0.0
H716 H 0.47319 0.95103 0.93986 0.0
H717 H 0.47143 0.90223 0.93327 0.0
H718 H 0.6803 0.99114 0.94697 0.0
H719 H 0.67993 0.94294 0.93822 0.0
H720 H 0.64565 1.03187 0.93759 0.0
H721 H 0.59738 0.04294 0.94952 0.0
C722 C 0.89615 0.12574 0.5548 0.0
C723 C 0.89158 0.12706 0.51127 0.0
C724 C 0.89539 0.05962 0.50436 0.0
C725 C 0.9087 0.06099 0.54593 0.0
N726 N 0.8998 0.08631 0.61434 0.0
N727 N 0.8832 0.09501 0.44438 0.0
C728 C 0.90222 0.0913 0.57253 0.0
C729 C 0.88931 0.09365 0.48605 0.0
N730 N 0.89689 0.15792 0.57873 0.0
N731 N 0.88666 1.0253 0.48335 0.0
H732 H 0.8765 0.11886 0.43018 0.0
H733 H 0.88678 0.07328 0.42352 0.0
H734 H 0.88704 0.99968 0.49793 0.0
H735 H 0.87415 1.02147 0.45376 0.0
H736 H 0.90502 0.16028 0.60984 0.0
H737 H 0.89174 0.18335 0.5668 0.0
H738 H 0.89274 0.10643 0.63551 0.0
H739 H 0.89924 0.0598 0.6274 0.0
C740 C 0.19983 0.62609 0.09705 0.0
C741 C 0.21432 0.61144 0.13323 0.0
C742 C 0.15044 0.55968 0.13305 0.0
C743 C 0.1379 0.57218 0.09442 0.0
N744 N 0.15904 0.61157 0.03464 0.0
N745 N 0.20758 0.55863 0.17969 0.0
C746 C 0.16498 0.60382 0.07504 0.0
C747 C 0.19083 0.57656 0.14943 0.0
N748 N 0.21857 0.66191 0.08409 0.0
N749 N 0.12332 0.53307 0.15556 0.0
H750 H 0.23699 0.56973 0.19224 0.0
H751 H 0.19415 0.53101 0.18932 0.0
H752 H 0.09323 0.52036 0.14611 0.0
H753 H 0.12922 0.52637 0.18579 0.0
H754 H 0.20662 0.67563 0.06048 0.0
H755 H 0.24352 0.67944 0.09963 0.0
H756 H 0.18014 0.63191 1.0179 0.0
H757 H 0.13603 0.59462 1.01629 0.0
C758 C 0.33268 0.48247 0.62269 0.0
C759 C 0.32883 0.44486 0.63809 0.0
C760 C 0.3987 0.44339 0.60854 0.0
C761 C 0.40106 0.4797 0.59034 0.0
N762 N 0.36838 0.5321 0.57614 0.0
N763 N 0.35539 0.38714 0.64021 0.0
C764 C 0.36743 0.49872 0.59633 0.0
C765 C 0.36124 0.42479 0.62968 0.0
N766 N 0.30374 0.50317 0.63439 0.0
N767 N 0.43243 0.42659 0.60588 0.0
H768 H 0.32853 0.37241 0.65541 0.0
H769 H 0.37535 0.36943 0.63086 0.0
H770 H 0.45951 0.43796 0.589 0.0
H771 H 0.43496 0.40282 0.62287 0.0
H772 H 0.3068 0.53208 0.62813 0.0
H773 H 0.27796 0.49216 0.65326 0.0
H774 H 0.34307 0.54533 0.57516 0.0
H775 H 0.39381 0.54544 0.55797 0.0
C776 C 0.80312 0.69348 0.92338 0.0
C777 C 0.77076 0.68425 0.95376 0.0
C778 C 0.80177 0.63325 0.97971 0.0
C779 C 0.83622 0.6454 0.95248 0.0
N780 N 0.86309 0.67588 0.88927 0.0
N781 N 0.73139 0.63846 1.00043 0.0
C782 C 0.83427 0.67148 0.92084 0.0
C783 C 0.76723 0.65127 0.97804 0.0
N784 N 0.80633 0.7252 0.89969 0.0
N785 N 0.80349 0.60646 1.00873 0.0
H786 H 0.70607 0.65184 0.99925 0.0
H787 H 0.72536 0.61313 1.01691 0.0
H788 H 0.82799 0.5921 1.0097 0.0
H789 H 0.78158 0.59941 1.03258 0.0
H790 H 0.83239 0.73632 0.88134 0.0
H791 H 0.78378 0.74171 0.89963 0.0
H792 H 0.86146 0.69213 0.86326 0.0
H793 H 0.88641 0.66007 0.88736 0.0
C794 C 0.44194 0.86348 0.10679 0.0
C795 C 0.43104 0.86208 0.14968 0.0
C796 C 0.44764 0.93346 0.15259 0.0
C797 C 0.46178 0.93478 0.11045 0.0
N798 N 0.47418 0.90056 0.04798 0.0
N799 N 0.42549 0.89555 0.2142 0.0
C800 C 0.4592 0.89956 0.08781 0.0
C801 C 0.43419 0.89711 0.17264 0.0
N802 N 0.43528 0.83009 0.08386 0.0
N803 N 0.44732 0.96696 0.17375 0.0
H804 H 0.414 0.86986 0.22933 0.0
H805 H 0.43163 0.91917 0.23433 0.0
H806 H 0.45928 0.99391 0.16166 0.0
H807 H 0.43309 0.96844 0.20259 0.0
H808 H 0.43742 0.82889 0.05171 0.0
H809 H 0.42491 0.80316 0.09674 0.0
H810 H 0.47913 0.87664 1.03133 0.0
H811 H 0.48355 0.92592 1.0318 0.0
C812 C 0.06023 0.20163 0.6146 0.0
C813 C 0.09391 0.20427 0.64257 0.0
C814 C 0.09599 0.13702 0.62413 0.0
C815 C 0.0591 0.13283 0.60005 0.0
N816 N 1.00224 0.16079 0.57843 0.0
N817 N 0.13854 0.17143 0.67957 0.0
C818 C 0.04027 0.16513 0.59685 0.0
C819 C 0.11018 0.17103 0.64892 0.0
N820 N 0.04801 0.23424 0.60381 0.0
N821 N 0.11914 0.10949 0.6216 0.0
H822 H 0.14931 0.19535 0.69869 0.0
H823 H 0.14817 0.14697 0.68866 0.0
H824 H 0.11153 0.08536 0.60216 0.0
H825 H 0.14844 0.11274 0.63506 0.0
H826 H 0.0271 0.23504 0.58007 0.0
H827 H 0.06166 0.26126 0.616 0.0
H828 H 0.98504 0.18211 0.57876 0.0
H829 H 0.98588 0.13473 0.56627 0.0
C830 C 0.73962 0.37715 0.43195 0.0
C831 C 0.74761 0.35136 0.46192 0.0
C832 C 0.68747 0.36137 0.50353 0.0
C833 C 0.67672 0.38346 0.47119 0.0
N834 N 0.69024 0.4111 0.40359 0.0
N835 N 0.72904 0.31684 0.52507 0.0
C836 C 0.70235 0.39126 0.43521 0.0
C837 C 0.72169 0.34311 0.49763 0.0
N838 N 0.76797 0.38833 0.40062 0.0
N839 N 0.66523 0.35832 0.53997 0.0
H840 H 0.75479 0.30406 0.52248 0.0
H841 H 0.7086 0.30607 0.5491 0.0
H842 H 0.63945 0.37072 0.54491 0.0
H843 H 0.67397 0.346 0.56636 0.0
H844 H 0.76635 0.41007 0.38024 0.0
H845 H 0.79526 0.37797 0.39686 0.0
H846 H 0.70467 0.41381 0.37454 0.0
H847 H 0.66387 0.42305 0.40537 0.0
loop_
_geom_bond_atom_site_label_1
_geom_bond_atom_site_label_2
_geom_bond_distance
_geom_bond_site_symmetry_2
_ccdc_geom_bond_type
P0 O11 1.490 . S
P0 C14 1.812 . S
P0 C20 1.803 . S
P0 C26 1.819 . S
H1 C15 0.941 . S
H2 C16 0.939 . S
H3 C18 0.940 . S
H4 C19 0.940 . S
H5 C21 0.939 . S
H6 C22 0.942 . S
H7 C24 0.940 . S
H8 C25 0.939 . S
H9 C27 0.941 . S
H10 C31 0.939 . S
O11 P0 1.490 . S
H12 C28 0.939 . S
H13 C30 0.940 . S
C14 P0 1.812 . S
C14 C15 1.389 . S
C14 C19 1.391 . S
C15 H1 0.941 . S
C15 C14 1.389 . S
C15 C16 1.397 . S
C16 H2 0.939 . S
C16 C15 1.397 . S
C16 C17 1.378 . S
C17 C16 1.378 . S
C17 C18 1.378 . S
C18 H3 0.940 . S
C18 C17 1.378 . S
C18 C19 1.396 . S
C19 H4 0.940 . S
C19 C14 1.391 . S
C19 C18 1.396 . S
C20 P0 1.803 . S
C20 C21 1.378 . S
C20 C25 1.400 . S
C21 H5 0.939 . S
C21 C20 1.378 . S
C21 C22 1.361 . S
C22 H6 0.942 . S
C22 C21 1.361 . S
C22 C23 1.369 . S
C23 C22 1.369 . S
C23 C24 1.404 . S
C24 H7 0.940 . S
C24 C23 1.404 . S
C24 C25 1.389 . S
C25 H8 0.939 . S
C25 C20 1.400 . S
C25 C24 1.389 . S
C26 P0 1.819 . S
C26 C27 1.391 . S
C26 C31 1.391 . S
C27 H9 0.941 . S
C27 C26 1.391 . S
C27 C28 1.396 . S
C28 H12 0.939 . S
C28 C27 1.396 . S
C28 C29 1.397 . S
C29 C28 1.397 . S
C29 C30 1.385 . S
C30 H13 0.940 . S
C30 C29 1.385 . S
C30 C31 1.388 . S
C31 H10 0.939 . S
C31 C26 1.391 . S
C31 C30 1.388 . S
P32 O43 1.490 . S
P32 C46 1.812 . S
P32 C52 1.803 . S
P32 C58 1.819 . S
H33 C47 0.941 . S
H34 C48 0.939 . S
H35 C50 0.940 . S
H36 C51 0.940 . S
H37 C53 0.939 . S
H38 C54 0.942 . S
H39 C56 0.940 . S
H40 C57 0.939 . S
H41 C59 0.941 . S
H42 C63 0.939 . S
O43 P32 1.490 . S
H44 C60 0.939 . S
H45 C62 0.940 . S
C46 P32 1.812 . S
C46 C47 1.389 . S
C46 C51 1.391 . S
C47 H33 0.941 . S
C47 C46 1.389 . S
C47 C48 1.397 . S
C48 H34 0.939 . S
C48 C47 1.397 . S
C48 C49 1.378 . S
C49 C48 1.378 . S
C49 C50 1.378 . S
C50 H35 0.940 . S
C50 C49 1.378 . S
C50 C51 1.396 . S
C51 H36 0.940 . S
C51 C46 1.391 . S
C51 C50 1.396 . S
C52 P32 1.803 . S
C52 C53 1.378 . S
C52 C57 1.400 . S
C53 H37 0.939 . S
C53 C52 1.378 . S
C53 C54 1.361 . S
C54 H38 0.942 . S
C54 C53 1.361 . S
C54 C55 1.369 . S
C55 C54 1.369 . S
C55 C56 1.404 . S
C56 H39 0.940 . S
C56 C55 1.404 . S
C56 C57 1.389 . S
C57 H40 0.939 . S
C57 C52 1.400 . S
C57 C56 1.389 . S
C58 P32 1.819 . S
C58 C59 1.391 . S
C58 C63 1.391 . S
C59 H41 0.941 . S
C59 C58 1.391 . S
C59 C60 1.396 . S
C60 H44 0.939 . S
C60 C59 1.396 . S
C60 C61 1.397 . S
C61 C60 1.397 . S
C61 C62 1.385 . S
C62 H45 0.940 . S
C62 C61 1.385 . S
C62 C63 1.388 . S
C63 H42 0.939 . S
C63 C58 1.391 . S
C63 C62 1.388 . S
P64 O75 1.490 . S
P64 C78 1.812 . S
P64 C84 1.803 . S
P64 C90 1.819 . S
H65 C79 0.941 . S
H66 C80 0.939 . S
H67 C82 0.940 . S
H68 C83 0.940 . S
H69 C85 0.939 . S
H70 C86 0.942 . S
H71 C88 0.940 . S
H72 C89 0.939 . S
H73 C91 0.941 . S
H74 C95 0.939 . S
O75 P64 1.490 . S
H76 C92 0.939 . S
H77 C94 0.940 . S
C78 P64 1.812 . S
C78 C79 1.389 . S
C78 C83 1.391 . S
C79 H65 0.941 . S
C79 C78 1.389 . S
C79 C80 1.397 . S
C80 H66 0.939 . S
C80 C79 1.397 . S
C80 C81 1.378 . S
C81 C80 1.378 . S
C81 C82 1.378 . S
C82 H67 0.940 . S
C82 C81 1.378 . S
C82 C83 1.396 . S
C83 H68 0.940 . S
C83 C78 1.391 . S
C83 C82 1.396 . S
C84 P64 1.803 . S
C84 C85 1.378 . S
C84 C89 1.400 . S
C85 H69 0.939 . S
C85 C84 1.378 . S
C85 C86 1.361 . S
C86 H70 0.942 . S
C86 C85 1.361 . S
C86 C87 1.369 . S
C87 C86 1.369 . S
C87 C88 1.404 . S
C88 H71 0.940 . S
C88 C87 1.404 . S
C88 C89 1.389 . S
C89 H72 0.939 . S
C89 C84 1.400 . S
C89 C88 1.389 . S
C90 P64 1.819 . S
C90 C91 1.391 . S
C90 C95 1.391 . S
C91 H73 0.941 . S
C91 C90 1.391 . S
C91 C92 1.396 . S
C92 H76 0.939 . S
C92 C91 1.396 . S
C92 C93 1.397 . S
C93 C92 1.397 . S
C93 C94 1.385 . S
C94 H77 0.940 . S
C94 C93 1.385 . S
C94 C95 1.388 . S
C95 H74 0.939 . S
C95 C90 1.391 . S
C95 C94 1.388 . S
P96 O107 1.490 . S
P96 C110 1.812 . S
P96 C116 1.803 . S
P96 C122 1.819 . S
H97 C111 0.941 . S
H98 C112 0.939 . S
H99 C114 0.940 . S
H100 C115 0.940 . S
H101 C117 0.939 . S
H102 C118 0.942 . S
H103 C120 0.940 . S
H104 C121 0.939 . S
H105 C123 0.941 . S
H106 C127 0.939 . S
O107 P96 1.490 . S
H108 C124 0.939 . S
H109 C126 0.940 . S
C110 P96 1.812 . S
C110 C111 1.389 . S
C110 C115 1.391 . S
C111 H97 0.941 . S
C111 C110 1.389 . S
C111 C112 1.397 . S
C112 H98 0.939 . S
C112 C111 1.397 . S
C112 C113 1.378 . S
C113 C112 1.378 . S
C113 C114 1.378 . S
C114 H99 0.940 . S
C114 C113 1.378 . S
C114 C115 1.396 . S
C115 H100 0.940 . S
C115 C110 1.391 . S
C115 C114 1.396 . S
C116 P96 1.803 . S
C116 C117 1.378 . S
C116 C121 1.400 . S
C117 H101 0.939 . S
C117 C116 1.378 . S
C117 C118 1.361 . S
C118 H102 0.942 . S
C118 C117 1.361 . S
C118 C119 1.369 . S
C119 C118 1.369 . S
C119 C120 1.404 . S
C120 H103 0.940 . S
C120 C119 1.404 . S
C120 C121 1.389 . S
C121 H104 0.939 . S
C121 C116 1.400 . S
C121 C120 1.389 . S
C122 P96 1.819 . S
C122 C123 1.391 . S
C122 C127 1.391 . S
C123 H105 0.941 . S
C123 C122 1.391 . S
C123 C124 1.396 . S
C124 H108 0.939 . S
C124 C123 1.396 . S
C124 C125 1.397 . S
C125 C124 1.397 . S
C125 C126 1.385 . S
C126 H109 0.940 . S
C126 C125 1.385 . S
C126 C127 1.388 . S
C127 H106 0.939 . S
C127 C122 1.391 . S
C127 C126 1.388 . S
P128 O139 1.490 . S
P128 C142 1.812 . S
P128 C148 1.803 . S
P128 C154 1.819 . S
H129 C143 0.941 . S
H130 C144 0.939 . S
H131 C146 0.940 . S
H132 C147 0.940 . S
H133 C149 0.939 . S
H134 C150 0.942 . S
H135 C152 0.940 . S
H136 C153 0.939 . S
H137 C155 0.941 . S
H138 C159 0.939 . S
O139 P128 1.490 . S
H140 C156 0.939 . S
H141 C158 0.940 . S
C142 P128 1.812 . S
C142 C143 1.389 . S
C142 C147 1.391 . S
C143 H129 0.941 . S
C143 C142 1.389 . S
C143 C144 1.397 . S
C144 H130 0.939 . S
C144 C143 1.397 . S
C144 C145 1.378 . S
C145 C144 1.378 . S
C145 C146 1.378 . S
C146 H131 0.940 . S
C146 C145 1.378 . S
C146 C147 1.396 . S
C147 H132 0.940 . S
C147 C142 1.391 . S
C147 C146 1.396 . S
C148 P128 1.803 . S
C148 C149 1.378 . S
C148 C153 1.400 . S
C149 H133 0.939 . S
C149 C148 1.378 . S
C149 C150 1.361 . S
C150 H134 0.942 . S
C150 C149 1.361 . S
C150 C151 1.369 . S
C151 C150 1.369 . S
C151 C152 1.404 . S
C152 H135 0.940 . S
C152 C151 1.404 . S
C152 C153 1.389 . S
C153 H136 0.939 . S
C153 C148 1.400 . S
C153 C152 1.389 . S
C154 P128 1.819 . S
C154 C155 1.391 . S
C154 C159 1.391 . S
C155 H137 0.941 . S
C155 C154 1.391 . S
C155 C156 1.396 . S
C156 H140 0.939 . S
C156 C155 1.396 . S
C156 C157 1.397 . S
C157 C156 1.397 . S
C157 C158 1.385 . S
C158 H141 0.940 . S
C158 C157 1.385 . S
C158 C159 1.388 . S
C159 H138 0.939 . S
C159 C154 1.391 . S
C159 C158 1.388 . S
P160 O171 1.490 . S
P160 C174 1.812 . S
P160 C180 1.803 . S
P160 C186 1.819 . S
H161 C175 0.941 . S
H162 C176 0.939 . S
H163 C178 0.940 . S
H164 C179 0.940 . S
H165 C181 0.939 . S
H166 C182 0.942 . S
H167 C184 0.940 . S
H168 C185 0.939 . S
H169 C187 0.941 . S
H170 C191 0.939 . S
O171 P160 1.490 . S
H172 C188 0.939 . S
H173 C190 0.940 . S
C174 P160 1.812 . S
C174 C175 1.389 . S
C174 C179 1.391 . S
C175 H161 0.941 . S
C175 C174 1.389 . S
C175 C176 1.397 . S
C176 H162 0.939 . S
C176 C175 1.397 . S
C176 C177 1.378 . S
C177 C176 1.378 . S
C177 C178 1.378 . S
C178 H163 0.940 . S
C178 C177 1.378 . S
C178 C179 1.396 . S
C179 H164 0.940 . S
C179 C174 1.391 . S
C179 C178 1.396 . S
C180 P160 1.803 . S
C180 C181 1.378 . S
C180 C185 1.400 . S
C181 H165 0.939 . S
C181 C180 1.378 . S
C181 C182 1.361 . S
C182 H166 0.942 . S
C182 C181 1.361 . S
C182 C183 1.369 . S
C183 C182 1.369 . S
C183 C184 1.404 . S
C184 H167 0.940 . S
C184 C183 1.404 . S
C184 C185 1.389 . S
C185 H168 0.939 . S
C185 C180 1.400 . S
C185 C184 1.389 . S
C186 P160 1.819 . S
C186 C187 1.391 . S
C186 C191 1.391 . S
C187 H169 0.941 . S
C187 C186 1.391 . S
C187 C188 1.396 . S
C188 H172 0.939 . S
C188 C187 1.396 . S
C188 C189 1.397 . S
C189 C188 1.397 . S
C189 C190 1.385 . S
C190 H173 0.940 . S
C190 C189 1.385 . S
C190 C191 1.388 . S
C191 H170 0.939 . S
C191 C186 1.391 . S
C191 C190 1.388 . S
P192 O203 1.490 . S
P192 C206 1.812 . S
P192 C212 1.803 . S
P192 C218 1.819 . S
H193 C207 0.941 . S
H194 C208 0.939 . S
H195 C210 0.940 . S
H196 C211 0.940 . S
H197 C213 0.939 . S
H198 C214 0.942 . S
H199 C216 0.940 . S
H200 C217 0.939 . S
H201 C219 0.941 . S
H202 C223 0.939 . S
O203 P192 1.490 . S
H204 C220 0.939 . S
H205 C222 0.940 . S
C206 P192 1.812 . S
C206 C207 1.389 . S
C206 C211 1.391 . S
C207 H193 0.941 . S
C207 C206 1.389 . S
C207 C208 1.397 . S
C208 H194 0.939 . S
C208 C207 1.397 . S
C208 C209 1.378 . S
C209 C208 1.378 . S
C209 C210 1.378 . S
C210 H195 0.940 . S
C210 C209 1.378 . S
C210 C211 1.396 . S
C211 H196 0.940 . S
C211 C206 1.391 . S
C211 C210 1.396 . S
C212 P192 1.803 . S
C212 C213 1.378 . S
C212 C217 1.400 . S
C213 H197 0.939 . S
C213 C212 1.378 . S
C213 C214 1.361 . S
C214 H198 0.942 . S
C214 C213 1.361 . S
C214 C215 1.369 . S
C215 C214 1.369 . S
C215 C216 1.404 . S
C216 H199 0.940 . S
C216 C215 1.404 . S
C216 C217 1.389 . S
C217 H200 0.939 . S
C217 C212 1.400 . S
C217 C216 1.389 . S
C218 P192 1.819 . S
C218 C219 1.391 . S
C218 C223 1.391 . S
C219 H201 0.941 . S
C219 C218 1.391 . S
C219 C220 1.396 . S
C220 H204 0.939 . S
C220 C219 1.396 . S
C220 C221 1.397 . S
C221 C220 1.397 . S
C221 C222 1.385 . S
C222 H205 0.940 . S
C222 C221 1.385 . S
C222 C223 1.388 . S
C223 H202 0.939 . S
C223 C218 1.391 . S
C223 C222 1.388 . S
P224 O235 1.490 . S
P224 C238 1.812 . S
P224 C244 1.803 . S
P224 C250 1.819 . S
H225 C239 0.941 . S
H226 C240 0.939 . S
H227 C242 0.940 . S
H228 C243 0.940 . S
H229 C245 0.939 . S
H230 C246 0.942 . S
H231 C248 0.940 . S
H232 C249 0.939 . S
H233 C251 0.941 . S
H234 C255 0.939 . S
O235 P224 1.490 . S
H236 C252 0.939 . S
H237 C254 0.940 . S
C238 P224 1.812 . S
C238 C239 1.389 . S
C238 C243 1.391 . S
C239 H225 0.941 . S
C239 C238 1.389 . S
C239 C240 1.397 . S
C240 H226 0.939 . S
C240 C239 1.397 . S
C240 C241 1.378 . S
C241 C240 1.378 . S
C241 C242 1.378 . S
C242 H227 0.940 . S
C242 C241 1.378 . S
C242 C243 1.396 . S
C243 H228 0.940 . S
C243 C238 1.391 . S
C243 C242 1.396 . S
C244 P224 1.803 . S
C244 C245 1.378 . S
C244 C249 1.400 . S
C245 H229 0.939 . S
C245 C244 1.378 . S
C245 C246 1.361 . S
C246 H230 0.942 . S
C246 C245 1.361 . S
C246 C247 1.369 . S
C247 C246 1.369 . S
C247 C248 1.404 . S
C248 H231 0.940 . S
C248 C247 1.404 . S
C248 C249 1.389 . S
C249 H232 0.939 . S
C249 C244 1.400 . S
C249 C248 1.389 . S
C250 P224 1.819 . S
C250 C251 1.391 . S
C250 C255 1.391 . S
C251 H233 0.941 . S
C251 C250 1.391 . S
C251 C252 1.396 . S
C252 H236 0.939 . S
C252 C251 1.396 . S
C252 C253 1.397 . S
C253 C252 1.397 . S
C253 C254 1.385 . S
C254 H237 0.940 . S
C254 C253 1.385 . S
C254 C255 1.388 . S
C255 H234 0.939 . S
C255 C250 1.391 . S
C255 C254 1.388 . S
Gd256 C259 2.818 . S
Gd256 O276 2.377 . S
Gd256 O278 2.448 . S
Gd256 O279 2.506 . S
Gd256 O280 2.435 1_545 S
Gd256 O281 2.717 1_545 S
Gd256 O283 2.395 1_445 S
Gd256 O287 2.327 1_455 S
Gd257 C268 2.840 . S
Gd257 O277 2.370 1_665 S
Gd257 O281 2.342 1_655 S
Gd257 O282 2.397 . S
Gd257 O284 2.459 . S
Gd257 O285 2.535 . S
Gd257 O286 2.417 1_565 S
Gd257 O287 2.704 1_565 S
C258 O276 1.240 . S
C258 O277 1.240 . S
C259 Gd256 2.818 . S
C259 C260 1.510 . S
C259 O278 1.249 . S
C259 O279 1.252 . S
C260 C259 1.510 . S
C260 C261 1.404 . S
C260 C262 1.352 . S
C261 C260 1.404 . S
C261 C265 1.389 . S
C261 H288 0.930 . S
C262 C260 1.352 . S
C262 C264 1.374 . S
C262 H289 0.931 . S
C263 C264 1.359 . S
C263 C265 1.364 . S
C264 C262 1.374 . S
C264 C263 1.359 . S
C264 H290 0.931 . S
C265 C261 1.389 . S
C265 C263 1.364 . S
C265 H291 0.931 . S
C266 O280 1.256 . S
C266 O281 1.257 . S
C267 O282 1.240 . S
C267 O283 1.240 . S
C268 Gd257 2.840 . S
C268 C269 1.510 . S
C268 O284 1.249 . S
C268 O285 1.252 . S
C269 C268 1.510 . S
C269 C270 1.404 . S
C269 C271 1.352 . S
C270 C269 1.404 . S
C270 C274 1.389 . S
C270 H292 0.930 . S
C271 C269 1.352 . S
C271 C273 1.374 . S
C271 H293 0.931 . S
C272 C273 1.359 . S
C272 C274 1.364 . S
C273 C271 1.374 . S
C273 C272 1.359 . S
C273 H294 0.931 . S
C274 C270 1.389 . S
C274 C272 1.364 . S
C274 H295 0.931 . S
C275 O286 1.256 . S
C275 O287 1.257 . S
O276 Gd256 2.377 . S
O276 C258 1.240 . S
O277 Gd257 2.370 1_445 S
O277 C258 1.240 . S
O278 Gd256 2.448 . S
O278 C259 1.249 . S
O279 Gd256 2.506 . S
O279 C259 1.252 . S
O280 Gd256 2.435 1_565 S
O280 C266 1.256 . S
O281 Gd256 2.717 1_565 S
O281 Gd257 2.342 1_455 S
O281 C266 1.257 . S
O282 Gd257 2.397 . S
O282 C267 1.240 . S
O283 Gd256 2.395 1_665 S
O283 C267 1.240 . S
O284 Gd257 2.459 . S
O284 C268 1.249 . S
O285 Gd257 2.535 . S
O285 C268 1.252 . S
O286 Gd257 2.417 1_545 S
O286 C275 1.256 . S
O287 Gd256 2.327 1_655 S
O287 Gd257 2.704 1_545 S
O287 C275 1.257 . S
H288 C261 0.930 . S
H289 C262 0.931 . S
H290 C264 0.931 . S
H291 C265 0.931 . S
H292 C270 0.930 . S
H293 C271 0.931 . S
H294 C273 0.931 . S
H295 C274 0.931 . S
Gd296 C299 2.818 . S
Gd296 O316 2.377 . S
Gd296 O318 2.448 . S
Gd296 O319 2.506 . S
Gd296 O320 2.435 1_545 S
Gd296 O321 2.717 1_545 S
Gd296 O323 2.395 1_544 S
Gd296 O327 2.327 1_554 S
Gd297 C308 2.818 1_545 S
Gd297 O317 2.395 1_556 S
Gd297 O321 2.327 1_546 S
Gd297 O322 2.377 1_545 S
Gd297 O324 2.448 . S
Gd297 O325 2.506 1_545 S
Gd297 O326 2.435 . S
Gd297 O327 2.717 . S
C298 O316 1.240 . S
C298 O317 1.240 . S
C299 Gd296 2.818 . S
C299 C300 1.510 . S
C299 O318 1.249 . S
C299 O319 1.252 . S
C300 C299 1.510 . S
C300 C301 1.404 . S
C300 C302 1.352 . S
C301 C300 1.404 . S
C301 C305 1.389 . S
C301 H328 0.930 . S
C302 C300 1.352 . S
C302 C304 1.374 . S
C302 H329 0.931 . S
C303 C304 1.359 . S
C303 C305 1.364 . S
C304 C302 1.374 . S
C304 C303 1.359 . S
C304 H330 0.931 . S
C305 C301 1.389 . S
C305 C303 1.364 . S
C305 H331 0.931 . S
C306 O320 1.256 . S
C306 O321 1.257 . S
C307 O322 1.240 . S
C307 O323 1.240 . S
C308 Gd297 2.818 1_565 S
C308 C309 1.510 . S
C308 O324 1.247 1_565 S
C308 O325 1.252 . S
C309 C308 1.510 . S
C309 C310 1.404 . S
C309 C311 1.352 . S
C310 C309 1.404 . S
C310 C314 1.389 . S
C310 H332 0.930 . S
C311 C309 1.352 . S
C311 C313 1.374 . S
C311 H333 0.931 . S
C312 C313 1.359 . S
C312 C314 1.364 . S
C313 C311 1.374 . S
C313 C312 1.359 . S
C313 H334 0.931 . S
C314 C310 1.389 . S
C314 C312 1.364 . S
C314 H335 0.931 . S
C315 O326 1.256 . S
C315 O327 1.257 . S
O316 Gd296 2.377 . S
O316 C298 1.240 . S
O317 Gd297 2.395 1_554 S
O317 C298 1.240 . S
O318 Gd296 2.448 . S
O318 C299 1.249 . S
O319 Gd296 2.506 . S
O319 C299 1.252 . S
O320 Gd296 2.435 1_565 S
O320 C306 1.256 . S
O321 Gd296 2.717 1_565 S
O321 Gd297 2.327 1_564 S
O321 C306 1.257 . S
O322 Gd297 2.377 1_565 S
O322 C307 1.240 . S
O323 Gd296 2.395 1_566 S
O323 C307 1.240 . S
O324 Gd297 2.448 . S
O324 C308 1.247 1_545 S
O325 Gd297 2.506 1_565 S
O325 C308 1.252 . S
O326 Gd297 2.435 . S
O326 C315 1.256 . S
O327 Gd296 2.327 1_556 S
O327 Gd297 2.717 . S
O327 C315 1.257 . S
H328 C301 0.930 . S
H329 C302 0.931 . S
H330 C304 0.931 . S
H331 C305 0.931 . S
H332 C310 0.930 . S
H333 C311 0.931 . S
H334 C313 0.931 . S
H335 C314 0.931 . S
Gd336 C339 2.818 . S
Gd336 O356 2.377 . S
Gd336 O358 2.448 . S
Gd336 O359 2.506 . S
Gd336 O360 2.435 . S
Gd336 O361 2.717 . S
Gd336 O363 2.395 . S
Gd336 O367 2.327 . S
Gd337 C348 2.818 . S
Gd337 O357 2.395 . S
Gd337 O361 2.327 . S
Gd337 O362 2.377 . S
Gd337 O364 2.448 . S
Gd337 O365 2.506 . S
Gd337 O366 2.435 . S
Gd337 O367 2.717 . S
C338 O356 1.240 . S
C338 O357 1.240 . S
C339 Gd336 2.818 . S
C339 C340 1.510 . S
C339 O358 1.249 . S
C339 O359 1.252 . S
C340 C339 1.510 . S
C340 C341 1.404 . S
C340 C342 1.352 . S
C341 C340 1.404 . S
C341 C345 1.389 . S
C341 H368 0.930 . S
C342 C340 1.352 . S
C342 C344 1.374 . S
C342 H369 0.931 . S
C343 C344 1.359 . S
C343 C345 1.364 . S
C344 C342 1.374 . S
C344 C343 1.359 . S
C344 H370 0.931 . S
C345 C341 1.389 . S
C345 C343 1.364 . S
C345 H371 0.931 . S
C346 O360 1.256 . S
C346 O361 1.257 . S
C347 O362 1.240 . S
C347 O363 1.240 . S
C348 Gd337 2.818 . S
C348 C349 1.510 . S
C348 O364 1.249 . S
C348 O365 1.252 . S
C349 C348 1.510 . S
C349 C350 1.404 . S
C349 C351 1.352 . S
C350 C349 1.404 . S
C350 C354 1.389 . S
C350 H372 0.930 . S
C351 C349 1.352 . S
C351 C353 1.374 . S
C351 H373 0.931 . S
C352 C353 1.359 . S
C352 C354 1.364 . S
C353 C351 1.374 . S
C353 C352 1.359 . S
C353 H374 0.931 . S
C354 C350 1.389 . S
C354 C352 1.364 . S
C354 H375 0.931 . S
C355 O366 1.256 . S
C355 O367 1.257 . S
O356 Gd336 2.377 . S
O356 C338 1.240 . S
O357 Gd337 2.395 . S
O357 C338 1.240 . S
O358 Gd336 2.448 . S
O358 C339 1.249 . S
O359 Gd336 2.506 . S
O359 C339 1.252 . S
O360 Gd336 2.435 . S
O360 C346 1.256 . S
O361 Gd336 2.717 . S
O361 Gd337 2.327 . S
O361 C346 1.257 . S
O362 Gd337 2.377 . S
O362 C347 1.240 . S
O363 Gd336 2.395 . S
O363 C347 1.240 . S
O364 Gd337 2.448 . S
O364 C348 1.249 . S
O365 Gd337 2.506 . S
O365 C348 1.252 . S
O366 Gd337 2.435 . S
O366 C355 1.256 . S
O367 Gd336 2.327 . S
O367 Gd337 2.717 . S
O367 C355 1.257 . S
H368 C341 0.930 . S
H369 C342 0.931 . S
H370 C344 0.931 . S
H371 C345 0.931 . S
H372 C350 0.930 . S
H373 C351 0.931 . S
H374 C353 0.931 . S
H375 C354 0.931 . S
Gd376 C379 2.818 . S
Gd376 O396 2.377 . S
Gd376 O398 2.448 . S
Gd376 O399 2.506 . S
Gd376 O400 2.435 1_455 S
Gd376 O401 2.717 1_455 S
Gd376 O403 2.400 1_455 S
Gd376 O407 2.327 1_554 S
Gd377 C388 2.842 . S
Gd377 O397 2.370 1_656 S
Gd377 O401 2.334 1_556 S
Gd377 O402 2.394 . S
Gd377 O404 2.464 . S
Gd377 O405 2.533 . S
Gd377 O406 2.422 1_655 S
Gd377 O407 2.702 1_655 S
C378 O396 1.240 . S
C378 O397 1.240 . S
C379 Gd376 2.818 . S
C379 C380 1.510 . S
C379 O398 1.249 . S
C379 O399 1.252 . S
C380 C379 1.510 . S
C380 C381 1.404 . S
C380 C382 1.352 . S
C381 C380 1.404 . S
C381 C385 1.389 . S
C381 H408 0.930 . S
C382 C380 1.352 . S
C382 C384 1.374 . S
C382 H409 0.931 . S
C383 C384 1.359 . S
C383 C385 1.364 . S
C384 C382 1.374 . S
C384 C383 1.359 . S
C384 H410 0.931 . S
C385 C381 1.389 . S
C385 C383 1.364 . S
C385 H411 0.931 . S
C386 O400 1.256 . S
C386 O401 1.257 . S
C387 O402 1.240 . S
C387 O403 1.233 1_556 S
C388 Gd377 2.842 . S
C388 C389 1.510 . S
C388 O404 1.249 . S
C388 O405 1.252 . S
C389 C388 1.510 . S
C389 C390 1.404 . S
C389 C391 1.352 . S
C390 C389 1.404 . S
C390 C394 1.389 . S
C390 H412 0.930 . S
C391 C389 1.352 . S
C391 C393 1.374 . S
C391 H413 0.931 . S
C392 C393 1.359 . S
C392 C394 1.364 . S
C393 C391 1.374 . S
C393 C392 1.359 . S
C393 H414 0.931 . S
C394 C390 1.389 . S
C394 C392 1.364 . S
C394 H415 0.931 . S
C395 O406 1.256 . S
C395 O407 1.257 . S
O396 Gd376 2.377 . S
O396 C378 1.240 . S
O397 Gd377 2.370 1_454 S
O397 C378 1.240 . S
O398 Gd376 2.448 . S
O398 C379 1.249 . S
O399 Gd376 2.506 . S
O399 C379 1.252 . S
O400 Gd376 2.435 1_655 S
O400 C386 1.256 . S
O401 Gd376 2.717 1_655 S
O401 Gd377 2.334 1_554 S
O401 C386 1.257 . S
O402 Gd377 2.394 . S
O402 C387 1.240 . S
O403 Gd376 2.400 1_655 S
O403 C387 1.233 1_554 S
O404 Gd377 2.464 . S
O404 C388 1.249 . S
O405 Gd377 2.533 . S
O405 C388 1.252 . S
O406 Gd377 2.422 1_455 S
O406 C395 1.256 . S
O407 Gd376 2.327 1_556 S
O407 Gd377 2.702 1_455 S
O407 C395 1.257 . S
H408 C381 0.930 . S
H409 C382 0.931 . S
H410 C384 0.931 . S
H411 C385 0.931 . S
H412 C390 0.930 . S
H413 C391 0.931 . S
H414 C393 0.931 . S
H415 C394 0.931 . S
C416 C417 1.363 . S
C416 C422 1.379 . S
C416 N424 1.356 . S
C417 C416 1.363 . S
C417 C423 1.363 . S
C418 C419 1.363 . S
C418 C423 1.379 . S
C418 N425 1.356 . S
C419 C418 1.363 . S
C419 C422 1.363 . S
N420 C422 1.356 . S
N420 H432 0.984 . S
N420 H433 0.985 . S
N421 C423 1.356 . S
N421 H426 0.984 . S
N421 H427 0.985 . S
C422 C416 1.379 . S
C422 C419 1.363 . S
C422 N420 1.356 . S
C423 C417 1.363 . S
C423 C418 1.379 . S
C423 N421 1.356 . S
N424 C416 1.356 . S
N424 H430 0.984 . S
N424 H431 0.984 . S
N425 C418 1.356 . S
N425 H428 0.984 . S
N425 H429 0.985 . S
H426 N421 0.984 . S
H427 N421 0.985 . S
H428 N425 0.984 . S
H429 N425 0.985 . S
H430 N424 0.984 . S
H431 N424 0.984 . S
H432 N420 0.984 . S
H433 N420 0.985 . S
C434 C435 1.363 . S
C434 C440 1.379 . S
C434 N442 1.356 . S
C435 C434 1.363 . S
C435 C441 1.363 . S
C436 C437 1.363 . S
C436 C441 1.379 . S
C436 N443 1.356 . S
C437 C436 1.363 . S
C437 C440 1.363 . S
N438 C440 1.356 . S
N438 H450 0.984 . S
N438 H451 0.985 . S
N439 C441 1.356 . S
N439 H444 0.984 . S
N439 H445 0.985 . S
C440 C434 1.379 . S
C440 C437 1.363 . S
C440 N438 1.356 . S
C441 C435 1.363 . S
C441 C436 1.379 . S
C441 N439 1.356 . S
N442 C434 1.356 . S
N442 H448 0.984 . S
N442 H449 0.984 . S
N443 C436 1.356 . S
N443 H446 0.984 . S
N443 H447 0.985 . S
H444 N439 0.984 . S
H445 N439 0.985 . S
H446 N443 0.984 . S
H447 N443 0.985 . S
H448 N442 0.984 . S
H449 N442 0.984 . S
H450 N438 0.984 . S
H451 N438 0.985 . S
C452 C453 1.363 . S
C452 C458 1.379 . S
C452 N460 1.356 . S
C453 C452 1.363 . S
C453 C459 1.363 . S
C454 C455 1.363 . S
C454 C459 1.379 . S
C454 N461 1.356 . S
C455 C454 1.363 . S
C455 C458 1.363 . S
N456 C458 1.356 . S
N456 H468 0.984 . S
N456 H469 0.985 . S
N457 C459 1.356 . S
N457 H462 0.984 . S
N457 H463 0.985 . S
C458 C452 1.379 . S
C458 C455 1.363 . S
C458 N456 1.356 . S
C459 C453 1.363 . S
C459 C454 1.379 . S
C459 N457 1.356 . S
N460 C452 1.356 . S
N460 H466 0.984 . S
N460 H467 0.984 . S
N461 C454 1.356 . S
N461 H464 0.984 . S
N461 H465 0.985 . S
H462 N457 0.984 . S
H463 N457 0.985 . S
H464 N461 0.984 . S
H465 N461 0.985 . S
H466 N460 0.984 . S
H467 N460 0.984 . S
H468 N456 0.984 . S
H469 N456 0.985 . S
C470 C471 1.363 . S
C470 C476 1.379 . S
C470 N478 1.356 . S
C471 C470 1.363 . S
C471 C477 1.363 . S
C472 C473 1.363 . S
C472 C477 1.379 . S
C472 N479 1.356 . S
C473 C472 1.363 . S
C473 C476 1.363 . S
N474 C476 1.356 . S
N474 H486 0.984 1_655 S
N474 H487 0.985 . S
N475 C477 1.356 . S
N475 H480 0.984 . S
N475 H481 0.985 . S
C476 C470 1.379 . S
C476 C473 1.363 . S
C476 N474 1.356 . S
C477 C471 1.363 . S
C477 C472 1.379 . S
C477 N475 1.356 . S
N478 C470 1.356 . S
N478 H484 0.984 . S
N478 H485 0.984 . S
N479 C472 1.356 . S
N479 H482 0.984 . S
N479 H483 0.985 . S
H480 N475 0.984 . S
H481 N475 0.985 . S
H482 N479 0.984 . S
H483 N479 0.985 . S
H484 N478 0.984 . S
H485 N478 0.984 . S
H486 N474 0.984 1_455 S
H487 N474 0.985 . S
C488 C489 1.363 . S
C488 C494 1.379 . S
C488 N496 1.356 . S
C489 C488 1.363 . S
C489 C495 1.363 . S
C490 C491 1.363 . S
C490 C495 1.379 . S
C490 N497 1.356 . S
C491 C490 1.363 . S
C491 C494 1.363 . S
N492 C494 1.356 . S
N492 H504 0.984 . S
N492 H505 0.985 . S
N493 C495 1.356 . S
N493 H498 0.984 . S
N493 H499 0.985 . S
C494 C488 1.379 . S
C494 C491 1.363 . S
C494 N492 1.356 . S
C495 C489 1.363 . S
C495 C490 1.379 . S
C495 N493 1.356 . S
N496 C488 1.356 . S
N496 H502 0.984 . S
N496 H503 0.984 . S
N497 C490 1.356 . S
N497 H500 0.984 . S
N497 H501 0.985 . S
H498 N493 0.984 . S
H499 N493 0.985 . S
H500 N497 0.984 . S
H501 N497 0.985 . S
H502 N496 0.984 . S
H503 N496 0.984 . S
H504 N492 0.984 . S
H505 N492 0.985 . S
C506 C507 1.363 . S
C506 C512 1.379 . S
C506 N514 1.356 . S
C507 C506 1.363 . S
C507 C513 1.363 . S
C508 C509 1.363 . S
C508 C513 1.379 . S
C508 N515 1.356 . S
C509 C508 1.363 . S
C509 C512 1.363 . S
N510 C512 1.356 . S
N510 H522 0.984 . S
N510 H523 0.985 . S
N511 C513 1.356 . S
N511 H516 0.984 . S
N511 H517 0.985 . S
C512 C506 1.379 . S
C512 C509 1.363 . S
C512 N510 1.356 . S
C513 C507 1.363 . S
C513 C508 1.379 . S
C513 N511 1.356 . S
N514 C506 1.356 . S
N514 H520 0.984 . S
N514 H521 0.984 . S
N515 C508 1.356 . S
N515 H518 0.984 . S
N515 H519 0.985 . S
H516 N511 0.984 . S
H517 N511 0.985 . S
H518 N515 0.984 . S
H519 N515 0.985 . S
H520 N514 0.984 . S
H521 N514 0.984 . S
H522 N510 0.984 . S
H523 N510 0.985 . S
C524 C525 1.363 . S
C524 C530 1.379 . S
C524 N532 1.356 . S
C525 C524 1.363 . S
C525 C531 1.363 . S
C526 C527 1.363 . S
C526 C531 1.379 . S
C526 N533 1.356 . S
C527 C526 1.363 . S
C527 C530 1.363 . S
N528 C530 1.356 . S
N528 H540 0.984 . S
N528 H541 0.985 . S
N529 C531 1.356 . S
N529 H534 0.984 . S
N529 H535 0.985 . S
C530 C524 1.379 . S
C530 C527 1.363 . S
C530 N528 1.356 . S
C531 C525 1.363 . S
C531 C526 1.379 . S
C531 N529 1.356 . S
N532 C524 1.356 . S
N532 H538 0.984 . S
N532 H539 0.984 . S
N533 C526 1.356 . S
N533 H536 0.984 1_556 S
N533 H537 0.985 1_556 S
H534 N529 0.984 . S
H535 N529 0.985 . S
H536 N533 0.984 1_554 S
H537 N533 0.985 1_554 S
H538 N532 0.984 . S
H539 N532 0.984 . S
H540 N528 0.984 . S
H541 N528 0.985 . S
C542 C543 1.363 . S
C542 C548 1.379 . S
C542 N550 1.356 . S
C543 C542 1.363 . S
C543 C549 1.363 . S
C544 C545 1.363 . S
C544 C549 1.379 . S
C544 N551 1.356 . S
C545 C544 1.363 . S
C545 C548 1.363 . S
N546 C548 1.356 . S
N546 H558 0.984 . S
N546 H559 0.985 . S
N547 C549 1.356 . S
N547 H552 0.984 . S
N547 H553 0.985 . S
C548 C542 1.379 . S
C548 C545 1.363 . S
C548 N546 1.356 . S
C549 C543 1.363 . S
C549 C544 1.379 . S
C549 N547 1.356 . S
N550 C542 1.356 . S
N550 H556 0.984 . S
N550 H557 0.984 . S
N551 C544 1.356 . S
N551 H554 0.984 . S
N551 H555 0.985 . S
H552 N547 0.984 . S
H553 N547 0.985 . S
H554 N551 0.984 . S
H555 N551 0.985 . S
H556 N550 0.984 . S
H557 N550 0.984 . S
H558 N546 0.984 . S
H559 N546 0.985 . S
C560 C561 1.363 . S
C560 C566 1.379 . S
C560 N568 1.356 . S
C561 C560 1.363 . S
C561 C567 1.363 . S
C562 C563 1.363 . S
C562 C567 1.379 . S
C562 N569 1.356 . S
C563 C562 1.363 . S
C563 C566 1.363 . S
N564 C566 1.356 . S
N564 H576 0.984 . S
N564 H577 0.985 . S
N565 C567 1.356 . S
N565 H570 0.984 . S
N565 H571 0.985 . S
C566 C560 1.379 . S
C566 C563 1.363 . S
C566 N564 1.356 . S
C567 C561 1.363 . S
C567 C562 1.379 . S
C567 N565 1.356 . S
N568 C560 1.356 . S
N568 H574 0.984 . S
N568 H575 0.984 . S
N569 C562 1.356 . S
N569 H572 0.984 . S
N569 H573 0.985 . S
H570 N565 0.984 . S
H571 N565 0.985 . S
H572 N569 0.984 . S
H573 N569 0.985 . S
H574 N568 0.984 . S
H575 N568 0.984 . S
H576 N564 0.984 . S
H577 N564 0.985 . S
C578 C579 1.363 . S
C578 C584 1.379 . S
C578 N586 1.356 . S
C579 C578 1.363 . S
C579 C585 1.363 . S
C580 C581 1.363 . S
C580 C585 1.379 . S
C580 N587 1.356 . S
C581 C580 1.363 . S
C581 C584 1.363 . S
N582 C584 1.356 . S
N582 H594 0.984 . S
N582 H595 0.985 . S
N583 C585 1.356 . S
N583 H588 0.984 . S
N583 H589 0.985 . S
C584 C578 1.379 . S
C584 C581 1.363 . S
C584 N582 1.356 . S
C585 C579 1.363 . S
C585 C580 1.379 . S
C585 N583 1.356 . S
N586 C578 1.356 . S
N586 H592 0.984 . S
N586 H593 0.984 . S
N587 C580 1.356 . S
N587 H590 0.984 . S
N587 H591 0.985 . S
H588 N583 0.984 . S
H589 N583 0.985 . S
H590 N587 0.984 . S
H591 N587 0.985 . S
H592 N586 0.984 . S
H593 N586 0.984 . S
H594 N582 0.984 . S
H595 N582 0.985 . S
C596 C597 1.363 . S
C596 C602 1.379 . S
C596 N604 1.356 . S
C597 C596 1.363 . S
C597 C603 1.363 . S
C598 C599 1.363 . S
C598 C603 1.379 . S
C598 N605 1.356 . S
C599 C598 1.363 . S
C599 C602 1.363 . S
N600 C602 1.356 . S
N600 H612 0.984 . S
N600 H613 0.985 . S
N601 C603 1.356 . S
N601 H606 0.984 . S
N601 H607 0.985 . S
C602 C596 1.379 . S
C602 C599 1.363 . S
C602 N600 1.356 . S
C603 C597 1.363 . S
C603 C598 1.379 . S
C603 N601 1.356 . S
N604 C596 1.356 . S
N604 H610 0.984 . S
N604 H611 0.984 . S
N605 C598 1.356 . S
N605 H608 0.984 . S
N605 H609 0.985 . S
H606 N601 0.984 . S
H607 N601 0.985 . S
H608 N605 0.984 . S
H609 N605 0.985 . S
H610 N604 0.984 . S
H611 N604 0.984 . S
H612 N600 0.984 . S
H613 N600 0.985 . S
C614 C615 1.363 . S
C614 C620 1.379 . S
C614 N622 1.356 . S
C615 C614 1.363 . S
C615 C621 1.363 . S
C616 C617 1.363 . S
C616 C621 1.379 . S
C616 N623 1.356 . S
C617 C616 1.363 . S
C617 C620 1.363 . S
N618 C620 1.356 . S
N618 H630 0.984 . S
N618 H631 0.985 . S
N619 C621 1.356 . S
N619 H624 0.984 . S
N619 H625 0.985 . S
C620 C614 1.379 . S
C620 C617 1.363 . S
C620 N618 1.356 . S
C621 C615 1.363 . S
C621 C616 1.379 . S
C621 N619 1.356 . S
N622 C614 1.356 . S
N622 H628 0.984 . S
N622 H629 0.984 . S
N623 C616 1.356 . S
N623 H626 0.984 . S
N623 H627 0.985 . S
H624 N619 0.984 . S
H625 N619 0.985 . S
H626 N623 0.984 . S
H627 N623 0.985 . S
H628 N622 0.984 . S
H629 N622 0.984 . S
H630 N618 0.984 . S
H631 N618 0.985 . S
C632 C633 1.363 . S
C632 C638 1.379 . S
C632 N640 1.356 . S
C633 C632 1.363 . S
C633 C639 1.363 . S
C634 C635 1.363 . S
C634 C639 1.379 . S
C634 N641 1.356 . S
C635 C634 1.363 . S
C635 C638 1.363 . S
N636 C638 1.356 . S
N636 H648 0.984 . S
N636 H649 0.985 . S
N637 C639 1.356 . S
N637 H642 0.984 . S
N637 H643 0.985 . S
C638 C632 1.379 . S
C638 C635 1.363 . S
C638 N636 1.356 . S
C639 C633 1.363 . S
C639 C634 1.379 . S
C639 N637 1.356 . S
N640 C632 1.356 . S
N640 H646 0.984 . S
N640 H647 0.984 . S
N641 C634 1.356 . S
N641 H644 0.984 . S
N641 H645 0.985 . S
H642 N637 0.984 . S
H643 N637 0.985 . S
H644 N641 0.984 . S
H645 N641 0.985 . S
H646 N640 0.984 . S
H647 N640 0.984 . S
H648 N636 0.984 . S
H649 N636 0.985 . S
C650 C651 1.363 . S
C650 C656 1.379 . S
C650 N658 1.356 . S
C651 C650 1.363 . S
C651 C657 1.363 . S
C652 C653 1.363 . S
C652 C657 1.379 . S
C652 N659 1.356 . S
C653 C652 1.363 . S
C653 C656 1.363 . S
N654 C656 1.356 . S
N654 H666 0.984 . S
N654 H667 0.985 . S
N655 C657 1.356 . S
N655 H660 0.984 . S
N655 H661 0.985 . S
C656 C650 1.379 . S
C656 C653 1.363 . S
C656 N654 1.356 . S
C657 C651 1.363 . S
C657 C652 1.379 . S
C657 N655 1.356 . S
N658 C650 1.356 . S
N658 H664 0.984 . S
N658 H665 0.984 . S
N659 C652 1.356 . S
N659 H662 0.984 . S
N659 H663 0.985 . S
H660 N655 0.984 . S
H661 N655 0.985 . S
H662 N659 0.984 . S
H663 N659 0.985 . S
H664 N658 0.984 . S
H665 N658 0.984 . S
H666 N654 0.984 . S
H667 N654 0.985 . S
C668 C669 1.363 . S
C668 C674 1.379 . S
C668 N676 1.356 . S
C669 C668 1.363 . S
C669 C675 1.363 . S
C670 C671 1.363 . S
C670 C675 1.379 . S
C670 N677 1.356 . S
C671 C670 1.363 . S
C671 C674 1.363 . S
N672 C674 1.356 . S
N672 H684 0.984 . S
N672 H685 0.985 . S
N673 C675 1.356 . S
N673 H678 0.984 . S
N673 H679 0.985 . S
C674 C668 1.379 . S
C674 C671 1.363 . S
C674 N672 1.356 . S
C675 C669 1.363 . S
C675 C670 1.379 . S
C675 N673 1.356 . S
N676 C668 1.356 . S
N676 H682 0.984 . S
N676 H683 0.984 . S
N677 C670 1.356 . S
N677 H680 0.984 . S
N677 H681 0.985 . S
H678 N673 0.984 . S
H679 N673 0.985 . S
H680 N677 0.984 . S
H681 N677 0.985 . S
H682 N676 0.984 . S
H683 N676 0.984 . S
H684 N672 0.984 . S
H685 N672 0.985 . S
C686 C687 1.363 . S
C686 C692 1.379 . S
C686 N694 1.356 . S
C687 C686 1.363 . S
C687 C693 1.363 . S
C688 C689 1.363 . S
C688 C693 1.379 . S
C688 N695 1.356 . S
C689 C688 1.363 . S
C689 C692 1.363 . S
N690 C692 1.356 . S
N690 H702 0.984 . S
N690 H703 0.985 . S
N691 C693 1.356 . S
N691 H696 0.984 . S
N691 H697 0.985 . S
C692 C686 1.379 . S
C692 C689 1.363 . S
C692 N690 1.356 . S
C693 C687 1.363 . S
C693 C688 1.379 . S
C693 N691 1.356 . S
N694 C686 1.356 . S
N694 H700 0.984 . S
N694 H701 0.984 . S
N695 C688 1.356 . S
N695 H698 0.984 . S
N695 H699 0.985 . S
H696 N691 0.984 . S
H697 N691 0.985 . S
H698 N695 0.984 . S
H699 N695 0.985 . S
H700 N694 0.984 . S
H701 N694 0.984 . S
H702 N690 0.984 . S
H703 N690 0.985 . S
C704 C705 1.363 . S
C704 C710 1.379 . S
C704 N712 1.356 . S
C705 C704 1.363 . S
C705 C711 1.363 . S
C706 C707 1.363 . S
C706 C711 1.379 . S
C706 N713 1.356 . S
C707 C706 1.363 . S
C707 C710 1.363 . S
N708 C710 1.356 . S
N708 H720 0.984 . S
N708 H721 0.985 . S
N709 C711 1.356 . S
N709 H714 0.984 . S
N709 H715 0.985 . S
C710 C704 1.379 . S
C710 C707 1.363 . S
C710 N708 1.356 . S
C711 C705 1.363 . S
C711 C706 1.379 . S
C711 N709 1.356 . S
N712 C704 1.356 . S
N712 H718 0.984 . S
N712 H719 0.984 . S
N713 C706 1.356 . S
N713 H716 0.984 . S
N713 H717 0.985 . S
H714 N709 0.984 . S
H715 N709 0.985 . S
H716 N713 0.984 . S
H717 N713 0.985 . S
H718 N712 0.984 . S
H719 N712 0.984 . S
H720 N708 0.984 . S
H721 N708 0.985 . S
C722 C723 1.363 . S
C722 C728 1.379 . S
C722 N730 1.356 . S
C723 C722 1.363 . S
C723 C729 1.363 . S
C724 C725 1.363 . S
C724 C729 1.379 . S
C724 N731 1.356 . S
C725 C724 1.363 . S
C725 C728 1.363 . S
N726 C728 1.356 . S
N726 H738 0.984 . S
N726 H739 0.985 . S
N727 C729 1.356 . S
N727 H732 0.984 . S
N727 H733 0.985 . S
C728 C722 1.379 . S
C728 C725 1.363 . S
C728 N726 1.356 . S
C729 C723 1.363 . S
C729 C724 1.379 . S
C729 N727 1.356 . S
N730 C722 1.356 . S
N730 H736 0.984 . S
N730 H737 0.984 . S
N731 C724 1.356 . S
N731 H734 0.984 . S
N731 H735 0.985 . S
H732 N727 0.984 . S
H733 N727 0.985 . S
H734 N731 0.984 . S
H735 N731 0.985 . S
H736 N730 0.984 . S
H737 N730 0.984 . S
H738 N726 0.984 . S
H739 N726 0.985 . S
C740 C741 1.363 . S
C740 C746 1.379 . S
C740 N748 1.356 . S
C741 C740 1.363 . S
C741 C747 1.363 . S
C742 C743 1.363 . S
C742 C747 1.379 . S
C742 N749 1.356 . S
C743 C742 1.363 . S
C743 C746 1.363 . S
N744 C746 1.356 . S
N744 H756 0.984 1_554 S
N744 H757 0.984 . S
N745 C747 1.356 . S
N745 H750 0.984 . S
N745 H751 0.985 . S
C746 C740 1.379 . S
C746 C743 1.363 . S
C746 N744 1.356 . S
C747 C741 1.363 . S
C747 C742 1.379 . S
C747 N745 1.356 . S
N748 C740 1.356 . S
N748 H754 0.984 . S
N748 H755 0.984 . S
N749 C742 1.356 . S
N749 H752 0.984 . S
N749 H753 0.985 . S
H750 N745 0.984 . S
H751 N745 0.985 . S
H752 N749 0.984 . S
H753 N749 0.985 . S
H754 N748 0.984 . S
H755 N748 0.984 . S
H756 N744 0.984 1_556 S
H757 N744 0.984 . S
C758 C759 1.363 . S
C758 C764 1.379 . S
C758 N766 1.356 . S
C759 C758 1.363 . S
C759 C765 1.363 . S
C760 C761 1.363 . S
C760 C765 1.379 . S
C760 N767 1.356 . S
C761 C760 1.363 . S
C761 C764 1.363 . S
N762 C764 1.356 . S
N762 H774 0.984 . S
N762 H775 0.985 . S
N763 C765 1.356 . S
N763 H768 0.984 . S
N763 H769 0.985 . S
C764 C758 1.379 . S
C764 C761 1.363 . S
C764 N762 1.356 . S
C765 C759 1.363 . S
C765 C760 1.379 . S
C765 N763 1.356 . S
N766 C758 1.356 . S
N766 H772 0.984 . S
N766 H773 0.984 . S
N767 C760 1.356 . S
N767 H770 0.984 . S
N767 H771 0.985 . S
H768 N763 0.984 . S
H769 N763 0.985 . S
H770 N767 0.984 . S
H771 N767 0.985 . S
H772 N766 0.984 . S
H773 N766 0.984 . S
H774 N762 0.984 . S
H775 N762 0.985 . S
C776 C777 1.363 . S
C776 C782 1.379 . S
C776 N784 1.356 . S
C777 C776 1.363 . S
C777 C783 1.363 . S
C778 C779 1.363 . S
C778 C783 1.379 . S
C778 N785 1.356 . S
C779 C778 1.363 . S
C779 C782 1.363 . S
N780 C782 1.356 . S
N780 H792 0.984 . S
N780 H793 0.985 . S
N781 C783 1.356 . S
N781 H786 0.984 . S
N781 H787 0.985 . S
C782 C776 1.379 . S
C782 C779 1.363 . S
C782 N780 1.356 . S
C783 C777 1.363 . S
C783 C778 1.379 . S
C783 N781 1.356 . S
N784 C776 1.356 . S
N784 H790 0.984 . S
N784 H791 0.984 . S
N785 C778 1.356 . S
N785 H788 0.984 . S
N785 H789 0.985 . S
H786 N781 0.984 . S
H787 N781 0.985 . S
H788 N785 0.984 . S
H789 N785 0.985 . S
H790 N784 0.984 . S
H791 N784 0.984 . S
H792 N780 0.984 . S
H793 N780 0.985 . S
C794 C795 1.363 . S
C794 C800 1.379 . S
C794 N802 1.356 . S
C795 C794 1.363 . S
C795 C801 1.363 . S
C796 C797 1.363 . S
C796 C801 1.379 . S
C796 N803 1.356 . S
C797 C796 1.363 . S
C797 C800 1.363 . S
N798 C800 1.356 . S
N798 H810 0.984 . S
N798 H811 0.985 . S
N799 C801 1.356 . S
N799 H804 0.984 . S
N799 H805 0.985 . S
C800 C794 1.379 . S
C800 C797 1.363 . S
C800 N798 1.356 . S
C801 C795 1.363 . S
C801 C796 1.379 . S
C801 N799 1.356 . S
N802 C794 1.356 . S
N802 H808 0.984 . S
N802 H809 0.984 . S
N803 C796 1.356 . S
N803 H806 0.984 . S
N803 H807 0.985 . S
H804 N799 0.984 . S
H805 N799 0.985 . S
H806 N803 0.984 . S
H807 N803 0.985 . S
H808 N802 0.984 . S
H809 N802 0.984 . S
H810 N798 0.984 . S
H811 N798 0.985 . S
C812 C813 1.363 . S
C812 C818 1.379 . S
C812 N820 1.356 . S
C813 C812 1.363 . S
C813 C819 1.363 . S
C814 C815 1.363 . S
C814 C819 1.379 . S
C814 N821 1.356 . S
C815 C814 1.363 . S
C815 C818 1.363 . S
N816 C818 1.356 . S
N816 H828 0.984 1_455 S
N816 H829 0.985 . S
N817 C819 1.356 . S
N817 H822 0.984 . S
N817 H823 0.985 . S
C818 C812 1.379 . S
C818 C815 1.363 . S
C818 N816 1.356 . S
C819 C813 1.363 . S
C819 C814 1.379 . S
C819 N817 1.356 . S
N820 C812 1.356 . S
N820 H826 0.984 . S
N820 H827 0.984 . S
N821 C814 1.356 . S
N821 H824 0.984 . S
N821 H825 0.985 . S
H822 N817 0.984 . S
H823 N817 0.985 . S
H824 N821 0.984 . S
H825 N821 0.985 . S
H826 N820 0.984 . S
H827 N820 0.984 . S
H828 N816 0.984 1_655 S
H829 N816 0.985 . S
C830 C831 1.363 . S
C830 C836 1.379 . S
C830 N838 1.356 . S
C831 C830 1.363 . S
C831 C837 1.363 . S
C832 C833 1.363 . S
C832 C837 1.379 . S
C832 N839 1.356 . S
C833 C832 1.363 . S
C833 C836 1.363 . S
N834 C836 1.356 . S
N834 H846 0.984 . S
N834 H847 0.985 . S
N835 C837 1.356 . S
N835 H840 0.984 . S
N835 H841 0.985 . S
C836 C830 1.379 . S
C836 C833 1.363 . S
C836 N834 1.356 . S
C837 C831 1.363 . S
C837 C832 1.379 . S
C837 N835 1.356 . S
N838 C830 1.356 . S
N838 H844 0.984 . S
N838 H845 0.984 . S
N839 C832 1.356 . S
N839 H842 0.984 . S
N839 H843 0.985 . S
H840 N835 0.984 . S
H841 N835 0.985 . S
H842 N839 0.984 . S
H843 N839 0.985 . S
H844 N838 0.984 . S
H845 N838 0.984 . S
H846 N834 0.984 . S
H847 N834 0.985 . S
C417 C29 1.274 . S
C419 C263 1.297 . S
C435 C49 1.032 . S
C437 C312 1.074 . S
C455 C338 2.518 . S
C453 C93 2.518 . S
C471 C119 2.370 . S
C473 C386 2.361 . S
C491 C298 2.385 . S
C489 C17 2.321 . S
C509 C266 0.907 . S
C507 C61 0.899 . S
C527 C387 1.932 . S
C525 C81 1.962 . S
C545 C355 1.735 . S
C543 C125 1.722 . S
C561 C23 1.665 . S
C563 C383 1.682 . S
C581 C315 2.310 . S
C579 C87 2.355 . S
C597 C113 2.326 . S
C599 C267 2.362 . S
C615 C55 1.064 . S
C617 C352 1.184 . S
C635 C272 1.303 . S
C633 C157 1.085 . S
C651 C189 1.107 . S
C653 C303 1.104 . S
C669 C221 2.484 . S
C671 C347 2.480 . S
C687 C253 2.435 . S
C689 C395 2.446 . S
C705 C145 2.096 . S
C707 C307 2.455 . S
C725 C275 0.880 . S
C723 C183 0.893 . S
C743 C378 1.964 . S
C741 C209 1.943 . S
C761 C346 1.704 . S
C759 C247 1.681 . S
C777 C151 1.489 . S
C779 C392 1.702 . S
C797 C306 2.307 . S
C795 C215 2.351 . S
C815 C258 2.337 . S
C813 C241 2.285 . S
C831 C177 1.175 . S
C833 C343 1.156 . S
