# Generated by pormake.
# Topology anh, (6,3)-cn, num edge types: 1
# Building blocks:
#     Node 0, Type 0, BuildingBlock: MIFKUJ_clean_sbu_0, # of connection points: 6
#     Node 1, Type 0, BuildingBlock: MIFKUJ_clean_sbu_0, # of connection points: 6
#     Node 2, Type 0, BuildingBlock: MIFKUJ_clean_sbu_0, # of connection points: 6
#     Node 3, Type 1, BuildingBlock: ESEHIV_clean_linker_0, # of connection points: 3
#     Node 4, Type 1, BuildingBlock: ESEHIV_clean_linker_0, # of connection points: 3
#     Node 5, Type 1, BuildingBlock: ESEHIV_clean_linker_0, # of connection points: 3
#     Node 6, Type 1, BuildingBlock: ESEHIV_clean_linker_0, # of connection points: 3
#     Node 7, Type 1, BuildingBlock: ESEHIV_clean_linker_0, # of connection points: 3
#     Node 8, Type 1, BuildingBlock: ESEHIV_clean_linker_0, # of connection points: 3
#     Edge 9, Type (0, 1), BuildingBlock: KIFKEQ_clean_linker_1, # of connection points: 2
#     Edge 10, Type (0, 1), BuildingBlock: KIFKEQ_clean_linker_1, # of connection points: 2
#     Edge 11, Type (0, 1), BuildingBlock: KIFKEQ_clean_linker_1, # of connection points: 2
#     Edge 12, Type (0, 1), BuildingBlock: KIFKEQ_clean_linker_1, # of connection points: 2
#     Edge 13, Type (0, 1), BuildingBlock: KIFKEQ_clean_linker_1, # of connection points: 2
#     Edge 14, Type (0, 1), BuildingBlock: KIFKEQ_clean_linker_1, # of connection points: 2
#     Edge 15, Type (0, 1), BuildingBlock: KIFKEQ_clean_linker_1, # of connection points: 2
#     Edge 16, Type (0, 1), BuildingBlock: KIFKEQ_clean_linker_1, # of connection points: 2
#     Edge 17, Type (0, 1), BuildingBlock: KIFKEQ_clean_linker_1, # of connection points: 2
#     Edge 18, Type (0, 1), BuildingBlock: KIFKEQ_clean_linker_1, # of connection points: 2
#     Edge 19, Type (0, 1), BuildingBlock: KIFKEQ_clean_linker_1, # of connection points: 2
#     Edge 20, Type (0, 1), BuildingBlock: KIFKEQ_clean_linker_1, # of connection points: 2
#     Edge 21, Type (0, 1), BuildingBlock: KIFKEQ_clean_linker_1, # of connection points: 2
#     Edge 22, Type (0, 1), BuildingBlock: KIFKEQ_clean_linker_1, # of connection points: 2
#     Edge 23, Type (0, 1), BuildingBlock: KIFKEQ_clean_linker_1, # of connection points: 2
#     Edge 24, Type (0, 1), BuildingBlock: KIFKEQ_clean_linker_1, # of connection points: 2
#     Edge 25, Type (0, 1), BuildingBlock: KIFKEQ_clean_linker_1, # of connection points: 2
#     Edge 26, Type (0, 1), BuildingBlock: KIFKEQ_clean_linker_1, # of connection points: 2
# Relax obj value: 0.135
# Max RMSD: 0.186
# Mean RMSD: 0.149
data_MOF--net-anh--node1-MIFKUJ_clean_sbu_0--node2-ESEHIV_clean_linker_0--edge1-KIFKEQ_clean_linker_1
_symmetry_space_group_name_H-M    P1
_symmetry_Int_Tables_number       1
_symmetry_cell_setting            triclinic
loop_
_symmetry_equiv_pos_as_xyz
'x, y, z'
_cell_length_a     29.792291
_cell_length_b     29.513072
_cell_length_c     49.99471
_cell_angle_alpha  93.492382
_cell_angle_beta   90.791812
_cell_angle_gamma 119.63118
loop_
_atom_site_label
_atom_site_type_symbol
_atom_site_fract_x
_atom_site_fract_y
_atom_site_fract_z
_atom_type_partial_charge
Zn0 Zn 0.07896 0.6062 0.15994 0.0
Zn1 Zn 0.9355 0.49137 0.15181 0.0
C2 C 0.16005 0.58531 0.17806 0.0
O3 O 0.15815 0.60877 0.20086 0.0
C4 C 0.83968 0.48871 0.15544 0.0
O5 O 0.82857 0.44982 0.13748 0.0
O6 O 0.12373 0.68364 0.16292 0.0
O7 O 0.03882 0.58521 0.1247 0.0
O8 O 0.95839 0.52025 0.11599 0.0
C9 C 0.14985 0.70779 0.14352 0.0
O10 O 0.14496 0.68145 0.12049 0.0
O11 O 0.12838 0.57789 0.1587 0.0
C12 C 0.87651 0.39288 0.16858 0.0
O13 O 0.88568 0.42394 0.19036 0.0
O14 O 0.89447 0.41299 0.14676 0.0
O15 O 0.99276 0.50582 0.17908 0.0
O16 O 0.03921 0.5883 0.19309 0.0
O17 O 0.88583 0.51556 0.16546 0.0
C18 C 1e-05 0.55801 0.10853 0.0
C19 C 0.00666 0.54191 0.19771 0.0
Zn20 Zn 0.54987 0.0645 0.48118 0.0
Zn21 Zn 0.48118 0.90095 0.48837 0.0
C22 C 0.66049 0.11853 0.4913 0.0
O23 O 0.64891 0.1146 0.51661 0.0
C24 C 0.39242 0.80624 0.47996 0.0
O25 O 0.42698 0.79954 0.46694 0.0
O26 O 0.52127 0.11168 0.47251 0.0
O27 O 0.51617 0.99276 0.46517 0.0
O28 O 0.48995 0.91446 0.44876 0.0
C29 C 0.54912 0.1521 0.46012 0.0
O30 O 0.59041 0.1564 0.44877 0.0
O31 O 0.62441 0.09866 0.47312 0.0
C32 C 0.51529 0.8491 0.52183 0.0
O33 O 0.49258 0.86508 0.53931 0.0
O34 O 0.51855 0.86276 0.49803 0.0
O35 O 0.50739 0.96742 0.51406 0.0
O36 O 0.54289 0.0535 0.52038 0.0
O37 O 0.40611 0.85059 0.49208 0.0
C38 C 0.50782 0.9621 0.44473 0.0
C39 C 0.52371 0.00879 0.52978 0.0
Zn40 Zn 0.55973 0.48122 0.83831 0.0
Zn41 Zn 0.45677 0.52527 0.83785 0.0
C42 C 0.56423 0.38706 0.8402 0.0
O43 O 0.60436 0.41918 0.85616 0.0
C44 C 0.49756 0.6188 0.80992 0.0
O45 O 0.46973 0.58466 0.78997 0.0
O46 O 0.63699 0.52157 0.83858 0.0
O47 O 0.53582 0.51108 0.81021 0.0
O48 O 0.45254 0.47842 0.80575 0.0
C49 C 0.66027 0.51548 0.81876 0.0
O50 O 0.63307 0.48208 0.79844 0.0
O51 O 0.53706 0.40425 0.82952 0.0
C52 C 0.38416 0.54776 0.8599 0.0
O53 O 0.42368 0.57341 0.87731 0.0
O54 O 0.38731 0.51962 0.84059 0.0
O55 O 0.47624 0.51049 0.87387 0.0
O56 O 0.53804 0.48892 0.87549 0.0
O57 O 0.50188 0.60227 0.83218 0.0
C58 C 0.49364 0.48183 0.7969 0.0
C59 C 0.50556 0.49875 0.88694 0.0
H60 H 0.44677 0.98438 0.24627 0.0
H61 H 0.61078 0.08932 0.24966 0.0
H62 H 0.52361 0.04344 0.17383 0.0
C63 C 0.4819 0.00874 0.23628 0.0
C64 C 0.47972 0.01129 0.20842 0.0
C65 C 0.52916 0.03615 0.25124 0.0
C66 C 0.57431 0.06749 0.2381 0.0
C67 C 0.5727 0.07054 0.21017 0.0
C68 C 0.52524 0.04191 0.19541 0.0
H69 H 0.51744 0.54158 0.60555 0.0
H70 H 0.52723 0.40292 0.58666 0.0
H71 H 0.54132 0.50329 0.52449 0.0
C72 C 0.52174 0.51552 0.5909 0.0
C73 C 0.52943 0.52797 0.56409 0.0
C74 C 0.5206 0.47047 0.5992 0.0
C75 C 0.52854 0.43813 0.58048 0.0
C76 C 0.53579 0.44971 0.5535 0.0
C77 C 0.53617 0.49462 0.54535 0.0
H78 H 0.97935 0.63782 0.90423 0.0
H79 H 0.12012 0.63593 0.92034 0.0
H80 H 0.06622 0.62611 0.83868 0.0
C81 C 0.01352 0.63779 0.89702 0.0
C82 C 0.01986 0.63448 0.86935 0.0
C83 C 0.04937 0.63805 0.91544 0.0
C84 C 0.09296 0.63711 0.90611 0.0
C85 C 0.09935 0.6328 0.87848 0.0
C86 C 0.06226 0.63077 0.86004 0.0
H87 H 0.93068 0.39434 0.39148 0.0
H88 H 0.05448 0.5531 0.39917 0.0
H89 H 0.01512 0.46085 0.46749 0.0
C90 C 0.96107 0.42699 0.40378 0.0
C91 C 0.96895 0.422 0.43095 0.0
C92 C 0.99123 0.47448 0.39252 0.0
C93 C 0.02992 0.51707 0.40835 0.0
C94 C 0.03932 0.51233 0.43535 0.0
C95 C 0.00828 0.46478 0.44663 0.0
H96 H 0.51337 0.06551 0.73773 0.0
H97 H 0.54063 0.93577 0.73235 0.0
H98 H 0.52998 0.00109 0.80979 0.0
C99 C 0.5195 0.03711 0.74746 0.0
C100 C 0.52092 0.03823 0.77564 0.0
C101 C 0.5266 0.00049 0.73163 0.0
C102 C 0.53499 0.96415 0.74439 0.0
C103 C 0.53611 0.96372 0.7725 0.0
C104 C 0.529 0.00098 0.78812 0.0
H105 H 0.43812 0.5421 0.08862 0.0
H106 H 0.57893 0.53663 0.09592 0.0
H107 H 0.51162 0.5623 0.16677 0.0
C108 C 0.46927 0.54425 0.10108 0.0
C109 C 0.47008 0.55341 0.12909 0.0
C110 C 0.50835 0.53838 0.08889 0.0
C111 C 0.54884 0.54187 0.10507 0.0
C112 C 0.55034 0.55046 0.13306 0.0
C113 C 0.5104 0.55539 0.14517 0.0
H114 H 0.18465 0.55333 0.13091 0.0
H115 H 0.23322 0.59303 0.21498 0.0
H116 H 0.26096 0.5458 0.1222 0.0
H117 H 0.30987 0.58505 0.20607 0.0
H118 H 0.41366 0.51132 0.17324 0.0
H119 H 0.33738 0.51613 0.18767 0.0
H120 H 0.35671 0.61779 0.12505 0.0
H121 H 0.4328 0.61412 0.11113 0.0
C122 C 0.21119 0.55978 0.14763 0.0
C123 C 0.203 0.5743 0.17361 0.0
C124 C 0.25507 0.55571 0.14258 0.0
C125 C 0.29163 0.56552 0.16341 0.0
C126 C 0.28229 0.57732 0.18967 0.0
C127 C 0.23849 0.582 0.1947 0.0
C128 C 0.40211 0.53548 0.16297 0.0
C129 C 0.42864 0.56153 0.14072 0.0
C130 C 0.35842 0.53804 0.17114 0.0
C131 C 0.34057 0.56638 0.15706 0.0
C132 C 0.36884 0.5946 0.13584 0.0
C133 C 0.41244 0.59247 0.12789 0.0
H134 H 0.69586 0.13738 0.44097 0.0
H135 H 0.74587 0.1778 0.52488 0.0
H136 H 0.77946 0.20584 0.4287 0.0
H137 H 0.83038 0.24585 0.51247 0.0
H138 H 0.92154 0.41041 0.47814 0.0
H139 H 0.85489 0.32959 0.49467 0.0
H140 H 0.87215 0.24122 0.42737 0.0
H141 H 0.93861 0.32252 0.41067 0.0
C142 C 0.72516 0.16006 0.45679 0.0
C143 C 0.71401 0.15286 0.48392 0.0
C144 C 0.77331 0.19908 0.44973 0.0
C145 C 0.81134 0.23158 0.46965 0.0
C146 C 0.80147 0.22187 0.49672 0.0
C147 C 0.75319 0.18279 0.5038 0.0
C148 C 0.91201 0.37363 0.46727 0.0
C149 C 0.93465 0.37264 0.44298 0.0
C150 C 0.87397 0.32727 0.47678 0.0
C151 C 0.85806 0.27906 0.46221 0.0
C152 C 0.8831 0.27789 0.43879 0.0
C153 C 0.92101 0.3243 0.42923 0.0
H154 H 0.51803 0.67026 0.76438 0.0
H155 H 0.51595 0.69388 0.85034 0.0
H156 H 0.53638 0.75957 0.75979 0.0
H157 H 0.53369 0.78344 0.84567 0.0
H158 H 0.48083 0.90062 0.81183 0.0
H159 H 0.48076 0.82151 0.82433 0.0
H160 H 0.60578 0.85382 0.77224 0.0
H161 H 0.60658 0.93304 0.76019 0.0
C162 C 0.5223 0.69483 0.78234 0.0
C163 C 0.51574 0.67507 0.8077 0.0
C164 C 0.53296 0.74606 0.77973 0.0
C165 C 0.53644 0.77853 0.80239 0.0
C166 C 0.53106 0.75925 0.82786 0.0
C167 C 0.52134 0.70817 0.83053 0.0
C168 C 0.50933 0.89167 0.80373 0.0
C169 C 0.54309 0.92261 0.78468 0.0
C170 C 0.50921 0.8463 0.81081 0.0
C171 C 0.54269 0.83103 0.79888 0.0
C172 C 0.5789 0.86407 0.78137 0.0
C173 C 0.57932 0.90943 0.7745 0.0
H174 H 0.73628 0.42285 0.15098 0.0
H175 H 0.85039 0.58268 0.17556 0.0
H176 H 0.66786 0.44438 0.15561 0.0
H177 H 0.78119 0.60455 0.18027 0.0
H178 H 0.65209 0.62041 0.13021 0.0
H179 H 0.72446 0.60981 0.145 0.0
H180 H 0.6194 0.47346 0.18489 0.0
H181 H 0.54679 0.48424 0.16978 0.0
C182 C 0.74667 0.46251 0.15785 0.0
C183 C 0.79876 0.50126 0.16254 0.0
C184 C 0.7073 0.47475 0.16081 0.0
C185 C 0.71898 0.52623 0.16828 0.0
C186 C 0.771 0.56456 0.17437 0.0
C187 C 0.81056 0.55207 0.17175 0.0
C188 C 0.64488 0.5894 0.14302 0.0
C189 C 0.59405 0.55301 0.14882 0.0
C190 C 0.68632 0.58335 0.15157 0.0
C191 C 0.67764 0.54038 0.16584 0.0
C192 C 0.62721 0.50663 0.17367 0.0
C193 C 0.58572 0.513 0.16527 0.0
H194 H 0.30694 0.80956 0.4971 0.0
H195 H 0.35658 0.70501 0.46213 0.0
H196 H 0.21721 0.73788 0.4935 0.0
H197 H 0.26768 0.63425 0.45834 0.0
H198 H 0.1107 0.50554 0.4669 0.0
H199 H 0.19405 0.57725 0.48459 0.0
H200 H 0.15505 0.68839 0.45465 0.0
H201 H 0.07097 0.61668 0.43771 0.0
C202 C 0.29877 0.77125 0.48893 0.0
C203 C 0.33866 0.76294 0.47972 0.0
C204 C 0.24752 0.73036 0.48684 0.0
C205 C 0.23554 0.68048 0.47579 0.0
C206 C 0.27575 0.67199 0.46739 0.0
C207 C 0.32669 0.71275 0.4693 0.0
C208 C 0.11921 0.54532 0.4649 0.0
C209 C 0.08471 0.55559 0.45063 0.0
C210 C 0.1671 0.58632 0.47479 0.0
C211 C 0.1813 0.63828 0.4706 0.0
C212 C 0.14513 0.64875 0.45825 0.0
C213 C 0.09723 0.60772 0.44833 0.0
H214 H 0.4714 0.30082 0.82374 0.0
H215 H 0.63127 0.35001 0.84326 0.0
H216 H 0.4535 0.21124 0.81409 0.0
H217 H 0.6148 0.26191 0.83192 0.0
H218 H 0.57661 0.09688 0.8215 0.0
H219 H 0.58082 0.17644 0.8414 0.0
H220 H 0.46326 0.15776 0.78294 0.0
H221 H 0.45587 0.07633 0.76502 0.0
C222 C 0.50279 0.29248 0.82573 0.0
C223 C 0.55272 0.33246 0.83417 0.0
C224 C 0.49271 0.24107 0.82007 0.0
C225 C 0.53264 0.22861 0.82205 0.0
C226 C 0.58253 0.269 0.8307 0.0
C227 C 0.59225 0.31997 0.83695 0.0
C228 C 0.5505 0.10893 0.81352 0.0
C229 C 0.51674 0.08069 0.79124 0.0
C230 C 0.55356 0.15528 0.82459 0.0
C231 C 0.5235 0.17499 0.8134 0.0
C232 C 0.48716 0.14449 0.79235 0.0
C233 C 0.48339 0.0978 0.78171 0.0
H234 H 0.54598 0.79413 0.48796 0.0
H235 H 0.51299 0.81186 0.57064 0.0
H236 H 0.55312 0.7178 0.49763 0.0
H237 H 0.52105 0.73631 0.58034 0.0
H238 H 0.46211 0.56156 0.57772 0.0
H239 H 0.46582 0.64297 0.56788 0.0
H240 H 0.60163 0.68438 0.52269 0.0
H241 H 0.59777 0.60222 0.53258 0.0
C242 C 0.54129 0.78241 0.50831 0.0
C243 C 0.52824 0.80863 0.52847 0.0
C244 C 0.5455 0.73873 0.51384 0.0
C245 C 0.53675 0.72052 0.53963 0.0
C246 C 0.52681 0.74869 0.56011 0.0
C247 C 0.52254 0.79222 0.55459 0.0
C248 C 0.49289 0.5881 0.56576 0.0
C249 C 0.52991 0.57576 0.5561 0.0
C250 C 0.49518 0.63487 0.56023 0.0
C251 C 0.53454 0.67052 0.54489 0.0
C252 C 0.57081 0.65762 0.53454 0.0
C253 C 0.5685 0.61059 0.5401 0.0
H254 H 0.72684 0.58729 0.85745 0.0
H255 H 0.72265 0.50547 0.78191 0.0
H256 H 0.8199 0.62539 0.86151 0.0
H257 H 0.81669 0.54481 0.78573 0.0
H258 H 0.95916 0.55214 0.83393 0.0
H259 H 0.87478 0.53149 0.81478 0.0
H260 H 0.90241 0.68418 0.84467 0.0
H261 H 0.98595 0.70368 0.8646 0.0
C262 C 0.74591 0.57812 0.84145 0.0
C263 C 0.7173 0.54283 0.81954 0.0
C264 C 0.79948 0.6005 0.84362 0.0
C265 C 0.82581 0.58825 0.82388 0.0
C266 C 0.79744 0.55469 0.80134 0.0
C267 C 0.74364 0.53225 0.79916 0.0
C268 C 0.94785 0.58187 0.83544 0.0
C269 C 0.97838 0.62917 0.85087 0.0
C270 C 0.89957 0.57016 0.82449 0.0
C271 C 0.88146 0.60582 0.82874 0.0
C272 C 0.9148 0.65546 0.84163 0.0
C273 C 0.9627 0.66685 0.85282 0.0
H274 H 0.22004 0.76955 0.10837 0.0
H275 H 0.17377 0.77012 0.1899 0.0
H276 H 0.29736 0.8543 0.11922 0.0
H277 H 0.25126 0.85321 0.20092 0.0
H278 H 0.38793 0.00715 0.21743 0.0
H279 H 0.30323 0.94406 0.19661 0.0
H280 H 0.37537 0.87844 0.1449 0.0
H281 H 0.45983 0.94278 0.1651 0.0
C282 C 0.22592 0.7881 0.12846 0.0
C283 C 0.19131 0.76274 0.14841 0.0
C284 C 0.27033 0.8365 0.13471 0.0
C285 C 0.28093 0.86025 0.16102 0.0
C286 C 0.24426 0.83648 0.18038 0.0
C287 C 0.19988 0.78841 0.17411 0.0
C288 C 0.38548 0.97983 0.2012 0.0
C289 C 0.43004 0.97924 0.19299 0.0
C290 C 0.33712 0.94367 0.18934 0.0
C291 C 0.33238 0.90567 0.16936 0.0
C292 C 0.37752 0.90746 0.15999 0.0
C293 C 0.42595 0.94411 0.17163 0.0
H294 H 0.62238 0.25357 0.45546 0.0
H295 H 0.46418 0.15686 0.47664 0.0
H296 H 0.62033 0.33136 0.47316 0.0
H297 H 0.46206 0.23523 0.4938 0.0
H298 H 0.6083 0.41959 0.55433 0.0
H299 H 0.61079 0.35153 0.5249 0.0
H300 H 0.47513 0.32776 0.47993 0.0
H301 H 0.47347 0.397 0.5091 0.0
C302 C 0.58662 0.24896 0.4631 0.0
C303 C 0.54351 0.19896 0.4649 0.0
C304 C 0.58565 0.29355 0.47333 0.0
C305 C 0.54121 0.28908 0.48496 0.0
C306 C 0.49673 0.23961 0.4848 0.0
C307 C 0.49799 0.19482 0.47505 0.0
C308 C 0.57972 0.40046 0.53781 0.0
C309 C 0.54075 0.41327 0.53385 0.0
C310 C 0.58123 0.36182 0.52095 0.0
C311 C 0.54314 0.3346 0.50019 0.0
C312 C 0.50488 0.34831 0.4958 0.0
C313 C 0.50406 0.38786 0.51234 0.0
H314 H 0.30976 0.52471 0.82042 0.0
H315 H 0.35919 0.59267 0.90181 0.0
H316 H 0.24221 0.54875 0.82107 0.0
H317 H 0.29096 0.61506 0.90282 0.0
H318 H 0.20153 0.69608 0.89129 0.0
H319 H 0.27064 0.67564 0.88429 0.0
H320 H 0.16179 0.52957 0.8406 0.0
H321 H 0.0932 0.55137 0.84687 0.0
C322 C 0.30568 0.54407 0.83857 0.0
C323 C 0.33987 0.55703 0.86104 0.0
C324 C 0.26702 0.55786 0.83894 0.0
C325 C 0.26168 0.58458 0.86184 0.0
C326 C 0.2949 0.59587 0.88457 0.0
C327 C 0.3337 0.58253 0.88411 0.0
C328 C 0.19289 0.66025 0.87966 0.0
C329 C 0.14233 0.62522 0.86963 0.0
C330 C 0.23217 0.64818 0.8759 0.0
C331 C 0.22148 0.60039 0.86242 0.0
C332 C 0.17139 0.56676 0.851 0.0
C333 C 0.13215 0.57921 0.85451 0.0
H334 H 0.81556 0.32263 0.1274 0.0
H335 H 0.85721 0.33651 0.21181 0.0
H336 H 0.74562 0.23296 0.13145 0.0
H337 H 0.78795 0.24766 0.21585 0.0
H338 H 0.66951 0.08351 0.21825 0.0
H339 H 0.75016 0.15263 0.2024 0.0
H340 H 0.66381 0.20536 0.15599 0.0
H341 H 0.58348 0.13688 0.17197 0.0
C342 C 0.81061 0.30601 0.1466 0.0
C343 C 0.84112 0.33647 0.1694 0.0
C344 C 0.77061 0.25492 0.14892 0.0
C345 C 0.76129 0.23352 0.17397 0.0
C346 C 0.7945 0.26284 0.19623 0.0
C347 C 0.83385 0.31392 0.19399 0.0
C348 C 0.6678 0.10946 0.20436 0.0
C349 C 0.62035 0.10556 0.19679 0.0
C350 C 0.71385 0.1487 0.19518 0.0
C351 C 0.71319 0.18457 0.17819 0.0
C352 C 0.66547 0.17792 0.16884 0.0
C353 C 0.61943 0.13879 0.17809 0.0
H354 H 0.08736 0.60103 0.08093 0.0
H355 H 0.92311 0.54339 0.07257 0.0
H356 H 0.09667 0.62379 0.03478 0.0
H357 H 0.9325 0.56853 0.02642 0.0
H358 H 0.96281 0.56348 0.93641 0.0
H359 H 0.9487 0.54557 0.98336 0.0
H360 H 0.09648 0.68282 0.00589 0.0
H361 H 0.11137 0.69869 0.95861 0.0
C362 C 0.0533 0.59392 0.06924 0.0
C363 C 0.00455 0.57063 0.0803 0.0
C364 C 0.05865 0.60737 0.0428 0.0
C365 C 0.01547 0.5987 0.02685 0.0
C366 C 0.96654 0.5753 0.03798 0.0
C367 C 0.96108 0.56097 0.06441 0.0
C368 C 0.99178 0.59018 0.95153 0.0
C369 C 0.03819 0.63235 0.94407 0.0
C370 C 0.98371 0.58006 0.97845 0.0
C371 C 0.02165 0.6124 -0.0015 0.0
C372 C 0.06697 0.65627 0.99097 0.0
C373 C 0.07542 0.66576 0.96398 0.0
H374 H 0.51525 0.04984 0.42513 0.0
H375 H 0.53286 0.91575 0.40375 0.0
H376 H 0.52697 0.0728 0.37847 0.0
H377 H 0.54624 0.93936 0.35758 0.0
H378 H 0.4829 0.94547 0.27571 0.0
H379 H 0.4853 0.93347 0.32319 0.0
H380 H 0.58469 0.10002 0.34013 0.0
H381 H 0.58088 0.11223 0.29222 0.0
C382 C 0.52285 0.02609 0.41057 0.0
C383 C 0.52228 0.9806 0.41783 0.0
C384 C 0.52969 0.03925 0.38392 0.0
C385 C 0.53649 0.00725 0.36427 0.0
C386 C 0.53961 0.96393 0.37211 0.0
C387 C 0.53212 0.95049 0.39854 0.0
C388 C 0.50493 0.97961 0.28955 0.0
C389 C 0.53146 0.02977 0.28029 0.0
C390 C 0.50693 0.9727 0.31674 0.0
C391 C 0.53569 0.01576 0.33539 0.0
C392 C 0.56218 0.06613 0.32622 0.0
C393 C 0.56029 0.07306 0.29884 0.0
H394 H 0.57821 0.50801 0.76739 0.0
H395 H 0.4112 0.42023 0.76173 0.0
H396 H 0.58019 0.49197 0.71937 0.0
H397 H 0.41324 0.40387 0.71339 0.0
H398 H 0.44605 0.47195 0.62938 0.0
H399 H 0.43613 0.46227 0.67725 0.0
H400 H 0.56199 0.42912 0.6808 0.0
H401 H 0.57277 0.44029 0.63275 0.0
C402 C 0.54189 0.48408 0.75603 0.0
C403 C 0.49453 0.46573 0.76839 0.0
C404 C 0.54305 0.47475 0.72843 0.0
C405 C 0.49686 0.44692 0.71253 0.0
C406 C 0.44947 0.42607 0.72509 0.0
C407 C 0.44831 0.43537 0.75276 0.0
C408 C 0.47134 0.4622 0.64036 0.0
C409 C 0.51069 0.45767 0.62748 0.0
C410 C 0.46524 0.45598 0.66772 0.0
C411 C 0.49842 0.44513 0.68285 0.0
C412 C 0.53618 0.43799 0.6697 0.0
C413 C 0.54214 0.44403 0.64221 0.0
H414 H 0.45333 0.93104 0.55856 0.0
H415 H 0.59431 0.08003 0.56679 0.0
H416 H 0.45267 0.92848 0.60728 0.0
H417 H 0.59605 0.0763 0.61507 0.0
H418 H 0.56317 0.08517 0.70135 0.0
H419 H 0.55894 0.08566 0.65311 0.0
H420 H 0.48945 0.9172 0.64553 0.0
H421 H 0.48829 0.91631 0.694 0.0
C422 C 0.48453 0.96283 0.57086 0.0
C423 C 0.52368 0.00582 0.55905 0.0
C424 C 0.48445 0.96134 0.59877 0.0
C425 C 0.52419 0.00234 0.61536 0.0
C426 C 0.56394 0.04468 0.60322 0.0
C427 C 0.56327 0.04671 0.57546 0.0
C428 C 0.54583 0.04802 0.68951 0.0
C429 C 0.52577 0.00067 0.70181 0.0
C430 C 0.5444 0.04837 0.66164 0.0
C431 C 0.52426 0.00149 0.64515 0.0
C432 C 0.50463 0.95411 0.65742 0.0
C433 C 0.50488 0.95367 0.68536 0.0
H434 H 0.57117 0.4907 0.9228 0.0
H435 H 0.43563 0.5084 0.91822 0.0
H436 H 0.57074 0.49691 0.97166 0.0
H437 H 0.43565 0.51499 0.96703 0.0
H438 H 0.42462 0.47482 0.05479 0.0
H439 H 0.4225 0.46167 0.00602 0.0
H440 H 0.58725 0.5672 0.00722 0.0
H441 H 0.58938 0.58115 0.05588 0.0
C442 C 0.54111 0.49559 0.93216 0.0
C443 C 0.50357 0.49928 0.91655 0.0
C444 C 0.54109 0.49946 0.96015 0.0
C445 C 0.5033 0.50666 0.97314 0.0
C446 C 0.46501 0.50902 0.95757 0.0
C447 C 0.46521 0.50553 0.92959 0.0
C448 C 0.46033 0.49556 0.04464 0.0
C449 C 0.50715 0.52917 0.05925 0.0
C450 C 0.45911 0.48788 0.01673 0.0
C451 C 0.50471 0.51336 0.00283 0.0
C452 C 0.55161 0.54643 0.01743 0.0
C453 C 0.5528 0.55437 0.04531 0.0
H454 H 0.02596 0.60931 0.24165 0.0
H455 H 0.96734 0.44583 0.21774 0.0
H456 H 0.01681 0.58992 0.28835 0.0
H457 H 0.95328 0.42548 0.26424 0.0
H458 H 0.00134 0.41839 0.35052 0.0
H459 H -4e-05 0.43248 0.30309 0.0
H460 H 0.96184 0.55401 0.3228 0.0
H461 H 0.96681 0.54172 0.37037 0.0
C462 C 0.00996 0.569 0.24633 0.0
C463 C 0.99672 0.52904 0.2259 0.0
C464 C 0.00407 0.55771 0.27317 0.0
C465 C 0.98399 0.506 0.28024 0.0
C466 C 0.96949 0.46586 0.25968 0.0
C467 C 0.97652 0.47736 0.23288 0.0
C468 C 0.99222 0.4477 0.3445 0.0
C469 C 0.98442 0.4792 0.36382 0.0
C470 C 0.99105 0.45565 0.31734 0.0
C471 C 0.98102 0.49465 0.30896 0.0
C472 C 0.97093 0.52453 0.32846 0.0
C473 C 0.97328 0.5173 0.35566 0.0
loop_
_geom_bond_atom_site_label_1
_geom_bond_atom_site_label_2
_geom_bond_distance
_geom_bond_site_symmetry_2
_ccdc_geom_bond_type
Zn0 O6 1.969 . S
Zn0 O7 1.965 . S
Zn0 O11 2.024 . S
Zn0 O16 1.969 . S
Zn1 O8 1.969 . S
Zn1 O14 1.969 . S
Zn1 O15 1.965 . S
Zn1 O17 2.024 . S
C2 O3 1.229 . S
C2 O11 1.058 . S
O3 C2 1.229 . S
C4 O5 1.229 . S
C4 O17 1.058 . S
O5 C4 1.229 . S
O6 Zn0 1.969 . S
O6 C9 1.267 . S
O7 Zn0 1.965 . S
O7 C18 1.260 1_455 S
O8 Zn1 1.969 . S
O8 C18 1.258 . S
C9 O6 1.267 . S
C9 O10 1.228 . S
O10 C9 1.228 . S
O11 Zn0 2.024 . S
O11 C2 1.058 . S
C12 O13 1.228 . S
C12 O14 1.267 . S
O13 C12 1.228 . S
O14 Zn1 1.969 . S
O14 C12 1.267 . S
O15 Zn1 1.965 . S
O15 C19 1.260 1_655 S
O16 Zn0 1.969 . S
O16 C19 1.258 . S
O17 Zn1 2.024 . S
O17 C4 1.058 . S
C18 O7 1.260 1_655 S
C18 O8 1.258 . S
C19 O15 1.260 1_455 S
C19 O16 1.258 . S
Zn20 O26 1.969 . S
Zn20 O27 1.965 . S
Zn20 O31 2.024 . S
Zn20 O36 1.969 . S
Zn21 O28 1.969 . S
Zn21 O34 1.969 . S
Zn21 O35 1.965 . S
Zn21 O37 2.024 . S
C22 O23 1.229 . S
C22 O31 1.058 . S
O23 C22 1.229 . S
C24 O25 1.229 . S
C24 O37 1.058 . S
O25 C24 1.229 . S
O26 Zn20 1.969 . S
O26 C29 1.267 . S
O27 Zn20 1.965 . S
O27 C38 1.260 . S
O28 Zn21 1.969 . S
O28 C38 1.258 1_565 S
C29 O26 1.267 . S
C29 O30 1.228 . S
O30 C29 1.228 . S
O31 Zn20 2.024 . S
O31 C22 1.058 . S
C32 O33 1.228 . S
C32 O34 1.267 . S
O33 C32 1.228 . S
O34 Zn21 1.969 . S
O34 C32 1.267 . S
O35 Zn21 1.965 . S
O35 C39 1.260 1_565 S
O36 Zn20 1.969 . S
O36 C39 1.258 . S
O37 Zn21 2.024 . S
O37 C24 1.058 . S
C38 O27 1.260 . S
C38 O28 1.258 1_545 S
C39 O35 1.260 1_545 S
C39 O36 1.258 . S
Zn40 O46 1.969 . S
Zn40 O47 1.965 . S
Zn40 O51 2.024 . S
Zn40 O56 1.969 . S
Zn41 O48 1.969 . S
Zn41 O54 1.969 . S
Zn41 O55 1.965 . S
Zn41 O57 2.024 . S
C42 O43 1.229 . S
C42 O51 1.058 . S
O43 C42 1.229 . S
C44 O45 1.229 . S
C44 O57 1.058 . S
O45 C44 1.229 . S
O46 Zn40 1.969 . S
O46 C49 1.267 . S
O47 Zn40 1.965 . S
O47 C58 1.260 . S
O48 Zn41 1.969 . S
O48 C58 1.258 . S
C49 O46 1.267 . S
C49 O50 1.228 . S
O50 C49 1.228 . S
O51 Zn40 2.024 . S
O51 C42 1.058 . S
C52 O53 1.228 . S
C52 O54 1.267 . S
O53 C52 1.228 . S
O54 Zn41 1.969 . S
O54 C52 1.267 . S
O55 Zn41 1.965 . S
O55 C59 1.260 . S
O56 Zn40 1.969 . S
O56 C59 1.258 . S
O57 Zn41 2.024 . S
O57 C44 1.058 . S
C58 O47 1.260 . S
C58 O48 1.258 . S
C59 O55 1.260 . S
C59 O56 1.258 . S
H60 C63 0.931 . S
H61 C66 0.928 . S
H62 C68 0.930 . S
C63 H60 0.931 . S
C63 C64 1.413 . S
C63 C65 1.360 1_565 S
C64 C63 1.413 . S
C64 C68 1.429 1_565 S
C65 C63 1.360 1_545 S
C65 C66 1.372 . S
C66 H61 0.928 . S
C66 C65 1.372 . S
C66 C67 1.404 . S
C67 C66 1.404 . S
C67 C68 1.391 . S
C68 H62 0.930 . S
C68 C64 1.429 1_545 S
C68 C67 1.391 . S
H69 C72 0.931 . S
H70 C75 0.928 . S
H71 C77 0.930 . S
C72 H69 0.931 . S
C72 C73 1.413 . S
C72 C74 1.360 . S
C73 C72 1.413 . S
C73 C77 1.429 . S
C74 C72 1.360 . S
C74 C75 1.372 . S
C75 H70 0.928 . S
C75 C74 1.372 . S
C75 C76 1.404 . S
C76 C75 1.404 . S
C76 C77 1.391 . S
C77 H71 0.930 . S
C77 C73 1.429 . S
C77 C76 1.391 . S
H78 C81 0.931 . S
H79 C84 0.928 . S
H80 C86 0.930 . S
C81 H78 0.931 . S
C81 C82 1.413 . S
C81 C83 1.360 1_655 S
C82 C81 1.413 . S
C82 C86 1.429 1_655 S
C83 C81 1.360 1_455 S
C83 C84 1.372 . S
C84 H79 0.928 . S
C84 C83 1.372 . S
C84 C85 1.404 . S
C85 C84 1.404 . S
C85 C86 1.391 . S
C86 H80 0.930 . S
C86 C82 1.429 1_455 S
C86 C85 1.391 . S
H87 C90 0.931 . S
H88 C93 0.928 . S
H89 C95 0.930 . S
C90 H87 0.931 . S
C90 C91 1.413 . S
C90 C92 1.360 1_655 S
C91 C90 1.413 . S
C91 C95 1.429 1_655 S
C92 C90 1.360 1_455 S
C92 C93 1.372 . S
C93 H88 0.928 . S
C93 C92 1.372 . S
C93 C94 1.404 . S
C94 C93 1.404 . S
C94 C95 1.391 . S
C95 H89 0.930 . S
C95 C91 1.429 1_455 S
C95 C94 1.391 . S
H96 C99 0.931 . S
H97 C102 0.928 . S
H98 C104 0.930 . S
C99 H96 0.931 . S
C99 C100 1.413 . S
C99 C101 1.360 . S
C100 C99 1.413 . S
C100 C104 1.429 . S
C101 C99 1.360 . S
C101 C102 1.372 1_545 S
C102 H97 0.928 . S
C102 C101 1.372 1_565 S
C102 C103 1.404 . S
C103 C102 1.404 . S
C103 C104 1.391 1_565 S
C104 H98 0.930 . S
C104 C100 1.429 . S
C104 C103 1.391 1_545 S
H105 C108 0.931 . S
H106 C111 0.928 . S
H107 C113 0.930 . S
C108 H105 0.931 . S
C108 C109 1.413 . S
C108 C110 1.360 . S
C109 C108 1.413 . S
C109 C113 1.429 . S
C110 C108 1.360 . S
C110 C111 1.372 . S
C111 H106 0.928 . S
C111 C110 1.372 . S
C111 C112 1.404 . S
C112 C111 1.404 . S
C112 C113 1.391 . S
C113 H107 0.930 . S
C113 C109 1.429 . S
C113 C112 1.391 . S
H114 C122 0.950 . S
H115 C127 0.950 . S
H116 C124 0.950 . S
H117 C126 0.950 . S
H118 C128 0.950 . S
H119 C130 0.950 . S
H120 C132 0.950 . S
H121 C133 0.950 . S
C122 H114 0.950 . S
C122 C123 1.386 . S
C122 C124 1.391 . S
C123 C122 1.386 . S
C123 C127 1.393 . S
C124 H116 0.950 . S
C124 C122 1.391 . S
C124 C125 1.400 . S
C125 C124 1.400 . S
C125 C126 1.398 . S
C125 C131 1.491 . S
C126 H117 0.950 . S
C126 C125 1.398 . S
C126 C127 1.391 . S
C127 H115 0.950 . S
C127 C123 1.393 . S
C127 C126 1.391 . S
C128 H118 0.950 . S
C128 C129 1.386 . S
C128 C130 1.391 . S
C129 C128 1.386 . S
C129 C133 1.393 . S
C130 H119 0.950 . S
C130 C128 1.391 . S
C130 C131 1.400 . S
C131 C125 1.491 . S
C131 C130 1.400 . S
C131 C132 1.398 . S
C132 H120 0.950 . S
C132 C131 1.398 . S
C132 C133 1.391 . S
C133 H121 0.950 . S
C133 C129 1.393 . S
C133 C132 1.391 . S
H134 C142 0.950 . S
H135 C147 0.950 . S
H136 C144 0.950 . S
H137 C146 0.950 . S
H138 C148 0.950 . S
H139 C150 0.950 . S
H140 C152 0.950 . S
H141 C153 0.950 . S
C142 H134 0.950 . S
C142 C143 1.386 . S
C142 C144 1.391 . S
C143 C142 1.386 . S
C143 C147 1.393 . S
C144 H136 0.950 . S
C144 C142 1.391 . S
C144 C145 1.400 . S
C145 C144 1.400 . S
C145 C146 1.398 . S
C145 C151 1.491 . S
C146 H137 0.950 . S
C146 C145 1.398 . S
C146 C147 1.391 . S
C147 H135 0.950 . S
C147 C143 1.393 . S
C147 C146 1.391 . S
C148 H138 0.950 . S
C148 C149 1.386 . S
C148 C150 1.391 . S
C149 C148 1.386 . S
C149 C153 1.393 . S
C150 H139 0.950 . S
C150 C148 1.391 . S
C150 C151 1.400 . S
C151 C145 1.491 . S
C151 C150 1.400 . S
C151 C152 1.398 . S
C152 H140 0.950 . S
C152 C151 1.398 . S
C152 C153 1.391 . S
C153 H141 0.950 . S
C153 C149 1.393 . S
C153 C152 1.391 . S
H154 C162 0.950 . S
H155 C167 0.950 . S
H156 C164 0.950 . S
H157 C166 0.950 . S
H158 C168 0.950 . S
H159 C170 0.950 . S
H160 C172 0.950 . S
H161 C173 0.950 . S
C162 H154 0.950 . S
C162 C163 1.386 . S
C162 C164 1.391 . S
C163 C162 1.386 . S
C163 C167 1.393 . S
C164 H156 0.950 . S
C164 C162 1.391 . S
C164 C165 1.400 . S
C165 C164 1.400 . S
C165 C166 1.398 . S
C165 C171 1.491 . S
C166 H157 0.950 . S
C166 C165 1.398 . S
C166 C167 1.391 . S
C167 H155 0.950 . S
C167 C163 1.393 . S
C167 C166 1.391 . S
C168 H158 0.950 . S
C168 C169 1.386 . S
C168 C170 1.391 . S
C169 C168 1.386 . S
C169 C173 1.393 . S
C170 H159 0.950 . S
C170 C168 1.391 . S
C170 C171 1.400 . S
C171 C165 1.491 . S
C171 C170 1.400 . S
C171 C172 1.398 . S
C172 H160 0.950 . S
C172 C171 1.398 . S
C172 C173 1.391 . S
C173 H161 0.950 . S
C173 C169 1.393 . S
C173 C172 1.391 . S
H174 C182 0.950 . S
H175 C187 0.950 . S
H176 C184 0.950 . S
H177 C186 0.950 . S
H178 C188 0.950 . S
H179 C190 0.950 . S
H180 C192 0.950 . S
H181 C193 0.950 . S
C182 H174 0.950 . S
C182 C183 1.386 . S
C182 C184 1.391 . S
C183 C182 1.386 . S
C183 C187 1.393 . S
C184 H176 0.950 . S
C184 C182 1.391 . S
C184 C185 1.400 . S
C185 C184 1.400 . S
C185 C186 1.398 . S
C185 C191 1.491 . S
C186 H177 0.950 . S
C186 C185 1.398 . S
C186 C187 1.391 . S
C187 H175 0.950 . S
C187 C183 1.393 . S
C187 C186 1.391 . S
C188 H178 0.950 . S
C188 C189 1.386 . S
C188 C190 1.391 . S
C189 C188 1.386 . S
C189 C193 1.393 . S
C190 H179 0.950 . S
C190 C188 1.391 . S
C190 C191 1.400 . S
C191 C185 1.491 . S
C191 C190 1.400 . S
C191 C192 1.398 . S
C192 H180 0.950 . S
C192 C191 1.398 . S
C192 C193 1.391 . S
C193 H181 0.950 . S
C193 C189 1.393 . S
C193 C192 1.391 . S
H194 C202 0.950 . S
H195 C207 0.950 . S
H196 C204 0.950 . S
H197 C206 0.950 . S
H198 C208 0.950 . S
H199 C210 0.950 . S
H200 C212 0.950 . S
H201 C213 0.950 . S
C202 H194 0.950 . S
C202 C203 1.386 . S
C202 C204 1.391 . S
C203 C202 1.386 . S
C203 C207 1.393 . S
C204 H196 0.950 . S
C204 C202 1.391 . S
C204 C205 1.400 . S
C205 C204 1.400 . S
C205 C206 1.398 . S
C205 C211 1.491 . S
C206 H197 0.950 . S
C206 C205 1.398 . S
C206 C207 1.391 . S
C207 H195 0.950 . S
C207 C203 1.393 . S
C207 C206 1.391 . S
C208 H198 0.950 . S
C208 C209 1.386 . S
C208 C210 1.391 . S
C209 C208 1.386 . S
C209 C213 1.393 . S
C210 H199 0.950 . S
C210 C208 1.391 . S
C210 C211 1.400 . S
C211 C205 1.491 . S
C211 C210 1.400 . S
C211 C212 1.398 . S
C212 H200 0.950 . S
C212 C211 1.398 . S
C212 C213 1.391 . S
C213 H201 0.950 . S
C213 C209 1.393 . S
C213 C212 1.391 . S
H214 C222 0.950 . S
H215 C227 0.950 . S
H216 C224 0.950 . S
H217 C226 0.950 . S
H218 C228 0.950 . S
H219 C230 0.950 . S
H220 C232 0.950 . S
H221 C233 0.950 . S
C222 H214 0.950 . S
C222 C223 1.386 . S
C222 C224 1.391 . S
C223 C222 1.386 . S
C223 C227 1.393 . S
C224 H216 0.950 . S
C224 C222 1.391 . S
C224 C225 1.400 . S
C225 C224 1.400 . S
C225 C226 1.398 . S
C225 C231 1.491 . S
C226 H217 0.950 . S
C226 C225 1.398 . S
C226 C227 1.391 . S
C227 H215 0.950 . S
C227 C223 1.393 . S
C227 C226 1.391 . S
C228 H218 0.950 . S
C228 C229 1.386 . S
C228 C230 1.391 . S
C229 C228 1.386 . S
C229 C233 1.393 . S
C230 H219 0.950 . S
C230 C228 1.391 . S
C230 C231 1.400 . S
C231 C225 1.491 . S
C231 C230 1.400 . S
C231 C232 1.398 . S
C232 H220 0.950 . S
C232 C231 1.398 . S
C232 C233 1.391 . S
C233 H221 0.950 . S
C233 C229 1.393 . S
C233 C232 1.391 . S
H234 C242 0.950 . S
H235 C247 0.950 . S
H236 C244 0.950 . S
H237 C246 0.950 . S
H238 C248 0.950 . S
H239 C250 0.950 . S
H240 C252 0.950 . S
H241 C253 0.950 . S
C242 H234 0.950 . S
C242 C243 1.386 . S
C242 C244 1.391 . S
C243 C242 1.386 . S
C243 C247 1.393 . S
C244 H236 0.950 . S
C244 C242 1.391 . S
C244 C245 1.400 . S
C245 C244 1.400 . S
C245 C246 1.398 . S
C245 C251 1.491 . S
C246 H237 0.950 . S
C246 C245 1.398 . S
C246 C247 1.391 . S
C247 H235 0.950 . S
C247 C243 1.393 . S
C247 C246 1.391 . S
C248 H238 0.950 . S
C248 C249 1.386 . S
C248 C250 1.391 . S
C249 C248 1.386 . S
C249 C253 1.393 . S
C250 H239 0.950 . S
C250 C248 1.391 . S
C250 C251 1.400 . S
C251 C245 1.491 . S
C251 C250 1.400 . S
C251 C252 1.398 . S
C252 H240 0.950 . S
C252 C251 1.398 . S
C252 C253 1.391 . S
C253 H241 0.950 . S
C253 C249 1.393 . S
C253 C252 1.391 . S
H254 C262 0.950 . S
H255 C267 0.950 . S
H256 C264 0.950 . S
H257 C266 0.950 . S
H258 C268 0.950 . S
H259 C270 0.950 . S
H260 C272 0.950 . S
H261 C273 0.950 . S
C262 H254 0.950 . S
C262 C263 1.386 . S
C262 C264 1.391 . S
C263 C262 1.386 . S
C263 C267 1.393 . S
C264 H256 0.950 . S
C264 C262 1.391 . S
C264 C265 1.400 . S
C265 C264 1.400 . S
C265 C266 1.398 . S
C265 C271 1.491 . S
C266 H257 0.950 . S
C266 C265 1.398 . S
C266 C267 1.391 . S
C267 H255 0.950 . S
C267 C263 1.393 . S
C267 C266 1.391 . S
C268 H258 0.950 . S
C268 C269 1.386 . S
C268 C270 1.391 . S
C269 C268 1.386 . S
C269 C273 1.393 . S
C270 H259 0.950 . S
C270 C268 1.391 . S
C270 C271 1.400 . S
C271 C265 1.491 . S
C271 C270 1.400 . S
C271 C272 1.398 . S
C272 H260 0.950 . S
C272 C271 1.398 . S
C272 C273 1.391 . S
C273 H261 0.950 . S
C273 C269 1.393 . S
C273 C272 1.391 . S
H274 C282 0.950 . S
H275 C287 0.950 . S
H276 C284 0.950 . S
H277 C286 0.950 . S
H278 C288 0.950 . S
H279 C290 0.950 . S
H280 C292 0.950 . S
H281 C293 0.950 . S
C282 H274 0.950 . S
C282 C283 1.386 . S
C282 C284 1.391 . S
C283 C282 1.386 . S
C283 C287 1.393 . S
C284 H276 0.950 . S
C284 C282 1.391 . S
C284 C285 1.400 . S
C285 C284 1.400 . S
C285 C286 1.398 . S
C285 C291 1.491 . S
C286 H277 0.950 . S
C286 C285 1.398 . S
C286 C287 1.391 . S
C287 H275 0.950 . S
C287 C283 1.393 . S
C287 C286 1.391 . S
C288 H278 0.950 . S
C288 C289 1.386 . S
C288 C290 1.391 . S
C289 C288 1.386 . S
C289 C293 1.393 . S
C290 H279 0.950 . S
C290 C288 1.391 . S
C290 C291 1.400 . S
C291 C285 1.491 . S
C291 C290 1.400 . S
C291 C292 1.398 . S
C292 H280 0.950 . S
C292 C291 1.398 . S
C292 C293 1.391 . S
C293 H281 0.950 . S
C293 C289 1.393 . S
C293 C292 1.391 . S
H294 C302 0.950 . S
H295 C307 0.950 . S
H296 C304 0.950 . S
H297 C306 0.950 . S
H298 C308 0.950 . S
H299 C310 0.950 . S
H300 C312 0.950 . S
H301 C313 0.950 . S
C302 H294 0.950 . S
C302 C303 1.386 . S
C302 C304 1.391 . S
C303 C302 1.386 . S
C303 C307 1.393 . S
C304 H296 0.950 . S
C304 C302 1.391 . S
C304 C305 1.400 . S
C305 C304 1.400 . S
C305 C306 1.398 . S
C305 C311 1.491 . S
C306 H297 0.950 . S
C306 C305 1.398 . S
C306 C307 1.391 . S
C307 H295 0.950 . S
C307 C303 1.393 . S
C307 C306 1.391 . S
C308 H298 0.950 . S
C308 C309 1.386 . S
C308 C310 1.391 . S
C309 C308 1.386 . S
C309 C313 1.393 . S
C310 H299 0.950 . S
C310 C308 1.391 . S
C310 C311 1.400 . S
C311 C305 1.491 . S
C311 C310 1.400 . S
C311 C312 1.398 . S
C312 H300 0.950 . S
C312 C311 1.398 . S
C312 C313 1.391 . S
C313 H301 0.950 . S
C313 C309 1.393 . S
C313 C312 1.391 . S
H314 C322 0.950 . S
H315 C327 0.950 . S
H316 C324 0.950 . S
H317 C326 0.950 . S
H318 C328 0.950 . S
H319 C330 0.950 . S
H320 C332 0.950 . S
H321 C333 0.950 . S
C322 H314 0.950 . S
C322 C323 1.386 . S
C322 C324 1.391 . S
C323 C322 1.386 . S
C323 C327 1.393 . S
C324 H316 0.950 . S
C324 C322 1.391 . S
C324 C325 1.400 . S
C325 C324 1.400 . S
C325 C326 1.398 . S
C325 C331 1.491 . S
C326 H317 0.950 . S
C326 C325 1.398 . S
C326 C327 1.391 . S
C327 H315 0.950 . S
C327 C323 1.393 . S
C327 C326 1.391 . S
C328 H318 0.950 . S
C328 C329 1.386 . S
C328 C330 1.391 . S
C329 C328 1.386 . S
C329 C333 1.393 . S
C330 H319 0.950 . S
C330 C328 1.391 . S
C330 C331 1.400 . S
C331 C325 1.491 . S
C331 C330 1.400 . S
C331 C332 1.398 . S
C332 H320 0.950 . S
C332 C331 1.398 . S
C332 C333 1.391 . S
C333 H321 0.950 . S
C333 C329 1.393 . S
C333 C332 1.391 . S
H334 C342 0.950 . S
H335 C347 0.950 . S
H336 C344 0.950 . S
H337 C346 0.950 . S
H338 C348 0.950 . S
H339 C350 0.950 . S
H340 C352 0.950 . S
H341 C353 0.950 . S
C342 H334 0.950 . S
C342 C343 1.386 . S
C342 C344 1.391 . S
C343 C342 1.386 . S
C343 C347 1.393 . S
C344 H336 0.950 . S
C344 C342 1.391 . S
C344 C345 1.400 . S
C345 C344 1.400 . S
C345 C346 1.398 . S
C345 C351 1.491 . S
C346 H337 0.950 . S
C346 C345 1.398 . S
C346 C347 1.391 . S
C347 H335 0.950 . S
C347 C343 1.393 . S
C347 C346 1.391 . S
C348 H338 0.950 . S
C348 C349 1.386 . S
C348 C350 1.391 . S
C349 C348 1.386 . S
C349 C353 1.393 . S
C350 H339 0.950 . S
C350 C348 1.391 . S
C350 C351 1.400 . S
C351 C345 1.491 . S
C351 C350 1.400 . S
C351 C352 1.398 . S
C352 H340 0.950 . S
C352 C351 1.398 . S
C352 C353 1.391 . S
C353 H341 0.950 . S
C353 C349 1.393 . S
C353 C352 1.391 . S
H354 C362 0.950 . S
H355 C367 0.950 . S
H356 C364 0.950 . S
H357 C366 0.950 . S
H358 C368 0.950 . S
H359 C370 0.949 . S
H360 C372 0.935 1_554 S
H361 C373 0.950 . S
C362 H354 0.950 . S
C362 C363 1.386 . S
C362 C364 1.391 . S
C363 C362 1.386 . S
C363 C367 1.393 1_455 S
C364 H356 0.950 . S
C364 C362 1.391 . S
C364 C365 1.400 . S
C365 C364 1.400 . S
C365 C366 1.398 1_455 S
C365 C371 1.491 . S
C366 H357 0.950 . S
C366 C365 1.398 1_655 S
C366 C367 1.391 . S
C367 H355 0.950 . S
C367 C363 1.393 1_655 S
C367 C366 1.391 . S
C368 H358 0.950 . S
C368 C369 1.386 1_655 S
C368 C370 1.391 . S
C369 C368 1.386 1_455 S
C369 C373 1.393 . S
C370 H359 0.949 . S
C370 C368 1.391 . S
C370 C371 1.400 1_656 S
C371 C365 1.491 . S
C371 C370 1.400 1_454 S
C371 C372 1.387 1_554 S
C372 H360 0.935 1_556 S
C372 C371 1.387 1_556 S
C372 C373 1.417 . S
C373 H361 0.950 . S
C373 C369 1.393 . S
C373 C372 1.417 . S
H374 C382 0.950 . S
H375 C387 0.950 . S
H376 C384 0.950 . S
H377 C386 0.950 . S
H378 C388 0.950 . S
H379 C390 0.950 . S
H380 C392 0.950 . S
H381 C393 0.950 . S
C382 H374 0.950 . S
C382 C383 1.386 . S
C382 C384 1.391 . S
C383 C382 1.386 . S
C383 C387 1.393 1_545 S
C384 H376 0.950 . S
C384 C382 1.391 . S
C384 C385 1.400 . S
C385 C384 1.400 . S
C385 C386 1.398 1_545 S
C385 C391 1.491 . S
C386 H377 0.950 . S
C386 C385 1.398 1_565 S
C386 C387 1.391 . S
C387 H375 0.950 . S
C387 C383 1.393 1_565 S
C387 C386 1.391 . S
C388 H378 0.950 . S
C388 C389 1.386 1_565 S
C388 C390 1.391 . S
C389 C388 1.386 1_545 S
C389 C393 1.393 . S
C390 H379 0.950 . S
C390 C388 1.391 . S
C390 C391 1.400 1_565 S
C391 C385 1.491 . S
C391 C390 1.400 1_545 S
C391 C392 1.398 . S
C392 H380 0.950 . S
C392 C391 1.398 . S
C392 C393 1.391 . S
C393 H381 0.950 . S
C393 C389 1.393 . S
C393 C392 1.391 . S
H394 C402 0.950 . S
H395 C407 0.950 . S
H396 C404 0.950 . S
H397 C406 0.950 . S
H398 C408 0.950 . S
H399 C410 0.950 . S
H400 C412 0.950 . S
H401 C413 0.950 . S
C402 H394 0.950 . S
C402 C403 1.386 . S
C402 C404 1.391 . S
C403 C402 1.386 . S
C403 C407 1.393 . S
C404 H396 0.950 . S
C404 C402 1.391 . S
C404 C405 1.400 . S
C405 C404 1.400 . S
C405 C406 1.398 . S
C405 C411 1.491 . S
C406 H397 0.950 . S
C406 C405 1.398 . S
C406 C407 1.391 . S
C407 H395 0.950 . S
C407 C403 1.393 . S
C407 C406 1.391 . S
C408 H398 0.950 . S
C408 C409 1.386 . S
C408 C410 1.391 . S
C409 C408 1.386 . S
C409 C413 1.393 . S
C410 H399 0.950 . S
C410 C408 1.391 . S
C410 C411 1.400 . S
C411 C405 1.491 . S
C411 C410 1.400 . S
C411 C412 1.398 . S
C412 H400 0.950 . S
C412 C411 1.398 . S
C412 C413 1.391 . S
C413 H401 0.950 . S
C413 C409 1.393 . S
C413 C412 1.391 . S
H414 C422 0.950 . S
H415 C427 0.950 . S
H416 C424 0.950 . S
H417 C426 0.950 . S
H418 C428 0.950 . S
H419 C430 0.950 . S
H420 C432 0.950 . S
H421 C433 0.950 . S
C422 H414 0.950 . S
C422 C423 1.386 1_565 S
C422 C424 1.391 . S
C423 C422 1.386 1_545 S
C423 C427 1.393 . S
C424 H416 0.950 . S
C424 C422 1.391 . S
C424 C425 1.400 1_565 S
C425 C424 1.400 1_545 S
C425 C426 1.398 . S
C425 C431 1.491 . S
C426 H417 0.950 . S
C426 C425 1.398 . S
C426 C427 1.391 . S
C427 H415 0.950 . S
C427 C423 1.393 . S
C427 C426 1.391 . S
C428 H418 0.950 . S
C428 C429 1.386 . S
C428 C430 1.391 . S
C429 C428 1.386 . S
C429 C433 1.393 1_545 S
C430 H419 0.950 . S
C430 C428 1.391 . S
C430 C431 1.400 . S
C431 C425 1.491 . S
C431 C430 1.400 . S
C431 C432 1.398 1_545 S
C432 H420 0.950 . S
C432 C431 1.398 1_565 S
C432 C433 1.391 . S
C433 H421 0.950 . S
C433 C429 1.393 1_565 S
C433 C432 1.391 . S
H434 C442 0.950 . S
H435 C447 0.950 . S
H436 C444 0.950 . S
H437 C446 0.950 . S
H438 C448 0.950 . S
H439 C450 0.950 1_556 S
H440 C452 0.950 1_556 S
H441 C453 0.950 . S
C442 H434 0.950 . S
C442 C443 1.386 . S
C442 C444 1.391 . S
C443 C442 1.386 . S
C443 C447 1.393 . S
C444 H436 0.950 . S
C444 C442 1.391 . S
C444 C445 1.400 . S
C445 C444 1.400 . S
C445 C446 1.398 . S
C445 C451 1.491 . S
C446 H437 0.950 . S
C446 C445 1.398 . S
C446 C447 1.391 . S
C447 H435 0.950 . S
C447 C443 1.393 . S
C447 C446 1.391 . S
C448 H438 0.950 . S
C448 C449 1.386 . S
C448 C450 1.391 . S
C449 C448 1.386 . S
C449 C453 1.393 . S
C450 H439 0.950 1_554 S
C450 C448 1.391 . S
C450 C451 1.400 1_554 S
C451 C445 1.491 . S
C451 C450 1.400 1_556 S
C451 C452 1.398 1_556 S
C452 H440 0.950 1_554 S
C452 C451 1.398 1_554 S
C452 C453 1.391 . S
C453 H441 0.950 . S
C453 C449 1.393 . S
C453 C452 1.391 . S
H454 C462 0.950 . S
H455 C467 0.950 . S
H456 C464 0.950 . S
H457 C466 0.950 . S
H458 C468 0.950 . S
H459 C470 0.950 . S
H460 C472 0.950 . S
H461 C473 0.950 . S
C462 H454 0.950 . S
C462 C463 1.386 . S
C462 C464 1.391 . S
C463 C462 1.386 . S
C463 C467 1.393 1_655 S
C464 H456 0.950 . S
C464 C462 1.391 . S
C464 C465 1.400 1_655 S
C465 C464 1.400 1_455 S
C465 C466 1.398 . S
C465 C471 1.491 . S
C466 H457 0.950 . S
C466 C465 1.398 . S
C466 C467 1.391 . S
C467 H455 0.950 . S
C467 C463 1.393 1_455 S
C467 C466 1.391 . S
C468 H458 0.950 . S
C468 C469 1.386 . S
C468 C470 1.391 . S
C469 C468 1.386 . S
C469 C473 1.393 . S
C470 H459 0.950 . S
C470 C468 1.391 . S
C470 C471 1.400 . S
C471 C465 1.491 . S
C471 C470 1.400 . S
C471 C472 1.398 . S
C472 H460 0.950 . S
C472 C471 1.398 . S
C472 C473 1.391 . S
C473 H461 0.950 . S
C473 C469 1.393 . S
C473 C472 1.391 . S
C123 C2 1.329 . S
C129 C109 1.425 . S
C143 C22 1.325 . S
C149 C91 1.443 . S
C163 C44 1.314 . S
C169 C103 1.434 . S
C183 C4 1.417 . S
C189 C112 1.528 . S
C209 C94 1.538 . S
C203 C24 1.457 . S
C229 C100 1.528 . S
C223 C42 1.426 . S
C243 C32 1.249 . S
C249 C73 1.279 . S
C263 C49 1.228 . S
C269 C82 1.268 . S
C283 C9 1.233 . S
C289 C64 1.251 . S
C309 C76 1.250 . S
C303 C29 1.218 . S
C329 C85 1.260 . S
C323 C52 1.199 . S
C343 C12 1.208 . S
C349 C67 1.245 . S
C369 C83 1.439 . S
C363 C18 1.428 1_455 S
C383 C38 1.429 . S
C389 C65 1.439 . S
C403 C58 1.421 . S
C409 C74 1.440 . S
C429 C101 1.511 . S
C423 C39 1.496 . S
C449 C110 1.498 . S
C443 C59 1.481 . S
C463 C19 1.480 1_655 S
C469 C92 1.499 . S
