# Generated by pormake.
# Topology tsx, (6,3)-cn, num edge types: 1
# Building blocks:
#     Node 0, Type 0, BuildingBlock: LEVNOQ01_clean_sbu_1, # of connection points: 6
#     Node 1, Type 0, BuildingBlock: LEVNOQ01_clean_sbu_1, # of connection points: 6
#     Node 2, Type 1, BuildingBlock: BETDIP_clean_linker_0, # of connection points: 3
#     Node 3, Type 1, BuildingBlock: BETDIP_clean_linker_0, # of connection points: 3
#     Node 4, Type 1, BuildingBlock: BETDIP_clean_linker_0, # of connection points: 3
#     Node 5, Type 1, BuildingBlock: BETDIP_clean_linker_0, # of connection points: 3
#     Edge 6, Type (0, 1), BuildingBlock: FUNLAD_clean_linker_0, # of connection points: 2
#     Edge 7, Type (0, 1), BuildingBlock: FUNLAD_clean_linker_0, # of connection points: 2
#     Edge 8, Type (0, 1), BuildingBlock: FUNLAD_clean_linker_0, # of connection points: 2
#     Edge 9, Type (0, 1), BuildingBlock: FUNLAD_clean_linker_0, # of connection points: 2
#     Edge 10, Type (0, 1), BuildingBlock: FUNLAD_clean_linker_0, # of connection points: 2
#     Edge 11, Type (0, 1), BuildingBlock: FUNLAD_clean_linker_0, # of connection points: 2
#     Edge 12, Type (0, 1), BuildingBlock: FUNLAD_clean_linker_0, # of connection points: 2
#     Edge 13, Type (0, 1), BuildingBlock: FUNLAD_clean_linker_0, # of connection points: 2
#     Edge 14, Type (0, 1), BuildingBlock: FUNLAD_clean_linker_0, # of connection points: 2
#     Edge 15, Type (0, 1), BuildingBlock: FUNLAD_clean_linker_0, # of connection points: 2
#     Edge 16, Type (0, 1), BuildingBlock: FUNLAD_clean_linker_0, # of connection points: 2
#     Edge 17, Type (0, 1), BuildingBlock: FUNLAD_clean_linker_0, # of connection points: 2
# Relax obj value: 0.099
# Max RMSD: 0.153
# Mean RMSD: 0.114
data_MOF--net-tsx--node1-LEVNOQ01_clean_sbu_1--node2-BETDIP_clean_linker_0--edge1-FUNLAD_clean_linker_0
_symmetry_space_group_name_H-M    P1
_symmetry_Int_Tables_number       1
_symmetry_cell_setting            triclinic
loop_
_symmetry_equiv_pos_as_xyz
'x, y, z'
_cell_length_a     22.241183
_cell_length_b     26.895006
_cell_length_c     39.86571
_cell_angle_alpha  97.416841
_cell_angle_beta   100.97905
_cell_angle_gamma 91.000952
loop_
_atom_site_label
_atom_site_type_symbol
_atom_site_fract_x
_atom_site_fract_y
_atom_site_fract_z
_atom_type_partial_charge
O0 O 0.14722 0.023 0.09278 0.0
Mg1 Mg 0.18564 0.03328 0.05003 0.0
O2 O 0.05754 -0.00486 0.06051 0.0
Mg3 Mg 0.05588 0.00558 0.00275 0.0
O4 O 0.13149 0.06903 0.01438 0.0
O5 O 0.22197 0.10132 0.04451 0.0
O6 O 0.06184 0.02064 0.94524 0.0
O7 O 0.98935 0.07072 0.00963 0.0
Mg8 Mg 0.96759 0.98062 0.9556 0.0
O9 O 0.97635 0.93908 -0.00449 0.0
O10 O 0.00893 0.9566 0.91409 0.0
O11 O 0.92865 0.0519 0.95927 0.0
O12 O 0.89574 0.93353 0.95126 0.0
C13 C 0.1825 0.9353 0.00459 0.0
C14 C 0.0937 0.00397 0.08981 0.0
C15 C 0.17406 0.10455 0.02101 0.0
C16 C 0.04602 -0.00686 0.91619 0.0
C17 C 0.94456 0.0814 0.98706 0.0
C18 C 0.92304 0.91887 0.97951 0.0
O19 O 0.21671 0.96909 0.02474 0.0
O20 O 0.12473 0.94039 -0.0044 0.0
O21 O 0.64315 0.54958 0.58918 0.0
Mg22 Mg 0.6747 0.53942 0.54296 0.0
O23 O 0.55643 0.51082 0.56142 0.0
Mg24 Mg 0.5527 0.50567 0.50139 0.0
O25 O 0.62598 0.57107 0.50314 0.0
O26 O 0.72026 0.59854 0.53198 0.0
O27 O 0.54847 0.49957 0.44171 0.0
O28 O 0.48886 0.57568 0.50229 0.0
Mg29 Mg 0.43047 0.4865 0.4678 0.0
O30 O 0.47812 0.43911 0.49886 0.0
O31 O 0.45036 0.48745 0.41867 0.0
O32 O 0.39246 0.54924 0.49091 0.0
O33 O 0.38163 0.42385 0.46828 0.0
C34 C 0.678 0.43335 0.51348 0.0
C35 C 0.59167 0.52937 0.58963 0.0
C36 C 0.67276 0.60301 0.50848 0.0
C37 C 0.50527 0.49306 0.41527 0.0
C38 C 0.43224 0.58472 0.50041 0.0
C39 C 0.4277 0.41084 0.48974 0.0
O40 O 0.71055 0.47067 0.53022 0.0
O41 O 0.62109 0.43799 0.50129 0.0
H42 H 0.06468 0.9516 0.4811 0.0
H43 H 0.98058 0.01455 0.39143 0.0
H44 H 0.12202 0.90965 0.38385 0.0
H45 H 0.02981 0.08775 0.44845 0.0
C46 C 0.99098 0.07204 0.45717 0.0
C47 C 0.06154 0.95402 0.45393 0.0
C48 C 0.09911 0.92547 0.43459 0.0
C49 C 0.02058 -0.01282 0.43845 0.0
C50 C 0.01402 -0.01003 0.40321 0.0
C51 C 0.04931 0.96112 0.38317 0.0
C52 C 0.0925 0.92969 0.39912 0.0
N53 N 0.9875 0.01962 0.45846 0.0
H54 H 0.97972 -0.00201 0.51876 0.0
H55 H 0.04316 0.10406 0.60977 0.0
H56 H 0.92743 0.97705 0.61458 0.0
H57 H 0.01509 0.1567 0.5605 0.0
C58 C 0.05013 0.13704 0.54904 0.0
C59 C 0.98045 0.01067 0.54566 0.0
C60 C 0.94895 0.98219 0.56458 0.0
C61 C 0.01322 0.05534 0.56162 0.0
C62 C 0.0162 0.0706 0.59703 0.0
C63 C 0.98558 0.04236 0.61625 0.0
C64 C 0.95135 -0.00119 0.59972 0.0
N65 N 0.0453 0.08377 0.54243 0.0
H66 H 0.55987 0.44906 0.98424 0.0
H67 H 0.49903 0.51367 0.8911 0.0
H68 H 0.62959 0.398 0.89249 0.0
H69 H 0.53356 0.58466 0.94038 0.0
C70 C 0.49648 0.57214 0.95201 0.0
C71 C 0.56019 0.45 0.95717 0.0
C72 C 0.59888 0.41899 0.94043 0.0
C73 C 0.52532 0.48496 0.93956 0.0
C74 C 0.52607 0.48659 0.9046 0.0
C75 C 0.56368 0.45559 0.88749 0.0
C76 C 0.60017 0.422 0.90559 0.0
N77 N 0.49303 0.52112 0.95746 0.0
H78 H 0.46392 0.49627 0.01341 0.0
H79 H 0.57863 0.56837 0.10678 0.0
H80 H 0.4349 0.46226 0.11176 0.0
H81 H 0.513 0.63217 0.04692 0.0
C82 C 0.55286 0.61462 0.03924 0.0
C83 C 0.47623 0.50162 0.04122 0.0
C84 C 0.44207 0.47625 0.0605 0.0
C85 C 0.52473 0.53541 0.05795 0.0
C86 C 0.54048 0.54284 0.09403 0.0
C87 C 0.509 0.51566 0.11346 0.0
C88 C 0.45952 0.48296 0.09662 0.0
N89 N 0.55802 0.5621 0.03862 0.0
C90 C 0.14133 0.18978 0.01036 0.0
C91 C 0.17255 0.1469 0.00117 0.0
C92 C 0.15875 0.23633 0.0021 0.0
C93 C 0.20813 0.24038 0.98488 0.0
C94 C 0.23378 0.19629 0.97211 0.0
C95 C 0.2166 0.14999 0.98052 0.0
C96 C 0.24019 0.28924 0.98428 0.0
C97 C 0.24505 0.32699 0.01057 0.0
C98 C 0.29174 0.36946 0.01795 0.0
C99 C 0.28678 0.40834 0.04427 0.0
C100 C 0.33446 0.44425 0.05691 0.0
C101 C 0.38853 0.44226 0.04354 0.0
H102 H 0.35118 0.33963 0.98322 0.0
C103 C 0.39235 0.40538 0.01575 0.0
C104 C 0.3446 0.36911 0.00315 0.0
H105 H 0.43362 0.40289 0.00502 0.0
H106 H 0.10752 0.18816 0.02654 0.0
H107 H 0.13622 0.26933 0.01116 0.0
H108 H 0.27133 0.19814 0.95847 0.0
H109 H 0.24169 0.11731 0.97351 0.0
H110 H 0.26778 0.29081 0.96472 0.0
H111 H 0.21758 0.32444 0.03012 0.0
H112 H 0.2468 0.4098 0.05618 0.0
H113 H 0.32977 0.47281 0.07794 0.0
C114 C 0.18544 0.84191 0.98665 0.0
C115 C 0.21272 0.89049 0.9915 0.0
C116 C 0.21987 0.79987 0.9793 0.0
C117 C 0.28179 0.80627 0.9765 0.0
C118 C 0.30726 0.85511 0.97972 0.0
C119 C 0.27342 0.8965 0.98719 0.0
C120 C 0.32299 0.76448 0.9705 0.0
C121 C 0.31013 0.71519 0.97001 0.0
C122 C 0.35642 0.67712 0.96435 0.0
C123 C 0.35568 0.63173 0.97832 0.0
C124 C 0.40092 0.59682 0.97451 0.0
C125 C 0.44753 0.60708 0.95673 0.0
H126 H 0.40277 0.71894 0.9326 0.0
C127 C 0.44737 0.6517 0.94214 0.0
C128 C 0.40196 0.68587 0.94536 0.0
H129 H 0.48225 0.66002 0.92779 0.0
H130 H 0.13867 0.83639 0.98996 0.0
H131 H 0.1981 0.76291 0.97641 0.0
H132 H 0.3544 0.86149 0.97726 0.0
H133 H 0.29551 0.93352 0.99039 0.0
H134 H 0.36868 0.77594 0.96781 0.0
H135 H 0.26682 0.70253 0.9754 0.0
H136 H 0.32073 0.62366 -0.00734 0.0
H137 H 0.39974 0.56234 0.98573 0.0
C138 C 0.826 0.88005 0.98706 0.0
C139 C 0.89026 0.88041 -0.00663 0.0
C140 C 0.79206 0.84148 -0.00428 0.0
C141 C 0.8213 0.80115 0.01022 0.0
C142 C 0.88587 0.8028 0.01846 0.0
C143 C 0.92027 0.84228 0.01011 0.0
C144 C 0.78464 0.75821 0.01755 0.0
C145 C 0.72748 0.74543 -0.00049 0.0
C146 C 0.68447 0.70989 0.00938 0.0
C147 C 0.62231 0.72121 0.00482 0.0
C148 C 0.57983 0.68989 0.01445 0.0
C149 C 0.59824 0.64563 0.02767 0.0
H150 H 0.75065 0.65531 0.02573 0.0
C151 C 0.66004 0.63308 0.03121 0.0
C152 C 0.70316 0.66537 0.02252 0.0
H153 H 0.67527 0.59911 0.04154 0.0
H154 H 0.80158 0.90966 0.975 0.0
H155 H 0.74271 0.8437 0.99089 0.0
H156 H 0.90965 0.77289 0.03045 0.0
H157 H 0.96985 0.84191 0.01543 0.0
H158 H 0.80418 0.73806 0.0387 0.0
H159 H 0.70865 0.7649 0.9779 0.0
H160 H 0.60677 0.75514 -0.00548 0.0
H161 H 0.53242 0.70024 0.0115 0.0
C162 C 0.84918 0.12834 0.97481 0.0
C163 C 0.90978 0.12704 -0.00717 0.0
C164 C 0.8163 0.17174 0.97815 0.0
C165 C 0.84334 0.21523 -0.00053 0.0
C166 C 0.90386 0.21398 0.01773 0.0
C167 C 0.9366 0.16999 0.01483 0.0
C168 C 0.8112 0.26325 -0.00014 0.0
C169 C 0.74957 0.26481 -0.00518 0.0
C170 C 0.71496 0.30979 0.98624 0.0
C171 C 0.65361 0.31229 0.99034 0.0
C172 C 0.61648 0.34954 0.97716 0.0
C173 C 0.63982 0.38438 0.95905 0.0
H174 H 0.7856 0.34546 0.96537 0.0
C175 C 0.70185 0.38334 0.95631 0.0
C176 C 0.73909 0.34655 0.96977 0.0
H177 H 0.72108 0.4101 0.94268 0.0
H178 H 0.82721 0.09583 0.95766 0.0
H179 H 0.77053 0.17162 0.96282 0.0
H180 H 0.92605 0.24722 0.03392 0.0
H181 H 0.98341 0.17012 0.02884 0.0
H182 H 0.83903 0.29772 0.003 0.0
H183 H 0.72272 0.23079 -0.00485 0.0
H184 H 0.63371 0.28423 0.00267 0.0
H185 H 0.56875 0.34946 0.97952 0.0
C186 C 0.64964 0.69145 0.50484 0.0
C187 C 0.67255 0.64717 0.4904 0.0
C188 C 0.67305 0.73812 0.50018 0.0
C189 C 0.71916 0.74097 0.48068 0.0
C190 C 0.73606 0.69685 0.4626 0.0
C191 C 0.71348 0.65011 0.46783 0.0
C192 C 0.75811 0.78753 0.48483 0.0
C193 C 0.78697 0.80725 0.51672 0.0
C194 C 0.83343 0.84954 0.52487 0.0
C195 C 0.87732 0.85159 0.5554 0.0
C196 C 0.9173 0.89333 0.56693 0.0
C197 C 0.91369 0.93474 0.54857 0.0
H198 H 0.7986 0.88898 0.48149 0.0
C199 C 0.87215 0.93172 0.51688 0.0
C200 C 0.83224 0.88933 0.50505 0.0
H201 H 0.86827 0.96311 0.5022 0.0
H202 H 0.61907 0.69004 0.52291 0.0
H203 H 0.65917 0.77178 0.51425 0.0
H204 H 0.77163 0.6982 0.44753 0.0
H205 H 0.73272 0.61636 0.45705 0.0
H206 H 0.76957 0.80105 0.46221 0.0
H207 H 0.77896 0.78903 0.53843 0.0
H208 H 0.87972 0.82121 0.57096 0.0
H209 H 0.94979 0.8939 0.59098 0.0
C210 C 0.6815 0.34208 0.4874 0.0
C211 C 0.70828 0.38464 0.50999 0.0
C212 C 0.71448 0.29801 0.4839 0.0
C213 C 0.7744 0.29605 0.50325 0.0
C214 C 0.79947 0.33801 0.52655 0.0
C215 C 0.7672 0.38141 0.52987 0.0
C216 C 0.81572 0.2539 0.4986 0.0
C217 C 0.80017 0.20837 0.48027 0.0
C218 C 0.84866 0.17251 0.47461 0.0
C219 C 0.8387 0.12075 0.47456 0.0
C220 C 0.88528 0.08746 0.46986 0.0
C221 C 0.94194 0.1056 0.46453 0.0
H222 H 0.91415 0.22954 0.46782 0.0
C223 C 0.95143 0.15711 0.4642 0.0
C224 C 0.90541 0.19013 0.46902 0.0
H225 H -0.00551 0.17192 0.45981 0.0
H226 H 0.63607 0.34328 0.47188 0.0
H227 H 0.69371 0.26648 0.46544 0.0
H228 H 0.84531 0.33783 0.54186 0.0
H229 H 0.78939 0.41291 0.54797 0.0
H230 H 0.86352 0.26145 0.51109 0.0
H231 H 0.75255 0.19705 0.46973 0.0
H232 H 0.79524 0.10621 0.47854 0.0
H233 H 0.87666 0.04772 0.46991 0.0
C234 C 0.4093 0.36489 0.53719 0.0
C235 C 0.41995 0.36363 0.50355 0.0
C236 C 0.37815 0.32436 0.54617 0.0
C237 C 0.35735 0.28215 0.52152 0.0
C238 C 0.37445 0.27888 0.48924 0.0
C239 C 0.40474 0.31955 0.48016 0.0
C240 C 0.31217 0.24396 0.52695 0.0
C241 C 0.26674 0.25681 0.54407 0.0
C242 C 0.21225 0.22382 0.54441 0.0
C243 C 0.16218 0.24636 0.55611 0.0
C244 C 0.1094 0.21796 0.55671 0.0
C245 C 0.10534 0.16614 0.54584 0.0
H246 H 0.24565 0.15242 0.52451 0.0
C247 C 0.15499 0.14313 0.53396 0.0
C248 C 0.2081 0.17166 0.53329 0.0
H249 H 0.1532 0.10309 0.5256 0.0
H250 H 0.41985 0.39883 0.55546 0.0
H251 H 0.36733 0.32737 0.57169 0.0
H252 H 0.35961 0.24666 0.4699 0.0
H253 H 0.41175 0.31815 0.45389 0.0
H254 H 0.31126 0.20693 0.51237 0.0
H255 H 0.26635 0.29539 0.55614 0.0
H256 H 0.16371 0.28632 0.5648 0.0
H257 H 0.07186 0.23658 0.56614 0.0
C258 C 0.35524 0.64658 0.514 0.0
C259 C 0.4114 0.63667 0.50381 0.0
C260 C 0.32796 0.69238 0.5099 0.0
C261 C 0.35588 0.7289 0.49492 0.0
C262 C 0.41371 0.7201 0.48657 0.0
C263 C 0.44176 0.67465 0.49147 0.0
C264 C 0.32133 0.77211 0.48287 0.0
C265 C 0.27851 0.79435 0.49868 0.0
C266 C 0.23519 0.82921 0.48197 0.0
C267 C 0.21847 0.87212 0.50141 0.0
C268 C 0.17509 0.90372 0.48609 0.0
C269 C 0.14582 0.8921 0.45121 0.0
H270 H 0.21727 0.78386 0.43184 0.0
C271 C 0.16207 0.84825 0.43213 0.0
C272 C 0.20664 0.81763 0.44718 0.0
H273 H 0.13965 0.83675 0.40562 0.0
H274 H 0.33082 0.61786 0.52349 0.0
H275 H 0.28293 0.69745 0.51607 0.0
H276 H 0.43597 0.7475 0.47479 0.0
H277 H 0.48484 0.66783 0.48312 0.0
H278 H 0.32926 0.78434 0.45906 0.0
H279 H 0.27384 0.78591 0.52401 0.0
H280 H 0.23952 0.88152 0.52839 0.0
H281 H 0.1651 0.93742 0.50167 0.0
C282 C 0.01944 -0.00598 0.12905 0.0
C283 C 0.07723 -0.01355 0.12045 0.0
C284 C 0.00752 0.9801 0.15995 0.0
C285 C 0.05285 0.95733 0.18198 0.0
C286 C 0.10914 0.94748 0.17222 0.0
C287 C 0.12155 0.96254 0.14207 0.0
C288 C 0.04472 0.94506 0.216 0.0
C289 C 0.01732 0.97584 0.23723 0.0
C290 C 0.02281 0.97046 0.27428 0.0
C291 C 0.02312 0.0138 0.29801 0.0
C292 C 0.03245 0.01086 0.33331 0.0
C293 C 0.04092 0.9643 0.34567 0.0
H294 H 0.02838 0.88927 0.26892 0.0
C295 C 0.03932 0.92071 0.32187 0.0
C296 C 0.03013 0.92369 0.28652 0.0
H297 H 0.04428 0.88419 0.33054 0.0
H298 H 0.98452 0.0121 0.11254 0.0
H299 H 0.96324 -0.0127 0.16666 0.0
H300 H 0.14457 0.92972 0.18864 0.0
H301 H 0.16616 0.95562 0.13567 0.0
H302 H 0.07029 0.91416 0.22571 0.0
H303 H -0.00272 0.0096 0.22846 0.0
H304 H 0.01766 0.05028 0.28929 0.0
H305 H 0.03391 0.04522 0.35098 0.0
C306 C 0.03835 0.97758 0.85264 0.0
C307 C 0.06027 0.00827 0.88407 0.0
C308 C 0.041 -0.00536 0.82146 0.0
C309 C 0.06587 0.04277 0.82084 0.0
C310 C 0.09223 0.07212 0.8521 0.0
C311 C 0.08902 0.05516 0.88361 0.0
C312 C 0.06301 0.06209 0.78742 0.0
C313 C 0.01153 0.05436 0.76299 0.0
C314 C 0.0062 0.06229 0.72636 0.0
C315 C 0.94761 0.05685 0.70521 0.0
C316 C 0.94058 0.05359 0.66947 0.0
C317 C 0.99208 0.05578 0.65406 0.0
H318 H 0.10356 0.07181 0.7263 0.0
C319 C 0.05044 0.065 0.67521 0.0
C320 C 0.05757 0.06806 0.71109 0.0
H321 H 0.09096 0.06654 0.66394 0.0
H322 H 0.01676 0.94095 0.85197 0.0
H323 H 0.0223 0.97045 0.79771 0.0
H324 H 0.11266 0.109 0.85216 0.0
H325 H 0.10666 0.07954 0.90743 0.0
H326 H 0.10308 0.08203 0.78312 0.0
H327 H 0.97101 0.03822 0.76982 0.0
H328 H 0.90718 0.05251 0.71621 0.0
H329 H 0.89499 0.04717 0.65377 0.0
C330 C 0.61926 0.53976 0.65378 0.0
C331 C 0.57632 0.52326 0.62349 0.0
C332 C 0.60908 0.53039 0.68581 0.0
C333 C 0.55569 0.50356 0.6886 0.0
C334 C 0.51157 0.48865 0.65843 0.0
C335 C 0.52176 0.49827 0.62616 0.0
C336 C 0.54447 0.49059 0.7223 0.0
C337 C 0.58833 0.49444 0.75118 0.0
C338 C 0.57925 0.48144 0.78509 0.0
C339 C 0.63165 0.47698 0.81034 0.0
C340 C 0.62643 0.46701 0.84316 0.0
C341 C 0.56855 0.46166 0.85167 0.0
H342 H 0.47941 0.47958 0.77522 0.0
C343 C 0.51587 0.46569 0.82649 0.0
C344 C 0.52105 0.47549 0.7935 0.0
H345 H 0.47064 0.4618 0.83247 0.0
H346 H 0.66177 0.55933 0.65284 0.0
H347 H 0.6437 0.54457 0.708 0.0
H348 H 0.46955 0.46864 0.65971 0.0
H349 H 0.48758 0.48524 0.60334 0.0
H350 H 0.49912 0.47547 0.72265 0.0
H351 H 0.63468 0.50625 0.75024 0.0
H352 H 0.67709 0.48187 0.80483 0.0
H353 H 0.66783 0.46508 0.86223 0.0
C354 C 0.56733 0.51793 0.37301 0.0
C355 C 0.51793 0.49052 0.38013 0.0
C356 C 0.57529 0.51737 0.33888 0.0
C357 C 0.5345 0.4886 0.31165 0.0
C358 C 0.48669 0.46002 0.31915 0.0
C359 C 0.47805 0.46139 0.35288 0.0
C360 C 0.53981 0.48645 0.27504 0.0
C361 C 0.56114 0.52489 0.26143 0.0
C362 C 0.55553 0.52313 0.22353 0.0
C363 C 0.54546 0.56743 0.20841 0.0
C364 C 0.5323 0.56555 0.17247 0.0
C365 C 0.52891 0.51928 0.15123 0.0
H366 H 0.56663 0.44281 0.21268 0.0
C367 C 0.54245 0.47549 0.16629 0.0
C368 C 0.55636 0.47741 0.20203 0.0
H369 H 0.54153 0.43957 0.15032 0.0
H370 H 0.59869 0.54067 0.39365 0.0
H371 H 0.61338 0.53902 0.33392 0.0
H372 H 0.45496 0.43725 0.29869 0.0
H373 H 0.43992 0.4395 0.35764 0.0
H374 H 0.51876 0.45343 0.25794 0.0
H375 H 0.57641 0.56006 0.27779 0.0
H376 H 0.54522 0.60319 0.22438 0.0
H377 H 0.52236 0.59985 0.16129 0.0
loop_
_geom_bond_atom_site_label_1
_geom_bond_atom_site_label_2
_geom_bond_distance
_geom_bond_site_symmetry_2
_ccdc_geom_bond_type
O0 Mg1 1.990 . S
O0 C14 1.253 . S
Mg1 O0 1.990 . S
Mg1 O4 2.180 . S
Mg1 O5 2.117 . S
Mg1 O19 2.030 1_545 S
O2 Mg3 2.072 . S
O2 C14 1.260 . S
Mg3 O2 2.072 . S
Mg3 O4 2.099 . S
Mg3 O6 2.079 1_554 S
Mg3 O7 2.072 . S
Mg3 O9 2.099 1_444 S
Mg3 O20 2.079 1_545 S
O4 Mg1 2.180 . S
O4 Mg3 2.099 . S
O4 C15 1.279 . S
O5 Mg1 2.117 . S
O5 C15 1.250 . S
O6 Mg3 2.079 1_556 S
O6 C16 1.264 . S
O7 Mg3 2.072 . S
O7 C17 1.260 1_454 S
Mg8 O9 2.180 . S
Mg8 O10 2.030 1_565 S
Mg8 O11 1.990 1_565 S
Mg8 O12 2.117 . S
O9 Mg3 2.099 1_666 S
O9 Mg8 2.180 . S
O9 C18 1.279 . S
O10 Mg8 2.030 1_545 S
O10 C16 1.248 1_655 S
O11 Mg8 1.990 1_545 S
O11 C17 1.253 . S
O12 Mg8 2.117 . S
O12 C18 1.250 . S
C13 O19 1.248 . S
C13 O20 1.264 . S
C14 O0 1.253 . S
C14 O2 1.260 . S
C15 O4 1.279 . S
C15 O5 1.250 . S
C16 O6 1.264 . S
C16 O10 1.248 1_455 S
C17 O7 1.260 1_656 S
C17 O11 1.253 . S
C18 O9 1.279 . S
C18 O12 1.250 . S
O19 Mg1 2.030 1_565 S
O19 C13 1.248 . S
O20 Mg3 2.079 1_565 S
O20 C13 1.264 . S
O21 Mg22 1.990 . S
O21 C35 1.253 . S
Mg22 O21 1.990 . S
Mg22 O25 2.180 . S
Mg22 O26 2.117 . S
Mg22 O40 2.030 . S
O23 Mg24 2.072 . S
O23 C35 1.260 . S
Mg24 O23 2.072 . S
Mg24 O25 2.099 . S
Mg24 O27 2.079 . S
Mg24 O28 2.072 . S
Mg24 O30 2.099 . S
Mg24 O41 2.079 . S
O25 Mg22 2.180 . S
O25 Mg24 2.099 . S
O25 C36 1.279 . S
O26 Mg22 2.117 . S
O26 C36 1.250 . S
O27 Mg24 2.079 . S
O27 C37 1.264 . S
O28 Mg24 2.072 . S
O28 C38 1.260 . S
Mg29 O30 2.180 . S
Mg29 O31 2.030 . S
Mg29 O32 1.990 . S
Mg29 O33 2.117 . S
O30 Mg24 2.099 . S
O30 Mg29 2.180 . S
O30 C39 1.279 . S
O31 Mg29 2.030 . S
O31 C37 1.248 . S
O32 Mg29 1.990 . S
O32 C38 1.253 . S
O33 Mg29 2.117 . S
O33 C39 1.250 . S
C34 O40 1.248 . S
C34 O41 1.264 . S
C35 O21 1.253 . S
C35 O23 1.260 . S
C36 O25 1.279 . S
C36 O26 1.250 . S
C37 O27 1.264 . S
C37 O31 1.248 . S
C38 O28 1.260 . S
C38 O32 1.253 . S
C39 O30 1.279 . S
C39 O33 1.250 . S
O40 Mg22 2.030 . S
O40 C34 1.248 . S
O41 Mg24 2.079 . S
O41 C34 1.264 . S
H42 C47 0.930 . S
H43 C50 0.930 . S
H44 C52 0.930 . S
H45 C46 1.016 . S
C46 H45 1.016 . S
C46 N53 1.286 1_655 S
C47 H42 0.930 . S
C47 C48 1.397 . S
C47 C49 1.361 1_565 S
C48 C47 1.397 . S
C48 C52 1.390 . S
C49 C47 1.361 1_545 S
C49 C50 1.393 . S
C49 N53 1.413 . S
C50 H43 0.930 . S
C50 C49 1.393 . S
C50 C51 1.399 1_545 S
C51 C50 1.399 1_565 S
C51 C52 1.381 . S
C52 H44 0.930 . S
C52 C48 1.390 . S
C52 C51 1.381 . S
N53 C46 1.286 1_455 S
N53 C49 1.413 . S
H54 C59 0.930 . S
H55 C62 0.930 . S
H56 C64 0.936 . S
H57 C58 1.016 . S
C58 H57 1.016 . S
C58 N65 1.286 . S
C59 H54 0.930 . S
C59 C60 1.397 . S
C59 C61 1.361 1_655 S
C60 C59 1.397 . S
C60 C64 1.390 . S
C61 C59 1.361 1_455 S
C61 C62 1.393 . S
C61 N65 1.413 . S
C62 H55 0.930 . S
C62 C61 1.393 . S
C62 C63 1.399 1_455 S
C63 C62 1.399 1_655 S
C63 C64 1.381 . S
C64 H56 0.936 . S
C64 C60 1.390 . S
C64 C63 1.381 . S
N65 C58 1.286 . S
N65 C61 1.413 . S
H66 C71 0.930 . S
H67 C74 0.930 . S
H68 C76 0.930 . S
H69 C70 1.016 . S
C70 H69 1.016 . S
C70 N77 1.286 . S
C71 H66 0.930 . S
C71 C72 1.397 . S
C71 C73 1.361 . S
C72 C71 1.397 . S
C72 C76 1.390 . S
C73 C71 1.361 . S
C73 C74 1.393 . S
C73 N77 1.413 . S
C74 H67 0.930 . S
C74 C73 1.393 . S
C74 C75 1.399 . S
C75 C74 1.399 . S
C75 C76 1.381 . S
C76 H68 0.930 . S
C76 C72 1.390 . S
C76 C75 1.381 . S
N77 C70 1.286 . S
N77 C73 1.413 . S
H78 C83 0.930 . S
H79 C86 0.930 . S
H80 C88 0.930 . S
H81 C82 1.016 . S
C82 H81 1.016 . S
C82 N89 1.286 . S
C83 H78 0.930 . S
C83 C84 1.397 . S
C83 C85 1.361 . S
C84 C83 1.397 . S
C84 C88 1.390 . S
C85 C83 1.361 . S
C85 C86 1.393 . S
C85 N89 1.413 . S
C86 H79 0.930 . S
C86 C85 1.393 . S
C86 C87 1.399 . S
C87 C86 1.399 . S
C87 C88 1.381 . S
C88 H80 0.930 . S
C88 C84 1.390 . S
C88 C87 1.381 . S
N89 C82 1.286 . S
N89 C85 1.413 . S
C90 C91 1.386 . S
C90 C92 1.383 . S
C90 H106 0.951 . S
C91 C90 1.386 . S
C91 C95 1.383 . S
C92 C90 1.383 . S
C92 C93 1.402 . S
C92 H107 0.951 . S
C93 C92 1.402 . S
C93 C94 1.375 . S
C93 C96 1.481 . S
C94 C93 1.375 . S
C94 C95 1.367 . S
C94 H108 0.951 . S
C95 C91 1.383 . S
C95 C94 1.367 . S
C95 H109 0.950 . S
C96 C93 1.481 . S
C96 C97 1.297 . S
C96 H110 0.950 . S
C97 C96 1.297 . S
C97 C98 1.479 . S
C97 H111 0.950 . S
C98 C97 1.479 . S
C98 C99 1.375 . S
C98 C104 1.404 . S
C99 C98 1.375 . S
C99 C100 1.369 . S
C99 H112 0.950 . S
C100 C99 1.369 . S
C100 C101 1.392 . S
C100 H113 0.951 . S
C101 C100 1.392 . S
C101 C103 1.384 . S
H102 C104 0.949 . S
C103 C101 1.384 . S
C103 C104 1.385 . S
C103 H105 0.950 . S
C104 C98 1.404 . S
C104 H102 0.949 . S
C104 C103 1.385 . S
H105 C103 0.950 . S
H106 C90 0.951 . S
H107 C92 0.951 . S
H108 C94 0.951 . S
H109 C95 0.950 . S
H110 C96 0.950 . S
H111 C97 0.950 . S
H112 C99 0.950 . S
H113 C100 0.951 . S
C114 C115 1.386 . S
C114 C116 1.379 1_554 S
C114 H130 0.951 . S
C115 C114 1.386 . S
C115 C119 1.383 . S
C116 C114 1.379 1_556 S
C116 C117 1.407 . S
C116 H131 0.950 . S
C117 C116 1.407 . S
C117 C118 1.375 1_556 S
C117 C120 1.481 . S
C118 C117 1.375 1_554 S
C118 C119 1.367 . S
C118 H132 0.951 . S
C119 C115 1.383 . S
C119 C118 1.367 . S
C119 H133 0.950 . S
C120 C117 1.481 . S
C120 C121 1.297 . S
C120 H134 0.950 . S
C121 C120 1.297 . S
C121 C122 1.479 . S
C121 H135 0.950 . S
C122 C121 1.479 . S
C122 C123 1.375 . S
C122 C128 1.404 . S
C123 C122 1.375 . S
C123 C124 1.369 . S
C123 H136 0.950 . S
C124 C123 1.369 . S
C124 C125 1.392 . S
C124 H137 0.951 . S
C125 C124 1.392 . S
C125 C127 1.384 . S
H126 C128 0.949 . S
C127 C125 1.384 . S
C127 C128 1.385 . S
C127 H129 0.950 . S
C128 C122 1.404 . S
C128 H126 0.949 . S
C128 C127 1.385 . S
H129 C127 0.950 . S
H130 C114 0.951 . S
H131 C116 0.950 . S
H132 C118 0.951 . S
H133 C119 0.950 . S
H134 C120 0.950 . S
H135 C121 0.950 . S
H136 C123 0.950 . S
H137 C124 0.951 . S
C138 C139 1.386 1_556 S
C138 C140 1.391 . S
C138 H154 0.951 . S
C139 C138 1.386 1_554 S
C139 C143 1.383 . S
C140 C138 1.391 . S
C140 C141 1.387 1_556 S
C140 H155 0.958 . S
C141 C140 1.387 1_554 S
C141 C142 1.375 . S
C141 C144 1.481 . S
C142 C141 1.375 . S
C142 C143 1.367 . S
C142 H156 0.951 . S
C143 C139 1.383 . S
C143 C142 1.367 . S
C143 H157 0.950 . S
C144 C141 1.481 . S
C144 C145 1.297 . S
C144 H158 0.950 . S
C145 C144 1.297 . S
C145 C146 1.479 . S
C145 H159 0.950 1_554 S
C146 C145 1.479 . S
C146 C147 1.375 . S
C146 C152 1.404 . S
C147 C146 1.375 . S
C147 C148 1.369 . S
C147 H160 0.950 1_554 S
C148 C147 1.369 . S
C148 C149 1.392 . S
C148 H161 0.951 . S
C149 C148 1.392 . S
C149 C151 1.384 . S
H150 C152 0.949 . S
C151 C149 1.384 . S
C151 C152 1.385 . S
C151 H153 0.950 . S
C152 C146 1.404 . S
C152 H150 0.949 . S
C152 C151 1.385 . S
H153 C151 0.950 . S
H154 C138 0.951 . S
H155 C140 0.958 . S
H156 C142 0.951 . S
H157 C143 0.950 . S
H158 C144 0.950 . S
H159 C145 0.950 1_556 S
H160 C147 0.950 1_556 S
H161 C148 0.951 . S
C162 C163 1.386 . S
C162 C164 1.383 . S
C162 H178 0.951 . S
C163 C162 1.386 . S
C163 C167 1.383 1_556 S
C164 C162 1.383 . S
C164 C165 1.402 . S
C164 H179 0.951 . S
C165 C164 1.402 . S
C165 C166 1.375 1_556 S
C165 C168 1.481 . S
C166 C165 1.375 1_554 S
C166 C167 1.367 . S
C166 H180 0.951 . S
C167 C163 1.383 1_554 S
C167 C166 1.367 . S
C167 H181 0.950 1_655 S
C168 C165 1.481 . S
C168 C169 1.297 . S
C168 H182 0.950 1_556 S
C169 C168 1.297 . S
C169 C170 1.479 . S
C169 H183 0.950 . S
C170 C169 1.479 . S
C170 C171 1.375 . S
C170 C176 1.404 . S
C171 C170 1.375 . S
C171 C172 1.369 . S
C171 H184 0.950 . S
C172 C171 1.369 . S
C172 C173 1.392 . S
C172 H185 0.951 . S
C173 C172 1.392 . S
C173 C175 1.384 . S
H174 C176 0.949 1_554 S
C175 C173 1.384 . S
C175 C176 1.385 . S
C175 H177 0.950 . S
C176 C170 1.404 . S
C176 H174 0.949 1_556 S
C176 C175 1.385 . S
H177 C175 0.950 . S
H178 C162 0.951 . S
H179 C164 0.951 . S
H180 C166 0.951 . S
H181 C167 0.950 1_455 S
H182 C168 0.950 1_554 S
H183 C169 0.950 . S
H184 C171 0.950 . S
H185 C172 0.951 . S
C186 C187 1.386 . S
C186 C188 1.383 . S
C186 H202 0.951 . S
C187 C186 1.386 . S
C187 C191 1.383 . S
C188 C186 1.383 . S
C188 C189 1.402 . S
C188 H203 0.951 . S
C189 C188 1.402 . S
C189 C190 1.375 . S
C189 C192 1.481 . S
C190 C189 1.375 . S
C190 C191 1.367 . S
C190 H204 0.951 . S
C191 C187 1.383 . S
C191 C190 1.367 . S
C191 H205 0.950 . S
C192 C189 1.481 . S
C192 C193 1.297 . S
C192 H206 0.950 . S
C193 C192 1.297 . S
C193 C194 1.479 . S
C193 H207 0.950 . S
C194 C193 1.479 . S
C194 C195 1.375 . S
C194 C200 1.404 . S
C195 C194 1.375 . S
C195 C196 1.369 . S
C195 H208 0.950 . S
C196 C195 1.369 . S
C196 C197 1.392 . S
C196 H209 0.951 . S
C197 C196 1.392 . S
C197 C199 1.384 . S
H198 C200 0.949 . S
C199 C197 1.384 . S
C199 C200 1.385 . S
C199 H201 0.950 . S
C200 C194 1.404 . S
C200 H198 0.949 . S
C200 C199 1.385 . S
H201 C199 0.950 . S
H202 C186 0.951 . S
H203 C188 0.951 . S
H204 C190 0.951 . S
H205 C191 0.950 . S
H206 C192 0.950 . S
H207 C193 0.950 . S
H208 C195 0.950 . S
H209 C196 0.951 . S
C210 C211 1.386 . S
C210 C212 1.383 . S
C210 H226 0.951 . S
C211 C210 1.386 . S
C211 C215 1.383 . S
C212 C210 1.383 . S
C212 C213 1.402 . S
C212 H227 0.951 . S
C213 C212 1.402 . S
C213 C214 1.375 . S
C213 C216 1.481 . S
C214 C213 1.375 . S
C214 C215 1.367 . S
C214 H228 0.951 . S
C215 C211 1.383 . S
C215 C214 1.367 . S
C215 H229 0.950 . S
C216 C213 1.481 . S
C216 C217 1.297 . S
C216 H230 0.950 . S
C217 C216 1.297 . S
C217 C218 1.479 . S
C217 H231 0.950 . S
C218 C217 1.479 . S
C218 C219 1.375 . S
C218 C224 1.404 . S
C219 C218 1.375 . S
C219 C220 1.369 . S
C219 H232 0.950 . S
C220 C219 1.369 . S
C220 C221 1.392 . S
C220 H233 0.951 . S
C221 C220 1.392 . S
C221 C223 1.384 . S
H222 C224 0.949 . S
C223 C221 1.384 . S
C223 C224 1.385 . S
C223 H225 0.950 1_655 S
C224 C218 1.404 . S
C224 H222 0.949 . S
C224 C223 1.385 . S
H225 C223 0.950 1_455 S
H226 C210 0.951 . S
H227 C212 0.951 . S
H228 C214 0.951 . S
H229 C215 0.950 . S
H230 C216 0.950 . S
H231 C217 0.950 . S
H232 C219 0.950 . S
H233 C220 0.951 . S
C234 C235 1.386 . S
C234 C236 1.383 . S
C234 H250 0.951 . S
C235 C234 1.386 . S
C235 C239 1.383 . S
C236 C234 1.383 . S
C236 C237 1.402 . S
C236 H251 0.951 . S
C237 C236 1.402 . S
C237 C238 1.375 . S
C237 C240 1.481 . S
C238 C237 1.375 . S
C238 C239 1.367 . S
C238 H252 0.951 . S
C239 C235 1.383 . S
C239 C238 1.367 . S
C239 H253 0.950 . S
C240 C237 1.481 . S
C240 C241 1.297 . S
C240 H254 0.950 . S
C241 C240 1.297 . S
C241 C242 1.479 . S
C241 H255 0.950 . S
C242 C241 1.479 . S
C242 C243 1.375 . S
C242 C248 1.404 . S
C243 C242 1.375 . S
C243 C244 1.369 . S
C243 H256 0.950 . S
C244 C243 1.369 . S
C244 C245 1.392 . S
C244 H257 0.951 . S
C245 C244 1.392 . S
C245 C247 1.384 . S
H246 C248 0.949 . S
C247 C245 1.384 . S
C247 C248 1.385 . S
C247 H249 0.950 . S
C248 C242 1.404 . S
C248 H246 0.949 . S
C248 C247 1.385 . S
H249 C247 0.950 . S
H250 C234 0.951 . S
H251 C236 0.951 . S
H252 C238 0.951 . S
H253 C239 0.950 . S
H254 C240 0.950 . S
H255 C241 0.950 . S
H256 C243 0.950 . S
H257 C244 0.951 . S
C258 C259 1.386 . S
C258 C260 1.383 . S
C258 H274 0.951 . S
C259 C258 1.386 . S
C259 C263 1.383 . S
C260 C258 1.383 . S
C260 C261 1.402 . S
C260 H275 0.951 . S
C261 C260 1.402 . S
C261 C262 1.375 . S
C261 C264 1.481 . S
C262 C261 1.375 . S
C262 C263 1.367 . S
C262 H276 0.951 . S
C263 C259 1.383 . S
C263 C262 1.367 . S
C263 H277 0.950 . S
C264 C261 1.481 . S
C264 C265 1.297 . S
C264 H278 0.950 . S
C265 C264 1.297 . S
C265 C266 1.479 . S
C265 H279 0.950 . S
C266 C265 1.479 . S
C266 C267 1.375 . S
C266 C272 1.404 . S
C267 C266 1.375 . S
C267 C268 1.369 . S
C267 H280 0.950 . S
C268 C267 1.369 . S
C268 C269 1.392 . S
C268 H281 0.951 . S
C269 C268 1.392 . S
C269 C271 1.384 . S
H270 C272 0.949 . S
C271 C269 1.384 . S
C271 C272 1.385 . S
C271 H273 0.950 . S
C272 C266 1.404 . S
C272 H270 0.949 . S
C272 C271 1.385 . S
H273 C271 0.950 . S
H274 C258 0.951 . S
H275 C260 0.951 . S
H276 C262 0.951 . S
H277 C263 0.950 . S
H278 C264 0.950 . S
H279 C265 0.950 . S
H280 C267 0.950 . S
H281 C268 0.951 . S
C282 C283 1.386 1_545 S
C282 C284 1.383 . S
C282 H298 0.951 1_455 S
C283 C282 1.386 1_565 S
C283 C287 1.383 . S
C284 C282 1.383 . S
C284 C285 1.402 1_545 S
C284 H299 0.951 . S
C285 C284 1.402 1_565 S
C285 C286 1.375 . S
C285 C288 1.481 . S
C286 C285 1.375 . S
C286 C287 1.367 . S
C286 H300 0.951 . S
C287 C283 1.383 . S
C287 C286 1.367 . S
C287 H301 0.950 . S
C288 C285 1.481 . S
C288 C289 1.297 . S
C288 H302 0.950 . S
C289 C288 1.297 . S
C289 C290 1.479 . S
C289 H303 0.950 . S
C290 C289 1.479 . S
C290 C291 1.376 1_565 S
C290 C296 1.404 . S
C291 C290 1.376 1_545 S
C291 C292 1.369 . S
C291 H304 0.950 1_455 S
C292 C291 1.369 . S
C292 C293 1.392 1_545 S
C292 H305 0.951 1_455 S
C293 C292 1.392 1_565 S
C293 C295 1.384 . S
H294 C296 0.949 . S
C295 C293 1.384 . S
C295 C296 1.385 . S
C295 H297 0.950 . S
C296 C290 1.404 . S
C296 H294 0.949 . S
C296 C295 1.385 . S
H297 C295 0.950 . S
H298 C282 0.951 1_655 S
H299 C284 0.951 . S
H300 C286 0.951 . S
H301 C287 0.950 . S
H302 C288 0.950 . S
H303 C289 0.950 . S
H304 C291 0.950 1_655 S
H305 C292 0.951 1_655 S
C306 C307 1.386 1_655 S
C306 C308 1.383 . S
C306 H322 0.951 1_545 S
C307 C306 1.386 1_455 S
C307 C311 1.383 . S
C308 C306 1.383 . S
C308 C309 1.402 1_655 S
C308 H323 0.951 . S
C309 C308 1.402 1_455 S
C309 C310 1.375 . S
C309 C312 1.481 . S
C310 C309 1.375 . S
C310 C311 1.367 . S
C310 H324 0.951 . S
C311 C307 1.383 . S
C311 C310 1.367 . S
C311 H325 0.950 . S
C312 C309 1.481 . S
C312 C313 1.297 1_455 S
C312 H326 0.950 . S
C313 C312 1.297 1_655 S
C313 C314 1.479 . S
C313 H327 0.950 . S
C314 C313 1.479 . S
C314 C315 1.375 . S
C314 C320 1.404 1_655 S
C315 C314 1.375 . S
C315 C316 1.369 . S
C315 H328 0.950 . S
C316 C315 1.369 . S
C316 C317 1.392 . S
C316 H329 0.951 . S
C317 C316 1.392 . S
C317 C319 1.384 1_655 S
H318 C320 0.949 . S
C319 C317 1.384 1_455 S
C319 C320 1.385 . S
C319 H321 0.950 . S
C320 C314 1.404 1_455 S
C320 H318 0.949 . S
C320 C319 1.385 . S
H321 C319 0.950 . S
H322 C306 0.951 1_565 S
H323 C308 0.951 . S
H324 C310 0.951 . S
H325 C311 0.950 . S
H326 C312 0.950 . S
H327 C313 0.950 . S
H328 C315 0.950 . S
H329 C316 0.951 . S
C330 C331 1.386 . S
C330 C332 1.383 . S
C330 H346 0.951 . S
C331 C330 1.386 . S
C331 C335 1.383 . S
C332 C330 1.383 . S
C332 C333 1.402 . S
C332 H347 0.951 . S
C333 C332 1.402 . S
C333 C334 1.375 . S
C333 C336 1.481 . S
C334 C333 1.375 . S
C334 C335 1.367 . S
C334 H348 0.951 . S
C335 C331 1.383 . S
C335 C334 1.367 . S
C335 H349 0.950 . S
C336 C333 1.481 . S
C336 C337 1.297 . S
C336 H350 0.950 . S
C337 C336 1.297 . S
C337 C338 1.479 . S
C337 H351 0.950 . S
C338 C337 1.479 . S
C338 C339 1.375 . S
C338 C344 1.404 . S
C339 C338 1.375 . S
C339 C340 1.369 . S
C339 H352 0.950 . S
C340 C339 1.369 . S
C340 C341 1.392 . S
C340 H353 0.951 . S
C341 C340 1.392 . S
C341 C343 1.384 . S
H342 C344 0.949 . S
C343 C341 1.384 . S
C343 C344 1.385 . S
C343 H345 0.950 . S
C344 C338 1.404 . S
C344 H342 0.949 . S
C344 C343 1.385 . S
H345 C343 0.950 . S
H346 C330 0.951 . S
H347 C332 0.951 . S
H348 C334 0.951 . S
H349 C335 0.950 . S
H350 C336 0.950 . S
H351 C337 0.950 . S
H352 C339 0.950 . S
H353 C340 0.951 . S
C354 C355 1.386 . S
C354 C356 1.383 . S
C354 H370 0.951 . S
C355 C354 1.386 . S
C355 C359 1.383 . S
C356 C354 1.383 . S
C356 C357 1.402 . S
C356 H371 0.951 . S
C357 C356 1.402 . S
C357 C358 1.375 . S
C357 C360 1.481 . S
C358 C357 1.375 . S
C358 C359 1.367 . S
C358 H372 0.951 . S
C359 C355 1.383 . S
C359 C358 1.367 . S
C359 H373 0.950 . S
C360 C357 1.481 . S
C360 C361 1.297 . S
C360 H374 0.950 . S
C361 C360 1.297 . S
C361 C362 1.479 . S
C361 H375 0.950 . S
C362 C361 1.479 . S
C362 C363 1.375 . S
C362 C368 1.404 . S
C363 C362 1.375 . S
C363 C364 1.369 . S
C363 H376 0.950 . S
C364 C363 1.369 . S
C364 C365 1.392 . S
C364 H377 0.951 . S
C365 C364 1.392 . S
C365 C367 1.384 . S
H366 C368 0.949 . S
C367 C365 1.384 . S
C367 C368 1.385 . S
C367 H369 0.950 . S
C368 C362 1.404 . S
C368 H366 0.949 . S
C368 C367 1.385 . S
H369 C367 0.950 . S
H370 C354 0.951 . S
H371 C356 0.951 . S
H372 C358 0.951 . S
H373 C359 0.950 . S
H374 C360 0.950 . S
H375 C361 0.950 . S
H376 C363 0.950 . S
H377 C364 0.951 . S
C101 C84 1.390 . S
C91 C15 1.257 . S
C115 C13 1.379 . S
C125 C70 1.305 . S
C139 C18 1.301 1_554 S
C149 C82 1.434 . S
C163 C17 1.440 . S
C173 C72 1.469 . S
C187 C36 1.303 . S
C197 C60 1.403 1_565 S
C211 C34 1.371 . S
C221 C46 1.300 . S
C245 C58 1.396 . S
C235 C39 1.202 . S
C269 C48 1.454 . S
C259 C38 1.427 . S
C283 C14 1.583 1_565 S
C293 C51 1.609 . S
C307 C16 1.396 . S
C317 C63 1.424 . S
C341 C75 1.620 . S
C331 C35 1.590 . S
C355 C37 1.381 . S
C365 C87 1.391 . S
