# Generated by pormake.
# Topology eea, (3,6)-cn, num edge types: 1
# Building blocks:
#     Node 0, Type 0, BuildingBlock: MIDCAF_clean_linker_0, # of connection points: 3
#     Node 1, Type 0, BuildingBlock: MIDCAF_clean_linker_0, # of connection points: 3
#     Node 2, Type 0, BuildingBlock: MIDCAF_clean_linker_0, # of connection points: 3
#     Node 3, Type 0, BuildingBlock: MIDCAF_clean_linker_0, # of connection points: 3
#     Node 4, Type 0, BuildingBlock: MIDCAF_clean_linker_0, # of connection points: 3
#     Node 5, Type 0, BuildingBlock: MIDCAF_clean_linker_0, # of connection points: 3
#     Node 6, Type 0, BuildingBlock: MIDCAF_clean_linker_0, # of connection points: 3
#     Node 7, Type 0, BuildingBlock: MIDCAF_clean_linker_0, # of connection points: 3
#     Node 8, Type 0, BuildingBlock: MIDCAF_clean_linker_0, # of connection points: 3
#     Node 9, Type 0, BuildingBlock: MIDCAF_clean_linker_0, # of connection points: 3
#     Node 10, Type 0, BuildingBlock: MIDCAF_clean_linker_0, # of connection points: 3
#     Node 11, Type 0, BuildingBlock: MIDCAF_clean_linker_0, # of connection points: 3
#     Node 12, Type 0, BuildingBlock: MIDCAF_clean_linker_0, # of connection points: 3
#     Node 13, Type 0, BuildingBlock: MIDCAF_clean_linker_0, # of connection points: 3
#     Node 14, Type 0, BuildingBlock: MIDCAF_clean_linker_0, # of connection points: 3
#     Node 15, Type 0, BuildingBlock: MIDCAF_clean_linker_0, # of connection points: 3
#     Node 16, Type 0, BuildingBlock: MIDCAF_clean_linker_0, # of connection points: 3
#     Node 17, Type 0, BuildingBlock: MIDCAF_clean_linker_0, # of connection points: 3
#     Node 18, Type 1, BuildingBlock: KUMBUR_clean_sbu_0, # of connection points: 6
#     Node 19, Type 1, BuildingBlock: KUMBUR_clean_sbu_0, # of connection points: 6
#     Node 20, Type 1, BuildingBlock: KUMBUR_clean_sbu_0, # of connection points: 6
#     Node 21, Type 1, BuildingBlock: KUMBUR_clean_sbu_0, # of connection points: 6
#     Node 22, Type 1, BuildingBlock: KUMBUR_clean_sbu_0, # of connection points: 6
#     Node 23, Type 1, BuildingBlock: KUMBUR_clean_sbu_0, # of connection points: 6
#     Node 24, Type 1, BuildingBlock: KUMBUR_clean_sbu_0, # of connection points: 6
#     Node 25, Type 1, BuildingBlock: KUMBUR_clean_sbu_0, # of connection points: 6
#     Node 26, Type 1, BuildingBlock: KUMBUR_clean_sbu_0, # of connection points: 6
#     Edge 27, Type (0, 1), BuildingBlock: CIFDUS_clean_linker_0, # of connection points: 2
#     Edge 28, Type (0, 1), BuildingBlock: CIFDUS_clean_linker_0, # of connection points: 2
#     Edge 29, Type (0, 1), BuildingBlock: CIFDUS_clean_linker_0, # of connection points: 2
#     Edge 30, Type (0, 1), BuildingBlock: CIFDUS_clean_linker_0, # of connection points: 2
#     Edge 31, Type (0, 1), BuildingBlock: CIFDUS_clean_linker_0, # of connection points: 2
#     Edge 32, Type (0, 1), BuildingBlock: CIFDUS_clean_linker_0, # of connection points: 2
#     Edge 33, Type (0, 1), BuildingBlock: CIFDUS_clean_linker_0, # of connection points: 2
#     Edge 34, Type (0, 1), BuildingBlock: CIFDUS_clean_linker_0, # of connection points: 2
#     Edge 35, Type (0, 1), BuildingBlock: CIFDUS_clean_linker_0, # of connection points: 2
#     Edge 36, Type (0, 1), BuildingBlock: CIFDUS_clean_linker_0, # of connection points: 2
#     Edge 37, Type (0, 1), BuildingBlock: CIFDUS_clean_linker_0, # of connection points: 2
#     Edge 38, Type (0, 1), BuildingBlock: CIFDUS_clean_linker_0, # of connection points: 2
#     Edge 39, Type (0, 1), BuildingBlock: CIFDUS_clean_linker_0, # of connection points: 2
#     Edge 40, Type (0, 1), BuildingBlock: CIFDUS_clean_linker_0, # of connection points: 2
#     Edge 41, Type (0, 1), BuildingBlock: CIFDUS_clean_linker_0, # of connection points: 2
#     Edge 42, Type (0, 1), BuildingBlock: CIFDUS_clean_linker_0, # of connection points: 2
#     Edge 43, Type (0, 1), BuildingBlock: CIFDUS_clean_linker_0, # of connection points: 2
#     Edge 44, Type (0, 1), BuildingBlock: CIFDUS_clean_linker_0, # of connection points: 2
#     Edge 45, Type (0, 1), BuildingBlock: CIFDUS_clean_linker_0, # of connection points: 2
#     Edge 46, Type (0, 1), BuildingBlock: CIFDUS_clean_linker_0, # of connection points: 2
#     Edge 47, Type (0, 1), BuildingBlock: CIFDUS_clean_linker_0, # of connection points: 2
#     Edge 48, Type (0, 1), BuildingBlock: CIFDUS_clean_linker_0, # of connection points: 2
#     Edge 49, Type (0, 1), BuildingBlock: CIFDUS_clean_linker_0, # of connection points: 2
#     Edge 50, Type (0, 1), BuildingBlock: CIFDUS_clean_linker_0, # of connection points: 2
#     Edge 51, Type (0, 1), BuildingBlock: CIFDUS_clean_linker_0, # of connection points: 2
#     Edge 52, Type (0, 1), BuildingBlock: CIFDUS_clean_linker_0, # of connection points: 2
#     Edge 53, Type (0, 1), BuildingBlock: CIFDUS_clean_linker_0, # of connection points: 2
#     Edge 54, Type (0, 1), BuildingBlock: CIFDUS_clean_linker_0, # of connection points: 2
#     Edge 55, Type (0, 1), BuildingBlock: CIFDUS_clean_linker_0, # of connection points: 2
#     Edge 56, Type (0, 1), BuildingBlock: CIFDUS_clean_linker_0, # of connection points: 2
#     Edge 57, Type (0, 1), BuildingBlock: CIFDUS_clean_linker_0, # of connection points: 2
#     Edge 58, Type (0, 1), BuildingBlock: CIFDUS_clean_linker_0, # of connection points: 2
#     Edge 59, Type (0, 1), BuildingBlock: CIFDUS_clean_linker_0, # of connection points: 2
#     Edge 60, Type (0, 1), BuildingBlock: CIFDUS_clean_linker_0, # of connection points: 2
#     Edge 61, Type (0, 1), BuildingBlock: CIFDUS_clean_linker_0, # of connection points: 2
#     Edge 62, Type (0, 1), BuildingBlock: CIFDUS_clean_linker_0, # of connection points: 2
#     Edge 63, Type (0, 1), BuildingBlock: CIFDUS_clean_linker_0, # of connection points: 2
#     Edge 64, Type (0, 1), BuildingBlock: CIFDUS_clean_linker_0, # of connection points: 2
#     Edge 65, Type (0, 1), BuildingBlock: CIFDUS_clean_linker_0, # of connection points: 2
#     Edge 66, Type (0, 1), BuildingBlock: CIFDUS_clean_linker_0, # of connection points: 2
#     Edge 67, Type (0, 1), BuildingBlock: CIFDUS_clean_linker_0, # of connection points: 2
#     Edge 68, Type (0, 1), BuildingBlock: CIFDUS_clean_linker_0, # of connection points: 2
#     Edge 69, Type (0, 1), BuildingBlock: CIFDUS_clean_linker_0, # of connection points: 2
#     Edge 70, Type (0, 1), BuildingBlock: CIFDUS_clean_linker_0, # of connection points: 2
#     Edge 71, Type (0, 1), BuildingBlock: CIFDUS_clean_linker_0, # of connection points: 2
#     Edge 72, Type (0, 1), BuildingBlock: CIFDUS_clean_linker_0, # of connection points: 2
#     Edge 73, Type (0, 1), BuildingBlock: CIFDUS_clean_linker_0, # of connection points: 2
#     Edge 74, Type (0, 1), BuildingBlock: CIFDUS_clean_linker_0, # of connection points: 2
#     Edge 75, Type (0, 1), BuildingBlock: CIFDUS_clean_linker_0, # of connection points: 2
#     Edge 76, Type (0, 1), BuildingBlock: CIFDUS_clean_linker_0, # of connection points: 2
#     Edge 77, Type (0, 1), BuildingBlock: CIFDUS_clean_linker_0, # of connection points: 2
#     Edge 78, Type (0, 1), BuildingBlock: CIFDUS_clean_linker_0, # of connection points: 2
#     Edge 79, Type (0, 1), BuildingBlock: CIFDUS_clean_linker_0, # of connection points: 2
#     Edge 80, Type (0, 1), BuildingBlock: CIFDUS_clean_linker_0, # of connection points: 2
# Relax obj value: 0.009
# Max RMSD: 0.092
# Mean RMSD: 0.066
data_MOF--net-eea--node1-KUMBUR_clean_sbu_0--node2-MIDCAF_clean_linker_0--edge1-CIFDUS_clean_linker_0
_symmetry_space_group_name_H-M    P1
_symmetry_Int_Tables_number       1
_symmetry_cell_setting            triclinic
loop_
_symmetry_equiv_pos_as_xyz
'x, y, z'
_cell_length_a     55.565702
_cell_length_b     56.799871
_cell_length_c     80.34527
_cell_angle_alpha  90.177231
_cell_angle_beta   89.987683
_cell_angle_gamma 120.07846
loop_
_atom_site_label
_atom_site_type_symbol
_atom_site_fract_x
_atom_site_fract_y
_atom_site_fract_z
_atom_type_partial_charge
C0 C 0.24675 0.03455 0.41352 0.0
C1 C 0.22904 0.02487 0.39958 0.0
C2 C 0.21733 0.0402 0.39365 0.0
C3 C 0.22258 0.06418 0.40177 0.0
H4 H 0.2245 0.13834 0.39473 0.0
H5 H 0.21614 0.17231 0.38171 0.0
H6 H 0.23581 0.21692 0.42806 0.0
H7 H 0.24472 0.18345 0.44102 0.0
H8 H 0.26967 0.16735 0.4706 0.0
H9 H 0.28782 0.17502 0.49887 0.0
H10 H 0.28689 0.09854 0.49734 0.0
H11 H 0.26933 0.09107 0.46893 0.0
H12 H 0.2652 0.06484 0.43254 0.0
H13 H 0.25668 0.02366 0.41821 0.0
H14 H 0.20339 0.03326 0.38305 0.0
H15 H 0.21276 0.07519 0.39708 0.0
N16 N 0.23773 0.11577 0.41824 0.0
N17 N 0.25137 0.14204 0.44268 0.0
N18 N 0.25364 0.10202 0.44124 0.0
C19 C 0.24154 0.13808 0.42682 0.0
C20 C 0.25743 0.12411 0.45001 0.0
C21 C 0.2438 0.09767 0.42537 0.0
C22 C 0.23545 0.15815 0.41893 0.0
C23 C 0.227 0.15535 0.40218 0.0
C24 C 0.22206 0.17477 0.39471 0.0
C25 C 0.22544 0.19742 0.40381 0.0
C26 C 0.23348 0.19998 0.42061 0.0
C27 C 0.23844 0.18064 0.42807 0.0
C28 C 0.26808 0.12861 0.46738 0.0
C29 C 0.2733 0.15211 0.47626 0.0
C30 C 0.28355 0.15646 0.49255 0.0
C31 C 0.28884 0.13742 0.50041 0.0
C32 C 0.28344 0.11383 0.49159 0.0
C33 C 0.27322 0.10949 0.47529 0.0
C34 C 0.23946 0.07323 0.41608 0.0
C35 C 0.25174 0.05828 0.42172 0.0
C36 C 0.98663 0.20117 0.40724 0.0
C37 C 0.99471 0.19205 0.39316 0.0
C38 C 0.97861 0.16462 0.3884 0.0
C39 C 0.95473 0.14681 0.3974 0.0
H40 H 0.88477 0.06985 0.39545 0.0
H41 H 0.85063 0.02629 0.38347 0.0
H42 H 0.79192 0.01702 0.42177 0.0
H43 H 0.82626 0.06008 0.43406 0.0
H44 H 0.85005 0.09682 0.46622 0.0
H45 H 0.83948 0.11035 0.49272 0.0
H46 H 0.91051 0.19093 0.48701 0.0
H47 H 0.92105 0.17757 0.4603 0.0
H48 H 0.95745 0.1912 0.42706 0.0
H49 H 0.99884 0.2221 0.41137 0.0
H50 H 0.98425 0.15702 0.37759 0.0
H51 H 0.94271 0.12584 0.39331 0.0
N52 N 0.9026 0.11239 0.41458 0.0
N53 N 0.87405 0.10323 0.43796 0.0
N54 N 0.91577 0.14483 0.43597 0.0
C55 C 0.87895 0.09531 0.42298 0.0
C56 C 0.89232 0.12787 0.4446 0.0
C57 C 0.92111 0.13721 0.42096 0.0
C58 C 0.85835 0.06857 0.41574 0.0
C59 C 0.86461 0.05852 0.40136 0.0
C60 C 0.84494 0.03357 0.39441 0.0
C61 C 0.81842 0.01811 0.4016 0.0
C62 C 0.81223 0.02813 0.41603 0.0
C63 C 0.83195 0.05297 0.42304 0.0
C64 C 0.8864 0.13611 0.46101 0.0
C65 C 0.86352 0.11745 0.47056 0.0
C66 C 0.85753 0.12513 0.48586 0.0
C67 C 0.87415 0.15171 0.49201 0.0
C68 C 0.89712 0.17036 0.48255 0.0
C69 C 0.90324 0.16264 0.46726 0.0
C70 C 0.94661 0.15596 0.41148 0.0
C71 C 0.96298 0.18336 0.41632 0.0
C72 C 0.83142 0.79515 0.38192 0.0
C73 C 0.80411 0.78153 0.38819 0.0
C74 C 0.79866 0.76637 0.40288 0.0
C75 C 0.8199 0.76485 0.41116 0.0
H76 H 0.92676 0.78649 0.38222 0.0
H77 H 0.9711 0.79801 0.36916 0.0
H78 H 0.00725 0.80401 0.41761 0.0
H79 H 0.96304 0.79232 0.43072 0.0
H80 H 0.91362 0.74923 0.45932 0.0
H81 H 0.89975 0.72793 0.4868 0.0
H82 H 0.82711 0.73693 0.48537 0.0
H83 H 0.84048 0.75763 0.45813 0.0
H84 H 0.87357 0.80402 0.38503 0.0
H85 H 0.8362 0.80692 0.37059 0.0
H86 H 0.77794 0.75594 0.40815 0.0
H87 H 0.81474 0.75299 0.42248 0.0
N88 N 0.89431 0.78339 0.40692 0.0
N89 N 0.90917 0.7723 0.43164 0.0
N90 N 0.86494 0.76771 0.43013 0.0
C91 C 0.91427 0.7813 0.41559 0.0
C92 C 0.88447 0.76549 0.43901 0.0
C93 C 0.86953 0.7766 0.41417 0.0
C94 C 0.94126 0.78848 0.40756 0.0
C95 C 0.94415 0.7903 0.39012 0.0
C96 C 0.9695 0.79675 0.3826 0.0
C97 C 0.99268 0.80199 0.39235 0.0
C98 C 0.98984 0.80032 0.40977 0.0
C99 C 0.96442 0.79347 0.41727 0.0
C100 C 0.878 0.75482 0.45633 0.0
C101 C 0.89482 0.74686 0.46494 0.0
C102 C 0.88693 0.73474 0.48072 0.0
C103 C 0.86208 0.73034 0.48818 0.0
C104 C 0.84602 0.73941 0.47985 0.0
C105 C 0.85381 0.7514 0.46418 0.0
C106 C 0.84724 0.77828 0.40493 0.0
C107 C 0.85276 0.79335 0.39014 0.0
C108 C 0.02838 0.21568 0.61319 0.0
C109 C 0.02008 0.19944 0.62758 0.0
C110 C 0.03639 0.18846 0.63309 0.0
C111 C 0.06079 0.19414 0.62463 0.0
H112 H 0.13379 0.1859 0.62725 0.0
H113 H 0.17058 0.1824 0.642 0.0
H114 H 0.23261 0.24771 0.61223 0.0
H115 H 0.19608 0.25081 0.59719 0.0
H116 H 0.16702 0.24071 0.55729 0.0
H117 H 0.17661 0.25826 0.52905 0.0
H118 H 0.10552 0.26974 0.53079 0.0
H119 H 0.09579 0.25214 0.55927 0.0
H120 H 0.05832 0.23376 0.59363 0.0
H121 H 0.01609 0.22419 0.60852 0.0
H122 H 0.03059 0.17596 0.64415 0.0
H123 H 0.07304 0.18562 0.62936 0.0
N124 N 0.11536 0.21398 0.60956 0.0
N125 N 0.14464 0.23117 0.58633 0.0
N126 N 0.10072 0.22762 0.58586 0.0
C127 C 0.13999 0.22104 0.60205 0.0
C128 C 0.12511 0.23435 0.57806 0.0
C129 C 0.09564 0.21733 0.60161 0.0
C130 C 0.162 0.21861 0.61103 0.0
C131 C 0.15528 0.19946 0.62384 0.0
C132 C 0.17626 0.19738 0.63223 0.0
C133 C 0.20437 0.21486 0.62827 0.0
C134 C 0.2111 0.2341 0.61558 0.0
C135 C 0.19015 0.23575 0.60692 0.0
C136 C 0.1306 0.24498 0.56068 0.0
C137 C 0.15333 0.24693 0.55174 0.0
C138 C 0.15876 0.25684 0.53544 0.0
C139 C 0.14179 0.26533 0.52759 0.0
C140 C 0.1191 0.26352 0.5365 0.0
C141 C 0.11346 0.2533 0.55281 0.0
C142 C 0.06924 0.21056 0.61029 0.0
C143 C 0.05253 0.22102 0.60459 0.0
C144 C 0.76658 0.80203 0.60597 0.0
C145 C 0.7908 0.81113 0.61566 0.0
C146 C 0.80811 0.83937 0.6181 0.0
C147 C 0.80146 0.85787 0.61092 0.0
H148 H 0.8177 0.94437 0.60994 0.0
H149 H 0.82911 0.98826 0.62195 0.0
H150 H 0.7491 0.97569 0.60591 0.0
H151 H 0.739 0.93312 0.59289 0.0
H152 H 0.73837 0.90977 0.55019 0.0
H153 H 0.71437 0.89771 0.52349 0.0
H154 H 0.70129 0.81638 0.52781 0.0
H155 H 0.72516 0.82826 0.55463 0.0
H156 H 0.7416 0.81265 0.59108 0.0
H157 H 0.7522 0.78053 0.60417 0.0
H158 H 0.8271 0.84729 0.62527 0.0
H159 H 0.8153 0.87946 0.6129 0.0
N160 N 0.77847 0.89246 0.59971 0.0
N161 N 0.75619 0.90184 0.57803 0.0
N162 N 0.75608 0.86058 0.57825 0.0
C163 C 0.77089 0.9094 0.59247 0.0
C164 C 0.74894 0.87759 0.57073 0.0
C165 C 0.77083 0.86784 0.59271 0.0
C166 C 0.77758 0.93549 0.60041 0.0
C167 C 0.80269 0.95118 0.60899 0.0
C168 C 0.80908 0.97628 0.61598 0.0
C169 C 0.79012 0.98589 0.61495 0.0
C170 C 0.7647 0.96964 0.60663 0.0
C171 C 0.75871 0.945 0.59926 0.0
C172 C 0.73376 0.87 0.55462 0.0
C173 C 0.73033 0.88927 0.54553 0.0
C174 C 0.71673 0.88244 0.53014 0.0
C175 C 0.70603 0.85613 0.52352 0.0
C176 C 0.70914 0.83676 0.53265 0.0
C177 C 0.72296 0.84364 0.54799 0.0
C178 C 0.7777 0.84859 0.60087 0.0
C179 C 0.76033 0.82048 0.59853 0.0
C180 C 0.20734 0.97298 0.60666 0.0
C181 C 0.20539 0.97652 0.62383 0.0
C182 C 0.18251 0.95612 0.6326 0.0
C183 C 0.16234 0.93262 0.62441 0.0
H184 H 0.08078 0.86526 0.62837 0.0
H185 H 0.03998 0.82987 0.64289 0.0
H186 H 0.02579 0.77388 0.60262 0.0
H187 H 0.06635 0.80893 0.58813 0.0
H188 H 0.10052 0.83151 0.55397 0.0
H189 H 0.11343 0.8229 0.52644 0.0
H190 H 0.18987 0.90011 0.52869 0.0
H191 H 0.17734 0.9087 0.55605 0.0
H192 H 0.18974 0.94763 0.58529 0.0
H193 H 0.22431 0.98848 0.59943 0.0
H194 H 0.18044 0.95806 0.64586 0.0
H195 H 0.14522 0.91719 0.63159 0.0
N196 N 0.12061 0.88456 0.60633 0.0
N197 N 0.10789 0.85676 0.58248 0.0
N198 N 0.14913 0.8989 0.5827 0.0
C199 C 0.10234 0.86108 0.59836 0.0
C200 C 0.13124 0.87564 0.57453 0.0
C201 C 0.14408 0.90361 0.59855 0.0
C202 C 0.07704 0.83999 0.60707 0.0
C203 C 0.06895 0.84542 0.62258 0.0
C204 C 0.04549 0.8252 0.63089 0.0
C205 C 0.0298 0.79903 0.62397 0.0
C206 C 0.03769 0.79373 0.6084 0.0
C207 C 0.0609 0.81393 0.60004 0.0
C208 C 0.13795 0.87071 0.55738 0.0
C209 C 0.12002 0.84672 0.54857 0.0
C210 C 0.12733 0.84182 0.53275 0.0
C211 C 0.1528 0.86071 0.52544 0.0
C212 C 0.17033 0.88493 0.53408 0.0
C213 C 0.16302 0.88989 0.54979 0.0
C214 C 0.16462 0.92894 0.60728 0.0
C215 C 0.18732 0.94954 0.59851 0.0
C216 C 0.87746 0.35689 0.74679 0.0
C217 C 0.86905 0.35375 0.73004 0.0
C218 C 0.86655 0.37462 0.72237 0.0
C219 C 0.87275 0.39828 0.73119 0.0
H220 H 0.88229 0.47412 0.72502 0.0
H221 H 0.87945 0.51084 0.71135 0.0
H222 H 0.89757 0.55441 0.75806 0.0
H223 H 0.90113 0.51812 0.77167 0.0
H224 H 0.92311 0.49894 0.80135 0.0
H225 H 0.94243 0.5063 0.82924 0.0
H226 H 0.93041 0.42504 0.82931 0.0
H227 H 0.91158 0.41776 0.80117 0.0
H228 H 0.89019 0.3822 0.76846 0.0
H229 H 0.87915 0.34099 0.75315 0.0
H230 H 0.86035 0.37293 0.70945 0.0
H231 H 0.87088 0.41406 0.72481 0.0
N232 N 0.88694 0.44739 0.74957 0.0
N233 N 0.90302 0.47389 0.77381 0.0
N234 N 0.89807 0.43043 0.77313 0.0
C235 C 0.89392 0.47087 0.75783 0.0
C236 C 0.90518 0.45381 0.78157 0.0
C237 C 0.88889 0.42703 0.75713 0.0
C238 C 0.89194 0.49309 0.74948 0.0
C239 C 0.88569 0.49152 0.73241 0.0
C240 C 0.88393 0.51254 0.72456 0.0
C241 C 0.88828 0.53559 0.7336 0.0
C242 C 0.89453 0.53716 0.75066 0.0
C243 C 0.8964 0.51621 0.75849 0.0
C244 C 0.91585 0.45777 0.7989 0.0
C245 C 0.92445 0.48253 0.80727 0.0
C246 C 0.93539 0.48673 0.82336 0.0
C247 C 0.93799 0.46627 0.83154 0.0
C248 C 0.92904 0.44136 0.82329 0.0
C249 C 0.9181 0.43715 0.80716 0.0
C250 C 0.88156 0.40161 0.74789 0.0
C251 C 0.88365 0.38051 0.75561 0.0
C252 C 0.64537 0.55196 0.741 0.0
C253 C 0.65499 0.54766 0.72573 0.0
C254 C 0.64135 0.5214 0.71875 0.0
C255 C 0.61837 0.50005 0.72673 0.0
H256 H 0.55543 0.41977 0.71996 0.0
H257 H 0.52588 0.37665 0.7056 0.0
H258 H 0.46624 0.35161 0.74561 0.0
H259 H 0.49534 0.39448 0.75987 0.0
H260 H 0.50555 0.43069 0.79019 0.0
H261 H 0.48973 0.43778 0.81693 0.0
H262 H 0.56328 0.51709 0.82088 0.0
H263 H 0.57946 0.50999 0.79404 0.0
H264 H 0.61575 0.53485 0.76072 0.0
H265 H 0.65567 0.57185 0.74685 0.0
H266 H 0.64815 0.51744 0.70697 0.0
H267 H 0.60823 0.48016 0.7209 0.0
N268 N 0.56832 0.45756 0.74246 0.0
N269 N 0.53768 0.44145 0.7651 0.0
N270 N 0.57588 0.48577 0.76565 0.0
C271 C 0.5452 0.43719 0.74979 0.0
C272 C 0.55286 0.46557 0.77317 0.0
C273 C 0.58379 0.48195 0.75029 0.0
C274 C 0.5278 0.41077 0.74108 0.0
C275 C 0.53602 0.40508 0.72571 0.0
C276 C 0.51916 0.38032 0.7175 0.0
C277 C 0.49361 0.36079 0.7244 0.0
C278 C 0.48556 0.36639 0.73981 0.0
C279 C 0.50242 0.39099 0.74805 0.0
C280 C 0.54379 0.46982 0.78982 0.0
C281 C 0.51851 0.44966 0.79671 0.0
C282 C 0.50931 0.45376 0.81205 0.0
C283 C 0.52513 0.47807 0.82101 0.0
C284 C 0.55068 0.49805 0.81435 0.0
C285 C 0.55987 0.49402 0.7989 0.0
C286 C 0.6086 0.50441 0.74196 0.0
C287 C 0.62254 0.53064 0.74902 0.0
C288 C 0.48131 0.12189 0.74245 0.0
C289 C 0.48958 0.13855 0.72829 0.0
C290 C 0.51642 0.14784 0.72186 0.0
C291 C 0.53453 0.14057 0.72945 0.0
H292 H 0.61057 0.13869 0.72335 0.0
H293 H 0.65111 0.14102 0.70961 0.0
H294 H 0.65699 0.09232 0.74877 0.0
H295 H 0.61684 0.08992 0.76245 0.0
H296 H 0.58296 0.07985 0.79564 0.0
H297 H 0.57175 0.06252 0.82402 0.0
H298 H 0.50391 0.07905 0.82488 0.0
H299 H 0.51519 0.09664 0.79665 0.0
H300 H 0.49229 0.10223 0.76112 0.0
H301 H 0.46093 0.11465 0.74785 0.0
H302 H 0.52336 0.16064 0.71091 0.0
H303 H 0.55507 0.14812 0.72422 0.0
N304 N 0.56855 0.11954 0.74462 0.0
N305 N 0.57928 0.10251 0.76839 0.0
N306 N 0.53984 0.10731 0.76822 0.0
C307 C 0.5855 0.1122 0.75255 0.0
C308 C 0.55659 0.10013 0.77637 0.0
C309 C 0.54553 0.11699 0.75239 0.0
C310 C 0.61027 0.11407 0.74404 0.0
C311 C 0.62049 0.12846 0.72902 0.0
C312 C 0.64381 0.12993 0.72118 0.0
C313 C 0.65718 0.11671 0.72803 0.0
C314 C 0.64698 0.10242 0.74302 0.0
C315 C 0.62398 0.10121 0.75094 0.0
C316 C 0.55 0.08967 0.79375 0.0
C317 C 0.56569 0.07988 0.80186 0.0
C318 C 0.55918 0.0698 0.81814 0.0
C319 C 0.53694 0.0694 0.82677 0.0
C320 C 0.52141 0.07937 0.8187 0.0
C321 C 0.52779 0.0893 0.80242 0.0
C322 C 0.52635 0.12422 0.7438 0.0
C323 C 0.49946 0.11494 0.75014 0.0
C324 C 0.69784 0.56384 0.94593 0.0
C325 C 0.68893 0.54895 0.96079 0.0
C326 C 0.70354 0.53641 0.96679 0.0
C327 C 0.72709 0.53945 0.95829 0.0
H328 H 0.8023 0.53429 0.96339 0.0
H329 H 0.84021 0.53103 0.97687 0.0
H330 H 0.89377 0.57258 0.93526 0.0
H331 H 0.85647 0.57579 0.92182 0.0
H332 H 0.8308 0.582 0.88823 0.0
H333 H 0.84114 0.60446 0.86118 0.0
H334 H 0.77044 0.61604 0.86635 0.0
H335 H 0.76007 0.59377 0.89338 0.0
H336 H 0.72712 0.57842 0.92604 0.0
H337 H 0.68685 0.5735 0.9409 0.0
H338 H 0.69715 0.52483 0.97823 0.0
H339 H 0.73818 0.52992 0.96333 0.0
N340 N 0.78052 0.55382 0.9417 0.0
N341 N 0.80818 0.56906 0.91762 0.0
N342 N 0.76609 0.56897 0.91861 0.0
C343 C 0.8041 0.559 0.93337 0.0
C344 C 0.78931 0.57403 0.91011 0.0
C345 C 0.76136 0.55878 0.93434 0.0
C346 C 0.82623 0.55545 0.94152 0.0
C347 C 0.82212 0.54261 0.95708 0.0
C348 C 0.84378 0.54062 0.96479 0.0
C349 C 0.87006 0.5518 0.9572 0.0
C350 C 0.87391 0.56412 0.94155 0.0
C351 C 0.85234 0.56581 0.9338 0.0
C352 C 0.79468 0.58618 0.89313 0.0
C353 C 0.81732 0.58917 0.88359 0.0
C354 C 0.82318 0.6019 0.86801 0.0
C355 C 0.80671 0.61218 0.86163 0.0
C356 C 0.78374 0.60865 0.87098 0.0
C357 C 0.77773 0.59574 0.88648 0.0
C358 C 0.73615 0.55467 0.94348 0.0
C359 C 0.72095 0.56654 0.93737 0.0
C360 C 0.42699 0.12568 0.93592 0.0
C361 C 0.45118 0.13405 0.94553 0.0
C362 C 0.46972 0.16214 0.94754 0.0
C363 C 0.46397 0.18123 0.94043 0.0
H364 H 0.48233 0.26548 0.94363 0.0
H365 H 0.49565 0.30725 0.95904 0.0
H366 H 0.41816 0.30232 0.94468 0.0
H367 H 0.4061 0.26185 0.92833 0.0
H368 H 0.39827 0.2386 0.88557 0.0
H369 H 0.37271 0.22888 0.8595 0.0
H370 H 0.36061 0.14757 0.85947 0.0
H371 H 0.38678 0.15746 0.88532 0.0
H372 H 0.40268 0.13759 0.92132 0.0
H373 H 0.41183 0.10433 0.93435 0.0
H374 H 0.48887 0.16952 0.9545 0.0
H375 H 0.47856 0.20268 0.94232 0.0
N376 N 0.44215 0.21703 0.93149 0.0
N377 N 0.4194 0.22894 0.91147 0.0
N378 N 0.4177 0.18692 0.90964 0.0
C379 C 0.43503 0.23506 0.92553 0.0
C380 C 0.4109 0.20501 0.90332 0.0
C381 C 0.43335 0.19283 0.92368 0.0
C382 C 0.4433 0.26058 0.9347 0.0
C383 C 0.46832 0.27356 0.9437 0.0
C384 C 0.4758 0.2974 0.95268 0.0
C385 C 0.45806 0.30843 0.95322 0.0
C386 C 0.43282 0.29507 0.94429 0.0
C387 C 0.42574 0.27168 0.93496 0.0
C388 C 0.39465 0.19884 0.88762 0.0
C389 C 0.39015 0.21861 0.88006 0.0
C390 C 0.37536 0.213 0.8651 0.0
C391 C 0.36458 0.18744 0.85734 0.0
C392 C 0.36898 0.16763 0.86494 0.0
C393 C 0.38386 0.17326 0.87986 0.0
C394 C 0.43988 0.17271 0.93081 0.0
C395 C 0.4216 0.14476 0.92849 0.0
C396 C 0.86709 0.30757 0.93845 0.0
C397 C 0.86098 0.31735 0.953 0.0
C398 C 0.83518 0.3008 0.96083 0.0
C399 C 0.81585 0.27536 0.95407 0.0
H400 H 0.73846 0.20013 0.96244 0.0
H401 H 0.69849 0.1638 0.97727 0.0
H402 H 0.68743 0.10756 0.93778 0.0
H403 H 0.72688 0.1433 0.92307 0.0
H404 H 0.75941 0.16341 0.88945 0.0
H405 H 0.77041 0.15429 0.8616 0.0
H406 H 0.84146 0.23555 0.85973 0.0
H407 H 0.83093 0.24454 0.88756 0.0
H408 H 0.85352 0.27586 0.9204 0.0
H409 H 0.88695 0.31932 0.93227 0.0
H410 H 0.82965 0.30771 0.972 0.0
H411 H 0.79607 0.2633 0.96027 0.0
N412 N 0.77859 0.22055 0.93981 0.0
N413 N 0.76588 0.19132 0.91661 0.0
N414 N 0.80608 0.2341 0.91569 0.0
C415 C 0.76068 0.19625 0.93243 0.0
C416 C 0.78846 0.21017 0.90811 0.0
C417 C 0.80148 0.23957 0.93146 0.0
C418 C 0.7361 0.17474 0.94155 0.0
C419 C 0.72748 0.18001 0.95693 0.0
C420 C 0.70451 0.15925 0.96539 0.0
C421 C 0.68996 0.13273 0.95878 0.0
C422 C 0.69844 0.12764 0.94336 0.0
C423 C 0.72106 0.14829 0.93486 0.0
C424 C 0.79434 0.20467 0.89089 0.0
C425 C 0.77735 0.17937 0.88311 0.0
C426 C 0.78357 0.17418 0.86707 0.0
C427 C 0.80693 0.19412 0.85843 0.0
C428 C 0.8236 0.21953 0.86611 0.0
C429 C 0.81742 0.22473 0.8821 0.0
C430 C 0.82186 0.26599 0.93928 0.0
C431 C 0.84784 0.28241 0.93167 0.0
C432 C 0.54503 0.68636 0.07769 0.0
C433 C 0.5366 0.6831 0.06094 0.0
C434 C 0.53553 0.70455 0.05295 0.0
C435 C 0.54314 0.72884 0.06143 0.0
H436 H 0.52368 0.79573 0.06895 0.0
H437 H 0.51565 0.83079 0.05752 0.0
H438 H 0.59468 0.89275 0.07759 0.0
H439 H 0.60145 0.85747 0.09003 0.0
H440 H 0.61119 0.83491 0.1277 0.0
H441 H 0.63302 0.84203 0.15499 0.0
H442 H 0.61027 0.75738 0.15658 0.0
H443 H 0.58822 0.75004 0.12942 0.0
H444 H 0.55931 0.71243 0.099 0.0
H445 H 0.54555 0.67007 0.08434 0.0
H446 H 0.5294 0.70283 0.04001 0.0
H447 H 0.54246 0.74507 0.05481 0.0
N448 N 0.55783 0.77824 0.08001 0.0
N449 N 0.58065 0.80702 0.10271 0.0
N450 N 0.57452 0.76311 0.10187 0.0
C451 C 0.56739 0.80256 0.08785 0.0
C452 C 0.58412 0.78729 0.10987 0.0
C453 C 0.5615 0.75844 0.08691 0.0
C454 C 0.56315 0.82391 0.08038 0.0
C455 C 0.53928 0.81688 0.07089 0.0
C456 C 0.53483 0.83708 0.06422 0.0
C457 C 0.55455 0.86484 0.0665 0.0
C458 C 0.57868 0.87173 0.07583 0.0
C459 C 0.58273 0.8515 0.08287 0.0
C460 C 0.59789 0.79188 0.12632 0.0
C461 C 0.61082 0.81778 0.13384 0.0
C462 C 0.62347 0.82193 0.14944 0.0
C463 C 0.6233 0.80025 0.15792 0.0
C464 C 0.61045 0.7744 0.15042 0.0
C465 C 0.59797 0.77027 0.13479 0.0
C466 C 0.55211 0.73227 0.07809 0.0
C467 C 0.55276 0.71065 0.08614 0.0
C468 C 0.31081 0.87993 0.07767 0.0
C469 C 0.31805 0.87362 0.0622 0.0
C470 C 0.30249 0.84681 0.05617 0.0
C471 C 0.2796 0.82702 0.06518 0.0
H472 H 0.21462 0.73794 0.0708 0.0
H473 H 0.18052 0.69419 0.05891 0.0
H474 H 0.11439 0.70274 0.08129 0.0
H475 H 0.14871 0.74511 0.09414 0.0
H476 H 0.17787 0.76947 0.13624 0.0
H477 H 0.16946 0.7815 0.16391 0.0
H478 H 0.23776 0.86348 0.15732 0.0
H479 H 0.24672 0.85126 0.12994 0.0
H480 H 0.28327 0.86616 0.09846 0.0
H481 H 0.32264 0.90028 0.0828 0.0
H482 H 0.30754 0.84133 0.04429 0.0
H483 H 0.26771 0.8067 0.06004 0.0
N484 N 0.22861 0.78876 0.08301 0.0
N485 N 0.20005 0.77783 0.10667 0.0
N486 N 0.24163 0.81962 0.1053 0.0
C487 C 0.20503 0.77102 0.0913 0.0
C488 C 0.21838 0.80202 0.11384 0.0
C489 C 0.24698 0.81326 0.0899 0.0
C490 C 0.18436 0.74484 0.08352 0.0
C491 C 0.19275 0.73028 0.07319 0.0
C492 C 0.17304 0.70521 0.06625 0.0
C493 C 0.14431 0.69439 0.06907 0.0
C494 C 0.13613 0.70958 0.07912 0.0
C495 C 0.15586 0.73416 0.08643 0.0
C496 C 0.213 0.80934 0.13075 0.0
C497 C 0.19114 0.79007 0.14068 0.0
C498 C 0.18621 0.79703 0.15657 0.0
C499 C 0.20289 0.82352 0.16298 0.0
C500 C 0.22474 0.84276 0.15302 0.0
C501 C 0.22978 0.83576 0.13719 0.0
C502 C 0.27201 0.83356 0.08052 0.0
C503 C 0.28823 0.86022 0.08671 0.0
C504 C 0.1327 0.43886 0.0769 0.0
C505 C 0.13763 0.45149 0.06129 0.0
C506 C 0.16413 0.46197 0.05409 0.0
C507 C 0.18495 0.45903 0.06216 0.0
H508 H 0.26655 0.46798 0.05737 0.0
H509 H 0.30678 0.47148 0.04251 0.0
H510 H 0.31622 0.42323 0.08053 0.0
H511 H 0.27644 0.41981 0.09541 0.0
H512 H 0.24171 0.40744 0.12993 0.0
H513 H 0.22756 0.38542 0.15719 0.0
H514 H 0.15615 0.39643 0.1566 0.0
H515 H 0.16984 0.41795 0.12958 0.0
H516 H 0.14846 0.42608 0.09695 0.0
H517 H 0.11264 0.43091 0.08289 0.0
H518 H 0.1685 0.47179 0.04205 0.0
H519 H 0.20499 0.46685 0.05619 0.0
N520 N 0.22457 0.44579 0.07853 0.0
N521 N 0.23718 0.43007 0.10224 0.0
N522 N 0.19594 0.4317 0.10212 0.0
C523 C 0.24284 0.4401 0.08641 0.0
C524 C 0.2138 0.42598 0.11024 0.0
C525 C 0.20096 0.44154 0.08635 0.0
C526 C 0.26803 0.44347 0.07759 0.0
C527 C 0.27727 0.4582 0.06261 0.0
C528 C 0.30041 0.46036 0.05412 0.0
C529 C 0.31455 0.44746 0.06027 0.0
C530 C 0.30558 0.43314 0.07535 0.0
C531 C 0.28279 0.4313 0.08393 0.0
C532 C 0.2068 0.41426 0.12735 0.0
C533 C 0.22309 0.40532 0.13566 0.0
C534 C 0.21505 0.39279 0.15134 0.0
C535 C 0.19052 0.38884 0.15902 0.0
C536 C 0.17485 0.39862 0.15093 0.0
C537 C 0.18283 0.4111 0.13538 0.0
C538 C 0.17976 0.44593 0.07771 0.0
C539 C 0.15342 0.43623 0.08501 0.0
C540 C 0.3589 0.88018 0.27777 0.0
C541 C 0.34968 0.86245 0.29147 0.0
C542 C 0.36605 0.85147 0.29693 0.0
C543 C 0.39101 0.85803 0.28885 0.0
H544 H 0.46231 0.85088 0.29246 0.0
H545 H 0.49689 0.84213 0.30539 0.0
H546 H 0.55639 0.89051 0.26763 0.0
H547 H 0.52211 0.89936 0.25472 0.0
H548 H 0.49751 0.91027 0.22069 0.0
H549 H 0.50772 0.93379 0.19399 0.0
H550 H 0.43726 0.94545 0.20035 0.0
H551 H 0.42705 0.92216 0.22702 0.0
H552 H 0.38989 0.90008 0.25902 0.0
H553 H 0.34663 0.88871 0.27311 0.0
H554 H 0.35959 0.83786 0.30749 0.0
H555 H 0.40302 0.84913 0.29337 0.0
N556 N 0.44467 0.87574 0.27286 0.0
N557 N 0.4739 0.89437 0.24968 0.0
N558 N 0.43183 0.8945 0.25098 0.0
C559 C 0.46868 0.88195 0.26479 0.0
C560 C 0.45557 0.90065 0.24265 0.0
C561 C 0.42614 0.88201 0.26606 0.0
C562 C 0.48935 0.87591 0.27253 0.0
C563 C 0.48275 0.85965 0.28688 0.0
C564 C 0.50252 0.8545 0.29427 0.0
C565 C 0.52944 0.86575 0.2876 0.0
C566 C 0.53596 0.88184 0.27322 0.0
C567 C 0.51618 0.88676 0.26574 0.0
C568 C 0.4615 0.91437 0.22614 0.0
C569 C 0.48412 0.91778 0.21641 0.0
C570 C 0.48989 0.9311 0.20102 0.0
C571 C 0.47336 0.94157 0.19504 0.0
C572 C 0.4506 0.93791 0.20467 0.0
C573 C 0.44468 0.92441 0.21997 0.0
C574 C 0.40002 0.87547 0.27498 0.0
C575 C 0.38365 0.88651 0.2696 0.0
C576 C 0.10547 0.4629 0.27275 0.0
C577 C 0.11329 0.46472 0.28956 0.0
C578 C 0.11521 0.48622 0.29928 0.0
C579 C 0.10936 0.50535 0.29238 0.0
H580 H 0.11891 0.58174 0.30146 0.0
H581 H 0.12936 0.62355 0.31623 0.0
H582 H 0.08998 0.64374 0.27686 0.0
H583 H 0.07996 0.60261 0.26204 0.0
H584 H 0.07137 0.57549 0.22812 0.0
H585 H 0.04983 0.56954 0.20106 0.0
H586 H 0.03562 0.48757 0.19833 0.0
H587 H 0.05786 0.49365 0.22551 0.0
H588 H 0.09357 0.47989 0.25287 0.0
H589 H 0.1042 0.44684 0.26483 0.0
H590 H 0.12078 0.48802 0.31233 0.0
H591 H 0.1109 0.52151 0.30031 0.0
N592 N 0.09954 0.54586 0.27734 0.0
N593 N 0.08301 0.56057 0.25525 0.0
N594 N 0.08409 0.52004 0.2527 0.0
C595 C 0.09362 0.56443 0.27086 0.0
C596 C 0.07817 0.53855 0.24607 0.0
C597 C 0.09485 0.5236 0.26835 0.0
C598 C 0.09887 0.58889 0.28045 0.0
C599 C 0.1124 0.59505 0.29599 0.0
C600 C 0.11828 0.61892 0.3045 0.0
C601 C 0.11077 0.63705 0.2976 0.0
C602 C 0.09655 0.63045 0.28233 0.0
C603 C 0.09071 0.60674 0.27386 0.0
C604 C 0.06615 0.53494 0.22913 0.0
C605 C 0.06374 0.55614 0.22182 0.0
C606 C 0.05124 0.55271 0.20629 0.0
C607 C 0.04065 0.52796 0.19763 0.0
C608 C 0.04368 0.50693 0.20467 0.0
C609 C 0.05633 0.51039 0.22027 0.0
C610 C 0.10132 0.50341 0.2756 0.0
C611 C 0.0995 0.48196 0.26586 0.0
C612 C 0.5313 0.63361 0.27886 0.0
C613 C 0.52091 0.6436 0.29133 0.0
C614 C 0.49262 0.62783 0.29569 0.0
C615 C 0.47534 0.6028 0.28788 0.0
H616 H 0.40485 0.52568 0.29639 0.0
H617 H 0.3653 0.48906 0.31099 0.0
H618 H 0.35549 0.43326 0.27146 0.0
H619 H 0.39501 0.46957 0.25692 0.0
H620 H 0.43057 0.49266 0.22347 0.0
H621 H 0.44518 0.48433 0.19646 0.0
H622 H 0.51992 0.56295 0.19908 0.0
H623 H 0.50568 0.57123 0.22603 0.0
H624 H 0.52278 0.6019 0.26137 0.0
H625 H 0.55304 0.64465 0.27539 0.0
H626 H 0.48363 0.63493 0.30501 0.0
H627 H 0.45368 0.59124 0.29152 0.0
N628 N 0.44427 0.54708 0.27439 0.0
N629 N 0.43551 0.51805 0.25148 0.0
N630 N 0.47472 0.56177 0.25161 0.0
C631 C 0.42812 0.52259 0.26682 0.0
C632 C 0.45872 0.53759 0.24375 0.0
C633 C 0.46765 0.56674 0.26686 0.0
C634 C 0.40331 0.50066 0.27546 0.0
C635 C 0.39426 0.50563 0.29077 0.0
C636 C 0.3715 0.48466 0.29913 0.0
C637 C 0.35737 0.45819 0.29246 0.0
C638 C 0.3662 0.45332 0.27709 0.0
C639 C 0.38879 0.47426 0.26868 0.0
C640 C 0.46698 0.53257 0.22706 0.0
C641 C 0.45011 0.50821 0.2183 0.0
C642 C 0.45839 0.50348 0.20275 0.0
C643 C 0.48379 0.52291 0.19564 0.0
C644 C 0.50043 0.54738 0.20429 0.0
C645 C 0.49214 0.55216 0.21976 0.0
C646 C 0.48578 0.59312 0.27531 0.0
C647 C 0.51394 0.60889 0.27086 0.0
Tb648 Tb 0.49093 0.98339 0.98844 0.0
C649 C 0.54911 0.08162 0.03563 0.0
C650 C 0.59776 0.09541 0.03322 0.0
C651 C 0.58433 0.12895 0.04009 0.0
C652 C 0.56944 0.0752 0.03238 0.0
C653 C 0.55623 0.10839 0.04002 0.0
C654 C 0.60509 0.12247 0.03666 0.0
C655 C 0.50763 0.09183 0.04559 0.0
N656 N 0.52233 0.06111 0.0356 0.0
C657 C 0.50165 0.06561 0.04111 0.0
C658 C 0.53499 0.11342 0.04478 0.0
Tb659 Tb 0.51437 0.01889 0.02795 0.0
N660 N 0.56142 0.04876 0.02942 0.0
C661 C 0.58095 0.04086 0.02849 0.0
C662 C 0.61781 0.08764 0.03115 0.0
C663 C 0.60934 0.06017 0.02904 0.0
H664 H 0.48041 0.04914 0.04169 0.0
H665 H 0.62466 0.05383 0.0278 0.0
H666 H 0.62673 0.13835 0.0372 0.0
H667 H 0.49112 0.09538 0.0496 0.0
H668 H 0.57493 0.01978 0.02679 0.0
H669 H 0.38034 0.94684 0.98947 0.0
H670 H 0.6398 0.10254 0.03163 0.0
H671 H 0.52544 0.95405 0.97414 0.0
H672 H 0.42994 0.98151 0.98996 0.0
H673 H 0.51529 0.90803 0.96608 0.0
H674 H 0.59026 0.14972 0.04325 0.0
H675 H 0.3659 0.89825 0.98587 0.0
H676 H 0.37964 0.86296 0.98012 0.0
H677 H 0.53958 0.13369 0.04829 0.0
H678 H 0.41649 0.85235 0.97354 0.0
N679 N 0.44401 0.95296 0.98741 0.0
C680 C 0.42418 0.96047 0.98841 0.0
C681 C 0.38782 0.91341 0.98618 0.0
C682 C 0.40815 0.90604 0.98394 0.0
C683 C 0.39589 0.94081 0.98814 0.0
C684 C 0.43636 0.92658 0.98455 0.0
H685 H 0.46717 0.86918 0.96784 0.0
N686 N 0.48356 0.9414 0.98076 0.0
C687 C 0.49868 0.91125 0.97036 0.0
C688 C 0.45692 0.92058 0.98098 0.0
C689 C 0.50435 0.93733 0.97493 0.0
C690 C 0.47151 0.88935 0.97142 0.0
C691 C 0.45012 0.89394 0.97653 0.0
O692 O 0.51199 0.9934 0.96541 0.0
O693 O 0.52337 0.0172 1.00206 0.0
O694 O 0.50896 0.04625 0.01118 0.0
O695 O 0.47879 0.01465 0.99163 0.0
O696 O 0.53557 0.99877 0.98509 0.0
O697 O 0.47369 0.99362 0.96833 0.0
O698 O 0.49332 0.00947 0.05096 0.0
O699 O 0.48181 0.98509 0.01437 0.0
O700 O 0.49634 0.95607 1.00502 0.0
O701 O 0.5263 0.98736 0.02478 0.0
O702 O 0.46992 0.00418 0.03108 0.0
O703 O 0.53047 0.00713 0.04794 0.0
C704 C 0.54465 0.01863 0.99549 0.0
C705 C 0.48344 0.98264 0.94167 0.0
C706 C 0.48769 0.98361 0.91131 0.0
C707 C 0.49591 0.99686 0.92689 0.0
C708 C 0.46669 0.95608 0.91078 0.0
C709 C 0.46235 0.95529 0.94075 0.0
C710 C 0.45409 0.94212 0.92539 0.0
C711 C 0.49137 0.03929 0.99848 0.0
C712 C 0.49292 0.99635 0.95794 0.0
C713 C 0.42216 0.87305 0.97674 0.0
C714 C 0.40119 0.87909 0.98048 0.0
C715 C 0.46063 0.98404 0.02089 0.0
C716 C 0.52086 0.01701 0.07492 0.0
C717 C 0.51146 1.0004 0.08915 0.0
C718 C 0.51988 0.01176 0.10521 0.0
C719 C 0.53798 0.04 0.10672 0.0
C720 C 0.53898 0.04504 0.07677 0.0
C721 C 0.54745 0.05644 0.09259 0.0
C722 C 0.51394 0.96288 0.01767 0.0
C723 C 0.51137 0.0048 0.05829 0.0
H724 H 0.51226 0.01799 0.92753 0.0
H725 H 0.45974 0.94543 0.899 0.0
H726 H 0.45223 0.94411 0.95187 0.0
H727 H 0.43782 0.92099 0.92481 0.0
H728 H 0.49732 0.97872 0.08772 0.0
H729 H 0.54518 0.04937 0.11882 0.0
H730 H 0.54662 0.05811 0.06602 0.0
H731 H 0.56148 0.07811 0.09391 0.0
Tb732 Tb 0.02536 0.50993 0.99085 0.0
C733 C 0.92194 0.47361 0.03376 0.0
C734 C 0.90981 0.50822 0.02842 0.0
C735 C 0.87365 0.46232 0.03541 0.0
C736 C 0.92978 0.49989 0.02944 0.0
C737 C 0.89395 0.4547 0.03739 0.0
C738 C 0.88158 0.48907 0.0309 0.0
C739 C 0.90886 0.4237 0.04681 0.0
N740 N 0.94226 0.46733 0.03582 0.0
C741 C 0.93636 0.44331 0.04314 0.0
C742 C 0.88747 0.42922 0.04362 0.0
Tb743 Tb 0.98661 0.50019 0.02905 0.0
N744 N 0.9573 0.51776 0.02749 0.0
C745 C 0.9664 0.54495 0.02585 0.0
C746 C 0.91893 0.5357 0.02558 0.0
C747 C 0.9474 0.55422 0.02461 0.0
H748 H 0.95281 0.4389 0.04561 0.0
H749 H 0.95475 0.57564 0.02281 0.0
H750 H 0.86587 0.49497 0.02995 0.0
H751 H 0.90421 0.40437 0.05211 0.0
H752 H 0.98826 0.55964 0.02495 0.0
H753 H 0.06066 0.43703 0.99567 0.0
H754 H 0.90428 0.54294 0.02464 0.0
H755 H 0.05717 0.57229 0.97545 0.0
H756 H 0.02593 0.4517 0.99449 0.0
H757 H 0.10494 0.60753 0.968 0.0
H758 H 0.85195 0.44799 0.03792 0.0
H759 H 0.11072 0.47082 0.993 0.0
H760 H 0.14781 0.5192 0.98729 0.0
H761 H 0.86621 0.41409 0.04659 0.0
H762 H 0.15996 0.56583 0.97962 0.0
N763 N 0.05587 0.49381 0.99175 0.0
C764 C 0.04762 0.4668 0.99325 0.0
C765 C 0.09553 0.47746 0.99251 0.0
C766 C 0.10373 0.50477 0.98979 0.0
C767 C 0.0673 0.45832 0.99396 0.0
C768 C 0.08311 0.5123 0.98937 0.0
H769 H 0.14396 0.5988 0.97193 0.0
N770 N 0.06903 0.54398 0.98381 0.0
C771 C 0.10105 0.58823 0.97294 0.0
C772 C 0.08997 0.53841 0.98521 0.0
C773 C 0.07398 0.56817 0.97715 0.0
C774 C 0.12304 0.58326 0.97523 0.0
C775 C 0.11758 0.55791 0.98116 0.0
O776 O 0.01886 0.51987 0.96665 0.0
O777 O 0.98996 0.50856 1.00277 0.0
O778 O 0.96012 0.46493 0.01347 0.0
O779 O 0.99241 0.46685 0.99387 0.0
O780 O 0.00978 0.53771 0.98523 0.0
O781 O 0.01414 0.48062 0.97193 0.0
O782 O 0.99437 0.48994 0.05284 0.0
O783 O 0.02184 0.50128 0.01707 0.0
O784 O 0.05259 0.54391 1.00728 0.0
O785 O 0.02004 0.54306 0.02609 0.0
O786 O 1.00183 0.47209 0.03462 0.0
O787 O 0.99565 0.52795 0.0487 0.0
C788 C 0.9888 0.52727 0.99509 0.0
C789 C 0.0285 0.49787 0.94487 0.0
C790 C 0.02678 0.49077 0.91478 0.0
C791 C 0.01351 0.4901 0.92986 0.0
C792 C 0.05538 0.4995 0.915 0.0
C793 C 0.0569 0.50625 0.9448 0.0
C794 C 0.07026 0.50713 0.92993 0.0
C795 C 0.96769 0.45421 1.00129 0.0
C796 C 0.01405 0.4967 0.96044 0.0
C797 C 0.13853 0.55105 0.98248 0.0
C798 C 0.13161 0.5245 0.98683 0.0
C799 C 0.0227 0.48232 0.02465 0.0
C800 C 0.98077 0.50748 0.07509 0.0
C801 C 0.99305 0.50798 0.09044 0.0
C802 C 0.97806 0.50336 0.10537 0.0
C803 C 0.95041 0.49789 0.10462 0.0
C804 C 0.95336 0.50245 0.07466 0.0
C805 C 0.93824 0.49753 0.08935 0.0
C806 C 0.04534 0.55503 0.01942 0.0
C807 C 0.99674 0.51174 0.05971 0.0
H808 H 0.99143 0.48316 0.93001 0.0
H809 H 0.06636 0.50072 0.9036 0.0
H810 H 0.06873 0.512 0.95618 0.0
H811 H 0.09224 0.51377 0.92997 0.0
H812 H 0.01443 0.51242 0.09073 0.0
H813 H 0.93811 0.49376 0.11582 0.0
H814 H 0.94365 0.50237 0.06302 0.0
H815 H 0.91701 0.49344 0.08891 0.0
Tb816 Tb 0.50964 0.48525 0.02688 0.0
C817 C 0.46039 0.54184 0.98574 0.0
C818 C 0.4108 0.51069 0.98632 0.0
C819 C 0.42852 0.55932 0.98397 0.0
C820 C 0.43833 0.51571 0.98693 0.0
C821 C 0.45586 0.56398 0.98392 0.0
C822 C 0.40601 0.53269 0.98517 0.0
C823 C 0.50549 0.59324 0.98092 0.0
N824 N 0.48638 0.54538 0.9857 0.0
C825 C 0.50887 0.57056 0.98268 0.0
C826 C 0.47889 0.59 0.98175 0.0
Tb827 Tb 0.49 0.50727 0.98953 0.0
N828 N 0.44393 0.4951 0.98794 0.0
C829 C 0.42268 0.46869 0.98717 0.0
C830 C 0.38898 0.48372 0.9865 0.0
C831 C 0.39498 0.46263 0.98669 0.0
H832 H 0.52955 0.57337 0.98214 0.0
H833 H 0.37827 0.44167 0.98654 0.0
H834 H 0.385 0.52929 0.98484 0.0
H835 H 0.52341 0.6132 0.97896 0.0
H836 H 0.42678 0.45204 0.98739 0.0
H837 H 0.62136 0.55063 0.03048 0.0
H838 H 0.36751 0.47897 0.98611 0.0
H839 H 0.47008 0.41952 0.03517 0.0
H840 H 0.5729 0.54033 0.02935 0.0
H841 H 0.47607 0.37976 0.03916 0.0
H842 H 0.42457 0.57607 0.98273 0.0
H843 H 0.63203 0.51326 0.03093 0.0
H844 H 0.61442 0.46294 0.03233 0.0
H845 H 0.47632 0.60758 0.98035 0.0
H846 H 0.57475 0.41627 0.03479 0.0
N847 N 0.55568 0.49727 0.0286 0.0
C848 C 0.57695 0.52366 0.02958 0.0
C849 C 0.61059 0.50855 0.03041 0.0
C850 C 0.58873 0.4816 0.03049 0.0
C851 C 0.60464 0.52968 0.03021 0.0
C852 C 0.56122 0.47664 0.02969 0.0
H853 H 0.52303 0.38506 0.03766 0.0
N854 N 0.51319 0.44718 0.0311 0.0
C855 C 0.494 0.39956 0.0368 0.0
C856 C 0.53912 0.45058 0.03102 0.0
C857 C 0.4907 0.42221 0.03456 0.0
C858 C 0.52052 0.40262 0.0359 0.0
C859 C 0.54357 0.42846 0.03325 0.0
O860 O 0.48798 0.47106 0.04951 0.0
O861 O 0.4792 0.49217 0.01458 0.0
O862 O 0.49627 0.53645 0.00907 0.0
O863 O 0.52556 0.52965 0.02673 0.0
O864 O 0.46445 0.4588 0.02923 0.0
O865 O 0.52619 0.50941 0.04835 0.0
O866 O 0.51205 0.5217 0.96704 0.0
O867 O 0.52034 0.50027 1.00185 0.0
O868 O 0.50287 0.45551 1.00737 0.0
O869 O 0.47425 0.46307 0.98957 0.0
O870 O 0.53524 0.53367 0.98716 0.0
O871 O 0.47318 0.4839 0.96781 0.0
C872 C 0.45696 0.47259 0.02016 0.0
C873 C 0.51523 0.48587 0.07391 0.0
C874 C 0.51369 0.48569 0.10436 0.0
C875 C 0.5055 0.49102 0.08887 0.0
C876 C 0.53165 0.47493 0.10457 0.0
C877 C 0.53317 0.47524 0.07444 0.0
C878 C 0.54127 0.46976 0.08971 0.0
C879 C 0.51448 0.54428 0.02141 0.0
C880 C 0.50652 0.49186 0.05795 0.0
C881 C 0.57087 0.43302 0.03327 0.0
C882 C 0.59344 0.45958 0.03187 0.0
C883 C 0.54259 0.51985 0.9963 0.0
C884 C 0.48532 0.50807 0.94243 0.0
C885 C 0.49616 0.50405 0.92756 0.0
C886 C 0.48881 0.51015 0.91204 0.0
C887 C 0.47052 0.52054 0.91171 0.0
C888 C 0.46711 0.51838 0.94179 0.0
C889 C 0.45981 0.52461 0.92649 0.0
C890 C 0.48522 0.44828 0.9947 0.0
C891 C 0.49329 0.50133 0.9584 0.0
H892 H 0.4919 0.49956 0.08841 0.0
H893 H 0.53805 0.47021 0.11623 0.0
H894 H 0.54094 0.47122 0.0631 0.0
H895 H 0.55505 0.46146 0.09003 0.0
H896 H 0.50999 0.49577 0.9281 0.0
H897 H 0.46473 0.52582 0.90003 0.0
H898 H 0.45853 0.52156 0.95308 0.0
H899 H 0.44581 0.53265 0.92608 0.0
Tb900 Tb 0.15964 0.31414 0.32668 0.0
C901 C 0.22372 0.41476 0.37145 0.0
C902 C 0.27151 0.42563 0.36877 0.0
C903 C 0.26103 0.46163 0.37436 0.0
C904 C 0.24279 0.40656 0.36854 0.0
C905 C 0.23252 0.44227 0.37481 0.0
C906 C 0.28052 0.45332 0.37132 0.0
C907 C 0.18461 0.42895 0.38023 0.0
N908 N 0.19649 0.39537 0.3719 0.0
C909 C 0.17697 0.4019 0.37687 0.0
C910 C 0.21248 0.4493 0.37898 0.0
Tb911 Tb 0.18567 0.35174 0.36551 0.0
N912 N 0.23315 0.37962 0.36632 0.0
C913 C 0.25146 0.37018 0.36548 0.0
C914 C 0.29026 0.4162 0.36689 0.0
C915 C 0.28018 0.3883 0.36549 0.0
H916 H 0.15535 0.3864 0.37781 0.0
H917 H 0.29449 0.3807 0.36435 0.0
H918 H 0.30248 0.46834 0.37138 0.0
H919 H 0.169 0.43408 0.38377 0.0
H920 H 0.2442 0.34875 0.36429 0.0
H921 H 0.05062 0.28427 0.32453 0.0
H922 H 0.3125 0.43018 0.36693 0.0
H923 H 0.19129 0.27983 0.31632 0.0
H924 H 0.10081 0.31658 0.32563 0.0
H925 H 0.17841 0.23213 0.31104 0.0
H926 H 0.26824 0.48294 0.37674 0.0
H927 H 0.03319 0.23481 0.32275 0.0
H928 H 0.04392 0.19688 0.31975 0.0
H929 H 0.21836 0.47022 0.38165 0.0
H930 H 0.07878 0.18264 0.31589 0.0
N931 N 0.11232 0.28595 0.32491 0.0
C932 C 0.0938 0.29516 0.32475 0.0
C933 C 0.05538 0.24895 0.32321 0.0
C934 C 0.07443 0.23974 0.3223 0.0
C935 C 0.06514 0.27684 0.32416 0.0
C936 C 0.10307 0.25902 0.32303 0.0
H937 H 0.12904 0.19573 0.31231 0.0
N938 N 0.14968 0.27059 0.32089 0.0
C939 C 0.16246 0.23715 0.31387 0.0
C940 C 0.12248 0.25103 0.32088 0.0
C941 C 0.16967 0.2642 0.31681 0.0
C942 C 0.13458 0.21665 0.31464 0.0
C943 C 0.11412 0.22351 0.31793 0.0
O944 O 0.18038 0.32034 0.30375 0.0
O945 O 0.19339 0.34761 0.33972 0.0
O946 O 0.18128 0.37887 0.34811 0.0
O947 O 0.14976 0.34714 0.32903 0.0
O948 O 0.20377 0.32696 0.32337 0.0
O949 O 0.14543 0.32661 0.30606 0.0
O950 O 0.16464 0.34395 0.38846 0.0
O951 O 0.15158 0.31873 0.35235 0.0
O952 O 0.16173 0.28661 0.34479 0.0
O953 O 0.19513 0.31847 0.36282 0.0
O954 O 0.14197 0.33992 0.36896 0.0
O955 O 0.20097 0.34011 0.38602 0.0
C956 C 0.21399 0.34761 0.3332 0.0
C957 C 0.15377 0.31386 0.27953 0.0
C958 C 0.15551 0.3177 0.24909 0.0
C959 C 0.16467 0.32952 0.265 0.0
C960 C 0.1354 0.28985 0.24808 0.0
C961 C 0.13367 0.28625 0.27815 0.0
C962 C 0.1246 0.27435 0.26249 0.0
C963 C 0.16312 0.37191 0.33573 0.0
C964 C 0.1638 0.32658 0.29598 0.0
C965 C 0.08566 0.20395 0.31796 0.0
C966 C 0.06582 0.21206 0.32016 0.0
C967 C 0.13143 0.31982 0.35872 0.0
C968 C 0.19205 0.35253 0.4125 0.0
C969 C 0.17994 0.33805 0.42729 0.0
C970 C 0.18825 0.35113 0.44292 0.0
C971 C 0.20905 0.37874 0.44349 0.0
C972 C 0.21287 0.37996 0.41346 0.0
C973 C 0.2213 0.39294 0.42887 0.0
C974 C 0.18045 0.29337 0.35676 0.0
C975 C 0.18222 0.33908 0.39619 0.0
H976 H 0.18 0.35094 0.26612 0.0
H977 H 0.12821 0.2799 0.23613 0.0
H978 H 0.12504 0.27391 0.28913 0.0
H979 H 0.10918 0.25297 0.26152 0.0
H980 H 0.16373 0.31687 0.42661 0.0
H981 H 0.21608 0.38928 0.4553 0.0
H982 H 0.22256 0.39137 0.40231 0.0
H983 H 0.23738 0.41414 0.42949 0.0
Tb984 Tb 0.69901 0.84527 0.31793 0.0
C985 C 0.58995 0.80582 0.35687 0.0
C986 C 0.57862 0.8412 0.35243 0.0
C987 C 0.54165 0.79473 0.35722 0.0
C988 C 0.59834 0.83255 0.35354 0.0
C989 C 0.56161 0.78672 0.35938 0.0
C990 C 0.55016 0.82197 0.35371 0.0
C991 C 0.57536 0.75455 0.36821 0.0
N992 N 0.60993 0.79913 0.3591 0.0
C993 C 0.60321 0.77428 0.3655 0.0
C994 C 0.55441 0.7606 0.36478 0.0
Tb995 Tb 0.65494 0.83245 0.35427 0.0
N996 N 0.62603 0.85044 0.35269 0.0
C997 C 0.63544 0.87779 0.35224 0.0
C998 C 0.58818 0.869 0.35073 0.0
C999 C 0.61673 0.88741 0.35096 0.0
H1000 H 0.61923 0.76932 0.36803 0.0
H1001 H 0.62437 0.90903 0.35008 0.0
H1002 H 0.53466 0.82813 0.35263 0.0
H1003 H 0.57009 0.73466 0.37283 0.0
H1004 H 0.65739 0.8924 0.35229 0.0
H1005 H 0.72442 0.765 0.32253 0.0
H1006 H 0.57374 0.87649 0.34976 0.0
H1007 H 0.73793 0.90836 0.30478 0.0
H1008 H 0.69334 0.78379 0.31986 0.0
H1009 H 0.78793 0.94184 0.30157 0.0
H1010 H 0.51972 0.78028 0.35886 0.0
H1011 H 0.77537 0.79572 0.32377 0.0
H1012 H 0.81612 0.84338 0.32184 0.0
H1013 H 0.53288 0.74532 0.36691 0.0
H1014 H 0.83359 0.89193 0.31625 0.0
N1015 N 0.7261 0.82525 0.31994 0.0
C1016 C 0.71545 0.79766 0.32027 0.0
C1017 C 0.76179 0.80418 0.32256 0.0
C1018 C 0.77266 0.83224 0.32113 0.0
C1019 C 0.73306 0.7868 0.3218 0.0
C1020 C 0.75403 0.84217 0.31968 0.0
H1021 H 0.82318 0.92884 0.30831 0.0
N1022 N 0.74489 0.87721 0.31406 0.0
C1023 C 0.78146 0.92155 0.30599 0.0
C1024 C 0.76382 0.86927 0.31671 0.0
C1025 C 0.75317 0.90253 0.30781 0.0
C1026 C 0.80129 0.91417 0.30987 0.0
C1027 C 0.79255 0.88751 0.3149 0.0
O1028 O 0.69648 0.85946 0.29417 0.0
O1029 O 0.66281 0.8444 0.32844 0.0
O1030 O 0.62941 0.80012 0.33645 0.0
O1031 O 0.66392 0.80297 0.31837 0.0
O1032 O 0.68676 0.87553 0.31256 0.0
O1033 O 0.69064 0.81934 0.29737 0.0
O1034 O 0.65921 0.81965 0.3781 0.0
O1035 O 0.69104 0.83365 0.34361 0.0
O1036 O 0.72371 0.878 0.33554 0.0
O1037 O 0.68902 0.87526 0.35348 0.0
O1038 O 0.66842 0.80292 0.35975 0.0
O1039 O 0.66363 0.85916 0.37448 0.0
C1040 C 0.66444 0.86494 0.32134 0.0
C1041 C 0.70959 0.84135 0.2719 0.0
C1042 C 0.71321 0.84209 0.24163 0.0
C1043 C 0.69754 0.83832 0.25615 0.0
C1044 C 0.74127 0.84919 0.24312 0.0
C1045 C 0.73749 0.84807 0.27317 0.0
C1046 C 0.75326 0.85209 0.25882 0.0
C1047 C 0.63801 0.79054 0.32413 0.0
C1048 C 0.69261 0.83747 0.28675 0.0
C1049 C 0.81139 0.87818 0.31736 0.0
C1050 C 0.80144 0.85054 0.32051 0.0
C1051 C 0.69056 0.8138 0.35082 0.0
C1052 C 0.64726 0.83837 0.40063 0.0
C1053 C 0.66117 0.84435 0.41598 0.0
C1054 C 0.64659 0.84069 0.43096 0.0
C1055 C 0.6178 0.8309 0.43033 0.0
C1056 C 0.61863 0.82892 0.40023 0.0
C1057 C 0.60399 0.82515 0.41504 0.0
C1058 C 0.71478 0.88786 0.3475 0.0
C1059 C 0.66305 0.84184 0.38527 0.0
H1060 H 0.676 0.83325 0.25522 0.0
H1061 H 0.75378 0.85201 0.23216 0.0
H1062 H 0.74705 0.85013 0.28516 0.0
H1063 H 0.7748 0.8573 0.25988 0.0
H1064 H 0.6833 0.85152 0.41625 0.0
H1065 H 0.60607 0.8281 0.44164 0.0
H1066 H 0.6076 0.82448 0.38855 0.0
H1067 H 0.58187 0.81782 0.41466 0.0
Tb1068 Tb 0.1795 0.83007 0.35593 0.0
C1069 C 0.09505 0.82929 0.31529 0.0
C1070 C 0.07367 0.79476 0.29394 0.0
C1071 C 0.04585 0.8098 0.30902 0.0
C1072 C 0.09693 0.8124 0.30371 0.0
C1073 C 0.0696 0.82861 0.31788 0.0
C1074 C 0.0479 0.79292 0.29702 0.0
C1075 C 0.09348 0.86644 0.33684 0.0
N1076 N 0.11854 0.84732 0.32345 0.0
C1077 C 0.11823 0.86633 0.33381 0.0
C1078 C 0.06896 0.84726 0.32901 0.0
Tb1079 Tb 0.1581 0.84573 0.31741 0.0
N1080 N 0.12222 0.81507 0.301 0.0
C1081 C 0.12651 0.80364 0.2871 0.0
C1082 C 0.0774 0.78065 0.28081 0.0
C1083 C 0.10411 0.78563 0.27713 0.0
H1084 H 0.13678 0.88122 0.34007 0.0
H1085 H 0.10754 0.77595 0.26649 0.0
H1086 H 0.02968 0.77923 0.2898 0.0
H1087 H 0.09332 0.88122 0.3453 0.0
H1088 H 0.14729 0.80828 0.28386 0.0
H1089 H 0.28806 0.90743 0.35426 0.0
H1090 H 0.06011 0.76698 0.27296 0.0
H1091 H 0.1499 0.76605 0.36821 0.0
H1092 H 0.23758 0.88995 0.35465 0.0
H1093 H 0.16335 0.73099 0.37217 0.0
H1094 H 0.02603 0.80873 0.31098 0.0
H1095 H 0.30604 0.87543 0.35487 0.0
H1096 H 0.29596 0.82705 0.35711 0.0
H1097 H 0.04982 0.84735 0.33142 0.0
H1098 H 0.26176 0.77862 0.36165 0.0
N1099 N 0.22677 0.84831 0.35546 0.0
C1100 C 0.24501 0.8757 0.3551 0.0
C1101 C 0.28381 0.86762 0.35516 0.0
C1102 C 0.26506 0.83968 0.35628 0.0
C1103 C 0.27374 0.88574 0.35487 0.0
C1104 C 0.23637 0.83065 0.35658 0.0
H1105 H 0.21213 0.74256 0.36756 0.0
N1106 N 0.19021 0.7965 0.36035 0.0
C1107 C 0.17872 0.75129 0.36829 0.0
C1108 C 0.21731 0.80362 0.35895 0.0
C1109 C 0.17117 0.77116 0.36602 0.0
C1110 C 0.20625 0.75787 0.36563 0.0
C1111 C 0.22612 0.78454 0.36133 0.0
O1112 O 0.15729 0.81595 0.37847 0.0
O1113 O 0.14779 0.83509 0.34331 0.0
O1114 O 0.18007 0.88424 0.33128 0.0
O1115 O 0.18708 0.87155 0.35759 0.0
O1116 O 0.13538 0.80047 0.35723 0.0
O1117 O 0.19721 0.85205 0.37803 0.0
O1118 O 0.15877 0.87903 0.30545 0.0
O1119 O 0.19298 0.84982 0.33197 0.0
O1120 O 0.1694 0.7963 0.33864 0.0
O1121 O 0.14281 0.80168 0.31775 0.0
O1122 O 0.18899 0.83674 0.30754 0.0
O1123 O 0.1794 0.85951 0.29461 0.0
C1124 C 0.1266 0.81333 0.34826 0.0
C1125 C 0.18396 0.82714 0.40309 0.0
C1126 C 0.18089 0.82442 0.43348 0.0
C1127 C 0.17379 0.83141 0.41816 0.0
C1128 C 0.19797 0.81267 0.4334 0.0
C1129 C 0.20122 0.81573 0.40335 0.0
C1130 C 0.20802 0.80839 0.41843 0.0
C1131 C 0.18774 0.88967 0.34707 0.0
C1132 C 0.17669 0.83523 0.38733 0.0
C1133 C 0.25455 0.79302 0.36009 0.0
C1134 C 0.27402 0.82059 0.35756 0.0
C1135 C 0.20406 0.84262 0.32069 0.0
C1136 C 0.15604 0.87342 0.27595 0.0
C1137 C 0.16275 0.86329 0.26163 0.0
C1138 C 0.14803 0.85922 0.24658 0.0
C1139 C 0.12693 0.86602 0.24597 0.0
C1140 C 0.13487 0.88004 0.27486 0.0
C1141 C 0.12051 0.87637 0.25997 0.0
C1142 C 0.15254 0.78752 0.32554 0.0
C1143 C 0.17038 0.87627 0.29208 0.0
H1144 H 0.16088 0.84072 0.41795 0.0
H1145 H 0.20348 0.80666 0.44491 0.0
H1146 H 0.2096 0.81265 0.39196 0.0
H1147 H 0.22124 0.79945 0.41853 0.0
H1148 H 0.17889 0.85792 0.26231 0.0
H1149 H 0.11551 0.86361 0.23457 0.0
H1150 H 0.12921 0.88789 0.28554 0.0
H1151 H 0.10423 0.88152 0.25929 0.0
Tb1152 Tb 0.8299 0.65785 0.65585 0.0
C1153 C 0.89078 0.75573 0.70351 0.0
C1154 C 0.93909 0.76843 0.70074 0.0
C1155 C 0.9269 0.80263 0.70825 0.0
C1156 C 0.91058 0.74874 0.69993 0.0
C1157 C 0.89861 0.78256 0.7082 0.0
C1158 C 0.94713 0.79558 0.70448 0.0
C1159 C 0.85031 0.76695 0.71413 0.0
N1160 N 0.8638 0.73566 0.7035 0.0
C1161 C 0.84362 0.74065 0.70932 0.0
C1162 C 0.87788 0.78811 0.7133 0.0
Tb1163 Tb 0.85463 0.69324 0.69536 0.0
N1164 N 0.90187 0.72222 0.69672 0.0
C1165 C 0.92088 0.71367 0.69556 0.0
C1166 C 0.9586 0.76003 0.69838 0.0
C1167 C 0.94943 0.73245 0.69604 0.0
H1168 H 0.82222 0.72453 0.70994 0.0
H1169 H 0.96432 0.72562 0.69459 0.0
H1170 H 0.96892 0.81107 0.705 0.0
H1171 H 0.83419 0.77089 0.7184 0.0
H1172 H 0.91431 0.69249 0.69371 0.0
H1173 H 0.721 0.62866 0.65587 0.0
H1174 H 0.9807 0.77451 0.69883 0.0
H1175 H 0.86092 0.6238 0.64374 0.0
H1176 H 0.77128 0.66073 0.65666 0.0
H1177 H 0.84758 0.57628 0.63729 0.0
H1178 H 0.93338 0.82345 0.71164 0.0
H1179 H 0.70325 0.57931 0.6527 0.0
H1180 H 0.71357 0.54139 0.64806 0.0
H1181 H 0.88303 0.80845 0.71706 0.0
H1182 H 0.74808 0.52707 0.64295 0.0
N1183 N 0.7825 0.63 0.65445 0.0
C1184 C 0.76411 0.63935 0.65522 0.0
C1185 C 0.72547 0.59333 0.65306 0.0
C1186 C 0.74435 0.58403 0.65128 0.0
C1187 C 0.73542 0.62117 0.6548 0.0
C1188 C 0.77304 0.60314 0.65194 0.0
H1189 H 0.79816 0.54002 0.63865 0.0
N1190 N 0.81954 0.61449 0.64917 0.0
C1191 C 0.83182 0.58126 0.6407 0.0
C1192 C 0.79228 0.59507 0.64918 0.0
C1193 C 0.83928 0.60819 0.64433 0.0
C1194 C 0.80391 0.56084 0.64152 0.0
C1195 C 0.78366 0.56769 0.64554 0.0
O1196 O 0.85126 0.66567 0.63304 0.0
O1197 O 0.86324 0.69106 0.66938 0.0
O1198 O 0.85016 0.72154 0.67891 0.0
O1199 O 0.82037 0.69103 0.6587 0.0
O1200 O 0.87395 0.67078 0.65276 0.0
O1201 O 0.81481 0.66948 0.6353 0.0
O1202 O 0.83343 0.68332 0.71831 0.0
O1203 O 0.82134 0.66056 0.68164 0.0
O1204 O 0.83317 0.62989 0.67295 0.0
O1205 O 0.86533 0.66089 0.6919 0.0
O1206 O 0.81036 0.67972 0.69873 0.0
O1207 O 0.87033 0.68057 0.71513 0.0
C1208 C 0.8839 0.69105 0.66289 0.0
C1209 C 0.82421 0.65748 0.60886 0.0
C1210 C 0.82681 0.66055 0.57845 0.0
C1211 C 0.83546 0.6728 0.59428 0.0
C1212 C 0.80696 0.63262 0.57755 0.0
C1213 C 0.80425 0.6298 0.60761 0.0
C1214 C 0.79578 0.61746 0.59203 0.0
C1215 C 0.83308 0.71536 0.66599 0.0
C1216 C 0.83375 0.67061 0.62525 0.0
C1217 C 0.75516 0.54828 0.64555 0.0
C1218 C 0.73552 0.55644 0.64845 0.0
C1219 C 0.80048 0.65997 0.68823 0.0
C1220 C 0.86056 0.68976 0.74227 0.0
C1221 C 0.8502 0.67282 0.75633 0.0
C1222 C 0.85826 0.68368 0.77252 0.0
C1223 C 0.87697 0.71174 0.77435 0.0
C1224 C 0.87931 0.71761 0.74443 0.0
C1225 C 0.88743 0.7285 0.7604 0.0
C1226 C 0.85135 0.63619 0.68519 0.0
C1227 C 0.85122 0.67814 0.72551 0.0
H1228 H 0.8506 0.69429 0.59529 0.0
H1229 H 0.8002 0.62236 0.56565 0.0
H1230 H 0.79522 0.61774 0.61862 0.0
H1231 H 0.78049 0.59602 0.59116 0.0
H1232 H 0.83558 0.6513 0.75466 0.0
H1233 H 0.88386 0.72069 0.78658 0.0
H1234 H 0.88766 0.73092 0.73382 0.0
H1235 H 0.90193 0.75002 0.76197 0.0
Tb1236 Tb 0.35864 0.17062 0.66281 0.0
C1237 C 0.28488 0.1944 0.70454 0.0
C1238 C 0.30958 0.22995 0.72489 0.0
C1239 C 0.26772 0.22491 0.71197 0.0
C1240 C 0.3069 0.20798 0.71525 0.0
C1241 C 0.26445 0.2021 0.70314 0.0
C1242 C 0.29028 0.23884 0.72286 0.0
C1243 C 0.2374 0.16208 0.68633 0.0
N1244 N 0.28236 0.17227 0.6965 0.0
C1245 C 0.25826 0.15533 0.68815 0.0
C1246 C 0.24079 0.18593 0.69353 0.0
Tb1247 Tb 0.31799 0.16304 0.6997 0.0
N1248 N 0.32496 0.19864 0.71682 0.0
C1249 C 0.34471 0.20887 0.72916 0.0
C1250 C 0.33099 0.24171 0.73666 0.0
C1251 C 0.34834 0.2308 0.73898 0.0
H1252 H 0.25512 0.13673 0.68254 0.0
H1253 H 0.36451 0.23926 0.74836 0.0
H1254 H 0.29214 0.25588 0.73001 0.0
H1255 H 0.21876 0.14891 0.6793 0.0
H1256 H 0.35831 0.20076 0.73126 0.0
H1257 H 0.40244 0.10511 0.67044 0.0
H1258 H 0.33379 0.25863 0.74432 0.0
H1259 H 0.38821 0.23392 0.64821 0.0
H1260 H 0.36495 0.11583 0.66762 0.0
H1261 H 0.43544 0.27269 0.64409 0.0
H1262 H 0.25244 0.23136 0.71091 0.0
H1263 H 0.45162 0.14196 0.66977 0.0
H1264 H 0.48622 0.19174 0.66598 0.0
H1265 H 0.22461 0.19112 0.69211 0.0
H1266 H 0.49527 0.2377 0.65902 0.0
N1267 N 0.39231 0.15864 0.66552 0.0
C1268 C 0.38621 0.13224 0.66719 0.0
C1269 C 0.4352 0.14683 0.66843 0.0
C1270 C 0.44136 0.17363 0.66594 0.0
C1271 C 0.40748 0.12599 0.66878 0.0
C1272 C 0.41917 0.17882 0.66434 0.0
H1273 H 0.4764 0.26805 0.65058 0.0
N1274 N 0.40199 0.20766 0.65779 0.0
C1275 C 0.4326 0.25363 0.64881 0.0
C1276 C 0.42423 0.20439 0.6604 0.0
C1277 C 0.40579 0.23152 0.65115 0.0
C1278 C 0.45567 0.25097 0.65252 0.0
C1279 C 0.45165 0.22591 0.65801 0.0
O1280 O 0.3492 0.17707 0.63837 0.0
O1281 O 0.32128 0.16802 0.67312 0.0
O1282 O 0.29413 0.12914 0.68232 0.0
O1283 O 0.32866 0.12718 0.66734 0.0
O1284 O 0.34228 0.19711 0.65568 0.0
O1285 O 0.35421 0.14304 0.64384 0.0
O1286 O 0.28041 0.13189 0.7097 0.0
O1287 O 0.3484 0.15515 0.68772 0.0
O1288 O 0.38233 0.20582 0.67949 0.0
O1289 O 0.3473 0.20641 0.69547 0.0
O1290 O 0.35526 0.16774 0.712 0.0
O1291 O 0.31914 0.14231 0.72115 0.0
C1292 C 0.32083 0.18688 0.66512 0.0
C1293 C 0.36726 0.16201 0.61707 0.0
C1294 C 0.37006 0.16046 0.58675 0.0
C1295 C 0.35425 0.15552 0.60139 0.0
C1296 C 0.39911 0.17226 0.5881 0.0
C1297 C 0.3962 0.17357 0.61809 0.0
C1298 C 0.41201 0.17873 0.60367 0.0
C1299 C 0.30259 0.11584 0.6726 0.0
C1300 C 0.3504 0.1566 0.6322 0.0
C1301 C 0.47401 0.22137 0.66058 0.0
C1302 C 0.46886 0.19521 0.66452 0.0
C1303 C 0.36537 0.16132 0.69965 0.0
C1304 C 0.28094 0.13015 0.73917 0.0
C1305 C 0.29779 0.13808 0.75355 0.0
C1306 C 0.28686 0.13901 0.76922 0.0
C1307 C 0.25875 0.1319 0.77029 0.0
C1308 C 0.2529 0.12305 0.74065 0.0
C1309 C 0.24198 0.12404 0.7561 0.0
C1310 C 0.37299 0.21822 0.68945 0.0
C1311 C 0.29234 0.12887 0.72273 0.0
H1312 H 0.33183 0.14626 0.60064 0.0
H1313 H 0.41192 0.17674 0.5771 0.0
H1314 H 0.40658 0.17852 0.63 0.0
H1315 H 0.43436 0.18778 0.60456 0.0
H1316 H 0.31948 0.14375 0.75254 0.0
H1317 H 0.24951 0.13191 0.78216 0.0
H1318 H 0.23936 0.11668 0.72987 0.0
H1319 H 0.22034 0.11847 0.75711 0.0
Tb1320 Tb 0.8582 0.16367 0.69721 0.0
C1321 C 0.79463 0.20509 0.6555 0.0
C1322 C 0.74659 0.16947 0.65767 0.0
C1323 C 0.75789 0.21636 0.65386 0.0
C1324 C 0.77521 0.1781 0.65766 0.0
C1325 C 0.78628 0.22455 0.65319 0.0
C1326 C 0.73805 0.18884 0.65611 0.0
C1327 C 0.83441 0.25809 0.64828 0.0
N1328 N 0.82175 0.21204 0.65482 0.0
C1329 C 0.84158 0.23797 0.65056 0.0
C1330 C 0.80667 0.25144 0.64982 0.0
Tb1331 Tb 0.83178 0.17806 0.65958 0.0
N1332 N 0.7844 0.16013 0.65909 0.0
C1333 C 0.76572 0.13279 0.65934 0.0
C1334 C 0.72747 0.14164 0.65887 0.0
C1335 C 0.73709 0.1232 0.65947 0.0
H1336 H 0.86311 0.24339 0.64944 0.0
H1337 H 0.72247 0.10158 0.66012 0.0
H1338 H 0.71617 0.18266 0.65626 0.0
H1339 H 0.85028 0.27871 0.64535 0.0
H1340 H 0.7726 0.11813 0.65993 0.0
H1341 H 0.96875 0.23568 0.69649 0.0
H1342 H 0.70529 0.13416 0.659 0.0
H1343 H 0.82402 0.09906 0.70892 0.0
H1344 H 0.91914 0.22166 0.69701 0.0
H1345 H 0.83437 0.06237 0.71438 0.0
H1346 H 0.75103 0.23102 0.65227 0.0
H1347 H 0.98328 0.20104 0.69731 0.0
H1348 H 0.96968 0.15181 0.7005 0.0
H1349 H 0.80114 0.26704 0.64799 0.0
H1350 H 0.93299 0.10447 0.70566 0.0
N1351 N 0.90514 0.17918 0.69748 0.0
C1352 C 0.92494 0.20618 0.69741 0.0
C1353 C 0.96136 0.1947 0.69749 0.0
C1354 C 0.94109 0.16722 0.69881 0.0
C1355 C 0.95324 0.2143 0.6971 0.0
C1356 C 0.91287 0.16011 0.69889 0.0
H1357 H 0.88247 0.07102 0.71136 0.0
N1358 N 0.86579 0.12829 0.70262 0.0
C1359 C 0.85089 0.0823 0.71073 0.0
C1360 C 0.89242 0.13365 0.70169 0.0
C1361 C 0.84512 0.10321 0.70764 0.0
C1362 C 0.87805 0.08724 0.70896 0.0
C1363 C 0.89932 0.11329 0.70461 0.0
O1364 O 0.83918 0.15109 0.7207 0.0
O1365 O 0.82466 0.16564 0.68513 0.0
O1366 O 0.83757 0.20889 0.67804 0.0
O1367 O 0.87022 0.20696 0.69543 0.0
O1368 O 0.81367 0.13492 0.70145 0.0
O1369 O 0.8755 0.19051 0.71753 0.0
O1370 O 0.85186 0.19221 0.63653 0.0
O1371 O 0.86577 0.17646 0.67152 0.0
O1372 O 0.85342 0.13316 0.67889 0.0
O1373 O 0.82141 0.13503 0.6609 0.0
O1374 O 0.87561 0.20823 0.65587 0.0
O1375 O 0.81571 0.15238 0.63865 0.0
C1376 C 0.8038 0.14603 0.69182 0.0
C1377 C 0.86899 0.16979 0.74385 0.0
C1378 C 0.87165 0.17298 0.77424 0.0
C1379 C 0.86059 0.17577 0.75906 0.0
C1380 C 0.89086 0.16371 0.77392 0.0
C1381 C 0.88827 0.16075 0.74387 0.0
C1382 C 0.89904 0.15763 0.75884 0.0
C1383 C 0.85678 0.21922 0.68988 0.0
C1384 C 0.85762 0.17328 0.7281 0.0
C1385 C 0.92725 0.11987 0.70366 0.0
C1386 C 0.94813 0.14682 0.70071 0.0
C1387 C 0.88606 0.19721 0.66512 0.0
C1388 C 0.82425 0.17414 0.61252 0.0
C1389 C 0.83322 0.16743 0.59783 0.0
C1390 C 0.82481 0.17172 0.58214 0.0
C1391 C 0.80717 0.18281 0.58141 0.0
C1392 C 0.80655 0.18501 0.61154 0.0
C1393 C 0.79809 0.18932 0.59603 0.0
C1394 C 0.83505 0.12303 0.6666 0.0
C1395 C 0.83424 0.17023 0.62863 0.0
H1396 H 0.84593 0.18308 0.75903 0.0
H1397 H 0.89946 0.16099 0.78537 0.0
H1398 H 0.89509 0.1562 0.73236 0.0
H1399 H 0.91386 0.15054 0.75876 0.0
H1400 H 0.84713 0.15927 0.59864 0.0
H1401 H 0.80008 0.18609 0.56955 0.0
H1402 H 0.79938 0.19024 0.6227 0.0
H1403 H 0.78441 0.19772 0.59534 0.0
H1404 H 0.36116 0.87212 0.04638 0.0
H1405 H 0.32701 0.92434 0.05595 0.0
H1406 H 0.36687 0.96215 0.04246 0.0
H1407 H 0.41318 0.9816 0.03006 0.0
H1408 H 0.44901 0.93074 0.02141 0.0
H1409 H 0.40676 0.8912 0.03196 0.0
C1410 C 0.36231 0.89168 0.04527 0.0
C1411 C 0.34127 0.89547 0.0524 0.0
C1412 C 0.38563 0.91362 0.03762 0.0
C1413 C 0.34312 0.92099 0.05089 0.0
C1414 C 0.36587 0.94262 0.04311 0.0
C1415 C 0.41151 0.96173 0.03026 0.0
C1416 C 0.43399 0.95903 0.02473 0.0
C1417 C 0.38752 0.93935 0.03678 0.0
C1418 C 0.43179 0.93329 0.02525 0.0
C1419 C 0.40769 0.91071 0.03145 0.0
H1420 H 0.13829 0.49566 0.04702 0.0
H1421 H 0.08501 0.40993 0.05632 0.0
H1422 H 0.04528 0.4118 0.04499 0.0
H1423 H 0.02484 0.43818 0.03412 0.0
H1424 H 0.07708 0.52413 0.02562 0.0
H1425 H 0.1179 0.52188 0.03475 0.0
C1426 C 0.11805 0.47736 0.04632 0.0
C1427 C 0.11457 0.45273 0.05265 0.0
C1428 C 0.09504 0.47866 0.03999 0.0
C1429 C 0.08817 0.4292 0.05175 0.0
C1430 C 0.06543 0.43024 0.04526 0.0
C1431 C 0.04525 0.45634 0.03413 0.0
C1432 C 0.04804 0.48112 0.02884 0.0
C1433 C 0.06848 0.45492 0.03965 0.0
C1434 C 0.07447 0.50465 0.0292 0.0
C1435 C 0.09781 0.50339 0.03455 0.0
H1436 H 0.56263 0.65339 0.06264 0.0
H1437 H 0.49408 0.65531 0.0387 0.0
H1438 H 0.48188 0.6131 0.02395 0.0
H1439 H 0.48968 0.57496 0.01862 0.0
H1440 H 0.55755 0.57247 0.04311 0.0
H1441 H 0.57054 0.61532 0.05721 0.0
C1442 C 0.54483 0.64445 0.05434 0.0
C1443 C 0.52926 0.6575 0.05185 0.0
C1444 C 0.53769 0.62001 0.04607 0.0
C1445 C 0.50663 0.64589 0.04074 0.0
C1446 C 0.49951 0.62165 0.03238 0.0
C1447 C 0.5075 0.58388 0.0269 0.0
C1448 C 0.52271 0.57054 0.0297 0.0
C1449 C 0.51482 0.60848 0.03501 0.0
C1450 C 0.54545 0.58224 0.04071 0.0
C1451 C 0.55293 0.60678 0.04878 0.0
H1452 H 0.87432 0.33312 0.98561 0.0
H1453 H 0.89397 0.36376 0.93538 0.0
H1454 H 0.92935 0.40806 0.94581 0.0
H1455 H 0.95487 0.43851 0.96919 0.0
H1456 H 0.93443 0.40865 0.01937 0.0
H1457 H 0.89901 0.36403 0.00907 0.0
C1458 C 0.88608 0.34954 0.97694 0.0
C1459 C 0.88154 0.34482 0.95969 0.0
C1460 C 0.90628 0.37526 0.98304 0.0
C1461 C 0.89731 0.36645 0.94869 0.0
C1462 C 0.9175 0.39194 0.95465 0.0
C1463 C 0.94272 0.42214 0.97784 0.0
C1464 C 0.94701 0.42692 0.99504 0.0
C1465 C 0.92229 0.39656 0.97178 0.0
C1466 C 0.93101 0.40568 1.00612 0.0
C1467 C 0.91091 0.38006 1.0002 0.0
H1468 H 0.64217 0.5038 0.97252 0.0
H1469 H 0.68185 0.5912 0.96953 0.0
H1470 H 0.64088 0.58982 0.98161 0.0
H1471 H 0.59245 0.56377 0.99088 0.0
H1472 H 0.55122 0.47632 0.9927 0.0
H1473 H 0.59391 0.47761 0.98356 0.0
C1474 C 0.64193 0.52251 0.97478 0.0
C1475 C 0.66495 0.54757 0.96999 0.0
C1476 C 0.61793 0.52153 0.9815 0.0
C1477 C 0.66429 0.57165 0.9729 0.0
C1478 C 0.64087 0.57089 0.97983 0.0
C1479 C 0.59298 0.54503 0.98948 0.0
C1480 C 0.56889 0.52006 0.99278 0.0
C1481 C 0.61737 0.54595 0.98382 0.0
C1482 C 0.56965 0.49586 0.99065 0.0
C1483 C 0.59404 0.4966 0.98527 0.0
H1484 H 0.47706 0.13788 0.97536 0.0
H1485 H 0.4385 0.08385 0.93344 0.0
H1486 H 0.44595 0.0496 0.94666 0.0
H1487 H 0.46366 0.03502 0.96976 0.0
H1488 H 0.50753 0.09075 0.01001 0.0
H1489 H 0.498 0.12441 0.99764 0.0
C1490 C 0.47064 0.11884 0.96893 0.0
C1491 C 0.45688 0.11356 0.95343 0.0
C1492 C 0.47582 0.09942 0.97633 0.0
C1493 C 0.44843 0.08842 0.94554 0.0
C1494 C 0.4529 0.06881 0.95303 0.0
C1495 C 0.47112 0.05444 0.97594 0.0
C1496 C 0.48573 0.05996 0.99109 0.0
C1497 C 0.46649 0.07407 0.96842 0.0
C1498 C 0.49562 0.08556 0.99862 0.0
C1499 C 0.49036 0.10495 0.99145 0.0
H1500 H 0.64536 0.13255 0.97365 0.0
H1501 H 0.68118 0.08177 0.96406 0.0
H1502 H 0.64032 0.04269 0.97589 0.0
H1503 H 0.59285 0.02193 0.98688 0.0
H1504 H 0.55579 0.0717 0.99558 0.0
H1505 H 0.59859 0.11209 0.98658 0.0
C1506 C 0.64437 0.11303 0.97441 0.0
C1507 C 0.66619 0.11005 0.96777 0.0
C1508 C 0.6205 0.09039 0.98108 0.0
C1509 C 0.6645 0.08454 0.96879 0.0
C1510 C 0.64116 0.06217 0.9756 0.0
C1511 C 0.59435 0.04173 0.98701 0.0
C1512 C 0.57137 0.04387 0.99217 0.0
C1513 C 0.61879 0.0647 0.98143 0.0
C1514 C 0.57336 0.06954 0.99205 0.0
C1515 C 0.5978 0.09264 0.98674 0.0
H1516 H 0.87154 0.50894 0.97185 0.0
H1517 H 0.92239 0.59452 0.96119 0.0
H1518 H 0.96308 0.59458 0.97264 0.0
H1519 H 0.98496 0.57003 0.98439 0.0
H1520 H 0.93515 0.4842 0.99416 0.0
H1521 H 0.89348 0.48445 0.98454 0.0
C1522 C 0.89147 0.52762 0.97224 0.0
C1523 C 0.89394 0.55165 0.96555 0.0
C1524 C 0.91504 0.52744 0.97866 0.0
C1525 C 0.91998 0.57568 0.96604 0.0
C1526 C 0.94328 0.57576 0.97262 0.0
C1527 C 0.96489 0.55145 0.98453 0.0
C1528 C 0.96301 0.52731 0.99038 0.0
C1529 C 0.94116 0.55171 0.97872 0.0
C1530 C 0.93704 0.50322 0.99017 0.0
C1531 C 0.91322 0.50333 0.98455 0.0
H1532 H 0.44563 0.34823 0.94616 0.0
H1533 H 0.48796 0.32591 0.98251 0.0
H1534 H 0.50108 0.36753 0.99806 0.0
H1535 H 0.50041 0.41026 1.0014 0.0
H1536 H 0.45313 0.42917 0.96674 0.0
H1537 H 0.4418 0.38862 0.95069 0.0
C1538 C 0.45724 0.35199 0.95764 0.0
C1539 C 0.46577 0.3337 0.96299 0.0
C1540 C 0.46384 0.37543 0.96692 0.0
C1541 C 0.48152 0.3397 0.97775 0.0
C1542 C 0.48884 0.36344 0.9868 0.0
C1543 C 0.48723 0.40533 0.99053 0.0
C1544 C 0.47755 0.42282 0.98546 0.0
C1545 C 0.48009 0.38145 0.98151 0.0
C1546 C 0.46094 0.41622 0.97106 0.0
C1547 C 0.4544 0.39295 0.96181 0.0
H1548 H 0.14691 0.66997 0.03983 0.0
H1549 H 0.09317 0.65702 0.08193 0.0
H1550 H 0.05772 0.61449 0.06979 0.0
H1551 H 0.04178 0.58033 0.04753 0.0
H1552 H 0.09792 0.58978 1.00769 0.0
H1553 H 0.13253 0.63386 0.0188 0.0
C1554 C 0.12772 0.65782 0.04659 0.0
C1555 C 0.12297 0.66746 0.06177 0.0
C1556 C 0.10759 0.63255 0.03988 0.0
C1557 C 0.09748 0.65106 0.07 0.0
C1558 C 0.07712 0.62637 0.06315 0.0
C1559 C 0.06149 0.592 0.04117 0.0
C1560 C 0.06668 0.58188 0.02638 0.0
C1561 C 0.08189 0.61694 0.04807 0.0
C1562 C 0.09277 0.59723 0.01869 0.0
C1563 C 0.11279 0.62245 0.02518 0.0
H1564 H 0.36043 0.49134 0.04666 0.0
H1565 H 0.3212 0.4044 0.05282 0.0
H1566 H 0.36062 0.40445 0.03941 0.0
H1567 H 0.40762 0.42935 0.02772 0.0
H1568 H 0.44874 0.51653 0.02318 0.0
H1569 H 0.40729 0.51627 0.03368 0.0
C1570 C 0.36042 0.4724 0.04486 0.0
C1571 C 0.33797 0.44791 0.05089 0.0
C1572 C 0.38353 0.47263 0.03734 0.0
C1573 C 0.33835 0.42356 0.04854 0.0
C1574 C 0.36086 0.42355 0.04081 0.0
C1575 C 0.40731 0.44825 0.0288 0.0
C1576 C 0.43103 0.47283 0.02429 0.0
C1577 C 0.38376 0.44799 0.03544 0.0
C1578 C 0.43057 0.49723 0.02608 0.0
C1579 C 0.4069 0.4971 0.03229 0.0
H1580 H 0.52793 0.86299 0.03741 0.0
H1581 H 0.57046 0.91565 0.07927 0.0
H1582 H 0.56337 0.95099 0.06728 0.0
H1583 H 0.54412 0.96666 0.04535 0.0
H1584 H 0.49596 0.91148 1.00577 0.0
H1585 H 0.50591 0.87737 0.01662 0.0
C1586 C 0.5353 0.88195 0.04415 0.0
C1587 C 0.5499 0.88644 0.05925 0.0
C1588 C 0.53021 0.90189 0.03755 0.0
C1589 C 0.55974 0.9116 0.06744 0.0
C1590 C 0.55546 0.93184 0.06068 0.0
C1591 C 0.53585 0.94725 0.03902 0.0
C1592 C 0.51994 0.94208 0.02441 0.0
C1593 C 0.54067 0.92718 0.04575 0.0
C1594 C 0.509 0.9165 0.01666 0.0
C1595 C 0.51446 0.89679 0.02298 0.0
H1596 H 0.00964 0.24315 0.38326 0.0
H1597 H 0.03651 0.18395 0.38166 0.0
H1598 H 0.08042 0.21743 0.36873 0.0
H1599 H 0.11329 0.26527 0.36101 0.0
H1600 H 0.08617 0.32422 0.36341 0.0
H1601 H 0.04033 0.28922 0.37297 0.0
C1602 C 0.02508 0.23755 0.38004 0.0
C1603 C 0.02002 0.21127 0.38368 0.0
C1604 C 0.05031 0.25694 0.37283 0.0
C1605 C 0.03993 0.20409 0.37904 0.0
C1606 C 0.0651 0.22327 0.37173 0.0
C1607 C 0.09707 0.27019 0.36319 0.0
C1608 C 0.10288 0.29716 0.36133 0.0
C1609 C 0.07083 0.24999 0.36897 0.0
C1610 C 0.08197 0.3035 0.36464 0.0
C1611 C 0.05584 0.28355 0.37016 0.0
H1612 H 0.80422 0.82667 0.37644 0.0
H1613 H 0.75218 0.73969 0.38114 0.0
H1614 H 0.71275 0.74203 0.36968 0.0
H1615 H 0.69234 0.76897 0.35945 0.0
H1616 H 0.74381 0.85596 0.35535 0.0
H1617 H 0.78403 0.85355 0.36537 0.0
C1618 C 0.78434 0.80822 0.37473 0.0
C1619 C 0.78112 0.78306 0.37972 0.0
C1620 C 0.76158 0.80975 0.36831 0.0
C1621 C 0.75513 0.75934 0.37758 0.0
C1622 C 0.73256 0.76065 0.37102 0.0
C1623 C 0.71246 0.78733 0.36066 0.0
C1624 C 0.71532 0.81248 0.35621 0.0
C1625 C 0.73542 0.78577 0.36658 0.0
C1626 C 0.74127 0.83626 0.35819 0.0
C1627 C 0.76425 0.83489 0.36403 0.0
H1628 H 0.22207 0.01082 0.36642 0.0
H1629 H 0.21925 0.97858 0.41548 0.0
H1630 H 0.20767 0.93486 0.40343 0.0
H1631 H 0.19735 0.90543 0.37938 0.0
H1632 H 0.1976 0.93576 0.33012 0.0
H1633 H 0.21084 0.98049 0.34192 0.0
C1634 C 0.21874 0.99418 0.37448 0.0
C1635 C 0.22187 0.99823 0.39186 0.0
C1636 C 0.21156 0.96872 0.36747 0.0
C1637 C 0.21766 0.9764 0.40207 0.0
C1638 C 0.2108 0.95124 0.3952 0.0
C1639 C 0.20042 0.92177 0.37111 0.0
C1640 C 0.19658 0.91717 0.35384 0.0
C1641 C 0.20767 0.94718 0.37796 0.0
C1642 C 0.20045 0.93868 0.34346 0.0
C1643 C 0.208 0.96427 0.35021 0.0
H1644 H 0.56436 0.68949 0.27787 0.0
H1645 H 0.51988 0.6578 0.32401 0.0
H1646 H 0.55092 0.70078 0.33789 0.0
H1647 H 0.59202 0.74666 0.33722 0.0
H1648 H 0.6384 0.7768 0.29172 0.0
H1649 H 0.6058 0.7348 0.27744 0.0
C1650 C 0.56156 0.69169 0.29102 0.0
C1651 C 0.53963 0.67014 0.29979 0.0
C1652 C 0.58004 0.71617 0.29911 0.0
C1653 C 0.53616 0.67398 0.31677 0.0
C1654 C 0.55411 0.69854 0.3248 0.0
C1655 C 0.59489 0.74418 0.32421 0.0
C1656 C 0.61769 0.76494 0.31566 0.0
C1657 C 0.57625 0.71971 0.31612 0.0
C1658 C 0.62124 0.76109 0.29873 0.0
C1659 C 0.60251 0.73709 0.2905 0.0
H1660 H 0.32959 0.89575 0.30027 0.0
H1661 H 0.30873 0.81168 0.30071 0.0
H1662 H 0.2624 0.79825 0.3114 0.0
H1663 H 0.22622 0.81 0.31808 0.0
H1664 H 0.24703 0.8939 0.31752 0.0
H1665 H 0.2948 0.90787 0.30922 0.0
C1666 C 0.31492 0.8745 0.30276 0.0
C1667 C 0.32254 0.85473 0.29951 0.0
C1668 C 0.28825 0.86691 0.30881 0.0
C1669 C 0.30347 0.82733 0.30312 0.0
C1670 C 0.27688 0.81961 0.30913 0.0
C1671 C 0.24153 0.83137 0.31654 0.0
C1672 C 0.23364 0.85106 0.31895 0.0
C1673 C 0.26886 0.83915 0.3117 0.0
C1674 C 0.25311 0.87859 0.31628 0.0
C1675 C 0.28028 0.8865 0.31141 0.0
H1676 H 0.15442 0.47313 0.31149 0.0
H1677 H 0.08492 0.40977 0.28434 0.0
H1678 H 0.09434 0.37573 0.29618 0.0
H1679 H 0.122 0.36389 0.31419 0.0
H1680 H 0.19121 0.42684 0.34176 0.0
H1681 H 0.18174 0.46102 0.33007 0.0
C1682 C 0.14115 0.45184 0.30829 0.0
C1683 C 0.11905 0.44408 0.29697 0.0
C1684 C 0.14649 0.43228 0.31529 0.0
C1685 C 0.10234 0.41642 0.29279 0.0
C1686 C 0.10758 0.39689 0.29965 0.0
C1687 C 0.13505 0.38505 0.31771 0.0
C1688 C 0.15717 0.39268 0.32896 0.0
C1689 C 0.12961 0.40459 0.31088 0.0
C1690 C 0.17381 0.42028 0.33331 0.0
C1691 C 0.16851 0.43989 0.32655 0.0
H1692 H 0.31406 0.45904 0.30805 0.0
H1693 H 0.34726 0.40644 0.29707 0.0
H1694 H 0.30687 0.36825 0.31003 0.0
H1695 H 0.26071 0.34902 0.32292 0.0
H1696 H 0.2265 0.40101 0.33264 0.0
H1697 H 0.26878 0.4402 0.32226 0.0
C1698 C 0.31264 0.43932 0.30871 0.0
C1699 C 0.33357 0.43558 0.30144 0.0
C1700 C 0.28917 0.41731 0.31606 0.0
C1701 C 0.33124 0.40979 0.30229 0.0
C1702 C 0.30821 0.38795 0.30977 0.0
C1703 C 0.26274 0.36904 0.32296 0.0
C1704 C 0.24071 0.37215 0.32891 0.0
C1705 C 0.28683 0.39135 0.31645 0.0
C1706 C 0.24334 0.39808 0.3286 0.0
C1707 C 0.26749 0.42052 0.32247 0.0
H1708 H 0.58336 0.90308 0.29403 0.0
H1709 H 0.52351 0.81773 0.29924 0.0
H1710 H 0.55959 0.80972 0.31081 0.0
H1711 H 0.6091 0.82675 0.31783 0.0
H1712 H 0.66818 0.91235 0.31302 0.0
H1713 H 0.63167 0.92041 0.30255 0.0
C1714 C 0.57822 0.8827 0.29764 0.0
C1715 C 0.55086 0.861 0.29557 0.0
C1716 C 0.59901 0.87826 0.30424 0.0
C1717 C 0.54441 0.83481 0.30069 0.0
C1718 C 0.56507 0.83018 0.30721 0.0
C1719 C 0.61378 0.84719 0.31478 0.0
C1720 C 0.64115 0.86906 0.31651 0.0
C1721 C 0.59256 0.85171 0.30884 0.0
C1722 C 0.64716 0.89531 0.31199 0.0
C1723 C 0.62632 0.89992 0.306 0.0
H1724 H 0.13244 0.68631 0.28304 0.0
H1725 H 0.10658 0.64667 0.33069 0.0
H1726 H 0.11756 0.69 0.34377 0.0
H1727 H 0.13276 0.73894 0.34123 0.0
H1728 H 0.15943 0.7779 0.29353 0.0
H1729 H 0.14889 0.73484 0.28069 0.0
C1730 C 0.12897 0.68708 0.29627 0.0
C1731 C 0.11843 0.6633 0.30585 0.0
C1732 C 0.13505 0.71184 0.3036 0.0
C1733 C 0.11475 0.66475 0.32306 0.0
C1734 C 0.12087 0.68946 0.33051 0.0
C1735 C 0.13644 0.73793 0.32808 0.0
C1736 C 0.14618 0.76131 0.3182 0.0
C1737 C 0.13081 0.71309 0.32086 0.0
C1738 C 0.1508 0.75988 0.30118 0.0
C1739 C 0.14519 0.73536 0.2939 0.0
H1740 H 0.80773 0.00584 0.36861 0.0
H1741 H 0.7812 0.9711 0.41752 0.0
H1742 H 0.74597 0.92827 0.40511 0.0
H1743 H 0.72324 0.90019 0.38026 0.0
H1744 H 0.7507 0.93472 0.33155 0.0
H1745 H 0.78542 0.97784 0.34391 0.0
C1746 C 0.79451 0.98883 0.37658 0.0
C1747 C 0.79721 0.99182 0.394 0.0
C1748 C 0.77456 0.9641 0.36937 0.0
C1749 C 0.77941 0.96961 0.40409 0.0
C1750 C 0.75933 0.945 0.39701 0.0
C1751 C 0.73679 0.91726 0.37241 0.0
C1752 C 0.73485 0.91422 0.35501 0.0
C1753 C 0.75673 0.94201 0.37966 0.0
C1754 C 0.75247 0.93633 0.34493 0.0
C1755 C 0.77211 0.96109 0.35202 0.0
H1756 H 1.00232 0.77658 0.36642 0.0
H1757 H 0.04402 0.84366 0.40079 0.0
H1758 H 0.08906 0.8545 0.38915 0.0
H1759 H 0.11689 0.84337 0.37027 0.0
H1760 H 0.07581 0.77481 0.33708 0.0
H1761 H 0.03026 0.76607 0.34702 0.0
C1762 C 0.02126 0.79375 0.37121 0.0
C1763 C 0.01982 0.80923 0.3845 0.0
C1764 C 0.04719 0.79957 0.36464 0.0
C1765 C 0.04458 0.83124 0.3907 0.0
C1766 C 0.07034 0.8375 0.38402 0.0
C1767 C 0.09786 0.8269 0.36501 0.0
C1768 C 0.09944 0.81038 0.35251 0.0
C1769 C 0.07193 0.82161 0.37115 0.0
C1770 C 0.07487 0.78826 0.34633 0.0
C1771 C 0.04892 0.7832 0.35209 0.0
H1772 H 0.18417 0.19002 0.38225 0.0
H1773 H 0.25706 0.25252 0.40741 0.0
H1774 H 0.24957 0.2875 0.39507 0.0
H1775 H 0.22234 0.30042 0.37738 0.0
H1776 H 0.14946 0.23823 0.35203 0.0
H1777 H 0.1573 0.20316 0.36395 0.0
C1778 C 0.19858 0.21131 0.3849 0.0
C1779 C 0.22105 0.21858 0.39584 0.0
C1780 C 0.19424 0.23141 0.37768 0.0
C1781 C 0.23932 0.24628 0.39927 0.0
C1782 C 0.23516 0.26634 0.39214 0.0
C1783 C 0.20814 0.27922 0.37442 0.0
C1784 C 0.18544 0.27206 0.36372 0.0
C1785 C 0.21263 0.25913 0.3814 0.0
C1786 C 0.16731 0.24442 0.36005 0.0
C1787 C 0.17169 0.22429 0.36694 0.0
H1788 H 0.69913 0.54746 0.71082 0.0
H1789 H 0.6652 0.59954 0.72154 0.0
H1790 H 0.70624 0.63825 0.70949 0.0
H1791 H 0.75315 0.65805 0.69757 0.0
H1792 H 0.78801 0.60654 0.68814 0.0
H1793 H 0.74518 0.56691 0.69749 0.0
C1794 C 0.70053 0.56719 0.71029 0.0
C1795 C 0.67919 0.57061 0.71724 0.0
C1796 C 0.72437 0.5895 0.70346 0.0
C1797 C 0.68151 0.59641 0.71657 0.0
C1798 C 0.70493 0.61855 0.7096 0.0
C1799 C 0.75113 0.63803 0.69734 0.0
C1800 C 0.77351 0.6352 0.69176 0.0
C1801 C 0.72669 0.61544 0.70328 0.0
C1802 C 0.77092 0.60928 0.69186 0.0
C1803 C 0.74644 0.58658 0.69741 0.0
H1804 H 0.43445 0.10633 0.72125 0.0
H1805 H 0.50163 0.18938 0.71839 0.0
H1806 H 0.46934 0.20372 0.70842 0.0
H1807 H 0.42118 0.19305 0.70239 0.0
H1808 H 0.35442 0.10993 0.70461 0.0
H1809 H 0.38711 0.0952 0.7133 0.0
C1810 C 0.44202 0.12757 0.71842 0.0
C1811 C 0.47039 0.14679 0.72072 0.0
C1812 C 0.42333 0.13565 0.71273 0.0
C1813 C 0.47995 0.17415 0.71669 0.0
C1814 C 0.46145 0.1824 0.71111 0.0
C1815 C 0.41404 0.17167 0.70447 0.0
C1816 C 0.38574 0.15239 0.70237 0.0
C1817 C 0.43302 0.16341 0.70934 0.0
C1818 C 0.37633 0.12489 0.70566 0.0
C1819 C 0.39497 0.11655 0.71072 0.0
H1820 H 0.89911 0.32809 0.73049 0.0
H1821 H 0.82646 0.32389 0.70815 0.0
H1822 H 0.81693 0.28261 0.69304 0.0
H1823 H 0.82823 0.24664 0.68717 0.0
H1824 H 0.90067 0.251 0.71014 0.0
H1825 H 0.91096 0.29302 0.72417 0.0
C1826 C 0.88104 0.31803 0.72243 0.0
C1827 C 0.86342 0.32896 0.72057 0.0
C1828 C 0.87557 0.29425 0.71393 0.0
C1829 C 0.84047 0.31601 0.70975 0.0
C1830 C 0.83492 0.29232 0.70117 0.0
C1831 C 0.84644 0.25693 0.69509 0.0
C1832 C 0.86362 0.24559 0.69756 0.0
C1833 C 0.85224 0.28115 0.70326 0.0
C1834 C 0.88697 0.25911 0.70803 0.0
C1835 C 0.89293 0.28321 0.71609 0.0
H1836 H 0.19836 0.00647 0.64802 0.0
H1837 H 0.26171 0.00266 0.61901 0.0
H1838 H 0.29739 0.04479 0.63184 0.0
H1839 H 0.31056 0.08354 0.65066 0.0
H1840 H 0.24719 0.08694 0.67997 0.0
H1841 H 0.21183 0.04398 0.66791 0.0
C1842 C 0.22 0.01461 0.64467 0.0
C1843 C 0.2272 0.00143 0.63244 0.0
C1844 C 0.24051 0.03884 0.65217 0.0
C1845 C 0.25541 0.01258 0.62814 0.0
C1846 C 0.2759 0.03662 0.63555 0.0
C1847 C 0.28906 0.07482 0.65453 0.0
C1848 C 0.28164 0.08864 0.66617 0.0
C1849 C 0.26868 0.05008 0.64747 0.0
C1850 C 0.25361 0.0769 0.671 0.0
C1851 C 0.23328 0.05229 0.66409 0.0
H1852 H 0.0056 0.23657 0.63692 0.0
H1853 H 0.97762 0.15087 0.63921 0.0
H1854 H 0.93432 0.14236 0.65262 0.0
H1855 H 0.90258 0.1591 0.66138 0.0
H1856 H 0.93162 0.24506 0.65906 0.0
H1857 H 0.97617 0.25364 0.64796 0.0
C1858 C 0.99002 0.21603 0.64036 0.0
C1859 C 0.99464 0.19436 0.63682 0.0
C1860 C 0.96528 0.21132 0.64804 0.0
C1861 C 0.97454 0.16792 0.64173 0.0
C1862 C 0.94972 0.16303 0.64934 0.0
C1863 C 0.91894 0.17972 0.65882 0.0
C1864 C 0.91399 0.2015 0.6612 0.0
C1865 C 0.94461 0.18453 0.65228 0.0
C1866 C 0.93511 0.22805 0.65744 0.0
C1867 C 0.96053 0.23296 0.65103 0.0
H1868 H 0.81696 0.81415 0.64538 0.0
H1869 H 0.78129 0.76291 0.60201 0.0
H1870 H 0.79005 0.72882 0.61411 0.0
H1871 H 0.80742 0.71319 0.63681 0.0
H1872 H 0.84812 0.76598 0.67876 0.0
H1873 H 0.83813 0.7999 0.66726 0.0
C1874 C 0.81142 0.79575 0.63842 0.0
C1875 C 0.79789 0.79111 0.62288 0.0
C1876 C 0.81731 0.77637 0.64522 0.0
C1877 C 0.79083 0.76689 0.61421 0.0
C1878 C 0.79609 0.74737 0.62105 0.0
C1879 C 0.8141 0.73203 0.64354 0.0
C1880 C 0.82786 0.73656 0.65894 0.0
C1881 C 0.8091 0.7518 0.63658 0.0
C1882 C 0.83684 0.7615 0.66716 0.0
C1883 C 0.83129 0.78105 0.6605 0.0
H1884 H 0.98736 0.80167 0.63958 0.0
H1885 H 0.01776 0.74681 0.62849 0.0
H1886 H 0.97637 0.70927 0.64104 0.0
H1887 H 0.93008 0.69121 0.6533 0.0
H1888 H 0.89815 0.74502 0.66326 0.0
H1889 H 0.94168 0.78382 0.65348 0.0
C1890 C 0.98506 0.78157 0.64014 0.0
C1891 C 0.0055 0.777 0.63292 0.0
C1892 C 0.96094 0.75989 0.64723 0.0
C1893 C 1.00213 0.75078 0.63367 0.0
C1894 C 0.97853 0.72932 0.64091 0.0
C1895 C 0.93287 0.71154 0.65353 0.0
C1896 C 0.91116 0.71532 0.65924 0.0
C1897 C 0.95758 0.73352 0.64743 0.0
C1898 C 0.91476 0.74164 0.65927 0.0
C1899 C 0.93959 0.7638 0.65352 0.0
H1900 H 0.21113 0.17089 0.63139 0.0
H1901 H 0.24805 0.25542 0.64504 0.0
H1902 H 0.28653 0.25379 0.65879 0.0
H1903 H 0.31092 0.22877 0.66578 0.0
H1904 H 0.27575 0.14525 0.65033 0.0
H1905 H 0.23553 0.1459 0.63833 0.0
C1906 C 0.22751 0.18883 0.63752 0.0
C1907 C 0.2268 0.21322 0.63727 0.0
C1908 C 0.24994 0.1879 0.64498 0.0
C1909 C 0.24828 0.23646 0.64505 0.0
C1910 C 0.27025 0.23553 0.65289 0.0
C1911 C 0.29417 0.21069 0.65997 0.0
C1912 C 0.2956 0.18672 0.65942 0.0
C1913 C 0.27148 0.21146 0.65278 0.0
C1914 C 0.27449 0.16363 0.65132 0.0
C1915 C 0.25163 0.16407 0.64439 0.0
H1916 H 0.82129 0.01084 0.64283 0.0
H1917 H 0.77401 0.02184 0.60398 0.0
H1918 H 0.78234 0.06396 0.61697 0.0
H1919 H 0.80305 0.09791 0.63928 0.0
H1920 H 0.85589 0.09024 0.6756 0.0
H1921 H 0.84568 0.04692 0.66351 0.0
C1922 C 0.81314 0.02254 0.63695 0.0
C1923 C 0.79661 0.01258 0.62249 0.0
C1924 C 0.81889 0.04744 0.64411 0.0
C1925 C 0.78606 0.02824 0.61536 0.0
C1926 C 0.79105 0.05261 0.62269 0.0
C1927 C 0.81232 0.0868 0.64462 0.0
C1928 C 0.82947 0.09703 0.65878 0.0
C1929 C 0.80731 0.06234 0.63712 0.0
C1930 C 0.84178 0.08252 0.66516 0.0
C1931 C 0.83618 0.05778 0.65811 0.0
H1932 H 0.43768 0.33616 0.72029 0.0
H1933 H 0.50821 0.32674 0.70878 0.0
H1934 H 0.47734 0.28242 0.69594 0.0
H1935 H 0.42986 0.24503 0.68966 0.0
H1936 H 0.35973 0.25524 0.70119 0.0
H1937 H 0.39083 0.30027 0.71261 0.0
C1938 C 0.44631 0.32438 0.71502 0.0
C1939 C 0.47518 0.33464 0.71566 0.0
C1940 C 0.42847 0.29891 0.7078 0.0
C1941 C 0.48608 0.31938 0.70841 0.0
C1942 C 0.46842 0.29396 0.70115 0.0
C1943 C 0.42142 0.25727 0.69445 0.0
C1944 C 0.39243 0.24655 0.6948 0.0
C1945 C 0.43952 0.28335 0.70097 0.0
C1946 C 0.38189 0.2627 0.70109 0.0
C1947 C 0.39967 0.28855 0.70756 0.0
H1948 H 0.70305 0.16075 0.71482 0.0
H1949 H 0.66633 0.0744 0.72269 0.0
H1950 H 0.70769 0.0757 0.71125 0.0
H1951 H 0.75548 0.10172 0.70044 0.0
H1952 H 0.79309 0.18831 0.69386 0.0
H1953 H 0.7504 0.18656 0.703 0.0
C1954 C 0.70397 0.14217 0.71381 0.0
C1955 C 0.68165 0.11754 0.71974 0.0
C1956 C 0.72807 0.14311 0.7074 0.0
C1957 C 0.68333 0.0937 0.71846 0.0
C1958 C 0.70697 0.0944 0.71187 0.0
C1959 C 0.75415 0.12013 0.70084 0.0
C1960 C 0.77723 0.14497 0.696 0.0
C1961 C 0.72965 0.11904 0.70655 0.0
C1962 C 0.77547 0.16878 0.69696 0.0
C1963 C 0.75104 0.16782 0.70237 0.0
H1964 H 0.85 0.53058 0.71058 0.0
H1965 H 0.92136 0.59054 0.73811 0.0
H1966 H 0.9165 0.62692 0.7254 0.0
H1967 H 0.89162 0.64168 0.7068 0.0
H1968 H 0.82042 0.58156 0.67916 0.0
H1969 H 0.82612 0.5454 0.69126 0.0
C1970 C 0.86475 0.55162 0.71364 0.0
C1971 C 0.88594 0.55776 0.72535 0.0
C1972 C 0.86198 0.57246 0.7062 0.0
C1973 C 0.90457 0.58517 0.72934 0.0
C1974 C 0.90193 0.60601 0.722 0.0
C1975 C 0.87739 0.62069 0.70336 0.0
C1976 C 0.85572 0.61444 0.692 0.0
C1977 C 0.8806 0.59989 0.71049 0.0
C1978 C 0.83751 0.58708 0.6877 0.0
C1979 C 0.84063 0.56631 0.6947 0.0
H1980 H 0.48826 0.92904 0.16523 0.0
H1981 H 0.47423 0.98924 0.18912 0.0
H1982 H 0.48636 0.01557 0.16345 0.0
H1983 H 0.50191 0.02217 0.13438 0.0
H1984 H 0.51622 0.96235 0.11026 0.0
H1985 H 0.50282 0.93516 0.13572 0.0
C1986 C 0.48797 0.94797 0.16482 0.0
C1987 C 0.48034 0.95711 0.17913 0.0
C1988 C 0.49495 0.96307 0.14994 0.0
C1989 C 0.47971 0.98153 0.17829 0.0
C1990 C 0.48679 0.9967 0.16362 0.0
C1991 C 0.50221 0.00323 0.1347 0.0
C1992 C 0.51023 0.99443 0.12042 0.0
C1993 C 0.49456 0.98776 0.1494 0.0
C1994 C 0.50995 0.96954 0.121 0.0
C1995 C 0.50246 0.95406 0.1356 0.0
H1996 H 0.04484 0.50349 0.16928 0.0
H1997 H 1.00325 0.5439 0.18986 0.0
H1998 H 0.9805 0.53994 0.16325 0.0
H1999 H 0.97317 0.52608 0.13404 0.0
H2000 H 0.0131 0.48412 0.1134 0.0
H2001 H 0.03582 0.48775 0.1401 0.0
C2002 C 0.03056 0.51114 0.16798 0.0
C2003 C 0.02598 0.52418 0.18152 0.0
C2004 C 0.01737 0.50868 0.15262 0.0
C2005 C 0.00758 0.53422 0.17957 0.0
C2006 C 0.99443 0.53185 0.16438 0.0
C2007 C 0.98651 0.51734 0.13541 0.0
C2008 C 0.99138 0.50485 0.12171 0.0
C2009 C 0.99929 0.51928 0.1508 0.0
C2010 C 0.00923 0.49417 0.12367 0.0
C2011 C 0.02212 0.49609 0.13897 0.0
H2012 H 0.45349 0.50072 0.16721 0.0
H2013 H 0.53588 0.53305 0.1878 0.0
H2014 H 0.55236 0.5249 0.16146 0.0
H2015 H 0.54356 0.50858 0.13261 0.0
H2016 H 0.4612 0.47555 0.1119 0.0
H2017 H 0.44464 0.48415 0.13816 0.0
C2018 C 0.475 0.50579 0.16596 0.0
C2019 C 0.49341 0.51755 0.17949 0.0
C2020 C 0.4844 0.50104 0.15072 0.0
C2021 C 0.52132 0.52432 0.17756 0.0
C2022 C 0.53076 0.51954 0.16251 0.0
C2023 C 0.52192 0.50303 0.13386 0.0
C2024 C 0.50367 0.49135 0.12027 0.0
C2025 C 0.5125 0.50791 0.14902 0.0
C2026 C 0.4758 0.48481 0.12207 0.0
C2027 C 0.46626 0.48957 0.13713 0.0
H2028 H 0.97481 0.45179 0.8431 0.0
H2029 H 0.93003 0.49232 0.85788 0.0
H2030 H 0.95311 0.50306 0.88497 0.0
H2031 H 0.98723 0.50232 0.9041 0.0
H2032 H 0.03093 0.46059 0.88955 0.0
H2033 H 0.00696 0.44888 0.86277 0.0
C2034 C 0.96975 0.4626 0.85233 0.0
C2035 C 0.95078 0.47132 0.84839 0.0
C2036 C 0.98304 0.46865 0.8679 0.0
C2037 C 0.94485 0.48571 0.86045 0.0
C2038 C 0.95794 0.49175 0.87599 0.0
C2039 C 0.99123 0.49034 0.89517 0.0
C2040 C 0.01103 0.48253 0.89882 0.0
C2041 C 0.97727 0.48354 0.87979 0.0
C2042 C 0.01618 0.4673 0.88698 0.0
C2043 C 1.00236 0.46045 0.87168 0.0
H2044 H 0.55366 0.49953 0.85008 0.0
H2045 H 0.4724 0.467 0.82781 0.0
H2046 H 0.45408 0.47368 0.85388 0.0
H2047 H 0.46089 0.48859 0.88302 0.0
H2048 H 0.54204 0.5216 0.90547 0.0
H2049 H 0.56053 0.51475 0.87942 0.0
C2050 C 0.532 0.4941 0.85091 0.0
C2051 C 0.51444 0.48269 0.83699 0.0
C2052 C 0.52151 0.49796 0.86601 0.0
C2053 C 0.48632 0.47547 0.83837 0.0
C2054 C 0.47583 0.4794 0.85326 0.0
C2055 C 0.48269 0.49452 0.88219 0.0
C2056 C 0.50003 0.50567 0.89621 0.0
C2057 C 0.4932 0.4906 0.86717 0.0
C2058 C 0.52812 0.51273 0.89496 0.0
C2059 C 0.53876 0.50896 0.88002 0.0
H2060 H 0.53462 0.02351 0.8389 0.0
H2061 H 0.52237 0.08997 0.85335 0.0
H2062 H 0.50772 0.07032 0.88108 0.0
H2063 H 0.49628 0.03299 0.90093 0.0
H2064 H 0.50783 0.9663 0.88611 0.0
H2065 H 0.52522 0.98744 0.85902 0.0
C2066 C 0.52913 0.03392 0.84818 0.0
C2067 C 0.52952 0.05815 0.84397 0.0
C2068 C 0.52054 0.02241 0.86409 0.0
C2069 C 0.52192 0.07111 0.85613 0.0
C2070 C 0.51365 0.05994 0.87204 0.0
C2071 C 0.50299 0.02333 0.89184 0.0
C2072 C 0.50067 0.99806 0.89551 0.0
C2073 C 0.51258 0.03543 0.87612 0.0
C2074 C 0.50916 0.98562 0.88353 0.0
C2075 C 0.51912 0.99771 0.86804 0.0
H2076 H 0.14222 0.31044 0.51551 0.0
H2077 H 0.15609 0.24512 0.50078 0.0
H2078 H 0.16984 0.26472 0.47297 0.0
H2079 H 0.18043 0.30191 0.45317 0.0
H2080 H 0.16782 0.36782 0.46832 0.0
H2081 H 0.15083 0.34644 0.49541 0.0
C2082 C 0.14787 0.30028 0.50615 0.0
C2083 C 0.14822 0.27638 0.5103 0.0
C2084 C 0.1561 0.31187 0.4902 0.0
C2085 C 0.15596 0.26372 0.49802 0.0
C2086 C 0.16375 0.27487 0.48207 0.0
C2087 C 0.17358 0.31135 0.46233 0.0
C2088 C 0.17549 0.33648 0.45874 0.0
C2089 C 0.16427 0.29915 0.47807 0.0
C2090 C 0.16681 0.34861 0.47082 0.0
C2091 C 0.15706 0.33638 0.48632 0.0
H2092 H 0.72258 0.88576 0.49502 0.0
H2093 H 0.65731 0.81037 0.51526 0.0
H2094 H 0.63327 0.79883 0.48842 0.0
H2095 H 0.63056 0.81041 0.45925 0.0
H2096 H 0.69594 0.88576 0.43903 0.0
H2097 H 0.72018 0.89707 0.46579 0.0
C2098 C 0.703 0.86689 0.49357 0.0
C2099 C 0.69169 0.849 0.50713 0.0
C2100 C 0.68934 0.86037 0.47811 0.0
C2101 C 0.66656 0.82439 0.50498 0.0
C2102 C 0.65274 0.81784 0.48967 0.0
C2103 C 0.65003 0.82938 0.46075 0.0
C2104 C 0.66139 0.84725 0.4472 0.0
C2105 C 0.66389 0.83572 0.47616 0.0
C2106 C 0.68688 0.87155 0.44923 0.0
C2107 C 0.70068 0.87809 0.46455 0.0
H2108 H 0.12212 0.84005 0.49693 0.0
H2109 H 0.20385 0.86834 0.51755 0.0
H2110 H 0.21965 0.85996 0.49105 0.0
H2111 H 0.21059 0.84492 0.46201 0.0
H2112 H 0.12901 0.81612 0.44107 0.0
H2113 H 0.11293 0.82456 0.46759 0.0
C2114 C 0.14332 0.84419 0.49563 0.0
C2115 C 0.16179 0.85494 0.50921 0.0
C2116 C 0.15236 0.83935 0.48027 0.0
C2117 C 0.18929 0.86044 0.50726 0.0
C2118 C 0.19833 0.85554 0.49212 0.0
C2119 C 0.1892 0.84022 0.46327 0.0
C2120 C 0.17103 0.82977 0.44956 0.0
C2121 C 0.18009 0.84505 0.47854 0.0
C2122 C 0.14354 0.82438 0.45136 0.0
C2123 C 0.13427 0.82906 0.46656 0.0
H2124 H 0.6737 0.84164 0.16782 0.0
H2125 H 0.60209 0.76821 0.18536 0.0
H2126 H 0.62359 0.7747 0.21277 0.0
H2127 H 0.66281 0.80106 0.23169 0.0
H2128 H 0.73446 0.87455 0.21427 0.0
H2129 H 0.71291 0.86821 0.18685 0.0
C2130 C 0.66274 0.82721 0.1777 0.0
C2131 C 0.63636 0.80449 0.17458 0.0
C2132 C 0.67525 0.83102 0.19341 0.0
C2133 C 0.62255 0.78571 0.18741 0.0
C2134 C 0.63476 0.78947 0.2031 0.0
C2135 C 0.67359 0.81581 0.22192 0.0
C2136 C 0.70014 0.83827 0.225 0.0
C2137 C 0.66111 0.81202 0.20622 0.0
C2138 C 0.71409 0.85696 0.21215 0.0
C2139 C 0.70174 0.85342 0.19651 0.0
H2140 H 0.15255 0.80713 0.17779 0.0
H2141 H 0.24084 0.8574 0.18628 0.0
H2142 H 0.2319 0.87202 0.21303 0.0
H2143 H 0.19889 0.87203 0.23367 0.0
H2144 H 0.11076 0.82053 0.22535 0.0
H2145 H 0.11984 0.80465 0.19914 0.0
C2146 C 0.16992 0.82094 0.18556 0.0
C2147 C 0.19736 0.83124 0.17981 0.0
C2148 C 0.16466 0.82915 0.20105 0.0
C2149 C 0.21947 0.84948 0.19011 0.0
C2150 C 0.21439 0.85775 0.20552 0.0
C2151 C 0.18169 0.85704 0.22624 0.0
C2152 C 0.15415 0.84779 0.23143 0.0
C2153 C 0.18706 0.84795 0.21106 0.0
C2154 C 0.13215 0.82845 0.22154 0.0
C2155 C 0.13732 0.81925 0.20655 0.0
H2156 H 0.22026 0.39278 0.18732 0.0
H2157 H 0.13747 0.35001 0.16654 0.0
H2158 H 0.11948 0.32518 0.19245 0.0
H2159 H 0.12686 0.31542 0.22102 0.0
H2160 H 0.20942 0.35697 0.24208 0.0
H2161 H 0.2277 0.38258 0.21625 0.0
C2162 C 0.19833 0.3779 0.18844 0.0
C2163 C 0.18026 0.37348 0.17496 0.0
C2164 C 0.18798 0.36354 0.2035 0.0
C2165 C 0.15183 0.35423 0.17674 0.0
C2166 C 0.14149 0.33987 0.19156 0.0
C2167 C 0.14892 0.32989 0.21995 0.0
C2168 C 0.16668 0.33408 0.23354 0.0
C2169 C 0.15933 0.34437 0.20503 0.0
C2170 C 0.19513 0.35344 0.23195 0.0
C2171 C 0.20566 0.36798 0.21711 0.0
H2172 H 0.82248 0.59965 0.8321 0.0
H2173 H 0.80804 0.65996 0.85546 0.0
H2174 H 0.82169 0.68673 0.82994 0.0
H2175 H 0.83897 0.69382 0.80123 0.0
H2176 H 0.85344 0.63379 0.77756 0.0
H2177 H 0.83838 0.60608 0.80283 0.0
C2178 C 0.82238 0.61868 0.83159 0.0
C2179 C 0.81424 0.62775 0.84572 0.0
C2180 C 0.83024 0.63403 0.8168 0.0
C2181 C 0.8139 0.65231 0.84476 0.0
C2182 C 0.82186 0.66773 0.83018 0.0
C2183 C 0.83889 0.6747 0.80161 0.0
C2184 C 0.84751 0.66601 0.78754 0.0
C2185 C 0.83024 0.6589 0.81617 0.0
C2186 C 0.84676 0.64091 0.78816 0.0
C2187 C 0.83831 0.62512 0.80265 0.0
H2188 H 0.36674 0.15905 0.83042 0.0
H2189 H 0.32644 0.20226 0.84853 0.0
H2190 H 0.29998 0.19221 0.82269 0.0
H2191 H 0.28754 0.17045 0.79518 0.0
H2192 H 0.32596 0.12515 0.77766 0.0
H2193 H 0.35394 0.13688 0.80298 0.0
C2194 C 0.35198 0.16607 0.8288 0.0
C2195 C 0.34864 0.18139 0.84147 0.0
C2196 C 0.33653 0.15993 0.81397 0.0
C2197 C 0.32977 0.19074 0.83895 0.0
C2198 C 0.31447 0.18486 0.8242 0.0
C2199 C 0.30185 0.16292 0.79694 0.0
C2200 C 0.30452 0.14687 0.78448 0.0
C2201 C 0.31757 0.16935 0.81166 0.0
C2202 C 0.32365 0.13782 0.78689 0.0
C2203 C 0.33954 0.14434 0.80144 0.0
H2204 H 0.85845 0.20846 0.84673 0.0
H2205 H 0.77198 0.1667 0.83232 0.0
H2206 H 0.78425 0.15698 0.80493 0.0
H2207 H 0.81969 0.15987 0.7851 0.0
H2208 H 0.90606 0.20219 0.79977 0.0
H2209 H 0.89369 0.2124 0.82689 0.0
C2210 C 0.84227 0.19751 0.83755 0.0
C2211 C 0.81432 0.18839 0.84163 0.0
C2212 C 0.84947 0.19206 0.82182 0.0
C2213 C 0.79363 0.17373 0.82963 0.0
C2214 C 0.80065 0.16829 0.8139 0.0
C2215 C 0.8358 0.17156 0.79418 0.0
C2216 C 0.86376 0.18011 0.79041 0.0
C2217 C 0.82852 0.1773 0.80986 0.0
C2218 C 0.88435 0.19501 0.80241 0.0
C2219 C 0.87731 0.20096 0.81791 0.0
H2220 H 0.32892 0.12784 0.5125 0.0
H2221 H 0.27475 0.15828 0.52706 0.0
H2222 H 0.29468 0.16771 0.55505 0.0
H2223 H 0.32823 0.16817 0.57527 0.0
H2224 H 0.38146 0.1366 0.56072 0.0
H2225 H 0.361 0.1266 0.53293 0.0
C2226 C 0.32118 0.13619 0.52184 0.0
C2227 C 0.30038 0.14237 0.51762 0.0
C2228 C 0.33263 0.14146 0.53793 0.0
C2229 C 0.291 0.15366 0.52986 0.0
C2230 C 0.30228 0.15893 0.54591 0.0
C2231 C 0.33512 0.1588 0.56608 0.0
C2232 C 0.35649 0.15331 0.57008 0.0
C2233 C 0.32321 0.15303 0.55007 0.0
C2234 C 0.36538 0.14146 0.55793 0.0
C2235 C 0.35359 0.1356 0.54203 0.0
H2236 H 0.85806 0.12322 0.52108 0.0
H2237 H 0.87425 0.1989 0.49897 0.0
H2238 H 0.86097 0.21197 0.52489 0.0
H2239 H 0.84368 0.20146 0.55366 0.0
H2240 H 0.82711 0.12561 0.57569 0.0
H2241 H 0.84158 0.11307 0.55002 0.0
C2242 C 0.85856 0.14252 0.52191 0.0
C2243 C 0.86707 0.16 0.50806 0.0
C2244 C 0.8508 0.14988 0.53685 0.0
C2245 C 0.86806 0.18516 0.50947 0.0
C2246 C 0.86029 0.19258 0.52426 0.0
C2247 C 0.84309 0.18212 0.55281 0.0
C2248 C 0.83422 0.16447 0.56658 0.0
C2249 C 0.85145 0.17503 0.53799 0.0
C2250 C 0.83406 0.13969 0.56535 0.0
C2251 C 0.84221 0.13244 0.55064 0.0
H2252 H 0.89166 0.73525 0.51668 0.0
H2253 H 0.80927 0.69082 0.49545 0.0
H2254 H 0.79123 0.66623 0.52142 0.0
H2255 H 0.79843 0.65725 0.55013 0.0
H2256 H 0.88064 0.70021 0.57164 0.0
H2257 H 0.899 0.72561 0.54575 0.0
C2258 C 0.86982 0.72006 0.51773 0.0
C2259 C 0.85185 0.71511 0.50412 0.0
C2260 C 0.85946 0.7058 0.5328 0.0
C2261 C 0.82352 0.69545 0.50576 0.0
C2262 C 0.81317 0.68124 0.5206 0.0
C2263 C 0.82044 0.67195 0.54915 0.0
C2264 C 0.83809 0.67664 0.56285 0.0
C2265 C 0.83089 0.68626 0.5342 0.0
C2266 C 0.86646 0.69631 0.56139 0.0
C2267 C 0.87703 0.71072 0.54652 0.0
loop_
_geom_bond_atom_site_label_1
_geom_bond_atom_site_label_2
_geom_bond_distance
_geom_bond_site_symmetry_2
_ccdc_geom_bond_type
C0 C1 1.384 . S
C0 H13 0.947 . S
C0 C35 1.382 . S
C1 C0 1.384 . S
C1 C2 1.378 . S
C2 C1 1.378 . S
C2 C3 1.378 . S
C2 H14 0.952 . S
C3 C2 1.378 . S
C3 H15 0.950 . S
C3 C34 1.383 . S
H4 C23 0.947 . S
H5 C24 0.946 . S
H6 C26 0.953 . S
H7 C27 0.945 . S
H8 C29 0.952 . S
H9 C30 0.949 . S
H10 C32 0.950 . S
H11 C33 0.948 . S
H12 C35 0.951 . S
H13 C0 0.947 . S
H14 C2 0.952 . S
H15 C3 0.950 . S
N16 C19 1.382 . S
N16 C21 1.363 . S
N17 C19 1.371 . S
N17 C20 1.372 . S
N18 C20 1.361 . S
N18 C21 1.377 . S
C19 N16 1.382 . S
C19 N17 1.371 . S
C19 C22 1.480 . S
C20 N17 1.372 . S
C20 N18 1.361 . S
C20 C28 1.457 . S
C21 N16 1.363 . S
C21 N18 1.377 . S
C21 C34 1.479 . S
C22 C19 1.480 . S
C22 C23 1.383 . S
C22 C27 1.385 . S
C23 H4 0.947 . S
C23 C22 1.383 . S
C23 C24 1.388 . S
C24 H5 0.946 . S
C24 C23 1.388 . S
C24 C25 1.384 . S
C25 C24 1.384 . S
C25 C26 1.377 . S
C26 H6 0.953 . S
C26 C25 1.377 . S
C26 C27 1.369 . S
C27 H7 0.945 . S
C27 C22 1.385 . S
C27 C26 1.369 . S
C28 C20 1.457 . S
C28 C29 1.372 . S
C28 C33 1.364 . S
C29 H8 0.952 . S
C29 C28 1.372 . S
C29 C30 1.389 . S
C30 H9 0.949 . S
C30 C29 1.389 . S
C30 C31 1.387 . S
C31 C30 1.387 . S
C31 C32 1.372 . S
C32 H10 0.950 . S
C32 C31 1.372 . S
C32 C33 1.379 . S
C33 H11 0.948 . S
C33 C28 1.364 . S
C33 C32 1.379 . S
C34 C3 1.383 . S
C34 C21 1.479 . S
C34 C35 1.398 . S
C35 C0 1.382 . S
C35 H12 0.951 . S
C35 C34 1.398 . S
C36 C37 1.384 . S
C36 H49 0.947 . S
C36 C71 1.382 . S
C37 C36 1.384 . S
C37 C38 1.378 . S
C38 C37 1.378 . S
C38 C39 1.378 . S
C38 H50 0.952 . S
C39 C38 1.378 . S
C39 H51 0.950 . S
C39 C70 1.383 . S
H40 C59 0.947 . S
H41 C60 0.946 . S
H42 C62 0.953 . S
H43 C63 0.945 . S
H44 C65 0.952 . S
H45 C66 0.949 . S
H46 C68 0.950 . S
H47 C69 0.948 . S
H48 C71 0.951 . S
H49 C36 0.947 . S
H50 C38 0.952 . S
H51 C39 0.950 . S
N52 C55 1.382 . S
N52 C57 1.363 . S
N53 C55 1.371 . S
N53 C56 1.372 . S
N54 C56 1.361 . S
N54 C57 1.377 . S
C55 N52 1.382 . S
C55 N53 1.371 . S
C55 C58 1.480 . S
C56 N53 1.372 . S
C56 N54 1.361 . S
C56 C64 1.457 . S
C57 N52 1.363 . S
C57 N54 1.377 . S
C57 C70 1.479 . S
C58 C55 1.480 . S
C58 C59 1.383 . S
C58 C63 1.385 . S
C59 H40 0.947 . S
C59 C58 1.383 . S
C59 C60 1.388 . S
C60 H41 0.946 . S
C60 C59 1.388 . S
C60 C61 1.384 . S
C61 C60 1.384 . S
C61 C62 1.377 . S
C62 H42 0.953 . S
C62 C61 1.377 . S
C62 C63 1.369 . S
C63 H43 0.945 . S
C63 C58 1.385 . S
C63 C62 1.369 . S
C64 C56 1.457 . S
C64 C65 1.372 . S
C64 C69 1.364 . S
C65 H44 0.952 . S
C65 C64 1.372 . S
C65 C66 1.389 . S
C66 H45 0.949 . S
C66 C65 1.389 . S
C66 C67 1.387 . S
C67 C66 1.387 . S
C67 C68 1.372 . S
C68 H46 0.950 . S
C68 C67 1.372 . S
C68 C69 1.379 . S
C69 H47 0.948 . S
C69 C64 1.364 . S
C69 C68 1.379 . S
C70 C39 1.383 . S
C70 C57 1.479 . S
C70 C71 1.398 . S
C71 C36 1.382 . S
C71 H48 0.951 . S
C71 C70 1.398 . S
C72 C73 1.384 . S
C72 H85 0.947 . S
C72 C107 1.382 . S
C73 C72 1.384 . S
C73 C74 1.378 . S
C74 C73 1.378 . S
C74 C75 1.378 . S
C74 H86 0.952 . S
C75 C74 1.378 . S
C75 H87 0.950 . S
C75 C106 1.383 . S
H76 C95 0.947 . S
H77 C96 0.946 . S
H78 C98 0.953 . S
H79 C99 0.945 . S
H80 C101 0.952 . S
H81 C102 0.949 . S
H82 C104 0.950 . S
H83 C105 0.948 . S
H84 C107 0.951 . S
H85 C72 0.947 . S
H86 C74 0.952 . S
H87 C75 0.950 . S
N88 C91 1.382 . S
N88 C93 1.363 . S
N89 C91 1.371 . S
N89 C92 1.372 . S
N90 C92 1.361 . S
N90 C93 1.377 . S
C91 N88 1.382 . S
C91 N89 1.371 . S
C91 C94 1.480 . S
C92 N89 1.372 . S
C92 N90 1.361 . S
C92 C100 1.457 . S
C93 N88 1.363 . S
C93 N90 1.377 . S
C93 C106 1.479 . S
C94 C91 1.480 . S
C94 C95 1.383 . S
C94 C99 1.385 . S
C95 H76 0.947 . S
C95 C94 1.383 . S
C95 C96 1.388 . S
C96 H77 0.946 . S
C96 C95 1.388 . S
C96 C97 1.384 . S
C97 C96 1.384 . S
C97 C98 1.377 . S
C98 H78 0.953 . S
C98 C97 1.377 . S
C98 C99 1.369 . S
C99 H79 0.945 . S
C99 C94 1.385 . S
C99 C98 1.369 . S
C100 C92 1.457 . S
C100 C101 1.372 . S
C100 C105 1.364 . S
C101 H80 0.952 . S
C101 C100 1.372 . S
C101 C102 1.389 . S
C102 H81 0.949 . S
C102 C101 1.389 . S
C102 C103 1.387 . S
C103 C102 1.387 . S
C103 C104 1.372 . S
C104 H82 0.950 . S
C104 C103 1.372 . S
C104 C105 1.379 . S
C105 H83 0.948 . S
C105 C100 1.364 . S
C105 C104 1.379 . S
C106 C75 1.383 . S
C106 C93 1.479 . S
C106 C107 1.398 . S
C107 C72 1.382 . S
C107 H84 0.951 . S
C107 C106 1.398 . S
C108 C109 1.384 . S
C108 H121 0.947 . S
C108 C143 1.382 . S
C109 C108 1.384 . S
C109 C110 1.378 . S
C110 C109 1.378 . S
C110 C111 1.378 . S
C110 H122 0.952 . S
C111 C110 1.378 . S
C111 H123 0.950 . S
C111 C142 1.383 . S
H112 C131 0.947 . S
H113 C132 0.946 . S
H114 C134 0.953 . S
H115 C135 0.945 . S
H116 C137 0.952 . S
H117 C138 0.949 . S
H118 C140 0.950 . S
H119 C141 0.948 . S
H120 C143 0.951 . S
H121 C108 0.947 . S
H122 C110 0.952 . S
H123 C111 0.950 . S
N124 C127 1.382 . S
N124 C129 1.363 . S
N125 C127 1.371 . S
N125 C128 1.372 . S
N126 C128 1.361 . S
N126 C129 1.377 . S
C127 N124 1.382 . S
C127 N125 1.371 . S
C127 C130 1.480 . S
C128 N125 1.372 . S
C128 N126 1.361 . S
C128 C136 1.457 . S
C129 N124 1.363 . S
C129 N126 1.377 . S
C129 C142 1.479 . S
C130 C127 1.480 . S
C130 C131 1.383 . S
C130 C135 1.385 . S
C131 H112 0.947 . S
C131 C130 1.383 . S
C131 C132 1.388 . S
C132 H113 0.946 . S
C132 C131 1.388 . S
C132 C133 1.384 . S
C133 C132 1.384 . S
C133 C134 1.377 . S
C134 H114 0.953 . S
C134 C133 1.377 . S
C134 C135 1.369 . S
C135 H115 0.945 . S
C135 C130 1.385 . S
C135 C134 1.369 . S
C136 C128 1.457 . S
C136 C137 1.372 . S
C136 C141 1.364 . S
C137 H116 0.952 . S
C137 C136 1.372 . S
C137 C138 1.389 . S
C138 H117 0.949 . S
C138 C137 1.389 . S
C138 C139 1.387 . S
C139 C138 1.387 . S
C139 C140 1.372 . S
C140 H118 0.950 . S
C140 C139 1.372 . S
C140 C141 1.379 . S
C141 H119 0.948 . S
C141 C136 1.364 . S
C141 C140 1.379 . S
C142 C111 1.383 . S
C142 C129 1.479 . S
C142 C143 1.398 . S
C143 C108 1.382 . S
C143 H120 0.951 . S
C143 C142 1.398 . S
C144 C145 1.384 . S
C144 H157 0.947 . S
C144 C179 1.382 . S
C145 C144 1.384 . S
C145 C146 1.378 . S
C146 C145 1.378 . S
C146 C147 1.378 . S
C146 H158 0.952 . S
C147 C146 1.378 . S
C147 H159 0.950 . S
C147 C178 1.383 . S
H148 C167 0.947 . S
H149 C168 0.946 . S
H150 C170 0.953 . S
H151 C171 0.945 . S
H152 C173 0.952 . S
H153 C174 0.949 . S
H154 C176 0.950 . S
H155 C177 0.948 . S
H156 C179 0.951 . S
H157 C144 0.947 . S
H158 C146 0.952 . S
H159 C147 0.950 . S
N160 C163 1.382 . S
N160 C165 1.363 . S
N161 C163 1.371 . S
N161 C164 1.372 . S
N162 C164 1.361 . S
N162 C165 1.377 . S
C163 N160 1.382 . S
C163 N161 1.371 . S
C163 C166 1.480 . S
C164 N161 1.372 . S
C164 N162 1.361 . S
C164 C172 1.457 . S
C165 N160 1.363 . S
C165 N162 1.377 . S
C165 C178 1.479 . S
C166 C163 1.480 . S
C166 C167 1.383 . S
C166 C171 1.385 . S
C167 H148 0.947 . S
C167 C166 1.383 . S
C167 C168 1.388 . S
C168 H149 0.946 . S
C168 C167 1.388 . S
C168 C169 1.384 . S
C169 C168 1.384 . S
C169 C170 1.377 . S
C170 H150 0.953 . S
C170 C169 1.377 . S
C170 C171 1.369 . S
C171 H151 0.945 . S
C171 C166 1.385 . S
C171 C170 1.369 . S
C172 C164 1.457 . S
C172 C173 1.372 . S
C172 C177 1.364 . S
C173 H152 0.952 . S
C173 C172 1.372 . S
C173 C174 1.389 . S
C174 H153 0.949 . S
C174 C173 1.389 . S
C174 C175 1.387 . S
C175 C174 1.387 . S
C175 C176 1.372 . S
C176 H154 0.950 . S
C176 C175 1.372 . S
C176 C177 1.379 . S
C177 H155 0.948 . S
C177 C172 1.364 . S
C177 C176 1.379 . S
C178 C147 1.383 . S
C178 C165 1.479 . S
C178 C179 1.398 . S
C179 C144 1.382 . S
C179 H156 0.951 . S
C179 C178 1.398 . S
C180 C181 1.384 . S
C180 H193 0.947 . S
C180 C215 1.382 . S
C181 C180 1.384 . S
C181 C182 1.378 . S
C182 C181 1.378 . S
C182 C183 1.378 . S
C182 H194 0.952 . S
C183 C182 1.378 . S
C183 H195 0.950 . S
C183 C214 1.383 . S
H184 C203 0.947 . S
H185 C204 0.946 . S
H186 C206 0.953 . S
H187 C207 0.945 . S
H188 C209 0.952 . S
H189 C210 0.949 . S
H190 C212 0.950 . S
H191 C213 0.948 . S
H192 C215 0.951 . S
H193 C180 0.947 . S
H194 C182 0.952 . S
H195 C183 0.950 . S
N196 C199 1.382 . S
N196 C201 1.363 . S
N197 C199 1.371 . S
N197 C200 1.372 . S
N198 C200 1.361 . S
N198 C201 1.377 . S
C199 N196 1.382 . S
C199 N197 1.371 . S
C199 C202 1.480 . S
C200 N197 1.372 . S
C200 N198 1.361 . S
C200 C208 1.457 . S
C201 N196 1.363 . S
C201 N198 1.377 . S
C201 C214 1.479 . S
C202 C199 1.480 . S
C202 C203 1.383 . S
C202 C207 1.385 . S
C203 H184 0.947 . S
C203 C202 1.383 . S
C203 C204 1.388 . S
C204 H185 0.946 . S
C204 C203 1.388 . S
C204 C205 1.384 . S
C205 C204 1.384 . S
C205 C206 1.377 . S
C206 H186 0.953 . S
C206 C205 1.377 . S
C206 C207 1.369 . S
C207 H187 0.945 . S
C207 C202 1.385 . S
C207 C206 1.369 . S
C208 C200 1.457 . S
C208 C209 1.372 . S
C208 C213 1.364 . S
C209 H188 0.952 . S
C209 C208 1.372 . S
C209 C210 1.389 . S
C210 H189 0.949 . S
C210 C209 1.389 . S
C210 C211 1.387 . S
C211 C210 1.387 . S
C211 C212 1.372 . S
C212 H190 0.950 . S
C212 C211 1.372 . S
C212 C213 1.379 . S
C213 H191 0.948 . S
C213 C208 1.364 . S
C213 C212 1.379 . S
C214 C183 1.383 . S
C214 C201 1.479 . S
C214 C215 1.398 . S
C215 C180 1.382 . S
C215 H192 0.951 . S
C215 C214 1.398 . S
C216 C217 1.384 . S
C216 H229 0.947 . S
C216 C251 1.382 . S
C217 C216 1.384 . S
C217 C218 1.378 . S
C218 C217 1.378 . S
C218 C219 1.378 . S
C218 H230 0.952 . S
C219 C218 1.378 . S
C219 H231 0.950 . S
C219 C250 1.383 . S
H220 C239 0.947 . S
H221 C240 0.946 . S
H222 C242 0.953 . S
H223 C243 0.945 . S
H224 C245 0.952 . S
H225 C246 0.949 . S
H226 C248 0.950 . S
H227 C249 0.948 . S
H228 C251 0.951 . S
H229 C216 0.947 . S
H230 C218 0.952 . S
H231 C219 0.950 . S
N232 C235 1.382 . S
N232 C237 1.363 . S
N233 C235 1.371 . S
N233 C236 1.372 . S
N234 C236 1.361 . S
N234 C237 1.377 . S
C235 N232 1.382 . S
C235 N233 1.371 . S
C235 C238 1.480 . S
C236 N233 1.372 . S
C236 N234 1.361 . S
C236 C244 1.457 . S
C237 N232 1.363 . S
C237 N234 1.377 . S
C237 C250 1.479 . S
C238 C235 1.480 . S
C238 C239 1.383 . S
C238 C243 1.385 . S
C239 H220 0.947 . S
C239 C238 1.383 . S
C239 C240 1.388 . S
C240 H221 0.946 . S
C240 C239 1.388 . S
C240 C241 1.384 . S
C241 C240 1.384 . S
C241 C242 1.377 . S
C242 H222 0.953 . S
C242 C241 1.377 . S
C242 C243 1.369 . S
C243 H223 0.945 . S
C243 C238 1.385 . S
C243 C242 1.369 . S
C244 C236 1.457 . S
C244 C245 1.372 . S
C244 C249 1.364 . S
C245 H224 0.952 . S
C245 C244 1.372 . S
C245 C246 1.389 . S
C246 H225 0.949 . S
C246 C245 1.389 . S
C246 C247 1.387 . S
C247 C246 1.387 . S
C247 C248 1.372 . S
C248 H226 0.950 . S
C248 C247 1.372 . S
C248 C249 1.379 . S
C249 H227 0.948 . S
C249 C244 1.364 . S
C249 C248 1.379 . S
C250 C219 1.383 . S
C250 C237 1.479 . S
C250 C251 1.398 . S
C251 C216 1.382 . S
C251 H228 0.951 . S
C251 C250 1.398 . S
C252 C253 1.384 . S
C252 H265 0.947 . S
C252 C287 1.382 . S
C253 C252 1.384 . S
C253 C254 1.378 . S
C254 C253 1.378 . S
C254 C255 1.378 . S
C254 H266 0.952 . S
C255 C254 1.378 . S
C255 H267 0.950 . S
C255 C286 1.383 . S
H256 C275 0.947 . S
H257 C276 0.946 . S
H258 C278 0.953 . S
H259 C279 0.945 . S
H260 C281 0.952 . S
H261 C282 0.949 . S
H262 C284 0.950 . S
H263 C285 0.948 . S
H264 C287 0.951 . S
H265 C252 0.947 . S
H266 C254 0.952 . S
H267 C255 0.950 . S
N268 C271 1.382 . S
N268 C273 1.363 . S
N269 C271 1.371 . S
N269 C272 1.372 . S
N270 C272 1.361 . S
N270 C273 1.377 . S
C271 N268 1.382 . S
C271 N269 1.371 . S
C271 C274 1.480 . S
C272 N269 1.372 . S
C272 N270 1.361 . S
C272 C280 1.457 . S
C273 N268 1.363 . S
C273 N270 1.377 . S
C273 C286 1.479 . S
C274 C271 1.480 . S
C274 C275 1.383 . S
C274 C279 1.385 . S
C275 H256 0.947 . S
C275 C274 1.383 . S
C275 C276 1.388 . S
C276 H257 0.946 . S
C276 C275 1.388 . S
C276 C277 1.384 . S
C277 C276 1.384 . S
C277 C278 1.377 . S
C278 H258 0.953 . S
C278 C277 1.377 . S
C278 C279 1.369 . S
C279 H259 0.945 . S
C279 C274 1.385 . S
C279 C278 1.369 . S
C280 C272 1.457 . S
C280 C281 1.372 . S
C280 C285 1.364 . S
C281 H260 0.952 . S
C281 C280 1.372 . S
C281 C282 1.389 . S
C282 H261 0.949 . S
C282 C281 1.389 . S
C282 C283 1.387 . S
C283 C282 1.387 . S
C283 C284 1.372 . S
C284 H262 0.950 . S
C284 C283 1.372 . S
C284 C285 1.379 . S
C285 H263 0.948 . S
C285 C280 1.364 . S
C285 C284 1.379 . S
C286 C255 1.383 . S
C286 C273 1.479 . S
C286 C287 1.398 . S
C287 C252 1.382 . S
C287 H264 0.951 . S
C287 C286 1.398 . S
C288 C289 1.384 . S
C288 H301 0.947 . S
C288 C323 1.382 . S
C289 C288 1.384 . S
C289 C290 1.378 . S
C290 C289 1.378 . S
C290 C291 1.378 . S
C290 H302 0.952 . S
C291 C290 1.378 . S
C291 H303 0.950 . S
C291 C322 1.383 . S
H292 C311 0.947 . S
H293 C312 0.946 . S
H294 C314 0.953 . S
H295 C315 0.945 . S
H296 C317 0.952 . S
H297 C318 0.949 . S
H298 C320 0.950 . S
H299 C321 0.948 . S
H300 C323 0.951 . S
H301 C288 0.947 . S
H302 C290 0.952 . S
H303 C291 0.950 . S
N304 C307 1.382 . S
N304 C309 1.363 . S
N305 C307 1.371 . S
N305 C308 1.372 . S
N306 C308 1.361 . S
N306 C309 1.377 . S
C307 N304 1.382 . S
C307 N305 1.371 . S
C307 C310 1.480 . S
C308 N305 1.372 . S
C308 N306 1.361 . S
C308 C316 1.457 . S
C309 N304 1.363 . S
C309 N306 1.377 . S
C309 C322 1.479 . S
C310 C307 1.480 . S
C310 C311 1.383 . S
C310 C315 1.385 . S
C311 H292 0.947 . S
C311 C310 1.383 . S
C311 C312 1.388 . S
C312 H293 0.946 . S
C312 C311 1.388 . S
C312 C313 1.384 . S
C313 C312 1.384 . S
C313 C314 1.377 . S
C314 H294 0.953 . S
C314 C313 1.377 . S
C314 C315 1.369 . S
C315 H295 0.945 . S
C315 C310 1.385 . S
C315 C314 1.369 . S
C316 C308 1.457 . S
C316 C317 1.372 . S
C316 C321 1.364 . S
C317 H296 0.952 . S
C317 C316 1.372 . S
C317 C318 1.389 . S
C318 H297 0.949 . S
C318 C317 1.389 . S
C318 C319 1.387 . S
C319 C318 1.387 . S
C319 C320 1.372 . S
C320 H298 0.950 . S
C320 C319 1.372 . S
C320 C321 1.379 . S
C321 H299 0.948 . S
C321 C316 1.364 . S
C321 C320 1.379 . S
C322 C291 1.383 . S
C322 C309 1.479 . S
C322 C323 1.398 . S
C323 C288 1.382 . S
C323 H300 0.951 . S
C323 C322 1.398 . S
C324 C325 1.384 . S
C324 H337 0.947 . S
C324 C359 1.382 . S
C325 C324 1.384 . S
C325 C326 1.378 . S
C326 C325 1.378 . S
C326 C327 1.378 . S
C326 H338 0.952 . S
C327 C326 1.378 . S
C327 H339 0.950 . S
C327 C358 1.383 . S
H328 C347 0.947 . S
H329 C348 0.946 . S
H330 C350 0.953 . S
H331 C351 0.945 . S
H332 C353 0.952 . S
H333 C354 0.949 . S
H334 C356 0.950 . S
H335 C357 0.948 . S
H336 C359 0.951 . S
H337 C324 0.947 . S
H338 C326 0.952 . S
H339 C327 0.950 . S
N340 C343 1.382 . S
N340 C345 1.363 . S
N341 C343 1.371 . S
N341 C344 1.372 . S
N342 C344 1.361 . S
N342 C345 1.377 . S
C343 N340 1.382 . S
C343 N341 1.371 . S
C343 C346 1.480 . S
C344 N341 1.372 . S
C344 N342 1.361 . S
C344 C352 1.457 . S
C345 N340 1.363 . S
C345 N342 1.377 . S
C345 C358 1.479 . S
C346 C343 1.480 . S
C346 C347 1.383 . S
C346 C351 1.385 . S
C347 H328 0.947 . S
C347 C346 1.383 . S
C347 C348 1.388 . S
C348 H329 0.946 . S
C348 C347 1.388 . S
C348 C349 1.384 . S
C349 C348 1.384 . S
C349 C350 1.377 . S
C350 H330 0.953 . S
C350 C349 1.377 . S
C350 C351 1.369 . S
C351 H331 0.945 . S
C351 C346 1.385 . S
C351 C350 1.369 . S
C352 C344 1.457 . S
C352 C353 1.372 . S
C352 C357 1.364 . S
C353 H332 0.952 . S
C353 C352 1.372 . S
C353 C354 1.389 . S
C354 H333 0.949 . S
C354 C353 1.389 . S
C354 C355 1.387 . S
C355 C354 1.387 . S
C355 C356 1.372 . S
C356 H334 0.950 . S
C356 C355 1.372 . S
C356 C357 1.379 . S
C357 H335 0.948 . S
C357 C352 1.364 . S
C357 C356 1.379 . S
C358 C327 1.383 . S
C358 C345 1.479 . S
C358 C359 1.398 . S
C359 C324 1.382 . S
C359 H336 0.951 . S
C359 C358 1.398 . S
C360 C361 1.384 . S
C360 H373 0.947 . S
C360 C395 1.382 . S
C361 C360 1.384 . S
C361 C362 1.378 . S
C362 C361 1.378 . S
C362 C363 1.378 . S
C362 H374 0.952 . S
C363 C362 1.378 . S
C363 H375 0.950 . S
C363 C394 1.383 . S
H364 C383 0.947 . S
H365 C384 0.946 . S
H366 C386 0.953 . S
H367 C387 0.945 . S
H368 C389 0.952 . S
H369 C390 0.949 . S
H370 C392 0.950 . S
H371 C393 0.948 . S
H372 C395 0.951 . S
H373 C360 0.947 . S
H374 C362 0.952 . S
H375 C363 0.950 . S
N376 C379 1.382 . S
N376 C381 1.363 . S
N377 C379 1.371 . S
N377 C380 1.372 . S
N378 C380 1.361 . S
N378 C381 1.377 . S
C379 N376 1.382 . S
C379 N377 1.371 . S
C379 C382 1.480 . S
C380 N377 1.372 . S
C380 N378 1.361 . S
C380 C388 1.457 . S
C381 N376 1.363 . S
C381 N378 1.377 . S
C381 C394 1.479 . S
C382 C379 1.480 . S
C382 C383 1.383 . S
C382 C387 1.385 . S
C383 H364 0.947 . S
C383 C382 1.383 . S
C383 C384 1.388 . S
C384 H365 0.946 . S
C384 C383 1.388 . S
C384 C385 1.384 . S
C385 C384 1.384 . S
C385 C386 1.377 . S
C386 H366 0.953 . S
C386 C385 1.377 . S
C386 C387 1.369 . S
C387 H367 0.945 . S
C387 C382 1.385 . S
C387 C386 1.369 . S
C388 C380 1.457 . S
C388 C389 1.372 . S
C388 C393 1.364 . S
C389 H368 0.952 . S
C389 C388 1.372 . S
C389 C390 1.389 . S
C390 H369 0.949 . S
C390 C389 1.389 . S
C390 C391 1.387 . S
C391 C390 1.387 . S
C391 C392 1.372 . S
C392 H370 0.950 . S
C392 C391 1.372 . S
C392 C393 1.379 . S
C393 H371 0.948 . S
C393 C388 1.364 . S
C393 C392 1.379 . S
C394 C363 1.383 . S
C394 C381 1.479 . S
C394 C395 1.398 . S
C395 C360 1.382 . S
C395 H372 0.951 . S
C395 C394 1.398 . S
C396 C397 1.384 . S
C396 H409 0.947 . S
C396 C431 1.382 . S
C397 C396 1.384 . S
C397 C398 1.378 . S
C398 C397 1.378 . S
C398 C399 1.378 . S
C398 H410 0.952 . S
C399 C398 1.378 . S
C399 H411 0.950 . S
C399 C430 1.383 . S
H400 C419 0.947 . S
H401 C420 0.946 . S
H402 C422 0.953 . S
H403 C423 0.945 . S
H404 C425 0.952 . S
H405 C426 0.949 . S
H406 C428 0.950 . S
H407 C429 0.948 . S
H408 C431 0.951 . S
H409 C396 0.947 . S
H410 C398 0.952 . S
H411 C399 0.950 . S
N412 C415 1.382 . S
N412 C417 1.363 . S
N413 C415 1.371 . S
N413 C416 1.372 . S
N414 C416 1.361 . S
N414 C417 1.377 . S
C415 N412 1.382 . S
C415 N413 1.371 . S
C415 C418 1.480 . S
C416 N413 1.372 . S
C416 N414 1.361 . S
C416 C424 1.457 . S
C417 N412 1.363 . S
C417 N414 1.377 . S
C417 C430 1.479 . S
C418 C415 1.480 . S
C418 C419 1.383 . S
C418 C423 1.385 . S
C419 H400 0.947 . S
C419 C418 1.383 . S
C419 C420 1.388 . S
C420 H401 0.946 . S
C420 C419 1.388 . S
C420 C421 1.384 . S
C421 C420 1.384 . S
C421 C422 1.377 . S
C422 H402 0.953 . S
C422 C421 1.377 . S
C422 C423 1.369 . S
C423 H403 0.945 . S
C423 C418 1.385 . S
C423 C422 1.369 . S
C424 C416 1.457 . S
C424 C425 1.372 . S
C424 C429 1.364 . S
C425 H404 0.952 . S
C425 C424 1.372 . S
C425 C426 1.389 . S
C426 H405 0.949 . S
C426 C425 1.389 . S
C426 C427 1.387 . S
C427 C426 1.387 . S
C427 C428 1.372 . S
C428 H406 0.950 . S
C428 C427 1.372 . S
C428 C429 1.379 . S
C429 H407 0.948 . S
C429 C424 1.364 . S
C429 C428 1.379 . S
C430 C399 1.383 . S
C430 C417 1.479 . S
C430 C431 1.398 . S
C431 C396 1.382 . S
C431 H408 0.951 . S
C431 C430 1.398 . S
C432 C433 1.384 . S
C432 H445 0.947 . S
C432 C467 1.382 . S
C433 C432 1.384 . S
C433 C434 1.378 . S
C434 C433 1.378 . S
C434 C435 1.378 . S
C434 H446 0.952 . S
C435 C434 1.378 . S
C435 H447 0.950 . S
C435 C466 1.383 . S
H436 C455 0.947 . S
H437 C456 0.946 . S
H438 C458 0.953 . S
H439 C459 0.945 . S
H440 C461 0.952 . S
H441 C462 0.949 . S
H442 C464 0.950 . S
H443 C465 0.948 . S
H444 C467 0.951 . S
H445 C432 0.947 . S
H446 C434 0.952 . S
H447 C435 0.950 . S
N448 C451 1.382 . S
N448 C453 1.363 . S
N449 C451 1.371 . S
N449 C452 1.372 . S
N450 C452 1.361 . S
N450 C453 1.377 . S
C451 N448 1.382 . S
C451 N449 1.371 . S
C451 C454 1.480 . S
C452 N449 1.372 . S
C452 N450 1.361 . S
C452 C460 1.457 . S
C453 N448 1.363 . S
C453 N450 1.377 . S
C453 C466 1.479 . S
C454 C451 1.480 . S
C454 C455 1.383 . S
C454 C459 1.385 . S
C455 H436 0.947 . S
C455 C454 1.383 . S
C455 C456 1.388 . S
C456 H437 0.946 . S
C456 C455 1.388 . S
C456 C457 1.384 . S
C457 C456 1.384 . S
C457 C458 1.377 . S
C458 H438 0.953 . S
C458 C457 1.377 . S
C458 C459 1.369 . S
C459 H439 0.945 . S
C459 C454 1.385 . S
C459 C458 1.369 . S
C460 C452 1.457 . S
C460 C461 1.372 . S
C460 C465 1.364 . S
C461 H440 0.952 . S
C461 C460 1.372 . S
C461 C462 1.389 . S
C462 H441 0.949 . S
C462 C461 1.389 . S
C462 C463 1.387 . S
C463 C462 1.387 . S
C463 C464 1.372 . S
C464 H442 0.950 . S
C464 C463 1.372 . S
C464 C465 1.379 . S
C465 H443 0.948 . S
C465 C460 1.364 . S
C465 C464 1.379 . S
C466 C435 1.383 . S
C466 C453 1.479 . S
C466 C467 1.398 . S
C467 C432 1.382 . S
C467 H444 0.951 . S
C467 C466 1.398 . S
C468 C469 1.384 . S
C468 H481 0.947 . S
C468 C503 1.382 . S
C469 C468 1.384 . S
C469 C470 1.378 . S
C470 C469 1.378 . S
C470 C471 1.378 . S
C470 H482 0.952 . S
C471 C470 1.378 . S
C471 H483 0.950 . S
C471 C502 1.383 . S
H472 C491 0.947 . S
H473 C492 0.946 . S
H474 C494 0.953 . S
H475 C495 0.945 . S
H476 C497 0.952 . S
H477 C498 0.949 . S
H478 C500 0.950 . S
H479 C501 0.948 . S
H480 C503 0.951 . S
H481 C468 0.947 . S
H482 C470 0.952 . S
H483 C471 0.950 . S
N484 C487 1.382 . S
N484 C489 1.363 . S
N485 C487 1.371 . S
N485 C488 1.372 . S
N486 C488 1.361 . S
N486 C489 1.377 . S
C487 N484 1.382 . S
C487 N485 1.371 . S
C487 C490 1.480 . S
C488 N485 1.372 . S
C488 N486 1.361 . S
C488 C496 1.457 . S
C489 N484 1.363 . S
C489 N486 1.377 . S
C489 C502 1.479 . S
C490 C487 1.480 . S
C490 C491 1.383 . S
C490 C495 1.385 . S
C491 H472 0.947 . S
C491 C490 1.383 . S
C491 C492 1.388 . S
C492 H473 0.946 . S
C492 C491 1.388 . S
C492 C493 1.384 . S
C493 C492 1.384 . S
C493 C494 1.377 . S
C494 H474 0.953 . S
C494 C493 1.377 . S
C494 C495 1.369 . S
C495 H475 0.945 . S
C495 C490 1.385 . S
C495 C494 1.369 . S
C496 C488 1.457 . S
C496 C497 1.372 . S
C496 C501 1.364 . S
C497 H476 0.952 . S
C497 C496 1.372 . S
C497 C498 1.389 . S
C498 H477 0.949 . S
C498 C497 1.389 . S
C498 C499 1.387 . S
C499 C498 1.387 . S
C499 C500 1.372 . S
C500 H478 0.950 . S
C500 C499 1.372 . S
C500 C501 1.379 . S
C501 H479 0.948 . S
C501 C496 1.364 . S
C501 C500 1.379 . S
C502 C471 1.383 . S
C502 C489 1.479 . S
C502 C503 1.398 . S
C503 C468 1.382 . S
C503 H480 0.951 . S
C503 C502 1.398 . S
C504 C505 1.384 . S
C504 H517 0.947 . S
C504 C539 1.382 . S
C505 C504 1.384 . S
C505 C506 1.378 . S
C506 C505 1.378 . S
C506 C507 1.378 . S
C506 H518 0.952 . S
C507 C506 1.378 . S
C507 H519 0.950 . S
C507 C538 1.383 . S
H508 C527 0.947 . S
H509 C528 0.946 . S
H510 C530 0.953 . S
H511 C531 0.945 . S
H512 C533 0.952 . S
H513 C534 0.949 . S
H514 C536 0.950 . S
H515 C537 0.948 . S
H516 C539 0.951 . S
H517 C504 0.947 . S
H518 C506 0.952 . S
H519 C507 0.950 . S
N520 C523 1.382 . S
N520 C525 1.363 . S
N521 C523 1.371 . S
N521 C524 1.372 . S
N522 C524 1.361 . S
N522 C525 1.377 . S
C523 N520 1.382 . S
C523 N521 1.371 . S
C523 C526 1.480 . S
C524 N521 1.372 . S
C524 N522 1.361 . S
C524 C532 1.457 . S
C525 N520 1.363 . S
C525 N522 1.377 . S
C525 C538 1.479 . S
C526 C523 1.480 . S
C526 C527 1.383 . S
C526 C531 1.385 . S
C527 H508 0.947 . S
C527 C526 1.383 . S
C527 C528 1.388 . S
C528 H509 0.946 . S
C528 C527 1.388 . S
C528 C529 1.384 . S
C529 C528 1.384 . S
C529 C530 1.377 . S
C530 H510 0.953 . S
C530 C529 1.377 . S
C530 C531 1.369 . S
C531 H511 0.945 . S
C531 C526 1.385 . S
C531 C530 1.369 . S
C532 C524 1.457 . S
C532 C533 1.372 . S
C532 C537 1.364 . S
C533 H512 0.952 . S
C533 C532 1.372 . S
C533 C534 1.389 . S
C534 H513 0.949 . S
C534 C533 1.389 . S
C534 C535 1.387 . S
C535 C534 1.387 . S
C535 C536 1.372 . S
C536 H514 0.950 . S
C536 C535 1.372 . S
C536 C537 1.379 . S
C537 H515 0.948 . S
C537 C532 1.364 . S
C537 C536 1.379 . S
C538 C507 1.383 . S
C538 C525 1.479 . S
C538 C539 1.398 . S
C539 C504 1.382 . S
C539 H516 0.951 . S
C539 C538 1.398 . S
C540 C541 1.384 . S
C540 H553 0.947 . S
C540 C575 1.382 . S
C541 C540 1.384 . S
C541 C542 1.378 . S
C542 C541 1.378 . S
C542 C543 1.378 . S
C542 H554 0.952 . S
C543 C542 1.378 . S
C543 H555 0.950 . S
C543 C574 1.383 . S
H544 C563 0.947 . S
H545 C564 0.946 . S
H546 C566 0.953 . S
H547 C567 0.945 . S
H548 C569 0.952 . S
H549 C570 0.949 . S
H550 C572 0.950 . S
H551 C573 0.948 . S
H552 C575 0.951 . S
H553 C540 0.947 . S
H554 C542 0.952 . S
H555 C543 0.950 . S
N556 C559 1.382 . S
N556 C561 1.363 . S
N557 C559 1.371 . S
N557 C560 1.372 . S
N558 C560 1.361 . S
N558 C561 1.377 . S
C559 N556 1.382 . S
C559 N557 1.371 . S
C559 C562 1.480 . S
C560 N557 1.372 . S
C560 N558 1.361 . S
C560 C568 1.457 . S
C561 N556 1.363 . S
C561 N558 1.377 . S
C561 C574 1.479 . S
C562 C559 1.480 . S
C562 C563 1.383 . S
C562 C567 1.385 . S
C563 H544 0.947 . S
C563 C562 1.383 . S
C563 C564 1.388 . S
C564 H545 0.946 . S
C564 C563 1.388 . S
C564 C565 1.384 . S
C565 C564 1.384 . S
C565 C566 1.377 . S
C566 H546 0.953 . S
C566 C565 1.377 . S
C566 C567 1.369 . S
C567 H547 0.945 . S
C567 C562 1.385 . S
C567 C566 1.369 . S
C568 C560 1.457 . S
C568 C569 1.372 . S
C568 C573 1.364 . S
C569 H548 0.952 . S
C569 C568 1.372 . S
C569 C570 1.389 . S
C570 H549 0.949 . S
C570 C569 1.389 . S
C570 C571 1.387 . S
C571 C570 1.387 . S
C571 C572 1.372 . S
C572 H550 0.950 . S
C572 C571 1.372 . S
C572 C573 1.379 . S
C573 H551 0.948 . S
C573 C568 1.364 . S
C573 C572 1.379 . S
C574 C543 1.383 . S
C574 C561 1.479 . S
C574 C575 1.398 . S
C575 C540 1.382 . S
C575 H552 0.951 . S
C575 C574 1.398 . S
C576 C577 1.384 . S
C576 H589 0.947 . S
C576 C611 1.382 . S
C577 C576 1.384 . S
C577 C578 1.378 . S
C578 C577 1.378 . S
C578 C579 1.378 . S
C578 H590 0.952 . S
C579 C578 1.378 . S
C579 H591 0.950 . S
C579 C610 1.383 . S
H580 C599 0.947 . S
H581 C600 0.946 . S
H582 C602 0.953 . S
H583 C603 0.945 . S
H584 C605 0.952 . S
H585 C606 0.949 . S
H586 C608 0.950 . S
H587 C609 0.948 . S
H588 C611 0.951 . S
H589 C576 0.947 . S
H590 C578 0.952 . S
H591 C579 0.950 . S
N592 C595 1.382 . S
N592 C597 1.363 . S
N593 C595 1.371 . S
N593 C596 1.372 . S
N594 C596 1.361 . S
N594 C597 1.377 . S
C595 N592 1.382 . S
C595 N593 1.371 . S
C595 C598 1.480 . S
C596 N593 1.372 . S
C596 N594 1.361 . S
C596 C604 1.457 . S
C597 N592 1.363 . S
C597 N594 1.377 . S
C597 C610 1.479 . S
C598 C595 1.480 . S
C598 C599 1.383 . S
C598 C603 1.385 . S
C599 H580 0.947 . S
C599 C598 1.383 . S
C599 C600 1.388 . S
C600 H581 0.946 . S
C600 C599 1.388 . S
C600 C601 1.384 . S
C601 C600 1.384 . S
C601 C602 1.377 . S
C602 H582 0.953 . S
C602 C601 1.377 . S
C602 C603 1.369 . S
C603 H583 0.945 . S
C603 C598 1.385 . S
C603 C602 1.369 . S
C604 C596 1.457 . S
C604 C605 1.372 . S
C604 C609 1.364 . S
C605 H584 0.952 . S
C605 C604 1.372 . S
C605 C606 1.389 . S
C606 H585 0.949 . S
C606 C605 1.389 . S
C606 C607 1.387 . S
C607 C606 1.387 . S
C607 C608 1.372 . S
C608 H586 0.950 . S
C608 C607 1.372 . S
C608 C609 1.379 . S
C609 H587 0.948 . S
C609 C604 1.364 . S
C609 C608 1.379 . S
C610 C579 1.383 . S
C610 C597 1.479 . S
C610 C611 1.398 . S
C611 C576 1.382 . S
C611 H588 0.951 . S
C611 C610 1.398 . S
C612 C613 1.384 . S
C612 H625 0.947 . S
C612 C647 1.382 . S
C613 C612 1.384 . S
C613 C614 1.378 . S
C614 C613 1.378 . S
C614 C615 1.378 . S
C614 H626 0.952 . S
C615 C614 1.378 . S
C615 H627 0.950 . S
C615 C646 1.383 . S
H616 C635 0.947 . S
H617 C636 0.946 . S
H618 C638 0.953 . S
H619 C639 0.945 . S
H620 C641 0.952 . S
H621 C642 0.949 . S
H622 C644 0.950 . S
H623 C645 0.948 . S
H624 C647 0.951 . S
H625 C612 0.947 . S
H626 C614 0.952 . S
H627 C615 0.950 . S
N628 C631 1.382 . S
N628 C633 1.363 . S
N629 C631 1.371 . S
N629 C632 1.372 . S
N630 C632 1.361 . S
N630 C633 1.377 . S
C631 N628 1.382 . S
C631 N629 1.371 . S
C631 C634 1.480 . S
C632 N629 1.372 . S
C632 N630 1.361 . S
C632 C640 1.457 . S
C633 N628 1.363 . S
C633 N630 1.377 . S
C633 C646 1.479 . S
C634 C631 1.480 . S
C634 C635 1.383 . S
C634 C639 1.385 . S
C635 H616 0.947 . S
C635 C634 1.383 . S
C635 C636 1.388 . S
C636 H617 0.946 . S
C636 C635 1.388 . S
C636 C637 1.384 . S
C637 C636 1.384 . S
C637 C638 1.377 . S
C638 H618 0.953 . S
C638 C637 1.377 . S
C638 C639 1.369 . S
C639 H619 0.945 . S
C639 C634 1.385 . S
C639 C638 1.369 . S
C640 C632 1.457 . S
C640 C641 1.372 . S
C640 C645 1.364 . S
C641 H620 0.952 . S
C641 C640 1.372 . S
C641 C642 1.389 . S
C642 H621 0.949 . S
C642 C641 1.389 . S
C642 C643 1.387 . S
C643 C642 1.387 . S
C643 C644 1.372 . S
C644 H622 0.950 . S
C644 C643 1.372 . S
C644 C645 1.379 . S
C645 H623 0.948 . S
C645 C640 1.364 . S
C645 C644 1.379 . S
C646 C615 1.383 . S
C646 C633 1.479 . S
C646 C647 1.398 . S
C647 C612 1.382 . S
C647 H624 0.951 . S
C647 C646 1.398 . S
Tb648 N679 2.660 . S
Tb648 N686 2.600 . S
Tb648 O692 2.546 . S
Tb648 O693 2.610 1_565 S
Tb648 O695 2.320 1_565 S
Tb648 O696 2.552 1_565 S
Tb648 O697 2.413 . S
Tb648 O699 2.362 1_556 S
Tb648 O700 2.421 . S
Tb648 C712 2.833 . S
C649 C652 1.432 . S
C649 C653 1.414 . S
C649 N656 1.359 . S
C650 C652 1.417 . S
C650 C654 1.432 . S
C650 C662 1.410 . S
C651 C653 1.444 . S
C651 C654 1.317 . S
C651 H674 0.929 . S
C652 C649 1.432 . S
C652 C650 1.417 . S
C652 N660 1.360 . S
C653 C649 1.414 . S
C653 C651 1.444 . S
C653 C658 1.385 . S
C654 C650 1.432 . S
C654 C651 1.317 . S
C654 H666 0.930 . S
C655 C657 1.392 . S
C655 C658 1.370 . S
C655 H667 0.931 . S
N656 C649 1.359 . S
N656 C657 1.327 . S
N656 Tb659 2.600 . S
C657 C655 1.392 . S
C657 N656 1.327 . S
C657 H664 0.930 . S
C658 C653 1.385 . S
C658 C655 1.370 . S
C658 H677 0.930 . S
Tb659 N656 2.600 . S
Tb659 N660 2.660 . S
Tb659 O693 2.362 1_554 S
Tb659 O694 2.421 . S
Tb659 O698 2.546 . S
Tb659 O699 2.610 1_545 S
Tb659 O701 2.320 1_545 S
Tb659 O702 2.552 1_545 S
Tb659 O703 2.413 . S
Tb659 C723 2.833 . S
N660 C652 1.360 . S
N660 Tb659 2.660 . S
N660 C661 1.305 . S
C661 N660 1.305 . S
C661 C663 1.407 . S
C661 H668 0.930 . S
C662 C650 1.410 . S
C662 C663 1.345 . S
C662 H670 0.930 . S
C663 C661 1.407 . S
C663 C662 1.345 . S
C663 H665 0.930 . S
H664 C657 0.930 . S
H665 C663 0.930 . S
H666 C654 0.930 . S
H667 C655 0.931 . S
H668 C661 0.930 . S
H669 C683 0.930 . S
H670 C662 0.930 . S
H671 C689 0.930 . S
H672 C680 0.930 . S
H673 C687 0.931 . S
H674 C651 0.929 . S
H675 C681 0.930 . S
H676 C714 0.930 . S
H677 C658 0.930 . S
H678 C713 0.929 . S
N679 Tb648 2.660 . S
N679 C680 1.305 . S
N679 C684 1.360 . S
C680 H672 0.930 . S
C680 N679 1.305 . S
C680 C683 1.407 . S
C681 H675 0.930 . S
C681 C682 1.410 . S
C681 C683 1.345 . S
C682 C681 1.410 . S
C682 C684 1.417 . S
C682 C714 1.432 . S
C683 H669 0.930 . S
C683 C680 1.407 . S
C683 C681 1.345 . S
C684 N679 1.360 . S
C684 C682 1.417 . S
C684 C688 1.432 . S
H685 C690 0.930 . S
N686 Tb648 2.600 . S
N686 C688 1.359 . S
N686 C689 1.327 . S
C687 H673 0.931 . S
C687 C689 1.392 . S
C687 C690 1.370 . S
C688 C684 1.432 . S
C688 N686 1.359 . S
C688 C691 1.414 . S
C689 H671 0.930 . S
C689 N686 1.327 . S
C689 C687 1.392 . S
C690 H685 0.930 . S
C690 C687 1.370 . S
C690 C691 1.385 . S
C691 C688 1.414 . S
C691 C690 1.385 . S
C691 C713 1.444 . S
O692 Tb648 2.546 . S
O692 C712 1.251 . S
O693 Tb648 2.610 1_545 S
O693 Tb659 2.362 1_556 S
O693 C704 1.283 . S
O694 Tb659 2.421 . S
O694 C711 1.262 1_554 S
O695 Tb648 2.320 1_545 S
O695 C711 1.260 . S
O696 Tb648 2.552 1_545 S
O696 C704 1.243 . S
O697 Tb648 2.413 . S
O697 C712 1.256 . S
O698 Tb659 2.546 . S
O698 C723 1.251 . S
O699 Tb648 2.362 1_554 S
O699 Tb659 2.610 1_565 S
O699 C715 1.283 . S
O700 Tb648 2.421 . S
O700 C722 1.262 1_556 S
O701 Tb659 2.320 1_565 S
O701 C722 1.260 . S
O702 Tb659 2.552 1_565 S
O702 C715 1.243 . S
O703 Tb659 2.413 . S
O703 C723 1.256 . S
C704 O693 1.283 . S
C704 O696 1.243 . S
C705 C707 1.382 1_565 S
C705 C709 1.393 . S
C705 C712 1.500 . S
C706 C707 1.400 . S
C706 C708 1.384 1_545 S
C707 C705 1.382 1_545 S
C707 C706 1.400 . S
C707 H724 0.930 . S
C708 C706 1.384 1_565 S
C708 C710 1.392 . S
C708 H725 0.931 . S
C709 C705 1.393 . S
C709 C710 1.401 . S
C709 H726 0.930 . S
C710 C708 1.392 . S
C710 C709 1.401 . S
C710 H727 0.930 . S
C711 O694 1.262 1_556 S
C711 O695 1.260 . S
C712 Tb648 2.833 . S
C712 O692 1.251 . S
C712 O697 1.256 . S
C712 C705 1.500 . S
C713 H678 0.929 . S
C713 C691 1.444 . S
C713 C714 1.317 . S
C714 H676 0.930 . S
C714 C682 1.432 . S
C714 C713 1.317 . S
C715 O699 1.283 . S
C715 O702 1.243 . S
C716 C717 1.382 1_545 S
C716 C720 1.393 . S
C716 C723 1.500 . S
C717 C716 1.382 1_565 S
C717 C718 1.400 . S
C717 H728 0.930 . S
C718 C717 1.400 . S
C718 C719 1.384 1_565 S
C719 C718 1.384 1_545 S
C719 C721 1.392 . S
C719 H729 0.931 . S
C720 C716 1.393 . S
C720 C721 1.401 . S
C720 H730 0.930 . S
C721 C719 1.392 . S
C721 C720 1.401 . S
C721 H731 0.930 . S
C722 O700 1.262 1_554 S
C722 O701 1.260 . S
C723 Tb659 2.833 . S
C723 O698 1.251 . S
C723 O703 1.256 . S
C723 C716 1.500 . S
H724 C707 0.930 . S
H725 C708 0.931 . S
H726 C709 0.930 . S
H727 C710 0.930 . S
H728 C717 0.930 . S
H729 C719 0.931 . S
H730 C720 0.930 . S
H731 C721 0.930 . S
Tb732 N763 2.660 . S
Tb732 N770 2.600 . S
Tb732 O776 2.546 . S
Tb732 O777 2.610 1_455 S
Tb732 O779 2.320 1_455 S
Tb732 O780 2.552 1_455 S
Tb732 O781 2.413 . S
Tb732 O783 2.362 1_556 S
Tb732 O784 2.421 . S
Tb732 C796 2.833 . S
C733 C736 1.432 . S
C733 C737 1.414 . S
C733 N740 1.359 . S
C734 C736 1.417 . S
C734 C738 1.432 . S
C734 C746 1.410 . S
C735 C737 1.444 . S
C735 C738 1.317 . S
C735 H758 0.929 . S
C736 C733 1.432 . S
C736 C734 1.417 . S
C736 N744 1.360 . S
C737 C733 1.414 . S
C737 C735 1.444 . S
C737 C742 1.385 . S
C738 C734 1.432 . S
C738 C735 1.317 . S
C738 H750 0.930 . S
C739 C741 1.392 . S
C739 C742 1.370 . S
C739 H751 0.931 . S
N740 C733 1.359 . S
N740 C741 1.327 . S
N740 Tb743 2.600 . S
C741 C739 1.392 . S
C741 N740 1.327 . S
C741 H748 0.930 . S
C742 C737 1.385 . S
C742 C739 1.370 . S
C742 H761 0.930 . S
Tb743 N740 2.600 . S
Tb743 N744 2.660 . S
Tb743 O777 2.362 1_554 S
Tb743 O778 2.421 . S
Tb743 O782 2.546 . S
Tb743 O783 2.610 1_655 S
Tb743 O785 2.320 1_655 S
Tb743 O786 2.552 1_655 S
Tb743 O787 2.413 . S
Tb743 C807 2.833 . S
N744 C736 1.360 . S
N744 Tb743 2.660 . S
N744 C745 1.305 . S
C745 N744 1.305 . S
C745 C747 1.407 . S
C745 H752 0.930 . S
C746 C734 1.410 . S
C746 C747 1.345 . S
C746 H754 0.930 . S
C747 C745 1.407 . S
C747 C746 1.345 . S
C747 H749 0.930 . S
H748 C741 0.930 . S
H749 C747 0.930 . S
H750 C738 0.930 . S
H751 C739 0.931 . S
H752 C745 0.930 . S
H753 C767 0.930 . S
H754 C746 0.930 . S
H755 C773 0.930 . S
H756 C764 0.930 . S
H757 C771 0.931 . S
H758 C735 0.929 . S
H759 C765 0.930 . S
H760 C798 0.930 . S
H761 C742 0.930 . S
H762 C797 0.929 . S
N763 Tb732 2.660 . S
N763 C764 1.305 . S
N763 C768 1.360 . S
C764 H756 0.930 . S
C764 N763 1.305 . S
C764 C767 1.407 . S
C765 H759 0.930 . S
C765 C766 1.410 . S
C765 C767 1.345 . S
C766 C765 1.410 . S
C766 C768 1.417 . S
C766 C798 1.432 . S
C767 H753 0.930 . S
C767 C764 1.407 . S
C767 C765 1.345 . S
C768 N763 1.360 . S
C768 C766 1.417 . S
C768 C772 1.432 . S
H769 C774 0.930 . S
N770 Tb732 2.600 . S
N770 C772 1.359 . S
N770 C773 1.327 . S
C771 H757 0.931 . S
C771 C773 1.392 . S
C771 C774 1.370 . S
C772 C768 1.432 . S
C772 N770 1.359 . S
C772 C775 1.414 . S
C773 H755 0.930 . S
C773 N770 1.327 . S
C773 C771 1.392 . S
C774 H769 0.930 . S
C774 C771 1.370 . S
C774 C775 1.385 . S
C775 C772 1.414 . S
C775 C774 1.385 . S
C775 C797 1.444 . S
O776 Tb732 2.546 . S
O776 C796 1.251 . S
O777 Tb732 2.610 1_655 S
O777 Tb743 2.362 1_556 S
O777 C788 1.283 . S
O778 Tb743 2.421 . S
O778 C795 1.262 1_554 S
O779 Tb732 2.320 1_655 S
O779 C795 1.260 . S
O780 Tb732 2.552 1_655 S
O780 C788 1.243 . S
O781 Tb732 2.413 . S
O781 C796 1.256 . S
O782 Tb743 2.546 . S
O782 C807 1.251 . S
O783 Tb732 2.362 1_554 S
O783 Tb743 2.610 1_455 S
O783 C799 1.283 . S
O784 Tb732 2.421 . S
O784 C806 1.262 1_556 S
O785 Tb743 2.320 1_455 S
O785 C806 1.260 . S
O786 Tb743 2.552 1_455 S
O786 C799 1.243 . S
O787 Tb743 2.413 . S
O787 C807 1.256 . S
C788 O777 1.283 . S
C788 O780 1.243 . S
C789 C791 1.382 1_455 S
C789 C793 1.393 . S
C789 C796 1.500 . S
C790 C791 1.400 . S
C790 C792 1.384 1_655 S
C791 C789 1.382 1_655 S
C791 C790 1.400 . S
C791 H808 0.930 . S
C792 C790 1.384 1_455 S
C792 C794 1.392 . S
C792 H809 0.931 . S
C793 C789 1.393 . S
C793 C794 1.401 . S
C793 H810 0.930 . S
C794 C792 1.392 . S
C794 C793 1.401 . S
C794 H811 0.930 . S
C795 O778 1.262 1_556 S
C795 O779 1.260 . S
C796 Tb732 2.833 . S
C796 O776 1.251 . S
C796 O781 1.256 . S
C796 C789 1.500 . S
C797 H762 0.929 . S
C797 C775 1.444 . S
C797 C798 1.317 . S
C798 H760 0.930 . S
C798 C766 1.432 . S
C798 C797 1.317 . S
C799 O783 1.283 . S
C799 O786 1.243 . S
C800 C801 1.382 1_655 S
C800 C804 1.393 . S
C800 C807 1.500 . S
C801 C800 1.382 1_455 S
C801 C802 1.400 . S
C801 H812 0.930 . S
C802 C801 1.400 . S
C802 C803 1.384 1_455 S
C803 C802 1.384 1_655 S
C803 C805 1.392 . S
C803 H813 0.931 . S
C804 C800 1.393 . S
C804 C805 1.401 . S
C804 H814 0.930 . S
C805 C803 1.392 . S
C805 C804 1.401 . S
C805 H815 0.930 . S
C806 O784 1.262 1_554 S
C806 O785 1.260 . S
C807 Tb743 2.833 . S
C807 O782 1.251 . S
C807 O787 1.256 . S
C807 C800 1.500 . S
H808 C791 0.930 . S
H809 C792 0.931 . S
H810 C793 0.930 . S
H811 C794 0.930 . S
H812 C801 0.930 . S
H813 C803 0.931 . S
H814 C804 0.930 . S
H815 C805 0.930 . S
Tb816 N847 2.660 . S
Tb816 N854 2.600 . S
Tb816 O860 2.546 . S
Tb816 O861 2.610 . S
Tb816 O863 2.320 . S
Tb816 O864 2.552 . S
Tb816 O865 2.413 . S
Tb816 O867 2.362 1_554 S
Tb816 O868 2.421 . S
Tb816 C880 2.833 . S
C817 C820 1.432 . S
C817 C821 1.414 . S
C817 N824 1.359 . S
C818 C820 1.417 . S
C818 C822 1.432 . S
C818 C830 1.410 . S
C819 C821 1.444 . S
C819 C822 1.317 . S
C819 H842 0.929 . S
C820 C817 1.432 . S
C820 C818 1.417 . S
C820 N828 1.360 . S
C821 C817 1.414 . S
C821 C819 1.444 . S
C821 C826 1.385 . S
C822 C818 1.432 . S
C822 C819 1.317 . S
C822 H834 0.930 . S
C823 C825 1.392 . S
C823 C826 1.370 . S
C823 H835 0.931 . S
N824 C817 1.359 . S
N824 C825 1.327 . S
N824 Tb827 2.600 . S
C825 C823 1.392 . S
C825 N824 1.327 . S
C825 H832 0.930 . S
C826 C821 1.385 . S
C826 C823 1.370 . S
C826 H845 0.930 . S
Tb827 N824 2.600 . S
Tb827 N828 2.660 . S
Tb827 O861 2.362 1_556 S
Tb827 O862 2.421 . S
Tb827 O866 2.546 . S
Tb827 O867 2.610 . S
Tb827 O869 2.320 . S
Tb827 O870 2.552 . S
Tb827 O871 2.413 . S
Tb827 C891 2.833 . S
N828 C820 1.360 . S
N828 Tb827 2.660 . S
N828 C829 1.305 . S
C829 N828 1.305 . S
C829 C831 1.407 . S
C829 H836 0.930 . S
C830 C818 1.410 . S
C830 C831 1.345 . S
C830 H838 0.930 . S
C831 C829 1.407 . S
C831 C830 1.345 . S
C831 H833 0.930 . S
H832 C825 0.930 . S
H833 C831 0.930 . S
H834 C822 0.930 . S
H835 C823 0.931 . S
H836 C829 0.930 . S
H837 C851 0.930 . S
H838 C830 0.930 . S
H839 C857 0.930 . S
H840 C848 0.930 . S
H841 C855 0.931 . S
H842 C819 0.929 . S
H843 C849 0.930 . S
H844 C882 0.930 . S
H845 C826 0.930 . S
H846 C881 0.929 . S
N847 Tb816 2.660 . S
N847 C848 1.305 . S
N847 C852 1.360 . S
C848 H840 0.930 . S
C848 N847 1.305 . S
C848 C851 1.407 . S
C849 H843 0.930 . S
C849 C850 1.410 . S
C849 C851 1.345 . S
C850 C849 1.410 . S
C850 C852 1.417 . S
C850 C882 1.432 . S
C851 H837 0.930 . S
C851 C848 1.407 . S
C851 C849 1.345 . S
C852 N847 1.360 . S
C852 C850 1.417 . S
C852 C856 1.432 . S
H853 C858 0.930 . S
N854 Tb816 2.600 . S
N854 C856 1.359 . S
N854 C857 1.327 . S
C855 H841 0.931 . S
C855 C857 1.392 . S
C855 C858 1.370 . S
C856 C852 1.432 . S
C856 N854 1.359 . S
C856 C859 1.414 . S
C857 H839 0.930 . S
C857 N854 1.327 . S
C857 C855 1.392 . S
C858 H853 0.930 . S
C858 C855 1.370 . S
C858 C859 1.385 . S
C859 C856 1.414 . S
C859 C858 1.385 . S
C859 C881 1.444 . S
O860 Tb816 2.546 . S
O860 C880 1.251 . S
O861 Tb816 2.610 . S
O861 Tb827 2.362 1_554 S
O861 C872 1.283 . S
O862 Tb827 2.421 . S
O862 C879 1.262 1_556 S
O863 Tb816 2.320 . S
O863 C879 1.260 . S
O864 Tb816 2.552 . S
O864 C872 1.243 . S
O865 Tb816 2.413 . S
O865 C880 1.256 . S
O866 Tb827 2.546 . S
O866 C891 1.251 . S
O867 Tb816 2.362 1_556 S
O867 Tb827 2.610 . S
O867 C883 1.283 . S
O868 Tb816 2.421 . S
O868 C890 1.262 1_554 S
O869 Tb827 2.320 . S
O869 C890 1.260 . S
O870 Tb827 2.552 . S
O870 C883 1.243 . S
O871 Tb827 2.413 . S
O871 C891 1.256 . S
C872 O861 1.283 . S
C872 O864 1.243 . S
C873 C875 1.382 . S
C873 C877 1.393 . S
C873 C880 1.500 . S
C874 C875 1.400 . S
C874 C876 1.384 . S
C875 C873 1.382 . S
C875 C874 1.400 . S
C875 H892 0.930 . S
C876 C874 1.384 . S
C876 C878 1.392 . S
C876 H893 0.931 . S
C877 C873 1.393 . S
C877 C878 1.401 . S
C877 H894 0.930 . S
C878 C876 1.392 . S
C878 C877 1.401 . S
C878 H895 0.930 . S
C879 O862 1.262 1_554 S
C879 O863 1.260 . S
C880 Tb816 2.833 . S
C880 O860 1.251 . S
C880 O865 1.256 . S
C880 C873 1.500 . S
C881 H846 0.929 . S
C881 C859 1.444 . S
C881 C882 1.317 . S
C882 H844 0.930 . S
C882 C850 1.432 . S
C882 C881 1.317 . S
C883 O867 1.283 . S
C883 O870 1.243 . S
C884 C885 1.382 . S
C884 C888 1.393 . S
C884 C891 1.500 . S
C885 C884 1.382 . S
C885 C886 1.400 . S
C885 H896 0.930 . S
C886 C885 1.400 . S
C886 C887 1.384 . S
C887 C886 1.384 . S
C887 C889 1.392 . S
C887 H897 0.931 . S
C888 C884 1.393 . S
C888 C889 1.401 . S
C888 H898 0.930 . S
C889 C887 1.392 . S
C889 C888 1.401 . S
C889 H899 0.930 . S
C890 O868 1.262 1_556 S
C890 O869 1.260 . S
C891 Tb827 2.833 . S
C891 O866 1.251 . S
C891 O871 1.256 . S
C891 C884 1.500 . S
H892 C875 0.930 . S
H893 C876 0.931 . S
H894 C877 0.930 . S
H895 C878 0.930 . S
H896 C885 0.930 . S
H897 C887 0.931 . S
H898 C888 0.930 . S
H899 C889 0.930 . S
Tb900 N931 2.660 . S
Tb900 N938 2.600 . S
Tb900 O944 2.546 . S
Tb900 O945 2.610 . S
Tb900 O947 2.320 . S
Tb900 O948 2.552 . S
Tb900 O949 2.413 . S
Tb900 O951 2.362 . S
Tb900 O952 2.421 . S
Tb900 C964 2.833 . S
C901 C904 1.432 . S
C901 C905 1.414 . S
C901 N908 1.359 . S
C902 C904 1.417 . S
C902 C906 1.432 . S
C902 C914 1.410 . S
C903 C905 1.444 . S
C903 C906 1.317 . S
C903 H926 0.929 . S
C904 C901 1.432 . S
C904 C902 1.417 . S
C904 N912 1.360 . S
C905 C901 1.414 . S
C905 C903 1.444 . S
C905 C910 1.385 . S
C906 C902 1.432 . S
C906 C903 1.317 . S
C906 H918 0.930 . S
C907 C909 1.392 . S
C907 C910 1.370 . S
C907 H919 0.931 . S
N908 C901 1.359 . S
N908 C909 1.327 . S
N908 Tb911 2.600 . S
C909 C907 1.392 . S
C909 N908 1.327 . S
C909 H916 0.930 . S
C910 C905 1.385 . S
C910 C907 1.370 . S
C910 H929 0.930 . S
Tb911 N908 2.600 . S
Tb911 N912 2.660 . S
Tb911 O945 2.362 . S
Tb911 O946 2.421 . S
Tb911 O950 2.546 . S
Tb911 O951 2.610 . S
Tb911 O953 2.320 . S
Tb911 O954 2.552 . S
Tb911 O955 2.413 . S
Tb911 C975 2.833 . S
N912 C904 1.360 . S
N912 Tb911 2.660 . S
N912 C913 1.305 . S
C913 N912 1.305 . S
C913 C915 1.407 . S
C913 H920 0.930 . S
C914 C902 1.410 . S
C914 C915 1.345 . S
C914 H922 0.930 . S
C915 C913 1.407 . S
C915 C914 1.345 . S
C915 H917 0.930 . S
H916 C909 0.930 . S
H917 C915 0.930 . S
H918 C906 0.930 . S
H919 C907 0.931 . S
H920 C913 0.930 . S
H921 C935 0.930 . S
H922 C914 0.930 . S
H923 C941 0.930 . S
H924 C932 0.930 . S
H925 C939 0.931 . S
H926 C903 0.929 . S
H927 C933 0.930 . S
H928 C966 0.930 . S
H929 C910 0.930 . S
H930 C965 0.929 . S
N931 Tb900 2.660 . S
N931 C932 1.305 . S
N931 C936 1.360 . S
C932 H924 0.930 . S
C932 N931 1.305 . S
C932 C935 1.407 . S
C933 H927 0.930 . S
C933 C934 1.410 . S
C933 C935 1.345 . S
C934 C933 1.410 . S
C934 C936 1.417 . S
C934 C966 1.432 . S
C935 H921 0.930 . S
C935 C932 1.407 . S
C935 C933 1.345 . S
C936 N931 1.360 . S
C936 C934 1.417 . S
C936 C940 1.432 . S
H937 C942 0.930 . S
N938 Tb900 2.600 . S
N938 C940 1.359 . S
N938 C941 1.327 . S
C939 H925 0.931 . S
C939 C941 1.392 . S
C939 C942 1.370 . S
C940 C936 1.432 . S
C940 N938 1.359 . S
C940 C943 1.414 . S
C941 H923 0.930 . S
C941 N938 1.327 . S
C941 C939 1.392 . S
C942 H937 0.930 . S
C942 C939 1.370 . S
C942 C943 1.385 . S
C943 C940 1.414 . S
C943 C942 1.385 . S
C943 C965 1.444 . S
O944 Tb900 2.546 . S
O944 C964 1.251 . S
O945 Tb900 2.610 . S
O945 Tb911 2.362 . S
O945 C956 1.283 . S
O946 Tb911 2.421 . S
O946 C963 1.262 . S
O947 Tb900 2.320 . S
O947 C963 1.260 . S
O948 Tb900 2.552 . S
O948 C956 1.243 . S
O949 Tb900 2.413 . S
O949 C964 1.256 . S
O950 Tb911 2.546 . S
O950 C975 1.251 . S
O951 Tb900 2.362 . S
O951 Tb911 2.610 . S
O951 C967 1.283 . S
O952 Tb900 2.421 . S
O952 C974 1.262 . S
O953 Tb911 2.320 . S
O953 C974 1.260 . S
O954 Tb911 2.552 . S
O954 C967 1.243 . S
O955 Tb911 2.413 . S
O955 C975 1.256 . S
C956 O945 1.283 . S
C956 O948 1.243 . S
C957 C959 1.382 . S
C957 C961 1.393 . S
C957 C964 1.500 . S
C958 C959 1.400 . S
C958 C960 1.384 . S
C959 C957 1.382 . S
C959 C958 1.400 . S
C959 H976 0.930 . S
C960 C958 1.384 . S
C960 C962 1.392 . S
C960 H977 0.931 . S
C961 C957 1.393 . S
C961 C962 1.401 . S
C961 H978 0.930 . S
C962 C960 1.392 . S
C962 C961 1.401 . S
C962 H979 0.930 . S
C963 O946 1.262 . S
C963 O947 1.260 . S
C964 Tb900 2.833 . S
C964 O944 1.251 . S
C964 O949 1.256 . S
C964 C957 1.500 . S
C965 H930 0.929 . S
C965 C943 1.444 . S
C965 C966 1.317 . S
C966 H928 0.930 . S
C966 C934 1.432 . S
C966 C965 1.317 . S
C967 O951 1.283 . S
C967 O954 1.243 . S
C968 C969 1.382 . S
C968 C972 1.393 . S
C968 C975 1.500 . S
C969 C968 1.382 . S
C969 C970 1.400 . S
C969 H980 0.930 . S
C970 C969 1.400 . S
C970 C971 1.384 . S
C971 C970 1.384 . S
C971 C973 1.392 . S
C971 H981 0.931 . S
C972 C968 1.393 . S
C972 C973 1.401 . S
C972 H982 0.930 . S
C973 C971 1.392 . S
C973 C972 1.401 . S
C973 H983 0.930 . S
C974 O952 1.262 . S
C974 O953 1.260 . S
C975 Tb911 2.833 . S
C975 O950 1.251 . S
C975 O955 1.256 . S
C975 C968 1.500 . S
H976 C959 0.930 . S
H977 C960 0.931 . S
H978 C961 0.930 . S
H979 C962 0.930 . S
H980 C969 0.930 . S
H981 C971 0.931 . S
H982 C972 0.930 . S
H983 C973 0.930 . S
Tb984 N1015 2.660 . S
Tb984 N1022 2.600 . S
Tb984 O1028 2.546 . S
Tb984 O1029 2.610 . S
Tb984 O1031 2.320 . S
Tb984 O1032 2.552 . S
Tb984 O1033 2.413 . S
Tb984 O1035 2.362 . S
Tb984 O1036 2.421 . S
Tb984 C1048 2.833 . S
C985 C988 1.432 . S
C985 C989 1.414 . S
C985 N992 1.359 . S
C986 C988 1.417 . S
C986 C990 1.432 . S
C986 C998 1.410 . S
C987 C989 1.444 . S
C987 C990 1.317 . S
C987 H1010 0.929 . S
C988 C985 1.432 . S
C988 C986 1.417 . S
C988 N996 1.360 . S
C989 C985 1.414 . S
C989 C987 1.444 . S
C989 C994 1.385 . S
C990 C986 1.432 . S
C990 C987 1.317 . S
C990 H1002 0.930 . S
C991 C993 1.392 . S
C991 C994 1.370 . S
C991 H1003 0.931 . S
N992 C985 1.359 . S
N992 C993 1.327 . S
N992 Tb995 2.600 . S
C993 C991 1.392 . S
C993 N992 1.327 . S
C993 H1000 0.930 . S
C994 C989 1.385 . S
C994 C991 1.370 . S
C994 H1013 0.930 . S
Tb995 N992 2.600 . S
Tb995 N996 2.660 . S
Tb995 O1029 2.362 . S
Tb995 O1030 2.421 . S
Tb995 O1034 2.546 . S
Tb995 O1035 2.610 . S
Tb995 O1037 2.320 . S
Tb995 O1038 2.552 . S
Tb995 O1039 2.413 . S
Tb995 C1059 2.833 . S
N996 C988 1.360 . S
N996 Tb995 2.660 . S
N996 C997 1.305 . S
C997 N996 1.305 . S
C997 C999 1.407 . S
C997 H1004 0.930 . S
C998 C986 1.410 . S
C998 C999 1.345 . S
C998 H1006 0.930 . S
C999 C997 1.407 . S
C999 C998 1.345 . S
C999 H1001 0.930 . S
H1000 C993 0.930 . S
H1001 C999 0.930 . S
H1002 C990 0.930 . S
H1003 C991 0.931 . S
H1004 C997 0.930 . S
H1005 C1019 0.930 . S
H1006 C998 0.930 . S
H1007 C1025 0.930 . S
H1008 C1016 0.930 . S
H1009 C1023 0.931 . S
H1010 C987 0.929 . S
H1011 C1017 0.930 . S
H1012 C1050 0.930 . S
H1013 C994 0.930 . S
H1014 C1049 0.929 . S
N1015 Tb984 2.660 . S
N1015 C1016 1.305 . S
N1015 C1020 1.360 . S
C1016 H1008 0.930 . S
C1016 N1015 1.305 . S
C1016 C1019 1.407 . S
C1017 H1011 0.930 . S
C1017 C1018 1.410 . S
C1017 C1019 1.345 . S
C1018 C1017 1.410 . S
C1018 C1020 1.417 . S
C1018 C1050 1.432 . S
C1019 H1005 0.930 . S
C1019 C1016 1.407 . S
C1019 C1017 1.345 . S
C1020 N1015 1.360 . S
C1020 C1018 1.417 . S
C1020 C1024 1.432 . S
H1021 C1026 0.930 . S
N1022 Tb984 2.600 . S
N1022 C1024 1.359 . S
N1022 C1025 1.327 . S
C1023 H1009 0.931 . S
C1023 C1025 1.392 . S
C1023 C1026 1.370 . S
C1024 C1020 1.432 . S
C1024 N1022 1.359 . S
C1024 C1027 1.414 . S
C1025 H1007 0.930 . S
C1025 N1022 1.327 . S
C1025 C1023 1.392 . S
C1026 H1021 0.930 . S
C1026 C1023 1.370 . S
C1026 C1027 1.385 . S
C1027 C1024 1.414 . S
C1027 C1026 1.385 . S
C1027 C1049 1.444 . S
O1028 Tb984 2.546 . S
O1028 C1048 1.251 . S
O1029 Tb984 2.610 . S
O1029 Tb995 2.362 . S
O1029 C1040 1.283 . S
O1030 Tb995 2.421 . S
O1030 C1047 1.262 . S
O1031 Tb984 2.320 . S
O1031 C1047 1.260 . S
O1032 Tb984 2.552 . S
O1032 C1040 1.243 . S
O1033 Tb984 2.413 . S
O1033 C1048 1.256 . S
O1034 Tb995 2.546 . S
O1034 C1059 1.251 . S
O1035 Tb984 2.362 . S
O1035 Tb995 2.610 . S
O1035 C1051 1.283 . S
O1036 Tb984 2.421 . S
O1036 C1058 1.262 . S
O1037 Tb995 2.320 . S
O1037 C1058 1.260 . S
O1038 Tb995 2.552 . S
O1038 C1051 1.243 . S
O1039 Tb995 2.413 . S
O1039 C1059 1.256 . S
C1040 O1029 1.283 . S
C1040 O1032 1.243 . S
C1041 C1043 1.382 . S
C1041 C1045 1.393 . S
C1041 C1048 1.500 . S
C1042 C1043 1.400 . S
C1042 C1044 1.384 . S
C1043 C1041 1.382 . S
C1043 C1042 1.400 . S
C1043 H1060 0.930 . S
C1044 C1042 1.384 . S
C1044 C1046 1.392 . S
C1044 H1061 0.931 . S
C1045 C1041 1.393 . S
C1045 C1046 1.401 . S
C1045 H1062 0.930 . S
C1046 C1044 1.392 . S
C1046 C1045 1.401 . S
C1046 H1063 0.930 . S
C1047 O1030 1.262 . S
C1047 O1031 1.260 . S
C1048 Tb984 2.833 . S
C1048 O1028 1.251 . S
C1048 O1033 1.256 . S
C1048 C1041 1.500 . S
C1049 H1014 0.929 . S
C1049 C1027 1.444 . S
C1049 C1050 1.317 . S
C1050 H1012 0.930 . S
C1050 C1018 1.432 . S
C1050 C1049 1.317 . S
C1051 O1035 1.283 . S
C1051 O1038 1.243 . S
C1052 C1053 1.382 . S
C1052 C1056 1.393 . S
C1052 C1059 1.500 . S
C1053 C1052 1.382 . S
C1053 C1054 1.400 . S
C1053 H1064 0.930 . S
C1054 C1053 1.400 . S
C1054 C1055 1.384 . S
C1055 C1054 1.384 . S
C1055 C1057 1.392 . S
C1055 H1065 0.931 . S
C1056 C1052 1.393 . S
C1056 C1057 1.401 . S
C1056 H1066 0.930 . S
C1057 C1055 1.392 . S
C1057 C1056 1.401 . S
C1057 H1067 0.930 . S
C1058 O1036 1.262 . S
C1058 O1037 1.260 . S
C1059 Tb995 2.833 . S
C1059 O1034 1.251 . S
C1059 O1039 1.256 . S
C1059 C1052 1.500 . S
H1060 C1043 0.930 . S
H1061 C1044 0.931 . S
H1062 C1045 0.930 . S
H1063 C1046 0.930 . S
H1064 C1053 0.930 . S
H1065 C1055 0.931 . S
H1066 C1056 0.930 . S
H1067 C1057 0.930 . S
Tb1068 N1099 2.660 . S
Tb1068 N1106 2.600 . S
Tb1068 O1112 2.546 . S
Tb1068 O1113 2.610 . S
Tb1068 O1115 2.320 . S
Tb1068 O1116 2.552 . S
Tb1068 O1117 2.413 . S
Tb1068 O1119 2.362 . S
Tb1068 O1120 2.421 . S
Tb1068 C1132 2.833 . S
C1069 C1072 1.432 . S
C1069 C1073 1.414 . S
C1069 N1076 1.359 . S
C1070 C1072 1.417 . S
C1070 C1074 1.432 . S
C1070 C1082 1.410 . S
C1071 C1073 1.444 . S
C1071 C1074 1.317 . S
C1071 H1094 0.929 . S
C1072 C1069 1.432 . S
C1072 C1070 1.417 . S
C1072 N1080 1.360 . S
C1073 C1069 1.414 . S
C1073 C1071 1.444 . S
C1073 C1078 1.385 . S
C1074 C1070 1.432 . S
C1074 C1071 1.317 . S
C1074 H1086 0.930 . S
C1075 C1077 1.392 . S
C1075 C1078 1.370 . S
C1075 H1087 0.931 . S
N1076 C1069 1.359 . S
N1076 C1077 1.327 . S
N1076 Tb1079 2.600 . S
C1077 C1075 1.392 . S
C1077 N1076 1.327 . S
C1077 H1084 0.930 . S
C1078 C1073 1.385 . S
C1078 C1075 1.370 . S
C1078 H1097 0.930 . S
Tb1079 N1076 2.600 . S
Tb1079 N1080 2.660 . S
Tb1079 O1113 2.362 . S
Tb1079 O1114 2.421 . S
Tb1079 O1118 2.546 . S
Tb1079 O1119 2.610 . S
Tb1079 O1121 2.320 . S
Tb1079 O1122 2.552 . S
Tb1079 O1123 2.413 . S
Tb1079 C1143 2.833 . S
N1080 C1072 1.360 . S
N1080 Tb1079 2.660 . S
N1080 C1081 1.305 . S
C1081 N1080 1.305 . S
C1081 C1083 1.407 . S
C1081 H1088 0.930 . S
C1082 C1070 1.410 . S
C1082 C1083 1.345 . S
C1082 H1090 0.930 . S
C1083 C1081 1.407 . S
C1083 C1082 1.345 . S
C1083 H1085 0.930 . S
H1084 C1077 0.930 . S
H1085 C1083 0.930 . S
H1086 C1074 0.930 . S
H1087 C1075 0.931 . S
H1088 C1081 0.930 . S
H1089 C1103 0.930 . S
H1090 C1082 0.930 . S
H1091 C1109 0.930 . S
H1092 C1100 0.930 . S
H1093 C1107 0.931 . S
H1094 C1071 0.929 . S
H1095 C1101 0.930 . S
H1096 C1134 0.930 . S
H1097 C1078 0.930 . S
H1098 C1133 0.929 . S
N1099 Tb1068 2.660 . S
N1099 C1100 1.305 . S
N1099 C1104 1.360 . S
C1100 H1092 0.930 . S
C1100 N1099 1.305 . S
C1100 C1103 1.407 . S
C1101 H1095 0.930 . S
C1101 C1102 1.410 . S
C1101 C1103 1.345 . S
C1102 C1101 1.410 . S
C1102 C1104 1.417 . S
C1102 C1134 1.432 . S
C1103 H1089 0.930 . S
C1103 C1100 1.407 . S
C1103 C1101 1.345 . S
C1104 N1099 1.360 . S
C1104 C1102 1.417 . S
C1104 C1108 1.432 . S
H1105 C1110 0.930 . S
N1106 Tb1068 2.600 . S
N1106 C1108 1.359 . S
N1106 C1109 1.327 . S
C1107 H1093 0.931 . S
C1107 C1109 1.392 . S
C1107 C1110 1.370 . S
C1108 C1104 1.432 . S
C1108 N1106 1.359 . S
C1108 C1111 1.414 . S
C1109 H1091 0.930 . S
C1109 N1106 1.327 . S
C1109 C1107 1.392 . S
C1110 H1105 0.930 . S
C1110 C1107 1.370 . S
C1110 C1111 1.385 . S
C1111 C1108 1.414 . S
C1111 C1110 1.385 . S
C1111 C1133 1.444 . S
O1112 Tb1068 2.546 . S
O1112 C1132 1.251 . S
O1113 Tb1068 2.610 . S
O1113 Tb1079 2.362 . S
O1113 C1124 1.283 . S
O1114 Tb1079 2.421 . S
O1114 C1131 1.262 . S
O1115 Tb1068 2.320 . S
O1115 C1131 1.260 . S
O1116 Tb1068 2.552 . S
O1116 C1124 1.243 . S
O1117 Tb1068 2.413 . S
O1117 C1132 1.256 . S
O1118 Tb1079 2.546 . S
O1118 C1143 1.251 . S
O1119 Tb1068 2.362 . S
O1119 Tb1079 2.610 . S
O1119 C1135 1.283 . S
O1120 Tb1068 2.421 . S
O1120 C1142 1.262 . S
O1121 Tb1079 2.320 . S
O1121 C1142 1.260 . S
O1122 Tb1079 2.552 . S
O1122 C1135 1.243 . S
O1123 Tb1079 2.413 . S
O1123 C1143 1.256 . S
C1124 O1113 1.283 . S
C1124 O1116 1.243 . S
C1125 C1127 1.382 . S
C1125 C1129 1.393 . S
C1125 C1132 1.500 . S
C1126 C1127 1.400 . S
C1126 C1128 1.384 . S
C1127 C1125 1.382 . S
C1127 C1126 1.400 . S
C1127 H1144 0.930 . S
C1128 C1126 1.384 . S
C1128 C1130 1.392 . S
C1128 H1145 0.931 . S
C1129 C1125 1.393 . S
C1129 C1130 1.401 . S
C1129 H1146 0.930 . S
C1130 C1128 1.392 . S
C1130 C1129 1.401 . S
C1130 H1147 0.930 . S
C1131 O1114 1.262 . S
C1131 O1115 1.260 . S
C1132 Tb1068 2.833 . S
C1132 O1112 1.251 . S
C1132 O1117 1.256 . S
C1132 C1125 1.500 . S
C1133 H1098 0.929 . S
C1133 C1111 1.444 . S
C1133 C1134 1.317 . S
C1134 H1096 0.930 . S
C1134 C1102 1.432 . S
C1134 C1133 1.317 . S
C1135 O1119 1.283 . S
C1135 O1122 1.243 . S
C1136 C1137 1.382 . S
C1136 C1140 1.393 . S
C1136 C1143 1.500 . S
C1137 C1136 1.382 . S
C1137 C1138 1.400 . S
C1137 H1148 0.930 . S
C1138 C1137 1.400 . S
C1138 C1139 1.384 . S
C1139 C1138 1.384 . S
C1139 C1141 1.392 . S
C1139 H1149 0.931 . S
C1140 C1136 1.393 . S
C1140 C1141 1.401 . S
C1140 H1150 0.930 . S
C1141 C1139 1.392 . S
C1141 C1140 1.401 . S
C1141 H1151 0.930 . S
C1142 O1120 1.262 . S
C1142 O1121 1.260 . S
C1143 Tb1079 2.833 . S
C1143 O1118 1.251 . S
C1143 O1123 1.256 . S
C1143 C1136 1.500 . S
H1144 C1127 0.930 . S
H1145 C1128 0.931 . S
H1146 C1129 0.930 . S
H1147 C1130 0.930 . S
H1148 C1137 0.930 . S
H1149 C1139 0.931 . S
H1150 C1140 0.930 . S
H1151 C1141 0.930 . S
Tb1152 N1183 2.660 . S
Tb1152 N1190 2.600 . S
Tb1152 O1196 2.546 . S
Tb1152 O1197 2.610 . S
Tb1152 O1199 2.320 . S
Tb1152 O1200 2.552 . S
Tb1152 O1201 2.413 . S
Tb1152 O1203 2.362 . S
Tb1152 O1204 2.421 . S
Tb1152 C1216 2.833 . S
C1153 C1156 1.432 . S
C1153 C1157 1.414 . S
C1153 N1160 1.359 . S
C1154 C1156 1.417 . S
C1154 C1158 1.432 . S
C1154 C1166 1.410 . S
C1155 C1157 1.444 . S
C1155 C1158 1.317 . S
C1155 H1178 0.929 . S
C1156 C1153 1.432 . S
C1156 C1154 1.417 . S
C1156 N1164 1.360 . S
C1157 C1153 1.414 . S
C1157 C1155 1.444 . S
C1157 C1162 1.385 . S
C1158 C1154 1.432 . S
C1158 C1155 1.317 . S
C1158 H1170 0.930 . S
C1159 C1161 1.392 . S
C1159 C1162 1.370 . S
C1159 H1171 0.931 . S
N1160 C1153 1.359 . S
N1160 C1161 1.327 . S
N1160 Tb1163 2.600 . S
C1161 C1159 1.392 . S
C1161 N1160 1.327 . S
C1161 H1168 0.930 . S
C1162 C1157 1.385 . S
C1162 C1159 1.370 . S
C1162 H1181 0.930 . S
Tb1163 N1160 2.600 . S
Tb1163 N1164 2.660 . S
Tb1163 O1197 2.362 . S
Tb1163 O1198 2.421 . S
Tb1163 O1202 2.546 . S
Tb1163 O1203 2.610 . S
Tb1163 O1205 2.320 . S
Tb1163 O1206 2.552 . S
Tb1163 O1207 2.413 . S
Tb1163 C1227 2.833 . S
N1164 C1156 1.360 . S
N1164 Tb1163 2.660 . S
N1164 C1165 1.305 . S
C1165 N1164 1.305 . S
C1165 C1167 1.407 . S
C1165 H1172 0.930 . S
C1166 C1154 1.410 . S
C1166 C1167 1.345 . S
C1166 H1174 0.930 . S
C1167 C1165 1.407 . S
C1167 C1166 1.345 . S
C1167 H1169 0.930 . S
H1168 C1161 0.930 . S
H1169 C1167 0.930 . S
H1170 C1158 0.930 . S
H1171 C1159 0.931 . S
H1172 C1165 0.930 . S
H1173 C1187 0.930 . S
H1174 C1166 0.930 . S
H1175 C1193 0.930 . S
H1176 C1184 0.930 . S
H1177 C1191 0.931 . S
H1178 C1155 0.929 . S
H1179 C1185 0.930 . S
H1180 C1218 0.930 . S
H1181 C1162 0.930 . S
H1182 C1217 0.929 . S
N1183 Tb1152 2.660 . S
N1183 C1184 1.305 . S
N1183 C1188 1.360 . S
C1184 H1176 0.930 . S
C1184 N1183 1.305 . S
C1184 C1187 1.407 . S
C1185 H1179 0.930 . S
C1185 C1186 1.410 . S
C1185 C1187 1.345 . S
C1186 C1185 1.410 . S
C1186 C1188 1.417 . S
C1186 C1218 1.432 . S
C1187 H1173 0.930 . S
C1187 C1184 1.407 . S
C1187 C1185 1.345 . S
C1188 N1183 1.360 . S
C1188 C1186 1.417 . S
C1188 C1192 1.432 . S
H1189 C1194 0.930 . S
N1190 Tb1152 2.600 . S
N1190 C1192 1.359 . S
N1190 C1193 1.327 . S
C1191 H1177 0.931 . S
C1191 C1193 1.392 . S
C1191 C1194 1.370 . S
C1192 C1188 1.432 . S
C1192 N1190 1.359 . S
C1192 C1195 1.414 . S
C1193 H1175 0.930 . S
C1193 N1190 1.327 . S
C1193 C1191 1.392 . S
C1194 H1189 0.930 . S
C1194 C1191 1.370 . S
C1194 C1195 1.385 . S
C1195 C1192 1.414 . S
C1195 C1194 1.385 . S
C1195 C1217 1.444 . S
O1196 Tb1152 2.546 . S
O1196 C1216 1.251 . S
O1197 Tb1152 2.610 . S
O1197 Tb1163 2.362 . S
O1197 C1208 1.283 . S
O1198 Tb1163 2.421 . S
O1198 C1215 1.262 . S
O1199 Tb1152 2.320 . S
O1199 C1215 1.260 . S
O1200 Tb1152 2.552 . S
O1200 C1208 1.243 . S
O1201 Tb1152 2.413 . S
O1201 C1216 1.256 . S
O1202 Tb1163 2.546 . S
O1202 C1227 1.251 . S
O1203 Tb1152 2.362 . S
O1203 Tb1163 2.610 . S
O1203 C1219 1.283 . S
O1204 Tb1152 2.421 . S
O1204 C1226 1.262 . S
O1205 Tb1163 2.320 . S
O1205 C1226 1.260 . S
O1206 Tb1163 2.552 . S
O1206 C1219 1.243 . S
O1207 Tb1163 2.413 . S
O1207 C1227 1.256 . S
C1208 O1197 1.283 . S
C1208 O1200 1.243 . S
C1209 C1211 1.382 . S
C1209 C1213 1.393 . S
C1209 C1216 1.500 . S
C1210 C1211 1.400 . S
C1210 C1212 1.384 . S
C1211 C1209 1.382 . S
C1211 C1210 1.400 . S
C1211 H1228 0.930 . S
C1212 C1210 1.384 . S
C1212 C1214 1.392 . S
C1212 H1229 0.931 . S
C1213 C1209 1.393 . S
C1213 C1214 1.401 . S
C1213 H1230 0.930 . S
C1214 C1212 1.392 . S
C1214 C1213 1.401 . S
C1214 H1231 0.930 . S
C1215 O1198 1.262 . S
C1215 O1199 1.260 . S
C1216 Tb1152 2.833 . S
C1216 O1196 1.251 . S
C1216 O1201 1.256 . S
C1216 C1209 1.500 . S
C1217 H1182 0.929 . S
C1217 C1195 1.444 . S
C1217 C1218 1.317 . S
C1218 H1180 0.930 . S
C1218 C1186 1.432 . S
C1218 C1217 1.317 . S
C1219 O1203 1.283 . S
C1219 O1206 1.243 . S
C1220 C1221 1.382 . S
C1220 C1224 1.393 . S
C1220 C1227 1.500 . S
C1221 C1220 1.382 . S
C1221 C1222 1.400 . S
C1221 H1232 0.930 . S
C1222 C1221 1.400 . S
C1222 C1223 1.384 . S
C1223 C1222 1.384 . S
C1223 C1225 1.392 . S
C1223 H1233 0.931 . S
C1224 C1220 1.393 . S
C1224 C1225 1.401 . S
C1224 H1234 0.930 . S
C1225 C1223 1.392 . S
C1225 C1224 1.401 . S
C1225 H1235 0.930 . S
C1226 O1204 1.262 . S
C1226 O1205 1.260 . S
C1227 Tb1163 2.833 . S
C1227 O1202 1.251 . S
C1227 O1207 1.256 . S
C1227 C1220 1.500 . S
H1228 C1211 0.930 . S
H1229 C1212 0.931 . S
H1230 C1213 0.930 . S
H1231 C1214 0.930 . S
H1232 C1221 0.930 . S
H1233 C1223 0.931 . S
H1234 C1224 0.930 . S
H1235 C1225 0.930 . S
Tb1236 N1267 2.660 . S
Tb1236 N1274 2.600 . S
Tb1236 O1280 2.546 . S
Tb1236 O1281 2.610 . S
Tb1236 O1283 2.320 . S
Tb1236 O1284 2.552 . S
Tb1236 O1285 2.413 . S
Tb1236 O1287 2.362 . S
Tb1236 O1288 2.421 . S
Tb1236 C1300 2.833 . S
C1237 C1240 1.432 . S
C1237 C1241 1.414 . S
C1237 N1244 1.359 . S
C1238 C1240 1.417 . S
C1238 C1242 1.432 . S
C1238 C1250 1.410 . S
C1239 C1241 1.444 . S
C1239 C1242 1.317 . S
C1239 H1262 0.929 . S
C1240 C1237 1.432 . S
C1240 C1238 1.417 . S
C1240 N1248 1.360 . S
C1241 C1237 1.414 . S
C1241 C1239 1.444 . S
C1241 C1246 1.385 . S
C1242 C1238 1.432 . S
C1242 C1239 1.317 . S
C1242 H1254 0.930 . S
C1243 C1245 1.392 . S
C1243 C1246 1.370 . S
C1243 H1255 0.931 . S
N1244 C1237 1.359 . S
N1244 C1245 1.327 . S
N1244 Tb1247 2.600 . S
C1245 C1243 1.392 . S
C1245 N1244 1.327 . S
C1245 H1252 0.930 . S
C1246 C1241 1.385 . S
C1246 C1243 1.370 . S
C1246 H1265 0.930 . S
Tb1247 N1244 2.600 . S
Tb1247 N1248 2.660 . S
Tb1247 O1281 2.362 . S
Tb1247 O1282 2.421 . S
Tb1247 O1286 2.546 . S
Tb1247 O1287 2.610 . S
Tb1247 O1289 2.320 . S
Tb1247 O1290 2.552 . S
Tb1247 O1291 2.413 . S
Tb1247 C1311 2.833 . S
N1248 C1240 1.360 . S
N1248 Tb1247 2.660 . S
N1248 C1249 1.305 . S
C1249 N1248 1.305 . S
C1249 C1251 1.407 . S
C1249 H1256 0.930 . S
C1250 C1238 1.410 . S
C1250 C1251 1.345 . S
C1250 H1258 0.930 . S
C1251 C1249 1.407 . S
C1251 C1250 1.345 . S
C1251 H1253 0.930 . S
H1252 C1245 0.930 . S
H1253 C1251 0.930 . S
H1254 C1242 0.930 . S
H1255 C1243 0.931 . S
H1256 C1249 0.930 . S
H1257 C1271 0.930 . S
H1258 C1250 0.930 . S
H1259 C1277 0.930 . S
H1260 C1268 0.930 . S
H1261 C1275 0.931 . S
H1262 C1239 0.929 . S
H1263 C1269 0.930 . S
H1264 C1302 0.930 . S
H1265 C1246 0.930 . S
H1266 C1301 0.929 . S
N1267 Tb1236 2.660 . S
N1267 C1268 1.305 . S
N1267 C1272 1.360 . S
C1268 H1260 0.930 . S
C1268 N1267 1.305 . S
C1268 C1271 1.407 . S
C1269 H1263 0.930 . S
C1269 C1270 1.410 . S
C1269 C1271 1.345 . S
C1270 C1269 1.410 . S
C1270 C1272 1.417 . S
C1270 C1302 1.432 . S
C1271 H1257 0.930 . S
C1271 C1268 1.407 . S
C1271 C1269 1.345 . S
C1272 N1267 1.360 . S
C1272 C1270 1.417 . S
C1272 C1276 1.432 . S
H1273 C1278 0.930 . S
N1274 Tb1236 2.600 . S
N1274 C1276 1.359 . S
N1274 C1277 1.327 . S
C1275 H1261 0.931 . S
C1275 C1277 1.392 . S
C1275 C1278 1.370 . S
C1276 C1272 1.432 . S
C1276 N1274 1.359 . S
C1276 C1279 1.414 . S
C1277 H1259 0.930 . S
C1277 N1274 1.327 . S
C1277 C1275 1.392 . S
C1278 H1273 0.930 . S
C1278 C1275 1.370 . S
C1278 C1279 1.385 . S
C1279 C1276 1.414 . S
C1279 C1278 1.385 . S
C1279 C1301 1.444 . S
O1280 Tb1236 2.546 . S
O1280 C1300 1.251 . S
O1281 Tb1236 2.610 . S
O1281 Tb1247 2.362 . S
O1281 C1292 1.283 . S
O1282 Tb1247 2.421 . S
O1282 C1299 1.262 . S
O1283 Tb1236 2.320 . S
O1283 C1299 1.260 . S
O1284 Tb1236 2.552 . S
O1284 C1292 1.243 . S
O1285 Tb1236 2.413 . S
O1285 C1300 1.256 . S
O1286 Tb1247 2.546 . S
O1286 C1311 1.251 . S
O1287 Tb1236 2.362 . S
O1287 Tb1247 2.610 . S
O1287 C1303 1.283 . S
O1288 Tb1236 2.421 . S
O1288 C1310 1.262 . S
O1289 Tb1247 2.320 . S
O1289 C1310 1.260 . S
O1290 Tb1247 2.552 . S
O1290 C1303 1.243 . S
O1291 Tb1247 2.413 . S
O1291 C1311 1.256 . S
C1292 O1281 1.283 . S
C1292 O1284 1.243 . S
C1293 C1295 1.382 . S
C1293 C1297 1.393 . S
C1293 C1300 1.500 . S
C1294 C1295 1.400 . S
C1294 C1296 1.384 . S
C1295 C1293 1.382 . S
C1295 C1294 1.400 . S
C1295 H1312 0.930 . S
C1296 C1294 1.384 . S
C1296 C1298 1.392 . S
C1296 H1313 0.931 . S
C1297 C1293 1.393 . S
C1297 C1298 1.401 . S
C1297 H1314 0.930 . S
C1298 C1296 1.392 . S
C1298 C1297 1.401 . S
C1298 H1315 0.930 . S
C1299 O1282 1.262 . S
C1299 O1283 1.260 . S
C1300 Tb1236 2.833 . S
C1300 O1280 1.251 . S
C1300 O1285 1.256 . S
C1300 C1293 1.500 . S
C1301 H1266 0.929 . S
C1301 C1279 1.444 . S
C1301 C1302 1.317 . S
C1302 H1264 0.930 . S
C1302 C1270 1.432 . S
C1302 C1301 1.317 . S
C1303 O1287 1.283 . S
C1303 O1290 1.243 . S
C1304 C1305 1.382 . S
C1304 C1308 1.393 . S
C1304 C1311 1.500 . S
C1305 C1304 1.382 . S
C1305 C1306 1.400 . S
C1305 H1316 0.930 . S
C1306 C1305 1.400 . S
C1306 C1307 1.384 . S
C1307 C1306 1.384 . S
C1307 C1309 1.392 . S
C1307 H1317 0.931 . S
C1308 C1304 1.393 . S
C1308 C1309 1.401 . S
C1308 H1318 0.930 . S
C1309 C1307 1.392 . S
C1309 C1308 1.401 . S
C1309 H1319 0.930 . S
C1310 O1288 1.262 . S
C1310 O1289 1.260 . S
C1311 Tb1247 2.833 . S
C1311 O1286 1.251 . S
C1311 O1291 1.256 . S
C1311 C1304 1.500 . S
H1312 C1295 0.930 . S
H1313 C1296 0.931 . S
H1314 C1297 0.930 . S
H1315 C1298 0.930 . S
H1316 C1305 0.930 . S
H1317 C1307 0.931 . S
H1318 C1308 0.930 . S
H1319 C1309 0.930 . S
Tb1320 N1351 2.660 . S
Tb1320 N1358 2.600 . S
Tb1320 O1364 2.546 . S
Tb1320 O1365 2.610 . S
Tb1320 O1367 2.320 . S
Tb1320 O1368 2.552 . S
Tb1320 O1369 2.413 . S
Tb1320 O1371 2.362 . S
Tb1320 O1372 2.421 . S
Tb1320 C1384 2.833 . S
C1321 C1324 1.432 . S
C1321 C1325 1.414 . S
C1321 N1328 1.359 . S
C1322 C1324 1.417 . S
C1322 C1326 1.432 . S
C1322 C1334 1.410 . S
C1323 C1325 1.444 . S
C1323 C1326 1.317 . S
C1323 H1346 0.929 . S
C1324 C1321 1.432 . S
C1324 C1322 1.417 . S
C1324 N1332 1.360 . S
C1325 C1321 1.414 . S
C1325 C1323 1.444 . S
C1325 C1330 1.385 . S
C1326 C1322 1.432 . S
C1326 C1323 1.317 . S
C1326 H1338 0.930 . S
C1327 C1329 1.392 . S
C1327 C1330 1.370 . S
C1327 H1339 0.931 . S
N1328 C1321 1.359 . S
N1328 C1329 1.327 . S
N1328 Tb1331 2.600 . S
C1329 C1327 1.392 . S
C1329 N1328 1.327 . S
C1329 H1336 0.930 . S
C1330 C1325 1.385 . S
C1330 C1327 1.370 . S
C1330 H1349 0.930 . S
Tb1331 N1328 2.600 . S
Tb1331 N1332 2.660 . S
Tb1331 O1365 2.362 . S
Tb1331 O1366 2.421 . S
Tb1331 O1370 2.546 . S
Tb1331 O1371 2.610 . S
Tb1331 O1373 2.320 . S
Tb1331 O1374 2.552 . S
Tb1331 O1375 2.413 . S
Tb1331 C1395 2.833 . S
N1332 C1324 1.360 . S
N1332 Tb1331 2.660 . S
N1332 C1333 1.305 . S
C1333 N1332 1.305 . S
C1333 C1335 1.407 . S
C1333 H1340 0.930 . S
C1334 C1322 1.410 . S
C1334 C1335 1.345 . S
C1334 H1342 0.930 . S
C1335 C1333 1.407 . S
C1335 C1334 1.345 . S
C1335 H1337 0.930 . S
H1336 C1329 0.930 . S
H1337 C1335 0.930 . S
H1338 C1326 0.930 . S
H1339 C1327 0.931 . S
H1340 C1333 0.930 . S
H1341 C1355 0.930 . S
H1342 C1334 0.930 . S
H1343 C1361 0.930 . S
H1344 C1352 0.930 . S
H1345 C1359 0.931 . S
H1346 C1323 0.929 . S
H1347 C1353 0.930 . S
H1348 C1386 0.930 . S
H1349 C1330 0.930 . S
H1350 C1385 0.929 . S
N1351 Tb1320 2.660 . S
N1351 C1352 1.305 . S
N1351 C1356 1.360 . S
C1352 H1344 0.930 . S
C1352 N1351 1.305 . S
C1352 C1355 1.407 . S
C1353 H1347 0.930 . S
C1353 C1354 1.410 . S
C1353 C1355 1.345 . S
C1354 C1353 1.410 . S
C1354 C1356 1.417 . S
C1354 C1386 1.432 . S
C1355 H1341 0.930 . S
C1355 C1352 1.407 . S
C1355 C1353 1.345 . S
C1356 N1351 1.360 . S
C1356 C1354 1.417 . S
C1356 C1360 1.432 . S
H1357 C1362 0.930 . S
N1358 Tb1320 2.600 . S
N1358 C1360 1.359 . S
N1358 C1361 1.327 . S
C1359 H1345 0.931 . S
C1359 C1361 1.392 . S
C1359 C1362 1.370 . S
C1360 C1356 1.432 . S
C1360 N1358 1.359 . S
C1360 C1363 1.414 . S
C1361 H1343 0.930 . S
C1361 N1358 1.327 . S
C1361 C1359 1.392 . S
C1362 H1357 0.930 . S
C1362 C1359 1.370 . S
C1362 C1363 1.385 . S
C1363 C1360 1.414 . S
C1363 C1362 1.385 . S
C1363 C1385 1.444 . S
O1364 Tb1320 2.546 . S
O1364 C1384 1.251 . S
O1365 Tb1320 2.610 . S
O1365 Tb1331 2.362 . S
O1365 C1376 1.283 . S
O1366 Tb1331 2.421 . S
O1366 C1383 1.262 . S
O1367 Tb1320 2.320 . S
O1367 C1383 1.260 . S
O1368 Tb1320 2.552 . S
O1368 C1376 1.243 . S
O1369 Tb1320 2.413 . S
O1369 C1384 1.256 . S
O1370 Tb1331 2.546 . S
O1370 C1395 1.251 . S
O1371 Tb1320 2.362 . S
O1371 Tb1331 2.610 . S
O1371 C1387 1.283 . S
O1372 Tb1320 2.421 . S
O1372 C1394 1.262 . S
O1373 Tb1331 2.320 . S
O1373 C1394 1.260 . S
O1374 Tb1331 2.552 . S
O1374 C1387 1.243 . S
O1375 Tb1331 2.413 . S
O1375 C1395 1.256 . S
C1376 O1365 1.283 . S
C1376 O1368 1.243 . S
C1377 C1379 1.382 . S
C1377 C1381 1.393 . S
C1377 C1384 1.500 . S
C1378 C1379 1.400 . S
C1378 C1380 1.384 . S
C1379 C1377 1.382 . S
C1379 C1378 1.400 . S
C1379 H1396 0.930 . S
C1380 C1378 1.384 . S
C1380 C1382 1.392 . S
C1380 H1397 0.931 . S
C1381 C1377 1.393 . S
C1381 C1382 1.401 . S
C1381 H1398 0.930 . S
C1382 C1380 1.392 . S
C1382 C1381 1.401 . S
C1382 H1399 0.930 . S
C1383 O1366 1.262 . S
C1383 O1367 1.260 . S
C1384 Tb1320 2.833 . S
C1384 O1364 1.251 . S
C1384 O1369 1.256 . S
C1384 C1377 1.500 . S
C1385 H1350 0.929 . S
C1385 C1363 1.444 . S
C1385 C1386 1.317 . S
C1386 H1348 0.930 . S
C1386 C1354 1.432 . S
C1386 C1385 1.317 . S
C1387 O1371 1.283 . S
C1387 O1374 1.243 . S
C1388 C1389 1.382 . S
C1388 C1392 1.393 . S
C1388 C1395 1.500 . S
C1389 C1388 1.382 . S
C1389 C1390 1.400 . S
C1389 H1400 0.930 . S
C1390 C1389 1.400 . S
C1390 C1391 1.384 . S
C1391 C1390 1.384 . S
C1391 C1393 1.392 . S
C1391 H1401 0.931 . S
C1392 C1388 1.393 . S
C1392 C1393 1.401 . S
C1392 H1402 0.930 . S
C1393 C1391 1.392 . S
C1393 C1392 1.401 . S
C1393 H1403 0.930 . S
C1394 O1372 1.262 . S
C1394 O1373 1.260 . S
C1395 Tb1331 2.833 . S
C1395 O1370 1.251 . S
C1395 O1375 1.256 . S
C1395 C1388 1.500 . S
H1396 C1379 0.930 . S
H1397 C1380 0.931 . S
H1398 C1381 0.930 . S
H1399 C1382 0.930 . S
H1400 C1389 0.930 . S
H1401 C1391 0.931 . S
H1402 C1392 0.930 . S
H1403 C1393 0.930 . S
H1404 C1410 0.930 . S
H1405 C1413 0.930 . S
H1406 C1414 0.930 . S
H1407 C1415 0.930 . S
H1408 C1418 0.930 1_556 S
H1409 C1419 0.930 . S
C1410 H1404 0.930 . S
C1410 C1411 1.355 . S
C1410 C1412 1.415 . S
C1411 C1410 1.355 . S
C1411 C1413 1.419 . S
C1412 C1410 1.415 . S
C1412 C1417 1.425 . S
C1412 C1419 1.409 . S
C1413 H1405 0.930 . S
C1413 C1411 1.419 . S
C1413 C1414 1.362 . S
C1414 H1406 0.930 . S
C1414 C1413 1.362 . S
C1414 C1417 1.409 . S
C1415 H1407 0.930 . S
C1415 C1416 1.355 . S
C1415 C1417 1.415 . S
C1416 C1415 1.355 . S
C1416 C1418 1.419 . S
C1417 C1412 1.425 . S
C1417 C1414 1.409 . S
C1417 C1415 1.415 . S
C1418 H1408 0.930 1_554 S
C1418 C1416 1.419 . S
C1418 C1419 1.362 . S
C1419 H1409 0.930 . S
C1419 C1412 1.409 . S
C1419 C1418 1.362 . S
H1420 C1426 0.930 . S
H1421 C1429 0.930 . S
H1422 C1430 0.930 . S
H1423 C1431 0.930 . S
H1424 C1434 0.930 . S
H1425 C1435 0.930 . S
C1426 H1420 0.930 . S
C1426 C1427 1.355 . S
C1426 C1428 1.415 . S
C1427 C1426 1.355 . S
C1427 C1429 1.419 . S
C1428 C1426 1.415 . S
C1428 C1433 1.425 . S
C1428 C1435 1.409 . S
C1429 H1421 0.930 . S
C1429 C1427 1.419 . S
C1429 C1430 1.362 . S
C1430 H1422 0.930 . S
C1430 C1429 1.362 . S
C1430 C1433 1.409 . S
C1431 H1423 0.930 . S
C1431 C1432 1.355 . S
C1431 C1433 1.415 . S
C1432 C1431 1.355 . S
C1432 C1434 1.419 . S
C1433 C1428 1.425 . S
C1433 C1430 1.409 . S
C1433 C1431 1.415 . S
C1434 H1424 0.930 . S
C1434 C1432 1.419 . S
C1434 C1435 1.362 . S
C1435 H1425 0.930 . S
C1435 C1428 1.409 . S
C1435 C1434 1.362 . S
H1436 C1442 0.930 . S
H1437 C1445 0.930 . S
H1438 C1446 0.930 . S
H1439 C1447 0.930 . S
H1440 C1450 0.930 . S
H1441 C1451 0.930 . S
C1442 H1436 0.930 . S
C1442 C1443 1.355 . S
C1442 C1444 1.415 . S
C1443 C1442 1.355 . S
C1443 C1445 1.419 . S
C1444 C1442 1.415 . S
C1444 C1449 1.425 . S
C1444 C1451 1.409 . S
C1445 H1437 0.930 . S
C1445 C1443 1.419 . S
C1445 C1446 1.362 . S
C1446 H1438 0.930 . S
C1446 C1445 1.362 . S
C1446 C1449 1.409 . S
C1447 H1439 0.930 . S
C1447 C1448 1.355 . S
C1447 C1449 1.415 . S
C1448 C1447 1.355 . S
C1448 C1450 1.419 . S
C1449 C1444 1.425 . S
C1449 C1446 1.409 . S
C1449 C1447 1.415 . S
C1450 H1440 0.930 . S
C1450 C1448 1.419 . S
C1450 C1451 1.362 . S
C1451 H1441 0.930 . S
C1451 C1444 1.409 . S
C1451 C1450 1.362 . S
H1452 C1458 0.930 . S
H1453 C1461 0.930 . S
H1454 C1462 0.930 . S
H1455 C1463 0.930 . S
H1456 C1466 0.930 1_554 S
H1457 C1467 0.930 . S
C1458 H1452 0.930 . S
C1458 C1459 1.355 . S
C1458 C1460 1.415 . S
C1459 C1458 1.355 . S
C1459 C1461 1.419 . S
C1460 C1458 1.415 . S
C1460 C1465 1.425 . S
C1460 C1467 1.409 . S
C1461 H1453 0.930 . S
C1461 C1459 1.419 . S
C1461 C1462 1.362 . S
C1462 H1454 0.930 . S
C1462 C1461 1.362 . S
C1462 C1465 1.409 . S
C1463 H1455 0.930 . S
C1463 C1464 1.355 . S
C1463 C1465 1.415 . S
C1464 C1463 1.355 . S
C1464 C1466 1.419 . S
C1465 C1460 1.425 . S
C1465 C1462 1.409 . S
C1465 C1463 1.415 . S
C1466 H1456 0.930 1_556 S
C1466 C1464 1.419 . S
C1466 C1467 1.362 . S
C1467 H1457 0.930 . S
C1467 C1460 1.409 . S
C1467 C1466 1.362 . S
H1468 C1474 0.930 . S
H1469 C1477 0.930 . S
H1470 C1478 0.930 . S
H1471 C1479 0.977 . S
H1472 C1482 0.930 . S
H1473 C1483 0.930 . S
C1474 H1468 0.930 . S
C1474 C1475 1.355 . S
C1474 C1476 1.415 . S
C1475 C1474 1.355 . S
C1475 C1477 1.419 . S
C1476 C1474 1.415 . S
C1476 C1481 1.425 . S
C1476 C1483 1.409 . S
C1477 H1469 0.930 . S
C1477 C1475 1.419 . S
C1477 C1478 1.362 . S
C1478 H1470 0.930 . S
C1478 C1477 1.362 . S
C1478 C1481 1.409 . S
C1479 H1471 0.977 . S
C1479 C1480 1.355 . S
C1479 C1481 1.415 . S
C1480 C1479 1.355 . S
C1480 C1482 1.419 . S
C1481 C1476 1.425 . S
C1481 C1478 1.409 . S
C1481 C1479 1.415 . S
C1482 H1472 0.930 . S
C1482 C1480 1.419 . S
C1482 C1483 1.362 . S
C1483 H1473 0.930 . S
C1483 C1476 1.409 . S
C1483 C1482 1.362 . S
H1484 C1490 0.930 . S
H1485 C1493 0.930 . S
H1486 C1494 0.930 . S
H1487 C1495 0.930 . S
H1488 C1498 0.930 1_554 S
H1489 C1499 0.930 . S
C1490 H1484 0.930 . S
C1490 C1491 1.355 . S
C1490 C1492 1.415 . S
C1491 C1490 1.355 . S
C1491 C1493 1.419 . S
C1492 C1490 1.415 . S
C1492 C1497 1.425 . S
C1492 C1499 1.409 . S
C1493 H1485 0.930 . S
C1493 C1491 1.419 . S
C1493 C1494 1.362 . S
C1494 H1486 0.930 . S
C1494 C1493 1.362 . S
C1494 C1497 1.409 . S
C1495 H1487 0.930 . S
C1495 C1496 1.355 . S
C1495 C1497 1.415 . S
C1496 C1495 1.355 . S
C1496 C1498 1.419 . S
C1497 C1492 1.425 . S
C1497 C1494 1.409 . S
C1497 C1495 1.415 . S
C1498 H1488 0.930 1_556 S
C1498 C1496 1.419 . S
C1498 C1499 1.362 . S
C1499 H1489 0.930 . S
C1499 C1492 1.409 . S
C1499 C1498 1.362 . S
H1500 C1506 0.930 . S
H1501 C1509 0.930 . S
H1502 C1510 0.930 . S
H1503 C1511 0.930 . S
H1504 C1514 0.930 . S
H1505 C1515 0.930 . S
C1506 H1500 0.930 . S
C1506 C1507 1.355 . S
C1506 C1508 1.415 . S
C1507 C1506 1.355 . S
C1507 C1509 1.419 . S
C1508 C1506 1.415 . S
C1508 C1513 1.425 . S
C1508 C1515 1.409 . S
C1509 H1501 0.930 . S
C1509 C1507 1.419 . S
C1509 C1510 1.362 . S
C1510 H1502 0.930 . S
C1510 C1509 1.362 . S
C1510 C1513 1.409 . S
C1511 H1503 0.930 . S
C1511 C1512 1.355 . S
C1511 C1513 1.415 . S
C1512 C1511 1.355 . S
C1512 C1514 1.419 . S
C1513 C1508 1.425 . S
C1513 C1510 1.409 . S
C1513 C1511 1.415 . S
C1514 H1504 0.930 . S
C1514 C1512 1.419 . S
C1514 C1515 1.362 . S
C1515 H1505 0.930 . S
C1515 C1508 1.409 . S
C1515 C1514 1.362 . S
H1516 C1522 0.930 . S
H1517 C1525 0.930 . S
H1518 C1526 0.930 . S
H1519 C1527 0.930 . S
H1520 C1530 0.930 . S
H1521 C1531 0.930 . S
C1522 H1516 0.930 . S
C1522 C1523 1.355 . S
C1522 C1524 1.415 . S
C1523 C1522 1.355 . S
C1523 C1525 1.419 . S
C1524 C1522 1.415 . S
C1524 C1529 1.425 . S
C1524 C1531 1.409 . S
C1525 H1517 0.930 . S
C1525 C1523 1.419 . S
C1525 C1526 1.362 . S
C1526 H1518 0.930 . S
C1526 C1525 1.362 . S
C1526 C1529 1.409 . S
C1527 H1519 0.930 . S
C1527 C1528 1.355 . S
C1527 C1529 1.415 . S
C1528 C1527 1.355 . S
C1528 C1530 1.419 . S
C1529 C1524 1.425 . S
C1529 C1526 1.409 . S
C1529 C1527 1.415 . S
C1530 H1520 0.930 . S
C1530 C1528 1.419 . S
C1530 C1531 1.362 . S
C1531 H1521 0.930 . S
C1531 C1524 1.409 . S
C1531 C1530 1.362 . S
H1532 C1538 0.930 . S
H1533 C1541 0.930 . S
H1534 C1542 0.930 1_554 S
H1535 C1543 0.930 1_554 S
H1536 C1546 0.930 . S
H1537 C1547 0.930 . S
C1538 H1532 0.930 . S
C1538 C1539 1.355 . S
C1538 C1540 1.415 . S
C1539 C1538 1.355 . S
C1539 C1541 1.419 . S
C1540 C1538 1.415 . S
C1540 C1545 1.425 . S
C1540 C1547 1.409 . S
C1541 H1533 0.930 . S
C1541 C1539 1.419 . S
C1541 C1542 1.362 . S
C1542 H1534 0.930 1_556 S
C1542 C1541 1.362 . S
C1542 C1545 1.409 . S
C1543 H1535 0.930 1_556 S
C1543 C1544 1.355 . S
C1543 C1545 1.415 . S
C1544 C1543 1.355 . S
C1544 C1546 1.419 . S
C1545 C1540 1.425 . S
C1545 C1542 1.409 . S
C1545 C1543 1.415 . S
C1546 H1536 0.930 . S
C1546 C1544 1.419 . S
C1546 C1547 1.362 . S
C1547 H1537 0.930 . S
C1547 C1540 1.409 . S
C1547 C1546 1.362 . S
H1548 C1554 0.930 . S
H1549 C1557 0.930 . S
H1550 C1558 0.930 . S
H1551 C1559 0.930 . S
H1552 C1562 0.930 1_556 S
H1553 C1563 0.930 . S
C1554 H1548 0.930 . S
C1554 C1555 1.355 . S
C1554 C1556 1.415 . S
C1555 C1554 1.355 . S
C1555 C1557 1.419 . S
C1556 C1554 1.415 . S
C1556 C1561 1.425 . S
C1556 C1563 1.409 . S
C1557 H1549 0.930 . S
C1557 C1555 1.419 . S
C1557 C1558 1.362 . S
C1558 H1550 0.930 . S
C1558 C1557 1.362 . S
C1558 C1561 1.409 . S
C1559 H1551 0.930 . S
C1559 C1560 1.355 . S
C1559 C1561 1.415 . S
C1560 C1559 1.355 . S
C1560 C1562 1.419 . S
C1561 C1556 1.425 . S
C1561 C1558 1.409 . S
C1561 C1559 1.415 . S
C1562 H1552 0.930 1_554 S
C1562 C1560 1.419 . S
C1562 C1563 1.362 . S
C1563 H1553 0.930 . S
C1563 C1556 1.409 . S
C1563 C1562 1.362 . S
H1564 C1570 0.930 . S
H1565 C1573 0.930 . S
H1566 C1574 0.930 . S
H1567 C1575 0.930 . S
H1568 C1578 0.930 . S
H1569 C1579 0.930 . S
C1570 H1564 0.930 . S
C1570 C1571 1.355 . S
C1570 C1572 1.415 . S
C1571 C1570 1.355 . S
C1571 C1573 1.419 . S
C1572 C1570 1.415 . S
C1572 C1577 1.425 . S
C1572 C1579 1.409 . S
C1573 H1565 0.930 . S
C1573 C1571 1.419 . S
C1573 C1574 1.362 . S
C1574 H1566 0.930 . S
C1574 C1573 1.362 . S
C1574 C1577 1.409 . S
C1575 H1567 0.930 . S
C1575 C1576 1.355 . S
C1575 C1577 1.415 . S
C1576 C1575 1.355 . S
C1576 C1578 1.419 . S
C1577 C1572 1.425 . S
C1577 C1574 1.409 . S
C1577 C1575 1.415 . S
C1578 H1568 0.930 . S
C1578 C1576 1.419 . S
C1578 C1579 1.362 . S
C1579 H1569 0.930 . S
C1579 C1572 1.409 . S
C1579 C1578 1.362 . S
H1580 C1586 0.930 . S
H1581 C1589 0.930 . S
H1582 C1590 0.930 . S
H1583 C1591 0.930 . S
H1584 C1594 0.930 1_556 S
H1585 C1595 0.930 . S
C1586 H1580 0.930 . S
C1586 C1587 1.355 . S
C1586 C1588 1.415 . S
C1587 C1586 1.355 . S
C1587 C1589 1.419 . S
C1588 C1586 1.415 . S
C1588 C1593 1.425 . S
C1588 C1595 1.409 . S
C1589 H1581 0.930 . S
C1589 C1587 1.419 . S
C1589 C1590 1.362 . S
C1590 H1582 0.930 . S
C1590 C1589 1.362 . S
C1590 C1593 1.409 . S
C1591 H1583 0.930 . S
C1591 C1592 1.355 . S
C1591 C1593 1.415 . S
C1592 C1591 1.355 . S
C1592 C1594 1.419 . S
C1593 C1588 1.425 . S
C1593 C1590 1.409 . S
C1593 C1591 1.415 . S
C1594 H1584 0.930 1_554 S
C1594 C1592 1.419 . S
C1594 C1595 1.362 . S
C1595 H1585 0.930 . S
C1595 C1588 1.409 . S
C1595 C1594 1.362 . S
H1596 C1602 0.930 . S
H1597 C1605 0.930 . S
H1598 C1606 0.930 . S
H1599 C1607 0.930 . S
H1600 C1610 0.930 . S
H1601 C1611 0.930 . S
C1602 H1596 0.930 . S
C1602 C1603 1.355 . S
C1602 C1604 1.415 . S
C1603 C1602 1.355 . S
C1603 C1605 1.419 . S
C1604 C1602 1.415 . S
C1604 C1609 1.425 . S
C1604 C1611 1.409 . S
C1605 H1597 0.930 . S
C1605 C1603 1.419 . S
C1605 C1606 1.362 . S
C1606 H1598 0.930 . S
C1606 C1605 1.362 . S
C1606 C1609 1.409 . S
C1607 H1599 0.930 . S
C1607 C1608 1.355 . S
C1607 C1609 1.415 . S
C1608 C1607 1.355 . S
C1608 C1610 1.419 . S
C1609 C1604 1.425 . S
C1609 C1606 1.409 . S
C1609 C1607 1.415 . S
C1610 H1600 0.930 . S
C1610 C1608 1.419 . S
C1610 C1611 1.362 . S
C1611 H1601 0.930 . S
C1611 C1604 1.409 . S
C1611 C1610 1.362 . S
H1612 C1618 0.930 . S
H1613 C1621 0.930 . S
H1614 C1622 0.930 . S
H1615 C1623 0.930 . S
H1616 C1626 0.930 . S
H1617 C1627 0.930 . S
C1618 H1612 0.930 . S
C1618 C1619 1.355 . S
C1618 C1620 1.415 . S
C1619 C1618 1.355 . S
C1619 C1621 1.419 . S
C1620 C1618 1.415 . S
C1620 C1625 1.425 . S
C1620 C1627 1.409 . S
C1621 H1613 0.930 . S
C1621 C1619 1.419 . S
C1621 C1622 1.362 . S
C1622 H1614 0.930 . S
C1622 C1621 1.362 . S
C1622 C1625 1.409 . S
C1623 H1615 0.930 . S
C1623 C1624 1.355 . S
C1623 C1625 1.415 . S
C1624 C1623 1.355 . S
C1624 C1626 1.419 . S
C1625 C1620 1.425 . S
C1625 C1622 1.409 . S
C1625 C1623 1.415 . S
C1626 H1616 0.930 . S
C1626 C1624 1.419 . S
C1626 C1627 1.362 . S
C1627 H1617 0.930 . S
C1627 C1620 1.409 . S
C1627 C1626 1.362 . S
H1628 C1634 0.930 1_545 S
H1629 C1637 0.930 . S
H1630 C1638 0.930 . S
H1631 C1639 0.930 . S
H1632 C1642 0.930 . S
H1633 C1643 0.930 . S
C1634 H1628 0.930 1_565 S
C1634 C1635 1.355 1_565 S
C1634 C1636 1.415 . S
C1635 C1634 1.355 1_545 S
C1635 C1637 1.419 1_545 S
C1636 C1634 1.415 . S
C1636 C1641 1.425 . S
C1636 C1643 1.409 . S
C1637 H1629 0.930 . S
C1637 C1635 1.419 1_565 S
C1637 C1638 1.362 . S
C1638 H1630 0.930 . S
C1638 C1637 1.362 . S
C1638 C1641 1.409 . S
C1639 H1631 0.930 . S
C1639 C1640 1.355 . S
C1639 C1641 1.415 . S
C1640 C1639 1.355 . S
C1640 C1642 1.419 . S
C1641 C1636 1.425 . S
C1641 C1638 1.409 . S
C1641 C1639 1.415 . S
C1642 H1632 0.930 . S
C1642 C1640 1.419 . S
C1642 C1643 1.362 . S
C1643 H1633 0.930 . S
C1643 C1636 1.409 . S
C1643 C1642 1.362 . S
H1644 C1650 0.930 . S
H1645 C1653 0.930 . S
H1646 C1654 0.930 . S
H1647 C1655 0.930 . S
H1648 C1658 0.930 . S
H1649 C1659 0.930 . S
C1650 H1644 0.930 . S
C1650 C1651 1.355 . S
C1650 C1652 1.415 . S
C1651 C1650 1.355 . S
C1651 C1653 1.419 . S
C1652 C1650 1.415 . S
C1652 C1657 1.425 . S
C1652 C1659 1.409 . S
C1653 H1645 0.930 . S
C1653 C1651 1.419 . S
C1653 C1654 1.362 . S
C1654 H1646 0.930 . S
C1654 C1653 1.362 . S
C1654 C1657 1.409 . S
C1655 H1647 0.930 . S
C1655 C1656 1.355 . S
C1655 C1657 1.415 . S
C1656 C1655 1.355 . S
C1656 C1658 1.419 . S
C1657 C1652 1.425 . S
C1657 C1654 1.409 . S
C1657 C1655 1.415 . S
C1658 H1648 0.930 . S
C1658 C1656 1.419 . S
C1658 C1659 1.362 . S
C1659 H1649 0.930 . S
C1659 C1652 1.409 . S
C1659 C1658 1.362 . S
H1660 C1666 0.930 . S
H1661 C1669 0.930 . S
H1662 C1670 0.930 . S
H1663 C1671 0.930 . S
H1664 C1674 0.930 . S
H1665 C1675 0.930 . S
C1666 H1660 0.930 . S
C1666 C1667 1.355 . S
C1666 C1668 1.415 . S
C1667 C1666 1.355 . S
C1667 C1669 1.419 . S
C1668 C1666 1.415 . S
C1668 C1673 1.425 . S
C1668 C1675 1.409 . S
C1669 H1661 0.930 . S
C1669 C1667 1.419 . S
C1669 C1670 1.362 . S
C1670 H1662 0.930 . S
C1670 C1669 1.362 . S
C1670 C1673 1.409 . S
C1671 H1663 0.930 . S
C1671 C1672 1.355 . S
C1671 C1673 1.415 . S
C1672 C1671 1.355 . S
C1672 C1674 1.419 . S
C1673 C1668 1.425 . S
C1673 C1670 1.409 . S
C1673 C1671 1.415 . S
C1674 H1664 0.930 . S
C1674 C1672 1.419 . S
C1674 C1675 1.362 . S
C1675 H1665 0.930 . S
C1675 C1668 1.409 . S
C1675 C1674 1.362 . S
H1676 C1682 0.930 . S
H1677 C1685 0.930 . S
H1678 C1686 0.930 . S
H1679 C1687 0.930 . S
H1680 C1690 0.930 . S
H1681 C1691 0.930 . S
C1682 H1676 0.930 . S
C1682 C1683 1.355 . S
C1682 C1684 1.415 . S
C1683 C1682 1.355 . S
C1683 C1685 1.419 . S
C1684 C1682 1.415 . S
C1684 C1689 1.425 . S
C1684 C1691 1.409 . S
C1685 H1677 0.930 . S
C1685 C1683 1.419 . S
C1685 C1686 1.362 . S
C1686 H1678 0.930 . S
C1686 C1685 1.362 . S
C1686 C1689 1.409 . S
C1687 H1679 0.930 . S
C1687 C1688 1.355 . S
C1687 C1689 1.415 . S
C1688 C1687 1.355 . S
C1688 C1690 1.419 . S
C1689 C1684 1.425 . S
C1689 C1686 1.409 . S
C1689 C1687 1.415 . S
C1690 H1680 0.930 . S
C1690 C1688 1.419 . S
C1690 C1691 1.362 . S
C1691 H1681 0.930 . S
C1691 C1684 1.409 . S
C1691 C1690 1.362 . S
H1692 C1698 0.930 . S
H1693 C1701 0.930 . S
H1694 C1702 0.930 . S
H1695 C1703 0.930 . S
H1696 C1706 0.930 . S
H1697 C1707 0.930 . S
C1698 H1692 0.930 . S
C1698 C1699 1.355 . S
C1698 C1700 1.415 . S
C1699 C1698 1.355 . S
C1699 C1701 1.419 . S
C1700 C1698 1.415 . S
C1700 C1705 1.425 . S
C1700 C1707 1.409 . S
C1701 H1693 0.930 . S
C1701 C1699 1.419 . S
C1701 C1702 1.362 . S
C1702 H1694 0.930 . S
C1702 C1701 1.362 . S
C1702 C1705 1.409 . S
C1703 H1695 0.930 . S
C1703 C1704 1.355 . S
C1703 C1705 1.415 . S
C1704 C1703 1.355 . S
C1704 C1706 1.419 . S
C1705 C1700 1.425 . S
C1705 C1702 1.409 . S
C1705 C1703 1.415 . S
C1706 H1696 0.930 . S
C1706 C1704 1.419 . S
C1706 C1707 1.362 . S
C1707 H1697 0.930 . S
C1707 C1700 1.409 . S
C1707 C1706 1.362 . S
H1708 C1714 0.930 . S
H1709 C1717 0.930 . S
H1710 C1718 0.930 . S
H1711 C1719 0.930 . S
H1712 C1722 0.930 . S
H1713 C1723 0.930 . S
C1714 H1708 0.930 . S
C1714 C1715 1.355 . S
C1714 C1716 1.415 . S
C1715 C1714 1.355 . S
C1715 C1717 1.419 . S
C1716 C1714 1.415 . S
C1716 C1721 1.425 . S
C1716 C1723 1.409 . S
C1717 H1709 0.930 . S
C1717 C1715 1.419 . S
C1717 C1718 1.362 . S
C1718 H1710 0.930 . S
C1718 C1717 1.362 . S
C1718 C1721 1.409 . S
C1719 H1711 0.930 . S
C1719 C1720 1.355 . S
C1719 C1721 1.415 . S
C1720 C1719 1.355 . S
C1720 C1722 1.419 . S
C1721 C1716 1.425 . S
C1721 C1718 1.409 . S
C1721 C1719 1.415 . S
C1722 H1712 0.930 . S
C1722 C1720 1.419 . S
C1722 C1723 1.362 . S
C1723 H1713 0.930 . S
C1723 C1716 1.409 . S
C1723 C1722 1.362 . S
H1724 C1730 0.930 . S
H1725 C1733 0.930 . S
H1726 C1734 0.930 . S
H1727 C1735 0.930 . S
H1728 C1738 0.930 . S
H1729 C1739 0.930 . S
C1730 H1724 0.930 . S
C1730 C1731 1.355 . S
C1730 C1732 1.415 . S
C1731 C1730 1.355 . S
C1731 C1733 1.419 . S
C1732 C1730 1.415 . S
C1732 C1737 1.425 . S
C1732 C1739 1.409 . S
C1733 H1725 0.930 . S
C1733 C1731 1.419 . S
C1733 C1734 1.362 . S
C1734 H1726 0.930 . S
C1734 C1733 1.362 . S
C1734 C1737 1.409 . S
C1735 H1727 0.930 . S
C1735 C1736 1.355 . S
C1735 C1737 1.415 . S
C1736 C1735 1.355 . S
C1736 C1738 1.419 . S
C1737 C1732 1.425 . S
C1737 C1734 1.409 . S
C1737 C1735 1.415 . S
C1738 H1728 0.930 . S
C1738 C1736 1.419 . S
C1738 C1739 1.362 . S
C1739 H1729 0.930 . S
C1739 C1732 1.409 . S
C1739 C1738 1.362 . S
H1740 C1746 0.930 1_545 S
H1741 C1749 0.930 . S
H1742 C1750 0.930 . S
H1743 C1751 0.930 . S
H1744 C1754 0.930 . S
H1745 C1755 0.930 . S
C1746 H1740 0.930 1_565 S
C1746 C1747 1.356 1_565 S
C1746 C1748 1.415 . S
C1747 C1746 1.356 1_545 S
C1747 C1749 1.383 1_545 S
C1748 C1746 1.415 . S
C1748 C1753 1.425 . S
C1748 C1755 1.409 . S
C1749 H1741 0.930 . S
C1749 C1747 1.383 1_565 S
C1749 C1750 1.362 . S
C1750 H1742 0.930 . S
C1750 C1749 1.362 . S
C1750 C1753 1.409 . S
C1751 H1743 0.930 . S
C1751 C1752 1.355 . S
C1751 C1753 1.415 . S
C1752 C1751 1.355 . S
C1752 C1754 1.419 . S
C1753 C1748 1.425 . S
C1753 C1750 1.409 . S
C1753 C1751 1.415 . S
C1754 H1744 0.930 . S
C1754 C1752 1.419 . S
C1754 C1755 1.362 . S
C1755 H1745 0.930 . S
C1755 C1748 1.409 . S
C1755 C1754 1.362 . S
H1756 C1762 0.934 . S
H1757 C1765 0.930 . S
H1758 C1766 0.930 . S
H1759 C1767 0.930 . S
H1760 C1770 0.930 . S
H1761 C1771 0.930 . S
C1762 H1756 0.934 . S
C1762 C1763 1.355 . S
C1762 C1764 1.415 . S
C1763 C1762 1.355 . S
C1763 C1765 1.419 . S
C1764 C1762 1.415 . S
C1764 C1769 1.425 . S
C1764 C1771 1.409 . S
C1765 H1757 0.930 . S
C1765 C1763 1.419 . S
C1765 C1766 1.362 . S
C1766 H1758 0.930 . S
C1766 C1765 1.362 . S
C1766 C1769 1.409 . S
C1767 H1759 0.930 . S
C1767 C1768 1.355 . S
C1767 C1769 1.415 . S
C1768 C1767 1.355 . S
C1768 C1770 1.419 . S
C1769 C1764 1.425 . S
C1769 C1766 1.409 . S
C1769 C1767 1.415 . S
C1770 H1760 0.930 . S
C1770 C1768 1.419 . S
C1770 C1771 1.362 . S
C1771 H1761 0.930 . S
C1771 C1764 1.409 . S
C1771 C1770 1.362 . S
H1772 C1778 0.930 . S
H1773 C1781 0.930 . S
H1774 C1782 0.930 . S
H1775 C1783 0.930 . S
H1776 C1786 0.930 . S
H1777 C1787 0.930 . S
C1778 H1772 0.930 . S
C1778 C1779 1.355 . S
C1778 C1780 1.415 . S
C1779 C1778 1.355 . S
C1779 C1781 1.419 . S
C1780 C1778 1.415 . S
C1780 C1785 1.425 . S
C1780 C1787 1.409 . S
C1781 H1773 0.930 . S
C1781 C1779 1.419 . S
C1781 C1782 1.362 . S
C1782 H1774 0.930 . S
C1782 C1781 1.362 . S
C1782 C1785 1.409 . S
C1783 H1775 0.930 . S
C1783 C1784 1.355 . S
C1783 C1785 1.415 . S
C1784 C1783 1.355 . S
C1784 C1786 1.419 . S
C1785 C1780 1.425 . S
C1785 C1782 1.409 . S
C1785 C1783 1.415 . S
C1786 H1776 0.930 . S
C1786 C1784 1.419 . S
C1786 C1787 1.362 . S
C1787 H1777 0.930 . S
C1787 C1780 1.409 . S
C1787 C1786 1.362 . S
H1788 C1794 0.930 . S
H1789 C1797 0.930 . S
H1790 C1798 0.930 . S
H1791 C1799 0.930 . S
H1792 C1802 0.930 . S
H1793 C1803 0.930 . S
C1794 H1788 0.930 . S
C1794 C1795 1.355 . S
C1794 C1796 1.415 . S
C1795 C1794 1.355 . S
C1795 C1797 1.419 . S
C1796 C1794 1.415 . S
C1796 C1801 1.425 . S
C1796 C1803 1.409 . S
C1797 H1789 0.930 . S
C1797 C1795 1.419 . S
C1797 C1798 1.362 . S
C1798 H1790 0.930 . S
C1798 C1797 1.362 . S
C1798 C1801 1.409 . S
C1799 H1791 0.930 . S
C1799 C1800 1.355 . S
C1799 C1801 1.415 . S
C1800 C1799 1.355 . S
C1800 C1802 1.419 . S
C1801 C1796 1.425 . S
C1801 C1798 1.409 . S
C1801 C1799 1.415 . S
C1802 H1792 0.930 . S
C1802 C1800 1.419 . S
C1802 C1803 1.362 . S
C1803 H1793 0.930 . S
C1803 C1796 1.409 . S
C1803 C1802 1.362 . S
H1804 C1810 0.930 . S
H1805 C1813 0.930 . S
H1806 C1814 0.930 . S
H1807 C1815 0.930 . S
H1808 C1818 0.930 . S
H1809 C1819 0.930 . S
C1810 H1804 0.930 . S
C1810 C1811 1.355 . S
C1810 C1812 1.415 . S
C1811 C1810 1.355 . S
C1811 C1813 1.419 . S
C1812 C1810 1.415 . S
C1812 C1817 1.425 . S
C1812 C1819 1.409 . S
C1813 H1805 0.930 . S
C1813 C1811 1.419 . S
C1813 C1814 1.362 . S
C1814 H1806 0.930 . S
C1814 C1813 1.362 . S
C1814 C1817 1.409 . S
C1815 H1807 0.930 . S
C1815 C1816 1.355 . S
C1815 C1817 1.415 . S
C1816 C1815 1.355 . S
C1816 C1818 1.419 . S
C1817 C1812 1.425 . S
C1817 C1814 1.409 . S
C1817 C1815 1.415 . S
C1818 H1808 0.930 . S
C1818 C1816 1.419 . S
C1818 C1819 1.362 . S
C1819 H1809 0.930 . S
C1819 C1812 1.409 . S
C1819 C1818 1.362 . S
H1820 C1826 0.930 . S
H1821 C1829 0.930 . S
H1822 C1830 0.930 . S
H1823 C1831 0.930 . S
H1824 C1834 0.930 . S
H1825 C1835 0.930 . S
C1826 H1820 0.930 . S
C1826 C1827 1.355 . S
C1826 C1828 1.415 . S
C1827 C1826 1.355 . S
C1827 C1829 1.419 . S
C1828 C1826 1.415 . S
C1828 C1833 1.425 . S
C1828 C1835 1.409 . S
C1829 H1821 0.930 . S
C1829 C1827 1.419 . S
C1829 C1830 1.362 . S
C1830 H1822 0.930 . S
C1830 C1829 1.362 . S
C1830 C1833 1.409 . S
C1831 H1823 0.930 . S
C1831 C1832 1.355 . S
C1831 C1833 1.415 . S
C1832 C1831 1.355 . S
C1832 C1834 1.419 . S
C1833 C1828 1.425 . S
C1833 C1830 1.409 . S
C1833 C1831 1.415 . S
C1834 H1824 0.930 . S
C1834 C1832 1.419 . S
C1834 C1835 1.362 . S
C1835 H1825 0.930 . S
C1835 C1828 1.409 . S
C1835 C1834 1.362 . S
H1836 C1842 0.929 1_565 S
H1837 C1845 0.930 . S
H1838 C1846 0.930 . S
H1839 C1847 0.930 . S
H1840 C1850 0.930 . S
H1841 C1851 0.930 . S
C1842 H1836 0.929 1_545 S
C1842 C1843 1.355 1_545 S
C1842 C1844 1.415 . S
C1843 C1842 1.355 1_565 S
C1843 C1845 1.419 1_565 S
C1844 C1842 1.415 . S
C1844 C1849 1.425 . S
C1844 C1851 1.409 . S
C1845 H1837 0.930 . S
C1845 C1843 1.419 1_545 S
C1845 C1846 1.362 . S
C1846 H1838 0.930 . S
C1846 C1845 1.362 . S
C1846 C1849 1.409 . S
C1847 H1839 0.930 . S
C1847 C1848 1.355 . S
C1847 C1849 1.415 . S
C1848 C1847 1.355 . S
C1848 C1850 1.419 . S
C1849 C1844 1.425 . S
C1849 C1846 1.409 . S
C1849 C1847 1.415 . S
C1850 H1840 0.930 . S
C1850 C1848 1.419 . S
C1850 C1851 1.362 . S
C1851 H1841 0.930 . S
C1851 C1844 1.409 . S
C1851 C1850 1.362 . S
H1852 C1858 0.930 . S
H1853 C1861 0.930 1_455 S
H1854 C1862 0.930 . S
H1855 C1863 0.930 . S
H1856 C1866 0.930 . S
H1857 C1867 0.930 . S
C1858 H1852 0.930 . S
C1858 C1859 1.355 . S
C1858 C1860 1.415 . S
C1859 C1858 1.355 . S
C1859 C1861 1.419 . S
C1860 C1858 1.415 . S
C1860 C1865 1.425 . S
C1860 C1867 1.409 . S
C1861 H1853 0.930 1_655 S
C1861 C1859 1.419 . S
C1861 C1862 1.362 . S
C1862 H1854 0.930 . S
C1862 C1861 1.362 . S
C1862 C1865 1.409 . S
C1863 H1855 0.930 . S
C1863 C1864 1.355 . S
C1863 C1865 1.415 . S
C1864 C1863 1.355 . S
C1864 C1866 1.419 . S
C1865 C1860 1.425 . S
C1865 C1862 1.409 . S
C1865 C1863 1.415 . S
C1866 H1856 0.930 . S
C1866 C1864 1.419 . S
C1866 C1867 1.362 . S
C1867 H1857 0.930 . S
C1867 C1860 1.409 . S
C1867 C1866 1.362 . S
H1868 C1874 0.930 . S
H1869 C1877 0.930 . S
H1870 C1878 0.930 . S
H1871 C1879 0.930 . S
H1872 C1882 0.930 . S
H1873 C1883 0.930 . S
C1874 H1868 0.930 . S
C1874 C1875 1.355 . S
C1874 C1876 1.415 . S
C1875 C1874 1.355 . S
C1875 C1877 1.419 . S
C1876 C1874 1.415 . S
C1876 C1881 1.425 . S
C1876 C1883 1.409 . S
C1877 H1869 0.930 . S
C1877 C1875 1.419 . S
C1877 C1878 1.362 . S
C1878 H1870 0.930 . S
C1878 C1877 1.362 . S
C1878 C1881 1.409 . S
C1879 H1871 0.930 . S
C1879 C1880 1.355 . S
C1879 C1881 1.415 . S
C1880 C1879 1.355 . S
C1880 C1882 1.419 . S
C1881 C1876 1.425 . S
C1881 C1878 1.409 . S
C1881 C1879 1.415 . S
C1882 H1872 0.930 . S
C1882 C1880 1.419 . S
C1882 C1883 1.362 . S
C1883 H1873 0.930 . S
C1883 C1876 1.409 . S
C1883 C1882 1.362 . S
H1884 C1890 0.930 . S
H1885 C1893 0.930 1_455 S
H1886 C1894 0.930 . S
H1887 C1895 0.930 . S
H1888 C1898 0.930 . S
H1889 C1899 0.930 . S
C1890 H1884 0.930 . S
C1890 C1891 1.355 . S
C1890 C1892 1.415 . S
C1891 C1890 1.355 . S
C1891 C1893 1.419 . S
C1892 C1890 1.415 . S
C1892 C1897 1.425 . S
C1892 C1899 1.409 . S
C1893 H1885 0.930 1_655 S
C1893 C1891 1.419 . S
C1893 C1894 1.362 . S
C1894 H1886 0.930 . S
C1894 C1893 1.362 . S
C1894 C1897 1.409 . S
C1895 H1887 0.930 . S
C1895 C1896 1.355 . S
C1895 C1897 1.415 . S
C1896 C1895 1.355 . S
C1896 C1898 1.419 . S
C1897 C1892 1.425 . S
C1897 C1894 1.409 . S
C1897 C1895 1.415 . S
C1898 H1888 0.930 . S
C1898 C1896 1.419 . S
C1898 C1899 1.362 . S
C1899 H1889 0.930 . S
C1899 C1892 1.409 . S
C1899 C1898 1.362 . S
H1900 C1906 0.930 . S
H1901 C1909 0.930 . S
H1902 C1910 0.930 . S
H1903 C1911 0.930 . S
H1904 C1914 0.930 . S
H1905 C1915 0.930 . S
C1906 H1900 0.930 . S
C1906 C1907 1.355 . S
C1906 C1908 1.415 . S
C1907 C1906 1.355 . S
C1907 C1909 1.419 . S
C1908 C1906 1.415 . S
C1908 C1913 1.425 . S
C1908 C1915 1.409 . S
C1909 H1901 0.930 . S
C1909 C1907 1.419 . S
C1909 C1910 1.362 . S
C1910 H1902 0.930 . S
C1910 C1909 1.362 . S
C1910 C1913 1.409 . S
C1911 H1903 0.930 . S
C1911 C1912 1.355 . S
C1911 C1913 1.415 . S
C1912 C1911 1.355 . S
C1912 C1914 1.419 . S
C1913 C1908 1.425 . S
C1913 C1910 1.409 . S
C1913 C1911 1.415 . S
C1914 H1904 0.930 . S
C1914 C1912 1.419 . S
C1914 C1915 1.362 . S
C1915 H1905 0.930 . S
C1915 C1908 1.409 . S
C1915 C1914 1.362 . S
H1916 C1922 0.930 1_565 S
H1917 C1925 0.930 . S
H1918 C1926 0.930 . S
H1919 C1927 0.930 . S
H1920 C1930 0.930 . S
H1921 C1931 0.930 . S
C1922 H1916 0.930 1_545 S
C1922 C1923 1.355 1_545 S
C1922 C1924 1.415 . S
C1923 C1922 1.355 1_565 S
C1923 C1925 1.419 1_565 S
C1924 C1922 1.415 . S
C1924 C1929 1.425 . S
C1924 C1931 1.409 . S
C1925 H1917 0.930 . S
C1925 C1923 1.419 1_545 S
C1925 C1926 1.362 . S
C1926 H1918 0.930 . S
C1926 C1925 1.362 . S
C1926 C1929 1.409 . S
C1927 H1919 0.930 . S
C1927 C1928 1.355 . S
C1927 C1929 1.415 . S
C1928 C1927 1.355 . S
C1928 C1930 1.419 . S
C1929 C1924 1.425 . S
C1929 C1926 1.409 . S
C1929 C1927 1.415 . S
C1930 H1920 0.930 . S
C1930 C1928 1.419 . S
C1930 C1931 1.362 . S
C1931 H1921 0.930 . S
C1931 C1924 1.409 . S
C1931 C1930 1.362 . S
H1932 C1938 0.930 . S
H1933 C1941 0.930 . S
H1934 C1942 0.930 . S
H1935 C1943 0.930 . S
H1936 C1946 0.930 . S
H1937 C1947 0.930 . S
C1938 H1932 0.930 . S
C1938 C1939 1.355 . S
C1938 C1940 1.415 . S
C1939 C1938 1.355 . S
C1939 C1941 1.419 . S
C1940 C1938 1.415 . S
C1940 C1945 1.425 . S
C1940 C1947 1.409 . S
C1941 H1933 0.930 . S
C1941 C1939 1.419 . S
C1941 C1942 1.362 . S
C1942 H1934 0.930 . S
C1942 C1941 1.362 . S
C1942 C1945 1.409 . S
C1943 H1935 0.930 . S
C1943 C1944 1.355 . S
C1943 C1945 1.415 . S
C1944 C1943 1.355 . S
C1944 C1946 1.419 . S
C1945 C1940 1.425 . S
C1945 C1942 1.409 . S
C1945 C1943 1.415 . S
C1946 H1936 0.930 . S
C1946 C1944 1.419 . S
C1946 C1947 1.362 . S
C1947 H1937 0.930 . S
C1947 C1940 1.409 . S
C1947 C1946 1.362 . S
H1948 C1954 0.930 . S
H1949 C1957 0.930 . S
H1950 C1958 0.930 . S
H1951 C1959 0.930 . S
H1952 C1962 0.930 . S
H1953 C1963 0.930 . S
C1954 H1948 0.930 . S
C1954 C1955 1.355 . S
C1954 C1956 1.415 . S
C1955 C1954 1.355 . S
C1955 C1957 1.419 . S
C1956 C1954 1.415 . S
C1956 C1961 1.425 . S
C1956 C1963 1.409 . S
C1957 H1949 0.930 . S
C1957 C1955 1.419 . S
C1957 C1958 1.362 . S
C1958 H1950 0.930 . S
C1958 C1957 1.362 . S
C1958 C1961 1.409 . S
C1959 H1951 0.930 . S
C1959 C1960 1.355 . S
C1959 C1961 1.415 . S
C1960 C1959 1.355 . S
C1960 C1962 1.419 . S
C1961 C1956 1.425 . S
C1961 C1958 1.409 . S
C1961 C1959 1.415 . S
C1962 H1952 0.930 . S
C1962 C1960 1.419 . S
C1962 C1963 1.362 . S
C1963 H1953 0.930 . S
C1963 C1956 1.409 . S
C1963 C1962 1.362 . S
H1964 C1970 0.930 . S
H1965 C1973 0.930 . S
H1966 C1974 0.930 . S
H1967 C1975 0.930 . S
H1968 C1978 0.930 . S
H1969 C1979 0.930 . S
C1970 H1964 0.930 . S
C1970 C1971 1.355 . S
C1970 C1972 1.415 . S
C1971 C1970 1.355 . S
C1971 C1973 1.419 . S
C1972 C1970 1.415 . S
C1972 C1977 1.425 . S
C1972 C1979 1.409 . S
C1973 H1965 0.930 . S
C1973 C1971 1.419 . S
C1973 C1974 1.362 . S
C1974 H1966 0.930 . S
C1974 C1973 1.362 . S
C1974 C1977 1.409 . S
C1975 H1967 0.930 . S
C1975 C1976 1.355 . S
C1975 C1977 1.415 . S
C1976 C1975 1.355 . S
C1976 C1978 1.419 . S
C1977 C1972 1.425 . S
C1977 C1974 1.409 . S
C1977 C1975 1.415 . S
C1978 H1968 0.930 . S
C1978 C1976 1.419 . S
C1978 C1979 1.362 . S
C1979 H1969 0.930 . S
C1979 C1972 1.409 . S
C1979 C1978 1.362 . S
H1980 C1986 0.930 . S
H1981 C1989 0.930 . S
H1982 C1990 0.930 . S
H1983 C1991 0.930 . S
H1984 C1994 0.930 . S
H1985 C1995 0.930 . S
C1986 H1980 0.930 . S
C1986 C1987 1.355 . S
C1986 C1988 1.415 . S
C1987 C1986 1.355 . S
C1987 C1989 1.419 . S
C1988 C1986 1.415 . S
C1988 C1993 1.425 . S
C1988 C1995 1.409 . S
C1989 H1981 0.930 . S
C1989 C1987 1.419 . S
C1989 C1990 1.362 . S
C1990 H1982 0.930 . S
C1990 C1989 1.362 . S
C1990 C1993 1.409 . S
C1991 H1983 0.930 . S
C1991 C1992 1.355 . S
C1991 C1993 1.415 . S
C1992 C1991 1.355 . S
C1992 C1994 1.419 . S
C1993 C1988 1.425 . S
C1993 C1990 1.409 . S
C1993 C1991 1.415 . S
C1994 H1984 0.930 . S
C1994 C1992 1.419 . S
C1994 C1995 1.362 . S
C1995 H1985 0.930 . S
C1995 C1988 1.409 . S
C1995 C1994 1.362 . S
H1996 C2002 0.930 . S
H1997 C2005 0.930 . S
H1998 C2006 0.930 . S
H1999 C2007 0.930 . S
H2000 C2010 0.930 . S
H2001 C2011 0.930 . S
C2002 H1996 0.930 . S
C2002 C2003 1.355 . S
C2002 C2004 1.415 . S
C2003 C2002 1.355 . S
C2003 C2005 1.419 . S
C2004 C2002 1.415 . S
C2004 C2009 1.425 . S
C2004 C2011 1.409 . S
C2005 H1997 0.930 . S
C2005 C2003 1.419 . S
C2005 C2006 1.362 . S
C2006 H1998 0.930 . S
C2006 C2005 1.362 . S
C2006 C2009 1.409 . S
C2007 H1999 0.930 . S
C2007 C2008 1.355 . S
C2007 C2009 1.415 . S
C2008 C2007 1.355 . S
C2008 C2010 1.419 . S
C2009 C2004 1.425 . S
C2009 C2006 1.409 . S
C2009 C2007 1.415 . S
C2010 H2000 0.930 . S
C2010 C2008 1.419 . S
C2010 C2011 1.362 . S
C2011 H2001 0.930 . S
C2011 C2004 1.409 . S
C2011 C2010 1.362 . S
H2012 C2018 0.930 . S
H2013 C2021 0.930 . S
H2014 C2022 0.930 . S
H2015 C2023 0.930 . S
H2016 C2026 0.930 . S
H2017 C2027 0.930 . S
C2018 H2012 0.930 . S
C2018 C2019 1.355 . S
C2018 C2020 1.415 . S
C2019 C2018 1.355 . S
C2019 C2021 1.419 . S
C2020 C2018 1.415 . S
C2020 C2025 1.425 . S
C2020 C2027 1.409 . S
C2021 H2013 0.930 . S
C2021 C2019 1.419 . S
C2021 C2022 1.362 . S
C2022 H2014 0.930 . S
C2022 C2021 1.362 . S
C2022 C2025 1.409 . S
C2023 H2015 0.930 . S
C2023 C2024 1.355 . S
C2023 C2025 1.415 . S
C2024 C2023 1.355 . S
C2024 C2026 1.419 . S
C2025 C2020 1.425 . S
C2025 C2022 1.409 . S
C2025 C2023 1.415 . S
C2026 H2016 0.930 . S
C2026 C2024 1.419 . S
C2026 C2027 1.362 . S
C2027 H2017 0.930 . S
C2027 C2020 1.409 . S
C2027 C2026 1.362 . S
H2028 C2034 0.930 . S
H2029 C2037 0.930 . S
H2030 C2038 0.930 . S
H2031 C2039 0.930 . S
H2032 C2042 0.930 . S
H2033 C2043 0.930 . S
C2034 H2028 0.930 . S
C2034 C2035 1.355 . S
C2034 C2036 1.415 . S
C2035 C2034 1.355 . S
C2035 C2037 1.419 . S
C2036 C2034 1.415 . S
C2036 C2041 1.425 . S
C2036 C2043 1.409 1_655 S
C2037 H2029 0.930 . S
C2037 C2035 1.419 . S
C2037 C2038 1.362 . S
C2038 H2030 0.930 . S
C2038 C2037 1.362 . S
C2038 C2041 1.409 . S
C2039 H2031 0.930 . S
C2039 C2040 1.355 . S
C2039 C2041 1.415 . S
C2040 C2039 1.355 . S
C2040 C2042 1.419 1_655 S
C2041 C2036 1.425 . S
C2041 C2038 1.409 . S
C2041 C2039 1.415 . S
C2042 H2032 0.930 . S
C2042 C2040 1.419 1_455 S
C2042 C2043 1.362 . S
C2043 H2033 0.930 . S
C2043 C2036 1.409 1_455 S
C2043 C2042 1.362 . S
H2044 C2050 0.930 . S
H2045 C2053 0.930 . S
H2046 C2054 0.930 . S
H2047 C2055 0.930 . S
H2048 C2058 0.930 . S
H2049 C2059 0.930 . S
C2050 H2044 0.930 . S
C2050 C2051 1.355 . S
C2050 C2052 1.415 . S
C2051 C2050 1.355 . S
C2051 C2053 1.419 . S
C2052 C2050 1.415 . S
C2052 C2057 1.425 . S
C2052 C2059 1.409 . S
C2053 H2045 0.930 . S
C2053 C2051 1.419 . S
C2053 C2054 1.362 . S
C2054 H2046 0.930 . S
C2054 C2053 1.362 . S
C2054 C2057 1.409 . S
C2055 H2047 0.930 . S
C2055 C2056 1.355 . S
C2055 C2057 1.415 . S
C2056 C2055 1.355 . S
C2056 C2058 1.419 . S
C2057 C2052 1.425 . S
C2057 C2054 1.409 . S
C2057 C2055 1.415 . S
C2058 H2048 0.930 . S
C2058 C2056 1.419 . S
C2058 C2059 1.362 . S
C2059 H2049 0.930 . S
C2059 C2052 1.409 . S
C2059 C2058 1.362 . S
H2060 C2066 0.930 . S
H2061 C2069 0.930 . S
H2062 C2070 0.930 . S
H2063 C2071 0.930 . S
H2064 C2074 0.930 1_565 S
H2065 C2075 0.930 . S
C2066 H2060 0.930 . S
C2066 C2067 1.355 . S
C2066 C2068 1.415 . S
C2067 C2066 1.355 . S
C2067 C2069 1.419 . S
C2068 C2066 1.415 . S
C2068 C2073 1.425 . S
C2068 C2075 1.409 . S
C2069 H2061 0.930 . S
C2069 C2067 1.419 . S
C2069 C2070 1.362 . S
C2070 H2062 0.930 . S
C2070 C2069 1.362 . S
C2070 C2073 1.409 . S
C2071 H2063 0.930 . S
C2071 C2072 1.355 . S
C2071 C2073 1.415 . S
C2072 C2071 1.355 . S
C2072 C2074 1.419 . S
C2073 C2068 1.425 . S
C2073 C2070 1.409 . S
C2073 C2071 1.415 . S
C2074 H2064 0.930 1_545 S
C2074 C2072 1.419 . S
C2074 C2075 1.362 . S
C2075 H2065 0.930 . S
C2075 C2068 1.409 . S
C2075 C2074 1.362 . S
H2076 C2082 0.930 . S
H2077 C2085 0.930 . S
H2078 C2086 0.930 . S
H2079 C2087 0.930 . S
H2080 C2090 0.930 . S
H2081 C2091 0.930 . S
C2082 H2076 0.930 . S
C2082 C2083 1.355 . S
C2082 C2084 1.415 . S
C2083 C2082 1.355 . S
C2083 C2085 1.419 . S
C2084 C2082 1.415 . S
C2084 C2089 1.425 . S
C2084 C2091 1.409 . S
C2085 H2077 0.930 . S
C2085 C2083 1.419 . S
C2085 C2086 1.362 . S
C2086 H2078 0.930 . S
C2086 C2085 1.362 . S
C2086 C2089 1.409 . S
C2087 H2079 0.930 . S
C2087 C2088 1.355 . S
C2087 C2089 1.415 . S
C2088 C2087 1.355 . S
C2088 C2090 1.419 . S
C2089 C2084 1.425 . S
C2089 C2086 1.409 . S
C2089 C2087 1.415 . S
C2090 H2080 0.930 . S
C2090 C2088 1.419 . S
C2090 C2091 1.362 . S
C2091 H2081 0.930 . S
C2091 C2084 1.409 . S
C2091 C2090 1.362 . S
H2092 C2098 0.930 . S
H2093 C2101 0.930 . S
H2094 C2102 0.930 . S
H2095 C2103 0.930 . S
H2096 C2106 0.930 . S
H2097 C2107 0.930 . S
C2098 H2092 0.930 . S
C2098 C2099 1.355 . S
C2098 C2100 1.415 . S
C2099 C2098 1.355 . S
C2099 C2101 1.419 . S
C2100 C2098 1.415 . S
C2100 C2105 1.425 . S
C2100 C2107 1.409 . S
C2101 H2093 0.930 . S
C2101 C2099 1.419 . S
C2101 C2102 1.362 . S
C2102 H2094 0.930 . S
C2102 C2101 1.362 . S
C2102 C2105 1.409 . S
C2103 H2095 0.930 . S
C2103 C2104 1.355 . S
C2103 C2105 1.415 . S
C2104 C2103 1.355 . S
C2104 C2106 1.419 . S
C2105 C2100 1.425 . S
C2105 C2102 1.409 . S
C2105 C2103 1.415 . S
C2106 H2096 0.930 . S
C2106 C2104 1.419 . S
C2106 C2107 1.362 . S
C2107 H2097 0.930 . S
C2107 C2100 1.409 . S
C2107 C2106 1.362 . S
H2108 C2114 0.930 . S
H2109 C2117 0.930 . S
H2110 C2118 0.930 . S
H2111 C2119 0.930 . S
H2112 C2122 0.930 . S
H2113 C2123 0.930 . S
C2114 H2108 0.930 . S
C2114 C2115 1.355 . S
C2114 C2116 1.415 . S
C2115 C2114 1.355 . S
C2115 C2117 1.419 . S
C2116 C2114 1.415 . S
C2116 C2121 1.425 . S
C2116 C2123 1.409 . S
C2117 H2109 0.930 . S
C2117 C2115 1.419 . S
C2117 C2118 1.362 . S
C2118 H2110 0.930 . S
C2118 C2117 1.362 . S
C2118 C2121 1.409 . S
C2119 H2111 0.930 . S
C2119 C2120 1.355 . S
C2119 C2121 1.415 . S
C2120 C2119 1.355 . S
C2120 C2122 1.419 . S
C2121 C2116 1.425 . S
C2121 C2118 1.409 . S
C2121 C2119 1.415 . S
C2122 H2112 0.930 . S
C2122 C2120 1.419 . S
C2122 C2123 1.362 . S
C2123 H2113 0.930 . S
C2123 C2116 1.409 . S
C2123 C2122 1.362 . S
H2124 C2130 0.930 . S
H2125 C2133 0.930 . S
H2126 C2134 0.930 . S
H2127 C2135 0.930 . S
H2128 C2138 0.930 . S
H2129 C2139 0.930 . S
C2130 H2124 0.930 . S
C2130 C2131 1.355 . S
C2130 C2132 1.415 . S
C2131 C2130 1.355 . S
C2131 C2133 1.419 . S
C2132 C2130 1.415 . S
C2132 C2137 1.425 . S
C2132 C2139 1.409 . S
C2133 H2125 0.930 . S
C2133 C2131 1.419 . S
C2133 C2134 1.362 . S
C2134 H2126 0.930 . S
C2134 C2133 1.362 . S
C2134 C2137 1.409 . S
C2135 H2127 0.930 . S
C2135 C2136 1.355 . S
C2135 C2137 1.415 . S
C2136 C2135 1.355 . S
C2136 C2138 1.419 . S
C2137 C2132 1.425 . S
C2137 C2134 1.409 . S
C2137 C2135 1.415 . S
C2138 H2128 0.930 . S
C2138 C2136 1.419 . S
C2138 C2139 1.362 . S
C2139 H2129 0.930 . S
C2139 C2132 1.409 . S
C2139 C2138 1.362 . S
H2140 C2146 0.930 . S
H2141 C2149 0.930 . S
H2142 C2150 0.930 . S
H2143 C2151 0.930 . S
H2144 C2154 0.930 . S
H2145 C2155 0.930 . S
C2146 H2140 0.930 . S
C2146 C2147 1.355 . S
C2146 C2148 1.415 . S
C2147 C2146 1.355 . S
C2147 C2149 1.419 . S
C2148 C2146 1.415 . S
C2148 C2153 1.425 . S
C2148 C2155 1.409 . S
C2149 H2141 0.930 . S
C2149 C2147 1.419 . S
C2149 C2150 1.362 . S
C2150 H2142 0.930 . S
C2150 C2149 1.362 . S
C2150 C2153 1.409 . S
C2151 H2143 0.930 . S
C2151 C2152 1.355 . S
C2151 C2153 1.415 . S
C2152 C2151 1.355 . S
C2152 C2154 1.419 . S
C2153 C2148 1.425 . S
C2153 C2150 1.409 . S
C2153 C2151 1.415 . S
C2154 H2144 0.930 . S
C2154 C2152 1.419 . S
C2154 C2155 1.362 . S
C2155 H2145 0.930 . S
C2155 C2148 1.409 . S
C2155 C2154 1.362 . S
H2156 C2162 0.930 . S
H2157 C2165 0.930 . S
H2158 C2166 0.930 . S
H2159 C2167 0.930 . S
H2160 C2170 0.930 . S
H2161 C2171 0.930 . S
C2162 H2156 0.930 . S
C2162 C2163 1.355 . S
C2162 C2164 1.415 . S
C2163 C2162 1.355 . S
C2163 C2165 1.419 . S
C2164 C2162 1.415 . S
C2164 C2169 1.425 . S
C2164 C2171 1.409 . S
C2165 H2157 0.930 . S
C2165 C2163 1.419 . S
C2165 C2166 1.362 . S
C2166 H2158 0.930 . S
C2166 C2165 1.362 . S
C2166 C2169 1.409 . S
C2167 H2159 0.930 . S
C2167 C2168 1.355 . S
C2167 C2169 1.415 . S
C2168 C2167 1.355 . S
C2168 C2170 1.419 . S
C2169 C2164 1.425 . S
C2169 C2166 1.409 . S
C2169 C2167 1.415 . S
C2170 H2160 0.930 . S
C2170 C2168 1.419 . S
C2170 C2171 1.362 . S
C2171 H2161 0.930 . S
C2171 C2164 1.409 . S
C2171 C2170 1.362 . S
H2172 C2178 0.930 . S
H2173 C2181 0.930 . S
H2174 C2182 0.930 . S
H2175 C2183 0.930 . S
H2176 C2186 0.930 . S
H2177 C2187 0.930 . S
C2178 H2172 0.930 . S
C2178 C2179 1.355 . S
C2178 C2180 1.415 . S
C2179 C2178 1.355 . S
C2179 C2181 1.419 . S
C2180 C2178 1.415 . S
C2180 C2185 1.425 . S
C2180 C2187 1.409 . S
C2181 H2173 0.930 . S
C2181 C2179 1.419 . S
C2181 C2182 1.362 . S
C2182 H2174 0.930 . S
C2182 C2181 1.362 . S
C2182 C2185 1.409 . S
C2183 H2175 0.930 . S
C2183 C2184 1.355 . S
C2183 C2185 1.415 . S
C2184 C2183 1.355 . S
C2184 C2186 1.419 . S
C2185 C2180 1.425 . S
C2185 C2182 1.409 . S
C2185 C2183 1.415 . S
C2186 H2176 0.930 . S
C2186 C2184 1.419 . S
C2186 C2187 1.362 . S
C2187 H2177 0.930 . S
C2187 C2180 1.409 . S
C2187 C2186 1.362 . S
H2188 C2194 0.930 . S
H2189 C2197 0.930 . S
H2190 C2198 0.930 . S
H2191 C2199 0.930 . S
H2192 C2202 0.930 . S
H2193 C2203 0.930 . S
C2194 H2188 0.930 . S
C2194 C2195 1.355 . S
C2194 C2196 1.415 . S
C2195 C2194 1.355 . S
C2195 C2197 1.419 . S
C2196 C2194 1.415 . S
C2196 C2201 1.425 . S
C2196 C2203 1.409 . S
C2197 H2189 0.930 . S
C2197 C2195 1.419 . S
C2197 C2198 1.362 . S
C2198 H2190 0.930 . S
C2198 C2197 1.362 . S
C2198 C2201 1.409 . S
C2199 H2191 0.930 . S
C2199 C2200 1.355 . S
C2199 C2201 1.415 . S
C2200 C2199 1.355 . S
C2200 C2202 1.419 . S
C2201 C2196 1.425 . S
C2201 C2198 1.409 . S
C2201 C2199 1.415 . S
C2202 H2192 0.930 . S
C2202 C2200 1.419 . S
C2202 C2203 1.362 . S
C2203 H2193 0.930 . S
C2203 C2196 1.409 . S
C2203 C2202 1.362 . S
H2204 C2210 0.930 . S
H2205 C2213 0.930 . S
H2206 C2214 0.930 . S
H2207 C2215 0.930 . S
H2208 C2218 0.930 . S
H2209 C2219 0.930 . S
C2210 H2204 0.930 . S
C2210 C2211 1.355 . S
C2210 C2212 1.415 . S
C2211 C2210 1.355 . S
C2211 C2213 1.419 . S
C2212 C2210 1.415 . S
C2212 C2217 1.425 . S
C2212 C2219 1.409 . S
C2213 H2205 0.930 . S
C2213 C2211 1.419 . S
C2213 C2214 1.362 . S
C2214 H2206 0.930 . S
C2214 C2213 1.362 . S
C2214 C2217 1.409 . S
C2215 H2207 0.930 . S
C2215 C2216 1.355 . S
C2215 C2217 1.415 . S
C2216 C2215 1.355 . S
C2216 C2218 1.419 . S
C2217 C2212 1.425 . S
C2217 C2214 1.409 . S
C2217 C2215 1.415 . S
C2218 H2208 0.930 . S
C2218 C2216 1.419 . S
C2218 C2219 1.362 . S
C2219 H2209 0.930 . S
C2219 C2212 1.409 . S
C2219 C2218 1.362 . S
H2220 C2226 0.930 . S
H2221 C2229 0.930 . S
H2222 C2230 0.930 . S
H2223 C2231 0.930 . S
H2224 C2234 0.930 . S
H2225 C2235 0.930 . S
C2226 H2220 0.930 . S
C2226 C2227 1.355 . S
C2226 C2228 1.415 . S
C2227 C2226 1.355 . S
C2227 C2229 1.419 . S
C2228 C2226 1.415 . S
C2228 C2233 1.425 . S
C2228 C2235 1.409 . S
C2229 H2221 0.930 . S
C2229 C2227 1.419 . S
C2229 C2230 1.362 . S
C2230 H2222 0.930 . S
C2230 C2229 1.362 . S
C2230 C2233 1.409 . S
C2231 H2223 0.930 . S
C2231 C2232 1.355 . S
C2231 C2233 1.415 . S
C2232 C2231 1.355 . S
C2232 C2234 1.419 . S
C2233 C2228 1.425 . S
C2233 C2230 1.409 . S
C2233 C2231 1.415 . S
C2234 H2224 0.930 . S
C2234 C2232 1.419 . S
C2234 C2235 1.362 . S
C2235 H2225 0.930 . S
C2235 C2228 1.409 . S
C2235 C2234 1.362 . S
H2236 C2242 0.930 . S
H2237 C2245 0.930 . S
H2238 C2246 0.930 . S
H2239 C2247 0.930 . S
H2240 C2250 0.930 . S
H2241 C2251 0.930 . S
C2242 H2236 0.930 . S
C2242 C2243 1.355 . S
C2242 C2244 1.415 . S
C2243 C2242 1.355 . S
C2243 C2245 1.419 . S
C2244 C2242 1.415 . S
C2244 C2249 1.425 . S
C2244 C2251 1.409 . S
C2245 H2237 0.930 . S
C2245 C2243 1.419 . S
C2245 C2246 1.362 . S
C2246 H2238 0.930 . S
C2246 C2245 1.362 . S
C2246 C2249 1.409 . S
C2247 H2239 0.930 . S
C2247 C2248 1.355 . S
C2247 C2249 1.415 . S
C2248 C2247 1.355 . S
C2248 C2250 1.419 . S
C2249 C2244 1.425 . S
C2249 C2246 1.409 . S
C2249 C2247 1.415 . S
C2250 H2240 0.930 . S
C2250 C2248 1.419 . S
C2250 C2251 1.362 . S
C2251 H2241 0.930 . S
C2251 C2244 1.409 . S
C2251 C2250 1.362 . S
H2252 C2258 0.930 . S
H2253 C2261 0.930 . S
H2254 C2262 0.930 . S
H2255 C2263 0.930 . S
H2256 C2266 0.930 . S
H2257 C2267 0.930 . S
C2258 H2252 0.930 . S
C2258 C2259 1.355 . S
C2258 C2260 1.415 . S
C2259 C2258 1.355 . S
C2259 C2261 1.419 . S
C2260 C2258 1.415 . S
C2260 C2265 1.425 . S
C2260 C2267 1.409 . S
C2261 H2253 0.930 . S
C2261 C2259 1.419 . S
C2261 C2262 1.362 . S
C2262 H2254 0.930 . S
C2262 C2261 1.362 . S
C2262 C2265 1.409 . S
C2263 H2255 0.930 . S
C2263 C2264 1.355 . S
C2263 C2265 1.415 . S
C2264 C2263 1.355 . S
C2264 C2266 1.419 . S
C2265 C2260 1.425 . S
C2265 C2262 1.409 . S
C2265 C2263 1.415 . S
C2266 H2256 0.930 . S
C2266 C2264 1.419 . S
C2266 C2267 1.362 . S
C2267 H2257 0.930 . S
C2267 C2260 1.409 . S
C2267 C2266 1.362 . S
C1411 C469 1.458 . S
C1416 C715 1.415 . S
C1427 C505 1.477 . S
C1432 C799 1.437 . S
C1443 C433 1.485 . S
C1448 C879 1.409 . S
C1459 C397 1.441 . S
C1464 C795 1.362 . S
C1480 C883 1.307 . S
C1475 C325 1.415 . S
C1491 C361 1.424 . S
C1496 C711 1.342 . S
C1512 C704 1.355 . S
C1507 C421 1.468 . S
C1528 C788 1.365 . S
C1523 C349 1.481 . S
C1539 C385 1.503 . S
C1544 C890 1.445 . S
C1555 C493 1.439 . S
C1560 C806 1.412 . S
C1571 C529 1.412 . S
C1576 C872 1.372 . S
C1592 C722 1.355 . S
C1587 C457 1.422 . S
C1608 C967 1.331 . S
C1603 C37 1.452 1_455 S
C1619 C73 1.473 . S
C1624 C1051 1.425 . S
C1635 C1 1.484 . S
C1640 C1131 1.408 . S
C1651 C613 1.451 . S
C1656 C1047 1.418 . S
C1667 C541 1.410 . S
C1672 C1135 1.290 . S
C1683 C577 1.446 . S
C1688 C963 1.416 . S
C1699 C637 1.454 . S
C1704 C956 1.423 . S
C1715 C565 1.465 . S
C1720 C1040 1.424 . S
C1736 C1142 1.434 . S
C1731 C601 1.501 . S
C1747 C61 1.469 . S
C1752 C1058 1.370 . S
C1768 C1124 1.375 . S
C1763 C97 1.408 1_455 S
C1779 C25 1.440 . S
C1784 C974 1.418 . S
C1800 C1219 1.423 . S
C1795 C253 1.463 . S
C1811 C289 1.472 . S
C1816 C1303 1.356 . S
C1832 C1383 1.414 . S
C1827 C217 1.487 . S
C1848 C1299 1.384 . S
C1843 C181 1.445 . S
C1864 C1387 1.296 . S
C1859 C109 1.413 1_655 S
C1875 C145 1.424 . S
C1880 C1215 1.342 . S
C1891 C205 1.460 1_655 S
C1896 C1208 1.410 . S
C1907 C133 1.481 . S
C1912 C1292 1.360 . S
C1928 C1394 1.432 . S
C1923 C169 1.480 . S
C1939 C277 1.439 . S
C1944 C1310 1.365 . S
C1955 C313 1.412 . S
C1960 C1376 1.374 . S
C1971 C241 1.439 . S
C1976 C1226 1.417 . S
C1987 C571 1.441 . S
C1992 C718 1.398 . S
C2008 C802 1.346 . S
C2003 C607 1.512 . S
C2019 C643 1.470 . S
C2024 C874 1.398 . S
C2035 C247 1.511 . S
C2040 C790 1.300 . S
C2051 C283 1.477 . S
C2056 C886 1.345 . S
C2072 C706 1.304 . S
C2067 C319 1.458 . S
C2083 C139 1.466 . S
C2088 C970 1.292 . S
C2099 C175 1.503 . S
C2104 C1054 1.411 . S
C2115 C211 1.469 . S
C2120 C1126 1.365 . S
C2131 C463 1.506 . S
C2136 C1042 1.346 . S
C2152 C1138 1.326 . S
C2147 C499 1.481 . S
C2163 C535 1.442 . S
C2168 C958 1.383 . S
C2179 C355 1.443 . S
C2184 C1222 1.391 . S
C2195 C391 1.505 . S
C2200 C1306 1.416 . S
C2216 C1378 1.306 . S
C2211 C427 1.486 . S
C2227 C31 1.509 . S
C2232 C1294 1.305 . S
C2243 C67 1.470 . S
C2248 C1390 1.403 . S
C2259 C103 1.446 . S
C2264 C1210 1.352 . S
