# Generated by pormake.
# Topology wbl, (4,4)-cn, num edge types: 1
# Building blocks:
#     Node 0, Type 0, BuildingBlock: MIFKUJ_clean_linker_1, # of connection points: 4
#     Node 1, Type 0, BuildingBlock: MIFKUJ_clean_linker_1, # of connection points: 4
#     Node 2, Type 0, BuildingBlock: MIFKUJ_clean_linker_1, # of connection points: 4
#     Node 3, Type 0, BuildingBlock: MIFKUJ_clean_linker_1, # of connection points: 4
#     Node 4, Type 0, BuildingBlock: MIFKUJ_clean_linker_1, # of connection points: 4
#     Node 5, Type 0, BuildingBlock: MIFKUJ_clean_linker_1, # of connection points: 4
#     Node 6, Type 0, BuildingBlock: MIFKUJ_clean_linker_1, # of connection points: 4
#     Node 7, Type 0, BuildingBlock: MIFKUJ_clean_linker_1, # of connection points: 4
#     Node 8, Type 1, BuildingBlock: QUQFOY_clean_sbu_3, # of connection points: 4
#     Node 9, Type 1, BuildingBlock: QUQFOY_clean_sbu_3, # of connection points: 4
#     Node 10, Type 1, BuildingBlock: QUQFOY_clean_sbu_3, # of connection points: 4
#     Node 11, Type 1, BuildingBlock: QUQFOY_clean_sbu_3, # of connection points: 4
#     Node 12, Type 1, BuildingBlock: QUQFOY_clean_sbu_3, # of connection points: 4
#     Node 13, Type 1, BuildingBlock: QUQFOY_clean_sbu_3, # of connection points: 4
#     Node 14, Type 1, BuildingBlock: QUQFOY_clean_sbu_3, # of connection points: 4
#     Node 15, Type 1, BuildingBlock: QUQFOY_clean_sbu_3, # of connection points: 4
#     Edge 16, Type (0, 1), BuildingBlock: KIFKEQ_clean_linker_1, # of connection points: 2
#     Edge 17, Type (0, 1), BuildingBlock: KIFKEQ_clean_linker_1, # of connection points: 2
#     Edge 18, Type (0, 1), BuildingBlock: KIFKEQ_clean_linker_1, # of connection points: 2
#     Edge 19, Type (0, 1), BuildingBlock: KIFKEQ_clean_linker_1, # of connection points: 2
#     Edge 20, Type (0, 1), BuildingBlock: KIFKEQ_clean_linker_1, # of connection points: 2
#     Edge 21, Type (0, 1), BuildingBlock: KIFKEQ_clean_linker_1, # of connection points: 2
#     Edge 22, Type (0, 1), BuildingBlock: KIFKEQ_clean_linker_1, # of connection points: 2
#     Edge 23, Type (0, 1), BuildingBlock: KIFKEQ_clean_linker_1, # of connection points: 2
#     Edge 24, Type (0, 1), BuildingBlock: KIFKEQ_clean_linker_1, # of connection points: 2
#     Edge 25, Type (0, 1), BuildingBlock: KIFKEQ_clean_linker_1, # of connection points: 2
#     Edge 26, Type (0, 1), BuildingBlock: KIFKEQ_clean_linker_1, # of connection points: 2
#     Edge 27, Type (0, 1), BuildingBlock: KIFKEQ_clean_linker_1, # of connection points: 2
#     Edge 28, Type (0, 1), BuildingBlock: KIFKEQ_clean_linker_1, # of connection points: 2
#     Edge 29, Type (0, 1), BuildingBlock: KIFKEQ_clean_linker_1, # of connection points: 2
#     Edge 30, Type (0, 1), BuildingBlock: KIFKEQ_clean_linker_1, # of connection points: 2
#     Edge 31, Type (0, 1), BuildingBlock: KIFKEQ_clean_linker_1, # of connection points: 2
#     Edge 32, Type (0, 1), BuildingBlock: KIFKEQ_clean_linker_1, # of connection points: 2
#     Edge 33, Type (0, 1), BuildingBlock: KIFKEQ_clean_linker_1, # of connection points: 2
#     Edge 34, Type (0, 1), BuildingBlock: KIFKEQ_clean_linker_1, # of connection points: 2
#     Edge 35, Type (0, 1), BuildingBlock: KIFKEQ_clean_linker_1, # of connection points: 2
#     Edge 36, Type (0, 1), BuildingBlock: KIFKEQ_clean_linker_1, # of connection points: 2
#     Edge 37, Type (0, 1), BuildingBlock: KIFKEQ_clean_linker_1, # of connection points: 2
#     Edge 38, Type (0, 1), BuildingBlock: KIFKEQ_clean_linker_1, # of connection points: 2
#     Edge 39, Type (0, 1), BuildingBlock: KIFKEQ_clean_linker_1, # of connection points: 2
#     Edge 40, Type (0, 1), BuildingBlock: KIFKEQ_clean_linker_1, # of connection points: 2
#     Edge 41, Type (0, 1), BuildingBlock: KIFKEQ_clean_linker_1, # of connection points: 2
#     Edge 42, Type (0, 1), BuildingBlock: KIFKEQ_clean_linker_1, # of connection points: 2
#     Edge 43, Type (0, 1), BuildingBlock: KIFKEQ_clean_linker_1, # of connection points: 2
#     Edge 44, Type (0, 1), BuildingBlock: KIFKEQ_clean_linker_1, # of connection points: 2
#     Edge 45, Type (0, 1), BuildingBlock: KIFKEQ_clean_linker_1, # of connection points: 2
#     Edge 46, Type (0, 1), BuildingBlock: KIFKEQ_clean_linker_1, # of connection points: 2
#     Edge 47, Type (0, 1), BuildingBlock: KIFKEQ_clean_linker_1, # of connection points: 2
# Relax obj value: 0.160
# Max RMSD: 0.159
# Mean RMSD: 0.136
data_MOF--net-wbl--node1-QUQFOY_clean_sbu_3--node2-MIFKUJ_clean_linker_1--edge1-KIFKEQ_clean_linker_1
_symmetry_space_group_name_H-M    P1
_symmetry_Int_Tables_number       1
_symmetry_cell_setting            triclinic
loop_
_symmetry_equiv_pos_as_xyz
'x, y, z'
_cell_length_a     47.120365
_cell_length_b     47.760241
_cell_length_c     76.52016
_cell_angle_alpha  90.90362
_cell_angle_beta   90.275255
_cell_angle_gamma 89.947927
loop_
_atom_site_label
_atom_site_type_symbol
_atom_site_fract_x
_atom_site_fract_y
_atom_site_fract_z
_atom_type_partial_charge
H0 H 0.98126 0.06279 0.32746 0.0
H1 H 0.95265 0.0908 0.34792 0.0
H2 H 0.91813 0.0148 0.36915 0.0
H3 H 0.94617 0.98711 0.34849 0.0
H4 H 0.00205 0.98472 0.34779 0.0
H5 H -0.00392 0.04991 0.28322 0.0
H6 H 0.96026 0.0797 0.26914 0.0
H7 H 0.89394 0.03493 0.29554 0.0
H8 H 0.92932 0.00478 0.309 0.0
H9 H 0.03303 0.91827 0.30323 0.0
H10 H 0.07137 0.893 0.28842 0.0
H11 H 0.10593 0.97161 0.27114 0.0
H12 H 0.0674 -0.00331 0.28588 0.0
H13 H 0.0089 -0.00421 0.28361 0.0
H14 H 0.00712 0.9258 0.34242 0.0
H15 H 0.03462 0.90116 0.36453 0.0
H16 H 0.10828 0.95062 0.35199 0.0
H17 H 0.08063 0.97495 0.32962 0.0
C18 C 0.96582 0.02286 0.33646 0.0
C19 C 0.96708 0.05224 0.3363 0.0
C20 C 0.95089 0.0682 0.34807 0.0
C21 C 0.93315 0.05503 0.36018 0.0
C22 C 0.93126 0.02564 0.35986 0.0
C23 C 0.94748 0.00974 0.34816 0.0
C24 C 0.98516 0.00571 0.32538 0.0
C25 C 0.00319 0.9868 0.33371 0.0
C26 C 0.9867 0.00857 0.30703 0.0
C27 C 0.96543 0.02552 0.29748 0.0
C28 C 0.9738 0.04635 0.2858 0.0
C29 C 0.95341 0.06337 0.27782 0.0
C30 C 0.92447 0.05988 0.28156 0.0
C31 C 0.91617 0.03843 0.29276 0.0
C32 C 0.93639 0.02124 0.30047 0.0
C33 C 0.04762 0.95939 0.29586 0.0
C34 C 0.04882 0.93003 0.29618 0.0
C35 C 0.07075 0.91562 0.28773 0.0
C36 C 0.09185 0.9303 0.27871 0.0
C37 C 0.08988 0.95964 0.27781 0.0
C38 C 0.06793 0.97403 0.28628 0.0
C39 C 0.026 0.97492 0.30616 0.0
C40 C 0.00759 -0.00639 0.29766 0.0
C41 C 0.02334 0.97119 0.32436 0.0
C42 C 0.04182 0.95228 0.33449 0.0
C43 C 0.02942 0.93075 0.34408 0.0
C44 C 0.04511 0.91679 0.35675 0.0
C45 C 0.07345 0.92431 0.36019 0.0
C46 C 0.08652 0.94429 0.34958 0.0
C47 C 0.07076 0.95824 0.33681 0.0
H48 H 0.00916 0.46444 0.52816 0.0
H49 H 0.9898 0.42278 0.51341 0.0
H50 H 0.90591 0.44505 0.53158 0.0
H51 H 0.92523 0.48709 0.54569 0.0
H52 H 0.00203 0.52011 0.52637 0.0
H53 H 0.99202 0.45166 0.57188 0.0
H54 H 0.97258 0.41899 0.59313 0.0
H55 H 0.90649 0.47845 0.60588 0.0
H56 H 0.92621 0.51117 0.58478 0.0
H57 H 0.98187 0.58832 0.58839 0.0
H58 H 0.00607 0.61685 0.61067 0.0
H59 H 0.08599 0.57868 0.59607 0.0
H60 H 0.06173 0.55122 0.5734 0.0
H61 H 0.9838 0.52957 0.59 0.0
H62 H 0.00274 0.60102 0.54974 0.0
H63 H 0.03315 0.63619 0.53683 0.0
H64 H 0.08691 0.57075 0.51558 0.0
H65 H 0.05677 0.5355 0.52922 0.0
C66 C 0.9687 0.47866 0.53823 0.0
C67 C 0.98653 0.46058 0.52869 0.0
C68 C 0.97546 0.43666 0.5204 0.0
C69 C 0.94634 0.43044 0.52145 0.0
C70 C 0.92838 0.44929 0.53037 0.0
C71 C 0.93945 0.4732 0.53862 0.0
C72 C 0.98083 0.50235 0.54855 0.0
C73 C -0.00183 0.5221 0.54029 0.0
C74 C 0.9754 0.50536 0.56664 0.0
C75 C 0.96048 0.48376 0.57677 0.0
C76 C 0.9729 0.45732 0.57892 0.0
C77 C 0.9619 0.43878 0.59109 0.0
C78 C 0.93812 0.4463 0.60116 0.0
C79 C 0.92467 0.47206 0.59818 0.0
C80 C 0.93594 0.49077 0.58619 0.0
C81 C 0.02003 0.56772 0.57928 0.0
C82 C 0.0047 0.58666 0.58977 0.0
C83 C 0.01856 0.60275 0.60258 0.0
C84 C 0.04796 0.59979 0.60539 0.0
C85 C 0.06342 0.5818 0.59421 0.0
C86 C 0.04958 0.56598 0.58124 0.0
C87 C 0.0049 0.54724 0.56791 0.0
C88 C 0.98713 0.52796 0.57599 0.0
C89 C 0.01023 0.54461 0.54979 0.0
C90 C 0.02766 0.56563 0.54064 0.0
C91 C 0.02109 0.5942 0.54232 0.0
C92 C 0.03837 0.6143 0.53475 0.0
C93 C 0.0625 0.60632 0.52512 0.0
C94 C 0.06867 0.57762 0.52307 0.0
C95 C 0.05133 0.55744 0.53071 0.0
H96 H 0.48198 0.5755 0.82714 0.0
H97 H 0.4535 0.60163 0.84866 0.0
H98 H 0.41718 0.52406 0.86624 0.0
H99 H 0.44583 0.49807 0.84483 0.0
H100 H 0.50525 0.4992 0.84499 0.0
H101 H 0.49315 0.56427 0.78154 0.0
H102 H 0.4564 0.59451 0.76886 0.0
H103 H 0.39184 0.54728 0.79526 0.0
H104 H 0.42823 0.51673 0.80737 0.0
H105 H 0.52188 0.45401 0.77507 0.0
H106 H 0.56052 0.43183 0.75844 0.0
H107 H 0.62175 0.47648 0.79057 0.0
H108 H 0.5833 0.49905 0.80658 0.0
H109 H 0.50668 0.50997 0.78057 0.0
H110 H 0.52591 0.43038 0.82076 0.0
H111 H 0.55158 0.3999 0.84104 0.0
H112 H 0.59479 0.47214 0.86293 0.0
H113 H 0.56875 0.5024 0.84292 0.0
C114 C 0.46597 0.53491 0.83445 0.0
C115 C 0.46752 0.56422 0.83544 0.0
C116 C 0.45136 0.57907 0.84774 0.0
C117 C 0.4332 0.56481 0.85908 0.0
C118 C 0.4308 0.53556 0.85753 0.0
C119 C 0.44725 0.52071 0.84541 0.0
C120 C 0.48551 0.51891 0.82296 0.0
C121 C 0.50546 0.5015 0.8309 0.0
C122 C 0.48548 0.52166 0.80458 0.0
C123 C 0.46347 0.53858 0.79568 0.0
C124 C 0.47105 0.56024 0.7844 0.0
C125 C 0.45013 0.57754 0.77723 0.0
C126 C 0.42142 0.5735 0.78139 0.0
C127 C 0.41389 0.55122 0.79218 0.0
C128 C 0.43466 0.53377 0.79909 0.0
C129 C 0.54977 0.47789 0.79218 0.0
C130 C 0.54366 0.45914 0.77837 0.0
C131 C 0.56573 0.44637 0.76897 0.0
C132 C 0.59422 0.4524 0.77316 0.0
C133 C 0.6001 0.47164 0.78681 0.0
C134 C 0.57813 0.48432 0.79614 0.0
C135 C 0.52677 0.49064 0.80274 0.0
C136 C 0.50629 0.50758 0.79464 0.0
C137 C 0.52594 0.48727 0.82103 0.0
C138 C 0.54554 0.46854 0.8304 0.0
C139 C 0.54151 0.43946 0.82961 0.0
C140 C 0.55607 0.42214 0.8412 0.0
C141 C 0.57513 0.4337 0.85352 0.0
C142 C 0.5805 0.46264 0.85342 0.0
C143 C 0.56559 0.47995 0.84207 0.0
H144 H 0.50912 0.95187 0.02761 0.0
H145 H 0.48369 0.91242 0.01458 0.0
H146 H 0.40825 0.9365 0.04306 0.0
H147 H 0.43335 0.97727 0.05509 0.0
H148 H 0.50747 0.00534 0.02791 0.0
H149 H 0.49272 0.93463 0.07246 0.0
H150 H 0.46922 0.90524 0.09394 0.0
H151 H 0.42933 0.97884 0.11652 0.0
H152 H 0.45186 0.00771 0.09462 0.0
H153 H 0.52509 0.08616 0.06756 0.0
H154 H 0.55329 0.11897 0.08555 0.0
H155 H 0.5959 0.04908 0.10949 0.0
H156 H 0.56791 0.01662 0.09149 0.0
H157 H 0.50871 0.01348 0.09261 0.0
H158 H 0.51009 0.0639 0.02545 0.0
H159 H 0.54049 0.09769 0.01084 0.0
H160 H 0.61397 0.06264 0.03652 0.0
H161 H 0.5834 0.02895 0.05109 0.0
C162 C 0.47338 0.96727 0.04264 0.0
C163 C 0.48692 0.94907 0.03077 0.0
C164 C 0.47242 0.92625 0.0235 0.0
C165 C 0.44409 0.92083 0.02811 0.0
C166 C 0.43004 0.93998 0.03923 0.0
C167 C 0.44449 0.96313 0.0463 0.0
C168 C 0.49019 0.9893 0.05188 0.0
C169 C 0.50755 0.00713 0.04206 0.0
C170 C 0.49053 0.99179 0.07036 0.0
C171 C 0.47392 0.97334 0.08189 0.0
C172 C 0.47833 0.94427 0.08177 0.0
C173 C 0.46509 0.92755 0.09417 0.0
C174 C 0.44746 0.93966 0.10704 0.0
C175 C 0.44237 0.96867 0.10668 0.0
C176 C 0.45545 0.9853 0.09425 0.0
C177 C 0.54442 0.04902 0.07827 0.0
C178 C 0.54084 0.07802 0.07651 0.0
C179 C 0.55687 0.09668 0.0868 0.0
C180 C 0.57683 0.08657 0.09889 0.0
C181 C 0.58101 0.05752 0.10012 0.0
C182 C 0.56485 0.03894 0.08997 0.0
C183 C 0.52587 0.02899 0.06869 0.0
C184 C 0.50824 0.01172 0.07845 0.0
C185 C 0.52561 0.02671 0.05028 0.0
C186 C 0.54444 0.04427 0.03956 0.0
C187 C 0.53281 0.06315 0.02764 0.0
C188 C 0.55024 0.08238 0.01926 0.0
C189 C 0.57962 0.083 0.02266 0.0
C190 C 0.59137 0.06298 0.03385 0.0
C191 C 0.57395 0.04371 0.04216 0.0
H192 H 0.00158 0.60284 0.91133 0.0
H193 H 0.03667 0.6206 0.89074 0.0
H194 H 0.0948 0.55522 0.90575 0.0
H195 H 0.05975 0.53781 0.92656 0.0
H196 H 0.98484 0.54297 0.90598 0.0
H197 H 0.0227 0.60703 0.94985 0.0
H198 H 0.06441 0.62617 0.96483 0.0
H199 H 0.08087 0.54523 0.98728 0.0
H200 H 0.03984 0.52594 0.97162 0.0
H201 H 0.96935 0.48254 0.9713 0.0
H202 H 0.93201 0.45329 0.98387 0.0
H203 H 0.86908 0.49671 0.95334 0.0
H204 H 0.90601 0.52649 0.94134 0.0
H205 H 0.984 0.53461 0.97052 0.0
H206 H 0.96158 0.46805 0.92637 0.0
H207 H 0.9374 0.43874 0.90438 0.0
H208 H 0.90233 0.51281 0.88085 0.0
H209 H 0.92659 0.54206 0.90287 0.0
C210 C 0.02819 0.56914 0.92047 0.0
C211 C 0.02222 0.5929 0.91055 0.0
C212 C 0.04227 0.60304 0.89886 0.0
C213 C 0.06835 0.58918 0.89665 0.0
C214 C 0.07481 0.56621 0.90722 0.0
C215 C 0.05492 0.55636 0.91913 0.0
C216 C 0.00518 0.55522 0.93009 0.0
C217 C 0.98413 0.54178 0.92013 0.0
C218 C 0.0055 0.55234 0.94845 0.0
C219 C 0.02845 0.56492 0.95934 0.0
C220 C 0.03527 0.59342 0.95803 0.0
C221 C 0.05896 0.60442 0.96678 0.0
C222 C 0.07617 0.58717 0.97714 0.0
C223 C 0.06837 0.55897 0.97916 0.0
C224 C 0.04475 0.54797 0.97034 0.0
C225 C 0.94059 0.50639 0.95511 0.0
C226 C 0.94747 0.48605 0.96752 0.0
C227 C 0.92619 0.4693 0.97465 0.0
C228 C 0.89782 0.47251 0.96933 0.0
C229 C 0.89089 0.49348 0.95739 0.0
C230 C 0.912 0.51045 0.95051 0.0
C231 C 0.96315 0.52267 0.94634 0.0
C232 C 0.9842 0.53636 0.95641 0.0
C233 C 0.96372 0.52488 0.92793 0.0
C234 C 0.94578 0.5072 0.91626 0.0
C235 C 0.94816 0.47793 0.91672 0.0
C236 C 0.93452 0.46124 0.90411 0.0
C237 C 0.91811 0.47355 0.89091 0.0
C238 C 0.91464 0.50278 0.89098 0.0
C239 C 0.92857 0.51949 0.90347 0.0
H240 H 0.50485 0.55706 0.2115 0.0
H241 H 0.48487 0.59948 0.22457 0.0
H242 H 0.40261 0.55933 0.22669 0.0
H243 H 0.4227 0.51768 0.21244 0.0
H244 H 0.49788 0.49263 0.22307 0.0
H245 H 0.48815 0.56079 0.17648 0.0
H246 H 0.46742 0.59334 0.15558 0.0
H247 H 0.39898 0.53517 0.1454 0.0
H248 H 0.41983 0.50267 0.16642 0.0
H249 H 0.47668 0.42974 0.15785 0.0
H250 H 0.50077 0.40123 0.13562 0.0
H251 H 0.58196 0.42795 0.15624 0.0
H252 H 0.55781 0.45694 0.17828 0.0
H253 H 0.47918 0.48431 0.15933 0.0
H254 H 0.50149 0.41127 0.19798 0.0
H255 H 0.53435 0.3769 0.21005 0.0
H256 H 0.58249 0.44337 0.23483 0.0
H257 H 0.55035 0.47809 0.22202 0.0
C258 C 0.46521 0.53439 0.21108 0.0
C259 C 0.4826 0.55738 0.21502 0.0
C260 C 0.47108 0.58159 0.2226 0.0
C261 C 0.44198 0.58305 0.22673 0.0
C262 C 0.42492 0.55932 0.22339 0.0
C263 C 0.43639 0.53533 0.21546 0.0
C264 C 0.47665 0.51052 0.2009 0.0
C265 C 0.49389 0.49064 0.20914 0.0
C266 C 0.47091 0.50782 0.18287 0.0
C267 C 0.45536 0.52947 0.17307 0.0
C268 C 0.46818 0.55546 0.17019 0.0
C269 C 0.45646 0.57392 0.15816 0.0
C270 C 0.4317 0.56667 0.14883 0.0
C271 C 0.41793 0.54137 0.15254 0.0
C272 C 0.42983 0.52279 0.16447 0.0
C273 C 0.5154 0.44548 0.16975 0.0
C274 C 0.49967 0.42917 0.15776 0.0
C275 C 0.51342 0.41291 0.14507 0.0
C276 C 0.54319 0.41256 0.14418 0.0
C277 C 0.55899 0.42767 0.15676 0.0
C278 C 0.5452 0.4442 0.16936 0.0
C279 C 0.50068 0.46605 0.18132 0.0
C280 C 0.48271 0.48552 0.17335 0.0
C281 C 0.50595 0.46824 0.19956 0.0
C282 C 0.5238 0.44735 0.20872 0.0
C283 C 0.51915 0.41857 0.20593 0.0
C284 C 0.53781 0.39894 0.21288 0.0
C285 C 0.56096 0.40766 0.22318 0.0
C286 C 0.56473 0.43627 0.2269 0.0
C287 C 0.54635 0.45603 0.21963 0.0
H288 H 0.51121 0.9402 0.40764 0.0
H289 H 0.47786 0.91435 0.38898 0.0
H290 H 0.40889 0.96471 0.40929 0.0
H291 H 0.44258 0.99091 0.42772 0.0
H292 H 0.5204 -0.00384 0.40402 0.0
H293 H 0.4929 0.93423 0.44927 0.0
H294 H 0.45544 0.90947 0.46472 0.0
H295 H 0.42331 0.98848 0.48456 0.0
H296 H 0.46073 0.01315 0.46898 0.0
H297 H 0.52749 0.06974 0.46491 0.0
H298 H 0.5622 0.10239 0.47807 0.0
H299 H 0.63032 0.05443 0.4548 0.0
H300 H 0.59599 0.02146 0.4424 0.0
H301 H 0.51816 0.01394 0.46807 0.0
H302 H 0.5321 0.07138 0.41319 0.0
H303 H 0.55828 0.09301 0.38947 0.0
H304 H 0.61539 0.02195 0.388 0.0
H305 H 0.58764 -0.00023 0.41077 0.0
C306 C 0.47937 0.96745 0.41903 0.0
C307 C 0.48884 0.94533 0.40829 0.0
C308 C 0.4697 0.93043 0.39774 0.0
C309 C 0.44073 0.93755 0.39764 0.0
C310 C 0.43111 0.95891 0.40901 0.0
C311 C 0.45028 0.97375 0.41962 0.0
C312 C 0.50024 0.98566 0.42823 0.0
C313 C 0.52019 -0.00037 0.41807 0.0
C314 C 0.49951 0.99071 0.44649 0.0
C315 C 0.4793 0.97558 0.45774 0.0
C316 C 0.47791 0.9462 0.45706 0.0
C317 C 0.4565 0.93208 0.46587 0.0
C318 C 0.43628 0.94704 0.47571 0.0
C319 C 0.43871 0.97635 0.47718 0.0
C320 C 0.46005 0.99049 0.46827 0.0
C321 C 0.55912 0.04359 0.45226 0.0
C322 C 0.54992 0.06624 0.46274 0.0
C323 C 0.56967 0.08486 0.47019 0.0
C324 C 0.59881 0.08118 0.46711 0.0
C325 C 0.60792 0.05814 0.45699 0.0
C326 C 0.5883 0.03936 0.44983 0.0
C327 C 0.53844 0.02428 0.44378 0.0
C328 C 0.51847 0.01022 0.45406 0.0
C329 C 0.5391 0.01891 0.42558 0.0
C330 C 0.55804 0.03408 0.41368 0.0
C331 C 0.55055 0.06077 0.40788 0.0
C332 C 0.56571 0.07315 0.39437 0.0
C333 C 0.58886 0.05914 0.38656 0.0
C334 C 0.59725 0.03309 0.39327 0.0
C335 C 0.58166 0.02047 0.40646 0.0
H336 H 0.00501 0.08663 0.70079 0.0
H337 H 0.97629 0.12514 0.71247 0.0
H338 H 0.91883 0.06579 0.73528 0.0
H339 H 0.94722 0.027 0.72298 0.0
H340 H 0.00321 0.00837 0.72443 0.0
H341 H 0.02154 0.07225 0.66497 0.0
H342 H 0.00063 0.10472 0.6442 0.0
H343 H 0.91749 0.07074 0.65485 0.0
H344 H 0.93861 0.03949 0.67633 0.0
H345 H -0.00249 0.95544 0.65727 0.0
H346 H 0.02213 0.92571 0.63598 0.0
H347 H 0.10136 0.94059 0.66312 0.0
H348 H 0.07653 0.97068 0.68449 0.0
H349 H 0.01047 0.01044 0.65978 0.0
H350 H 0.00728 0.93126 0.69749 0.0
H351 H 0.03075 0.89227 0.71177 0.0
H352 H 0.08056 0.95069 0.74285 0.0
H353 H 0.05775 0.98972 0.72785 0.0
C354 C 0.9779 0.05398 0.7107 0.0
C355 C 0.98628 0.08184 0.70832 0.0
C356 C 0.96989 0.10379 0.71498 0.0
C357 C 0.94517 0.0983 0.72449 0.0
C358 C 0.93777 0.07045 0.72791 0.0
C359 C 0.954 0.04837 0.72097 0.0
C360 C 0.99266 0.0311 0.70113 0.0
C361 C 0.00484 0.00876 0.7103 0.0
C362 C -0.00521 0.0315 0.68274 0.0
C363 C 0.98157 0.05352 0.67207 0.0
C364 C -0.00126 0.0723 0.66305 0.0
C365 C 0.98674 0.09067 0.65109 0.0
C366 C 0.95739 0.09007 0.64756 0.0
C367 C 0.9401 0.07205 0.6573 0.0
C368 C 0.95212 0.05402 0.66951 0.0
C369 C 0.03523 0.96542 0.67237 0.0
C370 C 0.02009 0.95189 0.65886 0.0
C371 C 0.03415 0.93497 0.6467 0.0
C372 C 0.06366 0.93121 0.64781 0.0
C373 C 0.07857 0.94312 0.66204 0.0
C374 C 0.06444 0.96027 0.67422 0.0
C375 C 0.02089 0.98746 0.68293 0.0
C376 C 0.00893 0.00988 0.67393 0.0
C377 C 0.01896 0.98684 0.70138 0.0
C378 C 0.0311 0.96337 0.7114 0.0
C379 C 0.02325 0.93568 0.70738 0.0
C380 C 0.0365 0.91339 0.71572 0.0
C381 C 0.05764 0.91832 0.72845 0.0
C382 C 0.06468 0.94616 0.73294 0.0
C383 C 0.05148 0.96848 0.7245 0.0
C384 C 0.37744 0.65298 0.03474 0.0
O385 O 0.39851 0.65501 0.02456 0.0
Cd386 Cd 0.39623 0.66441 0.99397 0.0
O387 O 0.35219 0.65692 0.02921 0.0
Cd388 Cd 0.32947 0.67092 0.00109 0.0
C389 C 0.36858 0.73042 -0.00224 0.0
O390 O 0.35679 0.63875 0.98286 0.0
O391 O 0.33016 0.66731 0.96879 0.0
O392 O 0.28991 0.64157 0.00977 0.0
C393 C 0.3472 0.64678 0.96831 0.0
O394 O 0.3886 0.7144 0.99269 0.0
C395 C 0.2706 0.65891 0.00578 0.0
O396 O 0.34515 0.72031 0.00306 0.0
O397 O 0.27869 0.68253 0.00025 0.0
C398 C 0.39127 0.85913 0.22238 0.0
O399 O 0.41103 0.85748 0.23366 0.0
Cd400 Cd 0.40483 0.84418 0.26339 0.0
O401 O 0.3657 0.85367 0.22654 0.0
Cd402 Cd 0.34064 0.83896 0.25357 0.0
C403 C 0.37791 0.77877 0.25602 0.0
O404 O 0.36511 0.87011 0.27408 0.0
O405 O 0.34113 0.83707 0.28584 0.0
O406 O 0.30158 0.86974 0.24559 0.0
C407 C 0.35511 0.85957 0.28782 0.0
O408 O 0.39747 0.7936 0.263 0.0
C409 C 0.28205 0.85204 0.24823 0.0
O410 O 0.3556 0.79008 0.24986 0.0
O411 O 0.28984 0.82763 0.25255 0.0
C412 C 0.16307 0.88409 0.47658 0.0
O413 O 0.16224 0.90415 0.48765 0.0
Cd414 Cd 0.17681 0.9001 0.51725 0.0
O415 O 0.17129 0.85979 0.48116 0.0
Cd416 Cd 0.18679 0.83633 0.50876 0.0
C417 C 0.24529 0.87661 0.51078 0.0
O418 O 0.15221 0.85977 0.52721 0.0
O419 O 0.18551 0.83881 0.54122 0.0
O420 O 0.15822 0.79844 0.49655 0.0
C421 C 0.16181 0.85134 0.54166 0.0
O422 O 0.22837 0.89574 0.51601 0.0
C423 C 0.17335 0.77864 0.50233 0.0
O424 O 0.23591 0.85256 0.50621 0.0
O425 O 0.19584 0.78552 0.51056 0.0
C426 C 0.1579 0.63403 0.78182 0.0
O427 O 0.16204 0.61311 0.7717 0.0
Cd428 Cd 0.17207 0.61683 0.74109 0.0
O429 O 0.16001 0.6589 0.77618 0.0
Cd430 Cd 0.1729 0.68161 0.74829 0.0
C431 C 0.23644 0.64844 0.74498 0.0
O432 O 0.14153 0.6526 0.7301 0.0
O433 O 0.16898 0.68054 0.7162 0.0
O434 O 0.141 0.71823 0.75883 0.0
C435 C 0.14855 0.66331 0.71571 0.0
O436 O 0.22234 0.62738 0.73942 0.0
C437 C 0.15618 0.73855 0.75392 0.0
O438 O 0.2238 0.67043 0.75051 0.0
O439 O 0.17986 0.73245 0.74697 0.0
C440 C 0.85869 0.13161 0.47332 0.0
O441 O 0.85451 0.1125 0.48438 0.0
Cd442 Cd 0.844 0.11967 0.51463 0.0
O443 O 0.8571 0.15739 0.47787 0.0
Cd444 Cd 0.84599 0.18429 0.50533 0.0
C445 C 0.7811 0.1539 0.50904 0.0
O446 O 0.87564 0.15579 0.52394 0.0
O447 O 0.84958 0.18577 0.53771 0.0
O448 O 0.87964 0.21947 0.49553 0.0
C449 C 0.8691 0.16752 0.53829 0.0
O450 O 0.7941 0.13276 0.5151 0.0
C451 C 0.86381 0.24036 0.49893 0.0
O452 O 0.79484 0.17481 0.50335 0.0
O453 O 0.83917 0.2351 0.50469 0.0
C454 C 0.88501 0.3619 0.71577 0.0
O455 O 0.90578 0.35814 0.72612 0.0
Cd456 Cd 0.90166 0.34963 0.75686 0.0
O457 O 0.85952 0.36 0.72114 0.0
Cd458 Cd 0.83553 0.34782 0.74893 0.0
C459 C 0.87011 0.28577 0.75368 0.0
O460 O 0.86434 0.37937 0.76709 0.0
O461 O 0.83475 0.35359 0.78095 0.0
O462 O 0.79749 0.37781 0.73826 0.0
C463 C 0.85289 0.37314 0.78145 0.0
O464 O 0.89114 0.30013 0.7592 0.0
C465 C 0.7774 0.36192 0.7429 0.0
O466 O 0.84798 0.29772 0.7477 0.0
O467 O 0.78437 0.33883 0.74974 0.0
C468 C 0.63819 0.37223 0.97087 0.0
O469 O 0.6337 0.39166 0.98202 0.0
Cd470 Cd 0.65001 0.38976 0.01149 0.0
O471 O 0.65022 0.3495 0.97536 0.0
Cd472 Cd 0.6672 0.32801 0.00314 0.0
C473 C 0.72068 0.37438 0.00458 0.0
O474 O 0.63088 0.34718 0.0222 0.0
O475 O 0.66762 0.33114 0.03558 0.0
O476 O 0.64136 0.28704 0.99302 0.0
C477 C 0.6424 0.3403 0.03646 0.0
O478 O 0.70196 0.3916 0.01008 0.0
C479 C 0.66017 0.26924 0.99705 0.0
O480 O 0.71384 0.34953 -2e-05 0.0
O481 O 0.68328 0.27883 0.00335 0.0
C482 C 0.65975 0.12708 0.27022 0.0
O483 O 0.66029 0.10875 0.25803 0.0
Cd484 Cd 0.67712 0.11702 0.22932 0.0
O485 O 0.66752 0.1522 0.26742 0.0
Cd486 Cd 0.68364 0.17943 0.2415 0.0
C487 C 0.7439 0.14164 0.23947 0.0
O488 O 0.65166 0.15756 0.22044 0.0
O489 O 0.68563 0.18108 0.20911 0.0
O490 O 0.65313 0.21659 0.25285 0.0
C491 C 0.66238 0.16814 0.20695 0.0
O492 O 0.72856 0.12271 0.23229 0.0
C493 C 0.66977 0.23653 0.24924 0.0
O494 O 0.7328 0.16428 0.2452 0.0
O495 O 0.69372 0.22984 0.24286 0.0
H496 H 0.11836 0.93923 0.24742 0.0
H497 H 0.12204 0.88773 0.29329 0.0
H498 H 0.16203 0.9175 0.23669 0.0
H499 H 0.16547 0.86613 0.28263 0.0
H500 H 0.23581 0.82006 0.25609 0.0
H501 H 0.18714 0.83616 0.26051 0.0
H502 H 0.21164 0.91944 0.24533 0.0
H503 H 0.25999 0.90325 0.24057 0.0
C504 C 0.1284 0.92318 0.25516 0.0
C505 C 0.11677 0.91531 0.27124 0.0
C506 C 0.15338 0.91071 0.24901 0.0
C507 C 0.16729 0.89011 0.25881 0.0
C508 C 0.15508 0.88157 0.27459 0.0
C509 C 0.13015 0.894 0.28072 0.0
C510 C 0.23065 0.84166 0.25335 0.0
C511 C 0.25181 0.86044 0.24814 0.0
C512 C 0.20282 0.85093 0.256 0.0
C513 C 0.19556 0.87916 0.25348 0.0
C514 C 0.21639 0.89751 0.24726 0.0
C515 C 0.24419 0.88825 0.24462 0.0
H516 H 0.04705 0.65512 0.5095 0.0
H517 H 0.12077 0.60698 0.52428 0.0
H518 H 0.0774 0.69354 0.50117 0.0
H519 H 0.15148 0.64497 0.51491 0.0
H520 H 0.18878 0.73498 0.52296 0.0
H521 H 0.1644 0.69027 0.52544 0.0
H522 H 0.11075 0.71136 0.48156 0.0
H523 H 0.1343 0.75658 0.4797 0.0
C524 C 0.06981 0.65259 0.51077 0.0
C525 C 0.08141 0.6281 0.51782 0.0
C526 C 0.08733 0.67452 0.50571 0.0
C527 C 0.11702 0.67249 0.50737 0.0
C528 C 0.12872 0.64744 0.51365 0.0
C529 C 0.11111 0.62551 0.51884 0.0
C530 C 0.17219 0.72977 0.51362 0.0
C531 C 0.16315 0.74941 0.50131 0.0
C532 C 0.15822 0.70405 0.51499 0.0
C533 C 0.13517 0.69734 0.50391 0.0
C534 C 0.12783 0.71613 0.49064 0.0
C535 C 0.14149 0.74196 0.48946 0.0
H536 H 0.38029 0.59992 0.8001 0.0
H537 H 0.41203 0.58908 0.74761 0.0
H538 H 0.33931 0.62527 0.7889 0.0
H539 H 0.37089 0.61471 0.7363 0.0
H540 H 0.27087 0.6112 0.72807 0.0
H541 H 0.31989 0.59996 0.73521 0.0
H542 H 0.32161 0.66761 0.77331 0.0
H543 H 0.27228 0.67891 0.76619 0.0
C544 C 0.37867 0.60342 0.78617 0.0
C545 C 0.39905 0.59229 0.77468 0.0
C546 C 0.35539 0.61819 0.77977 0.0
C547 C 0.35186 0.62192 0.76171 0.0
C548 C 0.37303 0.61202 0.75027 0.0
C549 C 0.39657 0.59748 0.75672 0.0
C550 C 0.28188 0.62411 0.73769 0.0
C551 C 0.26758 0.64567 0.74676 0.0
C552 C 0.31006 0.61779 0.74169 0.0
C553 C 0.32449 0.63274 0.75494 0.0
C554 C 0.31087 0.65558 0.76315 0.0
C555 C 0.28269 0.66212 0.75901 0.0
H556 H 0.38831 0.91222 0.01811 0.0
H557 H 0.46816 0.86909 0.02529 0.0
H558 H 0.36617 0.86788 0.00886 0.0
H559 H 0.44636 0.82557 0.01564 0.0
H560 H 0.41059 0.75884 0.9816 0.0
H561 H 0.42583 0.80669 0.98733 0.0
H562 H 0.35529 0.81915 0.02239 0.0
H563 H 0.3397 0.77087 0.01658 0.0
C564 C 0.40114 0.8934 0.01771 0.0
C565 C 0.43016 0.89435 0.0222 0.0
C566 C 0.38846 0.8681 0.01238 0.0
C567 C 0.40467 0.84344 0.01128 0.0
C568 C 0.4335 0.84439 0.01595 0.0
C569 C 0.44603 0.86943 0.02141 0.0
C570 C 0.398 0.77182 0.99034 0.0
C571 C 0.37422 0.76088 -0.00111 0.0
C572 C 0.40679 0.79923 0.99362 0.0
C573 C 0.39206 0.8164 0.00555 0.0
C574 C 0.36703 0.80629 0.01314 0.0
C575 C 0.35815 0.77869 0.00983 0.0
H576 H 0.1273 0.56045 0.97853 0.0
H577 H 0.08641 0.63858 0.99259 0.0
H578 H 0.17248 0.57899 0.98872 0.0
H579 H 0.13197 0.65728 0.00278 0.0
H580 H 0.22513 0.68852 0.99352 0.0
H581 H 0.17665 0.67171 0.98942 0.0
H582 H 0.19907 0.59416 0.01435 0.0
H583 H 0.24765 0.61071 0.0181 0.0
C584 C 0.12781 0.5814 0.98415 0.0
C585 C 0.10318 0.598 0.98475 0.0
C586 C 0.15378 0.59206 0.99001 0.0
C587 C 0.15585 0.61962 0.99661 0.0
C588 C 0.13113 0.63607 -0.0024 0.0
C589 C 0.10506 0.62536 0.99174 0.0
C590 C 0.21958 0.66809 -0.0016 0.0
C591 C 0.2403 0.65081 0.00594 0.0
C592 C 0.19175 0.65848 0.99612 0.0
C593 C 0.18409 0.63143 0.00136 0.0
C594 C 0.20444 0.61488 0.00985 0.0
C595 C 0.23224 0.62443 0.01209 0.0
H596 H 0.38873 0.60449 0.2204 0.0
H597 H 0.4665 0.62237 0.24865 0.0
H598 H 0.36939 0.64907 0.23008 0.0
H599 H 0.44839 0.6681 0.25673 0.0
H600 H 0.40691 0.74456 0.27789 0.0
H601 H 0.41849 0.69534 0.27326 0.0
H602 H 0.37256 0.69596 0.22412 0.0
H603 H 0.35939 0.74455 0.22956 0.0
C604 C 0.40172 0.61776 0.22877 0.0
C605 C 0.42937 0.60968 0.2336 0.0
C606 C 0.39075 0.64372 0.23407 0.0
C607 C 0.40732 0.66262 0.24405 0.0
C608 C 0.43468 0.65418 0.24926 0.0
C609 C 0.44539 0.62799 0.2443 0.0
C610 C 0.39895 0.73392 0.26626 0.0
C611 C 0.38238 0.74832 0.25404 0.0
C612 C 0.4058 0.70575 0.26348 0.0
C613 C 0.39694 0.69152 0.24815 0.0
C614 C 0.37951 0.70586 0.23622 0.0
C615 C 0.37204 0.73385 0.23925 0.0
H616 H 0.413 0.9547 0.50817 0.0
H617 H 0.40339 0.90677 0.46019 0.0
H618 H 0.36936 0.9341 0.51927 0.0
H619 H 0.35967 0.88655 0.47108 0.0
H620 H 0.28796 0.84306 0.49782 0.0
H621 H 0.3369 0.85658 0.4918 0.0
H622 H 0.31999 0.93948 0.51271 0.0
H623 H 0.27168 0.92586 0.51913 0.0
C624 C 0.40163 0.93965 0.50005 0.0
C625 C 0.41154 0.93246 0.48329 0.0
C626 C 0.37663 0.92786 0.50638 0.0
C627 C 0.36087 0.9088 0.49603 0.0
C628 C 0.37144 0.90081 0.47953 0.0
C629 C 0.3965 0.91247 0.47326 0.0
C630 C 0.29485 0.86403 0.50137 0.0
C631 C 0.27579 0.88343 0.50881 0.0
C632 C 0.32285 0.87183 0.49783 0.0
C633 C 0.33236 0.89918 0.50166 0.0
C634 C 0.31359 0.91814 0.50978 0.0
C635 C 0.28571 0.91036 0.51334 0.0
H636 H 0.03587 0.868 0.73853 0.0
H637 H 0.11443 0.91432 0.73605 0.0
H638 H 0.06181 0.82678 0.74766 0.0
H639 H 0.1403 0.87348 0.74626 0.0
H640 H 0.17701 0.78409 0.73713 0.0
H641 H 0.15431 0.82955 0.73414 0.0
H642 H 0.08835 0.80435 0.76968 0.0
H643 H 0.11052 0.75845 0.77206 0.0
C644 C 0.05867 0.8695 0.74015 0.0
C645 C 0.07307 0.89439 0.73632 0.0
C646 C 0.07355 0.84593 0.74566 0.0
C647 C 0.10325 0.84669 0.74765 0.0
C648 C 0.11751 0.872 0.74462 0.0
C649 C 0.10261 0.89556 0.73898 0.0
C650 C 0.15793 0.78844 0.74454 0.0
C651 C 0.14534 0.76759 0.75465 0.0
C652 C 0.14494 0.8146 0.7429 0.0
C653 C 0.11923 0.82056 0.75149 0.0
C654 C 0.10774 0.80027 0.76254 0.0
C655 C 0.12055 0.77402 0.76402 0.0
H656 H 0.59826 0.39715 0.76313 0.0
H657 H 0.64401 0.47544 0.76234 0.0
H658 H 0.63966 0.37296 0.75116 0.0
H659 H 0.68569 0.45124 0.75135 0.0
H660 H 0.75577 0.40658 0.72542 0.0
H661 H 0.70842 0.42668 0.72827 0.0
H662 H 0.68478 0.35946 0.76247 0.0
H663 H 0.73168 0.33886 0.75901 0.0
C664 C 0.61699 0.40926 0.76017 0.0
C665 C 0.61796 0.43817 0.7639 0.0
C666 C 0.64084 0.39535 0.75349 0.0
C667 C 0.66617 0.41004 0.75043 0.0
C668 C 0.66655 0.43919 0.75334 0.0
C669 C 0.64273 0.45307 0.75991 0.0
C670 C 0.74023 0.3958 0.73324 0.0
C671 C 0.74754 0.37134 0.74217 0.0
C672 C 0.71314 0.40741 0.73497 0.0
C673 C 0.69289 0.39501 0.74586 0.0
C674 C 0.69969 0.36952 0.75386 0.0
C675 C 0.72668 0.35774 0.75196 0.0
H676 H 0.61968 0.11346 0.04033 0.0
H677 H 0.57924 0.105 0.98975 0.0
H678 H 0.64399 0.15528 0.03075 0.0
H679 H 0.60392 0.1469 0.98002 0.0
H680 H 0.61302 0.24405 0.98351 0.0
H681 H 0.5983 0.1958 0.98695 0.0
H682 H 0.67833 0.17712 0.01204 0.0
H683 H 0.69283 0.22591 0.00897 0.0
C684 C 0.6166 0.12009 0.02698 0.0
C685 C 0.59736 0.10603 0.01583 0.0
C686 C 0.63062 0.1441 0.02145 0.0
C687 C 0.6258 0.1546 0.00463 0.0
C688 C 0.60774 0.13963 0.99316 0.0
C689 C 0.59361 0.11565 -0.00128 0.0
C690 C 0.62773 0.22956 0.98947 0.0
C691 C 0.65393 0.2389 0.99619 0.0
C692 C 0.61936 0.20177 0.99134 0.0
C693 C 0.637 0.18259 -6e-05 0.0
C694 C 0.66404 0.19149 0.00561 0.0
C695 C 0.67243 0.21939 0.00375 0.0
H696 H 0.88347 0.0885 0.29903 0.0
H697 H 0.91603 0.07261 0.2472 0.0
H698 H 0.84336 0.11384 0.2867 0.0
H699 H 0.8757 0.09816 0.23472 0.0
H700 H 0.77612 0.09987 0.22495 0.0
H701 H 0.82378 0.08571 0.23353 0.0
H702 H 0.82843 0.15584 0.26973 0.0
H703 H 0.78058 0.17008 0.2612 0.0
C704 C 0.8822 0.09086 0.28499 0.0
C705 C 0.9026 0.07843 0.27403 0.0
C706 C 0.8594 0.10557 0.27793 0.0
C707 C 0.85636 0.10793 0.25974 0.0
C708 C 0.87747 0.09653 0.24879 0.0
C709 C 0.90055 0.08207 0.2559 0.0
C710 C 0.78746 0.11259 0.23452 0.0
C711 C 0.77438 0.13588 0.24257 0.0
C712 C 0.81488 0.10458 0.23933 0.0
C713 C 0.82973 0.11955 0.2524 0.0
C714 C 0.81734 0.14377 0.25973 0.0
C715 C 0.78998 0.15196 0.2548 0.0
H716 H 0.9707 0.37867 0.52318 0.0
H717 H 0.89604 0.42114 0.50403 0.0
H718 H 0.95037 0.3339 0.51431 0.0
H719 H 0.87556 0.3761 0.49516 0.0
H720 H 0.83633 0.28882 0.50803 0.0
H721 H 0.85655 0.33567 0.51039 0.0
H722 H 0.93583 0.30445 0.48966 0.0
H723 H 0.91578 0.25745 0.48762 0.0
C724 C 0.9502 0.37853 0.51671 0.0
C725 C 0.93498 0.40351 0.51436 0.0
C726 C 0.93852 0.3528 0.51161 0.0
C727 C 0.9113 0.3514 0.50405 0.0
C728 C 0.89642 0.37645 0.50117 0.0
C729 C 0.90814 0.40223 0.50626 0.0
C730 C 0.85793 0.29203 0.50371 0.0
C731 C 0.87455 0.26937 0.49782 0.0
C732 C 0.86949 0.31894 0.50498 0.0
C733 C 0.89791 0.32375 0.50038 0.0
C734 C 0.91403 0.30133 0.4936 0.0
C735 C 0.90248 0.27444 0.49233 0.0
H736 H 0.60482 0.09842 0.50114 0.0
H737 H 0.64106 0.10742 0.44985 0.0
H738 H 0.64501 0.12424 0.51397 0.0
H739 H 0.68108 0.13298 0.46254 0.0
H740 H 0.74747 0.18513 0.48748 0.0
H741 H 0.69835 0.17522 0.47907 0.0
H742 H 0.69555 0.10858 0.51652 0.0
H743 H 0.74439 0.11847 0.52496 0.0
C744 C 0.62103 0.10655 0.4926 0.0
C745 C 0.62013 0.10073 0.47457 0.0
C746 C 0.64402 0.12118 0.49992 0.0
C747 C 0.66623 0.13052 0.48927 0.0
C748 C 0.66419 0.12633 0.47108 0.0
C749 C 0.64144 0.11148 0.46383 0.0
C750 C 0.73611 0.16889 0.49426 0.0
C751 C 0.74996 0.15225 0.50667 0.0
C752 C 0.70803 0.16315 0.48939 0.0
C753 C 0.69323 0.14093 0.497 0.0
C754 C 0.70631 0.12594 0.51048 0.0
C755 C 0.73441 0.13148 0.51522 0.0
H756 H 0.92637 0.111 0.75743 0.0
H757 H 0.92297 0.13858 0.70404 0.0
H758 H 0.90087 0.15349 0.76683 0.0
H759 H 0.89754 0.18073 0.71329 0.0
H760 H 0.84091 0.24887 0.73259 0.0
H761 H 0.85247 0.19956 0.7271 0.0
H762 H 0.91775 0.20405 0.76684 0.0
H763 H 0.90634 0.25314 0.77229 0.0
C764 C 0.91965 0.1259 0.74771 0.0
C765 C 0.92682 0.12183 0.73007 0.0
C766 C 0.90517 0.15015 0.75306 0.0
C767 C 0.89724 0.17037 0.74078 0.0
C768 C 0.90307 0.16539 0.72302 0.0
C769 C 0.91786 0.14144 0.71774 0.0
C770 C 0.85723 0.23912 0.74044 0.0
C771 C 0.87301 0.25496 0.75269 0.0
C772 C 0.8639 0.21096 0.73726 0.0
C773 C 0.88615 0.19808 0.74645 0.0
C774 C 0.90038 0.21335 0.75963 0.0
C775 C 0.89398 0.24154 0.76266 0.0
H776 H 0.85946 0.44292 0.94999 0.0
H777 H 0.88544 0.46022 0.00323 0.0
H778 H 0.81967 0.41519 0.96045 0.0
H779 H 0.84536 0.43247 0.01379 0.0
H780 H 0.7455 0.42088 0.01913 0.0
H781 H 0.79162 0.4408 0.01208 0.0
H782 H 0.80845 0.37083 0.97726 0.0
H783 H 0.7623 0.35068 0.98435 0.0
C784 C 0.85672 0.44055 0.96394 0.0
C785 C 0.87531 0.45382 0.97583 0.0
C786 C 0.83414 0.4245 0.96992 0.0
C787 C 0.82946 0.42168 0.98793 0.0
C788 C 0.84848 0.43439 -0.00016 0.0
C789 C 0.8714 0.45013 0.99383 0.0
C790 C 0.75921 0.40949 0.01018 0.0
C791 C 0.75013 0.38433 0.00217 0.0
C792 C 0.7857 0.42083 0.00625 0.0
C793 C 0.8035 0.40743 0.99406 0.0
C794 C 0.795 0.38167 0.98661 0.0
C795 C 0.76866 0.37011 0.99074 0.0
H796 H 0.59232 0.37269 0.20299 0.0
H797 H 0.57608 0.39564 0.25677 0.0
H798 H 0.62398 0.33529 0.21247 0.0
H799 H 0.60755 0.35765 0.26639 0.0
H800 H 0.69321 0.28176 0.23344 0.0
H801 H 0.67103 0.32749 0.2294 0.0
H802 H 0.60175 0.30331 0.2626 0.0
H803 H 0.62368 0.25747 0.26652 0.0
C804 C 0.59584 0.36981 0.21685 0.0
C805 C 0.5818 0.38679 0.22918 0.0
C806 C 0.61408 0.34863 0.22228 0.0
C807 C 0.61827 0.34371 0.24016 0.0
C808 C 0.60468 0.3611 0.25253 0.0
C809 C 0.5868 0.38275 0.24707 0.0
C810 C 0.67366 0.28646 0.24027 0.0
C811 C 0.65999 0.26592 0.25013 0.0
C812 C 0.66093 0.31258 0.23789 0.0
C813 C 0.63458 0.31876 0.24556 0.0
C814 C 0.62213 0.29911 0.25661 0.0
C815 C 0.63463 0.27284 0.25879 0.0
H816 H 0.05078 0.92193 0.39261 0.0
H817 H 0.12836 0.90549 0.36436 0.0
H818 H 0.07444 0.91047 0.41988 0.0
H819 H 0.15222 0.89397 0.39202 0.0
H820 H 0.16686 0.84892 0.4478 0.0
H821 H 0.14675 0.85655 0.41858 0.0
H822 H 0.11591 0.93752 0.43561 0.0
H823 H 0.13598 0.93029 0.4645 0.0
C824 C 0.07277 0.91531 0.39217 0.0
C825 C 0.08769 0.91448 0.37631 0.0
C826 C 0.08635 0.90901 0.40782 0.0
C827 C 0.11514 0.90154 0.40801 0.0
C828 C 0.12996 0.89963 0.39215 0.0
C829 C 0.11638 0.90632 0.3764 0.0
C830 C 0.15599 0.86843 0.44524 0.0
C831 C 0.15285 0.88891 0.45853 0.0
C832 C 0.14463 0.8728 0.42853 0.0
C833 C 0.12962 0.8975 0.42497 0.0
C834 C 0.12715 0.91817 0.4381 0.0
C835 C 0.13875 0.91401 0.45464 0.0
H836 H 0.02602 0.6072 0.63816 0.0
H837 H 0.10171 0.62213 0.60799 0.0
H838 H 0.04974 0.62506 0.66419 0.0
H839 H 0.12612 0.63837 0.63442 0.0
H840 H 0.15451 0.68705 0.68361 0.0
H841 H 0.12944 0.67454 0.65657 0.0
H842 H 0.08543 0.60875 0.68355 0.0
H843 H 0.10969 0.62184 0.71054 0.0
C844 C 0.04763 0.61461 0.63699 0.0
C845 C 0.06192 0.61314 0.6209 0.0
C846 C 0.06142 0.62442 0.65204 0.0
C847 C 0.09 0.63274 0.65149 0.0
C848 C 0.10407 0.63222 0.63532 0.0
C849 C 0.09016 0.6226 0.62019 0.0
C850 C 0.13944 0.66994 0.68372 0.0
C851 C 0.13399 0.65548 0.6992 0.0
C852 C 0.12516 0.6627 0.66822 0.0
C853 C 0.10525 0.64076 0.66789 0.0
C854 C 0.10012 0.62617 0.68338 0.0
C855 C 0.11421 0.63352 0.69886 0.0
H856 H 0.37744 0.5615 0.86868 0.0
H857 H 0.45678 0.60157 0.88235 0.0
H858 H 0.35527 0.58284 0.89462 0.0
H859 H 0.43473 0.62261 0.90825 0.0
H860 H 0.32463 0.65208 0.93551 0.0
H861 H 0.34423 0.63385 0.90792 0.0
H862 H 0.41471 0.59815 0.93611 0.0
H863 H 0.39507 0.61581 0.96359 0.0
C864 C 0.38999 0.5751 0.87713 0.0
C865 C 0.41878 0.57994 0.87355 0.0
C866 C 0.37731 0.58736 0.89188 0.0
C867 C 0.3934 0.60418 0.90342 0.0
C868 C 0.42197 0.60957 0.89958 0.0
C869 C 0.43449 0.59772 0.88472 0.0
C870 C 0.34425 0.64025 0.93577 0.0
C871 C 0.35834 0.63534 0.95167 0.0
C872 C 0.35537 0.62981 0.92004 0.0
C873 C 0.38103 0.61482 0.91995 0.0
C874 C 0.39504 0.60991 0.93584 0.0
C875 C 0.38369 0.61986 0.95156 0.0
H876 H 0.47479 0.89801 0.12463 0.0
H877 H 0.39547 0.94344 0.12303 0.0
H878 H 0.45955 0.87481 0.15102 0.0
H879 H 0.38089 0.92133 0.15002 0.0
H880 H 0.35536 0.86368 0.19414 0.0
H881 H 0.36725 0.87894 0.16473 0.0
H882 H 0.45461 0.89009 0.18078 0.0
H883 H 0.443 0.87428 0.20983 0.0
C884 C 0.45389 0.90275 0.12972 0.0
C885 C 0.43648 0.92283 0.12175 0.0
C886 C 0.44532 0.88972 0.14503 0.0
C887 C 0.41921 0.89655 0.15283 0.0
C888 C 0.40111 0.9155 0.14437 0.0
C889 C 0.40962 0.92843 0.12899 0.0
C890 C 0.37713 0.86923 0.19134 0.0
C891 C 0.3982 0.86779 0.20438 0.0
C892 C 0.38392 0.87807 0.1745 0.0
C893 C 0.41191 0.88563 0.17035 0.0
C894 C 0.43295 0.8839 0.18338 0.0
C895 C 0.42621 0.87505 0.20013 0.0
H896 H 0.08862 0.64081 0.88794 0.0
H897 H 0.08892 0.55393 0.87172 0.0
H898 H 0.115 0.65294 0.8617 0.0
H899 H 0.11367 0.56586 0.84515 0.0
H900 H 0.17079 0.58922 0.80196 0.0
H901 H 0.15446 0.57978 0.8314 0.0
H902 H 0.10809 0.65806 0.83188 0.0
H903 H 0.1261 0.66814 0.80291 0.0
C904 C 0.09453 0.62433 0.87877 0.0
C905 C 0.08693 0.59645 0.88186 0.0
C906 C 0.1094 0.63124 0.86364 0.0
C907 C 0.11644 0.61046 0.85111 0.0
C908 C 0.10931 0.58246 0.85455 0.0
C909 C 0.09497 0.57554 0.86979 0.0
C910 C 0.15736 0.60451 0.80849 0.0
C911 C 0.14953 0.6293 0.80011 0.0
C912 C 0.14779 0.59905 0.82534 0.0
C913 C 0.12952 0.61791 0.83407 0.0
C914 C 0.12241 0.64314 0.8258 0.0
C915 C 0.13256 0.64889 0.80909 0.0
H916 H 0.46444 0.58527 0.1225 0.0
H917 H 0.37806 0.58524 0.14093 0.0
H918 H 0.44963 0.60895 0.09624 0.0
H919 H 0.36304 0.61039 0.11482 0.0
H920 H 0.3435 0.62196 0.05588 0.0
H921 H 0.35539 0.604 0.0847 0.0
H922 H 0.43436 0.65013 0.08401 0.0
H923 H 0.42315 0.66637 0.05483 0.0
C924 C 0.44231 0.59106 0.1211 0.0
C925 C 0.42243 0.5836 0.13379 0.0
C926 C 0.43375 0.60479 0.10603 0.0
C927 C 0.40507 0.61189 0.10334 0.0
C928 C 0.38522 0.60497 0.11629 0.0
C929 C 0.39379 0.59074 0.1313 0.0
C930 C 0.36325 0.62838 0.06203 0.0
C931 C 0.38261 0.64516 0.05306 0.0
C932 C 0.37005 0.61825 0.07861 0.0
C933 C 0.39611 0.62519 0.08667 0.0
C934 C 0.41454 0.64352 0.07804 0.0
C935 C 0.40805 0.65304 0.06135 0.0
H936 H 0.4018 0.96419 0.37733 0.0
H937 H 0.4368 0.88237 0.38749 0.0
H938 H 0.37594 0.945 0.35223 0.0
H939 H 0.41138 0.8633 0.36206 0.0
H940 H 0.34802 0.8352 0.3197 0.0
H941 H 0.36357 0.85356 0.34826 0.0
H942 H 0.39473 0.92817 0.32362 0.0
H943 H 0.37928 0.90999 0.29527 0.0
C944 C 0.40345 0.94197 0.37446 0.0
C945 C 0.42151 0.92482 0.38431 0.0
C946 C 0.38886 0.93106 0.35998 0.0
C947 C 0.39192 0.90275 0.35507 0.0
C948 C 0.40853 0.88518 0.36556 0.0
C949 C 0.42326 0.89614 0.38002 0.0
C950 C 0.35795 0.85563 0.32045 0.0
C951 C 0.36259 0.87111 0.30526 0.0
C952 C 0.3669 0.86607 0.33676 0.0
C953 C 0.38027 0.89231 0.33816 0.0
C954 C 0.38413 0.90806 0.323 0.0
C955 C 0.37549 0.89754 0.30674 0.0
H956 H 0.05833 0.94337 0.61363 0.0
H957 H 0.10368 0.8893 0.64877 0.0
H958 H 0.08248 0.92206 0.5889 0.0
H959 H 0.12746 0.86684 0.62373 0.0
H960 H 0.18503 0.85591 0.57453 0.0
H961 H 0.16175 0.87372 0.601 0.0
H962 H 0.08275 0.88037 0.57235 0.0
H963 H 0.10632 0.86404 0.54595 0.0
C964 C 0.07323 0.92653 0.616 0.0
C965 C 0.07886 0.91768 0.63306 0.0
C966 C 0.08701 0.91418 0.6018 0.0
C967 C 0.10656 0.8923 0.60423 0.0
C968 C 0.11259 0.88369 0.62138 0.0
C969 C 0.09896 0.89641 0.6357 0.0
C970 C 0.16265 0.86104 0.57401 0.0
C971 C 0.14754 0.85904 0.55817 0.0
C972 C 0.14926 0.87112 0.58917 0.0
C973 C 0.12046 0.87898 0.58877 0.0
C974 C 0.10515 0.87539 0.57306 0.0
C975 C 0.11859 0.86584 0.55793 0.0
H976 H 0.54505 0.39986 0.87472 0.0
H977 H 0.62982 0.43042 0.86559 0.0
H978 H 0.56083 0.37979 0.9023 0.0
H979 H 0.64568 0.40989 0.89317 0.0
H980 H 0.66153 0.34975 0.94106 0.0
H981 H 0.64736 0.35907 0.91071 0.0
H982 H 0.57967 0.41235 0.92945 0.0
H983 H 0.59415 0.40381 0.95955 0.0
C984 C 0.56726 0.40145 0.87832 0.0
C985 C 0.58623 0.41673 0.86807 0.0
C986 C 0.5762 0.39011 0.89413 0.0
C987 C 0.60438 0.39344 0.89979 0.0
C988 C 0.62388 0.40694 0.88897 0.0
C989 C 0.61481 0.41873 0.87328 0.0
C990 C 0.64352 0.36327 0.93863 0.0
C991 C 0.62899 0.37617 0.95261 0.0
C992 C 0.63551 0.36861 0.92134 0.0
C993 C 0.61237 0.38624 0.91786 0.0
C994 C 0.59742 0.39846 0.93184 0.0
C995 C 0.60582 0.39371 0.94903 0.0
H996 H 0.55336 0.12941 0.11783 0.0
H997 H 0.63276 0.08652 0.10866 0.0
H998 H 0.57486 0.1552 0.14229 0.0
H999 H 0.65414 0.11201 0.13333 0.0
H1000 H 0.6878 0.17324 0.17497 0.0
H1001 H 0.66806 0.15937 0.14641 0.0
H1002 H 0.58965 0.13598 0.17124 0.0
H1003 H 0.60924 0.14962 0.19958 0.0
C1004 C 0.57561 0.12604 0.12075 0.0
C1005 C 0.59133 0.10576 0.11145 0.0
C1006 C 0.58783 0.14063 0.13483 0.0
C1007 C 0.61606 0.13537 0.13982 0.0
C1008 C 0.63238 0.11658 0.12974 0.0
C1009 C 0.62009 0.10183 0.11573 0.0
C1010 C 0.66624 0.16546 0.17425 0.0
C1011 C 0.65011 0.16229 0.18949 0.0
C1012 C 0.655 0.15747 0.15794 0.0
C1013 C 0.62731 0.14668 0.15661 0.0
C1014 C 0.6109 0.14458 0.17181 0.0
C1015 C 0.62222 0.15217 0.18806 0.0
H1016 H 0.95398 0.09887 0.37976 0.0
H1017 H 0.87903 0.048 0.37218 0.0
H1018 H 0.93259 0.12071 0.40553 0.0
H1019 H 0.85769 0.0698 0.39801 0.0
H1020 H 0.85497 0.07971 0.45824 0.0
H1021 H 0.86965 0.06513 0.42914 0.0
H1022 H 0.89353 0.1502 0.41779 0.0
H1023 H 0.87896 0.16494 0.44721 0.0
C1024 C 0.93265 0.09286 0.38332 0.0
C1025 C 0.91834 0.07144 0.37405 0.0
C1026 C 0.92039 0.10539 0.3981 0.0
C1027 C 0.89361 0.09671 0.40393 0.0
C1028 C 0.8786 0.07653 0.39403 0.0
C1029 C 0.89082 0.06405 0.37925 0.0
C1030 C 0.86315 0.09543 0.44955 0.0
C1031 C 0.86596 0.12348 0.45512 0.0
C1032 C 0.87133 0.08708 0.43278 0.0
C1033 C 0.88267 0.10652 0.42113 0.0
C1034 C 0.885 0.13472 0.42652 0.0
C1035 C 0.87657 0.14316 0.44333 0.0
H1036 H 0.97193 0.42668 0.62693 0.0
H1037 H 0.88482 0.42797 0.6094 0.0
H1038 H 0.95786 0.40342 0.65345 0.0
H1039 H 0.87054 0.40312 0.63563 0.0
H1040 H 0.85182 0.39327 0.69425 0.0
H1041 H 0.8638 0.41043 0.66541 0.0
H1042 H 0.94238 0.36353 0.66686 0.0
H1043 H 0.93107 0.34803 0.69613 0.0
C1044 C 0.9498 0.42122 0.62857 0.0
C1045 C 0.92947 0.42903 0.61612 0.0
C1046 C 0.94166 0.40773 0.64379 0.0
C1047 C 0.91297 0.40123 0.64682 0.0
C1048 C 0.89274 0.4082 0.63397 0.0
C1049 C 0.90088 0.42223 0.61887 0.0
C1050 C 0.87154 0.38651 0.68829 0.0
C1051 C 0.89069 0.36963 0.6975 0.0
C1052 C 0.87838 0.39618 0.67167 0.0
C1053 C 0.90428 0.3887 0.66374 0.0
C1054 C 0.92265 0.37049 0.67267 0.0
C1055 C 0.9161 0.3614 0.68943 0.0
H1056 H 0.59838 0.11425 0.37775 0.0
H1057 H 0.60984 0.0293 0.35861 0.0
H1058 H 0.61547 0.13178 0.34998 0.0
H1059 H 0.62908 0.04674 0.33173 0.0
H1060 H 0.62726 0.08214 0.27802 0.0
H1061 H 0.61143 0.06727 0.30647 0.0
H1062 H 0.65465 0.13773 0.33074 0.0
H1063 H 0.66948 0.1534 0.30189 0.0
C1064 C 0.60478 0.09928 0.36776 0.0
C1065 C 0.60244 0.07028 0.37051 0.0
C1066 C 0.61497 0.10937 0.35188 0.0
C1067 C 0.62333 0.09071 0.33846 0.0
C1068 C 0.62219 0.0618 0.34156 0.0
C1069 C 0.61163 0.05174 0.35723 0.0
C1070 C 0.6334 0.09451 0.28941 0.0
C1071 C 0.64979 0.11884 0.28771 0.0
C1072 C 0.6245 0.08585 0.30579 0.0
C1073 C 0.63215 0.10098 0.32102 0.0
C1074 C 0.64821 0.12563 0.31931 0.0
C1075 C 0.65681 0.13457 0.3028 0.0
H1076 H 0.90519 0.11596 0.64499 0.0
H1077 H 0.9822 0.0997 0.61601 0.0
H1078 H 0.88385 0.13639 0.619 0.0
H1079 H 0.96166 0.12167 0.59064 0.0
H1080 H 0.90519 0.12391 0.54289 0.0
H1081 H 0.92646 0.10801 0.56987 0.0
H1082 H 0.88428 0.17475 0.59839 0.0
H1083 H 0.8621 0.19027 0.57119 0.0
C1084 C 0.91771 0.11702 0.63319 0.0
C1085 C 0.94538 0.10593 0.63263 0.0
C1086 C 0.90558 0.12906 0.61835 0.0
C1087 C 0.92091 0.13034 0.60266 0.0
C1088 C 0.94902 0.1205 0.60239 0.0
C1089 C 0.961 0.10829 0.61711 0.0
C1090 C 0.90044 0.13528 0.55488 0.0
C1091 C 0.88202 0.1584 0.5549 0.0
C1092 C 0.91283 0.12628 0.57037 0.0
C1093 C 0.90737 0.1403 0.5863 0.0
C1094 C 0.8888 0.16339 0.58637 0.0
C1095 C 0.87621 0.17235 0.57079 0.0
H1096 H 0.86459 0.47405 0.87682 0.0
H1097 H 0.94674 0.43474 0.87155 0.0
H1098 H 0.84782 0.4483 0.85075 0.0
H1099 H 0.93006 0.40923 0.84557 0.0
H1100 H 0.90026 0.40438 0.78758 0.0
H1101 H 0.915 0.42696 0.81498 0.0
H1102 H 0.83978 0.39601 0.84018 0.0
H1103 H 0.82509 0.37296 0.81274 0.0
C1104 C 0.87892 0.45973 0.87017 0.0
C1105 C 0.90691 0.45632 0.87618 0.0
C1106 C 0.86932 0.44495 0.85536 0.0
C1107 C 0.88774 0.42694 0.84616 0.0
C1108 C 0.91553 0.42314 0.85238 0.0
C1109 C 0.92497 0.43755 0.86731 0.0
C1110 C 0.88686 0.40236 0.79895 0.0
C1111 C 0.86155 0.38689 0.79804 0.0
C1112 C 0.89538 0.41515 0.81464 0.0
C1113 C 0.87855 0.4131 0.82966 0.0
C1114 C 0.85306 0.39793 0.82874 0.0
C1115 C 0.84475 0.3847 0.81309 0.0
H1116 H 0.53014 0.4182 0.10994 0.0
H1117 H 0.58886 0.37682 0.14445 0.0
H1118 H 0.55432 0.39821 0.08479 0.0
H1119 H 0.61273 0.35556 0.11914 0.0
H1120 H 0.66674 0.35062 0.06851 0.0
H1121 H 0.64267 0.36585 0.09525 0.0
H1122 H 0.56166 0.35697 0.06892 0.0
H1123 H 0.58586 0.34343 0.04213 0.0
C1124 C 0.54794 0.40428 0.11212 0.0
C1125 C 0.55747 0.39884 0.12912 0.0
C1126 C 0.5618 0.39267 0.09769 0.0
C1127 C 0.58536 0.37492 0.09986 0.0
C1128 C 0.59484 0.36933 0.11694 0.0
C1129 C 0.58113 0.38135 0.13144 0.0
C1130 C 0.64378 0.35176 0.06856 0.0
C1131 C 0.62815 0.34627 0.05323 0.0
C1132 C 0.62993 0.36034 0.0839 0.0
C1133 C 0.60017 0.36311 0.08423 0.0
C1134 C 0.58461 0.35598 0.06906 0.0
C1135 C 0.59845 0.34799 0.05371 0.0
loop_
_geom_bond_atom_site_label_1
_geom_bond_atom_site_label_2
_geom_bond_distance
_geom_bond_site_symmetry_2
_ccdc_geom_bond_type
H0 C19 0.949 1_455 S
H1 C20 0.950 . S
H2 C22 0.950 . S
H3 C23 0.950 . S
H4 C25 0.950 . S
H5 C28 0.950 . S
H6 C29 0.950 . S
H7 C31 0.951 . S
H8 C32 0.949 . S
H9 C34 0.949 . S
H10 C35 0.950 . S
H11 C37 0.950 . S
H12 C38 0.950 . S
H13 C40 0.950 . S
H14 C43 0.950 . S
H15 C44 0.950 . S
H16 C46 0.951 . S
H17 C47 0.949 1_545 S
C18 C19 1.376 . S
C18 C23 1.386 . S
C18 C24 1.483 . S
C19 H0 0.949 1_655 S
C19 C18 1.376 . S
C19 C20 1.397 . S
C20 H1 0.950 . S
C20 C19 1.397 . S
C20 C21 1.391 . S
C21 C20 1.391 . S
C21 C22 1.405 . S
C22 H2 0.950 . S
C22 C21 1.405 . S
C22 C23 1.367 . S
C23 H3 0.950 . S
C23 C18 1.386 . S
C23 C22 1.367 . S
C24 C18 1.483 . S
C24 C25 1.382 1_655 S
C24 C26 1.403 . S
C25 H4 0.950 . S
C25 C24 1.382 1_455 S
C25 C41 1.388 1_545 S
C26 C24 1.403 . S
C26 C27 1.489 . S
C26 C40 1.411 1_655 S
C27 C26 1.489 . S
C27 C28 1.383 . S
C27 C32 1.382 . S
C28 H5 0.950 . S
C28 C27 1.383 . S
C28 C29 1.395 . S
C29 H6 0.950 . S
C29 C28 1.395 . S
C29 C30 1.288 . S
C30 C29 1.288 . S
C30 C31 1.392 . S
C31 H7 0.951 . S
C31 C30 1.392 . S
C31 C32 1.392 . S
C32 H8 0.949 . S
C32 C27 1.382 . S
C32 C31 1.392 . S
C33 C34 1.376 . S
C33 C38 1.386 . S
C33 C39 1.483 . S
C34 H9 0.949 . S
C34 C33 1.376 . S
C34 C35 1.397 . S
C35 H10 0.950 . S
C35 C34 1.397 . S
C35 C36 1.391 . S
C36 C35 1.391 . S
C36 C37 1.405 . S
C37 H11 0.950 . S
C37 C36 1.405 . S
C37 C38 1.367 . S
C38 H12 0.950 . S
C38 C33 1.386 . S
C38 C37 1.367 . S
C39 C33 1.483 . S
C39 C40 1.382 1_565 S
C39 C41 1.408 . S
C40 H13 0.950 . S
C40 C26 1.411 1_455 S
C40 C39 1.382 1_545 S
C41 C25 1.388 1_565 S
C41 C39 1.408 . S
C41 C42 1.508 . S
C42 C41 1.508 . S
C42 C43 1.383 . S
C42 C47 1.382 . S
C43 H14 0.950 . S
C43 C42 1.383 . S
C43 C44 1.395 . S
C44 H15 0.950 . S
C44 C43 1.395 . S
C44 C45 1.288 . S
C45 C44 1.288 . S
C45 C46 1.392 . S
C46 H16 0.951 . S
C46 C45 1.392 . S
C46 C47 1.392 . S
C47 H17 0.949 1_565 S
C47 C42 1.382 . S
C47 C46 1.392 . S
H48 C67 0.949 1_455 S
H49 C68 0.950 . S
H50 C70 0.950 . S
H51 C71 0.950 . S
H52 C73 0.950 . S
H53 C76 0.950 . S
H54 C77 0.950 . S
H55 C79 0.951 . S
H56 C80 0.949 . S
H57 C82 0.949 . S
H58 C83 0.950 . S
H59 C85 0.950 . S
H60 C86 0.950 . S
H61 C88 0.950 . S
H62 C91 0.950 . S
H63 C92 0.950 . S
H64 C94 0.951 . S
H65 C95 0.949 . S
C66 C67 1.376 . S
C66 C71 1.386 . S
C66 C72 1.483 . S
C67 H48 0.949 1_655 S
C67 C66 1.376 . S
C67 C68 1.397 . S
C68 H49 0.950 . S
C68 C67 1.397 . S
C68 C69 1.391 . S
C69 C68 1.391 . S
C69 C70 1.405 . S
C70 H50 0.950 . S
C70 C69 1.405 . S
C70 C71 1.367 . S
C71 H51 0.950 . S
C71 C66 1.386 . S
C71 C70 1.367 . S
C72 C66 1.483 . S
C72 C73 1.382 1_655 S
C72 C74 1.403 . S
C73 H52 0.950 . S
C73 C72 1.382 1_455 S
C73 C89 1.411 . S
C74 C72 1.403 . S
C74 C75 1.489 . S
C74 C88 1.411 1_655 S
C75 C74 1.489 . S
C75 C76 1.383 . S
C75 C80 1.382 . S
C76 H53 0.950 . S
C76 C75 1.383 . S
C76 C77 1.395 . S
C77 H54 0.950 . S
C77 C76 1.395 . S
C77 C78 1.288 . S
C78 C77 1.288 . S
C78 C79 1.392 . S
C79 H55 0.951 . S
C79 C78 1.392 . S
C79 C80 1.392 . S
C80 H56 0.949 . S
C80 C75 1.382 . S
C80 C79 1.392 . S
C81 C82 1.376 . S
C81 C86 1.386 . S
C81 C87 1.483 . S
C82 H57 0.949 . S
C82 C81 1.376 . S
C82 C83 1.397 . S
C83 H58 0.950 . S
C83 C82 1.397 . S
C83 C84 1.391 . S
C84 C83 1.391 . S
C84 C85 1.405 . S
C85 H59 0.950 . S
C85 C84 1.405 . S
C85 C86 1.367 . S
C86 H60 0.950 . S
C86 C81 1.386 . S
C86 C85 1.367 . S
C87 C81 1.483 . S
C87 C88 1.382 . S
C87 C89 1.403 . S
C88 H61 0.950 . S
C88 C74 1.411 1_455 S
C88 C87 1.382 . S
C89 C73 1.411 . S
C89 C87 1.403 . S
C89 C90 1.489 . S
C90 C89 1.489 . S
C90 C91 1.383 . S
C90 C95 1.382 . S
C91 H62 0.950 . S
C91 C90 1.383 . S
C91 C92 1.395 . S
C92 H63 0.950 . S
C92 C91 1.395 . S
C92 C93 1.288 . S
C93 C92 1.288 . S
C93 C94 1.392 . S
C94 H64 0.951 . S
C94 C93 1.392 . S
C94 C95 1.392 . S
C95 H65 0.949 . S
C95 C90 1.382 . S
C95 C94 1.392 . S
H96 C115 0.949 . S
H97 C116 0.950 . S
H98 C118 0.950 . S
H99 C119 0.950 . S
H100 C121 0.950 . S
H101 C124 0.950 . S
H102 C125 0.950 . S
H103 C127 0.951 . S
H104 C128 0.949 . S
H105 C130 0.949 . S
H106 C131 0.950 . S
H107 C133 0.950 . S
H108 C134 0.950 . S
H109 C136 0.950 . S
H110 C139 0.950 . S
H111 C140 0.950 . S
H112 C142 0.951 . S
H113 C143 0.949 . S
C114 C115 1.376 . S
C114 C119 1.386 . S
C114 C120 1.483 . S
C115 H96 0.949 . S
C115 C114 1.376 . S
C115 C116 1.397 . S
C116 H97 0.950 . S
C116 C115 1.397 . S
C116 C117 1.391 . S
C117 C116 1.391 . S
C117 C118 1.405 . S
C118 H98 0.950 . S
C118 C117 1.405 . S
C118 C119 1.367 . S
C119 H99 0.950 . S
C119 C114 1.386 . S
C119 C118 1.367 . S
C120 C114 1.483 . S
C120 C121 1.382 . S
C120 C122 1.403 . S
C121 H100 0.950 . S
C121 C120 1.382 . S
C121 C137 1.411 . S
C122 C120 1.403 . S
C122 C123 1.489 . S
C122 C136 1.411 . S
C123 C122 1.489 . S
C123 C124 1.383 . S
C123 C128 1.382 . S
C124 H101 0.950 . S
C124 C123 1.383 . S
C124 C125 1.395 . S
C125 H102 0.950 . S
C125 C124 1.395 . S
C125 C126 1.288 . S
C126 C125 1.288 . S
C126 C127 1.392 . S
C127 H103 0.951 . S
C127 C126 1.392 . S
C127 C128 1.392 . S
C128 H104 0.949 . S
C128 C123 1.382 . S
C128 C127 1.392 . S
C129 C130 1.376 . S
C129 C134 1.386 . S
C129 C135 1.483 . S
C130 H105 0.949 . S
C130 C129 1.376 . S
C130 C131 1.397 . S
C131 H106 0.950 . S
C131 C130 1.397 . S
C131 C132 1.391 . S
C132 C131 1.391 . S
C132 C133 1.405 . S
C133 H107 0.950 . S
C133 C132 1.405 . S
C133 C134 1.367 . S
C134 H108 0.950 . S
C134 C129 1.386 . S
C134 C133 1.367 . S
C135 C129 1.483 . S
C135 C136 1.382 . S
C135 C137 1.403 . S
C136 H109 0.950 . S
C136 C122 1.411 . S
C136 C135 1.382 . S
C137 C121 1.411 . S
C137 C135 1.403 . S
C137 C138 1.489 . S
C138 C137 1.489 . S
C138 C139 1.383 . S
C138 C143 1.382 . S
C139 H110 0.950 . S
C139 C138 1.383 . S
C139 C140 1.395 . S
C140 H111 0.950 . S
C140 C139 1.395 . S
C140 C141 1.288 . S
C141 C140 1.288 . S
C141 C142 1.392 . S
C142 H112 0.951 . S
C142 C141 1.392 . S
C142 C143 1.392 . S
C143 H113 0.949 . S
C143 C138 1.382 . S
C143 C142 1.392 . S
H144 C163 0.949 . S
H145 C164 0.950 . S
H146 C166 0.950 . S
H147 C167 0.950 . S
H148 C169 0.950 . S
H149 C172 0.950 . S
H150 C173 0.950 . S
H151 C175 0.951 . S
H152 C176 0.949 . S
H153 C178 0.949 . S
H154 C179 0.950 . S
H155 C181 0.950 . S
H156 C182 0.950 . S
H157 C184 0.950 . S
H158 C187 0.950 . S
H159 C188 0.950 . S
H160 C190 0.951 . S
H161 C191 0.949 . S
C162 C163 1.376 . S
C162 C167 1.386 . S
C162 C168 1.483 . S
C163 H144 0.949 . S
C163 C162 1.376 . S
C163 C164 1.397 . S
C164 H145 0.950 . S
C164 C163 1.397 . S
C164 C165 1.391 . S
C165 C164 1.391 . S
C165 C166 1.405 . S
C166 H146 0.950 . S
C166 C165 1.405 . S
C166 C167 1.367 . S
C167 H147 0.950 . S
C167 C162 1.386 . S
C167 C166 1.367 . S
C168 C162 1.483 . S
C168 C169 1.382 . S
C168 C170 1.403 . S
C169 H148 0.950 . S
C169 C168 1.382 . S
C169 C185 1.411 1_565 S
C170 C168 1.403 . S
C170 C171 1.489 . S
C170 C184 1.411 1_565 S
C171 C170 1.489 . S
C171 C172 1.383 . S
C171 C176 1.382 . S
C172 H149 0.950 . S
C172 C171 1.383 . S
C172 C173 1.395 . S
C173 H150 0.950 . S
C173 C172 1.395 . S
C173 C174 1.288 . S
C174 C173 1.288 . S
C174 C175 1.392 . S
C175 H151 0.951 . S
C175 C174 1.392 . S
C175 C176 1.392 . S
C176 H152 0.949 . S
C176 C171 1.382 . S
C176 C175 1.392 . S
C177 C178 1.376 . S
C177 C182 1.386 . S
C177 C183 1.483 . S
C178 H153 0.949 . S
C178 C177 1.376 . S
C178 C179 1.397 . S
C179 H154 0.950 . S
C179 C178 1.397 . S
C179 C180 1.391 . S
C180 C179 1.391 . S
C180 C181 1.405 . S
C181 H155 0.950 . S
C181 C180 1.405 . S
C181 C182 1.367 . S
C182 H156 0.950 . S
C182 C177 1.386 . S
C182 C181 1.367 . S
C183 C177 1.483 . S
C183 C184 1.382 . S
C183 C185 1.403 . S
C184 H157 0.950 . S
C184 C170 1.411 1_545 S
C184 C183 1.382 . S
C185 C169 1.411 1_545 S
C185 C183 1.403 . S
C185 C186 1.489 . S
C186 C185 1.489 . S
C186 C187 1.383 . S
C186 C191 1.382 . S
C187 H158 0.950 . S
C187 C186 1.383 . S
C187 C188 1.395 . S
C188 H159 0.950 . S
C188 C187 1.395 . S
C188 C189 1.288 . S
C189 C188 1.288 . S
C189 C190 1.392 . S
C190 H160 0.951 . S
C190 C189 1.392 . S
C190 C191 1.392 . S
C191 H161 0.949 . S
C191 C186 1.382 . S
C191 C190 1.392 . S
H192 C211 0.949 . S
H193 C212 0.950 . S
H194 C214 0.950 . S
H195 C215 0.950 . S
H196 C217 0.950 . S
H197 C220 0.950 . S
H198 C221 0.950 . S
H199 C223 0.951 . S
H200 C224 0.949 . S
H201 C226 0.949 . S
H202 C227 0.950 . S
H203 C229 0.950 . S
H204 C230 0.950 . S
H205 C232 0.950 . S
H206 C235 0.950 . S
H207 C236 0.950 . S
H208 C238 0.951 . S
H209 C239 0.949 . S
C210 C211 1.376 . S
C210 C215 1.386 . S
C210 C216 1.483 . S
C211 H192 0.949 . S
C211 C210 1.376 . S
C211 C212 1.397 . S
C212 H193 0.950 . S
C212 C211 1.397 . S
C212 C213 1.391 . S
C213 C212 1.391 . S
C213 C214 1.405 . S
C214 H194 0.950 . S
C214 C213 1.405 . S
C214 C215 1.367 . S
C215 H195 0.950 . S
C215 C210 1.386 . S
C215 C214 1.367 . S
C216 C210 1.483 . S
C216 C217 1.382 1_455 S
C216 C218 1.403 . S
C217 H196 0.950 . S
C217 C216 1.382 1_655 S
C217 C233 1.411 . S
C218 C216 1.403 . S
C218 C219 1.489 . S
C218 C232 1.411 . S
C219 C218 1.489 . S
C219 C220 1.383 . S
C219 C224 1.382 . S
C220 H197 0.950 . S
C220 C219 1.383 . S
C220 C221 1.395 . S
C221 H198 0.950 . S
C221 C220 1.395 . S
C221 C222 1.288 . S
C222 C221 1.288 . S
C222 C223 1.392 . S
C223 H199 0.951 . S
C223 C222 1.392 . S
C223 C224 1.392 . S
C224 H200 0.949 . S
C224 C219 1.382 . S
C224 C223 1.392 . S
C225 C226 1.376 . S
C225 C230 1.386 . S
C225 C231 1.483 . S
C226 H201 0.949 . S
C226 C225 1.376 . S
C226 C227 1.397 . S
C227 H202 0.950 . S
C227 C226 1.397 . S
C227 C228 1.391 . S
C228 C227 1.391 . S
C228 C229 1.405 . S
C229 H203 0.950 . S
C229 C228 1.405 . S
C229 C230 1.367 . S
C230 H204 0.950 . S
C230 C225 1.386 . S
C230 C229 1.367 . S
C231 C225 1.483 . S
C231 C232 1.382 1_655 S
C231 C233 1.403 . S
C232 H205 0.950 . S
C232 C218 1.411 . S
C232 C231 1.382 1_455 S
C233 C217 1.411 . S
C233 C231 1.403 . S
C233 C234 1.489 . S
C234 C233 1.489 . S
C234 C235 1.383 . S
C234 C239 1.382 . S
C235 H206 0.950 . S
C235 C234 1.383 . S
C235 C236 1.395 . S
C236 H207 0.950 . S
C236 C235 1.395 . S
C236 C237 1.288 . S
C237 C236 1.288 . S
C237 C238 1.392 . S
C238 H208 0.951 . S
C238 C237 1.392 . S
C238 C239 1.392 . S
C239 H209 0.949 . S
C239 C234 1.382 . S
C239 C238 1.392 . S
H240 C259 0.949 . S
H241 C260 0.950 . S
H242 C262 0.950 . S
H243 C263 0.950 . S
H244 C265 0.950 . S
H245 C268 0.950 . S
H246 C269 0.950 . S
H247 C271 0.951 . S
H248 C272 0.949 . S
H249 C274 0.949 . S
H250 C275 0.950 . S
H251 C277 0.950 . S
H252 C278 0.950 . S
H253 C280 0.950 . S
H254 C283 0.950 . S
H255 C284 0.950 . S
H256 C286 0.951 . S
H257 C287 0.949 . S
C258 C259 1.376 . S
C258 C263 1.386 . S
C258 C264 1.483 . S
C259 H240 0.949 . S
C259 C258 1.376 . S
C259 C260 1.397 . S
C260 H241 0.950 . S
C260 C259 1.397 . S
C260 C261 1.391 . S
C261 C260 1.391 . S
C261 C262 1.405 . S
C262 H242 0.950 . S
C262 C261 1.405 . S
C262 C263 1.367 . S
C263 H243 0.950 . S
C263 C258 1.386 . S
C263 C262 1.367 . S
C264 C258 1.483 . S
C264 C265 1.382 . S
C264 C266 1.403 . S
C265 H244 0.950 . S
C265 C264 1.382 . S
C265 C281 1.411 . S
C266 C264 1.403 . S
C266 C267 1.489 . S
C266 C280 1.411 . S
C267 C266 1.489 . S
C267 C268 1.383 . S
C267 C272 1.382 . S
C268 H245 0.950 . S
C268 C267 1.383 . S
C268 C269 1.395 . S
C269 H246 0.950 . S
C269 C268 1.395 . S
C269 C270 1.288 . S
C270 C269 1.288 . S
C270 C271 1.392 . S
C271 H247 0.951 . S
C271 C270 1.392 . S
C271 C272 1.392 . S
C272 H248 0.949 . S
C272 C267 1.382 . S
C272 C271 1.392 . S
C273 C274 1.376 . S
C273 C278 1.386 . S
C273 C279 1.483 . S
C274 H249 0.949 . S
C274 C273 1.376 . S
C274 C275 1.397 . S
C275 H250 0.950 . S
C275 C274 1.397 . S
C275 C276 1.391 . S
C276 C275 1.391 . S
C276 C277 1.405 . S
C277 H251 0.950 . S
C277 C276 1.405 . S
C277 C278 1.367 . S
C278 H252 0.950 . S
C278 C273 1.386 . S
C278 C277 1.367 . S
C279 C273 1.483 . S
C279 C280 1.382 . S
C279 C281 1.403 . S
C280 H253 0.950 . S
C280 C266 1.411 . S
C280 C279 1.382 . S
C281 C265 1.411 . S
C281 C279 1.403 . S
C281 C282 1.489 . S
C282 C281 1.489 . S
C282 C283 1.383 . S
C282 C287 1.382 . S
C283 H254 0.950 . S
C283 C282 1.383 . S
C283 C284 1.395 . S
C284 H255 0.950 . S
C284 C283 1.395 . S
C284 C285 1.288 . S
C285 C284 1.288 . S
C285 C286 1.392 . S
C286 H256 0.951 . S
C286 C285 1.392 . S
C286 C287 1.392 . S
C287 H257 0.949 . S
C287 C282 1.382 . S
C287 C286 1.392 . S
H288 C307 0.949 . S
H289 C308 0.950 . S
H290 C310 0.950 . S
H291 C311 0.950 . S
H292 C313 0.950 . S
H293 C316 0.950 . S
H294 C317 0.950 . S
H295 C319 0.951 . S
H296 C320 0.949 1_545 S
H297 C322 0.949 . S
H298 C323 0.950 . S
H299 C325 0.950 . S
H300 C326 0.950 . S
H301 C328 0.950 . S
H302 C331 0.950 . S
H303 C332 0.950 . S
H304 C334 0.951 . S
H305 C335 0.949 . S
C306 C307 1.376 . S
C306 C311 1.386 . S
C306 C312 1.483 . S
C307 H288 0.949 . S
C307 C306 1.376 . S
C307 C308 1.397 . S
C308 H289 0.950 . S
C308 C307 1.397 . S
C308 C309 1.391 . S
C309 C308 1.391 . S
C309 C310 1.405 . S
C310 H290 0.950 . S
C310 C309 1.405 . S
C310 C311 1.367 . S
C311 H291 0.950 . S
C311 C306 1.386 . S
C311 C310 1.367 . S
C312 C306 1.483 . S
C312 C313 1.382 1_565 S
C312 C314 1.403 . S
C313 H292 0.950 . S
C313 C312 1.382 1_545 S
C313 C329 1.411 . S
C314 C312 1.403 . S
C314 C315 1.489 . S
C314 C328 1.411 1_565 S
C315 C314 1.489 . S
C315 C316 1.383 . S
C315 C320 1.382 . S
C316 H293 0.950 . S
C316 C315 1.383 . S
C316 C317 1.395 . S
C317 H294 0.950 . S
C317 C316 1.395 . S
C317 C318 1.288 . S
C318 C317 1.288 . S
C318 C319 1.392 . S
C319 H295 0.951 . S
C319 C318 1.392 . S
C319 C320 1.392 . S
C320 H296 0.949 1_565 S
C320 C315 1.382 . S
C320 C319 1.392 . S
C321 C322 1.376 . S
C321 C326 1.386 . S
C321 C327 1.483 . S
C322 H297 0.949 . S
C322 C321 1.376 . S
C322 C323 1.397 . S
C323 H298 0.950 . S
C323 C322 1.397 . S
C323 C324 1.391 . S
C324 C323 1.391 . S
C324 C325 1.405 . S
C325 H299 0.950 . S
C325 C324 1.405 . S
C325 C326 1.367 . S
C326 H300 0.950 . S
C326 C321 1.386 . S
C326 C325 1.367 . S
C327 C321 1.483 . S
C327 C328 1.382 . S
C327 C329 1.403 . S
C328 H301 0.950 . S
C328 C314 1.411 1_545 S
C328 C327 1.382 . S
C329 C313 1.411 . S
C329 C327 1.403 . S
C329 C330 1.489 . S
C330 C329 1.489 . S
C330 C331 1.383 . S
C330 C335 1.382 . S
C331 H302 0.950 . S
C331 C330 1.383 . S
C331 C332 1.395 . S
C332 H303 0.950 . S
C332 C331 1.395 . S
C332 C333 1.288 . S
C333 C332 1.288 . S
C333 C334 1.392 . S
C334 H304 0.951 . S
C334 C333 1.392 . S
C334 C335 1.392 . S
C335 H305 0.949 . S
C335 C330 1.382 . S
C335 C334 1.392 . S
H336 C355 0.949 . S
H337 C356 0.950 . S
H338 C358 0.950 . S
H339 C359 0.950 . S
H340 C361 0.950 . S
H341 C364 0.950 1_455 S
H342 C365 0.950 . S
H343 C367 0.951 . S
H344 C368 0.949 . S
H345 C370 0.949 . S
H346 C371 0.950 . S
H347 C373 0.950 . S
H348 C374 0.950 . S
H349 C376 0.950 . S
H350 C379 0.950 . S
H351 C380 0.950 . S
H352 C382 0.951 . S
H353 C383 0.949 . S
C354 C355 1.376 1_655 S
C354 C359 1.386 . S
C354 C360 1.483 1_655 S
C355 H336 0.949 . S
C355 C354 1.376 1_455 S
C355 C356 1.397 1_455 S
C356 H337 0.950 . S
C356 C355 1.397 1_655 S
C356 C357 1.391 . S
C357 C356 1.391 . S
C357 C358 1.405 . S
C358 H338 0.950 . S
C358 C357 1.405 . S
C358 C359 1.367 . S
C359 H339 0.950 . S
C359 C354 1.386 . S
C359 C358 1.367 . S
C360 C354 1.483 1_455 S
C360 C361 1.382 . S
C360 C362 1.403 . S
C361 H340 0.950 . S
C361 C360 1.382 . S
C361 C377 1.411 . S
C362 C360 1.403 . S
C362 C363 1.489 1_455 S
C362 C376 1.411 . S
C363 C362 1.489 1_655 S
C363 C364 1.383 . S
C363 C368 1.382 . S
C364 H341 0.950 1_655 S
C364 C363 1.383 . S
C364 C365 1.395 . S
C365 H342 0.950 . S
C365 C364 1.395 . S
C365 C366 1.288 . S
C366 C365 1.288 . S
C366 C367 1.392 . S
C367 H343 0.951 . S
C367 C366 1.392 . S
C367 C368 1.392 . S
C368 H344 0.949 . S
C368 C363 1.382 . S
C368 C367 1.392 . S
C369 C370 1.376 . S
C369 C374 1.386 . S
C369 C375 1.483 1_565 S
C370 H345 0.949 . S
C370 C369 1.376 . S
C370 C371 1.397 . S
C371 H346 0.950 . S
C371 C370 1.397 . S
C371 C372 1.391 . S
C372 C371 1.391 . S
C372 C373 1.405 . S
C373 H347 0.950 . S
C373 C372 1.405 . S
C373 C374 1.367 . S
C374 H348 0.950 . S
C374 C369 1.386 . S
C374 C373 1.367 . S
C375 C369 1.483 1_545 S
C375 C376 1.382 . S
C375 C377 1.403 . S
C376 H349 0.950 . S
C376 C362 1.411 . S
C376 C375 1.382 . S
C377 C361 1.411 . S
C377 C375 1.403 . S
C377 C378 1.489 1_545 S
C378 C377 1.489 1_565 S
C378 C379 1.383 . S
C378 C383 1.382 1_565 S
C379 H350 0.950 . S
C379 C378 1.383 . S
C379 C380 1.395 . S
C380 H351 0.950 . S
C380 C379 1.395 . S
C380 C381 1.288 . S
C381 C380 1.288 . S
C381 C382 1.392 . S
C382 H352 0.951 . S
C382 C381 1.392 . S
C382 C383 1.392 1_565 S
C383 H353 0.949 . S
C383 C378 1.382 1_545 S
C383 C382 1.392 1_545 S
C384 O385 1.306 . S
C384 O387 1.160 . S
O385 C384 1.306 . S
O385 Cd386 2.228 . S
Cd386 O385 2.228 . S
Cd386 O390 2.273 1_554 S
Cd386 O394 2.277 . S
O387 C384 1.160 . S
O387 Cd388 2.203 . S
Cd388 O387 2.203 . S
Cd388 O390 2.411 1_554 S
Cd388 O391 2.333 1_554 S
Cd388 O392 2.352 . S
Cd388 O396 2.277 . S
Cd388 O397 2.345 1_554 S
C389 O394 1.209 . S
C389 O396 1.226 . S
O390 Cd386 2.273 1_556 S
O390 Cd388 2.411 1_556 S
O390 C393 1.320 . S
O391 Cd388 2.333 1_556 S
O391 C393 1.214 . S
O392 Cd388 2.352 . S
O392 C395 1.257 1_554 S
C393 O390 1.320 . S
C393 O391 1.214 . S
O394 Cd386 2.277 . S
O394 C389 1.209 . S
C395 O392 1.257 1_556 S
C395 O397 1.281 . S
O396 Cd388 2.277 . S
O396 C389 1.226 . S
O397 Cd388 2.345 1_556 S
O397 C395 1.281 . S
C398 O399 1.306 . S
C398 O401 1.160 . S
O399 C398 1.306 . S
O399 Cd400 2.228 . S
Cd400 O399 2.228 . S
Cd400 O404 2.273 . S
Cd400 O408 2.277 . S
O401 C398 1.160 . S
O401 Cd402 2.203 . S
Cd402 O401 2.203 . S
Cd402 O404 2.411 . S
Cd402 O405 2.333 . S
Cd402 O406 2.352 . S
Cd402 O410 2.277 . S
Cd402 O411 2.356 . S
C403 O408 1.209 . S
C403 O410 1.226 . S
O404 Cd400 2.273 . S
O404 Cd402 2.411 . S
O404 C407 1.320 . S
O405 Cd402 2.333 . S
O405 C407 1.214 . S
O406 Cd402 2.352 . S
O406 C409 1.258 . S
C407 O404 1.320 . S
C407 O405 1.214 . S
O408 Cd400 2.277 . S
O408 C403 1.209 . S
C409 O406 1.258 . S
C409 O411 1.282 . S
O410 Cd402 2.277 . S
O410 C403 1.226 . S
O411 Cd402 2.356 . S
O411 C409 1.282 . S
C412 O413 1.306 . S
C412 O415 1.160 . S
O413 C412 1.306 . S
O413 Cd414 2.228 . S
Cd414 O413 2.228 . S
Cd414 O418 2.273 . S
Cd414 O422 2.277 . S
O415 C412 1.160 . S
O415 Cd416 2.203 . S
Cd416 O415 2.203 . S
Cd416 O418 2.411 . S
Cd416 O419 2.333 . S
Cd416 O420 2.352 . S
Cd416 O424 2.277 . S
Cd416 O425 2.356 . S
C417 O422 1.209 . S
C417 O424 1.226 . S
O418 Cd414 2.273 . S
O418 Cd416 2.411 . S
O418 C421 1.320 . S
O419 Cd416 2.333 . S
O419 C421 1.214 . S
O420 Cd416 2.352 . S
O420 C423 1.258 . S
C421 O418 1.320 . S
C421 O419 1.214 . S
O422 Cd414 2.277 . S
O422 C417 1.209 . S
C423 O420 1.258 . S
C423 O425 1.282 . S
O424 Cd416 2.277 . S
O424 C417 1.226 . S
O425 Cd416 2.356 . S
O425 C423 1.282 . S
C426 O427 1.306 . S
C426 O429 1.160 . S
O427 C426 1.306 . S
O427 Cd428 2.228 . S
Cd428 O427 2.228 . S
Cd428 O432 2.273 . S
Cd428 O436 2.277 . S
O429 C426 1.160 . S
O429 Cd430 2.203 . S
Cd430 O429 2.203 . S
Cd430 O432 2.411 . S
Cd430 O433 2.333 . S
Cd430 O434 2.352 . S
Cd430 O438 2.277 . S
Cd430 O439 2.356 . S
C431 O436 1.209 . S
C431 O438 1.226 . S
O432 Cd428 2.273 . S
O432 Cd430 2.411 . S
O432 C435 1.320 . S
O433 Cd430 2.333 . S
O433 C435 1.214 . S
O434 Cd430 2.352 . S
O434 C437 1.258 . S
C435 O432 1.320 . S
C435 O433 1.214 . S
O436 Cd428 2.277 . S
O436 C431 1.209 . S
C437 O434 1.258 . S
C437 O439 1.282 . S
O438 Cd430 2.277 . S
O438 C431 1.226 . S
O439 Cd430 2.356 . S
O439 C437 1.282 . S
C440 O441 1.306 . S
C440 O443 1.160 . S
O441 C440 1.306 . S
O441 Cd442 2.228 . S
Cd442 O441 2.228 . S
Cd442 O446 2.273 . S
Cd442 O450 2.277 . S
O443 C440 1.160 . S
O443 Cd444 2.203 . S
Cd444 O443 2.203 . S
Cd444 O446 2.411 . S
Cd444 O447 2.333 . S
Cd444 O448 2.352 . S
Cd444 O452 2.277 . S
Cd444 O453 2.356 . S
C445 O450 1.209 . S
C445 O452 1.226 . S
O446 Cd442 2.273 . S
O446 Cd444 2.411 . S
O446 C449 1.320 . S
O447 Cd444 2.333 . S
O447 C449 1.214 . S
O448 Cd444 2.352 . S
O448 C451 1.258 . S
C449 O446 1.320 . S
C449 O447 1.214 . S
O450 Cd442 2.277 . S
O450 C445 1.209 . S
C451 O448 1.258 . S
C451 O453 1.282 . S
O452 Cd444 2.277 . S
O452 C445 1.226 . S
O453 Cd444 2.356 . S
O453 C451 1.282 . S
C454 O455 1.306 . S
C454 O457 1.160 . S
O455 C454 1.306 . S
O455 Cd456 2.228 . S
Cd456 O455 2.228 . S
Cd456 O460 2.273 . S
Cd456 O464 2.277 . S
O457 C454 1.160 . S
O457 Cd458 2.203 . S
Cd458 O457 2.203 . S
Cd458 O460 2.411 . S
Cd458 O461 2.333 . S
Cd458 O462 2.352 . S
Cd458 O466 2.277 . S
Cd458 O467 2.356 . S
C459 O464 1.209 . S
C459 O466 1.226 . S
O460 Cd456 2.273 . S
O460 Cd458 2.411 . S
O460 C463 1.320 . S
O461 Cd458 2.333 . S
O461 C463 1.214 . S
O462 Cd458 2.352 . S
O462 C465 1.258 . S
C463 O460 1.320 . S
C463 O461 1.214 . S
O464 Cd456 2.277 . S
O464 C459 1.209 . S
C465 O462 1.258 . S
C465 O467 1.282 . S
O466 Cd458 2.277 . S
O466 C459 1.226 . S
O467 Cd458 2.356 . S
O467 C465 1.282 . S
C468 O469 1.306 . S
C468 O471 1.160 . S
O469 C468 1.306 . S
O469 Cd470 2.260 . S
Cd470 O469 2.260 . S
Cd470 O474 2.247 1_556 S
Cd470 O478 2.281 . S
O471 C468 1.160 . S
O471 Cd472 2.203 1_556 S
Cd472 O471 2.203 1_554 S
Cd472 O474 2.411 . S
Cd472 O475 2.333 . S
Cd472 O476 2.352 . S
Cd472 O480 2.277 1_554 S
Cd472 O481 2.356 . S
C473 O478 1.209 . S
C473 O480 1.226 . S
O474 Cd470 2.247 1_554 S
O474 Cd472 2.411 . S
O474 C477 1.320 . S
O475 Cd472 2.333 . S
O475 C477 1.214 . S
O476 Cd472 2.352 . S
O476 C479 1.258 . S
C477 O474 1.320 . S
C477 O475 1.214 . S
O478 Cd470 2.281 . S
O478 C473 1.209 . S
C479 O476 1.258 . S
C479 O481 1.282 . S
O480 Cd472 2.277 1_556 S
O480 C473 1.226 . S
O481 Cd472 2.356 . S
O481 C479 1.282 . S
C482 O483 1.306 . S
C482 O485 1.160 . S
O483 C482 1.306 . S
O483 Cd484 2.228 . S
Cd484 O483 2.228 . S
Cd484 O488 2.273 . S
Cd484 O492 2.277 . S
O485 C482 1.160 . S
O485 Cd486 2.203 . S
Cd486 O485 2.203 . S
Cd486 O488 2.411 . S
Cd486 O489 2.333 . S
Cd486 O490 2.352 . S
Cd486 O494 2.277 . S
Cd486 O495 2.356 . S
C487 O492 1.209 . S
C487 O494 1.226 . S
O488 Cd484 2.273 . S
O488 Cd486 2.411 . S
O488 C491 1.320 . S
O489 Cd486 2.333 . S
O489 C491 1.214 . S
O490 Cd486 2.352 . S
O490 C493 1.258 . S
C491 O488 1.320 . S
C491 O489 1.214 . S
O492 Cd484 2.277 . S
O492 C487 1.209 . S
C493 O490 1.258 . S
C493 O495 1.282 . S
O494 Cd486 2.277 . S
O494 C487 1.226 . S
O495 Cd486 2.356 . S
O495 C493 1.282 . S
H496 C504 0.950 . S
H497 C509 0.950 . S
H498 C506 0.950 . S
H499 C508 0.950 . S
H500 C510 0.950 . S
H501 C512 0.950 . S
H502 C514 0.950 . S
H503 C515 0.950 . S
C504 H496 0.950 . S
C504 C505 1.386 . S
C504 C506 1.391 . S
C505 C504 1.386 . S
C505 C509 1.393 . S
C506 H498 0.950 . S
C506 C504 1.391 . S
C506 C507 1.400 . S
C507 C506 1.400 . S
C507 C508 1.398 . S
C507 C513 1.491 . S
C508 H499 0.950 . S
C508 C507 1.398 . S
C508 C509 1.391 . S
C509 H497 0.950 . S
C509 C505 1.393 . S
C509 C508 1.391 . S
C510 H500 0.950 . S
C510 C511 1.386 . S
C510 C512 1.391 . S
C511 C510 1.386 . S
C511 C515 1.393 . S
C512 H501 0.950 . S
C512 C510 1.391 . S
C512 C513 1.400 . S
C513 C507 1.491 . S
C513 C512 1.400 . S
C513 C514 1.398 . S
C514 H502 0.950 . S
C514 C513 1.398 . S
C514 C515 1.391 . S
C515 H503 0.950 . S
C515 C511 1.393 . S
C515 C514 1.391 . S
H516 C524 0.950 . S
H517 C529 0.950 . S
H518 C526 0.950 . S
H519 C528 0.950 . S
H520 C530 0.950 . S
H521 C532 0.950 . S
H522 C534 0.950 . S
H523 C535 0.950 . S
C524 H516 0.950 . S
C524 C525 1.386 . S
C524 C526 1.391 . S
C525 C524 1.386 . S
C525 C529 1.393 . S
C526 H518 0.950 . S
C526 C524 1.391 . S
C526 C527 1.400 . S
C527 C526 1.400 . S
C527 C528 1.398 . S
C527 C533 1.491 . S
C528 H519 0.950 . S
C528 C527 1.398 . S
C528 C529 1.391 . S
C529 H517 0.950 . S
C529 C525 1.393 . S
C529 C528 1.391 . S
C530 H520 0.950 . S
C530 C531 1.386 . S
C530 C532 1.391 . S
C531 C530 1.386 . S
C531 C535 1.393 . S
C532 H521 0.950 . S
C532 C530 1.391 . S
C532 C533 1.400 . S
C533 C527 1.491 . S
C533 C532 1.400 . S
C533 C534 1.398 . S
C534 H522 0.950 . S
C534 C533 1.398 . S
C534 C535 1.391 . S
C535 H523 0.950 . S
C535 C531 1.393 . S
C535 C534 1.391 . S
H536 C544 0.950 . S
H537 C549 0.950 . S
H538 C546 0.950 . S
H539 C548 0.950 . S
H540 C550 0.950 . S
H541 C552 0.950 . S
H542 C554 0.950 . S
H543 C555 0.950 . S
C544 H536 0.950 . S
C544 C545 1.386 . S
C544 C546 1.391 . S
C545 C544 1.386 . S
C545 C549 1.393 . S
C546 H538 0.950 . S
C546 C544 1.391 . S
C546 C547 1.400 . S
C547 C546 1.400 . S
C547 C548 1.398 . S
C547 C553 1.491 . S
C548 H539 0.950 . S
C548 C547 1.398 . S
C548 C549 1.391 . S
C549 H537 0.950 . S
C549 C545 1.393 . S
C549 C548 1.391 . S
C550 H540 0.950 . S
C550 C551 1.386 . S
C550 C552 1.391 . S
C551 C550 1.386 . S
C551 C555 1.393 . S
C552 H541 0.950 . S
C552 C550 1.391 . S
C552 C553 1.400 . S
C553 C547 1.491 . S
C553 C552 1.400 . S
C553 C554 1.398 . S
C554 H542 0.950 . S
C554 C553 1.398 . S
C554 C555 1.391 . S
C555 H543 0.950 . S
C555 C551 1.393 . S
C555 C554 1.391 . S
H556 C564 0.950 . S
H557 C569 0.950 . S
H558 C566 0.950 . S
H559 C568 0.950 . S
H560 C570 0.950 . S
H561 C572 0.950 . S
H562 C574 0.950 . S
H563 C575 0.950 . S
C564 H556 0.950 . S
C564 C565 1.386 . S
C564 C566 1.391 . S
C565 C564 1.386 . S
C565 C569 1.393 . S
C566 H558 0.950 . S
C566 C564 1.391 . S
C566 C567 1.400 . S
C567 C566 1.400 . S
C567 C568 1.398 . S
C567 C573 1.491 . S
C568 H559 0.950 . S
C568 C567 1.398 . S
C568 C569 1.391 . S
C569 H557 0.950 . S
C569 C565 1.393 . S
C569 C568 1.391 . S
C570 H560 0.950 . S
C570 C571 1.386 . S
C570 C572 1.391 . S
C571 C570 1.386 . S
C571 C575 1.393 . S
C572 H561 0.950 . S
C572 C570 1.391 . S
C572 C573 1.400 . S
C573 C567 1.491 . S
C573 C572 1.400 . S
C573 C574 1.398 . S
C574 H562 0.950 . S
C574 C573 1.398 . S
C574 C575 1.391 . S
C575 H563 0.950 . S
C575 C571 1.393 . S
C575 C574 1.391 . S
H576 C584 0.950 . S
H577 C589 0.950 . S
H578 C586 0.950 . S
H579 C588 0.950 . S
H580 C590 0.950 . S
H581 C592 0.950 1_554 S
H582 C594 0.950 . S
H583 C595 0.950 . S
C584 H576 0.950 . S
C584 C585 1.386 . S
C584 C586 1.391 . S
C585 C584 1.386 . S
C585 C589 1.393 . S
C586 H578 0.950 . S
C586 C584 1.391 . S
C586 C587 1.400 . S
C587 C586 1.400 . S
C587 C588 1.398 . S
C587 C593 1.491 . S
C588 H579 0.950 . S
C588 C587 1.398 . S
C588 C589 1.391 . S
C589 H577 0.950 . S
C589 C585 1.393 . S
C589 C588 1.391 . S
C590 H580 0.950 . S
C590 C591 1.386 1_554 S
C590 C592 1.391 1_554 S
C591 C590 1.386 1_556 S
C591 C595 1.393 . S
C592 H581 0.950 1_556 S
C592 C590 1.391 1_556 S
C592 C593 1.400 . S
C593 C587 1.491 . S
C593 C592 1.400 . S
C593 C594 1.398 . S
C594 H582 0.950 . S
C594 C593 1.398 . S
C594 C595 1.391 . S
C595 H583 0.950 . S
C595 C591 1.393 . S
C595 C594 1.391 . S
H596 C604 0.950 . S
H597 C609 0.950 . S
H598 C606 0.950 . S
H599 C608 0.950 . S
H600 C610 0.950 . S
H601 C612 0.950 . S
H602 C614 0.950 . S
H603 C615 0.950 . S
C604 H596 0.950 . S
C604 C605 1.386 . S
C604 C606 1.391 . S
C605 C604 1.386 . S
C605 C609 1.393 . S
C606 H598 0.950 . S
C606 C604 1.391 . S
C606 C607 1.400 . S
C607 C606 1.400 . S
C607 C608 1.398 . S
C607 C613 1.491 . S
C608 H599 0.950 . S
C608 C607 1.398 . S
C608 C609 1.391 . S
C609 H597 0.950 . S
C609 C605 1.393 . S
C609 C608 1.391 . S
C610 H600 0.950 . S
C610 C611 1.386 . S
C610 C612 1.391 . S
C611 C610 1.386 . S
C611 C615 1.393 . S
C612 H601 0.950 . S
C612 C610 1.391 . S
C612 C613 1.400 . S
C613 C607 1.491 . S
C613 C612 1.400 . S
C613 C614 1.398 . S
C614 H602 0.950 . S
C614 C613 1.398 . S
C614 C615 1.391 . S
C615 H603 0.950 . S
C615 C611 1.393 . S
C615 C614 1.391 . S
H616 C624 0.950 . S
H617 C629 0.950 . S
H618 C626 0.950 . S
H619 C628 0.950 . S
H620 C630 0.950 . S
H621 C632 0.950 . S
H622 C634 0.950 . S
H623 C635 0.950 . S
C624 H616 0.950 . S
C624 C625 1.386 . S
C624 C626 1.391 . S
C625 C624 1.386 . S
C625 C629 1.393 . S
C626 H618 0.950 . S
C626 C624 1.391 . S
C626 C627 1.400 . S
C627 C626 1.400 . S
C627 C628 1.398 . S
C627 C633 1.491 . S
C628 H619 0.950 . S
C628 C627 1.398 . S
C628 C629 1.391 . S
C629 H617 0.950 . S
C629 C625 1.393 . S
C629 C628 1.391 . S
C630 H620 0.950 . S
C630 C631 1.386 . S
C630 C632 1.391 . S
C631 C630 1.386 . S
C631 C635 1.393 . S
C632 H621 0.950 . S
C632 C630 1.391 . S
C632 C633 1.400 . S
C633 C627 1.491 . S
C633 C632 1.400 . S
C633 C634 1.398 . S
C634 H622 0.950 . S
C634 C633 1.398 . S
C634 C635 1.391 . S
C635 H623 0.950 . S
C635 C631 1.393 . S
C635 C634 1.391 . S
H636 C644 0.950 . S
H637 C649 0.950 . S
H638 C646 0.950 . S
H639 C648 0.950 . S
H640 C650 0.950 . S
H641 C652 0.950 . S
H642 C654 0.950 . S
H643 C655 0.950 . S
C644 H636 0.950 . S
C644 C645 1.386 . S
C644 C646 1.391 . S
C645 C644 1.386 . S
C645 C649 1.393 . S
C646 H638 0.950 . S
C646 C644 1.391 . S
C646 C647 1.400 . S
C647 C646 1.400 . S
C647 C648 1.398 . S
C647 C653 1.491 . S
C648 H639 0.950 . S
C648 C647 1.398 . S
C648 C649 1.391 . S
C649 H637 0.950 . S
C649 C645 1.393 . S
C649 C648 1.391 . S
C650 H640 0.950 . S
C650 C651 1.386 . S
C650 C652 1.391 . S
C651 C650 1.386 . S
C651 C655 1.393 . S
C652 H641 0.950 . S
C652 C650 1.391 . S
C652 C653 1.400 . S
C653 C647 1.491 . S
C653 C652 1.400 . S
C653 C654 1.398 . S
C654 H642 0.950 . S
C654 C653 1.398 . S
C654 C655 1.391 . S
C655 H643 0.950 . S
C655 C651 1.393 . S
C655 C654 1.391 . S
H656 C664 0.950 . S
H657 C669 0.950 . S
H658 C666 0.950 . S
H659 C668 0.950 . S
H660 C670 0.950 . S
H661 C672 0.950 . S
H662 C674 0.950 . S
H663 C675 0.950 . S
C664 H656 0.950 . S
C664 C665 1.386 . S
C664 C666 1.391 . S
C665 C664 1.386 . S
C665 C669 1.393 . S
C666 H658 0.950 . S
C666 C664 1.391 . S
C666 C667 1.400 . S
C667 C666 1.400 . S
C667 C668 1.398 . S
C667 C673 1.491 . S
C668 H659 0.950 . S
C668 C667 1.398 . S
C668 C669 1.391 . S
C669 H657 0.950 . S
C669 C665 1.393 . S
C669 C668 1.391 . S
C670 H660 0.950 . S
C670 C671 1.386 . S
C670 C672 1.391 . S
C671 C670 1.386 . S
C671 C675 1.393 . S
C672 H661 0.950 . S
C672 C670 1.391 . S
C672 C673 1.400 . S
C673 C667 1.491 . S
C673 C672 1.400 . S
C673 C674 1.398 . S
C674 H662 0.950 . S
C674 C673 1.398 . S
C674 C675 1.391 . S
C675 H663 0.950 . S
C675 C671 1.393 . S
C675 C674 1.391 . S
H676 C684 0.950 . S
H677 C689 0.950 . S
H678 C686 0.950 . S
H679 C688 0.950 . S
H680 C690 0.950 . S
H681 C692 0.950 . S
H682 C694 0.950 . S
H683 C695 0.950 . S
C684 H676 0.950 . S
C684 C685 1.386 . S
C684 C686 1.391 . S
C685 C684 1.386 . S
C685 C689 1.393 . S
C686 H678 0.950 . S
C686 C684 1.391 . S
C686 C687 1.400 . S
C687 C686 1.400 . S
C687 C688 1.398 . S
C687 C693 1.491 . S
C688 H679 0.950 . S
C688 C687 1.398 . S
C688 C689 1.391 . S
C689 H677 0.950 . S
C689 C685 1.393 . S
C689 C688 1.391 . S
C690 H680 0.950 . S
C690 C691 1.386 . S
C690 C692 1.391 . S
C691 C690 1.386 . S
C691 C695 1.393 . S
C692 H681 0.950 . S
C692 C690 1.391 . S
C692 C693 1.400 . S
C693 C687 1.491 . S
C693 C692 1.400 . S
C693 C694 1.398 . S
C694 H682 0.950 . S
C694 C693 1.398 . S
C694 C695 1.391 . S
C695 H683 0.950 . S
C695 C691 1.393 . S
C695 C694 1.391 . S
H696 C704 0.950 . S
H697 C709 0.950 . S
H698 C706 0.950 . S
H699 C708 0.950 . S
H700 C710 0.950 . S
H701 C712 0.950 . S
H702 C714 0.950 . S
H703 C715 0.950 . S
C704 H696 0.950 . S
C704 C705 1.386 . S
C704 C706 1.391 . S
C705 C704 1.386 . S
C705 C709 1.393 . S
C706 H698 0.950 . S
C706 C704 1.391 . S
C706 C707 1.400 . S
C707 C706 1.400 . S
C707 C708 1.398 . S
C707 C713 1.491 . S
C708 H699 0.950 . S
C708 C707 1.398 . S
C708 C709 1.391 . S
C709 H697 0.950 . S
C709 C705 1.393 . S
C709 C708 1.391 . S
C710 H700 0.950 . S
C710 C711 1.386 . S
C710 C712 1.391 . S
C711 C710 1.386 . S
C711 C715 1.393 . S
C712 H701 0.950 . S
C712 C710 1.391 . S
C712 C713 1.400 . S
C713 C707 1.491 . S
C713 C712 1.400 . S
C713 C714 1.398 . S
C714 H702 0.950 . S
C714 C713 1.398 . S
C714 C715 1.391 . S
C715 H703 0.950 . S
C715 C711 1.393 . S
C715 C714 1.391 . S
H716 C724 0.950 . S
H717 C729 0.950 . S
H718 C726 0.950 . S
H719 C728 0.950 . S
H720 C730 0.950 . S
H721 C732 0.950 . S
H722 C734 0.950 . S
H723 C735 0.950 . S
C724 H716 0.950 . S
C724 C725 1.386 . S
C724 C726 1.391 . S
C725 C724 1.386 . S
C725 C729 1.393 . S
C726 H718 0.950 . S
C726 C724 1.391 . S
C726 C727 1.400 . S
C727 C726 1.400 . S
C727 C728 1.398 . S
C727 C733 1.491 . S
C728 H719 0.950 . S
C728 C727 1.398 . S
C728 C729 1.391 . S
C729 H717 0.950 . S
C729 C725 1.393 . S
C729 C728 1.391 . S
C730 H720 0.950 . S
C730 C731 1.386 . S
C730 C732 1.391 . S
C731 C730 1.386 . S
C731 C735 1.393 . S
C732 H721 0.950 . S
C732 C730 1.391 . S
C732 C733 1.400 . S
C733 C727 1.491 . S
C733 C732 1.400 . S
C733 C734 1.398 . S
C734 H722 0.950 . S
C734 C733 1.398 . S
C734 C735 1.391 . S
C735 H723 0.950 . S
C735 C731 1.393 . S
C735 C734 1.391 . S
H736 C744 0.950 . S
H737 C749 0.950 . S
H738 C746 0.950 . S
H739 C748 0.950 . S
H740 C750 0.950 . S
H741 C752 0.950 . S
H742 C754 0.950 . S
H743 C755 0.950 . S
C744 H736 0.950 . S
C744 C745 1.386 . S
C744 C746 1.391 . S
C745 C744 1.386 . S
C745 C749 1.393 . S
C746 H738 0.950 . S
C746 C744 1.391 . S
C746 C747 1.400 . S
C747 C746 1.400 . S
C747 C748 1.398 . S
C747 C753 1.491 . S
C748 H739 0.950 . S
C748 C747 1.398 . S
C748 C749 1.391 . S
C749 H737 0.950 . S
C749 C745 1.393 . S
C749 C748 1.391 . S
C750 H740 0.950 . S
C750 C751 1.386 . S
C750 C752 1.391 . S
C751 C750 1.386 . S
C751 C755 1.393 . S
C752 H741 0.950 . S
C752 C750 1.391 . S
C752 C753 1.400 . S
C753 C747 1.491 . S
C753 C752 1.400 . S
C753 C754 1.398 . S
C754 H742 0.950 . S
C754 C753 1.398 . S
C754 C755 1.391 . S
C755 H743 0.950 . S
C755 C751 1.393 . S
C755 C754 1.391 . S
H756 C764 0.950 . S
H757 C769 0.950 . S
H758 C766 0.950 . S
H759 C768 0.950 . S
H760 C770 0.950 . S
H761 C772 0.950 . S
H762 C774 0.950 . S
H763 C775 0.950 . S
C764 H756 0.950 . S
C764 C765 1.386 . S
C764 C766 1.391 . S
C765 C764 1.386 . S
C765 C769 1.393 . S
C766 H758 0.950 . S
C766 C764 1.391 . S
C766 C767 1.400 . S
C767 C766 1.400 . S
C767 C768 1.398 . S
C767 C773 1.491 . S
C768 H759 0.950 . S
C768 C767 1.398 . S
C768 C769 1.391 . S
C769 H757 0.950 . S
C769 C765 1.393 . S
C769 C768 1.391 . S
C770 H760 0.950 . S
C770 C771 1.386 . S
C770 C772 1.391 . S
C771 C770 1.386 . S
C771 C775 1.393 . S
C772 H761 0.950 . S
C772 C770 1.391 . S
C772 C773 1.400 . S
C773 C767 1.491 . S
C773 C772 1.400 . S
C773 C774 1.398 . S
C774 H762 0.950 . S
C774 C773 1.398 . S
C774 C775 1.391 . S
C775 H763 0.950 . S
C775 C771 1.393 . S
C775 C774 1.391 . S
H776 C784 0.950 . S
H777 C789 0.950 . S
H778 C786 0.950 . S
H779 C788 0.950 . S
H780 C790 0.950 . S
H781 C792 0.950 . S
H782 C794 0.950 . S
H783 C795 0.950 . S
C784 H776 0.950 . S
C784 C785 1.386 . S
C784 C786 1.391 . S
C785 C784 1.386 . S
C785 C789 1.393 . S
C786 H778 0.950 . S
C786 C784 1.391 . S
C786 C787 1.400 . S
C787 C786 1.400 . S
C787 C788 1.398 . S
C787 C793 1.491 . S
C788 H779 0.950 . S
C788 C787 1.398 . S
C788 C789 1.391 . S
C789 H777 0.950 . S
C789 C785 1.393 . S
C789 C788 1.391 . S
C790 H780 0.950 . S
C790 C791 1.386 . S
C790 C792 1.391 . S
C791 C790 1.386 . S
C791 C795 1.393 . S
C792 H781 0.950 . S
C792 C790 1.391 . S
C792 C793 1.400 . S
C793 C787 1.491 . S
C793 C792 1.400 . S
C793 C794 1.398 . S
C794 H782 0.950 . S
C794 C793 1.398 . S
C794 C795 1.391 . S
C795 H783 0.950 . S
C795 C791 1.393 . S
C795 C794 1.391 . S
H796 C804 0.950 . S
H797 C809 0.950 . S
H798 C806 0.950 . S
H799 C808 0.950 . S
H800 C810 0.950 . S
H801 C812 0.950 . S
H802 C814 0.950 . S
H803 C815 0.950 . S
C804 H796 0.950 . S
C804 C805 1.386 . S
C804 C806 1.391 . S
C805 C804 1.386 . S
C805 C809 1.393 . S
C806 H798 0.950 . S
C806 C804 1.391 . S
C806 C807 1.400 . S
C807 C806 1.400 . S
C807 C808 1.398 . S
C807 C813 1.491 . S
C808 H799 0.950 . S
C808 C807 1.398 . S
C808 C809 1.391 . S
C809 H797 0.950 . S
C809 C805 1.393 . S
C809 C808 1.391 . S
C810 H800 0.950 . S
C810 C811 1.386 . S
C810 C812 1.391 . S
C811 C810 1.386 . S
C811 C815 1.393 . S
C812 H801 0.950 . S
C812 C810 1.391 . S
C812 C813 1.400 . S
C813 C807 1.491 . S
C813 C812 1.400 . S
C813 C814 1.398 . S
C814 H802 0.950 . S
C814 C813 1.398 . S
C814 C815 1.391 . S
C815 H803 0.950 . S
C815 C811 1.393 . S
C815 C814 1.391 . S
H816 C824 0.950 . S
H817 C829 0.950 . S
H818 C826 0.950 . S
H819 C828 0.950 . S
H820 C830 0.950 . S
H821 C832 0.950 . S
H822 C834 0.950 . S
H823 C835 0.950 . S
C824 H816 0.950 . S
C824 C825 1.386 . S
C824 C826 1.391 . S
C825 C824 1.386 . S
C825 C829 1.393 . S
C826 H818 0.950 . S
C826 C824 1.391 . S
C826 C827 1.400 . S
C827 C826 1.400 . S
C827 C828 1.398 . S
C827 C833 1.491 . S
C828 H819 0.950 . S
C828 C827 1.398 . S
C828 C829 1.391 . S
C829 H817 0.950 . S
C829 C825 1.393 . S
C829 C828 1.391 . S
C830 H820 0.950 . S
C830 C831 1.386 . S
C830 C832 1.391 . S
C831 C830 1.386 . S
C831 C835 1.393 . S
C832 H821 0.950 . S
C832 C830 1.391 . S
C832 C833 1.400 . S
C833 C827 1.491 . S
C833 C832 1.400 . S
C833 C834 1.398 . S
C834 H822 0.950 . S
C834 C833 1.398 . S
C834 C835 1.391 . S
C835 H823 0.950 . S
C835 C831 1.393 . S
C835 C834 1.391 . S
H836 C844 0.950 . S
H837 C849 0.950 . S
H838 C846 0.950 . S
H839 C848 0.950 . S
H840 C850 0.950 . S
H841 C852 0.950 . S
H842 C854 0.950 . S
H843 C855 0.950 . S
C844 H836 0.950 . S
C844 C845 1.386 . S
C844 C846 1.391 . S
C845 C844 1.386 . S
C845 C849 1.393 . S
C846 H838 0.950 . S
C846 C844 1.391 . S
C846 C847 1.400 . S
C847 C846 1.400 . S
C847 C848 1.398 . S
C847 C853 1.491 . S
C848 H839 0.950 . S
C848 C847 1.398 . S
C848 C849 1.391 . S
C849 H837 0.950 . S
C849 C845 1.393 . S
C849 C848 1.391 . S
C850 H840 0.950 . S
C850 C851 1.386 . S
C850 C852 1.391 . S
C851 C850 1.386 . S
C851 C855 1.393 . S
C852 H841 0.950 . S
C852 C850 1.391 . S
C852 C853 1.400 . S
C853 C847 1.491 . S
C853 C852 1.400 . S
C853 C854 1.398 . S
C854 H842 0.950 . S
C854 C853 1.398 . S
C854 C855 1.391 . S
C855 H843 0.950 . S
C855 C851 1.393 . S
C855 C854 1.391 . S
H856 C864 0.950 . S
H857 C869 0.950 . S
H858 C866 0.950 . S
H859 C868 0.950 . S
H860 C870 0.950 . S
H861 C872 0.950 . S
H862 C874 0.950 . S
H863 C875 0.950 . S
C864 H856 0.950 . S
C864 C865 1.386 . S
C864 C866 1.391 . S
C865 C864 1.386 . S
C865 C869 1.393 . S
C866 H858 0.950 . S
C866 C864 1.391 . S
C866 C867 1.400 . S
C867 C866 1.400 . S
C867 C868 1.398 . S
C867 C873 1.491 . S
C868 H859 0.950 . S
C868 C867 1.398 . S
C868 C869 1.391 . S
C869 H857 0.950 . S
C869 C865 1.393 . S
C869 C868 1.391 . S
C870 H860 0.950 . S
C870 C871 1.386 . S
C870 C872 1.391 . S
C871 C870 1.386 . S
C871 C875 1.393 . S
C872 H861 0.950 . S
C872 C870 1.391 . S
C872 C873 1.400 . S
C873 C867 1.491 . S
C873 C872 1.400 . S
C873 C874 1.398 . S
C874 H862 0.950 . S
C874 C873 1.398 . S
C874 C875 1.391 . S
C875 H863 0.950 . S
C875 C871 1.393 . S
C875 C874 1.391 . S
H876 C884 0.950 . S
H877 C889 0.950 . S
H878 C886 0.950 . S
H879 C888 0.950 . S
H880 C890 0.950 . S
H881 C892 0.950 . S
H882 C894 0.950 . S
H883 C895 0.950 . S
C884 H876 0.950 . S
C884 C885 1.386 . S
C884 C886 1.391 . S
C885 C884 1.386 . S
C885 C889 1.393 . S
C886 H878 0.950 . S
C886 C884 1.391 . S
C886 C887 1.400 . S
C887 C886 1.400 . S
C887 C888 1.398 . S
C887 C893 1.491 . S
C888 H879 0.950 . S
C888 C887 1.398 . S
C888 C889 1.391 . S
C889 H877 0.950 . S
C889 C885 1.393 . S
C889 C888 1.391 . S
C890 H880 0.950 . S
C890 C891 1.386 . S
C890 C892 1.391 . S
C891 C890 1.386 . S
C891 C895 1.393 . S
C892 H881 0.950 . S
C892 C890 1.391 . S
C892 C893 1.400 . S
C893 C887 1.491 . S
C893 C892 1.400 . S
C893 C894 1.398 . S
C894 H882 0.950 . S
C894 C893 1.398 . S
C894 C895 1.391 . S
C895 H883 0.950 . S
C895 C891 1.393 . S
C895 C894 1.391 . S
H896 C904 0.950 . S
H897 C909 0.950 . S
H898 C906 0.950 . S
H899 C908 0.950 . S
H900 C910 0.950 . S
H901 C912 0.950 . S
H902 C914 0.950 . S
H903 C915 0.950 . S
C904 H896 0.950 . S
C904 C905 1.386 . S
C904 C906 1.391 . S
C905 C904 1.386 . S
C905 C909 1.393 . S
C906 H898 0.950 . S
C906 C904 1.391 . S
C906 C907 1.400 . S
C907 C906 1.400 . S
C907 C908 1.398 . S
C907 C913 1.491 . S
C908 H899 0.950 . S
C908 C907 1.398 . S
C908 C909 1.391 . S
C909 H897 0.950 . S
C909 C905 1.393 . S
C909 C908 1.391 . S
C910 H900 0.950 . S
C910 C911 1.386 . S
C910 C912 1.391 . S
C911 C910 1.386 . S
C911 C915 1.393 . S
C912 H901 0.950 . S
C912 C910 1.391 . S
C912 C913 1.400 . S
C913 C907 1.491 . S
C913 C912 1.400 . S
C913 C914 1.398 . S
C914 H902 0.950 . S
C914 C913 1.398 . S
C914 C915 1.391 . S
C915 H903 0.950 . S
C915 C911 1.393 . S
C915 C914 1.391 . S
H916 C924 0.950 . S
H917 C929 0.950 . S
H918 C926 0.950 . S
H919 C928 0.950 . S
H920 C930 0.950 . S
H921 C932 0.950 . S
H922 C934 0.950 . S
H923 C935 0.950 . S
C924 H916 0.950 . S
C924 C925 1.386 . S
C924 C926 1.391 . S
C925 C924 1.386 . S
C925 C929 1.393 . S
C926 H918 0.950 . S
C926 C924 1.391 . S
C926 C927 1.400 . S
C927 C926 1.400 . S
C927 C928 1.398 . S
C927 C933 1.491 . S
C928 H919 0.950 . S
C928 C927 1.398 . S
C928 C929 1.391 . S
C929 H917 0.950 . S
C929 C925 1.393 . S
C929 C928 1.391 . S
C930 H920 0.950 . S
C930 C931 1.386 . S
C930 C932 1.391 . S
C931 C930 1.386 . S
C931 C935 1.393 . S
C932 H921 0.950 . S
C932 C930 1.391 . S
C932 C933 1.400 . S
C933 C927 1.491 . S
C933 C932 1.400 . S
C933 C934 1.398 . S
C934 H922 0.950 . S
C934 C933 1.398 . S
C934 C935 1.391 . S
C935 H923 0.950 . S
C935 C931 1.393 . S
C935 C934 1.391 . S
H936 C944 0.950 . S
H937 C949 0.950 . S
H938 C946 0.950 . S
H939 C948 0.950 . S
H940 C950 0.950 . S
H941 C952 0.950 . S
H942 C954 0.950 . S
H943 C955 0.950 . S
C944 H936 0.950 . S
C944 C945 1.386 . S
C944 C946 1.391 . S
C945 C944 1.386 . S
C945 C949 1.393 . S
C946 H938 0.950 . S
C946 C944 1.391 . S
C946 C947 1.400 . S
C947 C946 1.400 . S
C947 C948 1.398 . S
C947 C953 1.491 . S
C948 H939 0.950 . S
C948 C947 1.398 . S
C948 C949 1.391 . S
C949 H937 0.950 . S
C949 C945 1.393 . S
C949 C948 1.391 . S
C950 H940 0.950 . S
C950 C951 1.386 . S
C950 C952 1.391 . S
C951 C950 1.386 . S
C951 C955 1.393 . S
C952 H941 0.950 . S
C952 C950 1.391 . S
C952 C953 1.400 . S
C953 C947 1.491 . S
C953 C952 1.400 . S
C953 C954 1.398 . S
C954 H942 0.950 . S
C954 C953 1.398 . S
C954 C955 1.391 . S
C955 H943 0.950 . S
C955 C951 1.393 . S
C955 C954 1.391 . S
H956 C964 0.950 . S
H957 C969 0.950 . S
H958 C966 0.950 . S
H959 C968 0.950 . S
H960 C970 0.950 . S
H961 C972 0.950 . S
H962 C974 0.950 . S
H963 C975 0.950 . S
C964 H956 0.950 . S
C964 C965 1.386 . S
C964 C966 1.391 . S
C965 C964 1.386 . S
C965 C969 1.393 . S
C966 H958 0.950 . S
C966 C964 1.391 . S
C966 C967 1.400 . S
C967 C966 1.400 . S
C967 C968 1.398 . S
C967 C973 1.491 . S
C968 H959 0.950 . S
C968 C967 1.398 . S
C968 C969 1.391 . S
C969 H957 0.950 . S
C969 C965 1.393 . S
C969 C968 1.391 . S
C970 H960 0.950 . S
C970 C971 1.386 . S
C970 C972 1.391 . S
C971 C970 1.386 . S
C971 C975 1.393 . S
C972 H961 0.950 . S
C972 C970 1.391 . S
C972 C973 1.400 . S
C973 C967 1.491 . S
C973 C972 1.400 . S
C973 C974 1.398 . S
C974 H962 0.950 . S
C974 C973 1.398 . S
C974 C975 1.391 . S
C975 H963 0.950 . S
C975 C971 1.393 . S
C975 C974 1.391 . S
H976 C984 0.950 . S
H977 C989 0.950 . S
H978 C986 0.950 . S
H979 C988 0.950 . S
H980 C990 0.950 . S
H981 C992 0.950 . S
H982 C994 0.950 . S
H983 C995 0.950 . S
C984 H976 0.950 . S
C984 C985 1.386 . S
C984 C986 1.391 . S
C985 C984 1.386 . S
C985 C989 1.393 . S
C986 H978 0.950 . S
C986 C984 1.391 . S
C986 C987 1.400 . S
C987 C986 1.400 . S
C987 C988 1.398 . S
C987 C993 1.491 . S
C988 H979 0.950 . S
C988 C987 1.398 . S
C988 C989 1.391 . S
C989 H977 0.950 . S
C989 C985 1.393 . S
C989 C988 1.391 . S
C990 H980 0.950 . S
C990 C991 1.386 . S
C990 C992 1.391 . S
C991 C990 1.386 . S
C991 C995 1.393 . S
C992 H981 0.950 . S
C992 C990 1.391 . S
C992 C993 1.400 . S
C993 C987 1.491 . S
C993 C992 1.400 . S
C993 C994 1.398 . S
C994 H982 0.950 . S
C994 C993 1.398 . S
C994 C995 1.391 . S
C995 H983 0.950 . S
C995 C991 1.393 . S
C995 C994 1.391 . S
H996 C1004 0.950 . S
H997 C1009 0.950 . S
H998 C1006 0.950 . S
H999 C1008 0.950 . S
H1000 C1010 0.950 . S
H1001 C1012 0.950 . S
H1002 C1014 0.950 . S
H1003 C1015 0.950 . S
C1004 H996 0.950 . S
C1004 C1005 1.386 . S
C1004 C1006 1.391 . S
C1005 C1004 1.386 . S
C1005 C1009 1.393 . S
C1006 H998 0.950 . S
C1006 C1004 1.391 . S
C1006 C1007 1.400 . S
C1007 C1006 1.400 . S
C1007 C1008 1.398 . S
C1007 C1013 1.491 . S
C1008 H999 0.950 . S
C1008 C1007 1.398 . S
C1008 C1009 1.391 . S
C1009 H997 0.950 . S
C1009 C1005 1.393 . S
C1009 C1008 1.391 . S
C1010 H1000 0.950 . S
C1010 C1011 1.386 . S
C1010 C1012 1.391 . S
C1011 C1010 1.386 . S
C1011 C1015 1.393 . S
C1012 H1001 0.950 . S
C1012 C1010 1.391 . S
C1012 C1013 1.400 . S
C1013 C1007 1.491 . S
C1013 C1012 1.400 . S
C1013 C1014 1.398 . S
C1014 H1002 0.950 . S
C1014 C1013 1.398 . S
C1014 C1015 1.391 . S
C1015 H1003 0.950 . S
C1015 C1011 1.393 . S
C1015 C1014 1.391 . S
H1016 C1024 0.950 . S
H1017 C1029 0.950 . S
H1018 C1026 0.950 . S
H1019 C1028 0.950 . S
H1020 C1030 0.950 . S
H1021 C1032 0.950 . S
H1022 C1034 0.950 . S
H1023 C1035 0.950 . S
C1024 H1016 0.950 . S
C1024 C1025 1.386 . S
C1024 C1026 1.391 . S
C1025 C1024 1.386 . S
C1025 C1029 1.393 . S
C1026 H1018 0.950 . S
C1026 C1024 1.391 . S
C1026 C1027 1.400 . S
C1027 C1026 1.400 . S
C1027 C1028 1.398 . S
C1027 C1033 1.491 . S
C1028 H1019 0.950 . S
C1028 C1027 1.398 . S
C1028 C1029 1.391 . S
C1029 H1017 0.950 . S
C1029 C1025 1.393 . S
C1029 C1028 1.391 . S
C1030 H1020 0.950 . S
C1030 C1031 1.386 . S
C1030 C1032 1.391 . S
C1031 C1030 1.386 . S
C1031 C1035 1.393 . S
C1032 H1021 0.950 . S
C1032 C1030 1.391 . S
C1032 C1033 1.400 . S
C1033 C1027 1.491 . S
C1033 C1032 1.400 . S
C1033 C1034 1.398 . S
C1034 H1022 0.950 . S
C1034 C1033 1.398 . S
C1034 C1035 1.391 . S
C1035 H1023 0.950 . S
C1035 C1031 1.393 . S
C1035 C1034 1.391 . S
H1036 C1044 0.950 . S
H1037 C1049 0.950 . S
H1038 C1046 0.950 . S
H1039 C1048 0.950 . S
H1040 C1050 0.950 . S
H1041 C1052 0.950 . S
H1042 C1054 0.950 . S
H1043 C1055 0.950 . S
C1044 H1036 0.950 . S
C1044 C1045 1.386 . S
C1044 C1046 1.391 . S
C1045 C1044 1.386 . S
C1045 C1049 1.393 . S
C1046 H1038 0.950 . S
C1046 C1044 1.391 . S
C1046 C1047 1.400 . S
C1047 C1046 1.400 . S
C1047 C1048 1.398 . S
C1047 C1053 1.491 . S
C1048 H1039 0.950 . S
C1048 C1047 1.398 . S
C1048 C1049 1.391 . S
C1049 H1037 0.950 . S
C1049 C1045 1.393 . S
C1049 C1048 1.391 . S
C1050 H1040 0.950 . S
C1050 C1051 1.386 . S
C1050 C1052 1.391 . S
C1051 C1050 1.386 . S
C1051 C1055 1.393 . S
C1052 H1041 0.950 . S
C1052 C1050 1.391 . S
C1052 C1053 1.400 . S
C1053 C1047 1.491 . S
C1053 C1052 1.400 . S
C1053 C1054 1.398 . S
C1054 H1042 0.950 . S
C1054 C1053 1.398 . S
C1054 C1055 1.391 . S
C1055 H1043 0.950 . S
C1055 C1051 1.393 . S
C1055 C1054 1.391 . S
H1056 C1064 0.950 . S
H1057 C1069 0.950 . S
H1058 C1066 0.950 . S
H1059 C1068 0.950 . S
H1060 C1070 0.950 . S
H1061 C1072 0.950 . S
H1062 C1074 0.950 . S
H1063 C1075 0.950 . S
C1064 H1056 0.950 . S
C1064 C1065 1.386 . S
C1064 C1066 1.391 . S
C1065 C1064 1.386 . S
C1065 C1069 1.393 . S
C1066 H1058 0.950 . S
C1066 C1064 1.391 . S
C1066 C1067 1.400 . S
C1067 C1066 1.400 . S
C1067 C1068 1.398 . S
C1067 C1073 1.491 . S
C1068 H1059 0.950 . S
C1068 C1067 1.398 . S
C1068 C1069 1.391 . S
C1069 H1057 0.950 . S
C1069 C1065 1.393 . S
C1069 C1068 1.391 . S
C1070 H1060 0.950 . S
C1070 C1071 1.386 . S
C1070 C1072 1.391 . S
C1071 C1070 1.386 . S
C1071 C1075 1.393 . S
C1072 H1061 0.950 . S
C1072 C1070 1.391 . S
C1072 C1073 1.400 . S
C1073 C1067 1.491 . S
C1073 C1072 1.400 . S
C1073 C1074 1.398 . S
C1074 H1062 0.950 . S
C1074 C1073 1.398 . S
C1074 C1075 1.391 . S
C1075 H1063 0.950 . S
C1075 C1071 1.393 . S
C1075 C1074 1.391 . S
H1076 C1084 0.950 . S
H1077 C1089 0.950 . S
H1078 C1086 0.950 . S
H1079 C1088 0.950 . S
H1080 C1090 0.950 . S
H1081 C1092 0.950 . S
H1082 C1094 0.950 . S
H1083 C1095 0.950 . S
C1084 H1076 0.950 . S
C1084 C1085 1.386 . S
C1084 C1086 1.391 . S
C1085 C1084 1.386 . S
C1085 C1089 1.393 . S
C1086 H1078 0.950 . S
C1086 C1084 1.391 . S
C1086 C1087 1.400 . S
C1087 C1086 1.400 . S
C1087 C1088 1.398 . S
C1087 C1093 1.491 . S
C1088 H1079 0.950 . S
C1088 C1087 1.398 . S
C1088 C1089 1.391 . S
C1089 H1077 0.950 . S
C1089 C1085 1.393 . S
C1089 C1088 1.391 . S
C1090 H1080 0.950 . S
C1090 C1091 1.386 . S
C1090 C1092 1.391 . S
C1091 C1090 1.386 . S
C1091 C1095 1.393 . S
C1092 H1081 0.950 . S
C1092 C1090 1.391 . S
C1092 C1093 1.400 . S
C1093 C1087 1.491 . S
C1093 C1092 1.400 . S
C1093 C1094 1.398 . S
C1094 H1082 0.950 . S
C1094 C1093 1.398 . S
C1094 C1095 1.391 . S
C1095 H1083 0.950 . S
C1095 C1091 1.393 . S
C1095 C1094 1.391 . S
H1096 C1104 0.950 . S
H1097 C1109 0.950 . S
H1098 C1106 0.950 . S
H1099 C1108 0.950 . S
H1100 C1110 0.950 . S
H1101 C1112 0.950 . S
H1102 C1114 0.950 . S
H1103 C1115 0.950 . S
C1104 H1096 0.950 . S
C1104 C1105 1.386 . S
C1104 C1106 1.391 . S
C1105 C1104 1.386 . S
C1105 C1109 1.393 . S
C1106 H1098 0.950 . S
C1106 C1104 1.391 . S
C1106 C1107 1.400 . S
C1107 C1106 1.400 . S
C1107 C1108 1.398 . S
C1107 C1113 1.491 . S
C1108 H1099 0.950 . S
C1108 C1107 1.398 . S
C1108 C1109 1.391 . S
C1109 H1097 0.950 . S
C1109 C1105 1.393 . S
C1109 C1108 1.391 . S
C1110 H1100 0.950 . S
C1110 C1111 1.386 . S
C1110 C1112 1.391 . S
C1111 C1110 1.386 . S
C1111 C1115 1.393 . S
C1112 H1101 0.950 . S
C1112 C1110 1.391 . S
C1112 C1113 1.400 . S
C1113 C1107 1.491 . S
C1113 C1112 1.400 . S
C1113 C1114 1.398 . S
C1114 H1102 0.950 . S
C1114 C1113 1.398 . S
C1114 C1115 1.391 . S
C1115 H1103 0.950 . S
C1115 C1111 1.393 . S
C1115 C1114 1.391 . S
H1116 C1124 0.950 . S
H1117 C1129 0.950 . S
H1118 C1126 0.950 . S
H1119 C1128 0.950 . S
H1120 C1130 0.950 . S
H1121 C1132 0.950 . S
H1122 C1134 0.950 . S
H1123 C1135 0.950 . S
C1124 H1116 0.950 . S
C1124 C1125 1.386 . S
C1124 C1126 1.391 . S
C1125 C1124 1.386 . S
C1125 C1129 1.393 . S
C1126 H1118 0.950 . S
C1126 C1124 1.391 . S
C1126 C1127 1.400 . S
C1127 C1126 1.400 . S
C1127 C1128 1.398 . S
C1127 C1133 1.491 . S
C1128 H1119 0.950 . S
C1128 C1127 1.398 . S
C1128 C1129 1.391 . S
C1129 H1117 0.950 . S
C1129 C1125 1.393 . S
C1129 C1128 1.391 . S
C1130 H1120 0.950 . S
C1130 C1131 1.386 . S
C1130 C1132 1.391 . S
C1131 C1130 1.386 . S
C1131 C1135 1.393 . S
C1132 H1121 0.950 . S
C1132 C1130 1.391 . S
C1132 C1133 1.400 . S
C1133 C1127 1.491 . S
C1133 C1132 1.400 . S
C1133 C1134 1.398 . S
C1134 H1122 0.950 . S
C1134 C1133 1.398 . S
C1134 C1135 1.391 . S
C1135 H1123 0.950 . S
C1135 C1131 1.393 . S
C1135 C1134 1.391 . S
C511 C409 1.338 . S
C505 C36 1.289 . S
C531 C423 1.341 . S
C525 C93 1.309 . S
C551 C431 1.361 . S
C545 C126 1.344 . S
C565 C165 1.313 . S
C571 C389 1.331 . S
C585 C222 1.267 . S
C591 C395 1.306 . S
C605 C261 1.284 . S
C611 C403 1.303 . S
C631 C417 1.414 . S
C625 C318 1.361 . S
C651 C437 1.374 . S
C645 C381 1.348 . S
C665 C132 1.283 . S
C671 C465 1.310 . S
C691 C479 1.398 . S
C685 C189 1.385 . S
C705 C30 1.287 . S
C711 C487 1.312 . S
C731 C451 1.271 . S
C725 C69 1.217 . S
C745 C324 1.331 . S
C751 C445 1.362 . S
C765 C357 1.337 . S
C771 C459 1.368 . S
C791 C473 1.364 . S
C785 C228 1.346 . S
C805 C285 1.361 . S
C811 C493 1.388 . S
C831 C412 1.685 . S
C825 C45 1.730 . S
C851 C435 1.717 . S
C845 C84 1.730 . S
C865 C117 1.735 . S
C871 C393 1.739 . S
C885 C174 1.708 . S
C891 C398 1.709 . S
C905 C213 1.716 . S
C911 C426 1.661 . S
C931 C384 1.686 . S
C925 C270 1.688 . S
C951 C407 1.716 . S
C945 C309 1.719 . S
C971 C421 1.715 . S
C965 C372 1.732 . S
C991 C468 1.669 . S
C985 C141 1.717 . S
C1011 C491 1.702 . S
C1005 C180 1.720 . S
C1025 C21 1.704 . S
C1031 C440 1.659 . S
C1051 C454 1.669 . S
C1045 C78 1.672 . S
C1071 C482 1.726 . S
C1065 C333 1.761 . S
C1085 C366 1.732 . S
C1091 C449 1.759 . S
C1111 C463 1.746 . S
C1105 C237 1.748 . S
C1131 C477 1.728 . S
C1125 C276 1.740 . S
