# Generated by pormake.
# Topology anh, (6,3)-cn, num edge types: 1
# Building blocks:
#     Node 0, Type 0, BuildingBlock: INOVEN_clean_sbu_0, # of connection points: 6
#     Node 1, Type 0, BuildingBlock: INOVEN_clean_sbu_0, # of connection points: 6
#     Node 2, Type 0, BuildingBlock: INOVEN_clean_sbu_0, # of connection points: 6
#     Node 3, Type 1, BuildingBlock: MIDCAF_clean_linker_0, # of connection points: 3
#     Node 4, Type 1, BuildingBlock: MIDCAF_clean_linker_0, # of connection points: 3
#     Node 5, Type 1, BuildingBlock: MIDCAF_clean_linker_0, # of connection points: 3
#     Node 6, Type 1, BuildingBlock: MIDCAF_clean_linker_0, # of connection points: 3
#     Node 7, Type 1, BuildingBlock: MIDCAF_clean_linker_0, # of connection points: 3
#     Node 8, Type 1, BuildingBlock: MIDCAF_clean_linker_0, # of connection points: 3
#     Edge 9, Type (0, 1), BuildingBlock: KIFKEQ_clean_linker_1, # of connection points: 2
#     Edge 10, Type (0, 1), BuildingBlock: KIFKEQ_clean_linker_1, # of connection points: 2
#     Edge 11, Type (0, 1), BuildingBlock: KIFKEQ_clean_linker_1, # of connection points: 2
#     Edge 12, Type (0, 1), BuildingBlock: KIFKEQ_clean_linker_1, # of connection points: 2
#     Edge 13, Type (0, 1), BuildingBlock: KIFKEQ_clean_linker_1, # of connection points: 2
#     Edge 14, Type (0, 1), BuildingBlock: KIFKEQ_clean_linker_1, # of connection points: 2
#     Edge 15, Type (0, 1), BuildingBlock: KIFKEQ_clean_linker_1, # of connection points: 2
#     Edge 16, Type (0, 1), BuildingBlock: KIFKEQ_clean_linker_1, # of connection points: 2
#     Edge 17, Type (0, 1), BuildingBlock: KIFKEQ_clean_linker_1, # of connection points: 2
#     Edge 18, Type (0, 1), BuildingBlock: KIFKEQ_clean_linker_1, # of connection points: 2
#     Edge 19, Type (0, 1), BuildingBlock: KIFKEQ_clean_linker_1, # of connection points: 2
#     Edge 20, Type (0, 1), BuildingBlock: KIFKEQ_clean_linker_1, # of connection points: 2
#     Edge 21, Type (0, 1), BuildingBlock: KIFKEQ_clean_linker_1, # of connection points: 2
#     Edge 22, Type (0, 1), BuildingBlock: KIFKEQ_clean_linker_1, # of connection points: 2
#     Edge 23, Type (0, 1), BuildingBlock: KIFKEQ_clean_linker_1, # of connection points: 2
#     Edge 24, Type (0, 1), BuildingBlock: KIFKEQ_clean_linker_1, # of connection points: 2
#     Edge 25, Type (0, 1), BuildingBlock: KIFKEQ_clean_linker_1, # of connection points: 2
#     Edge 26, Type (0, 1), BuildingBlock: KIFKEQ_clean_linker_1, # of connection points: 2
# Relax obj value: 0.178
# Max RMSD: 0.212
# Mean RMSD: 0.157
data_MOF--net-anh--node1-INOVEN_clean_sbu_0--node2-MIDCAF_clean_linker_0--edge1-KIFKEQ_clean_linker_1
_symmetry_space_group_name_H-M    P1
_symmetry_Int_Tables_number       1
_symmetry_cell_setting            triclinic
loop_
_symmetry_equiv_pos_as_xyz
'x, y, z'
_cell_length_a     36.720579
_cell_length_b     44.070614
_cell_length_c     67.549712
_cell_angle_alpha  94.023018
_cell_angle_beta   88.124754
_cell_angle_gamma 128.29975
loop_
_atom_site_label
_atom_site_type_symbol
_atom_site_fract_x
_atom_site_fract_y
_atom_site_fract_z
_atom_type_partial_charge
Gd0 Gd 0.13587 0.52999 0.15152 0.0
Gd1 Gd 0.07611 0.55318 0.16412 0.0
C2 C 0.18527 0.62192 0.15933 0.0
C3 C 0.19393 0.52054 0.13668 0.0
C4 C 0.24111 0.54316 0.12884 0.0
C5 C 0.27029 0.53552 0.13535 0.0
C6 C 0.25772 0.57192 0.11536 0.0
C7 C 0.33181 0.58354 0.11424 0.0
C8 C 0.30282 0.59186 0.10799 0.0
C9 C 0.31509 0.55545 0.12817 0.0
C10 C 0.11159 0.52157 0.18999 0.0
C11 C 1.02761 0.4631 0.1553 0.0
C12 C 1.02698 0.56929 0.18245 0.0
C13 C 0.97632 0.54425 0.18388 0.0
C14 C 0.9497 0.51049 0.17132 0.0
C15 C 0.95456 0.5512 0.19887 0.0
C16 C 0.87969 0.49047 0.18864 0.0
C17 C 0.90637 0.52455 0.20116 0.0
C18 C 0.90195 0.48393 0.17364 0.0
C19 C 0.07469 0.53622 0.12469 0.0
O20 O 0.19015 0.59525 0.15361 0.0
O21 O 0.14464 0.61277 0.16444 0.0
O22 O 0.19131 0.52684 0.15568 0.0
O23 O 0.1614 0.51592 0.126 0.0
O24 O 0.11243 0.49663 0.17913 0.0
O25 O 0.12418 0.54975 0.18016 0.0
O26 O 1.02774 0.48873 0.16675 0.0
O27 O 1.06438 0.47364 0.14476 0.0
O28 O 1.04377 0.58095 0.16472 0.0
O29 O 1.04575 0.55643 0.19132 0.0
O30 O 1.0384 0.52689 0.13446 0.0
O31 O 0.10971 0.55511 0.136 0.0
H32 H 0.25807 0.5135 0.14578 0.0
H33 H 0.23578 0.57855 0.11034 0.0
H34 H 0.31476 0.61326 0.09723 0.0
H35 H 0.33589 0.54749 0.13293 0.0
H36 H 0.96596 0.50437 0.15982 0.0
H37 H 0.97481 0.57682 0.20892 0.0
H38 H 0.8901 0.53033 0.21283 0.0
H39 H 0.88237 0.45848 0.16345 0.0
Gd40 Gd 0.62541 0.01961 0.4841 0.0
Gd41 Gd 0.56365 0.0406 0.47573 0.0
C42 C 0.51492 0.95146 0.47506 0.0
C43 C 0.66304 0.99088 0.49722 0.0
C44 C 0.65081 0.95254 0.49957 0.0
C45 C 0.68356 0.94673 0.49468 0.0
C46 C 0.60734 0.92183 0.5067 0.0
C47 C 0.6303 0.88031 0.50453 0.0
C48 C 0.59726 0.88606 0.50922 0.0
C49 C 0.67342 0.91097 0.49708 0.0
C50 C 0.62222 0.03165 0.44586 0.0
C51 C 0.67523 0.10927 0.48355 0.0
C52 C 0.52683 0.07044 0.46329 0.0
C53 C 0.53348 0.10709 0.46722 0.0
C54 C 0.498 0.10623 0.47636 0.0
C55 C 0.57479 0.14296 0.4623 0.0
C56 C 0.54536 0.17651 0.47621 0.0
C57 C 0.58063 0.17728 0.46674 0.0
C58 C 0.5039 0.14048 0.48088 0.0
C59 C 0.56885 0.03053 0.5142 0.0
O60 O 0.55256 0.96195 0.48449 0.0
O61 O 0.51391 0.97733 0.46693 0.0
O62 O 0.66751 1.00084 0.479 0.0
O63 O 0.642 1.00081 0.50863 0.0
O64 O 0.65957 0.04236 0.4548 0.0
O65 O 0.58786 0.01355 0.45718 0.0
O66 O 0.63562 0.09856 0.47612 0.0
O67 O 0.67883 0.08379 0.4903 0.0
O68 O 0.50999 0.04734 0.47789 0.0
O69 O 0.55965 0.0721 0.45379 0.0
O70 O 0.53135 0.02041 0.50573 0.0
O71 O 0.60212 0.04756 0.50237 0.0
H72 H 0.71727 0.97005 0.48916 0.0
H73 H 0.58132 0.9255 0.51043 0.0
H74 H 0.56356 0.86287 0.51479 0.0
H75 H 0.6998 0.90764 0.49356 0.0
H76 H 0.46578 0.07899 0.48028 0.0
H77 H 0.60274 0.14465 0.45513 0.0
H78 H 0.61275 0.20438 0.46266 0.0
H79 H 0.47624 0.13869 0.48846 0.0
Gd80 Gd 0.63414 0.56237 0.84126 0.0
Gd81 Gd 0.56853 0.47485 0.84275 0.0
C82 C 0.52186 0.5163 0.84568 0.0
C83 C 0.67667 0.6337 0.83348 0.0
C84 C 0.66467 0.65873 0.82895 0.0
C85 C 0.69615 0.69856 0.83404 0.0
C86 C 0.62247 0.64354 0.81956 0.0
C87 C 0.64415 0.70823 0.81987 0.0
C88 C 0.61234 0.66811 0.81501 0.0
C89 C 0.68601 0.72311 0.82958 0.0
C90 C 0.62281 0.5348 0.87719 0.0
C91 C 0.6821 0.5216 0.84006 0.0
C92 C 0.52865 0.40401 0.85065 0.0
C93 C 0.53769 0.37598 0.8461 0.0
C94 C 0.54502 0.3679 0.82655 0.0
C95 C 0.54025 0.35774 0.8616 0.0
C96 C 0.55746 0.32373 0.83808 0.0
C97 C 0.5501 0.33192 0.85765 0.0
C98 C 0.55456 0.34194 0.82258 0.0
C99 C 0.5806 0.50076 0.80629 0.0
O100 O 0.56188 0.54657 0.83879 0.0
O101 O 0.51797 0.48629 0.85146 0.0
O102 O 0.66823 0.62213 0.85154 0.0
O103 O 0.66574 0.60639 0.81994 0.0
O104 O 0.66243 0.56466 0.87103 0.0
O105 O 0.59156 0.52255 0.86446 0.0
O106 O 0.64014 0.48925 0.84368 0.0
O107 O 0.6883 0.55368 0.83644 0.0
O108 O 0.51595 0.41335 0.83584 0.0
O109 O 0.55856 0.43379 0.86265 0.0
O110 O 0.54166 0.47016 0.81234 0.0
O111 O 0.61198 0.51454 0.81924 0.0
H112 H 0.72886 0.71076 0.84132 0.0
H113 H 0.59752 0.61278 0.81563 0.0
H114 H 0.57959 0.65571 0.80774 0.0
H115 H 0.71148 0.75389 0.8333 0.0
H116 H 0.54351 0.38167 0.81428 0.0
H117 H 0.53506 0.36377 0.87681 0.0
H118 H 0.55267 0.31886 0.86998 0.0
H119 H 0.55925 0.33589 0.80731 0.0
C120 C 0.45578 0.92448 0.19111 0.0
C121 C 0.46296 0.9053 0.17593 0.0
C122 C 0.50784 0.92446 0.16818 0.0
C123 C 0.54503 0.96158 0.17596 0.0
H124 H 0.65761 0.1011 0.16708 0.0
H125 H 0.72109 0.16422 0.15461 0.0
H126 H 0.79876 0.19422 0.20884 0.0
H127 H 0.73617 0.13215 0.22125 0.0
H128 H 0.68547 0.09497 0.26008 0.0
H129 H 0.68526 0.09404 0.29611 0.0
H130 H 0.53873 0.99785 0.29412 0.0
H131 H 0.53866 0.9986 0.25801 0.0
H132 H 0.48657 0.9742 0.21145 0.0
H133 H 0.42178 0.91039 0.19753 0.0
H134 H 0.5143 0.91037 0.15643 0.0
H135 H 0.57957 0.97515 0.17028 0.0
N136 N 0.61486 0.04532 0.19364 0.0
N137 N 0.64955 0.07666 0.22475 0.0
N138 N 0.57672 0.01578 0.22314 0.0
C139 C 0.65103 0.07666 0.20461 0.0
C140 C 0.61266 0.04648 0.23413 0.0
C141 C 0.57755 0.01475 0.20299 0.0
C142 C 0.69135 0.11174 0.19531 0.0
C143 C 0.6886 0.12096 0.17616 0.0
C144 C 0.72494 0.15709 0.16902 0.0
C145 C 0.76454 0.18454 0.18092 0.0
C146 C 0.76827 0.17418 0.1995 0.0
C147 C 0.73228 0.13841 0.20658 0.0
C148 C 0.61211 0.04675 0.2561 0.0
C149 C 0.65309 0.07371 0.26727 0.0
C150 C 0.65308 0.07308 0.28792 0.0
C151 C 0.61202 0.04579 0.29789 0.0
C152 C 0.57082 0.01936 0.28682 0.0
C153 C 0.5709 0.01967 0.26612 0.0
C154 C 0.53802 0.97963 0.1919 0.0
C155 C 0.49291 0.96099 0.19912 0.0
C156 C 0.57793 0.41277 0.55336 0.0
C157 C 0.58399 0.41296 0.53274 0.0
C158 C 0.5964 0.44519 0.52289 0.0
C159 C 0.60184 0.47634 0.53349 0.0
H160 H 0.6181 0.58225 0.52863 0.0
H161 H 0.61589 0.63045 0.51392 0.0
H162 H 0.57961 0.65555 0.57076 0.0
H163 H 0.58181 0.60796 0.58541 0.0
H164 H 0.60755 0.58914 0.62377 0.0
H165 H 0.61108 0.59158 0.65985 0.0
H166 H 0.62089 0.49864 0.65603 0.0
H167 H 0.61795 0.49635 0.61997 0.0
H168 H 0.57882 0.44257 0.57984 0.0
H169 H 0.56891 0.38855 0.56138 0.0
H170 H 0.60116 0.446 0.50698 0.0
H171 H 0.61104 0.50064 0.5255 0.0
N172 N 0.60016 0.53477 0.55665 0.0
N173 N 0.60695 0.5655 0.58772 0.0
N174 N 0.60527 0.51149 0.58583 0.0
C175 C 0.60289 0.56327 0.56765 0.0
C176 C 0.60846 0.53993 0.59693 0.0
C177 C 0.60109 0.50859 0.56573 0.0
C178 C 0.60032 0.59132 0.55822 0.0
C179 C 0.6094 0.59792 0.53793 0.0
C180 C 0.60833 0.62559 0.52953 0.0
C181 C 0.59737 0.64661 0.54118 0.0
C182 C 0.5876 0.63948 0.56134 0.0
C183 C 0.58926 0.61237 0.56976 0.0
C184 C 0.61224 0.54241 0.61889 0.0
C185 C 0.61073 0.56933 0.63057 0.0
C186 C 0.61256 0.57066 0.65128 0.0
C187 C 0.6162 0.54528 0.66079 0.0
C188 C 0.61864 0.5189 0.64914 0.0
C189 C 0.61659 0.51742 0.62844 0.0
C190 C 0.59574 0.47607 0.55417 0.0
C191 C 0.58396 0.44396 0.56395 0.0
C192 C 0.99462 0.55534 0.87455 0.0
C193 C 0.96616 0.5318 0.85804 0.0
C194 C 0.97645 0.50912 0.84743 0.0
C195 C 1.01301 0.50917 0.85358 0.0
H196 H 0.19844 0.56258 0.85398 0.0
H197 H 0.26438 0.56287 0.84572 0.0
H198 H 0.20116 0.4602 0.87805 0.0
H199 H 0.13714 0.46115 0.88676 0.0
H200 H 0.12287 0.48992 0.93532 0.0
H201 H 0.11723 0.48853 0.97134 0.0
H202 H 1.06201 0.55131 0.97185 0.0
H203 H 1.06562 0.551 0.93589 0.0
H204 H 1.05018 0.57268 0.89397 0.0
H205 H 0.98795 0.57284 0.88339 0.0
H206 H 0.95581 0.49084 0.83452 0.0
H207 H 1.01863 0.49023 0.84561 0.0
N208 N 0.10122 0.52168 0.8702 0.0
N209 N 0.12529 0.51543 0.90062 0.0
N210 N 0.07062 0.52623 0.90048 0.0
C211 C 0.12837 0.5163 0.88052 0.0
C212 C 0.09686 0.52061 0.91071 0.0
C213 C 0.07181 0.52647 0.88036 0.0
C214 C 0.16222 0.5117 0.87094 0.0
C215 C 0.19819 0.53955 0.85882 0.0
C216 C 0.23625 0.53977 0.85421 0.0
C217 C 0.23925 0.51206 0.86155 0.0
C218 C 0.2015 0.48289 0.87258 0.0
C219 C 0.16409 0.48298 0.87734 0.0
C220 C 0.09451 0.52041 0.93269 0.0
C221 C 0.10949 0.50339 0.94315 0.0
C222 C 0.10647 0.5028 0.96386 0.0
C223 C 0.08901 0.51971 0.97467 0.0
C224 C 0.07462 0.53715 0.96413 0.0
C225 C 0.07699 0.53723 0.94344 0.0
C226 C 1.03988 0.53159 0.87063 0.0
C227 C 1.03055 0.55516 0.88071 0.0
C228 C 0.19412 0.66404 0.44236 0.0
C229 C 0.22823 0.67119 0.4553 0.0
C230 C 0.22151 0.63938 0.46329 0.0
C231 C 0.18328 0.60126 0.45725 0.0
H232 H 1.03156 0.47552 0.47078 0.0
H233 H 0.96943 0.41286 0.48418 0.0
H234 H 0.96241 0.35394 0.42891 0.0
H235 H 1.02365 0.41557 0.41564 0.0
H236 H 1.04458 0.45578 0.37626 0.0
H237 H 1.04177 0.45343 0.34014 0.0
H238 H 0.11535 0.57696 0.34242 0.0
H239 H 0.11816 0.57953 0.37856 0.0
H240 H 0.1323 0.6219 0.42537 0.0
H241 H 0.19732 0.68776 0.43638 0.0
H242 H 0.24708 0.64385 0.47332 0.0
H243 H 0.18036 0.57726 0.46262 0.0
N244 N 0.0924 0.52262 0.44258 0.0
N245 N 1.0599 0.4867 0.41208 0.0
N246 N 0.11378 0.55405 0.41272 0.0
C247 C 1.06292 0.48772 0.43215 0.0
C248 C 0.08507 0.5196 0.40225 0.0
C249 C 0.11796 0.55594 0.43275 0.0
C250 C 1.03201 0.45064 0.44202 0.0
C251 C 1.0174 0.4491 0.4617 0.0
C252 C 0.98184 0.41328 0.46935 0.0
C253 C 0.96047 0.37863 0.45741 0.0
C254 C 0.97747 0.3802 0.4383 0.0
C255 C 1.01271 0.41564 0.43072 0.0
C256 C 0.08179 0.51789 0.38035 0.0
C257 C 1.05995 0.48245 0.36911 0.0
C258 C 1.0585 0.48108 0.34841 0.0
C259 C 0.07842 0.51501 0.33849 0.0
C260 C 0.09937 0.5503 0.34969 0.0
C261 C 0.10124 0.55177 0.37039 0.0
C262 C 0.15152 0.59453 0.44304 0.0
C263 C 0.15655 0.62627 0.43619 0.0
C264 C 0.63136 0.14001 0.77342 0.0
C265 C 0.61034 0.13167 0.79208 0.0
C266 C 0.59178 0.09587 0.79971 0.0
C267 C 0.59357 0.06867 0.78868 0.0
H268 H 0.6245 0.98585 0.79092 0.0
H269 H 0.62746 0.93676 0.80348 0.0
H270 H 0.58542 0.87545 0.74569 0.0
H271 H 0.58366 0.92467 0.73304 0.0
H272 H 0.6005 0.97023 0.69566 0.0
H273 H 0.595 0.97098 0.65986 0.0
H274 H 0.60518 0.07408 0.66821 0.0
H275 H 0.60996 0.07317 0.70394 0.0
H276 H 0.64794 0.11977 0.74774 0.0
H277 H 0.64553 0.16718 0.76707 0.0
H278 H 0.5755 0.08879 0.8141 0.0
H279 H 0.57822 0.041 0.79471 0.0
N280 N 0.60839 0.01795 0.76476 0.0
N281 N 0.60486 0.99199 0.73264 0.0
N282 N 0.61028 0.04777 0.73685 0.0
C283 C 0.6056 0.99049 0.75265 0.0
C284 C 0.60716 0.02049 0.72461 0.0
C285 C 0.61084 0.04675 0.75687 0.0
C286 C 0.60431 0.9595 0.76091 0.0
C287 C 0.61564 0.96177 0.78093 0.0
C288 C 0.61717 0.93353 0.78816 0.0
C289 C 0.60717 0.90233 0.77555 0.0
C290 C 0.59441 0.89952 0.75572 0.0
C291 C 0.59317 0.92775 0.74848 0.0
C292 C 0.60545 0.02153 0.70277 0.0
C293 C 0.60168 0.99314 0.6899 0.0
C294 C 0.59877 0.99366 0.66935 0.0
C295 C 0.59945 0.02248 0.66121 0.0
C296 C 0.60384 0.05113 0.67404 0.0
C297 C 0.60683 0.05068 0.69455 0.0
C298 C 0.61305 0.07655 0.76966 0.0
C299 C 0.63243 0.1127 0.76229 0.0
C300 C 0.5642 0.33413 0.11553 0.0
C301 C 0.58068 0.36027 0.13236 0.0
C302 C 0.57435 0.38871 0.13314 0.0
C303 C 0.5554 0.3928 0.11698 0.0
H304 H 0.52411 0.46031 0.0988 0.0
H305 H 0.51864 0.51278 0.10012 0.0
H306 H 0.49688 0.49762 0.03661 0.0
H307 H 0.50156 0.44488 0.0352 0.0
H308 H 0.46305 0.34569 0.01531 0.0
H309 H 0.48628 0.3531 0.98085 0.0
H310 H 0.61788 0.38329 -0.00182 0.0
H311 H 0.59402 0.37553 0.03292 0.0
H312 H 0.53553 0.31917 0.0861 0.0
H313 H 0.56746 0.31128 0.11458 0.0
H314 H 0.58701 0.40976 0.14564 0.0
H315 H 0.5533 0.41631 0.11786 0.0
N316 N 0.52369 0.40504 0.08253 0.0
N317 N 0.51442 0.39923 0.04811 0.0
N318 N 0.53019 0.36211 0.06322 0.0
C319 C 0.51579 0.41593 0.06595 0.0
C320 C 0.52136 0.37235 0.04661 0.0
C321 C 0.53035 0.37784 0.08136 0.0
C322 C 0.51268 0.44795 0.06694 0.0
C323 C 0.51824 0.46816 0.0851 0.0
C324 C 0.51576 0.4986 0.08583 0.0
C325 C 0.50755 0.5094 0.06844 0.0
C326 C 0.503 0.48979 0.05026 0.0
C327 C 0.50555 0.45945 0.04951 0.0
C328 C 0.52694 0.3604 0.02665 0.0
C329 C 0.49588 0.35182 0.01161 0.0
C330 C 0.5093 0.35607 0.99184 0.0
C331 C 0.55437 0.3696 0.98684 0.0
C332 C 0.58316 0.37329 0.00167 0.0
C333 C 0.56937 0.36849 0.0215 0.0
C334 C 0.54283 0.36893 0.09949 0.0
C335 C 0.54581 0.33861 0.09919 0.0
H336 H 0.35252 0.5933 0.07478 0.0
H337 H 0.41301 0.60963 0.1321 0.0
H338 H 0.41425 0.59539 0.05872 0.0
H339 H 0.47235 0.60866 0.11633 0.0
H340 H 0.55641 0.57991 0.08955 0.0
H341 H 0.53205 0.62011 0.09632 0.0
H342 H 0.41312 0.54187 0.05727 0.0
H343 H 0.43824 0.50312 0.0502 0.0
C344 C 0.3799 0.59873 0.08394 0.0
C345 C 0.37691 0.59962 0.10472 0.0
C346 C 0.41503 0.59941 0.07474 0.0
C347 C 0.44692 0.6001 0.08621 0.0
C348 C 0.44816 0.60744 0.10689 0.0
C349 C 0.41366 0.60754 0.11603 0.0
C350 C 0.52569 0.57204 0.0821 0.0
C351 C 0.49876 0.53804 0.06963 0.0
C352 C 0.51173 0.59505 0.08594 0.0
C353 C 0.47012 0.58404 0.07765 0.0
C354 C 0.44566 0.55187 0.0638 0.0
C355 C 0.45989 0.52925 0.05981 0.0
H356 H 0.67894 0.16967 0.47274 0.0
H357 H 0.76533 0.14307 0.4942 0.0
H358 H 0.74726 0.2363 0.46914 0.0
H359 H 0.83408 0.21016 0.4904 0.0
H360 H 0.94515 0.34463 0.49268 0.0
H361 H 0.87559 0.28079 0.50187 0.0
H362 H 0.8116 0.26475 0.44552 0.0
H363 H 0.88014 0.32794 0.43657 0.0
C364 C 0.71245 0.17802 0.47684 0.0
C365 C 0.71659 0.15075 0.48352 0.0
C366 C 0.75169 0.2163 0.47473 0.0
C367 C 0.79617 0.22843 0.47925 0.0
C368 C 0.80026 0.20175 0.48687 0.0
C369 C 0.76086 0.16326 0.48895 0.0
C370 C 0.91594 0.32746 0.48241 0.0
C371 C 0.91817 0.3411 0.46386 0.0
C372 C 0.87634 0.29091 0.48759 0.0
C373 C 0.83804 0.26776 0.47444 0.0
C374 C 0.84018 0.28196 0.4561 0.0
C375 C 0.87967 0.31805 0.45088 0.0
H376 H 0.60817 0.70714 0.78481 0.0
H377 H 0.65905 0.76955 0.84213 0.0
H378 H 0.59667 0.75279 0.77478 0.0
H379 H 0.64864 0.81585 0.83189 0.0
H380 H 0.58166 0.86963 0.81165 0.0
H381 H 0.588 0.82155 0.82298 0.0
H382 H 0.64803 0.82137 0.76696 0.0
H383 H 0.64237 0.86957 0.75576 0.0
C384 C 0.61647 0.73038 0.79534 0.0
C385 C 0.63466 0.73477 0.81424 0.0
C386 C 0.61035 0.75678 0.78952 0.0
C387 C 0.62207 0.78811 0.80249 0.0
C388 C 0.63906 0.79192 0.8216 0.0
C389 C 0.64543 0.76561 0.82739 0.0
C390 C 0.59656 0.85956 0.80182 0.0
C391 C 0.61118 0.8733 0.78273 0.0
C392 C 0.60009 0.83196 0.8083 0.0
C393 C 0.61814 0.81741 0.7958 0.0
C394 C 0.63305 0.83138 0.7768 0.0
C395 C 0.62975 0.85901 0.77037 0.0
H396 H 0.81936 0.50688 0.19388 0.0
H397 H 0.8242 0.41129 0.18615 0.0
H398 H 0.7361 0.46251 0.18739 0.0
H399 H 0.74075 0.36687 0.17938 0.0
H400 H 0.58807 0.37998 0.17256 0.0
H401 H 0.65402 0.40301 0.19401 0.0
H402 H 0.70744 0.36791 0.14788 0.0
H403 H 0.6435 0.34662 0.1263 0.0
C404 C 0.80238 0.4762 0.19154 0.0
C405 C 0.82844 0.4627 0.19001 0.0
C406 C 0.75457 0.45069 0.18788 0.0
C407 C 0.7321 0.41131 0.18257 0.0
C408 C 0.75735 0.39718 0.18316 0.0
C409 C 0.80509 0.42264 0.18692 0.0
C410 C 0.61345 0.37651 0.16713 0.0
C411 C 0.61103 0.36244 0.14744 0.0
C412 C 0.65098 0.38947 0.17949 0.0
C413 C 0.68615 0.38777 0.17251 0.0
C414 C 0.68073 0.36938 0.15376 0.0
C415 C 0.64374 0.35703 0.14133 0.0
H416 H 0.43425 0.91958 0.45487 0.0
H417 H 0.50132 0.88926 0.49084 0.0
H418 H 0.36629 0.85187 0.45117 0.0
H419 H 0.43293 0.82098 0.4869 0.0
H420 H 0.27823 0.70752 0.49033 0.0
H421 H 0.34852 0.77488 0.49587 0.0
H422 H 0.34726 0.79282 0.43395 0.0
H423 H 0.27804 0.72615 0.4284 0.0
C424 C 0.43461 0.8985 0.46198 0.0
C425 C 0.47348 0.90997 0.47306 0.0
C426 C 0.39561 0.85956 0.45978 0.0
C427 C 0.39427 0.83093 0.46862 0.0
C428 C 0.43277 0.84235 0.48 0.0
C429 C 0.47206 0.88145 0.48214 0.0
C430 C 0.29323 0.72583 0.4779 0.0
C431 C 0.27189 0.71157 0.45901 0.0
C432 C 0.33348 0.76437 0.48107 0.0
C433 C 0.35309 0.78938 0.4654 0.0
C434 C 0.33244 0.77468 0.44645 0.0
C435 C 0.29257 0.73638 0.44329 0.0
H436 H 0.52071 0.25562 0.85532 0.0
H437 H 0.61857 0.32989 0.81102 0.0
H438 H 0.53685 0.2102 0.84744 0.0
H439 H 0.63255 0.28356 0.80233 0.0
H440 H 0.67724 0.20958 0.79923 0.0
H441 H 0.66715 0.2566 0.81293 0.0
H442 H 0.52159 0.16367 0.82173 0.0
H443 H 0.53229 0.11673 0.80859 0.0
C444 C 0.54583 0.26239 0.84397 0.0
C445 C 0.56813 0.29639 0.83374 0.0
C446 C 0.55468 0.23608 0.83928 0.0
C447 C 0.58593 0.24305 0.8242 0.0
C448 C 0.60875 0.27737 0.81422 0.0
C449 C 0.60014 0.30373 0.81899 0.0
C450 C 0.64326 0.19927 0.80434 0.0
C451 C 0.6055 0.15956 0.80276 0.0
C452 C 0.63735 0.22619 0.81208 0.0
C453 C 0.59339 0.21407 0.8182 0.0
C454 C 0.55605 0.17411 0.81738 0.0
C455 C 0.56211 0.14715 0.80982 0.0
H456 H 0.59035 0.83735 0.53693 0.0
H457 H 0.64903 0.83925 0.48016 0.0
H458 H 0.57921 0.77864 0.5438 0.0
H459 H 0.63714 0.77994 0.48682 0.0
H460 H 0.66315 0.70425 0.51786 0.0
H461 H 0.66785 0.75853 0.50749 0.0
H462 H 0.53606 0.7113 0.53507 0.0
H463 H 0.53216 0.65768 0.5458 0.0
C464 C 0.6001 0.8248 0.52576 0.0
C465 C 0.62067 0.84301 0.50803 0.0
C466 C 0.59364 0.79103 0.52966 0.0
C467 C 0.60727 0.77442 0.51587 0.0
C468 C 0.62692 0.79222 0.49792 0.0
C469 C 0.63365 0.82617 0.49408 0.0
C470 C 0.63489 0.70522 0.52141 0.0
C471 C 0.59751 0.67693 0.53278 0.0
C472 C 0.63749 0.7363 0.51545 0.0
C473 C 0.60255 0.7396 0.52061 0.0
C474 C 0.56414 0.71025 0.53123 0.0
C475 C 0.56176 0.6794 0.5373 0.0
H476 H 0.68558 0.46428 0.851 0.0
H477 H 0.77298 0.58013 0.83077 0.0
H478 H 0.7532 0.46641 0.85385 0.0
H479 H 0.8404 0.58193 0.83302 0.0
H480 H 0.95973 0.59117 0.86022 0.0
H481 H 0.8921 0.58779 0.85527 0.0
H482 H 0.81117 0.46575 0.83807 0.0
H483 H 0.87867 0.46881 0.84404 0.0
C484 C 0.71912 0.49012 0.84692 0.0
C485 C 0.72341 0.52206 0.84068 0.0
C486 C 0.75818 0.49129 0.84846 0.0
C487 C 0.80301 0.52442 0.84377 0.0
C488 C 0.807 0.55607 0.83718 0.0
C489 C 0.768 0.55495 0.83572 0.0
C490 C 0.92756 0.56344 0.85549 0.0
C491 C 0.92518 0.5302 0.85277 0.0
C492 C 0.88852 0.56158 0.85236 0.0
C493 C 0.84538 0.52644 0.84627 0.0
C494 C 0.84324 0.49333 0.84304 0.0
C495 C 0.88241 0.49519 0.8462 0.0
H496 H 0.19265 0.6837 0.17627 0.0
H497 H 0.27171 0.65447 0.144 0.0
H498 H 0.26015 0.7516 0.17803 0.0
H499 H 0.33916 0.72292 0.14512 0.0
H500 H 0.46358 0.84346 0.17221 0.0
H501 H 0.39715 0.77508 0.16677 0.0
H502 H 0.30807 0.80659 0.15959 0.0
H503 H 0.37432 0.87471 0.16573 0.0
C504 C 0.22434 0.69179 0.16935 0.0
C505 C 0.22664 0.6635 0.16002 0.0
C506 C 0.26313 0.73094 0.17021 0.0
C507 C 0.30533 0.7431 0.16159 0.0
C508 C 0.30755 0.71476 0.15214 0.0
C509 C 0.26874 0.67545 0.15143 0.0
C510 C 0.4299 0.83572 0.16911 0.0
C511 C 0.4241 0.86442 0.16951 0.0
C512 C 0.39171 0.79646 0.16598 0.0
C513 C 0.34686 0.78501 0.163 0.0
C514 C 0.34171 0.81406 0.16237 0.0
C515 C 0.37975 0.85319 0.16572 0.0
H516 H 0.62457 0.24685 0.49016 0.0
H517 H 0.48108 0.18913 0.47477 0.0
H518 H 0.63369 0.30513 0.50126 0.0
H519 H 0.49012 0.24714 0.48634 0.0
H520 H 0.51166 0.33648 0.53558 0.0
H521 H 0.50289 0.28075 0.51978 0.0
H522 H 0.63226 0.35757 0.48937 0.0
H523 H 0.64116 0.41359 0.50537 0.0
C524 C 0.59515 0.24669 0.48884 0.0
C525 C 0.55195 0.21304 0.48169 0.0
C526 C 0.60041 0.28013 0.49524 0.0
C527 C 0.56255 0.28063 0.49479 0.0
C528 C 0.51975 0.24743 0.48715 0.0
C529 C 0.51457 0.21413 0.48059 0.0
C530 C 0.5381 0.34146 0.52544 0.0
C531 C 0.57719 0.37935 0.52177 0.0
C532 C 0.53291 0.30955 0.51627 0.0
C533 C 0.56691 0.31477 0.50335 0.0
C534 C 0.60566 0.35268 0.49937 0.0
C535 C 0.61057 0.38469 0.50839 0.0
H536 H 0.43664 0.46225 0.86189 0.0
H537 H 0.5133 0.57021 0.8333 0.0
H538 H 0.37015 0.46196 0.86498 0.0
H539 H 0.4466 0.57011 0.83657 0.0
H540 H 0.29908 0.53652 0.82943 0.0
H541 H 0.36695 0.53841 0.82523 0.0
H542 H 0.3447 0.49447 0.88313 0.0
H543 H 0.27792 0.49315 0.88748 0.0
C544 C 0.4395 0.48604 0.85625 0.0
C545 C 0.48083 0.5163 0.84738 0.0
C546 C 0.40119 0.486 0.85814 0.0
C547 C 0.40256 0.51612 0.85115 0.0
C548 C 0.44373 0.54619 0.84202 0.0
C549 C 0.48228 0.54636 0.84024 0.0
C550 C 0.30875 0.52753 0.84136 0.0
C551 C 0.28188 0.51411 0.85871 0.0
C552 C 0.34791 0.5286 0.83893 0.0
C553 C 0.36149 0.51617 0.85372 0.0
C554 C 0.33506 0.5034 0.87114 0.0
C555 C 0.29628 0.50253 0.87361 0.0
H556 H 1.01802 0.39865 0.14025 0.0
H557 H 0.94311 0.43355 0.17102 0.0
H558 H 0.95204 0.33059 0.14434 0.0
H559 H 0.87751 0.36609 0.17476 0.0
H560 H 0.80366 0.25142 0.20371 0.0
H561 H 0.86502 0.3174 0.19523 0.0
H562 H 0.86851 0.27583 0.13591 0.0
H563 H 0.80704 0.20893 0.14467 0.0
C564 C 0.98732 0.39185 0.1476 0.0
C565 C 0.98621 0.42164 0.15556 0.0
C566 C 0.94943 0.35284 0.14988 0.0
C567 C 0.90972 0.34287 0.16014 0.0
C568 C 0.9079 0.3727 0.16717 0.0
C569 C 0.94559 0.41148 0.16495 0.0
C570 C 0.81757 0.2562 0.18886 0.0
C571 C 0.80071 0.22483 0.17492 0.0
C572 C 0.85246 0.29417 0.18392 0.0
C573 C 0.87165 0.30203 0.16485 0.0
C574 C 0.85465 0.27074 0.15077 0.0
C575 C 0.81924 0.23249 0.15571 0.0
H576 H 0.15134 0.5696 0.10162 0.0
H577 H 1.0017 0.49053 0.0988 0.0
H578 H 0.15423 0.56409 0.06557 0.0
H579 H 1.00421 0.48318 0.06276 0.0
H580 H 1.02211 0.5127 -0.00166 0.0
H581 H 1.0192 0.51582 0.03426 0.0
H582 H 0.14358 0.52563 0.03734 0.0
H583 H 0.14864 0.52578 0.0014 0.0
C584 C 0.11903 0.55061 0.09325 0.0
C585 C 0.07627 0.53076 0.10295 0.0
C586 C 0.12062 0.54717 0.07255 0.0
C587 C 0.07944 0.52329 0.06106 0.0
C588 C 1.03667 0.50255 0.07097 0.0
C589 C 1.03513 0.50648 0.09165 0.0
C590 C 1.04932 0.51613 0.00663 0.0
C591 C 0.08588 0.51936 -0.00321 0.0
C592 C 1.04717 0.51721 0.02734 0.0
C593 C 0.08111 0.52095 0.0389 0.0
C594 C 0.11715 0.52335 0.02906 0.0
C595 C 0.11965 0.5228 0.00832 0.0
H596 H 0.69419 0.07648 0.42131 0.0
H597 H 0.54458 0.99612 0.42256 0.0
H598 H 0.69117 0.08157 0.38585 0.0
H599 H 0.54129 0.99974 0.3868 0.0
H600 H 0.55146 0.04062 0.32491 0.0
H601 H 0.5534 0.03902 0.36094 0.0
H602 H 0.67502 0.04448 0.35586 0.0
H603 H 0.67371 0.04729 0.32008 0.0
C604 C 0.66062 0.05977 0.41393 0.0
C605 C 0.61964 0.0357 0.42459 0.0
C606 C 0.65884 0.06243 0.39357 0.0
C607 C 0.616 0.04068 0.38333 0.0
C608 C 0.57488 0.01719 0.39417 0.0
C609 C 0.5767 0.0149 0.41464 0.0
C610 C 0.5785 0.04142 0.33158 0.0
C611 C 0.61261 0.04434 0.31974 0.0
C612 C 0.57957 0.04038 0.3522 0.0
C613 C 0.61453 0.04184 0.36139 0.0
C614 C 0.64824 0.04425 0.34942 0.0
C615 C 0.64743 0.04571 0.32887 0.0
H616 H 0.51517 0.47497 0.77799 0.0
H617 H 0.66335 0.55333 0.78837 0.0
H618 H 0.52698 0.49078 0.74335 0.0
H619 H 0.67531 0.56948 0.75355 0.0
H620 H 0.67039 0.54021 0.68501 0.0
H621 H 0.66425 0.53417 0.72087 0.0
H622 H 0.55466 0.54451 0.72212 0.0
H623 H 0.55999 0.54957 0.68625 0.0
C624 C 0.55028 0.49587 0.77287 0.0
C625 C 0.58836 0.51278 0.78578 0.0
C626 C 0.55705 0.50513 0.75307 0.0
C627 C 0.60208 0.53136 0.74572 0.0
C628 C 0.64023 0.54891 0.75877 0.0
C629 C 0.6334 0.53984 0.77868 0.0
C630 C 0.64509 0.54129 0.69297 0.0
C631 C 0.61545 0.54509 0.68278 0.0
C632 C 0.64192 0.53826 0.71352 0.0
C633 C 0.60884 0.53871 0.7243 0.0
C634 C 0.58019 0.54369 0.71419 0.0
C635 C 0.58353 0.54693 0.69367 0.0
H636 H 0.49997 0.996 0.54128 0.0
H637 H 0.64741 0.05794 0.53491 0.0
H638 H 0.50697 0.99229 0.57667 0.0
H639 H 0.65464 0.0547 0.5704 0.0
H640 H 0.64113 0.00884 0.63145 0.0
H641 H 0.633 0.00866 0.59567 0.0
H642 H 0.54011 0.03691 0.60614 0.0
H643 H 0.54703 0.03584 0.64177 0.0
C644 C 0.53387 0.0088 0.54748 0.0
C645 C 0.57316 0.02735 0.53542 0.0
C646 C 0.53793 0.00685 0.56775 0.0
C647 C 0.5814 0.02339 0.57637 0.0
C648 C 0.62061 0.04135 0.56418 0.0
C649 C 0.61653 0.04337 0.54389 0.0
C650 C 0.61865 0.01465 0.62608 0.0
C651 C 0.59478 0.02241 0.63944 0.0
C652 C 0.61435 0.01492 0.60561 0.0
C653 C 0.58589 0.02275 0.59808 0.0
C654 C 0.5619 0.03034 0.61145 0.0
C655 C 0.56631 0.03018 0.63188 0.0
H656 H 0.69049 0.53673 0.8945 0.0
H657 H 0.5432 0.47848 0.89472 0.0
H658 H 0.67976 0.49237 0.91828 0.0
H659 H 0.5324 0.43462 0.91856 0.0
H660 H 0.51458 0.34229 0.94963 0.0
H661 H 0.53593 0.3814 0.92118 0.0
H662 H 0.65819 0.47879 0.95304 0.0
H663 H 0.6372 0.43985 0.98124 0.0
C664 C 0.65596 0.51475 0.89986 0.0
C665 C 0.61763 0.51098 0.89291 0.0
C666 C 0.64976 0.48923 0.91333 0.0
C667 C 0.60514 0.45959 0.92006 0.0
C668 C 0.56706 0.45646 0.91329 0.0
C669 C 0.57327 0.48191 0.89988 0.0
C670 C 0.54672 0.3717 0.95028 0.0
C671 C 0.57387 0.38808 0.96776 0.0
C672 C 0.55876 0.39418 0.93408 0.0
C673 C 0.59809 0.43347 0.9351 0.0
C674 C 0.6277 0.44864 0.95177 0.0
C675 C 0.61573 0.42615 0.96794 0.0
H676 H 0.07408 0.45909 0.21173 0.0
H677 H 0.1266 0.57819 0.21628 0.0
H678 H 1.06104 0.4554 0.24741 0.0
H679 H 0.11535 0.5752 0.25209 0.0
H680 H 1.05711 0.54935 0.31427 0.0
H681 H 1.06026 0.54897 0.27809 0.0
H682 H 0.10558 0.47876 0.27718 0.0
H683 H 0.10115 0.47838 0.31319 0.0
C684 C 0.08288 0.48449 0.22042 0.0
C685 C 0.10159 0.51898 0.21135 0.0
C686 C 0.07569 0.48249 0.24087 0.0
C687 C 0.08755 0.51511 0.25271 0.0
C688 C 0.1053 0.54937 0.24345 0.0
C689 C 0.11204 0.55121 0.22296 0.0
C690 C 0.06763 0.5338 0.30627 0.0
C691 C 0.07882 0.51385 0.31651 0.0
C692 C 0.06958 0.53366 0.28556 0.0
C693 C 0.08321 0.51385 0.27467 0.0
C694 C 0.09405 0.49368 0.285 0.0
C695 C 0.09168 0.49354 0.30566 0.0
loop_
_geom_bond_atom_site_label_1
_geom_bond_atom_site_label_2
_geom_bond_distance
_geom_bond_site_symmetry_2
_ccdc_geom_bond_type
Gd0 C3 2.818 . S
Gd0 O20 2.377 . S
Gd0 O22 2.448 . S
Gd0 O23 2.506 . S
Gd0 O24 2.435 . S
Gd0 O25 2.717 . S
Gd0 O27 2.395 1_455 S
Gd0 O31 2.327 . S
Gd1 C12 2.818 1_455 S
Gd1 O21 2.395 . S
Gd1 O25 2.327 . S
Gd1 O26 2.377 1_455 S
Gd1 O28 2.448 1_455 S
Gd1 O29 2.506 1_455 S
Gd1 O30 2.435 . S
Gd1 O31 2.717 . S
C2 O20 1.240 . S
C2 O21 1.240 . S
C3 Gd0 2.818 . S
C3 C4 1.510 . S
C3 O22 1.249 . S
C3 O23 1.252 . S
C4 C3 1.510 . S
C4 C5 1.404 . S
C4 C6 1.352 . S
C5 C4 1.404 . S
C5 C9 1.389 . S
C5 H32 0.930 . S
C6 C4 1.352 . S
C6 C8 1.374 . S
C6 H33 0.931 . S
C7 C8 1.359 . S
C7 C9 1.364 . S
C8 C6 1.374 . S
C8 C7 1.359 . S
C8 H34 0.931 . S
C9 C5 1.389 . S
C9 C7 1.364 . S
C9 H35 0.931 . S
C10 O24 1.256 . S
C10 O25 1.257 . S
C11 O26 1.240 . S
C11 O27 1.240 . S
C12 Gd1 2.818 1_655 S
C12 C13 1.510 . S
C12 O28 1.249 . S
C12 O29 1.252 . S
C13 C12 1.510 . S
C13 C14 1.404 . S
C13 C15 1.352 . S
C14 C13 1.404 . S
C14 C18 1.389 . S
C14 H36 0.930 . S
C15 C13 1.352 . S
C15 C17 1.374 . S
C15 H37 0.931 . S
C16 C17 1.359 . S
C16 C18 1.364 . S
C17 C15 1.374 . S
C17 C16 1.359 . S
C17 H38 0.931 . S
C18 C14 1.389 . S
C18 C16 1.364 . S
C18 H39 0.931 . S
C19 O30 1.256 . S
C19 O31 1.257 . S
O20 Gd0 2.377 . S
O20 C2 1.240 . S
O21 Gd1 2.395 . S
O21 C2 1.240 . S
O22 Gd0 2.448 . S
O22 C3 1.249 . S
O23 Gd0 2.506 . S
O23 C3 1.252 . S
O24 Gd0 2.435 . S
O24 C10 1.256 . S
O25 Gd0 2.717 . S
O25 Gd1 2.327 . S
O25 C10 1.257 . S
O26 Gd1 2.377 1_655 S
O26 C11 1.240 . S
O27 Gd0 2.395 1_655 S
O27 C11 1.240 . S
O28 Gd1 2.448 1_655 S
O28 C12 1.249 . S
O29 Gd1 2.506 1_655 S
O29 C12 1.252 . S
O30 Gd1 2.435 . S
O30 C19 1.256 . S
O31 Gd0 2.327 . S
O31 Gd1 2.717 . S
O31 C19 1.257 . S
H32 C5 0.930 . S
H33 C6 0.931 . S
H34 C8 0.931 . S
H35 C9 0.931 . S
H36 C14 0.930 . S
H37 C15 0.931 . S
H38 C17 0.931 . S
H39 C18 0.931 . S
Gd40 C43 2.818 . S
Gd40 O60 2.377 . S
Gd40 O62 2.448 . S
Gd40 O63 2.506 . S
Gd40 O64 2.435 . S
Gd40 O65 2.717 1_565 S
Gd40 O67 2.395 1_565 S
Gd40 O71 2.327 1_565 S
Gd41 C52 2.818 . S
Gd41 O61 2.395 1_545 S
Gd41 O65 2.327 . S
Gd41 O66 2.377 . S
Gd41 O68 2.448 . S
Gd41 O69 2.506 . S
Gd41 O70 2.435 . S
Gd41 O71 2.717 . S
C42 O60 1.240 . S
C42 O61 1.240 . S
C43 Gd40 2.818 . S
C43 C44 1.510 . S
C43 O62 1.249 . S
C43 O63 1.252 . S
C44 C43 1.510 . S
C44 C45 1.404 . S
C44 C46 1.352 . S
C45 C44 1.404 . S
C45 C49 1.389 . S
C45 H72 0.930 . S
C46 C44 1.352 . S
C46 C48 1.374 . S
C46 H73 0.931 . S
C47 C48 1.359 . S
C47 C49 1.364 . S
C48 C46 1.374 . S
C48 C47 1.359 . S
C48 H74 0.931 . S
C49 C45 1.389 . S
C49 C47 1.364 . S
C49 H75 0.931 . S
C50 O64 1.256 1_545 S
C50 O65 1.257 . S
C51 O66 1.240 . S
C51 O67 1.240 . S
C52 Gd41 2.818 . S
C52 C53 1.510 . S
C52 O68 1.249 . S
C52 O69 1.252 . S
C53 C52 1.510 . S
C53 C54 1.404 . S
C53 C55 1.352 . S
C54 C53 1.404 . S
C54 C58 1.389 . S
C54 H76 0.930 . S
C55 C53 1.352 . S
C55 C57 1.374 . S
C55 H77 0.931 . S
C56 C57 1.359 . S
C56 C58 1.364 . S
C57 C55 1.374 . S
C57 C56 1.359 . S
C57 H78 0.931 . S
C58 C54 1.389 . S
C58 C56 1.364 . S
C58 H79 0.931 . S
C59 O70 1.256 . S
C59 O71 1.257 . S
O60 Gd40 2.377 . S
O60 C42 1.240 . S
O61 Gd41 2.395 1_565 S
O61 C42 1.240 . S
O62 Gd40 2.448 . S
O62 C43 1.249 . S
O63 Gd40 2.506 . S
O63 C43 1.252 . S
O64 Gd40 2.435 . S
O64 C50 1.256 1_565 S
O65 Gd40 2.717 1_545 S
O65 Gd41 2.327 . S
O65 C50 1.257 . S
O66 Gd41 2.377 . S
O66 C51 1.240 . S
O67 Gd40 2.395 1_545 S
O67 C51 1.240 . S
O68 Gd41 2.448 . S
O68 C52 1.249 . S
O69 Gd41 2.506 . S
O69 C52 1.252 . S
O70 Gd41 2.435 . S
O70 C59 1.256 . S
O71 Gd40 2.327 1_545 S
O71 Gd41 2.717 . S
O71 C59 1.257 . S
H72 C45 0.930 . S
H73 C46 0.931 . S
H74 C48 0.931 . S
H75 C49 0.931 . S
H76 C54 0.930 . S
H77 C55 0.931 . S
H78 C57 0.931 . S
H79 C58 0.931 . S
Gd80 C83 2.818 . S
Gd80 O100 2.377 . S
Gd80 O102 2.448 . S
Gd80 O103 2.506 . S
Gd80 O104 2.435 . S
Gd80 O105 2.717 . S
Gd80 O107 2.395 . S
Gd80 O111 2.327 . S
Gd81 C92 2.818 . S
Gd81 O101 2.395 . S
Gd81 O105 2.327 . S
Gd81 O106 2.377 . S
Gd81 O108 2.448 . S
Gd81 O109 2.506 . S
Gd81 O110 2.435 . S
Gd81 O111 2.717 . S
C82 O100 1.240 . S
C82 O101 1.240 . S
C83 Gd80 2.818 . S
C83 C84 1.510 . S
C83 O102 1.249 . S
C83 O103 1.252 . S
C84 C83 1.510 . S
C84 C85 1.404 . S
C84 C86 1.352 . S
C85 C84 1.404 . S
C85 C89 1.389 . S
C85 H112 0.930 . S
C86 C84 1.352 . S
C86 C88 1.374 . S
C86 H113 0.931 . S
C87 C88 1.359 . S
C87 C89 1.364 . S
C88 C86 1.374 . S
C88 C87 1.359 . S
C88 H114 0.931 . S
C89 C85 1.389 . S
C89 C87 1.364 . S
C89 H115 0.931 . S
C90 O104 1.256 . S
C90 O105 1.257 . S
C91 O106 1.240 . S
C91 O107 1.240 . S
C92 Gd81 2.818 . S
C92 C93 1.510 . S
C92 O108 1.249 . S
C92 O109 1.252 . S
C93 C92 1.510 . S
C93 C94 1.404 . S
C93 C95 1.352 . S
C94 C93 1.404 . S
C94 C98 1.389 . S
C94 H116 0.930 . S
C95 C93 1.352 . S
C95 C97 1.374 . S
C95 H117 0.931 . S
C96 C97 1.359 . S
C96 C98 1.364 . S
C97 C95 1.374 . S
C97 C96 1.359 . S
C97 H118 0.931 . S
C98 C94 1.389 . S
C98 C96 1.364 . S
C98 H119 0.931 . S
C99 O110 1.256 . S
C99 O111 1.257 . S
O100 Gd80 2.377 . S
O100 C82 1.240 . S
O101 Gd81 2.395 . S
O101 C82 1.240 . S
O102 Gd80 2.448 . S
O102 C83 1.249 . S
O103 Gd80 2.506 . S
O103 C83 1.252 . S
O104 Gd80 2.435 . S
O104 C90 1.256 . S
O105 Gd80 2.717 . S
O105 Gd81 2.327 . S
O105 C90 1.257 . S
O106 Gd81 2.377 . S
O106 C91 1.240 . S
O107 Gd80 2.395 . S
O107 C91 1.240 . S
O108 Gd81 2.448 . S
O108 C92 1.249 . S
O109 Gd81 2.506 . S
O109 C92 1.252 . S
O110 Gd81 2.435 . S
O110 C99 1.256 . S
O111 Gd80 2.327 . S
O111 Gd81 2.717 . S
O111 C99 1.257 . S
H112 C85 0.930 . S
H113 C86 0.931 . S
H114 C88 0.931 . S
H115 C89 0.931 . S
H116 C94 0.930 . S
H117 C95 0.931 . S
H118 C97 0.931 . S
H119 C98 0.931 . S
C120 C121 1.384 . S
C120 H133 0.947 . S
C120 C155 1.382 . S
C121 C120 1.384 . S
C121 C122 1.378 . S
C122 C121 1.378 . S
C122 C123 1.378 . S
C122 H134 0.952 . S
C123 C122 1.378 . S
C123 H135 0.950 . S
C123 C154 1.383 . S
H124 C143 0.947 . S
H125 C144 0.946 . S
H126 C146 0.953 . S
H127 C147 0.945 . S
H128 C149 0.952 . S
H129 C150 0.949 . S
H130 C152 0.950 . S
H131 C153 0.948 . S
H132 C155 0.951 . S
H133 C120 0.947 . S
H134 C122 0.952 . S
H135 C123 0.950 . S
N136 C139 1.382 . S
N136 C141 1.363 1_545 S
N137 C139 1.371 . S
N137 C140 1.372 . S
N138 C140 1.361 1_565 S
N138 C141 1.377 . S
C139 N136 1.382 . S
C139 N137 1.371 . S
C139 C142 1.480 . S
C140 N137 1.372 . S
C140 N138 1.361 1_545 S
C140 C148 1.457 . S
C141 N136 1.363 1_565 S
C141 N138 1.377 . S
C141 C154 1.479 . S
C142 C139 1.480 . S
C142 C143 1.383 . S
C142 C147 1.385 . S
C143 H124 0.947 . S
C143 C142 1.383 . S
C143 C144 1.388 . S
C144 H125 0.946 . S
C144 C143 1.388 . S
C144 C145 1.384 . S
C145 C144 1.384 . S
C145 C146 1.377 . S
C146 H126 0.953 . S
C146 C145 1.377 . S
C146 C147 1.369 . S
C147 H127 0.945 . S
C147 C142 1.385 . S
C147 C146 1.369 . S
C148 C140 1.457 . S
C148 C149 1.372 . S
C148 C153 1.364 1_545 S
C149 H128 0.952 . S
C149 C148 1.372 . S
C149 C150 1.389 . S
C150 H129 0.949 . S
C150 C149 1.389 . S
C150 C151 1.387 . S
C151 C150 1.387 . S
C151 C152 1.372 1_545 S
C152 H130 0.950 . S
C152 C151 1.372 1_565 S
C152 C153 1.379 . S
C153 H131 0.948 . S
C153 C148 1.364 1_565 S
C153 C152 1.379 . S
C154 C123 1.383 . S
C154 C141 1.479 . S
C154 C155 1.398 . S
C155 C120 1.382 . S
C155 H132 0.951 . S
C155 C154 1.398 . S
C156 C157 1.384 . S
C156 H169 0.947 . S
C156 C191 1.382 . S
C157 C156 1.384 . S
C157 C158 1.378 . S
C158 C157 1.378 . S
C158 C159 1.378 . S
C158 H170 0.952 . S
C159 C158 1.378 . S
C159 H171 0.950 . S
C159 C190 1.383 . S
H160 C179 0.947 . S
H161 C180 0.946 . S
H162 C182 0.953 . S
H163 C183 0.945 . S
H164 C185 0.952 . S
H165 C186 0.949 . S
H166 C188 0.950 . S
H167 C189 0.948 . S
H168 C191 0.951 . S
H169 C156 0.947 . S
H170 C158 0.952 . S
H171 C159 0.950 . S
N172 C175 1.382 . S
N172 C177 1.363 . S
N173 C175 1.371 . S
N173 C176 1.372 . S
N174 C176 1.361 . S
N174 C177 1.377 . S
C175 N172 1.382 . S
C175 N173 1.371 . S
C175 C178 1.480 . S
C176 N173 1.372 . S
C176 N174 1.361 . S
C176 C184 1.457 . S
C177 N172 1.363 . S
C177 N174 1.377 . S
C177 C190 1.479 . S
C178 C175 1.480 . S
C178 C179 1.383 . S
C178 C183 1.385 . S
C179 H160 0.947 . S
C179 C178 1.383 . S
C179 C180 1.388 . S
C180 H161 0.946 . S
C180 C179 1.388 . S
C180 C181 1.384 . S
C181 C180 1.384 . S
C181 C182 1.377 . S
C182 H162 0.953 . S
C182 C181 1.377 . S
C182 C183 1.369 . S
C183 H163 0.945 . S
C183 C178 1.385 . S
C183 C182 1.369 . S
C184 C176 1.457 . S
C184 C185 1.372 . S
C184 C189 1.364 . S
C185 H164 0.952 . S
C185 C184 1.372 . S
C185 C186 1.389 . S
C186 H165 0.949 . S
C186 C185 1.389 . S
C186 C187 1.387 . S
C187 C186 1.387 . S
C187 C188 1.372 . S
C188 H166 0.950 . S
C188 C187 1.372 . S
C188 C189 1.379 . S
C189 H167 0.948 . S
C189 C184 1.364 . S
C189 C188 1.379 . S
C190 C159 1.383 . S
C190 C177 1.479 . S
C190 C191 1.398 . S
C191 C156 1.382 . S
C191 H168 0.951 . S
C191 C190 1.398 . S
C192 C193 1.384 . S
C192 H205 0.947 . S
C192 C227 1.382 . S
C193 C192 1.384 . S
C193 C194 1.378 . S
C194 C193 1.378 . S
C194 C195 1.378 . S
C194 H206 0.952 . S
C195 C194 1.378 . S
C195 H207 0.950 1_655 S
C195 C226 1.383 1_655 S
H196 C215 0.947 . S
H197 C216 0.946 . S
H198 C218 0.953 . S
H199 C219 0.945 . S
H200 C221 0.952 . S
H201 C222 0.949 . S
H202 C224 0.950 1_655 S
H203 C225 0.948 1_655 S
H204 C227 0.951 . S
H205 C192 0.947 . S
H206 C194 0.952 . S
H207 C195 0.950 1_455 S
N208 C211 1.382 . S
N208 C213 1.363 . S
N209 C211 1.371 . S
N209 C212 1.372 . S
N210 C212 1.361 . S
N210 C213 1.377 . S
C211 N208 1.382 . S
C211 N209 1.371 . S
C211 C214 1.480 . S
C212 N209 1.372 . S
C212 N210 1.361 . S
C212 C220 1.457 . S
C213 N208 1.363 . S
C213 N210 1.377 . S
C213 C226 1.489 . S
C214 C211 1.480 . S
C214 C215 1.383 . S
C214 C219 1.385 . S
C215 H196 0.947 . S
C215 C214 1.383 . S
C215 C216 1.388 . S
C216 H197 0.946 . S
C216 C215 1.388 . S
C216 C217 1.384 . S
C217 C216 1.384 . S
C217 C218 1.377 . S
C218 H198 0.953 . S
C218 C217 1.377 . S
C218 C219 1.369 . S
C219 H199 0.945 . S
C219 C214 1.385 . S
C219 C218 1.369 . S
C220 C212 1.457 . S
C220 C221 1.372 . S
C220 C225 1.364 . S
C221 H200 0.952 . S
C221 C220 1.372 . S
C221 C222 1.389 . S
C222 H201 0.949 . S
C222 C221 1.389 . S
C222 C223 1.387 . S
C223 C222 1.387 . S
C223 C224 1.372 . S
C224 H202 0.950 1_455 S
C224 C223 1.372 . S
C224 C225 1.379 . S
C225 H203 0.948 1_455 S
C225 C220 1.364 . S
C225 C224 1.379 . S
C226 C195 1.383 1_455 S
C226 C213 1.489 . S
C226 C227 1.388 1_455 S
C227 C192 1.382 . S
C227 H204 0.951 . S
C227 C226 1.388 1_655 S
C228 C229 1.384 . S
C228 H241 0.947 . S
C228 C263 1.382 . S
C229 C228 1.384 . S
C229 C230 1.378 . S
C230 C229 1.378 . S
C230 C231 1.378 . S
C230 H242 0.952 . S
C231 C230 1.378 . S
C231 H243 0.950 . S
C231 C262 1.383 . S
H232 C251 0.947 . S
H233 C252 0.946 . S
H234 C254 0.953 . S
H235 C255 0.945 . S
H236 C257 0.952 . S
H237 C258 0.949 . S
H238 C260 0.950 . S
H239 C261 0.948 . S
H240 C263 0.951 . S
H241 C228 0.947 . S
H242 C230 0.952 . S
H243 C231 0.950 . S
N244 C247 1.382 1_455 S
N244 C249 1.363 . S
N245 C247 1.371 . S
N245 C248 1.372 1_655 S
N246 C248 1.361 . S
N246 C249 1.377 . S
C247 N244 1.382 1_655 S
C247 N245 1.371 . S
C247 C250 1.480 . S
C248 N245 1.372 1_455 S
C248 N246 1.361 . S
C248 C256 1.457 . S
C249 N244 1.363 . S
C249 N246 1.377 . S
C249 C262 1.479 . S
C250 C247 1.480 . S
C250 C251 1.383 . S
C250 C255 1.385 . S
C251 H232 0.947 . S
C251 C250 1.383 . S
C251 C252 1.388 . S
C252 H233 0.946 . S
C252 C251 1.388 . S
C252 C253 1.384 . S
C253 C252 1.384 . S
C253 C254 1.377 . S
C254 H234 0.953 . S
C254 C253 1.377 . S
C254 C255 1.369 . S
C255 H235 0.945 . S
C255 C250 1.385 . S
C255 C254 1.369 . S
C256 C248 1.457 . S
C256 C257 1.372 1_455 S
C256 C261 1.364 . S
C257 H236 0.952 . S
C257 C256 1.372 1_655 S
C257 C258 1.389 . S
C258 H237 0.949 . S
C258 C257 1.389 . S
C258 C259 1.374 1_655 S
C259 C258 1.374 1_455 S
C259 C260 1.386 . S
C260 H238 0.950 . S
C260 C259 1.386 . S
C260 C261 1.379 . S
C261 H239 0.948 . S
C261 C256 1.364 . S
C261 C260 1.379 . S
C262 C231 1.383 . S
C262 C249 1.479 . S
C262 C263 1.398 . S
C263 C228 1.382 . S
C263 H240 0.951 . S
C263 C262 1.398 . S
C264 C265 1.384 . S
C264 H277 0.947 . S
C264 C299 1.382 . S
C265 C264 1.384 . S
C265 C266 1.378 . S
C266 C265 1.378 . S
C266 C267 1.378 . S
C266 H278 0.952 . S
C267 C266 1.378 . S
C267 H279 0.950 . S
C267 C298 1.383 . S
H268 C287 0.947 . S
H269 C288 0.946 . S
H270 C290 0.953 . S
H271 C291 0.945 . S
H272 C293 0.952 . S
H273 C294 0.949 . S
H274 C296 0.950 . S
H275 C297 0.948 . S
H276 C299 0.951 . S
H277 C264 0.947 . S
H278 C266 0.952 . S
H279 C267 0.950 . S
N280 C283 1.382 1_545 S
N280 C285 1.363 . S
N281 C283 1.371 . S
N281 C284 1.372 1_565 S
N282 C284 1.361 . S
N282 C285 1.377 . S
C283 N280 1.382 1_565 S
C283 N281 1.371 . S
C283 C286 1.480 . S
C284 N281 1.372 1_545 S
C284 N282 1.361 . S
C284 C292 1.457 . S
C285 N280 1.363 . S
C285 N282 1.377 . S
C285 C298 1.479 . S
C286 C283 1.480 . S
C286 C287 1.383 . S
C286 C291 1.385 . S
C287 H268 0.947 . S
C287 C286 1.383 . S
C287 C288 1.388 . S
C288 H269 0.946 . S
C288 C287 1.388 . S
C288 C289 1.384 . S
C289 C288 1.384 . S
C289 C290 1.377 . S
C290 H270 0.953 . S
C290 C289 1.377 . S
C290 C291 1.369 . S
C291 H271 0.945 . S
C291 C286 1.385 . S
C291 C290 1.369 . S
C292 C284 1.457 . S
C292 C293 1.372 1_545 S
C292 C297 1.364 . S
C293 H272 0.952 . S
C293 C292 1.372 1_565 S
C293 C294 1.389 . S
C294 H273 0.949 . S
C294 C293 1.389 . S
C294 C295 1.387 . S
C295 C294 1.387 . S
C295 C296 1.372 1_565 S
C296 H274 0.950 . S
C296 C295 1.372 1_545 S
C296 C297 1.379 . S
C297 H275 0.948 . S
C297 C292 1.364 . S
C297 C296 1.379 . S
C298 C267 1.383 . S
C298 C285 1.479 . S
C298 C299 1.398 . S
C299 C264 1.382 . S
C299 H276 0.951 . S
C299 C298 1.398 . S
C300 C301 1.384 . S
C300 H313 0.947 . S
C300 C335 1.382 . S
C301 C300 1.384 . S
C301 C302 1.378 . S
C302 C301 1.378 . S
C302 C303 1.378 . S
C302 H314 0.952 . S
C303 C302 1.378 . S
C303 H315 0.950 . S
C303 C334 1.383 . S
H304 C323 0.947 . S
H305 C324 0.946 . S
H306 C326 0.953 . S
H307 C327 0.945 . S
H308 C329 0.952 . S
H309 C330 0.949 . S
H310 C332 0.950 . S
H311 C333 0.948 . S
H312 C335 0.951 . S
H313 C300 0.947 . S
H314 C302 0.952 . S
H315 C303 0.950 . S
N316 C319 1.382 . S
N316 C321 1.363 . S
N317 C319 1.371 . S
N317 C320 1.372 . S
N318 C320 1.361 . S
N318 C321 1.377 . S
C319 N316 1.382 . S
C319 N317 1.371 . S
C319 C322 1.480 . S
C320 N317 1.372 . S
C320 N318 1.361 . S
C320 C328 1.457 . S
C321 N316 1.363 . S
C321 N318 1.377 . S
C321 C334 1.479 . S
C322 C319 1.480 . S
C322 C323 1.383 . S
C322 C327 1.385 . S
C323 H304 0.947 . S
C323 C322 1.383 . S
C323 C324 1.388 . S
C324 H305 0.946 . S
C324 C323 1.388 . S
C324 C325 1.384 . S
C325 C324 1.384 . S
C325 C326 1.377 . S
C326 H306 0.953 . S
C326 C325 1.377 . S
C326 C327 1.369 . S
C327 H307 0.945 . S
C327 C322 1.385 . S
C327 C326 1.369 . S
C328 C320 1.457 . S
C328 C329 1.372 . S
C328 C333 1.364 . S
C329 H308 0.952 . S
C329 C328 1.372 . S
C329 C330 1.389 . S
C330 H309 0.949 . S
C330 C329 1.389 . S
C330 C331 1.387 . S
C331 C330 1.387 . S
C331 C332 1.372 . S
C332 H310 0.950 . S
C332 C331 1.372 . S
C332 C333 1.379 . S
C333 H311 0.948 . S
C333 C328 1.364 . S
C333 C332 1.379 . S
C334 C303 1.383 . S
C334 C321 1.479 . S
C334 C335 1.398 . S
C335 C300 1.382 . S
C335 H312 0.951 . S
C335 C334 1.398 . S
H336 C344 0.950 . S
H337 C349 0.950 . S
H338 C346 0.950 . S
H339 C348 0.950 . S
H340 C350 0.950 . S
H341 C352 0.950 . S
H342 C354 0.950 . S
H343 C355 0.950 . S
C344 H336 0.950 . S
C344 C345 1.386 . S
C344 C346 1.391 . S
C345 C344 1.386 . S
C345 C349 1.393 . S
C346 H338 0.950 . S
C346 C344 1.391 . S
C346 C347 1.400 . S
C347 C346 1.400 . S
C347 C348 1.398 . S
C347 C353 1.491 . S
C348 H339 0.950 . S
C348 C347 1.398 . S
C348 C349 1.391 . S
C349 H337 0.950 . S
C349 C345 1.393 . S
C349 C348 1.391 . S
C350 H340 0.950 . S
C350 C351 1.386 . S
C350 C352 1.391 . S
C351 C350 1.386 . S
C351 C355 1.393 . S
C352 H341 0.950 . S
C352 C350 1.391 . S
C352 C353 1.400 . S
C353 C347 1.491 . S
C353 C352 1.400 . S
C353 C354 1.398 . S
C354 H342 0.950 . S
C354 C353 1.398 . S
C354 C355 1.391 . S
C355 H343 0.950 . S
C355 C351 1.393 . S
C355 C354 1.391 . S
H356 C364 0.950 . S
H357 C369 0.950 . S
H358 C366 0.950 . S
H359 C368 0.950 . S
H360 C370 0.950 . S
H361 C372 0.950 . S
H362 C374 0.950 . S
H363 C375 0.950 . S
C364 H356 0.950 . S
C364 C365 1.386 . S
C364 C366 1.391 . S
C365 C364 1.386 . S
C365 C369 1.393 . S
C366 H358 0.950 . S
C366 C364 1.391 . S
C366 C367 1.400 . S
C367 C366 1.400 . S
C367 C368 1.398 . S
C367 C373 1.491 . S
C368 H359 0.950 . S
C368 C367 1.398 . S
C368 C369 1.391 . S
C369 H357 0.950 . S
C369 C365 1.393 . S
C369 C368 1.391 . S
C370 H360 0.950 . S
C370 C371 1.386 . S
C370 C372 1.391 . S
C371 C370 1.386 . S
C371 C375 1.393 . S
C372 H361 0.950 . S
C372 C370 1.391 . S
C372 C373 1.400 . S
C373 C367 1.491 . S
C373 C372 1.400 . S
C373 C374 1.398 . S
C374 H362 0.950 . S
C374 C373 1.398 . S
C374 C375 1.391 . S
C375 H363 0.950 . S
C375 C371 1.393 . S
C375 C374 1.391 . S
H376 C384 0.950 . S
H377 C389 0.950 . S
H378 C386 0.950 . S
H379 C388 0.950 . S
H380 C390 0.950 . S
H381 C392 0.950 . S
H382 C394 0.950 . S
H383 C395 0.950 . S
C384 H376 0.950 . S
C384 C385 1.386 . S
C384 C386 1.391 . S
C385 C384 1.386 . S
C385 C389 1.393 . S
C386 H378 0.950 . S
C386 C384 1.391 . S
C386 C387 1.400 . S
C387 C386 1.400 . S
C387 C388 1.398 . S
C387 C393 1.491 . S
C388 H379 0.950 . S
C388 C387 1.398 . S
C388 C389 1.391 . S
C389 H377 0.950 . S
C389 C385 1.393 . S
C389 C388 1.391 . S
C390 H380 0.950 . S
C390 C391 1.386 . S
C390 C392 1.391 . S
C391 C390 1.386 . S
C391 C395 1.393 . S
C392 H381 0.950 . S
C392 C390 1.391 . S
C392 C393 1.400 . S
C393 C387 1.491 . S
C393 C392 1.400 . S
C393 C394 1.398 . S
C394 H382 0.950 . S
C394 C393 1.398 . S
C394 C395 1.391 . S
C395 H383 0.950 . S
C395 C391 1.393 . S
C395 C394 1.391 . S
H396 C404 0.950 . S
H397 C409 0.950 . S
H398 C406 0.950 . S
H399 C408 0.950 . S
H400 C410 0.950 . S
H401 C412 0.950 . S
H402 C414 0.950 . S
H403 C415 0.950 . S
C404 H396 0.950 . S
C404 C405 1.386 . S
C404 C406 1.391 . S
C405 C404 1.386 . S
C405 C409 1.393 . S
C406 H398 0.950 . S
C406 C404 1.391 . S
C406 C407 1.400 . S
C407 C406 1.400 . S
C407 C408 1.398 . S
C407 C413 1.491 . S
C408 H399 0.950 . S
C408 C407 1.398 . S
C408 C409 1.391 . S
C409 H397 0.950 . S
C409 C405 1.393 . S
C409 C408 1.391 . S
C410 H400 0.950 . S
C410 C411 1.386 . S
C410 C412 1.391 . S
C411 C410 1.386 . S
C411 C415 1.393 . S
C412 H401 0.950 . S
C412 C410 1.391 . S
C412 C413 1.400 . S
C413 C407 1.491 . S
C413 C412 1.400 . S
C413 C414 1.398 . S
C414 H402 0.950 . S
C414 C413 1.398 . S
C414 C415 1.391 . S
C415 H403 0.950 . S
C415 C411 1.393 . S
C415 C414 1.391 . S
H416 C424 0.950 . S
H417 C429 0.950 . S
H418 C426 0.950 . S
H419 C428 0.950 . S
H420 C430 0.950 . S
H421 C432 0.950 . S
H422 C434 0.950 . S
H423 C435 0.950 . S
C424 H416 0.950 . S
C424 C425 1.386 . S
C424 C426 1.391 . S
C425 C424 1.386 . S
C425 C429 1.393 . S
C426 H418 0.950 . S
C426 C424 1.391 . S
C426 C427 1.400 . S
C427 C426 1.400 . S
C427 C428 1.398 . S
C427 C433 1.491 . S
C428 H419 0.950 . S
C428 C427 1.398 . S
C428 C429 1.391 . S
C429 H417 0.950 . S
C429 C425 1.393 . S
C429 C428 1.391 . S
C430 H420 0.950 . S
C430 C431 1.386 . S
C430 C432 1.391 . S
C431 C430 1.386 . S
C431 C435 1.393 . S
C432 H421 0.950 . S
C432 C430 1.391 . S
C432 C433 1.400 . S
C433 C427 1.491 . S
C433 C432 1.400 . S
C433 C434 1.398 . S
C434 H422 0.950 . S
C434 C433 1.398 . S
C434 C435 1.391 . S
C435 H423 0.950 . S
C435 C431 1.393 . S
C435 C434 1.391 . S
H436 C444 0.950 . S
H437 C449 0.950 . S
H438 C446 0.950 . S
H439 C448 0.950 . S
H440 C450 0.950 . S
H441 C452 0.950 . S
H442 C454 0.950 . S
H443 C455 0.950 . S
C444 H436 0.950 . S
C444 C445 1.386 . S
C444 C446 1.391 . S
C445 C444 1.386 . S
C445 C449 1.393 . S
C446 H438 0.950 . S
C446 C444 1.391 . S
C446 C447 1.400 . S
C447 C446 1.400 . S
C447 C448 1.398 . S
C447 C453 1.491 . S
C448 H439 0.950 . S
C448 C447 1.398 . S
C448 C449 1.391 . S
C449 H437 0.950 . S
C449 C445 1.393 . S
C449 C448 1.391 . S
C450 H440 0.950 . S
C450 C451 1.386 . S
C450 C452 1.391 . S
C451 C450 1.386 . S
C451 C455 1.393 . S
C452 H441 0.950 . S
C452 C450 1.391 . S
C452 C453 1.400 . S
C453 C447 1.491 . S
C453 C452 1.400 . S
C453 C454 1.398 . S
C454 H442 0.950 . S
C454 C453 1.398 . S
C454 C455 1.391 . S
C455 H443 0.950 . S
C455 C451 1.393 . S
C455 C454 1.391 . S
H456 C464 0.950 . S
H457 C469 0.950 . S
H458 C466 0.950 . S
H459 C468 0.950 . S
H460 C470 0.950 . S
H461 C472 0.950 . S
H462 C474 0.950 . S
H463 C475 0.950 . S
C464 H456 0.950 . S
C464 C465 1.386 . S
C464 C466 1.391 . S
C465 C464 1.386 . S
C465 C469 1.393 . S
C466 H458 0.950 . S
C466 C464 1.391 . S
C466 C467 1.400 . S
C467 C466 1.400 . S
C467 C468 1.398 . S
C467 C473 1.491 . S
C468 H459 0.950 . S
C468 C467 1.398 . S
C468 C469 1.391 . S
C469 H457 0.950 . S
C469 C465 1.393 . S
C469 C468 1.391 . S
C470 H460 0.950 . S
C470 C471 1.386 . S
C470 C472 1.391 . S
C471 C470 1.386 . S
C471 C475 1.393 . S
C472 H461 0.950 . S
C472 C470 1.391 . S
C472 C473 1.400 . S
C473 C467 1.491 . S
C473 C472 1.400 . S
C473 C474 1.398 . S
C474 H462 0.950 . S
C474 C473 1.398 . S
C474 C475 1.391 . S
C475 H463 0.950 . S
C475 C471 1.393 . S
C475 C474 1.391 . S
H476 C484 0.950 . S
H477 C489 0.950 . S
H478 C486 0.950 . S
H479 C488 0.950 . S
H480 C490 0.950 . S
H481 C492 0.950 . S
H482 C494 0.950 . S
H483 C495 0.950 . S
C484 H476 0.950 . S
C484 C485 1.386 . S
C484 C486 1.391 . S
C485 C484 1.386 . S
C485 C489 1.393 . S
C486 H478 0.950 . S
C486 C484 1.391 . S
C486 C487 1.400 . S
C487 C486 1.400 . S
C487 C488 1.398 . S
C487 C493 1.491 . S
C488 H479 0.950 . S
C488 C487 1.398 . S
C488 C489 1.391 . S
C489 H477 0.950 . S
C489 C485 1.393 . S
C489 C488 1.391 . S
C490 H480 0.950 . S
C490 C491 1.386 . S
C490 C492 1.391 . S
C491 C490 1.386 . S
C491 C495 1.393 . S
C492 H481 0.950 . S
C492 C490 1.391 . S
C492 C493 1.400 . S
C493 C487 1.491 . S
C493 C492 1.400 . S
C493 C494 1.398 . S
C494 H482 0.950 . S
C494 C493 1.398 . S
C494 C495 1.391 . S
C495 H483 0.950 . S
C495 C491 1.393 . S
C495 C494 1.391 . S
H496 C504 0.950 . S
H497 C509 0.950 . S
H498 C506 0.950 . S
H499 C508 0.950 . S
H500 C510 0.950 . S
H501 C512 0.950 . S
H502 C514 0.950 . S
H503 C515 0.950 . S
C504 H496 0.950 . S
C504 C505 1.386 . S
C504 C506 1.391 . S
C505 C504 1.386 . S
C505 C509 1.393 . S
C506 H498 0.950 . S
C506 C504 1.391 . S
C506 C507 1.400 . S
C507 C506 1.400 . S
C507 C508 1.398 . S
C507 C513 1.491 . S
C508 H499 0.950 . S
C508 C507 1.398 . S
C508 C509 1.391 . S
C509 H497 0.950 . S
C509 C505 1.393 . S
C509 C508 1.391 . S
C510 H500 0.950 . S
C510 C511 1.386 . S
C510 C512 1.391 . S
C511 C510 1.386 . S
C511 C515 1.393 . S
C512 H501 0.950 . S
C512 C510 1.391 . S
C512 C513 1.400 . S
C513 C507 1.491 . S
C513 C512 1.400 . S
C513 C514 1.398 . S
C514 H502 0.950 . S
C514 C513 1.398 . S
C514 C515 1.391 . S
C515 H503 0.950 . S
C515 C511 1.393 . S
C515 C514 1.391 . S
H516 C524 0.950 . S
H517 C529 0.950 . S
H518 C526 0.950 . S
H519 C528 0.950 . S
H520 C530 0.950 . S
H521 C532 0.950 . S
H522 C534 0.950 . S
H523 C535 0.950 . S
C524 H516 0.950 . S
C524 C525 1.386 . S
C524 C526 1.391 . S
C525 C524 1.386 . S
C525 C529 1.393 . S
C526 H518 0.950 . S
C526 C524 1.391 . S
C526 C527 1.400 . S
C527 C526 1.400 . S
C527 C528 1.398 . S
C527 C533 1.491 . S
C528 H519 0.950 . S
C528 C527 1.398 . S
C528 C529 1.391 . S
C529 H517 0.950 . S
C529 C525 1.393 . S
C529 C528 1.391 . S
C530 H520 0.950 . S
C530 C531 1.386 . S
C530 C532 1.391 . S
C531 C530 1.386 . S
C531 C535 1.393 . S
C532 H521 0.950 . S
C532 C530 1.391 . S
C532 C533 1.400 . S
C533 C527 1.491 . S
C533 C532 1.400 . S
C533 C534 1.398 . S
C534 H522 0.950 . S
C534 C533 1.398 . S
C534 C535 1.391 . S
C535 H523 0.950 . S
C535 C531 1.393 . S
C535 C534 1.391 . S
H536 C544 0.950 . S
H537 C549 0.950 . S
H538 C546 0.950 . S
H539 C548 0.950 . S
H540 C550 0.950 . S
H541 C552 0.950 . S
H542 C554 0.950 . S
H543 C555 0.950 . S
C544 H536 0.950 . S
C544 C545 1.386 . S
C544 C546 1.391 . S
C545 C544 1.386 . S
C545 C549 1.393 . S
C546 H538 0.950 . S
C546 C544 1.391 . S
C546 C547 1.400 . S
C547 C546 1.400 . S
C547 C548 1.398 . S
C547 C553 1.491 . S
C548 H539 0.950 . S
C548 C547 1.398 . S
C548 C549 1.391 . S
C549 H537 0.950 . S
C549 C545 1.393 . S
C549 C548 1.391 . S
C550 H540 0.950 . S
C550 C551 1.386 . S
C550 C552 1.391 . S
C551 C550 1.386 . S
C551 C555 1.393 . S
C552 H541 0.950 . S
C552 C550 1.391 . S
C552 C553 1.400 . S
C553 C547 1.491 . S
C553 C552 1.400 . S
C553 C554 1.398 . S
C554 H542 0.950 . S
C554 C553 1.398 . S
C554 C555 1.391 . S
C555 H543 0.950 . S
C555 C551 1.393 . S
C555 C554 1.391 . S
H556 C564 0.950 . S
H557 C569 0.950 . S
H558 C566 0.950 . S
H559 C568 0.950 . S
H560 C570 0.950 . S
H561 C572 0.950 . S
H562 C574 0.950 . S
H563 C575 0.950 . S
C564 H556 0.950 . S
C564 C565 1.386 . S
C564 C566 1.391 . S
C565 C564 1.386 . S
C565 C569 1.393 . S
C566 H558 0.950 . S
C566 C564 1.391 . S
C566 C567 1.400 . S
C567 C566 1.400 . S
C567 C568 1.398 . S
C567 C573 1.491 . S
C568 H559 0.950 . S
C568 C567 1.398 . S
C568 C569 1.391 . S
C569 H557 0.950 . S
C569 C565 1.393 . S
C569 C568 1.391 . S
C570 H560 0.950 . S
C570 C571 1.386 . S
C570 C572 1.391 . S
C571 C570 1.386 . S
C571 C575 1.393 . S
C572 H561 0.950 . S
C572 C570 1.391 . S
C572 C573 1.400 . S
C573 C567 1.491 . S
C573 C572 1.400 . S
C573 C574 1.398 . S
C574 H562 0.950 . S
C574 C573 1.398 . S
C574 C575 1.391 . S
C575 H563 0.950 . S
C575 C571 1.393 . S
C575 C574 1.391 . S
H576 C584 0.950 . S
H577 C589 0.960 . S
H578 C586 0.950 . S
H579 C588 0.950 1_655 S
H580 C590 0.950 1_655 S
H581 C592 0.950 1_655 S
H582 C594 0.950 . S
H583 C595 0.950 . S
C584 H576 0.950 . S
C584 C585 1.386 . S
C584 C586 1.391 . S
C585 C584 1.386 . S
C585 C589 1.383 1_455 S
C586 H578 0.950 . S
C586 C584 1.391 . S
C586 C587 1.400 . S
C587 C586 1.400 . S
C587 C588 1.398 . S
C587 C593 1.491 . S
C588 H579 0.950 1_455 S
C588 C587 1.398 . S
C588 C589 1.390 1_455 S
C589 H577 0.960 . S
C589 C585 1.383 1_655 S
C589 C588 1.390 1_655 S
C590 H580 0.950 1_455 S
C590 C591 1.385 1_554 S
C590 C592 1.391 . S
C591 C590 1.385 1_556 S
C591 C595 1.392 1_556 S
C592 H581 0.950 1_455 S
C592 C590 1.391 . S
C592 C593 1.400 . S
C593 C587 1.491 . S
C593 C592 1.400 . S
C593 C594 1.398 . S
C594 H582 0.950 . S
C594 C593 1.398 . S
C594 C595 1.391 . S
C595 H583 0.950 . S
C595 C591 1.392 1_554 S
C595 C594 1.391 . S
H596 C604 0.950 . S
H597 C609 0.950 . S
H598 C606 0.950 . S
H599 C608 0.950 . S
H600 C610 0.950 . S
H601 C612 0.950 . S
H602 C614 0.950 . S
H603 C615 0.950 . S
C604 H596 0.950 . S
C604 C605 1.386 . S
C604 C606 1.391 . S
C605 C604 1.386 . S
C605 C609 1.393 1_545 S
C606 H598 0.950 . S
C606 C604 1.391 . S
C606 C607 1.400 . S
C607 C606 1.400 . S
C607 C608 1.398 1_545 S
C607 C613 1.491 . S
C608 H599 0.950 . S
C608 C607 1.398 1_565 S
C608 C609 1.391 . S
C609 H597 0.950 . S
C609 C605 1.393 1_565 S
C609 C608 1.391 . S
C610 H600 0.950 . S
C610 C611 1.386 1_565 S
C610 C612 1.391 . S
C611 C610 1.386 1_545 S
C611 C615 1.393 . S
C612 H601 0.950 . S
C612 C610 1.391 . S
C612 C613 1.400 1_565 S
C613 C607 1.491 . S
C613 C612 1.400 1_545 S
C613 C614 1.398 . S
C614 H602 0.950 . S
C614 C613 1.398 . S
C614 C615 1.391 . S
C615 H603 0.950 . S
C615 C611 1.393 . S
C615 C614 1.391 . S
H616 C624 0.950 . S
H617 C629 0.950 . S
H618 C626 0.950 . S
H619 C628 0.950 . S
H620 C630 0.950 . S
H621 C632 0.950 . S
H622 C634 0.950 . S
H623 C635 0.950 . S
C624 H616 0.950 . S
C624 C625 1.386 . S
C624 C626 1.391 . S
C625 C624 1.386 . S
C625 C629 1.393 . S
C626 H618 0.950 . S
C626 C624 1.391 . S
C626 C627 1.400 . S
C627 C626 1.400 . S
C627 C628 1.398 . S
C627 C633 1.491 . S
C628 H619 0.950 . S
C628 C627 1.398 . S
C628 C629 1.391 . S
C629 H617 0.950 . S
C629 C625 1.393 . S
C629 C628 1.391 . S
C630 H620 0.950 . S
C630 C631 1.386 . S
C630 C632 1.391 . S
C631 C630 1.386 . S
C631 C635 1.393 . S
C632 H621 0.950 . S
C632 C630 1.391 . S
C632 C633 1.400 . S
C633 C627 1.491 . S
C633 C632 1.400 . S
C633 C634 1.398 . S
C634 H622 0.950 . S
C634 C633 1.398 . S
C634 C635 1.391 . S
C635 H623 0.950 . S
C635 C631 1.393 . S
C635 C634 1.391 . S
H636 C644 0.950 . S
H637 C649 0.950 . S
H638 C646 0.950 . S
H639 C648 0.938 1_565 S
H640 C650 0.950 . S
H641 C652 0.935 . S
H642 C654 0.969 . S
H643 C655 0.950 . S
C644 H636 0.950 . S
C644 C645 1.386 . S
C644 C646 1.391 . S
C645 C644 1.386 . S
C645 C649 1.393 . S
C646 H638 0.950 . S
C646 C644 1.391 . S
C646 C647 1.400 . S
C647 C646 1.400 . S
C647 C648 1.408 . S
C647 C653 1.491 . S
C648 H639 0.938 1_545 S
C648 C647 1.408 . S
C648 C649 1.393 . S
C649 H637 0.950 . S
C649 C645 1.393 . S
C649 C648 1.393 . S
C650 H640 0.950 . S
C650 C651 1.386 . S
C650 C652 1.391 . S
C651 C650 1.386 . S
C651 C655 1.393 . S
C652 H641 0.935 . S
C652 C650 1.391 . S
C652 C653 1.399 1_565 S
C653 C647 1.491 . S
C653 C652 1.399 1_545 S
C653 C654 1.385 . S
C654 H642 0.969 . S
C654 C653 1.385 . S
C654 C655 1.388 1_545 S
C655 H643 0.950 . S
C655 C651 1.393 . S
C655 C654 1.388 1_565 S
H656 C664 0.950 . S
H657 C669 0.950 . S
H658 C666 0.950 . S
H659 C668 0.950 . S
H660 C670 0.950 . S
H661 C672 0.950 . S
H662 C674 0.950 . S
H663 C675 0.950 . S
C664 H656 0.950 . S
C664 C665 1.386 . S
C664 C666 1.391 . S
C665 C664 1.386 . S
C665 C669 1.393 . S
C666 H658 0.950 . S
C666 C664 1.391 . S
C666 C667 1.400 . S
C667 C666 1.400 . S
C667 C668 1.398 . S
C667 C673 1.491 . S
C668 H659 0.950 . S
C668 C667 1.398 . S
C668 C669 1.391 . S
C669 H657 0.950 . S
C669 C665 1.393 . S
C669 C668 1.391 . S
C670 H660 0.950 . S
C670 C671 1.386 . S
C670 C672 1.391 . S
C671 C670 1.386 . S
C671 C675 1.393 . S
C672 H661 0.950 . S
C672 C670 1.391 . S
C672 C673 1.400 . S
C673 C667 1.491 . S
C673 C672 1.400 . S
C673 C674 1.398 . S
C674 H662 0.950 . S
C674 C673 1.398 . S
C674 C675 1.391 . S
C675 H663 0.950 . S
C675 C671 1.393 . S
C675 C674 1.391 . S
H676 C684 0.950 . S
H677 C689 0.950 . S
H678 C686 0.950 . S
H679 C688 0.950 . S
H680 C690 0.950 . S
H681 C692 0.950 . S
H682 C694 0.950 . S
H683 C695 0.950 . S
C684 H676 0.950 . S
C684 C685 1.386 1_655 S
C684 C686 1.391 . S
C685 C684 1.386 1_455 S
C685 C689 1.393 . S
C686 H678 0.950 . S
C686 C684 1.391 . S
C686 C687 1.400 1_655 S
C687 C686 1.400 1_455 S
C687 C688 1.398 . S
C687 C693 1.491 . S
C688 H679 0.950 . S
C688 C687 1.398 . S
C688 C689 1.391 . S
C689 H677 0.950 . S
C689 C685 1.393 . S
C689 C688 1.391 . S
C690 H680 0.950 . S
C690 C691 1.386 1_455 S
C690 C692 1.391 . S
C691 C690 1.386 1_655 S
C691 C695 1.393 . S
C692 H681 0.950 . S
C692 C690 1.391 . S
C692 C693 1.400 . S
C693 C687 1.491 . S
C693 C692 1.400 . S
C693 C694 1.398 1_455 S
C694 H682 0.950 . S
C694 C693 1.398 1_655 S
C694 C695 1.391 . S
C695 H683 0.950 . S
C695 C691 1.393 . S
C695 C694 1.391 . S
C345 C7 0.673 . S
C351 C325 0.653 . S
C365 C51 1.911 . S
C371 C253 1.834 . S
C385 C87 1.210 . S
C391 C289 1.220 . S
C405 C16 0.392 . S
C411 C301 0.336 . S
C431 C229 2.009 . S
C425 C42 2.059 . S
C451 C265 1.341 . S
C445 C96 1.332 . S
C465 C47 1.203 . S
C471 C181 1.196 . S
C485 C91 3.115 . S
C491 C193 3.064 . S
C505 C2 2.093 . S
C511 C121 2.057 . S
C531 C157 1.320 . S
C525 C56 1.321 . S
C551 C217 2.916 . S
C545 C82 2.992 . S
C565 C11 1.904 . S
C571 C145 1.853 . S
C591 C223 1.770 . S
C585 C19 1.717 . S
C605 C50 1.328 . S
C611 C151 1.380 . S
C625 C99 1.476 . S
C631 C187 1.509 . S
C651 C295 1.478 . S
C645 C59 1.459 . S
C671 C331 1.124 1_556 S
C665 C90 1.099 . S
C685 C10 1.326 . S
C691 C259 1.369 1_655 S
