# Generated by pormake.
# Topology zzz, (3,6)-cn, num edge types: 1
# Building blocks:
#     Node 0, Type 0, BuildingBlock: VETTIZ_charged_linker_0, # of connection points: 3
#     Node 1, Type 0, BuildingBlock: VETTIZ_charged_linker_0, # of connection points: 3
#     Node 2, Type 0, BuildingBlock: VETTIZ_charged_linker_0, # of connection points: 3
#     Node 3, Type 0, BuildingBlock: VETTIZ_charged_linker_0, # of connection points: 3
#     Node 4, Type 0, BuildingBlock: VETTIZ_charged_linker_0, # of connection points: 3
#     Node 5, Type 0, BuildingBlock: VETTIZ_charged_linker_0, # of connection points: 3
#     Node 6, Type 0, BuildingBlock: VETTIZ_charged_linker_0, # of connection points: 3
#     Node 7, Type 0, BuildingBlock: VETTIZ_charged_linker_0, # of connection points: 3
#     Node 8, Type 1, BuildingBlock: PAMTOO_clean_sbu_0, # of connection points: 6
#     Node 9, Type 1, BuildingBlock: PAMTOO_clean_sbu_0, # of connection points: 6
#     Node 10, Type 1, BuildingBlock: PAMTOO_clean_sbu_0, # of connection points: 6
#     Node 11, Type 1, BuildingBlock: PAMTOO_clean_sbu_0, # of connection points: 6
#     Edge 12, Type (0, 1), BuildingBlock: EZIPEK_clean_linker_0, # of connection points: 2
#     Edge 13, Type (0, 1), BuildingBlock: EZIPEK_clean_linker_0, # of connection points: 2
#     Edge 14, Type (0, 1), BuildingBlock: EZIPEK_clean_linker_0, # of connection points: 2
#     Edge 15, Type (0, 1), BuildingBlock: EZIPEK_clean_linker_0, # of connection points: 2
#     Edge 16, Type (0, 1), BuildingBlock: EZIPEK_clean_linker_0, # of connection points: 2
#     Edge 17, Type (0, 1), BuildingBlock: EZIPEK_clean_linker_0, # of connection points: 2
#     Edge 18, Type (0, 1), BuildingBlock: EZIPEK_clean_linker_0, # of connection points: 2
#     Edge 19, Type (0, 1), BuildingBlock: EZIPEK_clean_linker_0, # of connection points: 2
#     Edge 20, Type (0, 1), BuildingBlock: EZIPEK_clean_linker_0, # of connection points: 2
#     Edge 21, Type (0, 1), BuildingBlock: EZIPEK_clean_linker_0, # of connection points: 2
#     Edge 22, Type (0, 1), BuildingBlock: EZIPEK_clean_linker_0, # of connection points: 2
#     Edge 23, Type (0, 1), BuildingBlock: EZIPEK_clean_linker_0, # of connection points: 2
#     Edge 24, Type (0, 1), BuildingBlock: EZIPEK_clean_linker_0, # of connection points: 2
#     Edge 25, Type (0, 1), BuildingBlock: EZIPEK_clean_linker_0, # of connection points: 2
#     Edge 26, Type (0, 1), BuildingBlock: EZIPEK_clean_linker_0, # of connection points: 2
#     Edge 27, Type (0, 1), BuildingBlock: EZIPEK_clean_linker_0, # of connection points: 2
#     Edge 28, Type (0, 1), BuildingBlock: EZIPEK_clean_linker_0, # of connection points: 2
#     Edge 29, Type (0, 1), BuildingBlock: EZIPEK_clean_linker_0, # of connection points: 2
#     Edge 30, Type (0, 1), BuildingBlock: EZIPEK_clean_linker_0, # of connection points: 2
#     Edge 31, Type (0, 1), BuildingBlock: EZIPEK_clean_linker_0, # of connection points: 2
#     Edge 32, Type (0, 1), BuildingBlock: EZIPEK_clean_linker_0, # of connection points: 2
#     Edge 33, Type (0, 1), BuildingBlock: EZIPEK_clean_linker_0, # of connection points: 2
#     Edge 34, Type (0, 1), BuildingBlock: EZIPEK_clean_linker_0, # of connection points: 2
#     Edge 35, Type (0, 1), BuildingBlock: EZIPEK_clean_linker_0, # of connection points: 2
# Relax obj value: 0.395
# Max RMSD: 0.291
# Mean RMSD: 0.226
data_MOF--net-zzz--node1-PAMTOO_clean_sbu_0--node2-VETTIZ_charged_linker_0--edge1-EZIPEK_clean_linker_0
_symmetry_space_group_name_H-M    P1
_symmetry_Int_Tables_number       1
_symmetry_cell_setting            triclinic
loop_
_symmetry_equiv_pos_as_xyz
'x, y, z'
_cell_length_a     50.364865
_cell_length_b     42.46842
_cell_length_c     16.274174
_cell_angle_alpha  91.492969
_cell_angle_beta   79.881087
_cell_angle_gamma 84.126632
loop_
_atom_site_label
_atom_site_type_symbol
_atom_site_fract_x
_atom_site_fract_y
_atom_site_fract_z
_atom_type_partial_charge
C0 C 0.82427 0.52995 0.68044 0.0
C1 C 0.84302 0.54832 0.71143 0.0
C2 C 0.83922 0.58165 0.70638 0.0
C3 C 0.80796 0.57587 0.61319 0.0
C4 C 0.80587 0.545 0.63282 0.0
C5 C 0.78547 0.53172 0.58518 0.0
H6 H 0.71648 0.55269 0.25723 0.0
C7 C 0.79658 0.58213 0.5386 0.0
C8 C 0.77816 0.55992 0.53181 0.0
H9 H 0.67882 0.51989 0.49329 0.0
H10 H 0.71805 0.53295 0.55601 0.0
H11 H 0.734 0.61383 0.33061 0.0
H12 H 0.76948 0.5249 0.23701 0.0
H13 H 0.79946 0.53844 0.25995 0.0
H14 H 0.78178 0.55747 0.18357 0.0
H15 H 0.74358 0.59814 0.22458 0.0
H16 H 0.7664 0.61908 0.27373 0.0
C17 C 0.76106 0.52288 0.64759 0.0
C18 C 0.79925 0.50277 0.52901 0.0
C19 C 0.87007 0.58224 0.29778 0.0
C20 C 0.86825 0.56784 0.22115 0.0
C21 C 0.84539 0.57603 0.18487 0.0
C22 C 0.82223 0.59223 0.23387 0.0
C23 C 0.82177 0.59683 0.31977 0.0
C24 C 0.84596 0.59537 0.34957 0.0
C25 C 0.84125 0.59788 0.44373 0.0
C26 C 0.81078 0.59378 0.46419 0.0
C27 C 0.8001 0.592 0.39022 0.0
C28 C 0.84727 0.63106 0.47043 0.0
C29 C 0.85988 0.57143 0.47653 0.0
C30 C 0.71693 0.54721 0.32168 0.0
C31 C 0.69499 0.5346 0.36943 0.0
C32 C 0.69595 0.5287 0.45435 0.0
C33 C 0.71872 0.5354 0.49006 0.0
C34 C 0.74092 0.54705 0.43965 0.0
C35 C 0.73915 0.5537 0.35784 0.0
C36 C 0.76241 0.57013 0.31576 0.0
C37 C 0.77694 0.57561 0.38861 0.0
C38 C 0.7656 0.56002 0.45941 0.0
C39 C 0.75113 0.60195 0.28384 0.0
C40 C 0.77925 0.54681 0.2456 0.0
H41 H 0.81988 0.62085 0.64932 0.0
H42 H 0.82551 0.5046 0.68736 0.0
H43 H 0.81748 0.50901 0.48602 0.0
H44 H 0.78505 0.49418 0.49054 0.0
H45 H 0.80563 0.48306 0.56729 0.0
H46 H 0.74804 0.54445 0.67633 0.0
H47 H 0.76802 0.50904 0.69836 0.0
H48 H 0.74881 0.5076 0.61676 0.0
H49 H 0.88875 0.57756 0.3214 0.0
H50 H 0.84435 0.56674 0.12302 0.0
H51 H 0.80463 0.59736 0.20605 0.0
H52 H 0.86785 0.63572 0.43892 0.0
H53 H 0.84702 0.6334 0.53824 0.0
H54 H 0.83227 0.64972 0.45348 0.0
H55 H 0.85492 0.54755 0.459 0.0
H56 H 0.85899 0.57329 0.54402 0.0
H57 H 0.88164 0.57322 0.45291 0.0
H58 H 0.85202 0.59656 0.73311 0.0
C59 C 0.82137 0.59564 0.65761 0.0
C60 C 0.12371 0.73476 0.11965 0.0
C61 C 0.13195 0.76527 0.12615 0.0
C62 C 0.13811 0.7759 0.20241 0.0
C63 C 0.1132 0.73576 0.27023 0.0
C64 C 0.11375 0.7203 0.19417 0.0
C65 C 0.09645 0.69317 0.204 0.0
H66 H 0.97812 0.655 0.2988 0.0
C67 C 0.09003 0.72675 0.32979 0.0
C68 C 0.08161 0.69986 0.29498 0.0
H69 H 0.05091 0.59383 0.19132 0.0
H70 H 0.07771 0.6271 0.26212 0.0
H71 H 1.01007 0.66652 0.48851 0.0
H72 H 0.99827 0.72818 0.28518 0.0
H73 H 0.98478 0.74446 0.38835 0.0
H74 H 0.96978 0.71245 0.34721 0.0
H75 H 0.97648 0.67866 0.46953 0.0
H76 H 0.9946 0.70541 0.52015 0.0
C77 C 0.11564 0.66189 0.19079 0.0
C78 C 0.07666 0.69509 0.14084 0.0
C79 C 0.03971 0.81807 0.51933 0.0
C80 C 1.01383 0.82456 0.56821 0.0
C81 C 0.99555 0.80127 0.56832 0.0
C82 C 1.00313 0.7725 0.51915 0.0
C83 C 0.02943 0.76659 0.47074 0.0
C84 C 0.04714 0.7893 0.47311 0.0
C85 C 0.07473 0.77959 0.42317 0.0
C86 C 0.07118 0.7468 0.3894 0.0
C87 C 0.04439 0.73908 0.41612 0.0
C88 C 0.09532 0.77749 0.48372 0.0
C89 C 0.08048 0.8041 0.35427 0.0
C90 C 0.99992 0.64927 0.2882 0.0
C91 C 1.01266 0.6231 0.23366 0.0
C92 C 0.04081 0.61476 0.22776 0.0
C93 C 0.05647 0.6342 0.26485 0.0
C94 C 0.04416 0.66288 0.30365 0.0
C95 C 1.01648 0.66888 0.32396 0.0
C96 C 1.00892 0.69798 0.38409 0.0
C97 C 0.03679 0.71004 0.38422 0.0
C98 C 0.05665 0.6895 0.33169 0.0
C99 C 0.99674 0.68672 0.47046 0.0
C100 C 0.9893 0.7222 0.34953 0.0
H101 H 0.13218 0.77048 0.33379 0.0
H102 H 0.12024 0.72581 0.06008 0.0
H103 H 0.0632 0.71778 0.15021 0.0
H104 H 0.06362 0.67559 0.14674 0.0
H105 H 0.08782 0.69292 0.07547 0.0
H106 H 0.13475 0.6646 0.14675 0.0
H107 H 0.10659 0.64274 0.16154 0.0
H108 H 0.12124 0.65396 0.25063 0.0
H109 H 0.05439 0.8351 0.51828 0.0
H110 H 0.97551 0.80531 0.60649 0.0
H111 H 0.98848 0.75578 0.52079 0.0
H112 H 0.08666 0.76711 0.54334 0.0
H113 H 0.10086 0.80134 0.49899 0.0
H114 H 0.114 0.76178 0.45831 0.0
H115 H 0.0658 0.82584 0.36433 0.0
H116 H 0.07898 0.79413 0.2919 0.0
H117 H 0.10059 0.81284 0.35198 0.0
H118 H 0.14601 0.79852 0.20762 0.0
C119 C 0.12919 0.76051 0.2753 0.0
C120 C 0.83945 1.00115 0.21014 0.0
C121 C 0.8514 0.99841 0.12335 0.0
C122 C 0.83407 0.99606 0.06467 0.0
C123 C 0.79471 0.00786 0.17328 0.0
C124 C 0.81058 1.00445 0.23374 0.0
C125 C 0.79236 0.00815 0.32019 0.0
H126 H 0.65768 0.05681 0.50909 0.0
C127 C 0.76703 0.02052 0.21223 0.0
C128 C 0.76377 0.01609 0.29888 0.0
H129 H 0.69583 0.96468 0.55103 0.0
H130 H 0.73663 0.97409 0.44792 0.0
H131 H 0.72044 0.09443 0.47909 0.0
H132 H 0.65673 0.07728 0.38677 0.0
H133 H 0.67667 0.05828 0.29343 0.0
H134 H 0.67428 0.10062 0.31534 0.0
H135 H 0.68503 0.10788 0.48534 0.0
H136 H 0.71013 0.12099 0.40535 0.0
C137 C 0.80027 0.03547 0.37179 0.0
C138 C 0.79448 0.97702 0.36564 0.0
C139 C 0.71338 0.09893 0.05667 0.0
C140 C 0.69397 0.12458 0.08847 0.0
C141 C 0.69472 0.13893 0.16696 0.0
C142 C 0.71047 0.12375 0.22007 0.0
C143 C 0.72428 0.09395 0.19438 0.0
C144 C 0.72893 0.08417 0.11133 0.0
C145 C 0.7491 0.05495 0.09423 0.0
C146 C 0.75206 0.04684 0.18356 0.0
C147 C 0.73583 0.06891 0.24157 0.0
C148 C 0.77549 0.06438 0.04074 0.0
C149 C 0.73678 0.02861 0.0512 0.0
C150 C 0.67481 0.0387 0.49712 0.0
C151 C 0.67303 0.00999 0.53771 0.0
C152 C 0.69627 0.98709 0.52088 0.0
C153 C 0.71993 0.99257 0.46273 0.0
C154 C 0.72084 0.0216 0.42292 0.0
C155 C 0.6982 0.04379 0.43972 0.0
C156 C 0.70118 0.07173 0.38538 0.0
C157 C 0.72758 0.06034 0.32518 0.0
C158 C 0.74064 0.03275 0.3527 0.0
C159 C 0.70433 0.10044 0.44149 0.0
C160 C 0.67609 0.07722 0.34233 0.0
H161 H 0.79325 0.99873 0.04297 0.0
H162 H 0.85212 1.00189 0.25726 0.0
H163 H 0.78697 0.9578 0.33126 0.0
H164 H 0.78243 0.98 0.42985 0.0
H165 H 0.81592 0.96958 0.37076 0.0
H166 H 0.79906 0.0579 0.33818 0.0
H167 H 0.82131 0.03016 0.38353 0.0
H168 H 0.7864 0.03921 0.43318 0.0
H169 H 0.71383 0.08832 0.99516 0.0
H170 H 0.68055 0.15936 0.19114 0.0
H171 H 0.70957 0.13392 0.2816 0.0
H172 H 0.7713 0.0849 1.00209 0.0
H173 H 0.78568 0.04532 0.99497 0.0
H174 H 0.78997 0.07116 0.08064 0.0
H175 H 0.71593 0.026 0.08471 0.0
H176 H 0.7489 1.00535 0.05098 0.0
H177 H 0.73568 0.03413 0.98544 0.0
H178 H 0.84249 0.99253 0.99867 0.0
C179 C 0.80584 1.00064 0.08936 0.0
C180 C 0.52881 0.70755 0.52481 0.0
C181 C 0.5382 0.67465 0.53161 0.0
C182 C 0.55538 0.65864 0.46195 0.0
C183 C 0.54481 0.70154 0.37693 0.0
C184 C 0.5341 0.72121 0.44474 0.0
C185 C 0.52895 0.7551 0.41337 0.0
H186 H 0.51856 0.83599 0.04489 0.0
C187 C 0.54031 0.71653 0.30168 0.0
C188 C 0.53407 0.74918 0.31673 0.0
H189 H 0.52378 0.88161 0.27992 0.0
H190 H 0.52648 0.82946 0.34429 0.0
H191 H 0.56514 0.77856 0.04655 0.0
H192 H 0.47889 0.76924 0.12947 0.0
H193 H 0.49546 0.75337 0.02753 0.0
H194 H 0.48845 0.7946 0.0451 0.0
H195 H 0.54174 0.78494 0.97514 0.0
H196 H 0.55205 0.7457 1.00472 0.0
C197 C 0.54987 0.77508 0.44116 0.0
C198 C 0.49975 0.76962 0.44686 0.0
C199 C 0.48648 0.65494 0.13681 0.0
C200 C 0.48793 0.65072 0.05046 0.0
C201 C 0.50199 0.67131 0.99628 0.0
C202 C 0.51474 0.69558 0.02869 0.0
C203 C 0.51348 0.69879 0.11544 0.0
C204 C 0.50173 0.67673 0.16636 0.0
C205 C 0.51074 0.67648 0.24912 0.0
C206 C 0.53047 0.70175 0.23707 0.0
C207 C 0.52778 0.71821 0.16567 0.0
C208 C 0.52406 0.64315 0.2639 0.0
C209 C 0.48588 0.68689 0.31777 0.0
C210 C 0.52019 0.83489 0.11029 0.0
C211 C 0.52102 0.86277 0.15685 0.0
C212 C 0.5233 0.86036 0.24225 0.0
C213 C 0.52511 0.83033 0.27927 0.0
C214 C 0.52496 0.80252 0.23033 0.0
C215 C 0.52209 0.80548 0.14734 0.0
C216 C 0.52265 0.77423 0.10217 0.0
C217 C 0.5275 0.75166 0.16988 0.0
C218 C 0.52893 0.76784 0.24649 0.0
C219 C 0.54661 0.7706 0.02777 0.0
C220 C 0.49489 0.77254 0.07487 0.0
H221 H 0.56987 0.65844 0.32956 0.0
H222 H 0.51681 0.72122 0.57802 0.0
H223 H 0.48504 0.75421 0.42827 0.0
H224 H 0.4959 0.79332 0.42142 0.0
H225 H 0.49606 0.77232 0.51615 0.0
H226 H 0.57086 0.76443 0.41499 0.0
H227 H 0.5475 0.77621 0.51043 0.0
H228 H 0.54762 0.79956 0.42064 0.0
H229 H 0.47647 0.63876 0.17917 0.0
H230 H 0.5039 0.66786 0.92927 0.0
H231 H 0.52633 0.70997 0.9857 0.0
H232 H 0.51206 0.6242 0.24753 0.0
H233 H 0.52479 0.64013 0.33076 0.0
H234 H 0.54478 0.63848 0.22587 0.0
H235 H 0.47547 0.71004 0.30406 0.0
H236 H 0.49196 0.68973 0.37936 0.0
H237 H 0.47108 0.66903 0.32265 0.0
H238 H 0.56385 0.63431 0.46576 0.0
C239 C 0.55857 0.67197 0.38411 0.0
C240 C 0.30644 0.48891 0.17239 0.0
C241 C 0.32011 0.47445 0.23417 0.0
C242 C 0.31034 0.44746 0.27223 0.0
C243 C 0.27184 0.45339 0.20335 0.0
C244 C 0.28212 0.47729 0.15685 0.0
C245 C 0.26341 0.48725 0.09461 0.0
H246 H 0.1489 0.4502 0.94018 0.0
C247 C 0.24594 0.44751 0.18261 0.0
C248 C 0.24098 0.46482 0.11391 0.0
H249 H 0.19131 0.53144 0.87602 0.0
H250 H 0.22479 0.51382 0.9638 0.0
H251 H 0.19699 0.3933 0.99405 0.0
H252 H 0.13578 0.46505 0.08412 0.0
H253 H 0.14871 0.46193 0.17607 0.0
H254 H 0.13393 0.42921 0.13311 0.0
H255 H 0.16065 0.39774 1.00196 0.0
H256 H 0.17586 0.38368 0.08809 0.0
C257 C 0.27922 0.48169 1.00481 0.0
C258 C 0.252 0.52216 0.11487 0.0
C259 C 0.16695 0.44818 0.39556 0.0
C260 C 0.14077 0.4507 0.37626 0.0
C261 C 0.13462 0.42903 0.31743 0.0
C262 C 0.15588 0.41121 0.26356 0.0
C263 C 0.18219 0.41826 0.26558 0.0
C264 C 0.18808 0.4317 0.33765 0.0
C265 C 0.21773 0.43616 0.32708 0.0
C266 C 0.22534 0.4328 0.23144 0.0
C267 C 0.20329 0.42525 0.19594 0.0
C268 C 0.23166 0.4093 0.372 0.0
C269 C 0.22205 0.46915 0.36244 0.0
C270 C 0.16599 0.46359 0.94237 0.0
C271 C 0.1675 0.49186 0.90097 0.0
C272 C 0.18961 0.5094 0.90752 0.0
C273 C 0.20876 0.49941 0.95904 0.0
C274 C 0.20499 0.47256 1.00738 0.0
C275 C 0.18325 0.4558 0.99938 0.0
C276 C 0.1762 0.43491 0.07079 0.0
C277 C 0.19925 0.43875 0.11881 0.0
C278 C 0.21697 0.46011 0.07998 0.0
C279 C 0.17741 0.40045 0.03692 0.0
C280 C 0.14741 0.44814 0.11889 0.0
H281 H 0.28067 0.41456 0.28041 0.0
H282 H 0.31418 0.5087 0.13894 0.0
H283 H 0.24269 0.52579 0.18212 0.0
H284 H 0.23612 0.52977 0.07858 0.0
H285 H 0.26841 0.53789 0.10134 0.0
H286 H 0.28811 0.45656 0.99364 0.0
H287 H 0.29602 0.49698 0.99365 0.0
H288 H 0.26594 0.48698 0.95844 0.0
H289 H 0.17117 0.46364 0.44443 0.0
H290 H 0.11415 0.42925 0.30531 0.0
H291 H 0.15154 0.39611 0.21454 0.0
H292 H 0.21823 0.40379 0.43058 0.0
H293 H 0.25022 0.41621 0.39217 0.0
H294 H 0.23676 0.3872 0.33174 0.0
H295 H 0.21089 0.48839 0.3329 0.0
H296 H 0.24375 0.47303 0.35196 0.0
H297 H 0.21512 0.47136 0.43118 0.0
H298 H 0.32106 0.43493 0.31589 0.0
C299 C 0.28673 0.43639 0.25508 0.0
C300 C 0.08431 0.24147 0.51647 0.0
C301 C 0.07785 0.21019 0.52365 0.0
C302 C 0.08961 0.18753 0.45983 0.0
C303 C 0.09842 0.23006 0.36841 0.0
C304 C 0.09437 0.25154 0.43602 0.0
C305 C 0.09265 0.28512 0.40733 0.0
H306 H 1.0028 0.37282 0.33444 0.0
C307 C 0.09018 0.24675 0.29723 0.0
C308 C 0.08802 0.27941 0.31713 0.0
H309 H 0.07874 0.40128 0.38542 0.0
H310 H 0.10309 0.35297 0.30863 0.0
H311 H 0.04069 0.32714 0.107 0.0
H312 H 1.01107 0.2934 0.35272 0.0
H313 H 0.99988 0.28014 0.25976 0.0
H314 H 0.98787 0.3192 0.30539 0.0
H315 H 1.01179 0.35117 0.16609 0.0
H316 H 1.00787 0.31227 0.13277 0.0
C317 C 0.12019 0.29759 0.40946 0.0
C318 C 0.06927 0.30619 0.46451 0.0
C319 C 0.04618 0.18172 0.10309 0.0
C320 C 0.0313 0.18917 0.03986 0.0
C321 C 0.0241 0.22161 0.02699 0.0
C322 C 0.03131 0.24586 0.07806 0.0
C323 C 0.04523 0.2376 0.14347 0.0
C324 C 0.05335 0.20596 0.15223 0.0
C325 C 0.07204 0.20113 0.21399 0.0
C326 C 0.07522 0.23537 0.238 0.0
C327 C 0.05821 0.25671 0.20024 0.0
C328 C 0.09935 0.18359 0.16842 0.0
C329 C 0.05739 0.18276 0.28718 0.0
C330 C 0.02462 0.36878 0.32896 0.0
C331 C 0.03884 0.3897 0.3707 0.0
C332 C 0.06742 0.38492 0.35735 0.0
C333 C 0.08131 0.3572 0.31576 0.0
C334 C 0.06611 0.33421 0.29082 0.0
C335 C 0.03933 0.34122 0.28573 0.0
C336 C 0.02992 0.31425 0.23781 0.0
C337 C 0.0554 0.28972 0.22421 0.0
C338 C 0.07412 0.30083 0.26953 0.0
C339 C 0.02234 0.3267 0.15597 0.0
C340 C 1.00574 0.301 0.29221 0.0
H341 H 0.10786 0.18012 0.33168 0.0
H342 H 0.07662 0.25816 0.56842 0.0
H343 H 0.04923 0.29839 0.45915 0.0
H344 H 0.06908 0.33139 0.45129 0.0
H345 H 0.07178 0.3061 0.53076 0.0
H346 H 0.12569 0.29486 0.47235 0.0
H347 H 0.11972 0.32304 0.39703 0.0
H348 H 0.13657 0.28432 0.3628 0.0
H349 H 0.05289 0.15722 0.11255 0.0
H350 H 1.0136 0.22808 0.97627 0.0
H351 H 0.02736 0.27011 0.06273 0.0
H352 H 0.10508 0.19253 0.10477 0.0
H353 H 0.09802 0.15772 0.16168 0.0
H354 H 0.11638 0.18743 0.20076 0.0
H355 H 0.04998 0.19845 0.34385 0.0
H356 H 0.07053 0.16203 0.30274 0.0
H357 H 0.03915 0.17267 0.27243 0.0
H358 H 0.0865 0.16278 0.46638 0.0
C359 C 0.10082 0.19758 0.3816 0.0
C360 C 0.32137 0.01447 0.12476 0.0
C361 C 0.34666 0.99669 0.08775 0.0
C362 C 0.35065 0.96456 0.1059 0.0
C363 C 0.30968 0.97025 0.21025 0.0
C364 C 0.30253 1.00004 0.18499 0.0
C365 C 0.27353 0.01196 0.23032 0.0
H366 H 0.17316 0.98865 0.57215 0.0
C367 C 0.2898 0.96289 0.28255 0.0
C368 C 0.2666 0.98522 0.29137 0.0
H369 H 0.15438 0.03047 0.34848 0.0
H370 H 0.20245 0.0187 0.28012 0.0
H371 H 0.19887 0.93172 0.47914 0.0
H372 H 0.23528 0.00986 0.56839 0.0
H373 H 0.25455 0.97539 0.59028 0.0
H374 H 0.21901 0.98189 0.63522 0.0
H375 H 0.20389 0.93509 0.58527 0.0
H376 H 0.22932 0.91448 0.50412 0.0
C377 C 0.25474 0.01554 0.16531 0.0
C378 C 0.27357 0.04355 0.27852 0.0
C379 C 0.33086 0.90315 0.50299 0.0
C380 C 0.32085 0.89838 0.58705 0.0
C381 C 0.29288 0.90401 0.61773 0.0
C382 C 0.27545 0.91759 0.56688 0.0
C383 C 0.2862 0.92534 0.48474 0.0
C384 C 0.31328 0.91676 0.453 0.0
C385 C 0.32134 0.92625 0.36453 0.0
C386 C 0.29453 0.94357 0.34952 0.0
C387 C 0.27452 0.94375 0.42107 0.0
C388 C 0.3307 0.89571 0.30797 0.0
C389 C 0.3438 0.94875 0.36229 0.0
C390 C 0.1794 0.99677 0.50982 0.0
C391 C 0.15999 0.01146 0.46751 0.0
C392 C 0.16901 0.01997 0.38404 0.0
C393 C 0.19686 0.01368 0.34477 0.0
C394 C 0.21601 0.99869 0.38887 0.0
C395 C 0.20643 0.98957 0.4691 0.0
C396 C 0.22663 0.96726 0.50116 0.0
C397 C 0.24976 0.96348 0.42729 0.0
C398 C 0.24483 0.98344 0.36214 0.0
C399 C 0.21416 0.93553 0.51914 0.0
C400 C 0.23429 0.98412 0.5781 0.0
H401 H 0.33553 0.92642 0.17469 0.0
H402 H 0.31679 0.03871 0.10847 0.0
H403 H 0.28799 0.04097 0.32304 0.0
H404 H 0.25301 0.05142 0.31467 0.0
H405 H 0.27969 0.06227 0.23482 0.0
H406 H 0.24984 0.99205 0.14435 0.0
H407 H 0.26456 0.02735 0.10956 0.0
H408 H 0.23576 0.03074 0.19027 0.0
H409 H 0.35237 0.89833 0.47849 0.0
H410 H 0.28495 0.90028 0.68262 0.0
H411 H 0.25457 0.92306 0.59534 0.0
H412 H 0.33245 0.87399 0.34423 0.0
H413 H 0.35114 0.89667 0.26973 0.0
H414 H 0.31608 0.89165 0.26598 0.0
H415 H 0.33651 0.96981 0.40546 0.0
H416 H 0.3505 0.95736 0.29956 0.0
H417 H 0.3622 0.93654 0.38117 0.0
H418 H 0.36877 0.94987 0.07553 0.0
C419 C 0.33202 0.95118 0.16501 0.0
C420 C 0.49208 0.30624 0.07331 0.0
C421 C 0.49163 0.33993 0.06426 0.0
C422 C 0.49247 0.35932 0.1349 0.0
C423 C 0.50311 0.31339 0.21013 0.0
C424 C 0.49686 0.29345 0.15063 0.0
C425 C 0.49557 0.25991 0.186 0.0
H426 H 0.50141 0.17897 0.55716 0.0
C427 C 0.50964 0.29558 0.27903 0.0
C428 C 0.50228 0.26497 0.27472 0.0
H429 H 0.49155 0.13526 0.32448 0.0
H430 H 0.49327 0.18708 0.258 0.0
H431 H 0.53409 0.21258 0.56805 0.0
H432 H 0.46362 0.2495 0.54044 0.0
H433 H 0.4833 0.27557 0.58382 0.0
H434 H 0.48294 0.23574 0.61815 0.0
H435 H 0.53813 0.25321 0.56556 0.0
H436 H 0.5518 0.2279 0.47442 0.0
C437 C 0.51723 0.23637 0.13166 0.0
C438 C 0.46692 0.24998 0.18981 0.0
C439 C 0.5687 0.34517 0.44787 0.0
C440 C 0.56103 0.35498 0.53219 0.0
C441 C 0.54291 0.33833 0.58578 0.0
C442 C 0.53066 0.31373 0.5536 0.0
C443 C 0.53666 0.3059 0.46756 0.0
C444 C 0.55456 0.32263 0.41538 0.0
C445 C 0.54994 0.32038 0.32662 0.0
C446 C 0.52336 0.30539 0.34056 0.0
C447 C 0.51997 0.29071 0.41598 0.0
C448 C 0.57266 0.29727 0.27459 0.0
C449 C 0.54897 0.35288 0.28629 0.0
C450 C 0.4995 0.18049 0.49207 0.0
C451 C 0.49615 0.15324 0.44667 0.0
C452 C 0.49381 0.15607 0.36137 0.0
C453 C 0.49481 0.18586 0.32301 0.0
C454 C 0.49861 0.21286 0.36999 0.0
C455 C 0.50147 0.20939 0.4529 0.0
C456 C 0.50746 0.23924 0.49356 0.0
C457 C 0.50947 0.26088 0.42071 0.0
C458 C 0.50281 0.24633 0.34813 0.0
C459 C 0.53436 0.23303 0.52693 0.0
C460 C 0.48311 0.2507 0.56308 0.0
H461 H 0.49683 0.36132 0.26306 0.0
H462 H 0.48928 0.29081 0.02228 0.0
H463 H 0.4516 0.26775 0.22782 0.0
H464 H 0.46508 0.22676 0.21839 0.0
H465 H 0.46201 0.24812 0.12601 0.0
H466 H 0.53765 0.24462 0.12776 0.0
H467 H 0.51289 0.23411 0.06726 0.0
H468 H 0.51795 0.21259 0.15792 0.0
H469 H 0.58192 0.35879 0.40661 0.0
H470 H 0.53633 0.34633 0.65063 0.0
H471 H 0.51504 0.30361 0.59478 0.0
H472 H 0.57406 0.27372 0.30284 0.0
H473 H 0.59261 0.30673 0.27067 0.0
H474 H 0.56869 0.29376 0.21009 0.0
H475 H 0.56829 0.36344 0.28462 0.0
H476 H 0.53239 0.36978 0.32139 0.0
H477 H 0.54689 0.35036 0.21991 0.0
H478 H 0.49021 0.38491 0.13212 0.0
C479 C 0.49733 0.3461 0.20858 0.0
Dy480 Dy 0.98864 0.02617 0.7451 0.0
Dy481 Dy 0.02489 0.99447 0.87322 0.0
C482 C 0.05352 0.01445 0.68782 0.0
O483 O 0.99758 0.9756 0.69476 0.0
O484 O 1.01121 0.95285 0.80944 0.0
O485 O 0.97935 0.03903 0.62464 0.0
O486 O 0.95024 0.05256 0.73741 0.0
O487 O 0.98301 1.00533 0.95204 0.0
O488 O 0.95924 1.00534 0.84488 0.0
O489 O 0.02336 0.04602 0.90907 0.0
O490 O 0.99925 0.06854 0.81442 0.0
O491 O 0.03068 0.96352 0.9727 0.0
O492 O 0.06338 0.98972 0.91583 0.0
C493 C 1.00414 0.95037 0.73546 0.0
O494 O 0.03118 0.0324 0.68112 0.0
O495 O 0.05379 0.99474 0.74909 0.0
C496 C 0.96184 0.09279 0.64535 0.0
C497 C 0.98856 0.14758 0.6404 0.0
C498 C 0.9911 0.12789 0.56827 0.0
C499 C 0.97767 0.10074 0.57049 0.0
C500 C 0.95631 0.1151 0.71378 0.0
C501 C 0.9698 0.14228 0.71149 0.0
C502 C 0.95877 0.05903 0.65993 0.0
C503 C 0.95994 1.00416 0.92512 0.0
C504 C 1.01254 0.07108 0.87655 0.0
C505 C 0.07514 0.93862 0.95915 0.0
C506 C 0.10493 0.87976 0.96699 0.0
C507 C 0.0867 0.88357 0.9111 0.0
C508 C 0.07166 0.91283 0.908 0.0
C509 C 0.09535 0.93564 1.00843 0.0
C510 C 0.1102 0.90625 0.01248 0.0
C511 C 0.05627 0.96763 0.96662 0.0
H512 H 1.00515 0.13221 0.51221 0.0
H513 H 0.98207 0.08429 0.5166 0.0
H514 H 0.94381 0.11007 0.77216 0.0
H515 H 0.96726 0.15771 0.76702 0.0
H516 H 0.08202 0.86323 0.87689 0.0
H517 H 0.05585 0.91472 0.87084 0.0
H518 H 0.09836 0.95542 0.04792 0.0
H519 H 0.12392 0.90352 0.05679 0.0
Dy520 Dy 0.50245 0.97999 0.74471 0.0
Dy521 Dy 0.51162 0.03759 0.86492 0.0
C522 C 0.50134 0.05067 0.67779 0.0
O523 O 0.54433 0.99219 0.68911 0.0
O524 O 0.55415 0.01628 0.80568 0.0
O525 O 0.48483 0.96135 0.64486 0.0
O526 O 0.51118 0.93029 0.70588 0.0
O527 O 0.50611 0.99679 0.95059 0.0
O528 O 0.51894 0.95672 0.85108 0.0
O529 O 0.46592 0.03835 0.88798 0.0
O530 O 0.46305 0.98789 0.8393 0.0
O531 O 0.52461 0.05532 0.97466 0.0
O532 O 0.50874 0.08824 0.89147 0.0
C533 C 0.56209 1.00357 0.72921 0.0
O534 O 0.49068 0.02367 0.67708 0.0
O535 O 0.51451 0.05785 0.73734 0.0
C536 C 0.473 0.91046 0.66648 0.0
C537 C 0.42212 0.88822 0.68293 0.0
C538 C 0.43891 0.88734 0.60422 0.0
C539 C 0.46429 0.89847 0.59601 0.0
C540 C 0.45769 0.90755 0.7464 0.0
C541 C 0.43234 0.89614 0.75469 0.0
C542 C 0.49398 0.93216 0.65468 0.0
C543 C 0.51365 0.96666 0.92993 0.0
C544 C 0.45196 0.0139 0.88389 0.0
C545 C 0.54589 0.10138 0.94996 0.0
C546 C 0.5935 0.12723 0.96863 0.0
C547 C 0.59493 0.09824 0.9243 0.0
C548 C 0.57129 0.0853 0.91565 0.0
C549 C 0.54435 0.13196 0.98648 0.0
C550 C 0.56819 0.14501 0.99554 0.0
C551 C 0.5216 0.08476 0.95396 0.0
H552 H 0.43122 0.88132 0.54834 0.0
H553 H 0.47585 0.90066 0.53402 0.0
H554 H 0.46406 0.91694 0.80149 0.0
H555 H 0.4195 0.89712 0.81573 0.0
H556 H 0.61428 0.08414 0.90382 0.0
H557 H 0.57292 0.06161 0.88789 0.0
H558 H 0.52486 0.14475 0.01288 0.0
H559 H 0.56682 0.16727 0.03086 0.0
Dy560 Dy 0.53213 0.50878 0.85787 0.0
Dy561 Dy 0.48641 0.5015 0.72451 0.0
C562 C 0.50113 0.44468 0.8528 0.0
O563 O 0.55265 0.47366 0.75849 0.0
O564 O 0.52904 0.48992 0.65621 0.0
O565 O 0.53695 0.52363 0.98306 0.0
O566 O 0.57254 0.50548 0.89074 0.0
O567 O 0.49391 0.55261 0.72458 0.0
O568 O 0.53439 0.55115 0.77341 0.0
O569 O 0.46727 0.53786 0.82364 0.0
O570 O 0.48855 0.5138 0.9186 0.0
O571 O 0.48028 0.50205 0.59598 0.0
O572 O 0.44681 0.49307 0.69524 0.0
C573 C 0.54985 0.47368 0.68007 0.0
O574 O 0.52004 0.4597 0.87916 0.0
O575 O 0.48642 0.45651 0.79826 0.0
C576 C 0.58088 0.51999 0.03136 0.0
C577 C 0.61496 0.52396 0.15348 0.0
C578 C 0.58663 0.52497 0.17759 0.0
C579 C 0.56983 0.52303 0.11737 0.0
C580 C 0.60924 0.51901 1.00743 0.0
C581 C 0.62603 0.52104 0.06762 0.0
C582 C 0.56315 0.51588 0.9676 0.0
C583 C 0.5161 0.5654 0.73304 0.0
C584 C 0.47077 0.53608 0.90105 0.0
C585 C 0.43728 0.49448 0.55059 0.0
C586 C 0.40315 0.49273 0.4281 0.0
C587 C 0.42985 0.50068 0.40652 0.0
C588 C 0.4467 0.5015 0.4669 0.0
C589 C 0.41056 0.48648 0.5719 0.0
C590 C 0.39374 0.48563 0.51148 0.0
C591 C 0.45488 0.49687 0.61547 0.0
H592 H 0.57753 0.52702 0.24321 0.0
H593 H 0.5482 0.5232 0.13841 0.0
H594 H 0.61853 0.51644 0.942 0.0
H595 H 0.64776 0.52013 0.04716 0.0
H596 H 0.43763 0.50635 0.3429 0.0
H597 H 0.46706 0.50797 0.44807 0.0
H598 H 0.40254 0.48108 0.63553 0.0
H599 H 0.37326 0.47945 0.52991 0.0
Dy600 Dy 1.00847 0.54857 0.75236 0.0
Dy601 Dy 1.0042 0.48192 0.84675 0.0
C602 C 1.01469 0.48127 0.64949 0.0
O603 O 0.96372 0.54837 0.795 0.0
O604 O 0.96331 0.49484 0.80873 0.0
O605 O 0.02548 0.59316 0.73366 0.0
O606 O 0.9963 0.58034 0.66071 0.0
O607 O 0.9885 0.51904 0.94988 0.0
O608 O 1.00538 0.56246 0.88765 0.0
O609 O 0.04443 0.49696 0.86313 0.0
O610 O 0.05193 0.52743 0.74941 0.0
O611 O 0.01935 0.44682 0.92621 0.0
O612 O 0.98602 0.43811 0.86595 0.0
C613 C 0.95081 0.52293 0.79805 0.0
O614 O 1.00405 0.51098 0.65594 0.0
O615 O 0.02352 0.46857 0.71378 0.0
C616 C 0.03458 0.60205 0.58928 0.0
C617 C 0.07487 0.56962 0.47014 0.0
C618 C 0.04853 0.57524 0.4531 0.0
C619 C 0.02827 0.59182 0.51265 0.0
C620 C 0.06199 0.60387 0.59441 0.0
C621 C 0.08223 0.58725 0.53492 0.0
C622 C 1.01499 0.59886 0.66709 0.0
C623 C 0.99524 0.54809 0.95476 0.0
C624 C 0.0609 0.51165 0.80958 0.0
C625 C 0.98222 0.42537 1.00669 0.0
C626 C 0.93918 0.45286 0.12545 0.0
C627 C 0.96579 0.45526 0.13741 0.0
C628 C 0.98743 0.44111 0.07841 0.0
C629 C 0.95611 0.41616 1.00764 0.0
C630 C 0.93439 0.43021 0.06707 0.0
C631 C 0.99934 0.42976 0.92502 0.0
H632 H 0.04284 0.56288 0.40088 0.0
H633 H 1.00735 0.59169 0.50482 0.0
H634 H 0.0676 0.6131 0.65091 0.0
H635 H 0.10276 0.58387 0.54728 0.0
H636 H 0.96976 0.47209 0.18378 0.0
H637 H 1.00759 0.44718 0.08193 0.0
H638 H 0.95171 0.40297 0.95465 0.0
H639 H 0.91388 0.42767 0.05827 0.0
C640 C 0.11709 0.04301 0.55006 0.0
C641 C 0.13034 0.01397 0.51022 0.0
C642 C 0.09053 0.98717 0.57336 0.0
C643 C 0.07902 0.01516 0.62208 0.0
N644 N 0.08174 0.06999 0.65771 0.0
N645 N 0.12972 0.95795 0.48475 0.0
C646 C 0.09223 0.04328 0.60958 0.0
C647 C 0.11692 0.98599 0.52191 0.0
N648 N 0.12832 0.07045 0.53087 0.0
N649 N 0.0756 0.96204 0.57331 0.0
H650 H 0.1478 0.95648 0.44153 0.0
H651 H 0.12317 0.93597 0.4994 0.0
H652 H 0.05599 0.96252 0.60746 0.0
H653 H 0.08137 0.94196 0.53362 0.0
H654 H 0.11862 0.09293 0.55004 0.0
H655 H 0.14666 0.07089 0.48982 0.0
H656 H 0.09184 0.09007 0.66027 0.0
H657 H 0.0634 0.07147 0.69943 0.0
C658 C 0.47294 0.11128 0.53256 0.0
C659 C 0.49724 0.12217 0.49024 0.0
C660 C 0.52375 0.08127 0.5573 0.0
C661 C 0.49956 0.07338 0.60828 0.0
N662 N 0.45089 0.08226 0.64771 0.0
N663 N 0.54602 0.1182 0.4638 0.0
C664 C 0.47404 0.08842 0.59579 0.0
C665 C 0.5227 0.10709 0.50261 0.0
N666 N 0.44875 0.12302 0.51236 0.0
N667 N 0.54775 0.06334 0.55924 0.0
H668 H 0.54617 0.13552 0.41944 0.0
H669 H 0.56506 0.11149 0.47832 0.0
H670 H 0.54919 0.04403 0.59696 0.0
H671 H 0.56574 0.0656 0.51829 0.0
H672 H 0.43043 0.11414 0.53419 0.0
H673 H 0.44737 0.14 0.4677 0.0
H674 H 0.43198 0.09483 0.64874 0.0
H675 H 0.45081 0.06591 0.69443 0.0
C676 C 0.34197 0.51202 0.31974 0.0
C677 C 0.34477 0.48561 0.26214 0.0
C678 C 0.38803 0.46611 0.30466 0.0
C679 C 0.38479 0.49195 0.3642 0.0
N680 N 0.36304 0.54397 0.41119 0.0
N681 N 0.37395 0.44305 0.18279 0.0
C682 C 0.36316 0.5164 0.3659 0.0
C683 C 0.36914 0.46464 0.24883 0.0
N684 N 0.3184 0.53192 0.33407 0.0
N685 N 0.40827 0.44205 0.30436 0.0
H686 H 0.36044 0.44182 0.14122 0.0
H687 H 0.39219 0.4287 0.16454 0.0
H688 H 0.42254 0.44233 0.34362 0.0
H689 H 0.4099 0.42086 0.26934 0.0
H690 H 0.31361 0.54922 0.38243 0.0
H691 H 0.30291 0.53011 0.29993 0.0
H692 H 0.34948 0.56399 0.40869 0.0
H693 H 0.37818 0.54781 0.44548 0.0
C694 C 0.0253 0.44686 0.42063 0.0
C695 C 0.025 0.41424 0.43666 0.0
C696 C 1.00807 0.42852 0.58533 0.0
C697 C 1.01432 0.46017 0.57296 0.0
N698 N 0.02509 0.50074 0.4739 0.0
N699 N 1.01636 0.37361 0.53575 0.0
C700 C 0.02135 0.46991 0.48902 0.0
C701 C 1.01612 0.40501 0.51927 0.0
N702 N 0.02913 0.45562 0.33951 0.0
N703 N 0.99297 0.42126 0.65923 0.0
H704 H 0.02066 0.35558 0.4892 0.0
H705 H 1.01379 0.36541 0.59613 0.0
H706 H 0.98463 0.43845 0.70604 0.0
H707 H 0.98571 0.39933 0.66958 0.0
H708 H 0.02714 0.47895 0.3216 0.0
H709 H 0.03193 0.43908 0.2893 0.0
H710 H 0.03392 0.50827 0.41617 0.0
H711 H 0.02031 0.51903 0.51921 0.0
C712 C 0.88765 0.02975 0.04744 0.0
C713 C 0.88105 1.00169 0.08904 0.0
C714 C 0.92728 0.97598 0.03022 0.0
C715 C 0.93346 1.00369 0.98623 0.0
N716 N 0.92098 0.0583 0.96128 0.0
N717 N 0.89557 0.94984 0.13052 0.0
C718 C 0.91399 0.03094 0.99753 0.0
C719 C 0.90132 0.97541 0.084 0.0
N720 N 0.86819 0.05511 0.05403 0.0
N721 N 0.94581 0.94967 0.01713 0.0
H722 H 0.87676 0.94866 0.16851 0.0
H723 H 0.90965 0.93071 0.13621 0.0
H724 H 0.96482 0.94942 0.97918 0.0
H725 H 0.94217 0.9276 0.04008 0.0
H726 H 0.86972 0.07483 0.01766 0.0
H727 H 0.84973 0.05617 0.09537 0.0
H728 H 0.90938 0.08017 0.9728 0.0
H729 H 0.93947 0.05956 0.92196 0.0
C730 C 0.54368 0.90163 0.05852 0.0
C731 C 0.52007 0.89364 0.11239 0.0
C732 C 0.49233 0.93471 0.04998 0.0
C733 C 0.51598 0.943 0.99681 0.0
N734 N 0.56469 0.93856 0.9619 0.0
N735 N 0.4728 0.90648 0.17051 0.0
C736 C 0.54182 0.92766 1.00465 0.0
C737 C 0.49472 0.91163 0.11186 0.0
N738 N 0.56785 0.88356 0.05706 0.0
N739 N 0.46735 0.9475 0.03797 0.0
H740 H 0.47378 0.88941 0.21514 0.0
H741 H 0.45437 0.92074 0.1797 0.0
H742 H 0.46479 0.96401 0.99309 0.0
H743 H 0.44916 0.9401 0.06761 0.0
H744 H 0.58511 0.88516 0.0123 0.0
H745 H 0.5703 0.86569 0.09878 0.0
H746 H 0.58423 0.93081 0.97072 0.0
H747 H 0.56405 0.95741 0.92215 0.0
C748 C 0.67038 0.50077 0.28318 0.0
C749 C 0.67099 0.52964 0.32861 0.0
C750 C 0.63411 0.55463 0.26219 0.0
C751 C 0.63316 0.52556 0.21774 0.0
N752 N 0.64625 0.4693 0.19991 0.0
N753 N 0.65002 0.58203 0.37446 0.0
C754 C 0.65006 0.49812 0.23263 0.0
C755 C 0.65162 0.55587 0.32241 0.0
N756 N 0.68991 0.47618 0.28597 0.0
N757 N 0.6193 0.58149 0.24379 0.0
H758 H 0.6627 0.58372 0.4183 0.0
H759 H 0.63471 0.60078 0.37961 0.0
H760 H 0.60636 0.58162 0.20031 0.0
H761 H 0.62126 0.60408 0.26673 0.0
H762 H 0.69288 0.45595 0.2465 0.0
H763 H 0.70422 0.47678 0.32504 0.0
H764 H 0.65588 0.44792 0.21498 0.0
H765 H 0.63159 0.46647 0.16306 0.0
C766 C 1.00045 0.57115 0.18207 0.0
C767 C 0.99843 0.60462 0.17764 0.0
C768 C 0.98303 0.59891 0.04321 0.0
C769 C 0.99197 0.56593 0.03793 0.0
N770 N 1.01175 0.52094 0.10416 0.0
N771 N 0.98895 0.65059 0.09854 0.0
C772 C 1.00078 0.55185 0.10861 0.0
C773 C 0.98949 0.61866 0.10751 0.0
N774 N 1.003 0.55791 0.25622 0.0
N775 N 0.96816 0.61142 0.98698 0.0
H776 H 0.99348 0.66619 0.1432 0.0
H777 H 0.98588 0.66133 0.04363 0.0
H778 H 0.96227 0.59747 0.94106 0.0
H779 H 0.95909 0.63474 0.99222 0.0
H780 H 1.00232 0.53381 0.26574 0.0
H781 H 1.00285 0.57175 0.31035 0.0
H782 H 0.02094 0.51075 0.15112 0.0
H783 H 1.01423 0.5061 0.05097 0.0
C784 C 0.05471 0.1815 0.64269 0.0
C785 C 0.05269 0.2032 0.57916 0.0
C786 C 1.00392 0.19877 0.59555 0.0
C787 C 1.00772 0.17164 0.64148 0.0
N788 N 0.03555 0.138 0.71695 0.0
N789 N 0.0248 0.23238 0.4924 0.0
C790 C 0.0326 0.16372 0.66954 0.0
C791 C 0.02697 0.21265 0.55651 0.0
N792 N 0.07805 0.17743 0.67484 0.0
N793 N 0.97829 0.21035 0.58692 0.0
H794 H 0.04088 0.24286 0.45944 0.0
H795 H 1.00725 0.2365 0.4669 0.0
H796 H 0.96124 0.19994 0.6148 0.0
H797 H 0.97383 0.23184 0.56017 0.0
H798 H 0.08035 0.16365 0.7256 0.0
H799 H 0.09438 0.19035 0.65489 0.0
H800 H 0.05391 0.12918 0.73276 0.0
H801 H 0.01964 0.12471 0.73822 0.0
C802 C 0.34997 0.92076 0.67537 0.0
C803 C 0.34073 0.89342 0.64352 0.0
C804 C 0.38092 0.86106 0.67198 0.0
C805 C 0.39253 0.88927 0.68599 0.0
N806 N 0.38899 0.94664 0.69379 0.0
N807 N 0.34551 0.83711 0.6164 0.0
C808 C 0.37709 0.91931 0.688 0.0
C809 C 0.35543 0.86324 0.64492 0.0
N810 N 0.33316 0.94846 0.6903 0.0
N811 N 0.39458 0.83247 0.68308 0.0
H812 H 0.32633 0.83829 0.59985 0.0
H813 H 0.35641 0.81475 0.60685 0.0
H814 H 0.41332 0.83066 0.70266 0.0
H815 H 0.38654 0.81096 0.67949 0.0
H816 H 0.33807 0.96837 0.72075 0.0
H817 H 0.31324 0.95061 0.67994 0.0
H818 H 0.37986 0.96872 0.68155 0.0
H819 H 0.40881 0.94729 0.70358 0.0
C820 C 0.55265 0.4136 0.52098 0.0
C821 C 0.56555 0.38741 0.55728 0.0
C822 C 0.58244 0.42408 0.64893 0.0
C823 C 0.5663 0.44915 0.61986 0.0
N824 N 0.55223 0.46956 0.49648 0.0
N825 N 0.59736 0.36871 0.64619 0.0
C826 C 0.55737 0.44442 0.54386 0.0
C827 C 0.58221 0.39283 0.61695 0.0
N828 N 0.5338 0.40951 0.47178 0.0
N829 N 0.59789 0.42998 0.70724 0.0
H830 H 0.59833 0.34505 0.62568 0.0
H831 H 0.59833 0.34505 0.62568 0.0
H832 H 0.60024 0.45307 0.72612 0.0
H833 H 0.60938 0.41195 0.73196 0.0
H834 H 0.5225 0.42845 0.45006 0.0
H835 H 0.52696 0.38768 0.46143 0.0
H836 H 0.54694 0.46701 0.43769 0.0
H837 H 0.55637 0.49227 0.51295 0.0
C838 C 0.10099 0.48226 0.46484 0.0
C839 C 0.12307 0.48077 0.39792 0.0
C840 C 0.11082 0.53647 0.36925 0.0
C841 C 0.09088 0.53888 0.44218 0.0
N842 N 0.06898 0.51547 0.56639 0.0
N843 N 0.15173 0.50758 0.29221 0.0
C844 C 0.08647 0.51214 0.49182 0.0
C845 C 0.12874 0.50815 0.35137 0.0
N846 N 0.09385 0.45513 0.50225 0.0
N847 N 0.11244 0.56109 0.31679 0.0
H848 H 0.16549 0.48753 0.27565 0.0
H849 H 0.15836 0.52773 0.26367 0.0
H850 H 0.09996 0.58244 0.32981 0.0
H851 H 0.12448 0.55945 0.25754 0.0
H852 H 0.076 0.45404 0.54497 0.0
H853 H 0.10476 0.43297 0.48585 0.0
H854 H 0.06727 0.49765 0.60871 0.0
H855 H 0.05687 0.53638 0.58802 0.0
C856 C 0.09728 0.80447 0.08308 0.0
C857 C 0.12455 0.78995 0.06876 0.0
C858 C 0.13792 0.83125 0.97186 0.0
C859 C 0.11169 0.84782 0.99653 0.0
N860 N 0.06755 0.85279 0.08592 0.0
N861 N 0.17107 0.78909 1.00093 0.0
C862 C 0.09159 0.83497 0.05408 0.0
C863 C 0.14495 0.80309 0.01278 0.0
N864 N 0.07661 0.78952 0.12552 0.0
N865 N 0.15587 0.84244 0.90945 0.0
H866 H 0.17636 0.76769 0.02718 0.0
H867 H 0.18753 0.79915 0.9682 0.0
H868 H 0.15116 0.86319 0.87957 0.0
H869 H 0.17453 0.83018 0.88333 0.0
H870 H 0.05621 0.79712 0.12668 0.0
H871 H 0.07931 0.76829 0.15443 0.0
H872 H 0.0539 0.84633 0.13688 0.0
H873 H 0.06208 0.87547 0.06735 0.0
C874 C 0.64658 0.11165 0.09939 0.0
C875 C 0.66789 0.12807 0.05791 0.0
C876 C 0.63891 0.14814 0.96041 0.0
C877 C 0.61731 0.13326 1.00586 0.0
N878 N 0.59852 0.10768 0.13058 0.0
N879 N 0.68381 0.16521 0.95647 0.0
C880 C 0.62045 0.11757 0.07975 0.0
C881 C 0.66388 0.1475 0.99071 0.0
N882 N 0.65162 0.08877 0.15398 0.0
N883 N 0.63572 0.16195 0.88744 0.0
H884 H 0.70244 0.16443 0.97655 0.0
H885 H 0.68131 0.18201 0.91223 0.0
H886 H 0.61726 0.16378 0.86618 0.0
H887 H 0.6515 0.17027 0.84652 0.0
H888 H 0.63751 0.07363 0.17852 0.0
H889 H 0.67076 0.08232 0.16776 0.0
H890 H 0.59933 0.09939 0.1899 0.0
H891 H 0.57892 0.11049 0.11757 0.0
C892 C 0.48815 0.59187 0.04762 0.0
C893 C 0.47871 0.62145 0.01837 0.0
C894 C 0.45223 0.59381 0.93214 0.0
C895 C 0.46341 0.56462 0.95912 0.0
N896 N 0.47675 0.53911 0.07789 0.0
N897 N 0.44576 0.65133 0.95142 0.0
C898 C 0.47589 0.5649 0.02986 0.0
C899 C 0.4588 0.62278 0.96611 0.0
N900 N 0.51001 0.58895 0.08716 0.0
N901 N 0.43527 0.59368 0.87541 0.0
H902 H 0.44968 0.67269 0.97742 0.0
H903 H 0.42969 0.65379 0.91889 0.0
H904 H 0.42691 0.57323 0.86062 0.0
H905 H 0.42928 0.61357 0.84438 0.0
H906 H 0.51788 0.56734 0.10659 0.0
H907 H 0.52215 0.60717 0.09162 0.0
H908 H 0.48464 0.539 0.13302 0.0
H909 H 0.4666 0.51957 0.06696 0.0
C910 C 0.88043 0.51002 0.23961 0.0
C911 C 0.88544 0.53784 0.19444 0.0
C912 C 0.92138 0.50746 0.09671 0.0
C913 C 0.91918 0.48101 0.14818 0.0
N914 N 0.89837 0.4575 0.27268 0.0
N915 N 0.91377 0.56432 0.08986 0.0
C916 C 0.89917 0.48234 0.22098 0.0
C917 C 0.90676 0.53694 0.12569 0.0
N918 N 0.85745 0.50978 0.29843 0.0
N919 N 0.93665 0.50421 0.01847 0.0
H920 H 0.9031 0.58646 0.10841 0.0
H921 H 0.93169 0.56519 0.0473 0.0
H922 H 0.94771 0.48312 0.99306 0.0
H923 H 0.93621 0.5219 0.97579 0.0
H924 H 0.85151 0.48941 0.32732 0.0
H925 H 0.84295 0.52932 0.31334 0.0
H926 H 0.88614 0.45846 0.33157 0.0
H927 H 0.91139 0.43656 0.25879 0.0
C928 C 0.99876 0.15359 0.99073 0.0
C929 C 0.02545 0.16234 0.98533 0.0
C930 C 0.04356 0.11208 0.906 0.0
C931 C 1.01676 0.10354 0.90926 0.0
N932 N 0.96859 0.12042 0.93778 0.0
N933 N 0.07224 0.15405 0.91802 0.0
C934 C 0.9943 0.12576 0.94566 0.0
C935 C 0.04751 0.14278 0.93674 0.0
N936 N 0.97772 0.1708 0.04276 0.0
N937 N 0.06542 0.09091 0.87359 0.0
H938 H 0.07559 0.17663 0.93793 0.0
H939 H 0.08854 0.14255 0.87597 0.0
H940 H 0.06379 0.06917 0.84487 0.0
H941 H 0.08526 0.09415 0.87915 0.0
H942 H 0.95841 0.16347 0.05776 0.0
H943 H 0.98002 0.19132 0.07616 0.0
H944 H 0.95185 0.13731 0.95437 0.0
H945 H 0.96427 0.10022 0.90775 0.0
C946 C 0.39115 0.02103 0.07035 0.0
C947 C 0.37031 0.0098 0.03257 0.0
C948 C 0.40115 0.00868 0.89519 0.0
C949 C 0.42329 0.01493 0.93466 0.0
N950 N 0.43928 0.02474 0.06361 0.0
N951 N 0.35596 0.99156 0.90812 0.0
C952 C 0.41813 0.02101 0.02318 0.0
C953 C 0.37544 1.00356 0.94452 0.0
N954 N 0.38514 0.0315 0.15227 0.0
N955 N 0.40435 0.00884 0.81016 0.0
H956 H 0.33661 0.98917 0.94127 0.0
H957 H 0.35945 0.98259 0.84657 0.0
H958 H 0.42262 0.01262 0.77228 0.0
H959 H 0.3882 0.00866 0.77814 0.0
H960 H 0.39832 0.04305 0.18208 0.0
H961 H 0.36586 0.03138 0.18835 0.0
H962 H 0.43755 0.02518 0.12832 0.0
H963 H 0.45923 0.02468 0.0329 0.0
C964 C 0.51691 0.36217 0.93454 0.0
C965 C 0.49165 0.35724 0.98432 0.0
C966 C 0.47085 0.40687 0.93491 0.0
C967 C 0.49646 0.41259 0.88798 0.0
N968 N 0.54147 0.39073 0.82335 0.0
N969 N 0.4434 0.36952 0.01242 0.0
C970 C 0.5187 0.38853 0.88142 0.0
C971 C 0.4682 0.37774 0.97683 0.0
N972 N 0.5396 0.34271 0.94208 0.0
N973 N 0.44954 0.43012 0.94496 0.0
H974 H 0.44139 0.34844 0.0435 0.0
H975 H 0.4251 0.3817 1.00426 0.0
H976 H 0.45062 0.45186 0.91709 0.0
H977 H 0.43133 0.42886 0.98584 0.0
H978 H 0.55921 0.34732 0.91682 0.0
H979 H 0.53875 0.3225 0.97714 0.0
H980 H 0.55752 0.37282 0.80978 0.0
H981 H 0.54298 0.40929 0.78272 0.0
C982 C 0.1217 0.52458 0.91418 0.0
C983 C 0.143 0.50409 0.86447 0.0
C984 C 0.11101 0.49034 0.77352 0.0
C985 C 0.08994 0.51148 0.82178 0.0
N986 N 0.07686 0.55365 0.92738 0.0
N987 N 0.15943 0.47316 0.73678 0.0
C988 C 0.09591 0.53026 0.88845 0.0
C989 C 0.13809 0.48906 0.79041 0.0
N990 N 0.12549 0.53713 0.98893 0.0
N991 N 0.10484 0.46986 0.71537 0.0
H992 H 0.17927 0.47188 0.74822 0.0
H993 H 0.15792 0.46401 0.67799 0.0
H994 H 0.08513 0.46903 0.70464 0.0
H995 H 0.11864 0.45182 0.68338 0.0
H996 H 0.10984 0.5486 0.03334 0.0
H997 H 0.14407 0.53435 1.00924 0.0
H998 H 0.08068 0.57022 0.97091 0.0
H999 H 0.05784 0.55828 0.91055 0.0
C1000 C 0.98668 0.87906 0.60993 0.0
C1001 C 1.0077 0.85525 0.6208 0.0
C1002 C 0.02747 0.89482 0.69742 0.0
C1003 C 1.00495 0.91769 0.69556 0.0
N1004 N 0.95968 0.92815 0.6653 0.0
N1005 N 0.04296 0.83915 0.69891 0.0
C1006 C 0.98348 0.90881 0.65636 0.0
C1007 C 0.02629 0.86274 0.67279 0.0
N1008 N 0.97059 0.87416 0.55254 0.0
N1009 N 0.05099 0.9039 0.71642 0.0
H1010 H 0.04199 0.81523 0.68469 0.0
H1011 H 0.05541 0.84328 0.74207 0.0
H1012 H 0.05374 0.92748 0.72806 0.0
H1013 H 0.06872 0.88839 0.71094 0.0
H1014 H 0.95694 0.89196 0.53601 0.0
H1015 H 0.97256 0.85324 0.51606 0.0
H1016 H 0.94256 0.92148 0.64448 0.0
H1017 H 0.95611 0.94935 0.70121 0.0
C1018 C 0.63391 0.02916 0.65646 0.0
C1019 C 0.64631 1.00509 0.59501 0.0
C1020 C 0.60555 0.97672 0.63535 0.0
C1021 C 0.5915 1.00352 0.68517 0.0
N1022 N 0.59164 0.05915 0.72019 0.0
N1023 N 0.64008 0.9583 0.51559 0.0
C1024 C 0.60556 0.03077 0.68993 0.0
C1025 C 0.63113 0.97936 0.58187 0.0
N1026 N 0.64922 0.05058 0.68378 0.0
N1027 N 0.59498 0.94835 0.64038 0.0
H1028 H 0.65775 0.95996 0.47257 0.0
H1029 H 0.62843 0.94114 0.49852 0.0
H1030 H 0.57718 0.94497 0.68118 0.0
H1031 H 0.6055 0.92746 0.61121 0.0
H1032 H 0.64157 0.06703 0.73312 0.0
H1033 H 0.67016 0.04943 0.66357 0.0
H1034 H 0.60067 0.08021 0.71802 0.0
H1035 H 0.57059 0.0624 0.73765 0.0
C1036 C 0.53817 0.64864 0.67298 0.0
C1037 C 0.52691 0.65328 0.59937 0.0
C1038 C 0.51217 0.59999 0.61007 0.0
C1039 C 0.52078 0.59597 0.68837 0.0
N1040 N 0.53689 0.62095 0.80272 0.0
N1041 N 0.49525 0.63705 0.51642 0.0
C1042 C 0.53231 0.62165 0.72258 0.0
C1043 C 0.51088 0.63032 0.57547 0.0
N1044 N 0.55488 0.66953 0.69447 0.0
N1045 N 0.50758 0.57437 0.56405 0.0
H1046 H 0.49361 0.65936 0.49149 0.0
H1047 H 0.48179 0.62186 0.5003 0.0
H1048 H 0.51207 0.5511 0.5802 0.0
H1049 H 0.50323 0.57604 0.50389 0.0
H1050 H 0.5661 0.66581 0.74202 0.0
H1051 H 0.55843 0.68984 0.66123 0.0
H1052 H 0.54357 0.63983 0.83256 0.0
H1053 H 0.53148 0.6028 0.84207 0.0
C1054 C 0.89024 0.51719 0.68429 0.0
C1055 C 0.86847 0.53443 0.74095 0.0
C1056 C 0.90067 0.54484 0.83396 0.0
C1057 C 0.92207 0.52564 0.78088 0.0
N1058 N 0.93552 0.48922 0.66034 0.0
N1059 N 0.85205 0.55657 0.88018 0.0
C1060 C 0.91615 0.51005 0.70847 0.0
C1061 C 0.87347 0.54537 0.81941 0.0
N1062 N 0.88709 0.50971 0.60459 0.0
N1063 N 0.90624 0.56394 0.89603 0.0
H1064 H 0.83198 0.55684 0.87136 0.0
H1065 H 0.8541 0.56225 0.94129 0.0
H1066 H 0.92582 0.56555 0.90671 0.0
H1067 H 0.89179 0.58062 0.93118 0.0
H1068 H 0.90318 0.50129 0.55728 0.0
H1069 H 0.86887 0.51416 0.58311 0.0
H1070 H 0.93129 0.47413 0.61391 0.0
H1071 H 0.95547 0.48547 0.66965 0.0
loop_
_geom_bond_atom_site_label_1
_geom_bond_atom_site_label_2
_geom_bond_distance
_geom_bond_site_symmetry_2
_ccdc_geom_bond_type
C0 C1 1.391 . S
C0 C4 1.391 . S
C0 H42 0.948 . S
C1 C0 1.391 . S
C1 C2 1.391 . S
C2 C1 1.391 . S
C2 H58 0.947 . S
C2 C59 1.392 . S
C3 C4 1.391 . S
C3 C7 1.397 . S
C3 C59 1.419 . S
C4 C0 1.391 . S
C4 C3 1.391 . S
C4 C5 1.399 . S
C5 C4 1.399 . S
C5 C8 1.396 . S
C5 C17 1.453 . S
C5 C18 1.684 . S
H6 C30 0.948 . S
C7 C3 1.397 . S
C7 C8 1.394 . S
C7 C26 1.723 . S
C8 C5 1.396 . S
C8 C7 1.394 . S
C8 C38 1.723 . S
H9 C32 0.947 . S
H10 C33 0.948 . S
H11 C39 0.982 . S
H12 C40 0.979 . S
H13 C40 0.980 . S
H14 C40 0.983 . S
H15 C39 0.979 . S
H16 C39 0.977 . S
C17 C5 1.453 . S
C17 H46 0.982 . S
C17 H47 0.979 . S
C17 H48 0.977 . S
C18 C5 1.684 . S
C18 H43 0.979 . S
C18 H44 0.980 . S
C18 H45 0.983 . S
C19 C20 1.391 . S
C19 C24 1.391 . S
C19 H49 0.948 . S
C20 C19 1.391 . S
C20 C21 1.391 . S
C21 C20 1.391 . S
C21 C22 1.392 . S
C21 H50 0.947 . S
C22 C21 1.392 . S
C22 C23 1.419 . S
C22 H51 0.948 . S
C23 C22 1.419 . S
C23 C24 1.391 . S
C23 C27 1.397 . S
C24 C19 1.391 . S
C24 C23 1.391 . S
C24 C25 1.399 . S
C25 C24 1.399 . S
C25 C26 1.396 . S
C25 C28 1.453 . S
C25 C29 1.684 . S
C26 C7 1.723 . S
C26 C25 1.396 . S
C26 C27 1.394 . S
C27 C23 1.397 . S
C27 C26 1.394 . S
C27 C37 1.723 . S
C28 C25 1.453 . S
C28 H52 0.982 . S
C28 H53 0.979 . S
C28 H54 0.977 . S
C29 C25 1.684 . S
C29 H55 0.979 . S
C29 H56 0.980 . S
C29 H57 0.983 . S
C30 H6 0.948 . S
C30 C31 1.391 . S
C30 C35 1.391 . S
C31 C30 1.391 . S
C31 C32 1.391 . S
C32 H9 0.947 . S
C32 C31 1.391 . S
C32 C33 1.392 . S
C33 H10 0.948 . S
C33 C32 1.392 . S
C33 C34 1.419 . S
C34 C33 1.419 . S
C34 C35 1.391 . S
C34 C38 1.397 . S
C35 C30 1.391 . S
C35 C34 1.391 . S
C35 C36 1.399 . S
C36 C35 1.399 . S
C36 C37 1.396 . S
C36 C39 1.453 . S
C36 C40 1.684 . S
C37 C27 1.723 . S
C37 C36 1.396 . S
C37 C38 1.394 . S
C38 C8 1.723 . S
C38 C34 1.397 . S
C38 C37 1.394 . S
C39 H11 0.982 . S
C39 H15 0.979 . S
C39 H16 0.977 . S
C39 C36 1.453 . S
C40 H12 0.979 . S
C40 H13 0.980 . S
C40 H14 0.983 . S
C40 C36 1.684 . S
H41 C59 0.948 . S
H42 C0 0.948 . S
H43 C18 0.979 . S
H44 C18 0.980 . S
H45 C18 0.983 . S
H46 C17 0.982 . S
H47 C17 0.979 . S
H48 C17 0.977 . S
H49 C19 0.948 . S
H50 C21 0.947 . S
H51 C22 0.948 . S
H52 C28 0.982 . S
H53 C28 0.979 . S
H54 C28 0.977 . S
H55 C29 0.979 . S
H56 C29 0.980 . S
H57 C29 0.983 . S
H58 C2 0.947 . S
C59 C2 1.392 . S
C59 C3 1.419 . S
C59 H41 0.948 . S
C60 C61 1.391 . S
C60 C64 1.391 . S
C60 H102 0.948 . S
C61 C60 1.391 . S
C61 C62 1.391 . S
C62 C61 1.391 . S
C62 H118 0.947 . S
C62 C119 1.392 . S
C63 C64 1.391 . S
C63 C67 1.397 1_655 S
C63 C119 1.419 . S
C64 C60 1.391 . S
C64 C63 1.391 . S
C64 C65 1.399 . S
C65 C64 1.399 . S
C65 C68 1.396 1_655 S
C65 C77 1.453 1_655 S
C65 C78 1.684 . S
H66 C90 0.948 . S
C67 C63 1.397 1_455 S
C67 C68 1.395 . S
C67 C86 1.722 . S
C68 C65 1.396 1_455 S
C68 C67 1.395 . S
C68 C98 1.723 . S
H69 C92 0.947 . S
H70 C93 0.948 . S
H71 C99 0.982 . S
H72 C100 0.979 . S
H73 C100 0.980 . S
H74 C100 0.983 . S
H75 C99 0.979 . S
H76 C99 0.977 . S
C77 C65 1.453 1_455 S
C77 H106 0.982 . S
C77 H107 0.979 . S
C77 H108 0.977 . S
C78 C65 1.684 . S
C78 H103 0.979 . S
C78 H104 0.980 . S
C78 H105 0.983 . S
C79 C80 1.391 . S
C79 C84 1.391 . S
C79 H109 0.948 . S
C80 C79 1.391 . S
C80 C81 1.391 . S
C81 C80 1.391 . S
C81 C82 1.392 . S
C81 H110 0.947 . S
C82 C81 1.392 . S
C82 C83 1.419 . S
C82 H111 0.948 . S
C83 C82 1.419 . S
C83 C84 1.391 . S
C83 C87 1.397 1_655 S
C84 C79 1.391 . S
C84 C83 1.391 . S
C84 C85 1.399 . S
C85 C84 1.399 . S
C85 C86 1.396 1_655 S
C85 C88 1.453 1_655 S
C85 C89 1.684 . S
C86 C67 1.722 . S
C86 C85 1.396 1_455 S
C86 C87 1.394 . S
C87 C83 1.397 1_455 S
C87 C86 1.394 . S
C87 C97 1.723 . S
C88 C85 1.453 1_455 S
C88 H112 0.982 . S
C88 H113 0.979 . S
C88 H114 0.977 . S
C89 C85 1.684 . S
C89 H115 0.979 . S
C89 H116 0.980 . S
C89 H117 0.983 . S
C90 H66 0.948 . S
C90 C91 1.391 . S
C90 C95 1.391 . S
C91 C90 1.391 . S
C91 C92 1.391 . S
C92 H69 0.947 . S
C92 C91 1.391 . S
C92 C93 1.392 . S
C93 H70 0.948 . S
C93 C92 1.392 . S
C93 C94 1.419 . S
C94 C93 1.419 . S
C94 C95 1.391 . S
C94 C98 1.397 1_655 S
C95 C90 1.391 . S
C95 C94 1.391 . S
C95 C96 1.399 . S
C96 C95 1.399 . S
C96 C97 1.396 1_655 S
C96 C99 1.453 1_655 S
C96 C100 1.684 . S
C97 C87 1.723 . S
C97 C96 1.396 1_455 S
C97 C98 1.394 . S
C98 C68 1.723 . S
C98 C94 1.397 1_455 S
C98 C97 1.394 . S
C99 H71 0.982 . S
C99 H75 0.979 . S
C99 H76 0.977 . S
C99 C96 1.453 1_455 S
C100 H72 0.979 . S
C100 H73 0.980 . S
C100 H74 0.983 . S
C100 C96 1.684 . S
H101 C119 0.948 . S
H102 C60 0.948 . S
H103 C78 0.979 . S
H104 C78 0.980 . S
H105 C78 0.983 . S
H106 C77 0.982 . S
H107 C77 0.979 . S
H108 C77 0.977 . S
H109 C79 0.948 . S
H110 C81 0.947 . S
H111 C82 0.948 . S
H112 C88 0.982 . S
H113 C88 0.979 . S
H114 C88 0.977 . S
H115 C89 0.979 . S
H116 C89 0.980 . S
H117 C89 0.983 . S
H118 C62 0.947 . S
C119 C62 1.392 . S
C119 C63 1.419 . S
C119 H101 0.948 . S
C120 C121 1.391 . S
C120 C124 1.391 . S
C120 H162 0.948 . S
C121 C120 1.391 . S
C121 C122 1.391 . S
C122 C121 1.391 . S
C122 H178 0.947 . S
C122 C179 1.392 . S
C123 C124 1.391 . S
C123 C127 1.397 1_565 S
C123 C179 1.419 . S
C124 C120 1.391 . S
C124 C123 1.391 . S
C124 C125 1.399 . S
C125 C124 1.399 . S
C125 C128 1.396 1_565 S
C125 C137 1.453 1_565 S
C125 C138 1.684 . S
H126 C150 0.948 . S
C127 C123 1.397 1_545 S
C127 C128 1.394 . S
C127 C146 1.723 . S
C128 C125 1.396 1_545 S
C128 C127 1.394 . S
C128 C158 1.723 . S
H129 C152 0.947 . S
H130 C153 0.948 . S
H131 C159 0.982 . S
H132 C160 0.979 . S
H133 C160 0.980 . S
H134 C160 0.983 . S
H135 C159 0.979 . S
H136 C159 0.977 . S
C137 C125 1.453 1_545 S
C137 H166 0.982 . S
C137 H167 0.979 . S
C137 H168 0.977 . S
C138 C125 1.684 . S
C138 H163 0.979 . S
C138 H164 0.980 . S
C138 H165 0.983 . S
C139 C140 1.391 . S
C139 C144 1.391 . S
C139 H169 0.948 . S
C140 C139 1.391 . S
C140 C141 1.391 . S
C141 C140 1.391 . S
C141 C142 1.392 . S
C141 H170 0.947 . S
C142 C141 1.392 . S
C142 C143 1.419 . S
C142 H171 0.948 . S
C143 C142 1.419 . S
C143 C144 1.391 . S
C143 C147 1.397 1_565 S
C144 C139 1.391 . S
C144 C143 1.391 . S
C144 C145 1.399 . S
C145 C144 1.399 . S
C145 C146 1.396 1_565 S
C145 C148 1.453 1_565 S
C145 C149 1.684 . S
C146 C127 1.723 . S
C146 C145 1.396 1_545 S
C146 C147 1.394 . S
C147 C143 1.397 1_545 S
C147 C146 1.394 . S
C147 C157 1.723 . S
C148 C145 1.453 1_545 S
C148 H172 0.982 . S
C148 H173 0.979 . S
C148 H174 0.977 . S
C149 C145 1.684 . S
C149 H175 0.979 . S
C149 H176 0.980 . S
C149 H177 0.983 . S
C150 H126 0.948 . S
C150 C151 1.391 . S
C150 C155 1.391 . S
C151 C150 1.391 . S
C151 C152 1.391 . S
C152 H129 0.947 . S
C152 C151 1.391 . S
C152 C153 1.392 . S
C153 H130 0.948 . S
C153 C152 1.392 . S
C153 C154 1.419 . S
C154 C153 1.419 . S
C154 C155 1.391 . S
C154 C158 1.397 1_565 S
C155 C150 1.391 . S
C155 C154 1.391 . S
C155 C156 1.399 . S
C156 C155 1.399 . S
C156 C157 1.396 1_565 S
C156 C159 1.453 1_565 S
C156 C160 1.684 . S
C157 C147 1.723 . S
C157 C156 1.396 1_545 S
C157 C158 1.394 . S
C158 C128 1.723 . S
C158 C154 1.397 1_545 S
C158 C157 1.394 . S
C159 H131 0.982 . S
C159 H135 0.979 . S
C159 H136 0.977 . S
C159 C156 1.453 1_545 S
C160 H132 0.979 . S
C160 H133 0.980 . S
C160 H134 0.983 . S
C160 C156 1.684 . S
H161 C179 0.948 . S
H162 C120 0.948 . S
H163 C138 0.979 . S
H164 C138 0.980 . S
H165 C138 0.983 . S
H166 C137 0.982 . S
H167 C137 0.979 . S
H168 C137 0.977 . S
H169 C139 0.948 . S
H170 C141 0.947 . S
H171 C142 0.948 . S
H172 C148 0.982 . S
H173 C148 0.979 . S
H174 C148 0.977 . S
H175 C149 0.979 . S
H176 C149 0.980 . S
H177 C149 0.983 . S
H178 C122 0.947 . S
C179 C122 1.392 . S
C179 C123 1.419 . S
C179 H161 0.948 . S
C180 C181 1.391 . S
C180 C184 1.391 . S
C180 H222 0.948 . S
C181 C180 1.391 . S
C181 C182 1.391 . S
C182 C181 1.391 . S
C182 H238 0.947 . S
C182 C239 1.392 . S
C183 C184 1.391 . S
C183 C187 1.397 . S
C183 C239 1.419 . S
C184 C180 1.391 . S
C184 C183 1.391 . S
C184 C185 1.399 . S
C185 C184 1.399 . S
C185 C188 1.396 . S
C185 C197 1.453 . S
C185 C198 1.684 . S
H186 C210 0.948 . S
C187 C183 1.397 . S
C187 C188 1.394 . S
C187 C206 1.723 . S
C188 C185 1.396 . S
C188 C187 1.394 . S
C188 C218 1.723 . S
H189 C212 0.947 . S
H190 C213 0.948 . S
H191 C219 0.982 1_554 S
H192 C220 0.979 1_554 S
H193 C220 0.980 . S
H194 C220 0.983 . S
H195 C219 0.979 . S
H196 C219 0.977 . S
C197 C185 1.453 . S
C197 H226 0.982 . S
C197 H227 0.979 . S
C197 H228 0.977 . S
C198 C185 1.684 . S
C198 H223 0.979 . S
C198 H224 0.980 . S
C198 H225 0.983 . S
C199 C200 1.391 1_554 S
C199 C204 1.391 . S
C199 H229 0.948 . S
C200 C199 1.391 1_556 S
C200 C201 1.391 . S
C201 C200 1.391 . S
C201 C202 1.392 . S
C201 H230 0.947 . S
C202 C201 1.392 . S
C202 C203 1.419 1_556 S
C202 H231 0.948 . S
C203 C202 1.419 1_554 S
C203 C204 1.391 . S
C203 C207 1.397 . S
C204 C199 1.391 . S
C204 C203 1.391 . S
C204 C205 1.399 . S
C205 C204 1.399 . S
C205 C206 1.396 . S
C205 C208 1.453 . S
C205 C209 1.684 . S
C206 C187 1.723 . S
C206 C205 1.396 . S
C206 C207 1.394 . S
C207 C203 1.397 . S
C207 C206 1.394 . S
C207 C217 1.723 . S
C208 C205 1.453 . S
C208 H232 0.982 . S
C208 H233 0.979 . S
C208 H234 0.977 . S
C209 C205 1.684 . S
C209 H235 0.979 . S
C209 H236 0.980 . S
C209 H237 0.983 . S
C210 H186 0.948 . S
C210 C211 1.391 . S
C210 C215 1.391 . S
C211 C210 1.391 . S
C211 C212 1.391 . S
C212 H189 0.947 . S
C212 C211 1.391 . S
C212 C213 1.392 . S
C213 H190 0.948 . S
C213 C212 1.392 . S
C213 C214 1.419 . S
C214 C213 1.419 . S
C214 C215 1.391 . S
C214 C218 1.397 . S
C215 C210 1.391 . S
C215 C214 1.391 . S
C215 C216 1.399 . S
C216 C215 1.399 . S
C216 C217 1.396 . S
C216 C219 1.453 1_554 S
C216 C220 1.684 1_554 S
C217 C207 1.723 . S
C217 C216 1.396 . S
C217 C218 1.394 . S
C218 C188 1.723 . S
C218 C214 1.397 . S
C218 C217 1.394 . S
C219 H191 0.982 1_556 S
C219 H195 0.979 . S
C219 H196 0.977 . S
C219 C216 1.453 1_556 S
C220 H192 0.979 1_556 S
C220 H193 0.980 . S
C220 H194 0.983 . S
C220 C216 1.684 1_556 S
H221 C239 0.948 . S
H222 C180 0.948 . S
H223 C198 0.979 . S
H224 C198 0.980 . S
H225 C198 0.983 . S
H226 C197 0.982 . S
H227 C197 0.979 . S
H228 C197 0.977 . S
H229 C199 0.948 . S
H230 C201 0.947 . S
H231 C202 0.948 . S
H232 C208 0.982 . S
H233 C208 0.979 . S
H234 C208 0.977 . S
H235 C209 0.979 . S
H236 C209 0.980 . S
H237 C209 0.983 . S
H238 C182 0.947 . S
C239 C182 1.392 . S
C239 C183 1.419 . S
C239 H221 0.948 . S
C240 C241 1.391 1_556 S
C240 C244 1.391 . S
C240 H282 0.948 . S
C241 C240 1.391 1_554 S
C241 C242 1.391 . S
C242 C241 1.391 . S
C242 H298 0.947 . S
C242 C299 1.392 . S
C243 C244 1.391 1_554 S
C243 C247 1.397 . S
C243 C299 1.419 . S
C244 C240 1.391 . S
C244 C243 1.391 1_556 S
C244 C245 1.399 . S
C245 C244 1.399 . S
C245 C248 1.396 . S
C245 C257 1.453 . S
C245 C258 1.684 . S
H246 C270 0.948 . S
C247 C243 1.397 . S
C247 C248 1.394 1_554 S
C247 C266 1.723 . S
C248 C245 1.396 . S
C248 C247 1.394 1_556 S
C248 C278 1.723 . S
H249 C272 0.947 . S
H250 C273 0.948 . S
H251 C279 0.982 . S
H252 C280 0.979 . S
H253 C280 0.980 . S
H254 C280 0.983 . S
H255 C279 0.979 . S
H256 C279 0.977 . S
C257 C245 1.453 . S
C257 H286 0.982 . S
C257 H287 0.979 . S
C257 H288 0.977 . S
C258 C245 1.684 . S
C258 H283 0.979 . S
C258 H284 0.980 . S
C258 H285 0.983 . S
C259 C260 1.391 . S
C259 C264 1.391 . S
C259 H289 0.948 . S
C260 C259 1.391 . S
C260 C261 1.391 . S
C261 C260 1.391 . S
C261 C262 1.392 . S
C261 H290 0.947 . S
C262 C261 1.392 . S
C262 C263 1.419 . S
C262 H291 0.948 . S
C263 C262 1.419 . S
C263 C264 1.391 . S
C263 C267 1.397 . S
C264 C259 1.391 . S
C264 C263 1.391 . S
C264 C265 1.399 . S
C265 C264 1.399 . S
C265 C266 1.396 . S
C265 C268 1.453 . S
C265 C269 1.684 . S
C266 C247 1.723 . S
C266 C265 1.396 . S
C266 C267 1.394 . S
C267 C263 1.397 . S
C267 C266 1.394 . S
C267 C277 1.723 1_554 S
C268 C265 1.453 . S
C268 H292 0.982 . S
C268 H293 0.979 . S
C268 H294 0.977 . S
C269 C265 1.684 . S
C269 H295 0.979 . S
C269 H296 0.980 . S
C269 H297 0.983 . S
C270 H246 0.948 . S
C270 C271 1.391 . S
C270 C275 1.391 . S
C271 C270 1.391 . S
C271 C272 1.391 . S
C272 H249 0.947 . S
C272 C271 1.391 . S
C272 C273 1.392 . S
C273 H250 0.948 . S
C273 C272 1.392 . S
C273 C274 1.419 . S
C274 C273 1.419 . S
C274 C275 1.391 . S
C274 C278 1.397 . S
C275 C270 1.391 . S
C275 C274 1.391 . S
C275 C276 1.399 . S
C276 C275 1.399 . S
C276 C277 1.396 . S
C276 C279 1.453 . S
C276 C280 1.684 . S
C277 C267 1.723 1_556 S
C277 C276 1.396 . S
C277 C278 1.394 . S
C278 C248 1.723 . S
C278 C274 1.397 . S
C278 C277 1.394 . S
C279 H251 0.982 . S
C279 H255 0.979 . S
C279 H256 0.977 . S
C279 C276 1.453 . S
C280 H252 0.979 . S
C280 H253 0.980 . S
C280 H254 0.983 . S
C280 C276 1.684 . S
H281 C299 0.948 . S
H282 C240 0.948 . S
H283 C258 0.979 . S
H284 C258 0.980 . S
H285 C258 0.983 . S
H286 C257 0.982 . S
H287 C257 0.979 . S
H288 C257 0.977 . S
H289 C259 0.948 . S
H290 C261 0.947 . S
H291 C262 0.948 . S
H292 C268 0.982 . S
H293 C268 0.979 . S
H294 C268 0.977 . S
H295 C269 0.979 . S
H296 C269 0.980 . S
H297 C269 0.983 . S
H298 C242 0.947 . S
C299 C242 1.392 . S
C299 C243 1.419 . S
C299 H281 0.948 . S
C300 C301 1.391 . S
C300 C304 1.391 . S
C300 H342 0.948 . S
C301 C300 1.391 . S
C301 C302 1.391 . S
C302 C301 1.391 . S
C302 H358 0.947 . S
C302 C359 1.392 . S
C303 C304 1.391 . S
C303 C307 1.397 1_655 S
C303 C359 1.419 . S
C304 C300 1.391 . S
C304 C303 1.391 . S
C304 C305 1.399 . S
C305 C304 1.399 . S
C305 C308 1.396 1_655 S
C305 C317 1.453 1_655 S
C305 C318 1.684 . S
H306 C330 0.948 . S
C307 C303 1.397 1_455 S
C307 C308 1.396 . S
C307 C326 1.722 . S
C308 C305 1.396 1_455 S
C308 C307 1.396 . S
C308 C338 1.723 . S
H309 C332 0.947 . S
H310 C333 0.948 . S
H311 C339 0.982 . S
H312 C340 0.979 . S
H313 C340 0.980 1_556 S
H314 C340 0.983 . S
H315 C339 0.979 . S
H316 C339 0.977 1_556 S
C317 C305 1.453 1_455 S
C317 H346 0.982 . S
C317 H347 0.979 . S
C317 H348 0.977 . S
C318 C305 1.684 . S
C318 H343 0.979 . S
C318 H344 0.980 . S
C318 H345 0.983 . S
C319 C320 1.391 . S
C319 C324 1.391 . S
C319 H349 0.948 . S
C320 C319 1.391 . S
C320 C321 1.391 . S
C321 C320 1.391 . S
C321 C322 1.392 . S
C321 H350 0.947 . S
C322 C321 1.392 . S
C322 C323 1.419 . S
C322 H351 0.948 . S
C323 C322 1.419 . S
C323 C324 1.391 . S
C323 C327 1.395 1_656 S
C324 C319 1.391 . S
C324 C323 1.391 . S
C324 C325 1.399 1_556 S
C325 C324 1.399 1_554 S
C325 C326 1.396 1_655 S
C325 C328 1.453 1_655 S
C325 C329 1.684 . S
C326 C307 1.722 . S
C326 C325 1.396 1_455 S
C326 C327 1.394 . S
C327 C323 1.395 1_454 S
C327 C326 1.394 . S
C327 C337 1.725 . S
C328 C325 1.453 1_455 S
C328 H352 0.982 . S
C328 H353 0.979 . S
C328 H354 0.977 . S
C329 C325 1.684 . S
C329 H355 0.979 . S
C329 H356 0.980 . S
C329 H357 0.983 . S
C330 H306 0.948 . S
C330 C331 1.391 . S
C330 C335 1.391 . S
C331 C330 1.391 . S
C331 C332 1.391 . S
C332 H309 0.947 . S
C332 C331 1.391 . S
C332 C333 1.392 . S
C333 H310 0.948 . S
C333 C332 1.392 . S
C333 C334 1.419 . S
C334 C333 1.419 . S
C334 C335 1.391 . S
C334 C338 1.398 1_655 S
C335 C330 1.391 . S
C335 C334 1.391 . S
C335 C336 1.399 . S
C336 C335 1.399 . S
C336 C337 1.396 1_655 S
C336 C339 1.453 1_655 S
C336 C340 1.684 . S
C337 C327 1.725 . S
C337 C336 1.396 1_455 S
C337 C338 1.393 . S
C338 C308 1.723 . S
C338 C334 1.398 1_455 S
C338 C337 1.393 . S
C339 H311 0.982 . S
C339 H315 0.979 . S
C339 H316 0.977 1_554 S
C339 C336 1.453 1_455 S
C340 H312 0.979 . S
C340 H313 0.980 1_554 S
C340 H314 0.983 . S
C340 C336 1.684 . S
H341 C359 0.948 . S
H342 C300 0.948 . S
H343 C318 0.979 . S
H344 C318 0.980 . S
H345 C318 0.983 . S
H346 C317 0.982 . S
H347 C317 0.979 . S
H348 C317 0.977 . S
H349 C319 0.948 . S
H350 C321 0.947 . S
H351 C322 0.948 . S
H352 C328 0.982 . S
H353 C328 0.979 . S
H354 C328 0.977 . S
H355 C329 0.979 . S
H356 C329 0.980 . S
H357 C329 0.983 . S
H358 C302 0.947 . S
C359 C302 1.392 . S
C359 C303 1.419 . S
C359 H341 0.948 . S
C360 C361 1.391 . S
C360 C364 1.391 1_556 S
C360 H402 0.948 . S
C361 C360 1.391 . S
C361 C362 1.391 . S
C362 C361 1.391 . S
C362 H418 0.947 . S
C362 C419 1.392 1_556 S
C363 C364 1.391 . S
C363 C367 1.397 1_545 S
C363 C419 1.419 . S
C364 C360 1.391 1_554 S
C364 C363 1.391 . S
C364 C365 1.399 . S
C365 C364 1.399 . S
C365 C368 1.396 1_545 S
C365 C377 1.453 1_545 S
C365 C378 1.684 . S
H366 C390 0.948 . S
C367 C363 1.397 1_565 S
C367 C368 1.394 . S
C367 C386 1.723 . S
C368 C365 1.396 1_565 S
C368 C367 1.394 . S
C368 C398 1.723 . S
H369 C392 0.947 . S
H370 C393 0.948 . S
H371 C399 0.982 . S
H372 C400 0.979 . S
H373 C400 0.980 . S
H374 C400 0.983 . S
H375 C399 0.979 . S
H376 C399 0.977 . S
C377 C365 1.453 1_565 S
C377 H406 0.982 . S
C377 H407 0.979 1_554 S
C377 H408 0.977 . S
C378 C365 1.684 . S
C378 H403 0.979 . S
C378 H404 0.980 . S
C378 H405 0.983 1_554 S
C379 C380 1.391 . S
C379 C384 1.391 . S
C379 H409 0.948 . S
C380 C379 1.391 . S
C380 C381 1.391 . S
C381 C380 1.391 . S
C381 C382 1.392 . S
C381 H410 0.947 . S
C382 C381 1.392 . S
C382 C383 1.419 . S
C382 H411 0.948 . S
C383 C382 1.419 . S
C383 C384 1.391 . S
C383 C387 1.397 1_545 S
C384 C379 1.391 . S
C384 C383 1.391 . S
C384 C385 1.399 . S
C385 C384 1.399 . S
C385 C386 1.396 1_545 S
C385 C388 1.453 1_545 S
C385 C389 1.684 . S
C386 C367 1.723 . S
C386 C385 1.396 1_565 S
C386 C387 1.394 . S
C387 C383 1.397 1_565 S
C387 C386 1.394 . S
C387 C397 1.723 . S
C388 C385 1.453 1_565 S
C388 H412 0.982 . S
C388 H413 0.979 . S
C388 H414 0.977 . S
C389 C385 1.684 . S
C389 H415 0.979 . S
C389 H416 0.980 . S
C389 H417 0.983 . S
C390 H366 0.948 . S
C390 C391 1.391 . S
C390 C395 1.391 . S
C391 C390 1.391 . S
C391 C392 1.391 . S
C392 H369 0.947 . S
C392 C391 1.391 . S
C392 C393 1.392 . S
C393 H370 0.948 . S
C393 C392 1.392 . S
C393 C394 1.419 . S
C394 C393 1.419 . S
C394 C395 1.391 . S
C394 C398 1.397 1_545 S
C395 C390 1.391 . S
C395 C394 1.391 . S
C395 C396 1.399 . S
C396 C395 1.399 . S
C396 C397 1.396 1_545 S
C396 C399 1.453 1_545 S
C396 C400 1.684 . S
C397 C387 1.723 . S
C397 C396 1.396 1_565 S
C397 C398 1.394 . S
C398 C368 1.723 . S
C398 C394 1.397 1_565 S
C398 C397 1.394 . S
C399 H371 0.982 . S
C399 H375 0.979 . S
C399 H376 0.977 . S
C399 C396 1.453 1_565 S
C400 H372 0.979 . S
C400 H373 0.980 . S
C400 H374 0.983 . S
C400 C396 1.684 . S
H401 C419 0.948 . S
H402 C360 0.948 . S
H403 C378 0.979 . S
H404 C378 0.980 . S
H405 C378 0.983 1_556 S
H406 C377 0.982 . S
H407 C377 0.979 1_556 S
H408 C377 0.977 . S
H409 C379 0.948 . S
H410 C381 0.947 . S
H411 C382 0.948 . S
H412 C388 0.982 . S
H413 C388 0.979 . S
H414 C388 0.977 . S
H415 C389 0.979 . S
H416 C389 0.980 . S
H417 C389 0.983 . S
H418 C362 0.947 . S
C419 C362 1.392 1_554 S
C419 C363 1.419 . S
C419 H401 0.948 . S
C420 C421 1.391 . S
C420 C424 1.391 . S
C420 H462 0.948 . S
C421 C420 1.391 . S
C421 C422 1.391 . S
C422 C421 1.391 . S
C422 H478 0.947 . S
C422 C479 1.392 . S
C423 C424 1.391 . S
C423 C427 1.397 . S
C423 C479 1.419 . S
C424 C420 1.391 . S
C424 C423 1.391 . S
C424 C425 1.399 . S
C425 C424 1.399 . S
C425 C428 1.396 . S
C425 C437 1.453 . S
C425 C438 1.684 . S
H426 C450 0.948 . S
C427 C423 1.397 . S
C427 C428 1.394 . S
C427 C446 1.723 . S
C428 C425 1.396 . S
C428 C427 1.394 . S
C428 C458 1.723 . S
H429 C452 0.947 . S
H430 C453 0.948 . S
H431 C459 0.982 . S
H432 C460 0.979 . S
H433 C460 0.980 . S
H434 C460 0.983 . S
H435 C459 0.979 . S
H436 C459 0.977 . S
C437 C425 1.453 . S
C437 H466 0.982 . S
C437 H467 0.979 . S
C437 H468 0.977 . S
C438 C425 1.684 . S
C438 H463 0.979 . S
C438 H464 0.980 . S
C438 H465 0.983 . S
C439 C440 1.391 . S
C439 C444 1.391 . S
C439 H469 0.948 . S
C440 C439 1.391 . S
C440 C441 1.391 . S
C441 C440 1.391 . S
C441 C442 1.392 . S
C441 H470 0.947 . S
C442 C441 1.392 . S
C442 C443 1.419 . S
C442 H471 0.948 . S
C443 C442 1.419 . S
C443 C444 1.391 . S
C443 C447 1.397 . S
C444 C439 1.391 . S
C444 C443 1.391 . S
C444 C445 1.399 . S
C445 C444 1.399 . S
C445 C446 1.396 . S
C445 C448 1.453 . S
C445 C449 1.684 . S
C446 C427 1.723 . S
C446 C445 1.396 . S
C446 C447 1.394 . S
C447 C443 1.397 . S
C447 C446 1.394 . S
C447 C457 1.723 . S
C448 C445 1.453 . S
C448 H472 0.982 . S
C448 H473 0.979 . S
C448 H474 0.977 . S
C449 C445 1.684 . S
C449 H475 0.979 . S
C449 H476 0.980 . S
C449 H477 0.983 . S
C450 H426 0.948 . S
C450 C451 1.391 . S
C450 C455 1.391 . S
C451 C450 1.391 . S
C451 C452 1.391 . S
C452 H429 0.947 . S
C452 C451 1.391 . S
C452 C453 1.392 . S
C453 H430 0.948 . S
C453 C452 1.392 . S
C453 C454 1.419 . S
C454 C453 1.419 . S
C454 C455 1.391 . S
C454 C458 1.397 . S
C455 C450 1.391 . S
C455 C454 1.391 . S
C455 C456 1.399 . S
C456 C455 1.399 . S
C456 C457 1.396 . S
C456 C459 1.453 . S
C456 C460 1.684 . S
C457 C447 1.723 . S
C457 C456 1.396 . S
C457 C458 1.394 . S
C458 C428 1.723 . S
C458 C454 1.397 . S
C458 C457 1.394 . S
C459 H431 0.982 . S
C459 H435 0.979 . S
C459 H436 0.977 . S
C459 C456 1.453 . S
C460 H432 0.979 . S
C460 H433 0.980 . S
C460 H434 0.983 . S
C460 C456 1.684 . S
H461 C479 0.948 . S
H462 C420 0.948 . S
H463 C438 0.979 . S
H464 C438 0.980 . S
H465 C438 0.983 . S
H466 C437 0.982 . S
H467 C437 0.979 . S
H468 C437 0.977 . S
H469 C439 0.948 . S
H470 C441 0.947 . S
H471 C442 0.948 . S
H472 C448 0.982 . S
H473 C448 0.979 . S
H474 C448 0.977 . S
H475 C449 0.979 . S
H476 C449 0.980 . S
H477 C449 0.983 . S
H478 C422 0.947 . S
C479 C422 1.392 . S
C479 C423 1.419 . S
C479 H461 0.948 . S
Dy480 O483 2.307 1_545 S
Dy480 O485 2.383 1_655 S
Dy480 O486 2.379 . S
Dy480 O488 2.339 . S
Dy480 O490 2.298 . S
Dy480 O494 2.275 1_655 S
Dy480 C502 2.738 . S
Dy481 O484 2.298 . S
Dy481 O487 2.275 1_455 S
Dy481 O489 2.307 1_565 S
Dy481 O491 2.387 1_455 S
Dy481 O492 2.379 . S
Dy481 O495 2.339 . S
Dy481 C511 2.738 . S
C482 O494 1.254 1_565 S
C482 O495 1.257 . S
O483 Dy480 2.307 1_565 S
O483 C493 1.266 . S
O484 Dy481 2.298 . S
O484 C493 1.236 1_455 S
O485 Dy480 2.383 1_455 S
O485 C502 1.229 1_455 S
O486 Dy480 2.379 . S
O486 C502 1.249 . S
O487 Dy481 2.275 1_655 S
O487 C503 1.254 1_565 S
O488 Dy480 2.339 . S
O488 C503 1.257 . S
O489 Dy481 2.307 1_545 S
O489 C504 1.266 . S
O490 Dy480 2.298 . S
O490 C504 1.236 1_655 S
O491 Dy481 2.387 1_655 S
O491 C511 1.238 1_655 S
O492 Dy481 2.379 . S
O492 C511 1.249 . S
C493 O483 1.266 . S
C493 O484 1.236 1_655 S
O494 Dy480 2.275 1_455 S
O494 C482 1.254 1_545 S
O495 Dy481 2.339 . S
O495 C482 1.257 . S
C496 C499 1.344 . S
C496 C500 1.328 . S
C496 C502 1.516 . S
C497 C498 1.304 . S
C497 C501 1.323 . S
C498 C497 1.304 . S
C498 C499 1.371 . S
C498 H512 0.930 1_655 S
C499 C496 1.344 . S
C499 C498 1.371 . S
C499 H513 0.931 1_655 S
C500 C496 1.328 . S
C500 C501 1.433 . S
C500 H514 0.931 . S
C501 C497 1.323 . S
C501 C500 1.433 . S
C501 H515 0.933 . S
C502 Dy480 2.738 . S
C502 O485 1.229 1_655 S
C502 O486 1.249 . S
C502 C496 1.516 . S
C503 O487 1.254 1_545 S
C503 O488 1.257 . S
C504 O489 1.266 . S
C504 O490 1.236 1_455 S
C505 C508 1.344 1_556 S
C505 C509 1.328 1_556 S
C505 C511 1.516 . S
C506 C507 1.304 . S
C506 C510 1.323 . S
C507 C506 1.304 . S
C507 C508 1.371 . S
C507 H516 0.930 1_455 S
C508 C505 1.344 1_554 S
C508 C507 1.371 . S
C508 H517 0.931 1_455 S
C509 C505 1.328 1_554 S
C509 C510 1.433 . S
C509 H518 0.931 1_554 S
C510 C506 1.323 . S
C510 C509 1.433 . S
C510 H519 0.933 . S
C511 Dy481 2.738 . S
C511 O491 1.238 1_455 S
C511 O492 1.249 . S
C511 C505 1.516 . S
H512 C498 0.930 1_455 S
H513 C499 0.931 1_455 S
H514 C500 0.931 . S
H515 C501 0.933 . S
H516 C507 0.930 1_655 S
H517 C508 0.931 1_655 S
H518 C509 0.931 1_556 S
H519 C510 0.933 . S
Dy520 O523 2.307 . S
Dy520 O525 2.395 1_565 S
Dy520 O526 2.379 . S
Dy520 O528 2.339 . S
Dy520 O530 2.298 . S
Dy520 O534 2.275 1_565 S
Dy520 C542 2.738 . S
Dy521 O524 2.298 . S
Dy521 O527 2.275 1_545 S
Dy521 O529 2.307 . S
Dy521 O531 2.395 1_545 S
Dy521 O532 2.379 . S
Dy521 O535 2.339 . S
Dy521 C551 2.738 . S
C522 O534 1.254 . S
C522 O535 1.257 . S
O523 Dy520 2.307 . S
O523 C533 1.266 . S
O524 Dy521 2.298 . S
O524 C533 1.236 1_545 S
O525 Dy520 2.395 1_545 S
O525 C542 1.255 1_545 S
O526 Dy520 2.379 . S
O526 C542 1.249 . S
O527 Dy521 2.275 1_565 S
O527 C543 1.254 . S
O528 Dy520 2.339 . S
O528 C543 1.257 . S
O529 Dy521 2.307 . S
O529 C544 1.266 . S
O530 Dy520 2.298 . S
O530 C544 1.236 1_565 S
O531 Dy521 2.395 1_565 S
O531 C551 1.255 1_565 S
O532 Dy521 2.379 . S
O532 C551 1.249 . S
C533 O523 1.266 . S
C533 O524 1.236 1_565 S
O534 Dy520 2.275 1_545 S
O534 C522 1.254 . S
O535 Dy521 2.339 . S
O535 C522 1.257 . S
C536 C539 1.344 . S
C536 C540 1.328 . S
C536 C542 1.516 . S
C537 C538 1.304 . S
C537 C541 1.323 . S
C538 C537 1.304 . S
C538 C539 1.371 . S
C538 H552 0.930 1_565 S
C539 C536 1.344 . S
C539 C538 1.371 . S
C539 H553 0.931 1_565 S
C540 C536 1.328 . S
C540 C541 1.433 . S
C540 H554 0.931 . S
C541 C537 1.323 . S
C541 C540 1.433 . S
C541 H555 0.933 . S
C542 Dy520 2.738 . S
C542 O525 1.255 1_565 S
C542 O526 1.249 . S
C542 C536 1.516 . S
C543 O527 1.254 . S
C543 O528 1.257 . S
C544 O529 1.266 . S
C544 O530 1.236 1_545 S
C545 C548 1.344 . S
C545 C549 1.328 1_556 S
C545 C551 1.516 . S
C546 C547 1.304 . S
C546 C550 1.323 . S
C547 C546 1.304 . S
C547 C548 1.370 1_554 S
C547 H556 0.930 1_545 S
C548 C545 1.344 . S
C548 C547 1.370 1_556 S
C548 H557 0.932 1_545 S
C549 C545 1.328 1_554 S
C549 C550 1.433 . S
C549 H558 0.931 . S
C550 C546 1.323 . S
C550 C549 1.433 . S
C550 H559 0.933 . S
C551 Dy521 2.738 . S
C551 O531 1.255 1_545 S
C551 O532 1.249 . S
C551 C545 1.516 . S
H552 C538 0.930 1_545 S
H553 C539 0.931 1_545 S
H554 C540 0.931 . S
H555 C541 0.933 . S
H556 C547 0.930 1_565 S
H557 C548 0.932 1_565 S
H558 C549 0.931 . S
H559 C550 0.933 . S
Dy560 O563 2.307 . S
Dy560 O565 2.395 . S
Dy560 O566 2.379 . S
Dy560 O568 2.339 . S
Dy560 O570 2.298 . S
Dy560 O574 2.275 . S
Dy560 C582 2.738 . S
Dy561 O564 2.298 . S
Dy561 O567 2.275 . S
Dy561 O569 2.307 . S
Dy561 O571 2.395 . S
Dy561 O572 2.379 . S
Dy561 O575 2.339 . S
Dy561 C591 2.738 . S
C562 O574 1.254 . S
C562 O575 1.257 . S
O563 Dy560 2.307 . S
O563 C573 1.266 . S
O564 Dy561 2.298 . S
O564 C573 1.236 . S
O565 Dy560 2.395 . S
O565 C582 1.255 . S
O566 Dy560 2.379 . S
O566 C582 1.249 . S
O567 Dy561 2.275 . S
O567 C583 1.254 . S
O568 Dy560 2.339 . S
O568 C583 1.257 . S
O569 Dy561 2.307 . S
O569 C584 1.266 . S
O570 Dy560 2.298 . S
O570 C584 1.236 . S
O571 Dy561 2.395 . S
O571 C591 1.255 . S
O572 Dy561 2.379 . S
O572 C591 1.249 . S
C573 O563 1.266 . S
C573 O564 1.236 . S
O574 Dy560 2.275 . S
O574 C562 1.254 . S
O575 Dy561 2.339 . S
O575 C562 1.257 . S
C576 C579 1.344 1_556 S
C576 C580 1.328 . S
C576 C582 1.516 . S
C577 C578 1.304 . S
C577 C581 1.323 1_554 S
C578 C577 1.304 . S
C578 C579 1.371 . S
C578 H592 0.930 . S
C579 C576 1.344 1_554 S
C579 C578 1.371 . S
C579 H593 0.931 . S
C580 C576 1.328 . S
C580 C581 1.433 . S
C580 H594 0.931 . S
C581 C577 1.323 1_556 S
C581 C580 1.433 . S
C581 H595 0.933 . S
C582 Dy560 2.738 . S
C582 O565 1.255 . S
C582 O566 1.249 . S
C582 C576 1.516 . S
C583 O567 1.254 . S
C583 O568 1.257 . S
C584 O569 1.266 . S
C584 O570 1.236 . S
C585 C588 1.344 . S
C585 C589 1.328 . S
C585 C591 1.516 . S
C586 C587 1.304 . S
C586 C590 1.323 . S
C587 C586 1.304 . S
C587 C588 1.371 . S
C587 H596 0.930 . S
C588 C585 1.344 . S
C588 C587 1.371 . S
C588 H597 0.931 . S
C589 C585 1.328 . S
C589 C590 1.433 . S
C589 H598 0.931 . S
C590 C586 1.323 . S
C590 C589 1.433 . S
C590 H599 0.933 . S
C591 Dy561 2.738 . S
C591 O571 1.255 . S
C591 O572 1.249 . S
C591 C585 1.516 . S
H592 C578 0.930 . S
H593 C579 0.931 . S
H594 C580 0.931 . S
H595 C581 0.933 . S
H596 C587 0.930 . S
H597 C588 0.931 . S
H598 C589 0.931 . S
H599 C590 0.933 . S
Dy600 O603 2.307 1_455 S
Dy600 O605 2.395 . S
Dy600 O606 2.379 . S
Dy600 O608 2.339 . S
Dy600 O610 2.298 . S
Dy600 O614 2.275 . S
Dy600 C622 2.738 . S
Dy601 O604 2.298 . S
Dy601 O607 2.275 . S
Dy601 O609 2.307 1_655 S
Dy601 O611 2.395 . S
Dy601 O612 2.379 . S
Dy601 O615 2.339 . S
Dy601 C631 2.738 . S
C602 O614 1.254 1_655 S
C602 O615 1.257 . S
O603 Dy600 2.307 1_655 S
O603 C613 1.266 . S
O604 Dy601 2.298 . S
O604 C613 1.236 . S
O605 Dy600 2.395 . S
O605 C622 1.255 . S
O606 Dy600 2.379 . S
O606 C622 1.249 . S
O607 Dy601 2.275 . S
O607 C623 1.254 1_655 S
O608 Dy600 2.339 . S
O608 C623 1.257 . S
O609 Dy601 2.307 1_455 S
O609 C624 1.266 . S
O610 Dy600 2.298 . S
O610 C624 1.236 . S
O611 Dy601 2.395 . S
O611 C631 1.255 . S
O612 Dy601 2.379 . S
O612 C631 1.249 . S
C613 O603 1.266 . S
C613 O604 1.236 . S
O614 Dy600 2.275 . S
O614 C602 1.254 1_455 S
O615 Dy601 2.339 . S
O615 C602 1.257 . S
C616 C619 1.344 . S
C616 C620 1.328 . S
C616 C622 1.516 . S
C617 C618 1.304 . S
C617 C621 1.323 . S
C618 C617 1.304 . S
C618 C619 1.371 . S
C618 H632 0.930 . S
C619 C616 1.344 . S
C619 C618 1.371 . S
C619 H633 0.931 . S
C620 C616 1.328 . S
C620 C621 1.433 . S
C620 H634 0.931 . S
C621 C617 1.323 . S
C621 C620 1.433 . S
C621 H635 0.933 . S
C622 Dy600 2.738 . S
C622 O605 1.255 . S
C622 O606 1.249 . S
C622 C616 1.516 . S
C623 O607 1.254 1_455 S
C623 O608 1.257 . S
C624 O609 1.266 . S
C624 O610 1.236 . S
C625 C628 1.344 . S
C625 C629 1.328 . S
C625 C631 1.516 1_554 S
C626 C627 1.304 . S
C626 C630 1.323 . S
C627 C626 1.304 . S
C627 C628 1.371 . S
C627 H636 0.930 . S
C628 C625 1.344 . S
C628 C627 1.371 . S
C628 H637 0.931 . S
C629 C625 1.328 . S
C629 C630 1.433 . S
C629 H638 0.931 . S
C630 C626 1.323 . S
C630 C629 1.433 . S
C630 H639 0.933 . S
C631 Dy601 2.738 . S
C631 O611 1.255 . S
C631 O612 1.249 . S
C631 C625 1.516 1_556 S
H632 C618 0.930 . S
H633 C619 0.931 . S
H634 C620 0.931 . S
H635 C621 0.933 . S
H636 C627 0.930 . S
H637 C628 0.931 . S
H638 C629 0.931 . S
H639 C630 0.933 . S
C640 C641 1.369 . S
C640 C646 1.379 . S
C640 N648 1.356 . S
C641 C640 1.369 . S
C641 C647 1.356 1_545 S
C642 C643 1.349 1_565 S
C642 C647 1.379 . S
C642 N649 1.356 . S
C643 C642 1.349 1_545 S
C643 C646 1.380 . S
N644 C646 1.356 . S
N644 H656 0.984 . S
N644 H657 0.985 . S
N645 C647 1.356 . S
N645 H650 0.984 . S
N645 H651 0.985 . S
C646 C640 1.379 . S
C646 C643 1.380 . S
C646 N644 1.356 . S
C647 C641 1.356 1_565 S
C647 C642 1.379 . S
C647 N645 1.356 . S
N648 C640 1.356 . S
N648 H654 0.984 . S
N648 H655 0.984 . S
N649 C642 1.356 . S
N649 H652 0.984 . S
N649 H653 0.985 . S
H650 N645 0.984 . S
H651 N645 0.985 . S
H652 N649 0.984 . S
H653 N649 0.985 . S
H654 N648 0.984 . S
H655 N648 0.984 . S
H656 N644 0.984 . S
H657 N644 0.985 . S
C658 C659 1.363 . S
C658 C664 1.379 . S
C658 N666 1.356 . S
C659 C658 1.363 . S
C659 C665 1.363 . S
C660 C661 1.363 . S
C660 C665 1.379 . S
C660 N667 1.356 . S
C661 C660 1.363 . S
C661 C664 1.363 . S
N662 C664 1.356 . S
N662 H674 0.984 . S
N662 H675 0.985 . S
N663 C665 1.356 . S
N663 H668 0.984 . S
N663 H669 0.985 . S
C664 C658 1.379 . S
C664 C661 1.363 . S
C664 N662 1.356 . S
C665 C659 1.363 . S
C665 C660 1.379 . S
C665 N663 1.356 . S
N666 C658 1.356 . S
N666 H672 0.984 . S
N666 H673 0.984 . S
N667 C660 1.356 . S
N667 H670 0.984 . S
N667 H671 0.985 . S
H668 N663 0.984 . S
H669 N663 0.985 . S
H670 N667 0.984 . S
H671 N667 0.985 . S
H672 N666 0.984 . S
H673 N666 0.984 . S
H674 N662 0.984 . S
H675 N662 0.985 . S
C676 C677 1.363 . S
C676 C682 1.379 . S
C676 N684 1.356 . S
C677 C676 1.363 . S
C677 C683 1.363 . S
C678 C679 1.363 . S
C678 C683 1.379 . S
C678 N685 1.356 . S
C679 C678 1.363 . S
C679 C682 1.363 . S
N680 C682 1.356 . S
N680 H692 0.984 . S
N680 H693 0.985 . S
N681 C683 1.356 . S
N681 H686 0.984 . S
N681 H687 0.985 . S
C682 C676 1.379 . S
C682 C679 1.363 . S
C682 N680 1.356 . S
C683 C677 1.363 . S
C683 C678 1.379 . S
C683 N681 1.356 . S
N684 C676 1.356 . S
N684 H690 0.984 . S
N684 H691 0.984 . S
N685 C678 1.356 . S
N685 H688 0.984 . S
N685 H689 0.985 . S
H686 N681 0.984 . S
H687 N681 0.985 . S
H688 N685 0.984 . S
H689 N685 0.985 . S
H690 N684 0.984 . S
H691 N684 0.984 . S
H692 N680 0.984 . S
H693 N680 0.985 . S
C694 C695 1.383 . S
C694 C700 1.379 . S
C694 N702 1.356 . S
C695 C694 1.383 . S
C695 C701 1.349 1_455 S
C696 C697 1.363 1_655 S
C696 C701 1.379 . S
C696 N703 1.356 . S
C697 C696 1.363 1_455 S
C697 C700 1.363 . S
N698 C700 1.356 . S
N698 H710 0.984 . S
N698 H711 0.985 . S
N699 C701 1.356 . S
N699 H704 0.984 . S
N699 H705 0.985 . S
C700 C694 1.379 . S
C700 C697 1.363 . S
C700 N698 1.356 . S
C701 C695 1.349 1_655 S
C701 C696 1.379 . S
C701 N699 1.356 . S
N702 C694 1.356 . S
N702 H708 0.984 . S
N702 H709 0.984 . S
N703 C696 1.356 . S
N703 H706 0.984 . S
N703 H707 0.985 . S
H704 N699 0.984 . S
H705 N699 0.985 . S
H706 N703 0.984 . S
H707 N703 0.985 . S
H708 N702 0.984 . S
H709 N702 0.984 . S
H710 N698 0.984 . S
H711 N698 0.985 . S
C712 C713 1.362 1_545 S
C712 C718 1.379 . S
C712 N720 1.356 . S
C713 C712 1.362 1_565 S
C713 C719 1.364 . S
C714 C715 1.365 1_554 S
C714 C719 1.379 . S
C714 N721 1.356 1_554 S
C715 C714 1.365 1_556 S
C715 C718 1.349 1_566 S
N716 C718 1.356 1_556 S
N716 H728 0.984 . S
N716 H729 0.985 . S
N717 C719 1.356 . S
N717 H722 0.984 . S
N717 H723 0.985 . S
C718 C712 1.379 . S
C718 C715 1.349 1_544 S
C718 N716 1.356 1_554 S
C719 C713 1.364 . S
C719 C714 1.379 . S
C719 N717 1.356 . S
N720 C712 1.356 . S
N720 H726 0.984 . S
N720 H727 0.984 . S
N721 C714 1.356 1_556 S
N721 H724 0.984 . S
N721 H725 0.985 1_556 S
H722 N717 0.984 . S
H723 N717 0.985 . S
H724 N721 0.984 . S
H725 N721 0.985 1_554 S
H726 N720 0.984 . S
H727 N720 0.984 . S
H728 N716 0.984 . S
H729 N716 0.985 . S
C730 C731 1.363 1_556 S
C730 C736 1.379 . S
C730 N738 1.356 . S
C731 C730 1.363 1_554 S
C731 C737 1.363 . S
C732 C733 1.363 . S
C732 C737 1.379 1_556 S
C732 N739 1.356 . S
C733 C732 1.363 . S
C733 C736 1.363 . S
N734 C736 1.356 . S
N734 H746 0.984 . S
N734 H747 0.985 . S
N735 C737 1.356 . S
N735 H740 0.984 . S
N735 H741 0.985 . S
C736 C730 1.379 . S
C736 C733 1.363 . S
C736 N734 1.356 . S
C737 C731 1.363 . S
C737 C732 1.379 1_554 S
C737 N735 1.356 . S
N738 C730 1.356 . S
N738 H744 0.984 . S
N738 H745 0.984 1_556 S
N739 C732 1.356 . S
N739 H742 0.984 . S
N739 H743 0.985 . S
H740 N735 0.984 . S
H741 N735 0.985 . S
H742 N739 0.984 . S
H743 N739 0.985 . S
H744 N738 0.984 . S
H745 N738 0.984 1_554 S
H746 N734 0.984 . S
H747 N734 0.985 . S
C748 C749 1.363 . S
C748 C754 1.379 . S
C748 N756 1.356 . S
C749 C748 1.363 . S
C749 C755 1.363 . S
C750 C751 1.363 . S
C750 C755 1.379 . S
C750 N757 1.356 . S
C751 C750 1.363 . S
C751 C754 1.363 . S
N752 C754 1.356 . S
N752 H764 0.984 . S
N752 H765 0.985 . S
N753 C755 1.356 . S
N753 H758 0.984 . S
N753 H759 0.985 . S
C754 C748 1.379 . S
C754 C751 1.363 . S
C754 N752 1.356 . S
C755 C749 1.363 . S
C755 C750 1.379 . S
C755 N753 1.356 . S
N756 C748 1.356 . S
N756 H762 0.984 . S
N756 H763 0.984 . S
N757 C750 1.356 . S
N757 H760 0.984 . S
N757 H761 0.985 . S
H758 N753 0.984 . S
H759 N753 0.985 . S
H760 N757 0.984 . S
H761 N757 0.985 . S
H762 N756 0.984 . S
H763 N756 0.984 . S
H764 N752 0.984 . S
H765 N752 0.985 . S
C766 C767 1.348 1_455 S
C766 C772 1.379 . S
C766 N774 1.356 . S
C767 C766 1.348 1_655 S
C767 C773 1.385 . S
C768 C769 1.363 . S
C768 C773 1.379 . S
C768 N775 1.356 . S
C769 C768 1.363 . S
C769 C772 1.363 1_655 S
N770 C772 1.345 1_556 S
N770 H782 0.984 . S
N770 H783 0.998 . S
N771 C773 1.356 . S
N771 H776 0.984 . S
N771 H777 0.985 . S
C772 C766 1.379 . S
C772 C769 1.363 1_455 S
C772 N770 1.345 1_554 S
C773 C767 1.385 . S
C773 C768 1.379 . S
C773 N771 1.356 . S
N774 C766 1.356 . S
N774 H780 0.984 . S
N774 H781 0.984 . S
N775 C768 1.356 . S
N775 H778 0.984 1_554 S
N775 H779 0.985 . S
H776 N771 0.984 . S
H777 N771 0.985 . S
H778 N775 0.984 1_556 S
H779 N775 0.985 . S
H780 N774 0.984 . S
H781 N774 0.984 . S
H782 N770 0.984 . S
H783 N770 0.998 . S
C784 C785 1.361 . S
C784 C790 1.359 1_455 S
C784 N792 1.381 . S
C785 C784 1.361 . S
C785 C791 1.363 1_455 S
C786 C787 1.363 . S
C786 C791 1.379 . S
C786 N793 1.356 . S
C787 C786 1.363 . S
C787 C790 1.363 . S
N788 C790 1.356 . S
N788 H800 0.984 . S
N788 H801 0.985 . S
N789 C791 1.356 . S
N789 H794 0.984 1_655 S
N789 H795 0.985 . S
C790 C784 1.359 1_655 S
C790 C787 1.363 . S
C790 N788 1.356 . S
C791 C785 1.363 1_655 S
C791 C786 1.379 . S
C791 N789 1.356 . S
N792 C784 1.381 . S
N792 H798 0.984 . S
N792 H799 0.984 . S
N793 C786 1.356 . S
N793 H796 0.984 . S
N793 H797 0.985 . S
H794 N789 0.984 1_455 S
H795 N789 0.985 . S
H796 N793 0.984 . S
H797 N793 0.985 . S
H798 N792 0.984 . S
H799 N792 0.984 . S
H800 N788 0.984 . S
H801 N788 0.985 . S
C802 C803 1.363 1_545 S
C802 C808 1.379 1_545 S
C802 N810 1.356 . S
C803 C802 1.363 1_565 S
C803 C809 1.363 . S
C804 C805 1.363 . S
C804 C809 1.379 . S
C804 N811 1.356 . S
C805 C804 1.363 . S
C805 C808 1.363 . S
N806 C808 1.356 . S
N806 H818 0.984 1_565 S
N806 H819 0.985 . S
N807 C809 1.356 . S
N807 H812 0.984 . S
N807 H813 0.985 . S
C808 C802 1.379 1_565 S
C808 C805 1.363 . S
C808 N806 1.356 . S
C809 C803 1.363 . S
C809 C804 1.379 . S
C809 N807 1.356 . S
N810 C802 1.356 . S
N810 H816 0.984 . S
N810 H817 0.984 . S
N811 C804 1.356 . S
N811 H814 0.984 . S
N811 H815 0.985 . S
H812 N807 0.984 . S
H813 N807 0.985 . S
H814 N811 0.984 . S
H815 N811 0.985 . S
H816 N810 0.984 . S
H817 N810 0.984 . S
H818 N806 0.984 1_545 S
H819 N806 0.985 . S
C820 C821 1.363 . S
C820 C826 1.379 . S
C820 N828 1.356 . S
C821 C820 1.363 . S
C821 C827 1.363 . S
C822 C823 1.363 . S
C822 C827 1.379 . S
C822 N829 1.356 . S
C823 C822 1.363 . S
C823 C826 1.363 . S
N824 C826 1.356 . S
N824 H836 0.984 . S
N824 H837 0.985 . S
N825 C827 1.356 . S
N825 H830 0.984 . S
N825 H831 0.985 . S
C826 C820 1.379 . S
C826 C823 1.363 . S
C826 N824 1.356 . S
C827 C821 1.363 . S
C827 C822 1.379 . S
C827 N825 1.356 . S
N828 C820 1.356 . S
N828 H834 0.984 . S
N828 H835 0.984 . S
N829 C822 1.356 . S
N829 H832 0.984 . S
N829 H833 0.985 . S
H830 N825 0.984 . S
H831 N825 0.985 . S
H832 N829 0.984 . S
H833 N829 0.985 . S
H834 N828 0.984 . S
H835 N828 0.984 . S
H836 N824 0.984 . S
H837 N824 0.985 . S
C838 C839 1.363 . S
C838 C844 1.379 . S
C838 N846 1.356 . S
C839 C838 1.363 . S
C839 C845 1.363 . S
C840 C841 1.363 . S
C840 C845 1.379 . S
C840 N847 1.356 . S
C841 C840 1.363 . S
C841 C844 1.363 . S
N842 C844 1.356 . S
N842 H854 0.984 . S
N842 H855 0.985 . S
N843 C845 1.356 . S
N843 H848 0.984 . S
N843 H849 0.985 . S
C844 C838 1.379 . S
C844 C841 1.363 . S
C844 N842 1.356 . S
C845 C839 1.363 . S
C845 C840 1.379 . S
C845 N843 1.356 . S
N846 C838 1.356 . S
N846 H852 0.984 . S
N846 H853 0.984 . S
N847 C840 1.356 . S
N847 H850 0.984 . S
N847 H851 0.985 . S
H848 N843 0.984 . S
H849 N843 0.985 . S
H850 N847 0.984 . S
H851 N847 0.985 . S
H852 N846 0.984 . S
H853 N846 0.984 . S
H854 N842 0.984 . S
H855 N842 0.985 . S
C856 C857 1.363 1_455 S
C856 C862 1.379 . S
C856 N864 1.356 1_455 S
C857 C856 1.363 1_655 S
C857 C863 1.363 1_655 S
C858 C859 1.363 . S
C858 C863 1.379 . S
C858 N865 1.356 1_554 S
C859 C858 1.363 . S
C859 C862 1.363 . S
N860 C862 1.356 . S
N860 H872 0.984 . S
N860 H873 0.985 . S
N861 C863 1.356 . S
N861 H866 0.984 1_455 S
N861 H867 0.985 . S
C862 C856 1.379 . S
C862 C859 1.363 . S
C862 N860 1.356 . S
C863 C857 1.363 1_455 S
C863 C858 1.379 . S
C863 N861 1.356 . S
N864 C856 1.356 1_655 S
N864 H870 0.984 . S
N864 H871 0.984 . S
N865 C858 1.356 1_556 S
N865 H868 0.984 . S
N865 H869 0.985 . S
H866 N861 0.984 1_655 S
H867 N861 0.985 . S
H868 N865 0.984 . S
H869 N865 0.985 . S
H870 N864 0.984 . S
H871 N864 0.984 . S
H872 N860 0.984 . S
H873 N860 0.985 . S
C874 C875 1.363 . S
C874 C880 1.379 . S
C874 N882 1.356 1_545 S
C875 C874 1.363 . S
C875 C881 1.363 . S
C876 C877 1.363 . S
C876 C881 1.379 . S
C876 N883 1.356 1_554 S
C877 C876 1.363 . S
C877 C880 1.363 . S
N878 C880 1.356 . S
N878 H890 0.984 . S
N878 H891 0.985 . S
N879 C881 1.356 1_556 S
N879 H884 0.984 1_556 S
N879 H885 0.985 . S
C880 C874 1.379 . S
C880 C877 1.363 . S
C880 N878 1.356 . S
C881 C875 1.363 . S
C881 C876 1.379 . S
C881 N879 1.356 1_554 S
N882 C874 1.356 1_565 S
N882 H888 0.984 . S
N882 H889 0.984 . S
N883 C876 1.356 1_556 S
N883 H886 0.984 . S
N883 H887 0.985 . S
H884 N879 0.984 1_554 S
H885 N879 0.985 . S
H886 N883 0.984 . S
H887 N883 0.985 . S
H888 N882 0.984 . S
H889 N882 0.984 . S
H890 N878 0.984 . S
H891 N878 0.985 . S
C892 C893 1.363 . S
C892 C898 1.379 . S
C892 N900 1.356 . S
C893 C892 1.363 . S
C893 C899 1.363 . S
C894 C895 1.363 . S
C894 C899 1.379 . S
C894 N901 1.356 . S
C895 C894 1.363 . S
C895 C898 1.363 . S
N896 C898 1.356 1_554 S
N896 H908 0.984 . S
N896 H909 0.985 . S
N897 C899 1.356 . S
N897 H902 0.984 . S
N897 H903 0.985 . S
C898 C892 1.379 . S
C898 C895 1.363 . S
C898 N896 1.356 1_556 S
C899 C893 1.363 . S
C899 C894 1.379 . S
C899 N897 1.356 . S
N900 C892 1.356 . S
N900 H906 0.984 1_556 S
N900 H907 0.984 . S
N901 C894 1.356 . S
N901 H904 0.984 . S
N901 H905 0.985 . S
H902 N897 0.984 . S
H903 N897 0.985 . S
H904 N901 0.984 . S
H905 N901 0.985 . S
H906 N900 0.984 1_554 S
H907 N900 0.984 . S
H908 N896 0.984 . S
H909 N896 0.985 . S
C910 C911 1.363 . S
C910 C916 1.379 . S
C910 N918 1.356 . S
C911 C910 1.363 . S
C911 C917 1.363 . S
C912 C913 1.363 . S
C912 C917 1.379 . S
C912 N919 1.356 . S
C913 C912 1.363 . S
C913 C916 1.363 . S
N914 C916 1.356 . S
N914 H926 0.984 . S
N914 H927 0.985 . S
N915 C917 1.356 . S
N915 H920 0.984 . S
N915 H921 0.985 . S
C916 C910 1.379 . S
C916 C913 1.363 . S
C916 N914 1.356 . S
C917 C911 1.363 . S
C917 C912 1.379 . S
C917 N915 1.356 . S
N918 C910 1.356 . S
N918 H924 0.984 . S
N918 H925 0.984 . S
N919 C912 1.356 . S
N919 H922 0.984 . S
N919 H923 0.985 . S
H920 N915 0.984 . S
H921 N915 0.985 . S
H922 N919 0.984 . S
H923 N919 0.985 . S
H924 N918 0.984 . S
H925 N918 0.984 . S
H926 N914 0.984 . S
H927 N914 0.985 . S
C928 C929 1.363 1_655 S
C928 C934 1.379 . S
C928 N936 1.356 . S
C929 C928 1.363 1_455 S
C929 C935 1.363 . S
C930 C931 1.363 . S
C930 C935 1.379 . S
C930 N937 1.356 . S
C931 C930 1.363 . S
C931 C934 1.363 1_455 S
N932 C934 1.356 . S
N932 H944 0.984 . S
N932 H945 0.985 . S
N933 C935 1.356 . S
N933 H938 0.984 . S
N933 H939 0.985 . S
C934 C928 1.379 . S
C934 C931 1.363 1_655 S
C934 N932 1.356 . S
C935 C929 1.363 . S
C935 C930 1.379 . S
C935 N933 1.356 . S
N936 C928 1.356 . S
N936 H942 0.984 . S
N936 H943 0.984 . S
N937 C930 1.356 . S
N937 H940 0.984 . S
N937 H941 0.985 . S
H938 N933 0.984 . S
H939 N933 0.985 . S
H940 N937 0.984 . S
H941 N937 0.985 . S
H942 N936 0.984 . S
H943 N936 0.984 . S
H944 N932 0.984 . S
H945 N932 0.985 . S
C946 C947 1.363 . S
C946 C952 1.379 . S
C946 N954 1.356 . S
C947 C946 1.363 . S
C947 C953 1.363 1_545 S
C948 C949 1.363 1_565 S
C948 C953 1.379 . S
C948 N955 1.356 . S
C949 C948 1.363 1_545 S
C949 C952 1.363 . S
N950 C952 1.356 . S
N950 H962 0.984 1_556 S
N950 H963 0.985 . S
N951 C953 1.356 . S
N951 H956 0.984 . S
N951 H957 0.985 . S
C952 C946 1.379 . S
C952 C949 1.363 . S
C952 N950 1.356 . S
C953 C947 1.363 1_565 S
C953 C948 1.379 . S
C953 N951 1.356 . S
N954 C946 1.356 . S
N954 H960 0.984 1_556 S
N954 H961 0.984 . S
N955 C948 1.356 . S
N955 H958 0.984 . S
N955 H959 0.985 . S
H956 N951 0.984 . S
H957 N951 0.985 . S
H958 N955 0.984 . S
H959 N955 0.985 . S
H960 N954 0.984 1_554 S
H961 N954 0.984 . S
H962 N950 0.984 1_554 S
H963 N950 0.985 . S
C964 C965 1.363 1_556 S
C964 C970 1.379 . S
C964 N972 1.356 . S
C965 C964 1.363 1_554 S
C965 C971 1.363 . S
C966 C967 1.363 1_554 S
C966 C971 1.379 . S
C966 N973 1.356 . S
C967 C966 1.363 1_556 S
C967 C970 1.363 . S
N968 C970 1.356 . S
N968 H980 0.984 . S
N968 H981 0.985 . S
N969 C971 1.356 . S
N969 H974 0.984 . S
N969 H975 0.985 . S
C970 C964 1.379 . S
C970 C967 1.363 . S
C970 N968 1.356 . S
C971 C965 1.363 . S
C971 C966 1.379 . S
C971 N969 1.356 . S
N972 C964 1.356 . S
N972 H978 0.984 . S
N972 H979 0.984 . S
N973 C966 1.356 . S
N973 H976 0.984 . S
N973 H977 0.985 . S
H974 N969 0.984 . S
H975 N969 0.985 . S
H976 N973 0.984 . S
H977 N973 0.985 . S
H978 N972 0.984 . S
H979 N972 0.984 . S
H980 N968 0.984 . S
H981 N968 0.985 . S
C982 C983 1.363 . S
C982 C988 1.379 . S
C982 N990 1.356 . S
C983 C982 1.363 . S
C983 C989 1.363 . S
C984 C985 1.363 . S
C984 C989 1.379 . S
C984 N991 1.356 . S
C985 C984 1.363 . S
C985 C988 1.363 . S
N986 C988 1.356 . S
N986 H998 0.984 . S
N986 H999 0.985 . S
N987 C989 1.356 . S
N987 H992 0.984 . S
N987 H993 0.985 . S
C988 C982 1.379 . S
C988 C985 1.363 . S
C988 N986 1.356 . S
C989 C983 1.363 . S
C989 C984 1.379 . S
C989 N987 1.356 . S
N990 C982 1.356 . S
N990 H996 0.984 . S
N990 H997 0.984 . S
N991 C984 1.356 . S
N991 H994 0.984 . S
N991 H995 0.985 . S
H992 N987 0.984 . S
H993 N987 0.985 . S
H994 N991 0.984 . S
H995 N991 0.985 . S
H996 N990 0.984 . S
H997 N990 0.984 . S
H998 N986 0.984 . S
H999 N986 0.985 . S
C1000 C1001 1.363 . S
C1000 C1006 1.379 . S
C1000 N1008 1.356 . S
C1001 C1000 1.363 . S
C1001 C1007 1.363 1_655 S
C1002 C1003 1.363 1_455 S
C1002 C1007 1.379 . S
C1002 N1009 1.356 . S
C1003 C1002 1.363 1_655 S
C1003 C1006 1.363 . S
N1004 C1006 1.356 . S
N1004 H1016 0.984 . S
N1004 H1017 0.985 . S
N1005 C1007 1.356 . S
N1005 H1010 0.984 . S
N1005 H1011 0.985 . S
C1006 C1000 1.379 . S
C1006 C1003 1.363 . S
C1006 N1004 1.356 . S
C1007 C1001 1.363 1_455 S
C1007 C1002 1.379 . S
C1007 N1005 1.356 . S
N1008 C1000 1.356 . S
N1008 H1014 0.984 . S
N1008 H1015 0.984 . S
N1009 C1002 1.356 . S
N1009 H1012 0.984 . S
N1009 H1013 0.985 . S
H1010 N1005 0.984 . S
H1011 N1005 0.985 . S
H1012 N1009 0.984 . S
H1013 N1009 0.985 . S
H1014 N1008 0.984 . S
H1015 N1008 0.984 . S
H1016 N1004 0.984 . S
H1017 N1004 0.985 . S
C1018 C1019 1.363 1_545 S
C1018 C1024 1.379 . S
C1018 N1026 1.356 . S
C1019 C1018 1.363 1_565 S
C1019 C1025 1.363 . S
C1020 C1021 1.363 . S
C1020 C1025 1.379 . S
C1020 N1027 1.356 . S
C1021 C1020 1.363 . S
C1021 C1024 1.363 1_565 S
N1022 C1024 1.356 . S
N1022 H1034 0.984 . S
N1022 H1035 0.985 . S
N1023 C1025 1.356 . S
N1023 H1028 0.984 . S
N1023 H1029 0.985 . S
C1024 C1018 1.379 . S
C1024 C1021 1.363 1_545 S
C1024 N1022 1.356 . S
C1025 C1019 1.363 . S
C1025 C1020 1.379 . S
C1025 N1023 1.356 . S
N1026 C1018 1.356 . S
N1026 H1032 0.984 . S
N1026 H1033 0.984 . S
N1027 C1020 1.356 . S
N1027 H1030 0.984 . S
N1027 H1031 0.985 . S
H1028 N1023 0.984 . S
H1029 N1023 0.985 . S
H1030 N1027 0.984 . S
H1031 N1027 0.985 . S
H1032 N1026 0.984 . S
H1033 N1026 0.984 . S
H1034 N1022 0.984 . S
H1035 N1022 0.985 . S
C1036 C1037 1.363 . S
C1036 C1042 1.379 . S
C1036 N1044 1.356 . S
C1037 C1036 1.363 . S
C1037 C1043 1.363 . S
C1038 C1039 1.363 . S
C1038 C1043 1.379 . S
C1038 N1045 1.356 . S
C1039 C1038 1.363 . S
C1039 C1042 1.363 . S
N1040 C1042 1.356 . S
N1040 H1052 0.984 . S
N1040 H1053 0.985 . S
N1041 C1043 1.356 . S
N1041 H1046 0.984 . S
N1041 H1047 0.985 . S
C1042 C1036 1.379 . S
C1042 C1039 1.363 . S
C1042 N1040 1.356 . S
C1043 C1037 1.363 . S
C1043 C1038 1.379 . S
C1043 N1041 1.356 . S
N1044 C1036 1.356 . S
N1044 H1050 0.984 . S
N1044 H1051 0.984 . S
N1045 C1038 1.356 . S
N1045 H1048 0.984 . S
N1045 H1049 0.985 . S
H1046 N1041 0.984 . S
H1047 N1041 0.985 . S
H1048 N1045 0.984 . S
H1049 N1045 0.985 . S
H1050 N1044 0.984 . S
H1051 N1044 0.984 . S
H1052 N1040 0.984 . S
H1053 N1040 0.985 . S
C1054 C1055 1.363 . S
C1054 C1060 1.379 . S
C1054 N1062 1.356 . S
C1055 C1054 1.363 . S
C1055 C1061 1.363 . S
C1056 C1057 1.363 . S
C1056 C1061 1.379 . S
C1056 N1063 1.356 . S
C1057 C1056 1.363 . S
C1057 C1060 1.363 . S
N1058 C1060 1.356 . S
N1058 H1070 0.984 . S
N1058 H1071 0.985 . S
N1059 C1061 1.356 . S
N1059 H1064 0.984 . S
N1059 H1065 0.985 . S
C1060 C1054 1.379 . S
C1060 C1057 1.363 . S
C1060 N1058 1.356 . S
C1061 C1055 1.363 . S
C1061 C1056 1.379 . S
C1061 N1059 1.356 . S
N1062 C1054 1.356 . S
N1062 H1068 0.984 . S
N1062 H1069 0.984 . S
N1063 C1056 1.356 . S
N1063 H1066 0.984 . S
N1063 H1067 0.985 . S
H1064 N1059 0.984 . S
H1065 N1059 0.985 . S
H1066 N1063 0.984 . S
H1067 N1063 0.985 . S
H1068 N1062 0.984 . S
H1069 N1062 0.984 . S
H1070 N1058 0.984 . S
H1071 N1058 0.985 . S
C641 C391 2.440 . S
C643 C482 2.497 1_545 S
C661 C522 2.292 . S
C659 C451 2.263 . S
C679 C586 2.884 . S
C677 C241 2.500 . S
C697 C602 2.768 1_455 S
C695 C331 2.177 1_455 S
C715 C503 2.513 1_565 S
C713 C121 2.152 . S
C731 C211 2.215 . S
C733 C543 2.294 . S
C749 C31 2.892 . S
C751 C577 2.883 . S
C767 C91 2.178 . S
C769 C623 2.767 1_654 S
C787 C497 0.674 . S
C785 C301 0.691 1_455 S
C805 C537 0.851 . S
C803 C380 0.886 1_565 S
C823 C573 0.867 . S
C821 C440 0.933 . S
C839 C260 1.049 . S
C841 C617 1.004 . S
C857 C61 0.645 . S
C859 C506 0.671 . S
C877 C546 0.851 . S
C875 C140 0.843 1_545 S
C895 C584 0.867 . S
C893 C200 0.882 . S
C911 C20 1.007 . S
C913 C626 1.010 . S
C929 C320 3.078 1_455 S
C931 C504 3.348 . S
C947 C361 2.542 . S
C949 C544 3.192 . S
C967 C562 2.230 . S
C965 C421 1.983 . S
C985 C624 3.812 . S
C983 C271 3.461 . S
C1001 C80 3.063 . S
C1003 C493 3.356 . S
C1021 C533 3.192 . S
C1019 C151 2.950 . S
C1039 C583 2.230 . S
C1037 C181 1.932 . S
C1055 C1 3.032 . S
C1057 C613 3.816 . S
