# Generated by pormake.
# Topology pth, (4,4)-cn, num edge types: 1
# Building blocks:
#     Node 0, Type 0, BuildingBlock: GALJAG_clean_sbu_0, # of connection points: 4
#     Node 1, Type 0, BuildingBlock: GALJAG_clean_sbu_0, # of connection points: 4
#     Node 2, Type 0, BuildingBlock: GALJAG_clean_sbu_0, # of connection points: 4
#     Node 3, Type 1, BuildingBlock: AZAVOO_clean_linker_0, # of connection points: 4
#     Node 4, Type 1, BuildingBlock: AZAVOO_clean_linker_0, # of connection points: 4
#     Node 5, Type 1, BuildingBlock: AZAVOO_clean_linker_0, # of connection points: 4
#     Edge 6, Type (0, 1), BuildingBlock: AJUNOK_clean_linker_0, # of connection points: 2
#     Edge 7, Type (0, 1), BuildingBlock: AJUNOK_clean_linker_0, # of connection points: 2
#     Edge 8, Type (0, 1), BuildingBlock: AJUNOK_clean_linker_0, # of connection points: 2
#     Edge 9, Type (0, 1), BuildingBlock: AJUNOK_clean_linker_0, # of connection points: 2
#     Edge 10, Type (0, 1), BuildingBlock: AJUNOK_clean_linker_0, # of connection points: 2
#     Edge 11, Type (0, 1), BuildingBlock: AJUNOK_clean_linker_0, # of connection points: 2
#     Edge 12, Type (0, 1), BuildingBlock: AJUNOK_clean_linker_0, # of connection points: 2
#     Edge 13, Type (0, 1), BuildingBlock: AJUNOK_clean_linker_0, # of connection points: 2
#     Edge 14, Type (0, 1), BuildingBlock: AJUNOK_clean_linker_0, # of connection points: 2
#     Edge 15, Type (0, 1), BuildingBlock: AJUNOK_clean_linker_0, # of connection points: 2
#     Edge 16, Type (0, 1), BuildingBlock: AJUNOK_clean_linker_0, # of connection points: 2
#     Edge 17, Type (0, 1), BuildingBlock: AJUNOK_clean_linker_0, # of connection points: 2
# Relax obj value: 0.143
# Max RMSD: 0.233
# Mean RMSD: 0.162
data_MOF--net-pth--node1-GALJAG_clean_sbu_0--node2-AZAVOO_clean_linker_0--edge1-AJUNOK_clean_linker_0
_symmetry_space_group_name_H-M    P1
_symmetry_Int_Tables_number       1
_symmetry_cell_setting            triclinic
loop_
_symmetry_equiv_pos_as_xyz
'x, y, z'
_cell_length_a     20.882926
_cell_length_b     21.23942
_cell_length_c     54.220055
_cell_angle_alpha  93.458283
_cell_angle_beta   88.778598
_cell_angle_gamma 119.94557
loop_
_atom_site_label
_atom_site_type_symbol
_atom_site_fract_x
_atom_site_fract_y
_atom_site_fract_z
_atom_type_partial_charge
In0 In 0.08825 0.0448 0.06909 0.0
O1 O 0.01721 0.07671 0.09314 0.0
O2 O 0.13365 0.1345 0.09959 0.0
C3 C -0.00165 0.96541 0.03107 0.0
C4 C 0.19132 0.14801 0.04198 0.0
C5 C 0.0882 0.94542 0.09735 0.0
O6 O 0.982 0.00142 0.04678 0.0
O7 O 0.05902 0.96804 0.03497 0.0
O8 O 0.14333 0.9843 0.08422 0.0
O9 O 0.03388 0.95506 0.09521 0.0
C10 C 0.07107 0.1248 0.10601 0.0
O11 O 0.20648 0.10971 0.05511 0.0
O12 O 0.12562 0.13549 0.0434 0.0
In13 In 0.04814 0.04091 0.39906 0.0
O14 O 0.10038 0.15566 0.38566 0.0
O15 O 0.0156 0.0709 0.3633 0.0
C16 C 0.16192 0.08718 0.43087 0.0
C17 C 0.93991 0.02375 0.43076 0.0
C18 C 0.0372 0.9188 0.37646 0.0
O19 O 0.1719 0.09471 0.40791 0.0
O20 O 0.09541 0.0577 0.43741 0.0
O21 O 0.98374 0.93084 0.37697 0.0
O22 O 0.09576 0.96902 0.38646 0.0
C23 C 0.06006 0.13828 0.36666 0.0
O24 O 0.9539 0.97331 0.42521 0.0
O25 O 0.97793 0.08072 0.41937 0.0
In26 In 0.06625 0.05699 0.73505 0.0
O27 O 0.02781 0.95351 0.75599 0.0
O28 O 0.96107 0.00292 0.7578 0.0
C29 C 0.17073 0.04182 0.7096 0.0
C30 C 0.97711 0.0688 0.70236 0.0
C31 C 0.15803 0.16988 0.76594 0.0
O32 O 0.10774 0.98791 0.71343 0.0
O33 O 0.17922 0.10237 0.71765 0.0
O34 O 0.13391 0.17887 0.74606 0.0
O35 O 0.13212 0.10419 0.77074 0.0
C36 C 0.96996 0.95174 0.7642 0.0
O37 O 0.99684 0.10524 0.72277 0.0
O38 O 0.00464 0.02824 0.698 0.0
H39 H 0.01841 0.38981 0.07605 0.0
H40 H 0.11061 0.97135 0.287 0.0
H41 H 0.92489 0.35454 0.20615 0.0
H42 H 0.92828 0.2595 0.17969 0.0
H43 H 0.15106 0.33366 0.20487 0.0
H44 H 0.14834 0.43145 0.23042 0.0
H45 H 0.94698 0.47238 0.17325 0.0
H46 H 0.95654 0.43436 0.13044 0.0
H47 H 0.18005 0.48355 0.1452 0.0
H48 H 0.1701 0.52254 0.18781 0.0
H49 H 0.9416 0.59155 0.19469 0.0
H50 H 0.9525 0.67796 0.16468 0.0
H51 H 0.19036 0.7773 0.16738 0.0
H52 H 0.17863 0.68861 0.19683 0.0
H53 H 0.92767 0.61791 0.25174 0.0
H54 H 0.92617 0.72814 0.26686 0.0
H55 H 0.16478 0.85017 0.26343 0.0
H56 H 0.16533 0.73938 0.24836 0.0
H57 H 0.92211 0.51882 0.28849 0.0
H58 H 0.91511 0.59538 0.32289 0.0
H59 H 0.15306 0.72922 0.32279 0.0
H60 H 0.15938 0.65115 0.28925 0.0
H61 H 0.92749 0.36085 0.26716 0.0
H62 H 0.93266 0.27752 0.29548 0.0
H63 H 0.16472 0.42957 0.30878 0.0
H64 H 0.15825 0.51328 0.28119 0.0
O65 O 0.01632 0.40654 0.09288 0.0
O66 O 0.13043 0.43128 0.10161 0.0
O67 O 0.98682 0.86248 0.28143 0.0
O68 O 0.10951 0.92748 0.28039 0.0
C69 C 0.04285 0.4706 0.22819 0.0
C70 C 0.05041 0.51869 0.20994 0.0
C71 C 0.05235 0.58442 0.21685 0.0
C72 C 0.04737 0.60265 0.2419 0.0
C73 C 0.04353 0.55636 0.26031 0.0
C74 C 0.04163 0.49028 0.25347 0.0
C75 C 0.03647 0.39992 0.22005 0.0
C76 C 0.97327 0.34832 0.20674 0.0
C77 C 0.9753 0.29389 0.19165 0.0
C78 C 0.04015 0.28936 0.19009 0.0
C79 C 0.10066 0.33646 0.20554 0.0
C80 C 0.09891 0.39164 0.22039 0.0
C81 C 0.05795 0.5005 0.18354 0.0
C82 C -0.00171 0.47591 0.16707 0.0
C83 C 0.00378 0.45379 0.14269 0.0
C84 C 0.06902 0.45573 0.13441 0.0
C85 C 0.12903 0.48135 0.15096 0.0
C86 C 0.12356 0.50377 0.17528 0.0
C87 C 0.05933 0.63441 0.19788 0.0
C88 C 0.99592 0.63164 0.18862 0.0
C89 C 0.00234 0.68122 0.17168 0.0
C90 C 0.0724 0.7351 0.16411 0.0
C91 C 0.13581 0.73633 0.17293 0.0
C92 C 0.12926 0.68616 0.18975 0.0
C93 C 0.04658 0.67086 0.24904 0.0
C94 C 0.97945 0.66871 0.25406 0.0
C95 C 0.97881 0.73166 0.26275 0.0
C96 C 0.04544 0.79792 0.26649 0.0
C97 C 0.11253 0.80005 0.26084 0.0
C98 C 0.11305 0.73701 0.25213 0.0
C99 C 0.04127 0.57939 0.28647 0.0
C100 C 0.97284 0.56196 0.29697 0.0
C101 C 0.96891 0.60652 0.31631 0.0
C102 C 0.03343 0.66883 0.32539 0.0
C103 C 0.10236 0.68109 0.31659 0.0
C104 C 0.10622 0.63624 0.29743 0.0
C105 C 0.04224 0.44338 0.27245 0.0
C106 C 0.97894 0.37659 0.27663 0.0
C107 C 0.98221 0.32893 0.29259 0.0
C108 C 0.04897 0.34723 0.30452 0.0
C109 C 0.11207 0.41463 0.30039 0.0
C110 C 0.10857 0.46244 0.2846 0.0
C111 C 0.07409 0.43059 0.10868 0.0
C112 C 0.04517 0.86439 0.27651 0.0
H113 H 0.60909 0.98205 0.40619 0.0
H114 H 0.1916 0.14948 0.6096 0.0
H115 H 0.59673 0.91704 0.53912 0.0
H116 H 0.68371 0.90971 0.50989 0.0
H117 H 0.84484 0.13326 0.53023 0.0
H118 H 0.75592 0.14112 0.55863 0.0
H119 H 0.49736 0.93829 0.50725 0.0
H120 H 0.52713 0.93581 0.46338 0.0
H121 H 0.70228 0.15999 0.4726 0.0
H122 H 0.67316 0.16098 0.51654 0.0
H123 H 0.36651 0.96288 0.53394 0.0
H124 H 0.28933 0.98201 0.50531 0.0
H125 H 0.47038 0.19743 0.4934 0.0
H126 H 0.54711 0.1789 0.52271 0.0
H127 H 0.35491 0.95023 0.58815 0.0
H128 H 0.24586 0.95839 0.60062 0.0
H129 H 0.36566 0.18915 0.58953 0.0
H130 H 0.47405 0.17999 0.57673 0.0
H131 H 0.46647 0.93763 0.62105 0.0
H132 H 0.38617 0.92812 0.65592 0.0
H133 H 0.46472 0.15873 0.65491 0.0
H134 H 0.54801 0.16823 0.6215 0.0
H135 H 0.61546 0.93514 0.59753 0.0
H136 H 0.70765 0.94205 0.6266 0.0
H137 H 0.7852 0.17105 0.6419 0.0
H138 H 0.69159 0.16299 0.61349 0.0
O139 O 0.59788 0.98433 0.4235 0.0
O140 O 0.68592 0.10021 0.42907 0.0
O141 O 0.17598 0.02657 0.61112 0.0
O142 O 0.2336 0.14462 0.60441 0.0
C143 C 0.6092 0.042 0.55952 0.0
C144 C 0.56607 0.05046 0.54167 0.0
C145 C 0.50642 0.05985 0.54909 0.0
C146 C 0.48851 0.05929 0.57426 0.0
C147 C 0.53326 0.05369 0.5923 0.0
C148 C 0.59461 0.04625 0.58496 0.0
C149 C 0.66988 0.02985 0.55071 0.0
C150 C 0.65195 0.96346 0.53803 0.0
C151 C 0.70153 0.95948 0.52124 0.0
C152 C 0.7699 0.0217 0.51721 0.0
C153 C 0.79141 0.08521 0.53245 0.0
C154 C 0.74134 0.08946 0.54899 0.0
C155 C 0.58345 0.04962 0.515 0.0
C156 C 0.54225 0.98665 0.49972 0.0
C157 C 0.55941 0.98544 0.47471 0.0
C158 C 0.61753 0.04754 0.46452 0.0
C159 C 0.65774 0.11099 0.47989 0.0
C160 C 0.64117 0.1118 0.50496 0.0
C161 C 0.46197 0.06969 0.53045 0.0
C162 C 0.38948 0.01414 0.52516 0.0
C163 C 0.34571 0.02509 0.5089 0.0
C164 C 0.37426 0.09136 0.49751 0.0
C165 C 0.44763 0.14607 0.5021 0.0
C166 C 0.49118 0.13548 0.51869 0.0
C167 C 0.42238 0.0646 0.58173 0.0
C168 C 0.35747 0.00248 0.58849 0.0
C169 C 0.29538 0.00734 0.59566 0.0
C170 C 0.29731 0.07458 0.59635 0.0
C171 C 0.36238 0.13661 0.58932 0.0
C172 C 0.42433 0.13158 0.58199 0.0
C173 C 0.51223 0.05347 0.61857 0.0
C174 C 0.46925 0.98666 0.62934 0.0
C175 C 0.42202 0.98106 0.64883 0.0
C176 C 0.4164 0.042 0.65741 0.0
C177 C 0.46696 0.11047 0.64869 0.0
C178 C 0.51518 0.11623 0.62964 0.0
C179 C 0.64645 0.04838 0.60364 0.0
C180 C 0.65177 0.98644 0.60746 0.0
C181 C 0.70467 0.99065 0.62391 0.0
C182 C 0.75324 0.05695 0.63673 0.0
C183 C 0.74747 0.1188 0.63281 0.0
C184 C 0.69426 0.1144 0.61653 0.0
C185 C 0.63603 0.04593 0.43799 0.0
C186 C 0.23185 0.08016 0.6044 0.0
H187 H 0.70462 0.72331 0.05925 0.0
H188 H 0.19031 0.10142 0.88589 0.0
H189 H 0.65545 0.75049 0.91697 0.0
H190 H 0.7523 0.85059 0.94224 0.0
H191 H 0.87214 0.73345 0.94288 0.0
H192 H 0.77819 0.63679 0.91586 0.0
H193 H 0.57117 0.6557 0.96042 0.0
H194 H 0.61654 0.6959 0.00298 0.0
H195 H 0.74025 0.5824 0.99545 0.0
H196 H 0.69337 0.54163 0.95306 0.0
H197 H 0.43088 0.51392 0.9498 0.0
H198 H 0.35089 0.42984 0.98047 0.0
H199 H 0.46915 0.31138 0.9718 0.0
H200 H 0.54998 0.39678 0.94138 0.0
H201 H 0.37154 0.46443 0.89637 0.0
H202 H 0.25481 0.3491 0.89181 0.0
H203 H 0.37587 0.23269 0.88755 0.0
H204 H 0.49223 0.34862 0.89161 0.0
H205 H 0.44846 0.55428 0.85768 0.0
H206 H 0.35709 0.47221 0.82655 0.0
H207 H 0.48217 0.36197 0.81334 0.0
H208 H 0.57129 0.442 0.84531 0.0
H209 H 0.6315 0.72517 0.87202 0.0
H210 H 0.7172 0.80837 0.84233 0.0
H211 H 0.77879 0.648 0.81862 0.0
H212 H 0.6965 0.56717 0.8496 0.0
O213 O 0.68671 0.70618 0.0425 0.0
O214 O 0.75557 0.65374 0.03673 0.0
O215 O 0.17656 0.21046 0.88621 0.0
O216 O 0.23569 0.14786 0.88719 0.0
C217 C 0.64161 0.61722 0.90828 0.0
C218 C 0.60253 0.57279 0.92785 0.0
C219 C 0.53752 0.50639 0.92293 0.0
C220 C 0.5103 0.48433 0.89859 0.0
C221 C 0.54882 0.52864 0.87889 0.0
C222 C 0.61522 0.59512 0.88365 0.0
C223 C 0.71002 0.68658 0.91453 0.0
C224 C 0.70483 0.7486 0.9213 0.0
C225 C 0.75928 0.80479 0.93631 0.0
C226 C 0.81809 0.7983 0.94546 0.0
C227 C 0.82728 0.73994 0.9363 0.0
C228 C 0.77385 0.68476 0.92072 0.0
C229 C 0.62933 0.59612 0.95374 0.0
C230 C 0.60787 0.63945 0.96807 0.0
C231 C 0.63392 0.66234 0.99234 0.0
C232 C 0.6823 0.64263 0.00259 0.0
C233 C 0.70328 0.59875 0.98811 0.0
C234 C 0.67659 0.57533 0.96393 0.0
C235 C 0.49555 0.46081 0.94341 0.0
C236 C 0.44013 0.47049 0.95485 0.0
C237 C 0.39446 0.42237 0.97217 0.0
C238 C 0.40338 0.36369 0.97811 0.0
C239 C 0.46134 0.35625 0.96748 0.0
C240 C 0.50719 0.40461 0.95016 0.0
C241 C 0.4401 0.41468 0.89404 0.0
C242 C 0.37264 0.41396 0.89408 0.0
C243 C 0.30613 0.34804 0.89161 0.0
C244 C 0.30602 0.28163 0.8894 0.0
C245 C 0.37397 0.28279 0.88927 0.0
C246 C 0.44048 0.34884 0.89147 0.0
C247 C 0.51632 0.5039 0.85378 0.0
C248 C 0.45804 0.51472 0.8472 0.0
C249 C 0.40554 0.4674 0.82956 0.0
C250 C 0.41133 0.40926 0.8182 0.0
C251 C 0.47528 0.40503 0.82241 0.0
C252 C 0.52708 0.45161 0.84029 0.0
C253 C 0.65852 0.64058 0.86319 0.0
C254 C 0.66363 0.70813 0.86044 0.0
C255 C 0.71227 0.75536 0.84335 0.0
C256 C 0.75604 0.73547 0.82844 0.0
C257 C 0.74768 0.66596 0.83035 0.0
C258 C 0.69982 0.61921 0.84774 0.0
C259 C 0.71057 0.66772 0.02827 0.0
C260 C 0.23542 0.21137 0.88748 0.0
C261 C 0.11855 0.23554 0.13438 0.0
C262 C 0.06186 0.16476 0.12765 0.0
C263 C 0.11163 0.27458 0.15498 0.0
C264 C 0.04837 0.24368 0.1699 0.0
H265 H 0.16801 0.26158 0.12334 0.0
H266 H 0.15544 0.33014 0.15884 0.0
S267 S 0.88792 0.05673 0.16157 0.0
N268 N 0.94239 0.06341 0.13814 0.0
N269 N 0.93035 0.13597 0.17745 0.0
C270 C 0.99225 0.17195 0.16377 0.0
C271 C -0.00121 0.13266 0.14251 0.0
C272 C 0.86664 0.96486 0.46806 0.0
C273 C 0.89172 0.02095 0.45154 0.0
C274 C 0.82801 0.96569 0.48945 0.0
C275 C 0.81355 0.02286 0.49514 0.0
H276 H 0.87833 0.92079 0.46478 0.0
H277 H 0.81018 0.92179 0.5018 0.0
S278 S 0.8618 0.17941 0.45683 0.0
N279 N 0.89546 0.13291 0.4416 0.0
N280 N 0.82295 0.13433 0.48167 0.0
C281 C 0.83672 0.07824 0.47844 0.0
C282 C 0.87566 0.07726 0.45666 0.0
C283 C 0.84356 0.8817 0.78175 0.0
C284 C 0.9164 0.89459 0.78003 0.0
C285 C 0.79186 0.82922 0.79701 0.0
C286 C 0.8111 0.78806 0.8114 0.0
H287 H 0.82614 0.91222 0.77112 0.0
H288 H 0.73627 0.82089 0.79753 0.0
S289 S 0.99626 0.80416 0.81462 0.0
N290 N 0.0058 0.86311 0.79432 0.0
N291 N 0.90948 0.76621 0.82367 0.0
C292 C 0.88402 0.80071 0.80993 0.0
C293 C 0.93642 0.85356 0.79411 0.0
C294 C 0.12796 0.85893 0.11045 0.0
C295 C 0.08714 0.89464 0.1149 0.0
C296 C 0.12368 0.8077 0.12659 0.0
C297 C 0.079 0.79128 0.14773 0.0
H298 H 0.16181 0.86925 0.09413 0.0
H299 H 0.15426 0.77969 0.12223 0.0
S300 S 0.97028 0.87829 0.16939 0.0
N301 N 0.00608 0.91508 0.143 0.0
N302 N -0.00034 0.8205 0.17354 0.0
C303 C 0.04066 0.82916 0.15287 0.0
C304 C 0.04435 0.88046 0.13639 0.0
C305 C 0.28935 0.11122 0.43976 0.0
C306 C 0.22142 0.10212 0.44847 0.0
C307 C 0.34102 0.11171 0.45599 0.0
C308 C 0.32599 0.10298 0.4813 0.0
H309 H 0.30106 0.1141 0.42017 0.0
H310 H 0.39116 0.11512 0.44855 0.0
S311 S 0.16239 0.08928 0.51396 0.0
N312 N 0.14638 0.0933 0.48456 0.0
N313 N 0.24348 0.09363 0.51484 0.0
C314 C 0.26089 0.09894 0.49046 0.0
C315 C 0.20856 0.09876 0.47408 0.0
C316 C 0.24625 0.30321 0.77453 0.0
C317 C 0.21924 0.23064 0.78054 0.0
C318 C 0.30852 0.36094 0.78666 0.0
C319 C 0.34665 0.34801 0.80496 0.0
H320 H 0.21966 0.31554 0.76015 0.0
H321 H 0.32762 0.41594 0.78144 0.0
S322 S 0.29694 0.16848 0.82824 0.0
N323 N 0.23444 0.14962 0.80665 0.0
N324 N 0.35098 0.25767 0.82928 0.0
C325 C 0.31948 0.27588 0.8114 0.0
C326 C 0.2559 0.21735 0.79927 0.0
C327 C 0.90916 0.0347 0.66189 0.0
C328 C 0.92221 0.06958 0.68565 0.0
C329 C 0.85468 0.03106 0.64621 0.0
C330 C 0.81085 0.06188 0.6537 0.0
H331 H 0.94111 0.00972 0.65533 0.0
H332 H 0.84712 0.00419 0.62801 0.0
S333 S 0.82045 0.15643 0.71452 0.0
N334 N 0.88571 0.1345 0.71606 0.0
N335 N 0.78248 0.12627 0.68681 0.0
C336 C 0.82317 0.09677 0.67743 0.0
C337 C 0.87899 0.10093 0.69334 0.0
C338 C 0.98343 0.91025 0.98819 0.0
C339 C 0.9517 0.92531 0.00923 0.0
C340 C 0.94048 0.8717 0.96725 0.0
C341 C 0.86404 0.84614 0.96667 0.0
H342 H 0.04203 0.92855 0.98785 0.0
H343 H 0.96724 0.86121 0.95149 0.0
S344 S 0.75407 0.86923 0.01757 0.0
N345 N 0.83965 0.91173 0.02839 0.0
N346 N 0.75815 0.83707 0.98946 0.0
C347 C 0.83173 0.86114 0.98765 0.0
C348 C 0.87574 0.90121 0.00883 0.0
C349 C 0.98133 0.81133 0.34606 0.0
C350 C 0.03239 0.85142 0.36519 0.0
C351 C 0.97987 0.75029 0.33401 0.0
C352 C 0.02878 0.72657 0.34089 0.0
H353 H 0.94411 0.82878 0.33972 0.0
H354 H 0.94214 0.72333 0.31853 0.0
S355 S 0.16578 0.80693 0.39228 0.0
N356 N 0.1286 0.85963 0.39196 0.0
N357 N 0.12436 0.74379 0.36977 0.0
C358 C 0.0774 0.76407 0.36087 0.0
C359 C 0.07956 0.82672 0.37291 0.0
C360 C 0.30512 0.08899 0.70345 0.0
C361 C 0.2317 0.03578 0.69757 0.0
C362 C 0.36463 0.0879 0.69148 0.0
C363 C 0.35317 0.03419 0.67283 0.0
H364 H 0.31681 0.13241 0.71731 0.0
H365 H 0.42011 0.13068 0.69646 0.0
S366 S 0.17065 0.88196 0.65079 0.0
N367 N 0.15026 0.9266 0.6726 0.0
N368 N 0.26174 0.92552 0.64932 0.0
C369 C 0.27971 0.97935 0.66725 0.0
C370 C 0.21909 0.97999 0.67977 0.0
C371 C 0.32143 0.23462 0.03006 0.0
C372 C 0.24508 0.20186 0.02543 0.0
C373 C 0.37277 0.287 0.01464 0.0
C374 C 0.34921 0.30782 0.9941 0.0
H375 H 0.34155 0.22056 0.04589 0.0
H376 H 0.43114 0.31205 0.01898 0.0
S377 S 0.15608 0.23127 0.97219 0.0
N378 N 0.14884 0.18979 -0.00225 0.0
N379 N 0.24535 0.28708 0.96864 0.0
C380 C 0.27323 0.27367 0.98884 0.0
C381 C 0.22112 0.22095 0.00456 0.0
C382 C 0.02549 0.17107 0.32747 0.0
C383 C 0.0607 0.19293 0.35076 0.0
C384 C 0.02207 0.22125 0.31265 0.0
C385 C 0.05323 0.29513 0.32063 0.0
H386 H 0.00033 0.11472 0.32061 0.0
H387 H 0.99521 0.20209 0.29471 0.0
S388 S 0.14742 0.37928 0.38081 0.0
N389 N 0.12552 0.29321 0.38142 0.0
N390 N 0.11745 0.38688 0.35384 0.0
C391 C 0.08806 0.31756 0.34397 0.0
C392 C 0.09216 0.26665 0.35895 0.0
loop_
_geom_bond_atom_site_label_1
_geom_bond_atom_site_label_2
_geom_bond_distance
_geom_bond_site_symmetry_2
_ccdc_geom_bond_type
In0 O1 2.294 . S
In0 O2 2.326 . S
In0 O6 2.266 1_445 S
In0 O7 2.326 1_545 S
In0 O8 2.266 1_545 S
In0 O9 2.326 1_545 S
In0 O11 2.294 . S
In0 O12 2.326 . S
O1 In0 2.294 . S
O1 C10 1.240 . S
O2 In0 2.326 . S
O2 C10 1.252 . S
C3 O6 1.252 . S
C3 O7 1.260 1_655 S
C4 O11 1.240 . S
C4 O12 1.252 . S
C5 O8 1.252 . S
C5 O9 1.260 . S
O6 In0 2.266 1_665 S
O6 C3 1.252 . S
O7 In0 2.326 1_565 S
O7 C3 1.260 1_455 S
O8 In0 2.266 1_565 S
O8 C5 1.252 . S
O9 In0 2.326 1_565 S
O9 C5 1.260 . S
C10 O1 1.240 . S
C10 O2 1.252 . S
O11 In0 2.294 . S
O11 C4 1.240 . S
O12 In0 2.326 . S
O12 C4 1.252 . S
In13 O14 2.294 . S
In13 O15 2.326 1_455 S
In13 O19 2.266 . S
In13 O20 2.326 1_545 S
In13 O21 2.266 1_445 S
In13 O22 2.326 1_545 S
In13 O24 2.294 1_445 S
In13 O25 2.326 . S
O14 In13 2.294 . S
O14 C23 1.240 . S
O15 In13 2.326 1_655 S
O15 C23 1.252 1_655 S
C16 O19 1.252 . S
C16 O20 1.260 1_545 S
C17 O24 1.240 1_545 S
C17 O25 1.252 1_655 S
C18 O21 1.252 1_455 S
C18 O22 1.260 . S
O19 In13 2.266 . S
O19 C16 1.252 . S
O20 In13 2.326 1_565 S
O20 C16 1.260 1_565 S
O21 In13 2.266 1_665 S
O21 C18 1.252 1_655 S
O22 In13 2.326 1_565 S
O22 C18 1.260 . S
C23 O14 1.240 . S
C23 O15 1.252 1_455 S
O24 In13 2.294 1_665 S
O24 C17 1.240 1_565 S
O25 In13 2.326 . S
O25 C17 1.252 1_455 S
In26 O27 2.294 1_545 S
In26 O28 2.326 . S
In26 O32 2.266 . S
In26 O33 2.326 . S
In26 O34 2.266 . S
In26 O35 2.326 . S
In26 O37 2.294 . S
In26 O38 2.326 . S
O27 In26 2.294 1_565 S
O27 C36 1.240 . S
O28 In26 2.326 . S
O28 C36 1.252 1_545 S
C29 O32 1.252 . S
C29 O33 1.260 . S
C30 O37 1.242 . S
C30 O38 1.260 . S
C31 O34 1.252 . S
C31 O35 1.260 . S
O32 In26 2.266 . S
O32 C29 1.252 . S
O33 In26 2.326 . S
O33 C29 1.260 . S
O34 In26 2.266 . S
O34 C31 1.252 . S
O35 In26 2.326 . S
O35 C31 1.260 . S
C36 O27 1.240 . S
C36 O28 1.252 1_565 S
O37 In26 2.294 . S
O37 C30 1.242 . S
O38 In26 2.326 . S
O38 C30 1.260 . S
H39 O65 0.856 . S
H40 O68 0.854 . S
H41 C76 0.930 . S
H42 C77 0.930 . S
H43 C79 0.930 . S
H44 C80 0.930 . S
H45 C82 0.931 1_655 S
H46 C83 0.930 1_655 S
H47 C85 0.930 . S
H48 C86 0.929 . S
H49 C88 0.930 1_655 S
H50 C89 0.931 1_655 S
H51 C91 0.930 . S
H52 C92 0.929 . S
H53 C94 0.931 . S
H54 C95 0.930 1_655 S
H55 C97 0.930 . S
H56 C98 0.932 . S
H57 C100 0.930 . S
H58 C101 0.929 . S
H59 C103 0.931 . S
H60 C104 0.930 . S
H61 C106 0.929 . S
H62 C107 0.931 . S
H63 C109 0.930 . S
H64 C110 0.929 . S
O65 H39 0.856 . S
O65 C111 1.300 . S
O66 C111 1.209 . S
O67 C112 1.199 . S
O68 H40 0.854 . S
O68 C112 1.297 . S
C69 C70 1.404 . S
C69 C74 1.397 . S
C69 C75 1.492 . S
C70 C69 1.404 . S
C70 C71 1.396 . S
C70 C81 1.492 . S
C71 C70 1.396 . S
C71 C72 1.397 . S
C71 C87 1.509 . S
C72 C71 1.397 . S
C72 C73 1.412 . S
C72 C93 1.485 . S
C73 C72 1.412 . S
C73 C74 1.388 . S
C73 C99 1.490 . S
C74 C69 1.397 . S
C74 C73 1.388 . S
C74 C105 1.519 . S
C75 C69 1.492 . S
C75 C76 1.363 1_455 S
C75 C80 1.390 . S
C76 H41 0.930 . S
C76 C75 1.363 1_655 S
C76 C77 1.372 . S
C77 H42 0.930 . S
C77 C76 1.372 . S
C77 C78 1.383 1_655 S
C78 C77 1.383 1_455 S
C78 C79 1.395 . S
C79 H43 0.930 . S
C79 C78 1.395 . S
C79 C80 1.362 . S
C80 H44 0.930 . S
C80 C75 1.390 . S
C80 C79 1.362 . S
C81 C70 1.492 . S
C81 C82 1.377 . S
C81 C86 1.397 . S
C82 H45 0.931 1_455 S
C82 C81 1.377 . S
C82 C83 1.376 . S
C83 H46 0.930 1_455 S
C83 C82 1.376 . S
C83 C84 1.376 . S
C84 C83 1.376 . S
C84 C85 1.378 . S
C84 C111 1.486 . S
C85 H47 0.930 . S
C85 C84 1.378 . S
C85 C86 1.376 . S
C86 H48 0.929 . S
C86 C81 1.397 . S
C86 C85 1.376 . S
C87 C71 1.509 . S
C87 C88 1.391 . S
C87 C92 1.386 . S
C88 H49 0.930 1_455 S
C88 C87 1.391 . S
C88 C89 1.375 . S
C89 H50 0.931 1_455 S
C89 C88 1.375 . S
C89 C90 1.375 . S
C90 C89 1.375 . S
C90 C91 1.361 . S
C91 H51 0.930 . S
C91 C90 1.361 . S
C91 C92 1.399 . S
C92 H52 0.929 . S
C92 C87 1.386 . S
C92 C91 1.399 . S
C93 C72 1.485 . S
C93 C94 1.394 1_455 S
C93 C98 1.360 . S
C94 H53 0.931 . S
C94 C93 1.394 1_655 S
C94 C95 1.372 1_655 S
C95 H54 0.930 1_455 S
C95 C94 1.372 1_455 S
C95 C96 1.397 . S
C96 C95 1.397 . S
C96 C97 1.390 . S
C96 C112 1.476 . S
C97 H55 0.930 . S
C97 C96 1.390 . S
C97 C98 1.366 . S
C98 H56 0.932 . S
C98 C93 1.360 . S
C98 C97 1.366 . S
C99 C73 1.490 . S
C99 C100 1.380 1_455 S
C99 C104 1.386 . S
C100 H57 0.930 . S
C100 C99 1.380 1_655 S
C100 C101 1.381 . S
C101 H58 0.929 . S
C101 C100 1.381 . S
C101 C102 1.371 1_655 S
C102 C101 1.371 1_455 S
C102 C103 1.380 . S
C103 H59 0.931 . S
C103 C102 1.380 . S
C103 C104 1.387 . S
C104 H60 0.930 . S
C104 C99 1.386 . S
C104 C103 1.387 . S
C105 C74 1.519 . S
C105 C106 1.377 1_455 S
C105 C110 1.361 . S
C106 H61 0.929 . S
C106 C105 1.377 1_655 S
C106 C107 1.386 . S
C107 H62 0.931 . S
C107 C106 1.386 . S
C107 C108 1.363 1_655 S
C108 C107 1.363 1_455 S
C108 C109 1.385 . S
C109 H63 0.930 . S
C109 C108 1.385 . S
C109 C110 1.396 . S
C110 H64 0.929 . S
C110 C105 1.361 . S
C110 C109 1.396 . S
C111 O65 1.300 . S
C111 O66 1.209 . S
C111 C84 1.486 . S
C112 O67 1.199 . S
C112 O68 1.297 . S
C112 C96 1.476 . S
H113 O139 0.856 . S
H114 O142 0.854 . S
H115 C150 0.930 . S
H116 C151 0.930 . S
H117 C153 0.930 . S
H118 C154 0.930 . S
H119 C156 0.931 1_565 S
H120 C157 0.928 1_565 S
H121 C159 0.930 . S
H122 C160 0.929 . S
H123 C162 0.930 1_565 S
H124 C163 0.931 1_565 S
H125 C165 0.930 . S
H126 C166 0.929 . S
H127 C168 0.931 1_565 S
H128 C169 0.930 1_565 S
H129 C171 0.930 . S
H130 C172 0.932 . S
H131 C174 0.930 . S
H132 C175 0.929 . S
H133 C177 0.931 . S
H134 C178 0.930 . S
H135 C180 0.929 1_565 S
H136 C181 0.931 1_565 S
H137 C183 0.930 . S
H138 C184 0.929 . S
O139 H113 0.856 . S
O139 C185 1.300 . S
O140 C185 1.209 . S
O141 C186 1.199 . S
O142 H114 0.854 . S
O142 C186 1.297 . S
C143 C144 1.404 . S
C143 C148 1.397 . S
C143 C149 1.492 . S
C144 C143 1.404 . S
C144 C145 1.396 . S
C144 C155 1.492 . S
C145 C144 1.396 . S
C145 C146 1.397 . S
C145 C161 1.509 . S
C146 C145 1.397 . S
C146 C147 1.412 . S
C146 C167 1.485 . S
C147 C146 1.412 . S
C147 C148 1.388 . S
C147 C173 1.490 . S
C148 C143 1.397 . S
C148 C147 1.388 . S
C148 C179 1.519 . S
C149 C143 1.492 . S
C149 C150 1.363 1_545 S
C149 C154 1.390 . S
C150 H115 0.930 . S
C150 C149 1.363 1_565 S
C150 C151 1.372 . S
C151 H116 0.930 . S
C151 C150 1.372 . S
C151 C152 1.383 1_565 S
C152 C151 1.383 1_545 S
C152 C153 1.395 . S
C153 H117 0.930 . S
C153 C152 1.395 . S
C153 C154 1.362 . S
C154 H118 0.930 . S
C154 C149 1.390 . S
C154 C153 1.362 . S
C155 C144 1.492 . S
C155 C156 1.377 . S
C155 C160 1.397 . S
C156 H119 0.931 1_545 S
C156 C155 1.377 . S
C156 C157 1.376 . S
C157 H120 0.928 1_545 S
C157 C156 1.376 . S
C157 C158 1.377 . S
C158 C157 1.377 . S
C158 C159 1.378 . S
C158 C185 1.486 . S
C159 H121 0.930 . S
C159 C158 1.378 . S
C159 C160 1.376 . S
C160 H122 0.929 . S
C160 C155 1.397 . S
C160 C159 1.376 . S
C161 C145 1.509 . S
C161 C162 1.391 . S
C161 C166 1.386 . S
C162 H123 0.930 1_545 S
C162 C161 1.391 . S
C162 C163 1.375 . S
C163 H124 0.931 1_545 S
C163 C162 1.375 . S
C163 C164 1.375 . S
C164 C163 1.375 . S
C164 C165 1.361 . S
C165 H125 0.930 . S
C165 C164 1.361 . S
C165 C166 1.399 . S
C166 H126 0.929 . S
C166 C161 1.386 . S
C166 C165 1.399 . S
C167 C146 1.485 . S
C167 C168 1.394 . S
C167 C172 1.360 . S
C168 H127 0.931 1_545 S
C168 C167 1.394 . S
C168 C169 1.372 . S
C169 H128 0.930 1_545 S
C169 C168 1.372 . S
C169 C170 1.397 . S
C170 C169 1.397 . S
C170 C171 1.390 . S
C170 C186 1.476 . S
C171 H129 0.930 . S
C171 C170 1.390 . S
C171 C172 1.366 . S
C172 H130 0.932 . S
C172 C167 1.360 . S
C172 C171 1.366 . S
C173 C147 1.490 . S
C173 C174 1.380 1_545 S
C173 C178 1.386 . S
C174 H131 0.930 . S
C174 C173 1.380 1_565 S
C174 C175 1.381 . S
C175 H132 0.929 . S
C175 C174 1.381 . S
C175 C176 1.371 1_565 S
C176 C175 1.371 1_545 S
C176 C177 1.380 . S
C177 H133 0.931 . S
C177 C176 1.380 . S
C177 C178 1.387 . S
C178 H134 0.930 . S
C178 C173 1.386 . S
C178 C177 1.387 . S
C179 C148 1.519 . S
C179 C180 1.377 . S
C179 C184 1.361 . S
C180 H135 0.929 1_545 S
C180 C179 1.377 . S
C180 C181 1.386 . S
C181 H136 0.931 1_545 S
C181 C180 1.386 . S
C181 C182 1.363 . S
C182 C181 1.363 . S
C182 C183 1.385 . S
C183 H137 0.930 . S
C183 C182 1.385 . S
C183 C184 1.396 . S
C184 H138 0.929 . S
C184 C179 1.361 . S
C184 C183 1.396 . S
C185 O139 1.300 . S
C185 O140 1.209 . S
C185 C158 1.486 . S
C186 O141 1.199 . S
C186 O142 1.297 . S
C186 C170 1.476 . S
H187 O213 0.856 . S
H188 O216 0.854 . S
H189 C224 0.930 . S
H190 C225 0.930 . S
H191 C227 0.930 . S
H192 C228 0.930 . S
H193 C230 0.931 . S
H194 C231 0.930 . S
H195 C233 0.930 . S
H196 C234 0.929 . S
H197 C236 0.930 . S
H198 C237 0.931 . S
H199 C239 0.930 . S
H200 C240 0.929 . S
H201 C242 0.931 . S
H202 C243 0.930 . S
H203 C245 0.930 . S
H204 C246 0.932 . S
H205 C248 0.930 . S
H206 C249 0.929 . S
H207 C251 0.931 . S
H208 C252 0.930 . S
H209 C254 0.929 . S
H210 C255 0.931 . S
H211 C257 0.930 . S
H212 C258 0.929 . S
O213 H187 0.856 . S
O213 C259 1.300 . S
O214 C259 1.209 . S
O215 C260 1.199 . S
O216 H188 0.854 . S
O216 C260 1.297 . S
C217 C218 1.404 . S
C217 C222 1.397 . S
C217 C223 1.492 . S
C218 C217 1.404 . S
C218 C219 1.396 . S
C218 C229 1.492 . S
C219 C218 1.396 . S
C219 C220 1.397 . S
C219 C235 1.509 . S
C220 C219 1.397 . S
C220 C221 1.412 . S
C220 C241 1.485 . S
C221 C220 1.412 . S
C221 C222 1.388 . S
C221 C247 1.490 . S
C222 C217 1.397 . S
C222 C221 1.388 . S
C222 C253 1.519 . S
C223 C217 1.492 . S
C223 C224 1.363 . S
C223 C228 1.390 . S
C224 H189 0.930 . S
C224 C223 1.363 . S
C224 C225 1.372 . S
C225 H190 0.930 . S
C225 C224 1.372 . S
C225 C226 1.383 . S
C226 C225 1.383 . S
C226 C227 1.395 . S
C227 H191 0.930 . S
C227 C226 1.395 . S
C227 C228 1.362 . S
C228 H192 0.930 . S
C228 C223 1.390 . S
C228 C227 1.362 . S
C229 C218 1.492 . S
C229 C230 1.377 . S
C229 C234 1.397 . S
C230 H193 0.931 . S
C230 C229 1.377 . S
C230 C231 1.376 1_556 S
C231 H194 0.930 . S
C231 C230 1.376 1_554 S
C231 C232 1.376 . S
C232 C231 1.376 . S
C232 C233 1.378 . S
C232 C259 1.486 . S
C233 H195 0.930 . S
C233 C232 1.378 . S
C233 C234 1.376 1_554 S
C234 H196 0.929 . S
C234 C229 1.397 . S
C234 C233 1.376 1_556 S
C235 C219 1.509 . S
C235 C236 1.391 . S
C235 C240 1.386 . S
C236 H197 0.930 . S
C236 C235 1.391 . S
C236 C237 1.375 . S
C237 H198 0.931 . S
C237 C236 1.375 . S
C237 C238 1.375 . S
C238 C237 1.375 . S
C238 C239 1.361 . S
C239 H199 0.930 . S
C239 C238 1.361 . S
C239 C240 1.399 . S
C240 H200 0.929 . S
C240 C235 1.386 . S
C240 C239 1.399 . S
C241 C220 1.485 . S
C241 C242 1.394 . S
C241 C246 1.360 . S
C242 H201 0.931 . S
C242 C241 1.394 . S
C242 C243 1.372 . S
C243 H202 0.930 . S
C243 C242 1.372 . S
C243 C244 1.397 . S
C244 C243 1.397 . S
C244 C245 1.390 . S
C244 C260 1.476 . S
C245 H203 0.930 . S
C245 C244 1.390 . S
C245 C246 1.366 . S
C246 H204 0.932 . S
C246 C241 1.360 . S
C246 C245 1.366 . S
C247 C221 1.490 . S
C247 C248 1.380 . S
C247 C252 1.386 . S
C248 H205 0.930 . S
C248 C247 1.380 . S
C248 C249 1.381 . S
C249 H206 0.929 . S
C249 C248 1.381 . S
C249 C250 1.371 . S
C250 C249 1.371 . S
C250 C251 1.380 . S
C251 H207 0.931 . S
C251 C250 1.380 . S
C251 C252 1.387 . S
C252 H208 0.930 . S
C252 C247 1.386 . S
C252 C251 1.387 . S
C253 C222 1.519 . S
C253 C254 1.377 . S
C253 C258 1.361 . S
C254 H209 0.929 . S
C254 C253 1.377 . S
C254 C255 1.386 . S
C255 H210 0.931 . S
C255 C254 1.386 . S
C255 C256 1.363 . S
C256 C255 1.363 . S
C256 C257 1.385 . S
C257 H211 0.930 . S
C257 C256 1.385 . S
C257 C258 1.396 . S
C258 H212 0.929 . S
C258 C253 1.361 . S
C258 C257 1.396 . S
C259 O213 1.300 . S
C259 O214 1.209 . S
C259 C232 1.486 . S
C260 O215 1.199 . S
C260 O216 1.297 . S
C260 C244 1.476 . S
C261 C262 1.369 . S
C261 C263 1.419 . S
C261 H265 0.930 . S
C262 C261 1.369 . S
C262 C271 1.429 . S
C263 C261 1.419 . S
C263 C264 1.363 . S
C263 H266 0.929 . S
C264 C263 1.363 . S
C264 C270 1.428 1_455 S
H265 C261 0.930 . S
H266 C263 0.929 . S
S267 N268 1.613 . S
S267 N269 1.610 . S
N268 S267 1.613 . S
N268 C271 1.350 1_655 S
N269 S267 1.610 . S
N269 C270 1.351 . S
C270 C264 1.428 1_655 S
C270 N269 1.351 . S
C270 C271 1.434 1_655 S
C271 C262 1.429 . S
C271 N268 1.350 1_455 S
C271 C270 1.434 1_455 S
C272 C273 1.369 1_565 S
C272 C274 1.419 . S
C272 H276 0.930 . S
C273 C272 1.369 1_545 S
C273 C282 1.429 . S
C274 C272 1.419 . S
C274 C275 1.363 1_565 S
C274 H277 0.929 . S
C275 C274 1.363 1_545 S
C275 C281 1.428 . S
H276 C272 0.930 . S
H277 C274 0.929 . S
S278 N279 1.613 . S
S278 N280 1.610 . S
N279 S278 1.613 . S
N279 C282 1.350 . S
N280 S278 1.610 . S
N280 C281 1.351 . S
C281 C275 1.428 . S
C281 N280 1.351 . S
C281 C282 1.434 . S
C282 C273 1.429 . S
C282 N279 1.350 . S
C282 C281 1.434 . S
C283 C284 1.369 . S
C283 C285 1.419 . S
C283 H287 0.930 . S
C284 C283 1.369 . S
C284 C293 1.429 . S
C285 C283 1.419 . S
C285 C286 1.363 . S
C285 H288 0.929 . S
C286 C285 1.363 . S
C286 C292 1.428 . S
H287 C283 0.930 . S
H288 C285 0.929 . S
S289 N290 1.613 . S
S289 N291 1.610 1_455 S
N290 S289 1.613 . S
N290 C293 1.350 1_455 S
N291 S289 1.610 1_655 S
N291 C292 1.351 . S
C292 C286 1.428 . S
C292 N291 1.351 . S
C292 C293 1.434 . S
C293 C284 1.429 . S
C293 N290 1.350 1_655 S
C293 C292 1.434 . S
C294 C295 1.369 . S
C294 C296 1.419 . S
C294 H298 0.930 . S
C295 C294 1.369 . S
C295 C304 1.429 . S
C296 C294 1.419 . S
C296 C297 1.363 . S
C296 H299 0.929 . S
C297 C296 1.363 . S
C297 C303 1.428 . S
H298 C294 0.930 . S
H299 C296 0.929 . S
S300 N301 1.613 . S
S300 N302 1.610 . S
N301 S300 1.613 . S
N301 C304 1.350 1_655 S
N302 S300 1.610 . S
N302 C303 1.351 1_655 S
C303 C297 1.428 . S
C303 N302 1.351 1_455 S
C303 C304 1.434 . S
C304 C295 1.429 . S
C304 N301 1.350 1_455 S
C304 C303 1.434 . S
C305 C306 1.369 . S
C305 C307 1.419 . S
C305 H309 0.930 1_545 S
C306 C305 1.369 . S
C306 C315 1.429 . S
C307 C305 1.419 . S
C307 C308 1.363 . S
C307 H310 0.929 . S
C308 C307 1.363 . S
C308 C314 1.428 . S
H309 C305 0.930 1_565 S
H310 C307 0.929 . S
S311 N312 1.613 . S
S311 N313 1.610 . S
N312 S311 1.613 . S
N312 C315 1.350 . S
N313 S311 1.610 . S
N313 C314 1.351 . S
C314 C308 1.428 . S
C314 N313 1.351 . S
C314 C315 1.434 . S
C315 C306 1.429 . S
C315 N312 1.350 . S
C315 C314 1.434 . S
C316 C317 1.369 . S
C316 C318 1.419 . S
C316 H320 0.930 . S
C317 C316 1.369 . S
C317 C326 1.429 . S
C318 C316 1.419 . S
C318 C319 1.363 . S
C318 H321 0.929 . S
C319 C318 1.363 . S
C319 C325 1.428 . S
H320 C316 0.930 . S
H321 C318 0.929 . S
S322 N323 1.613 . S
S322 N324 1.610 . S
N323 S322 1.613 . S
N323 C326 1.350 . S
N324 S322 1.610 . S
N324 C325 1.351 . S
C325 C319 1.428 . S
C325 N324 1.351 . S
C325 C326 1.434 . S
C326 C317 1.429 . S
C326 N323 1.350 . S
C326 C325 1.434 . S
C327 C328 1.369 . S
C327 C329 1.419 . S
C327 H331 0.930 . S
C328 C327 1.369 . S
C328 C337 1.429 . S
C329 C327 1.419 . S
C329 C330 1.363 . S
C329 H332 0.929 . S
C330 C329 1.363 . S
C330 C336 1.428 . S
H331 C327 0.930 . S
H332 C329 0.929 . S
S333 N334 1.613 . S
S333 N335 1.610 . S
N334 S333 1.613 . S
N334 C337 1.350 . S
N335 S333 1.610 . S
N335 C336 1.351 . S
C336 C330 1.428 . S
C336 N335 1.351 . S
C336 C337 1.434 . S
C337 C328 1.429 . S
C337 N334 1.350 . S
C337 C336 1.434 . S
C338 C339 1.369 1_556 S
C338 C340 1.419 . S
C338 H342 0.930 1_655 S
C339 C338 1.369 1_554 S
C339 C348 1.429 . S
C340 C338 1.419 . S
C340 C341 1.363 . S
C340 H343 0.929 . S
C341 C340 1.363 . S
C341 C347 1.428 . S
H342 C338 0.930 1_455 S
H343 C340 0.929 . S
S344 N345 1.613 . S
S344 N346 1.610 1_554 S
N345 S344 1.613 . S
N345 C348 1.350 . S
N346 S344 1.610 1_556 S
N346 C347 1.351 . S
C347 C341 1.428 . S
C347 N346 1.351 . S
C347 C348 1.434 1_556 S
C348 C339 1.429 . S
C348 N345 1.350 . S
C348 C347 1.434 1_554 S
C349 C350 1.369 1_655 S
C349 C351 1.419 . S
C349 H353 0.930 . S
C350 C349 1.369 1_455 S
C350 C359 1.429 . S
C351 C349 1.419 . S
C351 C352 1.363 1_655 S
C351 H354 0.929 . S
C352 C351 1.363 1_455 S
C352 C358 1.428 . S
H353 C349 0.930 . S
H354 C351 0.929 . S
S355 N356 1.613 . S
S355 N357 1.610 . S
N356 S355 1.613 . S
N356 C359 1.350 . S
N357 S355 1.610 . S
N357 C358 1.351 . S
C358 C352 1.428 . S
C358 N357 1.351 . S
C358 C359 1.434 . S
C359 C350 1.429 . S
C359 N356 1.350 . S
C359 C358 1.434 . S
C360 C361 1.369 . S
C360 C362 1.419 . S
C360 H364 0.930 . S
C361 C360 1.369 . S
C361 C370 1.429 . S
C362 C360 1.419 . S
C362 C363 1.363 . S
C362 H365 0.929 . S
C363 C362 1.363 . S
C363 C369 1.428 . S
H364 C360 0.930 . S
H365 C362 0.929 . S
S366 N367 1.613 . S
S366 N368 1.610 . S
N367 S366 1.613 . S
N367 C370 1.350 1_565 S
N368 S366 1.610 . S
N368 C369 1.351 1_565 S
C369 C363 1.428 . S
C369 N368 1.351 1_545 S
C369 C370 1.434 . S
C370 C361 1.429 . S
C370 N367 1.350 1_545 S
C370 C369 1.434 . S
C371 C372 1.369 . S
C371 C373 1.419 . S
C371 H375 0.930 . S
C372 C371 1.369 . S
C372 C381 1.429 . S
C373 C371 1.419 . S
C373 C374 1.363 . S
C373 H376 0.929 . S
C374 C373 1.363 . S
C374 C380 1.428 1_554 S
H375 C371 0.930 . S
H376 C373 0.929 . S
S377 N378 1.613 . S
S377 N379 1.610 . S
N378 S377 1.613 . S
N378 C381 1.350 1_556 S
N379 S377 1.610 . S
N379 C380 1.351 . S
C380 C374 1.428 1_556 S
C380 N379 1.351 . S
C380 C381 1.434 1_556 S
C381 C372 1.429 . S
C381 N378 1.350 1_554 S
C381 C380 1.434 1_554 S
C382 C383 1.369 . S
C382 C384 1.419 . S
C382 H386 0.930 . S
C383 C382 1.369 . S
C383 C392 1.429 . S
C384 C382 1.419 . S
C384 C385 1.363 . S
C384 H387 0.929 . S
C385 C384 1.363 . S
C385 C391 1.428 . S
H386 C382 0.930 . S
H387 C384 0.929 . S
S388 N389 1.613 . S
S388 N390 1.610 . S
N389 S388 1.613 . S
N389 C392 1.350 . S
N390 S388 1.610 . S
N390 C391 1.351 . S
C391 C385 1.428 . S
C391 N390 1.351 . S
C391 C392 1.434 . S
C392 C383 1.429 . S
C392 N389 1.350 . S
C392 C391 1.434 . S
C264 C78 1.515 . S
C262 C10 1.634 . S
C273 C17 1.578 . S
C275 C152 1.450 . S
C284 C36 2.107 1_655 S
C286 C256 2.101 . S
C295 C5 1.007 . S
C297 C90 0.994 . S
C308 C164 1.004 . S
C306 C16 1.013 . S
C317 C31 1.826 . S
C319 C250 1.611 . S
C330 C182 2.074 . S
C328 C30 2.076 1_655 S
C339 C3 1.621 . S
C341 C226 1.493 . S
C352 C102 1.641 . S
C350 C18 1.855 . S
C363 C176 1.581 . S
C361 C29 1.780 . S
C374 C238 0.979 1_554 S
C372 C4 0.988 . S
C383 C23 2.142 . S
C385 C108 2.135 . S
