# Generated by pormake.
# Topology ctn, (3,4)-cn, num edge types: 1
# Building blocks:
#     Node 0, Type 0, BuildingBlock: PAMTOO_clean_linker_0, # of connection points: 3
#     Node 1, Type 0, BuildingBlock: PAMTOO_clean_linker_0, # of connection points: 3
#     Node 2, Type 0, BuildingBlock: PAMTOO_clean_linker_0, # of connection points: 3
#     Node 3, Type 0, BuildingBlock: PAMTOO_clean_linker_0, # of connection points: 3
#     Node 4, Type 0, BuildingBlock: PAMTOO_clean_linker_0, # of connection points: 3
#     Node 5, Type 0, BuildingBlock: PAMTOO_clean_linker_0, # of connection points: 3
#     Node 6, Type 0, BuildingBlock: PAMTOO_clean_linker_0, # of connection points: 3
#     Node 7, Type 0, BuildingBlock: PAMTOO_clean_linker_0, # of connection points: 3
#     Node 8, Type 0, BuildingBlock: PAMTOO_clean_linker_0, # of connection points: 3
#     Node 9, Type 0, BuildingBlock: PAMTOO_clean_linker_0, # of connection points: 3
#     Node 10, Type 0, BuildingBlock: PAMTOO_clean_linker_0, # of connection points: 3
#     Node 11, Type 0, BuildingBlock: PAMTOO_clean_linker_0, # of connection points: 3
#     Node 12, Type 0, BuildingBlock: PAMTOO_clean_linker_0, # of connection points: 3
#     Node 13, Type 0, BuildingBlock: PAMTOO_clean_linker_0, # of connection points: 3
#     Node 14, Type 0, BuildingBlock: PAMTOO_clean_linker_0, # of connection points: 3
#     Node 15, Type 0, BuildingBlock: PAMTOO_clean_linker_0, # of connection points: 3
#     Node 16, Type 1, BuildingBlock: NAHDIM_clean_sbu_0, # of connection points: 4
#     Node 17, Type 1, BuildingBlock: NAHDIM_clean_sbu_0, # of connection points: 4
#     Node 18, Type 1, BuildingBlock: NAHDIM_clean_sbu_0, # of connection points: 4
#     Node 19, Type 1, BuildingBlock: NAHDIM_clean_sbu_0, # of connection points: 4
#     Node 20, Type 1, BuildingBlock: NAHDIM_clean_sbu_0, # of connection points: 4
#     Node 21, Type 1, BuildingBlock: NAHDIM_clean_sbu_0, # of connection points: 4
#     Node 22, Type 1, BuildingBlock: NAHDIM_clean_sbu_0, # of connection points: 4
#     Node 23, Type 1, BuildingBlock: NAHDIM_clean_sbu_0, # of connection points: 4
#     Node 24, Type 1, BuildingBlock: NAHDIM_clean_sbu_0, # of connection points: 4
#     Node 25, Type 1, BuildingBlock: NAHDIM_clean_sbu_0, # of connection points: 4
#     Node 26, Type 1, BuildingBlock: NAHDIM_clean_sbu_0, # of connection points: 4
#     Node 27, Type 1, BuildingBlock: NAHDIM_clean_sbu_0, # of connection points: 4
#     Edge 28, Type (0, 1), BuildingBlock: EZIPEK_clean_linker_0, # of connection points: 2
#     Edge 29, Type (0, 1), BuildingBlock: EZIPEK_clean_linker_0, # of connection points: 2
#     Edge 30, Type (0, 1), BuildingBlock: EZIPEK_clean_linker_0, # of connection points: 2
#     Edge 31, Type (0, 1), BuildingBlock: EZIPEK_clean_linker_0, # of connection points: 2
#     Edge 32, Type (0, 1), BuildingBlock: EZIPEK_clean_linker_0, # of connection points: 2
#     Edge 33, Type (0, 1), BuildingBlock: EZIPEK_clean_linker_0, # of connection points: 2
#     Edge 34, Type (0, 1), BuildingBlock: EZIPEK_clean_linker_0, # of connection points: 2
#     Edge 35, Type (0, 1), BuildingBlock: EZIPEK_clean_linker_0, # of connection points: 2
#     Edge 36, Type (0, 1), BuildingBlock: EZIPEK_clean_linker_0, # of connection points: 2
#     Edge 37, Type (0, 1), BuildingBlock: EZIPEK_clean_linker_0, # of connection points: 2
#     Edge 38, Type (0, 1), BuildingBlock: EZIPEK_clean_linker_0, # of connection points: 2
#     Edge 39, Type (0, 1), BuildingBlock: EZIPEK_clean_linker_0, # of connection points: 2
#     Edge 40, Type (0, 1), BuildingBlock: EZIPEK_clean_linker_0, # of connection points: 2
#     Edge 41, Type (0, 1), BuildingBlock: EZIPEK_clean_linker_0, # of connection points: 2
#     Edge 42, Type (0, 1), BuildingBlock: EZIPEK_clean_linker_0, # of connection points: 2
#     Edge 43, Type (0, 1), BuildingBlock: EZIPEK_clean_linker_0, # of connection points: 2
#     Edge 44, Type (0, 1), BuildingBlock: EZIPEK_clean_linker_0, # of connection points: 2
#     Edge 45, Type (0, 1), BuildingBlock: EZIPEK_clean_linker_0, # of connection points: 2
#     Edge 46, Type (0, 1), BuildingBlock: EZIPEK_clean_linker_0, # of connection points: 2
#     Edge 47, Type (0, 1), BuildingBlock: EZIPEK_clean_linker_0, # of connection points: 2
#     Edge 48, Type (0, 1), BuildingBlock: EZIPEK_clean_linker_0, # of connection points: 2
#     Edge 49, Type (0, 1), BuildingBlock: EZIPEK_clean_linker_0, # of connection points: 2
#     Edge 50, Type (0, 1), BuildingBlock: EZIPEK_clean_linker_0, # of connection points: 2
#     Edge 51, Type (0, 1), BuildingBlock: EZIPEK_clean_linker_0, # of connection points: 2
#     Edge 52, Type (0, 1), BuildingBlock: EZIPEK_clean_linker_0, # of connection points: 2
#     Edge 53, Type (0, 1), BuildingBlock: EZIPEK_clean_linker_0, # of connection points: 2
#     Edge 54, Type (0, 1), BuildingBlock: EZIPEK_clean_linker_0, # of connection points: 2
#     Edge 55, Type (0, 1), BuildingBlock: EZIPEK_clean_linker_0, # of connection points: 2
#     Edge 56, Type (0, 1), BuildingBlock: EZIPEK_clean_linker_0, # of connection points: 2
#     Edge 57, Type (0, 1), BuildingBlock: EZIPEK_clean_linker_0, # of connection points: 2
#     Edge 58, Type (0, 1), BuildingBlock: EZIPEK_clean_linker_0, # of connection points: 2
#     Edge 59, Type (0, 1), BuildingBlock: EZIPEK_clean_linker_0, # of connection points: 2
#     Edge 60, Type (0, 1), BuildingBlock: EZIPEK_clean_linker_0, # of connection points: 2
#     Edge 61, Type (0, 1), BuildingBlock: EZIPEK_clean_linker_0, # of connection points: 2
#     Edge 62, Type (0, 1), BuildingBlock: EZIPEK_clean_linker_0, # of connection points: 2
#     Edge 63, Type (0, 1), BuildingBlock: EZIPEK_clean_linker_0, # of connection points: 2
#     Edge 64, Type (0, 1), BuildingBlock: EZIPEK_clean_linker_0, # of connection points: 2
#     Edge 65, Type (0, 1), BuildingBlock: EZIPEK_clean_linker_0, # of connection points: 2
#     Edge 66, Type (0, 1), BuildingBlock: EZIPEK_clean_linker_0, # of connection points: 2
#     Edge 67, Type (0, 1), BuildingBlock: EZIPEK_clean_linker_0, # of connection points: 2
#     Edge 68, Type (0, 1), BuildingBlock: EZIPEK_clean_linker_0, # of connection points: 2
#     Edge 69, Type (0, 1), BuildingBlock: EZIPEK_clean_linker_0, # of connection points: 2
#     Edge 70, Type (0, 1), BuildingBlock: EZIPEK_clean_linker_0, # of connection points: 2
#     Edge 71, Type (0, 1), BuildingBlock: EZIPEK_clean_linker_0, # of connection points: 2
#     Edge 72, Type (0, 1), BuildingBlock: EZIPEK_clean_linker_0, # of connection points: 2
#     Edge 73, Type (0, 1), BuildingBlock: EZIPEK_clean_linker_0, # of connection points: 2
#     Edge 74, Type (0, 1), BuildingBlock: EZIPEK_clean_linker_0, # of connection points: 2
#     Edge 75, Type (0, 1), BuildingBlock: EZIPEK_clean_linker_0, # of connection points: 2
# Relax obj value: 0.066
# Max RMSD: 0.180
# Mean RMSD: 0.111
data_MOF--net-ctn--node1-NAHDIM_clean_sbu_0--node2-PAMTOO_clean_linker_0--edge1-EZIPEK_clean_linker_0
_symmetry_space_group_name_H-M    P1
_symmetry_Int_Tables_number       1
_symmetry_cell_setting            triclinic
loop_
_symmetry_equiv_pos_as_xyz
'x, y, z'
_cell_length_a     38.664846
_cell_length_b     39.243172
_cell_length_c     39.576046
_cell_angle_alpha  85.834954
_cell_angle_beta   92.537331
_cell_angle_gamma 100.51843
loop_
_atom_site_label
_atom_site_type_symbol
_atom_site_fract_x
_atom_site_fract_y
_atom_site_fract_z
_atom_type_partial_charge
H0 H 0.99109 0.11219 0.06252 0.0
H1 H 0.04159 0.02312 0.08067 0.0
H2 H 0.0578 0.08654 0.98758 0.0
H3 H 0.04544 0.00936 0.9826 0.0
C4 C 0.06145 0.00275 0.00538 0.0
O5 O 0.07379 0.03194 0.02291 0.0
H6 H 0.04439 0.98431 0.02287 0.0
C7 C 0.0082 0.09557 0.05431 0.0
C8 C 0.02372 0.10269 0.02264 0.0
C9 C 0.01445 0.0668 0.07523 0.0
C10 C 0.03656 0.04532 0.06455 0.0
C11 C 0.05216 0.05241 0.03295 0.0
C12 C 0.04571 0.08106 0.01202 0.0
H13 H 0.31765 0.67396 0.27987 0.0
H14 H 0.23947 0.6935 0.20352 0.0
H15 H 0.33072 0.77153 0.2203 0.0
H16 H 0.26176 0.72477 0.14282 0.0
C17 C 0.27761 0.75 0.14983 0.0
O18 O 0.27286 0.75502 0.1833 0.0
H19 H 0.30523 0.74726 0.14586 0.0
C20 C 0.30832 0.69082 0.25994 0.0
C21 C 0.3276 0.72426 0.25258 0.0
C22 C 0.27639 0.67955 0.24236 0.0
C23 C 0.26416 0.70183 0.21715 0.0
C24 C 0.28416 0.73451 0.20866 0.0
C25 C 0.31578 0.74583 0.22643 0.0
H26 H 0.97611 0.5233 0.11496 0.0
H27 H 0.95103 0.47917 0.01829 0.0
H28 H 0.03504 0.44961 0.08185 0.0
H29 H 0.04896 0.46555 0.00841 0.0
C30 C 0.02357 0.45138 0.99806 0.0
O31 O 1.00013 0.44058 0.02375 0.0
H32 H 0.01129 0.46946 0.98054 0.0
C33 C 0.98116 0.50641 0.09598 0.0
C34 C 0.00808 0.48677 0.10182 0.0
C35 C 0.96033 0.50372 0.06588 0.0
C36 C 0.96698 0.48155 0.0415 0.0
C37 C 0.99406 0.46221 0.04709 0.0
C38 C 0.01436 0.46477 0.0773 0.0
H39 H 0.71486 0.86357 0.26658 0.0
H40 H 0.67954 0.76184 0.2301 0.0
H41 H 0.78089 0.8201 0.20316 0.0
H42 H 0.7229 0.78551 0.14883 0.0
C43 C 0.72263 0.75952 0.16221 0.0
O44 O 0.73588 0.76244 0.19506 0.0
H45 H 0.69431 0.74739 0.16257 0.0
C46 C 0.71919 0.84253 0.2519 0.0
C47 C 0.75084 0.84528 0.2351 0.0
C48 C 0.69341 0.81244 0.25038 0.0
C49 C 0.6993 0.78519 0.23148 0.0
C50 C 0.73055 0.78826 0.21392 0.0
C51 C 0.75641 0.81812 0.21606 0.0
H52 H 0.11486 0.95843 0.53274 0.0
H53 H 0.02178 0.93435 0.46899 0.0
H54 H 0.09182 0.03188 0.45232 0.0
H55 H 0.01439 0.0347 0.44612 0.0
C56 C 0.00528 0.0088 0.43604 0.0
O57 O 0.03356 0.99288 0.43147 0.0
H58 H 0.98821 0.99429 0.45615 0.0
C59 C 0.09815 0.96554 0.51165 0.0
C60 C 0.1072 0.99779 0.49344 0.0
C61 C 0.06716 0.94276 0.50307 0.0
C62 C 0.04565 0.95194 0.47576 0.0
C63 C 0.0545 0.98408 0.45761 0.0
C64 C 0.08517 0.00699 0.46645 0.0
H65 H 0.17634 0.80216 0.81487 0.0
H66 H 0.19523 0.71365 0.76499 0.0
H67 H 0.25622 0.74519 0.85436 0.0
H68 H 0.29722 0.72472 0.80174 0.0
C69 C 0.2769 0.70479 0.79013 0.0
O70 O 0.24597 0.70053 0.80726 0.0
H71 H 0.27341 0.71578 0.76377 0.0
C72 C 0.19088 0.78122 0.81323 0.0
C73 C 0.21731 0.77646 0.83767 0.0
C74 C 0.1827 0.75847 0.78711 0.0
C75 C 0.20142 0.7313 0.78511 0.0
C76 C 0.22811 0.72679 0.80916 0.0
C77 C 0.23585 0.74914 0.83554 0.0
H78 H 0.93642 0.56891 0.53802 0.0
H79 H 0.96445 0.50025 0.46799 0.0
H80 H 0.03845 0.59104 0.49335 0.0
H81 H 0.02772 0.57254 0.41734 0.0
C82 C 0.02566 0.54405 0.42276 0.0
O83 O 0.02719 0.53611 0.45724 0.0
H84 H 0.9994 0.53292 0.41181 0.0
C85 C 0.95525 0.56226 0.52126 0.0
C86 C 0.98853 0.5834 0.51803 0.0
C87 C 0.94644 0.5323 0.50312 0.0
C88 C 0.97103 0.52349 0.4819 0.0
C89 C 0.00394 0.54481 0.47807 0.0
C90 C 0.01273 0.5748 0.49607 0.0
H91 H 0.75216 0.79728 0.86533 0.0
H92 H 0.83448 0.75061 0.82854 0.0
H93 H 0.80043 0.83588 0.77059 0.0
H94 H 0.8174 0.78214 0.72757 0.0
C95 C 0.83568 0.77087 0.74571 0.0
O96 O 0.84359 0.79125 0.77299 0.0
H97 H 0.82045 0.74487 0.75362 0.0
C98 C 0.77104 0.79608 0.84619 0.0
C99 C 0.77371 0.81972 0.81753 0.0
C100 C 0.79295 0.77105 0.85018 0.0
C101 C 0.81739 0.76968 0.82542 0.0
C102 C 0.81982 0.79276 0.79662 0.0
C103 C 0.79813 0.81782 0.79277 0.0
H104 H 0.25862 0.30307 0.37191 0.0
H105 H 0.33797 0.25473 0.33168 0.0
H106 H 0.30266 0.33999 0.27492 0.0
H107 H 0.32053 0.28974 0.23004 0.0
C108 C 0.33705 0.27629 0.24828 0.0
O109 O 0.34584 0.29551 0.27624 0.0
H110 H 0.31968 0.2511 0.25504 0.0
C111 C 0.27639 0.30138 0.35192 0.0
C112 C 0.27786 0.32459 0.32297 0.0
C113 C 0.29785 0.27591 0.35499 0.0
C114 C 0.32107 0.27402 0.32926 0.0
C115 C 0.32266 0.29697 0.30042 0.0
C116 C 0.30106 0.32212 0.29724 0.0
H117 H 0.47798 0.01854 0.61497 0.0
H118 H 0.44486 0.97736 0.51835 0.0
H119 H 0.52765 0.93975 0.57726 0.0
H120 H 0.53974 0.95782 0.50558 0.0
C121 C 0.51377 0.94761 0.49364 0.0
O122 O 0.49121 0.93594 0.51988 0.0
H123 H 0.50434 0.96905 0.47808 0.0
C124 C 0.48047 1.00126 0.59541 0.0
C125 C 0.50544 0.97919 0.59966 0.0
C126 C 0.45811 1.0004 0.56633 0.0
C127 C 0.46167 0.97803 0.54103 0.0
C128 C 0.48705 0.95658 0.54479 0.0
C129 C 0.50838 0.95672 0.57432 0.0
H130 H 0.21132 0.36675 0.76568 0.0
H131 H 0.17393 0.2632 0.73437 0.0
H132 H 0.27424 0.31958 0.70219 0.0
H133 H 0.20971 0.27898 0.65286 0.0
C134 C 0.21482 0.25478 0.66704 0.0
O135 O 0.22936 0.26113 0.69896 0.0
H136 H 0.18817 0.2386 0.66952 0.0
C137 C 0.21484 0.34496 0.75166 0.0
C138 C 0.24568 0.34668 0.7338 0.0
C139 C 0.18875 0.31497 0.75186 0.0
C140 C 0.19377 0.28661 0.7341 0.0
C141 C 0.22436 0.2885 0.71578 0.0
C142 C 0.25025 0.3185 0.71568 0.0
H143 H 0.8093 0.17257 0.79576 0.0
H144 H 0.74407 0.19157 0.70931 0.0
H145 H 0.82853 0.27112 0.73795 0.0
H146 H 0.7749 0.22111 0.65518 0.0
C147 C 0.78723 0.24786 0.66153 0.0
O148 O 0.77829 0.25398 0.69362 0.0
H149 H 0.81589 0.24799 0.66072 0.0
C150 C 0.80163 0.19121 0.77689 0.0
C151 C 0.81824 0.22665 0.77508 0.0
C152 C 0.77445 0.17873 0.7538 0.0
C153 C 0.76538 0.2008 0.72696 0.0
C154 C 0.78546 0.23382 0.72123 0.0
C155 C 0.8125 0.24614 0.74438 0.0
H156 H 0.47906 0.60865 0.55142 0.0
H157 H 0.53952 0.52998 0.58506 0.0
H158 H 0.56035 0.58733 0.48931 0.0
H159 H 0.55746 0.50768 0.49355 0.0
C160 C 0.57247 0.50666 0.51807 0.0
O161 O 0.57861 0.53866 0.53167 0.0
H162 H 0.55478 0.4874 0.53438 0.0
C163 C 0.49946 0.59394 0.54713 0.0
C164 C 0.51877 0.60101 0.51749 0.0
C165 C 0.50683 0.56832 0.57152 0.0
C166 C 0.53349 0.54961 0.56615 0.0
C167 C 0.55249 0.55623 0.53638 0.0
C168 C 0.54519 0.58194 0.51208 0.0
H169 H 0.60428 0.45902 0.03698 0.0
H170 H 0.50405 0.44413 0.98319 0.0
H171 H 0.58165 0.53454 0.95838 0.0
H172 H 0.50248 0.45626 0.91758 0.0
C173 C 0.51387 0.48425 0.91272 0.0
O174 O 0.5188 0.50031 0.94288 0.0
H175 H 0.53957 0.48432 0.90122 0.0
C176 C 0.5865 0.46784 0.01773 0.0
C177 C 0.59676 0.49955 0.99886 0.0
C178 C 0.55305 0.44782 0.01212 0.0
C179 C 0.52992 0.45951 0.98761 0.0
C180 C 0.54055 0.49032 0.96776 0.0
C181 C 0.57384 0.51039 0.97345 0.0
H182 H 0.68598 0.30249 0.31055 0.0
H183 H 0.70754 0.21311 0.26335 0.0
H184 H 0.76743 0.24928 0.35032 0.0
H185 H 0.81003 0.22332 0.30348 0.0
C186 C 0.78909 0.20612 0.28943 0.0
O187 O 0.75747 0.20273 0.30528 0.0
H188 H 0.78794 0.21976 0.26388 0.0
C189 C 0.70199 0.28326 0.30711 0.0
C190 C 0.7279 0.27921 0.33235 0.0
C191 C 0.69656 0.26237 0.27886 0.0
C192 C 0.71404 0.23351 0.28057 0.0
C193 C 0.73993 0.22944 0.30557 0.0
C194 C 0.7473 0.25261 0.33104 0.0
H195 H 0.43949 0.07228 0.03806 0.0
H196 H 0.46327 0.01418 0.95661 0.0
H197 H 0.53756 0.1028 0.98684 0.0
H198 H 0.52489 0.09523 0.9095 0.0
C199 C 0.51856 0.06637 0.91105 0.0
O200 O 0.52391 0.0534 0.94391 0.0
H201 H 0.49016 0.05856 0.90477 0.0
C202 C 0.45734 0.06809 0.01904 0.0
C203 C 0.48994 0.09042 0.01544 0.0
C204 C 0.44761 0.04063 0.99775 0.0
C205 C 0.47073 0.03526 0.97323 0.0
C206 C 0.50292 0.0578 0.96906 0.0
C207 C 0.51261 0.08535 0.99018 0.0
C208 C 0.18644 0.94606 0.98231 0.0
O209 O 0.20059 0.94769 0.95254 0.0
O210 O 0.23631 0.88617 0.95826 0.0
Zn211 Zn 0.24409 0.91217 0.00123 0.0
O212 O 0.28616 0.95089 0.99763 0.0
C213 C 0.23793 0.84895 0.04596 0.0
O214 O 0.21406 0.83599 0.02348 0.0
O215 O 0.20075 0.93217 0.00797 0.0
C216 C 0.31659 0.94296 0.99773 0.0
O217 O 0.31971 0.91018 0.99867 0.0
C218 C 0.25068 0.8605 0.95284 0.0
O219 O 0.27322 0.85012 0.97527 0.0
O220 O 0.25296 0.88051 0.04201 0.0
C221 C 0.19432 0.43426 0.30782 0.0
O222 O 0.2027 0.46068 0.32695 0.0
O223 O 0.1167 0.48612 0.31293 0.0
Zn224 Zn 0.14801 0.47799 0.27521 0.0
O225 O 0.18766 0.51917 0.26867 0.0
C226 C 0.09315 0.49113 0.22631 0.0
O227 O 0.08606 0.51073 0.24965 0.0
O228 O 0.17042 0.43492 0.2847 0.0
C229 C 0.18174 0.54991 0.26915 0.0
O230 O 0.14977 0.55495 0.27402 0.0
C231 C 0.12813 0.49984 0.34036 0.0
O232 O 0.16215 0.50721 0.34679 0.0
O233 O 0.11829 0.47425 0.23138 0.0
C234 C 0.84155 0.5744 0.03787 0.0
O235 O 0.81108 0.55414 0.03262 0.0
O236 O 0.80735 0.66376 0.98496 0.0
Zn237 Zn 0.79979 0.62981 0.02698 0.0
O238 O 0.75678 0.59209 0.01927 0.0
C239 C 0.77631 0.68153 0.06564 0.0
O240 O 0.76495 0.69239 0.03579 0.0
O241 O 0.84326 0.60721 0.03661 0.0
C242 C 0.72566 0.59598 0.02502 0.0
O243 O 0.72056 0.62507 0.03666 0.0
C244 C 0.7817 0.67109 0.96622 0.0
O245 O 0.74948 0.65594 0.97329 0.0
O246 O 0.79242 0.65588 0.06816 0.0
C247 C 0.84062 0.07846 0.27389 0.0
O248 O 0.82735 0.0483 0.28895 0.0
O249 O 0.92323 0.03378 0.28859 0.0
Zn250 Zn 0.88936 0.03969 0.24916 0.0
O251 O 0.85139 0.99735 0.2457 0.0
C252 C 0.94578 0.03967 0.20358 0.0
O253 O 0.9608 0.02588 0.23028 0.0
O254 O 0.86715 0.08122 0.25541 0.0
C255 C 0.85868 0.96701 0.2491 0.0
O256 O 0.89131 0.96292 0.25562 0.0
C257 C 0.91287 0.02151 0.31774 0.0
O258 O 0.87911 0.01141 0.32273 0.0
O259 O 0.91557 0.04762 0.20566 0.0
C260 C 0.34415 0.07827 0.54425 0.0
O261 O 0.31295 0.0587 0.54106 0.0
O262 O 0.31234 0.16891 0.49026 0.0
Zn263 Zn 0.30382 0.13432 0.53171 0.0
O264 O 0.26132 0.09677 0.5223 0.0
C265 C 0.27825 0.18469 0.57022 0.0
O266 O 0.26871 0.19642 0.54001 0.0
O267 O 0.34697 0.11122 0.54158 0.0
C268 C 0.22971 0.09975 0.52708 0.0
O269 O 0.22327 0.12829 0.53887 0.0
C270 C 0.28699 0.17614 0.47103 0.0
O271 O 0.25469 0.1607 0.47741 0.0
O272 O 0.29461 0.15921 0.57307 0.0
C273 C 0.34011 0.58275 0.78066 0.0
O274 O 0.34164 0.55865 0.80523 0.0
O275 O 0.41742 0.54201 0.78556 0.0
Zn276 Zn 0.38138 0.54269 0.74676 0.0
O277 O 0.34663 0.49722 0.74502 0.0
C278 C 0.43258 0.53963 0.69658 0.0
O279 O 0.4445 0.51865 0.71969 0.0
O280 O 0.3548 0.58115 0.75288 0.0
C281 C 0.35531 0.46814 0.74058 0.0
O282 O 0.38852 0.46625 0.73734 0.0
C283 C 0.41359 0.51805 0.80917 0.0
O284 O 0.38491 0.49431 0.80907 0.0
O285 O 0.40605 0.55297 0.70235 0.0
C286 C 0.69921 0.44995 0.50049 0.0
O287 O 0.72569 0.46801 0.48359 0.0
O288 O 0.7363 0.37111 0.46456 0.0
Zn289 Zn 0.7445 0.39935 0.50596 0.0
O290 O 0.78631 0.43859 0.50115 0.0
C291 C 0.74026 0.33647 0.55097 0.0
O292 O 0.71685 0.32267 0.52848 0.0
O293 O 0.70106 0.41946 0.5128 0.0
C294 C 0.81708 0.43258 0.5083 0.0
O295 O 0.82136 0.40082 0.51761 0.0
C296 C 0.75983 0.36892 0.44379 0.0
O297 O 0.79201 0.38599 0.44828 0.0
O298 O 0.75433 0.36833 0.5469 0.0
C299 C 0.698 0.93358 0.79037 0.0
O300 O 0.71907 0.96308 0.78272 0.0
O301 O 0.611 0.98355 0.81452 0.0
Zn302 Zn 0.64399 0.9764 0.77753 0.0
O303 O 0.68415 0.01797 0.7757 0.0
C304 C 0.59137 0.98669 0.72343 0.0
O305 O 0.58089 0.00631 0.74488 0.0
O306 O 0.66486 0.93263 0.79015 0.0
C307 C 0.68342 0.04539 0.75674 0.0
O308 O 0.65637 0.04724 0.73594 0.0
C309 C 0.6058 0.01412 0.81851 0.0
O310 O 0.62088 0.04019 0.79856 0.0
O311 O 0.61729 0.9715 0.73155 0.0
C312 C 0.997 0.21987 0.9345 0.0
O313 O 0.96653 0.23016 0.93434 0.0
O314 O 0.96907 0.26099 0.85245 0.0
Zn315 Zn 0.01398 0.27459 0.88068 0.0
O316 O 0.01232 0.31786 0.9052 0.0
C317 C 0.06256 0.30698 0.828 0.0
O318 O 0.04116 0.32936 0.82251 0.0
O319 O 0.02054 0.23503 0.91441 0.0
C320 C 0.03643 0.32941 0.92648 0.0
O321 O 0.06294 0.31297 0.93288 0.0
C322 C 0.9423 0.27463 0.85668 0.0
O323 O 0.94387 0.29771 0.87937 0.0
O324 O 0.05595 0.28248 0.85086 0.0
C325 C 0.493 0.71149 0.42008 0.0
O326 O 0.46148 0.71281 0.40685 0.0
O327 O 0.47289 0.75673 0.3439 0.0
Zn328 Zn 0.51486 0.77236 0.37477 0.0
O329 O 0.50976 0.81613 0.39667 0.0
C330 C 0.56541 0.8035 0.324 0.0
O331 O 0.54334 0.82494 0.31666 0.0
O332 O 0.51911 0.73431 0.41072 0.0
C333 C 0.52753 0.82565 0.42322 0.0
O334 O 0.55052 0.80727 0.43654 0.0
C335 C 0.45044 0.77594 0.33528 0.0
O336 O 0.45433 0.8072 0.34634 0.0
O337 O 0.55873 0.7799 0.34771 0.0
C338 C 0.02059 0.81326 0.58062 0.0
O339 O 0.98977 0.79463 0.57316 0.0
O340 O 0.97953 0.77084 0.66141 0.0
Zn341 Zn 0.02021 0.76129 0.63559 0.0
O342 O 0.00512 0.72021 0.60694 0.0
C343 C 0.0701 0.77546 0.68984 0.0
O344 O 0.05644 0.8038 0.68903 0.0
O345 O 0.03865 0.80391 0.60602 0.0
C346 C 0.02762 0.70272 0.59854 0.0
O347 O 0.06066 0.71134 0.60871 0.0
C348 C 0.95425 0.74697 0.6706 0.0
O349 O 0.95413 0.71489 0.6631 0.0
O350 O 0.05872 0.75247 0.66908 0.0
C351 C 0.51087 0.316 0.08718 0.0
O352 O 0.47923 0.29726 0.08406 0.0
O353 O 0.48249 0.27033 0.16928 0.0
Zn354 Zn 0.52159 0.26336 0.1397 0.0
O355 O 0.50729 0.22154 0.11171 0.0
C356 C 0.5682 0.25752 0.19974 0.0
O357 O 0.53974 0.25416 0.21752 0.0
O358 O 0.53304 0.30627 0.10864 0.0
C359 C 0.52982 0.20431 0.10281 0.0
O360 O 0.56299 0.21319 0.11242 0.0
C361 C 0.45405 0.24863 0.17332 0.0
O362 O 0.44932 0.21905 0.15874 0.0
O363 O 0.56596 0.26054 0.16758 0.0
C364 C 0.25693 0.82407 0.86715 0.0
C365 C 0.22505 0.79957 0.86618 0.0
C366 C 0.20748 0.81972 0.91896 0.0
C367 C 0.24107 0.84129 0.92197 0.0
N368 N 0.29895 0.86278 0.9005 0.0
N369 N 0.17209 0.77024 0.89326 0.0
C370 C 0.26618 0.84307 0.89651 0.0
C371 C 0.20075 0.79649 0.89255 0.0
N372 N 0.27774 0.82995 0.83951 0.0
N373 N 0.18191 0.82145 0.94124 0.0
H374 H 0.16629 0.75249 0.87453 0.0
H375 H 0.15567 0.7641 0.9138 0.0
H376 H 0.18592 0.83732 0.96154 0.0
H377 H 0.15579 0.80934 0.938 0.0
H378 H 0.29944 0.84993 0.83713 0.0
H379 H 0.27165 0.81664 0.81753 0.0
H380 H 0.31981 0.86188 0.88503 0.0
H381 H 0.30597 0.87879 0.92054 0.0
C382 C 0.0493 0.49547 0.39644 0.0
C383 C 0.05451 0.53041 0.40591 0.0
C384 C 0.10799 0.54465 0.37338 0.0
C385 C 0.10326 0.50985 0.36383 0.0
N386 N 0.07436 0.45022 0.37289 0.0
N387 N 0.09639 0.58285 0.41501 0.0
C388 C 0.07526 0.48463 0.37724 0.0
C389 C 0.08634 0.55326 0.39818 0.0
N390 N 0.01962 0.47266 0.40575 0.0
N391 N 0.1316 0.57013 0.35732 0.0
H392 H 0.08228 0.589 0.43488 0.0
H393 H 0.1209 0.59884 0.41218 0.0
H394 H 0.1463 0.56553 0.33735 0.0
H395 H 0.13351 0.59642 0.36115 0.0
H396 H 0.01181 0.44856 0.3957 0.0
H397 H 1.0021 0.47816 0.42298 0.0
H398 H 0.05674 0.4302 0.3848 0.0
H399 H 0.09336 0.44134 0.3597 0.0
C400 C 0.77228 0.71122 0.8768 0.0
C401 C 0.79037 0.7457 0.88016 0.0
C402 C 0.80365 0.73153 0.94024 0.0
C403 C 0.78746 0.69641 0.93629 0.0
N404 N 0.7633 0.65126 0.89922 0.0
N405 N 0.82837 0.78758 0.91299 0.0
C406 C 0.77369 0.68583 0.90409 0.0
C407 C 0.80758 0.75554 0.91129 0.0
N408 N 0.753 0.70295 0.84778 0.0
N409 N 0.81381 0.74243 0.97178 0.0
H410 H 0.83124 0.80612 0.89256 0.0
H411 H 0.84486 0.79486 0.93374 0.0
H412 H 0.81204 0.72578 0.99358 0.0
H413 H 0.82164 0.76844 0.97679 0.0
H414 H 0.73607 0.67933 0.84523 0.0
H415 H 0.75159 0.72078 0.82711 0.0
H416 H 0.75636 0.64163 0.87556 0.0
H417 H 0.76503 0.63181 0.91831 0.0
C418 C 0.98839 0.04251 0.38223 0.0
C419 C 0.9843 0.01091 0.4028 0.0
C420 C 0.93978 0.98433 0.36177 0.0
C421 C 0.93878 0.01766 0.3458 0.0
N422 N 0.95969 0.07965 0.34328 0.0
N423 N 0.95679 0.95044 0.41112 0.0
C424 C 0.96255 0.04711 0.35654 0.0
C425 C 0.96024 0.98137 0.39222 0.0
N426 N 0.01754 0.06761 0.38621 0.0
N427 N 0.92275 0.95536 0.34679 0.0
H428 H 0.97349 0.94574 0.4316 0.0
H429 H 0.93629 0.92971 0.4073 0.0
H430 H 0.90932 0.95664 0.32347 0.0
H431 H 0.92518 0.93015 0.35536 0.0
H432 H 0.02299 0.08986 0.36991 0.0
H433 H 0.03851 0.0642 0.40282 0.0
H434 H 0.97403 0.10218 0.35293 0.0
H435 H 0.94073 0.08433 0.32481 0.0
C436 C 0.26358 0.25555 0.62505 0.0
C437 C 0.23819 0.23639 0.64743 0.0
C438 C 0.24601 0.18191 0.6247 0.0
C439 C 0.26903 0.2012 0.60036 0.0
N440 N 0.30779 0.25429 0.58347 0.0
N441 N 0.21687 0.18153 0.67773 0.0
C442 C 0.28034 0.23747 0.60249 0.0
C443 C 0.23325 0.19958 0.65027 0.0
N444 N 0.27128 0.29096 0.62501 0.0
N445 N 0.23459 0.14707 0.62233 0.0
H446 H 0.20818 0.19368 0.69749 0.0
H447 H 0.21543 0.15491 0.68283 0.0
H448 H 0.24403 0.13274 0.60484 0.0
H449 H 0.21412 0.13269 0.63639 0.0
H450 H 0.28554 0.30684 0.60634 0.0
H451 H 0.26288 0.3048 0.64358 0.0
H452 H 0.31959 0.28011 0.58559 0.0
H453 H 0.32102 0.2414 0.56744 0.0
C454 C 0.4593 0.5324 0.60653 0.0
C455 C 0.48699 0.56152 0.60321 0.0
C456 C 0.47584 0.57851 0.65954 0.0
C457 C 0.4503 0.54779 0.66399 0.0
N458 N 0.41936 0.49368 0.64383 0.0
N459 N 0.52488 0.61013 0.62731 0.0
C460 C 0.44247 0.52419 0.63805 0.0
C461 C 0.49608 0.58411 0.62988 0.0
N462 N 0.44849 0.51328 0.57919 0.0
N463 N 0.48046 0.60246 0.68355 0.0
H464 H 0.54016 0.61523 0.60584 0.0
H465 H 0.5353 0.62508 0.64726 0.0
H466 H 0.4669 0.59868 0.70612 0.0
H467 H 0.49577 0.62711 0.68018 0.0
H468 H 0.42609 0.49403 0.57875 0.0
H469 H 0.46047 0.51838 0.5558 0.0
H470 H 0.41555 0.47352 0.62759 0.0
H471 H 0.40533 0.48752 0.66604 0.0
C472 C 0.73772 0.27076 0.62721 0.0
C473 C 0.77434 0.27367 0.63564 0.0
C474 C 0.78799 0.31538 0.5872 0.0
C475 C 0.75161 0.3147 0.58015 0.0
N476 N 0.69194 0.29797 0.59879 0.0
N477 N 0.83217 0.30951 0.63106 0.0
C478 C 0.7264 0.29414 0.60167 0.0
C479 C 0.79886 0.29941 0.61806 0.0
N480 N 0.7137 0.24557 0.64322 0.0
N481 N 0.81219 0.3294 0.56363 0.0
H482 H 0.84029 0.30099 0.65518 0.0
H483 H 0.84996 0.32998 0.6199 0.0
H484 H 0.80494 0.33809 0.5393 0.0
H485 H 0.83883 0.32802 0.56676 0.0
H486 H 0.68746 0.2395 0.63501 0.0
H487 H 0.72018 0.22929 0.66356 0.0
H488 H 0.67311 0.2863 0.61607 0.0
H489 H 0.68282 0.31559 0.58115 0.0
C490 C 0.51415 0.96276 0.66172 0.0
C491 C 0.52841 0.97924 0.63095 0.0
C492 C 0.58571 0.99727 0.66008 0.0
C493 C 0.5713 0.98101 0.69083 0.0
N494 N 0.52466 0.94304 0.72032 0.0
N495 N 0.57823 0.00881 0.59925 0.0
C496 C 0.53626 0.96229 0.69145 0.0
C497 C 0.56443 0.99535 0.62965 0.0
N498 N 0.47929 0.94787 0.66251 0.0
N499 N 0.61931 0.01576 0.66033 0.0
H500 H 0.56304 0.01017 0.57693 0.0
H501 H 0.60496 0.01722 0.59549 0.0
H502 H 0.63623 0.01596 0.68156 0.0
H503 H 0.63026 0.03197 0.64012 0.0
H504 H 0.46597 0.93932 0.68467 0.0
H505 H 0.4629 0.94538 0.64086 0.0
H506 H 0.50066 0.92607 0.72193 0.0
H507 H 0.54037 0.94181 0.74234 0.0
C508 C 0.85988 0.27775 0.80144 0.0
C509 C 0.84376 0.24209 0.80292 0.0
C510 C 0.8886 0.22974 0.84533 0.0
C511 C 0.90865 0.26332 0.83786 0.0
N512 N 0.91126 0.32108 0.81085 0.0
N513 N 0.82921 0.19824 0.8483 0.0
C514 C 0.89366 0.28783 0.81658 0.0
C515 C 0.85406 0.2213 0.83106 0.0
N516 N 0.84173 0.3032 0.7903 0.0
N517 N 0.90182 0.20609 0.86674 0.0
H518 H 0.80239 0.19716 0.84271 0.0
H519 H 0.83474 0.18458 0.87088 0.0
H520 H 0.92628 0.21166 0.87916 0.0
H521 H 0.88915 0.18029 0.87025 0.0
H522 H 0.81479 0.2985 0.78428 0.0
H523 H 0.81479 0.2985 0.78428 0.0
H524 H 0.90081 0.3394 0.79502 0.0
H525 H 0.93656 0.32975 0.82069 0.0
C526 C 0.54914 0.91617 0.45652 0.0
C527 C 0.51643 0.91841 0.47077 0.0
C528 C 0.49038 0.86133 0.45084 0.0
C529 C 0.52337 0.85813 0.43833 0.0
N530 N 0.5816 0.88522 0.42151 0.0
N531 N 0.45331 0.90061 0.46666 0.0
C532 C 0.55214 0.88632 0.43906 0.0
C533 C 0.48616 0.89328 0.46336 0.0
N534 N 0.57712 0.94285 0.45901 0.0
N535 N 0.46338 0.83346 0.45206 0.0
H536 H 0.44919 0.92486 0.47301 0.0
H537 H 0.43036 0.8844 0.45886 0.0
H538 H 0.46536 0.80942 0.44342 0.0
H539 H 0.44008 0.8333 0.46439 0.0
H540 H 0.60294 0.94074 0.45454 0.0
H541 H 0.5746 0.96759 0.46533 0.0
H542 H 0.60233 0.90601 0.41806 0.0
H543 H 0.58432 0.86416 0.40786 0.0
C544 C 0.15831 0.31089 0.80717 0.0
C545 C 0.15632 0.31319 0.77122 0.0
C546 C 0.09236 0.30953 0.77235 0.0
C547 C 0.09485 0.3104 0.8082 0.0
N548 N 0.13114 0.3194 0.85912 0.0
N549 N 0.12276 0.32124 0.71934 0.0
C550 C 0.12812 0.31316 0.82547 0.0
C551 C 0.12369 0.31442 0.7537 0.0
N552 N 0.18875 0.30546 0.82387 0.0
N553 N 0.06012 0.30241 0.7562 0.0
H554 H 0.14515 0.32501 0.70478 0.0
H555 H 0.10036 0.32619 0.70566 0.0
H556 H 0.03651 0.29806 0.76892 0.0
H557 H 0.0568 0.29768 0.7306 0.0
H558 H 0.19058 0.29983 0.84994 0.0
H559 H 0.21142 0.30343 0.81137 0.0
H560 H 0.15524 0.32521 0.87219 0.0
H561 H 0.10982 0.32228 0.87323 0.0
C562 C 0.52295 0.66438 0.50025 0.0
C563 C 0.51188 0.62923 0.49251 0.0
C564 C 0.49028 0.64803 0.43636 0.0
C565 C 0.49849 0.68306 0.44528 0.0
N566 N 0.51634 0.72426 0.48791 0.0
N567 N 0.47965 0.58715 0.4559 0.0
C568 C 0.51311 0.69118 0.47786 0.0
C569 C 0.49395 0.6209 0.46132 0.0
N570 N 0.54377 0.67219 0.52847 0.0
N571 N 0.4806 0.6407 0.40365 0.0
H572 H 0.48196 0.56654 0.47353 0.0
H573 H 0.46299 0.57989 0.43524 0.0
H574 H 0.47816 0.65981 0.38442 0.0
H575 H 0.47808 0.61596 0.39486 0.0
H576 H 0.5558 0.69737 0.53347 0.0
H577 H 0.55162 0.65327 0.54548 0.0
H578 H 0.52336 0.73095 0.51259 0.0
H579 H 0.50873 0.74448 0.47248 0.0
C580 C 0.88119 0.78994 0.70031 0.0
C581 C 0.86946 0.76744 0.72888 0.0
C582 C 0.91917 0.73721 0.72343 0.0
C583 C 0.92597 0.75499 0.69122 0.0
N584 N 0.91069 0.79595 0.64703 0.0
N585 N 0.87901 0.72057 0.76941 0.0
C586 C 0.90641 0.78092 0.67919 0.0
C587 C 0.88906 0.74141 0.74107 0.0
N588 N 0.86923 0.82054 0.69395 0.0
N589 N 0.94252 0.71774 0.73798 0.0
H590 H 0.85985 0.72497 0.78539 0.0
H591 H 0.88889 0.69804 0.77652 0.0
H592 H 0.96546 0.71499 0.72637 0.0
H593 H 0.94115 0.70715 0.76288 0.0
H594 H 0.87932 0.83922 0.67514 0.0
H595 H 0.85255 0.82925 0.71004 0.0
H596 H 0.89437 0.81227 0.63585 0.0
H597 H 0.92828 0.78961 0.63032 0.0
C598 C 0.06201 0.87809 0.5112 0.0
C599 C 0.05634 0.90962 0.52347 0.0
C600 C 0.03 0.87813 0.57456 0.0
C601 C 0.03314 0.84637 0.56102 0.0
N602 N 0.04873 0.81507 0.51547 0.0
N603 N 0.03109 0.94001 0.56419 0.0
C604 C 0.04814 0.84604 0.52899 0.0
C605 C 0.0394 0.90978 0.55453 0.0
N606 N 0.08156 0.87895 0.48307 0.0
N607 N 0.01824 0.87803 0.60668 0.0
H608 H 0.03787 0.96379 0.55039 0.0
H609 H 0.01523 0.94127 0.58447 0.0
H610 H 0.0094 0.8553 0.62152 0.0
H611 H 0.0193 0.90041 0.61957 0.0
H612 H 0.08988 0.85731 0.47475 0.0
H613 H 0.09188 0.90197 0.4693 0.0
H614 H 0.05548 0.81291 0.49066 0.0
H615 H 0.04031 0.79114 0.52849 0.0
C616 C 0.11948 0.74374 0.76767 0.0
C617 C 0.15389 0.7627 0.76204 0.0
C618 C 0.13299 0.79116 0.70984 0.0
C619 C 0.09902 0.77072 0.71444 0.0
N620 N 0.06009 0.72511 0.74525 0.0
N621 N 0.19507 0.80109 0.72647 0.0
C622 C 0.09234 0.74618 0.74261 0.0
C623 C 0.16111 0.78556 0.73277 0.0
N624 N 0.11259 0.72427 0.79752 0.0
N625 N 0.13826 0.8161 0.68365 0.0
H626 H 0.21619 0.79818 0.7431 0.0
H627 H 0.20289 0.81497 0.70385 0.0
H628 H 0.11894 0.81958 0.66514 0.0
H629 H 0.16108 0.83469 0.68114 0.0
H630 H 0.08742 0.71291 0.80503 0.0
H631 H 0.13196 0.72131 0.81615 0.0
H632 H 0.05467 0.70397 0.76285 0.0
H633 H 0.03896 0.72739 0.72844 0.0
C634 C 0.99219 0.64703 0.52522 0.0
C635 C 0.99836 0.61407 0.53858 0.0
C636 C 0.01989 0.63864 0.59245 0.0
C637 C 0.01664 0.67216 0.5781 0.0
N638 N 0.00404 0.70944 0.52969 0.0
N639 N 0.02173 0.57861 0.58304 0.0
C640 C 0.00378 0.67669 0.5442 0.0
C641 C 0.01328 0.60991 0.57169 0.0
N642 N 0.97467 0.64983 0.49464 0.0
N643 N 0.02779 0.63403 0.62632 0.0
H644 H 0.01632 0.55666 0.56898 0.0
H645 H 0.03637 0.57492 0.60528 0.0
H646 H 0.03235 0.65437 0.64245 0.0
H647 H 0.0268 0.60977 0.63913 0.0
H648 H 0.96577 0.67225 0.48521 0.0
H649 H 0.96674 0.62885 0.4796 0.0
H650 H 0.99884 0.71478 0.50402 0.0
H651 H 0.01209 0.73174 0.54284 0.0
C652 C 0.78514 0.90164 0.21071 0.0
C653 C 0.77865 0.87644 0.23834 0.0
C654 C 0.82138 0.91288 0.27397 0.0
C655 C 0.83053 0.93633 0.24547 0.0
N656 N 0.82493 0.95093 0.18543 0.0
N657 N 0.7947 0.85481 0.29439 0.0
C658 C 0.81341 0.9302 0.21344 0.0
C659 C 0.79799 0.8811 0.26946 0.0
N660 N 0.76364 0.89884 0.1823 0.0
N661 N 0.83373 0.92173 0.30561 0.0
H662 H 0.77792 0.83101 0.29198 0.0
H663 H 0.81089 0.85538 0.31616 0.0
H664 H 0.84963 0.94553 0.30995 0.0
H665 H 0.82525 0.90723 0.32776 0.0
H666 H 0.76463 0.91831 0.16286 0.0
H667 H 0.74277 0.87819 0.17933 0.0
H668 H 0.81615 0.94544 0.16083 0.0
H669 H 0.84539 0.97224 0.18644 0.0
C670 C 0.81772 0.15603 0.31442 0.0
C671 C 0.79867 0.17051 0.28717 0.0
C672 C 0.80308 0.12169 0.2531 0.0
C673 C 0.82509 0.10931 0.27897 0.0
N674 N 0.85594 0.11521 0.33307 0.0
N675 N 0.76234 0.16053 0.23637 0.0
C676 C 0.83279 0.12638 0.3095 0.0
C677 C 0.78815 0.15143 0.25809 0.0
N678 N 0.81977 0.16953 0.34551 0.0
N679 N 0.79727 0.10552 0.22335 0.0
H680 H 0.74921 0.18078 0.24023 0.0
H681 H 0.75107 0.14589 0.2165 0.0
H682 H 0.80636 0.08272 0.2194 0.0
H683 H 0.78536 0.11568 0.20178 0.0
H684 H 0.83025 0.15817 0.36725 0.0
H685 H 0.80755 0.19008 0.35066 0.0
H686 H 0.86621 0.12899 0.35384 0.0
H687 H 0.86706 0.09324 0.33064 0.0
C688 C 0.40636 0.99081 0.02583 0.0
C689 C 0.41256 0.01791 0.99995 0.0
C690 C 0.35545 0.99629 0.97254 0.0
C691 C 0.34856 0.97011 0.99927 0.0
N692 N 0.36347 0.94729 0.05524 0.0
N693 N 0.39062 0.05122 0.95287 0.0
C694 C 0.37287 0.96878 0.0271 0.0
C695 C 0.38627 0.02216 0.97462 0.0
N696 N 0.43287 0.98533 0.04846 0.0
N697 N 0.33359 0.99541 0.94438 0.0
H698 H 0.41294 0.07068 0.95366 0.0
H699 H 0.37088 0.05758 0.93613 0.0
H700 H 0.3109 0.97671 0.9417 0.0
H701 H 0.3394 0.01143 0.92246 0.0
H702 H 0.43125 0.96353 0.06537 0.0
H703 H 0.4576 1.00129 0.04872 0.0
H704 H 0.37866 0.94772 0.07764 0.0
H705 H 0.33884 0.93132 0.05744 0.0
C706 C 0.21874 0.34367 0.31583 0.0
C707 C 0.25595 0.35234 0.31982 0.0
C708 C 0.25253 0.41412 0.31109 0.0
C709 C 0.21519 0.40574 0.31114 0.0
N710 N 0.16278 0.36244 0.31975 0.0
N711 N 0.30753 0.39611 0.32866 0.0
C712 C 0.19823 0.37044 0.31515 0.0
C713 C 0.27263 0.38768 0.31966 0.0
N714 N 0.20304 0.31007 0.31155 0.0
N715 N 0.26895 0.44697 0.30116 0.0
H716 H 0.32306 0.37752 0.33584 0.0
H717 H 0.3201 0.42147 0.33232 0.0
H718 H 0.25532 0.46678 0.29284 0.0
H719 H 0.29593 0.45351 0.29749 0.0
H720 H 0.17647 0.30282 0.30495 0.0
H721 H 0.21714 0.2898 0.31156 0.0
H722 H 0.14965 0.33737 0.32633 0.0
H723 H 0.14694 0.38123 0.32019 0.0
C724 C 0.16785 0.0301 0.48021 0.0
C725 C 0.13962 0.02231 0.50283 0.0
C726 C 0.17403 0.05971 0.54374 0.0
C727 C 0.19996 0.07148 0.51917 0.0
N728 N 0.21847 0.07178 0.46149 0.0
N729 N 0.11327 0.0342 0.55389 0.0
C730 C 0.19622 0.05761 0.48673 0.0
C731 C 0.14198 0.03831 0.53404 0.0
N732 N 0.16796 0.01073 0.45288 0.0
N733 N 0.18055 0.06779 0.5767 0.0
H734 H 0.08905 0.0192 0.54747 0.0
H735 H 0.11255 0.04829 0.5751 0.0
H736 H 0.20446 0.08191 0.58516 0.0
H737 H 0.16391 0.05719 0.59625 0.0
H738 H 0.18958 0.01294 0.43754 0.0
H739 H 0.14779 0.99011 0.44748 0.0
H740 H 0.21438 0.06516 0.43642 0.0
H741 H 0.23914 0.09247 0.46466 0.0
C742 C 0.7576 0.11941 0.73171 0.0
C743 C 0.7552 0.14229 0.75735 0.0
C744 C 0.71417 0.09647 0.78761 0.0
C745 C 0.71177 0.07613 0.7591 0.0
N746 N 0.7305 0.06795 0.70343 0.0
N747 N 0.72779 0.15427 0.80781 0.0
C748 C 0.73342 0.08748 0.73099 0.0
C749 C 0.73288 0.13118 0.78506 0.0
N750 N 0.78353 0.12792 0.70859 0.0
N751 N 0.69858 0.0828 0.8171 0.0
H752 H 0.74029 0.18019 0.80655 0.0
H753 H 0.70872 0.14859 0.82617 0.0
H754 H 0.68506 0.05736 0.82018 0.0
H755 H 0.70229 0.0954 0.8396 0.0
H756 H 0.78873 0.11097 0.69119 0.0
H757 H 0.80211 0.15082 0.70889 0.0
H758 H 0.74228 0.07682 0.6805 0.0
H759 H 0.71477 0.04336 0.70292 0.0
C760 C 0.43332 0.05041 0.53715 0.0
C761 C 0.43041 0.02252 0.56242 0.0
C762 C 0.37505 0.03693 0.58009 0.0
C763 C 0.37543 0.06144 0.55183 0.0
N764 N 0.40287 0.08825 0.50048 0.0
N765 N 0.39579 0.9858 0.60482 0.0
C766 C 0.40417 0.06757 0.52966 0.0
C767 C 0.4006 0.01492 0.58318 0.0
N768 N 0.46421 0.06094 0.52075 0.0
N769 N 0.35089 0.03541 0.6046 0.0
H770 H 0.41355 0.96867 0.60754 0.0
H771 H 0.37267 0.97692 0.61779 0.0
H772 H 0.33239 0.05179 0.60371 0.0
H773 H 0.35155 0.02054 0.62744 0.0
H774 H 0.46919 0.08333 0.50462 0.0
H775 H 0.48613 0.04909 0.52571 0.0
H776 H 0.42116 0.09047 0.48154 0.0
H777 H 0.38189 0.10094 0.49371 0.0
C778 C 0.62333 0.49872 0.48247 0.0
C779 C 0.60735 0.49479 0.51447 0.0
C780 C 0.65601 0.46732 0.53874 0.0
C781 C 0.66769 0.46539 0.50552 0.0
N782 N 0.65858 0.47443 0.44497 0.0
N783 N 0.60956 0.47665 0.57418 0.0
C784 C 0.65036 0.47985 0.47715 0.0
C785 C 0.62404 0.47947 0.54298 0.0
N786 N 0.61387 0.52153 0.45755 0.0
N787 N 0.67646 0.45947 0.56627 0.0
H788 H 0.58869 0.48862 0.57958 0.0
H789 H 0.61748 0.4613 0.5946 0.0
H790 H 0.70061 0.45164 0.56428 0.0
H791 H 0.67133 0.46391 0.59102 0.0
H792 H 0.62695 0.52734 0.43481 0.0
H793 H 0.59626 0.53803 0.4612 0.0
H794 H 0.64416 0.48152 0.42356 0.0
H795 H 0.67731 0.45964 0.43978 0.0
C796 C 0.72629 0.28944 0.39411 0.0
C797 C 0.73473 0.30277 0.36062 0.0
C798 C 0.75592 0.36056 0.3813 0.0
C799 C 0.75119 0.34625 0.41511 0.0
N800 N 0.739 0.29553 0.45397 0.0
N801 N 0.76294 0.34964 0.32275 0.0
C802 C 0.73821 0.31025 0.42164 0.0
C803 C 0.751 0.33801 0.35427 0.0
N804 N 0.70619 0.25719 0.39956 0.0
N805 N 0.76391 0.39577 0.37488 0.0
H806 H 0.76006 0.33391 0.3023 0.0
H807 H 0.77839 0.37397 0.31759 0.0
H808 H 0.76731 0.41319 0.39396 0.0
H809 H 0.76398 0.40783 0.35055 0.0
H810 H 0.69626 0.24761 0.42311 0.0
H811 H 0.69658 0.24132 0.37995 0.0
H812 H 0.73312 0.26883 0.45979 0.0
H813 H 0.74919 0.30961 0.47463 0.0
C814 C 0.57835 0.05496 0.89422 0.0
C815 C 0.54156 0.0525 0.8868 0.0
C816 C 0.54654 0.01865 0.83793 0.0
C817 C 0.58299 0.02144 0.8451 0.0
N818 N 0.63323 0.03662 0.88237 0.0
N819 N 0.495 0.04402 0.84342 0.0
C820 C 0.5988 0.03805 0.87396 0.0
C821 C 0.52664 0.03746 0.85652 0.0
N822 N 0.59415 0.07561 0.91901 0.0
N823 N 0.53084 0.99777 0.81336 0.0
H824 H 0.48161 0.06179 0.85295 0.0
H825 H 0.48448 0.03604 0.82 0.0
H826 H 0.54474 0.98327 0.79968 0.0
H827 H 0.50367 0.99181 0.80926 0.0
H828 H 0.62117 0.08115 0.92381 0.0
H829 H 0.58069 0.09023 0.93296 0.0
H830 H 0.64599 0.0452 0.90469 0.0
H831 H 0.64842 0.02385 0.86816 0.0
C832 C 0.31285 0.26054 0.41608 0.0
C833 C 0.29583 0.25053 0.38491 0.0
C834 C 0.27992 0.19061 0.40882 0.0
C835 C 0.29315 0.20138 0.44111 0.0
N836 N 0.3186 0.24765 0.47666 0.0
N837 N 0.25886 0.2074 0.3526 0.0
C838 C 0.3089 0.23661 0.44508 0.0
C839 C 0.27817 0.21591 0.38155 0.0
N840 N 0.33347 0.29266 0.41777 0.0
N841 N 0.2703 0.15599 0.40388 0.0
H842 H 0.25699 0.2252 0.33199 0.0
H843 H 0.24225 0.18357 0.35012 0.0
H844 H 0.27247 0.13664 0.42296 0.0
H845 H 0.26373 0.14633 0.38017 0.0
H846 H 0.34974 0.30009 0.43863 0.0
H847 H 0.33651 0.31106 0.39722 0.0
H848 H 0.32613 0.27372 0.48159 0.0
H849 H 0.31673 0.23106 0.49851 0.0
C850 C 0.50117 0.51977 0.85885 0.0
C851 C 0.48875 0.50084 0.88907 0.0
C852 C 0.42875 0.50704 0.87071 0.0
C853 C 0.44039 0.5168 0.83727 0.0
N854 N 0.48933 0.52932 0.79908 0.0
N855 N 0.43961 0.47725 0.92467 0.0
C856 C 0.47712 0.52287 0.83118 0.0
C857 C 0.45219 0.49497 0.89546 0.0
N858 N 0.53568 0.5353 0.85666 0.0
N859 N 0.39576 0.51057 0.87917 0.0
H860 H 0.45579 0.46946 0.94438 0.0
H861 H 0.41286 0.46859 0.92849 0.0
H862 H 0.37875 0.52154 0.86226 0.0
H863 H 0.387 0.50666 0.90392 0.0
H864 H 0.5453 0.55154 0.83586 0.0
H865 H 0.55339 0.53585 0.87737 0.0
H866 H 0.51562 0.53015 0.79362 0.0
H867 H 0.47315 0.53042 0.77756 0.0
C868 C 0.73332 0.70113 0.14495 0.0
C869 C 0.74305 0.73788 0.14296 0.0
C870 C 0.78361 0.73517 0.09765 0.0
C871 C 0.76957 0.69927 0.09592 0.0
N872 N 0.73214 0.64721 0.11828 0.0
N873 N 0.7872 0.78768 0.12752 0.0
C874 C 0.74537 0.6818 0.12022 0.0
C875 C 0.7713 0.7543 0.12238 0.0
N876 N 0.71346 0.68474 0.17113 0.0
N877 N 0.80799 0.75107 0.07484 0.0
H878 H 0.78001 0.80172 0.14658 0.0
H879 H 0.80972 0.80046 0.11542 0.0
H880 H 0.81964 0.73729 0.05832 0.0
H881 H 0.81594 0.77785 0.07136 0.0
H882 H 0.70816 0.65792 0.17605 0.0
H883 H 0.70513 0.69804 0.19022 0.0
H884 H 0.71076 0.63396 0.13182 0.0
H885 H 0.74156 0.63176 0.10183 0.0
C886 C 0.96465 0.03597 0.11064 0.0
C887 C 0.99741 0.05903 0.10838 0.0
C888 C 0.99554 0.07067 0.1682 0.0
C889 C 0.96394 0.04587 0.17102 0.0
N890 N 0.92148 1.0004 0.14706 0.0
N891 N 0.04692 0.09455 0.13535 0.0
C892 C 0.94927 0.02728 0.14279 0.0
C893 C 0.01376 0.07523 0.13732 0.0
N894 N 0.94789 0.02299 0.0819 0.0
N895 N 0.00726 0.09096 0.19452 0.0
H896 H 0.06069 0.09919 0.1129 0.0
H897 H 0.06189 0.10382 0.15637 0.0
H898 H 0.99457 0.08851 0.21751 0.0
H899 H 0.02787 0.11211 0.19274 0.0
H900 H 0.92215 0.00932 0.08125 0.0
H901 H 0.95879 0.028 0.05801 0.0
H902 H 0.91191 0.98348 0.12836 0.0
H903 H 0.90981 0.99302 0.17035 0.0
C904 C 0.29283 0.80581 0.11275 0.0
C905 C 0.26672 0.77941 0.12725 0.0
C906 C 0.22132 0.80564 0.09512 0.0
C907 C 0.24792 0.82651 0.07526 0.0
N908 N 0.30973 0.84206 0.06235 0.0
N909 N 0.20508 0.75522 0.13402 0.0
C910 C 0.28395 0.82572 0.08346 0.0
C911 C 0.23057 0.77972 0.1191 0.0
N912 N 0.32587 0.81248 0.12727 0.0
N913 N 0.18755 0.81167 0.09224 0.0
H914 H 0.21028 0.73784 0.15396 0.0
H915 H 0.17881 0.75122 0.12567 0.0
H916 H 0.18012 0.83148 0.07609 0.0
H917 H 0.16772 0.79961 0.10832 0.0
H918 H 0.34496 0.83339 0.11898 0.0
H919 H 0.33266 0.80013 0.1502 0.0
H920 H 0.33599 0.83933 0.06588 0.0
H921 H 0.30452 0.85496 0.03933 0.0
C922 C 0.0215 0.46172 0.16013 0.0
C923 C 0.02954 0.48845 0.13402 0.0
C924 C 0.07882 0.51748 0.16889 0.0
C925 C 0.07219 0.48953 0.19399 0.0
N926 N 0.04038 0.43303 0.21235 0.0
N927 N 0.0681 0.53934 0.11108 0.0
C928 C 0.04447 0.46099 0.18921 0.0
C929 C 0.0588 0.51574 0.13775 0.0
N930 N 0.99122 0.43766 0.15752 0.0
N931 N 0.10401 0.54587 0.17504 0.0
H932 H 0.05366 0.53927 0.08817 0.0
H933 H 0.09134 0.55753 0.11063 0.0
H934 H 0.12038 0.54732 0.19676 0.0
H935 H 0.10744 0.56884 0.15969 0.0
H936 H 0.98174 0.41973 0.17711 0.0
H937 H 0.9739 0.43729 0.13652 0.0
H938 H 0.02329 0.40976 0.20861 0.0
H939 H 0.05595 0.43211 0.23449 0.0
C940 C 0.39328 0.73814 0.26134 0.0
C941 C 0.35925 0.73744 0.27361 0.0
C942 C 0.38512 0.75879 0.32744 0.0
C943 C 0.41914 0.76251 0.31405 0.0
N944 N 0.45582 0.76085 0.26667 0.0
N945 N 0.32229 0.75219 0.31583 0.0
C946 C 0.42333 0.75347 0.28056 0.0
C947 C 0.35502 0.74923 0.30597 0.0
N948 N 0.39686 0.72343 0.23171 0.0
N949 N 0.38157 0.76288 0.36107 0.0
H950 H 0.29951 0.74524 0.30092 0.0
H951 H 0.31801 0.76426 0.33746 0.0
H952 H 0.40299 0.76935 0.3778 0.0
H953 H 0.35761 0.75676 0.3731 0.0
H954 H 0.42093 0.71969 0.22326 0.0
H955 H 0.37539 0.71244 0.21675 0.0
H956 H 0.46003 0.75835 0.24123 0.0
H957 H 0.47838 0.77231 0.27988 0.0
C958 C 0.03556 0.42386 0.94388 0.0
C959 C 0.03083 0.42059 0.97953 0.0
C960 C 0.03274 0.35836 0.98032 0.0
C961 C 0.03453 0.36091 0.94449 0.0
N962 N 0.03679 0.3955 0.89145 0.0
N963 N 0.04258 0.38858 0.03186 0.0
C964 C 0.03571 0.39354 0.92605 0.0
C965 C 0.03459 0.38894 0.99789 0.0
N966 N 0.04309 0.45619 0.9276 0.0
N967 N 0.02736 0.32648 0.99759 0.0
H968 H 0.04798 0.41117 0.04485 0.0
H969 H 0.04876 0.36696 0.04603 0.0
H970 H 0.02475 0.30331 0.98563 0.0
H971 H 0.02186 0.32284 0.02327 0.0
H972 H 0.0497 0.46074 0.90228 0.0
H973 H 0.04708 0.47903 0.94025 0.0
H974 H 0.03274 0.41716 0.87607 0.0
H975 H 0.03998 0.37469 0.87768 0.0
C976 C 0.62801 0.81048 0.25096 0.0
C977 C 0.66038 0.8096 0.26905 0.0
C978 C 0.63109 0.80963 0.3227 0.0
C979 C 0.59811 0.80657 0.30487 0.0
N980 N 0.56444 0.79729 0.25239 0.0
N981 N 0.69171 0.80169 0.32231 0.0
C982 C 0.59632 0.80522 0.26905 0.0
C983 C 0.66163 0.80724 0.30501 0.0
N984 N 0.62761 0.81741 0.2166 0.0
N985 N 0.63356 0.81631 0.35624 0.0
H986 H 0.7145 0.79926 0.31025 0.0
H987 H 0.693 0.79618 0.34844 0.0
H988 H 0.61201 0.81941 0.36991 0.0
H989 H 0.65747 0.82232 0.36959 0.0
H990 H 0.6053 0.82211 0.20262 0.0
H991 H 0.65027 0.8216 0.20242 0.0
H992 H 0.56178 0.79227 0.22683 0.0
H993 H 0.5406 0.7924 0.2647 0.0
C994 C 0.98831 0.12831 0.97619 0.0
C995 C 0.01669 0.13283 1.00034 0.0
C996 C 0.0304 0.19498 0.9832 0.0
C997 C 0.0037 0.18995 0.95729 0.0
N998 N 0.9616 0.15101 0.92491 0.0
N999 N 0.06756 0.16885 0.02464 0.0
C1000 C 0.98369 0.1564 0.95271 0.0
C1001 C 0.03857 0.16574 0.00322 0.0
N1002 N 0.96548 0.09727 0.97603 0.0
N1003 N 0.04705 0.22787 0.98944 0.0
H1004 H 0.07374 0.14823 0.04049 0.0
H1005 H 0.08685 0.19112 0.0251 0.0
H1006 H 0.04206 0.24985 0.97506 0.0
H1007 H 0.06381 0.23373 0.01034 0.0
H1008 H 0.942 0.09356 0.96173 0.0
H1009 H 0.96862 0.07574 0.99218 0.0
H1010 H 0.94913 0.12652 0.91816 0.0
H1011 H 0.95822 0.17075 0.90667 0.0
C1012 C 0.38624 0.24159 0.24174 0.0
C1013 C 0.37044 0.27103 0.23188 0.0
C1014 C 0.41067 0.2865 0.18479 0.0
C1015 C 0.42612 0.25693 0.19418 0.0
N1016 N 0.43481 0.21113 0.23582 0.0
N1017 N 0.37711 0.32796 0.20263 0.0
C1018 C 0.41561 0.23574 0.22386 0.0
C1019 C 0.38564 0.29554 0.20609 0.0
N1020 N 0.37331 0.21924 0.26819 0.0
N1021 N 0.41866 0.30516 0.15473 0.0
H1022 H 0.36031 0.33634 0.21883 0.0
H1023 H 0.38992 0.34788 0.18635 0.0
H1024 H 0.43649 0.29923 0.13805 0.0
H1025 H 0.40519 0.32454 0.14487 0.0
H1026 H 0.37988 0.19478 0.27331 0.0
H1027 H 0.35526 0.22469 0.28487 0.0
H1028 H 0.43104 0.19722 0.25917 0.0
H1029 H 0.45677 0.20654 0.22368 0.0
C1030 C 0.53094 0.41341 0.06521 0.0
C1031 C 0.54218 0.41407 0.0315 0.0
C1032 C 0.52841 0.35047 0.03298 0.0
C1033 C 0.52013 0.34972 0.0676 0.0
N1034 N 0.5159 0.37962 0.11801 0.0
N1035 N 0.55642 0.38394 0.98446 0.0
C1036 C 0.52216 0.38098 0.08414 0.0
C1037 C 0.54214 0.38277 0.01563 0.0
N1038 N 0.52745 0.44372 0.07863 0.0
N1039 N 0.52283 0.32034 0.01662 0.0
H1040 H 0.56668 0.40714 0.97094 0.0
H1041 H 0.56074 0.36207 0.97308 0.0
H1042 H 0.51372 0.29611 0.02878 0.0
H1043 H 0.52461 0.3195 0.99054 0.0
H1044 H 0.51576 0.44481 0.10161 0.0
H1045 H 0.53389 0.46797 0.06558 0.0
H1046 H 0.52114 0.40118 0.1325 0.0
H1047 H 0.50718 0.35647 0.13228 0.0
C1048 C 0.66134 0.24484 0.22412 0.0
C1049 C 0.66993 0.26805 0.25031 0.0
C1050 C 0.61617 0.29119 0.2354 0.0
C1051 C 0.60347 0.26157 0.21672 0.0
N1052 N 0.61484 0.20992 0.1926 0.0
N1053 N 0.66852 0.32828 0.25612 0.0
C1054 C 0.62641 0.23847 0.21055 0.0
C1055 C 0.65109 0.29591 0.24934 0.0
N1056 N 0.68746 0.23375 0.20828 0.0
N1057 N 0.5953 0.31505 0.23957 0.0
H1058 H 0.69577 0.33333 0.26045 0.0
H1059 H 0.65718 0.35047 0.25275 0.0
H1060 H 0.57054 0.31417 0.22776 0.0
H1061 H 0.60209 0.33479 0.25621 0.0
H1062 H 0.68288 0.21925 0.18695 0.0
H1063 H 0.71397 0.24351 0.21366 0.0
H1064 H 0.63006 0.19088 0.19026 0.0
H1065 H 0.5892 0.20382 0.18264 0.0
C1066 C 0.49361 0.15312 0.02677 0.0
C1067 C 0.50005 0.11959 0.03788 0.0
C1068 C 0.52273 0.14093 0.09281 0.0
C1069 C 0.51904 0.17506 0.08065 0.0
N1070 N 0.50643 0.21493 0.0344 0.0
N1071 N 0.52462 0.08193 0.07939 0.0
C1072 C 0.50581 0.18151 0.0472 0.0
C1073 C 0.51574 0.11359 0.07034 0.0
N1074 N 0.4752 0.15765 0.99697 0.0
N1075 N 0.53156 0.13442 0.1262 0.0
H1076 H 0.51916 0.06106 0.06391 0.0
H1077 H 0.53968 0.07701 0.10104 0.0
H1078 H 0.53662 0.15373 0.14346 0.0
H1079 H 0.53099 0.10956 0.13754 0.0
H1080 H 0.46614 0.1805 0.98934 0.0
H1081 H 0.46655 0.13763 0.98095 0.0
H1082 H 0.50083 0.2216 0.00907 0.0
H1083 H 0.51554 0.23643 0.04844 0.0
C1084 C 0.30187 0.37759 0.75979 0.0
C1085 C 0.27403 0.37761 0.73523 0.0
C1086 C 0.30165 0.43526 0.71197 0.0
C1087 C 0.32788 0.43657 0.73836 0.0
N1088 N 0.35148 0.41076 0.7895 0.0
N1089 N 0.24471 0.40716 0.6902 0.0
C1090 C 0.32775 0.40811 0.76273 0.0
C1091 C 0.27311 0.40669 0.71198 0.0
N1092 N 0.30381 0.34814 0.78001 0.0
N1093 N 0.30498 0.46049 0.68598 0.0
H1094 H 0.22398 0.38614 0.68855 0.0
H1095 H 0.24042 0.42912 0.67541 0.0
H1096 H 0.3259 0.48145 0.68469 0.0
H1097 H 0.28889 0.45916 0.66415 0.0
H1098 H 0.32559 0.34487 0.79547 0.0
H1099 H 0.28448 0.32581 0.77978 0.0
H1100 H 0.34999 0.39294 0.81042 0.0
H1101 H 0.3716 0.43206 0.79209 0.0
C1102 C 0.27716 0.64671 0.76486 0.0
C1103 C 0.28929 0.67017 0.79042 0.0
C1104 C 0.33266 0.63464 0.81118 0.0
C1105 C 0.32136 0.61171 0.78518 0.0
N1106 N 0.27763 0.59062 0.74273 0.0
N1107 N 0.31795 0.6782 0.84548 0.0
C1108 C 0.29207 0.61623 0.76351 0.0
C1109 C 0.3137 0.66154 0.81602 0.0
N1110 N 0.25141 0.65353 0.74191 0.0
N1111 N 0.36252 0.6319 0.83025 0.0
H1112 H 0.30301 0.69662 0.85088 0.0
H1113 H 0.33308 0.67074 0.8662 0.0
H1114 H 0.3776 0.61289 0.82729 0.0
H1115 H 0.37409 0.65039 0.84689 0.0
H1116 H 0.24512 0.64058 0.71981 0.0
H1117 H 0.23655 0.67277 0.74452 0.0
H1118 H 0.25421 0.5905 0.72871 0.0
H1119 H 0.28748 0.5677 0.74162 0.0
C1120 C 0.90347 0.48738 0.5355 0.0
C1121 C 0.91137 0.50977 0.50605 0.0
C1122 C 0.85658 0.48253 0.47795 0.0
C1123 C 0.84793 0.46114 0.50799 0.0
N1124 N 0.8584 0.44966 0.56796 0.0
N1125 N 0.8923 0.53448 0.45244 0.0
C1126 C 0.86998 0.46552 0.53759 0.0
C1127 C 0.88684 0.50921 0.47828 0.0
N1128 N 0.92842 0.48592 0.56089 0.0
N1129 N 0.83715 0.47622 0.44863 0.0
H1130 H 0.91421 0.55445 0.45195 0.0
H1131 H 0.87363 0.53754 0.43321 0.0
H1132 H 0.81494 0.4568 0.44707 0.0
H1133 H 0.84467 0.48835 0.42514 0.0
H1134 H 0.92552 0.4672 0.5811 0.0
H1135 H 0.95326 0.50166 0.56046 0.0
H1136 H 0.8719 0.45461 0.59096 0.0
H1137 H 0.83352 0.43431 0.57073 0.0
C1138 C 0.72346 0.84407 0.78845 0.0
C1139 C 0.75129 0.84696 0.8133 0.0
C1140 C 0.73777 0.90266 0.82806 0.0
C1141 C 0.71347 0.9021 0.80005 0.0
N1142 N 0.68553 0.87388 0.75117 0.0
N1143 N 0.78766 0.88058 0.8546 0.0
C1144 C 0.70661 0.87305 0.77977 0.0
C1145 C 0.75904 0.87658 0.83273 0.0
N1146 N 0.71282 0.81339 0.77353 0.0
N1147 N 0.73983 0.9277 0.85072 0.0
H1148 H 0.80382 0.86204 0.85892 0.0
H1149 H 0.79704 0.90343 0.86648 0.0
H1150 H 0.72417 0.94682 0.8484 0.0
H1151 H 0.75438 0.92751 0.87349 0.0
H1152 H 0.69042 0.80841 0.7578 0.0
H1153 H 0.72462 0.7917 0.7793 0.0
H1154 H 0.68287 0.85535 0.73324 0.0
H1155 H 0.6727 0.89454 0.74388 0.0
C1156 C 0.63706 0.5379 0.03764 0.0
C1157 C 0.63118 0.522 0.00632 0.0
C1158 C 0.68804 0.55412 0.9868 0.0
C1159 C 0.69492 0.56808 0.01908 0.0
N1160 N 0.68022 0.5653 0.07795 0.0
N1161 N 0.65432 0.50868 0.95423 0.0
C1162 C 0.67068 0.55754 0.04535 0.0
C1163 C 0.65773 0.52814 0.98185 0.0
N1164 N 0.61016 0.5356 0.05946 0.0
N1165 N 0.7092 0.56685 0.96032 0.0
H1166 H 0.63262 0.48919 0.94997 0.0
H1167 H 0.67444 0.50957 0.93735 0.0
H1168 H 0.73141 0.58615 0.96251 0.0
H1169 H 0.70302 0.5604 0.93543 0.0
H1170 H 0.61214 0.54982 0.08091 0.0
H1171 H 0.5848 0.52217 0.05452 0.0
H1172 H 0.66476 0.55552 0.09859 0.0
H1173 H 0.7053 0.57818 0.08481 0.0
C1174 C 0.24066 0.6358 0.28271 0.0
C1175 C 0.25531 0.64448 0.25029 0.0
C1176 C 0.22326 0.5894 0.2303 0.0
C1177 C 0.21025 0.58017 0.26325 0.0
N1178 N 0.21611 0.58927 0.32284 0.0
N1179 N 0.26779 0.6258 0.19603 0.0
C1180 C 0.2219 0.60176 0.29012 0.0
C1181 C 0.24886 0.62007 0.22489 0.0
N1182 N 0.24307 0.66038 0.30589 0.0
N1183 N 0.21028 0.56968 0.20395 0.0
H1184 H 0.28739 0.64758 0.19161 0.0
H1185 H 0.26652 0.6074 0.17811 0.0
H1186 H 0.19195 0.54671 0.20703 0.0
H1187 H 0.21581 0.57739 0.17872 0.0
H1188 H 0.22971 0.65605 0.32854 0.0
H1189 H 0.25551 0.68607 0.30116 0.0
H1190 H 0.2265 0.60296 0.34367 0.0
H1191 H 0.2047 0.56352 0.32894 0.0
C1192 C 0.89986 0.5136 0.07899 0.0
C1193 C 0.93085 0.52348 0.06007 0.0
C1194 C 0.90336 0.56686 0.02604 0.0
C1195 C 0.87331 0.5586 0.04652 0.0
N1196 N 0.84659 0.52994 0.09743 0.0
N1197 N 0.96499 0.56407 0.0203 0.0
C1198 C 0.87263 0.53364 0.07446 0.0
C1199 C 0.93348 0.55155 0.03501 0.0
N1200 N 0.89577 0.48428 0.10038 0.0
N1201 N 0.90255 0.58792 0.99705 0.0
H1202 H 0.98759 0.55357 0.02631 0.0
H1203 H 0.96957 0.58674 0.00452 0.0
H1204 H 0.88093 0.59929 0.98927 0.0
H1205 H 0.92209 0.59171 0.97917 0.0
H1206 H 0.87217 0.47365 0.1119 0.0
H1207 H 0.91497 0.46875 0.10436 0.0
H1208 H 0.8467 0.51476 0.12013 0.0
H1209 H 0.82673 0.54481 0.09554 0.0
C1210 C 0.12236 0.0091 0.98073 0.0
C1211 C 0.09215 0.98713 0.99429 0.0
C1212 C 0.12215 0.93704 0.99459 0.0
C1213 C 0.15375 0.95997 0.98565 0.0
N1214 N 0.18523 0.01819 0.97308 0.0
N1215 N 0.05874 0.92883 0.99902 0.0
C1216 C 0.15413 0.99605 0.97906 0.0
C1217 C 0.09065 0.95058 0.99702 0.0
N1218 N 0.12006 0.04182 0.96757 0.0
N1219 N 0.12234 0.90234 0.00105 0.0
H1220 H 0.0349 0.93775 0.99697 0.0
H1221 H 0.05537 0.90197 0.99835 0.0
H1222 H 0.14402 0.89096 0.99698 0.0
H1223 H 0.10168 0.88499 0.01213 0.0
H1224 H 0.14017 0.05797 0.95446 0.0
H1225 H 0.09648 0.05122 0.96598 0.0
H1226 H 0.18787 0.04512 0.97221 0.0
H1227 H 0.20921 0.0098 0.97193 0.0
loop_
_geom_bond_atom_site_label_1
_geom_bond_atom_site_label_2
_geom_bond_distance
_geom_bond_site_symmetry_2
_ccdc_geom_bond_type
H0 C7 0.929 . S
H1 C10 0.930 . S
H2 C12 0.929 1_556 S
H3 C4 0.969 . S
C4 H3 0.969 . S
C4 O5 1.550 1_565 S
C4 H6 0.973 . S
O5 C4 1.550 1_545 S
O5 C11 1.412 . S
H6 C4 0.973 . S
C7 H0 0.929 . S
C7 C8 1.400 1_655 S
C7 C9 1.355 1_655 S
C8 C7 1.400 1_455 S
C8 C12 1.377 . S
C9 C7 1.355 1_455 S
C9 C10 1.397 . S
C10 H1 0.930 . S
C10 C9 1.397 . S
C10 C11 1.383 . S
C11 O5 1.412 . S
C11 C10 1.383 . S
C11 C12 1.394 . S
C12 H2 0.929 1_554 S
C12 C8 1.377 . S
C12 C11 1.394 . S
H13 C20 0.929 . S
H14 C23 0.930 . S
H15 C25 0.929 . S
H16 C17 0.969 . S
C17 H16 0.969 . S
C17 O18 1.550 . S
C17 H19 0.973 . S
O18 C17 1.550 . S
O18 C24 1.412 . S
H19 C17 0.973 . S
C20 H13 0.929 . S
C20 C21 1.400 . S
C20 C22 1.364 . S
C21 C20 1.400 . S
C21 C25 1.377 . S
C22 C20 1.364 . S
C22 C23 1.374 . S
C23 H14 0.930 . S
C23 C22 1.374 . S
C23 C24 1.383 . S
C24 O18 1.412 . S
C24 C23 1.383 . S
C24 C25 1.394 . S
C25 H15 0.929 . S
C25 C21 1.377 . S
C25 C24 1.394 . S
H26 C33 0.929 . S
H27 C36 0.930 . S
H28 C38 0.929 . S
H29 C30 0.969 1_556 S
C30 H29 0.969 1_554 S
C30 O31 1.550 . S
C30 H32 0.973 1_554 S
O31 C30 1.550 . S
O31 C37 1.412 . S
H32 C30 0.973 1_556 S
C33 H26 0.929 . S
C33 C34 1.423 . S
C33 C35 1.364 . S
C34 C33 1.423 . S
C34 C38 1.368 1_655 S
C35 C33 1.364 . S
C35 C36 1.374 . S
C36 H27 0.930 . S
C36 C35 1.374 . S
C36 C37 1.383 . S
C37 O31 1.412 . S
C37 C36 1.383 . S
C37 C38 1.394 1_655 S
C38 H28 0.929 . S
C38 C34 1.368 1_455 S
C38 C37 1.394 1_455 S
H39 C46 0.929 . S
H40 C49 0.930 . S
H41 C51 0.929 . S
H42 C43 0.969 . S
C43 H42 0.969 . S
C43 O44 1.550 . S
C43 H45 0.973 . S
O44 C43 1.550 . S
O44 C50 1.412 . S
H45 C43 0.973 . S
C46 H39 0.929 . S
C46 C47 1.400 . S
C46 C48 1.364 . S
C47 C46 1.400 . S
C47 C51 1.377 . S
C48 C46 1.364 . S
C48 C49 1.374 . S
C49 H40 0.930 . S
C49 C48 1.374 . S
C49 C50 1.383 . S
C50 O44 1.412 . S
C50 C49 1.383 . S
C50 C51 1.394 . S
C51 H41 0.929 . S
C51 C47 1.377 . S
C51 C50 1.394 . S
H52 C59 0.929 . S
H53 C62 0.930 . S
H54 C64 0.929 . S
H55 C56 0.969 . S
C56 H55 0.969 . S
C56 O57 1.550 1_655 S
C56 H58 0.973 . S
O57 C56 1.550 1_455 S
O57 C63 1.412 . S
H58 C56 0.973 . S
C59 H52 0.929 . S
C59 C60 1.400 1_565 S
C59 C61 1.364 . S
C60 C59 1.400 1_545 S
C60 C64 1.377 . S
C61 C59 1.364 . S
C61 C62 1.374 . S
C62 H53 0.930 . S
C62 C61 1.374 . S
C62 C63 1.383 . S
C63 O57 1.412 . S
C63 C62 1.383 . S
C63 C64 1.394 1_565 S
C64 H54 0.929 . S
C64 C60 1.377 . S
C64 C63 1.394 1_545 S
H65 C72 0.929 . S
H66 C75 0.930 . S
H67 C77 0.929 . S
H68 C69 0.969 . S
C69 H68 0.969 . S
C69 O70 1.550 . S
C69 H71 0.973 . S
O70 C69 1.550 . S
O70 C76 1.412 . S
H71 C69 0.973 . S
C72 H65 0.929 . S
C72 C73 1.400 . S
C72 C74 1.364 . S
C73 C72 1.400 . S
C73 C77 1.377 . S
C74 C72 1.364 . S
C74 C75 1.374 . S
C75 H66 0.930 . S
C75 C74 1.374 . S
C75 C76 1.383 . S
C76 O70 1.412 . S
C76 C75 1.383 . S
C76 C77 1.394 . S
C77 H67 0.929 . S
C77 C73 1.377 . S
C77 C76 1.394 . S
H78 C85 0.929 . S
H79 C88 0.930 . S
H80 C90 0.929 . S
H81 C82 0.969 . S
C82 H81 0.969 . S
C82 O83 1.550 . S
C82 H84 0.973 . S
O83 C82 1.550 . S
O83 C89 1.412 1_455 S
H84 C82 0.973 . S
C85 H78 0.929 . S
C85 C86 1.400 . S
C85 C87 1.364 . S
C86 C85 1.400 . S
C86 C90 1.377 1_655 S
C87 C85 1.364 . S
C87 C88 1.374 . S
C88 H79 0.930 . S
C88 C87 1.374 . S
C88 C89 1.383 . S
C89 O83 1.412 1_655 S
C89 C88 1.383 . S
C89 C90 1.394 1_655 S
C90 H80 0.929 . S
C90 C86 1.377 1_455 S
C90 C89 1.394 1_455 S
H91 C98 0.929 . S
H92 C101 0.930 . S
H93 C103 0.929 . S
H94 C95 0.969 . S
C95 H94 0.969 . S
C95 O96 1.550 . S
C95 H97 0.973 . S
O96 C95 1.550 . S
O96 C102 1.412 . S
H97 C95 0.973 . S
C98 H91 0.929 . S
C98 C99 1.400 . S
C98 C100 1.364 . S
C99 C98 1.400 . S
C99 C103 1.377 . S
C100 C98 1.364 . S
C100 C101 1.374 . S
C101 H92 0.930 . S
C101 C100 1.374 . S
C101 C102 1.383 . S
C102 O96 1.412 . S
C102 C101 1.383 . S
C102 C103 1.394 . S
C103 H93 0.929 . S
C103 C99 1.377 . S
C103 C102 1.394 . S
H104 C111 0.929 . S
H105 C114 0.930 . S
H106 C116 0.929 . S
H107 C108 0.969 . S
C108 H107 0.969 . S
C108 O109 1.550 . S
C108 H110 0.973 . S
O109 C108 1.550 . S
O109 C115 1.412 . S
H110 C108 0.973 . S
C111 H104 0.929 . S
C111 C112 1.400 . S
C111 C113 1.364 . S
C112 C111 1.400 . S
C112 C116 1.377 . S
C113 C111 1.364 . S
C113 C114 1.374 . S
C114 H105 0.930 . S
C114 C113 1.374 . S
C114 C115 1.383 . S
C115 O109 1.412 . S
C115 C114 1.383 . S
C115 C116 1.394 . S
C116 H106 0.929 . S
C116 C112 1.377 . S
C116 C115 1.394 . S
H117 C124 0.929 1_545 S
H118 C127 0.930 . S
H119 C129 0.929 . S
H120 C121 0.969 . S
C121 H120 0.969 . S
C121 O122 1.550 . S
C121 H123 0.973 . S
O122 C121 1.550 . S
O122 C128 1.412 . S
H123 C121 0.973 . S
C124 H117 0.929 1_565 S
C124 C125 1.400 . S
C124 C126 1.364 . S
C125 C124 1.400 . S
C125 C129 1.377 . S
C126 C124 1.364 . S
C126 C127 1.374 . S
C127 H118 0.930 . S
C127 C126 1.374 . S
C127 C128 1.383 . S
C128 O122 1.412 . S
C128 C127 1.383 . S
C128 C129 1.394 . S
C129 H119 0.929 . S
C129 C125 1.377 . S
C129 C128 1.394 . S
H130 C137 0.929 . S
H131 C140 0.930 . S
H132 C142 0.929 . S
H133 C134 0.969 . S
C134 H133 0.969 . S
C134 O135 1.550 . S
C134 H136 0.973 . S
O135 C134 1.550 . S
O135 C141 1.412 . S
H136 C134 0.973 . S
C137 H130 0.929 . S
C137 C138 1.400 . S
C137 C139 1.364 . S
C138 C137 1.400 . S
C138 C142 1.377 . S
C139 C137 1.364 . S
C139 C140 1.374 . S
C140 H131 0.930 . S
C140 C139 1.374 . S
C140 C141 1.383 . S
C141 O135 1.412 . S
C141 C140 1.383 . S
C141 C142 1.394 . S
C142 H132 0.929 . S
C142 C138 1.377 . S
C142 C141 1.394 . S
H143 C150 0.929 . S
H144 C153 0.930 . S
H145 C155 0.929 . S
H146 C147 0.969 . S
C147 H146 0.969 . S
C147 O148 1.550 . S
C147 H149 0.973 . S
O148 C147 1.550 . S
O148 C154 1.412 . S
H149 C147 0.973 . S
C150 H143 0.929 . S
C150 C151 1.400 . S
C150 C152 1.364 . S
C151 C150 1.400 . S
C151 C155 1.377 . S
C152 C150 1.364 . S
C152 C153 1.374 . S
C153 H144 0.930 . S
C153 C152 1.374 . S
C153 C154 1.383 . S
C154 O148 1.412 . S
C154 C153 1.383 . S
C154 C155 1.394 . S
C155 H145 0.929 . S
C155 C151 1.377 . S
C155 C154 1.394 . S
H156 C163 0.929 . S
H157 C166 0.930 . S
H158 C168 0.929 . S
H159 C160 0.969 . S
C160 H159 0.969 . S
C160 O161 1.550 . S
C160 H162 0.973 . S
O161 C160 1.550 . S
O161 C167 1.412 . S
H162 C160 0.973 . S
C163 H156 0.929 . S
C163 C164 1.400 . S
C163 C165 1.364 . S
C164 C163 1.400 . S
C164 C168 1.377 . S
C165 C163 1.364 . S
C165 C166 1.374 . S
C166 H157 0.930 . S
C166 C165 1.374 . S
C166 C167 1.383 . S
C167 O161 1.412 . S
C167 C166 1.383 . S
C167 C168 1.394 . S
C168 H158 0.929 . S
C168 C164 1.377 . S
C168 C167 1.394 . S
H169 C176 0.929 1_554 S
H170 C179 0.930 . S
H171 C181 0.929 . S
H172 C173 0.969 . S
C173 H172 0.969 . S
C173 O174 1.550 . S
C173 H175 0.973 . S
O174 C173 1.550 . S
O174 C180 1.412 . S
H175 C173 0.973 . S
C176 H169 0.929 1_556 S
C176 C177 1.400 . S
C176 C178 1.364 . S
C177 C176 1.400 . S
C177 C181 1.377 . S
C178 C176 1.364 . S
C178 C179 1.374 . S
C179 H170 0.930 . S
C179 C178 1.374 . S
C179 C180 1.383 . S
C180 O174 1.412 . S
C180 C179 1.383 . S
C180 C181 1.394 . S
C181 H171 0.929 . S
C181 C177 1.377 . S
C181 C180 1.394 . S
H182 C189 0.929 . S
H183 C192 0.930 . S
H184 C194 0.929 . S
H185 C186 0.969 . S
C186 H185 0.969 . S
C186 O187 1.550 . S
C186 H188 0.973 . S
O187 C186 1.550 . S
O187 C193 1.412 . S
H188 C186 0.973 . S
C189 H182 0.929 . S
C189 C190 1.400 . S
C189 C191 1.364 . S
C190 C189 1.400 . S
C190 C194 1.377 . S
C191 C189 1.364 . S
C191 C192 1.374 . S
C192 H183 0.930 . S
C192 C191 1.374 . S
C192 C193 1.383 . S
C193 O187 1.412 . S
C193 C192 1.383 . S
C193 C194 1.394 . S
C194 H184 0.929 . S
C194 C190 1.377 . S
C194 C193 1.394 . S
H195 C202 0.929 . S
H196 C205 0.930 . S
H197 C207 0.929 . S
H198 C199 0.969 . S
C199 H198 0.969 . S
C199 O200 1.550 . S
C199 H201 0.973 . S
O200 C199 1.550 . S
O200 C206 1.412 . S
H201 C199 0.973 . S
C202 H195 0.929 . S
C202 C203 1.400 . S
C202 C204 1.364 1_554 S
C203 C202 1.400 . S
C203 C207 1.377 1_554 S
C204 C202 1.364 1_556 S
C204 C205 1.374 . S
C205 H196 0.930 . S
C205 C204 1.374 . S
C205 C206 1.383 . S
C206 O200 1.412 . S
C206 C205 1.383 . S
C206 C207 1.394 . S
C207 H197 0.929 . S
C207 C203 1.377 1_556 S
C207 C206 1.394 . S
C208 O209 1.189 . S
C208 O215 1.166 1_556 S
O209 C208 1.189 . S
O210 Zn211 1.899 1_556 S
O210 C218 1.284 . S
Zn211 O210 1.899 1_554 S
Zn211 O212 2.032 1_554 S
Zn211 O215 2.086 . S
Zn211 O220 1.977 . S
O212 Zn211 2.032 1_556 S
O212 C216 1.281 . S
C213 O214 1.203 . S
C213 O220 1.267 . S
O214 C213 1.203 . S
O215 C208 1.166 1_554 S
O215 Zn211 2.086 . S
C216 O212 1.281 . S
C216 O217 1.203 1_556 S
O217 C216 1.203 1_554 S
C218 O210 1.284 . S
C218 O219 1.273 . S
O219 C218 1.273 . S
O220 Zn211 1.977 . S
O220 C213 1.267 . S
C221 O222 1.160 . S
C221 O228 1.185 . S
O222 C221 1.160 . S
O223 Zn224 1.899 . S
O223 C231 1.284 . S
Zn224 O223 1.899 . S
Zn224 O225 2.032 . S
Zn224 O228 2.086 . S
Zn224 O233 1.977 . S
O225 Zn224 2.032 . S
O225 C229 1.278 . S
C226 O227 1.203 . S
C226 O233 1.267 . S
O227 C226 1.203 . S
O228 C221 1.185 . S
O228 Zn224 2.086 . S
C229 O225 1.278 . S
C229 O230 1.211 . S
O230 C229 1.211 . S
C231 O223 1.284 . S
C231 O232 1.273 . S
O232 C231 1.273 . S
O233 Zn224 1.977 . S
O233 C226 1.267 . S
C234 O235 1.160 . S
C234 O241 1.185 . S
O235 C234 1.160 . S
O236 Zn237 1.899 . S
O236 C244 1.284 1_554 S
Zn237 O236 1.899 . S
Zn237 O238 2.032 . S
Zn237 O241 2.086 . S
Zn237 O246 1.977 . S
O238 Zn237 2.032 . S
O238 C242 1.278 . S
C239 O240 1.203 . S
C239 O246 1.267 . S
O240 C239 1.203 . S
O241 C234 1.185 . S
O241 Zn237 2.086 . S
C242 O238 1.278 . S
C242 O243 1.211 . S
O243 C242 1.211 . S
C244 O236 1.284 1_556 S
C244 O245 1.273 . S
O245 C244 1.273 . S
O246 Zn237 1.977 . S
O246 C239 1.267 . S
C247 O248 1.160 . S
C247 O254 1.185 . S
O248 C247 1.160 . S
O249 Zn250 1.899 . S
O249 C257 1.284 . S
Zn250 O249 1.899 . S
Zn250 O251 2.032 . S
Zn250 O254 2.086 . S
Zn250 O259 1.977 . S
O251 Zn250 2.032 . S
O251 C255 1.278 1_545 S
C252 O253 1.203 . S
C252 O259 1.267 . S
O253 C252 1.203 . S
O254 C247 1.185 . S
O254 Zn250 2.086 . S
C255 O251 1.278 1_565 S
C255 O256 1.211 . S
O256 C255 1.211 . S
C257 O249 1.284 . S
C257 O258 1.273 1_545 S
O258 C257 1.273 1_565 S
O259 Zn250 1.977 . S
O259 C252 1.267 . S
C260 O261 1.160 . S
C260 O267 1.185 . S
O261 C260 1.160 . S
O262 Zn263 1.899 . S
O262 C270 1.284 . S
Zn263 O262 1.899 . S
Zn263 O264 2.032 . S
Zn263 O267 2.086 . S
Zn263 O272 1.977 . S
O264 Zn263 2.032 . S
O264 C268 1.278 . S
C265 O266 1.203 . S
C265 O272 1.267 . S
O266 C265 1.203 . S
O267 C260 1.185 . S
O267 Zn263 2.086 . S
C268 O264 1.278 . S
C268 O269 1.211 . S
O269 C268 1.211 . S
C270 O262 1.284 . S
C270 O271 1.273 . S
O271 C270 1.273 . S
O272 Zn263 1.977 . S
O272 C265 1.267 . S
C273 O274 1.160 . S
C273 O280 1.185 . S
O274 C273 1.160 . S
O275 Zn276 1.899 . S
O275 C283 1.284 . S
Zn276 O275 1.899 . S
Zn276 O277 2.032 . S
Zn276 O280 2.086 . S
Zn276 O285 1.977 . S
O277 Zn276 2.032 . S
O277 C281 1.278 . S
C278 O279 1.203 . S
C278 O285 1.267 . S
O279 C278 1.203 . S
O280 C273 1.185 . S
O280 Zn276 2.086 . S
C281 O277 1.278 . S
C281 O282 1.211 . S
O282 C281 1.211 . S
C283 O275 1.284 . S
C283 O284 1.273 . S
O284 C283 1.273 . S
O285 Zn276 1.977 . S
O285 C278 1.267 . S
C286 O287 1.160 . S
C286 O293 1.185 . S
O287 C286 1.160 . S
O288 Zn289 1.899 . S
O288 C296 1.284 . S
Zn289 O288 1.899 . S
Zn289 O290 2.032 . S
Zn289 O293 2.086 . S
Zn289 O298 1.977 . S
O290 Zn289 2.032 . S
O290 C294 1.278 . S
C291 O292 1.203 . S
C291 O298 1.267 . S
O292 C291 1.203 . S
O293 C286 1.185 . S
O293 Zn289 2.086 . S
C294 O290 1.278 . S
C294 O295 1.211 . S
O295 C294 1.211 . S
C296 O288 1.284 . S
C296 O297 1.273 . S
O297 C296 1.273 . S
O298 Zn289 1.977 . S
O298 C291 1.267 . S
C299 O300 1.160 . S
C299 O306 1.185 . S
O300 C299 1.160 . S
O301 Zn302 1.899 . S
O301 C309 1.284 1_565 S
Zn302 O301 1.899 . S
Zn302 O303 2.032 1_565 S
Zn302 O306 2.086 . S
Zn302 O311 1.977 . S
O303 Zn302 2.032 1_545 S
O303 C307 1.278 . S
C304 O305 1.203 1_565 S
C304 O311 1.267 . S
O305 C304 1.203 1_545 S
O306 C299 1.185 . S
O306 Zn302 2.086 . S
C307 O303 1.278 . S
C307 O308 1.211 . S
O308 C307 1.211 . S
C309 O301 1.284 1_545 S
C309 O310 1.273 . S
O310 C309 1.273 . S
O311 Zn302 1.977 . S
O311 C304 1.267 . S
C312 O313 1.160 . S
C312 O319 1.185 1_655 S
O313 C312 1.160 . S
O314 Zn315 1.899 1_655 S
O314 C322 1.284 . S
Zn315 O314 1.899 1_455 S
Zn315 O316 2.032 1_455 S
Zn315 O319 2.086 . S
Zn315 O324 1.977 . S
O316 Zn315 2.032 1_655 S
O316 C320 1.278 1_655 S
C317 O318 1.203 . S
C317 O324 1.267 . S
O318 C317 1.203 . S
O319 C312 1.185 1_455 S
O319 Zn315 2.086 . S
C320 O316 1.278 1_455 S
C320 O321 1.211 . S
O321 C320 1.211 . S
C322 O314 1.284 . S
C322 O323 1.273 . S
O323 C322 1.273 . S
O324 Zn315 1.977 . S
O324 C317 1.267 . S
C325 O326 1.160 . S
C325 O332 1.185 . S
O326 C325 1.160 . S
O327 Zn328 1.899 . S
O327 C335 1.284 . S
Zn328 O327 1.899 . S
Zn328 O329 2.032 . S
Zn328 O332 2.086 . S
Zn328 O337 1.977 . S
O329 Zn328 2.032 . S
O329 C333 1.278 . S
C330 O331 1.203 . S
C330 O337 1.267 . S
O331 C330 1.203 . S
O332 C325 1.185 . S
O332 Zn328 2.086 . S
C333 O329 1.278 . S
C333 O334 1.211 . S
O334 C333 1.211 . S
C335 O327 1.284 . S
C335 O336 1.273 . S
O336 C335 1.273 . S
O337 Zn328 1.977 . S
O337 C330 1.267 . S
C338 O339 1.160 1_455 S
C338 O345 1.185 . S
O339 C338 1.160 1_655 S
O340 Zn341 1.899 1_655 S
O340 C348 1.284 . S
Zn341 O340 1.899 1_455 S
Zn341 O342 2.032 . S
Zn341 O345 2.086 . S
Zn341 O350 1.977 . S
O342 Zn341 2.032 . S
O342 C346 1.278 . S
C343 O344 1.203 . S
C343 O350 1.267 . S
O344 C343 1.203 . S
O345 C338 1.185 . S
O345 Zn341 2.086 . S
C346 O342 1.278 . S
C346 O347 1.211 . S
O347 C346 1.211 . S
C348 O340 1.284 . S
C348 O349 1.273 . S
O349 C348 1.273 . S
O350 Zn341 1.977 . S
O350 C343 1.267 . S
C351 O352 1.160 . S
C351 O358 1.185 . S
O352 C351 1.160 . S
O353 Zn354 1.899 . S
O353 C361 1.284 . S
Zn354 O353 1.899 . S
Zn354 O355 2.032 . S
Zn354 O358 2.086 . S
Zn354 O363 1.977 . S
O355 Zn354 2.032 . S
O355 C359 1.278 . S
C356 O357 1.203 . S
C356 O363 1.267 . S
O357 C356 1.203 . S
O358 C351 1.185 . S
O358 Zn354 2.086 . S
C359 O355 1.278 . S
C359 O360 1.211 . S
O360 C359 1.211 . S
C361 O353 1.284 . S
C361 O362 1.273 . S
O362 C361 1.273 . S
O363 Zn354 1.977 . S
O363 C356 1.267 . S
C364 C365 1.363 . S
C364 C370 1.379 . S
C364 N372 1.356 . S
C365 C364 1.363 . S
C365 C371 1.363 . S
C366 C367 1.363 . S
C366 C371 1.379 . S
C366 N373 1.356 . S
C367 C366 1.363 . S
C367 C370 1.363 . S
N368 C370 1.356 . S
N368 H380 0.984 . S
N368 H381 0.985 . S
N369 C371 1.356 . S
N369 H374 0.984 . S
N369 H375 0.985 . S
C370 C364 1.379 . S
C370 C367 1.363 . S
C370 N368 1.356 . S
C371 C365 1.363 . S
C371 C366 1.379 . S
C371 N369 1.356 . S
N372 C364 1.356 . S
N372 H378 0.984 . S
N372 H379 0.984 . S
N373 C366 1.356 . S
N373 H376 0.984 . S
N373 H377 0.985 . S
H374 N369 0.984 . S
H375 N369 0.985 . S
H376 N373 0.984 . S
H377 N373 0.985 . S
H378 N372 0.984 . S
H379 N372 0.984 . S
H380 N368 0.984 . S
H381 N368 0.985 . S
C382 C383 1.363 . S
C382 C388 1.379 . S
C382 N390 1.356 . S
C383 C382 1.363 . S
C383 C389 1.363 . S
C384 C385 1.363 . S
C384 C389 1.379 . S
C384 N391 1.356 . S
C385 C384 1.363 . S
C385 C388 1.363 . S
N386 C388 1.356 . S
N386 H398 0.984 . S
N386 H399 0.985 . S
N387 C389 1.356 . S
N387 H392 0.984 . S
N387 H393 0.985 . S
C388 C382 1.379 . S
C388 C385 1.363 . S
C388 N386 1.356 . S
C389 C383 1.363 . S
C389 C384 1.379 . S
C389 N387 1.356 . S
N390 C382 1.356 . S
N390 H396 0.984 . S
N390 H397 0.984 . S
N391 C384 1.356 . S
N391 H394 0.984 . S
N391 H395 0.985 . S
H392 N387 0.984 . S
H393 N387 0.985 . S
H394 N391 0.984 . S
H395 N391 0.985 . S
H396 N390 0.984 . S
H397 N390 0.984 . S
H398 N386 0.984 . S
H399 N386 0.985 . S
C400 C401 1.363 . S
C400 C406 1.379 . S
C400 N408 1.356 . S
C401 C400 1.363 . S
C401 C407 1.363 . S
C402 C403 1.363 . S
C402 C407 1.379 . S
C402 N409 1.356 . S
C403 C402 1.363 . S
C403 C406 1.363 . S
N404 C406 1.356 . S
N404 H416 0.984 . S
N404 H417 0.985 . S
N405 C407 1.356 . S
N405 H410 0.984 . S
N405 H411 0.985 . S
C406 C400 1.379 . S
C406 C403 1.363 . S
C406 N404 1.356 . S
C407 C401 1.363 . S
C407 C402 1.379 . S
C407 N405 1.356 . S
N408 C400 1.356 . S
N408 H414 0.984 . S
N408 H415 0.984 . S
N409 C402 1.356 . S
N409 H412 0.984 . S
N409 H413 0.985 . S
H410 N405 0.984 . S
H411 N405 0.985 . S
H412 N409 0.984 . S
H413 N409 0.985 . S
H414 N408 0.984 . S
H415 N408 0.984 . S
H416 N404 0.984 . S
H417 N404 0.985 . S
C418 C419 1.363 1_545 S
C418 C424 1.379 . S
C418 N426 1.356 . S
C419 C418 1.363 1_565 S
C419 C425 1.363 . S
C420 C421 1.363 1_565 S
C420 C425 1.379 . S
C420 N427 1.356 . S
C421 C420 1.363 1_545 S
C421 C424 1.363 . S
N422 C424 1.356 . S
N422 H434 0.984 . S
N422 H435 0.985 . S
N423 C425 1.356 . S
N423 H428 0.984 1_655 S
N423 H429 0.985 . S
C424 C418 1.379 . S
C424 C421 1.363 . S
C424 N422 1.356 . S
C425 C419 1.363 . S
C425 C420 1.379 . S
C425 N423 1.356 . S
N426 C418 1.356 . S
N426 H432 0.984 . S
N426 H433 1.003 . S
N427 C420 1.356 . S
N427 H430 0.984 . S
N427 H431 0.985 . S
H428 N423 0.984 1_455 S
H429 N423 0.985 . S
H430 N427 0.984 . S
H431 N427 0.985 . S
H432 N426 0.984 . S
H433 N426 1.003 . S
H434 N422 0.984 . S
H435 N422 0.985 . S
C436 C437 1.363 . S
C436 C442 1.379 . S
C436 N444 1.356 . S
C437 C436 1.363 . S
C437 C443 1.363 . S
C438 C439 1.363 . S
C438 C443 1.379 . S
C438 N445 1.356 . S
C439 C438 1.363 . S
C439 C442 1.363 . S
N440 C442 1.356 . S
N440 H452 0.984 . S
N440 H453 0.985 . S
N441 C443 1.356 . S
N441 H446 0.984 . S
N441 H447 0.985 . S
C442 C436 1.379 . S
C442 C439 1.363 . S
C442 N440 1.356 . S
C443 C437 1.363 . S
C443 C438 1.379 . S
C443 N441 1.356 . S
N444 C436 1.356 . S
N444 H450 0.984 . S
N444 H451 0.984 . S
N445 C438 1.356 . S
N445 H448 0.984 . S
N445 H449 0.985 . S
H446 N441 0.984 . S
H447 N441 0.985 . S
H448 N445 0.984 . S
H449 N445 0.985 . S
H450 N444 0.984 . S
H451 N444 0.984 . S
H452 N440 0.984 . S
H453 N440 0.985 . S
C454 C455 1.363 . S
C454 C460 1.379 . S
C454 N462 1.356 . S
C455 C454 1.363 . S
C455 C461 1.363 . S
C456 C457 1.363 . S
C456 C461 1.379 . S
C456 N463 1.356 . S
C457 C456 1.363 . S
C457 C460 1.363 . S
N458 C460 1.356 . S
N458 H470 0.984 . S
N458 H471 0.985 . S
N459 C461 1.356 . S
N459 H464 0.984 . S
N459 H465 0.985 . S
C460 C454 1.379 . S
C460 C457 1.363 . S
C460 N458 1.356 . S
C461 C455 1.363 . S
C461 C456 1.379 . S
C461 N459 1.356 . S
N462 C454 1.356 . S
N462 H468 0.984 . S
N462 H469 0.984 . S
N463 C456 1.356 . S
N463 H466 0.984 . S
N463 H467 0.985 . S
H464 N459 0.984 . S
H465 N459 0.985 . S
H466 N463 0.984 . S
H467 N463 0.985 . S
H468 N462 0.984 . S
H469 N462 0.984 . S
H470 N458 0.984 . S
H471 N458 0.985 . S
C472 C473 1.363 . S
C472 C478 1.379 . S
C472 N480 1.356 . S
C473 C472 1.363 . S
C473 C479 1.363 . S
C474 C475 1.363 . S
C474 C479 1.379 . S
C474 N481 1.356 . S
C475 C474 1.363 . S
C475 C478 1.363 . S
N476 C478 1.356 . S
N476 H488 0.984 . S
N476 H489 0.985 . S
N477 C479 1.356 . S
N477 H482 0.984 . S
N477 H483 0.985 . S
C478 C472 1.379 . S
C478 C475 1.363 . S
C478 N476 1.356 . S
C479 C473 1.363 . S
C479 C474 1.379 . S
C479 N477 1.356 . S
N480 C472 1.356 . S
N480 H486 0.984 . S
N480 H487 0.984 . S
N481 C474 1.356 . S
N481 H484 0.984 . S
N481 H485 0.985 . S
H482 N477 0.984 . S
H483 N477 0.985 . S
H484 N481 0.984 . S
H485 N481 0.985 . S
H486 N480 0.984 . S
H487 N480 0.984 . S
H488 N476 0.984 . S
H489 N476 0.985 . S
C490 C491 1.363 . S
C490 C496 1.379 . S
C490 N498 1.356 . S
C491 C490 1.363 . S
C491 C497 1.363 1_565 S
C492 C493 1.363 1_545 S
C492 C497 1.379 . S
C492 N499 1.356 . S
C493 C492 1.363 1_565 S
C493 C496 1.363 . S
N494 C496 1.356 . S
N494 H506 0.984 . S
N494 H507 0.985 . S
N495 C497 1.356 . S
N495 H500 0.984 . S
N495 H501 0.985 . S
C496 C490 1.379 . S
C496 C493 1.363 . S
C496 N494 1.356 . S
C497 C491 1.363 1_545 S
C497 C492 1.379 . S
C497 N495 1.356 . S
N498 C490 1.356 . S
N498 H504 0.984 . S
N498 H505 0.984 . S
N499 C492 1.356 . S
N499 H502 0.984 . S
N499 H503 0.985 . S
H500 N495 0.984 . S
H501 N495 0.985 . S
H502 N499 0.984 . S
H503 N499 0.985 . S
H504 N498 0.984 . S
H505 N498 0.984 . S
H506 N494 0.984 . S
H507 N494 0.985 . S
C508 C509 1.363 . S
C508 C514 1.379 . S
C508 N516 1.356 . S
C509 C508 1.363 . S
C509 C515 1.363 . S
C510 C511 1.363 . S
C510 C515 1.379 . S
C510 N517 1.356 . S
C511 C510 1.363 . S
C511 C514 1.363 . S
N512 C514 1.356 . S
N512 H524 0.984 . S
N512 H525 0.985 . S
N513 C515 1.356 . S
N513 H518 0.984 . S
N513 H519 0.985 . S
C514 C508 1.379 . S
C514 C511 1.363 . S
C514 N512 1.356 . S
C515 C509 1.363 . S
C515 C510 1.379 . S
C515 N513 1.356 . S
N516 C508 1.356 . S
N516 H522 0.984 . S
N516 H523 0.984 . S
N517 C510 1.356 . S
N517 H520 0.984 . S
N517 H521 0.985 . S
H518 N513 0.984 . S
H519 N513 0.985 . S
H520 N517 0.984 . S
H521 N517 0.985 . S
H522 N516 0.984 . S
H523 N516 0.984 . S
H524 N512 0.984 . S
H525 N512 0.985 . S
C526 C527 1.363 . S
C526 C532 1.379 . S
C526 N534 1.356 . S
C527 C526 1.363 . S
C527 C533 1.363 . S
C528 C529 1.363 . S
C528 C533 1.379 . S
C528 N535 1.356 . S
C529 C528 1.363 . S
C529 C532 1.363 . S
N530 C532 1.356 . S
N530 H542 0.984 . S
N530 H543 0.985 . S
N531 C533 1.356 . S
N531 H536 0.984 . S
N531 H537 0.985 . S
C532 C526 1.379 . S
C532 C529 1.363 . S
C532 N530 1.356 . S
C533 C527 1.363 . S
C533 C528 1.379 . S
C533 N531 1.356 . S
N534 C526 1.356 . S
N534 H540 0.984 . S
N534 H541 0.984 . S
N535 C528 1.356 . S
N535 H538 0.984 . S
N535 H539 0.985 . S
H536 N531 0.984 . S
H537 N531 0.985 . S
H538 N535 0.984 . S
H539 N535 0.985 . S
H540 N534 0.984 . S
H541 N534 0.984 . S
H542 N530 0.984 . S
H543 N530 0.985 . S
C544 C545 1.363 . S
C544 C550 1.379 . S
C544 N552 1.356 . S
C545 C544 1.363 . S
C545 C551 1.363 . S
C546 C547 1.363 . S
C546 C551 1.379 . S
C546 N553 1.356 . S
C547 C546 1.363 . S
C547 C550 1.363 . S
N548 C550 1.356 . S
N548 H560 0.984 . S
N548 H561 0.985 . S
N549 C551 1.356 . S
N549 H554 0.984 . S
N549 H555 0.985 . S
C550 C544 1.379 . S
C550 C547 1.363 . S
C550 N548 1.356 . S
C551 C545 1.363 . S
C551 C546 1.379 . S
C551 N549 1.356 . S
N552 C544 1.356 . S
N552 H558 0.984 . S
N552 H559 0.984 . S
N553 C546 1.356 . S
N553 H556 0.984 . S
N553 H557 0.985 . S
H554 N549 0.984 . S
H555 N549 0.985 . S
H556 N553 0.984 . S
H557 N553 0.985 . S
H558 N552 0.984 . S
H559 N552 0.984 . S
H560 N548 0.984 . S
H561 N548 0.985 . S
C562 C563 1.363 . S
C562 C568 1.379 . S
C562 N570 1.356 . S
C563 C562 1.363 . S
C563 C569 1.363 . S
C564 C565 1.363 . S
C564 C569 1.379 . S
C564 N571 1.356 . S
C565 C564 1.363 . S
C565 C568 1.363 . S
N566 C568 1.356 . S
N566 H578 0.984 . S
N566 H579 0.985 . S
N567 C569 1.356 . S
N567 H572 0.984 . S
N567 H573 0.985 . S
C568 C562 1.379 . S
C568 C565 1.363 . S
C568 N566 1.356 . S
C569 C563 1.363 . S
C569 C564 1.379 . S
C569 N567 1.356 . S
N570 C562 1.356 . S
N570 H576 0.984 . S
N570 H577 0.984 . S
N571 C564 1.356 . S
N571 H574 0.984 . S
N571 H575 0.985 . S
H572 N567 0.984 . S
H573 N567 0.985 . S
H574 N571 0.984 . S
H575 N571 0.985 . S
H576 N570 0.984 . S
H577 N570 0.984 . S
H578 N566 0.984 . S
H579 N566 0.985 . S
C580 C581 1.363 . S
C580 C586 1.379 . S
C580 N588 1.356 . S
C581 C580 1.363 . S
C581 C587 1.363 . S
C582 C583 1.363 . S
C582 C587 1.379 . S
C582 N589 1.356 . S
C583 C582 1.363 . S
C583 C586 1.363 . S
N584 C586 1.356 . S
N584 H596 0.984 . S
N584 H597 0.985 . S
N585 C587 1.356 . S
N585 H590 0.984 . S
N585 H591 0.985 . S
C586 C580 1.379 . S
C586 C583 1.363 . S
C586 N584 1.356 . S
C587 C581 1.363 . S
C587 C582 1.379 . S
C587 N585 1.356 . S
N588 C580 1.356 . S
N588 H594 0.984 . S
N588 H595 0.984 . S
N589 C582 1.356 . S
N589 H592 0.984 . S
N589 H593 0.985 . S
H590 N585 0.984 . S
H591 N585 0.985 . S
H592 N589 0.984 . S
H593 N589 0.985 . S
H594 N588 0.984 . S
H595 N588 0.984 . S
H596 N584 0.984 . S
H597 N584 0.985 . S
C598 C599 1.363 . S
C598 C604 1.379 . S
C598 N606 1.356 . S
C599 C598 1.363 . S
C599 C605 1.363 . S
C600 C601 1.363 . S
C600 C605 1.379 . S
C600 N607 1.356 . S
C601 C600 1.363 . S
C601 C604 1.363 . S
N602 C604 1.356 1_655 S
N602 H614 0.984 . S
N602 H615 0.985 . S
N603 C605 1.356 . S
N603 H608 0.984 . S
N603 H609 0.985 . S
C604 C598 1.379 . S
C604 C601 1.363 . S
C604 N602 1.356 1_455 S
C605 C599 1.363 . S
C605 C600 1.379 . S
C605 N603 1.356 . S
N606 C598 1.356 . S
N606 H612 0.984 1_455 S
N606 H613 0.984 . S
N607 C600 1.356 . S
N607 H610 0.984 . S
N607 H611 0.985 . S
H608 N603 0.984 . S
H609 N603 0.985 . S
H610 N607 0.984 . S
H611 N607 0.985 . S
H612 N606 0.984 1_655 S
H613 N606 0.984 . S
H614 N602 0.984 . S
H615 N602 0.985 . S
C616 C617 1.363 . S
C616 C622 1.379 . S
C616 N624 1.356 . S
C617 C616 1.363 . S
C617 C623 1.363 . S
C618 C619 1.363 . S
C618 C623 1.379 . S
C618 N625 1.356 . S
C619 C618 1.363 . S
C619 C622 1.363 . S
N620 C622 1.356 . S
N620 H632 0.984 . S
N620 H633 0.985 . S
N621 C623 1.356 . S
N621 H626 0.984 . S
N621 H627 0.985 . S
C622 C616 1.379 . S
C622 C619 1.363 . S
C622 N620 1.356 . S
C623 C617 1.363 . S
C623 C618 1.379 . S
C623 N621 1.356 . S
N624 C616 1.356 . S
N624 H630 0.984 . S
N624 H631 0.984 . S
N625 C618 1.356 . S
N625 H628 0.984 . S
N625 H629 0.985 . S
H626 N621 0.984 . S
H627 N621 0.985 . S
H628 N625 0.984 . S
H629 N625 0.985 . S
H630 N624 0.984 . S
H631 N624 0.984 . S
H632 N620 0.984 . S
H633 N620 0.985 . S
C634 C635 1.363 1_455 S
C634 C640 1.379 . S
C634 N642 1.356 . S
C635 C634 1.363 1_655 S
C635 C641 1.363 . S
C636 C637 1.363 . S
C636 C641 1.379 . S
C636 N643 1.356 . S
C637 C636 1.363 . S
C637 C640 1.363 1_655 S
N638 C640 1.356 . S
N638 H650 0.984 . S
N638 H651 0.985 . S
N639 C641 1.356 . S
N639 H644 0.984 . S
N639 H645 0.985 . S
C640 C634 1.379 . S
C640 C637 1.363 1_455 S
C640 N638 1.356 . S
C641 C635 1.363 . S
C641 C636 1.379 . S
C641 N639 1.356 . S
N642 C634 1.356 . S
N642 H648 0.984 . S
N642 H649 0.984 . S
N643 C636 1.356 . S
N643 H646 0.984 . S
N643 H647 0.985 . S
H644 N639 0.984 . S
H645 N639 0.985 . S
H646 N643 0.984 . S
H647 N643 0.985 . S
H648 N642 0.984 . S
H649 N642 0.984 . S
H650 N638 0.984 . S
H651 N638 0.985 . S
C652 C653 1.363 . S
C652 C658 1.379 . S
C652 N660 1.356 . S
C653 C652 1.363 . S
C653 C659 1.363 . S
C654 C655 1.363 . S
C654 C659 1.379 . S
C654 N661 1.356 . S
C655 C654 1.363 . S
C655 C658 1.363 . S
N656 C658 1.356 . S
N656 H668 0.984 . S
N656 H669 0.985 . S
N657 C659 1.356 . S
N657 H662 0.984 . S
N657 H663 0.985 . S
C658 C652 1.379 . S
C658 C655 1.363 . S
C658 N656 1.356 . S
C659 C653 1.363 . S
C659 C654 1.379 . S
C659 N657 1.356 . S
N660 C652 1.356 . S
N660 H666 0.984 . S
N660 H667 0.984 . S
N661 C654 1.356 . S
N661 H664 0.984 . S
N661 H665 0.985 . S
H662 N657 0.984 . S
H663 N657 0.985 . S
H664 N661 0.984 . S
H665 N661 0.985 . S
H666 N660 0.984 . S
H667 N660 0.984 . S
H668 N656 0.984 . S
H669 N656 0.985 . S
C670 C671 1.363 . S
C670 C676 1.379 . S
C670 N678 1.356 . S
C671 C670 1.363 . S
C671 C677 1.363 . S
C672 C673 1.363 . S
C672 C677 1.379 . S
C672 N679 1.356 . S
C673 C672 1.363 . S
C673 C676 1.363 . S
N674 C676 1.356 . S
N674 H686 0.984 . S
N674 H687 0.985 . S
N675 C677 1.356 . S
N675 H680 0.984 . S
N675 H681 0.985 . S
C676 C670 1.379 . S
C676 C673 1.363 . S
C676 N674 1.356 . S
C677 C671 1.363 . S
C677 C672 1.379 . S
C677 N675 1.356 . S
N678 C670 1.356 . S
N678 H684 0.984 . S
N678 H685 0.984 . S
N679 C672 1.356 . S
N679 H682 0.984 . S
N679 H683 0.985 . S
H680 N675 0.984 . S
H681 N675 0.985 . S
H682 N679 0.984 . S
H683 N679 0.985 . S
H684 N678 0.984 . S
H685 N678 0.984 . S
H686 N674 0.984 . S
H687 N674 0.985 . S
C688 C689 1.363 1_564 S
C688 C694 1.379 . S
C688 N696 1.356 . S
C689 C688 1.363 1_546 S
C689 C695 1.363 . S
C690 C691 1.363 1_545 S
C690 C695 1.379 . S
C690 N697 1.355 . S
C691 C690 1.363 1_565 S
C691 C694 1.363 1_556 S
N692 C694 1.356 . S
N692 H704 0.984 . S
N692 H705 0.985 . S
N693 C695 1.356 . S
N693 H698 0.984 . S
N693 H699 0.985 . S
C694 C688 1.379 . S
C694 C691 1.363 1_554 S
C694 N692 1.356 . S
C695 C689 1.363 . S
C695 C690 1.379 . S
C695 N693 1.356 . S
N696 C688 1.356 . S
N696 H702 0.984 . S
N696 H703 0.984 1_565 S
N697 C690 1.355 . S
N697 H700 0.978 1_545 S
N697 H701 0.992 . S
H698 N693 0.984 . S
H699 N693 0.985 . S
H700 N697 0.978 1_565 S
H701 N697 0.992 . S
H702 N696 0.984 . S
H703 N696 0.984 1_545 S
H704 N692 0.984 . S
H705 N692 0.985 . S
C706 C707 1.363 . S
C706 C712 1.379 . S
C706 N714 1.356 . S
C707 C706 1.363 . S
C707 C713 1.363 . S
C708 C709 1.363 . S
C708 C713 1.379 . S
C708 N715 1.356 . S
C709 C708 1.363 . S
C709 C712 1.363 . S
N710 C712 1.356 . S
N710 H722 0.984 . S
N710 H723 0.985 . S
N711 C713 1.356 . S
N711 H716 0.984 . S
N711 H717 0.985 . S
C712 C706 1.379 . S
C712 C709 1.363 . S
C712 N710 1.356 . S
C713 C707 1.363 . S
C713 C708 1.379 . S
C713 N711 1.356 . S
N714 C706 1.356 . S
N714 H720 0.984 . S
N714 H721 0.984 . S
N715 C708 1.356 . S
N715 H718 0.984 . S
N715 H719 0.985 . S
H716 N711 0.984 . S
H717 N711 0.985 . S
H718 N715 0.984 . S
H719 N715 0.985 . S
H720 N714 0.984 . S
H721 N714 0.984 . S
H722 N710 0.984 . S
H723 N710 0.985 . S
C724 C725 1.363 . S
C724 C730 1.379 . S
C724 N732 1.356 . S
C725 C724 1.363 . S
C725 C731 1.363 . S
C726 C727 1.363 . S
C726 C731 1.379 . S
C726 N733 1.356 . S
C727 C726 1.363 . S
C727 C730 1.363 . S
N728 C730 1.356 . S
N728 H740 0.984 . S
N728 H741 0.985 . S
N729 C731 1.356 . S
N729 H734 0.984 . S
N729 H735 0.985 . S
C730 C724 1.379 . S
C730 C727 1.363 . S
C730 N728 1.356 . S
C731 C725 1.363 . S
C731 C726 1.379 . S
C731 N729 1.356 . S
N732 C724 1.356 . S
N732 H738 0.984 . S
N732 H739 0.973 1_545 S
N733 C726 1.356 . S
N733 H736 0.984 . S
N733 H737 0.985 . S
H734 N729 0.984 . S
H735 N729 0.985 . S
H736 N733 0.984 . S
H737 N733 0.985 . S
H738 N732 0.984 . S
H739 N732 0.973 1_565 S
H740 N728 0.984 . S
H741 N728 0.985 . S
C742 C743 1.363 . S
C742 C748 1.379 . S
C742 N750 1.356 . S
C743 C742 1.363 . S
C743 C749 1.363 . S
C744 C745 1.363 . S
C744 C749 1.379 . S
C744 N751 1.356 . S
C745 C744 1.363 . S
C745 C748 1.363 . S
N746 C748 1.356 . S
N746 H758 0.984 . S
N746 H759 0.985 . S
N747 C749 1.356 . S
N747 H752 0.984 . S
N747 H753 0.985 . S
C748 C742 1.379 . S
C748 C745 1.363 . S
C748 N746 1.356 . S
C749 C743 1.363 . S
C749 C744 1.379 . S
C749 N747 1.356 . S
N750 C742 1.356 . S
N750 H756 0.984 . S
N750 H757 0.984 . S
N751 C744 1.356 . S
N751 H754 0.984 . S
N751 H755 0.985 . S
H752 N747 0.984 . S
H753 N747 0.985 . S
H754 N751 0.984 . S
H755 N751 0.985 . S
H756 N750 0.984 . S
H757 N750 0.984 . S
H758 N746 0.984 . S
H759 N746 0.985 . S
C760 C761 1.363 . S
C760 C766 1.379 . S
C760 N768 1.356 . S
C761 C760 1.363 . S
C761 C767 1.363 . S
C762 C763 1.363 . S
C762 C767 1.379 . S
C762 N769 1.356 . S
C763 C762 1.363 . S
C763 C766 1.363 . S
N764 C766 1.356 . S
N764 H776 0.984 . S
N764 H777 0.985 . S
N765 C767 1.356 . S
N765 H770 0.984 1_545 S
N765 H771 0.985 . S
C766 C760 1.379 . S
C766 C763 1.363 . S
C766 N764 1.356 . S
C767 C761 1.363 . S
C767 C762 1.379 . S
C767 N765 1.356 . S
N768 C760 1.356 . S
N768 H774 0.984 . S
N768 H775 0.984 . S
N769 C762 1.356 . S
N769 H772 0.984 . S
N769 H773 0.985 . S
H770 N765 0.984 1_565 S
H771 N765 0.985 . S
H772 N769 0.984 . S
H773 N769 0.985 . S
H774 N768 0.984 . S
H775 N768 0.984 . S
H776 N764 0.984 . S
H777 N764 0.985 . S
C778 C779 1.363 . S
C778 C784 1.379 . S
C778 N786 1.356 . S
C779 C778 1.363 . S
C779 C785 1.363 . S
C780 C781 1.363 . S
C780 C785 1.379 . S
C780 N787 1.356 . S
C781 C780 1.363 . S
C781 C784 1.363 . S
N782 C784 1.356 . S
N782 H794 0.984 . S
N782 H795 0.985 . S
N783 C785 1.356 . S
N783 H788 0.984 . S
N783 H789 0.985 . S
C784 C778 1.379 . S
C784 C781 1.363 . S
C784 N782 1.356 . S
C785 C779 1.363 . S
C785 C780 1.379 . S
C785 N783 1.356 . S
N786 C778 1.356 . S
N786 H792 0.984 . S
N786 H793 0.984 . S
N787 C780 1.356 . S
N787 H790 0.984 . S
N787 H791 0.985 . S
H788 N783 0.984 . S
H789 N783 0.985 . S
H790 N787 0.984 . S
H791 N787 0.985 . S
H792 N786 0.984 . S
H793 N786 0.984 . S
H794 N782 0.984 . S
H795 N782 0.985 . S
C796 C797 1.363 . S
C796 C802 1.379 . S
C796 N804 1.356 . S
C797 C796 1.363 . S
C797 C803 1.363 . S
C798 C799 1.363 . S
C798 C803 1.379 . S
C798 N805 1.356 . S
C799 C798 1.363 . S
C799 C802 1.363 . S
N800 C802 1.356 . S
N800 H812 0.984 . S
N800 H813 0.985 . S
N801 C803 1.356 . S
N801 H806 0.984 . S
N801 H807 0.985 . S
C802 C796 1.379 . S
C802 C799 1.363 . S
C802 N800 1.356 . S
C803 C797 1.363 . S
C803 C798 1.379 . S
C803 N801 1.356 . S
N804 C796 1.356 . S
N804 H810 0.984 . S
N804 H811 0.984 . S
N805 C798 1.356 . S
N805 H808 0.984 . S
N805 H809 0.985 . S
H806 N801 0.984 . S
H807 N801 0.985 . S
H808 N805 0.984 . S
H809 N805 0.985 . S
H810 N804 0.984 . S
H811 N804 0.984 . S
H812 N800 0.984 . S
H813 N800 0.985 . S
C814 C815 1.363 . S
C814 C820 1.379 . S
C814 N822 1.356 . S
C815 C814 1.363 . S
C815 C821 1.363 . S
C816 C817 1.363 . S
C816 C821 1.379 . S
C816 N823 1.356 1_545 S
C817 C816 1.363 . S
C817 C820 1.363 . S
N818 C820 1.356 . S
N818 H830 0.984 . S
N818 H831 0.985 . S
N819 C821 1.356 . S
N819 H824 0.984 . S
N819 H825 0.985 . S
C820 C814 1.379 . S
C820 C817 1.363 . S
C820 N818 1.356 . S
C821 C815 1.363 . S
C821 C816 1.379 . S
C821 N819 1.356 . S
N822 C814 1.356 . S
N822 H828 0.984 . S
N822 H829 0.984 . S
N823 C816 1.356 1_565 S
N823 H826 0.984 . S
N823 H827 0.985 . S
H824 N819 0.984 . S
H825 N819 0.985 . S
H826 N823 0.984 . S
H827 N823 0.985 . S
H828 N822 0.984 . S
H829 N822 0.984 . S
H830 N818 0.984 . S
H831 N818 0.985 . S
C832 C833 1.363 . S
C832 C838 1.379 . S
C832 N840 1.356 . S
C833 C832 1.363 . S
C833 C839 1.363 . S
C834 C835 1.363 . S
C834 C839 1.379 . S
C834 N841 1.356 . S
C835 C834 1.363 . S
C835 C838 1.363 . S
N836 C838 1.356 . S
N836 H848 0.984 . S
N836 H849 0.985 . S
N837 C839 1.356 . S
N837 H842 0.984 . S
N837 H843 0.985 . S
C838 C832 1.379 . S
C838 C835 1.363 . S
C838 N836 1.356 . S
C839 C833 1.363 . S
C839 C834 1.379 . S
C839 N837 1.356 . S
N840 C832 1.356 . S
N840 H846 0.984 . S
N840 H847 0.984 . S
N841 C834 1.356 . S
N841 H844 0.984 . S
N841 H845 0.985 . S
H842 N837 0.984 . S
H843 N837 0.985 . S
H844 N841 0.984 . S
H845 N841 0.985 . S
H846 N840 0.984 . S
H847 N840 0.984 . S
H848 N836 0.984 . S
H849 N836 0.985 . S
C850 C851 1.363 . S
C850 C856 1.379 . S
C850 N858 1.356 . S
C851 C850 1.363 . S
C851 C857 1.363 . S
C852 C853 1.363 . S
C852 C857 1.379 . S
C852 N859 1.356 . S
C853 C852 1.363 . S
C853 C856 1.363 . S
N854 C856 1.356 . S
N854 H866 0.984 . S
N854 H867 0.985 . S
N855 C857 1.356 . S
N855 H860 0.984 . S
N855 H861 0.985 . S
C856 C850 1.379 . S
C856 C853 1.363 . S
C856 N854 1.356 . S
C857 C851 1.363 . S
C857 C852 1.379 . S
C857 N855 1.356 . S
N858 C850 1.356 . S
N858 H864 0.984 . S
N858 H865 0.984 . S
N859 C852 1.356 . S
N859 H862 0.984 . S
N859 H863 0.985 . S
H860 N855 0.984 . S
H861 N855 0.985 . S
H862 N859 0.984 . S
H863 N859 0.985 . S
H864 N858 0.984 . S
H865 N858 0.984 . S
H866 N854 0.984 . S
H867 N854 0.985 . S
C868 C869 1.363 . S
C868 C874 1.379 . S
C868 N876 1.356 . S
C869 C868 1.363 . S
C869 C875 1.363 . S
C870 C871 1.363 . S
C870 C875 1.379 . S
C870 N877 1.356 . S
C871 C870 1.363 . S
C871 C874 1.363 . S
N872 C874 1.356 . S
N872 H884 0.984 . S
N872 H885 0.985 . S
N873 C875 1.356 . S
N873 H878 0.984 . S
N873 H879 0.985 . S
C874 C868 1.379 . S
C874 C871 1.363 . S
C874 N872 1.356 . S
C875 C869 1.363 . S
C875 C870 1.379 . S
C875 N873 1.356 . S
N876 C868 1.356 . S
N876 H882 0.984 . S
N876 H883 0.984 . S
N877 C870 1.356 . S
N877 H880 0.984 . S
N877 H881 0.985 . S
H878 N873 0.984 . S
H879 N873 0.985 . S
H880 N877 0.984 . S
H881 N877 0.985 . S
H882 N876 0.984 . S
H883 N876 0.984 . S
H884 N872 0.984 . S
H885 N872 0.985 . S
C886 C887 1.363 . S
C886 C892 1.379 . S
C886 N894 1.356 . S
C887 C886 1.363 . S
C887 C893 1.363 . S
C888 C889 1.363 . S
C888 C893 1.379 . S
C888 N895 1.356 . S
C889 C888 1.363 . S
C889 C892 1.363 . S
N890 C892 1.356 . S
N890 H902 0.984 1_545 S
N890 H903 0.985 . S
N891 C893 1.356 1_455 S
N891 H896 0.984 . S
N891 H897 0.985 . S
C892 C886 1.379 . S
C892 C889 1.363 . S
C892 N890 1.356 . S
C893 C887 1.363 . S
C893 C888 1.379 . S
C893 N891 1.356 1_655 S
N894 C886 1.356 . S
N894 H900 0.984 1_545 S
N894 H901 0.984 . S
N895 C888 1.356 . S
N895 H898 0.984 . S
N895 H899 0.985 . S
H896 N891 0.984 . S
H897 N891 0.985 . S
H898 N895 0.984 . S
H899 N895 0.985 . S
H900 N894 0.984 1_565 S
H901 N894 0.984 . S
H902 N890 0.984 1_565 S
H903 N890 0.985 . S
C904 C905 1.363 . S
C904 C910 1.379 . S
C904 N912 1.356 . S
C905 C904 1.363 . S
C905 C911 1.363 . S
C906 C907 1.363 . S
C906 C911 1.379 . S
C906 N913 1.356 . S
C907 C906 1.363 . S
C907 C910 1.363 . S
N908 C910 1.356 . S
N908 H920 0.984 . S
N908 H921 0.985 . S
N909 C911 1.356 . S
N909 H914 0.984 . S
N909 H915 0.985 . S
C910 C904 1.379 . S
C910 C907 1.363 . S
C910 N908 1.356 . S
C911 C905 1.363 . S
C911 C906 1.379 . S
C911 N909 1.356 . S
N912 C904 1.356 . S
N912 H918 0.984 . S
N912 H919 0.984 . S
N913 C906 1.356 . S
N913 H916 0.984 . S
N913 H917 0.985 . S
H914 N909 0.984 . S
H915 N909 0.985 . S
H916 N913 0.984 . S
H917 N913 0.985 . S
H918 N912 0.984 . S
H919 N912 0.984 . S
H920 N908 0.984 . S
H921 N908 0.985 . S
C922 C923 1.363 . S
C922 C928 1.379 . S
C922 N930 1.356 1_455 S
C923 C922 1.363 . S
C923 C929 1.363 . S
C924 C925 1.363 . S
C924 C929 1.379 . S
C924 N931 1.356 . S
C925 C924 1.363 . S
C925 C928 1.363 . S
N926 C928 1.356 . S
N926 H938 0.984 . S
N926 H939 0.985 . S
N927 C929 1.356 . S
N927 H932 0.984 . S
N927 H933 0.985 . S
C928 C922 1.379 . S
C928 C925 1.363 . S
C928 N926 1.356 . S
C929 C923 1.363 . S
C929 C924 1.379 . S
C929 N927 1.356 . S
N930 C922 1.356 1_655 S
N930 H936 0.984 . S
N930 H937 0.984 . S
N931 C924 1.356 . S
N931 H934 0.984 . S
N931 H935 0.985 . S
H932 N927 0.984 . S
H933 N927 0.985 . S
H934 N931 0.984 . S
H935 N931 0.985 . S
H936 N930 0.984 . S
H937 N930 0.984 . S
H938 N926 0.984 . S
H939 N926 0.985 . S
C940 C941 1.363 . S
C940 C946 1.379 . S
C940 N948 1.356 . S
C941 C940 1.363 . S
C941 C947 1.363 . S
C942 C943 1.363 . S
C942 C947 1.379 . S
C942 N949 1.356 . S
C943 C942 1.363 . S
C943 C946 1.363 . S
N944 C946 1.356 . S
N944 H956 0.984 . S
N944 H957 0.985 . S
N945 C947 1.356 . S
N945 H950 0.984 . S
N945 H951 0.985 . S
C946 C940 1.379 . S
C946 C943 1.363 . S
C946 N944 1.356 . S
C947 C941 1.363 . S
C947 C942 1.379 . S
C947 N945 1.356 . S
N948 C940 1.356 . S
N948 H954 0.984 . S
N948 H955 0.984 . S
N949 C942 1.356 . S
N949 H952 0.984 . S
N949 H953 0.985 . S
H950 N945 0.984 . S
H951 N945 0.985 . S
H952 N949 0.984 . S
H953 N949 0.985 . S
H954 N948 0.984 . S
H955 N948 0.984 . S
H956 N944 0.984 . S
H957 N944 0.985 . S
C958 C959 1.363 . S
C958 C964 1.379 . S
C958 N966 1.356 . S
C959 C958 1.363 . S
C959 C965 1.363 . S
C960 C961 1.363 1_455 S
C960 C965 1.379 1_455 S
C960 N967 1.356 . S
C961 C960 1.363 1_655 S
C961 C964 1.363 . S
N962 C964 1.356 . S
N962 H974 0.984 . S
N962 H975 0.985 . S
N963 C965 1.356 1_454 S
N963 H968 0.984 1_455 S
N963 H969 0.985 . S
C964 C958 1.379 . S
C964 C961 1.363 . S
C964 N962 1.356 . S
C965 C959 1.363 . S
C965 C960 1.379 1_655 S
C965 N963 1.356 1_656 S
N966 C958 1.356 . S
N966 H972 0.984 . S
N966 H973 0.984 . S
N967 C960 1.356 . S
N967 H970 0.984 . S
N967 H971 0.979 1_556 S
H968 N963 0.984 1_655 S
H969 N963 0.985 . S
H970 N967 0.984 . S
H971 N967 0.979 1_554 S
H972 N966 0.984 . S
H973 N966 0.984 . S
H974 N962 0.984 . S
H975 N962 0.985 . S
C976 C977 1.363 . S
C976 C982 1.379 . S
C976 N984 1.356 . S
C977 C976 1.363 . S
C977 C983 1.363 . S
C978 C979 1.363 . S
C978 C983 1.379 . S
C978 N985 1.356 . S
C979 C978 1.363 . S
C979 C982 1.363 . S
N980 C982 1.356 . S
N980 H992 0.984 . S
N980 H993 0.985 . S
N981 C983 1.356 . S
N981 H986 0.984 . S
N981 H987 0.985 . S
C982 C976 1.379 . S
C982 C979 1.363 . S
C982 N980 1.356 . S
C983 C977 1.363 . S
C983 C978 1.379 . S
C983 N981 1.356 . S
N984 C976 1.356 . S
N984 H990 0.984 . S
N984 H991 0.984 . S
N985 C978 1.356 . S
N985 H988 0.984 . S
N985 H989 0.985 . S
H986 N981 0.984 . S
H987 N981 0.985 . S
H988 N985 0.984 . S
H989 N985 0.985 . S
H990 N984 0.984 . S
H991 N984 0.984 . S
H992 N980 0.984 . S
H993 N980 0.985 . S
C994 C995 1.363 . S
C994 C1000 1.379 . S
C994 N1002 1.356 . S
C995 C994 1.363 . S
C995 C1001 1.363 1_456 S
C996 C997 1.363 1_655 S
C996 C1001 1.379 1_556 S
C996 N1003 1.356 . S
C997 C996 1.363 1_455 S
C997 C1000 1.363 . S
N998 C1000 1.356 . S
N998 H1010 0.984 . S
N998 H1011 0.985 . S
N999 C1001 1.356 . S
N999 H1004 0.984 . S
N999 H1005 0.985 . S
C1000 C994 1.379 . S
C1000 C997 1.363 . S
C1000 N998 1.356 . S
C1001 C995 1.363 1_654 S
C1001 C996 1.379 1_554 S
C1001 N999 1.356 . S
N1002 C994 1.356 . S
N1002 H1008 0.984 . S
N1002 H1009 0.984 . S
N1003 C996 1.356 . S
N1003 H1006 0.984 . S
N1003 H1007 0.985 1_556 S
H1004 N999 0.984 . S
H1005 N999 0.985 . S
H1006 N1003 0.984 . S
H1007 N1003 0.985 1_554 S
H1008 N1002 0.984 . S
H1009 N1002 0.984 . S
H1010 N998 0.984 . S
H1011 N998 0.985 . S
C1012 C1013 1.363 . S
C1012 C1018 1.379 . S
C1012 N1020 1.356 . S
C1013 C1012 1.363 . S
C1013 C1019 1.363 . S
C1014 C1015 1.363 . S
C1014 C1019 1.379 . S
C1014 N1021 1.356 . S
C1015 C1014 1.363 . S
C1015 C1018 1.363 . S
N1016 C1018 1.356 . S
N1016 H1028 0.984 . S
N1016 H1029 0.985 . S
N1017 C1019 1.356 . S
N1017 H1022 0.984 . S
N1017 H1023 0.985 . S
C1018 C1012 1.379 . S
C1018 C1015 1.363 . S
C1018 N1016 1.356 . S
C1019 C1013 1.363 . S
C1019 C1014 1.379 . S
C1019 N1017 1.356 . S
N1020 C1012 1.356 . S
N1020 H1026 0.984 . S
N1020 H1027 0.984 . S
N1021 C1014 1.356 . S
N1021 H1024 0.984 . S
N1021 H1025 0.985 . S
H1022 N1017 0.984 . S
H1023 N1017 0.985 . S
H1024 N1021 0.984 . S
H1025 N1021 0.985 . S
H1026 N1020 0.984 . S
H1027 N1020 0.984 . S
H1028 N1016 0.984 . S
H1029 N1016 0.985 . S
C1030 C1031 1.363 . S
C1030 C1036 1.379 . S
C1030 N1038 1.356 . S
C1031 C1030 1.363 . S
C1031 C1037 1.363 . S
C1032 C1033 1.363 . S
C1032 C1037 1.379 . S
C1032 N1039 1.356 . S
C1033 C1032 1.363 . S
C1033 C1036 1.363 . S
N1034 C1036 1.356 . S
N1034 H1046 0.984 . S
N1034 H1047 0.985 . S
N1035 C1037 1.356 1_556 S
N1035 H1040 0.984 . S
N1035 H1041 0.985 . S
C1036 C1030 1.379 . S
C1036 C1033 1.363 . S
C1036 N1034 1.356 . S
C1037 C1031 1.363 . S
C1037 C1032 1.379 . S
C1037 N1035 1.356 1_554 S
N1038 C1030 1.356 . S
N1038 H1044 0.984 . S
N1038 H1045 0.984 . S
N1039 C1032 1.356 . S
N1039 H1042 0.984 . S
N1039 H1043 0.985 . S
H1040 N1035 0.984 . S
H1041 N1035 0.985 . S
H1042 N1039 0.984 . S
H1043 N1039 0.985 . S
H1044 N1038 0.984 . S
H1045 N1038 0.984 . S
H1046 N1034 0.984 . S
H1047 N1034 0.985 . S
C1048 C1049 1.363 . S
C1048 C1054 1.379 . S
C1048 N1056 1.356 . S
C1049 C1048 1.363 . S
C1049 C1055 1.363 . S
C1050 C1051 1.363 . S
C1050 C1055 1.379 . S
C1050 N1057 1.356 . S
C1051 C1050 1.363 . S
C1051 C1054 1.363 . S
N1052 C1054 1.356 . S
N1052 H1064 0.984 . S
N1052 H1065 0.985 . S
N1053 C1055 1.356 . S
N1053 H1058 0.984 . S
N1053 H1059 0.985 . S
C1054 C1048 1.379 . S
C1054 C1051 1.363 . S
C1054 N1052 1.356 . S
C1055 C1049 1.363 . S
C1055 C1050 1.379 . S
C1055 N1053 1.356 . S
N1056 C1048 1.356 . S
N1056 H1062 0.984 . S
N1056 H1063 0.984 . S
N1057 C1050 1.356 . S
N1057 H1060 0.984 . S
N1057 H1061 0.985 . S
H1058 N1053 0.984 . S
H1059 N1053 0.985 . S
H1060 N1057 0.984 . S
H1061 N1057 0.985 . S
H1062 N1056 0.984 . S
H1063 N1056 0.984 . S
H1064 N1052 0.984 . S
H1065 N1052 0.985 . S
C1066 C1067 1.363 . S
C1066 C1072 1.379 . S
C1066 N1074 1.356 . S
C1067 C1066 1.363 . S
C1067 C1073 1.363 . S
C1068 C1069 1.363 . S
C1068 C1073 1.379 . S
C1068 N1075 1.356 . S
C1069 C1068 1.363 . S
C1069 C1072 1.363 . S
N1070 C1072 1.356 . S
N1070 H1082 0.984 . S
N1070 H1083 0.985 . S
N1071 C1073 1.356 . S
N1071 H1076 0.984 . S
N1071 H1077 0.985 . S
C1072 C1066 1.379 . S
C1072 C1069 1.363 . S
C1072 N1070 1.356 . S
C1073 C1067 1.363 . S
C1073 C1068 1.379 . S
C1073 N1071 1.356 . S
N1074 C1066 1.356 . S
N1074 H1080 0.984 1_554 S
N1074 H1081 0.984 . S
N1075 C1068 1.356 . S
N1075 H1078 0.984 . S
N1075 H1079 0.985 . S
H1076 N1071 0.984 . S
H1077 N1071 0.985 . S
H1078 N1075 0.984 . S
H1079 N1075 0.985 . S
H1080 N1074 0.984 1_556 S
H1081 N1074 0.984 . S
H1082 N1070 0.984 . S
H1083 N1070 0.985 . S
C1084 C1085 1.363 . S
C1084 C1090 1.379 . S
C1084 N1092 1.356 . S
C1085 C1084 1.363 . S
C1085 C1091 1.363 . S
C1086 C1087 1.363 . S
C1086 C1091 1.379 . S
C1086 N1093 1.356 . S
C1087 C1086 1.363 . S
C1087 C1090 1.363 . S
N1088 C1090 1.356 . S
N1088 H1100 0.984 . S
N1088 H1101 0.985 . S
N1089 C1091 1.356 . S
N1089 H1094 0.984 . S
N1089 H1095 0.985 . S
C1090 C1084 1.379 . S
C1090 C1087 1.363 . S
C1090 N1088 1.356 . S
C1091 C1085 1.363 . S
C1091 C1086 1.379 . S
C1091 N1089 1.356 . S
N1092 C1084 1.356 . S
N1092 H1098 0.984 . S
N1092 H1099 0.984 . S
N1093 C1086 1.356 . S
N1093 H1096 0.984 . S
N1093 H1097 0.985 . S
H1094 N1089 0.984 . S
H1095 N1089 0.985 . S
H1096 N1093 0.984 . S
H1097 N1093 0.985 . S
H1098 N1092 0.984 . S
H1099 N1092 0.984 . S
H1100 N1088 0.984 . S
H1101 N1088 0.985 . S
C1102 C1103 1.363 . S
C1102 C1108 1.379 . S
C1102 N1110 1.356 . S
C1103 C1102 1.363 . S
C1103 C1109 1.363 . S
C1104 C1105 1.363 . S
C1104 C1109 1.379 . S
C1104 N1111 1.356 . S
C1105 C1104 1.363 . S
C1105 C1108 1.363 . S
N1106 C1108 1.356 . S
N1106 H1118 0.984 . S
N1106 H1119 0.985 . S
N1107 C1109 1.356 . S
N1107 H1112 0.984 . S
N1107 H1113 0.985 . S
C1108 C1102 1.379 . S
C1108 C1105 1.363 . S
C1108 N1106 1.356 . S
C1109 C1103 1.363 . S
C1109 C1104 1.379 . S
C1109 N1107 1.356 . S
N1110 C1102 1.356 . S
N1110 H1116 0.984 . S
N1110 H1117 0.984 . S
N1111 C1104 1.356 . S
N1111 H1114 0.984 . S
N1111 H1115 0.985 . S
H1112 N1107 0.984 . S
H1113 N1107 0.985 . S
H1114 N1111 0.984 . S
H1115 N1111 0.985 . S
H1116 N1110 0.984 . S
H1117 N1110 0.984 . S
H1118 N1106 0.984 . S
H1119 N1106 0.985 . S
C1120 C1121 1.363 . S
C1120 C1126 1.379 . S
C1120 N1128 1.356 . S
C1121 C1120 1.363 . S
C1121 C1127 1.363 . S
C1122 C1123 1.363 . S
C1122 C1127 1.379 . S
C1122 N1129 1.356 . S
C1123 C1122 1.363 . S
C1123 C1126 1.363 . S
N1124 C1126 1.356 . S
N1124 H1136 0.984 . S
N1124 H1137 0.985 . S
N1125 C1127 1.356 . S
N1125 H1130 0.984 . S
N1125 H1131 0.985 . S
C1126 C1120 1.379 . S
C1126 C1123 1.363 . S
C1126 N1124 1.356 . S
C1127 C1121 1.363 . S
C1127 C1122 1.379 . S
C1127 N1125 1.356 . S
N1128 C1120 1.356 . S
N1128 H1134 0.984 . S
N1128 H1135 0.984 . S
N1129 C1122 1.356 . S
N1129 H1132 0.984 . S
N1129 H1133 0.985 . S
H1130 N1125 0.984 . S
H1131 N1125 0.985 . S
H1132 N1129 0.984 . S
H1133 N1129 0.985 . S
H1134 N1128 0.984 . S
H1135 N1128 0.984 . S
H1136 N1124 0.984 . S
H1137 N1124 0.985 . S
C1138 C1139 1.363 . S
C1138 C1144 1.379 . S
C1138 N1146 1.356 . S
C1139 C1138 1.363 . S
C1139 C1145 1.363 . S
C1140 C1141 1.363 . S
C1140 C1145 1.379 . S
C1140 N1147 1.356 . S
C1141 C1140 1.363 . S
C1141 C1144 1.363 . S
N1142 C1144 1.356 . S
N1142 H1154 0.984 . S
N1142 H1155 0.985 . S
N1143 C1145 1.356 . S
N1143 H1148 0.984 . S
N1143 H1149 0.985 . S
C1144 C1138 1.379 . S
C1144 C1141 1.363 . S
C1144 N1142 1.356 . S
C1145 C1139 1.363 . S
C1145 C1140 1.379 . S
C1145 N1143 1.356 . S
N1146 C1138 1.356 . S
N1146 H1152 0.984 . S
N1146 H1153 0.984 . S
N1147 C1140 1.356 . S
N1147 H1150 0.984 . S
N1147 H1151 0.985 . S
H1148 N1143 0.984 . S
H1149 N1143 0.985 . S
H1150 N1147 0.984 . S
H1151 N1147 0.985 . S
H1152 N1146 0.984 . S
H1153 N1146 0.984 . S
H1154 N1142 0.984 . S
H1155 N1142 0.985 . S
C1156 C1157 1.363 1_554 S
C1156 C1162 1.379 . S
C1156 N1164 1.356 . S
C1157 C1156 1.363 1_556 S
C1157 C1163 1.363 . S
C1158 C1159 1.363 1_556 S
C1158 C1163 1.379 . S
C1158 N1165 1.356 . S
C1159 C1158 1.363 1_554 S
C1159 C1162 1.363 . S
N1160 C1162 1.356 . S
N1160 H1172 0.984 . S
N1160 H1173 0.985 . S
N1161 C1163 1.356 . S
N1161 H1166 0.984 . S
N1161 H1167 0.985 . S
C1162 C1156 1.379 . S
C1162 C1159 1.363 . S
C1162 N1160 1.356 . S
C1163 C1157 1.363 . S
C1163 C1158 1.379 . S
C1163 N1161 1.356 . S
N1164 C1156 1.356 . S
N1164 H1170 0.984 . S
N1164 H1171 0.984 . S
N1165 C1158 1.356 . S
N1165 H1168 0.984 . S
N1165 H1169 0.985 . S
H1166 N1161 0.984 . S
H1167 N1161 0.985 . S
H1168 N1165 0.984 . S
H1169 N1165 0.985 . S
H1170 N1164 0.984 . S
H1171 N1164 0.984 . S
H1172 N1160 0.984 . S
H1173 N1160 0.985 . S
C1174 C1175 1.363 . S
C1174 C1180 1.379 . S
C1174 N1182 1.356 . S
C1175 C1174 1.363 . S
C1175 C1181 1.363 . S
C1176 C1177 1.363 . S
C1176 C1181 1.379 . S
C1176 N1183 1.356 . S
C1177 C1176 1.363 . S
C1177 C1180 1.363 . S
N1178 C1180 1.356 . S
N1178 H1190 0.984 . S
N1178 H1191 0.985 . S
N1179 C1181 1.356 . S
N1179 H1184 0.984 . S
N1179 H1185 0.985 . S
C1180 C1174 1.379 . S
C1180 C1177 1.363 . S
C1180 N1178 1.356 . S
C1181 C1175 1.363 . S
C1181 C1176 1.379 . S
C1181 N1179 1.356 . S
N1182 C1174 1.356 . S
N1182 H1188 0.984 . S
N1182 H1189 0.984 . S
N1183 C1176 1.356 . S
N1183 H1186 0.984 . S
N1183 H1187 0.985 . S
H1184 N1179 0.984 . S
H1185 N1179 0.985 . S
H1186 N1183 0.984 . S
H1187 N1183 0.985 . S
H1188 N1182 0.984 . S
H1189 N1182 0.984 . S
H1190 N1178 0.984 . S
H1191 N1178 0.985 . S
C1192 C1193 1.363 . S
C1192 C1198 1.379 . S
C1192 N1200 1.356 . S
C1193 C1192 1.363 . S
C1193 C1199 1.363 . S
C1194 C1195 1.363 . S
C1194 C1199 1.379 . S
C1194 N1201 1.356 . S
C1195 C1194 1.363 . S
C1195 C1198 1.363 . S
N1196 C1198 1.356 . S
N1196 H1208 0.984 . S
N1196 H1209 0.985 . S
N1197 C1199 1.356 . S
N1197 H1202 0.984 . S
N1197 H1203 0.985 1_554 S
C1198 C1192 1.379 . S
C1198 C1195 1.363 . S
C1198 N1196 1.356 . S
C1199 C1193 1.363 . S
C1199 C1194 1.379 . S
C1199 N1197 1.356 . S
N1200 C1192 1.356 . S
N1200 H1206 0.984 . S
N1200 H1207 0.984 . S
N1201 C1194 1.356 . S
N1201 H1204 0.984 . S
N1201 H1205 0.985 1_554 S
H1202 N1197 0.984 . S
H1203 N1197 0.985 1_556 S
H1204 N1201 0.984 . S
H1205 N1201 0.985 1_556 S
H1206 N1200 0.984 . S
H1207 N1200 0.984 . S
H1208 N1196 0.984 . S
H1209 N1196 0.985 . S
C1210 C1211 1.372 . S
C1210 C1216 1.394 1_554 S
C1210 N1218 1.332 1_564 S
C1211 C1210 1.372 . S
C1211 C1217 1.363 . S
C1212 C1213 1.363 . S
C1212 C1217 1.379 . S
C1212 N1219 1.356 . S
C1213 C1212 1.363 . S
C1213 C1216 1.363 1_554 S
N1214 C1216 1.356 . S
N1214 H1226 0.984 1_565 S
N1214 H1227 0.985 . S
N1215 C1217 1.356 . S
N1215 H1220 0.984 . S
N1215 H1221 0.985 . S
C1216 C1210 1.394 1_556 S
C1216 C1213 1.363 1_556 S
C1216 N1214 1.356 . S
C1217 C1211 1.363 . S
C1217 C1212 1.379 . S
C1217 N1215 1.356 . S
N1218 C1210 1.332 1_546 S
N1218 H1224 0.984 . S
N1218 H1225 0.984 1_556 S
N1219 C1212 1.356 . S
N1219 H1222 0.984 . S
N1219 H1223 0.985 . S
H1220 N1215 0.984 . S
H1221 N1215 0.985 . S
H1222 N1219 0.984 . S
H1223 N1219 0.985 . S
H1224 N1218 0.984 . S
H1225 N1218 0.984 1_554 S
H1226 N1214 0.984 1_545 S
H1227 N1214 0.985 . S
C367 C218 1.621 . S
C365 C73 1.642 . S
C385 C231 1.392 . S
C383 C82 1.354 . S
C401 C100 1.771 . S
C403 C244 1.732 . S
C421 C257 1.379 . S
C419 C56 1.363 . S
C439 C265 1.385 . S
C437 C134 1.434 . S
C457 C278 1.570 . S
C455 C165 1.592 . S
C473 C147 1.259 . S
C475 C291 1.276 . S
C493 C304 1.735 . S
C491 C125 1.771 . S
C509 C151 1.376 . S
C511 C322 1.381 . S
C529 C333 1.490 . S
C527 C121 1.466 . S
C545 C139 1.681 . S
C547 C317 1.664 . S
C565 C325 1.332 . S
C563 C164 1.355 . S
C581 C95 1.364 . S
C583 C348 1.431 . S
C599 C61 1.491 . S
C601 C338 1.479 . S
C617 C74 1.482 . S
C619 C343 1.454 . S
C635 C86 1.746 . S
C637 C346 1.710 1_655 S
C653 C47 1.398 . S
C655 C255 1.382 . S
C671 C186 1.278 . S
C673 C247 1.300 . S
C691 C216 1.526 . S
C689 C204 1.583 . S
C709 C221 1.796 . S
C707 C112 1.812 . S
C725 C60 1.436 . S
C727 C268 1.412 . S
C745 C307 1.431 . S
C743 C152 1.461 . S
C763 C260 1.759 . S
C761 C126 1.801 1_545 S
C781 C286 1.321 . S
C779 C160 1.335 . S
C799 C296 1.621 . S
C797 C190 1.642 . S
C815 C199 1.354 . S
C817 C309 1.392 . S
C833 C113 1.771 . S
C835 C270 1.732 . S
C853 C283 1.379 . S
C851 C173 1.363 . S
C869 C43 1.435 . S
C871 C239 1.385 . S
C889 C252 1.570 . S
C887 C9 1.577 1_655 S
C907 C213 1.276 . S
C905 C17 1.259 . S
C925 C226 1.735 . S
C923 C34 1.755 1_455 S
C941 C21 1.376 . S
C943 C335 1.379 . S
C959 C30 1.466 1_556 S
C961 C320 1.492 1_655 S
C977 C48 1.681 . S
C979 C330 1.668 . S
C995 C8 1.355 1_556 S
C997 C312 1.330 1_455 S
C1015 C361 1.431 . S
C1013 C108 1.364 . S
C1033 C351 1.479 . S
C1031 C178 1.491 1_554 S
C1051 C356 1.454 . S
C1049 C191 1.482 . S
C1067 C203 1.746 . S
C1069 C359 1.710 . S
C1085 C138 1.398 . S
C1087 C281 1.382 . S
C1105 C273 1.300 . S
C1103 C69 1.278 . S
C1123 C294 1.522 . S
C1121 C87 1.583 . S
C1141 C299 1.796 . S
C1139 C99 1.812 . S
C1157 C177 1.436 . S
C1159 C242 1.412 . S
C1177 C229 1.431 . S
C1175 C22 1.461 . S
C1193 C35 1.801 . S
C1195 C234 1.759 . S
C1213 C208 1.310 1_554 S
C1211 C4 1.335 . S
