# Generated by pormake.
# Topology sqc, (4,8)-cn, num edge types: 1
# Building blocks:
#     Node 0, Type 0, BuildingBlock: MIFKUJ_clean_linker_1, # of connection points: 4
#     Node 1, Type 0, BuildingBlock: MIFKUJ_clean_linker_1, # of connection points: 4
#     Node 2, Type 0, BuildingBlock: MIFKUJ_clean_linker_1, # of connection points: 4
#     Node 3, Type 0, BuildingBlock: MIFKUJ_clean_linker_1, # of connection points: 4
#     Node 4, Type 0, BuildingBlock: MIFKUJ_clean_linker_1, # of connection points: 4
#     Node 5, Type 0, BuildingBlock: MIFKUJ_clean_linker_1, # of connection points: 4
#     Node 6, Type 0, BuildingBlock: MIFKUJ_clean_linker_1, # of connection points: 4
#     Node 7, Type 0, BuildingBlock: MIFKUJ_clean_linker_1, # of connection points: 4
#     Node 8, Type 1, BuildingBlock: VETTIZ_charged_sbu_0, # of connection points: 8
#     Node 9, Type 1, BuildingBlock: VETTIZ_charged_sbu_0, # of connection points: 8
#     Node 10, Type 1, BuildingBlock: VETTIZ_charged_sbu_0, # of connection points: 8
#     Node 11, Type 1, BuildingBlock: VETTIZ_charged_sbu_0, # of connection points: 8
#     Edge 12, Type (0, 1), BuildingBlock: EZIPEK_clean_linker_0, # of connection points: 2
#     Edge 13, Type (0, 1), BuildingBlock: EZIPEK_clean_linker_0, # of connection points: 2
#     Edge 14, Type (0, 1), BuildingBlock: EZIPEK_clean_linker_0, # of connection points: 2
#     Edge 15, Type (0, 1), BuildingBlock: EZIPEK_clean_linker_0, # of connection points: 2
#     Edge 16, Type (0, 1), BuildingBlock: EZIPEK_clean_linker_0, # of connection points: 2
#     Edge 17, Type (0, 1), BuildingBlock: EZIPEK_clean_linker_0, # of connection points: 2
#     Edge 18, Type (0, 1), BuildingBlock: EZIPEK_clean_linker_0, # of connection points: 2
#     Edge 19, Type (0, 1), BuildingBlock: EZIPEK_clean_linker_0, # of connection points: 2
#     Edge 20, Type (0, 1), BuildingBlock: EZIPEK_clean_linker_0, # of connection points: 2
#     Edge 21, Type (0, 1), BuildingBlock: EZIPEK_clean_linker_0, # of connection points: 2
#     Edge 22, Type (0, 1), BuildingBlock: EZIPEK_clean_linker_0, # of connection points: 2
#     Edge 23, Type (0, 1), BuildingBlock: EZIPEK_clean_linker_0, # of connection points: 2
#     Edge 24, Type (0, 1), BuildingBlock: EZIPEK_clean_linker_0, # of connection points: 2
#     Edge 25, Type (0, 1), BuildingBlock: EZIPEK_clean_linker_0, # of connection points: 2
#     Edge 26, Type (0, 1), BuildingBlock: EZIPEK_clean_linker_0, # of connection points: 2
#     Edge 27, Type (0, 1), BuildingBlock: EZIPEK_clean_linker_0, # of connection points: 2
#     Edge 28, Type (0, 1), BuildingBlock: EZIPEK_clean_linker_0, # of connection points: 2
#     Edge 29, Type (0, 1), BuildingBlock: EZIPEK_clean_linker_0, # of connection points: 2
#     Edge 30, Type (0, 1), BuildingBlock: EZIPEK_clean_linker_0, # of connection points: 2
#     Edge 31, Type (0, 1), BuildingBlock: EZIPEK_clean_linker_0, # of connection points: 2
#     Edge 32, Type (0, 1), BuildingBlock: EZIPEK_clean_linker_0, # of connection points: 2
#     Edge 33, Type (0, 1), BuildingBlock: EZIPEK_clean_linker_0, # of connection points: 2
#     Edge 34, Type (0, 1), BuildingBlock: EZIPEK_clean_linker_0, # of connection points: 2
#     Edge 35, Type (0, 1), BuildingBlock: EZIPEK_clean_linker_0, # of connection points: 2
#     Edge 36, Type (0, 1), BuildingBlock: EZIPEK_clean_linker_0, # of connection points: 2
#     Edge 37, Type (0, 1), BuildingBlock: EZIPEK_clean_linker_0, # of connection points: 2
#     Edge 38, Type (0, 1), BuildingBlock: EZIPEK_clean_linker_0, # of connection points: 2
#     Edge 39, Type (0, 1), BuildingBlock: EZIPEK_clean_linker_0, # of connection points: 2
#     Edge 40, Type (0, 1), BuildingBlock: EZIPEK_clean_linker_0, # of connection points: 2
#     Edge 41, Type (0, 1), BuildingBlock: EZIPEK_clean_linker_0, # of connection points: 2
#     Edge 42, Type (0, 1), BuildingBlock: EZIPEK_clean_linker_0, # of connection points: 2
#     Edge 43, Type (0, 1), BuildingBlock: EZIPEK_clean_linker_0, # of connection points: 2
# Relax obj value: 0.137
# Max RMSD: 0.270
# Mean RMSD: 0.176
data_MOF--net-sqc--node1-VETTIZ_charged_sbu_0--node2-MIFKUJ_clean_linker_1--edge1-EZIPEK_clean_linker_0
_symmetry_space_group_name_H-M    P1
_symmetry_Int_Tables_number       1
_symmetry_cell_setting            triclinic
loop_
_symmetry_equiv_pos_as_xyz
'x, y, z'
_cell_length_a     22.291779
_cell_length_b     22.229541
_cell_length_c     64.663354
_cell_angle_alpha  89.950423
_cell_angle_beta   90.265672
_cell_angle_gamma 91.051342
loop_
_atom_site_label
_atom_site_type_symbol
_atom_site_fract_x
_atom_site_fract_y
_atom_site_fract_z
_atom_type_partial_charge
H0 H 0.88711 0.86462 0.5008 0.0
H1 H 0.79852 0.85103 0.47843 0.0
H2 H 0.77382 0.04292 0.47764 0.0
H3 H 0.86168 0.05659 0.50038 0.0
H4 H 0.9889 0.93045 0.48969 0.0
H5 H 0.8429 0.92891 0.54354 0.0
H6 H 0.75279 0.95802 0.56263 0.0
H7 H 0.82342 0.13913 0.56805 0.0
H8 H 0.91304 0.11066 0.54874 0.0
H9 H 0.08768 0.10716 0.54643 0.0
H10 H 0.18572 0.13527 0.56125 0.0
H11 H 0.24342 0.95213 0.55502 0.0
H12 H 0.14423 0.92298 0.54139 0.0
H13 H 0.99849 0.036 0.55721 0.0
H14 H 0.13379 0.04251 0.49873 0.0
H15 H 0.22547 0.01585 0.48014 0.0
H16 H 0.17418 0.82814 0.48367 0.0
H17 H 0.08244 0.85464 0.50224 0.0
C18 C 0.88064 0.96155 0.50236 0.0
C19 C 0.86214 0.90368 0.49605 0.0
C20 C 0.81188 0.89592 0.48327 0.0
C21 C 0.78004 0.94599 0.47632 0.0
C22 C 0.79785 1.00381 0.48289 0.0
C23 C 0.84767 1.01151 0.49591 0.0
C24 C 0.93744 0.97031 0.51407 0.0
C25 C 0.99084 0.95255 0.50465 0.0
C26 C 0.93996 1.00034 0.53335 0.0
C27 C 0.88471 0.01772 0.54455 0.0
C28 C 0.83879 0.97507 0.54861 0.0
C29 C 0.78761 0.99144 0.55959 0.0
C30 C 0.7818 0.05058 0.56676 0.0
C31 C 0.82738 0.09322 0.56268 0.0
C32 C 0.87845 0.07692 0.55171 0.0
C33 C 0.10849 0.01302 0.5426 0.0
C34 C 0.12096 0.07275 0.54854 0.0
C35 C 0.17701 0.08893 0.55681 0.0
C36 C 0.22168 0.04576 0.5592 0.0
C37 C 0.20946 0.98604 0.55329 0.0
C38 C 0.15297 0.96958 0.54544 0.0
C39 C 0.04995 0.99697 0.53266 0.0
C40 C 0.99633 0.01342 0.54236 0.0
C41 C 0.04692 0.96615 0.51353 0.0
C42 C 0.10155 0.95046 0.50191 0.0
C43 C 0.14236 0.99562 0.49554 0.0
C44 C 0.19454 0.9805 0.48501 0.0
C45 C 0.20645 0.9201 0.48066 0.0
C46 C 0.16568 0.87494 0.48697 0.0
C47 C 0.11335 0.89006 0.49742 0.0
H48 H 0.24354 0.84347 0.81191 0.0
H49 H 0.20386 0.93587 0.82709 0.0
H50 H 0.14808 0.99521 0.76663 0.0
H51 H 0.18589 0.90219 0.75147 0.0
H52 H 0.19608 0.75128 0.79146 0.0
H53 H 0.34622 0.89937 0.77736 0.0
H54 H 0.3875 0.99676 0.76546 0.0
H55 H 0.32146 0.95932 0.70394 0.0
H56 H 0.27999 0.86231 0.71575 0.0
H57 H 0.24549 0.6716 0.71437 0.0
H58 H 0.27633 0.5888 0.69337 0.0
H59 H 0.39845 0.53491 0.74176 0.0
H60 H 0.3667 0.61837 0.76259 0.0
H61 H 0.33287 0.76594 0.73149 0.0
H62 H 0.22429 0.58421 0.7539 0.0
H63 H 0.21372 0.49066 0.77292 0.0
H64 H 0.21363 0.59013 0.83017 0.0
H65 H 0.24126 0.68101 0.81177 0.0
C66 C 0.2181 0.86583 0.78051 0.0
C67 C 0.22235 0.87603 0.80192 0.0
C68 C 0.20026 0.92891 0.81055 0.0
C69 C 0.17345 0.97242 0.79794 0.0
C70 C 0.16898 0.96233 0.77657 0.0
C71 C 0.19056 0.90927 0.76797 0.0
C72 C 0.2441 0.81088 0.77113 0.0
C73 C 0.22744 0.7537 0.77872 0.0
C74 C 0.28473 0.81502 0.75451 0.0
C75 C 0.30976 0.87377 0.74743 0.0
C76 C 0.34017 0.91239 0.76135 0.0
C77 C 0.36358 0.96781 0.75463 0.0
C78 C 0.35677 0.98521 0.73392 0.0
C79 C 0.32653 0.94668 0.72003 0.0
C80 C 0.30332 0.89131 0.72671 0.0
C81 C 0.30601 0.65314 0.73963 0.0
C82 C 0.28118 0.64333 0.71998 0.0
C83 C 0.30095 0.5964 0.70753 0.0
C84 C 0.34953 0.56007 0.71361 0.0
C85 C 0.3688 0.56645 0.73451 0.0
C86 C 0.349 0.61346 0.74703 0.0
C87 C 0.28602 0.70509 0.75202 0.0
C88 C 0.30324 0.76237 0.74473 0.0
C89 C 0.24976 0.70001 0.77007 0.0
C90 C 0.23635 0.64135 0.78103 0.0
C91 C 0.22656 0.58634 0.77054 0.0
C92 C 0.21809 0.53239 0.78148 0.0
C93 C 0.21143 0.53273 0.80309 0.0
C94 C 0.21854 0.58784 0.81353 0.0
C95 C 0.23304 0.64057 0.8028 0.0
H96 H 0.44435 0.98358 0.0638 0.0
H97 H 0.35555 0.9508 0.08282 0.0
H98 H 0.25501 0.93985 0.02574 0.0
H99 H 0.34668 0.95928 0.00642 0.0
H100 H 0.51799 0.94615 0.04121 0.0
H101 H 0.37258 0.10476 0.02461 0.0
H102 H 0.27578 0.13853 0.01069 0.0
H103 H 0.31598 0.05682 0.95201 0.0
H104 H 0.41164 0.02192 0.96593 0.0
H105 H 0.58915 0.02155 0.96026 0.0
H106 H 0.67683 0.05956 0.94112 0.0
H107 H 0.74883 0.13776 0.99718 0.0
H108 H 0.6611 0.09952 0.01643 0.0
H109 H 0.50629 0.08489 0.98138 0.0
H110 H 0.65599 0.93859 0.99642 0.0
H111 H 0.75126 0.89987 0.00968 0.0
H112 H 0.7057 0.95933 0.07097 0.0
H113 H 0.61169 1.00025 0.0577 0.0
C114 C 0.403 0.9764 0.03342 0.0
C115 C 0.40396 0.97238 0.05516 0.0
C116 C 0.35263 0.95455 0.06614 0.0
C117 C 0.29769 0.9435 0.05588 0.0
C118 C 0.29643 0.948 0.03419 0.0
C119 C 0.34897 0.96088 0.02311 0.0
C120 C 0.45817 0.99728 0.02187 0.0
C121 C 0.51504 0.97747 0.0284 0.0
C122 C 0.45571 0.03681 1.0046 0.0
C123 C 0.39891 0.0605 0.99632 0.0
C124 C 0.36045 0.09417 0.00877 0.0
C125 C 0.30544 0.11321 1.0009 0.0
C126 C 0.28909 0.09976 0.9804 0.0
C127 C 0.32801 0.06727 0.96788 0.0
C128 C 0.38258 0.04785 0.97576 0.0
C129 C 0.61885 0.05719 0.98981 0.0
C130 C 0.62378 0.04683 0.96846 0.0
C131 C 0.67366 0.06849 0.95754 0.0
C132 C 0.71919 0.10137 0.96775 0.0
C133 C 0.71416 0.11232 0.98907 0.0
C134 C 0.66436 0.09031 1.00003 0.0
C135 C 0.56494 0.03488 1.00112 0.0
C136 C 0.50874 0.05437 0.99446 0.0
C137 C 0.56837 0.99581 0.01834 0.0
C138 C 0.62666 0.97281 0.02604 0.0
C139 C 0.66691 0.94443 0.01264 0.0
C140 C 0.72114 0.92217 0.02017 0.0
C141 C 0.73524 0.92668 0.04129 0.0
C142 C 0.69549 0.95547 0.05463 0.0
C143 C 0.64172 0.97837 0.04707 0.0
H144 H 0.19398 0.11536 0.27738 0.0
H145 H 0.23336 0.01948 0.28897 0.0
H146 H 0.40433 0.10559 0.30187 0.0
H147 H 0.36813 0.19947 0.28724 0.0
H148 H 0.2997 0.27376 0.29831 0.0
H149 H 0.10711 0.17688 0.25069 0.0
H150 H 0.08099 0.09004 0.22867 0.0
H151 H 0.26412 0.08371 0.20768 0.0
H152 H 0.29092 0.16867 0.23055 0.0
H153 H 0.22421 0.38283 0.22283 0.0
H154 H 0.1953 0.48134 0.20968 0.0
H155 H 0.12378 0.52662 0.26941 0.0
H156 H 0.15021 0.42637 0.28248 0.0
H157 H 0.16588 0.29025 0.23726 0.0
H158 H 0.29551 0.44319 0.26375 0.0
H159 H 0.3221 0.53391 0.28294 0.0
H160 H 0.29767 0.4377 0.34031 0.0
H161 H 0.2601 0.34971 0.32114 0.0
C162 C 0.2781 0.16541 0.28083 0.0
C163 C 0.24084 0.11353 0.28162 0.0
C164 C 0.26298 0.05866 0.28868 0.0
C165 C 0.32153 0.05533 0.29666 0.0
C166 C 0.35885 0.10692 0.29593 0.0
C167 C 0.33778 0.1609 0.28779 0.0
C168 C 0.25469 0.2248 0.27372 0.0
C169 C 0.27059 0.27743 0.28492 0.0
C170 C 0.21686 0.23016 0.25613 0.0
C171 C 0.2011 0.17858 0.24245 0.0
C172 C 0.14164 0.15669 0.24138 0.0
C173 C 0.12674 0.10736 0.22882 0.0
C174 C 0.17061 0.08054 0.21653 0.0
C175 C 0.22967 0.10381 0.21704 0.0
C176 C 0.24497 0.15199 0.23011 0.0
C177 C 0.18959 0.39725 0.25367 0.0
C178 C 0.20127 0.41334 0.23305 0.0
C179 C 0.18536 0.46966 0.22558 0.0
C180 C 0.15772 0.51105 0.23861 0.0
C181 C 0.14518 0.49507 0.25918 0.0
C182 C 0.16011 0.43805 0.26658 0.0
C183 C 0.2116 0.339 0.26163 0.0
C184 C 0.19511 0.2867 0.25066 0.0
C185 C 0.25074 0.33488 0.27898 0.0
C186 C 0.2729 0.38936 0.29077 0.0
C187 C 0.29283 0.44183 0.28044 0.0
C188 C 0.30927 0.49374 0.29146 0.0
C189 C 0.31236 0.4931 0.31319 0.0
C190 C 0.29537 0.43987 0.32359 0.0
C191 C 0.27471 0.38916 0.31256 0.0
H192 H 0.79005 0.34569 0.22119 0.0
H193 H 0.80951 0.43289 0.19883 0.0
H194 H 0.90245 0.5229 0.24895 0.0
H195 H 0.8835 0.43515 0.27143 0.0
H196 H 0.86623 0.27233 0.24089 0.0
H197 H 0.72306 0.42035 0.25776 0.0
H198 H 0.68358 0.51543 0.27034 0.0
H199 H 0.75348 0.47785 0.33114 0.0
H200 H 0.7973 0.38464 0.31825 0.0
H201 H 0.82855 0.18017 0.31867 0.0
H202 H 0.7935 0.09008 0.3374 0.0
H203 H 0.65378 0.06205 0.29186 0.0
H204 H 0.6912 0.15041 0.27247 0.0
H205 H 0.74431 0.28639 0.30441 0.0
H206 H 0.85007 0.10863 0.28048 0.0
H207 H 0.85731 0.01421 0.26185 0.0
H208 H 0.83963 0.11002 0.20411 0.0
H209 H 0.81581 0.20035 0.22264 0.0
C210 C 0.83537 0.38393 0.24797 0.0
C211 C 0.81505 0.38394 0.22736 0.0
C212 C 0.82566 0.43369 0.21466 0.0
C213 C 0.85709 0.48412 0.22232 0.0
C214 C 0.8779 0.48427 0.24286 0.0
C215 C 0.86724 0.43435 0.25562 0.0
C216 C 0.82093 0.3314 0.26135 0.0
C217 C 0.83828 0.2746 0.25453 0.0
C218 C 0.78664 0.3362 0.27959 0.0
C219 C 0.76415 0.39526 0.28696 0.0
C220 C 0.73231 0.43345 0.27359 0.0
C221 C 0.70981 0.48795 0.28071 0.0
C222 C 0.71615 0.5039 0.3016 0.0
C223 C 0.74885 0.46665 0.3149 0.0
C224 C 0.77296 0.41301 0.30762 0.0
C225 C 0.76229 0.17208 0.29424 0.0
C226 C 0.79063 0.15441 0.31265 0.0
C227 C 0.77108 0.10267 0.32319 0.0
C228 C 0.72101 0.06912 0.31604 0.0
C229 C 0.69271 0.08684 0.29758 0.0
C230 C 0.71354 0.13759 0.28667 0.0
C231 C 0.78495 0.22576 0.2828 0.0
C232 C 0.77085 0.28319 0.29045 0.0
C233 C 0.81843 0.22114 0.26423 0.0
C234 C 0.82972 0.16277 0.25337 0.0
C235 C 0.8436 0.10928 0.26396 0.0
C236 C 0.85014 0.05519 0.25319 0.0
C237 C 0.84949 0.05449 0.23145 0.0
C238 C 0.83968 0.10859 0.22086 0.0
C239 C 0.82729 0.16102 0.2316 0.0
H240 H 0.62941 0.87869 0.73754 0.0
H241 H 0.61194 0.96908 0.71694 0.0
H242 H 0.79108 0.0338 0.7306 0.0
H243 H 0.81052 0.94136 0.75011 0.0
H244 H 0.69611 0.7922 0.73173 0.0
H245 H 0.68235 0.93205 0.78786 0.0
H246 H 0.70496 0.02353 0.8081 0.0
H247 H 0.88996 0.97214 0.81289 0.0
H248 H 0.86774 0.88091 0.7927 0.0
H249 H 0.82888 0.64913 0.75592 0.0
H250 H 0.86524 0.55428 0.77004 0.0
H251 H 0.77883 0.59147 0.82798 0.0
H252 H 0.74032 0.68596 0.81364 0.0
H253 H 0.79669 0.78588 0.80026 0.0
H254 H 0.76447 0.69663 0.71793 0.0
H255 H 0.73279 0.60342 0.70026 0.0
H256 H 0.61741 0.55773 0.75149 0.0
H257 H 0.65023 0.65032 0.76945 0.0
C258 C 0.72116 0.90307 0.74563 0.0
C259 C 0.66525 0.91198 0.73607 0.0
C260 C 0.65508 0.96361 0.72435 0.0
C261 C 0.70018 1.00795 0.72219 0.0
C262 C 0.75575 0.99996 0.73204 0.0
C263 C 0.76649 0.94753 0.74339 0.0
C264 C 0.73284 0.84564 0.75678 0.0
C265 C 0.71762 0.79128 0.74681 0.0
C266 C 0.76004 0.84374 0.77665 0.0
C267 C 0.7734 0.89955 0.7887 0.0
C268 C 0.72793 0.94073 0.79308 0.0
C269 C 0.74074 0.99295 0.80454 0.0
C270 C 0.7993 1.00489 0.8117 0.0
C271 C 0.84472 0.96403 0.80723 0.0
C272 C 0.8319 0.91176 0.7959 0.0
C273 C 0.78127 0.67477 0.78363 0.0
C274 C 0.81613 0.63634 0.77148 0.0
C275 C 0.83674 0.582 0.77947 0.0
C276 C 0.82388 0.56537 0.79992 0.0
C277 C 0.78828 0.60302 0.81204 0.0
C278 C 0.76712 0.6573 0.80395 0.0
C279 C 0.7605 0.73318 0.77498 0.0
C280 C 0.77426 0.78744 0.78536 0.0
C281 C 0.73 0.73551 0.75581 0.0
C282 C 0.70977 0.68009 0.74498 0.0
C283 C 0.73241 0.66654 0.72535 0.0
C284 C 0.71469 0.61343 0.71537 0.0
C285 C 0.67328 0.5738 0.72472 0.0
C286 C 0.64982 0.5877 0.74419 0.0
C287 C 0.66836 0.64035 0.75435 0.0
H288 H 0.37943 0.38134 0.01566 0.0
H289 H 0.29392 0.35805 0.99251 0.0
H290 H 0.35721 0.49349 0.94967 0.0
H291 H 0.44352 0.51536 0.97242 0.0
H292 H 0.5311 0.42829 0.98687 0.0
H293 H 0.41287 0.46036 0.06549 0.0
H294 H 0.3205 0.5001 0.08046 0.0
H295 H 0.29144 0.60496 0.02536 0.0
H296 H 0.38405 0.56637 0.01052 0.0
H297 H 0.61102 0.60319 0.04567 0.0
H298 H 0.70444 0.6318 0.0638 0.0
H299 H 0.75622 0.44604 0.06534 0.0
H300 H 0.66274 0.41718 0.04721 0.0
H301 H 0.51334 0.52738 0.05525 0.0
H302 H 0.66806 0.54293 1.0032 0.0
H303 H 0.76232 0.52144 0.98536 0.0
H304 H 0.71462 0.33253 0.98425 0.0
H305 H 0.6205 0.35379 1.00224 0.0
C306 C 0.41753 0.45024 0.99576 0.0
C307 C 0.37488 0.40587 1.00127 0.0
C308 C 0.32643 0.39247 0.98807 0.0
C309 C 0.3195 0.42404 0.96939 0.0
C310 C 0.36199 0.46857 0.96397 0.0
C311 C 0.411 0.48106 0.97694 0.0
C312 C 0.47011 0.46369 0.00925 0.0
C313 C 0.52707 0.44929 1.00194 0.0
C314 C 0.46472 0.49164 0.02879 0.0
C315 C 0.40545 0.51019 0.03685 0.0
C316 C 0.38602 0.49095 0.05645 0.0
C317 C 0.33297 0.5129 0.06488 0.0
C318 C 0.29871 0.55461 0.05385 0.0
C319 C 0.31656 0.57176 0.03389 0.0
C320 C 0.3696 0.54992 0.02549 0.0
C321 C 0.6295 0.50799 0.04511 0.0
C322 C 0.64223 0.5685 0.04996 0.0
C323 C 0.69591 0.58493 0.06003 0.0
C324 C 0.73783 0.54118 0.06555 0.0
C325 C 0.72508 0.4806 0.06087 0.0
C326 C 0.67148 0.46418 0.05072 0.0
C327 C 0.57456 0.49132 0.03289 0.0
C328 C 0.51716 0.50509 0.04041 0.0
C329 C 0.57906 0.46294 0.01343 0.0
C330 C 0.63763 0.44983 1.00406 0.0
C331 C 0.67844 0.49678 0.99948 0.0
C332 C 0.73202 0.48463 0.98936 0.0
C333 C 0.74507 0.4255 0.98368 0.0
C334 C 0.70513 0.37834 0.98873 0.0
C335 C 0.65155 0.39049 0.99881 0.0
H336 H 0.92108 0.55434 0.47039 0.0
H337 H 0.82683 0.58992 0.45542 0.0
H338 H 0.77643 0.66203 0.51459 0.0
H339 H 0.87075 0.62613 0.52971 0.0
H340 H 0.01502 0.60683 0.48755 0.0
H341 H 0.8753 0.46403 0.50448 0.0
H342 H 0.77847 0.42135 0.51528 0.0
H343 H 0.81612 0.47448 0.57818 0.0
H344 H 0.912 0.52059 0.56722 0.0
H345 H 0.09705 0.54582 0.56985 0.0
H346 H 0.1837 0.50731 0.58897 0.0
H347 H 0.25429 0.43528 0.53242 0.0
H348 H 0.1662 0.4696 0.51359 0.0
H349 H 0.01182 0.48245 0.55124 0.0
H350 H 0.16114 0.64028 0.51941 0.0
H351 H 0.24533 0.66734 0.49755 0.0
H352 H 0.18821 0.53136 0.45375 0.0
H353 H 0.10365 0.50691 0.47519 0.0
C354 C 0.90296 0.58736 0.50118 0.0
C355 C 0.88999 0.57801 0.48015 0.0
C356 C 0.83611 0.59787 0.47166 0.0
C357 C 0.79447 0.62788 0.48398 0.0
C358 C 0.8077 0.63829 0.50492 0.0
C359 C 0.86147 0.61797 0.51348 0.0
C360 C 0.9591 0.56378 0.51042 0.0
C361 C 0.01432 0.57971 0.50152 0.0
C362 C 0.95806 0.5255 0.5279 0.0
C363 C 0.90076 0.49667 0.53497 0.0
C364 C 0.86254 0.46756 0.52057 0.0
C365 C 0.80738 0.44284 0.5267 0.0
C366 C 0.79023 0.44465 0.5475 0.0
C367 C 0.82866 0.47266 0.56203 0.0
C368 C 0.88348 0.49853 0.55581 0.0
C369 C 0.12488 0.51153 0.5401 0.0
C370 C 0.13146 0.52236 0.56146 0.0
C371 C 0.18128 0.5011 0.57238 0.0
C372 C 0.22593 0.46913 0.5621 0.0
C373 C 0.22097 0.46084 0.5406 0.0
C374 C 0.17055 0.48083 0.5298 0.0
C375 C 0.06851 0.52894 0.52915 0.0
C376 C 0.01267 0.51081 0.53759 0.0
C377 C 0.06879 0.56122 0.51022 0.0
C378 C 0.12394 0.57436 0.49827 0.0
C379 C 0.16569 0.61831 0.50456 0.0
C380 C 0.21296 0.63526 0.49144 0.0
C381 C 0.21776 0.6113 0.47115 0.0
C382 C 0.18105 0.56011 0.46686 0.0
C383 C 0.13335 0.54379 0.47972 0.0
Fe384 Fe 1.0101 0.77854 0.16309 0.0
O385 O 0.06439 0.74052 0.1428 0.0
Fe386 Fe 0.87373 0.78302 0.1371 0.0
Fe387 Fe 0.15084 0.75374 0.14495 0.0
O388 O 0.96102 0.79848 0.13818 0.0
O389 O 0.96125 0.79737 0.13611 0.0
O390 O 0.06375 0.73727 0.14073 0.0
Fe391 Fe 0.01619 0.75971 0.11545 0.0
C392 C 0.10746 0.86744 0.16761 0.0
O393 O 0.06626 0.74993 0.18702 0.0
O394 O 0.14022 0.69846 0.17054 0.0
O395 O 0.96729 0.67776 0.11577 0.0
O396 O 0.87422 0.71286 0.11681 0.0
O397 O 0.87216 0.72213 0.16167 0.0
O398 O 0.96749 0.69812 0.16661 0.0
O399 O 0.15545 0.68857 0.12204 0.0
O400 O 0.08338 0.71609 0.09783 0.0
C401 C 0.91216 0.68815 0.16932 0.0
O402 O 0.95678 0.79174 0.09234 0.0
O403 O 0.87892 0.8353 0.11068 0.0
O404 O 0.05402 0.85973 0.16126 0.0
O405 O 0.14595 0.82605 0.16554 0.0
C406 C 0.10686 0.70888 0.18655 0.0
C407 C 0.13177 0.68754 0.10357 0.0
C408 C 0.12127 0.84694 0.11106 0.0
O409 O 0.15705 0.81404 0.12117 0.0
O410 O 0.06426 0.84047 0.11211 0.0
C411 C 0.9108 0.67212 0.11214 0.0
O412 O 0.87267 0.8494 0.15936 0.0
O413 O 0.94827 0.82281 0.18131 0.0
C414 C 0.90886 0.82491 0.09381 0.0
C415 C 0.90196 0.8547 0.17663 0.0
Fe416 Fe 0.50478 0.78194 0.41557 0.0
O417 O 0.54174 0.73213 0.39359 0.0
Fe418 Fe 0.47637 0.91749 0.39138 0.0
Fe419 Fe 0.53245 0.64389 0.39485 0.0
O420 O 0.47296 0.82936 0.39184 0.0
O421 O 0.47332 0.8294 0.38971 0.0
O422 O 0.54268 0.73247 0.39134 0.0
Fe423 Fe 0.51037 0.78033 0.36732 0.0
C424 C 0.58893 0.68655 0.43471 0.0
O425 O 0.42798 0.73054 0.41502 0.0
O426 O 0.46915 0.64189 0.41854 0.0
O427 O 0.46851 0.83777 0.34563 0.0
O428 O 0.42098 0.90833 0.36597 0.0
O429 O 0.41298 0.90636 0.41427 0.0
O430 O 0.45841 0.83818 0.43582 0.0
O431 O 0.46411 0.63647 0.37342 0.0
O432 O 0.43259 0.72803 0.36521 0.0
C433 C 0.41662 0.87633 0.43144 0.0
O434 O 0.58707 0.83691 0.36654 0.0
O435 O 0.54317 0.92613 0.37002 0.0
O436 O 0.54772 0.72667 0.43765 0.0
O437 O 0.59475 0.65482 0.41804 0.0
C438 C 0.42554 0.67685 0.42138 0.0
C439 C 0.42751 0.67101 0.36436 0.0
C440 C 0.58595 0.66977 0.35185 0.0
O441 O 0.59026 0.64436 0.36989 0.0
O442 O 0.55466 0.71785 0.34767 0.0
C443 C 0.43134 0.88203 0.34839 0.0
O444 O 0.54004 0.92514 0.41497 0.0
O445 O 0.58018 0.83465 0.41734 0.0
C446 C 0.58636 0.89426 0.36387 0.0
C447 C 0.58128 0.89046 0.4213 0.0
Fe448 Fe 0.51696 0.27037 0.66255 0.0
O449 O 0.55941 0.30204 0.63768 0.0
Fe450 Fe 0.37587 0.22937 0.64405 0.0
Fe451 Fe 0.64719 0.30085 0.63614 0.0
O452 O 0.46419 0.22738 0.64223 0.0
O453 O 0.46312 0.22814 0.64027 0.0
O454 O 0.5582 0.30287 0.63551 0.0
Fe455 Fe 0.50704 0.2569 0.61506 0.0
C456 C 0.61272 0.36665 0.67495 0.0
O457 O 0.57245 0.19769 0.66435 0.0
O458 O 0.65888 0.24712 0.66216 0.0
O459 O 0.448 0.20166 0.59756 0.0
O460 O 0.37941 0.16439 0.62121 0.0
O461 O 0.39186 0.17467 0.66895 0.0
O462 O 0.46634 0.22817 0.6862 0.0
O463 O 0.65252 0.226 0.61711 0.0
O464 O 0.56131 0.1829 0.61696 0.0
C465 C 0.42573 0.18539 0.68489 0.0
O466 O 0.45027 0.32969 0.61085 0.0
O467 O 0.3621 0.2889 0.62035 0.0
O468 O 0.5755 0.32401 0.68071 0.0
O469 O 0.63914 0.36987 0.65711 0.0
C470 C 0.62788 0.2026 0.66869 0.0
C471 C 0.61706 0.18189 0.613 0.0
C472 C 0.60636 0.33432 0.59259 0.0
O473 O 0.63543 0.349 0.60933 0.0
O474 O 0.5622 0.29468 0.59142 0.0
C475 C 0.40577 0.16372 0.60326 0.0
O476 O 0.37346 0.30053 0.66534 0.0
O477 O 0.46338 0.34346 0.66174 0.0
C478 C 0.39284 0.3283 0.61056 0.0
C479 C 0.40969 0.34506 0.66784 0.0
Fe480 Fe 0.01621 0.27516 0.91334 0.0
O481 O 0.04356 0.22208 0.8905 0.0
Fe482 Fe 1.00661 0.41432 0.88938 0.0
Fe483 Fe 0.02801 0.1351 0.89125 0.0
O484 O 0.98876 0.32767 0.89021 0.0
O485 O 0.98749 0.32719 0.88811 0.0
O486 O 0.04347 0.22205 0.88826 0.0
Fe487 Fe 0.01198 0.2726 0.86506 0.0
C488 C 0.0881 0.17153 0.9318 0.0
O489 O 0.93382 0.23368 0.91417 0.0
O490 O 0.96371 0.139 0.91447 0.0
O491 O 0.97386 0.33715 0.84431 0.0
O492 O 0.94448 0.41511 0.8657 0.0
O493 O 0.9472 0.41379 0.91383 0.0
O494 O 0.98165 0.33662 0.9343 0.0
O495 O 0.96021 0.13308 0.8696 0.0
O496 O 0.92912 0.2274 0.86546 0.0
C497 C 0.94712 0.3819 0.93068 0.0
O498 O 0.09491 0.31528 0.86245 0.0
O499 O 0.07023 0.41134 0.86651 0.0
O500 O 0.05004 0.21405 0.93482 0.0
O501 O 0.09157 0.14061 0.91477 0.0
C502 C 0.92575 0.17899 0.9192 0.0
C503 C 0.9221 0.17056 0.86298 0.0
C504 C 0.07627 0.15827 0.84796 0.0
O505 O 0.08438 0.13329 0.86596 0.0
O506 O 0.04467 0.20647 0.84445 0.0
C507 C 0.94513 0.38714 0.84807 0.0
O508 O 0.07531 0.41197 0.91101 0.0
O509 O 0.0989 0.31606 0.9145 0.0
C510 C 0.10417 0.37117 0.85925 0.0
C511 C 0.11045 0.37147 0.91745 0.0
C512 C 0.2549 0.88553 0.44799 0.0
C513 C 0.26083 0.90432 0.46884 0.0
C514 C 0.37056 0.89945 0.46631 0.0
C515 C 0.36427 0.87992 0.44549 0.0
N516 N 0.30078 0.83502 0.41917 0.0
N517 N 0.32231 0.91727 0.49932 0.0
C518 C 0.30645 0.86711 0.43713 0.0
C519 C 0.31818 0.90776 0.47847 0.0
N520 N 0.2004 0.88744 0.43824 0.0
N521 N 0.42626 0.91159 0.47429 0.0
H522 H 0.28486 0.92358 0.50864 0.0
H523 H 0.36211 0.91417 0.5077 0.0
H524 H 0.46547 0.90189 0.46643 0.0
H525 H 0.4337 0.93347 0.48832 0.0
H526 H 0.19494 0.8807 0.4224 0.0
H527 H 0.16132 0.90097 0.44557 0.0
H528 H 0.25973 0.81891 0.4135 0.0
H529 H 0.33753 0.81862 0.41114 0.0
C530 C 0.43638 0.03783 0.7136 0.0
C531 C 0.38452 0.04181 0.72602 0.0
C532 C 0.3763 0.14865 0.71718 0.0
C533 C 0.42059 0.14107 0.70183 0.0
N534 N 0.49236 0.07859 0.68467 0.0
N535 N 0.30487 0.10024 0.74041 0.0
C536 C 0.45142 0.08601 0.70009 0.0
C537 C 0.35501 0.09741 0.72839 0.0
N538 N 0.47057 0.98749 0.71459 0.0
N539 N 0.35423 0.20463 0.72069 0.0
H540 H 0.28897 0.06384 0.74913 0.0
H541 H 0.27732 0.13747 0.74102 0.0
H542 H 0.36925 0.24247 0.7125 0.0
H543 H 0.32523 0.21454 0.73273 0.0
H544 H 0.51132 0.98334 0.70701 0.0
H545 H 0.46063 0.95162 0.7245 0.0
H546 H 0.51139 0.03757 0.68101 0.0
H547 H 0.50462 0.113 0.67454 0.0
C548 C 0.22471 0.18149 0.96634 0.0
C549 C 0.2315 0.12023 0.97165 0.0
C550 C 0.13588 0.09447 0.95475 0.0
C551 C 0.12994 0.15577 0.94891 0.0
N552 N 0.15658 0.25971 0.95691 0.0
N553 N 0.18766 0.0213 0.97598 0.0
C554 C 0.17022 0.20009 0.95721 0.0
C555 C 0.18501 0.07755 0.96748 0.0
N556 N 0.27139 0.22159 0.969 0.0
N557 N 0.09467 0.05254 0.94801 0.0
H558 H 0.22298 1.00802 0.9855 0.0
H559 H 0.15286 0.98954 0.97513 0.0
H560 H 0.05504 0.06412 0.94048 0.0
H561 H 0.10031 1.00632 0.94937 0.0
H562 H 0.27135 0.26509 0.963 0.0
H563 H 0.31228 0.21013 0.97568 0.0
H564 H 0.18208 0.29234 0.9647 0.0
H565 H 0.11625 0.27622 0.95149 0.0
C566 C 0.11991 0.03264 0.18545 0.0
C567 C 0.15494 0.02658 0.20371 0.0
C568 C 0.15266 0.91681 0.19956 0.0
C569 C 0.123 0.92268 0.18007 0.0
N570 N 0.08127 0.98777 0.15381 0.0
N571 N 0.20994 0.96374 0.22728 0.0
C572 C 0.10691 0.98104 0.17292 0.0
C573 C 0.17325 0.96897 0.21037 0.0
N574 N 0.09871 0.08793 0.18011 0.0
N575 N 0.15691 0.86162 0.20874 0.0
H576 H 0.22172 0.9997 0.2369 0.0
H577 H 0.23195 0.92425 0.23106 0.0
H578 H 0.13941 0.8224 0.20227 0.0
H579 H 0.17152 0.85525 0.22388 0.0
H580 H 0.06612 0.09458 0.16881 0.0
H581 H 0.11112 0.12741 0.18785 0.0
H582 H 0.07555 0.02918 0.14663 0.0
H583 H 0.06977 0.95203 0.14411 0.0
C584 C 0.29805 0.04397 0.58804 0.0
C585 C 0.28109 0.06381 0.56804 0.0
C586 C 0.36891 0.13248 0.56709 0.0
C587 C 0.38 0.1185 0.58824 0.0
N588 N 0.37734 0.04 0.61374 0.0
N589 N 0.30977 0.11121 0.53602 0.0
C590 C 0.35207 0.06667 0.59687 0.0
C591 C 0.31975 0.10315 0.55671 0.0
N592 N 0.26083 1.00703 0.59925 0.0
N593 N 0.40455 0.17347 0.55704 0.0
H594 H 0.27492 0.08912 0.5281 0.0
H595 H 0.33806 0.13581 0.52631 0.0
H596 H 0.44641 0.18723 0.56262 0.0
H597 H 0.39367 0.19278 0.54288 0.0
H598 H 0.26839 0.99682 0.61476 0.0
H599 H 0.2199 0.99035 0.59365 0.0
H600 H 0.36175 0.99932 0.61989 0.0
H601 H 0.41803 0.05565 0.61998 0.0
C602 C 0.08494 0.03211 0.80963 0.0
C603 C 0.14799 0.02749 0.80737 0.0
C604 C 0.16335 0.11989 0.8277 0.0
C605 C 0.1004 0.12378 0.83024 0.0
N606 N 1.00118 0.09426 0.81896 0.0
N607 N 0.2463 0.07381 0.80969 0.0
C608 C 0.06122 0.08354 0.81951 0.0
C609 C 0.18697 0.07377 0.81494 0.0
N610 N 0.04787 0.98572 0.80348 0.0
N611 N 0.20041 0.15929 0.83805 0.0
H612 H 0.26465 0.04073 0.80032 0.0
H613 H 0.27621 0.10892 0.81313 0.0
H614 H 0.18407 0.19558 0.84643 0.0
H615 H 0.24675 0.15488 0.83899 0.0
H616 H 1.00235 0.9832 0.80694 0.0
H617 H 0.06325 0.9471 0.79624 0.0
H618 H 0.97057 0.06992 0.8099 0.0
H619 H 0.98303 0.13182 0.82593 0.0
C620 C 0.20566 0.87608 0.06276 0.0
C621 C 0.24229 0.92704 0.06803 0.0
C622 C 0.18855 0.93435 0.10089 0.0
C623 C 0.14968 0.88606 0.09499 0.0
N624 N 0.10923 0.82586 0.06705 0.0
N625 N 0.2507 0.01728 0.08879 0.0
C626 C 0.1534 0.86308 0.07461 0.0
C627 C 0.22769 0.96054 0.08598 0.0
N628 N 0.22324 0.83643 0.04794 0.0
N629 N 0.19084 0.95315 0.12094 0.0
H630 H 0.27687 0.03907 0.07763 0.0
H631 H 0.23791 0.0447 0.10102 0.0
H632 H 0.16455 0.93329 0.1324 0.0
H633 H 0.22254 0.9845 0.12635 0.0
H634 H 0.20035 0.79597 0.04504 0.0
H635 H 0.26447 0.83961 0.04048 0.0
H636 H 0.1085 0.81079 0.05178 0.0
H637 H 0.07026 0.81601 0.0753 0.0
C638 C 0.31331 0.97322 0.32389 0.0
C639 C 0.34371 0.99915 0.30667 0.0
C640 C 0.42969 0.93437 0.31343 0.0
C641 C 0.39866 0.90831 0.33049 0.0
N642 N 0.30344 0.8865 0.34639 0.0
N643 N 0.42108 0.98861 0.28103 0.0
C644 C 0.33752 0.92176 0.33355 0.0
C645 C 0.39864 0.97422 0.30006 0.0
N646 N 0.26462 1.0003 0.33232 0.0
N647 N 0.48949 0.92503 0.3107 0.0
H648 H 0.39847 0.01642 0.27071 0.0
H649 H 0.45839 0.9679 0.27476 0.0
H650 H 0.51429 0.89606 0.31985 0.0
H651 H 0.51538 0.94925 0.30008 0.0
H652 H 0.24494 0.98574 0.34608 0.0
H653 H 0.24784 0.04095 0.32705 0.0
H654 H 0.2573 0.89159 0.34804 0.0
H655 H 0.32056 0.84825 0.35354 0.0
C656 C 0.72804 0.06348 0.60052 0.0
C657 C 0.72815 0.06874 0.57863 0.0
C658 C 0.63474 0.12518 0.58004 0.0
C659 C 0.64214 0.12993 0.6017 0.0
N660 N 0.67311 0.07941 0.63235 0.0
N661 N 0.67912 0.09895 0.54708 0.0
C662 C 0.68209 0.09163 0.61195 0.0
C663 C 0.67985 0.09673 0.5682 0.0
N664 N 0.77364 0.03479 0.61041 0.0
N665 N 0.58356 0.14567 0.57104 0.0
H666 H 0.71024 0.07658 0.53801 0.0
H667 H 0.64936 0.12473 0.53854 0.0
H668 H 0.5499 0.16578 0.57959 0.0
H669 H 0.57228 0.1387 0.55558 0.0
H670 H 0.77975 0.03582 0.62638 0.0
H671 H 0.80715 0.01226 0.60249 0.0
H672 H 0.69591 0.04614 0.64035 0.0
H673 H 0.63766 0.09821 0.64047 0.0
C674 C 0.6894 0.95959 0.32156 0.0
C675 C 0.69452 0.01965 0.32906 0.0
C676 C 0.65223 0.98604 0.36199 0.0
C677 C 0.63576 0.92925 0.35329 0.0
N678 N 0.63504 0.86421 0.32332 0.0
N679 N 0.66837 0.09171 0.35535 0.0
C680 C 0.65416 0.91607 0.33274 0.0
C681 C 0.6731 0.03325 0.34906 0.0
N682 N 0.71856 0.94399 0.30389 0.0
N683 N 0.64676 0.99544 0.38271 0.0
H684 H 0.67933 0.12847 0.346 0.0
H685 H 0.64705 0.10389 0.36899 0.0
H686 H 0.63098 0.96213 0.39262 0.0
H687 H 0.66368 0.03374 0.39017 0.0
H688 H 0.72118 0.89975 0.29871 0.0
H689 H 0.74492 0.97457 0.2955 0.0
H690 H 0.64122 0.85579 0.30763 0.0
H691 H 0.60902 0.83145 0.33071 0.0
C692 C 0.83765 0.93594 0.05743 0.0
C693 C 0.78991 0.89862 0.05 0.0
C694 C 0.84011 0.81003 0.06383 0.0
C695 C 0.88059 0.84838 0.07473 0.0
N696 N 0.92156 0.94715 0.08139 0.0
N697 N 0.74382 0.79987 0.04661 0.0
C698 C 0.88106 0.91121 0.07109 0.0
C699 C 0.79122 0.83534 0.05293 0.0
N700 N 0.84113 0.99482 0.05139 0.0
N701 N 0.84788 0.74931 0.06433 0.0
H702 H 0.70693 0.81641 0.03861 0.0
H703 H 0.73882 0.75464 0.05056 0.0
H704 H 0.88362 0.73022 0.07218 0.0
H705 H 0.82313 0.71879 0.05536 0.0
H706 H 0.8772 0.02346 0.05489 0.0
H707 H 0.80995 0.01369 0.04131 0.0
H708 H 0.92023 0.99393 0.08146 0.0
H709 H 0.95571 0.92947 0.09055 0.0
C710 C 0.83098 0.11331 0.81699 0.0
C711 C 0.81307 0.05701 0.82551 0.0
C712 C 0.84027 0.09318 0.8601 0.0
C713 C 0.87016 0.14379 0.85118 0.0
N714 N 0.88896 0.20613 0.8212 0.0
N715 N 0.79518 0.99401 0.85521 0.0
C716 C 0.86236 0.15617 0.82972 0.0
C717 C 0.81491 0.04772 0.84716 0.0
N718 N 0.81878 0.12506 0.79667 0.0
N719 N 0.83712 0.08862 0.88111 0.0
H720 H 0.77356 0.96096 0.84631 0.0
H721 H 0.80228 0.9809 0.87047 0.0
H722 H 0.8563 0.12111 0.89071 0.0
H723 H 0.81154 0.0563 0.88891 0.0
H724 H 0.8255 0.16689 0.78975 0.0
H725 H 0.79718 0.09384 0.78702 0.0
H726 H 0.89201 0.21391 0.80537 0.0
H727 H 0.91044 0.23933 0.82996 0.0
C728 C 0.74126 0.91977 0.44087 0.0
C729 C 0.72944 0.93785 0.46145 0.0
C730 C 0.62218 0.94281 0.45326 0.0
C731 C 0.63267 0.91473 0.43385 0.0
N732 N 0.70321 0.87579 0.40908 0.0
N733 N 0.65819 0.95952 0.48823 0.0
C734 C 0.69261 0.90307 0.42763 0.0
C735 C 0.66982 0.94791 0.46788 0.0
N736 N 0.79902 0.92033 0.4338 0.0
N737 N 0.56717 0.96521 0.45784 0.0
H738 H 0.69172 0.96333 0.49948 0.0
H739 H 0.61502 0.95996 0.49432 0.0
H740 H 0.53065 0.96322 0.44783 0.0
H741 H 0.55928 0.99153 0.47084 0.0
H742 H 0.81033 0.91394 0.41837 0.0
H743 H 0.83571 0.9328 0.44302 0.0
H744 H 0.74487 0.8596 0.4048 0.0
H745 H 0.66973 0.86634 0.39822 0.0
C746 C 0.82075 0.98619 0.20194 0.0
C747 C 0.85787 0.99797 0.21936 0.0
C748 C 0.90725 0.9033 0.21232 0.0
C749 C 0.88287 0.90183 0.19183 0.0
N750 N 0.82832 0.96152 0.16616 0.0
N751 N 0.94925 0.97154 0.23759 0.0
C752 C 0.84235 0.94836 0.18623 0.0
C753 C 0.90496 0.95766 0.22367 0.0
N754 N 0.76573 1.01157 0.20008 0.0
N755 N 0.92989 0.85327 0.22152 0.0
H756 H 0.9532 0.01332 0.24479 0.0
H757 H 0.98603 0.94384 0.23984 0.0
H758 H 0.92378 0.81017 0.21546 0.0
H759 H 0.94577 0.8538 0.23673 0.0
H760 H 0.73667 1.0011 0.18785 0.0
H761 H 0.74701 0.03694 0.21191 0.0
H762 H 0.80031 0.99698 0.16231 0.0
H763 H 0.85197 0.94586 0.15351 0.0
C764 C 0.76612 0.16998 0.94111 0.0
C765 C 0.77247 0.1237 0.95603 0.0
C766 C 0.88049 0.123 0.94951 0.0
C767 C 0.87281 0.16188 0.93223 0.0
N768 N 0.80442 0.21524 0.90975 0.0
N769 N 0.83442 0.04869 0.97202 0.0
C770 C 0.8146 0.18388 0.92758 0.0
C771 C 0.82929 0.09798 0.95953 0.0
N772 N 0.71424 0.20169 0.94016 0.0
N773 N 0.93649 0.11267 0.95726 0.0
H774 H 0.79799 0.02864 0.9796 0.0
H775 H 0.87386 0.02446 0.9733 0.0
H776 H 0.97496 0.13407 0.95161 0.0
H777 H 0.94393 0.08901 0.97092 0.0
H778 H 0.70963 0.24029 0.93117 0.0
H779 H 0.67789 0.19299 0.94989 0.0
H780 H 0.76162 0.22644 0.90468 0.0
H781 H 0.83747 0.22478 0.89885 0.0
C782 C 0.6447 0.10405 0.71684 0.0
C783 C 0.68812 0.06308 0.70981 0.0
C784 C 0.70565 0.12612 0.67913 0.0
C785 C 0.65416 0.15997 0.68405 0.0
N786 N 0.57996 0.18751 0.7092 0.0
N787 N 0.75682 0.03171 0.68335 0.0
C788 C 0.62523 0.15067 0.70342 0.0
C789 C 0.71846 0.07365 0.69086 0.0
N790 N 0.62401 0.09971 0.73669 0.0
N791 N 0.74262 0.14369 0.66336 0.0
H792 H 0.76652 0.99197 0.69114 0.0
H793 H 0.77509 0.03375 0.66856 0.0
H794 H 0.73389 0.17961 0.65355 0.0
H795 H 0.78437 0.12478 0.66083 0.0
H796 H 0.59631 0.13102 0.74356 0.0
H797 H 0.63871 0.06716 0.74708 0.0
H798 H 0.55054 0.17812 0.72128 0.0
H799 H 0.5715 0.2278 0.70163 0.0
C800 C 0.85586 0.41174 0.97938 0.0
C801 C 0.79757 0.4136 0.97055 0.0
C802 C 0.83722 0.38497 0.93694 0.0
C803 C 0.89644 0.39067 0.94499 0.0
N804 N 0.96331 0.41135 0.97366 0.0
N805 N 0.73326 0.41177 0.9404 0.0
C806 C 0.90619 0.40424 0.96622 0.0
C807 C 0.78838 0.403 0.94918 0.0
N808 N 0.86274 0.4156 1.00037 0.0
N809 N 0.82725 0.35931 0.91797 0.0
H810 H 0.69592 0.42493 0.94882 0.0
H811 H 0.72586 0.41133 0.92448 0.0
H812 H 0.86145 0.34265 0.90877 0.0
H813 H 0.78458 0.34834 0.91234 0.0
H814 H 0.90311 0.40825 0.00803 0.0
H815 H 0.82683 0.42194 0.01038 0.0
H816 H 0.97352 0.42835 0.98828 0.0
H817 H 1.00104 0.40318 0.96477 0.0
C818 C 0.91398 0.53103 0.19295 0.0
C819 C 0.86974 0.53603 0.20848 0.0
C820 C 0.85494 0.64159 0.19913 0.0
C821 C 0.89487 0.63508 0.1822 0.0
N822 N 0.95544 0.56976 0.16108 0.0
N823 N 0.79023 0.5919 0.22413 0.0
C824 C 0.92251 0.57869 0.17859 0.0
C825 C 0.83774 0.59005 0.21087 0.0
N826 N 0.9497 0.48164 0.19245 0.0
N827 N 0.83659 0.69739 0.20497 0.0
H828 H 0.77669 0.55522 0.23317 0.0
H829 H 0.76112 0.62797 0.22482 0.0
H830 H 0.85004 0.73694 0.19755 0.0
H831 H 0.813 0.7052 0.21855 0.0
H832 H 0.98773 0.47884 0.18323 0.0
H833 H 0.94501 0.44568 0.20272 0.0
H834 H 0.97055 0.52776 0.15654 0.0
H835 H 0.96261 0.60261 0.14983 0.0
C836 C 0.68224 0.62121 0.47812 0.0
C837 C 0.7384 0.65053 0.47439 0.0
C838 C 0.6937 0.70933 0.44648 0.0
C839 C 0.63738 0.68069 0.45028 0.0
N840 N 0.57433 0.61924 0.47211 0.0
N841 N 0.7937 0.73337 0.45918 0.0
C842 C 0.63039 0.6401 0.46703 0.0
C843 C 0.74274 0.69826 0.45992 0.0
N844 N 0.67916 0.5733 0.49137 0.0
N845 N 0.70122 0.74488 0.4294 0.0
H846 H 0.83024 0.72686 0.46903 0.0
H847 H 0.79751 0.77232 0.45028 0.0
H848 H 0.66618 0.75548 0.4194 0.0
H849 H 0.74304 0.76018 0.42431 0.0
H850 H 0.64116 0.54587 0.49307 0.0
H851 H 0.71603 0.5583 0.49977 0.0
H852 H 0.56522 0.59378 0.48528 0.0
H853 H 0.53596 0.6318 0.46399 0.0
C854 C 0.67823 0.46243 0.71855 0.0
C855 C 0.65291 0.51883 0.71355 0.0
C856 C 0.59377 0.47223 0.68559 0.0
C857 C 0.62348 0.41732 0.68929 0.0
N858 N 0.69436 0.35857 0.70845 0.0
N859 N 0.58723 0.57909 0.69266 0.0
C860 C 0.66532 0.41172 0.70572 0.0
C861 C 0.61054 0.52409 0.69722 0.0
N862 N 0.71462 0.45763 0.73555 0.0
N863 N 0.54845 0.47415 0.67126 0.0
H864 H 0.59519 0.61726 0.7017 0.0
H865 H 0.5619 0.58797 0.67949 0.0
H866 H 0.53612 0.43748 0.66205 0.0
H867 H 0.51998 0.51034 0.66941 0.0
H868 H 0.72976 0.41701 0.74141 0.0
H869 H 0.72725 0.49433 0.74472 0.0
H870 H 0.73006 0.35278 0.71862 0.0
H871 H 0.68461 0.32021 0.69968 0.0
C872 C 0.78416 0.56518 0.10001 0.0
C873 C 0.79131 0.55875 0.0784 0.0
C874 C 0.89238 0.60557 0.08073 0.0
C875 C 0.88233 0.61781 0.10201 0.0
N876 N 0.82805 0.59331 0.13296 0.0
N877 N 0.85612 0.5585 0.0488 0.0
C878 C 0.83135 0.59167 0.11193 0.0
C879 C 0.84713 0.57383 0.06899 0.0
N880 N 0.73082 0.54879 0.10899 0.0
N881 N 0.94319 0.62774 0.07153 0.0
H882 H 0.82332 0.5364 0.03992 0.0
H883 H 0.89685 0.56378 0.04117 0.0
H884 H 0.97735 0.64946 0.07983 0.0
H885 H 0.95105 0.6266 0.0557 0.0
H886 H 0.71924 0.55955 0.12409 0.0
H887 H 0.69634 0.52642 0.10099 0.0
H888 H 0.79591 0.57029 0.14167 0.0
H889 H 0.86139 0.61407 0.14173 0.0
C890 C 0.61972 0.5378 0.31641 0.0
C891 C 0.6792 0.55244 0.31056 0.0
C892 C 0.66975 0.65289 0.32629 0.0
C893 C 0.61355 0.63467 0.33471 0.0
N894 N 0.53808 0.55632 0.33934 0.0
N895 N 0.76191 0.62319 0.30914 0.0
C896 C 0.58909 0.57657 0.3299 0.0
C897 C 0.70434 0.61021 0.31505 0.0
N898 N 0.5923 0.48617 0.30929 0.0
N899 N 0.69039 0.71038 0.32949 0.0
H900 H 0.787 0.59361 0.3003 0.0
H901 H 0.78571 0.66181 0.31354 0.0
H902 H 0.66688 0.74133 0.33826 0.0
H903 H 0.72852 0.72869 0.32251 0.0
H904 H 0.54647 0.47727 0.31072 0.0
H905 H 0.61384 0.45396 0.30047 0.0
H906 H 0.52353 0.51152 0.33938 0.0
H907 H 0.51164 0.58394 0.34807 0.0
C908 C 0.7244 0.3529 0.55389 0.0
C909 C 0.73238 0.41647 0.55426 0.0
C910 C 0.63751 0.42595 0.57295 0.0
C911 C 0.63191 0.3624 0.57364 0.0
N912 N 0.65438 0.26889 0.55737 0.0
N913 N 0.68806 0.51384 0.55831 0.0
C914 C 0.67008 0.32712 0.56146 0.0
C915 C 0.68587 0.45323 0.56182 0.0
N916 N 0.76987 0.31687 0.54761 0.0
N917 N 0.59803 0.45967 0.58385 0.0
H918 H 0.72268 0.53471 0.55 0.0
H919 H 0.65331 0.54252 0.562 0.0
H920 H 0.56066 0.44021 0.59112 0.0
H921 H 0.60323 0.50579 0.5862 0.0
H922 H 0.76849 0.27021 0.54918 0.0
H923 H 0.81113 0.3336 0.54245 0.0
H924 H 0.67841 0.24131 0.54751 0.0
H925 H 0.61261 0.25168 0.56169 0.0
C926 C 0.82737 0.45787 0.81308 0.0
C927 C 0.85635 0.51451 0.80966 0.0
C928 C 0.94892 0.47567 0.82456 0.0
C929 C 0.91804 0.42235 0.83083 0.0
N930 N 0.82711 0.36276 0.83187 0.0
N931 N 0.94296 0.58 0.81427 0.0
C932 C 0.85709 0.41306 0.82507 0.0
C933 C 0.91685 0.52394 0.81581 0.0
N934 N 0.77177 0.44704 0.80478 0.0
N935 N 1.00949 0.48004 0.82709 0.0
H936 H 0.92142 0.61695 0.80791 0.0
H937 H 0.98427 0.59147 0.82088 0.0
H938 H 0.03361 0.44458 0.83301 0.0
H939 H 0.03608 0.51514 0.82131 0.0
H940 H 0.75026 0.4051 0.80506 0.0
H941 H 0.74895 0.47929 0.79621 0.0
H942 H 0.781 0.356 0.83025 0.0
H943 H 0.84849 0.32876 0.84006 0.0
C944 C 0.27006 0.64577 0.07362 0.0
C945 C 0.25255 0.58986 0.06482 0.0
C946 C 0.15153 0.59972 0.07958 0.0
C947 C 0.16867 0.65693 0.08764 0.0
N948 N 0.23894 0.74064 0.08733 0.0
N949 N 0.17481 0.51747 0.05624 0.0
C950 C 0.22634 0.68172 0.08309 0.0
C951 C 0.19251 0.56805 0.06675 0.0
N952 N 0.32913 0.66383 0.07363 0.0
N953 N 0.09738 0.57467 0.08493 0.0
H954 H 0.2042 0.49311 0.04709 0.0
H955 H 0.13045 0.50219 0.05535 0.0
H956 H 0.06649 0.59713 0.09405 0.0
H957 H 0.08449 0.53062 0.08138 0.0
H958 H 0.34554 0.70027 0.0822 0.0
H959 H 0.36303 0.6397 0.06655 0.0
H960 H 0.27771 0.76329 0.08248 0.0
H961 H 0.20717 0.76867 0.09348 0.0
C962 C 0.14674 0.4381 0.8094 0.0
C963 C 0.19568 0.47685 0.81517 0.0
C964 C 0.19728 0.42956 0.84941 0.0
C965 C 0.1486 0.3915 0.84354 0.0
N966 N 0.09558 0.3427 0.81549 0.0
N967 N 0.28224 0.48923 0.83752 0.0
C968 C 0.13118 0.38894 0.82249 0.0
C969 C 0.22615 0.46555 0.83413 0.0
N970 N 0.1104 0.45142 0.79301 0.0
N971 N 0.21408 0.43364 0.86967 0.0
H972 H 0.30547 0.51346 0.82616 0.0
H973 H 0.30772 0.47901 0.85057 0.0
H974 H 0.19365 0.40754 0.88111 0.0
H975 H 0.24533 0.46541 0.87508 0.0
H976 H 0.07144 0.42673 0.78955 0.0
H977 H 0.11383 0.4912 0.7846 0.0
H978 H 0.08456 0.33724 0.79991 0.0
H979 H 0.08302 0.30661 0.8249 0.0
C980 C 0.31896 0.46549 0.58519 0.0
C981 C 0.27193 0.43539 0.5741 0.0
C982 C 0.3163 0.33888 0.58257 0.0
C983 C 0.35818 0.36751 0.59614 0.0
N984 N 0.3959 0.45889 0.61192 0.0
N985 N 0.21836 0.34226 0.56678 0.0
C986 C 0.35899 0.43126 0.59779 0.0
C987 C 0.26852 0.37176 0.57408 0.0
N988 N 0.32598 0.5264 0.58339 0.0
N989 N 0.32319 0.28012 0.57724 0.0
H990 H 0.18075 0.36437 0.56117 0.0
H991 H 0.21145 0.296 0.56842 0.0
H992 H 0.35985 0.25592 0.58222 0.0
H993 H 0.29725 0.25834 0.56596 0.0
H994 H 0.3626 0.5503 0.58946 0.0
H995 H 0.29743 0.55242 0.57438 0.0
H996 H 0.39378 0.50446 0.61551 0.0
H997 H 0.42584 0.43529 0.62118 0.0
C998 C 0.30249 0.57247 0.34145 0.0
C999 C 0.33594 0.54709 0.32491 0.0
C1000 C 0.41072 0.6281 0.32936 0.0
C1001 C 0.38643 0.64235 0.34882 0.0
N1002 N 0.30475 0.63446 0.3726 0.0
N1003 N 0.42908 0.54735 0.3056 0.0
C1004 C 0.33065 0.61649 0.35463 0.0
C1005 C 0.3918 0.57441 0.31933 0.0
N1006 N 0.24367 0.55608 0.34409 0.0
N1007 N 0.45215 0.66582 0.32056 0.0
H1008 H 0.42082 0.50451 0.2996 0.0
H1009 H 0.47171 0.56439 0.3021 0.0
H1010 H 0.46241 0.70775 0.32699 0.0
H1011 H 0.4692 0.65922 0.30576 0.0
H1012 H 0.21573 0.57601 0.35485 0.0
H1013 H 0.22109 0.5266 0.33408 0.0
H1014 H 0.26632 0.61425 0.37872 0.0
H1015 H 0.32334 0.66905 0.38163 0.0
C1016 C 0.27289 0.37613 0.93775 0.0
C1017 C 0.26664 0.4119 0.95573 0.0
C1018 C 0.16062 0.42835 0.94717 0.0
C1019 C 0.16526 0.38869 0.92985 0.0
N1020 N 0.22587 0.32176 0.9094 0.0
N1021 N 0.20464 0.46776 0.97893 0.0
C1022 C 0.22148 0.36181 0.92536 0.0
C1023 C 0.21061 0.43698 0.96074 0.0
N1024 N 0.3285 0.35657 0.93233 0.0
N1025 N 0.10866 0.45823 0.95087 0.0
H1026 H 0.24069 0.47863 0.98865 0.0
H1027 H 0.16354 0.47933 0.98522 0.0
H1028 H 0.06829 0.44968 0.9433 0.0
H1029 H 0.10584 0.49449 0.96096 0.0
H1030 H 0.33814 0.33725 0.9181 0.0
H1031 H 0.36647 0.36287 0.94161 0.0
H1032 H 0.26201 0.29336 0.90747 0.0
H1033 H 0.1926 0.31493 0.89825 0.0
C1034 C 0.35218 0.50145 0.67897 0.0
C1035 C 0.37494 0.51195 0.69928 0.0
C1036 C 0.42535 0.41516 0.69772 0.0
C1037 C 0.39231 0.39955 0.67957 0.0
N1038 N 0.3221 0.42844 0.65301 0.0
N1039 N 0.46925 0.498 0.71673 0.0
C1040 C 0.35469 0.44272 0.67029 0.0
C1041 C 0.42203 0.47425 0.70579 0.0
N1042 N 0.33984 0.54914 0.66648 0.0
N1043 N 0.45956 0.37346 0.7075 0.0
H1044 H 0.47402 0.54431 0.7191 0.0
H1045 H 0.50714 0.47362 0.72065 0.0
H1046 H 0.46218 0.32921 0.70242 0.0
H1047 H 0.48028 0.38151 0.72174 0.0
H1048 H 0.32849 0.54462 0.65089 0.0
H1049 H 0.3506 0.5932 0.67092 0.0
H1050 H 0.29013 0.45702 0.64678 0.0
H1051 H 0.3237 0.38639 0.64593 0.0
C1052 C 0.29945 0.68786 0.46009 0.0
C1053 C 0.26401 0.63578 0.45566 0.0
C1054 C 0.33256 0.61259 0.42716 0.0
C1055 C 0.37309 0.6581 0.43418 0.0
N1056 N 0.39855 0.7328 0.46001 0.0
N1057 N 0.22765 0.58666 0.42473 0.0
C1058 C 0.3574 0.69409 0.45138 0.0
C1059 C 0.27485 0.60739 0.43634 0.0
N1060 N 0.27442 0.73568 0.46975 0.0
N1061 N 0.34818 0.57479 0.41155 0.0
H1062 H 0.18351 0.59663 0.42859 0.0
H1063 H 0.23229 0.56872 0.40996 0.0
H1064 H 0.38899 0.57822 0.40382 0.0
H1065 H 0.32185 0.53744 0.40737 0.0
H1066 H 0.29724 0.77638 0.47215 0.0
H1067 H 0.2284 0.73707 0.47257 0.0
H1068 H 0.39039 0.75646 0.47361 0.0
H1069 H 0.4428 0.73571 0.45495 0.0
C1070 C 0.18965 0.61231 0.22528 0.0
C1071 C 0.14262 0.57116 0.23028 0.0
C1072 C 0.0695 0.63914 0.21496 0.0
C1073 C 0.11756 0.67194 0.20548 0.0
N1074 N 0.22283 0.69822 0.2048 0.0
N1075 N 0.03729 0.54472 0.23047 0.0
C1076 C 0.17758 0.66139 0.21184 0.0
C1077 C 0.08225 0.58492 0.22565 0.0
N1078 N 0.24545 0.60439 0.23361 0.0
N1079 N 0.01208 0.65954 0.21412 0.0
H1080 H 0.04449 0.50414 0.23808 0.0
H1081 H 0.993 0.54964 0.22584 0.0
H1082 H 1.0001 0.7 0.2074 0.0
H1083 H 0.9769 0.64031 0.22251 0.0
H1084 H 0.28106 0.63487 0.23196 0.0
H1085 H 0.25486 0.56919 0.24375 0.0
H1086 H 0.26821 0.68928 0.20656 0.0
H1087 H 0.2146 0.73806 0.1968 0.0
loop_
_geom_bond_atom_site_label_1
_geom_bond_atom_site_label_2
_geom_bond_distance
_geom_bond_site_symmetry_2
_ccdc_geom_bond_type
H0 C19 0.949 . S
H1 C20 0.950 . S
H2 C22 0.950 1_545 S
H3 C23 0.950 . S
H4 C25 0.950 . S
H5 C28 0.950 1_565 S
H6 C29 0.950 . S
H7 C31 0.951 . S
H8 C32 0.949 . S
H9 C34 0.949 . S
H10 C35 0.950 . S
H11 C37 0.950 . S
H12 C38 0.950 1_565 S
H13 C40 0.950 . S
H14 C43 0.950 . S
H15 C44 0.950 1_545 S
H16 C46 0.951 . S
H17 C47 0.949 . S
C18 C19 1.376 . S
C18 C23 1.386 1_565 S
C18 C24 1.483 . S
C19 H0 0.949 . S
C19 C18 1.376 . S
C19 C20 1.397 . S
C20 H1 0.950 . S
C20 C19 1.397 . S
C20 C21 1.391 . S
C21 C20 1.391 . S
C21 C22 1.405 . S
C22 H2 0.950 1_565 S
C22 C21 1.405 . S
C22 C23 1.367 1_565 S
C23 H3 0.950 . S
C23 C18 1.386 1_545 S
C23 C22 1.367 1_545 S
C24 C18 1.483 . S
C24 C25 1.382 . S
C24 C26 1.403 1_565 S
C25 H4 0.950 . S
C25 C24 1.382 . S
C25 C41 1.411 1_655 S
C26 C24 1.403 1_545 S
C26 C27 1.489 . S
C26 C40 1.411 1_655 S
C27 C26 1.489 . S
C27 C28 1.383 . S
C27 C32 1.382 . S
C28 H5 0.950 1_545 S
C28 C27 1.383 . S
C28 C29 1.395 . S
C29 H6 0.950 . S
C29 C28 1.395 . S
C29 C30 1.288 . S
C30 C29 1.288 . S
C30 C31 1.392 . S
C31 H7 0.951 . S
C31 C30 1.392 . S
C31 C32 1.392 . S
C32 H8 0.949 . S
C32 C27 1.382 . S
C32 C31 1.392 . S
C33 C34 1.376 . S
C33 C38 1.386 . S
C33 C39 1.483 . S
C34 H9 0.949 . S
C34 C33 1.376 . S
C34 C35 1.397 . S
C35 H10 0.950 . S
C35 C34 1.397 . S
C35 C36 1.391 . S
C36 C35 1.391 . S
C36 C37 1.405 . S
C37 H11 0.950 . S
C37 C36 1.405 . S
C37 C38 1.367 . S
C38 H12 0.950 1_545 S
C38 C33 1.386 . S
C38 C37 1.367 . S
C39 C33 1.483 . S
C39 C40 1.382 . S
C39 C41 1.403 1_545 S
C40 H13 0.950 . S
C40 C26 1.411 1_455 S
C40 C39 1.382 . S
C41 C25 1.411 1_455 S
C41 C39 1.403 1_565 S
C41 C42 1.489 . S
C42 C41 1.489 . S
C42 C43 1.383 1_565 S
C42 C47 1.382 . S
C43 H14 0.950 . S
C43 C42 1.383 1_545 S
C43 C44 1.395 1_545 S
C44 H15 0.950 1_565 S
C44 C43 1.395 1_565 S
C44 C45 1.288 . S
C45 C44 1.288 . S
C45 C46 1.392 . S
C46 H16 0.951 . S
C46 C45 1.392 . S
C46 C47 1.392 . S
C47 H17 0.949 . S
C47 C42 1.382 . S
C47 C46 1.392 . S
H48 C67 0.949 . S
H49 C68 0.950 . S
H50 C70 0.950 . S
H51 C71 0.950 . S
H52 C73 0.950 . S
H53 C76 0.950 . S
H54 C77 0.950 . S
H55 C79 0.951 . S
H56 C80 0.949 . S
H57 C82 0.949 . S
H58 C83 0.950 . S
H59 C85 0.950 . S
H60 C86 0.950 . S
H61 C88 0.950 . S
H62 C91 0.950 . S
H63 C92 0.950 . S
H64 C94 0.951 . S
H65 C95 0.949 . S
C66 C67 1.376 . S
C66 C71 1.386 . S
C66 C72 1.483 . S
C67 H48 0.949 . S
C67 C66 1.376 . S
C67 C68 1.397 . S
C68 H49 0.950 . S
C68 C67 1.397 . S
C68 C69 1.391 . S
C69 C68 1.391 . S
C69 C70 1.405 . S
C70 H50 0.950 . S
C70 C69 1.405 . S
C70 C71 1.367 . S
C71 H51 0.950 . S
C71 C66 1.386 . S
C71 C70 1.367 . S
C72 C66 1.483 . S
C72 C73 1.382 . S
C72 C74 1.403 . S
C73 H52 0.950 . S
C73 C72 1.382 . S
C73 C89 1.411 . S
C74 C72 1.403 . S
C74 C75 1.489 . S
C74 C88 1.411 . S
C75 C74 1.489 . S
C75 C76 1.383 . S
C75 C80 1.382 . S
C76 H53 0.950 . S
C76 C75 1.383 . S
C76 C77 1.395 . S
C77 H54 0.950 . S
C77 C76 1.395 . S
C77 C78 1.288 . S
C78 C77 1.288 . S
C78 C79 1.392 . S
C79 H55 0.951 . S
C79 C78 1.392 . S
C79 C80 1.392 . S
C80 H56 0.949 . S
C80 C75 1.382 . S
C80 C79 1.392 . S
C81 C82 1.376 . S
C81 C86 1.386 . S
C81 C87 1.483 . S
C82 H57 0.949 . S
C82 C81 1.376 . S
C82 C83 1.397 . S
C83 H58 0.950 . S
C83 C82 1.397 . S
C83 C84 1.391 . S
C84 C83 1.391 . S
C84 C85 1.405 . S
C85 H59 0.950 . S
C85 C84 1.405 . S
C85 C86 1.367 . S
C86 H60 0.950 . S
C86 C81 1.386 . S
C86 C85 1.367 . S
C87 C81 1.483 . S
C87 C88 1.382 . S
C87 C89 1.403 . S
C88 H61 0.950 . S
C88 C74 1.411 . S
C88 C87 1.382 . S
C89 C73 1.411 . S
C89 C87 1.403 . S
C89 C90 1.489 . S
C90 C89 1.489 . S
C90 C91 1.383 . S
C90 C95 1.382 . S
C91 H62 0.950 . S
C91 C90 1.383 . S
C91 C92 1.395 . S
C92 H63 0.950 . S
C92 C91 1.395 . S
C92 C93 1.288 . S
C93 C92 1.288 . S
C93 C94 1.392 . S
C94 H64 0.951 . S
C94 C93 1.392 . S
C94 C95 1.392 . S
C95 H65 0.949 . S
C95 C90 1.382 . S
C95 C94 1.392 . S
H96 C115 0.949 1_545 S
H97 C116 0.950 . S
H98 C118 0.950 . S
H99 C119 0.950 . S
H100 C121 0.950 . S
H101 C124 0.894 1_554 S
H102 C125 0.950 . S
H103 C127 0.951 . S
H104 C128 0.949 . S
H105 C130 0.949 1_565 S
H106 C131 0.950 . S
H107 C133 0.950 . S
H108 C134 0.974 . S
H109 C136 0.950 . S
H110 C139 0.950 . S
H111 C140 0.950 . S
H112 C142 0.951 . S
H113 C143 0.956 . S
C114 C115 1.376 . S
C114 C119 1.386 . S
C114 C120 1.483 . S
C115 H96 0.949 1_565 S
C115 C114 1.376 . S
C115 C116 1.397 . S
C116 H97 0.950 . S
C116 C115 1.397 . S
C116 C117 1.391 . S
C117 C116 1.391 . S
C117 C118 1.405 . S
C118 H98 0.950 . S
C118 C117 1.405 . S
C118 C119 1.367 . S
C119 H99 0.950 . S
C119 C114 1.386 . S
C119 C118 1.367 . S
C120 C114 1.483 . S
C120 C121 1.382 . S
C120 C122 1.396 1_564 S
C121 H100 0.950 . S
C121 C120 1.382 . S
C121 C137 1.411 . S
C122 C120 1.396 1_546 S
C122 C123 1.492 . S
C122 C136 1.414 . S
C123 C122 1.492 . S
C123 C124 1.411 . S
C123 C128 1.382 . S
C124 H101 0.894 1_556 S
C124 C123 1.411 . S
C124 C125 1.425 . S
C125 H102 0.950 . S
C125 C124 1.425 . S
C125 C126 1.288 . S
C126 C125 1.288 . S
C126 C127 1.392 . S
C127 H103 0.951 . S
C127 C126 1.392 . S
C127 C128 1.392 . S
C128 H104 0.949 . S
C128 C123 1.382 . S
C128 C127 1.392 . S
C129 C130 1.376 . S
C129 C134 1.375 1_556 S
C129 C135 1.472 1_556 S
C130 H105 0.949 1_545 S
C130 C129 1.376 . S
C130 C131 1.397 . S
C131 H106 0.950 . S
C131 C130 1.397 . S
C131 C132 1.391 . S
C132 C131 1.391 . S
C132 C133 1.405 . S
C133 H107 0.950 . S
C133 C132 1.405 . S
C133 C134 1.356 1_556 S
C134 H108 0.974 . S
C134 C129 1.375 1_554 S
C134 C133 1.356 1_554 S
C135 C129 1.472 1_554 S
C135 C136 1.371 1_554 S
C135 C137 1.425 1_545 S
C136 H109 0.950 . S
C136 C122 1.414 . S
C136 C135 1.371 1_556 S
C137 C121 1.411 . S
C137 C135 1.425 1_565 S
C137 C138 1.489 . S
C138 C137 1.489 . S
C138 C139 1.383 . S
C138 C143 1.382 . S
C139 H110 0.950 . S
C139 C138 1.383 . S
C139 C140 1.395 . S
C140 H111 0.950 . S
C140 C139 1.395 . S
C140 C141 1.288 . S
C141 C140 1.288 . S
C141 C142 1.392 . S
C142 H112 0.951 . S
C142 C141 1.392 . S
C142 C143 1.392 . S
C143 H113 0.956 . S
C143 C138 1.382 . S
C143 C142 1.392 . S
H144 C163 0.949 . S
H145 C164 0.950 . S
H146 C166 0.950 . S
H147 C167 0.950 . S
H148 C169 0.950 . S
H149 C172 0.950 . S
H150 C173 0.950 . S
H151 C175 0.951 . S
H152 C176 0.949 . S
H153 C178 0.949 . S
H154 C179 0.950 . S
H155 C181 0.950 . S
H156 C182 0.950 . S
H157 C184 0.950 . S
H158 C187 0.950 . S
H159 C188 0.950 . S
H160 C190 0.951 . S
H161 C191 0.949 . S
C162 C163 1.376 . S
C162 C167 1.386 . S
C162 C168 1.483 . S
C163 H144 0.949 . S
C163 C162 1.376 . S
C163 C164 1.397 . S
C164 H145 0.950 . S
C164 C163 1.397 . S
C164 C165 1.391 . S
C165 C164 1.391 . S
C165 C166 1.405 . S
C166 H146 0.950 . S
C166 C165 1.405 . S
C166 C167 1.367 . S
C167 H147 0.950 . S
C167 C162 1.386 . S
C167 C166 1.367 . S
C168 C162 1.483 . S
C168 C169 1.382 . S
C168 C170 1.403 . S
C169 H148 0.950 . S
C169 C168 1.382 . S
C169 C185 1.411 . S
C170 C168 1.403 . S
C170 C171 1.489 . S
C170 C184 1.411 . S
C171 C170 1.489 . S
C171 C172 1.383 . S
C171 C176 1.382 . S
C172 H149 0.950 . S
C172 C171 1.383 . S
C172 C173 1.395 . S
C173 H150 0.950 . S
C173 C172 1.395 . S
C173 C174 1.288 . S
C174 C173 1.288 . S
C174 C175 1.392 . S
C175 H151 0.951 . S
C175 C174 1.392 . S
C175 C176 1.392 . S
C176 H152 0.949 . S
C176 C171 1.382 . S
C176 C175 1.392 . S
C177 C178 1.376 . S
C177 C182 1.386 . S
C177 C183 1.483 . S
C178 H153 0.949 . S
C178 C177 1.376 . S
C178 C179 1.397 . S
C179 H154 0.950 . S
C179 C178 1.397 . S
C179 C180 1.391 . S
C180 C179 1.391 . S
C180 C181 1.405 . S
C181 H155 0.950 . S
C181 C180 1.405 . S
C181 C182 1.367 . S
C182 H156 0.950 . S
C182 C177 1.386 . S
C182 C181 1.367 . S
C183 C177 1.483 . S
C183 C184 1.382 . S
C183 C185 1.403 . S
C184 H157 0.950 . S
C184 C170 1.411 . S
C184 C183 1.382 . S
C185 C169 1.411 . S
C185 C183 1.403 . S
C185 C186 1.489 . S
C186 C185 1.489 . S
C186 C187 1.383 . S
C186 C191 1.382 . S
C187 H158 0.950 . S
C187 C186 1.383 . S
C187 C188 1.395 . S
C188 H159 0.950 . S
C188 C187 1.395 . S
C188 C189 1.288 . S
C189 C188 1.288 . S
C189 C190 1.392 . S
C190 H160 0.951 . S
C190 C189 1.392 . S
C190 C191 1.392 . S
C191 H161 0.949 . S
C191 C186 1.382 . S
C191 C190 1.392 . S
H192 C211 0.949 . S
H193 C212 0.950 . S
H194 C214 0.950 . S
H195 C215 0.950 . S
H196 C217 0.950 . S
H197 C220 0.950 . S
H198 C221 0.950 . S
H199 C223 0.951 . S
H200 C224 0.949 . S
H201 C226 0.949 . S
H202 C227 0.950 . S
H203 C229 0.950 . S
H204 C230 0.950 . S
H205 C232 0.950 . S
H206 C235 0.950 . S
H207 C236 0.950 . S
H208 C238 0.951 . S
H209 C239 0.949 . S
C210 C211 1.376 . S
C210 C215 1.386 . S
C210 C216 1.483 . S
C211 H192 0.949 . S
C211 C210 1.376 . S
C211 C212 1.397 . S
C212 H193 0.950 . S
C212 C211 1.397 . S
C212 C213 1.391 . S
C213 C212 1.391 . S
C213 C214 1.405 . S
C214 H194 0.950 . S
C214 C213 1.405 . S
C214 C215 1.367 . S
C215 H195 0.950 . S
C215 C210 1.386 . S
C215 C214 1.367 . S
C216 C210 1.483 . S
C216 C217 1.382 . S
C216 C218 1.403 . S
C217 H196 0.950 . S
C217 C216 1.382 . S
C217 C233 1.411 . S
C218 C216 1.403 . S
C218 C219 1.489 . S
C218 C232 1.411 . S
C219 C218 1.489 . S
C219 C220 1.383 . S
C219 C224 1.382 . S
C220 H197 0.950 . S
C220 C219 1.383 . S
C220 C221 1.395 . S
C221 H198 0.950 . S
C221 C220 1.395 . S
C221 C222 1.288 . S
C222 C221 1.288 . S
C222 C223 1.392 . S
C223 H199 0.951 . S
C223 C222 1.392 . S
C223 C224 1.392 . S
C224 H200 0.949 . S
C224 C219 1.382 . S
C224 C223 1.392 . S
C225 C226 1.376 . S
C225 C230 1.386 . S
C225 C231 1.483 . S
C226 H201 0.949 . S
C226 C225 1.376 . S
C226 C227 1.397 . S
C227 H202 0.950 . S
C227 C226 1.397 . S
C227 C228 1.391 . S
C228 C227 1.391 . S
C228 C229 1.405 . S
C229 H203 0.950 . S
C229 C228 1.405 . S
C229 C230 1.367 . S
C230 H204 0.950 . S
C230 C225 1.386 . S
C230 C229 1.367 . S
C231 C225 1.483 . S
C231 C232 1.382 . S
C231 C233 1.403 . S
C232 H205 0.950 . S
C232 C218 1.411 . S
C232 C231 1.382 . S
C233 C217 1.411 . S
C233 C231 1.403 . S
C233 C234 1.489 . S
C234 C233 1.489 . S
C234 C235 1.383 . S
C234 C239 1.382 . S
C235 H206 0.950 . S
C235 C234 1.383 . S
C235 C236 1.395 . S
C236 H207 0.950 . S
C236 C235 1.395 . S
C236 C237 1.288 . S
C237 C236 1.288 . S
C237 C238 1.392 . S
C238 H208 0.951 . S
C238 C237 1.392 . S
C238 C239 1.392 . S
C239 H209 0.949 . S
C239 C234 1.382 . S
C239 C238 1.392 . S
H240 C259 0.949 . S
H241 C260 0.950 . S
H242 C262 0.950 . S
H243 C263 0.950 . S
H244 C265 0.950 . S
H245 C268 0.950 . S
H246 C269 0.950 . S
H247 C271 0.951 . S
H248 C272 0.949 . S
H249 C274 0.949 . S
H250 C275 0.950 . S
H251 C277 0.950 . S
H252 C278 0.950 . S
H253 C280 0.950 . S
H254 C283 0.950 . S
H255 C284 0.950 . S
H256 C286 0.951 . S
H257 C287 0.949 . S
C258 C259 1.376 . S
C258 C263 1.386 . S
C258 C264 1.483 . S
C259 H240 0.949 . S
C259 C258 1.376 . S
C259 C260 1.397 . S
C260 H241 0.950 . S
C260 C259 1.397 . S
C260 C261 1.391 . S
C261 C260 1.391 . S
C261 C262 1.405 . S
C262 H242 0.950 . S
C262 C261 1.405 . S
C262 C263 1.367 . S
C263 H243 0.950 . S
C263 C258 1.386 . S
C263 C262 1.367 . S
C264 C258 1.483 . S
C264 C265 1.382 . S
C264 C266 1.403 . S
C265 H244 0.950 . S
C265 C264 1.382 . S
C265 C281 1.411 . S
C266 C264 1.403 . S
C266 C267 1.489 . S
C266 C280 1.411 . S
C267 C266 1.489 . S
C267 C268 1.383 . S
C267 C272 1.382 . S
C268 H245 0.950 . S
C268 C267 1.383 . S
C268 C269 1.395 . S
C269 H246 0.950 . S
C269 C268 1.395 . S
C269 C270 1.288 . S
C270 C269 1.288 . S
C270 C271 1.392 . S
C271 H247 0.951 . S
C271 C270 1.392 . S
C271 C272 1.392 . S
C272 H248 0.949 . S
C272 C267 1.382 . S
C272 C271 1.392 . S
C273 C274 1.376 . S
C273 C278 1.386 . S
C273 C279 1.483 . S
C274 H249 0.949 . S
C274 C273 1.376 . S
C274 C275 1.397 . S
C275 H250 0.950 . S
C275 C274 1.397 . S
C275 C276 1.391 . S
C276 C275 1.391 . S
C276 C277 1.405 . S
C277 H251 0.950 . S
C277 C276 1.405 . S
C277 C278 1.367 . S
C278 H252 0.950 . S
C278 C273 1.386 . S
C278 C277 1.367 . S
C279 C273 1.483 . S
C279 C280 1.382 . S
C279 C281 1.403 . S
C280 H253 0.950 . S
C280 C266 1.411 . S
C280 C279 1.382 . S
C281 C265 1.411 . S
C281 C279 1.403 . S
C281 C282 1.489 . S
C282 C281 1.489 . S
C282 C283 1.383 . S
C282 C287 1.382 . S
C283 H254 0.950 . S
C283 C282 1.383 . S
C283 C284 1.395 . S
C284 H255 0.950 . S
C284 C283 1.395 . S
C284 C285 1.288 . S
C285 C284 1.288 . S
C285 C286 1.392 . S
C286 H256 0.951 . S
C286 C285 1.392 . S
C286 C287 1.392 . S
C287 H257 0.949 . S
C287 C282 1.382 . S
C287 C286 1.392 . S
H288 C307 0.949 . S
H289 C308 0.950 . S
H290 C310 0.950 . S
H291 C311 0.950 . S
H292 C313 0.950 . S
H293 C316 0.950 . S
H294 C317 0.950 . S
H295 C319 0.951 . S
H296 C320 0.949 . S
H297 C322 0.949 . S
H298 C323 0.950 . S
H299 C325 0.950 . S
H300 C326 0.950 . S
H301 C328 0.950 . S
H302 C331 0.950 . S
H303 C332 0.950 . S
H304 C334 0.951 . S
H305 C335 0.949 . S
C306 C307 1.376 . S
C306 C311 1.386 . S
C306 C312 1.483 1_556 S
C307 H288 0.949 . S
C307 C306 1.376 . S
C307 C308 1.397 . S
C308 H289 0.950 . S
C308 C307 1.397 . S
C308 C309 1.391 . S
C309 C308 1.391 . S
C309 C310 1.405 . S
C310 H290 0.950 . S
C310 C309 1.405 . S
C310 C311 1.367 . S
C311 H291 0.950 . S
C311 C306 1.386 . S
C311 C310 1.367 . S
C312 C306 1.483 1_554 S
C312 C313 1.382 1_554 S
C312 C314 1.403 . S
C313 H292 0.950 . S
C313 C312 1.382 1_556 S
C313 C329 1.411 1_556 S
C314 C312 1.403 . S
C314 C315 1.489 . S
C314 C328 1.411 . S
C315 C314 1.489 . S
C315 C316 1.383 . S
C315 C320 1.382 . S
C316 H293 0.950 . S
C316 C315 1.383 . S
C316 C317 1.395 . S
C317 H294 0.950 . S
C317 C316 1.395 . S
C317 C318 1.288 . S
C318 C317 1.288 . S
C318 C319 1.392 . S
C319 H295 0.951 . S
C319 C318 1.392 . S
C319 C320 1.392 . S
C320 H296 0.949 . S
C320 C315 1.382 . S
C320 C319 1.392 . S
C321 C322 1.376 . S
C321 C326 1.386 . S
C321 C327 1.483 . S
C322 H297 0.949 . S
C322 C321 1.376 . S
C322 C323 1.397 . S
C323 H298 0.950 . S
C323 C322 1.397 . S
C323 C324 1.391 . S
C324 C323 1.391 . S
C324 C325 1.405 . S
C325 H299 0.950 . S
C325 C324 1.405 . S
C325 C326 1.367 . S
C326 H300 0.950 . S
C326 C321 1.386 . S
C326 C325 1.367 . S
C327 C321 1.483 . S
C327 C328 1.382 . S
C327 C329 1.403 . S
C328 H301 0.950 . S
C328 C314 1.411 . S
C328 C327 1.382 . S
C329 C313 1.411 1_554 S
C329 C327 1.403 . S
C329 C330 1.489 1_554 S
C330 C329 1.489 1_556 S
C330 C331 1.383 . S
C330 C335 1.382 . S
C331 H302 0.950 . S
C331 C330 1.383 . S
C331 C332 1.395 . S
C332 H303 0.950 . S
C332 C331 1.395 . S
C332 C333 1.288 . S
C333 C332 1.288 . S
C333 C334 1.392 . S
C334 H304 0.951 . S
C334 C333 1.392 . S
C334 C335 1.392 . S
C335 H305 0.949 . S
C335 C330 1.382 . S
C335 C334 1.392 . S
H336 C355 0.949 . S
H337 C356 0.950 . S
H338 C358 0.950 . S
H339 C359 0.950 . S
H340 C361 0.950 . S
H341 C364 0.950 . S
H342 C365 0.950 . S
H343 C367 0.951 . S
H344 C368 0.949 . S
H345 C370 0.949 . S
H346 C371 0.950 . S
H347 C373 0.950 . S
H348 C374 0.950 . S
H349 C376 0.950 . S
H350 C379 0.950 . S
H351 C380 0.950 . S
H352 C382 0.951 . S
H353 C383 0.949 . S
C354 C355 1.376 . S
C354 C359 1.386 . S
C354 C360 1.483 . S
C355 H336 0.949 . S
C355 C354 1.376 . S
C355 C356 1.397 . S
C356 H337 0.950 . S
C356 C355 1.397 . S
C356 C357 1.391 . S
C357 C356 1.391 . S
C357 C358 1.405 . S
C358 H338 0.950 . S
C358 C357 1.405 . S
C358 C359 1.367 . S
C359 H339 0.950 . S
C359 C354 1.386 . S
C359 C358 1.367 . S
C360 C354 1.483 . S
C360 C361 1.382 . S
C360 C362 1.403 . S
C361 H340 0.950 . S
C361 C360 1.382 . S
C361 C377 1.411 1_655 S
C362 C360 1.403 . S
C362 C363 1.489 . S
C362 C376 1.411 1_655 S
C363 C362 1.489 . S
C363 C364 1.383 . S
C363 C368 1.382 . S
C364 H341 0.950 . S
C364 C363 1.383 . S
C364 C365 1.395 . S
C365 H342 0.950 . S
C365 C364 1.395 . S
C365 C366 1.288 . S
C366 C365 1.288 . S
C366 C367 1.392 . S
C367 H343 0.951 . S
C367 C366 1.392 . S
C367 C368 1.392 . S
C368 H344 0.949 . S
C368 C363 1.382 . S
C368 C367 1.392 . S
C369 C370 1.376 . S
C369 C374 1.386 . S
C369 C375 1.483 . S
C370 H345 0.949 . S
C370 C369 1.376 . S
C370 C371 1.397 . S
C371 H346 0.950 . S
C371 C370 1.397 . S
C371 C372 1.391 . S
C372 C371 1.391 . S
C372 C373 1.405 . S
C373 H347 0.950 . S
C373 C372 1.405 . S
C373 C374 1.367 . S
C374 H348 0.950 . S
C374 C369 1.386 . S
C374 C373 1.367 . S
C375 C369 1.483 . S
C375 C376 1.382 . S
C375 C377 1.403 . S
C376 H349 0.950 . S
C376 C362 1.411 1_455 S
C376 C375 1.382 . S
C377 C361 1.411 1_455 S
C377 C375 1.403 . S
C377 C378 1.489 . S
C378 C377 1.489 . S
C378 C379 1.383 . S
C378 C383 1.382 . S
C379 H350 0.950 . S
C379 C378 1.383 . S
C379 C380 1.395 . S
C380 H351 0.950 . S
C380 C379 1.395 . S
C380 C381 1.288 . S
C381 C380 1.288 . S
C381 C382 1.392 . S
C382 H352 0.951 . S
C382 C381 1.392 . S
C382 C383 1.392 . S
C383 H353 0.949 . S
C383 C378 1.382 . S
C383 C382 1.392 . S
Fe384 O385 1.886 . S
Fe384 O388 1.715 1_455 S
Fe384 O393 2.077 . S
Fe384 O398 1.935 1_455 S
Fe384 O404 2.077 . S
Fe384 O413 1.935 1_455 S
O385 Fe384 1.886 . S
O385 Fe387 1.715 . S
Fe386 O388 1.886 . S
Fe386 O389 1.715 . S
Fe386 O396 1.935 . S
Fe386 O397 2.077 . S
Fe386 O403 1.935 . S
Fe386 O412 2.077 . S
Fe387 O385 1.715 . S
Fe387 O390 1.886 . S
Fe387 O394 1.935 . S
Fe387 O399 2.077 . S
Fe387 O405 1.935 . S
Fe387 O409 2.077 . S
O388 Fe384 1.715 1_655 S
O388 Fe386 1.886 . S
O389 Fe386 1.715 . S
O389 Fe391 1.886 . S
O390 Fe387 1.886 . S
O390 Fe391 1.715 1_455 S
Fe391 O389 1.886 . S
Fe391 O390 1.715 1_655 S
Fe391 O395 2.077 . S
Fe391 O400 1.935 1_655 S
Fe391 O402 2.077 . S
Fe391 O410 1.935 1_655 S
C392 O404 1.381 . S
C392 O405 1.421 . S
O393 Fe384 2.077 . S
O393 C406 1.381 . S
O394 Fe387 1.935 . S
O394 C406 1.421 . S
O395 Fe391 2.077 . S
O395 C411 1.381 . S
O396 Fe386 1.935 . S
O396 C411 1.421 . S
O397 Fe386 2.077 . S
O397 C401 1.381 . S
O398 Fe384 1.935 1_655 S
O398 C401 1.421 . S
O399 Fe387 2.077 . S
O399 C407 1.381 . S
O400 Fe391 1.935 1_455 S
O400 C407 1.421 . S
C401 O397 1.381 . S
C401 O398 1.421 . S
O402 Fe391 2.077 . S
O402 C414 1.381 . S
O403 Fe386 1.935 . S
O403 C414 1.421 . S
O404 Fe384 2.077 . S
O404 C392 1.381 . S
O405 Fe387 1.935 . S
O405 C392 1.421 . S
C406 O393 1.381 . S
C406 O394 1.421 . S
C407 O399 1.381 . S
C407 O400 1.421 . S
C408 O409 1.381 . S
C408 O410 1.421 . S
O409 Fe387 2.077 . S
O409 C408 1.381 . S
O410 Fe391 1.935 1_455 S
O410 C408 1.421 . S
C411 O395 1.381 . S
C411 O396 1.421 . S
O412 Fe386 2.077 . S
O412 C415 1.381 . S
O413 Fe384 1.935 1_655 S
O413 C415 1.421 . S
C414 O402 1.381 . S
C414 O403 1.421 . S
C415 O412 1.381 . S
C415 O413 1.421 . S
Fe416 O417 1.886 . S
Fe416 O420 1.715 . S
Fe416 O425 2.077 . S
Fe416 O430 1.935 . S
Fe416 O436 2.077 . S
Fe416 O445 1.935 . S
O417 Fe416 1.886 . S
O417 Fe419 1.715 . S
Fe418 O420 1.886 . S
Fe418 O421 1.715 . S
Fe418 O428 1.935 . S
Fe418 O429 2.077 . S
Fe418 O435 1.935 . S
Fe418 O444 2.077 . S
Fe419 O417 1.715 . S
Fe419 O422 1.886 . S
Fe419 O426 1.935 . S
Fe419 O431 2.077 . S
Fe419 O437 1.935 . S
Fe419 O441 2.077 . S
O420 Fe416 1.715 . S
O420 Fe418 1.886 . S
O421 Fe418 1.715 . S
O421 Fe423 1.886 . S
O422 Fe419 1.886 . S
O422 Fe423 1.715 . S
Fe423 O421 1.886 . S
Fe423 O422 1.715 . S
Fe423 O427 2.077 . S
Fe423 O432 1.935 . S
Fe423 O434 2.077 . S
Fe423 O442 1.935 . S
C424 O436 1.381 . S
C424 O437 1.421 . S
O425 Fe416 2.077 . S
O425 C438 1.381 . S
O426 Fe419 1.935 . S
O426 C438 1.421 . S
O427 Fe423 2.077 . S
O427 C443 1.381 . S
O428 Fe418 1.935 . S
O428 C443 1.421 . S
O429 Fe418 2.077 . S
O429 C433 1.381 . S
O430 Fe416 1.935 . S
O430 C433 1.421 . S
O431 Fe419 2.077 . S
O431 C439 1.381 . S
O432 Fe423 1.935 . S
O432 C439 1.421 . S
C433 O429 1.381 . S
C433 O430 1.421 . S
O434 Fe423 2.077 . S
O434 C446 1.381 . S
O435 Fe418 1.935 . S
O435 C446 1.421 . S
O436 Fe416 2.077 . S
O436 C424 1.381 . S
O437 Fe419 1.935 . S
O437 C424 1.421 . S
C438 O425 1.381 . S
C438 O426 1.421 . S
C439 O431 1.381 . S
C439 O432 1.421 . S
C440 O441 1.381 . S
C440 O442 1.421 . S
O441 Fe419 2.077 . S
O441 C440 1.381 . S
O442 Fe423 1.935 . S
O442 C440 1.421 . S
C443 O427 1.381 . S
C443 O428 1.421 . S
O444 Fe418 2.077 . S
O444 C447 1.381 . S
O445 Fe416 1.935 . S
O445 C447 1.421 . S
C446 O434 1.381 . S
C446 O435 1.421 . S
C447 O444 1.381 . S
C447 O445 1.421 . S
Fe448 O449 1.886 . S
Fe448 O452 1.715 . S
Fe448 O457 2.077 . S
Fe448 O462 1.935 . S
Fe448 O468 2.077 . S
Fe448 O477 1.935 . S
O449 Fe448 1.886 . S
O449 Fe451 1.715 . S
Fe450 O452 1.886 . S
Fe450 O453 1.715 . S
Fe450 O460 1.935 . S
Fe450 O461 2.077 . S
Fe450 O467 1.935 . S
Fe450 O476 2.077 . S
Fe451 O449 1.715 . S
Fe451 O454 1.886 . S
Fe451 O458 1.935 . S
Fe451 O463 2.077 . S
Fe451 O469 1.935 . S
Fe451 O473 2.077 . S
O452 Fe448 1.715 . S
O452 Fe450 1.886 . S
O453 Fe450 1.715 . S
O453 Fe455 1.886 . S
O454 Fe451 1.886 . S
O454 Fe455 1.715 . S
Fe455 O453 1.886 . S
Fe455 O454 1.715 . S
Fe455 O459 2.077 . S
Fe455 O464 1.935 . S
Fe455 O466 2.077 . S
Fe455 O474 1.935 . S
C456 O468 1.381 . S
C456 O469 1.421 . S
O457 Fe448 2.077 . S
O457 C470 1.381 . S
O458 Fe451 1.935 . S
O458 C470 1.421 . S
O459 Fe455 2.077 . S
O459 C475 1.381 . S
O460 Fe450 1.935 . S
O460 C475 1.421 . S
O461 Fe450 2.077 . S
O461 C465 1.381 . S
O462 Fe448 1.935 . S
O462 C465 1.421 . S
O463 Fe451 2.077 . S
O463 C471 1.381 . S
O464 Fe455 1.935 . S
O464 C471 1.421 . S
C465 O461 1.381 . S
C465 O462 1.421 . S
O466 Fe455 2.077 . S
O466 C478 1.381 . S
O467 Fe450 1.935 . S
O467 C478 1.421 . S
O468 Fe448 2.077 . S
O468 C456 1.381 . S
O469 Fe451 1.935 . S
O469 C456 1.421 . S
C470 O457 1.381 . S
C470 O458 1.421 . S
C471 O463 1.381 . S
C471 O464 1.421 . S
C472 O473 1.381 . S
C472 O474 1.421 . S
O473 Fe451 2.077 . S
O473 C472 1.381 . S
O474 Fe455 1.935 . S
O474 C472 1.421 . S
C475 O459 1.381 . S
C475 O460 1.421 . S
O476 Fe450 2.077 . S
O476 C479 1.381 . S
O477 Fe448 1.935 . S
O477 C479 1.421 . S
C478 O466 1.381 . S
C478 O467 1.421 . S
C479 O476 1.381 . S
C479 O477 1.421 . S
Fe480 O481 1.886 . S
Fe480 O484 1.715 . S
Fe480 O489 2.076 1_455 S
Fe480 O494 1.934 1_455 S
Fe480 O500 2.079 . S
Fe480 O509 1.937 . S
O481 Fe480 1.886 . S
O481 Fe483 1.715 . S
Fe482 O484 1.886 . S
Fe482 O485 1.715 . S
Fe482 O492 1.934 1_455 S
Fe482 O493 2.076 1_455 S
Fe482 O499 1.936 . S
Fe482 O508 2.078 . S
Fe483 O481 1.715 . S
Fe483 O486 1.886 . S
Fe483 O490 1.934 1_455 S
Fe483 O495 2.076 1_455 S
Fe483 O501 1.936 . S
Fe483 O505 2.078 . S
O484 Fe480 1.715 . S
O484 Fe482 1.886 . S
O485 Fe482 1.715 . S
O485 Fe487 1.886 . S
O486 Fe483 1.886 . S
O486 Fe487 1.715 . S
Fe487 O485 1.886 . S
Fe487 O486 1.715 . S
Fe487 O491 2.077 1_455 S
Fe487 O496 1.935 1_455 S
Fe487 O498 2.077 . S
Fe487 O506 1.936 . S
C488 O500 1.381 . S
C488 O501 1.421 . S
O489 Fe480 2.076 1_655 S
O489 C502 1.381 . S
O490 Fe483 1.934 1_655 S
O490 C502 1.421 . S
O491 Fe487 2.077 1_655 S
O491 C507 1.381 . S
O492 Fe482 1.934 1_655 S
O492 C507 1.421 . S
O493 Fe482 2.076 1_655 S
O493 C497 1.381 . S
O494 Fe480 1.934 1_655 S
O494 C497 1.421 . S
O495 Fe483 2.076 1_655 S
O495 C503 1.381 . S
O496 Fe487 1.935 1_655 S
O496 C503 1.421 . S
C497 O493 1.381 . S
C497 O494 1.421 . S
O498 Fe487 2.077 . S
O498 C510 1.381 . S
O499 Fe482 1.936 . S
O499 C510 1.421 . S
O500 Fe480 2.079 . S
O500 C488 1.381 . S
O501 Fe483 1.936 . S
O501 C488 1.421 . S
C502 O489 1.381 . S
C502 O490 1.421 . S
C503 O495 1.381 . S
C503 O496 1.421 . S
C504 O505 1.381 . S
C504 O506 1.421 . S
O505 Fe483 2.078 . S
O505 C504 1.381 . S
O506 Fe487 1.936 . S
O506 C504 1.421 . S
C507 O491 1.381 . S
C507 O492 1.421 . S
O508 Fe482 2.078 . S
O508 C511 1.381 . S
O509 Fe480 1.937 . S
O509 C511 1.421 . S
C510 O498 1.381 . S
C510 O499 1.421 . S
C511 O508 1.381 . S
C511 O509 1.421 . S
C512 C513 1.363 . S
C512 C518 1.379 . S
C512 N520 1.356 . S
C513 C512 1.363 . S
C513 C519 1.363 . S
C514 C515 1.363 . S
C514 C519 1.379 . S
C514 N521 1.356 . S
C515 C514 1.363 . S
C515 C518 1.363 . S
N516 C518 1.356 . S
N516 H528 0.984 . S
N516 H529 0.985 . S
N517 C519 1.356 . S
N517 H522 0.984 . S
N517 H523 0.985 . S
C518 C512 1.379 . S
C518 C515 1.363 . S
C518 N516 1.356 . S
C519 C513 1.363 . S
C519 C514 1.379 . S
C519 N517 1.356 . S
N520 C512 1.356 . S
N520 H526 0.984 1_565 S
N520 H527 0.984 . S
N521 C514 1.356 . S
N521 H524 0.984 . S
N521 H525 0.985 . S
H522 N517 0.984 . S
H523 N517 0.985 . S
H524 N521 0.984 . S
H525 N521 0.985 . S
H526 N520 0.984 1_545 S
H527 N520 0.984 . S
H528 N516 0.984 . S
H529 N516 0.985 . S
C530 C531 1.363 . S
C530 C536 1.379 . S
C530 N538 1.356 1_545 S
C531 C530 1.363 . S
C531 C537 1.363 . S
C532 C533 1.363 . S
C532 C537 1.379 . S
C532 N539 1.356 . S
C533 C532 1.363 . S
C533 C536 1.363 . S
N534 C536 1.356 . S
N534 H546 0.984 . S
N534 H547 0.985 . S
N535 C537 1.356 . S
N535 H540 0.984 . S
N535 H541 0.985 . S
C536 C530 1.379 . S
C536 C533 1.363 . S
C536 N534 1.356 . S
C537 C531 1.363 . S
C537 C532 1.379 . S
C537 N535 1.356 . S
N538 C530 1.356 1_565 S
N538 H544 0.984 . S
N538 H545 0.984 . S
N539 C532 1.356 . S
N539 H542 0.984 . S
N539 H543 0.985 . S
H540 N535 0.984 . S
H541 N535 0.985 . S
H542 N539 0.984 . S
H543 N539 0.985 . S
H544 N538 0.984 . S
H545 N538 0.984 . S
H546 N534 0.984 . S
H547 N534 0.985 . S
C548 C549 1.363 . S
C548 C554 1.379 . S
C548 N556 1.356 . S
C549 C548 1.363 . S
C549 C555 1.363 . S
C550 C551 1.363 . S
C550 C555 1.379 . S
C550 N557 1.356 . S
C551 C550 1.363 . S
C551 C554 1.363 . S
N552 C554 1.356 . S
N552 H564 0.984 . S
N552 H565 0.985 . S
N553 C555 1.356 . S
N553 H558 0.984 . S
N553 H559 0.985 1_545 S
C554 C548 1.379 . S
C554 C551 1.363 . S
C554 N552 1.356 . S
C555 C549 1.363 . S
C555 C550 1.379 . S
C555 N553 1.356 . S
N556 C548 1.356 . S
N556 H562 0.984 . S
N556 H563 0.984 . S
N557 C550 1.356 . S
N557 H560 0.984 . S
N557 H561 0.985 . S
H558 N553 0.984 . S
H559 N553 0.985 1_565 S
H560 N557 0.984 . S
H561 N557 0.985 . S
H562 N556 0.984 . S
H563 N556 0.984 . S
H564 N552 0.984 . S
H565 N552 0.985 . S
C566 C567 1.363 1_545 S
C566 C572 1.379 1_545 S
C566 N574 1.356 . S
C567 C566 1.363 1_565 S
C567 C573 1.363 . S
C568 C569 1.363 . S
C568 C573 1.379 . S
C568 N575 1.356 . S
C569 C568 1.363 . S
C569 C572 1.363 . S
N570 C572 1.356 . S
N570 H582 0.984 . S
N570 H583 0.985 . S
N571 C573 1.356 . S
N571 H576 0.984 . S
N571 H577 0.985 . S
C572 C566 1.379 1_565 S
C572 C569 1.363 . S
C572 N570 1.356 . S
C573 C567 1.363 . S
C573 C568 1.379 . S
C573 N571 1.356 . S
N574 C566 1.356 . S
N574 H580 0.984 . S
N574 H581 0.984 . S
N575 C568 1.356 . S
N575 H578 0.984 . S
N575 H579 0.985 . S
H576 N571 0.984 . S
H577 N571 0.985 . S
H578 N575 0.984 . S
H579 N575 0.985 . S
H580 N574 0.984 . S
H581 N574 0.984 . S
H582 N570 0.984 . S
H583 N570 0.985 . S
C584 C585 1.363 . S
C584 C590 1.379 . S
C584 N592 1.356 . S
C585 C584 1.363 . S
C585 C591 1.363 . S
C586 C587 1.363 . S
C586 C591 1.379 . S
C586 N593 1.356 . S
C587 C586 1.363 . S
C587 C590 1.363 . S
N588 C590 1.356 . S
N588 H600 0.984 . S
N588 H601 0.985 . S
N589 C591 1.356 . S
N589 H594 0.984 . S
N589 H595 0.985 . S
C590 C584 1.379 . S
C590 C587 1.363 . S
C590 N588 1.356 . S
C591 C585 1.363 . S
C591 C586 1.379 . S
C591 N589 1.356 . S
N592 C584 1.356 . S
N592 H598 0.984 . S
N592 H599 0.984 . S
N593 C586 1.356 . S
N593 H596 0.984 . S
N593 H597 0.985 . S
H594 N589 0.984 . S
H595 N589 0.985 . S
H596 N593 0.984 . S
H597 N593 0.985 . S
H598 N592 0.984 . S
H599 N592 0.984 . S
H600 N588 0.984 . S
H601 N588 0.985 . S
C602 C603 1.363 . S
C602 C608 1.379 . S
C602 N610 1.356 1_545 S
C603 C602 1.363 . S
C603 C609 1.363 . S
C604 C605 1.363 . S
C604 C609 1.379 . S
C604 N611 1.356 . S
C605 C604 1.363 . S
C605 C608 1.363 . S
N606 C608 1.356 . S
N606 H618 0.984 . S
N606 H619 0.985 . S
N607 C609 1.356 . S
N607 H612 0.984 . S
N607 H613 0.985 . S
C608 C602 1.379 . S
C608 C605 1.363 . S
C608 N606 1.356 . S
C609 C603 1.363 . S
C609 C604 1.379 . S
C609 N607 1.356 . S
N610 C602 1.356 1_565 S
N610 H616 0.984 . S
N610 H617 0.984 . S
N611 C604 1.356 . S
N611 H614 0.984 . S
N611 H615 0.985 . S
H612 N607 0.984 . S
H613 N607 0.985 . S
H614 N611 0.984 . S
H615 N611 0.985 . S
H616 N610 0.984 . S
H617 N610 0.984 . S
H618 N606 0.984 . S
H619 N606 0.985 . S
C620 C621 1.363 . S
C620 C626 1.379 . S
C620 N628 1.356 . S
C621 C620 1.363 . S
C621 C627 1.363 . S
C622 C623 1.363 . S
C622 C627 1.379 . S
C622 N629 1.356 . S
C623 C622 1.363 . S
C623 C626 1.363 . S
N624 C626 1.356 . S
N624 H636 0.984 . S
N624 H637 0.985 . S
N625 C627 1.356 . S
N625 H630 0.984 . S
N625 H631 0.996 . S
C626 C620 1.379 . S
C626 C623 1.363 . S
C626 N624 1.356 . S
C627 C621 1.363 . S
C627 C622 1.379 . S
C627 N625 1.356 . S
N628 C620 1.356 . S
N628 H634 0.984 . S
N628 H635 0.984 . S
N629 C622 1.356 . S
N629 H632 0.984 . S
N629 H633 0.985 . S
H630 N625 0.984 . S
H631 N625 0.996 . S
H632 N629 0.984 . S
H633 N629 0.985 . S
H634 N628 0.984 . S
H635 N628 0.984 . S
H636 N624 0.984 . S
H637 N624 0.985 . S
C638 C639 1.363 1_545 S
C638 C644 1.379 1_545 S
C638 N646 1.356 . S
C639 C638 1.363 1_565 S
C639 C645 1.363 . S
C640 C641 1.363 . S
C640 C645 1.379 . S
C640 N647 1.356 . S
C641 C640 1.363 . S
C641 C644 1.363 . S
N642 C644 1.356 . S
N642 H654 0.984 . S
N642 H655 0.985 . S
N643 C645 1.356 . S
N643 H648 0.984 . S
N643 H649 0.985 . S
C644 C638 1.379 1_565 S
C644 C641 1.363 . S
C644 N642 1.356 . S
C645 C639 1.363 . S
C645 C640 1.379 . S
C645 N643 1.356 . S
N646 C638 1.356 . S
N646 H652 0.984 . S
N646 H653 0.984 . S
N647 C640 1.356 . S
N647 H650 0.984 . S
N647 H651 0.985 . S
H648 N643 0.984 . S
H649 N643 0.985 . S
H650 N647 0.984 . S
H651 N647 0.985 . S
H652 N646 0.984 . S
H653 N646 0.984 . S
H654 N642 0.984 . S
H655 N642 0.985 . S
C656 C657 1.363 . S
C656 C662 1.379 . S
C656 N664 1.356 . S
C657 C656 1.363 . S
C657 C663 1.363 . S
C658 C659 1.363 . S
C658 C663 1.379 . S
C658 N665 1.356 . S
C659 C658 1.363 . S
C659 C662 1.363 . S
N660 C662 1.356 . S
N660 H672 0.984 . S
N660 H673 0.985 . S
N661 C663 1.356 . S
N661 H666 0.984 . S
N661 H667 0.985 . S
C662 C656 1.379 . S
C662 C659 1.363 . S
C662 N660 1.356 . S
C663 C657 1.363 . S
C663 C658 1.379 . S
C663 N661 1.356 . S
N664 C656 1.356 . S
N664 H670 0.984 1_545 S
N664 H671 0.984 . S
N665 C658 1.356 . S
N665 H668 0.984 . S
N665 H669 0.985 . S
H666 N661 0.984 . S
H667 N661 0.985 . S
H668 N665 0.984 . S
H669 N665 0.985 . S
H670 N664 0.984 1_565 S
H671 N664 0.984 . S
H672 N660 0.984 . S
H673 N660 0.985 . S
C674 C675 1.363 . S
C674 C680 1.379 . S
C674 N682 1.356 . S
C675 C674 1.363 . S
C675 C681 1.363 . S
C676 C677 1.363 . S
C676 C681 1.379 . S
C676 N683 1.356 . S
C677 C676 1.363 . S
C677 C680 1.363 . S
N678 C680 1.356 . S
N678 H690 0.984 . S
N678 H691 0.985 . S
N679 C681 1.356 1_545 S
N679 H684 0.984 . S
N679 H685 0.985 . S
C680 C674 1.379 . S
C680 C677 1.363 . S
C680 N678 1.356 . S
C681 C675 1.363 . S
C681 C676 1.379 . S
C681 N679 1.356 1_565 S
N682 C674 1.356 . S
N682 H688 0.984 . S
N682 H689 0.975 1_565 S
N683 C676 1.356 . S
N683 H686 0.984 . S
N683 H687 0.985 . S
H684 N679 0.984 . S
H685 N679 0.985 . S
H686 N683 0.984 . S
H687 N683 0.985 . S
H688 N682 0.984 . S
H689 N682 0.975 1_545 S
H690 N678 0.984 . S
H691 N678 0.985 . S
C692 C693 1.363 . S
C692 C698 1.379 . S
C692 N700 1.356 . S
C693 C692 1.363 . S
C693 C699 1.363 . S
C694 C695 1.363 . S
C694 C699 1.379 . S
C694 N701 1.356 . S
C695 C694 1.363 . S
C695 C698 1.363 . S
N696 C698 1.356 . S
N696 H708 0.984 . S
N696 H709 0.985 . S
N697 C699 1.356 . S
N697 H702 0.984 . S
N697 H703 0.985 . S
C698 C692 1.379 . S
C698 C695 1.363 . S
C698 N696 1.356 . S
C699 C693 1.363 . S
C699 C694 1.379 . S
C699 N697 1.356 . S
N700 C692 1.356 . S
N700 H706 0.984 1_565 S
N700 H707 0.984 . S
N701 C694 1.356 . S
N701 H704 0.984 . S
N701 H705 0.985 . S
H702 N697 0.984 . S
H703 N697 0.985 . S
H704 N701 0.984 . S
H705 N701 0.985 . S
H706 N700 0.984 1_545 S
H707 N700 0.984 . S
H708 N696 0.984 . S
H709 N696 0.985 . S
C710 C711 1.363 . S
C710 C716 1.379 . S
C710 N718 1.356 . S
C711 C710 1.363 . S
C711 C717 1.363 . S
C712 C713 1.363 . S
C712 C717 1.379 . S
C712 N719 1.356 . S
C713 C712 1.363 . S
C713 C716 1.363 . S
N714 C716 1.356 . S
N714 H726 0.984 . S
N714 H727 0.985 . S
N715 C717 1.356 1_565 S
N715 H720 0.984 . S
N715 H721 0.985 . S
C716 C710 1.379 . S
C716 C713 1.363 . S
C716 N714 1.356 . S
C717 C711 1.363 . S
C717 C712 1.379 . S
C717 N715 1.356 1_545 S
N718 C710 1.356 . S
N718 H724 0.984 . S
N718 H725 0.984 . S
N719 C712 1.356 . S
N719 H722 0.984 . S
N719 H723 0.985 . S
H720 N715 0.984 . S
H721 N715 0.985 . S
H722 N719 0.984 . S
H723 N719 0.985 . S
H724 N718 0.984 . S
H725 N718 0.984 . S
H726 N714 0.984 . S
H727 N714 0.985 . S
C728 C729 1.363 . S
C728 C734 1.379 . S
C728 N736 1.356 . S
C729 C728 1.363 . S
C729 C735 1.363 . S
C730 C731 1.363 . S
C730 C735 1.379 . S
C730 N737 1.356 . S
C731 C730 1.363 . S
C731 C734 1.363 . S
N732 C734 1.356 . S
N732 H744 0.984 . S
N732 H745 0.985 . S
N733 C735 1.356 1_545 S
N733 H738 0.984 . S
N733 H739 0.985 . S
C734 C728 1.379 . S
C734 C731 1.363 . S
C734 N732 1.356 . S
C735 C729 1.363 . S
C735 C730 1.379 . S
C735 N733 1.356 1_565 S
N736 C728 1.356 . S
N736 H742 0.984 . S
N736 H743 0.984 . S
N737 C730 1.356 . S
N737 H740 0.984 . S
N737 H741 0.985 1_565 S
H738 N733 0.984 . S
H739 N733 0.985 . S
H740 N737 0.984 . S
H741 N737 0.985 1_545 S
H742 N736 0.984 . S
H743 N736 0.984 . S
H744 N732 0.984 . S
H745 N732 0.985 . S
C746 C747 1.363 . S
C746 C752 1.379 . S
C746 N754 1.356 1_565 S
C747 C746 1.363 . S
C747 C753 1.363 . S
C748 C749 1.363 . S
C748 C753 1.379 . S
C748 N755 1.356 . S
C749 C748 1.363 . S
C749 C752 1.363 . S
N750 C752 1.356 . S
N750 H762 0.984 . S
N750 H763 0.985 . S
N751 C753 1.356 . S
N751 H756 0.984 1_565 S
N751 H757 0.985 . S
C752 C746 1.379 . S
C752 C749 1.363 . S
C752 N750 1.356 . S
C753 C747 1.363 . S
C753 C748 1.379 . S
C753 N751 1.356 . S
N754 C746 1.356 1_545 S
N754 H760 0.984 . S
N754 H761 0.984 . S
N755 C748 1.356 . S
N755 H758 0.984 . S
N755 H759 0.985 . S
H756 N751 0.984 1_545 S
H757 N751 0.985 . S
H758 N755 0.984 . S
H759 N755 0.985 . S
H760 N754 0.984 . S
H761 N754 0.984 . S
H762 N750 0.984 . S
H763 N750 0.985 . S
C764 C765 1.363 . S
C764 C770 1.379 . S
C764 N772 1.356 . S
C765 C764 1.363 . S
C765 C771 1.363 . S
C766 C767 1.363 . S
C766 C771 1.379 . S
C766 N773 1.356 . S
C767 C766 1.363 . S
C767 C770 1.363 . S
N768 C770 1.356 . S
N768 H780 0.984 . S
N768 H781 0.985 . S
N769 C771 1.356 . S
N769 H774 0.984 . S
N769 H775 0.985 1_545 S
C770 C764 1.379 . S
C770 C767 1.363 . S
C770 N768 1.356 . S
C771 C765 1.363 . S
C771 C766 1.379 . S
C771 N769 1.356 . S
N772 C764 1.356 . S
N772 H778 0.984 . S
N772 H779 0.984 . S
N773 C766 1.356 . S
N773 H776 0.984 . S
N773 H777 0.985 . S
H774 N769 0.984 . S
H775 N769 0.985 1_565 S
H776 N773 0.984 . S
H777 N773 0.985 . S
H778 N772 0.984 . S
H779 N772 0.984 . S
H780 N768 0.984 . S
H781 N768 0.985 . S
C782 C783 1.363 . S
C782 C788 1.379 . S
C782 N790 1.356 . S
C783 C782 1.363 . S
C783 C789 1.363 . S
C784 C785 1.363 . S
C784 C789 1.379 . S
C784 N791 1.356 . S
C785 C784 1.363 . S
C785 C788 1.363 . S
N786 C788 1.356 . S
N786 H798 0.984 . S
N786 H799 0.985 . S
N787 C789 1.356 1_565 S
N787 H792 0.984 . S
N787 H793 0.985 . S
C788 C782 1.379 . S
C788 C785 1.363 . S
C788 N786 1.356 . S
C789 C783 1.363 . S
C789 C784 1.379 . S
C789 N787 1.356 1_545 S
N790 C782 1.356 . S
N790 H796 0.984 . S
N790 H797 0.984 . S
N791 C784 1.356 . S
N791 H794 0.984 . S
N791 H795 0.985 . S
H792 N787 0.984 . S
H793 N787 0.985 . S
H794 N791 0.984 . S
H795 N791 0.985 . S
H796 N790 0.984 . S
H797 N790 0.984 . S
H798 N786 0.984 . S
H799 N786 0.985 . S
C800 C801 1.363 . S
C800 C806 1.379 . S
C800 N808 1.356 . S
C801 C800 1.363 . S
C801 C807 1.363 . S
C802 C803 1.363 . S
C802 C807 1.379 . S
C802 N809 1.356 . S
C803 C802 1.363 . S
C803 C806 1.363 . S
N804 C806 1.356 . S
N804 H816 0.984 . S
N804 H817 0.985 . S
N805 C807 1.356 . S
N805 H810 0.984 . S
N805 H811 0.985 . S
C806 C800 1.379 . S
C806 C803 1.363 . S
C806 N804 1.356 . S
C807 C801 1.363 . S
C807 C802 1.379 . S
C807 N805 1.356 . S
N808 C800 1.356 . S
N808 H814 0.984 . S
N808 H815 0.984 . S
N809 C802 1.356 . S
N809 H812 0.984 . S
N809 H813 0.985 . S
H810 N805 0.984 . S
H811 N805 0.985 . S
H812 N809 0.984 . S
H813 N809 0.985 . S
H814 N808 0.984 . S
H815 N808 0.984 . S
H816 N804 0.984 . S
H817 N804 0.985 . S
C818 C819 1.363 . S
C818 C824 1.379 . S
C818 N826 1.356 . S
C819 C818 1.363 . S
C819 C825 1.363 . S
C820 C821 1.363 . S
C820 C825 1.379 . S
C820 N827 1.356 . S
C821 C820 1.363 . S
C821 C824 1.363 . S
N822 C824 1.356 . S
N822 H834 0.984 . S
N822 H835 0.985 . S
N823 C825 1.356 . S
N823 H828 0.984 . S
N823 H829 0.985 . S
C824 C818 1.379 . S
C824 C821 1.363 . S
C824 N822 1.356 . S
C825 C819 1.363 . S
C825 C820 1.379 . S
C825 N823 1.356 . S
N826 C818 1.356 . S
N826 H832 0.984 . S
N826 H833 0.984 . S
N827 C820 1.356 . S
N827 H830 0.984 . S
N827 H831 0.985 . S
H828 N823 0.984 . S
H829 N823 0.985 . S
H830 N827 0.984 . S
H831 N827 0.985 . S
H832 N826 0.984 . S
H833 N826 0.984 . S
H834 N822 0.984 . S
H835 N822 0.985 . S
C836 C837 1.363 . S
C836 C842 1.379 . S
C836 N844 1.356 . S
C837 C836 1.363 . S
C837 C843 1.363 . S
C838 C839 1.363 . S
C838 C843 1.379 . S
C838 N845 1.356 . S
C839 C838 1.363 . S
C839 C842 1.363 . S
N840 C842 1.356 . S
N840 H852 0.984 . S
N840 H853 0.985 . S
N841 C843 1.356 . S
N841 H846 0.984 . S
N841 H847 0.985 . S
C842 C836 1.379 . S
C842 C839 1.363 . S
C842 N840 1.356 . S
C843 C837 1.363 . S
C843 C838 1.379 . S
C843 N841 1.356 . S
N844 C836 1.356 . S
N844 H850 0.984 . S
N844 H851 0.984 . S
N845 C838 1.356 . S
N845 H848 0.984 . S
N845 H849 0.985 . S
H846 N841 0.984 . S
H847 N841 0.985 . S
H848 N845 0.984 . S
H849 N845 0.985 . S
H850 N844 0.984 . S
H851 N844 0.984 . S
H852 N840 0.984 . S
H853 N840 0.985 . S
C854 C855 1.363 . S
C854 C860 1.379 . S
C854 N862 1.356 . S
C855 C854 1.363 . S
C855 C861 1.363 . S
C856 C857 1.363 . S
C856 C861 1.379 . S
C856 N863 1.356 . S
C857 C856 1.363 . S
C857 C860 1.363 . S
N858 C860 1.356 . S
N858 H870 0.984 . S
N858 H871 0.985 . S
N859 C861 1.356 . S
N859 H864 0.984 . S
N859 H865 0.985 . S
C860 C854 1.379 . S
C860 C857 1.363 . S
C860 N858 1.356 . S
C861 C855 1.363 . S
C861 C856 1.379 . S
C861 N859 1.356 . S
N862 C854 1.356 . S
N862 H868 0.984 . S
N862 H869 0.984 . S
N863 C856 1.356 . S
N863 H866 0.984 . S
N863 H867 0.985 . S
H864 N859 0.984 . S
H865 N859 0.985 . S
H866 N863 0.984 . S
H867 N863 0.985 . S
H868 N862 0.984 . S
H869 N862 0.984 . S
H870 N858 0.984 . S
H871 N858 0.985 . S
C872 C873 1.363 . S
C872 C878 1.379 . S
C872 N880 1.356 . S
C873 C872 1.363 . S
C873 C879 1.363 . S
C874 C875 1.363 . S
C874 C879 1.379 . S
C874 N881 1.356 . S
C875 C874 1.363 . S
C875 C878 1.363 . S
N876 C878 1.356 . S
N876 H888 0.984 . S
N876 H889 0.985 . S
N877 C879 1.356 . S
N877 H882 0.984 . S
N877 H883 0.985 . S
C878 C872 1.379 . S
C878 C875 1.363 . S
C878 N876 1.356 . S
C879 C873 1.363 . S
C879 C874 1.379 . S
C879 N877 1.356 . S
N880 C872 1.356 . S
N880 H886 0.984 . S
N880 H887 0.984 . S
N881 C874 1.356 . S
N881 H884 0.984 . S
N881 H885 0.985 . S
H882 N877 0.984 . S
H883 N877 0.985 . S
H884 N881 0.984 . S
H885 N881 0.985 . S
H886 N880 0.984 . S
H887 N880 0.984 . S
H888 N876 0.984 . S
H889 N876 0.985 . S
C890 C891 1.363 . S
C890 C896 1.379 . S
C890 N898 1.356 . S
C891 C890 1.363 . S
C891 C897 1.363 . S
C892 C893 1.363 . S
C892 C897 1.379 . S
C892 N899 1.356 . S
C893 C892 1.363 . S
C893 C896 1.363 . S
N894 C896 1.356 . S
N894 H906 0.984 . S
N894 H907 0.985 . S
N895 C897 1.356 . S
N895 H900 0.984 . S
N895 H901 0.985 . S
C896 C890 1.379 . S
C896 C893 1.363 . S
C896 N894 1.356 . S
C897 C891 1.363 . S
C897 C892 1.379 . S
C897 N895 1.356 . S
N898 C890 1.356 . S
N898 H904 0.984 . S
N898 H905 0.984 . S
N899 C892 1.356 . S
N899 H902 0.984 . S
N899 H903 0.985 . S
H900 N895 0.984 . S
H901 N895 0.985 . S
H902 N899 0.984 . S
H903 N899 0.985 . S
H904 N898 0.984 . S
H905 N898 0.984 . S
H906 N894 0.984 . S
H907 N894 0.985 . S
C908 C909 1.363 . S
C908 C914 1.379 . S
C908 N916 1.356 . S
C909 C908 1.363 . S
C909 C915 1.363 . S
C910 C911 1.363 . S
C910 C915 1.379 . S
C910 N917 1.356 . S
C911 C910 1.363 . S
C911 C914 1.363 . S
N912 C914 1.356 . S
N912 H924 0.984 . S
N912 H925 0.985 . S
N913 C915 1.356 . S
N913 H918 0.984 . S
N913 H919 0.985 . S
C914 C908 1.379 . S
C914 C911 1.363 . S
C914 N912 1.356 . S
C915 C909 1.363 . S
C915 C910 1.379 . S
C915 N913 1.356 . S
N916 C908 1.356 . S
N916 H922 0.984 . S
N916 H923 0.984 . S
N917 C910 1.356 . S
N917 H920 0.984 . S
N917 H921 0.985 . S
H918 N913 0.984 . S
H919 N913 0.985 . S
H920 N917 0.984 . S
H921 N917 0.985 . S
H922 N916 0.984 . S
H923 N916 0.984 . S
H924 N912 0.984 . S
H925 N912 0.985 . S
C926 C927 1.363 . S
C926 C932 1.379 . S
C926 N934 1.356 . S
C927 C926 1.363 . S
C927 C933 1.363 . S
C928 C929 1.363 . S
C928 C933 1.379 . S
C928 N935 1.356 . S
C929 C928 1.363 . S
C929 C932 1.363 . S
N930 C932 1.356 . S
N930 H942 0.984 . S
N930 H943 0.985 . S
N931 C933 1.356 . S
N931 H936 0.984 . S
N931 H937 0.985 . S
C932 C926 1.379 . S
C932 C929 1.363 . S
C932 N930 1.356 . S
C933 C927 1.363 . S
C933 C928 1.379 . S
C933 N931 1.356 . S
N934 C926 1.356 . S
N934 H940 0.984 . S
N934 H941 0.984 . S
N935 C928 1.356 . S
N935 H938 0.984 . S
N935 H939 0.985 . S
H936 N931 0.984 . S
H937 N931 0.985 . S
H938 N935 0.984 . S
H939 N935 0.985 . S
H940 N934 0.984 . S
H941 N934 0.984 . S
H942 N930 0.984 . S
H943 N930 0.985 . S
C944 C945 1.363 . S
C944 C950 1.379 . S
C944 N952 1.356 . S
C945 C944 1.363 . S
C945 C951 1.363 . S
C946 C947 1.363 . S
C946 C951 1.379 . S
C946 N953 1.356 . S
C947 C946 1.363 . S
C947 C950 1.363 . S
N948 C950 1.356 . S
N948 H960 0.984 . S
N948 H961 0.985 . S
N949 C951 1.356 . S
N949 H954 0.984 . S
N949 H955 0.985 . S
C950 C944 1.379 . S
C950 C947 1.363 . S
C950 N948 1.356 . S
C951 C945 1.363 . S
C951 C946 1.379 . S
C951 N949 1.356 . S
N952 C944 1.356 . S
N952 H958 0.984 . S
N952 H959 0.984 . S
N953 C946 1.356 . S
N953 H956 0.984 . S
N953 H957 0.985 . S
H954 N949 0.984 . S
H955 N949 0.985 . S
H956 N953 0.984 . S
H957 N953 0.985 . S
H958 N952 0.984 . S
H959 N952 0.984 . S
H960 N948 0.984 . S
H961 N948 0.985 . S
C962 C963 1.363 . S
C962 C968 1.379 . S
C962 N970 1.356 . S
C963 C962 1.363 . S
C963 C969 1.363 . S
C964 C965 1.363 . S
C964 C969 1.379 . S
C964 N971 1.356 . S
C965 C964 1.363 . S
C965 C968 1.363 . S
N966 C968 1.356 . S
N966 H978 0.984 . S
N966 H979 0.985 . S
N967 C969 1.356 . S
N967 H972 0.984 . S
N967 H973 0.985 . S
C968 C962 1.379 . S
C968 C965 1.363 . S
C968 N966 1.356 . S
C969 C963 1.363 . S
C969 C964 1.379 . S
C969 N967 1.356 . S
N970 C962 1.356 . S
N970 H976 0.984 . S
N970 H977 0.984 . S
N971 C964 1.356 . S
N971 H974 0.984 . S
N971 H975 0.985 . S
H972 N967 0.984 . S
H973 N967 0.985 . S
H974 N971 0.984 . S
H975 N971 0.985 . S
H976 N970 0.984 . S
H977 N970 0.984 . S
H978 N966 0.984 . S
H979 N966 0.985 . S
C980 C981 1.363 . S
C980 C986 1.379 . S
C980 N988 1.356 . S
C981 C980 1.363 . S
C981 C987 1.363 . S
C982 C983 1.363 . S
C982 C987 1.379 . S
C982 N989 1.356 . S
C983 C982 1.363 . S
C983 C986 1.363 . S
N984 C986 1.356 . S
N984 H996 0.984 . S
N984 H997 0.985 . S
N985 C987 1.356 . S
N985 H990 0.984 . S
N985 H991 0.985 . S
C986 C980 1.379 . S
C986 C983 1.363 . S
C986 N984 1.356 . S
C987 C981 1.363 . S
C987 C982 1.379 . S
C987 N985 1.356 . S
N988 C980 1.356 . S
N988 H994 0.984 . S
N988 H995 0.984 . S
N989 C982 1.356 . S
N989 H992 0.984 . S
N989 H993 0.985 . S
H990 N985 0.984 . S
H991 N985 0.985 . S
H992 N989 0.984 . S
H993 N989 0.985 . S
H994 N988 0.984 . S
H995 N988 0.984 . S
H996 N984 0.984 . S
H997 N984 0.985 . S
C998 C999 1.363 . S
C998 C1004 1.379 . S
C998 N1006 1.356 . S
C999 C998 1.363 . S
C999 C1005 1.363 . S
C1000 C1001 1.363 . S
C1000 C1005 1.379 . S
C1000 N1007 1.356 . S
C1001 C1000 1.363 . S
C1001 C1004 1.363 . S
N1002 C1004 1.356 . S
N1002 H1014 0.984 . S
N1002 H1015 0.985 . S
N1003 C1005 1.356 . S
N1003 H1008 0.984 . S
N1003 H1009 0.985 . S
C1004 C998 1.379 . S
C1004 C1001 1.363 . S
C1004 N1002 1.356 . S
C1005 C999 1.363 . S
C1005 C1000 1.379 . S
C1005 N1003 1.356 . S
N1006 C998 1.356 . S
N1006 H1012 0.984 . S
N1006 H1013 0.984 . S
N1007 C1000 1.356 . S
N1007 H1010 0.984 . S
N1007 H1011 0.985 . S
H1008 N1003 0.984 . S
H1009 N1003 0.985 . S
H1010 N1007 0.984 . S
H1011 N1007 0.985 . S
H1012 N1006 0.984 . S
H1013 N1006 0.984 . S
H1014 N1002 0.984 . S
H1015 N1002 0.985 . S
C1016 C1017 1.363 . S
C1016 C1022 1.379 . S
C1016 N1024 1.356 . S
C1017 C1016 1.363 . S
C1017 C1023 1.363 . S
C1018 C1019 1.363 . S
C1018 C1023 1.379 . S
C1018 N1025 1.356 . S
C1019 C1018 1.363 . S
C1019 C1022 1.363 . S
N1020 C1022 1.356 . S
N1020 H1032 0.984 . S
N1020 H1033 0.985 . S
N1021 C1023 1.356 . S
N1021 H1026 0.984 . S
N1021 H1027 0.985 . S
C1022 C1016 1.379 . S
C1022 C1019 1.363 . S
C1022 N1020 1.356 . S
C1023 C1017 1.363 . S
C1023 C1018 1.379 . S
C1023 N1021 1.356 . S
N1024 C1016 1.356 . S
N1024 H1030 0.984 . S
N1024 H1031 0.984 . S
N1025 C1018 1.356 . S
N1025 H1028 0.984 . S
N1025 H1029 0.985 . S
H1026 N1021 0.984 . S
H1027 N1021 0.985 . S
H1028 N1025 0.984 . S
H1029 N1025 0.985 . S
H1030 N1024 0.984 . S
H1031 N1024 0.984 . S
H1032 N1020 0.984 . S
H1033 N1020 0.985 . S
C1034 C1035 1.363 . S
C1034 C1040 1.379 . S
C1034 N1042 1.356 . S
C1035 C1034 1.363 . S
C1035 C1041 1.363 . S
C1036 C1037 1.363 . S
C1036 C1041 1.379 . S
C1036 N1043 1.356 . S
C1037 C1036 1.363 . S
C1037 C1040 1.363 . S
N1038 C1040 1.356 . S
N1038 H1050 0.984 . S
N1038 H1051 0.985 . S
N1039 C1041 1.356 . S
N1039 H1044 0.984 . S
N1039 H1045 0.985 . S
C1040 C1034 1.379 . S
C1040 C1037 1.363 . S
C1040 N1038 1.356 . S
C1041 C1035 1.363 . S
C1041 C1036 1.379 . S
C1041 N1039 1.356 . S
N1042 C1034 1.356 . S
N1042 H1048 0.984 . S
N1042 H1049 0.984 . S
N1043 C1036 1.356 . S
N1043 H1046 0.984 . S
N1043 H1047 0.985 . S
H1044 N1039 0.984 . S
H1045 N1039 0.985 . S
H1046 N1043 0.984 . S
H1047 N1043 0.985 . S
H1048 N1042 0.984 . S
H1049 N1042 0.984 . S
H1050 N1038 0.984 . S
H1051 N1038 0.985 . S
C1052 C1053 1.363 . S
C1052 C1058 1.379 . S
C1052 N1060 1.356 . S
C1053 C1052 1.363 . S
C1053 C1059 1.363 . S
C1054 C1055 1.363 . S
C1054 C1059 1.379 . S
C1054 N1061 1.356 . S
C1055 C1054 1.363 . S
C1055 C1058 1.363 . S
N1056 C1058 1.356 . S
N1056 H1068 0.984 . S
N1056 H1069 0.985 . S
N1057 C1059 1.356 . S
N1057 H1062 0.984 . S
N1057 H1063 0.985 . S
C1058 C1052 1.379 . S
C1058 C1055 1.363 . S
C1058 N1056 1.356 . S
C1059 C1053 1.363 . S
C1059 C1054 1.379 . S
C1059 N1057 1.356 . S
N1060 C1052 1.356 . S
N1060 H1066 0.984 . S
N1060 H1067 0.984 . S
N1061 C1054 1.356 . S
N1061 H1064 0.984 . S
N1061 H1065 0.985 . S
H1062 N1057 0.984 . S
H1063 N1057 0.985 . S
H1064 N1061 0.984 . S
H1065 N1061 0.985 . S
H1066 N1060 0.984 . S
H1067 N1060 0.984 . S
H1068 N1056 0.984 . S
H1069 N1056 0.985 . S
C1070 C1071 1.363 . S
C1070 C1076 1.379 . S
C1070 N1078 1.356 . S
C1071 C1070 1.363 . S
C1071 C1077 1.363 . S
C1072 C1073 1.363 . S
C1072 C1077 1.379 . S
C1072 N1079 1.356 . S
C1073 C1072 1.363 . S
C1073 C1076 1.363 . S
N1074 C1076 1.356 . S
N1074 H1086 0.984 . S
N1074 H1087 0.985 . S
N1075 C1077 1.356 . S
N1075 H1080 0.984 . S
N1075 H1081 0.985 . S
C1076 C1070 1.379 . S
C1076 C1073 1.363 . S
C1076 N1074 1.356 . S
C1077 C1071 1.363 . S
C1077 C1072 1.379 . S
C1077 N1075 1.356 . S
N1078 C1070 1.356 . S
N1078 H1084 0.984 . S
N1078 H1085 0.984 . S
N1079 C1072 1.356 . S
N1079 H1082 0.984 . S
N1079 H1083 0.985 . S
H1080 N1075 0.984 . S
H1081 N1075 0.985 . S
H1082 N1079 0.984 . S
H1083 N1079 0.985 . S
H1084 N1078 0.984 . S
H1085 N1078 0.984 . S
H1086 N1074 0.984 . S
H1087 N1074 0.985 . S
C515 C433 1.537 . S
C513 C45 1.560 . S
C531 C78 1.544 1_545 S
C533 C465 1.534 . S
C549 C126 1.543 . S
C551 C488 1.550 . S
C569 C392 1.552 . S
C567 C174 1.546 1_565 S
C587 C475 1.381 . S
C585 C36 1.542 . S
C605 C504 1.393 . S
C603 C69 1.536 1_545 S
C623 C408 1.392 . S
C621 C117 1.536 . S
C641 C443 1.380 . S
C639 C165 1.533 1_565 S
C657 C30 1.542 . S
C659 C471 1.390 . S
C675 C228 1.533 1_565 S
C677 C446 1.381 . S
C693 C141 1.517 . S
C695 C414 1.378 . S
C713 C503 1.387 . S
C711 C270 1.539 1_545 S
C731 C447 1.537 . S
C729 C21 1.563 . S
C747 C237 1.546 1_565 S
C749 C415 1.537 . S
C765 C132 1.560 . S
C767 C502 1.556 . S
C785 C470 1.556 . S
C783 C261 1.565 1_545 S
C801 C333 1.558 . S
C803 C497 1.534 . S
C819 C213 1.558 . S
C821 C401 1.537 . S
C837 C357 1.558 . S
C839 C424 1.553 . S
C855 C285 1.558 . S
C857 C456 1.550 . S
C875 C411 1.383 . S
C873 C324 1.544 . S
C891 C222 1.519 . S
C893 C440 1.390 . S
C909 C366 1.519 . S
C911 C472 1.389 . S
C929 C507 1.383 . S
C927 C276 1.544 . S
C945 C318 1.539 . S
C947 C407 1.387 . S
C963 C93 1.517 . S
C965 C510 1.378 . S
C981 C372 1.533 . S
C983 C478 1.380 . S
C1001 C439 1.390 . S
C999 C189 1.519 . S
C1019 C511 1.540 . S
C1017 C309 1.566 . S
C1037 C479 1.539 . S
C1035 C84 1.560 . S
C1055 C438 1.553 . S
C1053 C381 1.546 . S
C1073 C406 1.553 . S
C1071 C180 1.558 . S
