# Generated by pormake.
# Topology pyr, (3,6)-cn, num edge types: 1
# Building blocks:
#     Node 0, Type 0, BuildingBlock: CUQRIR_clean_linker_1, # of connection points: 3
#     Node 1, Type 0, BuildingBlock: CUQRIR_clean_linker_1, # of connection points: 3
#     Node 2, Type 0, BuildingBlock: CUQRIR_clean_linker_1, # of connection points: 3
#     Node 3, Type 0, BuildingBlock: CUQRIR_clean_linker_1, # of connection points: 3
#     Node 4, Type 0, BuildingBlock: CUQRIR_clean_linker_1, # of connection points: 3
#     Node 5, Type 0, BuildingBlock: CUQRIR_clean_linker_1, # of connection points: 3
#     Node 6, Type 0, BuildingBlock: CUQRIR_clean_linker_1, # of connection points: 3
#     Node 7, Type 0, BuildingBlock: CUQRIR_clean_linker_1, # of connection points: 3
#     Node 8, Type 1, BuildingBlock: VOLQOD_clean_sbu_1, # of connection points: 6
#     Node 9, Type 1, BuildingBlock: VOLQOD_clean_sbu_1, # of connection points: 6
#     Node 10, Type 1, BuildingBlock: VOLQOD_clean_sbu_1, # of connection points: 6
#     Node 11, Type 1, BuildingBlock: VOLQOD_clean_sbu_1, # of connection points: 6
#     Edge 12, Type (0, 1), BuildingBlock: OJICUG_clean_linker_0, # of connection points: 2
#     Edge 13, Type (0, 1), BuildingBlock: OJICUG_clean_linker_0, # of connection points: 2
#     Edge 14, Type (0, 1), BuildingBlock: OJICUG_clean_linker_0, # of connection points: 2
#     Edge 15, Type (0, 1), BuildingBlock: OJICUG_clean_linker_0, # of connection points: 2
#     Edge 16, Type (0, 1), BuildingBlock: OJICUG_clean_linker_0, # of connection points: 2
#     Edge 17, Type (0, 1), BuildingBlock: OJICUG_clean_linker_0, # of connection points: 2
#     Edge 18, Type (0, 1), BuildingBlock: OJICUG_clean_linker_0, # of connection points: 2
#     Edge 19, Type (0, 1), BuildingBlock: OJICUG_clean_linker_0, # of connection points: 2
#     Edge 20, Type (0, 1), BuildingBlock: OJICUG_clean_linker_0, # of connection points: 2
#     Edge 21, Type (0, 1), BuildingBlock: OJICUG_clean_linker_0, # of connection points: 2
#     Edge 22, Type (0, 1), BuildingBlock: OJICUG_clean_linker_0, # of connection points: 2
#     Edge 23, Type (0, 1), BuildingBlock: OJICUG_clean_linker_0, # of connection points: 2
#     Edge 24, Type (0, 1), BuildingBlock: OJICUG_clean_linker_0, # of connection points: 2
#     Edge 25, Type (0, 1), BuildingBlock: OJICUG_clean_linker_0, # of connection points: 2
#     Edge 26, Type (0, 1), BuildingBlock: OJICUG_clean_linker_0, # of connection points: 2
#     Edge 27, Type (0, 1), BuildingBlock: OJICUG_clean_linker_0, # of connection points: 2
#     Edge 28, Type (0, 1), BuildingBlock: OJICUG_clean_linker_0, # of connection points: 2
#     Edge 29, Type (0, 1), BuildingBlock: OJICUG_clean_linker_0, # of connection points: 2
#     Edge 30, Type (0, 1), BuildingBlock: OJICUG_clean_linker_0, # of connection points: 2
#     Edge 31, Type (0, 1), BuildingBlock: OJICUG_clean_linker_0, # of connection points: 2
#     Edge 32, Type (0, 1), BuildingBlock: OJICUG_clean_linker_0, # of connection points: 2
#     Edge 33, Type (0, 1), BuildingBlock: OJICUG_clean_linker_0, # of connection points: 2
#     Edge 34, Type (0, 1), BuildingBlock: OJICUG_clean_linker_0, # of connection points: 2
#     Edge 35, Type (0, 1), BuildingBlock: OJICUG_clean_linker_0, # of connection points: 2
# Relax obj value: 0.122
# Max RMSD: 0.209
# Mean RMSD: 0.164
data_MOF--net-pry--node1-VOLQOD_clean_sbu_1--node2-CUQRIR_clean_linker_1--edge1-OJICUG_clean_linker_0
_symmetry_space_group_name_H-M    P1
_symmetry_Int_Tables_number       1
_symmetry_cell_setting            triclinic
loop_
_symmetry_equiv_pos_as_xyz
'x, y, z'
_cell_length_a     24.868345
_cell_length_b     24.831984
_cell_length_c     24.463771
_cell_angle_alpha  88.340332
_cell_angle_beta   92.407657
_cell_angle_gamma 94.520764
loop_
_atom_site_label
_atom_site_type_symbol
_atom_site_fract_x
_atom_site_fract_y
_atom_site_fract_z
_atom_type_partial_charge
C0 C 0.11914 0.17174 0.16597 0.0
N1 N 0.15894 0.13828 0.17599 0.0
N2 N 0.13248 0.20801 0.12559 0.0
C3 C 0.06762 0.16945 0.19654 0.0
C4 C 0.1819 0.19524 0.11127 0.0
N5 N 0.1982 0.15289 0.14217 0.0
C6 C 0.21635 0.2272 0.07074 0.0
H7 H 0.05292 0.12706 0.20602 0.0
H8 H 0.03541 0.18913 0.17258 0.0
H9 H 0.0756 0.19031 0.2359 0.0
H10 H 0.20855 0.27059 0.07057 0.0
H11 H 0.2063 0.21171 0.02917 0.0
H12 H 0.25989 0.22321 0.08031 0.0
C13 C 0.40067 0.88127 0.62863 0.0
N14 N 0.38561 0.91396 0.66766 0.0
N15 N 0.43535 0.84615 0.64964 0.0
C16 C 0.3767 0.87956 0.57102 0.0
C17 C 0.44162 0.85897 0.70301 0.0
N18 N 0.4107 0.89964 0.71431 0.0
C19 C 0.47604 0.82981 0.74445 0.0
H20 H 0.33488 0.86036 0.5716 0.0
H21 H 0.40079 0.85637 0.54417 0.0
H22 H 0.3748 0.92113 0.55363 0.0
H23 H 0.50923 0.81142 0.7248 0.0
H24 H 0.45065 0.79698 0.7647 0.0
H25 H 0.49372 0.8578 0.77612 0.0
C26 C 0.54988 0.40216 0.92096 0.0
N27 N 0.59091 0.38565 0.95384 0.0
N28 N 0.56577 0.44631 0.89018 0.0
C29 C 0.49487 0.37236 0.91541 0.0
C30 C 0.61723 0.45844 0.90869 0.0
N31 N 0.63274 0.42139 0.94664 0.0
C32 C 0.65486 0.50206 0.88367 0.0
H33 H 0.49558 0.33902 0.88634 0.0
H34 H 0.46456 0.4001 0.8997 0.0
H35 H 0.48288 0.35442 0.9556 0.0
H36 H 0.63383 0.53938 0.87579 0.0
H37 H 0.6681 0.48827 0.84399 0.0
H38 H 0.69093 0.51194 0.91083 0.0
C39 C 0.87079 0.59812 0.36437 0.0
N40 N 0.91526 0.63011 0.351 0.0
N41 N 0.84862 0.61622 0.40938 0.0
C42 C 0.84758 0.55055 0.33178 0.0
C43 C 0.88125 0.66027 0.42312 0.0
N44 N 0.92181 0.66872 0.38785 0.0
C45 C 0.87065 0.69768 0.46825 0.0
H46 H 0.83208 0.56524 0.29129 0.0
H47 H 0.81466 0.52695 0.3531 0.0
H48 H 0.87937 0.52305 0.32451 0.0
H49 H 0.8867 0.68092 0.50762 0.0
H50 H 0.82667 0.70079 0.47174 0.0
H51 H 0.89043 0.73879 0.46158 0.0
C52 C 0.85567 0.87554 0.91097 0.0
N53 N 0.89441 0.86549 0.87658 0.0
N54 N 0.83828 0.92495 0.90028 0.0
C55 C 0.83384 0.83649 0.95436 0.0
C56 C 0.8678 0.94488 0.8581 0.0
N57 N 0.90275 0.90882 0.84399 0.0
C58 C 0.85796 0.9966 0.82693 0.0
H59 H 0.80275 0.80766 0.93523 0.0
H60 H 0.81506 0.85797 0.98691 0.0
H61 H 0.86638 0.81297 0.97296 0.0
H62 H 0.88799 0.029 0.84145 0.0
H63 H 0.81704 0.0094 0.83348 0.0
H64 H 0.86271 0.99189 0.78246 0.0
C65 C 0.6981 0.16802 0.46496 0.0
N66 N 0.71157 0.12651 0.43455 0.0
N67 N 0.64719 0.18089 0.45173 0.0
C68 C 0.73609 0.19913 0.50419 0.0
C69 C 0.63018 0.14621 0.41208 0.0
N70 N 0.66891 0.113 0.4016 0.0
C71 C 0.57777 0.14888 0.37913 0.0
H72 H 0.73277 0.18 0.54558 0.0
H73 H 0.72562 0.24158 0.50663 0.0
H74 H 0.77846 0.19857 0.4918 0.0
H75 H 0.58639 0.16466 0.33723 0.0
H76 H 0.55016 0.17528 0.39803 0.0
H77 H 0.55711 0.10785 0.37547 0.0
C78 C 0.37246 0.59266 0.13111 0.0
N79 N 0.41329 0.62272 0.15634 0.0
N80 N 0.35652 0.61713 0.08373 0.0
C81 C 0.34218 0.54427 0.15703 0.0
C82 C 0.3897 0.66279 0.08083 0.0
N83 N 0.42412 0.66636 0.12502 0.0
C84 C 0.38337 0.70749 0.0387 0.0
H85 H 0.3268 0.51519 0.12542 0.0
H86 H 0.30708 0.55785 0.17797 0.0
H87 H 0.36815 0.52357 0.18762 0.0
H88 H 0.36293 0.74036 0.05705 0.0
H89 H 0.35908 0.69268 0.00231 0.0
H90 H 0.42354 0.72462 0.02579 0.0
C91 C 0.06366 0.38456 0.62785 0.0
N92 N 0.10206 0.36782 0.59596 0.0
N93 N 0.07463 0.43679 0.64136 0.0
C94 C 0.01701 0.34902 0.64956 0.0
C95 C 0.12025 0.45187 0.61458 0.0
N96 N 0.13677 0.41024 0.58661 0.0
C97 C 0.153 0.50493 0.62244 0.0
H98 H 0.00626 0.31409 0.62289 0.0
H99 H 0.98114 0.3725 0.65233 0.0
H100 H 0.028 0.33403 0.6914 0.0
H101 H 0.13197 0.53261 0.64753 0.0
H102 H 0.16063 0.52491 0.58209 0.0
H103 H 0.1927 0.49749 0.64248 0.0
O104 O 0.04944 0.11821 0.56845 0.0
Zn105 Zn 0.01443 0.04291 0.5565 0.0
O106 O 0.05675 0.00212 0.51036 0.0
Zn107 Zn 0.01888 0.98983 0.44002 0.0
Zn108 Zn 0.12508 0.04407 0.49927 0.0
Zn109 Zn 0.07026 0.93316 0.54696 0.0
O110 O 0.00774 0.91011 0.4269 0.0
O111 O 0.05231 0.87023 0.49546 0.0
O112 O 0.94032 0.05061 0.52105 0.0
O113 O 0.9454 0.02214 0.43617 0.0
O114 O 0.06552 0.01933 0.37899 0.0
O115 O 0.14444 0.04417 0.42081 0.0
O116 O 0.18398 0.01572 0.54845 0.0
O117 O 0.00489 0.00465 0.62919 0.0
O118 O 0.14747 0.93619 0.57805 0.0
O119 O 0.02538 0.92088 0.61398 0.0
C120 C 0.09007 0.1445 0.54775 0.0
C121 C 0.02506 0.86781 0.44997 0.0
C122 C 0.11523 0.03618 0.37738 0.0
C123 C 0.91926 0.04268 0.47322 0.0
C124 C 0.18687 0.97238 0.57723 0.0
C125 C 0.00712 0.95538 0.64447 0.0
O126 O 0.12136 0.12217 0.51717 0.0
O127 O 0.51991 0.14045 0.99942 0.0
Zn128 Zn 0.48154 0.06638 0.01276 0.0
O129 O 0.52657 0.02202 0.05966 0.0
Zn130 Zn 0.53414 0.95733 0.02018 0.0
Zn131 Zn 0.59708 0.06109 0.07252 0.0
Zn132 Zn 0.49514 0.00159 0.13032 0.0
O133 O 0.52365 0.89169 0.06822 0.0
O134 O 0.48207 0.91989 0.13937 0.0
O135 O 0.45845 0.03245 0.93929 0.0
O136 O 0.48215 0.94903 0.95499 0.0
O137 O 0.60757 0.9592 0.99148 0.0
O138 O 0.65306 0.03085 0.02782 0.0
O139 O 0.62124 0.05701 0.15148 0.0
O140 O 0.41403 0.07549 0.05262 0.0
O141 O 0.54801 0.02289 0.1932 0.0
O142 O 0.42418 0.0368 0.13559 0.0
C143 C 0.56324 0.16429 0.01963 0.0
C144 C 0.50023 0.88208 0.11305 0.0
C145 C 0.6506 0.99 0.99732 0.0
C146 C 0.45825 0.9834 0.9252 0.0
C147 C 0.59719 0.04206 0.19488 0.0
C148 C 0.39682 0.06323 0.10013 0.0
O149 O 0.59559 0.13977 0.05129 0.0
O150 O 0.54782 0.52263 0.63922 0.0
Zn151 Zn 0.54713 0.55228 0.56203 0.0
O152 O 0.49714 0.50686 0.51566 0.0
Zn153 Zn 0.53347 0.48992 0.45089 0.0
Zn154 Zn 0.47424 0.43961 0.55417 0.0
Zn155 Zn 0.43461 0.54569 0.49404 0.0
O156 O 0.49743 0.51696 0.38203 0.0
O157 O 0.43573 0.5666 0.41372 0.0
O158 O 0.62299 0.56237 0.53315 0.0
O159 O 0.60643 0.52791 0.45095 0.0
O160 O 0.54676 0.41145 0.44962 0.0
O161 O 0.51277 0.37722 0.52681 0.0
O162 O 0.39272 0.42392 0.54776 0.0
O163 O 0.52039 0.62565 0.56819 0.0
O164 O 0.36564 0.49937 0.50807 0.0
O165 O 0.43561 0.61501 0.53542 0.0
C166 C 0.52364 0.48117 0.66163 0.0
C167 C 0.46179 0.55074 0.37421 0.0
C168 C 0.53931 0.37232 0.48398 0.0
C169 C 0.63801 0.55279 0.48547 0.0
C170 C 0.3551 0.45225 0.52906 0.0
C171 C 0.47402 0.64322 0.55968 0.0
O172 O 0.49441 0.44649 0.63398 0.0
O173 O 0.96225 0.52999 0.12825 0.0
Zn174 Zn 0.95912 0.487 0.05849 0.0
O175 O 0.99314 0.52948 0.99871 0.0
Zn176 Zn 0.94383 0.53807 0.93515 0.0
Zn177 Zn 0.02067 0.59983 0.02616 0.0
Zn178 Zn 0.0522 0.4918 0.97373 0.0
O179 O 0.97212 0.51235 0.86424 0.0
O180 O 0.05131 0.48582 0.89345 0.0
O181 O 0.88096 0.46425 0.03614 0.0
O182 O 0.87335 0.49541 0.94982 0.0
O183 O 0.93434 0.61739 0.91987 0.0
O184 O 0.99606 0.65882 0.97589 0.0
O185 O 0.10177 0.60625 0.02958 0.0
O186 O 0.99734 0.4187 0.07501 0.0
O187 O 0.12259 0.52961 0.9945 0.0
O188 O 0.05291 0.41798 0.00631 0.0
C189 C 0.97679 0.57906 0.13923 0.0
C190 C 0.01724 0.49434 0.85477 0.0
C191 C 0.9608 0.66028 0.9367 0.0
C192 C 0.8539 0.46897 0.99096 0.0
C193 C 0.13659 0.57486 0.01565 0.0
C194 C 0.03158 0.39564 0.0483 0.0
O195 O 0.99687 0.61186 0.10313 0.0
C196 C 0.18655 0.12371 0.27148 0.0
C197 C 0.16224 0.10297 0.22306 0.0
H198 H 0.19191 0.11749 0.35873 0.0
C199 C 0.12891 0.05482 0.22509 0.0
H200 H 0.2105 0.16205 0.2707 0.0
C201 C 0.11599 0.03051 0.27558 0.0
C202 C 0.13744 0.05355 0.32436 0.0
H203 H 0.10886 0.03923 0.18803 0.0
H204 H 0.08691 0.99567 0.27661 0.0
C205 C 0.17515 0.09859 0.32175 0.0
C206 C 0.42434 0.97937 0.77266 0.0
C207 C 0.40792 0.92437 0.76668 0.0
H208 H 0.45289 0.0418 0.82825 0.0
C209 C 0.39893 0.89186 0.81381 0.0
H210 H 0.43156 0.00509 0.7368 0.0
C211 C 0.41244 0.91213 0.86572 0.0
C212 C 0.43363 0.96588 0.87168 0.0
H213 H 0.38524 0.8496 0.81016 0.0
H214 H 0.40867 0.88499 0.90107 0.0
C215 C 0.43682 0.00015 0.82489 0.0
C216 C 0.54433 0.41154 0.7983 0.0
C217 C 0.54791 0.45503 0.83417 0.0
H218 H 0.53284 0.38583 0.71571 0.0
C219 C 0.54116 0.50727 0.81308 0.0
H220 H 0.55144 0.37117 0.81318 0.0
C221 C 0.53315 0.51609 0.75667 0.0
C222 C 0.53023 0.47244 0.72105 0.0
H223 H 0.54372 0.54126 0.84004 0.0
H224 H 0.52933 0.55688 0.74087 0.0
C225 C 0.53455 0.42001 0.74245 0.0
C226 C 0.93385 0.66054 0.2564 0.0
C227 C 0.94407 0.62608 0.30156 0.0
H228 H 0.93717 0.67307 0.16923 0.0
C229 C 0.97094 0.57949 0.29352 0.0
H230 H 0.91146 0.69558 0.26116 0.0
C231 C 0.98297 0.56501 0.24081 0.0
C232 C 0.97006 0.59791 0.19524 0.0
H233 H 0.97853 0.55204 0.32768 0.0
H234 H 0.00081 0.52718 0.23546 0.0
C235 C 0.94762 0.64706 0.20372 0.0
C236 C 0.25467 0.10562 0.0825 0.0
C237 C 0.24558 0.12455 0.13449 0.0
H238 H 0.30981 0.07171 0.03089 0.0
C239 C 0.2852 0.11962 0.1766 0.0
H240 H 0.22452 0.10886 0.04956 0.0
C241 C 0.33366 0.09715 0.1664 0.0
C242 C 0.34366 0.08074 0.11354 0.0
H243 H 0.28005 0.13534 0.21653 0.0
H244 H 0.36432 0.09518 0.19903 0.0
C245 C 0.30337 0.08448 0.07193 0.0
C246 C 0.28796 0.90852 0.67427 0.0
C247 C 0.33585 0.93958 0.66252 0.0
H248 H 0.20336 0.89362 0.65558 0.0
C249 C 0.33315 0.98617 0.62911 0.0
H250 H 0.28955 0.87178 0.69905 0.0
C251 C 0.28415 0.99843 0.60332 0.0
C252 C 0.23707 0.96397 0.61038 0.0
H253 H 0.3699 0.00989 0.61873 0.0
H254 H 0.284 0.03289 0.57517 0.0
C255 C 0.23901 0.92036 0.64822 0.0
C256 C 0.70622 0.43405 0.01623 0.0
C257 C 0.68774 0.41559 0.96461 0.0
H258 H 0.77456 0.46519 0.06563 0.0
C259 C 0.72535 0.40594 0.92562 0.0
H260 H 0.67755 0.44239 0.0464 0.0
C261 C 0.78009 0.42071 0.93556 0.0
C262 C 0.79825 0.44385 0.98535 0.0
H263 H 0.71157 0.39218 0.88544 0.0
H264 H 0.80785 0.41673 0.9032 0.0
C265 C 0.76141 0.4476 0.02684 0.0
C266 C 0.78902 0.589 0.48546 0.0
C267 C 0.79601 0.60087 0.42958 0.0
H268 H 0.73274 0.56499 0.5477 0.0
C269 C 0.75078 0.59966 0.39345 0.0
H270 H 0.82358 0.59026 0.51395 0.0
C271 C 0.69963 0.58455 0.4122 0.0
C272 C 0.69238 0.57163 0.46784 0.0
H273 H 0.75519 0.61032 0.35055 0.0
H274 H 0.66557 0.58319 0.38301 0.0
C275 C 0.73734 0.57484 0.50464 0.0
C276 C 0.09417 0.26231 0.05004 0.0
C277 C 0.10336 0.25301 0.10629 0.0
H278 H 0.06374 0.31516 0.98747 0.0
C279 C 0.08506 0.28883 0.14352 0.0
H280 H 0.10743 0.23477 0.0208 0.0
C281 C 0.05849 0.33367 0.12476 0.0
C282 C 0.05127 0.34414 0.0684 0.0
H283 H 0.09265 0.28286 0.18708 0.0
H284 H 0.04613 0.36157 0.15419 0.0
C285 C 0.06886 0.30785 0.03119 0.0
C286 C 0.58772 0.28985 0.93217 0.0
C287 C 0.59445 0.33025 0.9714 0.0
H288 H 0.57051 0.20563 0.91705 0.0
C289 C 0.59649 0.31545 0.02712 0.0
H290 H 0.58676 0.30069 0.88896 0.0
C291 C 0.58867 0.26078 0.04328 0.0
C292 C 0.5774 0.22098 0.00374 0.0
H293 H 0.60154 0.3462 0.05779 0.0
H294 H 0.58864 0.24987 0.08647 0.0
C295 C 0.57816 0.2358 0.94814 0.0
C296 C 0.00041 0.71635 0.43289 0.0
C297 C 0.96151 0.71394 0.38955 0.0
H298 H 0.05114 0.76689 0.48651 0.0
C299 C 0.95039 0.76174 0.36098 0.0
H300 H 0.00834 0.67999 0.45638 0.0
C301 C 0.97428 0.81154 0.37825 0.0
C302 C 0.0092 0.81461 0.42514 0.0
H303 H 0.91896 0.76118 0.32903 0.0
H304 H 0.96208 0.84786 0.35723 0.0
C305 C 0.02409 0.7662 0.45063 0.0
C306 C 0.49834 0.78366 0.61671 0.0
C307 C 0.44561 0.79575 0.62637 0.0
H308 H 0.54887 0.72544 0.58792 0.0
C309 C 0.40223 0.75831 0.61278 0.0
H310 H 0.5321 0.81248 0.6265 0.0
C311 C 0.41134 0.70931 0.58977 0.0
C312 C 0.4642 0.69649 0.58086 0.0
H313 H 0.36126 0.76708 0.62037 0.0
H314 H 0.37708 0.681 0.58016 0.0
C315 C 0.50768 0.73415 0.59451 0.0
C316 C 0.97116 0.96208 0.7918 0.0
C317 C 0.93764 0.91445 0.79847 0.0
H318 H 0.01872 0.01276 0.73709 0.0
C319 C 0.93247 0.87692 0.75638 0.0
H320 H 0.97613 0.99113 0.82412 0.0
C321 C 0.95782 0.88862 0.70691 0.0
C322 C 0.9875 0.93852 0.69875 0.0
H323 H 0.90614 0.84033 0.7604 0.0
H324 H 0.95137 0.86031 0.67396 0.0
C325 C 0.99525 0.97442 0.74212 0.0
C326 C 0.63099 0.03713 0.34724 0.0
C327 C 0.66777 0.08272 0.35244 0.0
H328 H 0.5783 0.98903 0.29295 0.0
C329 C 0.68715 0.10916 0.30495 0.0
H330 H 0.61434 0.01728 0.38346 0.0
C331 C 0.66716 0.09303 0.25336 0.0
C332 C 0.62592 0.0512 0.24838 0.0
H333 H 0.71329 0.14602 0.308 0.0
H334 H 0.68053 0.11653 0.21777 0.0
C335 C 0.60963 0.02183 0.29562 0.0
C336 C 0.40146 0.62897 0.25457 0.0
C337 C 0.4323 0.61419 0.21163 0.0
H338 H 0.38621 0.6202 0.33988 0.0
C339 C 0.4744 0.58081 0.2224 0.0
H340 H 0.36783 0.65357 0.24626 0.0
C341 C 0.48448 0.56072 0.27541 0.0
C342 C 0.45229 0.57365 0.31846 0.0
H343 H 0.49752 0.56812 0.18918 0.0
H344 H 0.51661 0.534 0.28231 0.0
C345 C 0.41149 0.60911 0.30769 0.0
C346 C 0.00908 0.47339 0.70102 0.0
C347 C 0.06093 0.45738 0.6928 0.0
H348 H 0.95406 0.49794 0.75924 0.0
C349 C 0.09825 0.45554 0.73711 0.0
H350 H 0.97972 0.47445 0.66714 0.0
C351 C 0.08397 0.46844 0.78916 0.0
C352 C 0.03172 0.48328 0.79832 0.0
H353 H 0.13809 0.4423 0.73156 0.0
H354 H 0.11388 0.46578 0.82242 0.0
C355 C 0.99454 0.48649 0.75354 0.0
C356 C 0.79464 0.99082 0.95281 0.0
C357 C 0.7909 0.94501 0.92048 0.0
H358 H 0.7526 0.04135 0.00314 0.0
C359 C 0.74096 0.91637 0.91061 0.0
H360 H 0.8333 0.01309 0.96051 0.0
C361 C 0.6952 0.93198 0.93456 0.0
C362 C 0.69873 0.97662 0.96897 0.0
H363 H 0.73784 0.88111 0.88528 0.0
H364 H 0.65732 0.90826 0.92694 0.0
C365 C 0.74871 0.00662 0.9771 0.0
C366 C 0.77664 0.07987 0.4937 0.0
C367 C 0.76067 0.09895 0.44138 0.0
H368 H 0.83901 0.0477 0.54482 0.0
C369 C 0.79595 0.09577 0.39835 0.0
H370 H 0.75012 0.0816 0.52748 0.0
C371 C 0.84669 0.07525 0.40792 0.0
C372 C 0.86359 0.05878 0.461 0.0
H373 H 0.78578 0.11142 0.35799 0.0
H374 H 0.87366 0.07472 0.37434 0.0
C375 C 0.82756 0.06058 0.50355 0.0
C376 C 0.28729 0.56506 0.02878 0.0
C377 C 0.30316 0.61038 0.05972 0.0
H378 H 0.22163 0.5183 0.98988 0.0
C379 C 0.26515 0.64643 0.07236 0.0
H380 H 0.31647 0.53696 0.01912 0.0
C381 C 0.21115 0.63617 0.05602 0.0
C382 C 0.19441 0.58937 0.02713 0.0
H383 H 0.27706 0.68126 0.09697 0.0
H384 H 0.18235 0.66377 0.06789 0.0
C385 C 0.23321 0.55458 0.01242 0.0
C386 C 0.22954 0.38151 0.58968 0.0
C387 C 0.18888 0.40981 0.56314 0.0
H388 H 0.31446 0.3723 0.59931 0.0
C389 C 0.20244 0.44621 0.52013 0.0
H390 H 0.21992 0.35387 0.62354 0.0
C391 C 0.25632 0.45774 0.50688 0.0
C392 C 0.29776 0.43255 0.5361 0.0
H393 H 0.17151 0.46842 0.49932 0.0
H394 H 0.26568 0.48828 0.47547 0.0
C395 C 0.28358 0.3925 0.57603 0.0
C396 C 0.9677 0.8111 0.90758 0.0
C397 C 0.92001 0.81593 0.87609 0.0
H398 H 0.01806 0.75775 0.95199 0.0
C399 C 0.88963 0.76923 0.85847 0.0
H400 H 0.99075 0.84691 0.92246 0.0
C401 C 0.90444 0.71821 0.87568 0.0
C402 C 0.94963 0.71329 0.91141 0.0
H403 H 0.85199 0.77261 0.83517 0.0
H404 H 0.87857 0.68299 0.86382 0.0
C405 C 0.98247 0.76015 0.92521 0.0
C406 C 0.50197 0.73079 0.11444 0.0
C407 C 0.45427 0.71526 0.14092 0.0
H408 H 0.55439 0.79657 0.08502 0.0
C409 C 0.42809 0.75406 0.16817 0.0
H410 H 0.522 0.70132 0.09254 0.0
C411 C 0.44598 0.80877 0.16357 0.0
C412 C 0.48997 0.82504 0.13115 0.0
H413 H 0.39051 0.74263 0.18779 0.0
H414 H 0.42242 0.8384 0.18098 0.0
C415 C 0.51974 0.78532 0.10947 0.0
C416 C 0.11202 0.29637 0.52968 0.0
C417 C 0.10915 0.31247 0.58388 0.0
H418 H 0.10869 0.22932 0.47556 0.0
C419 C 0.10687 0.27301 0.62622 0.0
H420 H 0.11413 0.32628 0.49659 0.0
C421 C 0.10159 0.21828 0.61433 0.0
C422 C 0.10109 0.20202 0.56 0.0
H423 H 0.10638 0.28472 0.66846 0.0
H424 H 0.097 0.18864 0.64753 0.0
C425 C 0.10857 0.24124 0.5178 0.0
C426 C 0.6265 0.27254 0.42384 0.0
C427 C 0.62326 0.22995 0.46258 0.0
H428 H 0.60195 0.35038 0.39963 0.0
C429 C 0.5917 0.23339 0.50823 0.0
H430 H 0.65012 0.26978 0.38797 0.0
C431 C 0.56349 0.27927 0.51504 0.0
C432 C 0.56638 0.32215 0.476 0.0
H433 H 0.58825 0.20022 0.5379 0.0
H434 H 0.53953 0.28112 0.5508 0.0
C435 C 0.59841 0.31818 0.4304 0.0
loop_
_geom_bond_atom_site_label_1
_geom_bond_atom_site_label_2
_geom_bond_distance
_geom_bond_site_symmetry_2
_ccdc_geom_bond_type
C0 N1 1.317 . S
C0 N2 1.348 . S
C0 C3 1.485 . S
N1 C0 1.317 . S
N1 N5 1.370 . S
N2 C0 1.348 . S
N2 C4 1.346 . S
C3 C0 1.485 . S
C3 H7 0.960 . S
C3 H8 0.961 . S
C3 H9 0.960 . S
C4 N2 1.346 . S
C4 N5 1.307 . S
C4 C6 1.486 . S
N5 N1 1.370 . S
N5 C4 1.307 . S
C6 C4 1.486 . S
C6 H10 0.960 . S
C6 H11 0.960 . S
C6 H12 0.959 . S
H7 C3 0.960 . S
H8 C3 0.961 . S
H9 C3 0.960 . S
H10 C6 0.960 . S
H11 C6 0.960 . S
H12 C6 0.959 . S
C13 N14 1.317 . S
C13 N15 1.348 . S
C13 C16 1.485 . S
N14 C13 1.317 . S
N14 N18 1.370 . S
N15 C13 1.348 . S
N15 C17 1.346 . S
C16 C13 1.485 . S
C16 H20 0.960 . S
C16 H21 0.961 . S
C16 H22 0.960 . S
C17 N15 1.346 . S
C17 N18 1.307 . S
C17 C19 1.486 . S
N18 N14 1.370 . S
N18 C17 1.307 . S
C19 C17 1.486 . S
C19 H23 0.960 . S
C19 H24 0.960 . S
C19 H25 0.959 . S
H20 C16 0.960 . S
H21 C16 0.961 . S
H22 C16 0.960 . S
H23 C19 0.960 . S
H24 C19 0.960 . S
H25 C19 0.959 . S
C26 N27 1.317 . S
C26 N28 1.348 . S
C26 C29 1.485 . S
N27 C26 1.317 . S
N27 N31 1.370 . S
N28 C26 1.348 . S
N28 C30 1.346 . S
C29 C26 1.485 . S
C29 H33 0.960 . S
C29 H34 0.961 . S
C29 H35 0.960 . S
C30 N28 1.346 . S
C30 N31 1.307 . S
C30 C32 1.486 . S
N31 N27 1.370 . S
N31 C30 1.307 . S
C32 C30 1.486 . S
C32 H36 0.960 . S
C32 H37 0.960 . S
C32 H38 0.959 . S
H33 C29 0.960 . S
H34 C29 0.961 . S
H35 C29 0.960 . S
H36 C32 0.960 . S
H37 C32 0.960 . S
H38 C32 0.959 . S
C39 N40 1.317 . S
C39 N41 1.348 . S
C39 C42 1.485 . S
N40 C39 1.317 . S
N40 N44 1.370 . S
N41 C39 1.348 . S
N41 C43 1.346 . S
C42 C39 1.485 . S
C42 H46 0.960 . S
C42 H47 0.961 . S
C42 H48 0.960 . S
C43 N41 1.346 . S
C43 N44 1.307 . S
C43 C45 1.486 . S
N44 N40 1.370 . S
N44 C43 1.307 . S
C45 C43 1.486 . S
C45 H49 0.960 . S
C45 H50 0.960 . S
C45 H51 0.959 . S
H46 C42 0.960 . S
H47 C42 0.961 . S
H48 C42 0.960 . S
H49 C45 0.960 . S
H50 C45 0.960 . S
H51 C45 0.959 . S
C52 N53 1.317 . S
C52 N54 1.348 . S
C52 C55 1.485 1_556 S
N53 C52 1.317 . S
N53 N57 1.370 . S
N54 C52 1.348 . S
N54 C56 1.346 . S
C55 C52 1.485 1_554 S
C55 H59 0.960 . S
C55 H60 0.961 . S
C55 H61 0.960 . S
C56 N54 1.346 . S
C56 N57 1.307 . S
C56 C58 1.486 1_565 S
N57 N53 1.370 . S
N57 C56 1.307 . S
C58 C56 1.486 1_545 S
C58 H62 0.960 . S
C58 H63 0.960 . S
C58 H64 0.959 . S
H59 C55 0.960 . S
H60 C55 0.961 . S
H61 C55 0.960 . S
H62 C58 0.960 . S
H63 C58 0.960 . S
H64 C58 0.959 . S
C65 N66 1.317 . S
C65 N67 1.348 . S
C65 C68 1.485 . S
N66 C65 1.317 . S
N66 N70 1.370 . S
N67 C65 1.348 . S
N67 C69 1.346 . S
C68 C65 1.485 . S
C68 H72 0.960 . S
C68 H73 0.961 . S
C68 H74 0.960 . S
C69 N67 1.346 . S
C69 N70 1.307 . S
C69 C71 1.486 . S
N70 N66 1.370 . S
N70 C69 1.307 . S
C71 C69 1.486 . S
C71 H75 0.960 . S
C71 H76 0.960 . S
C71 H77 0.959 . S
H72 C68 0.960 . S
H73 C68 0.961 . S
H74 C68 0.960 . S
H75 C71 0.960 . S
H76 C71 0.960 . S
H77 C71 0.959 . S
C78 N79 1.317 . S
C78 N80 1.348 . S
C78 C81 1.485 . S
N79 C78 1.317 . S
N79 N83 1.370 . S
N80 C78 1.348 . S
N80 C82 1.346 . S
C81 C78 1.485 . S
C81 H85 0.960 . S
C81 H86 0.961 . S
C81 H87 0.960 . S
C82 N80 1.346 . S
C82 N83 1.307 . S
C82 C84 1.486 . S
N83 N79 1.370 . S
N83 C82 1.307 . S
C84 C82 1.486 . S
C84 H88 0.960 . S
C84 H89 0.960 1_554 S
C84 H90 0.959 . S
H85 C81 0.960 . S
H86 C81 0.961 . S
H87 C81 0.960 . S
H88 C84 0.960 . S
H89 C84 0.960 1_556 S
H90 C84 0.959 . S
C91 N92 1.317 . S
C91 N93 1.348 . S
C91 C94 1.485 . S
N92 C91 1.317 . S
N92 N96 1.370 . S
N93 C91 1.348 . S
N93 C95 1.346 . S
C94 C91 1.485 . S
C94 H98 0.960 1_455 S
C94 H99 0.961 . S
C94 H100 0.960 . S
C95 N93 1.346 . S
C95 N96 1.307 . S
C95 C97 1.486 . S
N96 N92 1.370 . S
N96 C95 1.307 . S
C97 C95 1.486 . S
C97 H101 0.960 . S
C97 H102 0.960 . S
C97 H103 0.959 . S
H98 C94 0.960 1_655 S
H99 C94 0.961 . S
H100 C94 0.960 . S
H101 C97 0.960 . S
H102 C97 0.960 . S
H103 C97 0.959 . S
O104 Zn105 1.960 . S
O104 C120 1.225 . S
Zn105 O104 1.960 . S
Zn105 O106 1.961 . S
Zn105 O112 1.903 1_455 S
Zn105 O117 1.922 1_455 S
O106 Zn105 1.961 . S
O106 Zn107 1.923 1_545 S
O106 Zn108 1.950 . S
O106 Zn109 1.945 1_545 S
Zn107 O106 1.923 1_565 S
Zn107 O110 1.933 . S
Zn107 O113 1.941 1_465 S
Zn107 O114 1.965 1_565 S
Zn108 O106 1.950 . S
Zn108 O115 1.938 . S
Zn108 O116 1.895 1_545 S
Zn108 O126 1.953 . S
Zn109 O106 1.945 1_565 S
Zn109 O111 1.932 . S
Zn109 O118 1.977 . S
Zn109 O119 1.910 . S
O110 Zn107 1.933 . S
O110 C121 1.226 . S
O111 Zn109 1.932 . S
O111 C121 1.307 . S
O112 Zn105 1.903 1_655 S
O112 C123 1.253 . S
O113 Zn107 1.941 1_645 S
O113 C123 1.283 . S
O114 Zn107 1.965 1_545 S
O114 C122 1.303 . S
O115 Zn108 1.938 . S
O115 C122 1.247 . S
O116 Zn108 1.895 1_565 S
O116 C124 1.320 . S
O117 Zn105 1.922 1_655 S
O117 C125 1.311 1_645 S
O118 Zn109 1.977 . S
O118 C124 1.272 . S
O119 Zn109 1.910 . S
O119 C125 1.231 . S
C120 O104 1.225 . S
C120 O126 1.298 . S
C121 O110 1.226 . S
C121 O111 1.307 . S
C122 O114 1.303 . S
C122 O115 1.247 . S
C123 O112 1.253 . S
C123 O113 1.283 . S
C124 O116 1.320 . S
C124 O118 1.272 . S
C125 O117 1.311 1_465 S
C125 O119 1.231 . S
O126 Zn108 1.953 . S
O126 C120 1.298 . S
O127 Zn128 1.953 . S
O127 C143 1.225 1_556 S
Zn128 O127 1.953 . S
Zn128 O129 1.949 1_556 S
Zn128 O135 1.919 . S
Zn128 O140 1.924 1_556 S
O129 Zn128 1.949 1_554 S
O129 Zn130 1.923 1_545 S
O129 Zn131 1.950 . S
O129 Zn132 1.945 . S
Zn130 O129 1.923 1_565 S
Zn130 O133 1.933 . S
Zn130 O136 1.941 1_554 S
Zn130 O137 1.965 . S
Zn131 O129 1.950 . S
Zn131 O138 1.938 . S
Zn131 O139 1.906 . S
Zn131 O149 1.953 . S
Zn132 O129 1.945 . S
Zn132 O134 1.930 1_545 S
Zn132 O141 1.977 . S
Zn132 O142 1.911 . S
O133 Zn130 1.933 . S
O133 C144 1.226 . S
O134 Zn132 1.930 1_565 S
O134 C144 1.307 . S
O135 Zn128 1.919 . S
O135 C146 1.253 1_545 S
O136 Zn130 1.941 1_556 S
O136 C146 1.283 . S
O137 Zn130 1.965 . S
O137 C145 1.303 1_565 S
O138 Zn131 1.938 . S
O138 C145 1.247 . S
O139 Zn131 1.906 . S
O139 C147 1.304 . S
O140 Zn128 1.924 1_554 S
O140 C148 1.311 . S
O141 Zn132 1.977 . S
O141 C147 1.272 . S
O142 Zn132 1.911 . S
O142 C148 1.231 . S
C143 O127 1.225 1_554 S
C143 O149 1.298 . S
C144 O133 1.226 . S
C144 O134 1.307 . S
C145 O137 1.303 1_545 S
C145 O138 1.247 . S
C146 O135 1.253 1_565 S
C146 O136 1.283 . S
C147 O139 1.304 . S
C147 O141 1.272 . S
C148 O140 1.311 . S
C148 O142 1.231 . S
O149 Zn131 1.953 . S
O149 C143 1.298 . S
O150 Zn151 1.953 . S
O150 C166 1.225 . S
Zn151 O150 1.953 . S
Zn151 O152 1.949 . S
Zn151 O158 1.919 . S
Zn151 O163 1.924 . S
O152 Zn151 1.949 . S
O152 Zn153 1.923 . S
O152 Zn154 1.950 . S
O152 Zn155 1.945 . S
Zn153 O152 1.923 . S
Zn153 O156 1.933 . S
Zn153 O159 1.941 . S
Zn153 O160 1.965 . S
Zn154 O152 1.950 . S
Zn154 O161 1.938 . S
Zn154 O162 1.906 . S
Zn154 O172 1.953 . S
Zn155 O152 1.945 . S
Zn155 O157 1.932 . S
Zn155 O164 1.977 . S
Zn155 O165 1.910 . S
O156 Zn153 1.933 . S
O156 C167 1.226 . S
O157 Zn155 1.932 . S
O157 C167 1.307 . S
O158 Zn151 1.919 . S
O158 C169 1.253 . S
O159 Zn153 1.941 . S
O159 C169 1.283 . S
O160 Zn153 1.965 . S
O160 C168 1.303 . S
O161 Zn154 1.938 . S
O161 C168 1.247 . S
O162 Zn154 1.906 . S
O162 C170 1.304 . S
O163 Zn151 1.924 . S
O163 C171 1.311 . S
O164 Zn155 1.977 . S
O164 C170 1.272 . S
O165 Zn155 1.910 . S
O165 C171 1.231 . S
C166 O150 1.225 . S
C166 O172 1.298 . S
C167 O156 1.226 . S
C167 O157 1.307 . S
C168 O160 1.303 . S
C168 O161 1.247 . S
C169 O158 1.253 . S
C169 O159 1.283 . S
C170 O162 1.304 . S
C170 O164 1.272 . S
C171 O163 1.311 . S
C171 O165 1.231 . S
O172 Zn154 1.953 . S
O172 C166 1.298 . S
O173 Zn174 1.953 . S
O173 C189 1.225 . S
Zn174 O173 1.953 . S
Zn174 O175 1.949 1_655 S
Zn174 O181 1.919 . S
Zn174 O186 1.924 . S
O175 Zn174 1.949 1_455 S
O175 Zn176 1.923 1_454 S
O175 Zn177 1.950 . S
O175 Zn178 1.945 1_554 S
Zn176 O175 1.923 1_656 S
Zn176 O179 1.933 1_655 S
Zn176 O182 1.941 . S
Zn176 O183 1.965 . S
Zn177 O175 1.950 . S
Zn177 O184 1.938 . S
Zn177 O185 1.906 . S
Zn177 O195 1.953 . S
Zn178 O175 1.945 1_556 S
Zn178 O180 1.932 . S
Zn178 O187 1.977 1_556 S
Zn178 O188 1.910 1_556 S
O179 Zn176 1.933 1_455 S
O179 C190 1.226 . S
O180 Zn178 1.932 . S
O180 C190 1.307 . S
O181 Zn174 1.919 . S
O181 C192 1.253 1_554 S
O182 Zn176 1.941 . S
O182 C192 1.283 . S
O183 Zn176 1.965 . S
O183 C191 1.303 . S
O184 Zn177 1.938 . S
O184 C191 1.247 1_454 S
O185 Zn177 1.906 . S
O185 C193 1.304 . S
O186 Zn174 1.924 . S
O186 C194 1.311 1_655 S
O187 Zn178 1.977 1_554 S
O187 C193 1.272 . S
O188 Zn178 1.910 1_554 S
O188 C194 1.231 . S
C189 O173 1.225 . S
C189 O195 1.298 1_655 S
C190 O179 1.226 . S
C190 O180 1.307 . S
C191 O183 1.303 . S
C191 O184 1.247 1_656 S
C192 O181 1.253 1_556 S
C192 O182 1.283 . S
C193 O185 1.304 . S
C193 O187 1.272 . S
C194 O186 1.311 1_455 S
C194 O188 1.231 . S
O195 Zn177 1.953 . S
O195 C189 1.298 1_455 S
C196 C197 1.387 . S
C196 H200 0.950 . S
C196 C205 1.390 . S
C197 C196 1.387 . S
C197 C199 1.387 . S
H198 C205 0.950 . S
C199 C197 1.387 . S
C199 C201 1.390 . S
C199 H203 0.950 . S
H200 C196 0.950 . S
C201 C199 1.390 . S
C201 C202 1.387 . S
C201 H204 0.950 . S
C202 C201 1.387 . S
C202 C205 1.387 . S
H203 C199 0.950 . S
H204 C201 0.950 . S
C205 C196 1.390 . S
C205 H198 0.950 . S
C205 C202 1.387 . S
C206 C207 1.387 . S
C206 H210 0.950 . S
C206 C215 1.390 . S
C207 C206 1.387 . S
C207 C209 1.387 . S
H208 C215 0.950 1_545 S
C209 C207 1.387 . S
C209 C211 1.390 . S
C209 H213 0.950 . S
H210 C206 0.950 . S
C211 C209 1.390 . S
C211 C212 1.387 . S
C211 H214 0.950 . S
C212 C211 1.387 . S
C212 C215 1.387 . S
H213 C209 0.950 . S
H214 C211 0.950 . S
C215 C206 1.390 . S
C215 H208 0.950 1_565 S
C215 C212 1.387 . S
C216 C217 1.387 . S
C216 H220 0.950 . S
C216 C225 1.390 . S
C217 C216 1.387 . S
C217 C219 1.387 . S
H218 C225 0.950 . S
C219 C217 1.387 . S
C219 C221 1.390 . S
C219 H223 0.950 . S
H220 C216 0.950 . S
C221 C219 1.390 . S
C221 C222 1.387 . S
C221 H224 0.950 . S
C222 C221 1.387 . S
C222 C225 1.387 . S
H223 C219 0.950 . S
H224 C221 0.950 . S
C225 C216 1.390 . S
C225 H218 0.950 . S
C225 C222 1.387 . S
C226 C227 1.387 . S
C226 H230 0.950 . S
C226 C235 1.390 . S
C227 C226 1.387 . S
C227 C229 1.387 . S
H228 C235 0.950 . S
C229 C227 1.387 . S
C229 C231 1.390 . S
C229 H233 0.950 . S
H230 C226 0.950 . S
C231 C229 1.390 . S
C231 C232 1.387 . S
C231 H234 0.950 . S
C232 C231 1.387 . S
C232 C235 1.387 . S
H233 C229 0.950 . S
H234 C231 0.950 . S
C235 C226 1.390 . S
C235 H228 0.950 . S
C235 C232 1.387 . S
C236 C237 1.387 . S
C236 H240 0.950 . S
C236 C245 1.390 . S
C237 C236 1.387 . S
C237 C239 1.387 . S
H238 C245 0.950 . S
C239 C237 1.387 . S
C239 C241 1.390 . S
C239 H243 0.950 . S
H240 C236 0.950 . S
C241 C239 1.390 . S
C241 C242 1.387 . S
C241 H244 0.950 . S
C242 C241 1.387 . S
C242 C245 1.387 . S
H243 C239 0.950 . S
H244 C241 0.950 . S
C245 C236 1.390 . S
C245 H238 0.950 . S
C245 C242 1.387 . S
C246 C247 1.387 . S
C246 H250 0.950 . S
C246 C255 1.390 . S
C247 C246 1.387 . S
C247 C249 1.387 . S
H248 C255 0.950 . S
C249 C247 1.387 . S
C249 C251 1.390 . S
C249 H253 0.950 . S
H250 C246 0.950 . S
C251 C249 1.390 . S
C251 C252 1.387 . S
C251 H254 0.950 1_565 S
C252 C251 1.387 . S
C252 C255 1.387 . S
H253 C249 0.950 . S
H254 C251 0.950 1_545 S
C255 C246 1.390 . S
C255 H248 0.950 . S
C255 C252 1.387 . S
C256 C257 1.387 . S
C256 H260 0.950 1_556 S
C256 C265 1.390 . S
C257 C256 1.387 . S
C257 C259 1.387 . S
H258 C265 0.950 1_554 S
C259 C257 1.387 . S
C259 C261 1.390 . S
C259 H263 0.950 . S
H260 C256 0.950 1_554 S
C261 C259 1.390 . S
C261 C262 1.387 . S
C261 H264 0.950 . S
C262 C261 1.387 . S
C262 C265 1.387 . S
H263 C259 0.950 . S
H264 C261 0.950 . S
C265 C256 1.390 . S
C265 H258 0.950 1_556 S
C265 C262 1.387 . S
C266 C267 1.387 . S
C266 H270 0.950 . S
C266 C275 1.390 . S
C267 C266 1.387 . S
C267 C269 1.387 . S
H268 C275 0.950 . S
C269 C267 1.387 . S
C269 C271 1.390 . S
C269 H273 0.950 . S
H270 C266 0.950 . S
C271 C269 1.390 . S
C271 C272 1.387 . S
C271 H274 0.950 . S
C272 C271 1.387 . S
C272 C275 1.387 . S
H273 C269 0.950 . S
H274 C271 0.950 . S
C275 C266 1.390 . S
C275 H268 0.950 . S
C275 C272 1.387 . S
C276 C277 1.387 . S
C276 H280 0.950 . S
C276 C285 1.390 . S
C277 C276 1.387 . S
C277 C279 1.387 . S
H278 C285 0.950 . S
C279 C277 1.387 . S
C279 C281 1.390 . S
C279 H283 0.950 . S
H280 C276 0.950 . S
C281 C279 1.390 . S
C281 C282 1.387 . S
C281 H284 0.950 . S
C282 C281 1.387 . S
C282 C285 1.387 . S
H283 C279 0.950 . S
H284 C281 0.950 . S
C285 C276 1.390 . S
C285 H278 0.950 . S
C285 C282 1.387 . S
C286 C287 1.387 . S
C286 H290 0.950 . S
C286 C295 1.390 . S
C287 C286 1.387 . S
C287 C289 1.387 . S
H288 C295 0.950 . S
C289 C287 1.387 . S
C289 C291 1.390 1_556 S
C289 H293 0.950 1_556 S
H290 C286 0.950 . S
C291 C289 1.390 1_554 S
C291 C292 1.387 1_554 S
C291 H294 0.950 . S
C292 C291 1.387 1_556 S
C292 C295 1.387 . S
H293 C289 0.950 1_554 S
H294 C291 0.950 . S
C295 C286 1.390 . S
C295 H288 0.950 . S
C295 C292 1.387 . S
C296 C297 1.387 . S
C296 H300 0.950 . S
C296 C305 1.390 . S
C297 C296 1.387 . S
C297 C299 1.387 . S
H298 C305 0.950 . S
C299 C297 1.387 . S
C299 C301 1.390 . S
C299 H303 0.950 . S
H300 C296 0.950 . S
C301 C299 1.390 . S
C301 C302 1.387 . S
C301 H304 0.949 . S
C302 C301 1.387 . S
C302 C305 1.387 . S
H303 C299 0.950 . S
H304 C301 0.949 . S
C305 C296 1.390 . S
C305 H298 0.950 . S
C305 C302 1.387 . S
C306 C307 1.387 . S
C306 H310 0.950 . S
C306 C315 1.390 . S
C307 C306 1.387 . S
C307 C309 1.387 . S
H308 C315 0.950 . S
C309 C307 1.387 . S
C309 C311 1.390 . S
C309 H313 0.950 . S
H310 C306 0.950 . S
C311 C309 1.390 . S
C311 C312 1.387 . S
C311 H314 0.950 . S
C312 C311 1.387 . S
C312 C315 1.387 . S
H313 C309 0.950 . S
H314 C311 0.950 . S
C315 C306 1.390 . S
C315 H308 0.950 . S
C315 C312 1.387 . S
C316 C317 1.387 1_545 S
C316 H320 0.950 . S
C316 C325 1.392 . S
C317 C316 1.387 1_565 S
C317 C319 1.387 . S
H318 C325 0.948 1_455 S
C319 C317 1.387 . S
C319 C321 1.390 . S
C319 H323 0.950 . S
H320 C316 0.950 . S
C321 C319 1.390 . S
C321 C322 1.387 . S
C321 H324 0.950 . S
C322 C321 1.387 . S
C322 C325 1.387 1_565 S
H323 C319 0.950 . S
H324 C321 0.950 . S
C325 C316 1.392 . S
C325 H318 0.948 1_655 S
C325 C322 1.387 1_545 S
C326 C327 1.387 . S
C326 H330 0.950 1_545 S
C326 C335 1.390 1_545 S
C327 C326 1.387 . S
C327 C329 1.387 . S
H328 C335 0.950 . S
C329 C327 1.387 . S
C329 C331 1.390 . S
C329 H333 0.950 . S
H330 C326 0.950 1_565 S
C331 C329 1.390 . S
C331 C332 1.387 . S
C331 H334 0.950 . S
C332 C331 1.387 . S
C332 C335 1.387 1_545 S
H333 C329 0.950 . S
H334 C331 0.950 . S
C335 C326 1.390 1_565 S
C335 H328 0.950 . S
C335 C332 1.387 1_565 S
C336 C337 1.387 . S
C336 H340 0.950 . S
C336 C345 1.390 . S
C337 C336 1.387 . S
C337 C339 1.387 . S
H338 C345 0.950 . S
C339 C337 1.387 . S
C339 C341 1.390 . S
C339 H343 0.950 . S
H340 C336 0.950 . S
C341 C339 1.390 . S
C341 C342 1.387 . S
C341 H344 0.950 . S
C342 C341 1.387 . S
C342 C345 1.387 . S
H343 C339 0.950 . S
H344 C341 0.950 . S
C345 C336 1.390 . S
C345 H338 0.950 . S
C345 C342 1.387 . S
C346 C347 1.387 . S
C346 H350 0.950 . S
C346 C355 1.390 . S
C347 C346 1.387 . S
C347 C349 1.387 . S
H348 C355 0.950 . S
C349 C347 1.387 . S
C349 C351 1.390 . S
C349 H353 0.950 . S
H350 C346 0.950 . S
C351 C349 1.390 . S
C351 C352 1.387 . S
C351 H354 0.950 . S
C352 C351 1.387 . S
C352 C355 1.387 . S
H353 C349 0.950 . S
H354 C351 0.950 . S
C355 C346 1.390 . S
C355 H348 0.950 . S
C355 C352 1.387 . S
C356 C357 1.387 1_545 S
C356 H360 0.950 . S
C356 C365 1.390 . S
C357 C356 1.387 1_565 S
C357 C359 1.387 1_556 S
H358 C365 0.950 . S
C359 C357 1.387 1_554 S
C359 C361 1.390 . S
C359 H363 0.950 . S
H360 C356 0.950 . S
C361 C359 1.390 . S
C361 C362 1.392 1_565 S
C361 H364 0.950 . S
C362 C361 1.392 1_545 S
C362 C365 1.377 1_554 S
H363 C359 0.950 . S
H364 C361 0.950 . S
C365 C356 1.390 . S
C365 H358 0.950 . S
C365 C362 1.377 1_556 S
C366 C367 1.387 . S
C366 H370 0.950 . S
C366 C375 1.390 . S
C367 C366 1.387 . S
C367 C369 1.387 . S
H368 C375 0.950 . S
C369 C367 1.387 . S
C369 C371 1.390 . S
C369 H373 0.950 . S
H370 C366 0.950 . S
C371 C369 1.390 . S
C371 C372 1.387 . S
C371 H374 0.950 . S
C372 C371 1.387 . S
C372 C375 1.387 . S
H373 C369 0.950 . S
H374 C371 0.950 . S
C375 C366 1.390 . S
C375 H368 0.950 . S
C375 C372 1.387 . S
C376 C377 1.387 . S
C376 H380 0.950 . S
C376 C385 1.390 . S
C377 C376 1.387 . S
C377 C379 1.387 . S
H378 C385 0.950 . S
C379 C377 1.387 . S
C379 C381 1.390 . S
C379 H383 0.950 . S
H380 C376 0.950 . S
C381 C379 1.390 . S
C381 C382 1.387 . S
C381 H384 0.950 . S
C382 C381 1.387 . S
C382 C385 1.387 . S
H383 C379 0.950 . S
H384 C381 0.950 . S
C385 C376 1.390 . S
C385 H378 0.950 . S
C385 C382 1.387 . S
C386 C387 1.387 . S
C386 H390 0.950 . S
C386 C395 1.390 . S
C387 C386 1.387 . S
C387 C389 1.387 . S
H388 C395 0.950 . S
C389 C387 1.387 . S
C389 C391 1.390 . S
C389 H393 0.950 . S
H390 C386 0.950 . S
C391 C389 1.390 . S
C391 C392 1.387 . S
C391 H394 0.950 . S
C392 C391 1.387 . S
C392 C395 1.387 . S
H393 C389 0.950 . S
H394 C391 0.950 . S
C395 C386 1.390 . S
C395 H388 0.950 . S
C395 C392 1.387 . S
C396 C397 1.387 1_455 S
C396 H400 0.950 . S
C396 C405 1.390 . S
C397 C396 1.387 1_655 S
C397 C399 1.387 . S
H398 C405 0.950 . S
C399 C397 1.387 . S
C399 C401 1.390 . S
C399 H403 0.950 . S
H400 C396 0.950 . S
C401 C399 1.390 . S
C401 C402 1.387 . S
C401 H404 0.950 . S
C402 C401 1.387 . S
C402 C405 1.387 1_655 S
H403 C399 0.950 . S
H404 C401 0.950 . S
C405 C396 1.390 . S
C405 H398 0.950 . S
C405 C402 1.387 1_455 S
C406 C407 1.387 . S
C406 H410 0.950 . S
C406 C415 1.390 . S
C407 C406 1.387 . S
C407 C409 1.387 . S
H408 C415 0.950 . S
C409 C407 1.387 . S
C409 C411 1.390 . S
C409 H413 0.950 . S
H410 C406 0.950 . S
C411 C409 1.390 . S
C411 C412 1.387 . S
C411 H414 0.950 . S
C412 C411 1.387 . S
C412 C415 1.387 . S
H413 C409 0.950 . S
H414 C411 0.950 . S
C415 C406 1.390 . S
C415 H408 0.950 . S
C415 C412 1.387 . S
C416 C417 1.387 . S
C416 H420 0.950 . S
C416 C425 1.390 . S
C417 C416 1.387 . S
C417 C419 1.387 . S
H418 C425 0.950 . S
C419 C417 1.387 . S
C419 C421 1.390 . S
C419 H423 0.950 . S
H420 C416 0.950 . S
C421 C419 1.390 . S
C421 C422 1.387 . S
C421 H424 0.950 . S
C422 C421 1.387 . S
C422 C425 1.387 . S
H423 C419 0.950 . S
H424 C421 0.950 . S
C425 C416 1.390 . S
C425 H418 0.950 . S
C425 C422 1.387 . S
C426 C427 1.387 . S
C426 H430 0.950 . S
C426 C435 1.390 . S
C427 C426 1.387 . S
C427 C429 1.387 . S
H428 C435 0.950 . S
C429 C427 1.387 . S
C429 C431 1.390 . S
C429 H433 0.950 . S
H430 C426 0.950 . S
C431 C429 1.390 . S
C431 C432 1.387 . S
C431 H434 0.950 . S
C432 C431 1.387 . S
C432 C435 1.387 . S
H433 C429 0.950 . S
H434 C431 0.950 . S
C435 C426 1.390 . S
C435 H428 0.950 . S
C435 C432 1.387 . S
C197 N1 1.513 . S
C202 C122 1.525 . S
C207 N18 1.791 . S
C212 C146 1.779 . S
C222 C166 1.151 . S
C217 N28 1.143 . S
C227 N40 1.552 . S
C232 C189 1.596 . S
C242 C148 1.858 . S
C237 N5 1.859 . S
C252 C124 1.652 . S
C247 N14 1.665 . S
C262 C192 1.536 . S
C257 N31 1.526 . S
C272 C169 1.285 . S
C267 N41 1.336 . S
C277 N2 1.454 . S
C282 C194 1.401 . S
C292 C143 1.650 1_556 S
C287 N27 1.619 . S
C297 N44 1.638 . S
C302 C121 1.673 1_655 S
C307 N15 1.345 . S
C312 C171 1.322 . S
C322 C125 1.771 1_655 S
C317 N57 1.763 . S
C327 N70 1.394 . S
C332 C147 1.428 . S
C337 N79 1.538 . S
C342 C167 1.625 . S
C347 N93 1.503 . S
C352 C190 1.529 . S
C357 N54 1.450 . S
C362 C145 1.456 . S
C372 C123 1.868 . S
C367 N66 1.835 . S
C382 C193 1.134 . S
C377 N80 1.170 . S
C392 C170 1.504 . S
C387 N96 1.552 . S
C397 N53 1.698 . S
C402 C191 1.685 . S
C412 C144 1.523 . S
C407 N83 1.489 . S
C422 C120 1.655 . S
C417 N92 1.591 . S
C427 N67 1.582 . S
C432 C168 1.605 . S
