# Generated by pormake.
# Topology ssb, (4,4)-cn, num edge types: 1
# Building blocks:
#     Node 0, Type 0, BuildingBlock: KUFVIS_clean_linker_0, # of connection points: 4
#     Node 1, Type 0, BuildingBlock: KUFVIS_clean_linker_0, # of connection points: 4
#     Node 2, Type 0, BuildingBlock: KUFVIS_clean_linker_0, # of connection points: 4
#     Node 3, Type 0, BuildingBlock: KUFVIS_clean_linker_0, # of connection points: 4
#     Node 4, Type 0, BuildingBlock: KUFVIS_clean_linker_0, # of connection points: 4
#     Node 5, Type 0, BuildingBlock: KUFVIS_clean_linker_0, # of connection points: 4
#     Node 6, Type 0, BuildingBlock: KUFVIS_clean_linker_0, # of connection points: 4
#     Node 7, Type 0, BuildingBlock: KUFVIS_clean_linker_0, # of connection points: 4
#     Node 8, Type 1, BuildingBlock: KOZSID_clean_sbu_0, # of connection points: 4
#     Node 9, Type 1, BuildingBlock: KOZSID_clean_sbu_0, # of connection points: 4
#     Node 10, Type 1, BuildingBlock: KOZSID_clean_sbu_0, # of connection points: 4
#     Node 11, Type 1, BuildingBlock: KOZSID_clean_sbu_0, # of connection points: 4
#     Node 12, Type 1, BuildingBlock: KOZSID_clean_sbu_0, # of connection points: 4
#     Node 13, Type 1, BuildingBlock: KOZSID_clean_sbu_0, # of connection points: 4
#     Node 14, Type 1, BuildingBlock: KOZSID_clean_sbu_0, # of connection points: 4
#     Node 15, Type 1, BuildingBlock: KOZSID_clean_sbu_0, # of connection points: 4
#     Edge 16, Type (0, 1), None
#     Edge 17, Type (0, 1), None
#     Edge 18, Type (0, 1), None
#     Edge 19, Type (0, 1), None
#     Edge 20, Type (0, 1), None
#     Edge 21, Type (0, 1), None
#     Edge 22, Type (0, 1), None
#     Edge 23, Type (0, 1), None
#     Edge 24, Type (0, 1), None
#     Edge 25, Type (0, 1), None
#     Edge 26, Type (0, 1), None
#     Edge 27, Type (0, 1), None
#     Edge 28, Type (0, 1), None
#     Edge 29, Type (0, 1), None
#     Edge 30, Type (0, 1), None
#     Edge 31, Type (0, 1), None
#     Edge 32, Type (0, 1), None
#     Edge 33, Type (0, 1), None
#     Edge 34, Type (0, 1), None
#     Edge 35, Type (0, 1), None
#     Edge 36, Type (0, 1), None
#     Edge 37, Type (0, 1), None
#     Edge 38, Type (0, 1), None
#     Edge 39, Type (0, 1), None
#     Edge 40, Type (0, 1), None
#     Edge 41, Type (0, 1), None
#     Edge 42, Type (0, 1), None
#     Edge 43, Type (0, 1), None
#     Edge 44, Type (0, 1), None
#     Edge 45, Type (0, 1), None
#     Edge 46, Type (0, 1), None
#     Edge 47, Type (0, 1), None
# Relax obj value: 0.010
# Max RMSD: 0.087
# Mean RMSD: 0.042
data_MOF--net-ssb--node1-KOZSID_clean_sbu_0--node2-KUFVIS_clean_linker_0--edge1-none
_symmetry_space_group_name_H-M    P1
_symmetry_Int_Tables_number       1
_symmetry_cell_setting            triclinic
loop_
_symmetry_equiv_pos_as_xyz
'x, y, z'
_cell_length_a     27.588762
_cell_length_b     27.619637
_cell_length_c     20.22361
_cell_angle_alpha  94.862909
_cell_angle_beta   99.696213
_cell_angle_gamma 90.152919
loop_
_atom_site_label
_atom_site_type_symbol
_atom_site_fract_x
_atom_site_fract_y
_atom_site_fract_z
_atom_type_partial_charge
H0 H 0.22242 0.1733 0.50014 0.0
H1 H 0.30971 0.16362 0.34501 0.0
H2 H 0.20526 0.28004 0.35611 0.0
H3 H 0.2393 0.32125 0.28774 0.0
H4 H 0.32869 0.30449 0.13345 0.0
H5 H 0.34717 0.20682 0.28667 0.0
C6 C 0.23387 0.18862 0.45745 0.0
C7 C 0.20775 0.2276 0.42907 0.0
C8 C 0.2684 0.16327 0.42552 0.0
C9 C 0.28441 0.18447 0.37069 0.0
C10 C 0.26554 0.23025 0.34759 0.0
C11 C 0.22514 0.24954 0.37642 0.0
C12 C 0.28464 0.25514 0.29031 0.0
C13 C 0.26574 0.30031 0.26425 0.0
C14 C 0.28335 0.31979 0.20866 0.0
C15 C 0.31625 0.29175 0.17729 0.0
C16 C 0.3416 0.25408 0.2083 0.0
C17 C 0.32565 0.23535 0.26357 0.0
H18 H 0.67064 0.30275 0.08751 0.0
H19 H 0.79978 0.31941 0.23973 0.0
H20 H 0.70535 0.19242 0.21998 0.0
H21 H 0.74026 0.18634 0.31857 0.0
H22 H 0.87395 0.19451 0.45534 0.0
H23 H 0.86294 0.2698 0.27573 0.0
C24 C 0.69617 0.28852 0.12745 0.0
C25 C 0.68196 0.24671 0.15421 0.0
C26 C 0.73668 0.31698 0.16076 0.0
C27 C 0.76963 0.29722 0.21184 0.0
C28 C 0.76133 0.25086 0.23195 0.0
C29 C 0.71619 0.22608 0.20287 0.0
C30 C 0.79571 0.23305 0.29069 0.0
C31 C 0.77738 0.20051 0.33059 0.0
C32 C 0.80702 0.18442 0.38648 0.0
C33 C 0.85353 0.20509 0.4084 0.0
C34 C 0.87575 0.23457 0.36841 0.0
C35 C 0.84634 0.24842 0.3086 0.0
H36 H 0.84785 0.84477 0.4915 0.0
H37 H 0.83111 0.73277 0.33157 0.0
H38 H 0.72102 0.84252 0.33431 0.0
H39 H 0.67279 0.79263 0.26632 0.0
H40 H 0.66278 0.68003 0.10574 0.0
H41 H 0.78042 0.68121 0.27433 0.0
C42 C 0.82541 0.82851 0.44591 0.0
C43 C 0.78144 0.85183 0.41805 0.0
C44 C 0.84411 0.78685 0.4133 0.0
C45 C 0.81469 0.76247 0.35741 0.0
C46 C 0.76714 0.77816 0.33157 0.0
C47 C 0.7527 0.82525 0.35987 0.0
C48 C 0.73626 0.74701 0.27125 0.0
C49 C 0.68985 0.76315 0.24123 0.0
C50 C 0.66292 0.7392 0.18223 0.0
C51 C 0.68291 0.69689 0.15271 0.0
C52 C 0.72536 0.67368 0.18497 0.0
C53 C 0.75104 0.69961 0.2453 0.0
H54 H 0.21795 0.81043 0.49648 0.0
H55 H 0.32097 0.79593 0.36342 0.0
H56 H 0.18131 0.71804 0.31244 0.0
H57 H 0.23796 0.65969 0.27773 0.0
H58 H 0.33158 0.66111 0.12875 0.0
H59 H 0.31737 0.79061 0.25454 0.0
C60 C 0.22843 0.79168 0.45175 0.0
C61 C 0.1939 0.762 0.40769 0.0
C62 C 0.26989 0.80871 0.42958 0.0
C63 C 0.28619 0.78435 0.37535 0.0
C64 C 0.25514 0.75083 0.33235 0.0
C65 C 0.20774 0.74046 0.3478 0.0
C66 C 0.27265 0.72861 0.27127 0.0
C67 C 0.26033 0.68007 0.25023 0.0
C68 C 0.28052 0.65611 0.19829 0.0
C69 C 0.31437 0.68045 0.16736 0.0
C70 C 0.32929 0.72825 0.18955 0.0
C71 C 0.30688 0.75299 0.23959 0.0
H72 H 0.3601 0.7229 0.96648 0.0
H73 H 0.2252 0.71462 0.82772 0.0
H74 H 0.34621 0.80864 0.80106 0.0
H75 H 0.29338 0.86201 0.7597 0.0
H76 H 0.16863 0.8504 0.59875 0.0
H77 H 0.18279 0.75086 0.74997 0.0
C78 C 0.33778 0.73269 0.92111 0.0
C79 C 0.35899 0.765 0.88397 0.0
C80 C 0.29225 0.70894 0.89807 0.0
C81 C 0.26144 0.73039 0.84404 0.0
C82 C 0.27855 0.77123 0.81172 0.0
C83 C 0.32913 0.78446 0.82994 0.0
C84 C 0.2466 0.7977 0.75555 0.0
C85 C 0.26198 0.84241 0.7312 0.0
C86 C 0.23476 0.86371 0.67387 0.0
C87 C 0.1902 0.83835 0.64394 0.0
C88 C 0.17019 0.79959 0.67343 0.0
C89 C 0.19907 0.77948 0.7277 0.0
H90 H 0.35423 0.36681 0.99103 0.0
H91 H 0.34548 0.26023 0.82225 0.0
H92 H 0.24145 0.3733 0.81983 0.0
H93 H 0.18233 0.32679 0.7695 0.0
H94 H 0.16137 0.21335 0.61067 0.0
H95 H 0.29149 0.21701 0.75867 0.0
C96 C 0.33587 0.35047 0.94268 0.0
C97 C 0.29444 0.374 0.90917 0.0
C98 C 0.35627 0.30911 0.91171 0.0
C99 C 0.32872 0.28838 0.85011 0.0
C100 C 0.28186 0.30685 0.82205 0.0
C101 C 0.26931 0.35261 0.84842 0.0
C102 C 0.24653 0.28049 0.76443 0.0
C103 C 0.1976 0.29699 0.74224 0.0
C104 C 0.1662 0.27205 0.6874 0.0
C105 C 0.18436 0.23143 0.65448 0.0
C106 C 0.22767 0.20963 0.68299 0.0
C107 C 0.25898 0.23486 0.73644 0.0
H108 H 0.71688 0.34993 0.99051 0.0
H109 H 0.80069 0.35041 0.83256 0.0
H110 H 0.69015 0.2377 0.82819 0.0
H111 H 0.72799 0.18834 0.76493 0.0
H112 H 0.81515 0.18741 0.60843 0.0
H113 H 0.82877 0.3082 0.75626 0.0
C114 C 0.72613 0.33238 0.94436 0.0
C115 C 0.69696 0.29334 0.9102 0.0
C116 C 0.76012 0.35587 0.91382 0.0
C117 C 0.77466 0.33143 0.85562 0.0
C118 C 0.75365 0.28473 0.82674 0.0
C119 C 0.71225 0.26831 0.85327 0.0
C120 C 0.77151 0.25556 0.76643 0.0
C121 C 0.75285 0.20749 0.73997 0.0
C122 C 0.76868 0.18228 0.68277 0.0
C123 C 0.80242 0.2062 0.65151 0.0
C124 C 0.82571 0.25001 0.68002 0.0
C125 C 0.81004 0.27444 0.73654 0.0
H126 H 0.71303 0.70132 0.98694 0.0
H127 H 0.80625 0.69942 0.83959 0.0
H128 H 0.68395 0.79783 0.83247 0.0
H129 H 0.72523 0.84439 0.78524 0.0
H130 H 0.7984 0.83517 0.61707 0.0
H131 H 0.83714 0.73708 0.76936 0.0
C132 C 0.72419 0.71809 0.94502 0.0
C133 C 0.69389 0.75199 0.91272 0.0
C134 C 0.76118 0.69668 0.91407 0.0
C135 C 0.77756 0.71765 0.86174 0.0
C136 C 0.75347 0.75807 0.83475 0.0
C137 C 0.70892 0.77283 0.85816 0.0
C138 C 0.77128 0.78089 0.77801 0.0
C139 C 0.74876 0.82354 0.75637 0.0
C140 C 0.75965 0.84275 0.6998 0.0
C141 C 0.79207 0.81961 0.66249 0.0
C142 C 0.82482 0.78607 0.69185 0.0
C143 C 0.81279 0.76433 0.74815 0.0
C144 C 0.08802 0.3234 0.64629 0.0
C145 C 0.10445 0.37046 0.66749 0.0
C146 C 0.0718 0.40052 0.63238 0.0
C147 C 0.03738 0.3702 0.59169 0.0
N148 N 0.04598 0.32307 0.59996 0.0
Co149 Co 0.0113 0.2666 0.54377 0.0
N150 N 0.98038 0.30756 0.47134 0.0
C151 C 0.97942 0.35646 0.47738 0.0
C152 C 0.95082 0.37526 0.42353 0.0
C153 C 0.93141 0.33576 0.38156 0.0
C154 C 0.94954 0.29484 0.41188 0.0
N155 N 0.97856 0.20944 0.48781 0.0
C156 C 0.95949 0.20568 0.4213 0.0
C157 C 0.95078 0.15716 0.39765 0.0
C158 C 0.96156 0.13042 0.45237 0.0
C159 C 0.97687 0.16377 0.50612 0.0
N160 N 0.04098 0.22575 0.61541 0.0
C161 C 0.02634 0.18064 0.62456 0.0
C162 C 0.05361 0.16249 0.68008 0.0
C163 C 0.08767 0.19829 0.70686 0.0
C164 C 0.07932 0.23617 0.66578 0.0
N165 N 0.95294 0.27572 0.58978 0.0
C166 C 0.86891 0.26717 0.65162 0.0
C167 C 0.91616 0.2731 0.69047 0.0
C168 C 0.95759 0.27781 0.65865 0.0
C169 C 0.86455 0.27033 0.58237 0.0
C170 C 0.90647 0.27513 0.55304 0.0
N171 N 0.06963 0.2566 0.49924 0.0
C172 C 0.12978 0.20119 0.46505 0.0
C173 C 0.15875 0.23925 0.44982 0.0
C174 C 0.14017 0.28647 0.45617 0.0
C175 C 0.09534 0.29429 0.48042 0.0
C176 C 0.08678 0.21057 0.4907 0.0
H177 H 0.08238 0.33095 0.48568 0.0
H178 H 0.06852 0.18008 0.50564 0.0
H179 H 0.99349 0.28078 0.68973 0.0
H180 H 0.9005 0.27617 0.50007 0.0
C181 C 1.00542 0.38321 0.53462 0.0
C182 C 0.11151 0.27924 0.67133 0.0
C183 C 0.93069 0.24493 0.38926 0.0
C184 C 0.99652 0.15298 0.57175 0.0
H185 H 0.13699 0.38193 0.70314 0.0
H186 H 0.07505 0.43961 0.63276 0.0
H187 H 0.9437 0.41316 0.41649 0.0
H188 H 0.90541 0.33711 0.33542 0.0
H189 H 0.93278 0.14334 0.34786 0.0
H190 H 0.95783 0.09144 0.45295 0.0
H191 H 0.05171 0.12619 0.69598 0.0
H192 H 0.11703 0.19591 0.74927 0.0
H193 H 0.92143 0.27117 0.74446 0.0
H194 H 0.82884 0.26674 0.55026 0.0
H195 H 0.14067 0.16372 0.45899 0.0
H196 H 0.16055 0.31722 0.44434 0.0
C197 C 0.71549 0.10426 0.62482 0.0
C198 C 0.66949 0.12392 0.62581 0.0
C199 C 0.63622 0.09305 0.58428 0.0
C200 C 0.66352 0.05607 0.56014 0.0
N201 N 0.71207 0.0615 0.58401 0.0
Co202 Co 0.76434 0.01769 0.55486 0.0
N203 N 0.71717 0.97446 0.48674 0.0
C204 C 0.66842 0.98232 0.47188 0.0
C205 C 0.64332 0.94483 0.43143 0.0
C206 C 0.67797 0.91112 0.41947 0.0
C207 C 0.72323 0.92975 0.45233 0.0
N208 N 0.81668 0.97311 0.52886 0.0
C209 C 0.81426 0.93785 0.47683 0.0
C210 C 0.85974 0.93149 0.4588 0.0
C211 C 0.89313 0.95644 0.50723 0.0
C212 C 0.86564 0.97979 0.5498 0.0
N213 N 0.81284 0.05996 0.6208 0.0
C214 C 0.86213 0.05466 0.63221 0.0
C215 C 0.88653 0.08615 0.68288 0.0
C216 C 0.85078 0.11422 0.70437 0.0
C217 C 0.80648 0.09886 0.6644 0.0
N218 N 0.7554 0.97572 0.62495 0.0
C219 C 0.75206 0.89383 0.69179 0.0
C220 C 0.79349 0.92422 0.70663 0.0
C221 C 0.79476 0.96467 0.67143 0.0
C222 C 0.70923 0.90944 0.65425 0.0
C223 C 0.71137 0.95207 0.62314 0.0
N224 N 0.77256 0.06123 0.48441 0.0
C225 C 0.82767 0.10514 0.43028 0.0
C226 C 0.79303 0.14107 0.41696 0.0
C227 C 0.74569 0.13326 0.42959 0.0
C228 C 0.73594 0.09227 0.46128 0.0
C229 C 0.817 0.06613 0.46408 0.0
H230 H 0.69884 0.08745 0.46789 0.0
H231 H 0.84595 0.04142 0.47367 0.0
H232 H 0.8292 0.98344 0.67812 0.0
H233 H 0.67817 0.9626 0.59347 0.0
C234 C 0.64655 0.02008 0.50754 0.0
C235 C 0.76154 0.12759 0.66273 0.0
C236 C 0.77155 0.90535 0.44798 0.0
C237 C 0.88392 0.01764 0.59736 0.0
H238 H 0.66109 0.15754 0.65278 0.0
H239 H 0.59702 0.09817 0.57095 0.0
H240 H 0.6039 0.94091 0.41589 0.0
H241 H 0.66971 0.87628 0.39164 0.0
H242 H 0.86641 0.91175 0.41346 0.0
H243 H 0.93203 0.96155 0.50783 0.0
H244 H 0.92566 0.08849 0.7018 0.0
H245 H 0.85686 0.14433 0.74291 0.0
H246 H 0.82694 0.91308 0.73755 0.0
H247 H 0.6761 0.887 0.64403 0.0
H248 H 0.86337 0.10737 0.41546 0.0
H249 H 0.71671 0.15887 0.41654 0.0
C250 C 0.08028 0.82495 0.65208 0.0
C251 C 0.08658 0.86834 0.69213 0.0
C252 C 0.05684 0.90134 0.65816 0.0
C253 C 0.03413 0.87569 0.60006 0.0
N254 N 0.04458 0.8281 0.59888 0.0
Co255 Co 1.00686 0.77465 0.54179 0.0
N256 N 0.97048 0.82178 0.48514 0.0
C257 C 0.98287 0.86866 0.48313 0.0
C258 C 0.96116 0.88702 0.42446 0.0
C259 C 0.9299 0.85055 0.3912 0.0
C260 C 0.93461 0.81263 0.43205 0.0
N261 N 0.96428 0.72229 0.48647 0.0
C262 C 0.91838 0.72731 0.44992 0.0
C263 C 0.89436 0.68269 0.43388 0.0
C264 C 0.92591 0.64871 0.46207 0.0
C265 C 0.9672 0.67436 0.49432 0.0
N266 N 0.04821 0.72823 0.59663 0.0
C267 C 0.04417 0.67935 0.58767 0.0
C268 C 0.08507 0.65679 0.61882 0.0
C269 C 0.11749 0.69355 0.64757 0.0
C270 C 0.09435 0.73683 0.63322 0.0
N271 N 0.95714 0.77837 0.60319 0.0
C272 C 0.87377 0.78239 0.66844 0.0
C273 C 0.89927 0.73904 0.66135 0.0
C274 C 0.94132 0.73808 0.62982 0.0
C275 C 0.89421 0.82425 0.64832 0.0
C276 C 0.93399 0.8212 0.61436 0.0
N277 N 0.05657 0.77008 0.4804 0.0
C278 C 0.11402 0.72193 0.42424 0.0
C279 C 0.14218 0.76351 0.4209 0.0
C280 C 0.12335 0.80849 0.44049 0.0
C281 C 0.08198 0.81088 0.47124 0.0
C282 C 0.0708 0.72619 0.45288 0.0
H283 H 0.07339 0.84613 0.49112 0.0
H284 H 0.05095 0.69331 0.45555 0.0
H285 H 0.95929 0.70402 0.62506 0.0
H286 H 0.94379 0.85379 0.59479 0.0
C287 C 0.0089 0.89482 0.54147 0.0
C288 C 0.11593 0.78614 0.6542 0.0
C289 C 0.89799 0.77453 0.43037 0.0
C290 C 1.00547 0.65654 0.54081 0.0
H291 H 0.11372 0.87643 0.73708 0.0
H292 H 0.05562 0.94006 0.67137 0.0
H293 H 0.96407 0.92371 0.41036 0.0
H294 H 0.90301 0.85337 0.34611 0.0
H295 H 0.85752 0.67539 0.40669 0.0
H296 H 0.91822 0.61032 0.46273 0.0
H297 H 0.092 0.61818 0.61683 0.0
H298 H 0.15439 0.68857 0.67365 0.0
H299 H 0.88601 0.70583 0.67755 0.0
H300 H 0.87805 0.8596 0.65555 0.0
H301 H 0.12653 0.68633 0.40851 0.0
H302 H 0.14283 0.84207 0.43725 0.0
C303 C 0.29774 0.93609 0.64665 0.0
C304 C 0.34146 0.91944 0.68115 0.0
C305 C 0.37826 0.95053 0.67254 0.0
C306 C 0.35606 0.98433 0.63208 0.0
N307 N 0.30698 0.9768 0.61445 0.0
Co308 Co 0.26424 0.01105 0.54126 0.0
N309 N 0.31966 0.0509 0.51886 0.0
C310 C 0.36725 0.04815 0.54759 0.0
C311 C 0.39656 0.08326 0.52912 0.0
C312 C 0.36561 0.1103 0.48669 0.0
C313 C 0.31895 0.09032 0.48143 0.0
N314 N 0.22037 0.04395 0.469 0.0
C315 C 0.23003 0.07921 0.42955 0.0
C316 C 0.18852 0.08936 0.38399 0.0
C317 C 0.15088 0.06169 0.39736 0.0
C318 C 0.17152 0.03575 0.44947 0.0
N319 N 0.2087 0.97161 0.56242 0.0
C320 C 0.16068 0.97602 0.53626 0.0
C321 C 0.12992 0.95971 0.57622 0.0
C322 C 0.16042 0.94141 0.6283 0.0
C323 C 0.20744 0.94407 0.61494 0.0
N324 N 0.25236 0.0644 0.6072 0.0
C325 C 0.23688 0.15834 0.66137 0.0
C326 C 0.19731 0.12621 0.63771 0.0
C327 C 0.2058 0.08006 0.6102 0.0
C328 C 0.28442 0.14003 0.66617 0.0
C329 C 0.29098 0.09232 0.64175 0.0
N330 N 0.2768 0.95847 0.47558 0.0
C331 C 0.23773 0.88931 0.41024 0.0
C332 C 0.27699 0.86112 0.43685 0.0
C333 C 0.32052 0.88375 0.46911 0.0
C334 C 0.32011 0.93373 0.48509 0.0
C335 C 0.23836 0.93821 0.43043 0.0
H336 H 0.35377 0.95066 0.50995 0.0
H337 H 0.20581 0.95747 0.41404 0.0
H338 H 0.17396 0.05892 0.58932 0.0
H339 H 0.32778 0.07976 0.64777 0.0
C340 C 0.38111 0.01729 0.59941 0.0
C341 C 0.24782 0.91361 0.64646 0.0
C342 C 0.27488 0.10984 0.44033 0.0
C343 C 0.14597 1.0046 0.48283 0.0
H344 H 0.34756 0.8871 0.7073 0.0
H345 H 0.41727 0.94676 0.68985 0.0
H346 H 0.43542 0.08997 0.54701 0.0
H347 H 0.37589 0.14171 0.46324 0.0
H348 H 0.1852 0.11635 0.34773 0.0
H349 H 0.11266 0.06186 0.37365 0.0
H350 H 0.09057 0.96413 0.57054 0.0
H351 H 0.15068 0.92778 0.67231 0.0
H352 H 0.1596 0.13673 0.63816 0.0
H353 H 0.31667 0.16233 0.68638 0.0
H354 H 0.2051 0.87296 0.37881 0.0
H355 H 0.35316 0.8631 0.48472 0.0
C356 C 0.59083 0.80253 0.14664 0.0
C357 C 0.61354 0.84592 0.1757 0.0
C358 C 0.58166 0.88242 0.15691 0.0
C359 C 0.54155 0.85988 0.11636 0.0
N360 N 0.54609 0.81133 0.10929 0.0
Co361 Co 0.50421 0.76577 0.04146 0.0
N362 N 0.47261 0.81906 0.98933 0.0
C363 C 0.47539 0.86655 0.01103 0.0
C364 C 0.44522 0.89455 0.969 0.0
C365 C 0.42085 0.86248 0.91857 0.0
C366 C 0.43792 0.81664 0.93227 0.0
N367 N 0.46531 0.71873 0.97365 0.0
C368 C 0.44152 0.72633 0.91148 0.0
C369 C 0.42758 0.68232 0.8744 0.0
C370 C 0.44098 0.64636 0.91646 0.0
C371 C 0.46211 0.67032 0.97672 0.0
N372 N 0.53417 0.71245 0.09243 0.0
C373 C 0.51347 0.66845 0.09301 0.0
C374 C 0.53484 0.64421 0.14675 0.0
C375 C 0.57221 0.67463 0.18029 0.0
C376 C 0.57274 0.7143 0.14315 0.0
N377 N 0.45045 0.76846 0.097 0.0
C378 C 0.371 0.74974 0.16331 0.0
C379 C 0.41971 0.74506 0.19537 0.0
C380 C 0.45884 0.75582 0.16209 0.0
C381 C 0.3631 0.76913 0.1012 0.0
C382 C 0.40314 0.77926 0.06999 0.0
N383 N 0.55757 0.76314 0.98767 0.0
C384 C 0.61675 0.71545 0.93754 0.0
C385 C 0.64365 0.75738 0.93036 0.0
C386 C 0.62429 0.80255 0.94746 0.0
C387 C 0.58102 0.80462 0.97569 0.0
C388 C 0.57447 0.71904 0.96663 0.0
H389 H 0.5681 0.83988 0.99069 0.0
H390 H 0.55689 0.68582 0.97491 0.0
H391 H 0.49572 0.75178 0.18832 0.0
H392 H 0.39446 0.79381 0.02261 0.0
C393 C 0.5071 0.88301 0.0706 0.0
C394 C 0.61028 0.75288 0.15593 0.0
C395 C 0.41438 0.77109 0.89822 0.0
C396 C 0.48086 0.64889 0.03619 0.0
H397 H 0.6499 0.85169 0.2048 0.0
H398 H 0.58905 0.92111 0.1666 0.0
H399 H 0.44044 0.93345 0.97521 0.0
H400 H 0.39228 0.87154 0.87818 0.0
H401 H 0.40478 0.67729 0.82515 0.0
H402 H 0.43356 0.60774 0.90558 0.0
H403 H 0.52564 0.60824 0.15881 0.0
H404 H 0.59672 0.66852 0.22639 0.0
H405 H 0.42748 0.73114 0.24448 0.0
H406 H 0.32603 0.77439 0.07531 0.0
H407 H 0.6297 0.67961 0.92377 0.0
H408 H 0.64368 0.83583 0.94245 0.0
C409 C 0.22645 0.58204 0.15135 0.0
C410 C 0.18099 0.59925 0.16221 0.0
C411 C 0.14642 0.57287 0.11674 0.0
C412 C 0.17273 0.54158 0.08063 0.0
N413 N 0.22172 0.54555 0.10167 0.0
Co414 Co 0.27412 0.51489 0.0567 0.0
N415 N 0.22489 0.48008 0.9842 0.0
C416 C 0.17549 0.48225 0.97738 0.0
C417 C 0.15172 0.44614 0.93284 0.0
C418 C 0.18819 0.4188 0.9111 0.0
C419 C 0.23248 0.44047 0.9427 0.0
N420 N 0.32686 0.48663 0.01115 0.0
C421 C 0.32089 0.46015 0.95184 0.0
C422 C 0.36224 0.46193 0.92199 0.0
C423 C 0.39737 0.48728 0.96808 0.0
C424 C 0.375 0.49894 0.02288 0.0
N425 N 0.32473 0.54601 0.13006 0.0
C426 C 0.37427 0.54176 0.13832 0.0
C427 C 0.39811 0.56529 0.19735 0.0
C428 C 0.36158 0.58639 0.22735 0.0
C429 C 0.31761 0.57478 0.18422 0.0
N430 N 0.2738 0.45619 0.11102 0.0
C431 C 0.27709 0.37125 0.18577 0.0
C432 C 0.3197 0.39721 0.17848 0.0
C433 C 0.31741 0.43741 0.13994 0.0
C434 C 0.23218 0.39069 0.15674 0.0
C435 C 0.23136 0.4333 0.12103 0.0
N436 N 0.2742 0.57461 1.00257 0.0
C437 C 0.32287 0.63738 0.96577 0.0
C438 C 0.28256 0.66127 0.9309 0.0
C439 C 0.23658 0.63814 0.93116 0.0
C440 C 0.23334 0.59496 0.96622 0.0
C441 C 0.31794 0.59767 1.00235 0.0
H442 H 0.19745 0.57901 0.9641 0.0
H443 H 0.35102 0.58707 0.03132 0.0
H444 H 0.35178 0.45188 0.13229 0.0
H445 H 0.19598 0.44634 0.10007 0.0
C446 C 0.1533 0.51184 0.02285 0.0
C447 C 0.27364 0.60314 0.18462 0.0
C448 C 0.28173 0.42432 0.93292 0.0
C449 C 0.39716 0.52145 0.08558 0.0
H450 H 0.17335 0.62876 0.19734 0.0
H451 H 0.10701 0.57774 0.10865 0.0
H452 H 0.11259 0.43828 0.92154 0.0
H453 H 0.18198 0.38586 0.878 0.0
H454 H 0.36697 0.44429 0.87369 0.0
H455 H 0.43476 0.4954 0.96256 0.0
H456 H 0.43739 0.56964 0.21408 0.0
H457 H 0.36688 0.6117 0.27197 0.0
H458 H 0.35572 0.38422 0.19876 0.0
H459 H 0.19795 0.37216 0.15904 0.0
H460 H 0.36008 0.64874 0.96678 0.0
H461 H 0.20325 0.65313 0.90511 0.0
C462 C 0.44551 0.3284 0.97448 0.0
C463 C 0.44399 0.37663 0.96139 0.0
C464 C 0.47329 0.40201 0.01435 0.0
C465 C 0.49286 0.36758 0.05511 0.0
N466 N 0.48007 0.32175 0.02886 0.0
Co467 Co 0.51544 0.26131 0.05343 0.0
N468 N 0.56141 0.29796 0.12805 0.0
C469 C 0.56087 0.34569 0.14869 0.0
C470 C 0.5948 0.35899 0.20509 0.0
C471 C 0.62011 0.31756 0.21897 0.0
C472 C 0.60014 0.28158 0.16961 0.0
N473 N 0.55219 0.20124 0.07874 0.0
C474 C 0.59864 0.19778 0.11386 0.0
C475 C 0.61497 0.15052 0.11015 0.0
C476 C 0.57781 0.12331 0.07006 0.0
C477 C 0.54104 0.15554 0.05153 0.0
N478 N 0.46796 0.22554 0.97841 0.0
C479 C 0.46755 0.17702 0.96209 0.0
C480 C 0.42559 0.16056 0.91979 0.0
C481 C 0.39745 0.20072 0.90866 0.0
C482 C 0.42423 0.24043 0.94331 0.0
N483 N 0.56295 0.27139 0.99069 0.0
C484 C 0.64798 0.28449 0.93141 0.0
C485 C 0.62571 0.23851 0.92835 0.0
C486 C 0.58275 0.23304 0.95673 0.0
C487 C 0.62298 0.3239 0.95752 0.0
C488 C 0.58207 0.31666 0.98753 0.0
N489 N 0.46877 0.2506 0.11692 0.0
C490 C 0.4003 0.20616 0.14641 0.0
C491 C 0.39105 0.24517 0.19077 0.0
C492 C 0.42436 0.28424 0.20292 0.0
C493 C 0.46146 0.28689 0.16456 0.0
C494 C 0.44033 0.20899 0.11184 0.0
H495 H 0.48132 0.32028 0.17173 0.0
H496 H 0.44579 0.17808 0.07887 0.0
H497 H 0.56736 0.19714 0.95313 0.0
H498 H 0.56835 0.34838 0.01067 0.0
C499 C 0.52927 0.3769 0.11204 0.0
C500 C 0.40799 0.29191 0.94179 0.0
C501 C 0.62759 0.23904 0.15087 0.0
C502 C 0.50188 0.14701 0.99768 0.0
H503 H 0.42355 0.3911 0.91764 0.0
H504 H 0.48186 0.44046 0.02116 0.0
H505 H 0.6024 0.39504 0.23028 0.0
H506 H 0.65294 0.31526 0.2563 0.0
H507 H 0.65048 0.13752 0.1323 0.0
H508 H 0.57909 0.08532 0.05233 0.0
H509 H 0.41489 0.12317 0.90325 0.0
H510 H 0.36043 0.1994 0.88109 0.0
H511 H 0.64204 0.20673 0.90655 0.0
H512 H 0.63611 0.36082 0.9582 0.0
H513 H 0.37527 0.17515 0.13535 0.0
H514 H 0.41827 0.31552 0.23654 0.0
C515 C 0.69699 0.58664 0.12628 0.0
C516 C 0.65014 0.59097 0.14098 0.0
C517 C 0.61934 0.56382 0.09162 0.0
C518 C 0.64971 0.54178 0.0517 0.0
N519 N 0.69789 0.55165 0.07472 0.0
Co520 Co 0.75418 0.51362 0.04759 0.0
N521 N 0.71003 0.47341 0.97373 0.0
C522 C 0.66069 0.4773 0.95709 0.0
C523 C 0.6407 0.44907 0.89998 0.0
C524 C 0.67936 0.42435 0.88023 0.0
C525 C 0.72084 0.43852 0.92711 0.0
N526 N 0.81023 0.47477 0.01994 0.0
C527 C 0.81002 0.43328 0.97737 0.0
C528 C 0.8569 0.41505 0.97994 0.0
C529 C 0.88758 0.44558 0.02579 0.0
C530 C 0.85786 0.48077 0.04888 0.0
N531 N 0.79729 0.55604 0.12149 0.0
C532 C 0.84661 0.55184 0.13773 0.0
C533 C 0.86847 0.59025 0.17968 0.0
C534 C 0.8312 0.62104 0.19053 0.0
C535 C 0.7877 0.59964 0.15571 0.0
N536 N 0.74608 0.46418 0.11031 0.0
C537 C 0.74015 0.36928 0.14831 0.0
C538 C 0.78502 0.39496 0.16048 0.0
C539 C 0.78662 0.44292 0.14397 0.0
C540 C 0.69763 0.39519 0.1266 0.0
C541 C 0.70141 0.44216 0.10822 0.0
N542 N 0.76333 0.56125 0.98426 0.0
C543 C 0.81049 0.62867 0.95939 0.0
C544 C 0.76823 0.64531 0.92164 0.0
C545 C 0.72656 0.6153 0.90509 0.0
C546 C 0.72419 0.57447 0.93907 0.0
C547 C 0.80761 0.58498 0.98804 0.0
H548 H 0.68922 0.5569 0.93208 0.0
H549 H 0.84061 0.57325 0.0168 0.0
H550 H 0.82155 0.46097 0.15489 0.0
H551 H 0.66782 0.45868 0.08927 0.0
C552 C 0.63453 0.50861 0.9957 0.0
C553 C 0.73774 0.62092 0.15687 0.0
C554 C 0.76633 0.41041 0.93329 0.0
C555 C 0.87199 0.51662 0.10263 0.0
H556 H 0.64029 0.61159 0.18383 0.0
H557 H 0.57989 0.55931 0.0866 0.0
H558 H 0.6024 0.44573 0.87668 0.0
H559 H 0.67685 0.39635 0.8389 0.0
H560 H 0.86753 0.38277 0.95203 0.0
H561 H 0.92667 0.44153 0.04215 0.0
H562 H 0.90745 0.59691 0.19655 0.0
H563 H 0.83667 0.65614 0.21847 0.0
H564 H 0.81917 0.37814 0.18017 0.0
H565 H 0.66128 0.37926 0.12141 0.0
H566 H 0.84389 0.65069 0.97098 0.0
H567 H 0.69353 0.62706 0.87388 0.0
loop_
_geom_bond_atom_site_label_1
_geom_bond_atom_site_label_2
_geom_bond_distance
_geom_bond_site_symmetry_2
_ccdc_geom_bond_type
H0 C6 0.930 . S
H1 C9 0.931 . S
H2 C11 0.931 . S
H3 C13 0.930 . S
H4 C15 0.930 . S
H5 C17 0.931 . S
C6 H0 0.930 . S
C6 C7 1.380 . S
C6 C8 1.394 . S
C7 C6 1.380 . S
C7 C11 1.382 . S
C8 C6 1.394 . S
C8 C9 1.400 . S
C9 H1 0.931 . S
C9 C8 1.400 . S
C9 C10 1.375 . S
C10 C9 1.375 . S
C10 C11 1.415 . S
C10 C12 1.501 . S
C11 H2 0.931 . S
C11 C7 1.382 . S
C11 C10 1.415 . S
C12 C10 1.501 . S
C12 C13 1.384 . S
C12 C17 1.408 . S
C13 H3 0.930 . S
C13 C12 1.384 . S
C13 C14 1.389 . S
C14 C13 1.389 . S
C14 C15 1.405 . S
C15 H4 0.930 . S
C15 C14 1.405 . S
C15 C16 1.364 . S
C16 C15 1.364 . S
C16 C17 1.400 . S
C17 H5 0.931 . S
C17 C12 1.408 . S
C17 C16 1.400 . S
H18 C24 0.930 . S
H19 C27 0.931 . S
H20 C29 0.931 . S
H21 C31 0.930 . S
H22 C33 0.930 . S
H23 C35 0.931 . S
C24 H18 0.930 . S
C24 C25 1.380 . S
C24 C26 1.394 . S
C25 C24 1.380 . S
C25 C29 1.382 . S
C26 C24 1.394 . S
C26 C27 1.400 . S
C27 H19 0.931 . S
C27 C26 1.400 . S
C27 C28 1.375 . S
C28 C27 1.375 . S
C28 C29 1.415 . S
C28 C30 1.501 . S
C29 H20 0.931 . S
C29 C25 1.382 . S
C29 C28 1.415 . S
C30 C28 1.501 . S
C30 C31 1.384 . S
C30 C35 1.408 . S
C31 H21 0.930 . S
C31 C30 1.384 . S
C31 C32 1.389 . S
C32 C31 1.389 . S
C32 C33 1.405 . S
C33 H22 0.930 . S
C33 C32 1.405 . S
C33 C34 1.364 . S
C34 C33 1.364 . S
C34 C35 1.400 . S
C35 H23 0.931 . S
C35 C30 1.408 . S
C35 C34 1.400 . S
H36 C42 0.930 . S
H37 C45 0.931 . S
H38 C47 0.931 . S
H39 C49 0.930 . S
H40 C51 0.930 . S
H41 C53 0.931 . S
C42 H36 0.930 . S
C42 C43 1.380 . S
C42 C44 1.394 . S
C43 C42 1.380 . S
C43 C47 1.382 . S
C44 C42 1.394 . S
C44 C45 1.400 . S
C45 H37 0.931 . S
C45 C44 1.400 . S
C45 C46 1.375 . S
C46 C45 1.375 . S
C46 C47 1.415 . S
C46 C48 1.501 . S
C47 H38 0.931 . S
C47 C43 1.382 . S
C47 C46 1.415 . S
C48 C46 1.501 . S
C48 C49 1.384 . S
C48 C53 1.408 . S
C49 H39 0.930 . S
C49 C48 1.384 . S
C49 C50 1.389 . S
C50 C49 1.389 . S
C50 C51 1.405 . S
C51 H40 0.930 . S
C51 C50 1.405 . S
C51 C52 1.364 . S
C52 C51 1.364 . S
C52 C53 1.400 . S
C53 H41 0.931 . S
C53 C48 1.408 . S
C53 C52 1.400 . S
H54 C60 0.930 . S
H55 C63 0.931 . S
H56 C65 0.931 . S
H57 C67 0.930 . S
H58 C69 0.930 . S
H59 C71 0.931 . S
C60 H54 0.930 . S
C60 C61 1.380 . S
C60 C62 1.394 . S
C61 C60 1.380 . S
C61 C65 1.382 . S
C62 C60 1.394 . S
C62 C63 1.400 . S
C63 H55 0.931 . S
C63 C62 1.400 . S
C63 C64 1.375 . S
C64 C63 1.375 . S
C64 C65 1.415 . S
C64 C66 1.501 . S
C65 H56 0.931 . S
C65 C61 1.382 . S
C65 C64 1.415 . S
C66 C64 1.501 . S
C66 C67 1.384 . S
C66 C71 1.408 . S
C67 H57 0.930 . S
C67 C66 1.384 . S
C67 C68 1.389 . S
C68 C67 1.389 . S
C68 C69 1.405 . S
C69 H58 0.930 . S
C69 C68 1.405 . S
C69 C70 1.364 . S
C70 C69 1.364 . S
C70 C71 1.400 . S
C71 H59 0.931 . S
C71 C66 1.408 . S
C71 C70 1.400 . S
H72 C78 0.930 . S
H73 C81 0.931 . S
H74 C83 0.931 . S
H75 C85 0.930 . S
H76 C87 0.930 . S
H77 C89 0.931 . S
C78 H72 0.930 . S
C78 C79 1.380 . S
C78 C80 1.394 . S
C79 C78 1.380 . S
C79 C83 1.382 . S
C80 C78 1.394 . S
C80 C81 1.400 . S
C81 H73 0.931 . S
C81 C80 1.400 . S
C81 C82 1.375 . S
C82 C81 1.375 . S
C82 C83 1.415 . S
C82 C84 1.501 . S
C83 H74 0.931 . S
C83 C79 1.382 . S
C83 C82 1.415 . S
C84 C82 1.501 . S
C84 C85 1.384 . S
C84 C89 1.408 . S
C85 H75 0.930 . S
C85 C84 1.384 . S
C85 C86 1.389 . S
C86 C85 1.389 . S
C86 C87 1.405 . S
C87 H76 0.930 . S
C87 C86 1.405 . S
C87 C88 1.364 . S
C88 C87 1.364 . S
C88 C89 1.400 . S
C89 H77 0.931 . S
C89 C84 1.408 . S
C89 C88 1.400 . S
H90 C96 0.930 . S
H91 C99 0.931 . S
H92 C101 0.931 . S
H93 C103 0.930 . S
H94 C105 0.930 . S
H95 C107 0.931 . S
C96 H90 0.930 . S
C96 C97 1.380 . S
C96 C98 1.394 . S
C97 C96 1.380 . S
C97 C101 1.382 . S
C98 C96 1.394 . S
C98 C99 1.400 . S
C99 H91 0.931 . S
C99 C98 1.400 . S
C99 C100 1.375 . S
C100 C99 1.375 . S
C100 C101 1.415 . S
C100 C102 1.501 . S
C101 H92 0.931 . S
C101 C97 1.382 . S
C101 C100 1.415 . S
C102 C100 1.501 . S
C102 C103 1.384 . S
C102 C107 1.408 . S
C103 H93 0.930 . S
C103 C102 1.384 . S
C103 C104 1.389 . S
C104 C103 1.389 . S
C104 C105 1.405 . S
C105 H94 0.930 . S
C105 C104 1.405 . S
C105 C106 1.364 . S
C106 C105 1.364 . S
C106 C107 1.400 . S
C107 H95 0.931 . S
C107 C102 1.408 . S
C107 C106 1.400 . S
H108 C114 0.930 . S
H109 C117 0.931 . S
H110 C119 0.931 . S
H111 C121 0.930 . S
H112 C123 0.930 . S
H113 C125 0.931 . S
C114 H108 0.930 . S
C114 C115 1.380 . S
C114 C116 1.394 . S
C115 C114 1.380 . S
C115 C119 1.382 . S
C116 C114 1.394 . S
C116 C117 1.400 . S
C117 H109 0.931 . S
C117 C116 1.400 . S
C117 C118 1.375 . S
C118 C117 1.375 . S
C118 C119 1.415 . S
C118 C120 1.501 . S
C119 H110 0.931 . S
C119 C115 1.382 . S
C119 C118 1.415 . S
C120 C118 1.501 . S
C120 C121 1.384 . S
C120 C125 1.408 . S
C121 H111 0.930 . S
C121 C120 1.384 . S
C121 C122 1.389 . S
C122 C121 1.389 . S
C122 C123 1.405 . S
C123 H112 0.930 . S
C123 C122 1.405 . S
C123 C124 1.364 . S
C124 C123 1.364 . S
C124 C125 1.400 . S
C125 H113 0.931 . S
C125 C120 1.408 . S
C125 C124 1.400 . S
H126 C132 0.930 . S
H127 C135 0.931 . S
H128 C137 0.931 . S
H129 C139 0.930 . S
H130 C141 0.930 . S
H131 C143 0.931 . S
C132 H126 0.930 . S
C132 C133 1.380 . S
C132 C134 1.394 . S
C133 C132 1.380 . S
C133 C137 1.382 . S
C134 C132 1.394 . S
C134 C135 1.400 . S
C135 H127 0.931 . S
C135 C134 1.400 . S
C135 C136 1.375 . S
C136 C135 1.375 . S
C136 C137 1.415 . S
C136 C138 1.501 . S
C137 H128 0.931 . S
C137 C133 1.382 . S
C137 C136 1.415 . S
C138 C136 1.501 . S
C138 C139 1.384 . S
C138 C143 1.408 . S
C139 H129 0.930 . S
C139 C138 1.384 . S
C139 C140 1.389 . S
C140 C139 1.389 . S
C140 C141 1.405 . S
C141 H130 0.930 . S
C141 C140 1.405 . S
C141 C142 1.364 . S
C142 C141 1.364 . S
C142 C143 1.400 . S
C143 H131 0.931 . S
C143 C138 1.408 . S
C143 C142 1.400 . S
C144 C145 1.443 . S
C144 N148 1.376 . S
C144 C182 1.389 . S
C145 C144 1.443 . S
C145 C146 1.340 . S
C145 H185 0.951 . S
C146 C145 1.340 . S
C146 C147 1.439 . S
C146 H186 0.950 . S
C147 C146 1.439 . S
C147 N148 1.374 . S
C147 C181 1.395 . S
N148 C144 1.376 . S
N148 C147 1.374 . S
N148 Co149 2.008 . S
Co149 N148 2.008 . S
Co149 N150 1.995 1_455 S
Co149 N155 2.008 1_455 S
Co149 N160 1.995 . S
Co149 N165 2.282 1_455 S
Co149 N171 2.282 . S
N150 Co149 1.995 1_655 S
N150 C151 1.376 . S
N150 C154 1.383 . S
C151 N150 1.376 . S
C151 C152 1.446 . S
C151 C181 1.391 1_655 S
C152 C151 1.446 . S
C152 C153 1.339 . S
C152 H187 0.949 . S
C153 C152 1.339 . S
C153 C154 1.439 . S
C153 H188 0.950 . S
C154 N150 1.383 . S
C154 C153 1.439 . S
C154 C183 1.392 . S
N155 Co149 2.008 1_655 S
N155 C156 1.376 . S
N155 C159 1.374 . S
C156 N155 1.376 . S
C156 C157 1.443 . S
C156 C183 1.389 . S
C157 C156 1.443 . S
C157 C158 1.340 . S
C157 H189 0.951 . S
C158 C157 1.340 . S
C158 C159 1.439 . S
C158 H190 0.950 . S
C159 N155 1.374 . S
C159 C158 1.439 . S
C159 C184 1.383 1_655 S
N160 Co149 1.995 . S
N160 C161 1.376 . S
N160 C164 1.383 . S
C161 N160 1.376 . S
C161 C162 1.446 . S
C161 C184 1.405 . S
C162 C161 1.446 . S
C162 C163 1.339 . S
C162 H191 0.949 . S
C163 C162 1.339 . S
C163 C164 1.439 . S
C163 H192 0.950 . S
C164 N160 1.383 . S
C164 C163 1.439 . S
C164 C182 1.392 . S
N165 Co149 2.282 1_655 S
N165 C168 1.332 . S
N165 C170 1.332 . S
C166 C167 1.386 . S
C166 C169 1.388 . S
C167 C166 1.386 . S
C167 C168 1.382 . S
C167 H193 0.950 . S
C168 N165 1.332 . S
C168 C167 1.382 . S
C168 H179 0.952 . S
C169 C166 1.388 . S
C169 C170 1.382 . S
C169 H194 0.950 . S
C170 N165 1.332 . S
C170 C169 1.382 . S
C170 H180 0.948 . S
N171 Co149 2.282 . S
N171 C175 1.332 . S
N171 C176 1.332 . S
C172 C173 1.388 . S
C172 C176 1.382 . S
C172 H195 0.950 . S
C173 C172 1.388 . S
C173 C174 1.386 . S
C174 C173 1.386 . S
C174 C175 1.382 . S
C174 H196 0.950 . S
C175 N171 1.332 . S
C175 C174 1.382 . S
C175 H177 0.952 . S
C176 N171 1.332 . S
C176 C172 1.382 . S
C176 H178 0.948 . S
H177 C175 0.952 . S
H178 C176 0.948 . S
H179 C168 0.952 . S
H180 C170 0.948 . S
C181 C147 1.395 . S
C181 C151 1.391 1_455 S
C182 C144 1.389 . S
C182 C164 1.392 . S
C183 C154 1.392 . S
C183 C156 1.389 . S
C184 C159 1.383 1_455 S
C184 C161 1.405 . S
H185 C145 0.951 . S
H186 C146 0.950 . S
H187 C152 0.949 . S
H188 C153 0.950 . S
H189 C157 0.951 . S
H190 C158 0.950 . S
H191 C162 0.949 . S
H192 C163 0.950 . S
H193 C167 0.950 . S
H194 C169 0.950 . S
H195 C172 0.950 . S
H196 C174 0.950 . S
C197 C198 1.443 . S
C197 N201 1.376 . S
C197 C235 1.389 . S
C198 C197 1.443 . S
C198 C199 1.340 . S
C198 H238 0.951 . S
C199 C198 1.340 . S
C199 C200 1.439 . S
C199 H239 0.950 . S
C200 C199 1.439 . S
C200 N201 1.374 . S
C200 C234 1.395 . S
N201 C197 1.376 . S
N201 C200 1.374 . S
N201 Co202 2.008 . S
Co202 N201 2.008 . S
Co202 N203 1.995 1_545 S
Co202 N208 2.008 1_545 S
Co202 N213 1.995 . S
Co202 N218 2.282 1_545 S
Co202 N224 2.282 . S
N203 Co202 1.995 1_565 S
N203 C204 1.376 . S
N203 C207 1.383 . S
C204 N203 1.376 . S
C204 C205 1.446 . S
C204 C234 1.391 1_565 S
C205 C204 1.446 . S
C205 C206 1.339 . S
C205 H240 0.949 . S
C206 C205 1.339 . S
C206 C207 1.439 . S
C206 H241 0.950 . S
C207 N203 1.383 . S
C207 C206 1.439 . S
C207 C236 1.392 . S
N208 Co202 2.008 1_565 S
N208 C209 1.376 . S
N208 C212 1.374 . S
C209 N208 1.376 . S
C209 C210 1.443 . S
C209 C236 1.389 . S
C210 C209 1.443 . S
C210 C211 1.340 . S
C210 H242 0.951 . S
C211 C210 1.340 . S
C211 C212 1.439 . S
C211 H243 0.950 . S
C212 N208 1.374 . S
C212 C211 1.439 . S
C212 C237 1.395 1_565 S
N213 Co202 1.995 . S
N213 C214 1.376 . S
N213 C217 1.383 . S
C214 N213 1.376 . S
C214 C215 1.446 . S
C214 C237 1.391 . S
C215 C214 1.446 . S
C215 C216 1.339 . S
C215 H244 0.949 . S
C216 C215 1.339 . S
C216 C217 1.439 . S
C216 H245 0.950 . S
C217 N213 1.383 . S
C217 C216 1.439 . S
C217 C235 1.392 . S
N218 Co202 2.282 1_565 S
N218 C221 1.332 . S
N218 C223 1.332 . S
C219 C220 1.386 . S
C219 C222 1.388 . S
C220 C219 1.386 . S
C220 C221 1.382 . S
C220 H246 0.950 . S
C221 N218 1.332 . S
C221 C220 1.382 . S
C221 H232 0.952 . S
C222 C219 1.388 . S
C222 C223 1.382 . S
C222 H247 0.950 . S
C223 N218 1.332 . S
C223 C222 1.382 . S
C223 H233 0.948 . S
N224 Co202 2.282 . S
N224 C228 1.332 . S
N224 C229 1.332 . S
C225 C226 1.388 . S
C225 C229 1.382 . S
C225 H248 0.950 . S
C226 C225 1.388 . S
C226 C227 1.386 . S
C227 C226 1.386 . S
C227 C228 1.382 . S
C227 H249 0.950 . S
C228 N224 1.332 . S
C228 C227 1.382 . S
C228 H230 0.952 . S
C229 N224 1.332 . S
C229 C225 1.382 . S
C229 H231 0.948 . S
H230 C228 0.952 . S
H231 C229 0.948 . S
H232 C221 0.952 . S
H233 C223 0.948 . S
C234 C200 1.395 . S
C234 C204 1.391 1_545 S
C235 C197 1.389 . S
C235 C217 1.392 . S
C236 C207 1.392 . S
C236 C209 1.389 . S
C237 C212 1.395 1_545 S
C237 C214 1.391 . S
H238 C198 0.951 . S
H239 C199 0.950 . S
H240 C205 0.949 . S
H241 C206 0.950 . S
H242 C210 0.951 . S
H243 C211 0.950 . S
H244 C215 0.949 . S
H245 C216 0.950 . S
H246 C220 0.950 . S
H247 C222 0.950 . S
H248 C225 0.950 . S
H249 C227 0.950 . S
C250 C251 1.443 . S
C250 N254 1.376 . S
C250 C288 1.389 . S
C251 C250 1.443 . S
C251 C252 1.340 . S
C251 H291 0.951 . S
C252 C251 1.340 . S
C252 C253 1.439 . S
C252 H292 0.950 . S
C253 C252 1.439 . S
C253 N254 1.374 . S
C253 C287 1.395 . S
N254 C250 1.376 . S
N254 C253 1.374 . S
N254 Co255 2.008 . S
Co255 N254 2.008 . S
Co255 N256 1.995 1_455 S
Co255 N261 2.008 1_455 S
Co255 N266 1.995 . S
Co255 N271 2.282 1_455 S
Co255 N277 2.282 . S
N256 Co255 1.995 1_655 S
N256 C257 1.376 . S
N256 C260 1.383 . S
C257 N256 1.376 . S
C257 C258 1.446 . S
C257 C287 1.391 1_655 S
C258 C257 1.446 . S
C258 C259 1.339 . S
C258 H293 0.949 . S
C259 C258 1.339 . S
C259 C260 1.439 . S
C259 H294 0.950 . S
C260 N256 1.383 . S
C260 C259 1.439 . S
C260 C289 1.392 . S
N261 Co255 2.008 1_655 S
N261 C262 1.376 . S
N261 C265 1.374 . S
C262 N261 1.376 . S
C262 C263 1.443 . S
C262 C289 1.389 . S
C263 C262 1.443 . S
C263 C264 1.340 . S
C263 H295 0.951 . S
C264 C263 1.340 . S
C264 C265 1.439 . S
C264 H296 0.950 . S
C265 N261 1.374 . S
C265 C264 1.439 . S
C265 C290 1.395 . S
N266 Co255 1.995 . S
N266 C267 1.376 . S
N266 C270 1.383 . S
C267 N266 1.376 . S
C267 C268 1.446 . S
C267 C290 1.391 1_455 S
C268 C267 1.446 . S
C268 C269 1.339 . S
C268 H297 0.949 . S
C269 C268 1.339 . S
C269 C270 1.439 . S
C269 H298 0.950 . S
C270 N266 1.383 . S
C270 C269 1.439 . S
C270 C288 1.392 . S
N271 Co255 2.282 1_655 S
N271 C274 1.332 . S
N271 C276 1.332 . S
C272 C273 1.386 . S
C272 C275 1.388 . S
C273 C272 1.386 . S
C273 C274 1.382 . S
C273 H299 0.950 . S
C274 N271 1.332 . S
C274 C273 1.382 . S
C274 H285 0.952 . S
C275 C272 1.388 . S
C275 C276 1.382 . S
C275 H300 0.950 . S
C276 N271 1.332 . S
C276 C275 1.382 . S
C276 H286 0.948 . S
N277 Co255 2.282 . S
N277 C281 1.332 . S
N277 C282 1.332 . S
C278 C279 1.388 . S
C278 C282 1.382 . S
C278 H301 0.950 . S
C279 C278 1.388 . S
C279 C280 1.386 . S
C280 C279 1.386 . S
C280 C281 1.382 . S
C280 H302 0.950 . S
C281 N277 1.332 . S
C281 C280 1.382 . S
C281 H283 0.952 . S
C282 N277 1.332 . S
C282 C278 1.382 . S
C282 H284 0.948 . S
H283 C281 0.952 . S
H284 C282 0.948 . S
H285 C274 0.952 . S
H286 C276 0.948 . S
C287 C253 1.395 . S
C287 C257 1.391 1_455 S
C288 C250 1.389 . S
C288 C270 1.392 . S
C289 C260 1.392 . S
C289 C262 1.389 . S
C290 C265 1.395 . S
C290 C267 1.391 1_655 S
H291 C251 0.951 . S
H292 C252 0.950 . S
H293 C258 0.949 . S
H294 C259 0.950 . S
H295 C263 0.951 . S
H296 C264 0.950 . S
H297 C268 0.949 . S
H298 C269 0.950 . S
H299 C273 0.950 . S
H300 C275 0.950 . S
H301 C278 0.950 . S
H302 C280 0.950 . S
C303 C304 1.443 . S
C303 N307 1.376 . S
C303 C341 1.389 . S
C304 C303 1.443 . S
C304 C305 1.340 . S
C304 H344 0.951 . S
C305 C304 1.340 . S
C305 C306 1.439 . S
C305 H345 0.950 . S
C306 C305 1.439 . S
C306 N307 1.374 . S
C306 C340 1.395 1_565 S
N307 C303 1.376 . S
N307 C306 1.374 . S
N307 Co308 2.008 1_565 S
Co308 N307 2.008 1_545 S
Co308 N309 1.995 . S
Co308 N314 2.008 . S
Co308 N319 1.995 1_545 S
Co308 N324 2.282 . S
Co308 N330 2.282 1_545 S
N309 Co308 1.995 . S
N309 C310 1.376 . S
N309 C313 1.383 . S
C310 N309 1.376 . S
C310 C311 1.446 . S
C310 C340 1.391 . S
C311 C310 1.446 . S
C311 C312 1.339 . S
C311 H346 0.949 . S
C312 C311 1.339 . S
C312 C313 1.439 . S
C312 H347 0.950 . S
C313 N309 1.383 . S
C313 C312 1.439 . S
C313 C342 1.392 . S
N314 Co308 2.008 . S
N314 C315 1.376 . S
N314 C318 1.374 . S
C315 N314 1.376 . S
C315 C316 1.443 . S
C315 C342 1.389 . S
C316 C315 1.443 . S
C316 C317 1.340 . S
C316 H348 0.951 . S
C317 C316 1.340 . S
C317 C318 1.439 . S
C317 H349 0.950 . S
C318 N314 1.374 . S
C318 C317 1.439 . S
C318 C343 1.395 . S
N319 Co308 1.995 1_565 S
N319 C320 1.376 . S
N319 C323 1.383 . S
C320 N319 1.376 . S
C320 C321 1.446 . S
C320 C343 1.391 1_565 S
C321 C320 1.446 . S
C321 C322 1.339 . S
C321 H350 0.949 . S
C322 C321 1.339 . S
C322 C323 1.439 . S
C322 H351 0.950 . S
C323 N319 1.383 . S
C323 C322 1.439 . S
C323 C341 1.392 . S
N324 Co308 2.282 . S
N324 C327 1.332 . S
N324 C329 1.332 . S
C325 C326 1.386 . S
C325 C328 1.388 . S
C326 C325 1.386 . S
C326 C327 1.382 . S
C326 H352 0.950 . S
C327 N324 1.332 . S
C327 C326 1.382 . S
C327 H338 0.952 . S
C328 C325 1.388 . S
C328 C329 1.382 . S
C328 H353 0.950 . S
C329 N324 1.332 . S
C329 C328 1.382 . S
C329 H339 0.948 . S
N330 Co308 2.282 1_565 S
N330 C334 1.332 . S
N330 C335 1.332 . S
C331 C332 1.388 . S
C331 C335 1.382 . S
C331 H354 0.950 . S
C332 C331 1.388 . S
C332 C333 1.386 . S
C333 C332 1.386 . S
C333 C334 1.382 . S
C333 H355 0.950 . S
C334 N330 1.332 . S
C334 C333 1.382 . S
C334 H336 0.952 . S
C335 N330 1.332 . S
C335 C331 1.382 . S
C335 H337 0.948 . S
H336 C334 0.952 . S
H337 C335 0.948 . S
H338 C327 0.952 . S
H339 C329 0.948 . S
C340 C306 1.395 1_545 S
C340 C310 1.391 . S
C341 C303 1.389 . S
C341 C323 1.392 . S
C342 C313 1.392 . S
C342 C315 1.389 . S
C343 C318 1.395 . S
C343 C320 1.391 1_545 S
H344 C304 0.951 . S
H345 C305 0.950 . S
H346 C311 0.949 . S
H347 C312 0.950 . S
H348 C316 0.951 . S
H349 C317 0.950 . S
H350 C321 0.949 . S
H351 C322 0.950 . S
H352 C326 0.950 . S
H353 C328 0.950 . S
H354 C331 0.950 . S
H355 C333 0.950 . S
C356 C357 1.443 . S
C356 N360 1.376 . S
C356 C394 1.389 . S
C357 C356 1.443 . S
C357 C358 1.340 . S
C357 H397 0.951 . S
C358 C357 1.340 . S
C358 C359 1.439 . S
C358 H398 0.950 . S
C359 C358 1.439 . S
C359 N360 1.374 . S
C359 C393 1.395 . S
N360 C356 1.376 . S
N360 C359 1.374 . S
N360 Co361 2.008 . S
Co361 N360 2.008 . S
Co361 N362 1.995 1_554 S
Co361 N367 2.008 1_554 S
Co361 N372 1.995 . S
Co361 N377 2.282 . S
Co361 N383 2.282 1_554 S
N362 Co361 1.995 1_556 S
N362 C363 1.376 . S
N362 C366 1.383 . S
C363 N362 1.376 . S
C363 C364 1.446 . S
C363 C393 1.391 1_556 S
C364 C363 1.446 . S
C364 C365 1.339 . S
C364 H399 0.949 . S
C365 C364 1.339 . S
C365 C366 1.439 . S
C365 H400 0.950 . S
C366 N362 1.383 . S
C366 C365 1.439 . S
C366 C395 1.392 . S
N367 Co361 2.008 1_556 S
N367 C368 1.376 . S
N367 C371 1.374 . S
C368 N367 1.376 . S
C368 C369 1.443 . S
C368 C395 1.389 . S
C369 C368 1.443 . S
C369 C370 1.340 . S
C369 H401 0.951 . S
C370 C369 1.340 . S
C370 C371 1.439 . S
C370 H402 0.950 . S
C371 N367 1.374 . S
C371 C370 1.439 . S
C371 C396 1.395 . S
N372 Co361 1.995 . S
N372 C373 1.376 . S
N372 C376 1.383 . S
C373 N372 1.376 . S
C373 C374 1.446 . S
C373 C396 1.391 1_554 S
C374 C373 1.446 . S
C374 C375 1.339 . S
C374 H403 0.949 . S
C375 C374 1.339 . S
C375 C376 1.439 . S
C375 H404 0.950 . S
C376 N372 1.383 . S
C376 C375 1.439 . S
C376 C394 1.392 . S
N377 Co361 2.282 . S
N377 C380 1.332 . S
N377 C382 1.332 . S
C378 C379 1.386 . S
C378 C381 1.388 . S
C379 C378 1.386 . S
C379 C380 1.382 . S
C379 H405 0.950 . S
C380 N377 1.332 . S
C380 C379 1.382 . S
C380 H391 0.952 . S
C381 C378 1.388 . S
C381 C382 1.382 . S
C381 H406 0.950 . S
C382 N377 1.332 . S
C382 C381 1.382 . S
C382 H392 0.948 . S
N383 Co361 2.282 1_556 S
N383 C387 1.332 . S
N383 C388 1.332 . S
C384 C385 1.388 . S
C384 C388 1.382 . S
C384 H407 0.950 . S
C385 C384 1.388 . S
C385 C386 1.386 . S
C386 C385 1.386 . S
C386 C387 1.382 . S
C386 H408 0.950 . S
C387 N383 1.332 . S
C387 C386 1.382 . S
C387 H389 0.952 . S
C388 N383 1.332 . S
C388 C384 1.382 . S
C388 H390 0.948 . S
H389 C387 0.952 . S
H390 C388 0.948 . S
H391 C380 0.952 . S
H392 C382 0.948 . S
C393 C359 1.395 . S
C393 C363 1.391 1_554 S
C394 C356 1.389 . S
C394 C376 1.392 . S
C395 C366 1.392 . S
C395 C368 1.389 . S
C396 C371 1.395 . S
C396 C373 1.391 1_556 S
H397 C357 0.951 . S
H398 C358 0.950 . S
H399 C364 0.949 . S
H400 C365 0.950 . S
H401 C369 0.951 . S
H402 C370 0.950 . S
H403 C374 0.949 . S
H404 C375 0.950 . S
H405 C379 0.950 . S
H406 C381 0.950 . S
H407 C384 0.950 . S
H408 C386 0.950 . S
C409 C410 1.443 . S
C409 N413 1.376 . S
C409 C447 1.389 . S
C410 C409 1.443 . S
C410 C411 1.340 . S
C410 H450 0.951 . S
C411 C410 1.340 . S
C411 C412 1.439 . S
C411 H451 0.950 . S
C412 C411 1.439 . S
C412 N413 1.374 . S
C412 C446 1.395 . S
N413 C409 1.376 . S
N413 C412 1.374 . S
N413 Co414 2.008 . S
Co414 N413 2.008 . S
Co414 N415 1.995 1_554 S
Co414 N420 2.008 . S
Co414 N425 1.995 . S
Co414 N430 2.282 . S
Co414 N436 2.282 1_554 S
N415 Co414 1.995 1_556 S
N415 C416 1.376 . S
N415 C419 1.383 . S
C416 N415 1.376 . S
C416 C417 1.446 . S
C416 C446 1.391 1_556 S
C417 C416 1.446 . S
C417 C418 1.339 . S
C417 H452 0.949 . S
C418 C417 1.339 . S
C418 C419 1.439 . S
C418 H453 0.950 . S
C419 N415 1.383 . S
C419 C418 1.439 . S
C419 C448 1.392 . S
N420 Co414 2.008 . S
N420 C421 1.376 1_554 S
N420 C424 1.374 . S
C421 N420 1.376 1_556 S
C421 C422 1.443 . S
C421 C448 1.389 . S
C422 C421 1.443 . S
C422 C423 1.340 1_556 S
C422 H454 0.951 . S
C423 C422 1.340 1_554 S
C423 C424 1.439 . S
C423 H455 0.950 . S
C424 N420 1.374 . S
C424 C423 1.439 . S
C424 C449 1.395 . S
N425 Co414 1.995 . S
N425 C426 1.376 . S
N425 C429 1.383 . S
C426 N425 1.376 . S
C426 C427 1.446 . S
C426 C449 1.391 . S
C427 C426 1.446 . S
C427 C428 1.339 . S
C427 H456 0.949 . S
C428 C427 1.339 . S
C428 C429 1.439 . S
C428 H457 0.950 . S
C429 N425 1.383 . S
C429 C428 1.439 . S
C429 C447 1.392 . S
N430 Co414 2.282 . S
N430 C433 1.332 . S
N430 C435 1.332 . S
C431 C432 1.386 . S
C431 C434 1.388 . S
C432 C431 1.386 . S
C432 C433 1.382 . S
C432 H458 0.950 . S
C433 N430 1.332 . S
C433 C432 1.382 . S
C433 H444 0.952 . S
C434 C431 1.388 . S
C434 C435 1.382 . S
C434 H459 0.950 . S
C435 N430 1.332 . S
C435 C434 1.382 . S
C435 H445 0.948 . S
N436 Co414 2.282 1_556 S
N436 C440 1.332 . S
N436 C441 1.332 . S
C437 C438 1.388 . S
C437 C441 1.382 . S
C437 H460 0.950 . S
C438 C437 1.388 . S
C438 C439 1.386 . S
C439 C438 1.386 . S
C439 C440 1.382 . S
C439 H461 0.950 . S
C440 N436 1.332 . S
C440 C439 1.382 . S
C440 H442 0.952 . S
C441 N436 1.332 . S
C441 C437 1.382 . S
C441 H443 0.948 1_556 S
H442 C440 0.952 . S
H443 C441 0.948 1_554 S
H444 C433 0.952 . S
H445 C435 0.948 . S
C446 C412 1.395 . S
C446 C416 1.391 1_554 S
C447 C409 1.389 . S
C447 C429 1.392 . S
C448 C419 1.392 . S
C448 C421 1.389 . S
C449 C424 1.395 . S
C449 C426 1.391 . S
H450 C410 0.951 . S
H451 C411 0.950 . S
H452 C417 0.949 . S
H453 C418 0.950 . S
H454 C422 0.951 . S
H455 C423 0.950 . S
H456 C427 0.949 . S
H457 C428 0.950 . S
H458 C432 0.950 . S
H459 C434 0.950 . S
H460 C437 0.950 . S
H461 C439 0.950 . S
C462 C463 1.443 . S
C462 N466 1.376 1_556 S
C462 C500 1.389 . S
C463 C462 1.443 . S
C463 C464 1.340 1_556 S
C463 H503 0.951 . S
C464 C463 1.340 1_554 S
C464 C465 1.439 . S
C464 H504 0.950 . S
C465 C464 1.439 . S
C465 N466 1.374 . S
C465 C499 1.395 . S
N466 C462 1.376 1_554 S
N466 C465 1.374 . S
N466 Co467 2.008 . S
Co467 N466 2.008 . S
Co467 N468 1.995 . S
Co467 N473 2.008 . S
Co467 N478 1.995 . S
Co467 N483 2.282 1_554 S
Co467 N489 2.282 . S
N468 Co467 1.995 . S
N468 C469 1.376 . S
N468 C472 1.383 . S
C469 N468 1.376 . S
C469 C470 1.446 . S
C469 C499 1.391 . S
C470 C469 1.446 . S
C470 C471 1.339 . S
C470 H505 0.949 . S
C471 C470 1.339 . S
C471 C472 1.439 . S
C471 H506 0.950 . S
C472 N468 1.383 . S
C472 C471 1.439 . S
C472 C501 1.392 . S
N473 Co467 2.008 . S
N473 C474 1.376 . S
N473 C477 1.374 . S
C474 N473 1.376 . S
C474 C475 1.443 . S
C474 C501 1.389 . S
C475 C474 1.443 . S
C475 C476 1.340 . S
C475 H507 0.951 . S
C476 C475 1.340 . S
C476 C477 1.439 . S
C476 H508 0.950 . S
C477 N473 1.374 . S
C477 C476 1.439 . S
C477 C502 1.395 . S
N478 Co467 1.995 . S
N478 C479 1.376 . S
N478 C482 1.383 1_554 S
C479 N478 1.376 . S
C479 C480 1.446 1_554 S
C479 C502 1.391 . S
C480 C479 1.446 1_556 S
C480 C481 1.339 . S
C480 H509 0.949 . S
C481 C480 1.339 . S
C481 C482 1.439 . S
C481 H510 0.950 . S
C482 N478 1.383 1_556 S
C482 C481 1.439 . S
C482 C500 1.392 . S
N483 Co467 2.282 1_556 S
N483 C486 1.332 . S
N483 C488 1.332 . S
C484 C485 1.386 . S
C484 C487 1.388 . S
C485 C484 1.386 . S
C485 C486 1.382 . S
C485 H511 0.950 . S
C486 N483 1.332 . S
C486 C485 1.382 . S
C486 H497 0.952 . S
C487 C484 1.388 . S
C487 C488 1.382 . S
C487 H512 0.950 . S
C488 N483 1.332 . S
C488 C487 1.382 . S
C488 H498 0.948 1_556 S
N489 Co467 2.282 . S
N489 C493 1.332 . S
N489 C494 1.332 . S
C490 C491 1.388 . S
C490 C494 1.382 . S
C490 H513 0.950 . S
C491 C490 1.388 . S
C491 C492 1.386 . S
C492 C491 1.386 . S
C492 C493 1.382 . S
C492 H514 0.950 . S
C493 N489 1.332 . S
C493 C492 1.382 . S
C493 H495 0.952 . S
C494 N489 1.332 . S
C494 C490 1.382 . S
C494 H496 0.948 . S
H495 C493 0.952 . S
H496 C494 0.948 . S
H497 C486 0.952 . S
H498 C488 0.948 1_554 S
C499 C465 1.395 . S
C499 C469 1.391 . S
C500 C462 1.389 . S
C500 C482 1.392 . S
C501 C472 1.392 . S
C501 C474 1.389 . S
C502 C477 1.395 . S
C502 C479 1.391 . S
H503 C463 0.951 . S
H504 C464 0.950 . S
H505 C470 0.949 . S
H506 C471 0.950 . S
H507 C475 0.951 . S
H508 C476 0.950 . S
H509 C480 0.949 . S
H510 C481 0.950 . S
H511 C485 0.950 . S
H512 C487 0.950 . S
H513 C490 0.950 . S
H514 C492 0.950 . S
C515 C516 1.443 . S
C515 N519 1.376 . S
C515 C553 1.389 . S
C516 C515 1.443 . S
C516 C517 1.340 . S
C516 H556 0.951 . S
C517 C516 1.340 . S
C517 C518 1.439 . S
C517 H557 0.950 . S
C518 C517 1.439 . S
C518 N519 1.374 . S
C518 C552 1.395 1_554 S
N519 C515 1.376 . S
N519 C518 1.374 . S
N519 Co520 2.008 . S
Co520 N519 2.008 . S
Co520 N521 1.995 1_554 S
Co520 N526 2.008 1_554 S
Co520 N531 1.995 . S
Co520 N536 2.282 . S
Co520 N542 2.282 1_554 S
N521 Co520 1.995 1_556 S
N521 C522 1.376 . S
N521 C525 1.383 . S
C522 N521 1.376 . S
C522 C523 1.446 . S
C522 C552 1.391 . S
C523 C522 1.446 . S
C523 C524 1.339 . S
C523 H558 0.949 . S
C524 C523 1.339 . S
C524 C525 1.439 . S
C524 H559 0.950 . S
C525 N521 1.383 . S
C525 C524 1.439 . S
C525 C554 1.392 . S
N526 Co520 2.008 1_556 S
N526 C527 1.376 . S
N526 C530 1.374 1_556 S
C527 N526 1.376 . S
C527 C528 1.443 . S
C527 C554 1.389 . S
C528 C527 1.443 . S
C528 C529 1.340 . S
C528 H560 0.951 . S
C529 C528 1.340 . S
C529 C530 1.439 1_556 S
C529 H561 0.950 1_556 S
C530 N526 1.374 1_554 S
C530 C529 1.439 1_554 S
C530 C555 1.395 . S
N531 Co520 1.995 . S
N531 C532 1.376 . S
N531 C535 1.383 . S
C532 N531 1.376 . S
C532 C533 1.446 . S
C532 C555 1.391 . S
C533 C532 1.446 . S
C533 C534 1.339 . S
C533 H562 0.949 . S
C534 C533 1.339 . S
C534 C535 1.439 . S
C534 H563 0.950 . S
C535 N531 1.383 . S
C535 C534 1.439 . S
C535 C553 1.392 . S
N536 Co520 2.282 . S
N536 C539 1.332 . S
N536 C541 1.332 . S
C537 C538 1.386 . S
C537 C540 1.388 . S
C538 C537 1.386 . S
C538 C539 1.382 . S
C538 H564 0.950 . S
C539 N536 1.332 . S
C539 C538 1.382 . S
C539 H550 0.952 . S
C540 C537 1.388 . S
C540 C541 1.382 . S
C540 H565 0.950 . S
C541 N536 1.332 . S
C541 C540 1.382 . S
C541 H551 0.948 . S
N542 Co520 2.282 1_556 S
N542 C546 1.332 . S
N542 C547 1.332 . S
C543 C544 1.388 . S
C543 C547 1.382 . S
C543 H566 0.950 . S
C544 C543 1.388 . S
C544 C545 1.386 . S
C545 C544 1.386 . S
C545 C546 1.382 . S
C545 H567 0.950 . S
C546 N542 1.332 . S
C546 C545 1.382 . S
C546 H548 0.952 . S
C547 N542 1.332 . S
C547 C543 1.382 . S
C547 H549 0.948 . S
H548 C546 0.952 . S
H549 C547 0.948 . S
H550 C539 0.952 . S
H551 C541 0.948 . S
C552 C518 1.395 1_556 S
C552 C522 1.391 . S
C553 C515 1.389 . S
C553 C535 1.392 . S
C554 C525 1.392 . S
C554 C527 1.389 . S
C555 C530 1.395 . S
C555 C532 1.391 . S
H556 C516 0.951 . S
H557 C517 0.950 . S
H558 C523 0.949 . S
H559 C524 0.950 . S
H560 C528 0.951 . S
H561 C529 0.950 1_554 S
H562 C533 0.949 . S
H563 C534 0.950 . S
H564 C538 0.950 . S
H565 C540 0.950 . S
H566 C543 0.950 . S
H567 C545 0.950 . S
C173 C7 1.386 . S
C226 C32 1.097 . S
C289 C44 1.604 . S
C332 C62 1.003 . S
C88 C288 1.560 . S
C325 C106 1.098 . S
C166 C124 1.393 . S
C219 C140 1.012 . S
C272 C142 1.449 . S
C341 C86 2.043 . S
C182 C104 1.559 . S
C235 C122 1.888 . S
C183 C34 1.530 . S
C236 C43 2.007 . S
C279 C61 1.472 . S
C342 C8 1.947 . S
C385 C133 1.371 . S
C80 C438 1.742 . S
C98 C500 1.649 . S
C116 C554 1.830 . S
C25 C501 1.499 . S
C52 C553 1.934 . S
C70 C378 1.456 . S
C431 C14 1.671 . S
C491 C16 1.409 . S
C26 C537 1.155 . S
C50 C394 1.612 . S
C68 C447 1.175 . S
C395 C79 1.480 . S
C448 C97 1.245 . S
C115 C484 1.492 . S
C544 C134 1.061 . S
