# Generated by pormake.
# Topology pth, (4,4)-cn, num edge types: 1
# Building blocks:
#     Node 0, Type 0, BuildingBlock: QUQFOY_clean_sbu_3, # of connection points: 4
#     Node 1, Type 0, BuildingBlock: QUQFOY_clean_sbu_3, # of connection points: 4
#     Node 2, Type 0, BuildingBlock: QUQFOY_clean_sbu_3, # of connection points: 4
#     Node 3, Type 1, BuildingBlock: NAWXER_clean_linker_0, # of connection points: 4
#     Node 4, Type 1, BuildingBlock: NAWXER_clean_linker_0, # of connection points: 4
#     Node 5, Type 1, BuildingBlock: NAWXER_clean_linker_0, # of connection points: 4
#     Edge 6, Type (0, 1), BuildingBlock: OJICUG_clean_linker_0, # of connection points: 2
#     Edge 7, Type (0, 1), BuildingBlock: OJICUG_clean_linker_0, # of connection points: 2
#     Edge 8, Type (0, 1), BuildingBlock: OJICUG_clean_linker_0, # of connection points: 2
#     Edge 9, Type (0, 1), BuildingBlock: OJICUG_clean_linker_0, # of connection points: 2
#     Edge 10, Type (0, 1), BuildingBlock: OJICUG_clean_linker_0, # of connection points: 2
#     Edge 11, Type (0, 1), BuildingBlock: OJICUG_clean_linker_0, # of connection points: 2
#     Edge 12, Type (0, 1), BuildingBlock: OJICUG_clean_linker_0, # of connection points: 2
#     Edge 13, Type (0, 1), BuildingBlock: OJICUG_clean_linker_0, # of connection points: 2
#     Edge 14, Type (0, 1), BuildingBlock: OJICUG_clean_linker_0, # of connection points: 2
#     Edge 15, Type (0, 1), BuildingBlock: OJICUG_clean_linker_0, # of connection points: 2
#     Edge 16, Type (0, 1), BuildingBlock: OJICUG_clean_linker_0, # of connection points: 2
#     Edge 17, Type (0, 1), BuildingBlock: OJICUG_clean_linker_0, # of connection points: 2
# Relax obj value: 0.008
# Max RMSD: 0.059
# Mean RMSD: 0.041
data_MOF--net-pth--node1-QUQFOY_clean_sbu_3--node2-NAWXER_clean_linker_0--edge1-OJICUG_clean_linker_0
_symmetry_space_group_name_H-M    P1
_symmetry_Int_Tables_number       1
_symmetry_cell_setting            triclinic
loop_
_symmetry_equiv_pos_as_xyz
'x, y, z'
_cell_length_a     23.262854
_cell_length_b     23.165465
_cell_length_c     50.945725
_cell_angle_alpha  89.991484
_cell_angle_beta   90.657488
_cell_angle_gamma 120.61937
loop_
_atom_site_label
_atom_site_type_symbol
_atom_site_fract_x
_atom_site_fract_y
_atom_site_fract_z
_atom_type_partial_charge
C0 C 0.96164 0.16737 0.08478 0.0
O1 O 0.92465 0.1584 0.06484 0.0
Cd2 Cd 0.91145 0.08852 0.02805 0.0
O3 O -0.00681 0.13593 0.08696 0.0
Cd4 Cd 0.00578 0.05135 0.0617 0.0
C5 C 0.07759 0.16196 0.01236 0.0
O6 O 0.89115 -0.01639 0.04486 0.0
O7 O 0.96434 0.9631 0.02872 0.0
O8 O 0.00107 0.00088 0.10408 0.0
C9 C 0.90391 0.94796 0.02985 0.0
O10 O 0.01925 0.15074 1.00682 0.0
C11 C 0.04902 -0.00899 0.09973 0.0
O12 O 0.08806 0.13446 0.03205 0.0
O13 O 0.07883 0.01169 0.07801 0.0
C14 C 0.14753 0.09814 0.41994 0.0
O15 O 0.18001 0.13845 0.40159 0.0
Cd16 Cd 0.12758 0.15686 0.36401 0.0
O17 O 0.08415 0.06956 0.4206 0.0
Cd18 Cd -0.00841 0.06794 0.39587 0.0
C19 C 0.0233 -0.00885 0.34674 0.0
O20 O 0.04565 0.18143 0.37852 0.0
O21 O 0.95081 0.10916 0.3607 0.0
O22 O 0.94701 0.09027 0.43468 0.0
C23 C -0.0011 0.16929 0.3623 0.0
O24 O 0.07216 0.04899 0.34116 0.0
C25 C 0.89069 0.03636 0.43359 0.0
O26 O -0.01252 -0.01787 0.3668 0.0
O27 O 0.88159 -0.00486 0.41527 0.0
C28 C 0.89361 0.08878 0.69649 0.0
O29 O 0.9082 0.135 0.71323 0.0
Cd30 Cd -0.02097 0.15194 0.75072 0.0
O31 O 0.9229 0.05504 0.69703 0.0
Cd32 Cd 0.01479 0.05266 0.72056 0.0
C33 C 0.90947 -0.0128 0.77112 0.0
O34 O 0.08285 0.16856 0.73564 0.0
O35 O 0.10386 0.09592 0.75311 0.0
O36 O 0.06904 0.06689 0.67915 0.0
C37 C 0.11852 0.15649 0.75117 0.0
O38 O 0.91942 0.04616 0.77438 0.0
C39 C 0.07287 0.01426 0.68053 0.0
O40 O 0.93655 0.97384 0.75228 0.0
O41 O 0.04733 0.9772 0.70051 0.0
C42 C 0.97264 0.35395 0.26893 0.0
C43 C 0.01489 0.3716 0.29118 0.0
C44 C -0.02479 0.40337 0.25242 0.0
C45 C 0.02153 0.47143 0.25733 0.0
C46 C 0.06024 0.43991 0.29628 0.0
C47 C 0.06359 0.4891 0.27952 0.0
C48 C 0.0241 0.52546 0.24095 0.0
C49 C 0.05177 0.39594 0.17952 0.0
C50 C -0.00478 0.36448 0.16278 0.0
C51 C 0.06086 0.44724 0.1967 0.0
C52 C 0.01373 0.46788 0.19721 0.0
C53 C 0.94723 0.38413 0.16421 0.0
C54 C 0.95689 0.43584 0.18098 0.0
C55 C 0.02406 0.52522 0.21326 0.0
C56 C 0.10081 0.81252 0.19001 0.0
C57 C 0.06767 0.80105 0.16573 0.0
C58 C 0.09216 0.75843 0.20519 0.0
C59 C 0.04786 0.69206 0.19681 0.0
C60 C 0.02619 0.73506 0.15672 0.0
C61 C 0.01617 0.68106 0.17216 0.0
C62 C 0.03577 0.63368 0.21296 0.0
C63 C 0.97406 0.75183 0.26213 0.0
C64 C 0.008 0.77463 0.28625 0.0
C65 C -0.02012 0.70426 0.24745 0.0
C66 C 0.02198 0.68087 0.25614 0.0
C67 C 0.04739 0.7489 0.29561 0.0
C68 C 0.05446 0.70249 0.28063 0.0
C69 C 0.02953 0.63123 0.24058 0.0
H70 H 0.93732 0.30192 0.26423 0.0
H71 H 0.93995 0.38811 0.2362 0.0
H72 H 0.09242 0.45575 0.31352 0.0
H73 H 0.09895 0.54131 0.28403 0.0
H74 H 0.09001 0.38252 0.17878 0.0
H75 H 0.10534 0.47198 0.20901 0.0
H76 H 0.90226 0.35998 0.15218 0.0
H77 H 0.91987 0.45103 0.18125 0.0
H78 H 0.13353 0.86322 0.19713 0.0
H79 H 0.11973 0.76861 0.22352 0.0
H80 H 4e-05 0.72529 0.13803 0.0
H81 H -0.01742 0.63056 0.16502 0.0
H82 H 0.94281 0.77059 0.25476 0.0
H83 H 0.95168 0.68607 0.22925 0.0
H84 H 0.07409 0.76608 0.31418 0.0
H85 H 0.08616 0.68425 0.288 0.0
N86 N 0.026 0.5782 0.25347 0.0
N87 N 0.03082 0.5796 0.2004 0.0
C88 C 0.68552 0.03921 0.52233 0.0
C89 C 0.67467 -0.00437 0.50112 0.0
C90 C 0.63201 0.03278 0.5368 0.0
C91 C 0.56663 -0.01933 0.53126 0.0
C92 C 0.60874 0.94456 0.49521 0.0
C93 C 0.55543 0.93714 0.51017 0.0
C94 C 0.50911 0.97413 0.54594 0.0
C95 C 0.65278 0.96895 0.60483 0.0
C96 C 0.67239 0.01766 0.62486 0.0
C97 C 0.59754 0.95292 0.58861 0.0
C98 C 0.56236 -0.01305 0.59155 0.0
C99 C 0.6343 0.04839 0.62864 0.0
C100 C 0.58043 0.03358 0.61211 0.0
C101 C 0.50682 0.9759 0.57372 0.0
C102 C 0.23105 0.92818 0.59406 0.0
C103 C 0.24806 0.97921 0.61268 0.0
C104 C 0.28115 0.92585 0.57999 0.0
C105 C 0.34864 0.97379 0.58482 0.0
C106 C 0.31551 0.02707 0.61738 0.0
C107 C 0.36543 0.02392 0.60378 0.0
C108 C 0.40243 0.97169 0.57065 0.0
C109 C 0.3281 0.06611 0.51339 0.0
C110 C 0.28831 0.02241 0.49317 0.0
C111 C 0.3647 0.04865 0.53004 0.0
C112 C 0.3626 -0.01253 0.52662 0.0
C113 C 0.28529 0.96061 0.48999 0.0
C114 C 0.323 0.94364 0.50643 0.0
C115 C 0.40591 0.97266 0.54312 0.0
H116 H 0.73537 0.07869 0.5278 0.0
H117 H 0.64189 0.06886 0.55227 0.0
H118 H 0.59782 0.9111 0.47866 0.0
H119 H 0.50519 0.89756 0.50511 0.0
H120 H 0.68068 0.94403 0.6013 0.0
H121 H 0.58327 0.91499 0.57349 0.0
H122 H 0.64597 0.08418 0.6444 0.0
H123 H 0.55351 0.05979 0.61518 0.0
H124 H 0.17919 0.89082 0.59022 0.0
H125 H 0.26737 0.88635 0.5656 0.0
H126 H 0.32957 0.06653 0.63183 0.0
H127 H 0.41724 0.06121 0.6078 0.0
H128 H 0.33104 0.1139 0.51623 0.0
H129 H 0.39597 0.08369 0.54525 0.0
H130 H 0.25524 0.9264 0.47437 0.0
H131 H 0.32146 0.89659 0.50336 0.0
N132 N 0.45848 0.97275 0.53174 0.0
N133 N 0.45319 0.9741 0.58486 0.0
C134 C 0.34186 0.33682 0.84241 0.0
C135 C 0.31876 0.35718 0.82066 0.0
C136 C 0.3889 0.38413 0.8599 0.0
C137 C 0.41224 0.4527 0.85653 0.0
C138 C 0.34395 0.4261 0.81692 0.0
C139 C 0.39004 0.47325 0.83468 0.0
C140 C 0.4623 0.50384 0.87474 0.0
C141 C 0.28426 0.3748 0.92465 0.0
C142 C 0.29641 0.34722 0.94719 0.0
C143 C 0.33713 0.42322 0.90997 0.0
C144 C 0.40338 0.44319 0.9168 0.0
C145 C 0.36292 0.36807 0.95417 0.0
C146 C 0.41571 0.41533 0.93909 0.0
C147 C 0.46031 0.49729 0.90241 0.0
C148 C 0.6747 0.76626 0.94087 0.0
C149 C 0.70733 0.74782 0.9595 0.0
C150 C 0.62858 0.71882 0.92316 0.0
C151 C 0.61437 0.65223 0.92385 0.0
C152 C 0.69278 0.68107 0.96021 0.0
C153 C 0.64618 0.63354 0.94268 0.0
C154 C 0.56354 0.60097 0.9061 0.0
C155 C 0.73502 0.73614 0.85345 0.0
C156 C 0.71866 0.7735 0.83644 0.0
C157 C 0.6851 0.68301 0.86771 0.0
C158 C 0.61824 0.66627 0.86488 0.0
C159 C 0.65175 0.75677 0.8338 0.0
C160 C 0.60187 0.70314 0.84771 0.0
C161 C 0.56445 0.60839 0.87866 0.0
H162 H 0.32328 0.28424 0.84613 0.0
H163 H 0.40695 0.36696 0.87603 0.0
H164 H 0.32868 0.44389 0.8001 0.0
H165 H 0.40823 0.52597 0.83137 0.0
H166 H 0.23385 0.35955 0.91837 0.0
H167 H 0.326 0.44572 0.89354 0.0
H168 H 0.37459 0.34933 0.97167 0.0
H169 H 0.46643 0.43084 0.94508 0.0
H170 H 0.68527 0.81747 0.93985 0.0
H171 H 0.60335 0.73392 0.90918 0.0
H172 H 0.71674 0.66545 0.97458 0.0
H173 H 0.63516 0.58216 0.94372 0.0
H174 H 0.78634 0.74826 0.85579 0.0
H175 H 0.69848 0.65435 0.88058 0.0
H176 H 0.63789 0.78443 0.82057 0.0
H177 H 0.55044 0.69051 0.84513 0.0
N178 N 0.51397 0.55961 0.86404 0.0
N179 N 0.51156 0.54581 0.91693 0.0
C180 C 0.95078 0.26403 0.09945 0.0
C181 C 0.96993 0.21681 0.10505 0.0
H182 H 0.94595 0.34864 0.11272 0.0
C183 C -0.00184 0.21853 0.1298 0.0
H184 H 0.92978 0.26476 0.08045 0.0
C185 C 0.00635 0.2662 0.14866 0.0
C186 C -0.01293 0.31347 0.14302 0.0
H187 H 0.01337 0.1827 0.13469 0.0
H188 H 0.02699 0.26545 0.16773 0.0
C189 C 0.95974 0.31202 0.11808 0.0
C190 C 0.83855 0.07943 0.46431 0.0
C191 C 0.83706 0.02469 0.45183 0.0
H192 H 0.7879 0.11386 0.4885 0.0
C193 C 0.78288 0.9599 0.45611 0.0
H194 H 0.87934 0.1301 0.4611 0.0
C195 C 0.73097 0.95011 0.47259 0.0
C196 C 0.73143 0.00515 0.48463 0.0
H197 H 0.78073 0.91678 0.44681 0.0
H198 H 0.6906 0.89934 0.47586 0.0
C199 C 0.7861 0.06992 0.48023 0.0
C200 C 0.82058 0.94326 0.80501 0.0
C201 C 0.86352 0.93335 0.78889 0.0
H202 H 0.74107 0.90017 0.83268 0.0
C203 C 0.86059 0.87123 0.78948 0.0
H204 H 0.82152 -0.00951 0.80504 0.0
C205 C 0.81484 0.81975 0.80559 0.0
C206 C 0.7707 0.82927 0.82104 0.0
H207 H 0.89322 0.86221 0.77737 0.0
H208 H 0.81259 0.77187 0.80539 0.0
C209 C 0.77435 0.89158 0.82078 0.0
C210 C 0.0924 0.91396 0.10835 0.0
C211 C 0.06421 0.95085 0.11788 0.0
H212 H 0.11473 0.83639 0.11621 0.0
C213 C 0.04386 0.94307 0.14415 0.0
H214 H 0.10812 0.91872 0.08814 0.0
C215 C 0.04895 0.89704 0.16027 0.0
C216 C 0.0731 0.8572 0.15018 0.0
H217 H 0.02204 0.97098 0.15197 0.0
H218 H 0.03071 0.88998 0.18018 0.0
C219 C 0.096 0.86682 0.1243 0.0
C220 C 0.14877 0.01938 0.4532 0.0
C221 C 0.18302 0.08054 0.43967 0.0
H222 H 0.15576 0.95256 0.48049 0.0
C223 C 0.25189 0.12281 0.44422 0.0
H224 H 0.09575 -0.0145 0.44996 0.0
C225 C 0.28583 0.10422 0.46192 0.0
C226 C 0.25179 0.04248 0.47497 0.0
H227 H 0.27957 0.17017 0.43407 0.0
H228 H 0.33902 0.13749 0.46503 0.0
C229 C 0.18302 0.00022 0.4705 0.0
C230 C 0.17135 0.26865 0.77324 0.0
C231 C 0.17128 0.20924 0.76783 0.0
H232 H 0.21629 0.3608 0.79483 0.0
C233 C 0.22079 0.19939 0.77925 0.0
H234 H 0.13334 0.2772 0.76484 0.0
C235 C 0.26931 0.24788 0.79595 0.0
C236 C 0.26864 0.30678 0.80201 0.0
H237 H 0.22219 0.15421 0.7752 0.0
H238 H 0.30745 0.23913 0.80401 0.0
C239 C 0.21917 0.31667 0.79034 0.0
C240 C 0.82409 0.11998 0.66903 0.0
C241 C 0.84006 0.0718 0.6769 0.0
H242 H 0.76116 0.14175 0.64551 0.0
C243 C 0.80278 0.00635 0.66664 0.0
H244 H 0.85258 0.17102 0.67639 0.0
C245 C 0.74886 -0.01123 0.64954 0.0
C246 C 0.73188 0.03665 0.64195 0.0
H247 H 0.81383 0.96805 0.67253 0.0
H248 H 0.71945 0.93718 0.64294 0.0
C249 C 0.77123 0.10287 0.65148 0.0
C250 C 0.78994 0.89001 1.00903 0.0
C251 C 0.85244 0.8954 0.01266 0.0
H252 H 0.69489 0.83896 0.98918 0.0
C253 C 0.86638 0.85126 0.99905 0.0
H254 H 0.77791 0.92347 0.01923 0.0
C255 C 0.81891 0.80289 0.98202 0.0
C256 C 0.75684 0.79816 0.97806 0.0
H257 H 0.91413 0.85421 1.00148 0.0
H258 H 0.83124 0.76998 0.97156 0.0
C259 C 0.74267 0.84204 0.99174 0.0
C260 C -0.0124 0.87008 0.34196 0.0
C261 C 0.01175 0.93343 0.33057 0.0
H262 H 0.96857 0.76985 0.33673 0.0
C263 C 0.03019 0.94265 0.30406 0.0
H264 H 0.97351 0.86186 0.36241 0.0
C265 C 0.02618 0.8899 0.28936 0.0
C266 C 0.0051 0.82761 0.30109 0.0
H267 H 0.04883 -0.009 0.29482 0.0
H268 H 0.04207 0.89852 0.2691 0.0
C269 C -0.01489 0.81772 0.32739 0.0
C270 C 0.15085 0.05084 0.6429 0.0
C271 C 0.11063 0.00063 0.66086 0.0
H272 H 0.22619 0.08305 0.61359 0.0
C273 C 0.11129 0.94027 0.66104 0.0
H274 H 0.15145 0.09788 0.64224 0.0
C275 C 0.15355 0.93156 0.64426 0.0
C276 C 0.19629 -0.01652 0.62745 0.0
H277 H 0.08067 0.90068 0.67462 0.0
H278 H 0.15517 0.8857 0.64528 0.0
C279 C 0.19369 0.04255 0.62652 0.0
C280 C 0.13047 0.2599 0.98237 0.0
C281 C 0.13375 0.20884 0.99587 0.0
H282 H 0.17977 0.34491 0.95745 0.0
C283 C 0.19063 0.20311 0.99335 0.0
H284 H 0.08748 0.26595 0.98422 0.0
C285 C 0.243 0.24722 0.97726 0.0
C286 C 0.24015 0.29892 0.96384 0.0
H287 H 0.19411 0.16377 1.00341 0.0
H288 H 0.28531 0.24022 0.97516 0.0
C289 C 0.18331 0.30486 0.9668 0.0
C290 C 0.9453 0.21254 0.33163 0.0
C291 C 0.00297 0.22121 0.34441 0.0
H292 H 0.90329 0.25384 0.30555 0.0
C293 C 0.06461 0.27921 0.33956 0.0
H294 H 0.89703 0.16838 0.33515 0.0
C295 C 0.06863 0.32745 0.32204 0.0
C296 C 0.01084 0.31935 0.30935 0.0
H297 H 0.11 0.2868 0.34895 0.0
H298 H 0.11727 0.37072 0.31824 0.0
C299 C 0.94907 0.26132 0.31447 0.0
loop_
_geom_bond_atom_site_label_1
_geom_bond_atom_site_label_2
_geom_bond_distance
_geom_bond_site_symmetry_2
_ccdc_geom_bond_type
C0 O1 1.306 1_455 S
C0 O3 1.160 . S
O1 C0 1.306 1_655 S
O1 Cd2 2.228 . S
Cd2 O1 2.228 . S
Cd2 O6 2.273 . S
Cd2 O10 2.277 1_655 S
O3 C0 1.160 . S
O3 Cd4 2.203 . S
Cd4 O3 2.203 . S
Cd4 O6 2.411 1_455 S
Cd4 O7 2.333 1_445 S
Cd4 O8 2.352 1_445 S
Cd4 O12 2.277 . S
Cd4 O13 2.356 1_545 S
C5 O10 1.209 . S
C5 O12 1.226 . S
O6 Cd2 2.273 . S
O6 Cd4 2.411 1_655 S
O6 C9 1.320 1_545 S
O7 Cd4 2.333 1_665 S
O7 C9 1.214 . S
O8 Cd4 2.352 1_665 S
O8 C11 1.258 1_655 S
C9 O6 1.320 1_565 S
C9 O7 1.214 . S
O10 Cd2 2.277 1_455 S
O10 C5 1.209 . S
C11 O8 1.258 1_455 S
C11 O13 1.282 . S
O12 Cd4 2.277 . S
O12 C5 1.226 . S
O13 Cd4 2.356 1_565 S
O13 C11 1.282 . S
C14 O15 1.306 . S
C14 O17 1.160 . S
O15 C14 1.306 . S
O15 Cd16 2.228 . S
Cd16 O15 2.228 . S
Cd16 O20 2.273 . S
Cd16 O24 2.277 . S
O17 C14 1.160 . S
O17 Cd18 2.203 . S
Cd18 O17 2.203 . S
Cd18 O20 2.411 . S
Cd18 O21 2.333 1_455 S
Cd18 O22 2.352 1_455 S
Cd18 O26 2.277 1_445 S
Cd18 O27 2.357 1_445 S
C19 O24 1.209 1_565 S
C19 O26 1.226 1_455 S
O20 Cd16 2.273 . S
O20 Cd18 2.411 . S
O20 C23 1.320 . S
O21 Cd18 2.333 1_655 S
O21 C23 1.214 1_655 S
O22 Cd18 2.352 1_655 S
O22 C25 1.258 . S
C23 O20 1.320 . S
C23 O21 1.214 1_455 S
O24 Cd16 2.277 . S
O24 C19 1.209 1_545 S
C25 O22 1.258 . S
C25 O27 1.279 1_545 S
O26 Cd18 2.277 1_665 S
O26 C19 1.226 1_655 S
O27 Cd18 2.357 1_665 S
O27 C25 1.279 1_565 S
C28 O29 1.306 . S
C28 O31 1.160 . S
O29 C28 1.306 . S
O29 Cd30 2.228 . S
Cd30 O29 2.228 . S
Cd30 O34 2.273 1_655 S
Cd30 O38 2.277 . S
O31 C28 1.160 . S
O31 Cd32 2.203 1_655 S
Cd32 O31 2.203 1_455 S
Cd32 O34 2.411 . S
Cd32 O35 2.333 . S
Cd32 O36 2.352 . S
Cd32 O40 2.277 1_445 S
Cd32 O41 2.356 . S
C33 O38 1.209 1_565 S
C33 O40 1.226 . S
O34 Cd30 2.273 1_455 S
O34 Cd32 2.411 . S
O34 C37 1.320 . S
O35 Cd32 2.333 . S
O35 C37 1.214 . S
O36 Cd32 2.352 . S
O36 C39 1.258 . S
C37 O34 1.320 . S
C37 O35 1.214 . S
O38 Cd30 2.277 . S
O38 C33 1.209 1_545 S
C39 O36 1.258 . S
C39 O41 1.282 . S
O40 Cd32 2.277 1_665 S
O40 C33 1.226 . S
O41 Cd32 2.356 . S
O41 C39 1.282 . S
C42 C43 1.384 1_655 S
C42 C44 1.388 1_655 S
C42 H70 0.931 . S
C43 C42 1.384 1_455 S
C43 C46 1.382 . S
C44 C42 1.388 1_455 S
C44 C45 1.383 . S
C44 H71 0.924 1_455 S
C45 C44 1.383 . S
C45 C47 1.381 . S
C45 C48 1.487 . S
C46 C43 1.382 . S
C46 C47 1.387 . S
C46 H72 0.930 . S
C47 C45 1.381 . S
C47 C46 1.387 . S
C47 H73 0.931 . S
C48 C45 1.487 . S
C48 C55 1.399 . S
C48 N86 1.343 . S
C49 C50 1.384 . S
C49 C51 1.384 . S
C49 H74 0.931 . S
C50 C49 1.384 . S
C50 C53 1.382 1_455 S
C51 C49 1.384 . S
C51 C52 1.381 . S
C51 H75 0.930 . S
C52 C51 1.381 . S
C52 C54 1.381 1_455 S
C52 C55 1.487 . S
C53 C50 1.382 1_655 S
C53 C54 1.387 . S
C53 H76 0.930 . S
C54 C52 1.381 1_655 S
C54 C53 1.387 . S
C54 H77 0.931 . S
C55 C48 1.399 . S
C55 C52 1.487 . S
C55 N87 1.343 . S
C56 C57 1.384 . S
C56 C58 1.384 . S
C56 H78 0.931 . S
C57 C56 1.384 . S
C57 C60 1.382 1_455 S
C58 C56 1.384 . S
C58 C59 1.381 . S
C58 H79 0.930 . S
C59 C58 1.381 . S
C59 C61 1.381 1_455 S
C59 C62 1.487 . S
C60 C57 1.382 1_655 S
C60 C61 1.387 . S
C60 H80 0.930 . S
C61 C59 1.381 1_655 S
C61 C60 1.387 . S
C61 H81 0.931 . S
C62 C59 1.487 . S
C62 C69 1.399 . S
C62 N87 1.343 . S
C63 C64 1.384 1_655 S
C63 C65 1.379 1_655 S
C63 H82 0.931 . S
C64 C63 1.384 1_455 S
C64 C67 1.382 . S
C65 C63 1.379 1_455 S
C65 C66 1.392 . S
C65 H83 0.924 1_455 S
C66 C65 1.392 . S
C66 C68 1.381 . S
C66 C69 1.487 . S
C67 C64 1.382 . S
C67 C68 1.387 . S
C67 H84 0.930 . S
C68 C66 1.381 . S
C68 C67 1.387 . S
C68 H85 0.931 . S
C69 C62 1.399 . S
C69 C66 1.487 . S
C69 N86 1.343 . S
H70 C42 0.931 . S
H71 C44 0.924 1_655 S
H72 C46 0.930 . S
H73 C47 0.931 . S
H74 C49 0.931 . S
H75 C51 0.930 . S
H76 C53 0.930 . S
H77 C54 0.931 . S
H78 C56 0.931 . S
H79 C58 0.930 . S
H80 C60 0.930 . S
H81 C61 0.931 . S
H82 C63 0.931 . S
H83 C65 0.924 1_655 S
H84 C67 0.930 . S
H85 C68 0.931 . S
N86 C48 1.343 . S
N86 C69 1.343 . S
N87 C55 1.343 . S
N87 C62 1.343 . S
C88 C89 1.384 . S
C88 C90 1.384 . S
C88 H116 0.931 . S
C89 C88 1.384 . S
C89 C92 1.382 . S
C90 C88 1.384 . S
C90 C91 1.381 . S
C90 H117 0.930 . S
C91 C90 1.381 . S
C91 C93 1.381 . S
C91 C94 1.487 . S
C92 C89 1.382 . S
C92 C93 1.387 . S
C92 H118 0.930 1_545 S
C93 C91 1.381 . S
C93 C92 1.387 . S
C93 H119 0.931 1_545 S
C94 C91 1.487 . S
C94 C101 1.399 . S
C94 N132 1.343 . S
C95 C96 1.384 . S
C95 C97 1.384 . S
C95 H120 0.931 1_545 S
C96 C95 1.384 . S
C96 C99 1.382 . S
C97 C95 1.384 . S
C97 C98 1.381 . S
C97 H121 0.930 1_545 S
C98 C97 1.381 . S
C98 C100 1.381 . S
C98 C101 1.487 . S
C99 C96 1.382 . S
C99 C100 1.387 . S
C99 H122 0.930 . S
C100 C98 1.381 . S
C100 C99 1.387 . S
C100 H123 0.931 . S
C101 C94 1.399 . S
C101 C98 1.487 . S
C101 N133 1.343 . S
C102 C103 1.384 . S
C102 C104 1.384 . S
C102 H124 0.931 1_545 S
C103 C102 1.384 . S
C103 C106 1.382 . S
C104 C102 1.384 . S
C104 C105 1.381 . S
C104 H125 0.930 1_545 S
C105 C104 1.381 . S
C105 C107 1.381 . S
C105 C108 1.487 . S
C106 C103 1.382 . S
C106 C107 1.387 . S
C106 H126 0.930 . S
C107 C105 1.381 . S
C107 C106 1.387 . S
C107 H127 0.931 . S
C108 C105 1.487 . S
C108 C115 1.399 . S
C108 N133 1.343 . S
C109 C110 1.384 . S
C109 C111 1.384 . S
C109 H128 0.931 . S
C110 C109 1.384 . S
C110 C113 1.382 . S
C111 C109 1.384 . S
C111 C112 1.381 . S
C111 H129 0.930 . S
C112 C111 1.381 . S
C112 C114 1.381 . S
C112 C115 1.487 . S
C113 C110 1.382 . S
C113 C114 1.387 . S
C113 H130 0.930 1_545 S
C114 C112 1.381 . S
C114 C113 1.387 . S
C114 H131 0.931 1_545 S
C115 C108 1.399 . S
C115 C112 1.487 . S
C115 N132 1.343 . S
H116 C88 0.931 . S
H117 C90 0.930 . S
H118 C92 0.930 1_565 S
H119 C93 0.931 1_565 S
H120 C95 0.931 1_565 S
H121 C97 0.930 1_565 S
H122 C99 0.930 . S
H123 C100 0.931 . S
H124 C102 0.931 1_565 S
H125 C104 0.930 1_565 S
H126 C106 0.930 . S
H127 C107 0.931 . S
H128 C109 0.931 . S
H129 C111 0.930 . S
H130 C113 0.930 1_565 S
H131 C114 0.931 1_565 S
N132 C94 1.343 . S
N132 C115 1.343 . S
N133 C101 1.343 . S
N133 C108 1.343 . S
C134 C135 1.384 . S
C134 C136 1.384 . S
C134 H162 0.931 . S
C135 C134 1.384 . S
C135 C138 1.382 . S
C136 C134 1.384 . S
C136 C137 1.381 . S
C136 H163 0.930 . S
C137 C136 1.381 . S
C137 C139 1.381 . S
C137 C140 1.487 . S
C138 C135 1.382 . S
C138 C139 1.387 . S
C138 H164 0.930 . S
C139 C137 1.381 . S
C139 C138 1.387 . S
C139 H165 0.931 . S
C140 C137 1.487 . S
C140 C147 1.399 . S
C140 N178 1.343 . S
C141 C142 1.384 . S
C141 C143 1.384 . S
C141 H166 0.931 . S
C142 C141 1.384 . S
C142 C145 1.382 . S
C143 C141 1.384 . S
C143 C144 1.381 . S
C143 H167 0.930 . S
C144 C143 1.381 . S
C144 C146 1.381 . S
C144 C147 1.487 . S
C145 C142 1.382 . S
C145 C146 1.387 . S
C145 H168 0.930 . S
C146 C144 1.381 . S
C146 C145 1.387 . S
C146 H169 0.931 . S
C147 C140 1.399 . S
C147 C144 1.487 . S
C147 N179 1.343 . S
C148 C149 1.384 . S
C148 C150 1.384 . S
C148 H170 0.931 . S
C149 C148 1.384 . S
C149 C152 1.382 . S
C150 C148 1.384 . S
C150 C151 1.381 . S
C150 H171 0.930 . S
C151 C150 1.381 . S
C151 C153 1.381 . S
C151 C154 1.487 . S
C152 C149 1.382 . S
C152 C153 1.387 . S
C152 H172 0.930 . S
C153 C151 1.381 . S
C153 C152 1.387 . S
C153 H173 0.931 . S
C154 C151 1.487 . S
C154 C161 1.399 . S
C154 N179 1.343 . S
C155 C156 1.384 . S
C155 C157 1.384 . S
C155 H174 0.931 . S
C156 C155 1.384 . S
C156 C159 1.382 . S
C157 C155 1.384 . S
C157 C158 1.381 . S
C157 H175 0.930 . S
C158 C157 1.381 . S
C158 C160 1.381 . S
C158 C161 1.487 . S
C159 C156 1.382 . S
C159 C160 1.387 . S
C159 H176 0.930 . S
C160 C158 1.381 . S
C160 C159 1.387 . S
C160 H177 0.931 . S
C161 C154 1.399 . S
C161 C158 1.487 . S
C161 N178 1.343 . S
H162 C134 0.931 . S
H163 C136 0.930 . S
H164 C138 0.930 . S
H165 C139 0.931 . S
H166 C141 0.931 . S
H167 C143 0.930 . S
H168 C145 0.930 . S
H169 C146 0.931 . S
H170 C148 0.931 . S
H171 C150 0.930 . S
H172 C152 0.930 . S
H173 C153 0.931 . S
H174 C155 0.931 . S
H175 C157 0.930 . S
H176 C159 0.930 . S
H177 C160 0.931 . S
N178 C140 1.343 . S
N178 C161 1.343 . S
N179 C147 1.343 . S
N179 C154 1.343 . S
C180 C181 1.387 . S
C180 H184 0.950 . S
C180 C189 1.390 . S
C181 C180 1.387 . S
C181 C183 1.387 . S
H182 C189 0.950 . S
C183 C181 1.387 . S
C183 C185 1.390 . S
C183 H187 0.950 1_455 S
H184 C180 0.950 . S
C185 C183 1.390 . S
C185 C186 1.387 . S
C185 H188 0.949 1_455 S
C186 C185 1.387 . S
C186 C189 1.387 . S
H187 C183 0.950 1_655 S
H188 C185 0.949 1_655 S
C189 C180 1.390 . S
C189 H182 0.950 . S
C189 C186 1.387 . S
C190 C191 1.387 . S
C190 H194 0.950 . S
C190 C199 1.390 . S
C191 C190 1.387 . S
C191 C193 1.387 1_545 S
H192 C199 0.950 . S
C193 C191 1.387 1_565 S
C193 C195 1.390 . S
C193 H197 0.950 . S
H194 C190 0.950 . S
C195 C193 1.390 . S
C195 C196 1.387 1_565 S
C195 H198 0.950 . S
C196 C195 1.387 1_545 S
C196 C199 1.387 . S
H197 C193 0.950 . S
H198 C195 0.950 . S
C199 C190 1.390 . S
C199 H192 0.950 . S
C199 C196 1.387 . S
C200 C201 1.387 . S
C200 H204 0.950 1_565 S
C200 C209 1.390 . S
C201 C200 1.387 . S
C201 C203 1.387 . S
H202 C209 0.950 . S
C203 C201 1.387 . S
C203 C205 1.390 . S
C203 H207 0.950 . S
H204 C200 0.950 1_545 S
C205 C203 1.390 . S
C205 C206 1.387 . S
C205 H208 0.950 . S
C206 C205 1.387 . S
C206 C209 1.387 . S
H207 C203 0.950 . S
H208 C205 0.950 . S
C209 C200 1.390 . S
C209 H202 0.950 . S
C209 C206 1.387 . S
C210 C211 1.387 . S
C210 H214 0.950 . S
C210 C219 1.390 . S
C211 C210 1.387 . S
C211 C213 1.387 1_455 S
H212 C219 0.950 . S
C213 C211 1.387 1_655 S
C213 C215 1.390 . S
C213 H217 0.950 . S
H214 C210 0.950 . S
C215 C213 1.390 . S
C215 C216 1.387 1_655 S
C215 H218 0.950 . S
C216 C215 1.387 1_455 S
C216 C219 1.387 . S
H217 C213 0.950 . S
H218 C215 0.950 . S
C219 C210 1.390 . S
C219 H212 0.950 . S
C219 C216 1.387 . S
C220 C221 1.387 . S
C220 H224 0.950 1_545 S
C220 C229 1.390 . S
C221 C220 1.387 . S
C221 C223 1.387 . S
H222 C229 0.950 1_565 S
C223 C221 1.387 . S
C223 C225 1.390 . S
C223 H227 0.950 . S
H224 C220 0.950 1_565 S
C225 C223 1.390 . S
C225 C226 1.387 . S
C225 H228 0.950 . S
C226 C225 1.387 . S
C226 C229 1.387 . S
H227 C223 0.950 . S
H228 C225 0.950 . S
C229 C220 1.390 . S
C229 H222 0.950 1_545 S
C229 C226 1.387 . S
C230 C231 1.387 . S
C230 H234 0.950 . S
C230 C239 1.390 . S
C231 C230 1.387 . S
C231 C233 1.387 . S
H232 C239 0.950 . S
C233 C231 1.387 . S
C233 C235 1.390 . S
C233 H237 0.950 . S
H234 C230 0.950 . S
C235 C233 1.390 . S
C235 C236 1.387 . S
C235 H238 0.950 . S
C236 C235 1.387 . S
C236 C239 1.387 . S
H237 C233 0.950 . S
H238 C235 0.950 . S
C239 C230 1.390 . S
C239 H232 0.950 . S
C239 C236 1.387 . S
C240 C241 1.387 . S
C240 H244 0.950 . S
C240 C249 1.390 . S
C241 C240 1.387 . S
C241 C243 1.387 . S
H242 C249 0.950 . S
C243 C241 1.387 . S
C243 C245 1.390 . S
C243 H247 0.950 1_545 S
H244 C240 0.950 . S
C245 C243 1.390 . S
C245 C246 1.387 . S
C245 H248 0.950 1_545 S
C246 C245 1.387 . S
C246 C249 1.387 . S
H247 C243 0.950 1_565 S
H248 C245 0.950 1_565 S
C249 C240 1.390 . S
C249 H242 0.950 . S
C249 C246 1.387 . S
C250 C251 1.387 1_554 S
C250 H254 0.950 . S
C250 C259 1.390 1_554 S
C251 C250 1.387 1_556 S
C251 C253 1.387 . S
H252 C259 0.950 . S
C253 C251 1.387 . S
C253 C255 1.390 . S
C253 H257 0.950 1_565 S
H254 C250 0.950 . S
C255 C253 1.390 . S
C255 C256 1.387 . S
C255 H258 0.950 . S
C256 C255 1.387 . S
C256 C259 1.387 . S
H257 C253 0.950 1_545 S
H258 C255 0.950 . S
C259 C250 1.390 1_556 S
C259 H252 0.950 . S
C259 C256 1.387 . S
C260 C261 1.387 . S
C260 H264 0.950 . S
C260 C269 1.390 . S
C261 C260 1.387 . S
C261 C263 1.387 . S
H262 C269 0.950 . S
C263 C261 1.387 . S
C263 C265 1.390 . S
C263 H267 0.950 . S
H264 C260 0.950 . S
C265 C263 1.390 . S
C265 C266 1.387 . S
C265 H268 0.950 . S
C266 C265 1.387 . S
C266 C269 1.387 . S
H267 C263 0.950 . S
H268 C265 0.950 . S
C269 C260 1.390 . S
C269 H262 0.950 . S
C269 C266 1.387 . S
C270 C271 1.387 . S
C270 H274 0.950 . S
C270 C279 1.390 . S
C271 C270 1.387 . S
C271 C273 1.378 1_545 S
H272 C279 0.950 . S
C273 C271 1.378 1_565 S
C273 C275 1.394 1_565 S
C273 H277 0.956 . S
H274 C270 0.950 . S
C275 C273 1.394 1_545 S
C275 C276 1.387 . S
C275 H278 0.950 1_545 S
C276 C275 1.387 . S
C276 C279 1.387 . S
H277 C273 0.956 . S
H278 C275 0.950 1_565 S
C279 C270 1.390 . S
C279 H272 0.950 . S
C279 C276 1.387 . S
C280 C281 1.387 . S
C280 H284 0.950 1_556 S
C280 C289 1.390 . S
C281 C280 1.387 . S
C281 C283 1.387 . S
H282 C289 0.950 . S
C283 C281 1.387 . S
C283 C285 1.390 . S
C283 H287 0.950 . S
H284 C280 0.950 1_554 S
C285 C283 1.390 . S
C285 C286 1.387 . S
C285 H288 0.950 . S
C286 C285 1.387 . S
C286 C289 1.387 . S
H287 C283 0.950 . S
H288 C285 0.950 . S
C289 C280 1.390 . S
C289 H282 0.950 . S
C289 C286 1.387 . S
C290 C291 1.387 1_655 S
C290 H294 0.950 . S
C290 C299 1.390 . S
C291 C290 1.387 1_455 S
C291 C293 1.387 . S
H292 C299 0.950 . S
C293 C291 1.387 . S
C293 C295 1.390 . S
C293 H297 0.950 . S
H294 C290 0.950 . S
C295 C293 1.390 . S
C295 C296 1.387 . S
C295 H298 0.950 . S
C296 C295 1.387 . S
C296 C299 1.387 1_455 S
H297 C293 0.950 . S
H298 C295 0.950 . S
C299 C290 1.390 . S
C299 H292 0.950 . S
C299 C296 1.387 1_655 S
C186 C50 1.464 . S
C181 C0 1.463 . S
C191 C25 1.494 . S
C196 C89 1.493 . S
C201 C33 1.516 . S
C206 C156 1.521 . S
C211 C11 1.452 . S
C216 C57 1.452 . S
C226 C110 1.491 . S
C221 C14 1.485 . S
C231 C37 1.511 . S
C236 C135 1.516 . S
C246 C96 1.487 . S
C241 C28 1.482 . S
C251 C9 1.511 1_556 S
C256 C149 1.513 . S
C266 C64 1.539 . S
C261 C19 1.535 . S
C276 C103 1.493 . S
C271 C39 1.492 . S
C286 C142 1.513 . S
C281 C5 1.514 1_556 S
C291 C23 1.543 . S
C296 C43 1.551 . S
