# Generated by pormake.
# Topology ptr, (4,4)-cn, num edge types: 1
# Building blocks:
#     Node 0, Type 0, BuildingBlock: UXUYUI_clean_sbu_0, # of connection points: 4
#     Node 1, Type 0, BuildingBlock: UXUYUI_clean_sbu_0, # of connection points: 4
#     Node 2, Type 0, BuildingBlock: UXUYUI_clean_sbu_0, # of connection points: 4
#     Node 3, Type 0, BuildingBlock: UXUYUI_clean_sbu_0, # of connection points: 4
#     Node 4, Type 0, BuildingBlock: UXUYUI_clean_sbu_0, # of connection points: 4
#     Node 5, Type 0, BuildingBlock: UXUYUI_clean_sbu_0, # of connection points: 4
#     Node 6, Type 0, BuildingBlock: UXUYUI_clean_sbu_0, # of connection points: 4
#     Node 7, Type 0, BuildingBlock: UXUYUI_clean_sbu_0, # of connection points: 4
#     Node 8, Type 0, BuildingBlock: UXUYUI_clean_sbu_0, # of connection points: 4
#     Node 9, Type 0, BuildingBlock: UXUYUI_clean_sbu_0, # of connection points: 4
#     Node 10, Type 0, BuildingBlock: UXUYUI_clean_sbu_0, # of connection points: 4
#     Node 11, Type 0, BuildingBlock: UXUYUI_clean_sbu_0, # of connection points: 4
#     Node 12, Type 0, BuildingBlock: UXUYUI_clean_sbu_0, # of connection points: 4
#     Node 13, Type 0, BuildingBlock: UXUYUI_clean_sbu_0, # of connection points: 4
#     Node 14, Type 0, BuildingBlock: UXUYUI_clean_sbu_0, # of connection points: 4
#     Node 15, Type 0, BuildingBlock: UXUYUI_clean_sbu_0, # of connection points: 4
#     Node 16, Type 0, BuildingBlock: UXUYUI_clean_sbu_0, # of connection points: 4
#     Node 17, Type 0, BuildingBlock: UXUYUI_clean_sbu_0, # of connection points: 4
#     Node 18, Type 1, BuildingBlock: NAHDIM_clean_linker_0, # of connection points: 4
#     Node 19, Type 1, BuildingBlock: NAHDIM_clean_linker_0, # of connection points: 4
#     Node 20, Type 1, BuildingBlock: NAHDIM_clean_linker_0, # of connection points: 4
#     Node 21, Type 1, BuildingBlock: NAHDIM_clean_linker_0, # of connection points: 4
#     Node 22, Type 1, BuildingBlock: NAHDIM_clean_linker_0, # of connection points: 4
#     Node 23, Type 1, BuildingBlock: NAHDIM_clean_linker_0, # of connection points: 4
#     Node 24, Type 1, BuildingBlock: NAHDIM_clean_linker_0, # of connection points: 4
#     Node 25, Type 1, BuildingBlock: NAHDIM_clean_linker_0, # of connection points: 4
#     Node 26, Type 1, BuildingBlock: NAHDIM_clean_linker_0, # of connection points: 4
#     Node 27, Type 1, BuildingBlock: NAHDIM_clean_linker_0, # of connection points: 4
#     Node 28, Type 1, BuildingBlock: NAHDIM_clean_linker_0, # of connection points: 4
#     Node 29, Type 1, BuildingBlock: NAHDIM_clean_linker_0, # of connection points: 4
#     Node 30, Type 1, BuildingBlock: NAHDIM_clean_linker_0, # of connection points: 4
#     Node 31, Type 1, BuildingBlock: NAHDIM_clean_linker_0, # of connection points: 4
#     Node 32, Type 1, BuildingBlock: NAHDIM_clean_linker_0, # of connection points: 4
#     Node 33, Type 1, BuildingBlock: NAHDIM_clean_linker_0, # of connection points: 4
#     Node 34, Type 1, BuildingBlock: NAHDIM_clean_linker_0, # of connection points: 4
#     Node 35, Type 1, BuildingBlock: NAHDIM_clean_linker_0, # of connection points: 4
#     Edge 36, Type (0, 1), BuildingBlock: TEMPAE_clean_linker_10, # of connection points: 2
#     Edge 37, Type (0, 1), BuildingBlock: TEMPAE_clean_linker_10, # of connection points: 2
#     Edge 38, Type (0, 1), BuildingBlock: TEMPAE_clean_linker_10, # of connection points: 2
#     Edge 39, Type (0, 1), BuildingBlock: TEMPAE_clean_linker_10, # of connection points: 2
#     Edge 40, Type (0, 1), BuildingBlock: TEMPAE_clean_linker_10, # of connection points: 2
#     Edge 41, Type (0, 1), BuildingBlock: TEMPAE_clean_linker_10, # of connection points: 2
#     Edge 42, Type (0, 1), BuildingBlock: TEMPAE_clean_linker_10, # of connection points: 2
#     Edge 43, Type (0, 1), BuildingBlock: TEMPAE_clean_linker_10, # of connection points: 2
#     Edge 44, Type (0, 1), BuildingBlock: TEMPAE_clean_linker_10, # of connection points: 2
#     Edge 45, Type (0, 1), BuildingBlock: TEMPAE_clean_linker_10, # of connection points: 2
#     Edge 46, Type (0, 1), BuildingBlock: TEMPAE_clean_linker_10, # of connection points: 2
#     Edge 47, Type (0, 1), BuildingBlock: TEMPAE_clean_linker_10, # of connection points: 2
#     Edge 48, Type (0, 1), BuildingBlock: TEMPAE_clean_linker_10, # of connection points: 2
#     Edge 49, Type (0, 1), BuildingBlock: TEMPAE_clean_linker_10, # of connection points: 2
#     Edge 50, Type (0, 1), BuildingBlock: TEMPAE_clean_linker_10, # of connection points: 2
#     Edge 51, Type (0, 1), BuildingBlock: TEMPAE_clean_linker_10, # of connection points: 2
#     Edge 52, Type (0, 1), BuildingBlock: TEMPAE_clean_linker_10, # of connection points: 2
#     Edge 53, Type (0, 1), BuildingBlock: TEMPAE_clean_linker_10, # of connection points: 2
#     Edge 54, Type (0, 1), BuildingBlock: TEMPAE_clean_linker_10, # of connection points: 2
#     Edge 55, Type (0, 1), BuildingBlock: TEMPAE_clean_linker_10, # of connection points: 2
#     Edge 56, Type (0, 1), BuildingBlock: TEMPAE_clean_linker_10, # of connection points: 2
#     Edge 57, Type (0, 1), BuildingBlock: TEMPAE_clean_linker_10, # of connection points: 2
#     Edge 58, Type (0, 1), BuildingBlock: TEMPAE_clean_linker_10, # of connection points: 2
#     Edge 59, Type (0, 1), BuildingBlock: TEMPAE_clean_linker_10, # of connection points: 2
#     Edge 60, Type (0, 1), BuildingBlock: TEMPAE_clean_linker_10, # of connection points: 2
#     Edge 61, Type (0, 1), BuildingBlock: TEMPAE_clean_linker_10, # of connection points: 2
#     Edge 62, Type (0, 1), BuildingBlock: TEMPAE_clean_linker_10, # of connection points: 2
#     Edge 63, Type (0, 1), BuildingBlock: TEMPAE_clean_linker_10, # of connection points: 2
#     Edge 64, Type (0, 1), BuildingBlock: TEMPAE_clean_linker_10, # of connection points: 2
#     Edge 65, Type (0, 1), BuildingBlock: TEMPAE_clean_linker_10, # of connection points: 2
#     Edge 66, Type (0, 1), BuildingBlock: TEMPAE_clean_linker_10, # of connection points: 2
#     Edge 67, Type (0, 1), BuildingBlock: TEMPAE_clean_linker_10, # of connection points: 2
#     Edge 68, Type (0, 1), BuildingBlock: TEMPAE_clean_linker_10, # of connection points: 2
#     Edge 69, Type (0, 1), BuildingBlock: TEMPAE_clean_linker_10, # of connection points: 2
#     Edge 70, Type (0, 1), BuildingBlock: TEMPAE_clean_linker_10, # of connection points: 2
#     Edge 71, Type (0, 1), BuildingBlock: TEMPAE_clean_linker_10, # of connection points: 2
#     Edge 72, Type (0, 1), BuildingBlock: TEMPAE_clean_linker_10, # of connection points: 2
#     Edge 73, Type (0, 1), BuildingBlock: TEMPAE_clean_linker_10, # of connection points: 2
#     Edge 74, Type (0, 1), BuildingBlock: TEMPAE_clean_linker_10, # of connection points: 2
#     Edge 75, Type (0, 1), BuildingBlock: TEMPAE_clean_linker_10, # of connection points: 2
#     Edge 76, Type (0, 1), BuildingBlock: TEMPAE_clean_linker_10, # of connection points: 2
#     Edge 77, Type (0, 1), BuildingBlock: TEMPAE_clean_linker_10, # of connection points: 2
#     Edge 78, Type (0, 1), BuildingBlock: TEMPAE_clean_linker_10, # of connection points: 2
#     Edge 79, Type (0, 1), BuildingBlock: TEMPAE_clean_linker_10, # of connection points: 2
#     Edge 80, Type (0, 1), BuildingBlock: TEMPAE_clean_linker_10, # of connection points: 2
#     Edge 81, Type (0, 1), BuildingBlock: TEMPAE_clean_linker_10, # of connection points: 2
#     Edge 82, Type (0, 1), BuildingBlock: TEMPAE_clean_linker_10, # of connection points: 2
#     Edge 83, Type (0, 1), BuildingBlock: TEMPAE_clean_linker_10, # of connection points: 2
#     Edge 84, Type (0, 1), BuildingBlock: TEMPAE_clean_linker_10, # of connection points: 2
#     Edge 85, Type (0, 1), BuildingBlock: TEMPAE_clean_linker_10, # of connection points: 2
#     Edge 86, Type (0, 1), BuildingBlock: TEMPAE_clean_linker_10, # of connection points: 2
#     Edge 87, Type (0, 1), BuildingBlock: TEMPAE_clean_linker_10, # of connection points: 2
#     Edge 88, Type (0, 1), BuildingBlock: TEMPAE_clean_linker_10, # of connection points: 2
#     Edge 89, Type (0, 1), BuildingBlock: TEMPAE_clean_linker_10, # of connection points: 2
#     Edge 90, Type (0, 1), BuildingBlock: TEMPAE_clean_linker_10, # of connection points: 2
#     Edge 91, Type (0, 1), BuildingBlock: TEMPAE_clean_linker_10, # of connection points: 2
#     Edge 92, Type (0, 1), BuildingBlock: TEMPAE_clean_linker_10, # of connection points: 2
#     Edge 93, Type (0, 1), BuildingBlock: TEMPAE_clean_linker_10, # of connection points: 2
#     Edge 94, Type (0, 1), BuildingBlock: TEMPAE_clean_linker_10, # of connection points: 2
#     Edge 95, Type (0, 1), BuildingBlock: TEMPAE_clean_linker_10, # of connection points: 2
#     Edge 96, Type (0, 1), BuildingBlock: TEMPAE_clean_linker_10, # of connection points: 2
#     Edge 97, Type (0, 1), BuildingBlock: TEMPAE_clean_linker_10, # of connection points: 2
#     Edge 98, Type (0, 1), BuildingBlock: TEMPAE_clean_linker_10, # of connection points: 2
#     Edge 99, Type (0, 1), BuildingBlock: TEMPAE_clean_linker_10, # of connection points: 2
#     Edge 100, Type (0, 1), BuildingBlock: TEMPAE_clean_linker_10, # of connection points: 2
#     Edge 101, Type (0, 1), BuildingBlock: TEMPAE_clean_linker_10, # of connection points: 2
#     Edge 102, Type (0, 1), BuildingBlock: TEMPAE_clean_linker_10, # of connection points: 2
#     Edge 103, Type (0, 1), BuildingBlock: TEMPAE_clean_linker_10, # of connection points: 2
#     Edge 104, Type (0, 1), BuildingBlock: TEMPAE_clean_linker_10, # of connection points: 2
#     Edge 105, Type (0, 1), BuildingBlock: TEMPAE_clean_linker_10, # of connection points: 2
#     Edge 106, Type (0, 1), BuildingBlock: TEMPAE_clean_linker_10, # of connection points: 2
#     Edge 107, Type (0, 1), BuildingBlock: TEMPAE_clean_linker_10, # of connection points: 2
# Relax obj value: 0.120
# Max RMSD: 0.338
# Mean RMSD: 0.137
data_MOF--net-ptr--node1-UXUYUI_clean_sbu_0--node2-NAHDIM_clean_linker_0--edge1-TEMPAE_clean_linker_10
_symmetry_space_group_name_H-M    P1
_symmetry_Int_Tables_number       1
_symmetry_cell_setting            triclinic
loop_
_symmetry_equiv_pos_as_xyz
'x, y, z'
_cell_length_a     111.67553
_cell_length_b     111.44722
_cell_length_c     91.587498
_cell_angle_alpha  90.830676
_cell_angle_beta   90.24501
_cell_angle_gamma 120.43967
loop_
_atom_site_label
_atom_site_type_symbol
_atom_site_fract_x
_atom_site_fract_y
_atom_site_fract_z
_atom_type_partial_charge
Li0 Li 0.99199 0.32753 0.00587 0.0
Li1 Li 0.01621 0.33861 0.01375 0.0
Li2 Li 0.00076 0.34616 0.0239 0.0
Li3 Li 0.00873 0.35123 0.99869 0.0
C4 C 0.99562 0.32435 0.03967 0.0
N5 N 0.98852 0.31853 0.06864 0.0
C6 C 0.00531 0.32494 0.04981 0.0
C7 C 0.98231 0.32076 0.04426 0.0
C8 C 0.00151 0.32196 0.0644 0.0
C9 C 0.97893 0.31788 0.05895 0.0
C10 C 0.01591 0.32838 0.98787 0.0
C11 C 0.03669 0.33091 0.97704 0.0
N12 N 0.03124 0.31691 0.97771 0.0
C13 C 0.01048 0.31401 0.98839 0.0
C14 C 0.02909 0.33691 0.9821 0.0
C15 C 0.01841 0.30841 0.98321 0.0
C16 C 0.9755 0.30888 0.98388 0.0
N17 N 0.97689 0.31047 0.99863 0.0
C18 C 0.95875 0.28696 0.00179 0.0
C19 C 0.96871 0.29991 0.00764 0.0
C20 C 0.95732 0.28488 0.98655 0.0
C21 C 0.96573 0.29613 0.97757 0.0
H22 H 0.98236 0.3174 0.977 0.0
H23 H 0.97017 0.30139 0.01933 0.0
C24 C 0.04403 0.34499 0.01987 0.0
N25 N 0.03048 0.33478 0.01854 0.0
C26 C 0.054 0.34181 0.02463 0.0
C27 C 0.03587 0.31769 0.02633 0.0
C28 C 0.02631 0.32131 0.02148 0.0
C29 C 0.04989 0.32803 0.02818 0.0
H30 H 0.04703 0.35563 0.01761 0.0
H31 H 0.01544 0.31344 0.02041 0.0
C32 C 0.97693 0.33869 9e-05 0.0
N33 N 0.95085 0.3266 0.98726 0.0
C34 C 0.97553 0.3395 0.98502 0.0
C35 C 0.96507 0.33184 0.00866 0.0
C36 C 0.96225 0.33329 0.97874 0.0
C37 C 0.95198 0.32576 0.00196 0.0
C38 C 0.02911 0.37143 0.01462 0.0
C39 C 0.02761 0.38164 0.02202 0.0
C40 C 0.03971 0.37537 0.00447 0.0
C41 C 0.03667 0.39565 0.01901 0.0
C42 C 0.04855 0.38949 0.00175 0.0
N43 N 0.04686 0.39925 0.00901 0.0
C44 C 0.00493 0.35647 0.0529 0.0
C45 C 0.98869 0.35947 0.03907 0.0
C46 C 0.00412 0.36426 0.0645 0.0
N47 N 0.99731 0.35427 0.04051 0.0
C48 C 0.98776 0.36757 0.0503 0.0
C49 C 0.99575 0.37029 0.06315 0.0
H50 H 0.01208 0.35265 0.05356 0.0
H51 H 0.98306 0.3579 0.02892 0.0
C52 C 0.01496 0.36149 0.96984 0.0
N53 N 0.01273 0.36427 0.98373 0.0
C54 C 0.0161 0.37031 0.95856 0.0
C55 C 0.01304 0.38484 0.97622 0.0
C56 C 0.0117 0.37562 0.98707 0.0
C57 C 0.01501 0.38213 0.96165 0.0
H58 H 0.01532 0.35215 0.96743 0.0
H59 H 0.00948 0.37732 0.99813 0.0
O60 O 0.99915 0.32731 0.02534 0.0
O61 O 0.00846 0.3341 0.9932 0.0
O62 O 0.98983 0.34439 0.00641 0.0
O63 O 0.02025 0.35765 0.0173 0.0
H64 H 0.01569 0.32782 0.0465 0.0
H65 H 0.97472 0.32033 0.03658 0.0
H66 H 0.00892 0.32242 0.07237 0.0
H67 H 0.96868 0.31514 0.06267 0.0
H68 H 0.04693 0.33739 0.97261 0.0
H69 H 0.00035 0.30727 0.99294 0.0
H70 H 0.03343 0.34805 0.9816 0.0
H71 H 0.01438 0.29732 0.98363 0.0
H72 H 0.9524 0.27861 0.00912 0.0
H73 H 0.96517 0.29495 0.96579 0.0
H74 H 0.06469 0.35009 0.02602 0.0
H75 H 0.03232 0.30692 0.02878 0.0
H76 H 0.98459 0.3447 0.97823 0.0
H77 H 0.96599 0.33118 0.02034 0.0
H78 H 0.96101 0.33376 0.96708 0.0
H79 H 0.94271 0.32037 0.00844 0.0
H80 H 0.01948 0.3788 0.02993 0.0
H81 H 0.041 0.36761 0.99864 0.0
H82 H 0.03559 0.40366 0.0246 0.0
H83 H 0.05674 0.39268 0.99385 0.0
H84 H 0.01031 0.36586 0.07425 0.0
H85 H 0.98137 0.37218 0.04858 0.0
H86 H 0.01733 0.3676 0.94749 0.0
H87 H 0.01236 0.3939 0.97923 0.0
Li88 Li 0.66793 0.65698 0.00702 0.0
Li89 Li 0.65743 0.66572 0.02272 0.0
Li90 Li 0.65049 0.64137 0.02398 0.0
Li91 Li 0.64288 0.6504 0.00284 0.0
C92 C 0.68216 0.66057 0.03043 0.0
N93 N 0.70928 0.66644 0.03287 0.0
C94 C 0.69316 0.67415 0.0286 0.0
C95 C 0.68495 0.64999 0.03363 0.0
C96 C 0.7068 0.6769 0.02983 0.0
C97 C 0.69873 0.65317 0.0348 0.0
C98 C 0.66149 0.68174 0.99995 0.0
C99 C 0.65213 0.69619 0.99298 0.0
N100 N 0.66422 0.70769 0.9973 0.0
C101 C 0.67385 0.69372 0.00425 0.0
C102 C 0.65054 0.68298 0.99423 0.0
C103 C 0.67502 0.70673 0.00285 0.0
C104 C 0.68941 0.65223 0.9966 0.0
N105 N 0.68452 0.6612 0.99681 0.0
C106 C 0.7039 0.67767 0.98303 0.0
C107 C 0.69141 0.67365 0.99006 0.0
C108 C 0.70934 0.66874 0.9828 0.0
C109 C 0.70188 0.65582 0.98965 0.0
H110 H 0.68376 0.64238 0.00197 0.0
H111 H 0.68728 0.68055 0.99027 0.0
C112 C 0.67003 0.68439 0.04627 0.0
N113 N 0.6608 0.68128 0.0351 0.0
C114 C 0.67361 0.69576 0.05555 0.0
C115 C 0.65775 0.70033 0.04208 0.0
C116 C 0.65445 0.68882 0.03304 0.0
C117 C 0.66756 0.704 0.05345 0.0
H118 H 0.67472 0.6781 0.04794 0.0
H119 H 0.64692 0.68601 0.02431 0.0
C120 C 0.64739 0.62476 0.00013 0.0
N121 N 0.63867 0.59692 0.99569 0.0
C122 C 0.63553 0.61628 0.99162 0.0
C123 C 0.65482 0.61908 0.00635 0.0
C124 C 0.6313 0.60224 0.9895 0.0
C125 C 0.65024 0.60498 0.004 0.0
C126 C 0.63207 0.65362 0.03359 0.0
C127 C 0.63451 0.65311 0.04848 0.0
C128 C 0.62369 0.65888 0.02905 0.0
C129 C 0.62858 0.65798 0.05862 0.0
C130 C 0.61793 0.66364 0.03953 0.0
N131 N 0.62048 0.6631 0.05397 0.0
C132 C 0.64976 0.62775 0.04999 0.0
C133 C 0.6323 0.61362 0.03259 0.0
C134 C 0.64431 0.61694 0.05998 0.0
N135 N 0.64374 0.62589 0.03659 0.0
C136 C 0.62669 0.60245 0.04209 0.0
C137 C 0.63259 0.60404 0.05611 0.0
H138 H 0.65855 0.63777 0.05308 0.0
H139 H 0.62739 0.61255 0.02209 0.0
C140 C 0.63148 0.64745 0.97458 0.0
N141 N 0.6284 0.64497 0.98895 0.0
C142 C 0.62084 0.64239 0.96407 0.0
C143 C 0.6041 0.63248 0.98342 0.0
C144 C 0.61505 0.63769 0.99353 0.0
C145 C 0.60691 0.63466 0.96844 0.0
H146 H 0.64223 0.6531 0.97127 0.0
H147 H 0.61294 0.63568 0.00502 0.0
O148 O 0.66873 0.65762 0.0289 0.0
O149 O 0.66012 0.66888 0.00119 0.0
O150 O 0.65161 0.63851 0.00239 0.0
O151 O 0.638 0.64915 0.0235 0.0
H152 H 0.69119 0.68245 0.02608 0.0
H153 H 0.67658 0.63941 0.03505 0.0
H154 H 0.71541 0.68734 0.02832 0.0
H155 H 0.70105 0.64507 0.03718 0.0
H156 H 0.64373 0.69729 0.98862 0.0
H157 H 0.6824 0.69297 0.0088 0.0
H158 H 0.64088 0.67384 0.99089 0.0
H159 H 0.68449 0.71607 0.00624 0.0
H160 H 0.70937 0.6878 0.97806 0.0
H161 H 0.70559 0.64854 0.98961 0.0
H162 H 0.68131 0.69825 0.06408 0.0
H163 H 0.65267 0.70627 0.04021 0.0
H164 H 0.62965 0.62049 0.98671 0.0
H165 H 0.66384 0.6254 0.01319 0.0
H166 H 0.62214 0.59556 0.98296 0.0
H167 H 0.65584 0.60043 0.00884 0.0
H168 H 0.64104 0.64913 0.05215 0.0
H169 H 0.62182 0.65948 0.01755 0.0
H170 H 0.63044 0.65773 0.07018 0.0
H171 H 0.61148 0.66781 0.03618 0.0
H172 H 0.64904 0.61884 0.07074 0.0
H173 H 0.61777 0.59271 0.03848 0.0
H174 H 0.6235 0.64414 0.95264 0.0
H175 H 0.59353 0.62673 0.9873 0.0
Li176 Li 0.34717 0.99601 0.99555 0.0
Li177 Li 0.35282 0.00608 0.01976 0.0
Li178 Li 0.32871 0.98785 0.01311 0.0
Li179 Li 0.33935 0.0117 0.00304 0.0
C180 C 0.34512 0.97401 0.01411 0.0
N181 N 0.3444 0.94887 0.01401 0.0
C182 C 0.35611 0.97311 0.02026 0.0
C183 C 0.33369 0.9621 0.00809 0.0
C184 C 0.35558 0.96031 0.02004 0.0
C185 C 0.33354 0.94949 0.00811 0.0
C186 C 0.3725 0.02061 0.99855 0.0
C187 C 0.39487 0.03759 0.98928 0.0
N188 N 0.40007 0.0294 0.99328 0.0
C189 C 0.37807 0.01236 0.00257 0.0
C190 C 0.38096 0.03333 0.99184 0.0
C191 C 0.39202 0.01698 0.99982 0.0
C192 C 0.35698 0.99964 0.96713 0.0
N193 N 0.3551 0.99182 0.97909 0.0
C194 C 0.36833 0.98262 0.96834 0.0
C195 C 0.36044 0.98325 0.9798 0.0
C196 C 0.37068 0.99079 0.95593 0.0
C197 C 0.36451 0.99908 0.95529 0.0
H198 H 0.35313 0.00678 0.96702 0.0
H199 H 0.35926 0.97745 0.98951 0.0
C200 C 0.36262 0.00263 0.04627 0.0
N201 N 0.36577 0.01207 0.03558 0.0
C202 C 0.37195 0.00543 0.05778 0.0
C203 C 0.38751 0.02775 0.04721 0.0
C204 C 0.37779 0.02458 0.03597 0.0
C205 C 0.38468 0.01804 0.05821 0.0
H206 H 0.35297 0.99277 0.04564 0.0
H207 H 0.37998 0.03197 0.02742 0.0
C208 C 0.32491 0.98966 0.97847 0.0
N209 N 0.31854 0.98212 0.94934 0.0
C210 C 0.32526 0.9992 0.96848 0.0
C211 C 0.32112 0.97622 0.97366 0.0
C212 C 0.32205 0.9952 0.9538 0.0
C213 C 0.318 0.97263 0.95889 0.0
C214 C 0.33794 0.01702 0.03273 0.0
C215 C 0.32938 0.01511 0.04461 0.0
C216 C 0.34921 0.03026 0.03001 0.0
C217 C 0.33225 0.02652 0.0536 0.0
C218 C 0.35173 0.0414 0.03926 0.0
N219 N 0.34327 0.03931 0.05077 0.0
C220 C 0.31227 0.9673 0.03334 0.0
C221 C 0.29985 0.97057 0.01424 0.0
C222 C 0.29987 0.95813 0.04022 0.0
N223 N 0.31199 0.97341 0.02071 0.0
C224 C 0.28722 0.96151 0.02077 0.0
C225 C 0.28713 0.95537 0.03411 0.0
H226 H 0.32213 0.96992 0.03829 0.0
H227 H 0.30001 0.9758 0.00432 0.0
C228 C 0.34337 0.03579 0.98845 0.0
N229 N 0.33481 0.02513 0.99717 0.0
C230 C 0.33913 0.04472 0.983 0.0
C231 C 0.31755 0.03171 0.99596 0.0
C232 C 0.32219 0.02303 0.00111 0.0
C233 C 0.32598 0.04262 0.98661 0.0
H234 H 0.35329 0.0371 0.98539 0.0
H235 H 0.31557 0.01434 0.00794 0.0
O236 O 0.3455 0.98647 0.01428 0.0
O237 O 0.3588 0.01622 0.00087 0.0
O238 O 0.32809 0.99342 0.99289 0.0
O239 O 0.33525 0.00594 0.02386 0.0
H240 H 0.365 0.98222 0.02506 0.0
H241 H 0.32498 0.96255 0.00359 0.0
H242 H 0.36405 0.95947 0.02468 0.0
H243 H 0.32477 0.94019 0.00346 0.0
H244 H 0.40153 0.04741 0.98408 0.0
H245 H 0.37171 0.00249 0.00774 0.0
H246 H 0.37682 0.03983 0.98861 0.0
H247 H 0.39645 0.01069 0.00287 0.0
H248 H 0.37307 0.97628 0.96955 0.0
H249 H 0.36578 0.00541 0.94592 0.0
H250 H 0.36943 0.99763 0.06598 0.0
H251 H 0.39716 0.03765 0.04727 0.0
H252 H 0.32805 0.00961 0.97198 0.0
H253 H 0.32066 0.96865 0.98121 0.0
H254 H 0.32236 0.00251 0.94595 0.0
H255 H 0.31515 0.96229 0.95501 0.0
H256 H 0.32062 0.00491 0.04684 0.0
H257 H 0.35594 0.03194 0.02087 0.0
H258 H 0.32571 0.0252 0.06284 0.0
H259 H 0.36041 0.0517 0.03729 0.0
H260 H 0.30028 0.95351 0.0504 0.0
H261 H 0.27769 0.95987 0.01577 0.0
H262 H 0.34599 0.05307 0.97592 0.0
H263 H 0.30727 0.02958 0.99885 0.0
Li264 Li 0.01059 0.66722 0.01698 0.0
Li265 Li 0.99355 0.64366 0.02351 0.0
Li266 Li 0.0032 0.64876 0.99888 0.0
Li267 Li 0.9869 0.65614 0.00617 0.0
C268 C 0.02603 0.65516 0.02296 0.0
N269 N 0.05246 0.66427 0.03381 0.0
C270 C 0.02787 0.65147 0.03697 0.0
C271 C 0.03762 0.6633 0.0144 0.0
C272 C 0.04132 0.65623 0.04228 0.0
C273 C 0.05089 0.66785 0.02009 0.0
C274 C 0.99401 0.66546 0.04111 0.0
C275 C 0.98742 0.67557 0.06068 0.0
N276 N 0.997 0.67519 0.06959 0.0
C277 C 0.00372 0.66511 0.05047 0.0
C278 C 0.98574 0.67069 0.04625 0.0
C279 C 0.00511 0.6701 0.06481 0.0
C280 C 0.02227 0.69532 0.0179 0.0
N281 N 0.02422 0.68531 0.0238 0.0
C282 C 0.04104 0.70186 0.04074 0.0
C283 C 0.03356 0.68833 0.03485 0.0
C284 C 0.0387 0.71223 0.03528 0.0
C285 C 0.02947 0.70891 0.02344 0.0
H286 H 0.01458 0.69259 0.00933 0.0
H287 H 0.03467 0.68016 0.03967 0.0
C288 C 0.99098 0.62023 0.03678 0.0
N289 N 0.98741 0.63015 0.03837 0.0
C290 C 0.98758 0.61025 0.04748 0.0
C291 C 0.97673 0.6208 0.06121 0.0
C292 C 0.98019 0.63046 0.05013 0.0
C293 C 0.98052 0.61055 0.06004 0.0
H294 H 0.99662 0.62018 0.02722 0.0
H295 H 0.97727 0.63832 0.05105 0.0
C296 C 0.01099 0.67245 0.98368 0.0
N297 N 0.02329 0.68326 0.95727 0.0
C298 C 0.00277 0.67037 0.97129 0.0
C299 C 0.02545 0.68022 0.98271 0.0
C300 C 0.00919 0.67586 0.95801 0.0
C301 C 0.03148 0.68555 0.96924 0.0
C302 C 0.96948 0.62758 0.00687 0.0
C303 C 0.96251 0.61488 0.99922 0.0
C304 C 0.96239 0.63085 0.01727 0.0
C305 C 0.94852 0.60563 0.0021 0.0
C306 C 0.94841 0.62132 0.01984 0.0
N307 N 0.94182 0.60901 0.01226 0.0
C308 C 0.01834 0.63818 0.98408 0.0
C309 C 0.00074 0.63874 0.97009 0.0
C310 C 0.02133 0.63194 0.97243 0.0
N311 N 0.00822 0.64146 0.98269 0.0
C312 C 0.00344 0.6326 0.95813 0.0
C313 C 0.01378 0.629 0.95924 0.0
H314 H 0.02386 0.64007 0.99436 0.0
H315 H 0.99251 0.64114 0.96942 0.0
C316 C 0.97596 0.67325 0.00519 0.0
N317 N 0.974 0.66107 0.99948 0.0
C318 C 0.96882 0.67936 0.99941 0.0
C319 C 0.95749 0.66009 0.98212 0.0
C320 C 0.96483 0.65429 0.98833 0.0
C321 C 0.95974 0.673 0.98744 0.0
H322 H 0.9836 0.67856 0.0138 0.0
H323 H 0.96376 0.64477 0.98378 0.0
O324 O 0.01294 0.65057 0.01758 0.0
O325 O 0.99252 0.6607 0.02698 0.0
O326 O 0.0049 0.66719 0.99678 0.0
O327 O 0.98319 0.63668 0.00415 0.0
H328 H 0.01902 0.64502 0.04368 0.0
H329 H 0.03637 0.66601 0.00345 0.0
H330 H 0.0429 0.65353 0.05312 0.0
H331 H 0.05996 0.6742 0.0136 0.0
H332 H 0.98109 0.67964 0.06481 0.0
H333 H 0.01009 0.66099 0.04669 0.0
H334 H 0.97806 0.67091 0.0392 0.0
H335 H 0.01263 0.66992 0.07216 0.0
H336 H 0.04795 0.70398 0.04999 0.0
H337 H 0.02747 0.71663 0.01883 0.0
H338 H 0.99046 0.6024 0.0459 0.0
H339 H 0.97141 0.62156 0.07071 0.0
H340 H 0.99156 0.66451 0.9719 0.0
H341 H 0.03194 0.68223 0.99228 0.0
H342 H 0.00297 0.67426 0.9483 0.0
H343 H 0.04266 0.69155 0.96832 0.0
H344 H 0.96786 0.61221 0.99113 0.0
H345 H 0.96756 0.64062 0.0233 0.0
H346 H 0.94299 0.59575 0.99625 0.0
H347 H 0.9428 0.62371 0.02785 0.0
H348 H 0.0292 0.6291 0.97388 0.0
H349 H 0.99743 0.63065 0.94816 0.0
H350 H 0.97075 0.68922 0.00396 0.0
H351 H 0.95071 0.65493 0.9728 0.0
Li352 Li 0.33987 0.34968 0.01238 0.0
Li353 Li 0.36401 0.35552 0.0162 0.0
Li354 Li 0.35703 0.36239 0.99316 0.0
Li355 Li 0.35019 0.33818 0.9974 0.0
C356 C 0.3526 0.37757 0.01866 0.0
N357 N 0.34377 0.39532 0.02856 0.0
C358 C 0.35871 0.38592 0.03112 0.0
C359 C 0.34212 0.37837 0.01116 0.0
C360 C 0.35407 0.3948 0.03597 0.0
C361 C 0.33777 0.38737 0.01634 0.0
C362 C 0.34808 0.33291 0.03215 0.0
C363 C 0.3545 0.31952 0.04737 0.0
N364 N 0.35092 0.32424 0.0594 0.0
C365 C 0.34435 0.33752 0.04465 0.0
C366 C 0.3531 0.32375 0.0335 0.0
C367 C 0.34591 0.33306 0.05833 0.0
C368 C 0.3115 0.33418 0.01503 0.0
N369 N 0.32277 0.34543 0.02115 0.0
C370 C 0.30854 0.34777 0.03908 0.0
C371 C 0.32157 0.35222 0.03302 0.0
C372 C 0.29669 0.33618 0.03292 0.0
C373 C 0.29832 0.32939 0.02071 0.0
H374 H 0.31281 0.32881 0.00579 0.0
H375 H 0.33072 0.36093 0.03795 0.0
C376 C 0.38976 0.36055 0.02849 0.0
N377 N 0.37804 0.36107 0.03101 0.0
C378 C 0.39991 0.36458 0.03944 0.0
C379 C 0.3859 0.36994 0.05525 0.0
C380 C 0.37595 0.36562 0.04407 0.0
C381 C 0.39804 0.36941 0.053 0.0
H382 H 0.39131 0.35709 0.01798 0.0
H383 H 0.3665 0.36582 0.04585 0.0
C384 C 0.33178 0.34635 0.97877 0.0
N385 N 0.31854 0.34765 0.95378 0.0
C386 C 0.33481 0.34273 0.96519 0.0
C387 C 0.32182 0.35039 0.97966 0.0
C388 C 0.32807 0.34354 0.95267 0.0
C389 C 0.31528 0.35104 0.96691 0.0
C390 C 0.37613 0.3483 0.98919 0.0
C391 C 0.38243 0.35273 0.97564 0.0
C392 C 0.37662 0.33748 0.99617 0.0
C393 C 0.3889 0.34609 0.96917 0.0
C394 C 0.38317 0.33109 0.98935 0.0
N395 N 0.38911 0.33548 0.97609 0.0
C396 C 0.36472 0.38909 0.98181 0.0
C397 C 0.36472 0.373 0.96463 0.0
C398 C 0.36859 0.3991 0.97106 0.0
N399 N 0.36264 0.37624 0.97841 0.0
C400 C 0.3689 0.38281 0.9536 0.0
C401 C 0.37073 0.39598 0.95678 0.0
H402 H 0.36352 0.39169 0.99287 0.0
H403 H 0.36317 0.3628 0.96218 0.0
C404 C 0.33561 0.30944 0.99665 0.0
N405 N 0.34457 0.32045 0.98857 0.0
C406 C 0.3291 0.296 0.9907 0.0
C407 C 0.34134 0.30535 0.96821 0.0
C408 C 0.34775 0.31867 0.97468 0.0
C409 C 0.3316 0.29383 0.97615 0.0
H410 H 0.3331 0.31114 0.00758 0.0
H411 H 0.35481 0.3276 0.96841 0.0
O412 O 0.35679 0.36858 0.01388 0.0
O413 O 0.34675 0.33728 0.01867 0.0
O414 O 0.33829 0.34561 0.99115 0.0
O415 O 0.36959 0.35454 0.99564 0.0
H416 H 0.36701 0.38567 0.03694 0.0
H417 H 0.33745 0.37215 0.00139 0.0
H418 H 0.35869 0.4013 0.04562 0.0
H419 H 0.32963 0.38805 0.01065 0.0
H420 H 0.3584 0.31246 0.04858 0.0
H421 H 0.3405 0.34463 0.04383 0.0
H422 H 0.35582 0.31987 0.02395 0.0
H423 H 0.34316 0.33664 0.0681 0.0
H424 H 0.30775 0.35333 0.04847 0.0
H425 H 0.28955 0.32025 0.01579 0.0
H426 H 0.4092 0.36413 0.03728 0.0
H427 H 0.38402 0.37346 0.06562 0.0
H428 H 0.34239 0.33949 0.96428 0.0
H429 H 0.31903 0.35288 0.99009 0.0
H430 H 0.33043 0.34089 0.94208 0.0
H431 H 0.30759 0.3542 0.96745 0.0
H432 H 0.38245 0.36128 0.97021 0.0
H433 H 0.37191 0.33402 0.0067 0.0
H434 H 0.39377 0.34939 0.95866 0.0
H435 H 0.38352 0.32264 0.9946 0.0
H436 H 0.3701 0.40925 0.97391 0.0
H437 H 0.37048 0.38008 0.94266 0.0
H438 H 0.32189 0.28742 0.99734 0.0
H439 H 0.34352 0.30419 0.95694 0.0
Li440 Li 0.6674 0.9899 0.01716 0.0
Li441 Li 0.66032 0.00718 0.02459 0.0
Li442 Li 0.65413 0.99617 0.00091 0.0
Li443 Li 0.67756 0.01355 0.00601 0.0
C444 C 0.63523 0.9772 0.01741 0.0
N445 N 0.60795 0.95795 0.01038 0.0
C446 C 0.62485 0.98049 0.01959 0.0
C447 C 0.63177 0.96411 0.01174 0.0
C448 C 0.61111 0.97062 0.01594 0.0
C449 C 0.6179 0.95452 0.00824 0.0
C450 C 0.68236 0.01335 0.04066 0.0
C451 C 0.68934 0.03135 0.05919 0.0
N452 N 0.6886 0.02229 0.06945 0.0
C453 C 0.68173 0.00424 0.05137 0.0
C454 C 0.68626 0.02703 0.04458 0.0
C455 C 0.68491 0.00896 0.06587 0.0
C456 C 0.68558 0.98039 0.02099 0.0
N457 N 0.67233 0.97702 0.02386 0.0
C458 C 0.66855 0.9572 0.0373 0.0
C459 C 0.66376 0.96569 0.03181 0.0
C460 C 0.68227 0.96049 0.03458 0.0
C461 C 0.69079 0.97225 0.02625 0.0
H462 H 0.69217 0.9896 0.01481 0.0
H463 H 0.65332 0.96339 0.03408 0.0
C464 C 0.64966 0.02251 0.03876 0.0
N465 N 0.65328 0.01267 0.04057 0.0
C466 C 0.64294 0.0254 0.04992 0.0
C467 C 0.64405 0.00814 0.06465 0.0
C468 C 0.6506 0.00549 0.05316 0.0
C469 C 0.63995 0.01806 0.06302 0.0
H470 H 0.65159 0.0278 0.02849 0.0
H471 H 0.65318 0.9974 0.0541 0.0
C472 C 0.6676 0.98665 0.98416 0.0
N473 N 0.66118 0.96966 0.95961 0.0
C474 C 0.66713 0.99167 0.97039 0.0
C475 C 0.66481 0.97298 0.98542 0.0
C476 C 0.66385 0.98292 0.95812 0.0
C477 C 0.66159 0.96457 0.97288 0.0
C478 C 0.66705 0.02826 0.9987 0.0
C479 C 0.66579 0.02831 0.98351 0.0
C480 C 0.67467 0.04086 0.00644 0.0
C481 C 0.67223 0.04099 0.97631 0.0
C482 C 0.68097 0.05332 0.99883 0.0
N483 N 0.67964 0.05313 0.98405 0.0
C484 C 0.6331 0.9974 0.98619 0.0
C485 C 0.63454 0.97788 0.97815 0.0
C486 C 0.62277 0.99449 0.97584 0.0
N487 N 0.63911 0.98943 0.98686 0.0
C488 C 0.62433 0.97469 0.96744 0.0
C489 C 0.61851 0.98321 0.96606 0.0
H490 H 0.63656 0.00626 0.99353 0.0
H491 H 0.6389 0.97124 0.97932 0.0
C492 C 0.70573 0.03519 0.00756 0.0
N493 N 0.6948 0.02768 0.99829 0.0
C494 C 0.71902 0.04377 0.00208 0.0
C495 C 0.70948 0.03711 0.97762 0.0
C496 C 0.69639 0.0287 0.98358 0.0
C497 C 0.7211 0.04449 0.98691 0.0
H498 H 0.70427 0.03407 0.01921 0.0
H499 H 0.68761 0.02255 0.97643 0.0
O500 O 0.64877 0.98686 0.02053 0.0
O501 O 0.67908 0.00887 0.02644 0.0
O502 O 0.67103 0.99512 0.99631 0.0
O503 O 0.66103 0.01594 0.00594 0.0
H504 H 0.62741 0.99063 0.02392 0.0
H505 H 0.63973 0.96147 0.00987 0.0
H506 H 0.60296 0.97304 0.01749 0.0
H507 H 0.61507 0.94437 0.00376 0.0
H508 H 0.69229 0.04188 0.06239 0.0
H509 H 0.67872 0.99362 0.04856 0.0
H510 H 0.68679 0.03421 0.03644 0.0
H511 H 0.6844 0.00201 0.07428 0.0
H512 H 0.66162 0.9482 0.04359 0.0
H513 H 0.70149 0.97535 0.02412 0.0
H514 H 0.63993 0.03312 0.04825 0.0
H515 H 0.64169 0.00208 0.07446 0.0
H516 H 0.66893 0.00208 0.96919 0.0
H517 H 0.66507 0.96887 0.99595 0.0
H518 H 0.66335 0.98664 0.94742 0.0
H519 H 0.65939 0.95397 0.97371 0.0
H520 H 0.66007 0.01866 0.97732 0.0
H521 H 0.67577 0.04101 0.01819 0.0
H522 H 0.6714 0.04118 0.96455 0.0
H523 H 0.68694 0.06314 0.00468 0.0
H524 H 0.61856 0.00135 0.97512 0.0
H525 H 0.62113 0.96575 0.96023 0.0
H526 H 0.72765 0.04942 0.00965 0.0
H527 H 0.71057 0.03719 0.96587 0.0
Li528 Li 0.65624 0.66695 0.33215 0.0
Li529 Li 0.67767 0.67508 0.34611 0.0
Li530 Li 0.66125 0.68374 0.35161 0.0
Li531 Li 0.67589 0.69174 0.32993 0.0
C532 C 0.64772 0.65143 0.35593 0.0
N533 N 0.62637 0.62451 0.36035 0.0
C534 C 0.65067 0.64103 0.35945 0.0
C535 C 0.6339 0.64817 0.35493 0.0
C536 C 0.63974 0.62747 0.36158 0.0
C537 C 0.62325 0.6345 0.35711 0.0
C538 C 0.68497 0.67225 0.31727 0.0
C539 C 0.70776 0.68168 0.30686 0.0
N540 N 0.70449 0.66865 0.30244 0.0
C541 C 0.68177 0.659 0.31236 0.0
C542 C 0.698 0.68371 0.31428 0.0
C543 C 0.6918 0.65738 0.305 0.0
C544 C 0.63174 0.65209 0.31482 0.0
N545 N 0.64204 0.65119 0.32175 0.0
C546 C 0.63199 0.62734 0.3143 0.0
C547 C 0.64236 0.63916 0.32161 0.0
C548 C 0.62116 0.62791 0.30715 0.0
C549 C 0.62109 0.64048 0.30748 0.0
H550 H 0.63181 0.66182 0.315 0.0
H551 H 0.6506 0.6387 0.32734 0.0
C552 C 0.69845 0.67621 0.3654 0.0
N553 N 0.68939 0.66899 0.35428 0.0
C554 C 0.70615 0.67099 0.37199 0.0
C555 C 0.69476 0.65083 0.35585 0.0
C556 C 0.6875 0.65656 0.3494 0.0
C557 C 0.70415 0.65804 0.36733 0.0
H558 H 0.69944 0.68582 0.36946 0.0
H559 H 0.67989 0.65079 0.34091 0.0
C560 C 0.64764 0.69055 0.33253 0.0
N561 N 0.63197 0.70321 0.33598 0.0
C562 C 0.65344 0.70472 0.32977 0.0
C563 C 0.63379 0.68279 0.33684 0.0
C564 C 0.64537 0.71094 0.33162 0.0
C565 C 0.62607 0.68939 0.33859 0.0
C566 C 0.69483 0.7057 0.35367 0.0
C567 C 0.69629 0.71685 0.36225 0.0
C568 C 0.70665 0.70608 0.34812 0.0
C569 C 0.70954 0.72833 0.36487 0.0
C570 C 0.71972 0.71773 0.35099 0.0
N571 N 0.72088 0.72853 0.35921 0.0
C572 C 0.64463 0.68074 0.37632 0.0
C573 C 0.65706 0.70343 0.36671 0.0
C574 C 0.63868 0.6852 0.38689 0.0
N575 N 0.65354 0.68983 0.36645 0.0
C576 C 0.6514 0.70834 0.37708 0.0
C577 C 0.64202 0.69918 0.38733 0.0
H578 H 0.6421 0.67002 0.37599 0.0
H579 H 0.66425 0.71045 0.35879 0.0
C580 C 0.68357 0.7036 0.30228 0.0
N581 N 0.68513 0.70679 0.31681 0.0
C582 C 0.68904 0.71418 0.29203 0.0
C583 C 0.69775 0.73112 0.31187 0.0
C584 C 0.6921 0.72023 0.32173 0.0
C585 C 0.6961 0.72817 0.29679 0.0
H586 H 0.67779 0.69282 0.29867 0.0
H587 H 0.69288 0.72255 0.33328 0.0
O588 O 0.6583 0.66473 0.35353 0.0
O589 O 0.67521 0.67403 0.32443 0.0
O590 O 0.65547 0.68432 0.33101 0.0
O591 O 0.6819 0.69444 0.35088 0.0
H592 H 0.66127 0.64337 0.36057 0.0
H593 H 0.63141 0.65609 0.35238 0.0
H594 H 0.64189 0.61932 0.36424 0.0
H595 H 0.61251 0.63183 0.35623 0.0
H596 H 0.7179 0.69046 0.30456 0.0
H597 H 0.67167 0.65003 0.31428 0.0
H598 H 0.70056 0.69411 0.3175 0.0
H599 H 0.68949 0.64715 0.30128 0.0
H600 H 0.63232 0.6178 0.31444 0.0
H601 H 0.61298 0.64137 0.30196 0.0
H602 H 0.71317 0.67672 0.38098 0.0
H603 H 0.69291 0.64077 0.35204 0.0
H604 H 0.66409 0.71091 0.32638 0.0
H605 H 0.62904 0.67179 0.33883 0.0
H606 H 0.64978 0.72192 0.32962 0.0
H607 H 0.61537 0.68351 0.342 0.0
H608 H 0.68731 0.71669 0.36682 0.0
H609 H 0.70579 0.69736 0.34191 0.0
H610 H 0.7108 0.73706 0.37141 0.0
H611 H 0.72894 0.71814 0.34674 0.0
H612 H 0.63142 0.67775 0.3945 0.0
H613 H 0.65446 0.71925 0.37716 0.0
H614 H 0.68735 0.71142 0.28051 0.0
H615 H 0.70319 0.74175 0.31603 0.0
Li616 Li 0.30532 0.98236 0.34325 0.0
Li617 Li 0.31016 0.97276 0.36575 0.0
Li618 Li 0.32097 0.99835 0.36259 0.0
Li619 Li 0.32771 0.98513 0.34786 0.0
C620 C 0.28837 0.98096 0.36894 0.0
N621 N 0.26253 0.97432 0.37921 0.0
C622 C 0.27798 0.96703 0.37037 0.0
C623 C 0.28565 0.99151 0.37289 0.0
C624 C 0.26497 0.96389 0.37554 0.0
C625 C 0.27251 0.98794 0.37801 0.0
C626 C 0.31356 0.96056 0.3354 0.0
C627 C 0.32482 0.94733 0.33044 0.0
N628 N 0.32255 0.94773 0.3159 0.0
C629 C 0.31129 0.96077 0.32042 0.0
C630 C 0.32033 0.95373 0.34048 0.0
C631 C 0.31592 0.95424 0.31073 0.0
C632 C 0.29535 0.98512 0.3156 0.0
N633 N 0.29149 0.9786 0.32863 0.0
C634 C 0.26799 0.96481 0.32014 0.0
C635 C 0.27813 0.96854 0.33102 0.0
C636 C 0.27165 0.97141 0.30659 0.0
C637 C 0.28554 0.98178 0.30445 0.0
H638 H 0.30611 0.99266 0.31365 0.0
H639 H 0.2754 0.96307 0.34118 0.0
C640 C 0.29975 0.95992 0.39311 0.0
N641 N 0.3019 0.9578 0.37895 0.0
C642 C 0.29291 0.94861 0.40241 0.0
C643 C 0.29093 0.9333 0.3824 0.0
C644 C 0.2976 0.94484 0.37349 0.0
C645 C 0.28833 0.93504 0.39705 0.0
H646 H 0.30311 0.97035 0.39709 0.0
H647 H 0.29918 0.94341 0.36212 0.0
C648 C 0.32214 0.00998 0.33555 0.0
N649 N 0.31889 0.03113 0.32457 0.0
C650 C 0.33154 0.01914 0.32543 0.0
C651 C 0.31109 0.01158 0.34008 0.0
C652 C 0.32972 0.02977 0.32001 0.0
C653 C 0.30962 0.02233 0.33441 0.0
C654 C 0.34311 0.99686 0.37382 0.0
C655 C 0.35186 0.00787 0.36486 0.0
C656 C 0.348 0.9955 0.38741 0.0
C657 C 0.36536 0.01735 0.36966 0.0
C658 C 0.36158 0.00519 0.39181 0.0
N659 N 0.36991 0.01583 0.38293 0.0
C660 C 0.32226 0.01544 0.3865 0.0
C661 C 0.33684 0.02755 0.36673 0.0
C662 C 0.32711 0.02791 0.39441 0.0
N663 N 0.32715 0.01551 0.37291 0.0
C664 C 0.34183 0.04023 0.37415 0.0
C665 C 0.33699 0.04051 0.38818 0.0
H666 H 0.31469 0.00567 0.39122 0.0
H667 H 0.34091 0.02734 0.35612 0.0
C668 C 0.34416 0.98884 0.32363 0.0
N669 N 0.34278 0.98544 0.33795 0.0
C670 C 0.35418 0.98815 0.31524 0.0
C671 C 0.36152 0.98095 0.33663 0.0
C672 C 0.35125 0.98166 0.3446 0.0
C673 C 0.36292 0.98403 0.3217 0.0
H674 H 0.33721 0.99174 0.31866 0.0
H675 H 0.34979 0.97884 0.35598 0.0
O676 O 0.30128 0.98428 0.36422 0.0
O677 O 0.30946 0.96725 0.34502 0.0
O678 O 0.3239 0.99958 0.34096 0.0
O679 O 0.32978 0.9875 0.36948 0.0
H680 H 0.27989 0.95872 0.36739 0.0
H681 H 0.29362 0.00235 0.37205 0.0
H682 H 0.25683 0.95315 0.37663 0.0
H683 H 0.27026 0.996 0.38107 0.0
H684 H 0.33019 0.94213 0.33421 0.0
H685 H 0.30612 0.96604 0.31629 0.0
H686 H 0.32237 0.95364 0.35203 0.0
H687 H 0.3143 0.95439 0.2991 0.0
H688 H 0.2575 0.95649 0.32218 0.0
H689 H 0.28885 0.98718 0.2942 0.0
H690 H 0.29098 0.95046 0.41356 0.0
H691 H 0.28785 0.92312 0.3778 0.0
H692 H 0.34017 0.01804 0.32183 0.0
H693 H 0.30368 0.00456 0.34781 0.0
H694 H 0.33692 0.03694 0.31217 0.0
H695 H 0.3011 0.02367 0.33781 0.0
H696 H 0.34828 0.00912 0.35432 0.0
H697 H 0.34134 0.98705 0.39448 0.0
H698 H 0.37223 0.02592 0.36284 0.0
H699 H 0.36549 0.00427 0.40231 0.0
H700 H 0.32315 0.02773 0.40523 0.0
H701 H 0.34966 0.04969 0.3691 0.0
H702 H 0.35504 0.99075 0.3038 0.0
H703 H 0.36799 0.97761 0.34196 0.0
Li704 Li 0.02282 0.32354 0.32934 0.0
Li705 Li 0.03114 0.3366 0.35179 0.0
Li706 Li 0.0058 0.32189 0.34652 0.0
Li707 Li 0.02058 0.34365 0.33249 0.0
C708 C 0.02756 0.3102 0.35291 0.0
N709 N 0.0437 0.29885 0.36032 0.0
C710 C 0.04068 0.31532 0.3468 0.0
C711 C 0.02265 0.29932 0.36279 0.0
C712 C 0.04868 0.30944 0.35068 0.0
C713 C 0.03097 0.29371 0.36639 0.0
C714 C 0.04976 0.35587 0.33245 0.0
C715 C 0.06247 0.37925 0.34246 0.0
N716 N 0.07354 0.38179 0.33413 0.0
C717 C 0.06127 0.35869 0.32403 0.0
C718 C 0.05037 0.3662 0.34178 0.0
C719 C 0.0732 0.37187 0.32501 0.0
C720 C 0.03407 0.32112 0.30311 0.0
N721 N 0.02683 0.31369 0.31483 0.0
C722 C 0.02697 0.29355 0.30576 0.0
C723 C 0.02306 0.30009 0.31626 0.0
C724 C 0.03458 0.30103 0.29362 0.0
C725 C 0.03797 0.31492 0.29225 0.0
H726 H 0.03692 0.33192 0.30229 0.0
H727 H 0.01719 0.2944 0.32563 0.0
C728 C 0.04091 0.34398 0.38093 0.0
N729 N 0.04472 0.34302 0.36709 0.0
C730 C 0.05071 0.34877 0.39234 0.0
C731 C 0.0681 0.35141 0.375 0.0
C732 C 0.05798 0.34652 0.36398 0.0
C733 C 0.06454 0.35259 0.38943 0.0
H734 H 0.03026 0.34102 0.3831 0.0
H735 H 0.06076 0.34559 0.35292 0.0
C736 C 0.00254 0.3189 0.3118 0.0
N737 N 0.99644 0.30626 0.28447 0.0
C738 C 0.00684 0.32699 0.29929 0.0
C739 C 0.99507 0.30439 0.31043 0.0
C740 C 0.00366 0.32039 0.28556 0.0
C741 C 0.99212 0.29819 0.29651 0.0
C742 C 0.01139 0.34909 0.36003 0.0
C743 C 0.99745 0.34505 0.35777 0.0
C744 C 0.01982 0.36073 0.3689 0.0
C745 C 0.99223 0.35288 0.36422 0.0
C746 C 0.01422 0.36828 0.37516 0.0
N747 N 0.00066 0.36424 0.3727 0.0
C748 C 0.98775 0.31092 0.37018 0.0
C749 C 0.9766 0.304 0.34697 0.0
C750 C 0.97498 0.30375 0.37717 0.0
N751 N 0.9883 0.31096 0.35537 0.0
C752 C 0.96362 0.29661 0.3535 0.0
C753 C 0.96266 0.29652 0.36881 0.0
H754 H 0.99724 0.31672 0.37655 0.0
H755 H 0.97734 0.30436 0.33521 0.0
C756 C 0.03152 0.36817 0.3151 0.0
N757 N 0.02042 0.35886 0.32293 0.0
C758 C 0.03157 0.37949 0.30873 0.0
C759 C 0.00827 0.37084 0.31739 0.0
C760 C 0.00875 0.35978 0.32378 0.0
C761 C 0.0199 0.38101 0.31 0.0
H762 H 0.04037 0.36687 0.31366 0.0
H763 H 0.99977 0.35189 0.32935 0.0
O764 O 0.01953 0.31581 0.34939 0.0
O765 O 0.03815 0.34291 0.3318 0.0
O766 O 0.00589 0.32516 0.32533 0.0
O767 O 0.01666 0.34144 0.35401 0.0
H768 H 0.04465 0.32372 0.33913 0.0
H769 H 0.01253 0.29526 0.36763 0.0
H770 H 0.05885 0.3133 0.34603 0.0
H771 H 0.02731 0.28529 0.37403 0.0
H772 H 0.06307 0.38735 0.34961 0.0
H773 H 0.061 0.35075 0.31684 0.0
H774 H 0.04157 0.36419 0.34836 0.0
H775 H 0.08218 0.3742 0.31855 0.0
H776 H 0.02412 0.28278 0.30712 0.0
H777 H 0.04393 0.32105 0.28309 0.0
H778 H 0.04745 0.34934 0.40332 0.0
H779 H 0.07865 0.35441 0.37218 0.0
H780 H 0.01269 0.33823 0.30017 0.0
H781 H 0.99182 0.29798 0.32002 0.0
H782 H 0.00698 0.32652 0.27578 0.0
H783 H 0.98644 0.28697 0.29527 0.0
H784 H 0.99075 0.33607 0.35097 0.0
H785 H 0.03057 0.36387 0.371 0.0
H786 H 0.98149 0.34992 0.36247 0.0
H787 H 0.02064 0.37733 0.38201 0.0
H788 H 0.97475 0.30416 0.38898 0.0
H789 H 0.95444 0.29106 0.34661 0.0
H790 H 0.0406 0.38692 0.30275 0.0
H791 H 0.999 0.37158 0.31845 0.0
Li792 Li 0.67778 0.99287 0.35533 0.0
Li793 Li 0.66349 0.96736 0.36137 0.0
Li794 Li 0.6779 0.97491 0.33872 0.0
Li795 Li 0.65756 0.97711 0.3411 0.0
C796 C 0.69852 0.98563 0.36039 0.0
N797 N 0.72713 0.99842 0.36161 0.0
C798 C 0.70494 0.98136 0.37051 0.0
C799 C 0.70663 0.99636 0.35085 0.0
C800 C 0.71942 0.98797 0.37097 0.0
C801 C 0.72108 0.00271 0.35165 0.0
C802 C 0.64645 0.98225 0.36427 0.0
C803 C 0.62147 0.9702 0.36574 0.0
N804 N 0.62206 0.98262 0.36758 0.0
C805 C 0.64682 0.99488 0.36633 0.0
C806 C 0.63369 0.9698 0.36412 0.0
C807 C 0.63437 0.99486 0.36793 0.0
C808 C 0.6849 0.02058 0.35745 0.0
N809 N 0.68816 0.01137 0.36305 0.0
C810 C 0.70565 0.02916 0.37852 0.0
C811 C 0.69817 0.0153 0.37356 0.0
C812 C 0.70268 0.03899 0.37269 0.0
C813 C 0.69202 0.03447 0.36213 0.0
H814 H 0.67665 0.01707 0.34937 0.0
H815 H 0.70043 0.00773 0.37804 0.0
C816 C 0.65612 0.94171 0.37424 0.0
N817 N 0.65649 0.95399 0.37629 0.0
C818 C 0.64978 0.9312 0.38451 0.0
C819 C 0.64482 0.94644 0.39901 0.0
C820 C 0.65117 0.9566 0.38843 0.0
C821 C 0.64385 0.93343 0.39702 0.0
H822 H 0.66038 0.93993 0.36441 0.0
H823 H 0.65164 0.96649 0.38976 0.0
C824 C 0.67397 0.9943 0.32006 0.0
N825 N 0.66879 0.00025 0.29235 0.0
C826 C 0.66786 0.98377 0.30936 0.0
C827 C 0.67758 0.00789 0.31662 0.0
C828 C 0.66528 0.98697 0.29543 0.0
C829 C 0.67485 0.01069 0.30256 0.0
C830 C 0.64899 0.94743 0.3354 0.0
C831 C 0.65098 0.94332 0.32156 0.0
C832 C 0.63707 0.93852 0.34318 0.0
C833 C 0.64094 0.93043 0.31567 0.0
C834 C 0.62727 0.92572 0.33692 0.0
N835 N 0.62938 0.92198 0.3234 0.0
C836 C 0.6877 0.95798 0.32705 0.0
C837 C 0.69592 0.97945 0.31516 0.0
C838 C 0.69422 0.95382 0.31683 0.0
N839 N 0.68847 0.97049 0.32587 0.0
C840 C 0.7025 0.97569 0.30466 0.0
C841 C 0.70155 0.96263 0.30526 0.0
H842 H 0.68172 0.95108 0.33573 0.0
H843 H 0.69645 0.98939 0.31453 0.0
C844 C 0.64279 0.98908 0.32931 0.0
N845 N 0.64272 0.97685 0.33006 0.0
C846 C 0.63305 0.99009 0.32061 0.0
C847 C 0.62334 0.96593 0.31351 0.0
C848 C 0.63316 0.96535 0.32246 0.0
C849 C 0.62329 0.97844 0.31242 0.0
H850 H 0.65067 0.99817 0.33521 0.0
H851 H 0.63326 0.95577 0.32301 0.0
O852 O 0.68434 0.97919 0.35977 0.0
O853 O 0.65851 0.98207 0.36242 0.0
O854 O 0.67622 0.99125 0.33386 0.0
O855 O 0.65874 0.96 0.34135 0.0
H856 H 0.69878 0.97303 0.37793 0.0
H857 H 0.70185 0.9998 0.34294 0.0
H858 H 0.72454 0.98479 0.37876 0.0
H859 H 0.72749 0.01104 0.34435 0.0
H860 H 0.61152 0.96064 0.36554 0.0
H861 H 0.6566 0.00461 0.36664 0.0
H862 H 0.63323 0.95994 0.36266 0.0
H863 H 0.6345 0.00457 0.36944 0.0
H864 H 0.71382 0.03217 0.38662 0.0
H865 H 0.68912 0.04157 0.35758 0.0
H866 H 0.64914 0.92131 0.38242 0.0
H867 H 0.64062 0.94872 0.4086 0.0
H868 H 0.66497 0.9732 0.31185 0.0
H869 H 0.68246 0.01622 0.32469 0.0
H870 H 0.66045 0.97889 0.28709 0.0
H871 H 0.67756 0.02116 0.29976 0.0
H872 H 0.66017 0.94999 0.31539 0.0
H873 H 0.63538 0.94142 0.35395 0.0
H874 H 0.64233 0.92715 0.30495 0.0
H875 H 0.61799 0.91875 0.34282 0.0
H876 H 0.69339 0.94377 0.3179 0.0
H877 H 0.70786 0.98278 0.29588 0.0
H878 H 0.63342 0.99997 0.31993 0.0
H879 H 0.61589 0.95668 0.30745 0.0
Li880 Li 0.03541 0.69911 0.3536 0.0
Li881 Li 0.01051 0.69018 0.34869 0.0
Li882 Li 0.02348 0.68191 0.33384 0.0
Li883 Li 0.02786 0.70534 0.33119 0.0
C884 C 0.01871 0.67113 0.36538 0.0
N885 N 0.01667 0.65307 0.38689 0.0
C886 C 0.01109 0.66971 0.37796 0.0
C887 C 0.02511 0.6632 0.36363 0.0
C888 C 0.01024 0.66058 0.38874 0.0
C889 C 0.024 0.65417 0.37466 0.0
C890 C 0.02072 0.71894 0.35209 0.0
C891 C 0.00371 0.72497 0.3447 0.0
N892 N 0.01089 0.73723 0.35228 0.0
C893 C 0.02793 0.73159 0.35981 0.0
C894 C 0.00851 0.71558 0.34448 0.0
C895 C 0.02279 0.7407 0.35977 0.0
C896 C 0.06273 0.71366 0.36588 0.0
N897 N 0.04902 0.70537 0.36888 0.0
C898 C 0.05427 0.70548 0.39421 0.0
C899 C 0.04466 0.70149 0.38275 0.0
C900 C 0.06852 0.71373 0.39141 0.0
C901 C 0.07272 0.71797 0.37704 0.0
H902 H 0.06591 0.71685 0.35479 0.0
H903 H 0.0337 0.69534 0.38494 0.0
C904 C 0.98232 0.67174 0.35136 0.0
N905 N 0.99292 0.68368 0.35726 0.0
C906 C 0.969 0.66592 0.35704 0.0
C907 C 0.97775 0.68483 0.37483 0.0
C908 C 0.99096 0.69024 0.36884 0.0
C909 C 0.96653 0.67251 0.36889 0.0
H910 H 0.98428 0.66668 0.34228 0.0
H911 H 0.99964 0.69966 0.37342 0.0
C912 C 0.05225 0.69688 0.33004 0.0
N913 N 0.07308 0.69133 0.32333 0.0
C914 C 0.05949 0.70155 0.31698 0.0
C915 C 0.05565 0.68945 0.33971 0.0
C916 C 0.06997 0.69862 0.31378 0.0
C917 C 0.06621 0.68673 0.33612 0.0
C918 C 0.00778 0.68517 0.31241 0.0
C919 C 0.01877 0.68818 0.30305 0.0
C920 C 0.99434 0.67959 0.30669 0.0
C921 C 0.01612 0.68556 0.28807 0.0
C922 C 0.99211 0.67711 0.29164 0.0
N923 N 0.00296 0.68013 0.28273 0.0
C924 C 0.00887 0.65367 0.32902 0.0
C925 C 0.02913 0.66441 0.31463 0.0
C926 C 0.0054 0.64058 0.32347 0.0
N927 N 0.02064 0.66521 0.3247 0.0
C928 C 0.02607 0.65148 0.3088 0.0
C929 C 0.01412 0.63932 0.31332 0.0
H930 H 0.00219 0.65466 0.33686 0.0
H931 H 0.03826 0.67374 0.31111 0.0
C932 C 0.04617 0.72845 0.31454 0.0
N933 N 0.03256 0.71974 0.31757 0.0
C934 C 0.04997 0.73875 0.3041 0.0
C935 C 0.02569 0.73113 0.30039 0.0
C936 C 0.02235 0.72089 0.31076 0.0
C937 C 0.03966 0.74017 0.2968 0.0
H938 H 0.05406 0.72727 0.32011 0.0
H939 H 0.0116 0.71376 0.31327 0.0
O940 O 0.0195 0.6799 0.35465 0.0
O941 O 0.02568 0.70995 0.35201 0.0
O942 O 0.04186 0.69955 0.33324 0.0
O943 O 0.01008 0.68765 0.32711 0.0
H944 H 0.00597 0.67567 0.37943 0.0
H945 H 0.03075 0.66388 0.35382 0.0
H946 H 0.00446 0.65945 0.39858 0.0
H947 H 0.02893 0.64799 0.37346 0.0
H948 H 0.99428 0.72251 0.33885 0.0
H949 H 0.03741 0.73433 0.36575 0.0
H950 H 0.0028 0.70585 0.33842 0.0
H951 H 0.02827 0.75054 0.36569 0.0
H952 H 0.05057 0.70226 0.40519 0.0
H953 H 0.08361 0.72433 0.37442 0.0
H954 H 0.96075 0.65628 0.35229 0.0
H955 H 0.97632 0.69032 0.38387 0.0
H956 H 0.05695 0.70728 0.30935 0.0
H957 H 0.05026 0.68589 0.34991 0.0
H958 H 0.07562 0.70212 0.30369 0.0
H959 H 0.06894 0.68099 0.34351 0.0
H960 H 0.02924 0.69253 0.30726 0.0
H961 H 0.98573 0.67721 0.31381 0.0
H962 H 0.02453 0.68785 0.2807 0.0
H963 H 0.98177 0.6728 0.28706 0.0
H964 H 0.99593 0.63154 0.32703 0.0
H965 H 0.0331 0.65099 0.30103 0.0
H966 H 0.06085 0.74531 0.30157 0.0
H967 H 0.01738 0.73193 0.29526 0.0
Li968 Li 0.31368 0.34247 0.35347 0.0
Li969 Li 0.31924 0.32368 0.34833 0.0
Li970 Li 0.33024 0.34486 0.33463 0.0
Li971 Li 0.30631 0.32795 0.33017 0.0
C972 C 0.34484 0.35206 0.35911 0.0
N973 N 0.37267 0.37109 0.36374 0.0
C974 C 0.35455 0.34768 0.35892 0.0
C975 C 0.34923 0.36608 0.36176 0.0
C976 C 0.36859 0.35748 0.36125 0.0
C977 C 0.36337 0.37555 0.36406 0.0
C978 C 0.29493 0.31101 0.35999 0.0
C979 C 0.28456 0.2865 0.36463 0.0
N980 N 0.2845 0.28917 0.37916 0.0
C981 C 0.29471 0.31351 0.37496 0.0
C982 C 0.28976 0.2974 0.35476 0.0
C983 C 0.28941 0.30233 0.38447 0.0
C984 C 0.29763 0.35302 0.36578 0.0
N985 N 0.3085 0.35103 0.36822 0.0
C986 C 0.31149 0.3603 0.3925 0.0
C987 C 0.31545 0.35454 0.38122 0.0
C988 C 0.30026 0.36249 0.39036 0.0
C989 C 0.29334 0.35881 0.37673 0.0
H990 H 0.29227 0.35006 0.35531 0.0
H991 H 0.32394 0.35264 0.38291 0.0
C992 C 0.32562 0.30227 0.34896 0.0
N993 N 0.32322 0.31087 0.35751 0.0
C994 C 0.33082 0.29441 0.3551 0.0
C995 C 0.33064 0.30413 0.37881 0.0
C996 C 0.32544 0.31182 0.3722 0.0
C997 C 0.33373 0.29555 0.37016 0.0
H998 H 0.3241 0.30195 0.33729 0.0
H999 H 0.32378 0.31903 0.37867 0.0
C1000 C 0.31998 0.3615 0.32726 0.0
N1001 N 0.3307 0.38773 0.31579 0.0
C1002 C 0.32267 0.36352 0.31233 0.0
C1003 C 0.32275 0.37283 0.33636 0.0
C1004 C 0.3281 0.37687 0.30675 0.0
C1005 C 0.32816 0.386 0.33035 0.0
C1006 C 0.31952 0.31893 0.31402 0.0
C1007 C 0.32595 0.32625 0.30141 0.0
C1008 C 0.30969 0.30472 0.31292 0.0
C1009 C 0.3224 0.31922 0.2879 0.0
C1010 C 0.30639 0.29809 0.29921 0.0
N1011 N 0.31277 0.30542 0.28709 0.0
C1012 C 0.35516 0.35064 0.32242 0.0
C1013 C 0.35406 0.37122 0.32524 0.0
C1014 C 0.36854 0.35817 0.31689 0.0
N1015 N 0.34812 0.35717 0.32632 0.0
C1016 C 0.36738 0.37915 0.31952 0.0
C1017 C 0.37478 0.37259 0.31533 0.0
H1018 H 0.35042 0.33954 0.32381 0.0
H1019 H 0.34869 0.37638 0.3291 0.0
C1020 C 0.27881 0.30931 0.31956 0.0
N1021 N 0.29171 0.31961 0.3158 0.0
C1022 C 0.26827 0.30286 0.30895 0.0
C1023 C 0.2845 0.31777 0.29087 0.0
C1024 C 0.2946 0.32407 0.30183 0.0
C1025 C 0.27117 0.30698 0.29436 0.0
H1026 H 0.27672 0.30604 0.33077 0.0
H1027 H 0.30483 0.33236 0.29912 0.0
O1028 O 0.33112 0.34272 0.35636 0.0
O1029 O 0.30039 0.32186 0.35054 0.0
O1030 O 0.31443 0.34847 0.33291 0.0
O1031 O 0.32274 0.32565 0.32734 0.0
H1032 H 0.3513 0.33686 0.35679 0.0
H1033 H 0.34183 0.36963 0.36184 0.0
H1034 H 0.37625 0.35427 0.36102 0.0
H1035 H 0.36694 0.38645 0.36602 0.0
H1036 H 0.28059 0.27593 0.36074 0.0
H1037 H 0.2987 0.32398 0.3792 0.0
H1038 H 0.28986 0.29529 0.34321 0.0
H1039 H 0.28923 0.30411 0.39609 0.0
H1040 H 0.31697 0.36274 0.40288 0.0
H1041 H 0.28474 0.36045 0.37453 0.0
H1042 H 0.33293 0.28783 0.34805 0.0
H1043 H 0.33289 0.30543 0.39043 0.0
H1044 H 0.3208 0.35495 0.30516 0.0
H1045 H 0.32083 0.37151 0.34794 0.0
H1046 H 0.33029 0.37859 0.29523 0.0
H1047 H 0.33036 0.39486 0.33726 0.0
H1048 H 0.3334 0.33728 0.30197 0.0
H1049 H 0.30452 0.29891 0.32253 0.0
H1050 H 0.32723 0.32478 0.27805 0.0
H1051 H 0.29874 0.28712 0.29821 0.0
H1052 H 0.37394 0.35275 0.31381 0.0
H1053 H 0.372 0.39032 0.31875 0.0
H1054 H 0.25809 0.29456 0.31203 0.0
H1055 H 0.28706 0.32134 0.27976 0.0
Li1056 Li 0.32436 0.00655 0.666 0.0
Li1057 Li 0.34474 0.02149 0.68124 0.0
Li1058 Li 0.32401 0.02369 0.68199 0.0
Li1059 Li 0.33928 0.03128 0.66084 0.0
C1060 C 0.31916 0.99409 0.6911 0.0
N1061 N 0.30562 0.96595 0.69669 0.0
C1062 C 0.32678 0.98752 0.69373 0.0
C1063 C 0.30465 0.98637 0.69141 0.0
C1064 C 0.31974 0.97328 0.69653 0.0
C1065 C 0.298 0.97215 0.69422 0.0
C1066 C 0.35149 0.01902 0.64797 0.0
C1067 C 0.37234 0.03283 0.63427 0.0
N1068 N 0.36594 0.02488 0.62215 0.0
C1069 C 0.34512 0.01095 0.6354 0.0
C1070 C 0.36522 0.03001 0.64743 0.0
C1071 C 0.35261 0.01409 0.62245 0.0
C1072 C 0.30091 0.98308 0.65248 0.0
N1073 N 0.31406 0.9883 0.65773 0.0
C1074 C 0.31358 0.96719 0.65146 0.0
C1075 C 0.32046 0.98069 0.6573 0.0
C1076 C 0.29998 0.96147 0.64591 0.0
C1077 C 0.29362 0.96959 0.64651 0.0
H1078 H 0.29611 0.9894 0.65285 0.0
H1079 H 0.33095 0.98515 0.66155 0.0
C1080 C 0.3577 0.02207 0.70774 0.0
N1081 N 0.3587 0.02141 0.693 0.0
C1082 C 0.36682 0.02053 0.7169 0.0
C1083 C 0.37782 0.01763 0.69553 0.0
C1084 C 0.36855 0.01936 0.68678 0.0
C1085 C 0.37688 0.01799 0.71082 0.0
H1086 H 0.34955 0.0234 0.71237 0.0
H1087 H 0.36888 0.01853 0.67504 0.0
C1088 C 0.30822 0.02295 0.65998 0.0
N1089 N 0.2873 0.02926 0.65904 0.0
C1090 C 0.31052 0.03519 0.65347 0.0
C1091 C 0.29526 0.01386 0.66592 0.0
C1092 C 0.29981 0.0382 0.65312 0.0
C1093 C 0.28483 0.01727 0.66537 0.0
C1094 C 0.35371 0.04695 0.69093 0.0
C1095 C 0.35004 0.04881 0.705 0.0
C1096 C 0.36773 0.05322 0.68728 0.0
C1097 C 0.3605 0.05683 0.71525 0.0
C1098 C 0.37787 0.06114 0.69785 0.0
N1099 N 0.37408 0.06277 0.71149 0.0
C1100 C 0.3079 0.02064 0.70681 0.0
C1101 C 0.31289 0.04 0.69226 0.0
C1102 C 0.30149 0.02474 0.71719 0.0
N1103 N 0.31349 0.02832 0.6947 0.0
C1104 C 0.30639 0.04437 0.70223 0.0
C1105 C 0.30077 0.03684 0.71506 0.0
H1106 H 0.30887 0.01162 0.70868 0.0
H1107 H 0.31776 0.04613 0.68273 0.0
C1108 C 0.34301 0.04083 0.63175 0.0
N1109 N 0.34673 0.04477 0.64595 0.0
C1110 C 0.34828 0.05073 0.62079 0.0
C1111 C 0.36073 0.06857 0.63932 0.0
C1112 C 0.35536 0.05832 0.64989 0.0
C1113 C 0.3572 0.06481 0.62456 0.0
H1114 H 0.33584 0.03003 0.62897 0.0
H1115 H 0.35796 0.06119 0.66127 0.0
O1116 O 0.32584 0.00794 0.68796 0.0
O1117 O 0.34429 0.01623 0.66071 0.0
O1118 O 0.31861 0.01986 0.66053 0.0
O1119 O 0.34364 0.03897 0.6808 0.0
H1120 H 0.33801 0.99331 0.69344 0.0
H1121 H 0.2986 0.9913 0.68934 0.0
H1122 H 0.3255 0.96804 0.6985 0.0
H1123 H 0.28678 0.96603 0.6944 0.0
H1124 H 0.38294 0.04136 0.63367 0.0
H1125 H 0.33448 0.00246 0.63559 0.0
H1126 H 0.37028 0.03637 0.65705 0.0
H1127 H 0.3478 0.00797 0.61262 0.0
H1128 H 0.31882 0.96124 0.65139 0.0
H1129 H 0.28321 0.96565 0.6422 0.0
H1130 H 0.3658 0.02103 0.72861 0.0
H1131 H 0.38522 0.01544 0.69035 0.0
H1132 H 0.32049 0.04234 0.64883 0.0
H1133 H 0.29334 0.00438 0.67106 0.0
H1134 H 0.30145 0.04767 0.64816 0.0
H1135 H 0.27478 0.01038 0.67001 0.0
H1136 H 0.33926 0.04403 0.70803 0.0
H1137 H 0.37074 0.05187 0.67645 0.0
H1138 H 0.35782 0.05831 0.7262 0.0
H1139 H 0.38876 0.06599 0.6952 0.0
H1140 H 0.2976 0.01875 0.72703 0.0
H1141 H 0.30596 0.05365 0.69999 0.0
H1142 H 0.34517 0.04746 0.60954 0.0
H1143 H 0.36761 0.07933 0.64264 0.0
Li1144 Li 0.0 0.31972 0.67048 0.0
Li1145 Li 0.98633 0.32752 0.68375 0.0
Li1146 Li 0.98175 0.30304 0.68663 0.0
Li1147 Li 0.97555 0.31052 0.66432 0.0
C1148 C 0.01162 0.32892 0.69818 0.0
N1149 N 0.03807 0.34455 0.71003 0.0
C1150 C 0.02042 0.34252 0.69364 0.0
C1151 C 0.01631 0.32321 0.70868 0.0
C1152 C 0.03374 0.35027 0.69976 0.0
C1153 C 0.0297 0.33129 0.71457 0.0
C1154 C 0.99465 0.34341 0.66029 0.0
C1155 C 0.98819 0.36092 0.6576 0.0
N1156 N 0.00178 0.37074 0.65586 0.0
C1157 C 0.00855 0.35368 0.65843 0.0
C1158 C 0.98438 0.34707 0.6598 0.0
C1159 C 0.01194 0.36743 0.65622 0.0
C1160 C 0.0195 0.32953 0.6482 0.0
N1161 N 0.01764 0.32498 0.66215 0.0
C1162 C 0.04082 0.32908 0.66325 0.0
C1163 C 0.02786 0.32433 0.66958 0.0
C1164 C 0.04323 0.33441 0.64907 0.0
C1165 C 0.03228 0.33438 0.64144 0.0
H1166 H 0.01111 0.3297 0.64243 0.0
H1167 H 0.02605 0.32023 0.68047 0.0
C1168 C 0.97399 0.33836 0.70196 0.0
N1169 N 0.98582 0.34224 0.6944 0.0
C1170 C 0.972 0.34831 0.70916 0.0
C1171 C 0.99474 0.36609 0.70144 0.0
C1172 C 0.99626 0.35578 0.69428 0.0
C1173 C 0.98237 0.3624 0.70877 0.0
H1174 H 0.96597 0.32753 0.70225 0.0
H1175 H 0.00562 0.35872 0.68833 0.0
C1176 C 0.99136 0.29179 0.66554 0.0
N1177 N 0.00352 0.27553 0.6641 0.0
C1178 C 0.98895 0.28308 0.65341 0.0
C1179 C 0.99994 0.29223 0.67695 0.0
C1180 C 0.9952 0.27493 0.65288 0.0
C1181 C 0.006 0.28394 0.67601 0.0
C1182 C 0.95448 0.30384 0.68117 0.0
C1183 C 0.94553 0.28949 0.68226 0.0
C1184 C 0.94923 0.3122 0.67654 0.0
C1185 C 0.93151 0.28371 0.67847 0.0
C1186 C 0.93516 0.30603 0.67284 0.0
N1187 N 0.92666 0.29203 0.67385 0.0
C1188 C 0.97932 0.29146 0.7143 0.0
C1189 C 0.96789 0.27486 0.69519 0.0
C1190 C 0.97437 0.28095 0.7246 0.0
N1191 N 0.97597 0.28826 0.69995 0.0
C1192 C 0.96241 0.26403 0.70515 0.0
C1193 C 0.9655 0.26699 0.72016 0.0
H1194 H 0.9856 0.30223 0.7178 0.0
H1195 H 0.96529 0.27264 0.68369 0.0
C1196 C 0.96018 0.31214 0.64018 0.0
N1197 N 0.96206 0.30348 0.64893 0.0
C1198 C 0.94974 0.30671 0.62944 0.0
C1199 C 0.9436 0.28353 0.63671 0.0
C1200 C 0.95416 0.28942 0.64729 0.0
C1201 C 0.94122 0.29221 0.62766 0.0
H1202 H 0.96669 0.32327 0.64158 0.0
H1203 H 0.95598 0.28278 0.65435 0.0
O1204 O 0.99862 0.32109 0.69211 0.0
O1205 O 0.9911 0.32986 0.66247 0.0
O1206 O 0.98535 0.29984 0.66615 0.0
O1207 O 0.96834 0.30965 0.6844 0.0
H1208 H 0.01713 0.34691 0.68521 0.0
H1209 H 0.00976 0.31261 0.71215 0.0
H1210 H 0.04068 0.3608 0.69628 0.0
H1211 H 0.03347 0.32701 0.7227 0.0
H1212 H 0.98035 0.36389 0.6573 0.0
H1213 H 0.01669 0.35116 0.65884 0.0
H1214 H 0.9736 0.33934 0.66129 0.0
H1215 H 0.02266 0.37547 0.65483 0.0
H1216 H 0.04888 0.32862 0.6694 0.0
H1217 H 0.03368 0.33845 0.63052 0.0
H1218 H 0.9624 0.34502 0.71492 0.0
H1219 H 0.00296 0.37686 0.70084 0.0
H1220 H 0.98233 0.28262 0.6445 0.0
H1221 H 0.00193 0.2989 0.68642 0.0
H1222 H 0.99343 0.26814 0.64355 0.0
H1223 H 0.01267 0.28419 0.68475 0.0
H1224 H 0.94937 0.28285 0.68583 0.0
H1225 H 0.95594 0.32333 0.67576 0.0
H1226 H 0.9245 0.2726 0.67915 0.0
H1227 H 0.93099 0.31238 0.66915 0.0
H1228 H 0.97737 0.28381 0.73593 0.0
H1229 H 0.95545 0.25354 0.70113 0.0
H1230 H 0.94821 0.31378 0.62278 0.0
H1231 H 0.93743 0.2723 0.63557 0.0
Li1232 Li 0.67826 0.67612 0.66431 0.0
Li1233 Li 0.66781 0.65487 0.67867 0.0
Li1234 Li 0.69207 0.67328 0.6825 0.0
Li1235 Li 0.6849 0.65851 0.66043 0.0
C1236 C 0.66929 0.6823 0.68771 0.0
N1237 N 0.65711 0.6985 0.69008 0.0
C1238 C 0.65486 0.67603 0.68859 0.0
C1239 C 0.67753 0.69682 0.68811 0.0
C1240 C 0.6489 0.6844 0.68978 0.0
C1241 C 0.67118 0.70482 0.68927 0.0
C1242 C 0.662 0.64956 0.64452 0.0
C1243 C 0.65211 0.62816 0.63037 0.0
N1244 N 0.65413 0.63547 0.61796 0.0
C1245 C 0.66392 0.65685 0.63164 0.0
C1246 C 0.65598 0.63509 0.64392 0.0
C1247 C 0.65989 0.64954 0.61831 0.0
C1248 C 0.6838 0.70198 0.65231 0.0
N1249 N 0.67391 0.68857 0.65488 0.0
C1250 C 0.65625 0.69217 0.6448 0.0
C1251 C 0.66036 0.68355 0.65125 0.0
C1252 C 0.66617 0.70613 0.64224 0.0
C1253 C 0.68011 0.71104 0.64607 0.0
H1254 H 0.6945 0.70569 0.65528 0.0
H1255 H 0.65272 0.67285 0.65353 0.0
C1256 C 0.65135 0.64014 0.70276 0.0
N1257 N 0.65119 0.64185 0.68812 0.0
C1258 C 0.63904 0.63151 0.71005 0.0
C1259 C 0.62654 0.62696 0.68713 0.0
C1260 C 0.63914 0.63542 0.68024 0.0
C1261 C 0.62633 0.62495 0.70229 0.0
H1262 H 0.66101 0.64573 0.70885 0.0
H1263 H 0.63925 0.63729 0.66868 0.0
C1264 C 0.71107 0.68746 0.66341 0.0
N1265 N 0.73941 0.70398 0.66792 0.0
C1266 C 0.71989 0.68245 0.65968 0.0
C1267 C 0.71667 0.7009 0.66937 0.0
C1268 C 0.73419 0.69096 0.66205 0.0
C1269 C 0.73101 0.70907 0.6716 0.0
C1270 C 0.68024 0.64184 0.68965 0.0
C1271 C 0.68478 0.64389 0.70421 0.0
C1272 C 0.67106 0.62837 0.68437 0.0
C1273 C 0.67996 0.63241 0.71327 0.0
C1274 C 0.66646 0.61717 0.69378 0.0
N1275 N 0.67097 0.6194 0.70791 0.0
C1276 C 0.70703 0.69206 0.70598 0.0
C1277 C 0.71623 0.67824 0.69742 0.0
C1278 C 0.71769 0.69854 0.7164 0.0
N1279 N 0.70654 0.68217 0.69674 0.0
C1280 C 0.72702 0.68439 0.70772 0.0
C1281 C 0.72787 0.6947 0.71741 0.0
H1282 H 0.69912 0.69489 0.70529 0.0
H1283 H 0.71548 0.67024 0.69001 0.0
C1284 C 0.6934 0.65521 0.6325 0.0
N1285 N 0.69061 0.64991 0.64615 0.0
C1286 C 0.69808 0.64956 0.62183 0.0
C1287 C 0.69732 0.63334 0.63957 0.0
C1288 C 0.6925 0.63921 0.64986 0.0
C1289 C 0.70018 0.63854 0.62534 0.0
H1290 H 0.6922 0.664 0.62999 0.0
H1291 H 0.6905 0.63539 0.66087 0.0
O1292 O 0.6753 0.67429 0.68612 0.0
O1293 O 0.66608 0.65654 0.65766 0.0
O1294 O 0.69701 0.67917 0.66151 0.0
O1295 O 0.68478 0.65295 0.68063 0.0
H1296 H 0.6483 0.66483 0.68823 0.0
H1297 H 0.6887 0.70186 0.68719 0.0
H1298 H 0.63775 0.67968 0.69041 0.0
H1299 H 0.67742 0.71607 0.68945 0.0
H1300 H 0.6475 0.61697 0.62973 0.0
H1301 H 0.66866 0.66806 0.63189 0.0
H1302 H 0.65437 0.62929 0.65379 0.0
H1303 H 0.66139 0.65506 0.60824 0.0
H1304 H 0.64538 0.68806 0.64213 0.0
H1305 H 0.68805 0.72174 0.64418 0.0
H1306 H 0.63951 0.63019 0.72168 0.0
H1307 H 0.61704 0.62246 0.68069 0.0
H1308 H 0.71576 0.67206 0.65516 0.0
H1309 H 0.70998 0.70486 0.67255 0.0
H1310 H 0.74113 0.6872 0.65927 0.0
H1311 H 0.73547 0.71943 0.67632 0.0
H1312 H 0.69183 0.65423 0.70852 0.0
H1313 H 0.66745 0.62661 0.67314 0.0
H1314 H 0.68334 0.63384 0.72457 0.0
H1315 H 0.6593 0.6067 0.68985 0.0
H1316 H 0.718 0.70654 0.72352 0.0
H1317 H 0.73447 0.6809 0.70825 0.0
H1318 H 0.70041 0.65402 0.61105 0.0
H1319 H 0.69881 0.62484 0.64269 0.0
Li1320 Li 0.34447 0.33307 0.68688 0.0
Li1321 Li 0.32589 0.30895 0.68875 0.0
Li1322 Li 0.34071 0.31653 0.66703 0.0
Li1323 Li 0.32357 0.32381 0.67125 0.0
C1324 C 0.35882 0.31881 0.69243 0.0
N1325 N 0.38456 0.32435 0.70234 0.0
C1326 C 0.36039 0.3152 0.70656 0.0
C1327 C 0.37031 0.32511 0.68328 0.0
C1328 C 0.3735 0.31811 0.71138 0.0
C1329 C 0.38324 0.32787 0.68851 0.0
C1330 C 0.31236 0.32262 0.69843 0.0
C1331 C 0.28745 0.30778 0.69875 0.0
N1332 N 0.2868 0.31595 0.70952 0.0
C1333 C 0.31145 0.33088 0.70949 0.0
C1334 C 0.30028 0.31097 0.693 0.0
C1335 C 0.29843 0.32733 0.71496 0.0
C1336 C 0.35395 0.36003 0.69412 0.0
N1337 N 0.35716 0.35001 0.69672 0.0
C1338 C 0.37703 0.36605 0.71102 0.0
C1339 C 0.36836 0.35268 0.70511 0.0
C1340 C 0.37411 0.37667 0.70815 0.0
C1341 C 0.36231 0.37347 0.69971 0.0
H1342 H 0.34492 0.35756 0.68751 0.0
H1343 H 0.37071 0.34457 0.70711 0.0
C1344 C 0.30725 0.28139 0.6972 0.0
N1345 N 0.31646 0.29445 0.70217 0.0
C1346 C 0.30037 0.27059 0.70702 0.0
C1347 C 0.31258 0.28693 0.72687 0.0
C1348 C 0.31918 0.29743 0.71666 0.0
C1349 C 0.30306 0.27328 0.72208 0.0
H1350 H 0.30534 0.27936 0.6856 0.0
H1351 H 0.32654 0.30796 0.72026 0.0
C1352 C 0.35267 0.34632 0.65818 0.0
N1353 N 0.37206 0.36892 0.64274 0.0
C1354 C 0.34852 0.35099 0.64616 0.0
C1355 C 0.36669 0.35316 0.66234 0.0
C1356 C 0.35848 0.36242 0.63849 0.0
C1357 C 0.37633 0.36456 0.6544 0.0
C1358 C 0.31472 0.30013 0.65382 0.0
C1359 C 0.32055 0.30921 0.64218 0.0
C1360 C 0.30367 0.28662 0.65116 0.0
C1361 C 0.31525 0.30461 0.62807 0.0
C1362 C 0.29866 0.28241 0.63689 0.0
N1363 N 0.30451 0.29142 0.62573 0.0
C1364 C 0.34544 0.29717 0.6522 0.0
C1365 C 0.35752 0.31972 0.64222 0.0
C1366 C 0.3504 0.29201 0.64126 0.0
N1367 N 0.34898 0.31078 0.65242 0.0
C1368 C 0.36277 0.31504 0.63114 0.0
C1369 C 0.3591 0.30098 0.63044 0.0
H1370 H 0.33852 0.29027 0.66039 0.0
H1371 H 0.36015 0.33046 0.64253 0.0
C1372 C 0.31703 0.34356 0.66374 0.0
N1373 N 0.31187 0.32962 0.66269 0.0
C1374 C 0.3095 0.34936 0.65826 0.0
C1375 C 0.29134 0.32633 0.65067 0.0
C1376 C 0.29926 0.32094 0.65637 0.0
C1377 C 0.29643 0.34073 0.65168 0.0
H1378 H 0.32706 0.35018 0.66887 0.0
H1379 H 0.29529 0.30985 0.65589 0.0
O1380 O 0.34605 0.31596 0.68756 0.0
O1381 O 0.32506 0.32603 0.69297 0.0
O1382 O 0.34301 0.33518 0.66586 0.0
O1383 O 0.31972 0.30434 0.66777 0.0
H1384 H 0.35157 0.31023 0.71374 0.0
H1385 H 0.36926 0.32785 0.67228 0.0
H1386 H 0.37488 0.31542 0.72231 0.0
H1387 H 0.39223 0.33279 0.68157 0.0
H1388 H 0.27801 0.2988 0.69465 0.0
H1389 H 0.32072 0.33994 0.71378 0.0
H1390 H 0.30076 0.30446 0.68443 0.0
H1391 H 0.29757 0.33363 0.72352 0.0
H1392 H 0.38606 0.36814 0.71747 0.0
H1393 H 0.35955 0.38128 0.69745 0.0
H1394 H 0.29326 0.26019 0.70284 0.0
H1395 H 0.31486 0.28947 0.73839 0.0
H1396 H 0.33773 0.3458 0.64274 0.0
H1397 H 0.37012 0.34974 0.67162 0.0
H1398 H 0.35542 0.36613 0.62915 0.0
H1399 H 0.38721 0.36995 0.65752 0.0
H1400 H 0.32907 0.31969 0.64396 0.0
H1401 H 0.299 0.27945 0.66003 0.0
H1402 H 0.31969 0.31154 0.61897 0.0
H1403 H 0.29011 0.27198 0.63468 0.0
H1404 H 0.34715 0.28106 0.64105 0.0
H1405 H 0.36961 0.32238 0.62318 0.0
H1406 H 0.3139 0.36053 0.65908 0.0
H1407 H 0.28125 0.31931 0.64581 0.0
Li1408 Li 0.68439 0.02679 0.67597 0.0
Li1409 Li 0.7075 0.02995 0.67999 0.0
Li1410 Li 0.70139 0.03715 0.65655 0.0
Li1411 Li 0.69208 0.01247 0.6616 0.0
C1412 C 0.69976 0.0541 0.68325 0.0
N1413 N 0.69383 0.07295 0.69637 0.0
C1414 C 0.70694 0.06141 0.69591 0.0
C1415 C 0.6897 0.05653 0.67717 0.0
C1416 C 0.70375 0.07086 0.70241 0.0
C1417 C 0.68681 0.06606 0.68398 0.0
C1418 C 0.68912 0.00644 0.69535 0.0
C1419 C 0.69162 0.98887 0.70776 0.0
N1420 N 0.6889 0.99314 0.72067 0.0
C1421 C 0.68613 0.0105 0.70871 0.0
C1422 C 0.6917 0.99541 0.69483 0.0
C1423 C 0.68616 0.00371 0.7214 0.0
C1424 C 0.65613 0.01719 0.67776 0.0
N1425 N 0.66837 0.02528 0.68498 0.0
C1426 C 0.65669 0.02958 0.70439 0.0
C1427 C 0.66886 0.03135 0.69814 0.0
C1428 C 0.64387 0.0213 0.69713 0.0
C1429 C 0.64372 0.01503 0.68365 0.0
H1430 H 0.65601 0.01225 0.66746 0.0
H1431 H 0.67869 0.03756 0.70381 0.0
C1432 C 0.73329 0.03451 0.69189 0.0
N1433 N 0.7213 0.03439 0.69484 0.0
C1434 C 0.74301 0.03733 0.70302 0.0
C1435 C 0.72825 0.04061 0.71984 0.0
C1436 C 0.71871 0.03748 0.70846 0.0
C1437 C 0.74051 0.0404 0.71719 0.0
H1438 H 0.73537 0.03247 0.68093 0.0
H1439 H 0.70921 0.03753 0.71049 0.0
C1440 C 0.6774 0.02324 0.64153 0.0
N1441 N 0.66888 0.02682 0.61438 0.0
C1442 C 0.67958 0.01723 0.62909 0.0
C1443 C 0.67072 0.03092 0.64019 0.0
C1444 C 0.67524 0.01919 0.61546 0.0
C1445 C 0.66654 0.03265 0.62636 0.0
C1446 C 0.71895 0.0208 0.65457 0.0
C1447 C 0.72589 0.02443 0.64126 0.0
C1448 C 0.71904 0.01044 0.66289 0.0
C1449 C 0.73268 0.0175 0.63643 0.0
C1450 C 0.72594 0.00375 0.65769 0.0
N1451 N 0.73254 0.00738 0.64467 0.0
C1452 C 0.70895 0.06309 0.64385 0.0
C1453 C 0.70993 0.0468 0.62773 0.0
C1454 C 0.71222 0.07248 0.63256 0.0
N1455 N 0.70761 0.05042 0.64122 0.0
C1456 C 0.71347 0.05598 0.61615 0.0
C1457 C 0.71441 0.0689 0.61849 0.0
H1458 H 0.70733 0.06589 0.65466 0.0
H1459 H 0.70869 0.03663 0.62587 0.0
C1460 C 0.67289 0.98444 0.66007 0.0
N1461 N 0.68473 0.99417 0.65362 0.0
C1462 C 0.66564 0.97083 0.65453 0.0
C1463 C 0.68302 0.97739 0.63589 0.0
C1464 C 0.68992 0.99093 0.64176 0.0
C1465 C 0.6706 0.9672 0.64218 0.0
H1466 H 0.6689 0.98736 0.66935 0.0
H1467 H 0.69911 0.99891 0.63653 0.0
O1468 O 0.70265 0.04469 0.6768 0.0
O1469 O 0.68911 0.01297 0.6828 0.0
O1470 O 0.68178 0.02161 0.65494 0.0
O1471 O 0.71202 0.02729 0.65936 0.0
H1472 H 0.71497 0.05992 0.70061 0.0
H1473 H 0.68412 0.05104 0.66734 0.0
H1474 H 0.70921 0.07656 0.71223 0.0
H1475 H 0.67898 0.06795 0.67943 0.0
H1476 H 0.69366 0.98036 0.70752 0.0
H1477 H 0.68394 0.01889 0.7093 0.0
H1478 H 0.69361 0.99182 0.68456 0.0
H1479 H 0.684 0.00685 0.73183 0.0
H1480 H 0.65735 0.03472 0.71473 0.0
H1481 H 0.63408 0.00832 0.6778 0.0
H1482 H 0.75246 0.03726 0.70055 0.0
H1483 H 0.72596 0.04289 0.73066 0.0
H1484 H 0.68477 0.0113 0.62991 0.0
H1485 H 0.66873 0.03546 0.64971 0.0
H1486 H 0.67698 0.01469 0.60572 0.0
H1487 H 0.66141 0.03862 0.62516 0.0
H1488 H 0.72611 0.03255 0.63476 0.0
H1489 H 0.71391 0.00767 0.67328 0.0
H1490 H 0.73806 0.02018 0.62614 0.0
H1491 H 0.72606 0.99569 0.66402 0.0
H1492 H 0.713 0.08243 0.63477 0.0
H1493 H 0.715 0.05286 0.60539 0.0
H1494 H 0.65617 0.96326 0.65977 0.0
H1495 H 0.68707 0.97505 0.62622 0.0
Li1496 Li 0.97273 0.67676 0.69221 0.0
Li1497 Li 0.97643 0.6568 0.68959 0.0
Li1498 Li 0.99071 0.67857 0.67723 0.0
Li1499 Li 0.9662 0.66324 0.6696 0.0
C1500 C 0.0024 0.68192 0.70371 0.0
N1501 N 0.02976 0.69518 0.71332 0.0
C1502 C 0.00882 0.67423 0.7067 0.0
C1503 C 0.00983 0.69635 0.706 0.0
C1504 C 0.02267 0.68111 0.71145 0.0
C1505 C 0.02367 0.70287 0.71075 0.0
C1506 C 0.94751 0.64328 0.68812 0.0
C1507 C 0.93744 0.61975 0.67876 0.0
N1508 N 0.92544 0.61629 0.6858 0.0
C1509 C 0.93508 0.63951 0.69524 0.0
C1510 C 0.94871 0.63334 0.67979 0.0
C1511 C 0.92405 0.6258 0.69394 0.0
C1512 C 0.95578 0.68721 0.70254 0.0
N1513 N 0.96726 0.68634 0.70546 0.0
C1514 C 0.97139 0.69934 0.72773 0.0
C1515 C 0.975 0.69213 0.71779 0.0
C1516 C 0.95967 0.70058 0.72497 0.0
C1517 C 0.95179 0.69435 0.71218 0.0
H1518 H 0.94976 0.68239 0.69268 0.0
H1519 H 0.98392 0.69107 0.71998 0.0
C1520 C 0.98593 0.63841 0.69231 0.0
N1521 N 0.97666 0.64153 0.69815 0.0
C1522 C 0.98698 0.62732 0.69753 0.0
C1523 C 0.9688 0.62267 0.71468 0.0
C1524 C 0.96817 0.63399 0.70917 0.0
C1525 C 0.97828 0.61918 0.70879 0.0
H1526 H 0.99273 0.64477 0.68377 0.0
H1527 H 0.96087 0.63671 0.71359 0.0
C1528 C 0.9765 0.69599 0.67273 0.0
N1529 N 0.97544 0.7202 0.67526 0.0
C1530 C 0.96588 0.69701 0.66579 0.0
C1531 C 0.98676 0.70744 0.68064 0.0
C1532 C 0.96547 0.70929 0.66727 0.0
C1533 C 0.986 0.71955 0.68189 0.0
C1534 C 0.98641 0.65953 0.65507 0.0
C1535 C 0.98731 0.6694 0.64518 0.0
C1536 C 0.99045 0.65003 0.65074 0.0
C1537 C 0.99229 0.66962 0.63116 0.0
C1538 C 0.99536 0.65058 0.63662 0.0
N1539 N 0.99618 0.66029 0.62721 0.0
C1540 C 0.01704 0.68344 0.67106 0.0
C1541 C 0.01364 0.70168 0.66316 0.0
C1542 C 0.03019 0.68978 0.66495 0.0
N1543 N 0.00907 0.68943 0.67008 0.0
C1544 C 0.02677 0.70837 0.65679 0.0
C1545 C 0.03515 0.70231 0.65748 0.0
H1546 H 0.01298 0.6735 0.67627 0.0
H1547 H 0.00695 0.70601 0.66215 0.0
C1548 C 0.94273 0.65872 0.65291 0.0
N1549 N 0.9527 0.6552 0.65403 0.0
C1550 C 0.93305 0.65342 0.64139 0.0
C1551 C 0.94336 0.64006 0.63309 0.0
C1552 C 0.95289 0.64571 0.64466 0.0
C1553 C 0.93343 0.64412 0.63112 0.0
H1554 H 0.94226 0.66561 0.66099 0.0
H1555 H 0.96033 0.64238 0.64619 0.0
O1556 O 0.98886 0.67534 0.69883 0.0
O1557 O 0.95835 0.6567 0.68924 0.0
O1558 O 0.97693 0.68394 0.67168 0.0
O1559 O 0.98183 0.65928 0.66898 0.0
H1560 H 0.00324 0.66307 0.70535 0.0
H1561 H 0.00499 0.70249 0.70428 0.0
H1562 H 0.02777 0.67526 0.71367 0.0
H1563 H 0.02954 0.71404 0.71245 0.0
H1564 H 0.93822 0.61195 0.67236 0.0
H1565 H 0.93399 0.64711 0.70169 0.0
H1566 H 0.95822 0.63605 0.67417 0.0
H1567 H 0.91437 0.62273 0.6994 0.0
H1568 H 0.9776 0.70372 0.73758 0.0
H1569 H 0.94273 0.69512 0.70957 0.0
H1570 H 0.99469 0.62526 0.6929 0.0
H1571 H 0.96183 0.61662 0.7233 0.0
H1572 H 0.95808 0.68848 0.65924 0.0
H1573 H 0.99523 0.70699 0.68572 0.0
H1574 H 0.95725 0.71016 0.66203 0.0
H1575 H 0.99383 0.72843 0.6881 0.0
H1576 H 0.98424 0.67684 0.64826 0.0
H1577 H 0.98975 0.64225 0.65817 0.0
H1578 H 0.99306 0.67722 0.62343 0.0
H1579 H 0.99852 0.64329 0.63314 0.0
H1580 H 0.03633 0.6848 0.66588 0.0
H1581 H 0.03009 0.71791 0.65094 0.0
H1582 H 0.92553 0.65678 0.64042 0.0
H1583 H 0.94374 0.63253 0.62581 0.0
C1584 C 0.18965 0.28597 0.05705 0.0
C1585 C 0.19873 0.29429 0.0702 0.0
C1586 C 0.18774 0.28499 0.09333 0.0
C1587 C 0.19026 0.29711 0.10084 0.0
C1588 C 0.18118 0.29657 0.1117 0.0
C1589 C 0.16936 0.28362 0.11503 0.0
C1590 C 0.16726 0.27128 0.10803 0.0
C1591 C 0.17664 0.27212 0.09737 0.0
C1592 C 0.18392 0.30988 0.11921 0.0
C1593 C 0.15478 0.25731 0.11133 0.0
C1594 C 0.09121 0.2991 0.07052 0.0
C1595 C 0.09858 0.29275 0.07772 0.0
C1596 C 0.111 0.29448 0.10032 0.0
C1597 C 0.10936 0.28112 0.10001 0.0
C1598 C 0.11776 0.27804 0.10875 0.0
C1599 C 0.12819 0.2886 0.1178 0.0
C1600 C 0.12973 0.30202 0.11831 0.0
C1601 C 0.1209 0.30468 0.10975 0.0
C1602 C 0.11563 0.26354 0.10815 0.0
C1603 C 0.14093 0.31363 0.12756 0.0
C1604 C 0.10209 0.27542 0.21144 0.0
C1605 C 0.09906 0.26315 0.20378 0.0
C1606 C 0.10939 0.26236 0.19585 0.0
C1607 C 0.12295 0.27412 0.19543 0.0
C1608 C 0.1261 0.28635 0.20344 0.0
C1609 C 0.11564 0.28677 0.21144 0.0
C1610 C 0.10577 0.24906 0.18771 0.0
C1611 C 0.14046 0.29907 0.20329 0.0
C1612 C 0.21144 0.2567 0.1996 0.0
C1613 C 0.20682 0.26605 0.20703 0.0
C1614 C 0.18319 0.26172 0.20443 0.0
C1615 C 0.17007 0.25095 0.20003 0.0
C1616 C 0.16027 0.25381 0.19387 0.0
C1617 C 0.16365 0.2678 0.19237 0.0
C1618 C 0.17662 0.27873 0.19762 0.0
C1619 C 0.18628 0.27557 0.2036 0.0
C1620 C 0.14645 0.2419 0.18857 0.0
C1621 C 0.18037 0.29374 0.19664 0.0
C1622 C 0.15842 0.28325 0.12448 0.0
C1623 C 0.14883 0.28606 0.11791 0.0
C1624 C 0.13809 0.28584 0.12586 0.0
C1625 C 0.13685 0.2828 0.14089 0.0
C1626 C 0.12615 0.28245 0.14924 0.0
C1627 C 0.12516 0.27964 0.16408 0.0
C1628 C 0.13467 0.2768 0.17109 0.0
C1629 C 0.1337 0.27387 0.18617 0.0
C1630 C 0.14326 0.27098 0.19277 0.0
C1631 C 0.15387 0.271 0.18472 0.0
C1632 C 0.15508 0.27401 0.16966 0.0
C1633 C 0.16569 0.2742 0.16124 0.0
C1634 C 0.16687 0.27731 0.14646 0.0
C1635 C 0.15739 0.28017 0.13949 0.0
C1636 C 0.14656 0.27997 0.14774 0.0
C1637 C 0.14543 0.27691 0.16284 0.0
C1638 C 0.0729 0.27043 0.20284 0.0
C1639 C 0.07803 0.26862 0.21776 0.0
O1640 O 0.19568 0.2855 0.08193 0.0
O1641 O 0.19262 0.25839 0.20931 0.0
O1642 O 0.09237 0.27688 0.21887 0.0
O1643 O 0.1032 0.29785 0.09179 0.0
H1644 H 0.19618 0.30255 0.0727 0.0
H1645 H 0.17853 0.28164 0.05971 0.0
H1646 H 0.19127 0.27719 0.05412 0.0
H1647 H 0.19211 0.29282 0.04748 0.0
H1648 H 0.19919 0.30701 0.09804 0.0
H1649 H 0.17495 0.26281 0.09163 0.0
H1650 H 0.17605 0.3125 0.11552 0.0
H1651 H 0.19441 0.31875 0.11679 0.0
H1652 H 0.18293 0.30849 0.13122 0.0
H1653 H 0.15476 0.24867 0.1051 0.0
H1654 H 0.14512 0.2574 0.10858 0.0
H1655 H 0.15456 0.25526 0.12317 0.0
H1656 H 0.09313 0.2812 0.07664 0.0
H1657 H 0.0803 0.2902 0.06866 0.0
H1658 H 0.10426 0.31027 0.05335 0.0
H1659 H 0.08833 0.30418 0.07947 0.0
H1660 H 0.10145 0.27299 0.0931 0.0
H1661 H 0.122 0.31492 0.11 0.0
H1662 H 0.11537 0.25975 0.11936 0.0
H1663 H 0.12448 0.26376 0.10242 0.0
H1664 H 0.10588 0.25604 0.10228 0.0
H1665 H 0.1414 0.32372 0.12591 0.0
H1666 H 0.1512 0.3149 0.12495 0.0
H1667 H 0.13897 0.31099 0.13927 0.0
H1668 H 0.07491 0.25752 0.21917 0.0
H1669 H 0.08868 0.25417 0.20387 0.0
H1670 H 0.11791 0.29614 0.21748 0.0
H1671 H 0.10633 0.25085 0.17578 0.0
H1672 H 0.09518 0.24043 0.19025 0.0
H1673 H 0.11341 0.24582 0.19045 0.0
H1674 H 0.14111 0.30791 0.20971 0.0
H1675 H 0.1435 0.3024 0.19187 0.0
H1676 H 0.14808 0.29648 0.20787 0.0
H1677 H 0.20942 0.27461 0.19926 0.0
H1678 H 0.22286 0.26256 0.19794 0.0
H1679 H 0.20622 0.2531 0.18875 0.0
H1680 H 0.20867 0.24739 0.20622 0.0
H1681 H 0.1677 0.24029 0.20097 0.0
H1682 H 0.19624 0.28393 0.20757 0.0
H1683 H 0.14514 0.24292 0.17671 0.0
H1684 H 0.13791 0.24229 0.19429 0.0
H1685 H 0.14545 0.2316 0.19043 0.0
H1686 H 0.19034 0.30093 0.20234 0.0
H1687 H 0.17202 0.29512 0.20144 0.0
H1688 H 0.18128 0.29667 0.18499 0.0
H1689 H 0.14969 0.28839 0.10636 0.0
H1690 H 0.11848 0.28444 0.1444 0.0
H1691 H 0.11679 0.27967 0.16996 0.0
H1692 H 0.14245 0.26875 0.20433 0.0
H1693 H 0.17325 0.27201 0.16599 0.0
H1694 H 0.17528 0.27739 0.14054 0.0
H1695 H 0.06139 0.26402 0.20205 0.0
H1696 H 0.07724 0.26702 0.1939 0.0
H1697 H 0.07612 0.28153 0.20121 0.0
C1698 C 0.74243 0.9155 0.06063 0.0
C1699 C 0.73087 0.91121 0.07179 0.0
C1700 C 0.73306 0.90629 0.09702 0.0
C1701 C 0.71909 0.89704 0.10017 0.0
C1702 C 0.71545 0.88712 0.11109 0.0
C1703 C 0.72603 0.88628 0.11878 0.0
C1704 C 0.74017 0.89602 0.11599 0.0
C1705 C 0.74348 0.90612 0.10533 0.0
C1706 C 0.70029 0.8772 0.11398 0.0
C1707 C 0.75178 0.89533 0.12369 0.0
C1708 C 0.70022 0.77945 0.08885 0.0
C1709 C 0.70819 0.79361 0.09562 0.0
C1710 C 0.70445 0.81207 0.10507 0.0
C1711 C 0.71808 0.82061 0.11047 0.0
C1712 C 0.72181 0.83297 0.11829 0.0
C1713 C 0.71164 0.83669 0.12107 0.0
C1714 C 0.69791 0.82808 0.11572 0.0
C1715 C 0.69454 0.81594 0.10767 0.0
C1716 C 0.73664 0.84207 0.12353 0.0
C1717 C 0.6868 0.8317 0.11851 0.0
C1718 C 0.71922 0.81986 0.2141 0.0
C1719 C 0.73191 0.83025 0.20841 0.0
C1720 C 0.73278 0.84166 0.20114 0.0
C1721 C 0.72079 0.84281 0.19963 0.0
C1722 C 0.70812 0.83262 0.20571 0.0
C1723 C 0.70752 0.82127 0.21285 0.0
C1724 C 0.74648 0.85234 0.19477 0.0
C1725 C 0.69516 0.83356 0.2043 0.0
C1726 C 0.75391 0.95344 0.21436 0.0
C1727 C 0.74148 0.93921 0.2179 0.0
C1728 C 0.74115 0.91739 0.21296 0.0
C1729 C 0.75042 0.91281 0.20986 0.0
C1730 C 0.74604 0.90018 0.20234 0.0
C1731 C 0.73189 0.89172 0.19821 0.0
C1732 C 0.72231 0.89603 0.20187 0.0
C1733 C 0.72706 0.90888 0.20915 0.0
C1734 C 0.75656 0.89592 0.19879 0.0
C1735 C 0.70707 0.88706 0.19809 0.0
C1736 C 0.72234 0.87423 0.12829 0.0
C1737 C 0.71848 0.8615 0.12134 0.0
C1738 C 0.71544 0.84974 0.12932 0.0
C1739 C 0.71641 0.85064 0.14473 0.0
C1740 C 0.71366 0.83906 0.15308 0.0
C1741 C 0.71523 0.84019 0.16819 0.0
C1742 C 0.71933 0.85288 0.17556 0.0
C1743 C 0.7214 0.85422 0.19088 0.0
C1744 C 0.7251 0.86686 0.19794 0.0
C1745 C 0.72718 0.87841 0.19005 0.0
C1746 C 0.72557 0.87738 0.17465 0.0
C1747 C 0.728 0.88888 0.16629 0.0
C1748 C 0.72672 0.88783 0.15112 0.0
C1749 C 0.72312 0.87529 0.14372 0.0
C1750 C 0.72032 0.86348 0.15195 0.0
C1751 C 0.72162 0.86455 0.16741 0.0
C1752 C 0.72979 0.79869 0.20778 0.0
C1753 C 0.72765 0.8044 0.22228 0.0
O1754 O 0.73675 0.9151 0.08567 0.0
O1755 O 0.74616 0.92993 0.21983 0.0
O1756 O 0.71772 0.80827 0.22062 0.0
O1757 O 0.70046 0.8001 0.09733 0.0
H1758 H 0.72427 0.89965 0.07081 0.0
H1759 H 0.74832 0.91015 0.06292 0.0
H1760 H 0.74977 0.92692 0.06118 0.0
H1761 H 0.73795 0.9125 0.04941 0.0
H1762 H 0.71105 0.89745 0.09392 0.0
H1763 H 0.75423 0.91344 0.10285 0.0
H1764 H 0.69711 0.867 0.10863 0.0
H1765 H 0.6936 0.88106 0.10958 0.0
H1766 H 0.69846 0.8755 0.12588 0.0
H1767 H 0.76212 0.90275 0.11917 0.0
H1768 H 0.75013 0.88465 0.12277 0.0
H1769 H 0.75188 0.89784 0.13546 0.0
H1770 H 0.71859 0.80047 0.09079 0.0
H1771 H 0.70551 0.78025 0.07817 0.0
H1772 H 0.69065 0.77862 0.08366 0.0
H1773 H 0.69932 0.76635 0.10554 0.0
H1774 H 0.72589 0.81779 0.10853 0.0
H1775 H 0.68406 0.8093 0.10347 0.0
H1776 H 0.73705 0.84212 0.13564 0.0
H1777 H 0.74069 0.85297 0.12011 0.0
H1778 H 0.74358 0.83843 0.11926 0.0
H1779 H 0.67635 0.82326 0.11485 0.0
H1780 H 0.68932 0.84131 0.11259 0.0
H1781 H 0.68646 0.83384 0.13034 0.0
H1782 H 0.73767 0.81358 0.22592 0.0
H1783 H 0.74115 0.82949 0.20938 0.0
H1784 H 0.69779 0.81327 0.21732 0.0
H1785 H 0.74538 0.85248 0.18273 0.0
H1786 H 0.75496 0.85021 0.19727 0.0
H1787 H 0.74948 0.86286 0.1991 0.0
H1788 H 0.68626 0.82513 0.21018 0.0
H1789 H 0.69226 0.83291 0.19258 0.0
H1790 H 0.69718 0.84378 0.20867 0.0
H1791 H 0.73419 0.93596 0.20838 0.0
H1792 H 0.75049 0.96108 0.21242 0.0
H1793 H 0.759 0.9526 0.20431 0.0
H1794 H 0.76166 0.95736 0.22347 0.0
H1795 H 0.76124 0.91937 0.21307 0.0
H1796 H 0.71974 0.91217 0.21202 0.0
H1797 H 0.75561 0.89261 0.18714 0.0
H1798 H 0.75454 0.88691 0.20554 0.0
H1799 H 0.76739 0.90446 0.20099 0.0
H1800 H 0.70077 0.89125 0.20289 0.0
H1801 H 0.70307 0.87633 0.20203 0.0
H1802 H 0.70564 0.88639 0.18605 0.0
H1803 H 0.71799 0.86078 0.1095 0.0
H1804 H 0.71047 0.82902 0.14801 0.0
H1805 H 0.71319 0.83097 0.17401 0.0
H1806 H 0.72674 0.86782 0.20968 0.0
H1807 H 0.731 0.89886 0.17137 0.0
H1808 H 0.72872 0.89701 0.14523 0.0
H1809 H 0.73746 0.79523 0.20929 0.0
H1810 H 0.71984 0.78974 0.20366 0.0
H1811 H 0.73382 0.80682 0.19935 0.0
C1812 C 0.18379 0.89898 0.0734 0.0
C1813 C 0.19462 0.90813 0.08509 0.0
C1814 C 0.18346 0.89411 0.10673 0.0
C1815 C 0.1731 0.89767 0.10819 0.0
C1816 C 0.16196 0.89041 0.11768 0.0
C1817 C 0.16113 0.87935 0.12586 0.0
C1818 C 0.17181 0.8761 0.12487 0.0
C1819 C 0.18291 0.88363 0.1154 0.0
C1820 C 0.15084 0.89427 0.11866 0.0
C1821 C 0.17125 0.86438 0.13346 0.0
C1822 C 0.06171 0.80379 0.09577 0.0
C1823 C 0.07461 0.80356 0.0905 0.0
C1824 C 0.09277 0.81569 0.10945 0.0
C1825 C 0.10118 0.81388 0.11942 0.0
C1826 C 0.1118 0.8252 0.12726 0.0
C1827 C 0.11377 0.83866 0.12534 0.0
C1828 C 0.10524 0.8406 0.11532 0.0
C1829 C 0.0949 0.82911 0.10736 0.0
C1830 C 0.12091 0.82276 0.13756 0.0
C1831 C 0.10703 0.8548 0.11306 0.0
C1832 C 0.0807 0.83077 0.21358 0.0
C1833 C 0.09112 0.82735 0.212 0.0
C1834 C 0.10408 0.83692 0.20624 0.0
C1835 C 0.1066 0.85014 0.2019 0.0
C1836 C 0.0964 0.85389 0.20428 0.0
C1837 C 0.0836 0.84417 0.21026 0.0
C1838 C 0.1149 0.83274 0.20434 0.0
C1839 C 0.09882 0.86795 0.19995 0.0
C1840 C 0.20655 0.93477 0.21101 0.0
C1841 C 0.19899 0.93204 0.22561 0.0
C1842 C 0.17885 0.90881 0.21988 0.0
C1843 C 0.17454 0.89469 0.22038 0.0
C1844 C 0.16297 0.88476 0.21227 0.0
C1845 C 0.15528 0.88909 0.20377 0.0
C1846 C 0.15921 0.90333 0.20371 0.0
C1847 C 0.17108 0.9131 0.21163 0.0
C1848 C 0.15909 0.86968 0.21266 0.0
C1849 C 0.15097 0.90825 0.19517 0.0
C1850 C 0.14845 0.8704 0.13432 0.0
C1851 C 0.1373 0.85935 0.12682 0.0
C1852 C 0.12481 0.85068 0.13378 0.0
C1853 C 0.12321 0.85317 0.14862 0.0
C1854 C 0.11058 0.84498 0.15579 0.0
C1855 C 0.10925 0.84718 0.17053 0.0
C1856 C 0.12053 0.85761 0.17869 0.0
C1857 C 0.11942 0.85954 0.19382 0.0
C1858 C 0.13077 0.87009 0.20158 0.0
C1859 C 0.14337 0.87873 0.19466 0.0
C1860 C 0.1447 0.87689 0.17955 0.0
C1861 C 0.15725 0.88528 0.17224 0.0
C1862 C 0.15845 0.88333 0.15738 0.0
C1863 C 0.14727 0.87271 0.14933 0.0
C1864 C 0.13456 0.86408 0.15649 0.0
C1865 C 0.13324 0.86626 0.17157 0.0
C1866 C 0.04649 0.8032 0.20774 0.0
C1867 C 0.0607 0.80727 0.21435 0.0
O1868 O 0.19395 0.90024 0.09697 0.0
O1869 O 0.19052 0.91784 0.22753 0.0
O1870 O 0.06772 0.82134 0.21802 0.0
O1871 O 0.08272 0.80418 0.1023 0.0
H1872 H 0.19266 0.91654 0.08875 0.0
H1873 H 0.17312 0.89448 0.07769 0.0
H1874 H 0.18537 0.8903 0.06987 0.0
H1875 H 0.18461 0.90526 0.06374 0.0
H1876 H 0.17347 0.90593 0.10181 0.0
H1877 H 0.19101 0.88104 0.11433 0.0
H1878 H 0.14096 0.88565 0.11401 0.0
H1879 H 0.15362 0.90393 0.11268 0.0
H1880 H 0.14898 0.89577 0.13027 0.0
H1881 H 0.18058 0.86342 0.13181 0.0
H1882 H 0.16188 0.8544 0.13013 0.0
H1883 H 0.17034 0.86608 0.14528 0.0
H1884 H 0.08072 0.8126 0.08332 0.0
H1885 H 0.05512 0.80306 0.08629 0.0
H1886 H 0.06475 0.81361 0.10186 0.0
H1887 H 0.05549 0.79496 0.10313 0.0
H1888 H 0.09947 0.8035 0.12094 0.0
H1889 H 0.08847 0.83071 0.09971 0.0
H1890 H 0.11865 0.82431 0.14899 0.0
H1891 H 0.13204 0.83036 0.1356 0.0
H1892 H 0.1192 0.81206 0.13637 0.0
H1893 H 0.09865 0.85435 0.10607 0.0
H1894 H 0.11716 0.8616 0.1078 0.0
H1895 H 0.10715 0.8597 0.12375 0.0
H1896 H 0.06625 0.80504 0.2056 0.0
H1897 H 0.08909 0.81716 0.21513 0.0
H1898 H 0.07556 0.84678 0.21178 0.0
H1899 H 0.11611 0.83129 0.19254 0.0
H1900 H 0.11205 0.8229 0.20996 0.0
H1901 H 0.12511 0.8411 0.20865 0.0
H1902 H 0.08988 0.86932 0.20263 0.0
H1903 H 0.10067 0.86927 0.18802 0.0
H1904 H 0.10825 0.87629 0.20562 0.0
H1905 H 0.19263 0.93714 0.22579 0.0
H1906 H 0.21346 0.94612 0.20944 0.0
H1907 H 0.19897 0.93061 0.20178 0.0
H1908 H 0.2129 0.92966 0.21067 0.0
H1909 H 0.18053 0.89149 0.22689 0.0
H1910 H 0.17415 0.92398 0.21134 0.0
H1911 H 0.15792 0.8654 0.20138 0.0
H1912 H 0.14895 0.86354 0.21813 0.0
H1913 H 0.16694 0.86824 0.21864 0.0
H1914 H 0.15418 0.91923 0.19787 0.0
H1915 H 0.13971 0.90156 0.19735 0.0
H1916 H 0.15248 0.90741 0.18331 0.0
H1917 H 0.1384 0.85744 0.11538 0.0
H1918 H 0.10157 0.83675 0.1501 0.0
H1919 H 0.09928 0.8405 0.17545 0.0
H1920 H 0.12989 0.87141 0.21321 0.0
H1921 H 0.16629 0.89347 0.17792 0.0
H1922 H 0.16832 0.89013 0.15232 0.0
H1923 H 0.04036 0.80575 0.21538 0.0
H1924 H 0.04055 0.79187 0.20505 0.0
H1925 H 0.04792 0.80899 0.19752 0.0
C1926 C 0.27644 0.09873 0.95418 0.0
C1927 C 0.28183 0.09362 0.94158 0.0
C1928 C 0.28798 0.11178 0.92323 0.0
C1929 C 0.27431 0.10806 0.91927 0.0
C1930 C 0.27179 0.11601 0.9093 0.0
C1931 C 0.28312 0.12787 0.90314 0.0
C1932 C 0.29686 0.1315 0.9069 0.0
C1933 C 0.29909 0.12337 0.91687 0.0
C1934 C 0.25701 0.11186 0.90544 0.0
C1935 C 0.30919 0.14408 0.90053 0.0
C1936 C 0.25596 0.19265 0.94601 0.0
C1937 C 0.2693 0.19578 0.93822 0.0
C1938 C 0.26976 0.1855 0.91493 0.0
C1939 C 0.2831 0.18727 0.9152 0.0
C1940 C 0.28611 0.17849 0.90684 0.0
C1941 C 0.27541 0.16747 0.89841 0.0
C1942 C 0.26194 0.16579 0.89808 0.0
C1943 C 0.25943 0.17512 0.90605 0.0
C1944 C 0.30068 0.18089 0.90724 0.0
C1945 C 0.25002 0.15392 0.88975 0.0
C1946 C 0.27174 0.17741 0.79873 0.0
C1947 C 0.28412 0.17727 0.80002 0.0
C1948 C 0.2857 0.16897 0.81031 0.0
C1949 C 0.27438 0.16019 0.81925 0.0
C1950 C 0.26175 0.16024 0.818 0.0
C1951 C 0.26069 0.16914 0.80803 0.0
C1952 C 0.29943 0.16945 0.81143 0.0
C1953 C 0.24924 0.15073 0.82695 0.0
C1954 C 0.25694 0.06016 0.80794 0.0
C1955 C 0.26418 0.07154 0.79657 0.0
C1956 C 0.2751 0.09407 0.80989 0.0
C1957 C 0.28784 0.10594 0.81337 0.0
C1958 C 0.28848 0.11751 0.82045 0.0
C1959 C 0.27602 0.11706 0.82436 0.0
C1960 C 0.26308 0.10503 0.82103 0.0
C1961 C 0.26273 0.09367 0.81378 0.0
C1962 C 0.30245 0.13023 0.8237 0.0
C1963 C 0.24961 0.10419 0.82516 0.0
C1964 C 0.28069 0.13686 0.89322 0.0
C1965 C 0.27939 0.14763 0.8995 0.0
C1966 C 0.27797 0.15709 0.89086 0.0
C1967 C 0.27816 0.15598 0.87547 0.0
C1968 C 0.27787 0.16591 0.86641 0.0
C1969 C 0.27737 0.16433 0.85128 0.0
C1970 C 0.2769 0.15263 0.84464 0.0
C1971 C 0.27559 0.15049 0.8293 0.0
C1972 C 0.27533 0.13881 0.82312 0.0
C1973 C 0.2765 0.12923 0.83177 0.0
C1974 C 0.27782 0.13118 0.84711 0.0
C1975 C 0.27905 0.12175 0.85614 0.0
C1976 C 0.28021 0.1237 0.87124 0.0
C1977 C 0.27989 0.13498 0.87788 0.0
C1978 C 0.27866 0.14462 0.86898 0.0
C1979 C 0.27782 0.14283 0.85356 0.0
C1980 C 0.24822 0.17651 0.77734 0.0
C1981 C 0.26051 0.18848 0.78573 0.0
O1982 O 0.291 0.10472 0.93317 0.0
O1983 O 0.2753 0.0833 0.80292 0.0
O1984 O 0.27091 0.18541 0.78815 0.0
O1985 O 0.26654 0.19353 0.92336 0.0
H1986 H 0.27292 0.08598 0.93466 0.0
H1987 H 0.27059 0.10358 0.94993 0.0
H1988 H 0.2852 0.10658 0.9611 0.0
H1989 H 0.26931 0.08985 0.96107 0.0
H1990 H 0.26555 0.09907 0.92396 0.0
H1991 H 0.30958 0.12614 0.91993 0.0
H1992 H 0.25504 0.12029 0.90886 0.0
H1993 H 0.24932 0.10207 0.91075 0.0
H1994 H 0.25541 0.11046 0.89342 0.0
H1995 H 0.31923 0.1454 0.90442 0.0
H1996 H 0.30885 0.1536 0.90353 0.0
H1997 H 0.30873 0.14314 0.88843 0.0
H1998 H 0.27242 0.18843 0.94253 0.0
H1999 H 0.25777 0.19407 0.95801 0.0
H2000 H 0.24773 0.1817 0.9437 0.0
H2001 H 0.25225 0.19964 0.94216 0.0
H2002 H 0.29113 0.19553 0.92193 0.0
H2003 H 0.24918 0.17394 0.90593 0.0
H2004 H 0.30391 0.17961 0.89615 0.0
H2005 H 0.30099 0.17309 0.91438 0.0
H2006 H 0.3083 0.19143 0.9116 0.0
H2007 H 0.23981 0.1524 0.89315 0.0
H2008 H 0.24996 0.14403 0.89135 0.0
H2009 H 0.25116 0.15615 0.87792 0.0
H2010 H 0.25678 0.19023 0.79637 0.0
H2011 H 0.29262 0.18374 0.79287 0.0
H2012 H 0.25111 0.16929 0.80739 0.0
H2013 H 0.30255 0.1699 0.82305 0.0
H2014 H 0.30783 0.17856 0.80576 0.0
H2015 H 0.29837 0.15985 0.80637 0.0
H2016 H 0.23956 0.14989 0.82253 0.0
H2017 H 0.2508 0.15489 0.83831 0.0
H2018 H 0.24782 0.14013 0.82734 0.0
H2019 H 0.25651 0.07414 0.79208 0.0
H2020 H 0.24828 0.0506 0.80272 0.0
H2021 H 0.25255 0.06368 0.81672 0.0
H2022 H 0.26435 0.05755 0.81305 0.0
H2023 H 0.29732 0.10616 0.81037 0.0
H2024 H 0.25277 0.08455 0.81133 0.0
H2025 H 0.30385 0.13216 0.83569 0.0
H2026 H 0.30295 0.13951 0.81875 0.0
H2027 H 0.31116 0.12913 0.81949 0.0
H2028 H 0.24041 0.09387 0.82241 0.0
H2029 H 0.24859 0.11232 0.81937 0.0
H2030 H 0.24964 0.10625 0.83707 0.0
H2031 H 0.27942 0.14862 0.91131 0.0
H2032 H 0.27799 0.17499 0.87095 0.0
H2033 H 0.27715 0.17229 0.84485 0.0
H2034 H 0.2742 0.13715 0.81137 0.0
H2035 H 0.27915 0.11277 0.85164 0.0
H2036 H 0.28113 0.11612 0.87766 0.0
H2037 H 0.25167 0.17407 0.76693 0.0
H2038 H 0.24024 0.17937 0.77487 0.0
H2039 H 0.24323 0.16692 0.78386 0.0
C2040 C 0.82356 0.0773 0.95733 0.0
C2041 C 0.81756 0.08343 0.94671 0.0
C2042 C 0.82425 0.08799 0.92143 0.0
C2043 C 0.82041 0.0978 0.91801 0.0
C2044 C 0.82733 0.10757 0.90709 0.0
C2045 C 0.83857 0.10774 0.89976 0.0
C2046 C 0.8422 0.09757 0.90299 0.0
C2047 C 0.83472 0.08759 0.91357 0.0
C2048 C 0.82293 0.11801 0.90379 0.0
C2049 C 0.85436 0.0976 0.89579 0.0
C2050 C 0.90129 0.17951 0.94903 0.0
C2051 C 0.89846 0.18926 0.93993 0.0
C2052 C 0.89354 0.17882 0.91569 0.0
C2053 C 0.89832 0.1709 0.90861 0.0
C2054 C 0.88948 0.15966 0.89937 0.0
C2055 C 0.8757 0.15665 0.89681 0.0
C2056 C 0.87114 0.16524 0.90326 0.0
C2057 C 0.8801 0.17621 0.91271 0.0
C2058 C 0.8947 0.15068 0.8928 0.0
C2059 C 0.85666 0.16259 0.9005 0.0
C2060 C 0.89552 0.17275 0.8015 0.0
C2061 C 0.89965 0.1649 0.80977 0.0
C2062 C 0.88994 0.15348 0.81779 0.0
C2063 C 0.87587 0.15005 0.81786 0.0
C2064 C 0.87164 0.15776 0.80932 0.0
C2065 C 0.88151 0.16889 0.80109 0.0
C2066 C 0.89478 0.14516 0.82628 0.0
C2067 C 0.85674 0.15439 0.80908 0.0
C2068 C 0.80143 0.03688 0.80349 0.0
C2069 C 0.80319 0.05137 0.8025 0.0
C2070 C 0.82423 0.0739 0.80721 0.0
C2071 C 0.83836 0.07959 0.81023 0.0
C2072 C 0.84614 0.09267 0.81714 0.0
C2073 C 0.83966 0.10042 0.82071 0.0
C2074 C 0.82548 0.09499 0.81705 0.0
C2075 C 0.81784 0.08169 0.81048 0.0
C2076 C 0.86125 0.0981 0.82079 0.0
C2077 C 0.81838 0.1032 0.82017 0.0
C2078 C 0.84745 0.11947 0.89006 0.0
C2079 C 0.85679 0.1322 0.89679 0.0
C2080 C 0.8657 0.14379 0.88862 0.0
C2081 C 0.86529 0.14276 0.87321 0.0
C2082 C 0.87385 0.15429 0.86464 0.0
C2083 C 0.8738 0.15301 0.8495 0.0
C2084 C 0.86524 0.14012 0.84237 0.0
C2085 C 0.86568 0.13854 0.82705 0.0
C2086 C 0.85691 0.12562 0.82031 0.0
C2087 C 0.84776 0.11409 0.82846 0.0
C2088 C 0.84723 0.11544 0.8438 0.0
C2089 C 0.83822 0.10406 0.85237 0.0
C2090 C 0.838 0.10543 0.86749 0.0
C2091 C 0.84707 0.11813 0.87466 0.0
C2092 C 0.8561 0.12981 0.86622 0.0
C2093 C 0.8561 0.12848 0.85077 0.0
C2094 C 0.92152 0.20047 0.8109 0.0
C2095 C 0.91882 0.19242 0.79635 0.0
O2096 O 0.8183 0.07915 0.93262 0.0
O2097 O 0.81719 0.06097 0.80102 0.0
O2098 O 0.90463 0.18408 0.79384 0.0
O2099 O 0.90199 0.18879 0.92552 0.0
H2100 H 0.82413 0.09499 0.94783 0.0
H2101 H 0.83453 0.08093 0.95457 0.0
H2102 H 0.81756 0.06574 0.95668 0.0
H2103 H 0.82328 0.08075 0.96871 0.0
H2104 H 0.81211 0.09787 0.924 0.0
H2105 H 0.8375 0.07987 0.91631 0.0
H2106 H 0.83036 0.12813 0.90913 0.0
H2107 H 0.81238 0.11467 0.90795 0.0
H2108 H 0.82305 0.11967 0.89185 0.0
H2109 H 0.85686 0.09012 0.90086 0.0
H2110 H 0.86371 0.10817 0.89647 0.0
H2111 H 0.85192 0.09472 0.88406 0.0
H2112 H 0.88719 0.18569 0.94068 0.0
H2113 H 0.89484 0.16864 0.94485 0.0
H2114 H 0.89859 0.17986 0.96063 0.0
H2115 H 0.91241 0.18254 0.94842 0.0
H2116 H 0.9088 0.17316 0.91089 0.0
H2117 H 0.87661 0.18269 0.91785 0.0
H2118 H 0.89464 0.15125 0.88072 0.0
H2119 H 0.8877 0.13964 0.89572 0.0
H2120 H 0.90541 0.15394 0.89656 0.0
H2121 H 0.85553 0.17151 0.90417 0.0
H2122 H 0.84913 0.15324 0.90653 0.0
H2123 H 0.85393 0.16051 0.8887 0.0
H2124 H 0.9237 0.18587 0.79672 0.0
H2125 H 0.9104 0.16756 0.81001 0.0
H2126 H 0.87839 0.17492 0.79459 0.0
H2127 H 0.8949 0.14747 0.83812 0.0
H2128 H 0.90539 0.14766 0.82317 0.0
H2129 H 0.88754 0.13383 0.82449 0.0
H2130 H 0.85533 0.16203 0.80277 0.0
H2131 H 0.85314 0.15417 0.82042 0.0
H2132 H 0.85004 0.14388 0.80411 0.0
H2133 H 0.79933 0.05338 0.81292 0.0
H2134 H 0.79038 0.0289 0.80528 0.0
H2135 H 0.80768 0.03662 0.81282 0.0
H2136 H 0.805 0.03418 0.7933 0.0
H2137 H 0.8432 0.07355 0.80747 0.0
H2138 H 0.80697 0.07748 0.80776 0.0
H2139 H 0.86339 0.10133 0.83249 0.0
H2140 H 0.86783 0.10742 0.8142 0.0
H2141 H 0.86436 0.09024 0.81855 0.0
H2142 H 0.80783 0.09827 0.81513 0.0
H2143 H 0.82471 0.11393 0.81601 0.0
H2144 H 0.81744 0.10405 0.83214 0.0
H2145 H 0.85725 0.13307 0.90862 0.0
H2146 H 0.88077 0.16442 0.86956 0.0
H2147 H 0.88067 0.16224 0.84347 0.0
H2148 H 0.85747 0.12443 0.8086 0.0
H2149 H 0.83123 0.09393 0.8475 0.0
H2150 H 0.83079 0.09635 0.87352 0.0
H2151 H 0.93284 0.20717 0.81308 0.0
H2152 H 0.91702 0.19316 0.82008 0.0
H2153 H 0.91673 0.20711 0.81066 0.0
C2154 C 0.81295 0.70164 0.94922 0.0
C2155 C 0.80453 0.70547 0.93902 0.0
C2156 C 0.81517 0.70522 0.91572 0.0
C2157 C 0.82614 0.71912 0.91598 0.0
C2158 C 0.8375 0.72347 0.90669 0.0
C2159 C 0.83805 0.71369 0.8971 0.0
C2160 C 0.82687 0.69977 0.89655 0.0
C2161 C 0.81545 0.69579 0.90571 0.0
C2162 C 0.84907 0.73848 0.90732 0.0
C2163 C 0.82716 0.68902 0.88659 0.0
C2164 C 0.93738 0.74045 0.92753 0.0
C2165 C 0.92436 0.72693 0.93194 0.0
C2166 C 0.90683 0.72073 0.91242 0.0
C2167 C 0.89876 0.71046 0.902 0.0
C2168 C 0.88814 0.71085 0.8942 0.0
C2169 C 0.88581 0.72207 0.89662 0.0
C2170 C 0.89406 0.73264 0.907 0.0
C2171 C 0.90441 0.73181 0.9149 0.0
C2172 C 0.87936 0.6992 0.88345 0.0
C2173 C 0.89193 0.7448 0.9098 0.0
C2174 C 0.91817 0.7516 0.80707 0.0
C2175 C 0.9095 0.73739 0.80977 0.0
C2176 C 0.89656 0.73251 0.81639 0.0
C2177 C 0.89243 0.74212 0.82075 0.0
C2178 C 0.90101 0.7564 0.81759 0.0
C2179 C 0.91368 0.7609 0.81055 0.0
C2180 C 0.88741 0.71711 0.81889 0.0
C2181 C 0.89695 0.76697 0.82194 0.0
C2182 C 0.79588 0.73349 0.81066 0.0
C2183 C 0.80264 0.73301 0.79629 0.0
C2184 C 0.81979 0.72674 0.80466 0.0
C2185 C 0.82239 0.71576 0.80551 0.0
C2186 C 0.83402 0.71728 0.81311 0.0
C2187 C 0.84331 0.73018 0.82001 0.0
C2188 C 0.84095 0.74147 0.81896 0.0
C2189 C 0.8292 0.73965 0.81129 0.0
C2190 C 0.83627 0.70505 0.81396 0.0
C2191 C 0.85075 0.75538 0.82612 0.0
C2192 C 0.85075 0.71787 0.88847 0.0
C2193 C 0.86201 0.71822 0.89561 0.0
C2194 C 0.87455 0.72256 0.88848 0.0
C2195 C 0.87602 0.72681 0.87381 0.0
C2196 C 0.88868 0.73183 0.86651 0.0
C2197 C 0.88989 0.73554 0.85192 0.0
C2198 C 0.87843 0.73419 0.84401 0.0
C2199 C 0.87938 0.73735 0.82899 0.0
C2200 C 0.86779 0.73599 0.82152 0.0
C2201 C 0.85527 0.7317 0.82867 0.0
C2202 C 0.85414 0.72856 0.84369 0.0
C2203 C 0.84173 0.72436 0.85126 0.0
C2204 C 0.84065 0.72107 0.86598 0.0
C2205 C 0.85185 0.72161 0.87363 0.0
C2206 C 0.86453 0.72603 0.86627 0.0
C2207 C 0.86571 0.72962 0.85132 0.0
C2208 C 0.95453 0.76467 0.80694 0.0
C2209 C 0.94007 0.75204 0.80417 0.0
O2210 O 0.80425 0.70049 0.92497 0.0
O2211 O 0.80806 0.72429 0.79747 0.0
O2212 O 0.93092 0.75666 0.80113 0.0
O2213 O 0.91682 0.71953 0.91964 0.0
H2214 H 0.80936 0.71697 0.93899 0.0
H2215 H 0.82386 0.70655 0.94553 0.0
H2216 H 0.80842 0.69017 0.94929 0.0
H2217 H 0.81304 0.70543 0.96053 0.0
H2218 H 0.82595 0.72668 0.92334 0.0
H2219 H 0.80689 0.68513 0.90548 0.0
H2220 H 0.85843 0.73915 0.91242 0.0
H2221 H 0.84624 0.74517 0.91378 0.0
H2222 H 0.85186 0.74265 0.89612 0.0
H2223 H 0.81796 0.67848 0.88799 0.0
H2224 H 0.83671 0.68856 0.88876 0.0
H2225 H 0.82746 0.69204 0.87505 0.0
H2226 H 0.91788 0.72953 0.93902 0.0
H2227 H 0.94352 0.74627 0.9374 0.0
H2228 H 0.93448 0.74723 0.92158 0.0
H2229 H 0.944 0.73822 0.92029 0.0
H2230 H 0.90071 0.70197 0.90014 0.0
H2231 H 0.9106 0.73991 0.92286 0.0
H2232 H 0.88161 0.70323 0.87218 0.0
H2233 H 0.86816 0.69516 0.8854 0.0
H2234 H 0.8814 0.69045 0.88415 0.0
H2235 H 0.90041 0.7531 0.91663 0.0
H2236 H 0.88197 0.74111 0.91554 0.0
H2237 H 0.89127 0.74934 0.89932 0.0
H2238 H 0.93703 0.74597 0.81442 0.0
H2239 H 0.9128 0.73011 0.80665 0.0
H2240 H 0.9204 0.77183 0.80819 0.0
H2241 H 0.88773 0.71499 0.83064 0.0
H2242 H 0.89084 0.71086 0.81249 0.0
H2243 H 0.87645 0.71358 0.81589 0.0
H2244 H 0.90539 0.77781 0.82001 0.0
H2245 H 0.89419 0.76596 0.83367 0.0
H2246 H 0.88764 0.76497 0.81552 0.0
H2247 H 0.81107 0.74368 0.79359 0.0
H2248 H 0.79134 0.74031 0.80961 0.0
H2249 H 0.80368 0.73775 0.81968 0.0
H2250 H 0.78753 0.72288 0.81362 0.0
H2251 H 0.81512 0.70588 0.8003 0.0
H2252 H 0.82744 0.74832 0.81066 0.0
H2253 H 0.83609 0.70218 0.82555 0.0
H2254 H 0.84664 0.70797 0.80961 0.0
H2255 H 0.82823 0.6958 0.80774 0.0
H2256 H 0.84766 0.76324 0.82402 0.0
H2257 H 0.86143 0.75935 0.82203 0.0
H2258 H 0.85104 0.75412 0.8381 0.0
H2259 H 0.86101 0.71506 0.9069 0.0
H2260 H 0.8978 0.73293 0.87199 0.0
H2261 H 0.8999 0.73934 0.8469 0.0
H2262 H 0.86853 0.73828 0.80997 0.0
H2263 H 0.83269 0.72357 0.84589 0.0
H2264 H 0.83086 0.71792 0.87125 0.0
H2265 H 0.96205 0.76126 0.80966 0.0
H2266 H 0.95423 0.77096 0.81629 0.0
H2267 H 0.9582 0.77133 0.79717 0.0
C2268 C 0.85897 0.62226 0.39042 0.0
C2269 C 0.8677 0.63116 0.40349 0.0
C2270 C 0.85549 0.62257 0.4262 0.0
C2271 C 0.85732 0.63481 0.43286 0.0
C2272 C 0.84761 0.63435 0.44284 0.0
C2273 C 0.83583 0.62138 0.44616 0.0
C2274 C 0.83431 0.60896 0.43995 0.0
C2275 C 0.84431 0.60972 0.43018 0.0
C2276 C 0.84974 0.64775 0.44954 0.0
C2277 C 0.82186 0.59496 0.44322 0.0
C2278 C 0.75256 0.63292 0.40322 0.0
C2279 C 0.76101 0.62746 0.4094 0.0
C2280 C 0.777 0.63178 0.42969 0.0
C2281 C 0.77557 0.6185 0.42916 0.0
C2282 C 0.784 0.61544 0.43789 0.0
C2283 C 0.79428 0.62595 0.44711 0.0
C2284 C 0.79574 0.63934 0.44767 0.0
C2285 C 0.78691 0.64199 0.43911 0.0
C2286 C 0.78204 0.60101 0.43713 0.0
C2287 C 0.80681 0.65092 0.45708 0.0
C2288 C 0.76644 0.61385 0.54027 0.0
C2289 C 0.76398 0.6012 0.53397 0.0
C2290 C 0.77449 0.60047 0.52633 0.0
C2291 C 0.78766 0.61261 0.52493 0.0
C2292 C 0.79024 0.62527 0.53153 0.0
C2293 C 0.77959 0.62569 0.53915 0.0
C2294 C 0.77147 0.58679 0.51953 0.0
C2295 C 0.80418 0.63841 0.53029 0.0
C2296 C 0.87941 0.60116 0.53097 0.0
C2297 C 0.87372 0.60903 0.53958 0.0
C2298 C 0.84955 0.60291 0.53638 0.0
C2299 C 0.83696 0.59165 0.53139 0.0
C2300 C 0.82672 0.59373 0.52502 0.0
C2301 C 0.82911 0.60742 0.52385 0.0
C2302 C 0.84147 0.61878 0.52975 0.0
C2303 C 0.85156 0.6164 0.53601 0.0
C2304 C 0.81354 0.58138 0.51908 0.0
C2305 C 0.84416 0.63346 0.52906 0.0
C2306 C 0.82455 0.62093 0.45509 0.0
C2307 C 0.81495 0.62343 0.44801 0.0
C2308 C 0.80396 0.62314 0.45553 0.0
C2309 C 0.8024 0.62022 0.4706 0.0
C2310 C 0.79136 0.61965 0.47848 0.0
C2311 C 0.7901 0.61707 0.49338 0.0
C2312 C 0.79972 0.61476 0.50094 0.0
C2313 C 0.7986 0.61226 0.51611 0.0
C2314 C 0.80824 0.60982 0.52325 0.0
C2315 C 0.81913 0.60995 0.51565 0.0
C2316 C 0.82054 0.61262 0.50051 0.0
C2317 C 0.83149 0.61301 0.49256 0.0
C2318 C 0.83286 0.61577 0.4777 0.0
C2319 C 0.82328 0.61814 0.47019 0.0
C2320 C 0.81215 0.61778 0.47797 0.0
C2321 C 0.81078 0.61502 0.49314 0.0
C2322 C 0.73502 0.60426 0.53385 0.0
C2323 C 0.74248 0.60559 0.54841 0.0
O2324 O 0.86422 0.62295 0.41575 0.0
O2325 O 0.85954 0.6004 0.54135 0.0
O2326 O 0.75653 0.61525 0.54739 0.0
O2327 O 0.76914 0.63517 0.42127 0.0
H2328 H 0.86521 0.63958 0.40503 0.0
H2329 H 0.84778 0.61809 0.39259 0.0
H2330 H 0.86061 0.61334 0.38842 0.0
H2331 H 0.86174 0.62864 0.38044 0.0
H2332 H 0.86628 0.64472 0.43012 0.0
H2333 H 0.84313 0.60033 0.4251 0.0
H2334 H 0.84177 0.64993 0.44513 0.0
H2335 H 0.86019 0.65675 0.4472 0.0
H2336 H 0.84842 0.64676 0.46156 0.0
H2337 H 0.82212 0.5863 0.43734 0.0
H2338 H 0.81219 0.59483 0.44007 0.0
H2339 H 0.82143 0.59309 0.45513 0.0
H2340 H 0.76675 0.62498 0.40111 0.0
H2341 H 0.73187 0.61777 0.40706 0.0
H2342 H 0.75779 0.64455 0.4042 0.0
H2343 H 0.75779 0.64455 0.4042 0.0
H2344 H 0.76788 0.61046 0.42199 0.0
H2345 H 0.78793 0.65219 0.43946 0.0
H2346 H 0.79109 0.60143 0.43166 0.0
H2347 H 0.77247 0.59355 0.43095 0.0
H2348 H 0.78151 0.59704 0.4483 0.0
H2349 H 0.80742 0.66104 0.45525 0.0
H2350 H 0.81711 0.65209 0.45481 0.0
H2351 H 0.80456 0.6483 0.46877 0.0
H2352 H 0.74105 0.59529 0.55133 0.0
H2353 H 0.75392 0.59188 0.53484 0.0
H2354 H 0.78142 0.63538 0.54411 0.0
H2355 H 0.77236 0.58776 0.50748 0.0
H2356 H 0.76092 0.57813 0.52215 0.0
H2357 H 0.77927 0.58412 0.52339 0.0
H2358 H 0.80454 0.64741 0.5361 0.0
H2359 H 0.80657 0.64101 0.51861 0.0
H2360 H 0.81243 0.63674 0.53489 0.0
H2361 H 0.87597 0.61813 0.53277 0.0
H2362 H 0.89087 0.60772 0.52994 0.0
H2363 H 0.87473 0.59857 0.51982 0.0
H2364 H 0.87687 0.59129 0.53633 0.0
H2365 H 0.8354 0.58125 0.53199 0.0
H2366 H 0.86102 0.62509 0.54052 0.0
H2367 H 0.81291 0.58229 0.50708 0.0
H2368 H 0.80438 0.58125 0.52392 0.0
H2369 H 0.81299 0.57135 0.52138 0.0
H2370 H 0.85394 0.64107 0.53483 0.0
H2371 H 0.83538 0.63401 0.53399 0.0
H2372 H 0.84484 0.63652 0.51747 0.0
H2373 H 0.81606 0.62565 0.43643 0.0
H2374 H 0.78361 0.62129 0.47323 0.0
H2375 H 0.78145 0.61689 0.49889 0.0
H2376 H 0.80733 0.60793 0.53489 0.0
H2377 H 0.83917 0.61123 0.49775 0.0
H2378 H 0.84153 0.61601 0.47217 0.0
H2379 H 0.72373 0.5967 0.53477 0.0
H2380 H 0.73914 0.60047 0.52505 0.0
H2381 H 0.73651 0.61451 0.53066 0.0
C2382 C 0.4001 0.25791 0.39351 0.0
C2383 C 0.38816 0.25141 0.40432 0.0
C2384 C 0.39133 0.24427 0.4282 0.0
C2385 C 0.37792 0.23314 0.43072 0.0
C2386 C 0.37582 0.22251 0.44025 0.0
C2387 C 0.38741 0.22292 0.44714 0.0
C2388 C 0.40093 0.23436 0.44482 0.0
C2389 C 0.40265 0.24507 0.43561 0.0
C2390 C 0.36122 0.21069 0.44266 0.0
C2391 C 0.41361 0.23508 0.45166 0.0
C2392 C 0.3703 0.11836 0.41624 0.0
C2393 C 0.37786 0.13315 0.42135 0.0
C2394 C 0.37261 0.15048 0.4312 0.0
C2395 C 0.38638 0.16034 0.43521 0.0
C2396 C 0.38945 0.17254 0.44298 0.0
C2397 C 0.37852 0.17481 0.447 0.0
C2398 C 0.36468 0.16494 0.44289 0.0
C2399 C 0.36193 0.15295 0.43493 0.0
C2400 C 0.40434 0.18297 0.44701 0.0
C2401 C 0.35277 0.167 0.44706 0.0
C2402 C 0.38439 0.15488 0.53958 0.0
C2403 C 0.39729 0.16581 0.53495 0.0
C2404 C 0.39823 0.17744 0.52807 0.0
C2405 C 0.38607 0.17815 0.52578 0.0
C2406 C 0.37316 0.16736 0.53075 0.0
C2407 C 0.37251 0.15586 0.53759 0.0
C2408 C 0.41218 0.18884 0.52295 0.0
C2409 C 0.36001 0.16782 0.52852 0.0
C2410 C 0.3989 0.28106 0.53323 0.0
C2411 C 0.39063 0.26838 0.54286 0.0
C2412 C 0.39617 0.24993 0.54012 0.0
C2413 C 0.40756 0.24871 0.53606 0.0
C2414 C 0.40568 0.23655 0.52913 0.0
C2415 C 0.39206 0.22531 0.52641 0.0
C2416 C 0.38051 0.22617 0.53133 0.0
C2417 C 0.3827 0.23845 0.53822 0.0
C2418 C 0.41821 0.23585 0.52431 0.0
C2419 C 0.36587 0.21421 0.52896 0.0
C2420 C 0.3855 0.21097 0.4559 0.0
C2421 C 0.38308 0.19894 0.44834 0.0
C2422 C 0.38151 0.18737 0.45574 0.0
C2423 C 0.38264 0.18782 0.47114 0.0
C2424 C 0.38139 0.17645 0.4789 0.0
C2425 C 0.38276 0.17707 0.49403 0.0
C2426 C 0.38526 0.18902 0.50201 0.0
C2427 C 0.38674 0.18977 0.5174 0.0
C2428 C 0.389 0.2017 0.52504 0.0
C2429 C 0.38984 0.21301 0.51769 0.0
C2430 C 0.38853 0.21252 0.50228 0.0
C2431 C 0.38937 0.22373 0.49453 0.0
C2432 C 0.38824 0.22321 0.47936 0.0
C2433 C 0.3863 0.21148 0.47135 0.0
C2434 C 0.38508 0.19993 0.47896 0.0
C2435 C 0.38628 0.20049 0.49443 0.0
C2436 C 0.39606 0.13439 0.534 0.0
C2437 C 0.39287 0.13958 0.54823 0.0
O2438 O 0.39361 0.25419 0.41841 0.0
O2439 O 0.39854 0.26229 0.54578 0.0
O2440 O 0.38282 0.14316 0.54579 0.0
O2441 O 0.36917 0.13845 0.42385 0.0
H2442 H 0.38243 0.23997 0.40197 0.0
H2443 H 0.40689 0.25339 0.39493 0.0
H2444 H 0.40648 0.26936 0.39534 0.0
H2445 H 0.396 0.25574 0.38211 0.0
H2446 H 0.36914 0.23275 0.42517 0.0
H2447 H 0.41294 0.2538 0.43363 0.0
H2448 H 0.35961 0.20135 0.43643 0.0
H2449 H 0.35331 0.21324 0.43892 0.0
H2450 H 0.35957 0.208 0.45439 0.0
H2451 H 0.42342 0.24365 0.44719 0.0
H2452 H 0.4134 0.2251 0.44985 0.0
H2453 H 0.41366 0.23683 0.46362 0.0
H2454 H 0.3872 0.14023 0.4149 0.0
H2455 H 0.37422 0.11858 0.40489 0.0
H2456 H 0.35969 0.11599 0.41249 0.0
H2457 H 0.37331 0.1078 0.43331 0.0
H2458 H 0.39477 0.1586 0.4323 0.0
H2459 H 0.35136 0.14529 0.43177 0.0
H2460 H 0.40704 0.19347 0.44326 0.0
H2461 H 0.41174 0.18017 0.44218 0.0
H2462 H 0.40565 0.18359 0.45907 0.0
H2463 H 0.34254 0.15806 0.44359 0.0
H2464 H 0.3541 0.17656 0.44193 0.0
H2465 H 0.35278 0.16849 0.45908 0.0
H2466 H 0.40253 0.1488 0.55254 0.0
H2467 H 0.40663 0.16532 0.53646 0.0
H2468 H 0.36262 0.14743 0.54125 0.0
H2469 H 0.41196 0.18948 0.51087 0.0
H2470 H 0.42076 0.18706 0.52612 0.0
H2471 H 0.41438 0.19903 0.52759 0.0
H2472 H 0.35086 0.15883 0.53349 0.0
H2473 H 0.35794 0.1678 0.51664 0.0
H2474 H 0.36129 0.1776 0.53335 0.0
H2475 H 0.38116 0.26125 0.53631 0.0
H2476 H 0.39311 0.28663 0.53159 0.0
H2477 H 0.40053 0.27758 0.52237 0.0
H2478 H 0.40927 0.28837 0.53811 0.0
H2479 H 0.41793 0.25753 0.53787 0.0
H2480 H 0.37387 0.23908 0.54206 0.0
H2481 H 0.41812 0.23494 0.51221 0.0
H2482 H 0.41779 0.22643 0.52877 0.0
H2483 H 0.42812 0.24518 0.52789 0.0
H2484 H 0.35803 0.2163 0.53391 0.0
H2485 H 0.36479 0.20461 0.53373 0.0
H2486 H 0.36363 0.2122 0.51707 0.0
H2487 H 0.38242 0.19857 0.4365 0.0
H2488 H 0.37944 0.16697 0.47336 0.0
H2489 H 0.38181 0.16804 0.49938 0.0
H2490 H 0.39008 0.20219 0.53685 0.0
H2491 H 0.39096 0.23307 0.50009 0.0
H2492 H 0.38896 0.23213 0.47399 0.0
H2493 H 0.40391 0.13126 0.53607 0.0
H2494 H 0.40033 0.14272 0.52579 0.0
H2495 H 0.3865 0.12532 0.52933 0.0
C2496 C 0.85782 0.24812 0.40315 0.0
C2497 C 0.86773 0.24885 0.41528 0.0
C2498 C 0.85283 0.22739 0.4288 0.0
C2499 C 0.84397 0.23166 0.43479 0.0
C2500 C 0.83235 0.22247 0.44292 0.0
C2501 C 0.82971 0.20884 0.44542 0.0
C2502 C 0.83887 0.20468 0.43986 0.0
C2503 C 0.85027 0.214 0.43156 0.0
C2504 C 0.82274 0.22723 0.4486 0.0
C2505 C 0.83648 0.19029 0.44246 0.0
C2506 C 0.75187 0.14784 0.38277 0.0
C2507 C 0.75558 0.14212 0.39604 0.0
C2508 C 0.76132 0.15383 0.41979 0.0
C2509 C 0.77096 0.15019 0.42467 0.0
C2510 C 0.78092 0.15826 0.43544 0.0
C2511 C 0.78129 0.17026 0.44131 0.0
C2512 C 0.7712 0.17361 0.43682 0.0
C2513 C 0.76117 0.16517 0.42626 0.0
C2514 C 0.79128 0.15417 0.44024 0.0
C2515 C 0.77133 0.18637 0.44278 0.0
C2516 C 0.74885 0.15488 0.53305 0.0
C2517 C 0.75694 0.149 0.5291 0.0
C2518 C 0.77009 0.15721 0.52291 0.0
C2519 C 0.77505 0.17147 0.52033 0.0
C2520 C 0.76701 0.17743 0.52465 0.0
C2521 C 0.7541 0.16907 0.53117 0.0
C2522 C 0.77863 0.15064 0.51902 0.0
C2523 C 0.77195 0.1926 0.52222 0.0
C2524 C 0.87153 0.25925 0.53622 0.0
C2525 C 0.86488 0.25167 0.55039 0.0
C2526 C 0.8477 0.22825 0.54091 0.0
C2527 C 0.84512 0.21469 0.53883 0.0
C2528 C 0.83361 0.20478 0.53059 0.0
C2529 C 0.8244 0.20855 0.52436 0.0
C2530 C 0.8267 0.22213 0.52676 0.0
C2531 C 0.83832 0.23185 0.535 0.0
C2532 C 0.83144 0.19038 0.52828 0.0
C2533 C 0.81698 0.22644 0.52038 0.0
C2534 C 0.81698 0.19873 0.4532 0.0
C2535 C 0.80544 0.18942 0.44474 0.0
C2536 C 0.79292 0.17989 0.45119 0.0
C2537 C 0.79173 0.17973 0.46656 0.0
C2538 C 0.77919 0.17055 0.47341 0.0
C2539 C 0.77805 0.17073 0.48853 0.0
C2540 C 0.7895 0.17984 0.49742 0.0
C2541 C 0.78845 0.18012 0.51281 0.0
C2542 C 0.80005 0.18937 0.52128 0.0
C2543 C 0.81271 0.1985 0.5148 0.0
C2544 C 0.81397 0.19837 0.49945 0.0
C2545 C 0.82657 0.20742 0.49259 0.0
C2546 C 0.82761 0.2075 0.47745 0.0
C2547 C 0.81611 0.19851 0.4686 0.0
C2548 C 0.80339 0.18907 0.47529 0.0
C2549 C 0.80231 0.18903 0.49074 0.0
C2550 C 0.71212 0.13134 0.53478 0.0
C2551 C 0.72666 0.13328 0.5361 0.0
O2552 O 0.86375 0.23563 0.42015 0.0
O2553 O 0.85939 0.23744 0.54851 0.0
O2554 O 0.73602 0.14726 0.53885 0.0
O2555 O 0.75228 0.14679 0.40866 0.0
H2556 H 0.8676 0.25535 0.42454 0.0
H2557 H 0.84715 0.24389 0.40732 0.0
H2558 H 0.8574 0.2413 0.39395 0.0
H2559 H 0.86136 0.2587 0.39898 0.0
H2560 H 0.84588 0.24205 0.43301 0.0
H2561 H 0.85719 0.21081 0.42701 0.0
H2562 H 0.81192 0.21989 0.44485 0.0
H2563 H 0.82575 0.23786 0.44497 0.0
H2564 H 0.82283 0.22724 0.46072 0.0
H2565 H 0.84542 0.18923 0.43896 0.0
H2566 H 0.82709 0.18253 0.43626 0.0
H2567 H 0.83458 0.18779 0.45422 0.0
H2568 H 0.767 0.14635 0.39552 0.0
H2569 H 0.75434 0.14414 0.37251 0.0
H2570 H 0.75801 0.1594 0.38312 0.0
H2571 H 0.74066 0.14453 0.38266 0.0
H2572 H 0.77078 0.14112 0.41997 0.0
H2573 H 0.75355 0.16777 0.42252 0.0
H2574 H 0.79204 0.1544 0.45235 0.0
H2575 H 0.80169 0.16178 0.43606 0.0
H2576 H 0.78848 0.14362 0.43613 0.0
H2577 H 0.76301 0.18774 0.43784 0.0
H2578 H 0.78153 0.19579 0.44068 0.0
H2579 H 0.76993 0.18559 0.45479 0.0
H2580 H 0.72893 0.12998 0.52541 0.0
H2581 H 0.75308 0.13808 0.53097 0.0
H2582 H 0.74784 0.17352 0.53448 0.0
H2583 H 0.77905 0.14983 0.50697 0.0
H2584 H 0.77422 0.14005 0.52355 0.0
H2585 H 0.78945 0.15724 0.52316 0.0
H2586 H 0.76381 0.19524 0.52471 0.0
H2587 H 0.77521 0.19533 0.51073 0.0
H2588 H 0.78112 0.19913 0.52936 0.0
H2589 H 0.85649 0.25375 0.55357 0.0
H2590 H 0.87615 0.27067 0.53786 0.0
H2591 H 0.86365 0.25581 0.52731 0.0
H2592 H 0.87979 0.2571 0.53272 0.0
H2593 H 0.85235 0.21196 0.54349 0.0
H2594 H 0.84001 0.24223 0.53661 0.0
H2595 H 0.83163 0.18828 0.51641 0.0
H2596 H 0.82108 0.18251 0.53235 0.0
H2597 H 0.83951 0.18905 0.53393 0.0
H2598 H 0.81969 0.23709 0.52399 0.0
H2599 H 0.80615 0.219 0.5236 0.0
H2600 H 0.81735 0.22613 0.50828 0.0
H2601 H 0.8062 0.18963 0.43293 0.0
H2602 H 0.77007 0.16324 0.46714 0.0
H2603 H 0.76806 0.16358 0.49315 0.0
H2604 H 0.79913 0.18965 0.53305 0.0
H2605 H 0.83576 0.21462 0.49883 0.0
H2606 H 0.83755 0.21473 0.47277 0.0
H2607 H 0.70916 0.13429 0.54522 0.0
H2608 H 0.70433 0.12035 0.53194 0.0
H2609 H 0.71193 0.13803 0.52602 0.0
C2610 C 0.0384 0.47965 0.27857 0.0
C2611 C 0.0253 0.46801 0.27106 0.0
C2612 C 0.02052 0.4748 0.24777 0.0
C2613 C 0.00608 0.4689 0.24769 0.0
C2614 C 0.99975 0.47475 0.23946 0.0
C2615 C 0.00812 0.48689 0.23136 0.0
C2616 C 0.02272 0.4927 0.23125 0.0
C2617 C 0.0287 0.48637 0.23926 0.0
C2618 C 0.98415 0.46811 0.23962 0.0
C2619 C 0.03202 0.50579 0.22303 0.0
C2620 C 0.97755 0.53302 0.296 0.0
C2621 C 0.98613 0.54108 0.28287 0.0
C2622 C 0.98137 0.53023 0.25872 0.0
C2623 C 0.99491 0.53658 0.25332 0.0
C2624 C 0.99834 0.53015 0.24213 0.0
C2625 C 0.98801 0.51706 0.23637 0.0
C2626 C 0.9742 0.51094 0.2414 0.0
C2627 C 0.97101 0.51778 0.25236 0.0
C2628 C 0.01308 0.53714 0.23678 0.0
C2629 C 0.96294 0.49692 0.23567 0.0
C2630 C 0.96162 0.52499 0.14566 0.0
C2631 C 0.97598 0.53251 0.14845 0.0
C2632 C 0.98275 0.52596 0.15445 0.0
C2633 C 0.97493 0.51167 0.15792 0.0
C2634 C 0.96051 0.50401 0.15468 0.0
C2635 C 0.9541 0.51076 0.14837 0.0
C2636 C 0.99823 0.53431 0.15719 0.0
C2637 C 0.95183 0.48875 0.1581 0.0
C2638 C 0.01978 0.44945 0.14279 0.0
C2639 C 0.00508 0.4435 0.13649 0.0
C2640 C 0.00028 0.46239 0.13737 0.0
C2641 C 0.00907 0.4768 0.13703 0.0
C2642 C 0.00605 0.48573 0.14509 0.0
C2643 C 0.99372 0.48003 0.15331 0.0
C2644 C 0.98437 0.46546 0.15296 0.0
C2645 C 0.98782 0.45678 0.14506 0.0
C2646 C 0.0162 0.5012 0.14515 0.0
C2647 C 0.97088 0.45906 0.16114 0.0
C2648 C 0.00169 0.49401 0.22384 0.0
C2649 C 0.99807 0.50211 0.23242 0.0
C2650 C 0.99195 0.50914 0.22626 0.0
C2651 C 0.9895 0.50826 0.21102 0.0
C2652 C 0.98354 0.51535 0.20442 0.0
C2653 C 0.98092 0.51419 0.18944 0.0
C2654 C 0.98434 0.50604 0.18045 0.0
C2655 C 0.9817 0.50476 0.1652 0.0
C2656 C 0.98503 0.49639 0.15664 0.0
C2657 C 0.99093 0.48918 0.16289 0.0
C2658 C 0.9938 0.49046 0.17808 0.0
C2659 C 0.99987 0.48345 0.18469 0.0
C2660 C 0.00238 0.48452 0.19967 0.0
C2661 C 0.99912 0.4928 0.20861 0.0
C2662 C 0.99305 0.50001 0.20217 0.0
C2663 C 0.99044 0.49887 0.18688 0.0
C2664 C 0.94368 0.54283 0.14969 0.0
C2665 C 0.95714 0.54423 0.14388 0.0
O2666 O 0.02676 0.46951 0.25606 0.0
O2667 O 0.00396 0.4541 0.13011 0.0
O2668 O 0.95473 0.53108 0.14015 0.0
O2669 O 0.97808 0.5357 0.27028 0.0
H2670 H 0.01635 0.46901 0.2748 0.0
H2671 H 0.03995 0.48993 0.27543 0.0
H2672 H 0.04767 0.47909 0.27528 0.0
H2673 H 0.0374 0.47885 0.29064 0.0
H2674 H 0.99979 0.45972 0.25408 0.0
H2675 H 0.03986 0.49074 0.23936 0.0
H2676 H 0.98134 0.47489 0.24592 0.0
H2677 H 0.97904 0.45769 0.24468 0.0
H2678 H 0.98001 0.46702 0.22832 0.0
H2679 H 0.04321 0.50966 0.22515 0.0
H2680 H 0.02977 0.51411 0.22615 0.0
H2681 H 0.02996 0.50373 0.21113 0.0
H2682 H 0.99523 0.53951 0.28256 0.0
H2683 H 0.98379 0.53717 0.30624 0.0
H2684 H 0.97438 0.52186 0.29473 0.0
H2685 H 0.96802 0.53376 0.2969 0.0
H2686 H 0.00283 0.54647 0.25798 0.0
H2687 H 0.96055 0.51308 0.25652 0.0
H2688 H 0.01319 0.53689 0.22466 0.0
H2689 H 0.01814 0.53139 0.24075 0.0
H2690 H 0.01931 0.54812 0.24072 0.0
H2691 H 0.95291 0.49327 0.24128 0.0
H2692 H 0.96616 0.48907 0.23709 0.0
H2693 H 0.96129 0.49751 0.2238 0.0
H2694 H 0.96503 0.54899 0.15286 0.0
H2695 H 0.98192 0.54344 0.14582 0.0
H2696 H 0.94305 0.50502 0.14593 0.0
H2697 H 0.00036 0.53565 0.16912 0.0
H2698 H 0.00305 0.54478 0.15227 0.0
H2699 H 0.00326 0.52867 0.15266 0.0
H2700 H 0.94059 0.48457 0.15599 0.0
H2701 H 0.95335 0.48705 0.16972 0.0
H2702 H 0.95525 0.48274 0.15128 0.0
H2703 H 0.99762 0.43892 0.14562 0.0
H2704 H 0.02088 0.44116 0.14811 0.0
H2705 H 0.02192 0.45766 0.15113 0.0
H2706 H 0.0276 0.45412 0.13402 0.0
H2707 H 0.01857 0.481 0.13084 0.0
H2708 H 0.9808 0.44561 0.14485 0.0
H2709 H 0.01953 0.50506 0.15654 0.0
H2710 H 0.01104 0.50667 0.14069 0.0
H2711 H 0.02555 0.50393 0.13858 0.0
H2712 H 0.96395 0.44789 0.15816 0.0
H2713 H 0.96532 0.46476 0.1589 0.0
H2714 H 0.97309 0.4599 0.17306 0.0
H2715 H -4e-05 0.50288 0.24412 0.0
H2716 H 0.98078 0.52183 0.21079 0.0
H2717 H 0.97618 0.51977 0.18501 0.0
H2718 H 0.98283 0.49532 0.14499 0.0
H2719 H 0.0027 0.477 0.17837 0.0
H2720 H 0.00693 0.47878 0.20417 0.0
H2721 H 0.93533 0.53816 0.1412 0.0
H2722 H 0.94533 0.55318 0.15309 0.0
H2723 H 0.94024 0.53601 0.15935 0.0
C2724 C 0.48073 0.41882 0.28851 0.0
C2725 C 0.47311 0.42335 0.27805 0.0
C2726 C 0.48242 0.42917 0.25376 0.0
C2727 C 0.47947 0.43937 0.24933 0.0
C2728 C 0.48796 0.44942 0.23923 0.0
C2729 C 0.4998 0.4494 0.23376 0.0
C2730 C 0.50267 0.43895 0.23815 0.0
C2731 C 0.49371 0.42876 0.24788 0.0
C2732 C 0.48439 0.4602 0.23462 0.0
C2733 C 0.51539 0.43878 0.23296 0.0
C2734 C 0.57186 0.56153 0.25815 0.0
C2735 C 0.56211 0.54964 0.24855 0.0
C2736 C 0.55362 0.52486 0.24464 0.0
C2737 C 0.55668 0.51427 0.24641 0.0
C2738 C 0.54858 0.5012 0.23952 0.0
C2739 C 0.53693 0.49861 0.2309 0.0
C2740 C 0.53349 0.50914 0.22946 0.0
C2741 C 0.54196 0.52221 0.23618 0.0
C2742 C 0.55256 0.49023 0.24129 0.0
C2743 C 0.52089 0.50663 0.22074 0.0
C2744 C 0.56602 0.51236 0.13939 0.0
C2745 C 0.5675 0.50117 0.14391 0.0
C2746 C 0.55672 0.48986 0.15115 0.0
C2747 C 0.54407 0.48956 0.15363 0.0
C2748 C 0.54233 0.50051 0.14854 0.0
C2749 C 0.55339 0.51183 0.1416 0.0
C2750 C 0.55896 0.47838 0.15646 0.0
C2751 C 0.52892 0.50044 0.15079 0.0
C2752 C 0.4649 0.37926 0.14026 0.0
C2753 C 0.46608 0.39322 0.13693 0.0
C2754 C 0.48772 0.41529 0.14083 0.0
C2755 C 0.50155 0.41965 0.14412 0.0
C2756 C 0.51008 0.4323 0.15157 0.0
C2757 C 0.50473 0.44105 0.15529 0.0
C2758 C 0.49087 0.43696 0.15135 0.0
C2759 C 0.48244 0.424 0.14431 0.0
C2760 C 0.5248 0.43625 0.15544 0.0
C2761 C 0.48497 0.44625 0.15455 0.0
C2762 C 0.50972 0.46088 0.22435 0.0
C2763 C 0.51857 0.47377 0.23112 0.0
C2764 C 0.52846 0.485 0.22316 0.0
C2765 C 0.52982 0.48332 0.20805 0.0
C2766 C 0.5401 0.49421 0.19987 0.0
C2767 C 0.54124 0.49256 0.18496 0.0
C2768 C 0.53207 0.47998 0.17761 0.0
C2769 C 0.53308 0.47829 0.16242 0.0
C2770 C 0.52385 0.46563 0.15546 0.0
C2771 C 0.51368 0.45443 0.1633 0.0
C2772 C 0.51256 0.45593 0.17855 0.0
C2773 C 0.50261 0.44487 0.18687 0.0
C2774 C 0.50154 0.44649 0.20183 0.0
C2775 C 0.51056 0.45915 0.20912 0.0
C2776 C 0.52071 0.47041 0.20096 0.0
C2777 C 0.52174 0.46879 0.18568 0.0
C2778 C 0.59898 0.53107 0.14352 0.0
C2779 C 0.58968 0.52662 0.12976 0.0
O2780 O 0.47458 0.41977 0.26389 0.0
O2781 O 0.47986 0.40275 0.13402 0.0
O2782 O 0.57646 0.52394 0.13314 0.0
O2783 O 0.56211 0.53742 0.25123 0.0
H2784 H 0.47797 0.43488 0.27929 0.0
H2785 H 0.49189 0.424 0.28564 0.0
H2786 H 0.47626 0.40737 0.28778 0.0
H2787 H 0.47997 0.42183 0.29994 0.0
H2788 H 0.47055 0.43944 0.25382 0.0
H2789 H 0.49581 0.42075 0.2514 0.0
H2790 H 0.49183 0.47037 0.23985 0.0
H2791 H 0.47371 0.45739 0.23784 0.0
H2792 H 0.48531 0.46151 0.2226 0.0
H2793 H 0.51705 0.43109 0.23886 0.0
H2794 H 0.52478 0.44925 0.23445 0.0
H2795 H 0.51426 0.43607 0.22114 0.0
H2796 H 0.56268 0.55197 0.23668 0.0
H2797 H 0.57912 0.55851 0.26328 0.0
H2798 H 0.55873 0.56594 0.27046 0.0
H2799 H 0.57985 0.56925 0.25054 0.0
H2800 H 0.56564 0.51637 0.25302 0.0
H2801 H 0.53936 0.53026 0.23483 0.0
H2802 H 0.55353 0.4863 0.2304 0.0
H2803 H 0.54427 0.48127 0.24722 0.0
H2804 H 0.56251 0.49422 0.24743 0.0
H2805 H 0.51854 0.51512 0.22237 0.0
H2806 H 0.51165 0.49662 0.22383 0.0
H2807 H 0.52272 0.50589 0.20895 0.0
H2808 H 0.58906 0.51707 0.125 0.0
H2809 H 0.57709 0.50122 0.14211 0.0
H2810 H 0.55227 0.52043 0.13799 0.0
H2811 H 0.5569 0.4769 0.16834 0.0
H2812 H 0.56968 0.48055 0.15446 0.0
H2813 H 0.55154 0.46848 0.15077 0.0
H2814 H 0.52865 0.5089 0.14479 0.0
H2815 H 0.52764 0.50179 0.16261 0.0
H2816 H 0.51997 0.49028 0.14714 0.0
H2817 H 0.46263 0.39651 0.14684 0.0
H2818 H 0.45409 0.37143 0.14322 0.0
H2819 H 0.47184 0.38055 0.14962 0.0
H2820 H 0.46799 0.3753 0.13063 0.0
H2821 H 0.50555 0.4129 0.14116 0.0
H2822 H 0.47182 0.42079 0.14132 0.0
H2823 H 0.52742 0.44028 0.16686 0.0
H2824 H 0.53201 0.44463 0.14813 0.0
H2825 H 0.52654 0.42732 0.15413 0.0
H2826 H 0.47483 0.44253 0.14891 0.0
H2827 H 0.49234 0.45706 0.15114 0.0
H2828 H 0.48343 0.44656 0.16648 0.0
H2829 H 0.51772 0.47511 0.24276 0.0
H2830 H 0.54744 0.50415 0.2049 0.0
H2831 H 0.54939 0.50133 0.17928 0.0
H2832 H 0.52475 0.4644 0.14381 0.0
H2833 H 0.49548 0.43484 0.1819 0.0
H2834 H 0.49358 0.43768 0.20763 0.0
H2835 H 0.60974 0.53393 0.14059 0.0
H2836 H 0.59509 0.52245 0.15138 0.0
H2837 H 0.59923 0.5401 0.14913 0.0
C2838 C 0.4221 0.97116 0.24004 0.0
C2839 C 0.43031 0.97637 0.25448 0.0
C2840 C 0.45433 0.99159 0.24622 0.0
C2841 C 0.46501 0.00543 0.24516 0.0
C2842 C 0.47757 0.00886 0.2384 0.0
C2843 C 0.47939 0.99814 0.23238 0.0
C2844 C 0.46869 0.98409 0.23355 0.0
C2845 C 0.45632 0.98094 0.24057 0.0
C2846 C 0.48885 0.02394 0.23759 0.0
C2847 C 0.47031 0.97238 0.22733 0.0
C2848 C 0.56293 0.98285 0.27135 0.0
C2849 C 0.55077 0.98172 0.26335 0.0
C2850 C 0.54307 0.99626 0.25168 0.0
C2851 C 0.53211 0.98522 0.24374 0.0
C2852 C 0.52307 0.98746 0.23506 0.0
C2853 C 0.52488 0.00095 0.23445 0.0
C2854 C 0.53591 0.0121 0.24237 0.0
C2855 C 0.54493 0.0096 0.25081 0.0
C2856 C 0.51152 0.97537 0.22662 0.0
C2857 C 0.53808 0.02659 0.24197 0.0
C2858 C 0.56118 0.02556 0.1462 0.0
C2859 C 0.54941 0.01215 0.14636 0.0
C2860 C 0.53697 0.00989 0.15252 0.0
C2861 C 0.5363 0.02128 0.1586 0.0
C2862 C 0.54794 0.03489 0.1578 0.0
C2863 C 0.56022 0.03686 0.15147 0.0
C2864 C 0.5246 0.9953 0.1528 0.0
C2865 C 0.5475 0.04727 0.16401 0.0
C2866 C 0.44634 0.02655 0.15144 0.0
C2867 C 0.45409 0.02995 0.13692 0.0
C2868 C 0.46981 0.02088 0.14152 0.0
C2869 C 0.47114 0.00915 0.13965 0.0
C2870 C 0.48142 0.00791 0.14719 0.0
C2871 C 0.49079 0.01886 0.15665 0.0
C2872 C 0.48988 0.03103 0.15817 0.0
C2873 C 0.47933 0.03187 0.1507 0.0
C2874 C 0.48209 0.99479 0.14529 0.0
C2875 C 0.49992 0.04305 0.16788 0.0
C2876 C 0.49241 0.00161 0.22473 0.0
C2877 C 0.50265 0.00058 0.23247 0.0
C2878 C 0.51496 0.00324 0.2258 0.0
C2879 C 0.51731 0.00728 0.21103 0.0
C2880 C 0.5296 0.01008 0.204 0.0
C2881 C 0.53175 0.01394 0.18944 0.0
C2882 C 0.52165 0.01507 0.18131 0.0
C2883 C 0.52367 0.01883 0.16645 0.0
C2884 C 0.5135 0.02002 0.15874 0.0
C2885 C 0.50117 0.01735 0.16542 0.0
C2886 C 0.49885 0.01332 0.1802 0.0
C2887 C 0.4864 0.01016 0.18714 0.0
C2888 C 0.48426 0.00632 0.20171 0.0
C2889 C 0.49447 0.00547 0.2099 0.0
C2890 C 0.50701 0.00841 0.20307 0.0
C2891 C 0.50919 0.0123 0.18819 0.0
C2892 C 0.5885 0.02566 0.15788 0.0
C2893 C 0.57962 0.02005 0.14393 0.0
O2894 O 0.44233 0.9891 0.25264 0.0
O2895 O 0.45918 0.02105 0.13439 0.0
O2896 O 0.57353 0.02794 0.14091 0.0
O2897 O 0.55199 0.99443 0.26025 0.0
H2898 H 0.43304 0.96863 0.25836 0.0
H2899 H 0.42822 0.96945 0.23162 0.0
H2900 H 0.41946 0.97886 0.23584 0.0
H2901 H 0.41234 0.9611 0.24165 0.0
H2902 H 0.46343 0.01357 0.24962 0.0
H2903 H 0.44828 0.97015 0.24144 0.0
H2904 H 0.49881 0.02532 0.24184 0.0
H2905 H 0.48629 0.03092 0.24389 0.0
H2906 H 0.49044 0.02717 0.22602 0.0
H2907 H 0.46051 0.96216 0.22772 0.0
H2908 H 0.47841 0.97168 0.23369 0.0
H2909 H 0.47377 0.97448 0.21583 0.0
H2910 H 0.54043 0.97415 0.26791 0.0
H2911 H 0.55878 0.9781 0.28228 0.0
H2912 H 0.56907 0.99385 0.27581 0.0
H2913 H 0.57116 0.97452 0.25648 0.0
H2914 H 0.53053 0.97483 0.24423 0.0
H2915 H 0.55341 0.01806 0.25692 0.0
H2916 H 0.51186 0.97804 0.21494 0.0
H2917 H 0.50136 0.97318 0.23093 0.0
H2918 H 0.51215 0.96576 0.22736 0.0
H2919 H 0.54701 0.0341 0.24893 0.0
H2920 H 0.52856 0.02644 0.24572 0.0
H2921 H 0.53994 0.03031 0.23056 0.0
H2922 H 0.5716 0.00905 0.14593 0.0
H2923 H 0.54985 0.00345 0.14159 0.0
H2924 H 0.56929 0.0472 0.15102 0.0
H2925 H 0.52223 0.99188 0.16428 0.0
H2926 H 0.52643 0.98774 0.14662 0.0
H2927 H 0.51532 0.99511 0.1481 0.0
H2928 H 0.5574 0.0572 0.16244 0.0
H2929 H 0.54532 0.04588 0.17587 0.0
H2930 H 0.53894 0.048 0.15871 0.0
H2931 H 0.46283 0.0409 0.13726 0.0
H2932 H 0.4421 0.03354 0.15339 0.0
H2933 H 0.45347 0.02806 0.16067 0.0
H2934 H 0.43765 0.01557 0.15134 0.0
H2935 H 0.46383 0.00076 0.13248 0.0
H2936 H 0.47861 0.04113 0.15217 0.0
H2937 H 0.48147 0.99013 0.1561 0.0
H2938 H 0.49219 0.99736 0.14045 0.0
H2939 H 0.47358 0.98694 0.13813 0.0
H2940 H 0.49896 0.05242 0.16646 0.0
H2941 H 0.51076 0.04582 0.16554 0.0
H2942 H 0.49789 0.03995 0.17947 0.0
H2943 H 0.5009 0.99743 0.24378 0.0
H2944 H 0.53771 0.00934 0.20968 0.0
H2945 H 0.54143 0.01601 0.18463 0.0
H2946 H 0.51517 0.02299 0.14737 0.0
H2947 H 0.47815 0.01061 0.1814 0.0
H2948 H 0.47447 0.00401 0.20645 0.0
H2949 H 0.59367 0.01961 0.16025 0.0
H2950 H 0.5818 0.02468 0.16726 0.0
H2951 H 0.59654 0.03682 0.15681 0.0
C2952 C 0.54181 0.99846 0.72444 0.0
C2953 C 0.55238 0.00457 0.73707 0.0
C2954 C 0.53985 0.99596 0.75974 0.0
C2955 C 0.54309 0.0085 0.76687 0.0
C2956 C 0.53425 0.00886 0.77748 0.0
C2957 C 0.52203 0.99638 0.78112 0.0
C2958 C 0.5192 0.98361 0.77459 0.0
C2959 C 0.52825 0.98356 0.76404 0.0
C2960 C 0.53775 0.0226 0.78451 0.0
C2961 C 0.50636 0.97011 0.7784 0.0
C2962 C 0.43088 0.00095 0.74721 0.0
C2963 C 0.43984 0.99597 0.75348 0.0
C2964 C 0.46109 0.00449 0.76804 0.0
C2965 C 0.45887 0.99118 0.77107 0.0
C2966 C 0.46866 0.9896 0.77915 0.0
C2967 C 0.48094 0.00156 0.78426 0.0
C2968 C 0.48318 0.01496 0.78133 0.0
C2969 C 0.47316 0.01624 0.77329 0.0
C2970 C 0.46595 0.97516 0.78215 0.0
C2971 C 0.49619 0.02791 0.78659 0.0
C2972 C 0.46253 0.00065 0.87928 0.0
C2973 C 0.45866 0.98791 0.87231 0.0
C2974 C 0.46839 0.9861 0.86442 0.0
C2975 C 0.48217 0.99741 0.86322 0.0
C2976 C 0.48615 0.01017 0.87059 0.0
C2977 C 0.47629 0.01154 0.87876 0.0
C2978 C 0.46391 0.97217 0.8572 0.0
C2979 C 0.50072 0.02246 0.8696 0.0
C2980 C 0.57479 0.99567 0.86819 0.0
C2981 C 0.56788 0.996 0.88249 0.0
C2982 C 0.544 0.98882 0.87459 0.0
C2983 C 0.53055 0.97741 0.87302 0.0
C2984 C 0.52009 0.97854 0.86573 0.0
C2985 C 0.52312 0.99155 0.86018 0.0
C2986 C 0.53661 0.00327 0.86209 0.0
C2987 C 0.54697 0.00174 0.86903 0.0
C2988 C 0.50585 0.96581 0.86386 0.0
C2989 C 0.54013 0.01744 0.85675 0.0
C2990 C 0.51165 0.99692 0.79071 0.0
C2991 C 0.50157 0.99896 0.78403 0.0
C2992 C 0.49161 0.99997 0.79225 0.0
C2993 C 0.49173 0.99909 0.80762 0.0
C2994 C 0.48204 0.00038 0.81623 0.0
C2995 C 0.48227 0.99953 0.83135 0.0
C2996 C 0.49205 0.99713 0.83844 0.0
C2997 C 0.49226 0.99609 0.8538 0.0
C2998 C 0.50234 0.99404 0.86051 0.0
C2999 C 0.51225 0.99293 0.85227 0.0
C3000 C 0.51203 0.99364 0.83686 0.0
C3001 C 0.52166 0.99226 0.8282 0.0
C3002 C 0.52159 0.99336 0.81308 0.0
C3003 C 0.51178 0.99571 0.80604 0.0
C3004 C 0.50181 0.99687 0.81453 0.0
C3005 C 0.50194 0.99585 0.82995 0.0
C3006 C 0.44513 0.01507 0.87277 0.0
C3007 C 0.44132 0.00147 0.8804 0.0
O3008 O 0.54768 0.99552 0.74869 0.0
O3009 O 0.55367 0.98684 0.88152 0.0
O3010 O 0.45318 0.00261 0.88669 0.0
O3011 O 0.4519 0.00642 0.76011 0.0
H3012 H 0.55335 0.01472 0.74014 0.0
H3013 H 0.53182 0.99745 0.7279 0.0
H3014 H 0.53983 0.98799 0.72109 0.0
H3015 H 0.54564 0.00543 0.7149 0.0
H3016 H 0.55247 0.01804 0.76412 0.0
H3017 H 0.52602 0.9739 0.75868 0.0
H3018 H 0.52969 0.0252 0.78147 0.0
H3019 H 0.54804 0.03124 0.78114 0.0
H3020 H 0.53772 0.02181 0.79658 0.0
H3021 H 0.5061 0.96096 0.77308 0.0
H3022 H 0.49698 0.9704 0.77491 0.0
H3023 H 0.50584 0.96877 0.79042 0.0
H3024 H 0.44173 0.98907 0.74609 0.0
H3025 H 0.4308 0.99907 0.73509 0.0
H3026 H 0.43751 0.01262 0.74654 0.0
H3027 H 0.41286 0.99109 0.75979 0.0
H3028 H 0.44955 0.98196 0.76714 0.0
H3029 H 0.47477 0.02646 0.77094 0.0
H3030 H 0.46648 0.97386 0.79409 0.0
H3031 H 0.47412 0.97371 0.77699 0.0
H3032 H 0.45565 0.9669 0.77791 0.0
H3033 H 0.49636 0.03758 0.78345 0.0
H3034 H 0.50544 0.02806 0.78196 0.0
H3035 H 0.49706 0.02781 0.79866 0.0
H3036 H 0.43682 0.99284 0.8721 0.0
H3037 H 0.44806 0.97939 0.87315 0.0
H3038 H 0.47915 0.02127 0.88437 0.0
H3039 H 0.46327 0.97302 0.8452 0.0
H3040 H 0.4536 0.96392 0.86103 0.0
H3041 H 0.47167 0.96896 0.85941 0.0
H3042 H 0.50183 0.03196 0.87502 0.0
H3043 H 0.50369 0.02474 0.85798 0.0
H3044 H 0.50811 0.0199 0.87485 0.0
H3045 H 0.57001 0.00674 0.88468 0.0
H3046 H 0.58618 0.00297 0.86893 0.0
H3047 H 0.57061 0.99891 0.859 0.0
H3048 H 0.57278 0.985 0.86578 0.0
H3049 H 0.52832 0.96749 0.87734 0.0
H3050 H 0.55728 0.01074 0.87004 0.0
H3051 H 0.50256 0.96434 0.85219 0.0
H3052 H 0.49822 0.96729 0.87018 0.0
H3053 H 0.50551 0.95622 0.86763 0.0
H3054 H 0.55031 0.02583 0.8611 0.0
H3055 H 0.53197 0.01983 0.85998 0.0
H3056 H 0.54057 0.01749 0.84465 0.0
H3057 H 0.50146 0.99975 0.77224 0.0
H3058 H 0.47423 0.00215 0.81137 0.0
H3059 H 0.47464 0.00075 0.8374 0.0
H3060 H 0.50257 0.99348 0.87231 0.0
H3061 H 0.52941 0.99037 0.83301 0.0
H3062 H 0.5293 0.99231 0.80697 0.0
H3063 H 0.4496 0.02393 0.88076 0.0
H3064 H 0.43583 0.01436 0.86743 0.0
H3065 H 0.45293 0.01719 0.8642 0.0
C3066 C 0.00382 0.54197 0.72415 0.0
C3067 C 0.99705 0.54345 0.73802 0.0
C3068 C 0.00382 0.53861 0.76148 0.0
C3069 C 0.99078 0.53156 0.76811 0.0
C3070 C 0.98827 0.52224 0.77941 0.0
C3071 C 0.99902 0.51993 0.7841 0.0
C3072 C 0.0124 0.52764 0.77797 0.0
C3073 C 0.01467 0.53708 0.76687 0.0
C3074 C 0.97401 0.51452 0.78601 0.0
C3075 C 0.02411 0.52543 0.78262 0.0
C3076 C 0.94413 0.42646 0.74218 0.0
C3077 C 0.95862 0.43237 0.74895 0.0
C3078 C 0.96534 0.44476 0.77235 0.0
C3079 C 0.97956 0.45371 0.77 0.0
C3080 C 0.98709 0.46609 0.77825 0.0
C3081 C 0.98016 0.46967 0.78884 0.0
C3082 C 0.9659 0.4604 0.7915 0.0
C3083 C 0.95875 0.4479 0.7834 0.0
C3084 C 0.00236 0.47549 0.77538 0.0
C3085 C 0.95804 0.46393 0.80247 0.0
C3086 C 0.00963 0.4599 0.87574 0.0
C3087 C 0.02071 0.47012 0.86765 0.0
C3088 C 0.01981 0.48098 0.86124 0.0
C3089 C 0.00766 0.48178 0.863 0.0
C3090 C 0.99667 0.47182 0.87151 0.0
C3091 C 0.9978 0.46098 0.87775 0.0
C3092 C 0.03175 0.49142 0.85219 0.0
C3093 C 0.9836 0.47242 0.87364 0.0
C3094 C 0.04458 0.59093 0.86596 0.0
C3095 C 0.03204 0.58053 0.87481 0.0
C3096 C 0.02897 0.5573 0.87382 0.0
C3097 C 0.03765 0.55215 0.87009 0.0
C3098 C 0.03225 0.53889 0.86362 0.0
C3099 C 0.01771 0.5304 0.86136 0.0
C3100 C 0.00881 0.53532 0.86589 0.0
C3101 C 0.01457 0.54881 0.87193 0.0
C3102 C 0.04211 0.53405 0.85906 0.0
C3103 C 0.99324 0.52639 0.86425 0.0
C3104 C 0.9959 0.50837 0.79407 0.0
C3105 C 0.98958 0.49497 0.78794 0.0
C3106 C 0.98746 0.48361 0.79614 0.0
C3107 C 0.99204 0.48568 0.81086 0.0
C3108 C 0.99105 0.4747 0.81913 0.0
C3109 C 0.99566 0.47689 0.83359 0.0
C3110 C 0.00125 0.49009 0.84039 0.0
C3111 C 0.00618 0.49245 0.85499 0.0
C3112 C 0.01112 0.50553 0.86163 0.0
C3113 C 0.0119 0.51661 0.85383 0.0
C3114 C 0.00778 0.51464 0.83893 0.0
C3115 C 0.00929 0.52575 0.83043 0.0
C3116 C 0.00538 0.52373 0.81574 0.0
C3117 C 0.99971 0.51052 0.80902 0.0
C3118 C 0.99792 0.49914 0.8174 0.0
C3119 C 0.00221 0.50127 0.83229 0.0
C3120 C 0.02004 0.43924 0.86558 0.0
C3121 C 0.02031 0.44568 0.88063 0.0
O3122 O 0.00618 0.54672 0.74971 0.0
O3123 O 0.03475 0.57036 0.87957 0.0
O3124 O 0.00978 0.44879 0.88156 0.0
O3125 O 0.95768 0.43315 0.76399 0.0
H3126 H 0.98744 0.53318 0.73952 0.0
H3127 H 0.00604 0.53338 0.72539 0.0
H3128 H 0.01375 0.55171 0.72203 0.0
H3129 H 0.99672 0.53947 0.71459 0.0
H3130 H 0.98253 0.53321 0.76431 0.0
H3131 H 0.02475 0.54278 0.76181 0.0
H3132 H 0.96867 0.50347 0.78222 0.0
H3133 H 0.96752 0.51903 0.78287 0.0
H3134 H 0.97486 0.51466 0.79811 0.0
H3135 H 0.03372 0.53185 0.77635 0.0
H3136 H 0.02093 0.51429 0.78112 0.0
H3137 H 0.02649 0.52811 0.7944 0.0
H3138 H 0.96521 0.44297 0.74444 0.0
H3139 H 0.94459 0.42595 0.73008 0.0
H3140 H 0.9399 0.43329 0.74511 0.0
H3141 H 0.93696 0.41584 0.74626 0.0
H3142 H 0.98473 0.45103 0.76169 0.0
H3143 H 0.9478 0.4408 0.78519 0.0
H3144 H 0.0039 0.48466 0.76924 0.0
H3145 H 0.0067 0.47011 0.76888 0.0
H3146 H 0.00829 0.47934 0.78584 0.0
H3147 H 0.9467 0.45631 0.8021 0.0
H3148 H 0.95969 0.47447 0.80043 0.0
H3149 H 0.96199 0.46407 0.81364 0.0
H3150 H 0.0306 0.45536 0.88201 0.0
H3151 H 0.03003 0.46964 0.86603 0.0
H3152 H 0.98932 0.45314 0.88405 0.0
H3153 H 0.02824 0.49066 0.84068 0.0
H3154 H 0.04075 0.48977 0.85242 0.0
H3155 H 0.03522 0.50214 0.85626 0.0
H3156 H 0.97628 0.46433 0.88118 0.0
H3157 H 0.97829 0.47095 0.86292 0.0
H3158 H 0.98627 0.48283 0.87805 0.0
H3159 H 0.02275 0.57596 0.86744 0.0
H3160 H 0.04236 0.59824 0.86008 0.0
H3161 H 0.0471 0.58526 0.85759 0.0
H3162 H 0.05382 0.59694 0.8732 0.0
H3163 H 0.04875 0.55875 0.87186 0.0
H3164 H 0.00785 0.55269 0.87534 0.0
H3165 H 0.03967 0.52965 0.84776 0.0
H3166 H 0.0409 0.5257 0.86644 0.0
H3167 H 0.05313 0.54261 0.8596 0.0
H3168 H 0.98775 0.53079 0.8704 0.0
H3169 H 0.98965 0.51571 0.86814 0.0
H3170 H 0.99027 0.52553 0.85254 0.0
H3171 H 0.98638 0.49337 0.77653 0.0
H3172 H 0.98682 0.46433 0.81447 0.0
H3173 H 0.99471 0.46806 0.83939 0.0
H3174 H 0.0148 0.50722 0.87288 0.0
H3175 H 0.01366 0.53617 0.83499 0.0
H3176 H 0.0068 0.53263 0.80971 0.0
H3177 H 0.00944 0.4306 0.86269 0.0
H3178 H 0.02737 0.43526 0.86546 0.0
H3179 H 0.02325 0.44715 0.85697 0.0
C3180 C 0.52213 0.56359 0.73843 0.0
C3181 C 0.53221 0.57347 0.75028 0.0
C3182 C 0.52087 0.55906 0.7716 0.0
C3183 C 0.51017 0.56214 0.77294 0.0
C3184 C 0.49869 0.55412 0.7818 0.0
C3185 C 0.49781 0.54271 0.78933 0.0
C3186 C 0.50876 0.53984 0.78835 0.0
C3187 C 0.52026 0.54822 0.77965 0.0
C3188 C 0.48733 0.55764 0.78283 0.0
C3189 C 0.50809 0.52765 0.79607 0.0
C3190 C 0.4237 0.48385 0.72509 0.0
C3191 C 0.42703 0.47779 0.73832 0.0
C3192 C 0.43092 0.48812 0.76266 0.0
C3193 C 0.44043 0.4845 0.76801 0.0
C3194 C 0.44976 0.49231 0.77935 0.0
C3195 C 0.44964 0.50404 0.7853 0.0
C3196 C 0.43957 0.50726 0.7804 0.0
C3197 C 0.43014 0.49905 0.76929 0.0
C3198 C 0.4601 0.48834 0.78457 0.0
C3199 C 0.43922 0.51978 0.78635 0.0
C3200 C 0.41645 0.48914 0.87689 0.0
C3201 C 0.42514 0.48396 0.87301 0.0
C3202 C 0.43818 0.4927 0.86683 0.0
C3203 C 0.44238 0.50678 0.86413 0.0
C3204 C 0.43371 0.51204 0.86836 0.0
C3205 C 0.42096 0.50318 0.87496 0.0
C3206 C 0.4474 0.48685 0.86312 0.0
C3207 C 0.4378 0.52699 0.86583 0.0
C3208 C 0.53432 0.59992 0.87867 0.0
C3209 C 0.52921 0.59157 0.89274 0.0
C3210 C 0.51381 0.56764 0.88327 0.0
C3211 C 0.51267 0.55468 0.88101 0.0
C3212 C 0.50128 0.54389 0.87338 0.0
C3213 C 0.4908 0.54619 0.86782 0.0
C3214 C 0.49165 0.55915 0.87041 0.0
C3215 C 0.5031 0.56973 0.87817 0.0
C3216 C 0.50064 0.53016 0.87089 0.0
C3217 C 0.48063 0.56193 0.86463 0.0
C3218 C 0.48492 0.53312 0.79718 0.0
C3219 C 0.47367 0.52321 0.78882 0.0
C3220 C 0.46108 0.51386 0.79523 0.0
C3221 C 0.45962 0.51423 0.81053 0.0
C3222 C 0.44713 0.50493 0.81737 0.0
C3223 C 0.44575 0.50554 0.83242 0.0
C3224 C 0.45691 0.5153 0.84125 0.0
C3225 C 0.45566 0.51595 0.85659 0.0
C3226 C 0.46694 0.52593 0.86497 0.0
C3227 C 0.47944 0.53542 0.85844 0.0
C3228 C 0.4809 0.53489 0.84316 0.0
C3229 C 0.49333 0.54434 0.83625 0.0
C3230 C 0.49467 0.54381 0.8212 0.0
C3231 C 0.48365 0.53378 0.81248 0.0
C3232 C 0.47097 0.52423 0.81918 0.0
C3233 C 0.46962 0.52476 0.83455 0.0
C3234 C 0.38037 0.46634 0.87528 0.0
C3235 C 0.39431 0.46735 0.87848 0.0
O3236 O 0.53179 0.56605 0.76251 0.0
O3237 O 0.52547 0.5778 0.89015 0.0
O3238 O 0.40376 0.48095 0.88275 0.0
O3239 O 0.42268 0.48152 0.75086 0.0
H3240 H 0.52933 0.58135 0.75337 0.0
H3241 H 0.51128 0.55835 0.74237 0.0
H3242 H 0.52474 0.5555 0.73539 0.0
H3243 H 0.52263 0.56948 0.72853 0.0
H3244 H 0.5106 0.57067 0.76703 0.0
H3245 H 0.52862 0.54599 0.77864 0.0
H3246 H 0.47793 0.54952 0.77692 0.0
H3247 H 0.49041 0.56789 0.77802 0.0
H3248 H 0.48448 0.55777 0.79441 0.0
H3249 H 0.51721 0.52649 0.7937 0.0
H3250 H 0.4985 0.51789 0.79269 0.0
H3251 H 0.50762 0.529 0.80804 0.0
H3252 H 0.43854 0.48246 0.73854 0.0
H3253 H 0.42711 0.481 0.71489 0.0
H3254 H 0.42927 0.49538 0.72614 0.0
H3255 H 0.41237 0.47994 0.72426 0.0
H3256 H 0.4407 0.47572 0.76315 0.0
H3257 H 0.42261 0.50161 0.76516 0.0
H3258 H 0.46067 0.48867 0.79669 0.0
H3259 H 0.47057 0.49596 0.78052 0.0
H3260 H 0.45742 0.47779 0.78061 0.0
H3261 H 0.43103 0.52112 0.781 0.0
H3262 H 0.44944 0.52935 0.78475 0.0
H3263 H 0.43728 0.51871 0.79826 0.0
H3264 H 0.39766 0.46456 0.86815 0.0
H3265 H 0.42181 0.47315 0.87498 0.0
H3266 H 0.41423 0.50709 0.87824 0.0
H3267 H 0.44754 0.48558 0.85109 0.0
H3268 H 0.44373 0.47656 0.86812 0.0
H3269 H 0.45824 0.49413 0.86687 0.0
H3270 H 0.42906 0.52887 0.86775 0.0
H3271 H 0.44149 0.52998 0.85449 0.0
H3272 H 0.44646 0.53386 0.87339 0.0
H3273 H 0.5201 0.59205 0.89685 0.0
H3274 H 0.53771 0.61103 0.88092 0.0
H3275 H 0.5259 0.59588 0.8703 0.0
H3276 H 0.54316 0.59926 0.87406 0.0
H3277 H 0.5209 0.55311 0.88506 0.0
H3278 H 0.50366 0.57961 0.87995 0.0
H3279 H 0.5014 0.52851 0.85903 0.0
H3280 H 0.49051 0.5215 0.8746 0.0
H3281 H 0.50914 0.5297 0.87673 0.0
H3282 H 0.48271 0.57251 0.86769 0.0
H3283 H 0.47035 0.55413 0.86893 0.0
H3284 H 0.48001 0.56083 0.85254 0.0
H3285 H 0.4747 0.52285 0.77706 0.0
H3286 H 0.43825 0.49713 0.81114 0.0
H3287 H 0.43582 0.49824 0.83703 0.0
H3288 H 0.46589 0.52647 0.8767 0.0
H3289 H 0.50218 0.55228 0.84239 0.0
H3290 H 0.50445 0.55136 0.81647 0.0
H3291 H 0.37634 0.46875 0.8853 0.0
H3292 H 0.37261 0.45574 0.87119 0.0
H3293 H 0.38169 0.4739 0.86677 0.0
C3294 C 0.63343 0.77818 0.61547 0.0
C3295 C 0.63029 0.7669 0.60382 0.0
C3296 C 0.63155 0.77978 0.58173 0.0
C3297 C 0.61801 0.77762 0.58213 0.0
C3298 C 0.61404 0.78504 0.57299 0.0
C3299 C 0.62386 0.79503 0.56348 0.0
C3300 C 0.63748 0.79719 0.56298 0.0
C3301 C 0.64105 0.78933 0.57194 0.0
C3302 C 0.59935 0.78229 0.57364 0.0
C3303 C 0.64832 0.80795 0.5532 0.0
C3304 C 0.59987 0.87096 0.58801 0.0
C3305 C 0.61346 0.87223 0.59357 0.0
C3306 C 0.61938 0.85924 0.57583 0.0
C3307 C 0.62936 0.86065 0.56579 0.0
C3308 C 0.6286 0.849 0.55883 0.0
C3309 C 0.61728 0.83557 0.56169 0.0
C3310 C 0.6071 0.83402 0.57184 0.0
C3311 C 0.60832 0.84586 0.57894 0.0
C3312 C 0.6399 0.85109 0.54839 0.0
C3313 C 0.59487 0.81987 0.57514 0.0
C3314 C 0.58816 0.83736 0.47194 0.0
C3315 C 0.60226 0.84264 0.4752 0.0
C3316 C 0.60672 0.83422 0.48173 0.0
C3317 C 0.59677 0.8204 0.48548 0.0
C3318 C 0.58262 0.81493 0.48167 0.0
C3319 C 0.57855 0.82345 0.47469 0.0
C3320 C 0.622 0.84023 0.48487 0.0
C3321 C 0.57172 0.80022 0.48535 0.0
C3322 C 0.60579 0.73221 0.47896 0.0
C3323 C 0.60526 0.73816 0.46414 0.0
C3324 C 0.61104 0.76199 0.47126 0.0
C3325 C 0.62183 0.77584 0.47184 0.0
C3326 C 0.6203 0.78613 0.47911 0.0
C3327 C 0.60756 0.78245 0.48587 0.0
C3328 C 0.59642 0.76853 0.48499 0.0
C3329 C 0.59827 0.7584 0.47773 0.0
C3330 C 0.63238 0.80089 0.4798 0.0
C3331 C 0.58265 0.76433 0.49193 0.0
C3332 C 0.61999 0.80361 0.55455 0.0
C3333 C 0.62011 0.81495 0.56144 0.0
C3334 C 0.6161 0.82321 0.55395 0.0
C3335 C 0.61165 0.82001 0.5392 0.0
C3336 C 0.60684 0.82763 0.53157 0.0
C3337 C 0.60305 0.8248 0.51689 0.0
C3338 C 0.60414 0.81438 0.5092 0.0
C3339 C 0.60105 0.81193 0.49407 0.0
C3340 C 0.60214 0.8014 0.48682 0.0
C3341 C 0.60611 0.7931 0.49432 0.0
C3342 C 0.60918 0.79535 0.50946 0.0
C3343 C 0.61307 0.7871 0.51736 0.0
C3344 C 0.61633 0.78958 0.5322 0.0
C3345 C 0.61615 0.80061 0.53962 0.0
C3346 C 0.61204 0.80891 0.53191 0.0
C3347 C 0.6084 0.80618 0.51686 0.0
C3348 C 0.57566 0.86102 0.47248 0.0
C3349 C 0.58819 0.85914 0.47045 0.0
O3350 O 0.63593 0.77301 0.59058 0.0
O3351 O 0.61353 0.75255 0.46448 0.0
O3352 O 0.58353 0.84546 0.46624 0.0
O3353 O 0.62081 0.87106 0.58204 0.0
H3354 H 0.61887 0.75997 0.60259 0.0
H3355 H 0.62873 0.78448 0.61224 0.0
H3356 H 0.64483 0.78521 0.61683 0.0
H3357 H 0.62898 0.77338 0.62612 0.0
H3358 H 0.61044 0.77016 0.58947 0.0
H3359 H 0.65145 0.79089 0.57166 0.0
H3360 H 0.59943 0.79143 0.57873 0.0
H3361 H 0.5925 0.77297 0.58013 0.0
H3362 H 0.59489 0.78081 0.56246 0.0
H3363 H 0.65875 0.80925 0.5551 0.0
H3364 H 0.64901 0.81816 0.55501 0.0
H3365 H 0.64529 0.80483 0.5416 0.0
H3366 H 0.61097 0.86387 0.60154 0.0
H3367 H 0.59417 0.87224 0.59725 0.0
H3368 H 0.59306 0.86058 0.58285 0.0
H3369 H 0.60197 0.87899 0.57977 0.0
H3370 H 0.63787 0.871 0.5635 0.0
H3371 H 0.6005 0.84454 0.58671 0.0
H3372 H 0.63573 0.84908 0.53703 0.0
H3373 H 0.64347 0.84362 0.55064 0.0
H3374 H 0.64898 0.86184 0.5491 0.0
H3375 H 0.58695 0.82057 0.5818 0.0
H3376 H 0.59857 0.81382 0.58125 0.0
H3377 H 0.58988 0.81404 0.56484 0.0
H3378 H 0.59362 0.86147 0.48127 0.0
H3379 H 0.60977 0.85332 0.47264 0.0
H3380 H 0.56772 0.81945 0.47189 0.0
H3381 H 0.62412 0.84296 0.49667 0.0
H3382 H 0.62851 0.8498 0.47857 0.0
H3383 H 0.62519 0.83249 0.48223 0.0
H3384 H 0.56104 0.79795 0.48274 0.0
H3385 H 0.57237 0.79841 0.49715 0.0
H3386 H 0.57366 0.79278 0.47909 0.0
H3387 H 0.59436 0.73514 0.46142 0.0
H3388 H 0.59936 0.72067 0.47858 0.0
H3389 H 0.60166 0.73611 0.48765 0.0
H3390 H 0.61666 0.7353 0.48193 0.0
H3391 H 0.6316 0.77852 0.46675 0.0
H3392 H 0.58974 0.74776 0.47727 0.0
H3393 H 0.63533 0.80424 0.49138 0.0
H3394 H 0.62928 0.80798 0.47488 0.0
H3395 H 0.64161 0.80205 0.47399 0.0
H3396 H 0.57475 0.75327 0.48958 0.0
H3397 H 0.57865 0.77102 0.48793 0.0
H3398 H 0.58409 0.76594 0.50395 0.0
H3399 H 0.62343 0.81741 0.57278 0.0
H3400 H 0.60598 0.83591 0.53685 0.0
H3401 H 0.59943 0.83103 0.51162 0.0
H3402 H 0.59994 0.79968 0.47518 0.0
H3403 H 0.61365 0.77862 0.51217 0.0
H3404 H 0.61921 0.78286 0.53772 0.0
H3405 H 0.56962 0.8587 0.4621 0.0
H3406 H 0.57909 0.87186 0.47611 0.0
H3407 H 0.56876 0.85383 0.48094 0.0
C3408 C 0.12487 0.73048 0.59353 0.0
C3409 C 0.12578 0.74239 0.60299 0.0
C3410 C 0.13943 0.76339 0.58833 0.0
C3411 C 0.13863 0.77357 0.58039 0.0
C3412 C 0.15037 0.78432 0.57372 0.0
C3413 C 0.16322 0.78475 0.57486 0.0
C3414 C 0.16417 0.77454 0.58294 0.0
C3415 C 0.15228 0.76399 0.58967 0.0
C3416 C 0.14901 0.79516 0.56537 0.0
C3417 C 0.17773 0.77473 0.58433 0.0
C3418 C 0.24999 0.8835 0.61863 0.0
C3419 C 0.24137 0.86875 0.61355 0.0
C3420 C 0.22241 0.85485 0.59614 0.0
C3421 C 0.22445 0.84338 0.59577 0.0
C3422 C 0.21602 0.83165 0.58689 0.0
C3423 C 0.20528 0.83133 0.57834 0.0
C3424 C 0.20312 0.84279 0.57882 0.0
C3425 C 0.21179 0.85444 0.58766 0.0
C3426 C 0.21859 0.8196 0.58662 0.0
C3427 C 0.19163 0.84271 0.57 0.0
C3428 C 0.23447 0.85249 0.48464 0.0
C3429 C 0.23602 0.84089 0.4868 0.0
C3430 C 0.22612 0.82941 0.49461 0.0
C3431 C 0.21427 0.8294 0.50006 0.0
C3432 C 0.21263 0.84104 0.49775 0.0
C3433 C 0.22294 0.85255 0.49034 0.0
C3434 C 0.22832 0.81728 0.49697 0.0
C3435 C 0.19996 0.8413 0.50296 0.0
C3436 C 0.12924 0.72143 0.48336 0.0
C3437 C 0.13285 0.7359 0.47834 0.0
C3438 C 0.15589 0.75621 0.4824 0.0
C3439 C 0.1692 0.75907 0.48625 0.0
C3440 C 0.17847 0.77136 0.49391 0.0
C3441 C 0.17438 0.78116 0.49745 0.0
C3442 C 0.16121 0.7787 0.49277 0.0
C3443 C 0.15206 0.7662 0.48534 0.0
C3444 C 0.19248 0.77369 0.49859 0.0
C3445 C 0.15669 0.78914 0.4959 0.0
C3446 C 0.1756 0.79584 0.56743 0.0
C3447 C 0.18478 0.80773 0.57557 0.0
C3448 C 0.19618 0.81893 0.56904 0.0
C3449 C 0.19847 0.81836 0.55393 0.0
C3450 C 0.20977 0.82947 0.54698 0.0
C3451 C 0.21157 0.82904 0.532 0.0
C3452 C 0.20216 0.81747 0.52338 0.0
C3453 C 0.20352 0.81719 0.50804 0.0
C3454 C 0.19428 0.80528 0.49991 0.0
C3455 C 0.1836 0.79361 0.50666 0.0
C3456 C 0.18182 0.79387 0.52192 0.0
C3457 C 0.17101 0.78243 0.52904 0.0
C3458 C 0.16901 0.783 0.54395 0.0
C3459 C 0.17785 0.79496 0.55237 0.0
C3460 C 0.18917 0.80638 0.54555 0.0
C3461 C 0.19108 0.80589 0.53028 0.0
C3462 C 0.25797 0.87556 0.45643 0.0
C3463 C 0.25263 0.8636 0.46649 0.0
O3464 O 0.12752 0.75322 0.59429 0.0
O3465 O 0.14701 0.74373 0.47594 0.0
O3466 O 0.24374 0.86368 0.47696 0.0
O3467 O 0.23045 0.86648 0.60443 0.0
H3468 H 0.13468 0.74617 0.6108 0.0
H3469 H 0.13462 0.73404 0.58741 0.0
H3470 H 0.11614 0.72664 0.58551 0.0
H3471 H 0.12326 0.72173 0.60051 0.0
H3472 H 0.1287 0.77305 0.57944 0.0
H3473 H 0.15313 0.75623 0.5958 0.0
H3474 H 0.15704 0.80576 0.56919 0.0
H3475 H 0.1386 0.79404 0.56659 0.0
H3476 H 0.15076 0.79423 0.55359 0.0
H3477 H 0.17663 0.76566 0.59038 0.0
H3478 H 0.1855 0.78442 0.59015 0.0
H3479 H 0.18186 0.77475 0.57332 0.0
H3480 H 0.23818 0.86083 0.62224 0.0
H3481 H 0.26935 0.89006 0.60914 0.0
H3482 H 0.24853 0.88319 0.6308 0.0
H3483 H 0.24373 0.88866 0.61641 0.0
H3484 H 0.2326 0.84352 0.60234 0.0
H3485 H 0.21029 0.86331 0.58803 0.0
H3486 H 0.20942 0.81024 0.59101 0.0
H3487 H 0.2279 0.8218 0.59319 0.0
H3488 H 0.21999 0.81711 0.5752 0.0
H3489 H 0.19073 0.85204 0.57233 0.0
H3490 H 0.18155 0.83324 0.57237 0.0
H3491 H 0.19362 0.84239 0.55818 0.0
H3492 H 0.26065 0.8615 0.47105 0.0
H3493 H 0.24499 0.84079 0.48253 0.0
H3494 H 0.22183 0.86154 0.48857 0.0
H3495 H 0.22635 0.81398 0.50851 0.0
H3496 H 0.239 0.81981 0.49414 0.0
H3497 H 0.22085 0.80833 0.49 0.0
H3498 H 0.19909 0.84989 0.49803 0.0
H3499 H 0.20056 0.84278 0.515 0.0
H3500 H 0.19036 0.83128 0.50028 0.0
H3501 H 0.12981 0.74056 0.4874 0.0
H3502 H 0.11791 0.71493 0.48534 0.0
H3503 H 0.13488 0.72236 0.49372 0.0
H3504 H 0.13226 0.71612 0.47504 0.0
H3505 H 0.17213 0.75138 0.48369 0.0
H3506 H 0.14193 0.76424 0.48184 0.0
H3507 H 0.19377 0.77531 0.51061 0.0
H3508 H 0.20079 0.78325 0.49348 0.0
H3509 H 0.19388 0.76481 0.49546 0.0
H3510 H 0.14688 0.78647 0.49007 0.0
H3511 H 0.16493 0.7997 0.49266 0.0
H3512 H 0.15509 0.78955 0.5078 0.0
H3513 H 0.18292 0.80837 0.5871 0.0
H3514 H 0.21727 0.8387 0.55303 0.0
H3515 H 0.2204 0.83794 0.52723 0.0
H3516 H 0.19539 0.8051 0.48815 0.0
H3517 H 0.16384 0.77295 0.52313 0.0
H3518 H 0.16041 0.77394 0.54879 0.0
H3519 H 0.26953 0.88158 0.45845 0.0
H3520 H 0.25609 0.88359 0.46185 0.0
H3521 H 0.24913 0.86621 0.43615 0.0
C3522 C 0.14929 0.38795 0.61824 0.0
C3523 C 0.1392 0.38167 0.60518 0.0
C3524 C 0.15281 0.37602 0.58819 0.0
C3525 C 0.16255 0.38981 0.58452 0.0
C3526 C 0.17401 0.39275 0.57581 0.0
C3527 C 0.1757 0.38171 0.57058 0.0
C3528 C 0.16571 0.36782 0.57387 0.0
C3529 C 0.15437 0.36517 0.58262 0.0
C3530 C 0.18445 0.40768 0.5724 0.0
C3531 C 0.16716 0.35579 0.56838 0.0
C3532 C 0.25501 0.40427 0.63101 0.0
C3533 C 0.24953 0.39291 0.61909 0.0
C3534 C 0.24407 0.39647 0.59445 0.0
C3535 C 0.23368 0.38286 0.5907 0.0
C3536 C 0.22367 0.38039 0.57994 0.0
C3537 C 0.22394 0.39181 0.57302 0.0
C3538 C 0.23475 0.40554 0.57644 0.0
C3539 C 0.24488 0.40765 0.58692 0.0
C3540 C 0.21253 0.3656 0.57635 0.0
C3541 C 0.23527 0.41802 0.56955 0.0
C3542 C 0.25308 0.40325 0.47999 0.0
C3543 C 0.24355 0.38934 0.4833 0.0
C3544 C 0.23094 0.38575 0.49011 0.0
C3545 C 0.2279 0.39631 0.49375 0.0
C3546 C 0.23732 0.41026 0.48999 0.0
C3547 C 0.24971 0.4135 0.48297 0.0
C3548 C 0.22093 0.37072 0.49353 0.0
C3549 C 0.23439 0.42178 0.49357 0.0
C3550 C 0.13689 0.39798 0.47957 0.0
C3551 C 0.14131 0.39273 0.46622 0.0
C3552 C 0.15627 0.38463 0.47683 0.0
C3553 C 0.1571 0.37283 0.47994 0.0
C3554 C 0.1687 0.37394 0.48726 0.0
C3555 C 0.17968 0.38722 0.49171 0.0
C3556 C 0.17909 0.39925 0.48831 0.0
C3557 C 0.16744 0.39785 0.48083 0.0
C3558 C 0.16906 0.3609 0.49057 0.0
C3559 C 0.19065 0.41357 0.49288 0.0
C3560 C 0.18832 0.38472 0.56235 0.0
C3561 C 0.19988 0.38677 0.57038 0.0
C3562 C 0.21212 0.38947 0.56349 0.0
C3563 C 0.2129 0.39011 0.54809 0.0
C3564 C 0.22495 0.39258 0.54076 0.0
C3565 C 0.2257 0.39353 0.52561 0.0
C3566 C 0.21435 0.39182 0.51719 0.0
C3567 C 0.21504 0.39286 0.50179 0.0
C3568 C 0.20355 0.39114 0.49378 0.0
C3569 C 0.19135 0.38847 0.50075 0.0
C3570 C 0.19047 0.3874 0.51612 0.0
C3571 C 0.17836 0.38478 0.52347 0.0
C3572 C 0.1776 0.38382 0.5386 0.0
C3573 C 0.18895 0.38555 0.54697 0.0
C3574 C 0.20129 0.38823 0.53981 0.0
C3575 C 0.20202 0.3891 0.52436 0.0
C3576 C 0.28802 0.41335 0.4824 0.0
C3577 C 0.27395 0.40164 0.47674 0.0
O3578 O 0.14191 0.37268 0.59716 0.0
O3579 O 0.14445 0.38268 0.47023 0.0
O3580 O 0.2655 0.40712 0.47377 0.0
O3581 O 0.25318 0.39912 0.60557 0.0
H3582 H 0.1403 0.39018 0.59808 0.0
H3583 H 0.14683 0.39485 0.62484 0.0
H3584 H 0.14861 0.3796 0.6253 0.0
H3585 H 0.16016 0.39428 0.6145 0.0
H3586 H 0.16143 0.39836 0.58853 0.0
H3587 H 0.14677 0.35457 0.58539 0.0
H3588 H 0.19476 0.41045 0.57706 0.0
H3589 H 0.18143 0.41507 0.57686 0.0
H3590 H 0.18561 0.40893 0.56039 0.0
H3591 H 0.15821 0.34555 0.57142 0.0
H3592 H 0.17681 0.35671 0.57296 0.0
H3593 H 0.16807 0.35613 0.5563 0.0
H3594 H 0.238 0.38689 0.62014 0.0
H3595 H 0.25212 0.39955 0.64197 0.0
H3596 H 0.25038 0.41096 0.62951 0.0
H3597 H 0.26649 0.41092 0.6305 0.0
H3598 H 0.23333 0.37419 0.59631 0.0
H3599 H 0.25306 0.41811 0.58984 0.0
H3600 H 0.21073 0.36403 0.56436 0.0
H3601 H 0.20265 0.36347 0.58142 0.0
H3602 H 0.21524 0.35795 0.58051 0.0
H3603 H 0.24363 0.428 0.57437 0.0
H3604 H 0.22517 0.41756 0.57088 0.0
H3605 H 0.23713 0.41793 0.55767 0.0
H3606 H 0.2695 0.39387 0.48558 0.0
H3607 H 0.24589 0.38129 0.48047 0.0
H3608 H 0.25705 0.42416 0.48013 0.0
H3609 H 0.22015 0.36945 0.50555 0.0
H3610 H 0.22423 0.36362 0.48883 0.0
H3611 H 0.21041 0.36757 0.48923 0.0
H3612 H 0.24324 0.43221 0.49092 0.0
H3613 H 0.23203 0.42167 0.50535 0.0
H3614 H 0.22511 0.42004 0.48727 0.0
H3615 H 0.15058 0.40166 0.46132 0.0
H3616 H 0.13392 0.40567 0.47619 0.0
H3617 H 0.14555 0.40317 0.48763 0.0
H3618 H 0.12794 0.38922 0.48505 0.0
H3619 H 0.1485 0.36268 0.47675 0.0
H3620 H 0.16711 0.40714 0.47839 0.0
H3621 H 0.16856 0.35942 0.50256 0.0
H3622 H 0.17898 0.36196 0.48681 0.0
H3623 H 0.16028 0.35149 0.4853 0.0
H3624 H 0.18853 0.4219 0.48967 0.0
H3625 H 0.2005 0.41562 0.4878 0.0
H3626 H 0.1922 0.41411 0.50491 0.0
H3627 H 0.19935 0.38628 0.5822 0.0
H3628 H 0.23397 0.3939 0.54667 0.0
H3629 H 0.23531 0.39561 0.52059 0.0
H3630 H 0.20418 0.39205 0.482 0.0
H3631 H 0.16931 0.38345 0.51763 0.0
H3632 H 0.16801 0.38177 0.54366 0.0
H3633 H 0.29497 0.40923 0.48502 0.0
H3634 H 0.28656 0.41807 0.49252 0.0
H3635 H 0.29307 0.42161 0.47414 0.0
C3636 C 0.98422 0.38087 0.07778 0.0
C3637 C 0.99613 0.38014 0.07459 0.0
C3638 C 0.98476 0.39077 0.08785 0.0
C3639 C 0.99745 0.39999 0.09511 0.0
C3640 C 0.00941 0.39909 0.09224 0.0
C3641 C 0.00865 0.38931 0.08192 0.0
C3642 C 0.97183 0.39153 0.09053 0.0
C3643 C 0.02311 0.40863 0.0999 0.0
C3644 C 0.00463 0.43486 0.11051 0.0
C3645 C 0.00201 0.43203 0.12541 0.0
C3646 C 0.00266 0.42437 0.10045 0.0
C3647 C 0.99839 0.41085 0.10547 0.0
C3648 C 0.99576 0.40792 0.12048 0.0
C3649 C 0.99757 0.41854 0.13026 0.0
C3650 C 0.00544 0.42785 0.08449 0.0
C3651 C 0.99149 0.39372 0.12629 0.0
H3652 H 0.97445 0.37373 0.07237 0.0
H3653 H 0.01801 0.38912 0.07935 0.0
H3654 H 0.96921 0.39011 0.10229 0.0
H3655 H 0.97372 0.40197 0.08762 0.0
H3656 H 0.96275 0.38354 0.08409 0.0
H3657 H 0.03121 0.40603 0.09709 0.0
H3658 H 0.02689 0.41957 0.09687 0.0
H3659 H 0.02173 0.40801 0.11191 0.0
H3660 H 0.00836 0.44532 0.1067 0.0
H3661 H 0.99581 0.41641 0.1418 0.0
H3662 H 0.99636 0.42035 0.07773 0.0
H3663 H 0.01444 0.42694 0.08099 0.0
H3664 H 0.00768 0.43856 0.08222 0.0
H3665 H 0.9821 0.3856 0.12039 0.0
H3666 H 0.98929 0.39298 0.13817 0.0
H3667 H 0.99989 0.39134 0.1244 0.0
C3668 C 0.63467 0.59044 0.07669 0.0
C3669 C 0.62629 0.59248 0.06674 0.0
C3670 C 0.62882 0.57982 0.08699 0.0
C3671 C 0.61424 0.57079 0.08715 0.0
C3672 C 0.60572 0.57263 0.07703 0.0
C3673 C 0.61182 0.58353 0.06709 0.0
C3674 C 0.63823 0.57831 0.09776 0.0
C3675 C 0.59015 0.56309 0.07673 0.0
C3676 C 0.60036 0.53574 0.10509 0.0
C3677 C 0.59586 0.53803 0.11857 0.0
C3678 C 0.60625 0.54627 0.09471 0.0
C3679 C 0.60788 0.55948 0.09797 0.0
C3680 C 0.60337 0.56187 0.11156 0.0
C3681 C 0.59727 0.55107 0.12162 0.0
C3682 C 0.61068 0.54325 0.08022 0.0
C3683 C 0.60511 0.57587 0.11552 0.0
H3684 H 0.64586 0.59709 0.07641 0.0
H3685 H 0.60517 0.58514 0.05972 0.0
H3686 H 0.63513 0.57906 0.10908 0.0
H3687 H 0.63716 0.56791 0.09641 0.0
H3688 H 0.64932 0.58638 0.09642 0.0
H3689 H 0.58505 0.56555 0.06777 0.0
H3690 H 0.58753 0.55211 0.07537 0.0
H3691 H 0.58573 0.56394 0.08726 0.0
H3692 H 0.59924 0.52567 0.10266 0.0
H3693 H 0.59369 0.55284 0.13196 0.0
H3694 H 0.62199 0.55037 0.07878 0.0
H3695 H 0.60526 0.54516 0.07117 0.0
H3696 H 0.60842 0.53235 0.07926 0.0
H3697 H 0.61622 0.58407 0.11494 0.0
H3698 H 0.60133 0.57611 0.12666 0.0
H3699 H 0.59934 0.57854 0.10758 0.0
C3700 C 0.40897 0.0254 0.06606 0.0
C3701 C 0.39514 0.02071 0.06976 0.0
C3702 C 0.41881 0.02717 0.07674 0.0
C3703 C 0.41475 0.02432 0.0915 0.0
C3704 C 0.40086 0.01985 0.09534 0.0
C3705 C 0.3912 0.01801 0.0844 0.0
C3706 C 0.43349 0.03178 0.0722 0.0
C3707 C 0.39617 0.01689 0.11098 0.0
C3708 C 0.43584 0.01566 0.11743 0.0
C3709 C 0.44428 0.02851 0.12462 0.0
C3710 C 0.42635 0.01421 0.10648 0.0
C3711 C 0.42498 0.02578 0.10289 0.0
C3712 C 0.43327 0.0387 0.11028 0.0
C3713 C 0.44282 0.0399 0.12105 0.0
C3714 C 0.41772 0.00028 0.09879 0.0
C3715 C 0.43193 0.0512 0.10694 0.0
H3716 H 0.41201 0.02732 0.05472 0.0
H3717 H 0.38053 0.01449 0.0873 0.0
H3718 H 0.44093 0.04143 0.07828 0.0
H3719 H 0.43606 0.02368 0.07497 0.0
H3720 H 0.43502 0.03377 0.06031 0.0
H3721 H 0.38513 0.01398 0.11221 0.0
H3722 H 0.39744 0.00828 0.11507 0.0
H3723 H 0.40272 0.02618 0.11802 0.0
H3724 H 0.43664 0.00671 0.1204 0.0
H3725 H 0.44908 0.04974 0.12683 0.0
H3726 H 0.41931 0.00147 0.08683 0.0
H3727 H 0.40653 0.99625 0.10073 0.0
H3728 H 0.42034 0.99245 0.10254 0.0
H3729 H 0.43411 0.05383 0.09525 0.0
H3730 H 0.43913 0.06049 0.11369 0.0
H3731 H 0.42114 0.04876 0.10892 0.0
C3732 C 0.38119 0.97967 0.94046 0.0
C3733 C 0.38024 0.99143 0.94425 0.0
C3734 C 0.39079 0.98045 0.93011 0.0
C3735 C 0.39944 0.9932 0.92311 0.0
C3736 C 0.39831 0.00499 0.92657 0.0
C3737 C 0.3889 0.00402 0.93722 0.0
C3738 C 0.39187 0.96771 0.92686 0.0
C3739 C 0.40719 0.01872 0.91916 0.0
C3740 C 0.43387 0.00131 0.90673 0.0
C3741 C 0.43038 0.99838 0.89184 0.0
C3742 C 0.42376 0.99913 0.91708 0.0
C3743 C 0.40994 0.99437 0.9124 0.0
C3744 C 0.40635 0.99142 0.89741 0.0
C3745 C 0.41659 0.99334 0.88734 0.0
C3746 C 0.42793 0.00218 0.93302 0.0
C3747 C 0.39182 0.98667 0.89194 0.0
H3748 H 0.37444 0.96983 0.94561 0.0
H3749 H 0.38857 0.01328 0.94024 0.0
H3750 H 0.38991 0.96492 0.91507 0.0
H3751 H 0.40255 0.96997 0.9294 0.0
H3752 H 0.38441 0.95859 0.93325 0.0
H3753 H 0.40438 0.02662 0.92237 0.0
H3754 H 0.41829 0.02287 0.92201 0.0
H3755 H 0.40612 0.01722 0.90712 0.0
H3756 H 0.44451 0.00542 0.91034 0.0
H3757 H 0.41391 0.99124 0.87583 0.0
H3758 H 0.42092 0.99308 0.93968 0.0
H3759 H 0.42692 0.01109 0.93691 0.0
H3760 H 0.43881 0.00474 0.935 0.0
H3761 H 0.38418 0.97718 0.89769 0.0
H3762 H 0.39062 0.98441 0.88 0.0
H3763 H 0.38921 0.99486 0.89434 0.0
C3764 C 0.00703 0.39738 0.95038 0.0
C3765 C 0.01542 0.39132 0.94975 0.0
C3766 C 0.00742 0.4062 0.9394 0.0
C3767 C 0.01614 0.40879 0.92727 0.0
C3768 C 0.02443 0.40252 0.92638 0.0
C3769 C 0.02408 0.39399 0.93769 0.0
C3770 C 0.99857 0.41285 0.94084 0.0
C3771 C 0.0337 0.40487 0.91348 0.0
C3772 C 0.0083 0.42195 0.89257 0.0
C3773 C 0.01881 0.43603 0.89291 0.0
C3774 C 0.00737 0.41293 0.90362 0.0
C3775 C 0.01679 0.41823 0.91561 0.0
C3776 C 0.02693 0.43256 0.91642 0.0
C3777 C 0.02786 0.44126 0.90503 0.0
C3778 C 0.99647 0.39767 0.90232 0.0
C3779 C 0.03688 0.43869 0.92926 0.0
H3780 H 4e-05 0.39515 0.95943 0.0
H3781 H 0.03073 0.38954 0.93714 0.0
H3782 H 0.00522 0.42435 0.94054 0.0
H3783 H 0.99115 0.40959 0.93151 0.0
H3784 H 0.9926 0.41003 0.95114 0.0
H3785 H 0.03905 0.39877 0.91413 0.0
H3786 H 0.0275 0.40194 0.90319 0.0
H3787 H 0.04168 0.41607 0.91286 0.0
H3788 H 0.00094 0.4179 0.88354 0.0
H3789 H 0.03576 0.4522 0.90557 0.0
H3790 H 0.98957 0.39451 0.91192 0.0
H3791 H 0.00156 0.39131 0.90222 0.0
H3792 H 0.98999 0.39519 0.89226 0.0
H3793 H 0.03101 0.43634 0.93959 0.0
H3794 H 0.04374 0.45015 0.92854 0.0
H3795 H 0.04347 0.43389 0.92987 0.0
C3796 C 0.58411 0.615 0.95914 0.0
C3797 C 0.59542 0.62852 0.95743 0.0
C3798 C 0.57325 0.60897 0.94879 0.0
C3799 C 0.57373 0.61659 0.93636 0.0
C3800 C 0.5851 0.63024 0.93455 0.0
C3801 C 0.59579 0.63605 0.94512 0.0
C3802 C 0.5613 0.59439 0.9511 0.0
C3803 C 0.58598 0.63867 0.92142 0.0
C3804 C 0.55228 0.59624 0.90306 0.0
C3805 C 0.54064 0.59783 0.90425 0.0
C3806 C 0.56316 0.60234 0.9134 0.0
C3807 C 0.56237 0.61023 0.92522 0.0
C3808 C 0.55068 0.61193 0.92645 0.0
C3809 C 0.53999 0.60578 0.9159 0.0
C3810 C 0.5755 0.60037 0.91165 0.0
C3811 C 0.54946 0.62024 0.93893 0.0
H3812 H 0.58385 0.60901 0.96847 0.0
H3813 H 0.6044 0.64656 0.94381 0.0
H3814 H 0.55136 0.59437 0.95122 0.0
H3815 H 0.56064 0.58746 0.94193 0.0
H3816 H 0.56236 0.58996 0.96148 0.0
H3817 H 0.59554 0.64911 0.9216 0.0
H3818 H 0.58582 0.63305 0.91125 0.0
H3819 H 0.57682 0.64005 0.92096 0.0
H3820 H 0.55288 0.59024 0.89397 0.0
H3821 H 0.53109 0.60718 0.91676 0.0
H3822 H 0.57661 0.59517 0.92137 0.0
H3823 H 0.58516 0.61064 0.9109 0.0
H3824 H 0.57456 0.59404 0.90177 0.0
H3825 H 0.5498 0.61565 0.94949 0.0
H3826 H 0.53969 0.62056 0.93832 0.0
H3827 H 0.55838 0.63106 0.93893 0.0
C3828 C 0.00526 0.61143 0.9386 0.0
C3829 C 0.0164 0.62186 0.94686 0.0
C3830 C 0.00754 0.60453 0.92696 0.0
C3831 C 0.02128 0.60808 0.92352 0.0
C3832 C 0.03256 0.61856 0.93182 0.0
C3833 C 0.02999 0.62533 0.94338 0.0
C3834 C 0.99522 0.59338 0.9184 0.0
C3835 C 0.04737 0.62267 0.92843 0.0
C3836 C 0.02726 0.58229 0.90182 0.0
C3837 C 0.02926 0.58762 0.88764 0.0
C3838 C 0.02454 0.58877 0.91356 0.0
C3839 C 0.02386 0.60092 0.91114 0.0
C3840 C 0.02558 0.60622 0.89688 0.0
C3841 C 0.02795 0.59934 0.88529 0.0
C3842 C 0.02239 0.58261 0.92856 0.0
C3843 C 0.02498 0.61919 0.89387 0.0
H3844 H 0.99471 0.60851 0.94137 0.0
H3845 H 0.03866 0.63348 0.94958 0.0
H3846 H 0.99613 0.59618 0.90672 0.0
H3847 H 0.99505 0.58336 0.91898 0.0
H3848 H 0.9852 0.59184 0.92249 0.0
H3849 H 0.05497 0.63093 0.93601 0.0
H3850 H 0.04868 0.61347 0.92914 0.0
H3851 H 0.04983 0.62648 0.91709 0.0
H3852 H 0.02776 0.573 0.90383 0.0
H3853 H 0.02886 0.60325 0.87436 0.0
H3854 H 0.0121 0.58016 0.93274 0.0
H3855 H 0.03036 0.59029 0.93629 0.0
H3856 H 0.02297 0.57295 0.92858 0.0
H3857 H 0.01466 0.61758 0.89687 0.0
H3858 H 0.02687 0.62216 0.88222 0.0
H3859 H 0.03285 0.62801 0.9007 0.0
C3860 C 0.38718 0.41091 0.93761 0.0
C3861 C 0.37484 0.40646 0.94526 0.0
C3862 C 0.39131 0.42109 0.92687 0.0
C3863 C 0.3827 0.42662 0.92349 0.0
C3864 C 0.37012 0.42198 0.93109 0.0
C3865 C 0.36643 0.41207 0.94203 0.0
C3866 C 0.40494 0.42601 0.91925 0.0
C3867 C 0.36048 0.42737 0.92756 0.0
C3868 C 0.39665 0.46133 0.90475 0.0
C3869 C 0.3926 0.45709 0.89016 0.0
C3870 C 0.39399 0.45154 0.91561 0.0
C3871 C 0.38671 0.43717 0.9119 0.0
C3872 C 0.38269 0.43284 0.89721 0.0
C3873 C 0.38582 0.44285 0.88651 0.0
C3874 C 0.3987 0.45657 0.93112 0.0
C3875 C 0.37464 0.4176 0.89285 0.0
H3876 H 0.3937 0.4066 0.94024 0.0
H3877 H 0.35685 0.40852 0.94793 0.0
H3878 H 0.40311 0.42382 0.90735 0.0
H3879 H 0.41166 0.43745 0.92074 0.0
H3880 H 0.41061 0.42094 0.92344 0.0
H3881 H 0.35092 0.42241 0.93422 0.0
H3882 H 0.36589 0.43879 0.92952 0.0
H3883 H 0.35743 0.42541 0.91584 0.0
H3884 H 0.40176 0.47227 0.90776 0.0
H3885 H 0.38258 0.43955 0.87528 0.0
H3886 H 0.40466 0.45188 0.93549 0.0
H3887 H 0.38953 0.45321 0.93817 0.0
H3888 H 0.40529 0.46809 0.93198 0.0
H3889 H 0.38042 0.4124 0.8962 0.0
H3890 H 0.37258 0.41598 0.8809 0.0
H3891 H 0.36456 0.4124 0.89858 0.0
C3892 C 0.61236 0.97993 0.93948 0.0
C3893 C 0.60886 0.98119 0.95387 0.0
C3894 C 0.60469 0.98054 0.92763 0.0
C3895 C 0.5932 0.98233 0.93027 0.0
C3896 C 0.58905 0.98262 0.94479 0.0
C3897 C 0.59698 0.98212 0.95643 0.0
C3898 C 0.6095 0.98026 0.91231 0.0
C3899 C 0.57674 0.98431 0.94806 0.0
C3900 C 0.58557 0.00274 0.90276 0.0
C3901 C 0.57408 0.99219 0.89508 0.0
C3902 C 0.59187 0.99963 0.91419 0.0
C3903 C 0.58659 0.98558 0.91802 0.0
C3904 C 0.57511 0.97482 0.9102 0.0
C3905 C 0.56906 0.97825 0.8987 0.0
C3906 C 0.6042 0.0114 0.92215 0.0
C3907 C 0.56922 0.95974 0.91399 0.0
H3908 H 0.62161 0.97933 0.93747 0.0
H3909 H 0.59417 0.98293 0.96757 0.0
H3910 H 0.60061 0.97301 0.90519 0.0
H3911 H 0.61404 0.99078 0.90761 0.0
H3912 H 0.61746 0.97709 0.91204 0.0
H3913 H 0.57385 0.9826 0.95976 0.0
H3914 H 0.57925 0.99499 0.94528 0.0
H3915 H 0.56762 0.97692 0.94129 0.0
H3916 H 0.58966 0.0135 0.89977 0.0
H3917 H 0.5604 0.97002 0.89256 0.0
H3918 H 0.61329 0.00993 0.92139 0.0
H3919 H 0.60184 0.01141 0.9339 0.0
H3920 H 0.60713 0.02174 0.91769 0.0
H3921 H 0.57732 0.95684 0.91286 0.0
H3922 H 0.56018 0.95263 0.90693 0.0
H3923 H 0.56591 0.95812 0.92555 0.0
C3924 C 0.61964 0.02012 0.07096 0.0
C3925 C 0.63182 0.02005 0.07459 0.0
C3926 C 0.61121 0.02083 0.08186 0.0
C3927 C 0.61512 0.0216 0.09672 0.0
C3928 C 0.62764 0.02198 0.10042 0.0
C3929 C 0.6358 0.02113 0.0893 0.0
C3930 C 0.59788 0.02027 0.07749 0.0
C3931 C 0.63224 0.02296 0.11614 0.0
C3932 C 0.59839 0.03326 0.12535 0.0
C3933 C 0.58844 0.0205 0.13119 0.0
C3934 C 0.6071 0.0338 0.11405 0.0
C3935 C 0.60577 0.02127 0.10843 0.0
C3936 C 0.59564 0.00836 0.11417 0.0
C3937 C 0.58715 0.00814 0.12553 0.0
C3938 C 0.61784 0.04776 0.10827 0.0
C3939 C 0.59384 0.99477 0.10841 0.0
H3940 H 0.61644 0.01912 0.05961 0.0
H3941 H 0.64528 0.02121 0.09212 0.0
H3942 H 0.58888 0.01063 0.08167 0.0
H3943 H 0.59748 0.0292 0.08245 0.0
H3944 H 0.5967 0.02042 0.06546 0.0
H3945 H 0.64264 0.024 0.11713 0.0
H3946 H 0.63256 0.03202 0.12173 0.0
H3947 H 0.62463 0.0135 0.12197 0.0
H3948 H 0.59945 0.04283 0.12977 0.0
H3949 H 0.57954 0.99827 0.13008 0.0
H3950 H 0.61632 0.04809 0.09633 0.0
H3951 H 0.62839 0.04934 0.10999 0.0
H3952 H 0.61738 0.05651 0.11365 0.0
H3953 H 0.59178 0.99379 0.09646 0.0
H3954 H 0.5852 0.9856 0.11375 0.0
H3955 H 0.60356 0.99455 0.11021 0.0
C3956 C 0.96494 0.59507 0.07973 0.0
C3957 C 0.97735 0.60039 0.07193 0.0
C3958 C 0.96202 0.58582 0.09121 0.0
C3959 C 0.97163 0.58155 0.09485 0.0
C3960 C 0.98406 0.58667 0.0869 0.0
C3961 C 0.98683 0.59612 0.07564 0.0
C3962 C 0.9487 0.58069 0.09953 0.0
C3963 C 0.99448 0.58226 0.09036 0.0
C3964 C 0.96993 0.56814 0.13311 0.0
C3965 C 0.96197 0.55369 0.13082 0.0
C3966 C 0.97335 0.57732 0.12147 0.0
C3967 C 0.96873 0.57192 0.10716 0.0
C3968 C 0.96092 0.55733 0.10471 0.0
C3969 C 0.95746 0.54839 0.1166 0.0
C3970 C 0.98152 0.59281 0.12456 0.0
C3971 C 0.95595 0.55117 0.08958 0.0
H3972 H 0.95743 0.59808 0.07682 0.0
H3973 H 0.99656 0.60032 0.06989 0.0
H3974 H 0.94235 0.56917 0.09869 0.0
H3975 H 0.95109 0.5835 0.11129 0.0
H3976 H 0.9424 0.58512 0.09545 0.0
H3977 H 0.00336 0.58672 0.08274 0.0
H3978 H 0.99857 0.58561 0.10166 0.0
H3979 H 0.98938 0.57074 0.08982 0.0
H3980 H 0.97319 0.57227 0.14413 0.0
H3981 H 0.95105 0.53725 0.11478 0.0
H3982 H 0.97517 0.59752 0.12158 0.0
H3983 H 0.99098 0.59777 0.11779 0.0
H3984 H 0.98469 0.59532 0.13624 0.0
H3985 H 0.94849 0.55414 0.08539 0.0
H3986 H 0.95079 0.53963 0.08938 0.0
H3987 H 0.96483 0.55539 0.08197 0.0
C3988 C 0.41369 0.36507 0.06882 0.0
C3989 C 0.40864 0.37378 0.06479 0.0
C3990 C 0.42334 0.36883 0.08034 0.0
C3991 C 0.42823 0.38173 0.08782 0.0
C3992 C 0.42338 0.39071 0.08356 0.0
C3993 C 0.41353 0.38656 0.07218 0.0
C3994 C 0.42808 0.35886 0.08472 0.0
C3995 C 0.42854 0.40466 0.09108 0.0
C3996 C 0.44226 0.38508 0.12641 0.0
C3997 C 0.45661 0.39152 0.12415 0.0
C3998 C 0.43293 0.38197 0.11472 0.0
C3999 C 0.43808 0.3856 0.10039 0.0
C4000 C 0.45258 0.39246 0.09804 0.0
C4001 C 0.46166 0.39514 0.10991 0.0
C4002 C 0.41754 0.37439 0.11765 0.0
C4003 C 0.45848 0.39674 0.08295 0.0
H4004 H 0.40982 0.35514 0.06318 0.0
H4005 H 0.40971 0.39336 0.06896 0.0
H4006 H 0.43954 0.36399 0.084 0.0
H4007 H 0.42531 0.35584 0.09625 0.0
H4008 H 0.42334 0.34927 0.07774 0.0
H4009 H 0.42423 0.41068 0.08601 0.0
H4010 H 0.42564 0.40316 0.10276 0.0
H4011 H 0.44005 0.4109 0.09069 0.0
H4012 H 0.43832 0.38212 0.13737 0.0
H4013 H 0.4727 0.39994 0.10797 0.0
H4014 H 0.41235 0.36423 0.11168 0.0
H4015 H 0.4129 0.38049 0.11356 0.0
H4016 H 0.41524 0.37249 0.12945 0.0
H4017 H 0.45511 0.38735 0.07592 0.0
H4018 H 0.47001 0.40293 0.08312 0.0
H4019 H 0.45446 0.40299 0.07782 0.0
C4020 C 0.63439 0.69978 0.41294 0.0
C4021 C 0.63586 0.70423 0.39846 0.0
C4022 C 0.62898 0.70479 0.42363 0.0
C4023 C 0.62502 0.71457 0.41979 0.0
C4024 C 0.62631 0.71898 0.40517 0.0
C4025 C 0.63166 0.71372 0.39468 0.0
C4026 C 0.62771 0.69981 0.4391 0.0
C4027 C 0.62221 0.7294 0.40066 0.0
C4028 C 0.60098 0.72008 0.44463 0.0
C4029 C 0.61041 0.73222 0.4524 0.0
C4030 C 0.60558 0.71417 0.43402 0.0
C4031 C 0.61996 0.72054 0.43114 0.0
C4032 C 0.62954 0.73268 0.43908 0.0
C4033 C 0.62467 0.73827 0.44974 0.0
C4034 C 0.59508 0.70109 0.42592 0.0
C4035 C 0.64495 0.7398 0.4363 0.0
H4036 H 0.63776 0.69258 0.416 0.0
H4037 H 0.63254 0.71703 0.38347 0.0
H4038 H 0.63453 0.70869 0.44649 0.0
H4039 H 0.6169 0.69553 0.44291 0.0
H4040 H 0.6306 0.69168 0.44015 0.0
H4041 H 0.62363 0.73157 0.38879 0.0
H4042 H 0.61118 0.72551 0.40334 0.0
H4043 H 0.62855 0.73933 0.40684 0.0
H4044 H 0.58999 0.71521 0.44691 0.0
H4045 H 0.63204 0.74744 0.45598 0.0
H4046 H 0.59752 0.69271 0.42756 0.0
H4047 H 0.5956 0.70302 0.41403 0.0
H4048 H 0.58429 0.69734 0.42957 0.0
H4049 H 0.64877 0.73251 0.43833 0.0
H4050 H 0.65101 0.74924 0.44332 0.0
H4051 H 0.64702 0.74285 0.42469 0.0
C4052 C 0.28455 0.9233 0.42129 0.0
C4053 C 0.28079 0.92269 0.40652 0.0
C4054 C 0.27782 0.91149 0.43006 0.0
C4055 C 0.26729 0.89877 0.42388 0.0
C4056 C 0.26333 0.89809 0.40909 0.0
C4057 C 0.26998 0.91009 0.40065 0.0
C4058 C 0.28202 0.91262 0.44592 0.0
C4059 C 0.25227 0.88462 0.40207 0.0
C4060 C 0.26116 0.85961 0.44305 0.0
C4061 C 0.24563 0.85601 0.45379 0.0
C4062 C 0.26917 0.87587 0.43361 0.0
C4063 C 0.26073 0.88604 0.43259 0.0
C4064 C 0.24363 0.88 0.43992 0.0
C4065 C 0.23474 0.86384 0.44952 0.0
C4066 C 0.2827 0.88075 0.42624 0.0
C4067 C 0.23678 0.88842 0.43821 0.0
H4068 H 0.29294 0.93291 0.42594 0.0
H4069 H 0.26671 0.90954 0.38939 0.0
H4070 H 0.27273 0.9089 0.45289 0.0
H4071 H 0.28646 0.90585 0.44792 0.0
H4072 H 0.28981 0.92345 0.44931 0.0
H4073 H 0.25098 0.88564 0.3902 0.0
H4074 H 0.25493 0.87637 0.40358 0.0
H4075 H 0.24218 0.88114 0.40743 0.0
H4076 H 0.26657 0.85397 0.44476 0.0
H4077 H 0.225 0.86062 0.45492 0.0
H4078 H 0.29083 0.89036 0.43184 0.0
H4079 H 0.28191 0.88339 0.41478 0.0
H4080 H 0.28566 0.87264 0.42654 0.0
H4081 H 0.24466 0.89958 0.437 0.0
H4082 H 0.23012 0.88697 0.44775 0.0
H4083 H 0.23005 0.88474 0.42829 0.0
C4084 C 0.0756 0.36713 0.41208 0.0
C4085 C 0.07527 0.35791 0.40126 0.0
C4086 C 0.086 0.37262 0.42298 0.0
C4087 C 0.09638 0.36888 0.42299 0.0
C4088 C 0.09601 0.35946 0.41223 0.0
C4089 C 0.08543 0.35404 0.40155 0.0
C4090 C 0.08601 0.38257 0.43434 0.0
C4091 C 0.1069 0.35524 0.41188 0.0
C4092 C 0.13092 0.3933 0.4418 0.0
C4093 C 0.12966 0.38648 0.45493 0.0
C4094 C 0.12016 0.38768 0.4313 0.0
C4095 C 0.10778 0.37502 0.4341 0.0
C4096 C 0.10638 0.36815 0.44741 0.0
C4097 C 0.11736 0.37393 0.45764 0.0
C4098 C 0.12208 0.39526 0.41719 0.0
C4099 C 0.09329 0.3547 0.45083 0.0
H4100 H 0.0679 0.37031 0.41185 0.0
H4101 H 0.08511 0.34673 0.39341 0.0
H4102 H 0.08601 0.37873 0.44545 0.0
H4103 H 0.0956 0.39288 0.43345 0.0
H4104 H 0.07688 0.38397 0.43318 0.0
H4105 H 0.10507 0.34771 0.40284 0.0
H4106 H 0.11733 0.36458 0.41055 0.0
H4107 H 0.10706 0.35047 0.42237 0.0
H4108 H 0.14037 0.40304 0.43971 0.0
H4109 H 0.11635 0.36866 0.46781 0.0
H4110 H 0.11382 0.39792 0.41588 0.0
H4111 H 0.1211 0.3884 0.4078 0.0
H4112 H 0.13234 0.40499 0.4167 0.0
H4113 H 0.08421 0.35621 0.45036 0.0
H4114 H 0.09376 0.35081 0.4618 0.0
H4115 H 0.09149 0.34659 0.44253 0.0
C4116 C 0.04697 0.28832 0.28721 0.0
C4117 C 0.03951 0.29466 0.2827 0.0
C4118 C 0.05283 0.28337 0.27695 0.0
C4119 C 0.05096 0.28459 0.26185 0.0
C4120 C 0.04298 0.29051 0.25726 0.0
C4121 C 0.03746 0.2956 0.26776 0.0
C4122 C 0.06145 0.27733 0.28226 0.0
C4123 C 0.04054 0.29176 0.24127 0.0
C4124 C 0.07774 0.28644 0.23518 0.0
C4125 C 0.07135 0.27269 0.22974 0.0
C4126 C 0.07132 0.29035 0.24584 0.0
C4127 C 0.05799 0.2804 0.25086 0.0
C4128 C 0.05136 0.26659 0.24522 0.0
C4129 C 0.05814 0.26289 0.23476 0.0
C4130 C 0.07878 0.30516 0.25168 0.0
C4131 C 0.03702 0.25578 0.25008 0.0
H4132 H 0.04867 0.28772 0.29877 0.0
H4133 H 0.03159 0.3004 0.26429 0.0
H4134 H 0.05753 0.26681 0.27738 0.0
H4135 H 0.07234 0.28395 0.27872 0.0
H4136 H 0.06139 0.27656 0.29435 0.0
H4137 H 0.03322 0.29561 0.23954 0.0
H4138 H 0.05053 0.29904 0.23606 0.0
H4139 H 0.03632 0.28151 0.2356 0.0
H4140 H 0.08777 0.29419 0.23109 0.0
H4141 H 0.05305 0.25236 0.23031 0.0
H4142 H 0.07973 0.30526 0.26376 0.0
H4143 H 0.07271 0.31023 0.24903 0.0
H4144 H 0.08934 0.31146 0.24709 0.0
H4145 H 0.037 0.25451 0.26207 0.0
H4146 H 0.03331 0.24549 0.24465 0.0
H4147 H 0.02954 0.25927 0.24761 0.0
C4148 C 0.69945 0.75106 0.28873 0.0
C4149 C 0.7012 0.73961 0.28611 0.0
C4150 C 0.70388 0.76178 0.27862 0.0
C4151 C 0.71015 0.76102 0.26552 0.0
C4152 C 0.71203 0.74953 0.26282 0.0
C4153 C 0.70754 0.73897 0.27316 0.0
C4154 C 0.7017 0.77386 0.28188 0.0
C4155 C 0.71869 0.74837 0.24898 0.0
C4156 C 0.70948 0.78172 0.23327 0.0
C4157 C 0.72295 0.79335 0.2338 0.0
C4158 C 0.70518 0.77111 0.24351 0.0
C4159 C 0.71459 0.77216 0.25456 0.0
C4160 C 0.72821 0.78386 0.25516 0.0
C4161 C 0.73225 0.79428 0.24472 0.0
C4162 C 0.69061 0.75874 0.24245 0.0
C4163 C 0.73851 0.78537 0.26681 0.0
H4164 H 0.69436 0.75152 0.29859 0.0
H4165 H 0.70907 0.73023 0.27113 0.0
H4166 H 0.71176 0.7838 0.28158 0.0
H4167 H 0.69484 0.77433 0.27338 0.0
H4168 H 0.69695 0.77306 0.29272 0.0
H4169 H 0.71947 0.73882 0.24858 0.0
H4170 H 0.71257 0.74824 0.23934 0.0
H4171 H 0.72927 0.75757 0.24803 0.0
H4172 H 0.70233 0.7809 0.22474 0.0
H4173 H 0.74273 0.80316 0.24506 0.0
H4174 H 0.68499 0.75784 0.25271 0.0
H4175 H 0.69097 0.74902 0.24106 0.0
H4176 H 0.68459 0.75949 0.23318 0.0
H4177 H 0.73428 0.78523 0.27779 0.0
H4178 H 0.74866 0.79516 0.26583 0.0
H4179 H 0.74028 0.77644 0.26612 0.0
C4180 C 0.24746 0.96346 0.2975 0.0
C4181 C 0.26118 0.96698 0.29456 0.0
C4182 C 0.23728 0.95838 0.28639 0.0
C4183 C 0.24093 0.95692 0.27196 0.0
C4184 C 0.25483 0.96086 0.26882 0.0
C4185 C 0.26476 0.96575 0.28017 0.0
C4186 C 0.22254 0.95422 0.29016 0.0
C4187 C 0.25915 0.95956 0.25355 0.0
C4188 C 0.2132 0.93012 0.24633 0.0
C4189 C 0.20957 0.93833 0.23802 0.0
C4190 C 0.22317 0.93602 0.2576 0.0
C4191 C 0.23006 0.95056 0.26031 0.0
C4192 C 0.2267 0.95896 0.25178 0.0
C4193 C 0.21642 0.95272 0.24081 0.0
C4194 C 0.22635 0.92669 0.26659 0.0
C4195 C 0.2341 0.97455 0.2541 0.0
H4196 H 0.24465 0.96458 0.30853 0.0
H4197 H 0.27527 0.96824 0.2778 0.0
H4198 H 0.21886 0.9598 0.28319 0.0
H4199 H 0.21559 0.94292 0.28796 0.0
H4200 H 0.22151 0.95648 0.30179 0.0
H4201 H 0.27056 0.96409 0.25271 0.0
H4202 H 0.25396 0.94842 0.25017 0.0
H4203 H 0.25583 0.96484 0.2457 0.0
H4204 H 0.20824 0.91903 0.2441 0.0
H4205 H 0.21382 0.95912 0.23424 0.0
H4206 H 0.22487 0.92802 0.27835 0.0
H4207 H 0.23737 0.92964 0.26522 0.0
H4208 H 0.21966 0.91552 0.26348 0.0
H4209 H 0.23265 0.9771 0.26547 0.0
H4210 H 0.23031 0.97961 0.24649 0.0
H4211 H 0.24542 0.97908 0.25253 0.0
C4212 C 0.70055 0.94425 0.2882 0.0
C4213 C 0.70766 0.95806 0.29353 0.0
C4214 C 0.70574 0.94003 0.2765 0.0
C4215 C 0.71824 0.94989 0.26982 0.0
C4216 C 0.72562 0.96375 0.27532 0.0
C4217 C 0.7203 0.96764 0.28717 0.0
C4218 C 0.69766 0.92512 0.27104 0.0
C4219 C 0.73896 0.9746 0.26845 0.0
C4220 C 0.73863 0.93888 0.24548 0.0
C4221 C 0.73442 0.94039 0.23149 0.0
C4222 C 0.73305 0.94141 0.25807 0.0
C4223 C 0.72332 0.94593 0.25665 0.0
C4224 C 0.71895 0.94734 0.24257 0.0
C4225 C 0.72453 0.94453 0.23018 0.0
C4226 C 0.73784 0.93962 0.2729 0.0
C4227 C 0.70874 0.95232 0.24058 0.0
H4228 H 0.69069 0.9368 0.29288 0.0
H4229 H 0.72602 0.97825 0.29137 0.0
H4230 H 0.6937 0.92472 0.25981 0.0
H4231 H 0.70454 0.92063 0.27049 0.0
H4232 H 0.68871 0.9185 0.2781 0.0
H4233 H 0.74359 0.98485 0.27424 0.0
H4234 H 0.74666 0.97111 0.26845 0.0
H4235 H 0.73696 0.97599 0.2569 0.0
H4236 H 0.74648 0.93596 0.24659 0.0
H4237 H 0.72146 0.94595 0.21939 0.0
H4238 H 0.72876 0.9329 0.27974 0.0
H4239 H 0.74376 0.94988 0.27859 0.0
H4240 H 0.74456 0.93495 0.27214 0.0
H4241 H 0.69907 0.94558 0.2466 0.0
H4242 H 0.70602 0.95238 0.22891 0.0
H4243 H 0.71323 0.96303 0.24519 0.0
C4244 C 0.03496 0.74766 0.27276 0.0
C4245 C 0.0434 0.75077 0.28529 0.0
C4246 C 0.03831 0.75747 0.26179 0.0
C4247 C 0.05053 0.77068 0.2632 0.0
C4248 C 0.05915 0.7739 0.27574 0.0
C4249 C 0.05543 0.76396 0.28668 0.0
C4250 C 0.02879 0.75366 0.24862 0.0
C4251 C 0.07234 0.78783 0.27755 0.0
C4252 C 0.06425 0.78951 0.22753 0.0
C4253 C 0.05916 0.79872 0.22767 0.0
C4254 C 0.062 0.78072 0.23931 0.0
C4255 C 0.05429 0.78099 0.25141 0.0
C4256 C 0.04951 0.79058 0.25182 0.0
C4257 C 0.05214 0.79944 0.24001 0.0
C4258 C 0.06752 0.77085 0.23859 0.0
C4259 C 0.04114 0.79109 0.26446 0.0
H4260 H 0.0258 0.73744 0.27139 0.0
H4261 H 0.06192 0.76657 0.29639 0.0
H4262 H 0.02539 0.76139 0.24733 0.0
H4263 H 0.03444 0.75392 0.23859 0.0
H4264 H 0.01942 0.74315 0.24943 0.0
H4265 H 0.07798 0.78867 0.28789 0.0
H4266 H 0.07934 0.78951 0.26827 0.0
H4267 H 0.06991 0.79632 0.27743 0.0
H4268 H 0.06979 0.78901 0.21808 0.0
H4269 H 0.04835 0.80667 0.24022 0.0
H4270 H 0.05873 0.75995 0.2379 0.0
H4271 H 0.07354 0.77187 0.24867 0.0
H4272 H 0.07429 0.77274 0.22901 0.0
H4273 H 0.03119 0.78105 0.26504 0.0
H4274 H 0.03878 0.79961 0.26346 0.0
H4275 H 0.04681 0.79255 0.27491 0.0
C4276 C 0.24739 0.29871 0.28401 0.0
C4277 C 0.2605 0.30002 0.2827 0.0
C4278 C 0.23757 0.29296 0.27253 0.0
C4279 C 0.24091 0.2882 0.2596 0.0
C4280 C 0.25399 0.28912 0.25846 0.0
C4281 C 0.26366 0.29512 0.26998 0.0
C4282 C 0.22382 0.29233 0.27406 0.0
C4283 C 0.25787 0.28396 0.24497 0.0
C4284 C 0.21297 0.26312 0.2329 0.0
C4285 C 0.21453 0.27195 0.22138 0.0
C4286 C 0.22119 0.26832 0.24564 0.0
C4287 C 0.23101 0.28272 0.24699 0.0
C4288 C 0.2321 0.29178 0.23572 0.0
C4289 C 0.22392 0.28627 0.22301 0.0
C4290 C 0.21979 0.25831 0.25736 0.0
C4291 C 0.24229 0.30724 0.23684 0.0
H4292 H 0.24499 0.30259 0.29383 0.0
H4293 H 0.27376 0.296 0.26905 0.0
H4294 H 0.2229 0.29895 0.26572 0.0
H4295 H 0.21513 0.28154 0.27207 0.0
H4296 H 0.2226 0.29592 0.28504 0.0
H4297 H 0.26815 0.28476 0.24613 0.0
H4298 H 0.24992 0.27293 0.24258 0.0
H4299 H 0.25815 0.2901 0.23541 0.0
H4300 H 0.20562 0.25206 0.23172 0.0
H4301 H 0.22508 0.29314 0.21418 0.0
H4302 H 0.21826 0.26194 0.26815 0.0
H4303 H 0.22951 0.25792 0.25811 0.0
H4304 H 0.21099 0.24761 0.25513 0.0
H4305 H 0.24107 0.31152 0.24737 0.0
H4306 H 0.24095 0.313 0.22778 0.0
H4307 H 0.25306 0.30917 0.23659 0.0
C4308 C 0.30552 0.37909 0.4115 0.0
C4309 C 0.29569 0.36836 0.40236 0.0
C4310 C 0.30139 0.38437 0.4232 0.0
C4311 C 0.28707 0.37887 0.4258 0.0
C4312 C 0.27708 0.36821 0.41648 0.0
C4313 C 0.28151 0.36305 0.4049 0.0
C4314 C 0.31237 0.39574 0.4329 0.0
C4315 C 0.26172 0.36212 0.41887 0.0
C4316 C 0.27741 0.38326 0.4644 0.0
C4317 C 0.27591 0.39495 0.46314 0.0
C4318 C 0.2807 0.37771 0.45225 0.0
C4319 C 0.2826 0.38405 0.43851 0.0
C4320 C 0.28086 0.39571 0.4371 0.0
C4321 C 0.27766 0.40111 0.44946 0.0
C4322 C 0.28257 0.36533 0.45423 0.0
C4323 C 0.28275 0.40273 0.42262 0.0
H4324 H 0.3165 0.38342 0.40948 0.0
H4325 H 0.27383 0.35464 0.39803 0.0
H4326 H 0.31107 0.40497 0.43299 0.0
H4327 H 0.31119 0.3921 0.4443 0.0
H4328 H 0.32307 0.39901 0.4293 0.0
H4329 H 0.25529 0.35428 0.4103 0.0
H4330 H 0.25886 0.35707 0.42966 0.0
H4331 H 0.25912 0.3705 0.419 0.0
H4332 H 0.27632 0.37864 0.47501 0.0
H4333 H 0.27679 0.41032 0.44849 0.0
H4334 H 0.29347 0.36832 0.45189 0.0
H4335 H 0.27581 0.35685 0.4464 0.0
H4336 H 0.28011 0.36123 0.46548 0.0
H4337 H 0.29369 0.40731 0.41912 0.0
H4338 H 0.28015 0.41112 0.42315 0.0
H4339 H 0.27611 0.39498 0.4141 0.0
C4340 C 0.62391 0.92007 0.41384 0.0
C4341 C 0.63628 0.92213 0.40767 0.0
C4342 C 0.61659 0.90946 0.42387 0.0
C4343 C 0.62167 0.90059 0.42775 0.0
C4344 C 0.63407 0.90251 0.4215 0.0
C4345 C 0.64126 0.91328 0.41157 0.0
C4346 C 0.6034 0.90777 0.43031 0.0
C4347 C 0.63978 0.89322 0.42536 0.0
C4348 C 0.60885 0.88221 0.46378 0.0
C4349 C 0.59783 0.86918 0.4592 0.0
C4350 C 0.617 0.89236 0.45363 0.0
C4351 C 0.61402 0.88944 0.43853 0.0
C4352 C 0.60313 0.87618 0.43381 0.0
C4353 C 0.59508 0.86624 0.44421 0.0
C4354 C 0.62845 0.90641 0.45911 0.0
C4355 C 0.59967 0.87266 0.4178 0.0
H4356 H 0.61982 0.92665 0.41069 0.0
H4357 H 0.65088 0.91488 0.40698 0.0
H4358 H 0.59455 0.89722 0.42767 0.0
H4359 H 0.60441 0.90881 0.44239 0.0
H4360 H 0.60089 0.91559 0.4262 0.0
H4361 H 0.64937 0.89587 0.41928 0.0
H4362 H 0.64214 0.89411 0.43723 0.0
H4363 H 0.63188 0.88219 0.42293 0.0
H4364 H 0.61084 0.88458 0.47536 0.0
H4365 H 0.58642 0.85627 0.44065 0.0
H4366 H 0.62589 0.91452 0.45629 0.0
H4367 H 0.63837 0.90917 0.45371 0.0
H4368 H 0.63002 0.90671 0.47112 0.0
H4369 H 0.59576 0.87922 0.41322 0.0
H4370 H 0.59166 0.86154 0.41589 0.0
H4371 H 0.60913 0.87495 0.41169 0.0
C4372 C 0.07748 0.70794 0.4137 0.0
C4373 C 0.07889 0.7178 0.40346 0.0
C4374 C 0.08694 0.71162 0.42537 0.0
C4375 C 0.09807 0.72552 0.4269 0.0
C4376 C 0.09965 0.7355 0.41651 0.0
C4377 C 0.09006 0.7315 0.40488 0.0
C4378 C 0.08495 0.70064 0.43614 0.0
C4379 C 0.11134 0.75042 0.41783 0.0
C4380 C 0.11309 0.73628 0.46528 0.0
C4381 C 0.12477 0.73474 0.46455 0.0
C4382 C 0.1046 0.73383 0.45295 0.0
C4383 C 0.1078 0.72959 0.43959 0.0
C4384 C 0.1198 0.72838 0.43868 0.0
C4385 C 0.12814 0.73096 0.45118 0.0
C4386 C 0.09193 0.73529 0.45435 0.0
C4387 C 0.12353 0.72383 0.42465 0.0
H4388 H 0.06899 0.69729 0.41252 0.0
H4389 H 0.09112 0.73918 0.39706 0.0
H4390 H 0.09444 0.69982 0.43672 0.0
H4391 H 0.08329 0.70365 0.44722 0.0
H4392 H 0.07597 0.69023 0.4332 0.0
H4393 H 0.11136 0.75681 0.40863 0.0
H4394 H 0.11043 0.75515 0.42821 0.0
H4395 H 0.12149 0.75086 0.41819 0.0
H4396 H 0.1104 0.7391 0.47562 0.0
H4397 H 0.13711 0.72964 0.45063 0.0
H4398 H 0.0824 0.72495 0.45282 0.0
H4399 H 0.09183 0.74212 0.44572 0.0
H4400 H 0.09147 0.73966 0.46517 0.0
H4401 H 0.11542 0.71297 0.42183 0.0
H4402 H 0.13371 0.72435 0.42547 0.0
H4403 H 0.12389 0.73045 0.41553 0.0
C4404 C 0.30089 0.05623 0.72952 0.0
C4405 C 0.29482 0.04192 0.72646 0.0
C4406 C 0.29572 0.06117 0.74055 0.0
C4407 C 0.28436 0.05158 0.74893 0.0
C4408 C 0.27813 0.03713 0.7459 0.0
C4409 C 0.28335 0.03248 0.73462 0.0
C4410 C 0.30256 0.07667 0.74336 0.0
C4411 C 0.26606 0.02657 0.7547 0.0
C4412 C 0.28022 0.06363 0.78659 0.0
C4413 C 0.26945 0.0664 0.78415 0.0
C4414 C 0.28509 0.05869 0.77525 0.0
C4415 C 0.27917 0.05665 0.76108 0.0
C4416 C 0.26837 0.05953 0.75851 0.0
C4417 C 0.26358 0.06428 0.77011 0.0
C4418 C 0.29653 0.05561 0.77845 0.0
C4419 C 0.26194 0.05766 0.74351 0.0
H4420 H 0.30991 0.06362 0.7235 0.0
H4421 H 0.27843 0.02143 0.73222 0.0
H4422 H 0.2947 0.07995 0.74282 0.0
H4423 H 0.3072 0.07931 0.75451 0.0
H4424 H 0.31084 0.08278 0.73539 0.0
H4425 H 0.26237 0.01571 0.75095 0.0
H4426 H 0.26915 0.02762 0.76639 0.0
H4427 H 0.25727 0.02853 0.75395 0.0
H4428 H 0.28481 0.0653 0.79742 0.0
H4429 H 0.25526 0.06641 0.76817 0.0
H4430 H 0.30569 0.06219 0.77165 0.0
H4431 H 0.293 0.04459 0.77556 0.0
H4432 H 0.29984 0.05751 0.79011 0.0
H4433 H 0.27007 0.06419 0.73559 0.0
H4434 H 0.25374 0.0605 0.7433 0.0
H4435 H 0.25732 0.04668 0.73973 0.0
C4436 C 0.9556 0.25845 0.74504 0.0
C4437 C 0.95907 0.25571 0.73114 0.0
C4438 C 0.94937 0.24798 0.75542 0.0
C4439 C 0.94607 0.23426 0.75173 0.0
C4440 C 0.94941 0.23133 0.73774 0.0
C4441 C 0.95605 0.24211 0.72771 0.0
C4442 C 0.94624 0.25159 0.77034 0.0
C4443 C 0.94581 0.21676 0.73331 0.0
C4444 C 0.94009 0.20958 0.78268 0.0
C4445 C 0.92559 0.20262 0.78404 0.0
C4446 C 0.94689 0.21982 0.77216 0.0
C4447 C 0.93898 0.22298 0.76251 0.0
C4448 C 0.92433 0.21577 0.76355 0.0
C4449 C 0.91782 0.20586 0.77446 0.0
C4450 C 0.96256 0.22755 0.77166 0.0
C4451 C 0.91552 0.21866 0.75325 0.0
H4452 H 0.95752 0.26877 0.7478 0.0
H4453 H 0.95887 0.23984 0.71716 0.0
H4454 H 0.93485 0.24591 0.77205 0.0
H4455 H 0.95093 0.2483 0.77896 0.0
H4456 H 0.95023 0.26292 0.77179 0.0
H4457 H 0.94882 0.21614 0.7219 0.0
H4458 H 0.95112 0.21307 0.7407 0.0
H4459 H 0.93447 0.20953 0.73436 0.0
H4460 H 0.94613 0.20721 0.79015 0.0
H4461 H 0.90664 0.20073 0.77548 0.0
H4462 H 0.96671 0.2388 0.77385 0.0
H4463 H 0.96603 0.22653 0.76063 0.0
H4464 H 0.96716 0.22368 0.77979 0.0
H4465 H 0.91774 0.22947 0.75502 0.0
H4466 H 0.90423 0.21142 0.75477 0.0
H4467 H 0.91812 0.21775 0.74176 0.0
C4468 C 0.75266 0.70433 0.72539 0.0
C4469 C 0.73912 0.70116 0.72868 0.0
C4470 C 0.76324 0.7099 0.73608 0.0
C4471 C 0.76023 0.71249 0.75039 0.0
C4472 C 0.74667 0.7096 0.75372 0.0
C4473 C 0.73626 0.70391 0.74285 0.0
C4474 C 0.77757 0.71281 0.73214 0.0
C4475 C 0.74309 0.71229 0.76883 0.0
C4476 C 0.78288 0.71331 0.78183 0.0
C4477 C 0.79187 0.72766 0.78409 0.0
C4478 C 0.77266 0.70825 0.77079 0.0
C4479 C 0.77115 0.71777 0.76201 0.0
C4480 C 0.77999 0.73226 0.76442 0.0
C4481 C 0.79024 0.73704 0.77545 0.0
C4482 C 0.76344 0.69272 0.76854 0.0
C4483 C 0.77855 0.74271 0.75541 0.0
H4484 H 0.75502 0.70247 0.71441 0.0
H4485 H 0.72579 0.70132 0.74556 0.0
H4486 H 0.78535 0.7239 0.73447 0.0
H4487 H 0.78042 0.70645 0.73895 0.0
H4488 H 0.77827 0.71045 0.72046 0.0
H4489 H 0.73225 0.71016 0.76943 0.0
H4490 H 0.7444 0.70562 0.77679 0.0
H4491 H 0.75026 0.72327 0.77226 0.0
H4492 H 0.78387 0.70602 0.78871 0.0
H4493 H 0.79696 0.74812 0.77739 0.0
H4494 H 0.76432 0.68973 0.75715 0.0
H4495 H 0.75243 0.68965 0.7702 0.0
H4496 H 0.76614 0.68672 0.77612 0.0
H4497 H 0.77992 0.74116 0.74368 0.0
H4498 H 0.78624 0.75362 0.75866 0.0
H4499 H 0.76796 0.74112 0.75659 0.0
C4500 C 0.71684 0.63083 0.61802 0.0
C4501 C 0.70579 0.63284 0.61434 0.0
C4502 C 0.72269 0.62607 0.60756 0.0
C4503 C 0.71726 0.62311 0.59311 0.0
C4504 C 0.70591 0.62485 0.58942 0.0
C4505 C 0.70036 0.62977 0.60006 0.0
C4506 C 0.73489 0.6245 0.61187 0.0
C4507 C 0.69972 0.62164 0.57418 0.0
C4508 C 0.74057 0.62435 0.56242 0.0
C4509 C 0.73622 0.61021 0.56032 0.0
C4510 C 0.73457 0.62868 0.57314 0.0
C4511 C 0.72374 0.61862 0.58176 0.0
C4512 C 0.71909 0.60432 0.5795 0.0
C4513 C 0.72539 0.60028 0.5688 0.0
C4514 C 0.73983 0.64404 0.57524 0.0
C4515 C 0.70743 0.59328 0.58835 0.0
H4516 H 0.72116 0.63335 0.62901 0.0
H4517 H 0.69172 0.63118 0.59724 0.0
H4518 H 0.7325 0.61371 0.6095 0.0
H4519 H 0.74407 0.63155 0.60532 0.0
H4520 H 0.73767 0.62692 0.62364 0.0
H4521 H 0.69056 0.623 0.57324 0.0
H4522 H 0.70763 0.62858 0.56628 0.0
H4523 H 0.69653 0.61078 0.57094 0.0
H4524 H 0.7487 0.63204 0.55565 0.0
H4525 H 0.7218 0.58934 0.56697 0.0
H4526 H 0.74346 0.6473 0.58668 0.0
H4527 H 0.73127 0.64615 0.57323 0.0
H4528 H 0.7485 0.65054 0.56782 0.0
H4529 H 0.71025 0.59503 0.60013 0.0
H4530 H 0.70498 0.58261 0.58517 0.0
H4531 H 0.69793 0.59397 0.58691 0.0
C4532 C 0.36186 0.08772 0.61521 0.0
C4533 C 0.36255 0.07559 0.61321 0.0
C4534 C 0.3668 0.098 0.60456 0.0
C4535 C 0.37269 0.09617 0.59167 0.0
C4536 C 0.37347 0.08396 0.58961 0.0
C4537 C 0.3683 0.07376 0.60039 0.0
C4538 C 0.36563 0.11079 0.60705 0.0
C4539 C 0.37981 0.08171 0.57608 0.0
C4540 C 0.37397 0.11695 0.55864 0.0
C4541 C 0.38764 0.12825 0.55948 0.0
C4542 C 0.369 0.10637 0.56897 0.0
C4543 C 0.37797 0.10703 0.58032 0.0
C4544 C 0.39187 0.11822 0.58104 0.0
C4545 C 0.39655 0.12868 0.57057 0.0
C4546 C 0.35413 0.09458 0.56783 0.0
C4547 C 0.40175 0.11921 0.59293 0.0
H4548 H 0.35726 0.08906 0.62504 0.0
H4549 H 0.36894 0.06444 0.59889 0.0
H4550 H 0.37609 0.12027 0.60688 0.0
H4551 H 0.35939 0.11168 0.59812 0.0
H4552 H 0.3607 0.11059 0.61763 0.0
H4553 H 0.37972 0.0717 0.57621 0.0
H4554 H 0.37406 0.08182 0.56622 0.0
H4555 H 0.39071 0.09033 0.57507 0.0
H4556 H 0.36714 0.11646 0.54991 0.0
H4557 H 0.40718 0.13727 0.5711 0.0
H4558 H 0.34846 0.09439 0.57783 0.0
H4559 H 0.35378 0.08447 0.56703 0.0
H4560 H 0.34858 0.0955 0.5582 0.0
H4561 H 0.39774 0.11996 0.60376 0.0
H4562 H 0.41234 0.12838 0.59171 0.0
H4563 H 0.4025 0.10966 0.59283 0.0
C4564 C 0.91687 0.27469 0.61978 0.0
C4565 C 0.92988 0.28617 0.61649 0.0
C4566 C 0.90607 0.26885 0.60933 0.0
C4567 C 0.90833 0.27465 0.59526 0.0
C4568 C 0.92141 0.28626 0.59188 0.0
C4569 C 0.93203 0.29187 0.60253 0.0
C4570 C 0.89226 0.25649 0.61335 0.0
C4571 C 0.9242 0.29272 0.57698 0.0
C4572 C 0.8852 0.25236 0.56369 0.0
C4573 C 0.87576 0.25711 0.5625 0.0
C4574 C 0.89574 0.25786 0.57442 0.0
C4575 C 0.89701 0.26852 0.58404 0.0
C4576 C 0.8876 0.27344 0.58281 0.0
C4577 C 0.87712 0.26771 0.57202 0.0
C4578 C 0.90559 0.25236 0.57537 0.0
C4579 C 0.88871 0.28488 0.5928 0.0
H4580 H 0.91507 0.27037 0.63062 0.0
H4581 H 0.9421 0.30062 0.59985 0.0
H4582 H 0.88392 0.25906 0.61208 0.0
H4583 H 0.88967 0.24757 0.60585 0.0
H4584 H 0.8922 0.2532 0.62475 0.0
H4585 H 0.93488 0.30182 0.57616 0.0
H4586 H 0.92278 0.28488 0.56849 0.0
H4587 H 0.91667 0.29613 0.57451 0.0
H4588 H 0.88438 0.2444 0.55614 0.0
H4589 H 0.87002 0.2716 0.57093 0.0
H4590 H 0.90534 0.24838 0.58647 0.0
H4591 H 0.91638 0.26089 0.57351 0.0
H4592 H 0.90302 0.24384 0.56727 0.0
H4593 H 0.888 0.28176 0.60435 0.0
H4594 H 0.88044 0.28739 0.59056 0.0
H4595 H 0.89896 0.29445 0.59149 0.0
C4596 C 0.36444 0.30031 0.604 0.0
C4597 C 0.36401 0.29565 0.61825 0.0
C4598 C 0.36902 0.29545 0.59234 0.0
C4599 C 0.37315 0.28556 0.59492 0.0
C4600 C 0.37267 0.28073 0.60924 0.0
C4601 C 0.36815 0.28587 0.62075 0.0
C4602 C 0.36941 0.30088 0.57723 0.0
C4603 C 0.3769 0.27012 0.61239 0.0
C4604 C 0.3724 0.26497 0.56124 0.0
C4605 C 0.38636 0.27222 0.55706 0.0
C4606 C 0.36805 0.26881 0.57391 0.0
C4607 C 0.37787 0.28028 0.58253 0.0
C4608 C 0.39208 0.28726 0.57873 0.0
C4609 C 0.39619 0.28299 0.56618 0.0
C4610 C 0.35287 0.26087 0.57781 0.0
C4611 C 0.40285 0.2996 0.5876 0.0
H4612 H 0.36101 0.30765 0.60191 0.0
H4613 H 0.36799 0.28233 0.63174 0.0
H4614 H 0.38007 0.3056 0.57283 0.0
H4615 H 0.36244 0.29216 0.56974 0.0
H4616 H 0.36616 0.30879 0.57712 0.0
H4617 H 0.37574 0.26729 0.62409 0.0
H4618 H 0.37049 0.26054 0.6057 0.0
H4619 H 0.38788 0.27424 0.60931 0.0
H4620 H 0.36483 0.2564 0.55443 0.0
H4621 H 0.40706 0.28833 0.5633 0.0
H4622 H 0.34837 0.26769 0.57666 0.0
H4623 H 0.35165 0.25764 0.58937 0.0
H4624 H 0.3468 0.25146 0.57075 0.0
H4625 H 0.40061 0.30822 0.58709 0.0
H4626 H 0.41355 0.30344 0.58362 0.0
H4627 H 0.40242 0.29682 0.59924 0.0
C4628 C 0.72884 0.08281 0.59755 0.0
C4629 C 0.71711 0.07842 0.60626 0.0
C4630 C 0.73156 0.09205 0.58608 0.0
C4631 C 0.72212 0.09669 0.58308 0.0
C4632 C 0.71016 0.0921 0.59175 0.0
C4633 C 0.70788 0.08313 0.60334 0.0
C4634 C 0.74457 0.09696 0.57726 0.0
C4635 C 0.69968 0.09655 0.58871 0.0
C4636 C 0.73232 0.12959 0.5621 0.0
C4637 C 0.72698 0.12418 0.54809 0.0
C4638 C 0.73141 0.12081 0.57342 0.0
C4639 C 0.72461 0.10625 0.5708 0.0
C4640 C 0.71936 0.10076 0.55666 0.0
C4641 C 0.72074 0.10981 0.54546 0.0
C4642 C 0.73739 0.12708 0.58829 0.0
C4643 C 0.71176 0.08528 0.55351 0.0
H4644 H 0.73601 0.0792 0.5999 0.0
H4645 H 0.69874 0.07961 0.61002 0.0
H4646 H 0.7418 0.0939 0.56561 0.0
H4647 H 0.75093 0.10849 0.57782 0.0
H4648 H 0.75099 0.0926 0.58119 0.0
H4649 H 0.69074 0.09174 0.59624 0.0
H4650 H 0.70471 0.10803 0.58979 0.0
H4651 H 0.69568 0.09363 0.57732 0.0
H4652 H 0.73703 0.14065 0.56433 0.0
H4653 H 0.7165 0.1056 0.53469 0.0
H4654 H 0.7441 0.12313 0.59234 0.0
H4655 H 0.72885 0.12394 0.59619 0.0
H4656 H 0.74358 0.13863 0.58815 0.0
H4657 H 0.71828 0.08084 0.55671 0.0
H4658 H 0.70882 0.08273 0.54178 0.0
H4659 H 0.70217 0.08008 0.56009 0.0
C4660 C 0.92844 0.63714 0.60466 0.0
C4661 C 0.92374 0.6388 0.61831 0.0
C4662 C 0.91952 0.63209 0.59245 0.0
C4663 C 0.90557 0.62881 0.59381 0.0
C4664 C 0.90074 0.63056 0.60749 0.0
C4665 C 0.90986 0.63546 0.6196 0.0
C4666 C 0.92506 0.6303 0.57806 0.0
C4667 C 0.88596 0.62728 0.60931 0.0
C4668 C 0.88823 0.62827 0.5579 0.0
C4669 C 0.88088 0.61402 0.55434 0.0
C4670 C 0.89578 0.63319 0.57107 0.0
C4671 C 0.89615 0.62362 0.5808 0.0
C4672 C 0.8883 0.60917 0.57754 0.0
C4673 C 0.8806 0.60453 0.56444 0.0
C4674 C 0.90375 0.64865 0.57432 0.0
C4675 C 0.88853 0.59866 0.58757 0.0
H4676 H 0.9392 0.63996 0.60345 0.0
H4677 H 0.90606 0.63653 0.63012 0.0
H4678 H 0.91869 0.61938 0.57403 0.0
H4679 H 0.9243 0.63704 0.56976 0.0
H4680 H 0.93606 0.63295 0.57894 0.0
H4681 H 0.88389 0.62942 0.62062 0.0
H4682 H 0.88371 0.63355 0.60167 0.0
H4683 H 0.87864 0.61616 0.60654 0.0
H4684 H 0.88828 0.63562 0.55025 0.0
H4685 H 0.87469 0.59348 0.56187 0.0
H4686 H 0.91506 0.65255 0.57399 0.0
H4687 H 0.90139 0.65085 0.58546 0.0
H4688 H 0.90129 0.65455 0.56636 0.0
H4689 H 0.89917 0.60023 0.58803 0.0
H4690 H 0.88121 0.58777 0.5839 0.0
H4691 H 0.88584 0.60013 0.59884 0.0
C4692 C 0.96592 0.72059 0.74224 0.0
C4693 C 0.95568 0.70817 0.73552 0.0
C4694 C 0.96246 0.72751 0.75284 0.0
C4695 C 0.9484 0.72192 0.75677 0.0
C4696 C 0.93795 0.7096 0.74975 0.0
C4697 C 0.94172 0.70285 0.73923 0.0
C4698 C 0.97391 0.74064 0.76004 0.0
C4699 C 0.92285 0.70336 0.75363 0.0
C4700 C 0.94277 0.73223 0.79466 0.0
C4701 C 0.94051 0.74323 0.79167 0.0
C4702 C 0.94489 0.7249 0.78336 0.0
C4703 C 0.94478 0.7287 0.76869 0.0
C4704 C 0.94213 0.73955 0.76556 0.0
C4705 C 0.94015 0.74678 0.7771 0.0
C4706 C 0.94778 0.71346 0.78717 0.0
C4707 C 0.94188 0.74385 0.75006 0.0
H4708 H 0.97669 0.72491 0.73924 0.0
H4709 H 0.93376 0.6932 0.73418 0.0
H4710 H 0.9718 0.74929 0.75875 0.0
H4711 H 0.97427 0.73904 0.77193 0.0
H4712 H 0.98427 0.74385 0.75543 0.0
H4713 H 0.91592 0.69423 0.74654 0.0
H4714 H 0.92131 0.70001 0.76515 0.0
H4715 H 0.91967 0.71127 0.75266 0.0
H4716 H 0.94328 0.72963 0.80592 0.0
H4717 H 0.93865 0.75544 0.77476 0.0
H4718 H 0.9585 0.71649 0.78394 0.0
H4719 H 0.94059 0.70375 0.78102 0.0
H4720 H 0.94668 0.71124 0.79902 0.0
H4721 H 0.95241 0.74841 0.74537 0.0
H4722 H 0.9385 0.75165 0.7494 0.0
H4723 H 0.93479 0.73464 0.74318 0.0
C4724 C 0.30408 0.26063 0.74402 0.0
C4725 C 0.2963 0.26179 0.73263 0.0
C4726 C 0.29808 0.24929 0.75344 0.0
C4727 C 0.28396 0.23887 0.75144 0.0
C4728 C 0.27593 0.24022 0.74028 0.0
C4729 C 0.2822 0.25166 0.73101 0.0
C4730 C 0.30698 0.24821 0.76522 0.0
C4731 C 0.26083 0.22935 0.73784 0.0
C4732 C 0.27331 0.20251 0.76377 0.0
C4733 C 0.26654 0.20165 0.77692 0.0
C4734 C 0.27893 0.21453 0.75537 0.0
C4735 C 0.27789 0.22606 0.76028 0.0
C4736 C 0.27112 0.22531 0.77357 0.0
C4737 C 0.26545 0.21307 0.7817 0.0
C4738 C 0.28597 0.21487 0.74121 0.0
C4739 C 0.26993 0.23746 0.7792 0.0
H4740 H 0.31501 0.26834 0.74525 0.0
H4741 H 0.27609 0.25263 0.72238 0.0
H4742 H 0.30185 0.24648 0.77596 0.0
H4743 H 0.30825 0.23913 0.76284 0.0
H4744 H 0.31744 0.25769 0.76606 0.0
H4745 H 0.25581 0.2324 0.72932 0.0
H4746 H 0.25994 0.21933 0.73444 0.0
H4747 H 0.25502 0.22753 0.74815 0.0
H4748 H 0.27422 0.19372 0.76007 0.0
H4749 H 0.26022 0.21244 0.79185 0.0
H4750 H 0.29696 0.22345 0.74163 0.0
H4751 H 0.28082 0.21695 0.73201 0.0
H4752 H 0.28574 0.20494 0.73885 0.0
H4753 H 0.28043 0.24674 0.78073 0.0
H4754 H 0.26438 0.23523 0.78975 0.0
H4755 H 0.26431 0.24016 0.77109 0.0
C4756 C 0.75536 0.05501 0.73822 0.0
C4757 C 0.75048 0.04311 0.72924 0.0
C4758 C 0.76455 0.05749 0.74991 0.0
C4759 C 0.76868 0.04766 0.75286 0.0
C4760 C 0.7638 0.03564 0.74378 0.0
C4761 C 0.75486 0.03359 0.73198 0.0
C4762 C 0.76976 0.07056 0.75916 0.0
C4763 C 0.76774 0.02478 0.74674 0.0
C4764 C 0.80057 0.05694 0.77615 0.0
C4765 C 0.79463 0.05173 0.78978 0.0
C4766 C 0.7923 0.05618 0.76417 0.0
C4767 C 0.77773 0.04966 0.76573 0.0
C4768 C 0.7717 0.04445 0.77945 0.0
C4769 C 0.78024 0.04566 0.79132 0.0
C4770 C 0.79913 0.06209 0.74977 0.0
C4771 C 0.75617 0.03718 0.78149 0.0
H4772 H 0.75204 0.06243 0.736 0.0
H4773 H 0.75098 0.02433 0.7251 0.0
H4774 H 0.76613 0.06781 0.77053 0.0
H4775 H 0.78129 0.0764 0.75956 0.0
H4776 H 0.76616 0.07751 0.75494 0.0
H4777 H 0.7631 0.01606 0.73859 0.0
H4778 H 0.77919 0.02957 0.74661 0.0
H4779 H 0.76423 0.02048 0.75777 0.0
H4780 H 0.81166 0.06147 0.77477 0.0
H4781 H 0.77562 0.04148 0.80179 0.0
H4782 H 0.79575 0.06921 0.74558 0.0
H4783 H 0.79589 0.05355 0.74157 0.0
H4784 H 0.81065 0.06788 0.75069 0.0
H4785 H 0.75219 0.04409 0.77829 0.0
H4786 H 0.75316 0.03398 0.79295 0.0
H4787 H 0.75097 0.02777 0.77429 0.0
C4788 C 0.05639 0.31597 0.04662 0.0
C4789 C 0.05996 0.32447 0.03438 0.0
C4790 C 0.06561 0.31223 0.05255 0.0
C4791 C 0.07867 0.31703 0.04603 0.0
C4792 C 0.08242 0.32573 0.03377 0.0
C4793 C 0.07304 0.32943 0.02812 0.0
C4794 C 0.06129 0.30307 0.06573 0.0
C4795 C 0.09621 0.33087 0.02645 0.0
C4796 C 0.11334 0.31844 0.07189 0.0
C4797 C 0.10859 0.30021 0.06712 0.0
C4798 C 0.10154 0.32356 0.06477 0.0
C4799 C 0.08814 0.31255 0.05167 0.0
C4800 C 0.08657 0.29666 0.04436 0.0
C4801 C 0.09783 0.29063 0.05079 0.0
C4802 C 0.10267 0.33682 0.07 0.0
C4803 C 0.07583 0.28843 0.03295 0.0
H4804 H 0.04638 0.31232 0.05165 0.0
H4805 H 0.0758 0.33594 0.0186 0.0
H4806 H 0.0607 0.29308 0.06284 0.0
H4807 H 0.06915 0.30822 0.07461 0.0
H4808 H 0.05102 0.30075 0.0699 0.0
H4809 H 0.09768 0.33776 0.01715 0.0
H4810 H 0.1048 0.33668 0.03449 0.0
H4811 H 0.09698 0.32186 0.02237 0.0
H4812 H 0.12066 0.32434 0.0806 0.0
H4813 H 0.0962 0.28055 0.04746 0.0
H4814 H 0.09251 0.3346 0.07439 0.0
H4815 H 0.10508 0.34388 0.06066 0.0
H4816 H 0.11089 0.34191 0.07855 0.0
H4817 H 0.06539 0.28506 0.0374 0.0
H4818 H 0.07647 0.27921 0.02941 0.0
H4819 H 0.07733 0.29513 0.02348 0.0
C4820 C 0.67455 0.72913 0.05652 0.0
C4821 C 0.67192 0.71661 0.06276 0.0
C4822 C 0.67999 0.74144 0.06498 0.0
C4823 C 0.68289 0.74121 0.07997 0.0
C4824 C 0.67979 0.72854 0.08646 0.0
C4825 C 0.67429 0.71637 0.07779 0.0
C4826 C 0.68307 0.75477 0.05778 0.0
C4827 C 0.68274 0.72795 0.10244 0.0
C4828 C 0.71847 0.77899 0.10043 0.0
C4829 C 0.70785 0.78611 0.10795 0.0
C4830 C 0.7089 0.76339 0.08941 0.0
C4831 C 0.69015 0.75427 0.08862 0.0
C4832 C 0.68017 0.75967 0.09949 0.0
C4833 C 0.68879 0.77516 0.11089 0.0
C4834 C 0.71654 0.75794 0.0809 0.0
C4835 C 0.66471 0.75135 0.09894 0.0
H4836 H 0.67286 0.72944 0.0449 0.0
H4837 H 0.67205 0.70669 0.08275 0.0
H4838 H 0.67821 0.75979 0.06399 0.0
H4839 H 0.69446 0.76209 0.05787 0.0
H4840 H 0.67922 0.75302 0.04629 0.0
H4841 H 0.67904 0.71715 0.10601 0.0
H4842 H 0.6941 0.73432 0.10459 0.0
H4843 H 0.67769 0.73244 0.10919 0.0
H4844 H 0.72968 0.78519 0.10001 0.0
H4845 H 0.68299 0.77914 0.11656 0.0
H4846 H 0.71374 0.75727 0.06916 0.0
H4847 H 0.71327 0.74725 0.08447 0.0
H4848 H 0.72792 0.76479 0.08247 0.0
H4849 H 0.6611 0.75002 0.08742 0.0
H4850 H 0.66022 0.75655 0.10547 0.0
H4851 H 0.66117 0.74084 0.10325 0.0
C4852 C 0.26159 0.93785 0.03445 0.0
C4853 C 0.27391 0.94702 0.04206 0.0
C4854 C 0.24883 0.93092 0.04166 0.0
C4855 C 0.2484 0.93314 0.05686 0.0
C4856 C 0.26084 0.942 0.06469 0.0
C4857 C 0.27344 0.94886 0.05719 0.0
C4858 C 0.23577 0.92153 0.03294 0.0
C4859 C 0.2608 0.9446 0.08092 0.0
C4860 C 0.21467 0.92801 0.07231 0.0
C4861 C 0.20897 0.91484 0.07854 0.0
C4862 C 0.22752 0.9341 0.0653 0.0
C4863 C 0.23483 0.92681 0.06443 0.0
C4864 C 0.22914 0.91349 0.07065 0.0
C4865 C 0.2162 0.9076 0.07751 0.0
C4866 C 0.23319 0.94827 0.05867 0.0
C4867 C 0.23665 0.90542 0.06994 0.0
H4868 H 0.26189 0.93622 0.02279 0.0
H4869 H 0.28286 0.95607 0.06314 0.0
H4870 H 0.23012 0.91107 0.03784 0.0
H4871 H 0.22874 0.92586 0.03323 0.0
H4872 H 0.23796 0.92035 0.02135 0.0
H4873 H 0.27146 0.951 0.08557 0.0
H4874 H 0.25499 0.95008 0.08309 0.0
H4875 H 0.25541 0.93458 0.08672 0.0
H4876 H 0.20895 0.93348 0.0728 0.0
H4877 H 0.21167 0.89727 0.08198 0.0
H4878 H 0.23459 0.9476 0.04676 0.0
H4879 H 0.24354 0.95565 0.0635 0.0
H4880 H 0.22625 0.95259 0.06039 0.0
H4881 H 0.23804 0.90332 0.05839 0.0
H4882 H 0.23097 0.89534 0.07564 0.0
H4883 H 0.24716 0.91168 0.07495 0.0
C4884 C 0.32263 0.05448 0.96525 0.0
C4885 C 0.32073 0.05126 0.98012 0.0
C4886 C 0.31691 0.06182 0.95874 0.0
C4887 C 0.30911 0.06602 0.9673 0.0
C4888 C 0.30742 0.06308 0.98239 0.0
C4889 C 0.31325 0.05574 0.98861 0.0
C4890 C 0.31894 0.06477 0.94262 0.0
C4891 C 0.29922 0.06745 0.9919 0.0
C4892 C 0.30273 0.09432 0.95349 0.0
C4893 C 0.28919 0.08648 0.9477 0.0
C4894 C 0.30941 0.08781 0.95975 0.0
C4895 C 0.30232 0.07311 0.9604 0.0
C4896 C 0.28864 0.06514 0.95465 0.0
C4897 C 0.28222 0.07193 0.94843 0.0
C4898 C 0.32399 0.09665 0.9658 0.0
C4899 C 0.28072 0.04944 0.9552 0.0
H4900 H 0.32823 0.0509 0.95857 0.0
H4901 H 0.3119 0.05344 0.00015 0.0
H4902 H 0.30873 0.05932 0.93685 0.0
H4903 H 0.3235 0.07607 0.9408 0.0
H4904 H 0.32581 0.06136 0.93764 0.0
H4905 H 0.29927 0.06477 0.00352 0.0
H4906 H 0.30354 0.07885 0.99123 0.0
H4907 H 0.28829 0.06229 0.98792 0.0
H4908 H 0.30805 0.10559 0.95319 0.0
H4909 H 0.27168 0.06585 0.94419 0.0
H4910 H 0.33102 0.09365 0.96048 0.0
H4911 H 0.32416 0.09485 0.97766 0.0
H4912 H 0.32816 0.10794 0.96417 0.0
H4913 H 0.28662 0.04522 0.94957 0.0
H4914 H 0.27025 0.04477 0.95003 0.0
H4915 H 0.27951 0.0461 0.96672 0.0
C4916 C 0.9401 0.26948 0.96726 0.0
C4917 C 0.94776 0.27089 0.98001 0.0
C4918 C 0.93175 0.25642 0.96045 0.0
C4919 C 0.93099 0.24447 0.96659 0.0
C4920 C 0.93847 0.24577 0.9796 0.0
C4921 C 0.94679 0.25896 0.98613 0.0
C4922 C 0.92392 0.25543 0.94659 0.0
C4923 C 0.93789 0.23325 0.98649 0.0
C4924 C 0.90071 0.2087 0.95633 0.0
C4925 C 0.90674 0.20397 0.94606 0.0
C4926 C 0.90843 0.22193 0.96296 0.0
C4927 C 0.92254 0.23061 0.95928 0.0
C4928 C 0.9287 0.22592 0.9489 0.0
C4929 C 0.92076 0.2126 0.94252 0.0
C4930 C 0.90155 0.22651 0.9741 0.0
C4931 C 0.94372 0.23489 0.9447 0.0
H4932 H 0.94066 0.27862 0.96257 0.0
H4933 H 0.95285 0.25997 0.99583 0.0
H4934 H 0.9274 0.25124 0.93754 0.0
H4935 H 0.91265 0.24809 0.94799 0.0
H4936 H 0.92544 0.26567 0.94336 0.0
H4937 H 0.94391 0.23596 0.99691 0.0
H4938 H 0.92696 0.22522 0.98865 0.0
H4939 H 0.9421 0.22853 0.97886 0.0
H4940 H 0.88997 0.20193 0.95931 0.0
H4941 H 0.92555 0.20885 0.93485 0.0
H4942 H 0.90243 0.23647 0.97082 0.0
H4943 H 0.90692 0.22839 0.98483 0.0
H4944 H 0.89039 0.21866 0.97546 0.0
H4945 H 0.94563 0.24507 0.94073 0.0
H4946 H 0.94679 0.22991 0.93606 0.0
H4947 H 0.95054 0.23705 0.95441 0.0
C4948 C 0.72616 0.68015 0.96246 0.0
C4949 C 0.72284 0.67304 0.97569 0.0
C4950 C 0.73913 0.68491 0.956 0.0
C4951 C 0.74903 0.68246 0.96291 0.0
C4952 C 0.74566 0.67501 0.97609 0.0
C4953 C 0.73261 0.67041 0.98234 0.0
C4954 C 0.74235 0.69279 0.94192 0.0
C4955 C 0.75595 0.67221 0.9838 0.0
C4956 C 0.77936 0.68592 0.94082 0.0
C4957 C 0.7899 0.69947 0.94471 0.0
C4958 C 0.76596 0.68027 0.94656 0.0
C4959 C 0.76314 0.68823 0.95668 0.0
C4960 C 0.77381 0.70178 0.96086 0.0
C4961 C 0.78705 0.70721 0.95484 0.0
C4962 C 0.75483 0.66579 0.94184 0.0
C4963 C 0.77127 0.71053 0.97176 0.0
H4964 H 0.71859 0.68202 0.95713 0.0
H4965 H 0.73021 0.66508 0.99266 0.0
H4966 H 0.75122 0.70353 0.94368 0.0
H4967 H 0.74548 0.68771 0.93348 0.0
H4968 H 0.73335 0.69341 0.93767 0.0
H4969 H 0.75147 0.66566 0.99356 0.0
H4970 H 0.7596 0.6669 0.97623 0.0
H4971 H 0.76519 0.6822 0.9873 0.0
H4972 H 0.78159 0.67974 0.93328 0.0
H4973 H 0.79526 0.71754 0.95813 0.0
H4974 H 0.74588 0.66609 0.93696 0.0
H4975 H 0.75094 0.65898 0.95147 0.0
H4976 H 0.75866 0.66103 0.93374 0.0
H4977 H 0.76289 0.71223 0.96766 0.0
H4978 H 0.78072 0.72082 0.97393 0.0
H4979 H 0.76774 0.70499 0.98223 0.0
C4980 C 0.93982 0.67325 0.97484 0.0
C4981 C 0.95364 0.6804 0.97987 0.0
C4982 C 0.93421 0.68023 0.96733 0.0
C4983 C 0.94265 0.69465 0.96475 0.0
C4984 C 0.95657 0.70192 0.96988 0.0
C4985 C 0.96189 0.69471 0.97734 0.0
C4986 C 0.9193 0.67216 0.96204 0.0
C4987 C 0.96594 0.71729 0.96728 0.0
C4988 C 0.93438 0.71107 0.93322 0.0
C4989 C 0.92846 0.71798 0.94043 0.0
C4990 C 0.93872 0.70316 0.94097 0.0
C4991 C 0.93715 0.70215 0.95631 0.0
C4992 C 0.93105 0.70897 0.96364 0.0
C4993 C 0.92685 0.71687 0.95561 0.0
C4994 C 0.94528 0.69613 0.93278 0.0
C4995 C 0.92923 0.70816 0.97999 0.0
H4996 H 0.93337 0.66222 0.97685 0.0
H4997 H 0.97267 0.70026 0.98093 0.0
H4998 H 0.91345 0.67696 0.96653 0.0
H4999 H 0.91888 0.67259 0.94997 0.0
H5000 H 0.91401 0.66108 0.96525 0.0
H5001 H 0.97641 0.72148 0.97234 0.0
H5002 H 0.96718 0.7192 0.95538 0.0
H5003 H 0.96121 0.7232 0.97179 0.0
H5004 H 0.93574 0.712 0.9215 0.0
H5005 H 0.92238 0.72229 0.96122 0.0
H5006 H 0.93971 0.68484 0.9351 0.0
H5007 H 0.9562 0.70052 0.93653 0.0
H5008 H 0.9452 0.69744 0.92079 0.0
H5009 H 0.92344 0.69712 0.98333 0.0
H5010 H 0.92359 0.71339 0.98391 0.0
H5011 H 0.93955 0.71312 0.98552 0.0
C5012 C 0.30923 0.2714 0.97218 0.0
C5013 C 0.32342 0.27977 0.96918 0.0
C5014 C 0.30131 0.25799 0.96609 0.0
C5015 C 0.30765 0.25281 0.95656 0.0
C5016 C 0.32188 0.26127 0.95316 0.0
C5017 C 0.32962 0.27466 0.95955 0.0
C5018 C 0.28616 0.24929 0.97001 0.0
C5019 C 0.32894 0.25612 0.94294 0.0
C5020 C 0.28908 0.21343 0.95402 0.0
C5021 C 0.28064 0.21061 0.94158 0.0
C5022 C 0.29842 0.22715 0.95863 0.0
C5023 C 0.29935 0.23834 0.95059 0.0
C5024 C 0.29126 0.23558 0.93769 0.0
C5025 C 0.28187 0.22174 0.93343 0.0
C5026 C 0.30672 0.22965 0.97255 0.0
C5027 C 0.29204 0.24723 0.92877 0.0
H5028 H 0.30425 0.27538 0.97929 0.0
H5029 H 0.34059 0.28102 0.95721 0.0
H5030 H 0.27958 0.24621 0.95999 0.0
H5031 H 0.28423 0.23958 0.97529 0.0
H5032 H 0.2828 0.2549 0.97754 0.0
H5033 H 0.33988 0.26422 0.94085 0.0
H5034 H 0.32882 0.24694 0.94764 0.0
H5035 H 0.3232 0.2527 0.93236 0.0
H5036 H 0.28798 0.20485 0.96046 0.0
H5037 H 0.27521 0.21962 0.92395 0.0
H5038 H 0.30311 0.23427 0.98102 0.0
H5039 H 0.31787 0.23717 0.97072 0.0
H5040 H 0.30569 0.21989 0.97683 0.0
H5041 H 0.28742 0.25249 0.93496 0.0
H5042 H 0.2864 0.24341 0.91815 0.0
H5043 H 0.30302 0.25516 0.92665 0.0
C5044 C 0.73818 0.05925 0.96782 0.0
C5045 C 0.73535 0.05181 0.98082 0.0
C5046 C 0.75133 0.06517 0.96139 0.0
C5047 C 0.7619 0.06365 0.96815 0.0
C5048 C 0.7592 0.05644 0.98144 0.0
C5049 C 0.74598 0.05059 0.98758 0.0
C5050 C 0.75384 0.07282 0.94724 0.0
C5051 C 0.77021 0.05462 0.98901 0.0
C5052 C 0.7918 0.0656 0.94664 0.0
C5053 C 0.80273 0.07888 0.95066 0.0
C5054 C 0.77829 0.06075 0.95174 0.0
C5055 C 0.77572 0.0693 0.96126 0.0
C5056 C 0.78664 0.08284 0.96506 0.0
C5057 C 0.80002 0.08745 0.95975 0.0
C5058 C 0.76691 0.04625 0.94741 0.0
C5059 C 0.78434 0.09224 0.97524 0.0
H5060 H 0.73008 0.06036 0.96261 0.0
H5061 H 0.74384 0.04465 0.99747 0.0
H5062 H 0.76288 0.08353 0.94847 0.0
H5063 H 0.75638 0.06746 0.93855 0.0
H5064 H 0.74468 0.07346 0.94361 0.0
H5065 H 0.7666 0.04918 0.99955 0.0
H5066 H 0.77326 0.04853 0.98185 0.0
H5067 H 0.77965 0.06491 0.99113 0.0
H5068 H 0.7939 0.05887 0.93981 0.0
H5069 H 0.8085 0.09764 0.96305 0.0
H5070 H 0.75774 0.0465 0.9431 0.0
H5071 H 0.76351 0.03957 0.95715 0.0
H5072 H 0.77033 0.04138 0.939 0.0
H5073 H 0.77536 0.09309 0.97142 0.0
H5074 H 0.79361 0.10286 0.97615 0.0
H5075 H 0.78185 0.08771 0.98629 0.0
C5076 C 0.69672 0.94923 0.03221 0.0
C5077 C 0.68792 0.95203 0.04064 0.0
C5078 C 0.70298 0.94216 0.03806 0.0
C5079 C 0.70031 0.93766 0.05268 0.0
C5080 C 0.69115 0.9401 0.06114 0.0
C5081 C 0.68508 0.94729 0.05503 0.0
C5082 C 0.71268 0.93974 0.02867 0.0
C5083 C 0.68799 0.93537 0.07673 0.0
C5084 C 0.70902 0.90989 0.06209 0.0
C5085 C 0.72229 0.91787 0.06843 0.0
C5086 C 0.70147 0.91611 0.05749 0.0
C5087 C 0.70741 0.93069 0.0591 0.0
C5088 C 0.72063 0.93875 0.06591 0.0
C5089 C 0.7279 0.93224 0.07052 0.0
C5090 C 0.68736 0.90715 0.05039 0.0
C5091 C 0.72734 0.95434 0.06776 0.0
H5092 H 0.69877 0.95264 0.02101 0.0
H5093 H 0.67842 0.94955 0.06167 0.0
H5094 H 0.72321 0.94497 0.03374 0.0
H5095 H 0.70902 0.92845 0.02789 0.0
H5096 H 0.7135 0.94373 0.01745 0.0
H5097 H 0.68007 0.9374 0.08158 0.0
H5098 H 0.68421 0.92407 0.07729 0.0
H5099 H 0.69762 0.94086 0.08349 0.0
H5100 H 0.70468 0.89879 0.06042 0.0
H5101 H 0.73818 0.93843 0.07536 0.0
H5102 H 0.68783 0.90977 0.03869 0.0
H5103 H 0.6796 0.90921 0.05557 0.0
H5104 H 0.68369 0.89587 0.05114 0.0
H5105 H 0.72955 0.95921 0.05688 0.0
H5106 H 0.73722 0.95896 0.07414 0.0
H5107 H 0.72018 0.95702 0.07335 0.0
C5108 C 0.03635 0.73171 0.04575 0.0
C5109 C 0.04481 0.72607 0.04264 0.0
C5110 C 0.04167 0.74455 0.05311 0.0
C5111 C 0.05583 0.75197 0.05744 0.0
C5112 C 0.06449 0.74643 0.05418 0.0
C5113 C 0.05885 0.73348 0.04688 0.0
C5114 C 0.03206 0.75003 0.0565 0.0
C5115 C 0.07966 0.75413 0.05855 0.0
C5116 C 0.07104 0.79038 0.06659 0.0
C5117 C 0.07028 0.79026 0.08187 0.0
C5118 C 0.06671 0.77803 0.05849 0.0
C5119 C 0.06136 0.76527 0.06585 0.0
C5120 C 0.06061 0.7651 0.08128 0.0
C5121 C 0.06504 0.77758 0.08909 0.0
C5122 C 0.06762 0.7786 0.04205 0.0
C5123 C 0.05486 0.75168 0.08952 0.0
H5124 H 0.02542 0.7259 0.04273 0.0
H5125 H 0.06542 0.72918 0.04441 0.0
H5126 H 0.03138 0.75101 0.0685 0.0
H5127 H 0.03624 0.76057 0.05196 0.0
H5128 H 0.02141 0.74316 0.052 0.0
H5129 H 0.0851 0.74866 0.05473 0.0
H5130 H 0.08493 0.76474 0.05399 0.0
H5131 H 0.08072 0.75533 0.07061 0.0
H5132 H 0.07496 0.80014 0.06098 0.0
H5133 H 0.06432 0.77745 0.10089 0.0
H5134 H 0.05705 0.77262 0.03713 0.0
H5135 H 0.07355 0.77369 0.03811 0.0
H5136 H 0.0727 0.78944 0.03805 0.0
H5137 H 0.04383 0.74459 0.08632 0.0
H5138 H 0.05547 0.75341 0.10154 0.0
H5139 H 0.06063 0.74631 0.08666 0.0
C5140 C 0.28093 0.3301 0.05445 0.0
C5141 C 0.28271 0.33094 0.03927 0.0
C5142 C 0.26766 0.32452 0.06051 0.0
C5143 C 0.25592 0.31963 0.05115 0.0
C5144 C 0.25767 0.32063 0.03583 0.0
C5145 C 0.27104 0.32631 0.03009 0.0
C5146 C 0.26618 0.32368 0.07689 0.0
C5147 C 0.24541 0.31554 0.02549 0.0
C5148 C 0.22004 0.2928 0.06411 0.0
C5149 C 0.21397 0.30099 0.06655 0.0
C5150 C 0.23382 0.29878 0.05945 0.0
C5151 C 0.24173 0.31332 0.05728 0.0
C5152 C 0.2358 0.3217 0.06019 0.0
C5153 C 0.22196 0.31542 0.0647 0.0
C5154 C 0.23975 0.28949 0.05638 0.0
C5155 C 0.24395 0.33725 0.05812 0.0
H5156 H 0.28987 0.3335 0.06161 0.0
H5157 H 0.27236 0.32713 0.01836 0.0
H5158 H 0.26065 0.32906 0.08066 0.0
H5159 H 0.25983 0.31263 0.08008 0.0
H5160 H 0.27638 0.32839 0.08267 0.0
H5161 H 0.24856 0.31712 0.01386 0.0
H5162 H 0.23807 0.30429 0.02709 0.0
H5163 H 0.2397 0.32108 0.02785 0.0
H5164 H 0.21386 0.28164 0.06551 0.0
H5165 H 0.21729 0.32179 0.06655 0.0
H5166 H 0.24964 0.29331 0.06253 0.0
H5167 H 0.24213 0.28977 0.04459 0.0
H5168 H 0.23249 0.27851 0.05934 0.0
H5169 H 0.25397 0.34193 0.06422 0.0
H5170 H 0.23816 0.3424 0.06184 0.0
H5171 H 0.2464 0.33951 0.0464 0.0
C5172 C 0.70339 0.63829 0.38056 0.0
C5173 C 0.71122 0.65169 0.37493 0.0
C5174 C 0.70984 0.63207 0.38786 0.0
C5175 C 0.72448 0.63928 0.38926 0.0
C5176 C 0.73245 0.6528 0.38358 0.0
C5177 C 0.7257 0.65894 0.37662 0.0
C5178 C 0.70098 0.61782 0.39423 0.0
C5179 C 0.74809 0.66071 0.38474 0.0
C5180 C 0.74164 0.62595 0.42537 0.0
C5181 C 0.74768 0.61658 0.41318 0.0
C5182 C 0.73467 0.63508 0.41585 0.0
C5183 C 0.73128 0.63251 0.39643 0.0
C5184 C 0.7339 0.62024 0.38593 0.0
C5185 C 0.74063 0.61039 0.39438 0.0
C5186 C 0.73137 0.64463 0.42413 0.0
C5187 C 0.73041 0.61818 0.37002 0.0
H5188 H 0.69216 0.63278 0.37942 0.0
H5189 H 0.73174 0.6693 0.37223 0.0
H5190 H 0.70342 0.61032 0.38892 0.0
H5191 H 0.70337 0.61818 0.40606 0.0
H5192 H 0.6897 0.61388 0.39281 0.0
H5193 H 0.75282 0.6708 0.37903 0.0
H5194 H 0.75131 0.66278 0.39641 0.0
H5195 H 0.75224 0.65434 0.38 0.0
H5196 H 0.74473 0.62817 0.43675 0.0
H5197 H 0.7434 0.60397 0.38794 0.0
H5198 H 0.72026 0.64127 0.42239 0.0
H5199 H 0.73763 0.65529 0.41985 0.0
H5200 H 0.73361 0.64466 0.43595 0.0
H5201 H 0.71898 0.61301 0.36853 0.0
H5202 H 0.7342 0.61168 0.36485 0.0
H5203 H 0.7351 0.62846 0.36474 0.0
C5204 C 0.3438 0.06561 0.38941 0.0
C5205 C 0.34262 0.05392 0.39633 0.0
C5206 C 0.35 0.07862 0.39661 0.0
C5207 C 0.35525 0.07997 0.41098 0.0
C5208 C 0.35386 0.06818 0.41812 0.0
C5209 C 0.34747 0.05524 0.41074 0.0
C5210 C 0.35112 0.09093 0.38874 0.0
C5211 C 0.35952 0.06933 0.43339 0.0
C5212 C 0.39102 0.12106 0.42504 0.0
C5213 C 0.38022 0.12741 0.43382 0.0
C5214 C 0.38127 0.10429 0.41603 0.0
C5215 C 0.3627 0.09375 0.41829 0.0
C5216 C 0.35329 0.09893 0.43035 0.0
C5217 C 0.3621 0.11551 0.43987 0.0
C5218 C 0.38859 0.09912 0.40656 0.0
C5219 C 0.33808 0.08951 0.4323 0.0
H5220 H 0.33992 0.06457 0.37832 0.0
H5221 H 0.3467 0.04624 0.41605 0.0
H5222 H 0.34641 0.09583 0.39541 0.0
H5223 H 0.36223 0.09882 0.38723 0.0
H5224 H 0.34589 0.08798 0.37786 0.0
H5225 H 0.35727 0.0591 0.43759 0.0
H5226 H 0.37094 0.0765 0.43351 0.0
H5227 H 0.35499 0.07382 0.44092 0.0
H5228 H 0.40189 0.12799 0.42275 0.0
H5229 H 0.35643 0.11922 0.4462 0.0
H5230 H 0.38418 0.09725 0.39532 0.0
H5231 H 0.38674 0.08902 0.41067 0.0
H5232 H 0.39989 0.10677 0.4064 0.0
H5233 H 0.33281 0.08688 0.42146 0.0
H5234 H 0.3338 0.09454 0.43942 0.0
H5235 H 0.33619 0.07967 0.4372 0.0
C5236 C 0.93755 0.2897 0.37 0.0
C5237 C 0.94888 0.28922 0.376 0.0
C5238 C 0.92451 0.28296 0.37666 0.0
C5239 C 0.92276 0.27565 0.38973 0.0
C5240 C 0.93414 0.27514 0.39588 0.0
C5241 C 0.94704 0.28188 0.38892 0.0
C5242 C 0.91261 0.28371 0.36973 0.0
C5243 C 0.93268 0.26748 0.40983 0.0
C5244 C 0.89221 0.26931 0.41322 0.0
C5245 C 0.88236 0.2555 0.40943 0.0
C5246 C 0.90552 0.27589 0.40716 0.0
C5247 C 0.909 0.26854 0.39691 0.0
C5248 C 0.89914 0.25455 0.39314 0.0
C5249 C 0.88594 0.2482 0.39945 0.0
C5250 C 0.91579 0.2908 0.41151 0.0
C5251 C 0.9024 0.24641 0.38216 0.0
H5252 H 0.9389 0.29554 0.36018 0.0
H5253 H 0.95568 0.28129 0.39354 0.0
H5254 H 0.90382 0.27305 0.36734 0.0
H5255 H 0.9088 0.28877 0.37742 0.0
H5256 H 0.91563 0.28961 0.35942 0.0
H5257 H 0.94258 0.26821 0.41331 0.0
H5258 H 0.92917 0.27178 0.41874 0.0
H5259 H 0.92465 0.25633 0.40837 0.0
H5260 H 0.88943 0.27503 0.42081 0.0
H5261 H 0.87829 0.23756 0.3964 0.0
H5262 H 0.91839 0.29753 0.40185 0.0
H5263 H 0.92559 0.29169 0.41556 0.0
H5264 H 0.9117 0.29483 0.42014 0.0
H5265 H 0.90454 0.2515 0.3714 0.0
H5266 H 0.89375 0.23548 0.38079 0.0
H5267 H 0.91189 0.24631 0.3856 0.0
C5268 C 0.00899 0.3916 0.29491 0.0
C5269 C 0.02 0.39325 0.30378 0.0
C5270 C 0.00913 0.40318 0.28886 0.0
C5271 C 0.02044 0.41672 0.292 0.0
C5272 C 0.03152 0.41842 0.30107 0.0
C5273 C 0.03121 0.40666 0.30675 0.0
C5274 C 0.99725 0.40095 0.27906 0.0
C5275 C 0.04365 0.43269 0.30488 0.0
C5276 C 0.0288 0.44728 0.26774 0.0
C5277 C 0.02297 0.45396 0.27556 0.0
C5278 C 0.02758 0.43484 0.27267 0.0
C5279 C 0.02071 0.42916 0.28594 0.0
C5280 C 0.01476 0.43581 0.29385 0.0
C5281 C 0.01594 0.44811 0.28854 0.0
C5282 C 0.03395 0.42798 0.26387 0.0
C5283 C 0.00756 0.43021 0.30817 0.0
H5284 H 0.00037 0.38122 0.29252 0.0
H5285 H 0.03966 0.40794 0.31374 0.0
H5286 H 0.9921 0.40639 0.28376 0.0
H5287 H 0.00125 0.4055 0.26822 0.0
H5288 H 0.98936 0.38975 0.2775 0.0
H5289 H 0.05134 0.43221 0.31223 0.0
H5290 H 0.049 0.4381 0.29479 0.0
H5291 H 0.03988 0.4391 0.31031 0.0
H5292 H 0.0345 0.45189 0.25786 0.0
H5293 H 0.01167 0.45339 0.29475 0.0
H5294 H 0.02617 0.41684 0.26177 0.0
H5295 H 0.04266 0.42838 0.27014 0.0
H5296 H 0.03795 0.43309 0.25323 0.0
H5297 H 0.99917 0.4192 0.30675 0.0
H5298 H 0.003 0.4363 0.31267 0.0
H5299 H 0.01509 0.43045 0.31629 0.0
C5300 C 0.59602 0.6115 0.30139 0.0
C5301 C 0.60997 0.61546 0.2994 0.0
C5302 C 0.58534 0.59974 0.29411 0.0
C5303 C 0.58872 0.59189 0.28449 0.0
C5304 C 0.60276 0.59579 0.28246 0.0
C5305 C 0.61324 0.60751 0.29 0.0
C5306 C 0.57042 0.59563 0.2968 0.0
C5307 C 0.60671 0.58771 0.27219 0.0
C5308 C 0.55583 0.54783 0.27543 0.0
C5309 C 0.55208 0.55093 0.25647 0.0
C5310 C 0.56998 0.56281 0.28449 0.0
C5311 C 0.57758 0.5798 0.27646 0.0
C5312 C 0.57082 0.58276 0.25978 0.0
C5313 C 0.5567 0.56847 0.24991 0.0
C5314 C 0.57535 0.56117 0.29879 0.0
C5315 C 0.57717 0.59711 0.25397 0.0
H5316 H 0.59345 0.61751 0.30881 0.0
H5317 H 0.62403 0.61061 0.28835 0.0
H5318 H 0.56543 0.59597 0.28643 0.0
H5319 H 0.56457 0.58477 0.30068 0.0
H5320 H 0.56951 0.60257 0.30499 0.0
H5321 H 0.61812 0.59201 0.27194 0.0
H5322 H 0.60161 0.57668 0.27552 0.0
H5323 H 0.603 0.58788 0.26097 0.0
H5324 H 0.55184 0.53745 0.27953 0.0
H5325 H 0.55343 0.56991 0.23926 0.0
H5326 H 0.57465 0.56815 0.30707 0.0
H5327 H 0.58647 0.56442 0.29774 0.0
H5328 H 0.56935 0.55021 0.30234 0.0
H5329 H 0.57531 0.60374 0.26168 0.0
H5330 H 0.57265 0.59693 0.2431 0.0
H5331 H 0.58857 0.60166 0.25318 0.0
C5332 C 0.38689 0.98814 0.31775 0.0
C5333 C 0.37318 0.98262 0.31276 0.0
C5334 C 0.39676 0.98722 0.3091 0.0
C5335 C 0.39274 0.98053 0.29521 0.0
C5336 C 0.37883 0.97469 0.29026 0.0
C5337 C 0.36923 0.97584 0.29909 0.0
C5338 C 0.41152 0.99362 0.31469 0.0
C5339 C 0.37411 0.96735 0.27557 0.0
C5340 C 0.41941 0.98945 0.26557 0.0
C5341 C 0.42142 0.978 0.26585 0.0
C5342 C 0.41041 0.99059 0.27536 0.0
C5343 C 0.40313 0.97996 0.28559 0.0
C5344 C 0.40523 0.96847 0.28606 0.0
C5345 C 0.4143 0.96759 0.27612 0.0
C5346 C 0.4084 0.00298 0.2745 0.0
C5347 C 0.39761 0.95692 0.29678 0.0
H5348 H 0.38998 0.99346 0.32829 0.0
H5349 H 0.35856 0.97135 0.29531 0.0
H5350 H 0.41474 0.98569 0.31468 0.0
H5351 H 0.41863 0.00203 0.30734 0.0
H5352 H 0.41285 0.99805 0.32593 0.0
H5353 H 0.36283 0.96302 0.27354 0.0
H5354 H 0.37996 0.97472 0.26676 0.0
H5355 H 0.37635 0.95873 0.27482 0.0
H5356 H 0.42472 0.9974 0.25749 0.0
H5357 H 0.41569 0.95864 0.27623 0.0
H5358 H 0.41033 0.00822 0.28536 0.0
H5359 H 0.3975 0.99946 0.2713 0.0
H5360 H 0.41541 0.01071 0.26647 0.0
H5361 H 0.39929 0.96127 0.30807 0.0
H5362 H 0.401 0.94911 0.2963 0.0
H5363 H 0.38628 0.95153 0.29446 0.0
C5364 C 0.6055 0.98526 0.30723 0.0
C5365 C 0.61332 0.97935 0.30244 0.0
C5366 C 0.59555 0.98552 0.298 0.0
C5367 C 0.59355 0.97989 0.28367 0.0
C5368 C 0.60173 0.97435 0.27863 0.0
C5369 C 0.61147 0.97407 0.2881 0.0
C5370 C 0.58694 0.99146 0.30368 0.0
C5371 C 0.60009 0.96858 0.26327 0.0
C5372 C 0.55233 0.96054 0.26132 0.0
C5373 C 0.55557 0.97663 0.25208 0.0
C5374 C 0.56598 0.96286 0.27363 0.0
C5375 C 0.58243 0.979 0.2742 0.0
C5376 C 0.58632 0.99303 0.26192 0.0
C5377 C 0.57334 0.99173 0.24919 0.0
C5378 C 0.56362 0.95137 0.28351 0.0
C5379 C 0.60042 0.0057 0.26216 0.0
H5380 H 0.60689 0.98932 0.31833 0.0
H5381 H 0.61769 0.96973 0.28429 0.0
H5382 H 0.58774 0.99961 0.29625 0.0
H5383 H 0.57585 0.9831 0.3039 0.0
H5384 H 0.59021 0.99605 0.31485 0.0
H5385 H 0.60785 0.96545 0.26074 0.0
H5386 H 0.58953 0.95936 0.26175 0.0
H5387 H 0.60116 0.97647 0.2553 0.0
H5388 H 0.54206 0.95143 0.26179 0.0
H5389 H 0.57514 0.00041 0.24252 0.0
H5390 H 0.56606 0.95542 0.29493 0.0
H5391 H 0.5708 0.9476 0.2806 0.0
H5392 H 0.55272 0.94266 0.28258 0.0
H5393 H 0.60271 0.01053 0.27326 0.0
H5394 H 0.60107 0.01327 0.25401 0.0
H5395 H 0.60827 0.00266 0.2598 0.0
C5396 C 0.01245 0.6232 0.29289 0.0
C5397 C 0.01075 0.62536 0.30769 0.0
C5398 C 0.00895 0.60993 0.28749 0.0
C5399 C 0.00359 0.59858 0.29711 0.0
C5400 C 0.00196 0.60073 0.31206 0.0
C5401 C 0.00561 0.61408 0.31717 0.0
C5402 C 0.01087 0.60803 0.27149 0.0
C5403 C 0.9963 0.5889 0.32269 0.0
C5404 C 0.98164 0.56118 0.28356 0.0
C5405 C 0.99105 0.55641 0.28474 0.0
C5406 C 0.98574 0.57507 0.28697 0.0
C5407 C 0.99957 0.58438 0.29166 0.0
C5408 C 0.00925 0.57975 0.2923 0.0
C5409 C 0.00485 0.56579 0.28891 0.0
C5410 C 0.97509 0.57959 0.2862 0.0
C5411 C 0.02411 0.58939 0.29717 0.0
H5412 H 0.01629 0.63183 0.28547 0.0
H5413 H 0.00451 0.61571 0.32867 0.0
H5414 H 0.01768 0.60352 0.2702 0.0
H5415 H 0.0007 0.60058 0.26632 0.0
H5416 H 0.0155 0.61798 0.26553 0.0
H5417 H 0.99562 0.59231 0.33396 0.0
H5418 H 0.98578 0.5806 0.31908 0.0
H5419 H 0.00302 0.58422 0.32292 0.0
H5420 H 0.97094 0.55391 0.28043 0.0
H5421 H 0.01213 0.56211 0.28989 0.0
H5422 H 0.97911 0.58921 0.27977 0.0
H5423 H 0.97304 0.58204 0.29737 0.0
H5424 H 0.96512 0.57143 0.28121 0.0
H5425 H 0.02876 0.59916 0.29092 0.0
H5426 H 0.03064 0.58455 0.29575 0.0
H5427 H 0.0244 0.59225 0.30887 0.0
C5428 C 0.39966 0.37896 0.31546 0.0
C5429 C 0.38905 0.38072 0.30961 0.0
C5430 C 0.41317 0.38626 0.30996 0.0
C5431 C 0.41607 0.3954 0.29818 0.0
C5432 C 0.40539 0.39723 0.29224 0.0
C5433 C 0.392 0.38995 0.29813 0.0
C5434 C 0.42433 0.3842 0.31676 0.0
C5435 C 0.40806 0.40673 0.27956 0.0
C5436 C 0.45389 0.42287 0.29279 0.0
C5437 C 0.45793 0.41655 0.28209 0.0
C5438 C 0.44022 0.41625 0.29789 0.0
C5439 C 0.43032 0.40298 0.29211 0.0
C5440 C 0.43426 0.39665 0.2811 0.0
C5441 C 0.44807 0.40342 0.27636 0.0
C5442 C 0.43649 0.42324 0.3098 0.0
C5443 C 0.42398 0.38255 0.27461 0.0
H5444 H 0.3974 0.37192 0.32445 0.0
H5445 H 0.38376 0.39121 0.29354 0.0
H5446 H 0.42848 0.37996 0.30847 0.0
H5447 H 0.43311 0.39435 0.32067 0.0
H5448 H 0.42043 0.37699 0.32609 0.0
H5449 H 0.39863 0.40701 0.2762 0.0
H5450 H 0.4164 0.41747 0.28248 0.0
H5451 H 0.41171 0.40321 0.27006 0.0
H5452 H 0.46156 0.43288 0.29744 0.0
H5453 H 0.45118 0.39834 0.26832 0.0
H5454 H 0.43347 0.41683 0.31975 0.0
H5455 H 0.42742 0.4241 0.30636 0.0
H5456 H 0.44523 0.43382 0.31268 0.0
H5457 H 0.42064 0.37453 0.28311 0.0
H5458 H 0.4284 0.37954 0.26538 0.0
H5459 H 0.41455 0.38252 0.27065 0.0
C5460 C 0.35215 0.28914 0.36919 0.0
C5461 C 0.34092 0.28866 0.37653 0.0
C5462 C 0.35925 0.28288 0.37497 0.0
C5463 C 0.35504 0.27596 0.38844 0.0
C5464 C 0.34378 0.27551 0.39598 0.0
C5465 C 0.33686 0.28191 0.38995 0.0
C5466 C 0.37127 0.28368 0.36663 0.0
C5467 C 0.33899 0.26819 0.41035 0.0
C5468 C 0.3663 0.24943 0.39384 0.0
C5469 C 0.37855 0.25712 0.40212 0.0
C5470 C 0.35813 0.25519 0.38996 0.0
C5471 C 0.36239 0.26903 0.39437 0.0
C5472 C 0.37445 0.27666 0.40322 0.0
C5473 C 0.38243 0.27063 0.40695 0.0
C5474 C 0.34534 0.24672 0.38051 0.0
C5475 C 0.37934 0.29144 0.40813 0.0
H5476 H 0.35553 0.2946 0.35898 0.0
H5477 H 0.32816 0.28148 0.39563 0.0
H5478 H 0.38083 0.28878 0.37352 0.0
H5479 H 0.36911 0.27304 0.36383 0.0
H5480 H 0.37331 0.28958 0.35637 0.0
H5481 H 0.33023 0.26897 0.41496 0.0
H5482 H 0.33566 0.25702 0.40886 0.0
H5483 H 0.34772 0.27269 0.41839 0.0
H5484 H 0.36335 0.23904 0.38997 0.0
H5485 H 0.39198 0.27665 0.41321 0.0
H5486 H 0.3471 0.25132 0.36951 0.0
H5487 H 0.33631 0.24693 0.38522 0.0
H5488 H 0.34269 0.23571 0.37925 0.0
H5489 H 0.38291 0.29832 0.39855 0.0
H5490 H 0.38803 0.2954 0.41621 0.0
H5491 H 0.37067 0.29218 0.41306 0.0
C5492 C 0.71454 0.05771 0.3921 0.0
C5493 C 0.7107 0.0539 0.37739 0.0
C5494 C 0.72197 0.07179 0.39658 0.0
C5495 C 0.72555 0.08227 0.38612 0.0
C5496 C 0.72175 0.07849 0.37128 0.0
C5497 C 0.71445 0.06438 0.3671 0.0
C5498 C 0.72592 0.07544 0.41249 0.0
C5499 C 0.72539 0.08936 0.35978 0.0
C5500 C 0.73343 0.11863 0.39678 0.0
C5501 C 0.7479 0.12636 0.39534 0.0
C5502 C 0.72604 0.10416 0.39438 0.0
C5503 C 0.73333 0.09725 0.39056 0.0
C5504 C 0.748 0.10492 0.38978 0.0
C5505 C 0.7551 0.1194 0.39209 0.0
C5506 C 0.71039 0.09637 0.39524 0.0
C5507 C 0.75616 0.09792 0.3859 0.0
H5508 H 0.71157 0.04969 0.40015 0.0
H5509 H 0.71177 0.06156 0.35568 0.0
H5510 H 0.73734 0.0823 0.41366 0.0
H5511 H 0.7211 0.08131 0.4169 0.0
H5512 H 0.7226 0.06607 0.4192 0.0
H5513 H 0.72149 0.08468 0.34875 0.0
H5514 H 0.72092 0.09598 0.36266 0.0
H5515 H 0.73682 0.09627 0.35933 0.0
H5516 H 0.72785 0.12401 0.3993 0.0
H5517 H 0.76629 0.12534 0.39097 0.0
H5518 H 0.70674 0.08724 0.40239 0.0
H5519 H 0.70583 0.09237 0.38421 0.0
H5520 H 0.70639 0.10305 0.39947 0.0
H5521 H 0.75304 0.08877 0.39288 0.0
H5522 H 0.76755 0.1051 0.38717 0.0
H5523 H 0.75388 0.09408 0.37441 0.0
C5524 C 0.95028 0.66654 0.39002 0.0
C5525 C 0.95232 0.66656 0.3749 0.0
C5526 C 0.93688 0.66089 0.39575 0.0
C5527 C 0.92524 0.65505 0.38615 0.0
C5528 C 0.92721 0.65499 0.3709 0.0
C5529 C 0.94071 0.6608 0.36547 0.0
C5530 C 0.93517 0.66117 0.41208 0.0
C5531 C 0.91506 0.64884 0.3603 0.0
C5532 C 0.88913 0.62925 0.39953 0.0
C5533 C 0.88303 0.63757 0.4004 0.0
C5534 C 0.903 0.63489 0.39531 0.0
C5535 C 0.91096 0.64918 0.39194 0.0
C5536 C 0.90499 0.65771 0.39325 0.0
C5537 C 0.89107 0.65179 0.39738 0.0
C5538 C 0.90899 0.62544 0.39396 0.0
C5539 C 0.91316 0.67302 0.38984 0.0
H5540 H 0.95917 0.67079 0.3974 0.0
H5541 H 0.94218 0.66098 0.35377 0.0
H5542 H 0.92977 0.66695 0.4148 0.0
H5543 H 0.92861 0.65041 0.41604 0.0
H5544 H 0.94528 0.66613 0.41806 0.0
H5545 H 0.91835 0.64932 0.34879 0.0
H5546 H 0.90772 0.63781 0.36293 0.0
H5547 H 0.90931 0.65451 0.36129 0.0
H5548 H 0.8829 0.61825 0.40179 0.0
H5549 H 0.88638 0.65823 0.39798 0.0
H5550 H 0.91885 0.62982 0.4003 0.0
H5551 H 0.91143 0.62469 0.38236 0.0
H5552 H 0.90172 0.61478 0.39785 0.0
H5553 H 0.92309 0.6782 0.39615 0.0
H5554 H 0.90732 0.6784 0.39239 0.0
H5555 H 0.91581 0.67433 0.37809 0.0
C5556 C 0.37991 0.00624 0.73247 0.0
C5557 C 0.38567 0.01475 0.72031 0.0
C5558 C 0.38775 0.00227 0.74097 0.0
C5559 C 0.40161 0.00677 0.73714 0.0
C5560 C 0.40763 0.01561 0.72515 0.0
C5561 C 0.3996 0.01955 0.71688 0.0
C5562 C 0.38108 0.99296 0.75383 0.0
C5563 C 0.42243 0.02063 0.72085 0.0
C5564 C 0.42845 0.00436 0.77178 0.0
C5565 C 0.42878 0.98926 0.7632 0.0
C5566 C 0.41948 0.01095 0.76116 0.0
C5567 C 0.40941 0.00151 0.74515 0.0
C5568 C 0.40702 0.98478 0.73969 0.0
C5569 C 0.41556 0.97731 0.74957 0.0
C5570 C 0.42033 0.02426 0.76568 0.0
C5571 C 0.39803 0.97715 0.7268 0.0
H5572 H 0.36911 0.0023 0.7351 0.0
H5573 H 0.40421 0.02629 0.70765 0.0
H5574 H 0.38034 0.98276 0.75177 0.0
H5575 H 0.38762 0.99767 0.76379 0.0
H5576 H 0.3705 0.99112 0.75596 0.0
H5577 H 0.42582 0.02806 0.71171 0.0
H5578 H 0.4295 0.02579 0.73035 0.0
H5579 H 0.42344 0.01158 0.71746 0.0
H5580 H 0.43535 0.01036 0.78073 0.0
H5581 H 0.41522 0.96794 0.74565 0.0
H5582 H 0.40972 0.02232 0.76775 0.0
H5583 H 0.42468 0.03173 0.75662 0.0
H5584 H 0.42692 0.02872 0.77563 0.0
H5585 H 0.38722 0.97454 0.72898 0.0
H5586 H 0.39829 0.96749 0.72446 0.0
H5587 H 0.40166 0.98401 0.7172 0.0
C5588 C 0.99018 0.38385 0.72438 0.0
C5589 C 0.97999 0.37319 0.71548 0.0
C5590 C 0.9879 0.39405 0.73076 0.0
C5591 C 0.97521 0.39365 0.72797 0.0
C5592 C 0.96495 0.38295 0.7189 0.0
C5593 C 0.96744 0.37282 0.71282 0.0
C5594 C 0.99901 0.40522 0.7405 0.0
C5595 C 0.95136 0.38226 0.71549 0.0
C5596 C 0.96133 0.41133 0.75266 0.0
C5597 C 0.96455 0.42325 0.74473 0.0
C5598 C 0.96541 0.40196 0.74772 0.0
C5599 C 0.97259 0.40442 0.73439 0.0
C5600 C 0.97616 0.41661 0.72653 0.0
C5601 C 0.97209 0.42587 0.73181 0.0
C5602 C 0.9615 0.38913 0.75645 0.0
C5603 C 0.98367 0.41953 0.71219 0.0
H5604 H 0.99985 0.38409 0.72652 0.0
H5605 H 0.95963 0.3647 0.70576 0.0
H5606 H 0.00242 0.41564 0.73599 0.0
H5607 H 0.99474 0.40497 0.75149 0.0
H5608 H 0.00822 0.40397 0.74171 0.0
H5609 H 0.94452 0.37332 0.70815 0.0
H5610 H 0.94573 0.38135 0.72574 0.0
H5611 H 0.95338 0.392 0.71022 0.0
H5612 H 0.95529 0.40912 0.76251 0.0
H5613 H 0.97439 0.43496 0.72555 0.0
H5614 H 0.97067 0.38791 0.75811 0.0
H5615 H 0.95355 0.37976 0.75035 0.0
H5616 H 0.95725 0.38949 0.7673 0.0
H5617 H 0.99318 0.41883 0.71338 0.0
H5618 H 0.98664 0.42998 0.70803 0.0
H5619 H 0.97689 0.41157 0.7039 0.0
C5620 C 0.61118 0.62062 0.72415 0.0
C5621 C 0.6129 0.61667 0.71003 0.0
C5622 C 0.59845 0.6133 0.73134 0.0
C5623 C 0.58701 0.60196 0.72411 0.0
C5624 C 0.58864 0.59781 0.70994 0.0
C5625 C 0.6016 0.60509 0.70315 0.0
C5626 C 0.59716 0.61788 0.74657 0.0
C5627 C 0.57662 0.58588 0.70179 0.0
C5628 C 0.55588 0.57599 0.74583 0.0
C5629 C 0.54679 0.58114 0.74424 0.0
C5630 C 0.56912 0.58281 0.73958 0.0
C5631 C 0.57318 0.59479 0.73115 0.0
C5632 C 0.56397 0.59989 0.7293 0.0
C5633 C 0.55092 0.59304 0.73591 0.0
C5634 C 0.57873 0.57718 0.74195 0.0
C5635 C 0.56781 0.61247 0.72014 0.0
H5636 H 0.61968 0.62968 0.72953 0.0
H5637 H 0.60283 0.60173 0.69239 0.0
H5638 H 0.58985 0.62186 0.74644 0.0
H5639 H 0.59285 0.6089 0.754 0.0
H5640 H 0.6073 0.62619 0.7511 0.0
H5641 H 0.57964 0.58387 0.69088 0.0
H5642 H 0.57238 0.57624 0.70821 0.0
H5643 H 0.56813 0.58819 0.70029 0.0
H5644 H 0.55265 0.5666 0.75194 0.0
H5645 H 0.5438 0.59685 0.7344 0.0
H5646 H 0.58874 0.58542 0.74678 0.0
H5647 H 0.5811 0.57397 0.73134 0.0
H5648 H 0.57422 0.56809 0.74927 0.0
H5649 H 0.57734 0.62165 0.72463 0.0
H5650 H 0.5594 0.61503 0.71968 0.0
H5651 H 0.57011 0.6106 0.70884 0.0
C5652 C 0.66588 0.7284 0.64265 0.0
C5653 C 0.66189 0.71554 0.63588 0.0
C5654 C 0.66123 0.73707 0.63721 0.0
C5655 C 0.65258 0.73284 0.62459 0.0
C5656 C 0.64883 0.72001 0.6175 0.0
C5657 C 0.65344 0.71145 0.62331 0.0
C5658 C 0.66525 0.75056 0.64522 0.0
C5659 C 0.63981 0.71525 0.60388 0.0
C5660 C 0.62871 0.74736 0.61875 0.0
C5661 C 0.63615 0.75793 0.60872 0.0
C5662 C 0.63398 0.7392 0.62407 0.0
C5663 C 0.64698 0.74156 0.61913 0.0
C5664 C 0.65459 0.75222 0.60903 0.0
C5665 C 0.64919 0.76043 0.60412 0.0
C5666 C 0.62569 0.72812 0.63505 0.0
C5667 C 0.66841 0.75493 0.6034 0.0
H5668 H 0.6723 0.73149 0.65246 0.0
H5669 H 0.65047 0.70155 0.61801 0.0
H5670 H 0.67042 0.75942 0.63769 0.0
H5671 H 0.65579 0.75033 0.64928 0.0
H5672 H 0.67235 0.75251 0.65464 0.0
H5673 H 0.63848 0.70538 0.59924 0.0
H5674 H 0.62941 0.71367 0.6064 0.0
H5675 H 0.64442 0.72337 0.59545 0.0
H5676 H 0.61877 0.74559 0.62254 0.0
H5677 H 0.65517 0.76877 0.59663 0.0
H5678 H 0.63198 0.73001 0.64515 0.0
H5679 H 0.62306 0.71775 0.6306 0.0
H5680 H 0.6159 0.72781 0.638 0.0
H5681 H 0.67593 0.75786 0.6126 0.0
H5682 H 0.67285 0.76336 0.59528 0.0
H5683 H 0.66722 0.7453 0.59825 0.0
C5684 C 0.29963 0.94268 0.63024 0.0
C5685 C 0.29259 0.94718 0.63941 0.0
C5686 C 0.29285 0.92919 0.62411 0.0
C5687 C 0.27871 0.92 0.6272 0.0
C5688 C 0.27151 0.92445 0.63637 0.0
C5689 C 0.27853 0.93801 0.64238 0.0
C5690 C 0.30081 0.92477 0.61429 0.0
C5691 C 0.25642 0.91487 0.63989 0.0
C5692 C 0.25555 0.88614 0.59409 0.0
C5693 C 0.25352 0.87187 0.60605 0.0
C5694 C 0.26365 0.90307 0.60286 0.0
C5695 C 0.27155 0.90583 0.62078 0.0
C5696 C 0.27262 0.89225 0.63018 0.0
C5697 C 0.26481 0.87494 0.62233 0.0
C5698 C 0.26383 0.91488 0.59526 0.0
C5699 C 0.27993 0.89534 0.64459 0.0
H5700 H 0.31043 0.94977 0.62771 0.0
H5701 H 0.27306 0.94136 0.64959 0.0
H5702 H 0.30067 0.91552 0.61885 0.0
H5703 H 0.29571 0.92169 0.60335 0.0
H5704 H 0.31178 0.93316 0.61297 0.0
H5705 H 0.25228 0.91992 0.64719 0.0
H5706 H 0.25014 0.91145 0.62963 0.0
H5707 H 0.25515 0.90543 0.64525 0.0
H5708 H 0.24986 0.88407 0.58388 0.0
H5709 H 0.26429 0.86645 0.62842 0.0
H5710 H 0.27475 0.92318 0.59354 0.0
H5711 H 0.25894 0.91935 0.60229 0.0
H5712 H 0.25824 0.91136 0.58461 0.0
H5713 H 0.29098 0.90347 0.64327 0.0
H5714 H 0.27921 0.88582 0.64909 0.0
H5715 H 0.27524 0.89958 0.65224 0.0
C5716 C 0.05856 0.33791 0.62765 0.0
C5717 C 0.05719 0.34039 0.64244 0.0
C5718 C 0.07166 0.34405 0.62112 0.0
C5719 C 0.08368 0.35289 0.6296 0.0
C5720 C 0.0824 0.35526 0.64458 0.0
C5721 C 0.06917 0.349 0.65082 0.0
C5722 C 0.07264 0.34123 0.60513 0.0
C5723 C 0.09497 0.36464 0.65398 0.0
C5724 C 0.11912 0.36054 0.61671 0.0
C5725 C 0.12444 0.37377 0.61068 0.0
C5726 C 0.10578 0.35351 0.62267 0.0
C5727 C 0.0976 0.35992 0.62274 0.0
C5728 C 0.10289 0.37324 0.61664 0.0
C5729 C 0.11627 0.38003 0.61075 0.0
C5730 C 0.10052 0.33934 0.62913 0.0
C5731 C 0.0945 0.38044 0.61656 0.0
H5732 H 0.04936 0.33112 0.62116 0.0
H5733 H 0.06819 0.35112 0.6622 0.0
H5734 H 0.0773 0.35112 0.59908 0.0
H5735 H 0.07955 0.33686 0.6037 0.0
H5736 H 0.06233 0.33386 0.60015 0.0
H5737 H 0.09224 0.36506 0.66555 0.0
H5738 H 0.10253 0.36097 0.65361 0.0
H5739 H 0.10027 0.37535 0.64967 0.0
H5740 H 0.12551 0.35578 0.61692 0.0
H5741 H 0.12043 0.39035 0.60632 0.0
H5742 H 0.09046 0.33165 0.62394 0.0
H5743 H 0.09864 0.33974 0.64097 0.0
H5744 H 0.10796 0.33557 0.62773 0.0
H5745 H 0.08435 0.37372 0.61097 0.0
H5746 H 0.09995 0.39061 0.61101 0.0
H5747 H 0.0923 0.38222 0.62794 0.0
C5748 C 0.28746 0.3571 0.65441 0.0
C5749 C 0.28824 0.34685 0.64611 0.0
C5750 C 0.28052 0.36368 0.64906 0.0
C5751 C 0.27415 0.3599 0.63505 0.0
C5752 C 0.27459 0.34932 0.62673 0.0
C5753 C 0.28163 0.3429 0.63238 0.0
C5754 C 0.28019 0.37483 0.65833 0.0
C5755 C 0.26789 0.34502 0.61176 0.0
C5756 C 0.24745 0.37074 0.62838 0.0
C5757 C 0.25538 0.38343 0.62132 0.0
C5758 C 0.25322 0.36258 0.63226 0.0
C5759 C 0.2673 0.36732 0.62911 0.0
C5760 C 0.27522 0.37988 0.62151 0.0
C5761 C 0.26918 0.38782 0.61775 0.0
C5762 C 0.24443 0.34925 0.64035 0.0
C5763 C 0.29028 0.38528 0.61798 0.0
H5764 H 0.29234 0.36002 0.66514 0.0
H5765 H 0.28228 0.33505 0.62588 0.0
H5766 H 0.2854 0.38488 0.65255 0.0
H5767 H 0.26929 0.3721 0.66016 0.0
H5768 H 0.28541 0.37634 0.66911 0.0
H5769 H 0.26861 0.3362 0.60697 0.0
H5770 H 0.25678 0.34197 0.61232 0.0
H5771 H 0.27299 0.35396 0.60431 0.0
H5772 H 0.23682 0.36739 0.63128 0.0
H5773 H 0.27538 0.39771 0.61246 0.0
H5774 H 0.24834 0.35051 0.65176 0.0
H5775 H 0.24519 0.34059 0.63522 0.0
H5776 H 0.23333 0.34631 0.64061 0.0
H5777 H 0.29653 0.38827 0.62825 0.0
H5778 H 0.2946 0.3945 0.61085 0.0
H5779 H 0.2915 0.37703 0.61248 0.0
C5780 C 0.66905 0.94578 0.63096 0.0
C5781 C 0.66247 0.95304 0.63551 0.0
C5782 C 0.6614 0.93245 0.62447 0.0
C5783 C 0.64688 0.92634 0.62238 0.0
C5784 C 0.64019 0.93363 0.62698 0.0
C5785 C 0.64806 0.94687 0.63353 0.0
C5786 C 0.66886 0.92493 0.6198 0.0
C5787 C 0.62475 0.92753 0.6248 0.0
C5788 C 0.62881 0.89842 0.59288 0.0
C5789 C 0.6224 0.88625 0.60109 0.0
C5790 C 0.6369 0.91152 0.59967 0.0
C5791 C 0.63868 0.91247 0.61503 0.0
C5792 C 0.63231 0.90022 0.62338 0.0
C5793 C 0.62417 0.88725 0.61631 0.0
C5794 C 0.64343 0.92435 0.5904 0.0
C5795 C 0.634 0.90083 0.63979 0.0
H5796 H 0.68016 0.95047 0.63259 0.0
H5797 H 0.64297 0.95254 0.63684 0.0
H5798 H 0.66421 0.91469 0.62516 0.0
H5799 H 0.66761 0.92288 0.60784 0.0
H5800 H 0.68013 0.93096 0.62254 0.0
H5801 H 0.62111 0.93445 0.62922 0.0
H5802 H 0.62207 0.92565 0.61299 0.0
H5803 H 0.61897 0.91733 0.63022 0.0
H5804 H 0.6274 0.89767 0.58112 0.0
H5805 H 0.61917 0.87787 0.62269 0.0
H5806 H 0.65486 0.93022 0.59213 0.0
H5807 H 0.63951 0.93135 0.59371 0.0
H5808 H 0.64119 0.9218 0.57857 0.0
H5809 H 0.64518 0.90624 0.64283 0.0
H5810 H 0.62874 0.89032 0.64463 0.0
H5811 H 0.62963 0.90693 0.64469 0.0
C5812 C 0.05781 0.72305 0.65029 0.0
C5813 C 0.0487 0.7086 0.64992 0.0
C5814 C 0.07056 0.72903 0.64303 0.0
C5815 C 0.07428 0.72035 0.63526 0.0
C5816 C 0.06516 0.70576 0.6349 0.0
C5817 C 0.05247 0.70008 0.64218 0.0
C5818 C 0.08004 0.74464 0.64363 0.0
C5819 C 0.06873 0.69615 0.6267 0.0
C5820 C 0.10042 0.73529 0.60472 0.0
C5821 C 0.11254 0.73718 0.61157 0.0
C5822 C 0.08797 0.73007 0.61239 0.0
C5823 C 0.08758 0.72649 0.62722 0.0
C5824 C 0.09975 0.72831 0.63418 0.0
C5825 C 0.11208 0.73359 0.62624 0.0
C5826 C 0.07519 0.72822 0.60458 0.0
C5827 C 0.09969 0.72449 0.64994 0.0
H5828 H 0.05503 0.72968 0.65636 0.0
H5829 H 0.04538 0.68893 0.64161 0.0
H5830 H 0.09028 0.74731 0.64835 0.0
H5831 H 0.08188 0.7488 0.63242 0.0
H5832 H 0.07568 0.74992 0.65025 0.0
H5833 H 0.06065 0.68502 0.62781 0.0
H5834 H 0.06997 0.69868 0.61493 0.0
H5835 H 0.07878 0.69766 0.63077 0.0
H5836 H 0.10068 0.73783 0.59331 0.0
H5837 H 0.12138 0.73484 0.63149 0.0
H5838 H 0.07097 0.73398 0.61054 0.0
H5839 H 0.06698 0.71706 0.60434 0.0
H5840 H 0.07735 0.73194 0.59317 0.0
H5841 H 0.09605 0.73014 0.65699 0.0
H5842 H 0.11013 0.72694 0.65387 0.0
H5843 H 0.09234 0.7132 0.65126 0.0
C5844 C 0.9788 0.60469 0.72929 0.0
C5845 C 0.97932 0.60726 0.71428 0.0
C5846 C 0.98081 0.59405 0.73456 0.0
C5847 C 0.98351 0.58591 0.72459 0.0
C5848 C 0.98366 0.58821 0.70943 0.0
C5849 C 0.98146 0.59876 0.70446 0.0
C5850 C 0.98043 0.59178 0.7508 0.0
C5851 C 0.98652 0.57975 0.69844 0.0
C5852 C 0.00385 0.5687 0.73588 0.0
C5853 C 0.99336 0.55467 0.73629 0.0
C5854 C 0.0007 0.57908 0.73269 0.0
C5855 C 0.98673 0.57531 0.7299 0.0
C5856 C 0.97604 0.56123 0.73092 0.0
C5857 C 0.9795 0.55105 0.73401 0.0
C5858 C 0.0124 0.59397 0.73162 0.0
C5859 C 0.96102 0.55684 0.72815 0.0
H5860 H 0.97725 0.61126 0.73696 0.0
H5861 H 0.98156 0.60047 0.69283 0.0
H5862 H 0.97322 0.58066 0.75321 0.0
H5863 H 0.99089 0.59441 0.75479 0.0
H5864 H 0.97712 0.59823 0.75699 0.0
H5865 H 0.98598 0.58266 0.687 0.0
H5866 H 0.997 0.58127 0.70048 0.0
H5867 H 0.97892 0.5685 0.69963 0.0
H5868 H 0.01457 0.57149 0.73759 0.0
H5869 H 0.97139 0.5402 0.73429 0.0
H5870 H 0.0102 0.60094 0.73841 0.0
H5871 H 0.0133 0.59739 0.72016 0.0
H5872 H 0.02254 0.59531 0.73518 0.0
H5873 H 0.95816 0.56347 0.73464 0.0
H5874 H 0.95386 0.54577 0.73088 0.0
H5875 H 0.95947 0.55823 0.71646 0.0
C5876 C 0.38688 0.40231 0.70437 0.0
C5877 C 0.38328 0.39113 0.71366 0.0
C5878 C 0.39464 0.41609 0.70953 0.0
C5879 C 0.39894 0.41878 0.72437 0.0
C5880 C 0.39572 0.40756 0.73372 0.0
C5881 C 0.38793 0.39382 0.72824 0.0
C5882 C 0.39795 0.42777 0.69916 0.0
C5883 C 0.40017 0.41006 0.74958 0.0
C5884 C 0.4276 0.45591 0.73227 0.0
C5885 C 0.41997 0.46213 0.73675 0.0
C5886 C 0.42097 0.44161 0.72899 0.0
C5887 C 0.40635 0.43338 0.73004 0.0
C5888 C 0.39866 0.43949 0.73512 0.0
C5889 C 0.40556 0.45381 0.73839 0.0
C5890 C 0.42954 0.43546 0.72367 0.0
C5891 C 0.38304 0.43107 0.73635 0.0
H5892 H 0.38352 0.40026 0.69303 0.0
H5893 H 0.38511 0.3852 0.73546 0.0
H5894 H 0.39306 0.43376 0.703 0.0
H5895 H 0.40933 0.43508 0.69894 0.0
H5896 H 0.39421 0.42391 0.68785 0.0
H5897 H 0.39765 0.40027 0.75516 0.0
H5898 H 0.41152 0.41743 0.75057 0.0
H5899 H 0.39492 0.4149 0.75536 0.0
H5900 H 0.43873 0.46234 0.73092 0.0
H5901 H 0.39964 0.45862 0.74175 0.0
H5902 H 0.42729 0.43262 0.71191 0.0
H5903 H 0.42676 0.4258 0.7296 0.0
H5904 H 0.44086 0.44285 0.72509 0.0
H5905 H 0.37828 0.42776 0.72529 0.0
H5906 H 0.37877 0.43706 0.74174 0.0
H5907 H 0.3799 0.4215 0.74263 0.0
C5908 C 0.62024 0.01856 0.69463 0.0
C5909 C 0.63071 0.01906 0.70359 0.0
C5910 C 0.60762 0.01609 0.70047 0.0
C5911 C 0.60547 0.01427 0.71569 0.0
C5912 C 0.61603 0.01492 0.72484 0.0
C5913 C 0.6285 0.01723 0.71868 0.0
C5914 C 0.59657 0.01541 0.69035 0.0
C5915 C 0.61414 0.01312 0.74113 0.0
C5916 C 0.57768 0.02062 0.73122 0.0
C5917 C 0.5664 0.00702 0.73232 0.0
C5918 C 0.59057 0.02312 0.72618 0.0
C5919 C 0.59216 0.01174 0.72198 0.0
C5920 C 0.58087 0.99796 0.72327 0.0
C5921 C 0.56814 0.99577 0.72852 0.0
C5922 C 0.60242 0.03794 0.72511 0.0
C5923 C 0.58214 0.98557 0.71878 0.0
H5924 H 0.62193 0.0202 0.68301 0.0
H5925 H 0.63643 0.01739 0.72567 0.0
H5926 H 0.58684 0.00522 0.69134 0.0
H5927 H 0.59415 0.0236 0.69347 0.0
H5928 H 0.59977 0.01679 0.67874 0.0
H5929 H 0.62348 0.01422 0.74677 0.0
H5930 H 0.61183 0.02095 0.74582 0.0
H5931 H 0.60515 0.0027 0.74347 0.0
H5932 H 0.57638 0.02935 0.73418 0.0
H5933 H 0.55945 0.98525 0.72943 0.0
H5934 H 0.60541 0.0404 0.71353 0.0
H5935 H 0.61166 0.03926 0.73115 0.0
H5936 H 0.5997 0.04558 0.72954 0.0
H5937 H 0.58446 0.98605 0.70697 0.0
H5938 H 0.57251 0.97553 0.72088 0.0
H5939 H 0.5909 0.98577 0.72477 0.0
loop_
_geom_bond_atom_site_label_1
_geom_bond_atom_site_label_2
_geom_bond_distance
_geom_bond_site_symmetry_2
_ccdc_geom_bond_type
Li0 N17 1.974 1_554 S
Li0 O60 2.014 . S
Li0 O61 1.944 1_654 S
Li0 O62 1.955 1_554 S
Li1 N25 1.990 . S
Li1 O60 1.970 1_455 S
Li1 O61 1.956 1_554 S
Li1 O63 1.961 . S
Li2 N47 1.990 . S
Li2 O60 1.961 . S
Li2 O62 1.905 1_554 S
Li2 O63 1.970 1_655 S
Li3 N53 1.990 . S
Li3 O61 1.961 . S
Li3 O62 1.987 1_455 S
Li3 O63 1.956 1_556 S
C4 C6 1.323 1_655 S
C4 C7 1.356 . S
C4 O60 1.325 . S
N5 C8 1.314 . S
N5 C9 1.279 . S
C6 C4 1.323 1_455 S
C6 C8 1.351 1_455 S
C6 H64 0.956 . S
C7 C4 1.356 . S
C7 C9 1.358 . S
C7 H65 0.930 . S
C8 N5 1.314 . S
C8 C6 1.351 1_655 S
C8 H66 0.926 . S
C9 N5 1.279 . S
C9 C7 1.358 . S
C9 H67 0.930 . S
C10 C13 1.348 . S
C10 C14 1.356 . S
C10 O61 1.325 . S
C11 N12 1.279 . S
C11 C14 1.358 . S
C11 H68 0.930 . S
N12 C11 1.279 . S
N12 C15 1.314 . S
C13 C10 1.348 . S
C13 C15 1.353 . S
C13 H69 0.940 . S
C14 C10 1.356 . S
C14 C11 1.358 . S
C14 H70 0.930 . S
C15 N12 1.314 . S
C15 C13 1.353 . S
C15 H71 0.930 . S
C16 N17 1.314 . S
C16 C21 1.353 . S
C16 H22 0.930 . S
N17 Li0 1.974 1_556 S
N17 C16 1.314 . S
N17 C19 1.260 1_556 S
C18 C19 1.345 1_556 S
C18 C20 1.356 . S
C18 H72 0.930 1_556 S
C19 N17 1.260 1_554 S
C19 C18 1.345 1_554 S
C19 H23 0.968 . S
C20 C18 1.356 . S
C20 C21 1.348 . S
C21 C16 1.353 . S
C21 C20 1.348 . S
C21 H73 0.929 . S
H22 C16 0.930 . S
H23 C19 0.968 . S
C24 N25 1.314 . S
C24 C26 1.353 . S
C24 H30 0.930 . S
N25 Li1 1.990 . S
N25 C24 1.314 . S
N25 C28 1.279 . S
C26 C24 1.353 . S
C26 C29 1.348 . S
C26 H74 0.929 . S
C27 C28 1.358 . S
C27 C29 1.356 . S
C27 H75 0.930 . S
C28 N25 1.279 . S
C28 C27 1.358 . S
C28 H31 0.930 . S
C29 C26 1.348 . S
C29 C27 1.356 . S
H30 C24 0.930 . S
H31 C28 0.930 . S
C32 C34 1.348 . S
C32 C35 1.380 . S
C32 O62 1.342 . S
N33 C36 1.314 . S
N33 C37 1.279 . S
C34 C32 1.348 . S
C34 C36 1.353 . S
C34 H76 0.929 . S
C35 C32 1.380 . S
C35 C37 1.385 . S
C35 H77 0.885 1_556 S
C36 N33 1.314 . S
C36 C34 1.353 . S
C36 H78 0.930 . S
C37 N33 1.279 . S
C37 C35 1.385 . S
C37 H79 0.930 . S
C38 C39 1.348 . S
C38 C40 1.356 . S
C38 O63 1.325 . S
C39 C38 1.348 . S
C39 C41 1.353 . S
C39 H80 0.929 . S
C40 C38 1.356 . S
C40 C42 1.358 . S
C40 H81 0.930 . S
C41 C39 1.353 . S
C41 N43 1.314 . S
C41 H82 0.930 . S
C42 C40 1.358 . S
C42 N43 1.279 . S
C42 H83 0.930 . S
N43 C41 1.314 . S
N43 C42 1.279 . S
C44 C46 1.353 . S
C44 N47 1.314 . S
C44 H50 0.930 . S
C45 N47 1.279 . S
C45 C48 1.358 . S
C45 H51 0.930 . S
C46 C44 1.353 . S
C46 C49 1.348 . S
C46 H84 0.929 . S
N47 Li2 1.990 . S
N47 C44 1.314 . S
N47 C45 1.279 . S
C48 C45 1.358 . S
C48 C49 1.356 . S
C48 H85 0.930 . S
C49 C46 1.348 . S
C49 C48 1.356 . S
H50 C44 0.930 . S
H51 C45 0.930 . S
C52 N53 1.314 . S
C52 C54 1.353 . S
C52 H58 0.930 . S
N53 Li3 1.990 . S
N53 C52 1.314 . S
N53 C56 1.279 . S
C54 C52 1.353 . S
C54 C57 1.348 . S
C54 H86 0.929 . S
C55 C56 1.358 . S
C55 C57 1.356 . S
C55 H87 0.930 . S
C56 N53 1.279 . S
C56 C55 1.358 . S
C56 H59 0.930 . S
C57 C54 1.348 . S
C57 C55 1.356 . S
H58 C52 0.930 . S
H59 C56 0.930 . S
O60 Li0 2.014 . S
O60 Li1 1.970 1_655 S
O60 Li2 1.961 . S
O60 C4 1.325 . S
O61 Li0 1.944 1_456 S
O61 Li1 1.956 1_556 S
O61 Li3 1.961 . S
O61 C10 1.325 . S
O62 Li0 1.955 1_556 S
O62 Li2 1.905 1_556 S
O62 Li3 1.987 1_655 S
O62 C32 1.342 . S
O63 Li1 1.961 . S
O63 Li2 1.970 1_455 S
O63 Li3 1.956 1_554 S
O63 C38 1.325 . S
H64 C6 0.956 . S
H65 C7 0.930 . S
H66 C8 0.926 . S
H67 C9 0.930 . S
H68 C11 0.930 . S
H69 C13 0.940 . S
H70 C14 0.930 . S
H71 C15 0.930 . S
H72 C18 0.930 1_554 S
H73 C21 0.929 . S
H74 C26 0.929 . S
H75 C27 0.930 . S
H76 C34 0.929 . S
H77 C35 0.885 1_554 S
H78 C36 0.930 . S
H79 C37 0.930 . S
H80 C39 0.929 . S
H81 C40 0.930 . S
H82 C41 0.930 . S
H83 C42 0.930 . S
H84 C46 0.929 . S
H85 C48 0.930 . S
H86 C54 0.929 . S
H87 C55 0.930 . S
Li88 N105 1.975 1_554 S
Li88 O148 1.956 . S
Li88 O149 1.970 . S
Li88 O150 1.961 . S
Li89 N113 1.990 . S
Li89 O148 1.970 . S
Li89 O149 1.956 . S
Li89 O151 1.961 . S
Li90 N135 1.990 . S
Li90 O148 1.961 . S
Li90 O150 1.956 . S
Li90 O151 1.970 . S
Li91 N141 1.990 1_554 S
Li91 O149 1.961 . S
Li91 O150 1.970 . S
Li91 O151 1.956 . S
C92 C94 1.348 . S
C92 C95 1.356 . S
C92 O148 1.325 . S
N93 C96 1.314 . S
N93 C97 1.279 . S
C94 C92 1.348 . S
C94 C96 1.353 . S
C94 H152 0.929 . S
C95 C92 1.356 . S
C95 C97 1.358 . S
C95 H153 0.930 . S
C96 N93 1.314 . S
C96 C94 1.353 . S
C96 H154 0.930 . S
C97 N93 1.279 . S
C97 C95 1.358 . S
C97 H155 0.930 . S
C98 C101 1.348 . S
C98 C102 1.356 . S
C98 O149 1.325 1_556 S
C99 N100 1.279 . S
C99 C102 1.358 . S
C99 H156 0.930 . S
N100 C99 1.279 . S
N100 C103 1.314 . S
C101 C98 1.348 . S
C101 C103 1.353 . S
C101 H157 0.929 . S
C102 C98 1.356 . S
C102 C99 1.358 . S
C102 H158 0.930 . S
C103 N100 1.314 . S
C103 C101 1.353 . S
C103 H159 0.930 . S
C104 N105 1.350 . S
C104 C109 1.353 . S
C104 H110 0.930 . S
N105 Li88 1.975 1_556 S
N105 C104 1.350 . S
N105 C107 1.264 1_556 S
C106 C107 1.358 1_556 S
C106 C108 1.356 . S
C106 H160 0.930 1_556 S
C107 N105 1.264 1_554 S
C107 C106 1.358 1_554 S
C107 H111 0.930 . S
C108 C106 1.356 . S
C108 C109 1.348 . S
C109 C104 1.353 . S
C109 C108 1.348 . S
C109 H161 0.929 . S
H110 C104 0.930 . S
H111 C107 0.930 . S
C112 N113 1.314 . S
C112 C114 1.353 . S
C112 H118 0.930 . S
N113 Li89 1.990 . S
N113 C112 1.314 . S
N113 C116 1.279 . S
C114 C112 1.353 . S
C114 C117 1.348 . S
C114 H162 0.929 . S
C115 C116 1.358 . S
C115 C117 1.356 . S
C115 H163 0.930 . S
C116 N113 1.279 . S
C116 C115 1.358 . S
C116 H119 0.930 . S
C117 C114 1.348 . S
C117 C115 1.356 . S
H118 C112 0.930 . S
H119 C116 0.930 . S
C120 C122 1.352 1_554 S
C120 C123 1.355 . S
C120 O150 1.322 . S
N121 C124 1.314 . S
N121 C125 1.279 . S
C122 C120 1.352 1_556 S
C122 C124 1.353 . S
C122 H164 0.929 . S
C123 C120 1.355 . S
C123 C125 1.358 1_554 S
C123 H165 0.930 . S
C124 N121 1.314 . S
C124 C122 1.353 . S
C124 H166 0.930 . S
C125 N121 1.279 . S
C125 C123 1.358 1_556 S
C125 H167 0.930 . S
C126 C127 1.348 . S
C126 C128 1.356 . S
C126 O151 1.325 . S
C127 C126 1.348 . S
C127 C129 1.353 . S
C127 H168 0.929 . S
C128 C126 1.356 . S
C128 C130 1.358 . S
C128 H169 0.930 . S
C129 C127 1.353 . S
C129 N131 1.314 . S
C129 H170 0.930 . S
C130 C128 1.358 . S
C130 N131 1.279 . S
C130 H171 0.930 . S
N131 C129 1.314 . S
N131 C130 1.279 . S
C132 C134 1.353 . S
C132 N135 1.314 . S
C132 H138 0.930 . S
C133 N135 1.279 . S
C133 C136 1.358 . S
C133 H139 0.930 . S
C134 C132 1.353 . S
C134 C137 1.348 . S
C134 H172 0.929 . S
N135 Li90 1.990 . S
N135 C132 1.314 . S
N135 C133 1.279 . S
C136 C133 1.358 . S
C136 C137 1.356 . S
C136 H173 0.930 . S
C137 C134 1.348 . S
C137 C136 1.356 . S
H138 C132 0.930 . S
H139 C133 0.930 . S
C140 N141 1.314 . S
C140 C142 1.353 . S
C140 H146 0.930 . S
N141 Li91 1.990 1_556 S
N141 C140 1.314 . S
N141 C144 1.279 . S
C142 C140 1.353 . S
C142 C145 1.348 . S
C142 H174 0.929 . S
C143 C144 1.358 . S
C143 C145 1.356 . S
C143 H175 0.930 . S
C144 N141 1.279 . S
C144 C143 1.358 . S
C144 H147 0.935 1_556 S
C145 C142 1.348 . S
C145 C143 1.356 . S
H146 C140 0.930 . S
H147 C144 0.935 1_554 S
O148 Li88 1.956 . S
O148 Li89 1.970 . S
O148 Li90 1.961 . S
O148 C92 1.325 . S
O149 Li88 1.970 . S
O149 Li89 1.956 . S
O149 Li91 1.961 . S
O149 C98 1.325 1_554 S
O150 Li88 1.961 . S
O150 Li90 1.956 . S
O150 Li91 1.970 . S
O150 C120 1.322 . S
O151 Li89 1.961 . S
O151 Li90 1.970 . S
O151 Li91 1.956 . S
O151 C126 1.325 . S
H152 C94 0.929 . S
H153 C95 0.930 . S
H154 C96 0.930 . S
H155 C97 0.930 . S
H156 C99 0.930 . S
H157 C101 0.929 . S
H158 C102 0.930 . S
H159 C103 0.930 . S
H160 C106 0.930 1_554 S
H161 C109 0.929 . S
H162 C114 0.929 . S
H163 C115 0.930 . S
H164 C122 0.929 . S
H165 C123 0.930 . S
H166 C124 0.930 . S
H167 C125 0.930 . S
H168 C127 0.929 . S
H169 C128 0.930 . S
H170 C129 0.930 . S
H171 C130 0.930 . S
H172 C134 0.929 . S
H173 C136 0.930 . S
H174 C142 0.929 . S
H175 C143 0.930 . S
Li176 N193 1.990 . S
Li176 O236 1.956 1_556 S
Li176 O237 1.957 1_566 S
Li176 O238 1.961 . S
Li177 N201 1.990 . S
Li177 O236 1.970 1_545 S
Li177 O237 2.005 . S
Li177 O239 1.961 . S
Li178 N223 1.990 . S
Li178 O236 1.961 . S
Li178 O238 1.956 1_554 S
Li178 O239 1.970 1_565 S
Li179 N229 1.990 1_554 S
Li179 O237 1.966 . S
Li179 O238 1.970 1_544 S
Li179 O239 1.956 . S
C180 C182 1.348 . S
C180 C183 1.356 . S
C180 O236 1.325 . S
N181 C184 1.314 . S
N181 C185 1.279 . S
C182 C180 1.348 . S
C182 C184 1.353 . S
C182 H240 0.929 . S
C183 C180 1.356 . S
C183 C185 1.358 . S
C183 H241 0.930 . S
C184 N181 1.314 . S
C184 C182 1.353 . S
C184 H242 0.930 . S
C185 N181 1.279 . S
C185 C183 1.358 . S
C185 H243 0.930 . S
C186 C189 1.348 . S
C186 C190 1.339 1_556 S
C186 O237 1.310 1_556 S
C187 N188 1.279 . S
C187 C190 1.338 1_556 S
C187 H244 0.949 . S
N188 C187 1.279 . S
N188 C191 1.314 . S
C189 C186 1.348 . S
C189 C191 1.353 . S
C189 H245 0.929 . S
C190 C186 1.339 1_554 S
C190 C187 1.338 1_554 S
C190 H246 0.973 . S
C191 N188 1.314 . S
C191 C189 1.353 . S
C191 H247 0.930 . S
C192 N193 1.314 . S
C192 C197 1.353 . S
C192 H198 0.930 . S
N193 Li176 1.990 . S
N193 C192 1.314 . S
N193 C195 1.279 . S
C194 C195 1.358 . S
C194 C196 1.356 . S
C194 H248 0.930 . S
C195 N193 1.279 . S
C195 C194 1.358 . S
C195 H199 0.930 . S
C196 C194 1.356 . S
C196 C197 1.348 . S
C197 C192 1.353 . S
C197 C196 1.348 . S
C197 H249 0.929 . S
H198 C192 0.930 . S
H199 C195 0.930 . S
C200 N201 1.314 . S
C200 C202 1.353 . S
C200 H206 0.930 . S
N201 Li177 1.990 . S
N201 C200 1.314 . S
N201 C204 1.279 . S
C202 C200 1.353 . S
C202 C205 1.348 . S
C202 H250 0.929 . S
C203 C204 1.358 . S
C203 C205 1.356 . S
C203 H251 0.930 . S
C204 N201 1.279 . S
C204 C203 1.358 . S
C204 H207 0.930 . S
C205 C202 1.348 . S
C205 C203 1.356 . S
H206 C200 0.930 . S
H207 C204 0.930 . S
C208 C210 1.348 . S
C208 C211 1.356 . S
C208 O238 1.325 . S
N209 C212 1.314 . S
N209 C213 1.279 . S
C210 C208 1.348 . S
C210 C212 1.353 . S
C210 H252 0.929 1_565 S
C211 C208 1.356 . S
C211 C213 1.358 . S
C211 H253 0.930 . S
C212 N209 1.314 . S
C212 C210 1.353 . S
C212 H254 0.930 . S
C213 N209 1.279 . S
C213 C211 1.358 . S
C213 H255 0.930 . S
C214 C215 1.348 . S
C214 C216 1.356 . S
C214 O239 1.325 . S
C215 C214 1.348 . S
C215 C217 1.353 . S
C215 H256 0.929 1_545 S
C216 C214 1.356 . S
C216 C218 1.358 . S
C216 H257 0.930 . S
C217 C215 1.353 . S
C217 N219 1.314 . S
C217 H258 0.930 . S
C218 C216 1.358 . S
C218 N219 1.279 . S
C218 H259 0.930 . S
N219 C217 1.314 . S
N219 C218 1.279 . S
C220 C222 1.353 . S
C220 N223 1.314 . S
C220 H226 0.930 . S
C221 N223 1.279 . S
C221 C224 1.358 . S
C221 H227 0.930 . S
C222 C220 1.353 . S
C222 C225 1.348 . S
C222 H260 0.929 . S
N223 Li178 1.990 . S
N223 C220 1.314 . S
N223 C221 1.279 . S
C224 C221 1.358 . S
C224 C225 1.356 . S
C224 H261 0.930 . S
C225 C222 1.348 . S
C225 C224 1.356 . S
H226 C220 0.930 . S
H227 C221 0.930 . S
C228 N229 1.314 . S
C228 C230 1.353 . S
C228 H234 0.930 . S
N229 Li179 1.990 1_556 S
N229 C228 1.314 . S
N229 C232 1.279 1_556 S
C230 C228 1.353 . S
C230 C233 1.348 . S
C230 H262 0.929 . S
C231 C232 1.358 1_556 S
C231 C233 1.356 . S
C231 H263 0.930 1_556 S
C232 N229 1.279 1_554 S
C232 C231 1.358 1_554 S
C232 H235 0.930 . S
C233 C230 1.348 . S
C233 C231 1.356 . S
H234 C228 0.930 . S
H235 C232 0.930 . S
O236 Li176 1.956 1_554 S
O236 Li177 1.970 1_565 S
O236 Li178 1.961 . S
O236 C180 1.325 . S
O237 Li176 1.957 1_544 S
O237 Li177 2.005 . S
O237 Li179 1.966 . S
O237 C186 1.310 1_554 S
O238 Li176 1.961 . S
O238 Li178 1.956 1_556 S
O238 Li179 1.970 1_566 S
O238 C208 1.325 . S
O239 Li177 1.961 . S
O239 Li178 1.970 1_545 S
O239 Li179 1.956 . S
O239 C214 1.325 . S
H240 C182 0.929 . S
H241 C183 0.930 . S
H242 C184 0.930 . S
H243 C185 0.930 . S
H244 C187 0.949 . S
H245 C189 0.929 . S
H246 C190 0.973 . S
H247 C191 0.930 . S
H248 C194 0.930 . S
H249 C197 0.929 . S
H250 C202 0.929 . S
H251 C203 0.930 . S
H252 C210 0.929 1_545 S
H253 C211 0.930 . S
H254 C212 0.930 . S
H255 C213 0.930 . S
H256 C215 0.929 1_565 S
H257 C216 0.930 . S
H258 C217 0.930 . S
H259 C218 0.930 . S
H260 C222 0.929 . S
H261 C224 0.930 . S
H262 C230 0.929 . S
H263 C231 0.930 1_554 S
Li264 N281 1.990 . S
Li264 O324 1.956 . S
Li264 O325 1.970 1_455 S
Li264 O326 1.961 1_554 S
Li265 N289 1.990 . S
Li265 O324 1.970 1_655 S
Li265 O325 1.956 . S
Li265 O327 1.961 . S
Li266 N311 1.990 . S
Li266 O324 1.961 1_556 S
Li266 O326 1.956 . S
Li266 O327 1.970 1_456 S
Li267 N317 1.990 1_554 S
Li267 O325 1.961 . S
Li267 O326 1.970 1_654 S
Li267 O327 1.956 . S
C268 C270 1.348 . S
C268 C271 1.356 . S
C268 O324 1.325 . S
N269 C272 1.314 . S
N269 C273 1.279 . S
C270 C268 1.348 . S
C270 C272 1.353 . S
C270 H328 0.929 . S
C271 C268 1.356 . S
C271 C273 1.358 . S
C271 H329 0.930 . S
C272 N269 1.314 . S
C272 C270 1.353 . S
C272 H330 0.930 . S
C273 N269 1.279 . S
C273 C271 1.358 . S
C273 H331 0.930 . S
C274 C277 1.348 . S
C274 C278 1.356 . S
C274 O325 1.325 . S
C275 N276 1.279 . S
C275 C278 1.358 . S
C275 H332 0.930 . S
N276 C275 1.279 . S
N276 C279 1.314 . S
C277 C274 1.348 . S
C277 C279 1.353 . S
C277 H333 0.929 1_655 S
C278 C274 1.356 . S
C278 C275 1.358 . S
C278 H334 0.930 . S
C279 N276 1.314 . S
C279 C277 1.353 . S
C279 H335 0.930 . S
C280 N281 1.314 . S
C280 C285 1.353 . S
C280 H286 0.930 . S
N281 Li264 1.990 . S
N281 C280 1.314 . S
N281 C283 1.279 . S
C282 C283 1.358 . S
C282 C284 1.356 . S
C282 H336 0.930 . S
C283 N281 1.279 . S
C283 C282 1.358 . S
C283 H287 0.930 . S
C284 C282 1.356 . S
C284 C285 1.348 . S
C285 C280 1.353 . S
C285 C284 1.348 . S
C285 H337 0.929 . S
H286 C280 0.930 . S
H287 C283 0.930 . S
C288 N289 1.314 . S
C288 C290 1.353 . S
C288 H294 0.930 . S
N289 Li265 1.990 . S
N289 C288 1.314 . S
N289 C292 1.279 . S
C290 C288 1.353 . S
C290 C293 1.348 . S
C290 H338 0.929 . S
C291 C292 1.358 . S
C291 C293 1.356 . S
C291 H339 0.930 . S
C292 N289 1.279 . S
C292 C291 1.358 . S
C292 H295 0.930 . S
C293 C290 1.348 . S
C293 C291 1.356 . S
H294 C288 0.930 . S
H295 C292 0.930 . S
C296 C298 1.348 . S
C296 C299 1.356 . S
C296 O326 1.325 . S
N297 C300 1.314 . S
N297 C301 1.279 . S
C298 C296 1.348 . S
C298 C300 1.353 . S
C298 H340 0.929 1_455 S
C299 C296 1.356 . S
C299 C301 1.358 . S
C299 H341 0.930 . S
C300 N297 1.314 . S
C300 C298 1.353 . S
C300 H342 0.930 . S
C301 N297 1.279 . S
C301 C299 1.358 . S
C301 H343 0.930 . S
C302 C303 1.369 . S
C302 C304 1.344 1_556 S
C302 O327 1.318 1_556 S
C303 C302 1.369 . S
C303 C305 1.353 . S
C303 H344 0.929 . S
C304 C302 1.344 1_554 S
C304 C306 1.358 . S
C304 H345 0.930 . S
C305 C303 1.353 . S
C305 N307 1.314 . S
C305 H346 0.930 . S
C306 C304 1.358 . S
C306 N307 1.279 1_554 S
C306 H347 0.930 . S
N307 C305 1.314 . S
N307 C306 1.279 1_556 S
C308 C310 1.353 . S
C308 N311 1.314 . S
C308 H314 0.930 . S
C309 N311 1.279 . S
C309 C312 1.358 . S
C309 H315 0.930 . S
C310 C308 1.353 . S
C310 C313 1.348 . S
C310 H348 0.929 . S
N311 Li266 1.990 . S
N311 C308 1.314 . S
N311 C309 1.279 . S
C312 C309 1.358 . S
C312 C313 1.356 . S
C312 H349 0.930 . S
C313 C310 1.348 . S
C313 C312 1.356 . S
H314 C308 0.930 . S
H315 C309 0.930 . S
C316 N317 1.314 1_554 S
C316 C318 1.353 1_554 S
C316 H322 0.930 . S
N317 Li267 1.990 1_556 S
N317 C316 1.314 1_556 S
N317 C320 1.279 . S
C318 C316 1.353 1_556 S
C318 C321 1.348 . S
C318 H350 0.921 1_556 S
C319 C320 1.358 . S
C319 C321 1.356 . S
C319 H351 0.930 . S
C320 N317 1.279 . S
C320 C319 1.358 . S
C320 H323 0.930 . S
C321 C318 1.348 . S
C321 C319 1.356 . S
H322 C316 0.930 . S
H323 C320 0.930 . S
O324 Li264 1.956 . S
O324 Li265 1.970 1_455 S
O324 Li266 1.961 1_554 S
O324 C268 1.325 . S
O325 Li264 1.970 1_655 S
O325 Li265 1.956 . S
O325 Li267 1.961 . S
O325 C274 1.325 . S
O326 Li264 1.961 1_556 S
O326 Li266 1.956 . S
O326 Li267 1.970 1_456 S
O326 C296 1.325 . S
O327 Li265 1.961 . S
O327 Li266 1.970 1_654 S
O327 Li267 1.956 . S
O327 C302 1.318 1_554 S
H328 C270 0.929 . S
H329 C271 0.930 . S
H330 C272 0.930 . S
H331 C273 0.930 . S
H332 C275 0.930 . S
H333 C277 0.929 1_455 S
H334 C278 0.930 . S
H335 C279 0.930 . S
H336 C282 0.930 . S
H337 C285 0.929 . S
H338 C290 0.929 . S
H339 C291 0.930 . S
H340 C298 0.929 1_655 S
H341 C299 0.930 . S
H342 C300 0.930 . S
H343 C301 0.930 . S
H344 C303 0.929 . S
H345 C304 0.930 . S
H346 C305 0.930 . S
H347 C306 0.930 . S
H348 C310 0.929 . S
H349 C312 0.930 . S
H350 C318 0.921 1_554 S
H351 C319 0.930 . S
Li352 N369 1.990 . S
Li352 O412 1.956 . S
Li352 O413 1.970 . S
Li352 O414 1.961 1_554 S
Li353 N377 1.990 . S
Li353 O412 1.970 . S
Li353 O413 1.956 . S
Li353 O415 1.961 1_554 S
Li354 N399 1.990 . S
Li354 O412 1.961 1_556 S
Li354 O414 1.956 . S
Li354 O415 1.970 . S
Li355 N405 1.990 . S
Li355 O413 1.961 1_556 S
Li355 O414 1.970 . S
Li355 O415 1.956 . S
C356 C358 1.348 . S
C356 C359 1.356 . S
C356 O412 1.325 . S
N357 C360 1.314 . S
N357 C361 1.279 . S
C358 C356 1.348 . S
C358 C360 1.353 . S
C358 H416 0.929 . S
C359 C356 1.356 . S
C359 C361 1.358 . S
C359 H417 0.930 . S
C360 N357 1.314 . S
C360 C358 1.353 . S
C360 H418 0.930 . S
C361 N357 1.279 . S
C361 C359 1.358 . S
C361 H419 0.930 . S
C362 C365 1.348 . S
C362 C366 1.356 . S
C362 O413 1.325 . S
C363 N364 1.279 . S
C363 C366 1.358 . S
C363 H420 0.930 . S
N364 C363 1.279 . S
N364 C367 1.314 . S
C365 C362 1.348 . S
C365 C367 1.353 . S
C365 H421 0.929 . S
C366 C362 1.356 . S
C366 C363 1.358 . S
C366 H422 0.930 . S
C367 N364 1.314 . S
C367 C365 1.353 . S
C367 H423 0.930 . S
C368 N369 1.314 . S
C368 C373 1.353 . S
C368 H374 0.930 . S
N369 Li352 1.990 . S
N369 C368 1.314 . S
N369 C371 1.279 . S
C370 C371 1.358 . S
C370 C372 1.356 . S
C370 H424 0.930 . S
C371 N369 1.279 . S
C371 C370 1.358 . S
C371 H375 0.930 . S
C372 C370 1.356 . S
C372 C373 1.348 . S
C373 C368 1.353 . S
C373 C372 1.348 . S
C373 H425 0.929 . S
H374 C368 0.930 . S
H375 C371 0.930 . S
C376 N377 1.314 . S
C376 C378 1.353 . S
C376 H382 0.930 . S
N377 Li353 1.990 . S
N377 C376 1.314 . S
N377 C380 1.279 . S
C378 C376 1.353 . S
C378 C381 1.348 . S
C378 H426 0.929 . S
C379 C380 1.358 . S
C379 C381 1.356 . S
C379 H427 0.930 . S
C380 N377 1.279 . S
C380 C379 1.358 . S
C380 H383 0.930 . S
C381 C378 1.348 . S
C381 C379 1.356 . S
H382 C376 0.930 . S
H383 C380 0.930 . S
C384 C386 1.348 . S
C384 C387 1.356 . S
C384 O414 1.325 . S
N385 C388 1.314 . S
N385 C389 1.279 . S
C386 C384 1.348 . S
C386 C388 1.353 . S
C386 H428 0.929 . S
C387 C384 1.356 . S
C387 C389 1.358 . S
C387 H429 0.930 . S
C388 N385 1.314 . S
C388 C386 1.353 . S
C388 H430 0.930 . S
C389 N385 1.279 . S
C389 C387 1.358 . S
C389 H431 0.930 . S
C390 C391 1.348 . S
C390 C392 1.356 . S
C390 O415 1.325 . S
C391 C390 1.348 . S
C391 C393 1.353 . S
C391 H432 0.929 . S
C392 C390 1.356 . S
C392 C394 1.358 . S
C392 H433 0.930 1_556 S
C393 C391 1.353 . S
C393 N395 1.314 . S
C393 H434 0.930 . S
C394 C392 1.358 . S
C394 N395 1.279 . S
C394 H435 0.930 . S
N395 C393 1.314 . S
N395 C394 1.279 . S
C396 C398 1.353 . S
C396 N399 1.314 . S
C396 H402 0.930 . S
C397 N399 1.279 . S
C397 C400 1.358 . S
C397 H403 0.930 . S
C398 C396 1.353 . S
C398 C401 1.348 . S
C398 H436 0.929 . S
N399 Li354 1.990 . S
N399 C396 1.314 . S
N399 C397 1.279 . S
C400 C397 1.358 . S
C400 C401 1.356 . S
C400 H437 0.930 . S
C401 C398 1.348 . S
C401 C400 1.356 . S
H402 C396 0.930 . S
H403 C397 0.930 . S
C404 N405 1.314 . S
C404 C406 1.353 . S
C404 H410 0.930 . S
N405 Li355 1.990 . S
N405 C404 1.314 . S
N405 C408 1.279 . S
C406 C404 1.353 . S
C406 C409 1.348 . S
C406 H438 0.929 . S
C407 C408 1.358 . S
C407 C409 1.356 . S
C407 H439 0.930 . S
C408 N405 1.279 . S
C408 C407 1.358 . S
C408 H411 0.930 . S
C409 C406 1.348 . S
C409 C407 1.356 . S
H410 C404 0.930 . S
H411 C408 0.930 . S
O412 Li352 1.956 . S
O412 Li353 1.970 . S
O412 Li354 1.961 1_554 S
O412 C356 1.325 . S
O413 Li352 1.970 . S
O413 Li353 1.956 . S
O413 Li355 1.961 1_554 S
O413 C362 1.325 . S
O414 Li352 1.961 1_556 S
O414 Li354 1.956 . S
O414 Li355 1.970 . S
O414 C384 1.325 . S
O415 Li353 1.961 1_556 S
O415 Li354 1.970 . S
O415 Li355 1.956 . S
O415 C390 1.325 . S
H416 C358 0.929 . S
H417 C359 0.930 . S
H418 C360 0.930 . S
H419 C361 0.930 . S
H420 C363 0.930 . S
H421 C365 0.929 . S
H422 C366 0.930 . S
H423 C367 0.930 . S
H424 C370 0.930 . S
H425 C373 0.929 . S
H426 C378 0.929 . S
H427 C379 0.930 . S
H428 C386 0.929 . S
H429 C387 0.930 . S
H430 C388 0.930 . S
H431 C389 0.930 . S
H432 C391 0.929 . S
H433 C392 0.930 1_554 S
H434 C393 0.930 . S
H435 C394 0.930 . S
H436 C398 0.929 . S
H437 C400 0.930 . S
H438 C406 0.929 . S
H439 C407 0.930 . S
Li440 N457 1.990 . S
Li440 O500 1.956 . S
Li440 O501 1.970 1_565 S
Li440 O502 1.961 1_554 S
Li441 N465 1.990 . S
Li441 O500 1.970 1_545 S
Li441 O501 1.956 . S
Li441 O503 1.961 . S
Li442 N487 1.990 . S
Li442 O500 1.961 1_556 S
Li442 O502 1.956 . S
Li442 O503 1.970 1_566 S
Li443 N493 1.973 1_554 S
Li443 O501 1.961 . S
Li443 O502 1.970 1_544 S
Li443 O503 1.956 . S
C444 C446 1.348 . S
C444 C447 1.356 . S
C444 O500 1.325 . S
N445 C448 1.314 . S
N445 C449 1.279 . S
C446 C444 1.348 . S
C446 C448 1.353 . S
C446 H504 0.929 . S
C447 C444 1.356 . S
C447 C449 1.358 . S
C447 H505 0.930 . S
C448 N445 1.314 . S
C448 C446 1.353 . S
C448 H506 0.930 . S
C449 N445 1.279 . S
C449 C447 1.358 . S
C449 H507 0.930 . S
C450 C453 1.348 . S
C450 C454 1.356 . S
C450 O501 1.325 . S
C451 N452 1.279 . S
C451 C454 1.358 . S
C451 H508 0.930 . S
N452 C451 1.279 . S
N452 C455 1.314 . S
C453 C450 1.348 . S
C453 C455 1.353 . S
C453 H509 0.929 1_545 S
C454 C450 1.356 . S
C454 C451 1.358 . S
C454 H510 0.930 . S
C455 N452 1.314 . S
C455 C453 1.353 . S
C455 H511 0.930 . S
C456 N457 1.314 . S
C456 C461 1.353 . S
C456 H462 0.930 . S
N457 Li440 1.990 . S
N457 C456 1.314 . S
N457 C459 1.279 . S
C458 C459 1.358 . S
C458 C460 1.356 . S
C458 H512 0.930 . S
C459 N457 1.279 . S
C459 C458 1.358 . S
C459 H463 0.930 . S
C460 C458 1.356 . S
C460 C461 1.348 . S
C461 C456 1.353 . S
C461 C460 1.348 . S
C461 H513 0.929 . S
H462 C456 0.930 . S
H463 C459 0.930 . S
C464 N465 1.314 . S
C464 C466 1.353 . S
C464 H470 0.930 . S
N465 Li441 1.990 . S
N465 C464 1.314 . S
N465 C468 1.279 . S
C466 C464 1.353 . S
C466 C469 1.348 . S
C466 H514 0.929 . S
C467 C468 1.358 . S
C467 C469 1.356 . S
C467 H515 0.930 . S
C468 N465 1.279 . S
C468 C467 1.358 . S
C468 H471 0.930 . S
C469 C466 1.348 . S
C469 C467 1.356 . S
H470 C464 0.930 . S
H471 C468 0.930 . S
C472 C474 1.348 . S
C472 C475 1.356 . S
C472 O502 1.325 . S
N473 C476 1.314 . S
N473 C477 1.279 . S
C474 C472 1.348 . S
C474 C476 1.353 . S
C474 H516 0.929 1_565 S
C475 C472 1.356 . S
C475 C477 1.358 . S
C475 H517 0.930 . S
C476 N473 1.314 . S
C476 C474 1.353 . S
C476 H518 0.930 . S
C477 N473 1.279 . S
C477 C475 1.358 . S
C477 H519 0.930 . S
C478 C479 1.328 1_554 S
C478 C480 1.367 . S
C478 O503 1.332 . S
C479 C478 1.328 1_556 S
C479 C481 1.353 . S
C479 H520 0.929 . S
C480 C478 1.367 . S
C480 C482 1.358 . S
C480 H521 0.930 . S
C481 C479 1.353 . S
C481 N483 1.314 . S
C481 H522 0.930 . S
C482 C480 1.358 . S
C482 N483 1.279 1_554 S
C482 H523 0.930 . S
N483 C481 1.314 . S
N483 C482 1.279 1_556 S
C484 C486 1.353 . S
C484 N487 1.314 . S
C484 H490 0.930 . S
C485 N487 1.279 . S
C485 C488 1.358 . S
C485 H491 0.930 . S
C486 C484 1.353 . S
C486 C489 1.348 . S
C486 H524 0.929 . S
N487 Li442 1.990 . S
N487 C484 1.314 . S
N487 C485 1.279 . S
C488 C485 1.358 . S
C488 C489 1.356 . S
C488 H525 0.930 . S
C489 C486 1.348 . S
C489 C488 1.356 . S
H490 C484 0.930 . S
H491 C485 0.930 . S
C492 N493 1.304 1_554 S
C492 C494 1.353 1_554 S
C492 H498 0.930 . S
N493 Li443 1.973 1_556 S
N493 C492 1.304 1_556 S
N493 C496 1.314 . S
C494 C492 1.353 1_556 S
C494 C497 1.348 . S
C494 H526 0.929 1_556 S
C495 C496 1.358 . S
C495 C497 1.356 . S
C495 H527 0.930 . S
C496 N493 1.314 . S
C496 C495 1.358 . S
C496 H499 0.930 . S
C497 C494 1.348 . S
C497 C495 1.356 . S
H498 C492 0.930 . S
H499 C496 0.930 . S
O500 Li440 1.956 . S
O500 Li441 1.970 1_565 S
O500 Li442 1.961 1_554 S
O500 C444 1.325 . S
O501 Li440 1.970 1_545 S
O501 Li441 1.956 . S
O501 Li443 1.961 . S
O501 C450 1.325 . S
O502 Li440 1.961 1_556 S
O502 Li442 1.956 . S
O502 Li443 1.970 1_566 S
O502 C472 1.325 . S
O503 Li441 1.961 . S
O503 Li442 1.970 1_544 S
O503 Li443 1.956 . S
O503 C478 1.332 . S
H504 C446 0.929 . S
H505 C447 0.930 . S
H506 C448 0.930 . S
H507 C449 0.930 . S
H508 C451 0.930 . S
H509 C453 0.929 1_565 S
H510 C454 0.930 . S
H511 C455 0.930 . S
H512 C458 0.930 . S
H513 C461 0.929 . S
H514 C466 0.929 . S
H515 C467 0.930 . S
H516 C474 0.929 1_545 S
H517 C475 0.930 . S
H518 C476 0.930 . S
H519 C477 0.930 . S
H520 C479 0.929 . S
H521 C480 0.930 . S
H522 C481 0.930 . S
H523 C482 0.930 . S
H524 C486 0.929 . S
H525 C488 0.930 . S
H526 C494 0.929 1_554 S
H527 C495 0.930 . S
Li528 N545 1.990 . S
Li528 O588 1.956 . S
Li528 O589 1.970 . S
Li528 O590 1.961 . S
Li529 N553 1.990 . S
Li529 O588 1.970 . S
Li529 O589 1.956 . S
Li529 O591 1.961 . S
Li530 N575 1.990 . S
Li530 O588 1.961 . S
Li530 O590 1.956 . S
Li530 O591 1.970 . S
Li531 N581 1.990 . S
Li531 O589 1.961 . S
Li531 O590 1.970 . S
Li531 O591 1.956 . S
C532 C534 1.348 . S
C532 C535 1.356 . S
C532 O588 1.325 . S
N533 C536 1.314 . S
N533 C537 1.279 . S
C534 C532 1.348 . S
C534 C536 1.353 . S
C534 H592 0.929 . S
C535 C532 1.356 . S
C535 C537 1.358 . S
C535 H593 0.930 . S
C536 N533 1.314 . S
C536 C534 1.353 . S
C536 H594 0.930 . S
C537 N533 1.279 . S
C537 C535 1.358 . S
C537 H595 0.930 . S
C538 C541 1.348 . S
C538 C542 1.356 . S
C538 O589 1.325 . S
C539 N540 1.279 . S
C539 C542 1.358 . S
C539 H596 0.930 . S
N540 C539 1.279 . S
N540 C543 1.314 . S
C541 C538 1.348 . S
C541 C543 1.353 . S
C541 H597 0.929 . S
C542 C538 1.356 . S
C542 C539 1.358 . S
C542 H598 0.930 . S
C543 N540 1.314 . S
C543 C541 1.353 . S
C543 H599 0.930 . S
C544 N545 1.314 . S
C544 C549 1.353 . S
C544 H550 0.930 . S
N545 Li528 1.990 . S
N545 C544 1.314 . S
N545 C547 1.279 . S
C546 C547 1.358 . S
C546 C548 1.356 . S
C546 H600 0.930 . S
C547 N545 1.279 . S
C547 C546 1.358 . S
C547 H551 0.930 . S
C548 C546 1.356 . S
C548 C549 1.348 . S
C549 C544 1.353 . S
C549 C548 1.348 . S
C549 H601 0.929 . S
H550 C544 0.930 . S
H551 C547 0.930 . S
C552 N553 1.314 . S
C552 C554 1.353 . S
C552 H558 0.930 . S
N553 Li529 1.990 . S
N553 C552 1.314 . S
N553 C556 1.279 . S
C554 C552 1.353 . S
C554 C557 1.348 . S
C554 H602 0.929 . S
C555 C556 1.358 . S
C555 C557 1.356 . S
C555 H603 0.930 . S
C556 N553 1.279 . S
C556 C555 1.358 . S
C556 H559 0.930 . S
C557 C554 1.348 . S
C557 C555 1.356 . S
H558 C552 0.930 . S
H559 C556 0.930 . S
C560 C562 1.348 . S
C560 C563 1.356 . S
C560 O590 1.325 . S
N561 C564 1.314 . S
N561 C565 1.279 . S
C562 C560 1.348 . S
C562 C564 1.353 . S
C562 H604 0.929 . S
C563 C560 1.356 . S
C563 C565 1.358 . S
C563 H605 0.930 . S
C564 N561 1.314 . S
C564 C562 1.353 . S
C564 H606 0.930 . S
C565 N561 1.279 . S
C565 C563 1.358 . S
C565 H607 0.930 . S
C566 C567 1.348 . S
C566 C568 1.356 . S
C566 O591 1.325 . S
C567 C566 1.348 . S
C567 C569 1.353 . S
C567 H608 0.929 . S
C568 C566 1.356 . S
C568 C570 1.358 . S
C568 H609 0.930 . S
C569 C567 1.353 . S
C569 N571 1.314 . S
C569 H610 0.930 . S
C570 C568 1.358 . S
C570 N571 1.279 . S
C570 H611 0.930 . S
N571 C569 1.314 . S
N571 C570 1.279 . S
C572 C574 1.353 . S
C572 N575 1.314 . S
C572 H578 0.930 . S
C573 N575 1.279 . S
C573 C576 1.358 . S
C573 H579 0.930 . S
C574 C572 1.353 . S
C574 C577 1.348 . S
C574 H612 0.929 . S
N575 Li530 1.990 . S
N575 C572 1.314 . S
N575 C573 1.279 . S
C576 C573 1.358 . S
C576 C577 1.356 . S
C576 H613 0.930 . S
C577 C574 1.348 . S
C577 C576 1.356 . S
H578 C572 0.930 . S
H579 C573 0.930 . S
C580 N581 1.314 . S
C580 C582 1.353 . S
C580 H586 0.930 . S
N581 Li531 1.990 . S
N581 C580 1.314 . S
N581 C584 1.279 . S
C582 C580 1.353 . S
C582 C585 1.348 . S
C582 H614 0.929 . S
C583 C584 1.358 . S
C583 C585 1.356 . S
C583 H615 0.930 . S
C584 N581 1.279 . S
C584 C583 1.358 . S
C584 H587 0.930 . S
C585 C582 1.348 . S
C585 C583 1.356 . S
H586 C580 0.930 . S
H587 C584 0.930 . S
O588 Li528 1.956 . S
O588 Li529 1.970 . S
O588 Li530 1.961 . S
O588 C532 1.325 . S
O589 Li528 1.970 . S
O589 Li529 1.956 . S
O589 Li531 1.961 . S
O589 C538 1.325 . S
O590 Li528 1.961 . S
O590 Li530 1.956 . S
O590 Li531 1.970 . S
O590 C560 1.325 . S
O591 Li529 1.961 . S
O591 Li530 1.970 . S
O591 Li531 1.956 . S
O591 C566 1.325 . S
H592 C534 0.929 . S
H593 C535 0.930 . S
H594 C536 0.930 . S
H595 C537 0.930 . S
H596 C539 0.930 . S
H597 C541 0.929 . S
H598 C542 0.930 . S
H599 C543 0.930 . S
H600 C546 0.930 . S
H601 C549 0.929 . S
H602 C554 0.929 . S
H603 C555 0.930 . S
H604 C562 0.929 . S
H605 C563 0.930 . S
H606 C564 0.930 . S
H607 C565 0.930 . S
H608 C567 0.929 . S
H609 C568 0.930 . S
H610 C569 0.930 . S
H611 C570 0.930 . S
H612 C574 0.929 . S
H613 C576 0.930 . S
H614 C582 0.929 . S
H615 C583 0.930 . S
Li616 N633 1.990 . S
Li616 O676 1.956 . S
Li616 O677 1.970 . S
Li616 O678 1.961 . S
Li617 N641 1.990 . S
Li617 O676 1.970 . S
Li617 O677 1.956 . S
Li617 O679 1.961 . S
Li618 N663 1.990 1_565 S
Li618 O676 1.961 . S
Li618 O678 1.956 . S
Li618 O679 1.970 . S
Li619 N669 1.990 . S
Li619 O677 1.961 . S
Li619 O678 1.970 . S
Li619 O679 1.956 . S
C620 C622 1.348 . S
C620 C623 1.356 . S
C620 O676 1.325 . S
N621 C624 1.314 . S
N621 C625 1.279 . S
C622 C620 1.348 . S
C622 C624 1.353 . S
C622 H680 0.929 . S
C623 C620 1.356 . S
C623 C625 1.358 . S
C623 H681 0.930 . S
C624 N621 1.314 . S
C624 C622 1.353 . S
C624 H682 0.930 . S
C625 N621 1.279 . S
C625 C623 1.358 . S
C625 H683 0.930 . S
C626 C629 1.348 . S
C626 C630 1.356 . S
C626 O677 1.325 . S
C627 N628 1.279 . S
C627 C630 1.358 . S
C627 H684 0.930 . S
N628 C627 1.279 . S
N628 C631 1.314 . S
C629 C626 1.348 . S
C629 C631 1.353 . S
C629 H685 0.929 . S
C630 C626 1.356 . S
C630 C627 1.358 . S
C630 H686 0.930 . S
C631 N628 1.314 . S
C631 C629 1.353 . S
C631 H687 0.930 . S
C632 N633 1.314 . S
C632 C637 1.353 . S
C632 H638 0.930 . S
N633 Li616 1.990 . S
N633 C632 1.314 . S
N633 C635 1.279 . S
C634 C635 1.358 . S
C634 C636 1.356 . S
C634 H688 0.930 . S
C635 N633 1.279 . S
C635 C634 1.358 . S
C635 H639 0.930 . S
C636 C634 1.356 . S
C636 C637 1.348 . S
C637 C632 1.353 . S
C637 C636 1.348 . S
C637 H689 0.929 . S
H638 C632 0.930 . S
H639 C635 0.930 . S
C640 N641 1.314 . S
C640 C642 1.353 . S
C640 H646 0.930 . S
N641 Li617 1.990 . S
N641 C640 1.314 . S
N641 C644 1.279 . S
C642 C640 1.353 . S
C642 C645 1.348 . S
C642 H690 0.929 . S
C643 C644 1.358 . S
C643 C645 1.356 . S
C643 H691 0.930 . S
C644 N641 1.279 . S
C644 C643 1.358 . S
C644 H647 0.930 . S
C645 C642 1.348 . S
C645 C643 1.356 . S
H646 C640 0.930 . S
H647 C644 0.930 . S
C648 C650 1.348 . S
C648 C651 1.356 . S
C648 O678 1.325 1_545 S
N649 C652 1.314 . S
N649 C653 1.279 . S
C650 C648 1.348 . S
C650 C652 1.353 . S
C650 H692 0.929 . S
C651 C648 1.356 . S
C651 C653 1.358 . S
C651 H693 0.930 . S
C652 N649 1.314 . S
C652 C650 1.353 . S
C652 H694 0.930 . S
C653 N649 1.279 . S
C653 C651 1.358 . S
C653 H695 0.930 . S
C654 C655 1.348 1_565 S
C654 C656 1.356 . S
C654 O679 1.325 . S
C655 C654 1.348 1_545 S
C655 C657 1.353 . S
C655 H696 0.929 . S
C656 C654 1.356 . S
C656 C658 1.358 . S
C656 H697 0.930 . S
C657 C655 1.353 . S
C657 N659 1.314 1_545 S
C657 H698 0.930 . S
C658 C656 1.358 . S
C658 N659 1.279 . S
C658 H699 0.930 . S
N659 C657 1.314 1_565 S
N659 C658 1.279 . S
C660 C662 1.353 . S
C660 N663 1.314 . S
C660 H666 0.930 . S
C661 N663 1.279 . S
C661 C664 1.358 . S
C661 H667 0.930 . S
C662 C660 1.353 . S
C662 C665 1.348 . S
C662 H700 0.929 . S
N663 Li618 1.990 1_545 S
N663 C660 1.314 . S
N663 C661 1.279 . S
C664 C661 1.358 . S
C664 C665 1.356 . S
C664 H701 0.930 . S
C665 C662 1.348 . S
C665 C664 1.356 . S
H666 C660 0.930 . S
H667 C661 0.930 . S
C668 N669 1.314 . S
C668 C670 1.353 . S
C668 H674 0.930 . S
N669 Li619 1.990 . S
N669 C668 1.314 . S
N669 C672 1.279 . S
C670 C668 1.353 . S
C670 C673 1.348 . S
C670 H702 0.929 . S
C671 C672 1.358 . S
C671 C673 1.356 . S
C671 H703 0.930 . S
C672 N669 1.279 . S
C672 C671 1.358 . S
C672 H675 0.930 . S
C673 C670 1.348 . S
C673 C671 1.356 . S
H674 C668 0.930 . S
H675 C672 0.930 . S
O676 Li616 1.956 . S
O676 Li617 1.970 . S
O676 Li618 1.961 . S
O676 C620 1.325 . S
O677 Li616 1.970 . S
O677 Li617 1.956 . S
O677 Li619 1.961 . S
O677 C626 1.325 . S
O678 Li616 1.961 . S
O678 Li618 1.956 . S
O678 Li619 1.970 . S
O678 C648 1.325 1_565 S
O679 Li617 1.961 . S
O679 Li618 1.970 . S
O679 Li619 1.956 . S
O679 C654 1.325 . S
H680 C622 0.929 . S
H681 C623 0.930 . S
H682 C624 0.930 . S
H683 C625 0.930 . S
H684 C627 0.930 . S
H685 C629 0.929 . S
H686 C630 0.930 . S
H687 C631 0.930 . S
H688 C634 0.930 . S
H689 C637 0.929 . S
H690 C642 0.929 . S
H691 C643 0.930 . S
H692 C650 0.929 . S
H693 C651 0.930 . S
H694 C652 0.930 . S
H695 C653 0.930 . S
H696 C655 0.929 . S
H697 C656 0.930 . S
H698 C657 0.930 . S
H699 C658 0.930 . S
H700 C662 0.929 . S
H701 C664 0.930 . S
H702 C670 0.929 . S
H703 C671 0.930 . S
Li704 N721 1.990 . S
Li704 O764 1.956 . S
Li704 O765 1.970 . S
Li704 O766 1.961 . S
Li705 N729 1.990 . S
Li705 O764 1.970 . S
Li705 O765 1.956 . S
Li705 O767 1.961 . S
Li706 N751 1.990 1_455 S
Li706 O764 1.961 . S
Li706 O766 1.956 . S
Li706 O767 1.970 . S
Li707 N757 1.990 . S
Li707 O765 1.961 . S
Li707 O766 1.970 . S
Li707 O767 1.956 . S
C708 C710 1.348 . S
C708 C711 1.356 . S
C708 O764 1.325 . S
N709 C712 1.314 . S
N709 C713 1.279 . S
C710 C708 1.348 . S
C710 C712 1.353 . S
C710 H768 0.929 . S
C711 C708 1.356 . S
C711 C713 1.358 . S
C711 H769 0.930 . S
C712 N709 1.314 . S
C712 C710 1.353 . S
C712 H770 0.930 . S
C713 N709 1.279 . S
C713 C711 1.358 . S
C713 H771 0.930 . S
C714 C717 1.348 . S
C714 C718 1.356 . S
C714 O765 1.325 . S
C715 N716 1.279 . S
C715 C718 1.358 . S
C715 H772 0.930 . S
N716 C715 1.279 . S
N716 C719 1.314 . S
C717 C714 1.348 . S
C717 C719 1.353 . S
C717 H773 0.929 . S
C718 C714 1.356 . S
C718 C715 1.358 . S
C718 H774 0.930 . S
C719 N716 1.314 . S
C719 C717 1.353 . S
C719 H775 0.930 . S
C720 N721 1.314 . S
C720 C725 1.353 . S
C720 H726 0.930 . S
N721 Li704 1.990 . S
N721 C720 1.314 . S
N721 C723 1.279 . S
C722 C723 1.358 . S
C722 C724 1.356 . S
C722 H776 0.930 . S
C723 N721 1.279 . S
C723 C722 1.358 . S
C723 H727 0.930 . S
C724 C722 1.356 . S
C724 C725 1.348 . S
C725 C720 1.353 . S
C725 C724 1.348 . S
C725 H777 0.929 . S
H726 C720 0.930 . S
H727 C723 0.930 . S
C728 N729 1.314 . S
C728 C730 1.353 . S
C728 H734 0.930 . S
N729 Li705 1.990 . S
N729 C728 1.314 . S
N729 C732 1.279 . S
C730 C728 1.353 . S
C730 C733 1.348 . S
C730 H778 0.929 . S
C731 C732 1.358 . S
C731 C733 1.356 . S
C731 H779 0.930 . S
C732 N729 1.279 . S
C732 C731 1.358 . S
C732 H735 0.930 . S
C733 C730 1.348 . S
C733 C731 1.356 . S
H734 C728 0.930 . S
H735 C732 0.930 . S
C736 C738 1.314 1_455 S
C736 C739 1.361 1_455 S
C736 O766 1.351 . S
N737 C740 1.314 . S
N737 C741 1.279 . S
C738 C736 1.314 1_655 S
C738 C740 1.353 . S
C738 H780 0.929 . S
C739 C736 1.361 1_655 S
C739 C741 1.358 . S
C739 H781 0.930 . S
C740 N737 1.314 . S
C740 C738 1.353 . S
C740 H782 0.930 . S
C741 N737 1.279 . S
C741 C739 1.358 . S
C741 H783 0.930 . S
C742 C743 1.348 . S
C742 C744 1.356 . S
C742 O767 1.325 . S
C743 C742 1.348 . S
C743 C745 1.353 1_455 S
C743 H784 0.929 1_455 S
C744 C742 1.356 . S
C744 C746 1.358 . S
C744 H785 0.930 . S
C745 C743 1.353 1_655 S
C745 N747 1.314 1_655 S
C745 H786 0.930 . S
C746 C744 1.358 . S
C746 N747 1.279 . S
C746 H787 0.930 . S
N747 C745 1.314 1_455 S
N747 C746 1.279 . S
C748 C750 1.353 . S
C748 N751 1.314 . S
C748 H754 0.930 . S
C749 N751 1.279 . S
C749 C752 1.358 . S
C749 H755 0.930 . S
C750 C748 1.353 . S
C750 C753 1.348 . S
C750 H788 0.929 . S
N751 Li706 1.990 1_655 S
N751 C748 1.314 . S
N751 C749 1.279 . S
C752 C749 1.358 . S
C752 C753 1.356 . S
C752 H789 0.930 . S
C753 C750 1.348 . S
C753 C752 1.356 . S
H754 C748 0.930 . S
H755 C749 0.930 . S
C756 N757 1.314 . S
C756 C758 1.353 . S
C756 H762 0.930 . S
N757 Li707 1.990 . S
N757 C756 1.314 . S
N757 C760 1.279 . S
C758 C756 1.353 . S
C758 C761 1.348 . S
C758 H790 0.929 . S
C759 C760 1.358 . S
C759 C761 1.356 . S
C759 H791 0.930 . S
C760 N757 1.279 . S
C760 C759 1.358 . S
C760 H763 0.930 . S
C761 C758 1.348 . S
C761 C759 1.356 . S
H762 C756 0.930 . S
H763 C760 0.930 . S
O764 Li704 1.956 . S
O764 Li705 1.970 . S
O764 Li706 1.961 . S
O764 C708 1.325 . S
O765 Li704 1.970 . S
O765 Li705 1.956 . S
O765 Li707 1.961 . S
O765 C714 1.325 . S
O766 Li704 1.961 . S
O766 Li706 1.956 . S
O766 Li707 1.970 . S
O766 C736 1.351 . S
O767 Li705 1.961 . S
O767 Li706 1.970 . S
O767 Li707 1.956 . S
O767 C742 1.325 . S
H768 C710 0.929 . S
H769 C711 0.930 . S
H770 C712 0.930 . S
H771 C713 0.930 . S
H772 C715 0.930 . S
H773 C717 0.929 . S
H774 C718 0.930 . S
H775 C719 0.930 . S
H776 C722 0.930 . S
H777 C725 0.929 . S
H778 C730 0.929 . S
H779 C731 0.930 . S
H780 C738 0.929 . S
H781 C739 0.930 . S
H782 C740 0.930 . S
H783 C741 0.930 . S
H784 C743 0.929 1_655 S
H785 C744 0.930 . S
H786 C745 0.930 . S
H787 C746 0.930 . S
H788 C750 0.929 . S
H789 C752 0.930 . S
H790 C758 0.929 . S
H791 C759 0.930 . S
Li792 N809 1.990 1_565 S
Li792 O852 1.956 . S
Li792 O853 1.970 . S
Li792 O854 1.961 . S
Li793 N817 1.990 . S
Li793 O852 1.970 . S
Li793 O853 1.956 . S
Li793 O855 1.961 . S
Li794 N839 1.990 . S
Li794 O852 1.961 . S
Li794 O854 1.956 . S
Li794 O855 1.970 . S
Li795 N845 1.990 . S
Li795 O853 1.961 . S
Li795 O854 1.970 . S
Li795 O855 1.956 . S
C796 C798 1.348 . S
C796 C799 1.356 . S
C796 O852 1.325 . S
N797 C800 1.314 . S
N797 C801 1.279 . S
C798 C796 1.348 . S
C798 C800 1.353 . S
C798 H856 0.929 . S
C799 C796 1.356 . S
C799 C801 1.358 . S
C799 H857 0.930 . S
C800 N797 1.314 . S
C800 C798 1.353 . S
C800 H858 0.930 . S
C801 N797 1.279 . S
C801 C799 1.358 . S
C801 H859 0.930 . S
C802 C805 1.348 . S
C802 C806 1.356 . S
C802 O853 1.325 . S
C803 N804 1.279 . S
C803 C806 1.358 . S
C803 H860 0.930 . S
N804 C803 1.279 . S
N804 C807 1.323 1_565 S
C805 C802 1.348 . S
C805 C807 1.308 1_565 S
C805 H861 0.929 1_565 S
C806 C802 1.356 . S
C806 C803 1.358 . S
C806 H862 0.930 . S
C807 N804 1.323 1_545 S
C807 C805 1.308 1_545 S
C807 H863 0.980 . S
C808 N809 1.314 . S
C808 C813 1.353 . S
C808 H814 0.930 . S
N809 Li792 1.990 1_545 S
N809 C808 1.314 . S
N809 C811 1.279 . S
C810 C811 1.358 . S
C810 C812 1.356 . S
C810 H864 0.930 . S
C811 N809 1.279 . S
C811 C810 1.358 . S
C811 H815 0.930 . S
C812 C810 1.356 . S
C812 C813 1.348 . S
C813 C808 1.353 . S
C813 C812 1.348 . S
C813 H865 0.929 . S
H814 C808 0.930 . S
H815 C811 0.930 . S
C816 N817 1.314 . S
C816 C818 1.353 . S
C816 H822 0.930 . S
N817 Li793 1.990 . S
N817 C816 1.314 . S
N817 C820 1.279 . S
C818 C816 1.353 . S
C818 C821 1.348 . S
C818 H866 0.929 . S
C819 C820 1.358 . S
C819 C821 1.356 . S
C819 H867 0.930 . S
C820 N817 1.279 . S
C820 C819 1.358 . S
C820 H823 0.930 . S
C821 C818 1.348 . S
C821 C819 1.356 . S
H822 C816 0.930 . S
H823 C820 0.930 . S
C824 C826 1.348 . S
C824 C827 1.356 . S
C824 O854 1.325 1_545 S
N825 C828 1.314 . S
N825 C829 1.279 . S
C826 C824 1.348 . S
C826 C828 1.353 . S
C826 H868 0.929 1_545 S
C827 C824 1.356 . S
C827 C829 1.358 . S
C827 H869 0.930 . S
C828 N825 1.314 . S
C828 C826 1.353 . S
C828 H870 0.930 . S
C829 N825 1.279 . S
C829 C827 1.358 . S
C829 H871 0.930 . S
C830 C831 1.348 . S
C830 C832 1.356 . S
C830 O855 1.325 . S
C831 C830 1.348 . S
C831 C833 1.353 . S
C831 H872 0.929 . S
C832 C830 1.356 . S
C832 C834 1.358 . S
C832 H873 0.930 . S
C833 C831 1.353 . S
C833 N835 1.314 . S
C833 H874 0.930 . S
C834 C832 1.358 . S
C834 N835 1.279 . S
C834 H875 0.930 . S
N835 C833 1.314 . S
N835 C834 1.279 . S
C836 C838 1.353 . S
C836 N839 1.314 . S
C836 H842 0.930 . S
C837 N839 1.279 . S
C837 C840 1.358 . S
C837 H843 0.930 . S
C838 C836 1.353 . S
C838 C841 1.348 . S
C838 H876 0.929 . S
N839 Li794 1.990 . S
N839 C836 1.314 . S
N839 C837 1.279 . S
C840 C837 1.358 . S
C840 C841 1.356 . S
C840 H877 0.930 . S
C841 C838 1.348 . S
C841 C840 1.356 . S
H842 C836 0.930 . S
H843 C837 0.930 . S
C844 N845 1.314 . S
C844 C846 1.353 . S
C844 H850 0.930 . S
N845 Li795 1.990 . S
N845 C844 1.314 . S
N845 C848 1.279 . S
C846 C844 1.353 . S
C846 C849 1.348 . S
C846 H878 0.863 1_565 S
C847 C848 1.358 . S
C847 C849 1.356 . S
C847 H879 0.930 . S
C848 N845 1.279 . S
C848 C847 1.358 . S
C848 H851 0.930 . S
C849 C846 1.348 . S
C849 C847 1.356 . S
H850 C844 0.930 . S
H851 C848 0.930 . S
O852 Li792 1.956 . S
O852 Li793 1.970 . S
O852 Li794 1.961 . S
O852 C796 1.325 . S
O853 Li792 1.970 . S
O853 Li793 1.956 . S
O853 Li795 1.961 . S
O853 C802 1.325 . S
O854 Li792 1.961 . S
O854 Li794 1.956 . S
O854 Li795 1.970 . S
O854 C824 1.325 1_565 S
O855 Li793 1.961 . S
O855 Li794 1.970 . S
O855 Li795 1.956 . S
O855 C830 1.325 . S
H856 C798 0.929 . S
H857 C799 0.930 . S
H858 C800 0.930 . S
H859 C801 0.930 . S
H860 C803 0.930 . S
H861 C805 0.929 1_545 S
H862 C806 0.930 . S
H863 C807 0.980 . S
H864 C810 0.930 . S
H865 C813 0.929 . S
H866 C818 0.929 . S
H867 C819 0.930 . S
H868 C826 0.929 1_565 S
H869 C827 0.930 . S
H870 C828 0.930 . S
H871 C829 0.930 . S
H872 C831 0.929 . S
H873 C832 0.930 . S
H874 C833 0.930 . S
H875 C834 0.930 . S
H876 C838 0.929 . S
H877 C840 0.930 . S
H878 C846 0.863 1_545 S
H879 C847 0.930 . S
Li880 N897 1.990 . S
Li880 O940 1.956 . S
Li880 O941 1.970 . S
Li880 O942 1.961 . S
Li881 N905 1.990 1_455 S
Li881 O940 1.970 . S
Li881 O941 1.956 . S
Li881 O943 1.961 . S
Li882 N927 1.990 . S
Li882 O940 1.961 . S
Li882 O942 1.956 . S
Li882 O943 1.970 . S
Li883 N933 1.990 . S
Li883 O941 1.961 . S
Li883 O942 1.970 . S
Li883 O943 1.956 . S
C884 C886 1.348 . S
C884 C887 1.356 . S
C884 O940 1.325 . S
N885 C888 1.314 1_455 S
N885 C889 1.279 . S
C886 C884 1.348 . S
C886 C888 1.353 1_455 S
C886 H944 0.929 1_455 S
C887 C884 1.356 . S
C887 C889 1.358 . S
C887 H945 0.930 . S
C888 N885 1.314 1_655 S
C888 C886 1.353 1_655 S
C888 H946 0.930 . S
C889 N885 1.279 . S
C889 C887 1.358 . S
C889 H947 0.930 . S
C890 C893 1.348 . S
C890 C894 1.356 . S
C890 O941 1.325 . S
C891 N892 1.279 . S
C891 C894 1.358 . S
C891 H948 0.930 . S
N892 C891 1.279 . S
N892 C895 1.314 . S
C893 C890 1.348 . S
C893 C895 1.353 . S
C893 H949 0.929 . S
C894 C890 1.356 . S
C894 C891 1.358 . S
C894 H950 0.930 . S
C895 N892 1.314 . S
C895 C893 1.353 . S
C895 H951 0.930 . S
C896 N897 1.314 . S
C896 C901 1.353 . S
C896 H902 0.930 . S
N897 Li880 1.990 . S
N897 C896 1.314 . S
N897 C899 1.279 . S
C898 C899 1.358 . S
C898 C900 1.356 . S
C898 H952 0.930 . S
C899 N897 1.279 . S
C899 C898 1.358 . S
C899 H903 0.930 . S
C900 C898 1.356 . S
C900 C901 1.348 . S
C901 C896 1.353 . S
C901 C900 1.348 . S
C901 H953 0.929 . S
H902 C896 0.930 . S
H903 C899 0.930 . S
C904 N905 1.314 . S
C904 C906 1.353 . S
C904 H910 0.930 . S
N905 Li881 1.990 1_655 S
N905 C904 1.314 . S
N905 C908 1.279 . S
C906 C904 1.353 . S
C906 C909 1.348 . S
C906 H954 0.929 . S
C907 C908 1.358 . S
C907 C909 1.356 . S
C907 H955 0.930 . S
C908 N905 1.279 . S
C908 C907 1.358 . S
C908 H911 0.930 . S
C909 C906 1.348 . S
C909 C907 1.356 . S
H910 C904 0.930 . S
H911 C908 0.930 . S
C912 C914 1.348 . S
C912 C915 1.356 . S
C912 O942 1.325 . S
N913 C916 1.314 . S
N913 C917 1.279 . S
C914 C912 1.348 . S
C914 C916 1.353 . S
C914 H956 0.929 . S
C915 C912 1.356 . S
C915 C917 1.358 . S
C915 H957 0.930 . S
C916 N913 1.314 . S
C916 C914 1.353 . S
C916 H958 0.930 . S
C917 N913 1.279 . S
C917 C915 1.358 . S
C917 H959 0.930 . S
C918 C919 1.348 . S
C918 C920 1.356 . S
C918 O943 1.325 1_655 S
C919 C918 1.348 . S
C919 C921 1.353 . S
C919 H960 0.929 1_655 S
C920 C918 1.356 . S
C920 C922 1.358 . S
C920 H961 0.930 . S
C921 C919 1.353 . S
C921 N923 1.314 . S
C921 H962 0.930 . S
C922 C920 1.358 . S
C922 N923 1.279 . S
C922 H963 0.930 . S
N923 C921 1.314 . S
N923 C922 1.279 . S
C924 C926 1.353 . S
C924 N927 1.314 . S
C924 H930 0.930 . S
C925 N927 1.279 . S
C925 C928 1.358 . S
C925 H931 0.930 . S
C926 C924 1.353 . S
C926 C929 1.348 . S
C926 H964 0.929 1_455 S
N927 Li882 1.990 . S
N927 C924 1.314 . S
N927 C925 1.279 . S
C928 C925 1.358 . S
C928 C929 1.356 . S
C928 H965 0.930 . S
C929 C926 1.348 . S
C929 C928 1.356 . S
H930 C924 0.930 . S
H931 C925 0.930 . S
C932 N933 1.314 . S
C932 C934 1.353 . S
C932 H938 0.930 . S
N933 Li883 1.990 . S
N933 C932 1.314 . S
N933 C936 1.279 . S
C934 C932 1.353 . S
C934 C937 1.348 . S
C934 H966 0.929 . S
C935 C936 1.358 . S
C935 C937 1.356 . S
C935 H967 0.930 . S
C936 N933 1.279 . S
C936 C935 1.358 . S
C936 H939 0.930 . S
C937 C934 1.348 . S
C937 C935 1.356 . S
H938 C932 0.930 . S
H939 C936 0.930 . S
O940 Li880 1.956 . S
O940 Li881 1.970 . S
O940 Li882 1.961 . S
O940 C884 1.325 . S
O941 Li880 1.970 . S
O941 Li881 1.956 . S
O941 Li883 1.961 . S
O941 C890 1.325 . S
O942 Li880 1.961 . S
O942 Li882 1.956 . S
O942 Li883 1.970 . S
O942 C912 1.325 . S
O943 Li881 1.961 . S
O943 Li882 1.970 . S
O943 Li883 1.956 . S
O943 C918 1.325 1_455 S
H944 C886 0.929 1_655 S
H945 C887 0.930 . S
H946 C888 0.930 . S
H947 C889 0.930 . S
H948 C891 0.930 . S
H949 C893 0.929 . S
H950 C894 0.930 . S
H951 C895 0.930 . S
H952 C898 0.930 . S
H953 C901 0.929 . S
H954 C906 0.929 . S
H955 C907 0.930 . S
H956 C914 0.929 . S
H957 C915 0.930 . S
H958 C916 0.930 . S
H959 C917 0.930 . S
H960 C919 0.929 1_455 S
H961 C920 0.930 . S
H962 C921 0.930 . S
H963 C922 0.930 . S
H964 C926 0.929 1_655 S
H965 C928 0.930 . S
H966 C934 0.929 . S
H967 C935 0.930 . S
Li968 N985 1.990 . S
Li968 O1028 1.956 . S
Li968 O1029 1.970 . S
Li968 O1030 1.961 . S
Li969 N993 1.990 . S
Li969 O1028 1.970 . S
Li969 O1029 1.956 . S
Li969 O1031 1.961 . S
Li970 N1015 1.990 . S
Li970 O1028 1.961 . S
Li970 O1030 1.956 . S
Li970 O1031 1.970 . S
Li971 N1021 1.990 . S
Li971 O1029 1.961 . S
Li971 O1030 1.970 . S
Li971 O1031 1.956 . S
C972 C974 1.348 . S
C972 C975 1.356 . S
C972 O1028 1.325 . S
N973 C976 1.314 . S
N973 C977 1.279 . S
C974 C972 1.348 . S
C974 C976 1.353 . S
C974 H1032 0.929 . S
C975 C972 1.356 . S
C975 C977 1.358 . S
C975 H1033 0.930 . S
C976 N973 1.314 . S
C976 C974 1.353 . S
C976 H1034 0.930 . S
C977 N973 1.279 . S
C977 C975 1.358 . S
C977 H1035 0.930 . S
C978 C981 1.348 . S
C978 C982 1.356 . S
C978 O1029 1.325 . S
C979 N980 1.279 . S
C979 C982 1.358 . S
C979 H1036 0.930 . S
N980 C979 1.279 . S
N980 C983 1.314 . S
C981 C978 1.348 . S
C981 C983 1.353 . S
C981 H1037 0.929 . S
C982 C978 1.356 . S
C982 C979 1.358 . S
C982 H1038 0.930 . S
C983 N980 1.314 . S
C983 C981 1.353 . S
C983 H1039 0.930 . S
C984 N985 1.314 . S
C984 C989 1.353 . S
C984 H990 0.930 . S
N985 Li968 1.990 . S
N985 C984 1.314 . S
N985 C987 1.279 . S
C986 C987 1.358 . S
C986 C988 1.356 . S
C986 H1040 0.930 . S
C987 N985 1.279 . S
C987 C986 1.358 . S
C987 H991 0.930 . S
C988 C986 1.356 . S
C988 C989 1.348 . S
C989 C984 1.353 . S
C989 C988 1.348 . S
C989 H1041 0.929 . S
H990 C984 0.930 . S
H991 C987 0.930 . S
C992 N993 1.314 . S
C992 C994 1.353 . S
C992 H998 0.930 . S
N993 Li969 1.990 . S
N993 C992 1.314 . S
N993 C996 1.279 . S
C994 C992 1.353 . S
C994 C997 1.348 . S
C994 H1042 0.929 . S
C995 C996 1.358 . S
C995 C997 1.356 . S
C995 H1043 0.930 . S
C996 N993 1.279 . S
C996 C995 1.358 . S
C996 H999 0.930 . S
C997 C994 1.348 . S
C997 C995 1.356 . S
H998 C992 0.930 . S
H999 C996 0.930 . S
C1000 C1002 1.348 . S
C1000 C1003 1.356 . S
C1000 O1030 1.325 . S
N1001 C1004 1.314 . S
N1001 C1005 1.279 . S
C1002 C1000 1.348 . S
C1002 C1004 1.353 . S
C1002 H1044 0.929 . S
C1003 C1000 1.356 . S
C1003 C1005 1.358 . S
C1003 H1045 0.930 . S
C1004 N1001 1.314 . S
C1004 C1002 1.353 . S
C1004 H1046 0.930 . S
C1005 N1001 1.279 . S
C1005 C1003 1.358 . S
C1005 H1047 0.930 . S
C1006 C1007 1.348 . S
C1006 C1008 1.356 . S
C1006 O1031 1.325 . S
C1007 C1006 1.348 . S
C1007 C1009 1.353 . S
C1007 H1048 0.929 . S
C1008 C1006 1.356 . S
C1008 C1010 1.358 . S
C1008 H1049 0.930 . S
C1009 C1007 1.353 . S
C1009 N1011 1.314 . S
C1009 H1050 0.930 . S
C1010 C1008 1.358 . S
C1010 N1011 1.279 . S
C1010 H1051 0.930 . S
N1011 C1009 1.314 . S
N1011 C1010 1.279 . S
C1012 C1014 1.353 . S
C1012 N1015 1.314 . S
C1012 H1018 0.930 . S
C1013 N1015 1.279 . S
C1013 C1016 1.358 . S
C1013 H1019 0.930 . S
C1014 C1012 1.353 . S
C1014 C1017 1.348 . S
C1014 H1052 0.929 . S
N1015 Li970 1.990 . S
N1015 C1012 1.314 . S
N1015 C1013 1.279 . S
C1016 C1013 1.358 . S
C1016 C1017 1.356 . S
C1016 H1053 0.930 . S
C1017 C1014 1.348 . S
C1017 C1016 1.356 . S
H1018 C1012 0.930 . S
H1019 C1013 0.930 . S
C1020 N1021 1.314 . S
C1020 C1022 1.353 . S
C1020 H1026 0.930 . S
N1021 Li971 1.990 . S
N1021 C1020 1.314 . S
N1021 C1024 1.279 . S
C1022 C1020 1.353 . S
C1022 C1025 1.348 . S
C1022 H1054 0.929 . S
C1023 C1024 1.358 . S
C1023 C1025 1.356 . S
C1023 H1055 0.930 . S
C1024 N1021 1.279 . S
C1024 C1023 1.358 . S
C1024 H1027 0.930 . S
C1025 C1022 1.348 . S
C1025 C1023 1.356 . S
H1026 C1020 0.930 . S
H1027 C1024 0.930 . S
O1028 Li968 1.956 . S
O1028 Li969 1.970 . S
O1028 Li970 1.961 . S
O1028 C972 1.325 . S
O1029 Li968 1.970 . S
O1029 Li969 1.956 . S
O1029 Li971 1.961 . S
O1029 C978 1.325 . S
O1030 Li968 1.961 . S
O1030 Li970 1.956 . S
O1030 Li971 1.970 . S
O1030 C1000 1.325 . S
O1031 Li969 1.961 . S
O1031 Li970 1.970 . S
O1031 Li971 1.956 . S
O1031 C1006 1.325 . S
H1032 C974 0.929 . S
H1033 C975 0.930 . S
H1034 C976 0.930 . S
H1035 C977 0.930 . S
H1036 C979 0.930 . S
H1037 C981 0.929 . S
H1038 C982 0.930 . S
H1039 C983 0.930 . S
H1040 C986 0.930 . S
H1041 C989 0.929 . S
H1042 C994 0.929 . S
H1043 C995 0.930 . S
H1044 C1002 0.929 . S
H1045 C1003 0.930 . S
H1046 C1004 0.930 . S
H1047 C1005 0.930 . S
H1048 C1007 0.929 . S
H1049 C1008 0.930 . S
H1050 C1009 0.930 . S
H1051 C1010 0.930 . S
H1052 C1014 0.929 . S
H1053 C1016 0.930 . S
H1054 C1022 0.929 . S
H1055 C1023 0.930 . S
Li1056 N1073 1.990 1_545 S
Li1056 O1116 1.956 . S
Li1056 O1117 1.970 . S
Li1056 O1118 1.961 . S
Li1057 N1081 1.990 . S
Li1057 O1116 1.970 . S
Li1057 O1117 1.956 . S
Li1057 O1119 1.961 . S
Li1058 N1103 1.990 . S
Li1058 O1116 1.961 . S
Li1058 O1118 1.956 . S
Li1058 O1119 1.970 . S
Li1059 N1109 1.990 . S
Li1059 O1117 1.961 . S
Li1059 O1118 1.970 . S
Li1059 O1119 1.956 . S
C1060 C1062 1.348 . S
C1060 C1063 1.356 . S
C1060 O1116 1.325 1_565 S
N1061 C1064 1.314 . S
N1061 C1065 1.279 . S
C1062 C1060 1.348 . S
C1062 C1064 1.353 . S
C1062 H1120 0.929 . S
C1063 C1060 1.356 . S
C1063 C1065 1.358 . S
C1063 H1121 0.930 . S
C1064 N1061 1.314 . S
C1064 C1062 1.353 . S
C1064 H1122 0.930 . S
C1065 N1061 1.279 . S
C1065 C1063 1.358 . S
C1065 H1123 0.930 . S
C1066 C1069 1.348 1_545 S
C1066 C1070 1.356 . S
C1066 O1117 1.325 . S
C1067 N1068 1.279 . S
C1067 C1070 1.358 . S
C1067 H1124 0.930 . S
N1068 C1067 1.279 . S
N1068 C1071 1.314 1_545 S
C1069 C1066 1.348 1_565 S
C1069 C1071 1.353 . S
C1069 H1125 0.929 . S
C1070 C1066 1.356 . S
C1070 C1067 1.358 . S
C1070 H1126 0.930 . S
C1071 N1068 1.314 1_565 S
C1071 C1069 1.353 . S
C1071 H1127 0.930 . S
C1072 N1073 1.314 . S
C1072 C1077 1.353 . S
C1072 H1078 0.930 . S
N1073 Li1056 1.990 1_565 S
N1073 C1072 1.314 . S
N1073 C1075 1.279 . S
C1074 C1075 1.358 . S
C1074 C1076 1.356 . S
C1074 H1128 0.930 . S
C1075 N1073 1.279 . S
C1075 C1074 1.358 . S
C1075 H1079 0.930 . S
C1076 C1074 1.356 . S
C1076 C1077 1.348 . S
C1077 C1072 1.353 . S
C1077 C1076 1.348 . S
C1077 H1129 0.929 . S
H1078 C1072 0.930 . S
H1079 C1075 0.930 . S
C1080 N1081 1.314 . S
C1080 C1082 1.353 . S
C1080 H1086 0.930 . S
N1081 Li1057 1.990 . S
N1081 C1080 1.314 . S
N1081 C1084 1.279 . S
C1082 C1080 1.353 . S
C1082 C1085 1.348 . S
C1082 H1130 0.929 . S
C1083 C1084 1.358 . S
C1083 C1085 1.356 . S
C1083 H1131 0.930 . S
C1084 N1081 1.279 . S
C1084 C1083 1.358 . S
C1084 H1087 0.930 . S
C1085 C1082 1.348 . S
C1085 C1083 1.356 . S
H1086 C1080 0.930 . S
H1087 C1084 0.930 . S
C1088 C1090 1.348 . S
C1088 C1091 1.356 . S
C1088 O1118 1.325 . S
N1089 C1092 1.314 . S
N1089 C1093 1.279 . S
C1090 C1088 1.348 . S
C1090 C1092 1.353 . S
C1090 H1132 0.929 . S
C1091 C1088 1.356 . S
C1091 C1093 1.358 . S
C1091 H1133 0.930 . S
C1092 N1089 1.314 . S
C1092 C1090 1.353 . S
C1092 H1134 0.930 . S
C1093 N1089 1.279 . S
C1093 C1091 1.358 . S
C1093 H1135 0.930 . S
C1094 C1095 1.348 . S
C1094 C1096 1.356 . S
C1094 O1119 1.325 . S
C1095 C1094 1.348 . S
C1095 C1097 1.353 . S
C1095 H1136 0.929 . S
C1096 C1094 1.356 . S
C1096 C1098 1.358 . S
C1096 H1137 0.930 . S
C1097 C1095 1.353 . S
C1097 N1099 1.314 . S
C1097 H1138 0.930 . S
C1098 C1096 1.358 . S
C1098 N1099 1.279 . S
C1098 H1139 0.930 . S
N1099 C1097 1.314 . S
N1099 C1098 1.279 . S
C1100 C1102 1.353 . S
C1100 N1103 1.314 . S
C1100 H1106 0.930 . S
C1101 N1103 1.279 . S
C1101 C1104 1.358 . S
C1101 H1107 0.930 . S
C1102 C1100 1.353 . S
C1102 C1105 1.348 . S
C1102 H1140 0.929 . S
N1103 Li1058 1.990 . S
N1103 C1100 1.314 . S
N1103 C1101 1.279 . S
C1104 C1101 1.358 . S
C1104 C1105 1.356 . S
C1104 H1141 0.930 . S
C1105 C1102 1.348 . S
C1105 C1104 1.356 . S
H1106 C1100 0.930 . S
H1107 C1101 0.930 . S
C1108 N1109 1.314 . S
C1108 C1110 1.353 . S
C1108 H1114 0.930 . S
N1109 Li1059 1.990 . S
N1109 C1108 1.314 . S
N1109 C1112 1.279 . S
C1110 C1108 1.353 . S
C1110 C1113 1.348 . S
C1110 H1142 0.929 . S
C1111 C1112 1.358 . S
C1111 C1113 1.356 . S
C1111 H1143 0.930 . S
C1112 N1109 1.279 . S
C1112 C1111 1.358 . S
C1112 H1115 0.930 . S
C1113 C1110 1.348 . S
C1113 C1111 1.356 . S
H1114 C1108 0.930 . S
H1115 C1112 0.930 . S
O1116 Li1056 1.956 . S
O1116 Li1057 1.970 . S
O1116 Li1058 1.961 . S
O1116 C1060 1.325 1_545 S
O1117 Li1056 1.970 . S
O1117 Li1057 1.956 . S
O1117 Li1059 1.961 . S
O1117 C1066 1.325 . S
O1118 Li1056 1.961 . S
O1118 Li1058 1.956 . S
O1118 Li1059 1.970 . S
O1118 C1088 1.325 . S
O1119 Li1057 1.961 . S
O1119 Li1058 1.970 . S
O1119 Li1059 1.956 . S
O1119 C1094 1.325 . S
H1120 C1062 0.929 . S
H1121 C1063 0.930 . S
H1122 C1064 0.930 . S
H1123 C1065 0.930 . S
H1124 C1067 0.930 . S
H1125 C1069 0.929 . S
H1126 C1070 0.930 . S
H1127 C1071 0.930 . S
H1128 C1074 0.930 . S
H1129 C1077 0.929 . S
H1130 C1082 0.929 . S
H1131 C1083 0.930 . S
H1132 C1090 0.929 . S
H1133 C1091 0.930 . S
H1134 C1092 0.930 . S
H1135 C1093 0.930 . S
H1136 C1095 0.929 . S
H1137 C1096 0.930 . S
H1138 C1097 0.930 . S
H1139 C1098 0.930 . S
H1140 C1102 0.929 . S
H1141 C1104 0.930 . S
H1142 C1110 0.929 . S
H1143 C1111 0.930 . S
Li1144 N1161 1.990 1_655 S
Li1144 O1204 1.956 . S
Li1144 O1205 1.970 . S
Li1144 O1206 1.961 . S
Li1145 N1169 1.990 . S
Li1145 O1204 1.970 . S
Li1145 O1205 1.956 . S
Li1145 O1207 1.961 . S
Li1146 N1191 1.990 . S
Li1146 O1204 1.961 . S
Li1146 O1206 1.956 . S
Li1146 O1207 1.970 . S
Li1147 N1197 1.990 . S
Li1147 O1205 1.961 . S
Li1147 O1206 1.970 . S
Li1147 O1207 1.956 . S
C1148 C1150 1.348 . S
C1148 C1151 1.356 . S
C1148 O1204 1.325 1_455 S
N1149 C1152 1.314 . S
N1149 C1153 1.279 . S
C1150 C1148 1.348 . S
C1150 C1152 1.353 . S
C1150 H1208 0.929 . S
C1151 C1148 1.356 . S
C1151 C1153 1.358 . S
C1151 H1209 0.930 . S
C1152 N1149 1.314 . S
C1152 C1150 1.353 . S
C1152 H1210 0.930 . S
C1153 N1149 1.279 . S
C1153 C1151 1.358 . S
C1153 H1211 0.930 . S
C1154 C1157 1.348 1_655 S
C1154 C1158 1.356 . S
C1154 O1205 1.325 . S
C1155 N1156 1.279 . S
C1155 C1158 1.358 . S
C1155 H1212 0.930 . S
N1156 C1155 1.279 . S
N1156 C1159 1.314 1_655 S
C1157 C1154 1.348 1_455 S
C1157 C1159 1.353 . S
C1157 H1213 0.929 . S
C1158 C1154 1.356 . S
C1158 C1155 1.358 . S
C1158 H1214 0.930 . S
C1159 N1156 1.314 1_455 S
C1159 C1157 1.353 . S
C1159 H1215 0.930 . S
C1160 N1161 1.314 . S
C1160 C1165 1.353 . S
C1160 H1166 0.930 . S
N1161 Li1144 1.990 1_455 S
N1161 C1160 1.314 . S
N1161 C1163 1.279 . S
C1162 C1163 1.358 . S
C1162 C1164 1.356 . S
C1162 H1216 0.930 . S
C1163 N1161 1.279 . S
C1163 C1162 1.358 . S
C1163 H1167 0.930 . S
C1164 C1162 1.356 . S
C1164 C1165 1.348 . S
C1165 C1160 1.353 . S
C1165 C1164 1.348 . S
C1165 H1217 0.929 . S
H1166 C1160 0.930 . S
H1167 C1163 0.930 . S
C1168 N1169 1.314 . S
C1168 C1170 1.353 . S
C1168 H1174 0.930 . S
N1169 Li1145 1.990 . S
N1169 C1168 1.314 . S
N1169 C1172 1.279 . S
C1170 C1168 1.353 . S
C1170 C1173 1.348 . S
C1170 H1218 0.929 . S
C1171 C1172 1.358 . S
C1171 C1173 1.356 . S
C1171 H1219 0.930 . S
C1172 N1169 1.279 . S
C1172 C1171 1.358 . S
C1172 H1175 0.930 . S
C1173 C1170 1.348 . S
C1173 C1171 1.356 . S
H1174 C1168 0.930 . S
H1175 C1172 0.930 . S
C1176 C1178 1.348 . S
C1176 C1179 1.356 . S
C1176 O1206 1.325 . S
N1177 C1180 1.314 . S
N1177 C1181 1.279 . S
C1178 C1176 1.348 . S
C1178 C1180 1.353 . S
C1178 H1220 0.929 . S
C1179 C1176 1.356 . S
C1179 C1181 1.358 . S
C1179 H1221 0.930 . S
C1180 N1177 1.314 . S
C1180 C1178 1.353 . S
C1180 H1222 0.930 . S
C1181 N1177 1.279 . S
C1181 C1179 1.358 . S
C1181 H1223 0.930 . S
C1182 C1183 1.348 . S
C1182 C1184 1.356 . S
C1182 O1207 1.325 . S
C1183 C1182 1.348 . S
C1183 C1185 1.353 . S
C1183 H1224 0.929 . S
C1184 C1182 1.356 . S
C1184 C1186 1.358 . S
C1184 H1225 0.930 . S
C1185 C1183 1.353 . S
C1185 N1187 1.314 . S
C1185 H1226 0.930 . S
C1186 C1184 1.358 . S
C1186 N1187 1.279 . S
C1186 H1227 0.930 . S
N1187 C1185 1.314 . S
N1187 C1186 1.279 . S
C1188 C1190 1.353 . S
C1188 N1191 1.314 . S
C1188 H1194 0.930 . S
C1189 N1191 1.279 . S
C1189 C1192 1.358 . S
C1189 H1195 0.930 . S
C1190 C1188 1.353 . S
C1190 C1193 1.348 . S
C1190 H1228 0.929 . S
N1191 Li1146 1.990 . S
N1191 C1188 1.314 . S
N1191 C1189 1.279 . S
C1192 C1189 1.358 . S
C1192 C1193 1.356 . S
C1192 H1229 0.930 . S
C1193 C1190 1.348 . S
C1193 C1192 1.356 . S
H1194 C1188 0.930 . S
H1195 C1189 0.930 . S
C1196 N1197 1.314 . S
C1196 C1198 1.353 . S
C1196 H1202 0.930 . S
N1197 Li1147 1.990 . S
N1197 C1196 1.314 . S
N1197 C1200 1.279 . S
C1198 C1196 1.353 . S
C1198 C1201 1.348 . S
C1198 H1230 0.929 . S
C1199 C1200 1.358 . S
C1199 C1201 1.356 . S
C1199 H1231 0.930 . S
C1200 N1197 1.279 . S
C1200 C1199 1.358 . S
C1200 H1203 0.930 . S
C1201 C1198 1.348 . S
C1201 C1199 1.356 . S
H1202 C1196 0.930 . S
H1203 C1200 0.930 . S
O1204 Li1144 1.956 . S
O1204 Li1145 1.970 . S
O1204 Li1146 1.961 . S
O1204 C1148 1.325 1_655 S
O1205 Li1144 1.970 . S
O1205 Li1145 1.956 . S
O1205 Li1147 1.961 . S
O1205 C1154 1.325 . S
O1206 Li1144 1.961 . S
O1206 Li1146 1.956 . S
O1206 Li1147 1.970 . S
O1206 C1176 1.325 . S
O1207 Li1145 1.961 . S
O1207 Li1146 1.970 . S
O1207 Li1147 1.956 . S
O1207 C1182 1.325 . S
H1208 C1150 0.929 . S
H1209 C1151 0.930 . S
H1210 C1152 0.930 . S
H1211 C1153 0.930 . S
H1212 C1155 0.930 . S
H1213 C1157 0.929 . S
H1214 C1158 0.930 . S
H1215 C1159 0.930 . S
H1216 C1162 0.930 . S
H1217 C1165 0.929 . S
H1218 C1170 0.929 . S
H1219 C1171 0.930 . S
H1220 C1178 0.929 . S
H1221 C1179 0.930 . S
H1222 C1180 0.930 . S
H1223 C1181 0.930 . S
H1224 C1183 0.929 . S
H1225 C1184 0.930 . S
H1226 C1185 0.930 . S
H1227 C1186 0.930 . S
H1228 C1190 0.929 . S
H1229 C1192 0.930 . S
H1230 C1198 0.929 . S
H1231 C1199 0.930 . S
Li1232 N1249 1.990 . S
Li1232 O1292 1.956 . S
Li1232 O1293 1.970 . S
Li1232 O1294 1.961 . S
Li1233 N1257 1.990 . S
Li1233 O1292 1.970 . S
Li1233 O1293 1.956 . S
Li1233 O1295 1.961 . S
Li1234 N1279 1.990 . S
Li1234 O1292 1.961 . S
Li1234 O1294 1.956 . S
Li1234 O1295 1.970 . S
Li1235 N1285 1.990 . S
Li1235 O1293 1.961 . S
Li1235 O1294 1.970 . S
Li1235 O1295 1.956 . S
C1236 C1238 1.348 . S
C1236 C1239 1.356 . S
C1236 O1292 1.325 . S
N1237 C1240 1.314 . S
N1237 C1241 1.279 . S
C1238 C1236 1.348 . S
C1238 C1240 1.353 . S
C1238 H1296 0.929 . S
C1239 C1236 1.356 . S
C1239 C1241 1.358 . S
C1239 H1297 0.930 . S
C1240 N1237 1.314 . S
C1240 C1238 1.353 . S
C1240 H1298 0.930 . S
C1241 N1237 1.279 . S
C1241 C1239 1.358 . S
C1241 H1299 0.930 . S
C1242 C1245 1.348 . S
C1242 C1246 1.356 . S
C1242 O1293 1.325 . S
C1243 N1244 1.279 . S
C1243 C1246 1.358 . S
C1243 H1300 0.930 . S
N1244 C1243 1.279 . S
N1244 C1247 1.314 . S
C1245 C1242 1.348 . S
C1245 C1247 1.353 . S
C1245 H1301 0.929 . S
C1246 C1242 1.356 . S
C1246 C1243 1.358 . S
C1246 H1302 0.930 . S
C1247 N1244 1.314 . S
C1247 C1245 1.353 . S
C1247 H1303 0.930 . S
C1248 N1249 1.314 . S
C1248 C1253 1.353 . S
C1248 H1254 0.930 . S
N1249 Li1232 1.990 . S
N1249 C1248 1.314 . S
N1249 C1251 1.279 . S
C1250 C1251 1.358 . S
C1250 C1252 1.356 . S
C1250 H1304 0.930 . S
C1251 N1249 1.279 . S
C1251 C1250 1.358 . S
C1251 H1255 0.930 . S
C1252 C1250 1.356 . S
C1252 C1253 1.348 . S
C1253 C1248 1.353 . S
C1253 C1252 1.348 . S
C1253 H1305 0.929 . S
H1254 C1248 0.930 . S
H1255 C1251 0.930 . S
C1256 N1257 1.314 . S
C1256 C1258 1.353 . S
C1256 H1262 0.930 . S
N1257 Li1233 1.990 . S
N1257 C1256 1.314 . S
N1257 C1260 1.279 . S
C1258 C1256 1.353 . S
C1258 C1261 1.348 . S
C1258 H1306 0.929 . S
C1259 C1260 1.358 . S
C1259 C1261 1.356 . S
C1259 H1307 0.930 . S
C1260 N1257 1.279 . S
C1260 C1259 1.358 . S
C1260 H1263 0.930 . S
C1261 C1258 1.348 . S
C1261 C1259 1.356 . S
H1262 C1256 0.930 . S
H1263 C1260 0.930 . S
C1264 C1266 1.348 . S
C1264 C1267 1.356 . S
C1264 O1294 1.325 . S
N1265 C1268 1.314 . S
N1265 C1269 1.279 . S
C1266 C1264 1.348 . S
C1266 C1268 1.353 . S
C1266 H1308 0.929 . S
C1267 C1264 1.356 . S
C1267 C1269 1.358 . S
C1267 H1309 0.930 . S
C1268 N1265 1.314 . S
C1268 C1266 1.353 . S
C1268 H1310 0.930 . S
C1269 N1265 1.279 . S
C1269 C1267 1.358 . S
C1269 H1311 0.930 . S
C1270 C1271 1.348 . S
C1270 C1272 1.356 . S
C1270 O1295 1.325 . S
C1271 C1270 1.348 . S
C1271 C1273 1.353 . S
C1271 H1312 0.929 . S
C1272 C1270 1.356 . S
C1272 C1274 1.358 . S
C1272 H1313 0.930 . S
C1273 C1271 1.353 . S
C1273 N1275 1.314 . S
C1273 H1314 0.930 . S
C1274 C1272 1.358 . S
C1274 N1275 1.279 . S
C1274 H1315 0.930 . S
N1275 C1273 1.314 . S
N1275 C1274 1.279 . S
C1276 C1278 1.353 . S
C1276 N1279 1.314 . S
C1276 H1282 0.930 . S
C1277 N1279 1.279 . S
C1277 C1280 1.358 . S
C1277 H1283 0.930 . S
C1278 C1276 1.353 . S
C1278 C1281 1.348 . S
C1278 H1316 0.929 . S
N1279 Li1234 1.990 . S
N1279 C1276 1.314 . S
N1279 C1277 1.279 . S
C1280 C1277 1.358 . S
C1280 C1281 1.356 . S
C1280 H1317 0.930 . S
C1281 C1278 1.348 . S
C1281 C1280 1.356 . S
H1282 C1276 0.930 . S
H1283 C1277 0.930 . S
C1284 N1285 1.314 . S
C1284 C1286 1.353 . S
C1284 H1290 0.930 . S
N1285 Li1235 1.990 . S
N1285 C1284 1.314 . S
N1285 C1288 1.279 . S
C1286 C1284 1.353 . S
C1286 C1289 1.348 . S
C1286 H1318 0.929 . S
C1287 C1288 1.358 . S
C1287 C1289 1.356 . S
C1287 H1319 0.930 . S
C1288 N1285 1.279 . S
C1288 C1287 1.358 . S
C1288 H1291 0.930 . S
C1289 C1286 1.348 . S
C1289 C1287 1.356 . S
H1290 C1284 0.930 . S
H1291 C1288 0.930 . S
O1292 Li1232 1.956 . S
O1292 Li1233 1.970 . S
O1292 Li1234 1.961 . S
O1292 C1236 1.325 . S
O1293 Li1232 1.970 . S
O1293 Li1233 1.956 . S
O1293 Li1235 1.961 . S
O1293 C1242 1.325 . S
O1294 Li1232 1.961 . S
O1294 Li1234 1.956 . S
O1294 Li1235 1.970 . S
O1294 C1264 1.325 . S
O1295 Li1233 1.961 . S
O1295 Li1234 1.970 . S
O1295 Li1235 1.956 . S
O1295 C1270 1.325 . S
H1296 C1238 0.929 . S
H1297 C1239 0.930 . S
H1298 C1240 0.930 . S
H1299 C1241 0.930 . S
H1300 C1243 0.930 . S
H1301 C1245 0.929 . S
H1302 C1246 0.930 . S
H1303 C1247 0.930 . S
H1304 C1250 0.930 . S
H1305 C1253 0.929 . S
H1306 C1258 0.929 . S
H1307 C1259 0.930 . S
H1308 C1266 0.929 . S
H1309 C1267 0.930 . S
H1310 C1268 0.930 . S
H1311 C1269 0.930 . S
H1312 C1271 0.929 . S
H1313 C1272 0.930 . S
H1314 C1273 0.930 . S
H1315 C1274 0.930 . S
H1316 C1278 0.929 . S
H1317 C1280 0.930 . S
H1318 C1286 0.929 . S
H1319 C1287 0.930 . S
Li1320 N1337 1.990 . S
Li1320 O1380 1.956 . S
Li1320 O1381 1.970 . S
Li1320 O1382 1.961 . S
Li1321 N1345 1.990 . S
Li1321 O1380 1.970 . S
Li1321 O1381 1.956 . S
Li1321 O1383 1.961 . S
Li1322 N1367 1.990 . S
Li1322 O1380 1.961 . S
Li1322 O1382 1.956 . S
Li1322 O1383 1.970 . S
Li1323 N1373 1.990 . S
Li1323 O1381 1.961 . S
Li1323 O1382 1.970 . S
Li1323 O1383 1.956 . S
C1324 C1326 1.348 . S
C1324 C1327 1.356 . S
C1324 O1380 1.325 . S
N1325 C1328 1.314 . S
N1325 C1329 1.279 . S
C1326 C1324 1.348 . S
C1326 C1328 1.353 . S
C1326 H1384 0.929 . S
C1327 C1324 1.356 . S
C1327 C1329 1.358 . S
C1327 H1385 0.930 . S
C1328 N1325 1.314 . S
C1328 C1326 1.353 . S
C1328 H1386 0.930 . S
C1329 N1325 1.279 . S
C1329 C1327 1.358 . S
C1329 H1387 0.930 . S
C1330 C1333 1.348 . S
C1330 C1334 1.356 . S
C1330 O1381 1.325 . S
C1331 N1332 1.279 . S
C1331 C1334 1.358 . S
C1331 H1388 0.930 . S
N1332 C1331 1.279 . S
N1332 C1335 1.314 . S
C1333 C1330 1.348 . S
C1333 C1335 1.353 . S
C1333 H1389 0.929 . S
C1334 C1330 1.356 . S
C1334 C1331 1.358 . S
C1334 H1390 0.930 . S
C1335 N1332 1.314 . S
C1335 C1333 1.353 . S
C1335 H1391 0.930 . S
C1336 N1337 1.314 . S
C1336 C1341 1.353 . S
C1336 H1342 0.930 . S
N1337 Li1320 1.990 . S
N1337 C1336 1.314 . S
N1337 C1339 1.279 . S
C1338 C1339 1.358 . S
C1338 C1340 1.356 . S
C1338 H1392 0.930 . S
C1339 N1337 1.279 . S
C1339 C1338 1.358 . S
C1339 H1343 0.930 . S
C1340 C1338 1.356 . S
C1340 C1341 1.348 . S
C1341 C1336 1.353 . S
C1341 C1340 1.348 . S
C1341 H1393 0.929 . S
H1342 C1336 0.930 . S
H1343 C1339 0.930 . S
C1344 N1345 1.314 . S
C1344 C1346 1.353 . S
C1344 H1350 0.930 . S
N1345 Li1321 1.990 . S
N1345 C1344 1.314 . S
N1345 C1348 1.279 . S
C1346 C1344 1.353 . S
C1346 C1349 1.348 . S
C1346 H1394 0.929 . S
C1347 C1348 1.358 . S
C1347 C1349 1.356 . S
C1347 H1395 0.930 . S
C1348 N1345 1.279 . S
C1348 C1347 1.358 . S
C1348 H1351 0.930 . S
C1349 C1346 1.348 . S
C1349 C1347 1.356 . S
H1350 C1344 0.930 . S
H1351 C1348 0.930 . S
C1352 C1354 1.348 . S
C1352 C1355 1.356 . S
C1352 O1382 1.325 . S
N1353 C1356 1.314 . S
N1353 C1357 1.279 . S
C1354 C1352 1.348 . S
C1354 C1356 1.353 . S
C1354 H1396 0.929 . S
C1355 C1352 1.356 . S
C1355 C1357 1.358 . S
C1355 H1397 0.930 . S
C1356 N1353 1.314 . S
C1356 C1354 1.353 . S
C1356 H1398 0.930 . S
C1357 N1353 1.279 . S
C1357 C1355 1.358 . S
C1357 H1399 0.930 . S
C1358 C1359 1.348 . S
C1358 C1360 1.356 . S
C1358 O1383 1.325 . S
C1359 C1358 1.348 . S
C1359 C1361 1.353 . S
C1359 H1400 0.929 . S
C1360 C1358 1.356 . S
C1360 C1362 1.358 . S
C1360 H1401 0.930 . S
C1361 C1359 1.353 . S
C1361 N1363 1.314 . S
C1361 H1402 0.930 . S
C1362 C1360 1.358 . S
C1362 N1363 1.279 . S
C1362 H1403 0.930 . S
N1363 C1361 1.314 . S
N1363 C1362 1.279 . S
C1364 C1366 1.353 . S
C1364 N1367 1.314 . S
C1364 H1370 0.930 . S
C1365 N1367 1.279 . S
C1365 C1368 1.358 . S
C1365 H1371 0.930 . S
C1366 C1364 1.353 . S
C1366 C1369 1.348 . S
C1366 H1404 0.929 . S
N1367 Li1322 1.990 . S
N1367 C1364 1.314 . S
N1367 C1365 1.279 . S
C1368 C1365 1.358 . S
C1368 C1369 1.356 . S
C1368 H1405 0.930 . S
C1369 C1366 1.348 . S
C1369 C1368 1.356 . S
H1370 C1364 0.930 . S
H1371 C1365 0.930 . S
C1372 N1373 1.314 . S
C1372 C1374 1.353 . S
C1372 H1378 0.930 . S
N1373 Li1323 1.990 . S
N1373 C1372 1.314 . S
N1373 C1376 1.279 . S
C1374 C1372 1.353 . S
C1374 C1377 1.348 . S
C1374 H1406 0.929 . S
C1375 C1376 1.358 . S
C1375 C1377 1.356 . S
C1375 H1407 0.930 . S
C1376 N1373 1.279 . S
C1376 C1375 1.358 . S
C1376 H1379 0.930 . S
C1377 C1374 1.348 . S
C1377 C1375 1.356 . S
H1378 C1372 0.930 . S
H1379 C1376 0.930 . S
O1380 Li1320 1.956 . S
O1380 Li1321 1.970 . S
O1380 Li1322 1.961 . S
O1380 C1324 1.325 . S
O1381 Li1320 1.970 . S
O1381 Li1321 1.956 . S
O1381 Li1323 1.961 . S
O1381 C1330 1.325 . S
O1382 Li1320 1.961 . S
O1382 Li1322 1.956 . S
O1382 Li1323 1.970 . S
O1382 C1352 1.325 . S
O1383 Li1321 1.961 . S
O1383 Li1322 1.970 . S
O1383 Li1323 1.956 . S
O1383 C1358 1.325 . S
H1384 C1326 0.929 . S
H1385 C1327 0.930 . S
H1386 C1328 0.930 . S
H1387 C1329 0.930 . S
H1388 C1331 0.930 . S
H1389 C1333 0.929 . S
H1390 C1334 0.930 . S
H1391 C1335 0.930 . S
H1392 C1338 0.930 . S
H1393 C1341 0.929 . S
H1394 C1346 0.929 . S
H1395 C1347 0.930 . S
H1396 C1354 0.929 . S
H1397 C1355 0.930 . S
H1398 C1356 0.930 . S
H1399 C1357 0.930 . S
H1400 C1359 0.929 . S
H1401 C1360 0.930 . S
H1402 C1361 0.930 . S
H1403 C1362 0.930 . S
H1404 C1366 0.929 . S
H1405 C1368 0.930 . S
H1406 C1374 0.929 . S
H1407 C1375 0.930 . S
Li1408 N1425 1.990 . S
Li1408 O1468 1.956 . S
Li1408 O1469 1.970 . S
Li1408 O1470 1.961 . S
Li1409 N1433 1.990 . S
Li1409 O1468 1.970 . S
Li1409 O1469 1.956 . S
Li1409 O1471 1.961 . S
Li1410 N1455 1.990 . S
Li1410 O1468 1.961 . S
Li1410 O1470 1.956 . S
Li1410 O1471 1.970 . S
Li1411 N1461 1.990 1_545 S
Li1411 O1469 1.961 . S
Li1411 O1470 1.970 . S
Li1411 O1471 1.956 . S
C1412 C1414 1.348 . S
C1412 C1415 1.356 . S
C1412 O1468 1.325 . S
N1413 C1416 1.314 . S
N1413 C1417 1.279 . S
C1414 C1412 1.348 . S
C1414 C1416 1.353 . S
C1414 H1472 0.929 . S
C1415 C1412 1.356 . S
C1415 C1417 1.358 . S
C1415 H1473 0.930 . S
C1416 N1413 1.314 . S
C1416 C1414 1.353 . S
C1416 H1474 0.930 . S
C1417 N1413 1.279 . S
C1417 C1415 1.358 . S
C1417 H1475 0.930 . S
C1418 C1421 1.348 . S
C1418 C1422 1.356 . S
C1418 O1469 1.325 1_565 S
C1419 N1420 1.279 . S
C1419 C1422 1.358 . S
C1419 H1476 0.930 . S
N1420 C1419 1.279 . S
N1420 C1423 1.314 . S
C1421 C1418 1.348 . S
C1421 C1423 1.353 . S
C1421 H1477 0.929 1_565 S
C1422 C1418 1.356 . S
C1422 C1419 1.358 . S
C1422 H1478 0.930 . S
C1423 N1420 1.314 . S
C1423 C1421 1.353 . S
C1423 H1479 0.930 . S
C1424 N1425 1.314 . S
C1424 C1429 1.353 . S
C1424 H1430 0.988 . S
N1425 Li1408 1.990 . S
N1425 C1424 1.314 . S
N1425 C1427 1.279 . S
C1426 C1427 1.358 . S
C1426 C1428 1.356 . S
C1426 H1480 0.930 . S
C1427 N1425 1.279 . S
C1427 C1426 1.358 . S
C1427 H1431 0.930 . S
C1428 C1426 1.356 . S
C1428 C1429 1.348 . S
C1429 C1424 1.353 . S
C1429 C1428 1.348 . S
C1429 H1481 0.929 1_545 S
H1430 C1424 0.988 . S
H1431 C1427 0.930 . S
C1432 N1433 1.314 . S
C1432 C1434 1.353 . S
C1432 H1438 0.930 . S
N1433 Li1409 1.990 . S
N1433 C1432 1.314 . S
N1433 C1436 1.279 . S
C1434 C1432 1.353 . S
C1434 C1437 1.348 . S
C1434 H1482 0.929 . S
C1435 C1436 1.358 . S
C1435 C1437 1.356 . S
C1435 H1483 0.930 . S
C1436 N1433 1.279 . S
C1436 C1435 1.358 . S
C1436 H1439 0.930 . S
C1437 C1434 1.348 . S
C1437 C1435 1.356 . S
H1438 C1432 0.930 . S
H1439 C1436 0.930 . S
C1440 C1442 1.410 . S
C1440 C1443 1.356 . S
C1440 O1470 1.325 . S
N1441 C1444 1.314 1_545 S
N1441 C1445 1.279 . S
C1442 C1440 1.410 . S
C1442 C1444 1.376 1_545 S
C1442 H1484 0.852 1_545 S
C1443 C1440 1.356 . S
C1443 C1445 1.358 . S
C1443 H1485 0.930 . S
C1444 N1441 1.314 1_565 S
C1444 C1442 1.376 1_565 S
C1444 H1486 0.930 . S
C1445 N1441 1.279 . S
C1445 C1443 1.358 . S
C1445 H1487 0.930 . S
C1446 C1447 1.348 . S
C1446 C1448 1.356 . S
C1446 O1471 1.325 . S
C1447 C1446 1.348 . S
C1447 C1449 1.353 . S
C1447 H1488 0.929 . S
C1448 C1446 1.356 . S
C1448 C1450 1.358 . S
C1448 H1489 0.930 . S
C1449 C1447 1.353 . S
C1449 N1451 1.314 . S
C1449 H1490 0.930 . S
C1450 C1448 1.358 . S
C1450 N1451 1.279 . S
C1450 H1491 0.930 . S
N1451 C1449 1.314 . S
N1451 C1450 1.279 . S
C1452 C1454 1.353 . S
C1452 N1455 1.314 . S
C1452 H1458 0.930 . S
C1453 N1455 1.279 . S
C1453 C1456 1.358 . S
C1453 H1459 0.930 . S
C1454 C1452 1.353 . S
C1454 C1457 1.348 . S
C1454 H1492 0.929 . S
N1455 Li1410 1.990 . S
N1455 C1452 1.314 . S
N1455 C1453 1.279 . S
C1456 C1453 1.358 . S
C1456 C1457 1.356 . S
C1456 H1493 0.930 . S
C1457 C1454 1.348 . S
C1457 C1456 1.356 . S
H1458 C1452 0.930 . S
H1459 C1453 0.930 . S
C1460 N1461 1.314 . S
C1460 C1462 1.353 . S
C1460 H1466 0.930 . S
N1461 Li1411 1.990 1_565 S
N1461 C1460 1.314 . S
N1461 C1464 1.279 . S
C1462 C1460 1.353 . S
C1462 C1465 1.348 . S
C1462 H1494 0.929 . S
C1463 C1464 1.358 . S
C1463 C1465 1.356 . S
C1463 H1495 0.930 . S
C1464 N1461 1.279 . S
C1464 C1463 1.358 . S
C1464 H1467 0.930 . S
C1465 C1462 1.348 . S
C1465 C1463 1.356 . S
H1466 C1460 0.930 . S
H1467 C1464 0.930 . S
O1468 Li1408 1.956 . S
O1468 Li1409 1.970 . S
O1468 Li1410 1.961 . S
O1468 C1412 1.325 . S
O1469 Li1408 1.970 . S
O1469 Li1409 1.956 . S
O1469 Li1411 1.961 . S
O1469 C1418 1.325 1_545 S
O1470 Li1408 1.961 . S
O1470 Li1410 1.956 . S
O1470 Li1411 1.970 . S
O1470 C1440 1.325 . S
O1471 Li1409 1.961 . S
O1471 Li1410 1.970 . S
O1471 Li1411 1.956 . S
O1471 C1446 1.325 . S
H1472 C1414 0.929 . S
H1473 C1415 0.930 . S
H1474 C1416 0.930 . S
H1475 C1417 0.930 . S
H1476 C1419 0.930 . S
H1477 C1421 0.929 1_545 S
H1478 C1422 0.930 . S
H1479 C1423 0.930 . S
H1480 C1426 0.930 . S
H1481 C1429 0.929 1_565 S
H1482 C1434 0.929 . S
H1483 C1435 0.930 . S
H1484 C1442 0.852 1_565 S
H1485 C1443 0.930 . S
H1486 C1444 0.930 . S
H1487 C1445 0.930 . S
H1488 C1447 0.929 . S
H1489 C1448 0.930 . S
H1490 C1449 0.930 . S
H1491 C1450 0.930 . S
H1492 C1454 0.929 . S
H1493 C1456 0.930 . S
H1494 C1462 0.929 . S
H1495 C1463 0.930 . S
Li1496 N1513 1.990 . S
Li1496 O1556 1.956 . S
Li1496 O1557 1.970 . S
Li1496 O1558 1.961 . S
Li1497 N1521 1.990 . S
Li1497 O1556 1.970 . S
Li1497 O1557 1.956 . S
Li1497 O1559 1.961 . S
Li1498 N1543 1.990 1_655 S
Li1498 O1556 1.961 . S
Li1498 O1558 1.956 . S
Li1498 O1559 1.970 . S
Li1499 N1549 1.990 . S
Li1499 O1557 1.961 . S
Li1499 O1558 1.970 . S
Li1499 O1559 1.956 . S
C1500 C1502 1.348 . S
C1500 C1503 1.356 . S
C1500 O1556 1.325 1_455 S
N1501 C1504 1.314 . S
N1501 C1505 1.279 . S
C1502 C1500 1.348 . S
C1502 C1504 1.353 . S
C1502 H1560 0.929 1_455 S
C1503 C1500 1.356 . S
C1503 C1505 1.358 . S
C1503 H1561 0.930 . S
C1504 N1501 1.314 . S
C1504 C1502 1.353 . S
C1504 H1562 0.930 . S
C1505 N1501 1.279 . S
C1505 C1503 1.358 . S
C1505 H1563 0.930 . S
C1506 C1509 1.348 . S
C1506 C1510 1.356 . S
C1506 O1557 1.325 . S
C1507 N1508 1.279 . S
C1507 C1510 1.358 . S
C1507 H1564 0.930 . S
N1508 C1507 1.279 . S
N1508 C1511 1.314 . S
C1509 C1506 1.348 . S
C1509 C1511 1.353 . S
C1509 H1565 0.929 . S
C1510 C1506 1.356 . S
C1510 C1507 1.358 . S
C1510 H1566 0.930 . S
C1511 N1508 1.314 . S
C1511 C1509 1.353 . S
C1511 H1567 0.930 . S
C1512 N1513 1.314 . S
C1512 C1517 1.353 . S
C1512 H1518 0.930 . S
N1513 Li1496 1.990 . S
N1513 C1512 1.314 . S
N1513 C1515 1.279 . S
C1514 C1515 1.358 . S
C1514 C1516 1.356 . S
C1514 H1568 0.930 . S
C1515 N1513 1.279 . S
C1515 C1514 1.358 . S
C1515 H1519 0.930 . S
C1516 C1514 1.356 . S
C1516 C1517 1.348 . S
C1517 C1512 1.353 . S
C1517 C1516 1.348 . S
C1517 H1569 0.929 . S
H1518 C1512 0.930 . S
H1519 C1515 0.930 . S
C1520 N1521 1.314 . S
C1520 C1522 1.353 . S
C1520 H1526 0.930 . S
N1521 Li1497 1.990 . S
N1521 C1520 1.314 . S
N1521 C1524 1.279 . S
C1522 C1520 1.353 . S
C1522 C1525 1.348 . S
C1522 H1570 0.933 . S
C1523 C1524 1.358 . S
C1523 C1525 1.356 . S
C1523 H1571 0.930 . S
C1524 N1521 1.279 . S
C1524 C1523 1.358 . S
C1524 H1527 0.930 . S
C1525 C1522 1.348 . S
C1525 C1523 1.356 . S
H1526 C1520 0.930 . S
H1527 C1524 0.930 . S
C1528 C1530 1.348 . S
C1528 C1531 1.356 . S
C1528 O1558 1.325 . S
N1529 C1532 1.314 . S
N1529 C1533 1.279 . S
C1530 C1528 1.348 . S
C1530 C1532 1.353 . S
C1530 H1572 0.929 . S
C1531 C1528 1.356 . S
C1531 C1533 1.358 . S
C1531 H1573 0.930 . S
C1532 N1529 1.314 . S
C1532 C1530 1.353 . S
C1532 H1574 0.930 . S
C1533 N1529 1.279 . S
C1533 C1531 1.358 . S
C1533 H1575 0.930 . S
C1534 C1535 1.348 . S
C1534 C1536 1.356 . S
C1534 O1559 1.325 . S
C1535 C1534 1.348 . S
C1535 C1537 1.380 . S
C1535 H1576 0.929 1_655 S
C1536 C1534 1.356 . S
C1536 C1538 1.358 . S
C1536 H1577 0.930 . S
C1537 C1535 1.380 . S
C1537 N1539 1.312 . S
C1537 H1578 0.905 1_655 S
C1538 C1536 1.358 . S
C1538 N1539 1.279 . S
C1538 H1579 0.930 . S
N1539 C1537 1.312 . S
N1539 C1538 1.279 . S
C1540 C1542 1.353 . S
C1540 N1543 1.314 . S
C1540 H1546 0.930 . S
C1541 N1543 1.279 . S
C1541 C1544 1.358 . S
C1541 H1547 0.930 . S
C1542 C1540 1.353 . S
C1542 C1545 1.348 . S
C1542 H1580 0.929 . S
N1543 Li1498 1.990 1_455 S
N1543 C1540 1.314 . S
N1543 C1541 1.279 . S
C1544 C1541 1.358 . S
C1544 C1545 1.356 . S
C1544 H1581 0.930 . S
C1545 C1542 1.348 . S
C1545 C1544 1.356 . S
H1546 C1540 0.930 . S
H1547 C1541 0.930 . S
C1548 N1549 1.314 . S
C1548 C1550 1.353 . S
C1548 H1554 0.930 . S
N1549 Li1499 1.990 . S
N1549 C1548 1.314 . S
N1549 C1552 1.279 . S
C1550 C1548 1.353 . S
C1550 C1553 1.348 . S
C1550 H1582 0.929 . S
C1551 C1552 1.358 . S
C1551 C1553 1.356 . S
C1551 H1583 0.930 . S
C1552 N1549 1.279 . S
C1552 C1551 1.358 . S
C1552 H1555 0.930 . S
C1553 C1550 1.348 . S
C1553 C1551 1.356 . S
H1554 C1548 0.930 . S
H1555 C1552 0.930 . S
O1556 Li1496 1.956 . S
O1556 Li1497 1.970 . S
O1556 Li1498 1.961 . S
O1556 C1500 1.325 1_655 S
O1557 Li1496 1.970 . S
O1557 Li1497 1.956 . S
O1557 Li1499 1.961 . S
O1557 C1506 1.325 . S
O1558 Li1496 1.961 . S
O1558 Li1498 1.956 . S
O1558 Li1499 1.970 . S
O1558 C1528 1.325 . S
O1559 Li1497 1.961 . S
O1559 Li1498 1.970 . S
O1559 Li1499 1.956 . S
O1559 C1534 1.325 . S
H1560 C1502 0.929 1_655 S
H1561 C1503 0.930 . S
H1562 C1504 0.930 . S
H1563 C1505 0.930 . S
H1564 C1507 0.930 . S
H1565 C1509 0.929 . S
H1566 C1510 0.930 . S
H1567 C1511 0.930 . S
H1568 C1514 0.930 . S
H1569 C1517 0.929 . S
H1570 C1522 0.933 . S
H1571 C1523 0.930 . S
H1572 C1530 0.929 . S
H1573 C1531 0.930 . S
H1574 C1532 0.930 . S
H1575 C1533 0.930 . S
H1576 C1535 0.929 1_455 S
H1577 C1536 0.930 . S
H1578 C1537 0.905 1_455 S
H1579 C1538 0.930 . S
H1580 C1542 0.929 . S
H1581 C1544 0.930 . S
H1582 C1550 0.929 . S
H1583 C1551 0.930 . S
C1584 C1585 1.560 . S
C1584 H1645 0.959 . S
C1584 H1646 0.959 . S
C1584 H1647 0.960 . S
C1585 C1584 1.560 . S
C1585 O1640 1.426 . S
C1585 H1644 0.980 . S
C1586 C1587 1.407 . S
C1586 C1591 1.418 . S
C1586 O1640 1.334 . S
C1587 C1586 1.407 . S
C1587 C1588 1.360 . S
C1587 H1648 0.929 . S
C1588 C1587 1.360 . S
C1588 C1589 1.401 . S
C1588 C1592 1.527 . S
C1589 C1588 1.401 . S
C1589 C1590 1.405 . S
C1589 C1622 1.587 . S
C1590 C1589 1.405 . S
C1590 C1591 1.332 . S
C1590 C1593 1.496 . S
C1591 C1586 1.418 . S
C1591 C1590 1.332 . S
C1591 H1649 0.929 . S
C1592 C1588 1.527 . S
C1592 H1650 0.959 . S
C1592 H1651 0.961 . S
C1592 H1652 0.961 . S
C1593 C1590 1.496 . S
C1593 H1653 0.960 . S
C1593 H1654 0.960 . S
C1593 H1655 0.961 . S
C1594 C1595 1.517 . S
C1594 H1657 0.961 . S
C1594 H1658 0.960 . S
C1594 H1659 0.959 . S
C1595 C1594 1.517 . S
C1595 O1643 1.468 . S
C1595 H1656 0.980 . S
C1596 C1597 1.349 . S
C1596 C1601 1.367 . S
C1596 O1643 1.408 . S
C1597 C1596 1.349 . S
C1597 C1598 1.407 . S
C1597 H1660 0.930 . S
C1598 C1597 1.407 . S
C1598 C1599 1.449 . S
C1598 C1602 1.535 . S
C1599 C1598 1.449 . S
C1599 C1600 1.384 . S
C1599 C1624 1.553 . S
C1600 C1599 1.384 . S
C1600 C1601 1.364 . S
C1600 C1603 1.450 . S
C1601 C1596 1.367 . S
C1601 C1600 1.364 . S
C1601 H1661 0.931 . S
C1602 C1598 1.535 . S
C1602 H1662 0.959 . S
C1602 H1663 0.961 . S
C1602 H1664 0.959 . S
C1603 C1600 1.450 . S
C1603 H1665 0.960 . S
C1603 H1666 0.960 . S
C1603 H1667 0.960 . S
C1604 C1605 1.309 . S
C1604 C1609 1.304 . S
C1604 O1642 1.435 . S
C1605 C1604 1.309 . S
C1605 C1606 1.476 . S
C1605 H1669 0.930 . S
C1606 C1605 1.476 . S
C1606 C1607 1.400 . S
C1606 C1610 1.567 . S
C1607 C1606 1.400 . S
C1607 C1608 1.373 . S
C1607 C1629 1.432 . S
C1608 C1607 1.373 . S
C1608 C1609 1.339 . S
C1608 C1611 1.530 . S
C1609 C1604 1.304 . S
C1609 C1608 1.339 . S
C1609 H1670 0.930 . S
C1610 C1606 1.567 . S
C1610 H1671 0.961 . S
C1610 H1672 0.960 . S
C1610 H1673 0.958 . S
C1611 C1608 1.530 . S
C1611 H1674 0.961 . S
C1611 H1675 0.960 . S
C1611 H1676 0.960 . S
C1612 C1613 1.530 . S
C1612 H1678 0.961 . S
C1612 H1679 0.961 . S
C1612 H1680 0.959 . S
C1613 C1612 1.530 . S
C1613 O1641 1.412 . S
C1613 H1677 0.980 . S
C1614 C1615 1.288 . S
C1614 C1619 1.377 . S
C1614 O1641 1.393 . S
C1615 C1614 1.288 . S
C1615 C1616 1.369 . S
C1615 H1681 0.932 . S
C1616 C1615 1.369 . S
C1616 C1617 1.398 . S
C1616 C1620 1.527 . S
C1617 C1616 1.398 . S
C1617 C1618 1.380 . S
C1617 C1631 1.497 . S
C1618 C1617 1.380 . S
C1618 C1619 1.383 . S
C1618 C1621 1.603 . S
C1619 C1614 1.377 . S
C1619 C1618 1.383 . S
C1619 H1682 0.929 . S
C1620 C1616 1.527 . S
C1620 H1683 0.961 . S
C1620 H1684 0.959 . S
C1620 H1685 0.959 . S
C1621 C1618 1.603 . S
C1621 H1686 0.960 . S
C1621 H1687 0.962 . S
C1621 H1688 0.961 . S
C1622 C1589 1.587 . S
C1622 C1623 1.360 . S
C1622 C1635 1.412 . S
C1623 C1622 1.360 . S
C1623 C1624 1.365 . S
C1623 H1689 0.929 . S
C1624 C1599 1.553 . S
C1624 C1623 1.365 . S
C1624 C1625 1.404 . S
C1625 C1624 1.404 . S
C1625 C1626 1.395 . S
C1625 C1636 1.451 . S
C1626 C1625 1.395 . S
C1626 C1627 1.322 . S
C1626 H1690 0.930 . S
C1627 C1626 1.322 . S
C1627 C1628 1.459 . S
C1627 H1691 0.929 . S
C1628 C1627 1.459 . S
C1628 C1629 1.445 . S
C1628 C1637 1.395 . S
C1629 C1607 1.432 . S
C1629 C1628 1.445 . S
C1629 C1630 1.370 . S
C1630 C1629 1.370 . S
C1630 C1631 1.438 . S
C1630 H1692 0.930 . S
C1631 C1617 1.497 . S
C1631 C1630 1.438 . S
C1631 C1632 1.360 . S
C1632 C1631 1.360 . S
C1632 C1633 1.401 . S
C1632 C1637 1.446 . S
C1633 C1632 1.401 . S
C1633 C1634 1.347 . S
C1633 H1693 0.929 . S
C1634 C1633 1.347 . S
C1634 C1635 1.455 . S
C1634 H1694 0.930 . S
C1635 C1622 1.412 . S
C1635 C1634 1.455 . S
C1635 C1636 1.331 . S
C1636 C1625 1.451 . S
C1636 C1635 1.331 . S
C1636 C1637 1.497 . S
C1637 C1628 1.395 . S
C1637 C1632 1.446 . S
C1637 C1636 1.497 . S
C1638 C1639 1.582 . S
C1638 H1695 0.962 . S
C1638 H1696 0.959 . S
C1638 H1697 0.958 . S
C1639 C1638 1.582 . S
C1639 O1642 1.458 . S
C1639 H1668 0.980 . S
O1640 C1585 1.426 . S
O1640 C1586 1.334 . S
O1641 C1613 1.412 . S
O1641 C1614 1.393 . S
O1642 C1604 1.435 . S
O1642 C1639 1.458 . S
O1643 C1595 1.468 . S
O1643 C1596 1.408 . S
H1644 C1585 0.980 . S
H1645 C1584 0.959 . S
H1646 C1584 0.959 . S
H1647 C1584 0.960 . S
H1648 C1587 0.929 . S
H1649 C1591 0.929 . S
H1650 C1592 0.959 . S
H1651 C1592 0.961 . S
H1652 C1592 0.961 . S
H1653 C1593 0.960 . S
H1654 C1593 0.960 . S
H1655 C1593 0.961 . S
H1656 C1595 0.980 . S
H1657 C1594 0.961 . S
H1658 C1594 0.960 . S
H1659 C1594 0.959 . S
H1660 C1597 0.930 . S
H1661 C1601 0.931 . S
H1662 C1602 0.959 . S
H1663 C1602 0.961 . S
H1664 C1602 0.959 . S
H1665 C1603 0.960 . S
H1666 C1603 0.960 . S
H1667 C1603 0.960 . S
H1668 C1639 0.980 . S
H1669 C1605 0.930 . S
H1670 C1609 0.930 . S
H1671 C1610 0.961 . S
H1672 C1610 0.960 . S
H1673 C1610 0.958 . S
H1674 C1611 0.961 . S
H1675 C1611 0.960 . S
H1676 C1611 0.960 . S
H1677 C1613 0.980 . S
H1678 C1612 0.961 . S
H1679 C1612 0.961 . S
H1680 C1612 0.959 . S
H1681 C1615 0.932 . S
H1682 C1619 0.929 . S
H1683 C1620 0.961 . S
H1684 C1620 0.959 . S
H1685 C1620 0.959 . S
H1686 C1621 0.960 . S
H1687 C1621 0.962 . S
H1688 C1621 0.961 . S
H1689 C1623 0.929 . S
H1690 C1626 0.930 . S
H1691 C1627 0.929 . S
H1692 C1630 0.930 . S
H1693 C1633 0.929 . S
H1694 C1634 0.930 . S
H1695 C1638 0.962 . S
H1696 C1638 0.959 . S
H1697 C1638 0.958 . S
C1698 C1699 1.560 . S
C1698 H1759 0.959 . S
C1698 H1760 0.959 . S
C1698 H1761 0.960 . S
C1699 C1698 1.560 . S
C1699 O1754 1.426 . S
C1699 H1758 0.980 . S
C1700 C1701 1.407 . S
C1700 C1705 1.418 . S
C1700 O1754 1.334 . S
C1701 C1700 1.407 . S
C1701 C1702 1.360 . S
C1701 H1762 0.929 . S
C1702 C1701 1.360 . S
C1702 C1703 1.401 . S
C1702 C1706 1.527 . S
C1703 C1702 1.401 . S
C1703 C1704 1.405 . S
C1703 C1736 1.587 . S
C1704 C1703 1.405 . S
C1704 C1705 1.332 . S
C1704 C1707 1.496 . S
C1705 C1700 1.418 . S
C1705 C1704 1.332 . S
C1705 H1763 0.929 . S
C1706 C1702 1.527 . S
C1706 H1764 0.959 . S
C1706 H1765 0.961 . S
C1706 H1766 0.961 . S
C1707 C1704 1.496 . S
C1707 H1767 0.960 . S
C1707 H1768 0.960 . S
C1707 H1769 0.961 . S
C1708 C1709 1.517 . S
C1708 H1771 0.961 . S
C1708 H1772 0.960 . S
C1708 H1773 0.959 . S
C1709 C1708 1.517 . S
C1709 O1757 1.468 . S
C1709 H1770 0.980 . S
C1710 C1711 1.349 . S
C1710 C1715 1.367 . S
C1710 O1757 1.408 . S
C1711 C1710 1.349 . S
C1711 C1712 1.407 . S
C1711 H1774 0.930 . S
C1712 C1711 1.407 . S
C1712 C1713 1.449 . S
C1712 C1716 1.535 . S
C1713 C1712 1.449 . S
C1713 C1714 1.384 . S
C1713 C1738 1.553 . S
C1714 C1713 1.384 . S
C1714 C1715 1.364 . S
C1714 C1717 1.450 . S
C1715 C1710 1.367 . S
C1715 C1714 1.364 . S
C1715 H1775 0.931 . S
C1716 C1712 1.535 . S
C1716 H1776 0.959 . S
C1716 H1777 0.961 . S
C1716 H1778 0.959 . S
C1717 C1714 1.450 . S
C1717 H1779 0.960 . S
C1717 H1780 0.960 . S
C1717 H1781 0.960 . S
C1718 C1719 1.309 . S
C1718 C1723 1.304 . S
C1718 O1756 1.435 . S
C1719 C1718 1.309 . S
C1719 C1720 1.476 . S
C1719 H1783 0.930 . S
C1720 C1719 1.476 . S
C1720 C1721 1.400 . S
C1720 C1724 1.567 . S
C1721 C1720 1.400 . S
C1721 C1722 1.373 . S
C1721 C1743 1.432 . S
C1722 C1721 1.373 . S
C1722 C1723 1.339 . S
C1722 C1725 1.530 . S
C1723 C1718 1.304 . S
C1723 C1722 1.339 . S
C1723 H1784 0.930 . S
C1724 C1720 1.567 . S
C1724 H1785 0.961 . S
C1724 H1786 0.960 . S
C1724 H1787 0.958 . S
C1725 C1722 1.530 . S
C1725 H1788 0.961 . S
C1725 H1789 0.960 . S
C1725 H1790 0.960 . S
C1726 C1727 1.530 . S
C1726 H1792 0.961 . S
C1726 H1793 0.961 . S
C1726 H1794 0.959 . S
C1727 C1726 1.530 . S
C1727 O1755 1.412 . S
C1727 H1791 0.980 . S
C1728 C1729 1.288 . S
C1728 C1733 1.377 . S
C1728 O1755 1.393 . S
C1729 C1728 1.288 . S
C1729 C1730 1.369 . S
C1729 H1795 0.932 . S
C1730 C1729 1.369 . S
C1730 C1731 1.398 . S
C1730 C1734 1.527 . S
C1731 C1730 1.398 . S
C1731 C1732 1.380 . S
C1731 C1745 1.497 . S
C1732 C1731 1.380 . S
C1732 C1733 1.383 . S
C1732 C1735 1.603 . S
C1733 C1728 1.377 . S
C1733 C1732 1.383 . S
C1733 H1796 0.929 . S
C1734 C1730 1.527 . S
C1734 H1797 0.961 . S
C1734 H1798 0.959 . S
C1734 H1799 0.959 . S
C1735 C1732 1.603 . S
C1735 H1800 0.960 . S
C1735 H1801 0.962 . S
C1735 H1802 0.961 . S
C1736 C1703 1.587 . S
C1736 C1737 1.360 . S
C1736 C1749 1.412 . S
C1737 C1736 1.360 . S
C1737 C1738 1.365 . S
C1737 H1803 0.929 . S
C1738 C1713 1.553 . S
C1738 C1737 1.365 . S
C1738 C1739 1.404 . S
C1739 C1738 1.404 . S
C1739 C1740 1.395 . S
C1739 C1750 1.451 . S
C1740 C1739 1.395 . S
C1740 C1741 1.322 . S
C1740 H1804 0.930 . S
C1741 C1740 1.322 . S
C1741 C1742 1.459 . S
C1741 H1805 0.929 . S
C1742 C1741 1.459 . S
C1742 C1743 1.445 . S
C1742 C1751 1.395 . S
C1743 C1721 1.432 . S
C1743 C1742 1.445 . S
C1743 C1744 1.370 . S
C1744 C1743 1.370 . S
C1744 C1745 1.438 . S
C1744 H1806 0.930 . S
C1745 C1731 1.497 . S
C1745 C1744 1.438 . S
C1745 C1746 1.360 . S
C1746 C1745 1.360 . S
C1746 C1747 1.401 . S
C1746 C1751 1.446 . S
C1747 C1746 1.401 . S
C1747 C1748 1.347 . S
C1747 H1807 0.929 . S
C1748 C1747 1.347 . S
C1748 C1749 1.455 . S
C1748 H1808 0.930 . S
C1749 C1736 1.412 . S
C1749 C1748 1.455 . S
C1749 C1750 1.331 . S
C1750 C1739 1.451 . S
C1750 C1749 1.331 . S
C1750 C1751 1.497 . S
C1751 C1742 1.395 . S
C1751 C1746 1.446 . S
C1751 C1750 1.497 . S
C1752 C1753 1.582 . S
C1752 H1809 0.962 . S
C1752 H1810 0.959 . S
C1752 H1811 0.958 . S
C1753 C1752 1.582 . S
C1753 O1756 1.458 . S
C1753 H1782 0.980 . S
O1754 C1699 1.426 . S
O1754 C1700 1.334 . S
O1755 C1727 1.412 . S
O1755 C1728 1.393 . S
O1756 C1718 1.435 . S
O1756 C1753 1.458 . S
O1757 C1709 1.468 . S
O1757 C1710 1.408 . S
H1758 C1699 0.980 . S
H1759 C1698 0.959 . S
H1760 C1698 0.959 . S
H1761 C1698 0.960 . S
H1762 C1701 0.929 . S
H1763 C1705 0.929 . S
H1764 C1706 0.959 . S
H1765 C1706 0.961 . S
H1766 C1706 0.961 . S
H1767 C1707 0.960 . S
H1768 C1707 0.960 . S
H1769 C1707 0.961 . S
H1770 C1709 0.980 . S
H1771 C1708 0.961 . S
H1772 C1708 0.960 . S
H1773 C1708 0.959 . S
H1774 C1711 0.930 . S
H1775 C1715 0.931 . S
H1776 C1716 0.959 . S
H1777 C1716 0.961 . S
H1778 C1716 0.959 . S
H1779 C1717 0.960 . S
H1780 C1717 0.960 . S
H1781 C1717 0.960 . S
H1782 C1753 0.980 . S
H1783 C1719 0.930 . S
H1784 C1723 0.930 . S
H1785 C1724 0.961 . S
H1786 C1724 0.960 . S
H1787 C1724 0.958 . S
H1788 C1725 0.961 . S
H1789 C1725 0.960 . S
H1790 C1725 0.960 . S
H1791 C1727 0.980 . S
H1792 C1726 0.961 . S
H1793 C1726 0.961 . S
H1794 C1726 0.959 . S
H1795 C1729 0.932 . S
H1796 C1733 0.929 . S
H1797 C1734 0.961 . S
H1798 C1734 0.959 . S
H1799 C1734 0.959 . S
H1800 C1735 0.960 . S
H1801 C1735 0.962 . S
H1802 C1735 0.961 . S
H1803 C1737 0.929 . S
H1804 C1740 0.930 . S
H1805 C1741 0.929 . S
H1806 C1744 0.930 . S
H1807 C1747 0.929 . S
H1808 C1748 0.930 . S
H1809 C1752 0.962 . S
H1810 C1752 0.959 . S
H1811 C1752 0.958 . S
C1812 C1813 1.560 . S
C1812 H1873 0.959 . S
C1812 H1874 0.959 . S
C1812 H1875 0.960 . S
C1813 C1812 1.560 . S
C1813 O1868 1.426 . S
C1813 H1872 0.980 . S
C1814 C1815 1.407 . S
C1814 C1819 1.418 . S
C1814 O1868 1.334 . S
C1815 C1814 1.407 . S
C1815 C1816 1.360 . S
C1815 H1876 0.929 . S
C1816 C1815 1.360 . S
C1816 C1817 1.401 . S
C1816 C1820 1.527 . S
C1817 C1816 1.401 . S
C1817 C1818 1.405 . S
C1817 C1850 1.587 . S
C1818 C1817 1.405 . S
C1818 C1819 1.332 . S
C1818 C1821 1.496 . S
C1819 C1814 1.418 . S
C1819 C1818 1.332 . S
C1819 H1877 0.929 . S
C1820 C1816 1.527 . S
C1820 H1878 0.959 . S
C1820 H1879 0.961 . S
C1820 H1880 0.961 . S
C1821 C1818 1.496 . S
C1821 H1881 0.960 . S
C1821 H1882 0.960 . S
C1821 H1883 0.961 . S
C1822 C1823 1.517 . S
C1822 H1885 0.961 . S
C1822 H1886 0.960 . S
C1822 H1887 0.959 . S
C1823 C1822 1.517 . S
C1823 O1871 1.468 . S
C1823 H1884 0.980 . S
C1824 C1825 1.349 . S
C1824 C1829 1.367 . S
C1824 O1871 1.408 . S
C1825 C1824 1.349 . S
C1825 C1826 1.407 . S
C1825 H1888 0.930 . S
C1826 C1825 1.407 . S
C1826 C1827 1.449 . S
C1826 C1830 1.535 . S
C1827 C1826 1.449 . S
C1827 C1828 1.384 . S
C1827 C1852 1.553 . S
C1828 C1827 1.384 . S
C1828 C1829 1.364 . S
C1828 C1831 1.450 . S
C1829 C1824 1.367 . S
C1829 C1828 1.364 . S
C1829 H1889 0.931 . S
C1830 C1826 1.535 . S
C1830 H1890 0.959 . S
C1830 H1891 0.961 . S
C1830 H1892 0.959 . S
C1831 C1828 1.450 . S
C1831 H1893 0.960 . S
C1831 H1894 0.960 . S
C1831 H1895 0.960 . S
C1832 C1833 1.309 . S
C1832 C1837 1.304 . S
C1832 O1870 1.435 . S
C1833 C1832 1.309 . S
C1833 C1834 1.476 . S
C1833 H1897 0.930 . S
C1834 C1833 1.476 . S
C1834 C1835 1.400 . S
C1834 C1838 1.567 . S
C1835 C1834 1.400 . S
C1835 C1836 1.373 . S
C1835 C1857 1.432 . S
C1836 C1835 1.373 . S
C1836 C1837 1.339 . S
C1836 C1839 1.530 . S
C1837 C1832 1.304 . S
C1837 C1836 1.339 . S
C1837 H1898 0.930 . S
C1838 C1834 1.567 . S
C1838 H1899 0.961 . S
C1838 H1900 0.960 . S
C1838 H1901 0.958 . S
C1839 C1836 1.530 . S
C1839 H1902 0.961 . S
C1839 H1903 0.960 . S
C1839 H1904 0.960 . S
C1840 C1841 1.530 . S
C1840 H1906 0.961 . S
C1840 H1907 0.961 . S
C1840 H1908 0.959 . S
C1841 C1840 1.530 . S
C1841 O1869 1.412 . S
C1841 H1905 0.980 . S
C1842 C1843 1.288 . S
C1842 C1847 1.377 . S
C1842 O1869 1.393 . S
C1843 C1842 1.288 . S
C1843 C1844 1.369 . S
C1843 H1909 0.932 . S
C1844 C1843 1.369 . S
C1844 C1845 1.398 . S
C1844 C1848 1.527 . S
C1845 C1844 1.398 . S
C1845 C1846 1.380 . S
C1845 C1859 1.497 . S
C1846 C1845 1.380 . S
C1846 C1847 1.383 . S
C1846 C1849 1.603 . S
C1847 C1842 1.377 . S
C1847 C1846 1.383 . S
C1847 H1910 0.929 . S
C1848 C1844 1.527 . S
C1848 H1911 0.961 . S
C1848 H1912 0.959 . S
C1848 H1913 0.959 . S
C1849 C1846 1.603 . S
C1849 H1914 0.960 . S
C1849 H1915 0.962 . S
C1849 H1916 0.961 . S
C1850 C1817 1.587 . S
C1850 C1851 1.360 . S
C1850 C1863 1.412 . S
C1851 C1850 1.360 . S
C1851 C1852 1.365 . S
C1851 H1917 0.929 . S
C1852 C1827 1.553 . S
C1852 C1851 1.365 . S
C1852 C1853 1.404 . S
C1853 C1852 1.404 . S
C1853 C1854 1.395 . S
C1853 C1864 1.451 . S
C1854 C1853 1.395 . S
C1854 C1855 1.322 . S
C1854 H1918 0.930 . S
C1855 C1854 1.322 . S
C1855 C1856 1.459 . S
C1855 H1919 0.929 . S
C1856 C1855 1.459 . S
C1856 C1857 1.445 . S
C1856 C1865 1.395 . S
C1857 C1835 1.432 . S
C1857 C1856 1.445 . S
C1857 C1858 1.370 . S
C1858 C1857 1.370 . S
C1858 C1859 1.438 . S
C1858 H1920 0.930 . S
C1859 C1845 1.497 . S
C1859 C1858 1.438 . S
C1859 C1860 1.360 . S
C1860 C1859 1.360 . S
C1860 C1861 1.401 . S
C1860 C1865 1.446 . S
C1861 C1860 1.401 . S
C1861 C1862 1.347 . S
C1861 H1921 0.929 . S
C1862 C1861 1.347 . S
C1862 C1863 1.455 . S
C1862 H1922 0.930 . S
C1863 C1850 1.412 . S
C1863 C1862 1.455 . S
C1863 C1864 1.331 . S
C1864 C1853 1.451 . S
C1864 C1863 1.331 . S
C1864 C1865 1.497 . S
C1865 C1856 1.395 . S
C1865 C1860 1.446 . S
C1865 C1864 1.497 . S
C1866 C1867 1.582 . S
C1866 H1923 0.962 . S
C1866 H1924 0.959 . S
C1866 H1925 0.958 . S
C1867 C1866 1.582 . S
C1867 O1870 1.458 . S
C1867 H1896 0.980 . S
O1868 C1813 1.426 . S
O1868 C1814 1.334 . S
O1869 C1841 1.412 . S
O1869 C1842 1.393 . S
O1870 C1832 1.435 . S
O1870 C1867 1.458 . S
O1871 C1823 1.468 . S
O1871 C1824 1.408 . S
H1872 C1813 0.980 . S
H1873 C1812 0.959 . S
H1874 C1812 0.959 . S
H1875 C1812 0.960 . S
H1876 C1815 0.929 . S
H1877 C1819 0.929 . S
H1878 C1820 0.959 . S
H1879 C1820 0.961 . S
H1880 C1820 0.961 . S
H1881 C1821 0.960 . S
H1882 C1821 0.960 . S
H1883 C1821 0.961 . S
H1884 C1823 0.980 . S
H1885 C1822 0.961 . S
H1886 C1822 0.960 . S
H1887 C1822 0.959 . S
H1888 C1825 0.930 . S
H1889 C1829 0.931 . S
H1890 C1830 0.959 . S
H1891 C1830 0.961 . S
H1892 C1830 0.959 . S
H1893 C1831 0.960 . S
H1894 C1831 0.960 . S
H1895 C1831 0.960 . S
H1896 C1867 0.980 . S
H1897 C1833 0.930 . S
H1898 C1837 0.930 . S
H1899 C1838 0.961 . S
H1900 C1838 0.960 . S
H1901 C1838 0.958 . S
H1902 C1839 0.961 . S
H1903 C1839 0.960 . S
H1904 C1839 0.960 . S
H1905 C1841 0.980 . S
H1906 C1840 0.961 . S
H1907 C1840 0.961 . S
H1908 C1840 0.959 . S
H1909 C1843 0.932 . S
H1910 C1847 0.929 . S
H1911 C1848 0.961 . S
H1912 C1848 0.959 . S
H1913 C1848 0.959 . S
H1914 C1849 0.960 . S
H1915 C1849 0.962 . S
H1916 C1849 0.961 . S
H1917 C1851 0.929 . S
H1918 C1854 0.930 . S
H1919 C1855 0.929 . S
H1920 C1858 0.930 . S
H1921 C1861 0.929 . S
H1922 C1862 0.930 . S
H1923 C1866 0.962 . S
H1924 C1866 0.959 . S
H1925 C1866 0.958 . S
C1926 C1927 1.560 . S
C1926 H1987 0.959 . S
C1926 H1988 0.959 . S
C1926 H1989 0.960 . S
C1927 C1926 1.560 . S
C1927 O1982 1.426 . S
C1927 H1986 0.980 . S
C1928 C1929 1.407 . S
C1928 C1933 1.418 . S
C1928 O1982 1.334 . S
C1929 C1928 1.407 . S
C1929 C1930 1.360 . S
C1929 H1990 0.929 . S
C1930 C1929 1.360 . S
C1930 C1931 1.401 . S
C1930 C1934 1.527 . S
C1931 C1930 1.401 . S
C1931 C1932 1.405 . S
C1931 C1964 1.587 . S
C1932 C1931 1.405 . S
C1932 C1933 1.332 . S
C1932 C1935 1.496 . S
C1933 C1928 1.418 . S
C1933 C1932 1.332 . S
C1933 H1991 0.929 . S
C1934 C1930 1.527 . S
C1934 H1992 0.959 . S
C1934 H1993 0.961 . S
C1934 H1994 0.961 . S
C1935 C1932 1.496 . S
C1935 H1995 0.960 . S
C1935 H1996 0.960 . S
C1935 H1997 0.961 . S
C1936 C1937 1.517 . S
C1936 H1999 0.961 . S
C1936 H2000 0.960 . S
C1936 H2001 0.959 . S
C1937 C1936 1.517 . S
C1937 O1985 1.468 . S
C1937 H1998 0.980 . S
C1938 C1939 1.349 . S
C1938 C1943 1.367 . S
C1938 O1985 1.408 . S
C1939 C1938 1.349 . S
C1939 C1940 1.407 . S
C1939 H2002 0.930 . S
C1940 C1939 1.407 . S
C1940 C1941 1.449 . S
C1940 C1944 1.535 . S
C1941 C1940 1.449 . S
C1941 C1942 1.384 . S
C1941 C1966 1.553 . S
C1942 C1941 1.384 . S
C1942 C1943 1.364 . S
C1942 C1945 1.450 . S
C1943 C1938 1.367 . S
C1943 C1942 1.364 . S
C1943 H2003 0.931 . S
C1944 C1940 1.535 . S
C1944 H2004 0.959 . S
C1944 H2005 0.961 . S
C1944 H2006 0.959 . S
C1945 C1942 1.450 . S
C1945 H2007 0.960 . S
C1945 H2008 0.960 . S
C1945 H2009 0.960 . S
C1946 C1947 1.309 . S
C1946 C1951 1.304 . S
C1946 O1984 1.435 . S
C1947 C1946 1.309 . S
C1947 C1948 1.476 . S
C1947 H2011 0.930 . S
C1948 C1947 1.476 . S
C1948 C1949 1.400 . S
C1948 C1952 1.567 . S
C1949 C1948 1.400 . S
C1949 C1950 1.373 . S
C1949 C1971 1.432 . S
C1950 C1949 1.373 . S
C1950 C1951 1.339 . S
C1950 C1953 1.530 . S
C1951 C1946 1.304 . S
C1951 C1950 1.339 . S
C1951 H2012 0.930 . S
C1952 C1948 1.567 . S
C1952 H2013 0.961 . S
C1952 H2014 0.960 . S
C1952 H2015 0.958 . S
C1953 C1950 1.530 . S
C1953 H2016 0.961 . S
C1953 H2017 0.960 . S
C1953 H2018 0.960 . S
C1954 C1955 1.530 . S
C1954 H2020 0.961 . S
C1954 H2021 0.961 . S
C1954 H2022 0.959 . S
C1955 C1954 1.530 . S
C1955 O1983 1.412 . S
C1955 H2019 0.980 . S
C1956 C1957 1.288 . S
C1956 C1961 1.377 . S
C1956 O1983 1.393 . S
C1957 C1956 1.288 . S
C1957 C1958 1.369 . S
C1957 H2023 0.932 . S
C1958 C1957 1.369 . S
C1958 C1959 1.398 . S
C1958 C1962 1.527 . S
C1959 C1958 1.398 . S
C1959 C1960 1.380 . S
C1959 C1973 1.497 . S
C1960 C1959 1.380 . S
C1960 C1961 1.383 . S
C1960 C1963 1.603 . S
C1961 C1956 1.377 . S
C1961 C1960 1.383 . S
C1961 H2024 0.929 . S
C1962 C1958 1.527 . S
C1962 H2025 0.961 . S
C1962 H2026 0.959 . S
C1962 H2027 0.959 . S
C1963 C1960 1.603 . S
C1963 H2028 0.960 . S
C1963 H2029 0.962 . S
C1963 H2030 0.961 . S
C1964 C1931 1.587 . S
C1964 C1965 1.360 . S
C1964 C1977 1.412 . S
C1965 C1964 1.360 . S
C1965 C1966 1.365 . S
C1965 H2031 0.929 . S
C1966 C1941 1.553 . S
C1966 C1965 1.365 . S
C1966 C1967 1.404 . S
C1967 C1966 1.404 . S
C1967 C1968 1.395 . S
C1967 C1978 1.451 . S
C1968 C1967 1.395 . S
C1968 C1969 1.322 . S
C1968 H2032 0.930 . S
C1969 C1968 1.322 . S
C1969 C1970 1.459 . S
C1969 H2033 0.929 . S
C1970 C1969 1.459 . S
C1970 C1971 1.445 . S
C1970 C1979 1.395 . S
C1971 C1949 1.432 . S
C1971 C1970 1.445 . S
C1971 C1972 1.370 . S
C1972 C1971 1.370 . S
C1972 C1973 1.438 . S
C1972 H2034 0.930 . S
C1973 C1959 1.497 . S
C1973 C1972 1.438 . S
C1973 C1974 1.360 . S
C1974 C1973 1.360 . S
C1974 C1975 1.401 . S
C1974 C1979 1.446 . S
C1975 C1974 1.401 . S
C1975 C1976 1.347 . S
C1975 H2035 0.929 . S
C1976 C1975 1.347 . S
C1976 C1977 1.455 . S
C1976 H2036 0.930 . S
C1977 C1964 1.412 . S
C1977 C1976 1.455 . S
C1977 C1978 1.331 . S
C1978 C1967 1.451 . S
C1978 C1977 1.331 . S
C1978 C1979 1.497 . S
C1979 C1970 1.395 . S
C1979 C1974 1.446 . S
C1979 C1978 1.497 . S
C1980 C1981 1.582 . S
C1980 H2037 0.962 . S
C1980 H2038 0.959 . S
C1980 H2039 0.958 . S
C1981 C1980 1.582 . S
C1981 O1984 1.458 . S
C1981 H2010 0.980 . S
O1982 C1927 1.426 . S
O1982 C1928 1.334 . S
O1983 C1955 1.412 . S
O1983 C1956 1.393 . S
O1984 C1946 1.435 . S
O1984 C1981 1.458 . S
O1985 C1937 1.468 . S
O1985 C1938 1.408 . S
H1986 C1927 0.980 . S
H1987 C1926 0.959 . S
H1988 C1926 0.959 . S
H1989 C1926 0.960 . S
H1990 C1929 0.929 . S
H1991 C1933 0.929 . S
H1992 C1934 0.959 . S
H1993 C1934 0.961 . S
H1994 C1934 0.961 . S
H1995 C1935 0.960 . S
H1996 C1935 0.960 . S
H1997 C1935 0.961 . S
H1998 C1937 0.980 . S
H1999 C1936 0.961 . S
H2000 C1936 0.960 . S
H2001 C1936 0.959 . S
H2002 C1939 0.930 . S
H2003 C1943 0.931 . S
H2004 C1944 0.959 . S
H2005 C1944 0.961 . S
H2006 C1944 0.959 . S
H2007 C1945 0.960 . S
H2008 C1945 0.960 . S
H2009 C1945 0.960 . S
H2010 C1981 0.980 . S
H2011 C1947 0.930 . S
H2012 C1951 0.930 . S
H2013 C1952 0.961 . S
H2014 C1952 0.960 . S
H2015 C1952 0.958 . S
H2016 C1953 0.961 . S
H2017 C1953 0.960 . S
H2018 C1953 0.960 . S
H2019 C1955 0.980 . S
H2020 C1954 0.961 . S
H2021 C1954 0.961 . S
H2022 C1954 0.959 . S
H2023 C1957 0.932 . S
H2024 C1961 0.929 . S
H2025 C1962 0.961 . S
H2026 C1962 0.959 . S
H2027 C1962 0.959 . S
H2028 C1963 0.960 . S
H2029 C1963 0.962 . S
H2030 C1963 0.961 . S
H2031 C1965 0.929 . S
H2032 C1968 0.930 . S
H2033 C1969 0.929 . S
H2034 C1972 0.930 . S
H2035 C1975 0.929 . S
H2036 C1976 0.930 . S
H2037 C1980 0.962 . S
H2038 C1980 0.959 . S
H2039 C1980 0.958 . S
C2040 C2041 1.560 . S
C2040 H2101 0.959 . S
C2040 H2102 0.959 . S
C2040 H2103 0.960 . S
C2041 C2040 1.560 . S
C2041 O2096 1.426 . S
C2041 H2100 0.980 . S
C2042 C2043 1.407 . S
C2042 C2047 1.418 . S
C2042 O2096 1.334 . S
C2043 C2042 1.407 . S
C2043 C2044 1.360 . S
C2043 H2104 0.929 . S
C2044 C2043 1.360 . S
C2044 C2045 1.401 . S
C2044 C2048 1.527 . S
C2045 C2044 1.401 . S
C2045 C2046 1.405 . S
C2045 C2078 1.587 . S
C2046 C2045 1.405 . S
C2046 C2047 1.332 . S
C2046 C2049 1.496 . S
C2047 C2042 1.418 . S
C2047 C2046 1.332 . S
C2047 H2105 0.929 . S
C2048 C2044 1.527 . S
C2048 H2106 0.959 . S
C2048 H2107 0.961 . S
C2048 H2108 0.961 . S
C2049 C2046 1.496 . S
C2049 H2109 0.960 . S
C2049 H2110 0.960 . S
C2049 H2111 0.961 . S
C2050 C2051 1.517 . S
C2050 H2113 0.961 . S
C2050 H2114 0.960 . S
C2050 H2115 0.959 . S
C2051 C2050 1.517 . S
C2051 O2099 1.468 . S
C2051 H2112 0.980 . S
C2052 C2053 1.349 . S
C2052 C2057 1.367 . S
C2052 O2099 1.408 . S
C2053 C2052 1.349 . S
C2053 C2054 1.407 . S
C2053 H2116 0.930 . S
C2054 C2053 1.407 . S
C2054 C2055 1.449 . S
C2054 C2058 1.535 . S
C2055 C2054 1.449 . S
C2055 C2056 1.384 . S
C2055 C2080 1.553 . S
C2056 C2055 1.384 . S
C2056 C2057 1.364 . S
C2056 C2059 1.450 . S
C2057 C2052 1.367 . S
C2057 C2056 1.364 . S
C2057 H2117 0.931 . S
C2058 C2054 1.535 . S
C2058 H2118 0.959 . S
C2058 H2119 0.961 . S
C2058 H2120 0.959 . S
C2059 C2056 1.450 . S
C2059 H2121 0.960 . S
C2059 H2122 0.960 . S
C2059 H2123 0.960 . S
C2060 C2061 1.309 . S
C2060 C2065 1.304 . S
C2060 O2098 1.435 . S
C2061 C2060 1.309 . S
C2061 C2062 1.476 . S
C2061 H2125 0.930 . S
C2062 C2061 1.476 . S
C2062 C2063 1.400 . S
C2062 C2066 1.567 . S
C2063 C2062 1.400 . S
C2063 C2064 1.373 . S
C2063 C2085 1.432 . S
C2064 C2063 1.373 . S
C2064 C2065 1.339 . S
C2064 C2067 1.530 . S
C2065 C2060 1.304 . S
C2065 C2064 1.339 . S
C2065 H2126 0.930 . S
C2066 C2062 1.567 . S
C2066 H2127 0.961 . S
C2066 H2128 0.960 . S
C2066 H2129 0.958 . S
C2067 C2064 1.530 . S
C2067 H2130 0.961 . S
C2067 H2131 0.960 . S
C2067 H2132 0.960 . S
C2068 C2069 1.530 . S
C2068 H2134 0.961 . S
C2068 H2135 0.961 . S
C2068 H2136 0.959 . S
C2069 C2068 1.530 . S
C2069 O2097 1.412 . S
C2069 H2133 0.980 . S
C2070 C2071 1.288 . S
C2070 C2075 1.377 . S
C2070 O2097 1.393 . S
C2071 C2070 1.288 . S
C2071 C2072 1.369 . S
C2071 H2137 0.932 . S
C2072 C2071 1.369 . S
C2072 C2073 1.398 . S
C2072 C2076 1.527 . S
C2073 C2072 1.398 . S
C2073 C2074 1.380 . S
C2073 C2087 1.497 . S
C2074 C2073 1.380 . S
C2074 C2075 1.383 . S
C2074 C2077 1.603 . S
C2075 C2070 1.377 . S
C2075 C2074 1.383 . S
C2075 H2138 0.929 . S
C2076 C2072 1.527 . S
C2076 H2139 0.961 . S
C2076 H2140 0.959 . S
C2076 H2141 0.959 . S
C2077 C2074 1.603 . S
C2077 H2142 0.960 . S
C2077 H2143 0.962 . S
C2077 H2144 0.961 . S
C2078 C2045 1.587 . S
C2078 C2079 1.360 . S
C2078 C2091 1.412 . S
C2079 C2078 1.360 . S
C2079 C2080 1.365 . S
C2079 H2145 0.929 . S
C2080 C2055 1.553 . S
C2080 C2079 1.365 . S
C2080 C2081 1.404 . S
C2081 C2080 1.404 . S
C2081 C2082 1.395 . S
C2081 C2092 1.451 . S
C2082 C2081 1.395 . S
C2082 C2083 1.322 . S
C2082 H2146 0.930 . S
C2083 C2082 1.322 . S
C2083 C2084 1.459 . S
C2083 H2147 0.929 . S
C2084 C2083 1.459 . S
C2084 C2085 1.445 . S
C2084 C2093 1.395 . S
C2085 C2063 1.432 . S
C2085 C2084 1.445 . S
C2085 C2086 1.370 . S
C2086 C2085 1.370 . S
C2086 C2087 1.438 . S
C2086 H2148 0.930 . S
C2087 C2073 1.497 . S
C2087 C2086 1.438 . S
C2087 C2088 1.360 . S
C2088 C2087 1.360 . S
C2088 C2089 1.401 . S
C2088 C2093 1.446 . S
C2089 C2088 1.401 . S
C2089 C2090 1.347 . S
C2089 H2149 0.929 . S
C2090 C2089 1.347 . S
C2090 C2091 1.455 . S
C2090 H2150 0.930 . S
C2091 C2078 1.412 . S
C2091 C2090 1.455 . S
C2091 C2092 1.331 . S
C2092 C2081 1.451 . S
C2092 C2091 1.331 . S
C2092 C2093 1.497 . S
C2093 C2084 1.395 . S
C2093 C2088 1.446 . S
C2093 C2092 1.497 . S
C2094 C2095 1.582 . S
C2094 H2151 0.962 . S
C2094 H2152 0.959 . S
C2094 H2153 0.958 . S
C2095 C2094 1.582 . S
C2095 O2098 1.458 . S
C2095 H2124 0.980 . S
O2096 C2041 1.426 . S
O2096 C2042 1.334 . S
O2097 C2069 1.412 . S
O2097 C2070 1.393 . S
O2098 C2060 1.435 . S
O2098 C2095 1.458 . S
O2099 C2051 1.468 . S
O2099 C2052 1.408 . S
H2100 C2041 0.980 . S
H2101 C2040 0.959 . S
H2102 C2040 0.959 . S
H2103 C2040 0.960 . S
H2104 C2043 0.929 . S
H2105 C2047 0.929 . S
H2106 C2048 0.959 . S
H2107 C2048 0.961 . S
H2108 C2048 0.961 . S
H2109 C2049 0.960 . S
H2110 C2049 0.960 . S
H2111 C2049 0.961 . S
H2112 C2051 0.980 . S
H2113 C2050 0.961 . S
H2114 C2050 0.960 . S
H2115 C2050 0.959 . S
H2116 C2053 0.930 . S
H2117 C2057 0.931 . S
H2118 C2058 0.959 . S
H2119 C2058 0.961 . S
H2120 C2058 0.959 . S
H2121 C2059 0.960 . S
H2122 C2059 0.960 . S
H2123 C2059 0.960 . S
H2124 C2095 0.980 . S
H2125 C2061 0.930 . S
H2126 C2065 0.930 . S
H2127 C2066 0.961 . S
H2128 C2066 0.960 . S
H2129 C2066 0.958 . S
H2130 C2067 0.961 . S
H2131 C2067 0.960 . S
H2132 C2067 0.960 . S
H2133 C2069 0.980 . S
H2134 C2068 0.961 . S
H2135 C2068 0.961 . S
H2136 C2068 0.959 . S
H2137 C2071 0.932 . S
H2138 C2075 0.929 . S
H2139 C2076 0.961 . S
H2140 C2076 0.959 . S
H2141 C2076 0.959 . S
H2142 C2077 0.960 . S
H2143 C2077 0.962 . S
H2144 C2077 0.961 . S
H2145 C2079 0.929 . S
H2146 C2082 0.930 . S
H2147 C2083 0.929 . S
H2148 C2086 0.930 . S
H2149 C2089 0.929 . S
H2150 C2090 0.930 . S
H2151 C2094 0.962 . S
H2152 C2094 0.959 . S
H2153 C2094 0.958 . S
C2154 C2155 1.560 . S
C2154 H2215 0.959 . S
C2154 H2216 0.959 . S
C2154 H2217 0.960 . S
C2155 C2154 1.560 . S
C2155 O2210 1.426 . S
C2155 H2214 0.980 . S
C2156 C2157 1.407 . S
C2156 C2161 1.418 . S
C2156 O2210 1.334 . S
C2157 C2156 1.407 . S
C2157 C2158 1.360 . S
C2157 H2218 0.929 . S
C2158 C2157 1.360 . S
C2158 C2159 1.401 . S
C2158 C2162 1.527 . S
C2159 C2158 1.401 . S
C2159 C2160 1.405 . S
C2159 C2192 1.587 . S
C2160 C2159 1.405 . S
C2160 C2161 1.332 . S
C2160 C2163 1.496 . S
C2161 C2156 1.418 . S
C2161 C2160 1.332 . S
C2161 H2219 0.929 . S
C2162 C2158 1.527 . S
C2162 H2220 0.959 . S
C2162 H2221 0.961 . S
C2162 H2222 0.961 . S
C2163 C2160 1.496 . S
C2163 H2223 0.960 . S
C2163 H2224 0.960 . S
C2163 H2225 0.961 . S
C2164 C2165 1.517 . S
C2164 H2227 0.961 . S
C2164 H2228 0.960 . S
C2164 H2229 0.959 . S
C2165 C2164 1.517 . S
C2165 O2213 1.468 . S
C2165 H2226 0.980 . S
C2166 C2167 1.349 . S
C2166 C2171 1.367 . S
C2166 O2213 1.408 . S
C2167 C2166 1.349 . S
C2167 C2168 1.407 . S
C2167 H2230 0.930 . S
C2168 C2167 1.407 . S
C2168 C2169 1.449 . S
C2168 C2172 1.535 . S
C2169 C2168 1.449 . S
C2169 C2170 1.384 . S
C2169 C2194 1.553 . S
C2170 C2169 1.384 . S
C2170 C2171 1.364 . S
C2170 C2173 1.450 . S
C2171 C2166 1.367 . S
C2171 C2170 1.364 . S
C2171 H2231 0.931 . S
C2172 C2168 1.535 . S
C2172 H2232 0.959 . S
C2172 H2233 0.961 . S
C2172 H2234 0.959 . S
C2173 C2170 1.450 . S
C2173 H2235 0.960 . S
C2173 H2236 0.960 . S
C2173 H2237 0.960 . S
C2174 C2175 1.309 . S
C2174 C2179 1.304 . S
C2174 O2212 1.435 . S
C2175 C2174 1.309 . S
C2175 C2176 1.476 . S
C2175 H2239 0.930 . S
C2176 C2175 1.476 . S
C2176 C2177 1.400 . S
C2176 C2180 1.567 . S
C2177 C2176 1.400 . S
C2177 C2178 1.373 . S
C2177 C2199 1.432 . S
C2178 C2177 1.373 . S
C2178 C2179 1.339 . S
C2178 C2181 1.530 . S
C2179 C2174 1.304 . S
C2179 C2178 1.339 . S
C2179 H2240 0.930 . S
C2180 C2176 1.567 . S
C2180 H2241 0.961 . S
C2180 H2242 0.960 . S
C2180 H2243 0.958 . S
C2181 C2178 1.530 . S
C2181 H2244 0.961 . S
C2181 H2245 0.960 . S
C2181 H2246 0.960 . S
C2182 C2183 1.530 . S
C2182 H2248 0.961 . S
C2182 H2249 0.961 . S
C2182 H2250 0.959 . S
C2183 C2182 1.530 . S
C2183 O2211 1.412 . S
C2183 H2247 0.980 . S
C2184 C2185 1.288 . S
C2184 C2189 1.377 . S
C2184 O2211 1.393 . S
C2185 C2184 1.288 . S
C2185 C2186 1.369 . S
C2185 H2251 0.932 . S
C2186 C2185 1.369 . S
C2186 C2187 1.398 . S
C2186 C2190 1.527 . S
C2187 C2186 1.398 . S
C2187 C2188 1.380 . S
C2187 C2201 1.497 . S
C2188 C2187 1.380 . S
C2188 C2189 1.383 . S
C2188 C2191 1.603 . S
C2189 C2184 1.377 . S
C2189 C2188 1.383 . S
C2189 H2252 0.929 . S
C2190 C2186 1.527 . S
C2190 H2253 0.961 . S
C2190 H2254 0.959 . S
C2190 H2255 0.959 . S
C2191 C2188 1.603 . S
C2191 H2256 0.960 . S
C2191 H2257 0.962 . S
C2191 H2258 0.961 . S
C2192 C2159 1.587 . S
C2192 C2193 1.360 . S
C2192 C2205 1.412 . S
C2193 C2192 1.360 . S
C2193 C2194 1.365 . S
C2193 H2259 0.929 . S
C2194 C2169 1.553 . S
C2194 C2193 1.365 . S
C2194 C2195 1.404 . S
C2195 C2194 1.404 . S
C2195 C2196 1.395 . S
C2195 C2206 1.451 . S
C2196 C2195 1.395 . S
C2196 C2197 1.322 . S
C2196 H2260 0.930 . S
C2197 C2196 1.322 . S
C2197 C2198 1.459 . S
C2197 H2261 0.929 . S
C2198 C2197 1.459 . S
C2198 C2199 1.445 . S
C2198 C2207 1.395 . S
C2199 C2177 1.432 . S
C2199 C2198 1.445 . S
C2199 C2200 1.370 . S
C2200 C2199 1.370 . S
C2200 C2201 1.438 . S
C2200 H2262 0.930 . S
C2201 C2187 1.497 . S
C2201 C2200 1.438 . S
C2201 C2202 1.360 . S
C2202 C2201 1.360 . S
C2202 C2203 1.401 . S
C2202 C2207 1.446 . S
C2203 C2202 1.401 . S
C2203 C2204 1.347 . S
C2203 H2263 0.929 . S
C2204 C2203 1.347 . S
C2204 C2205 1.455 . S
C2204 H2264 0.930 . S
C2205 C2192 1.412 . S
C2205 C2204 1.455 . S
C2205 C2206 1.331 . S
C2206 C2195 1.451 . S
C2206 C2205 1.331 . S
C2206 C2207 1.497 . S
C2207 C2198 1.395 . S
C2207 C2202 1.446 . S
C2207 C2206 1.497 . S
C2208 C2209 1.582 . S
C2208 H2265 0.962 . S
C2208 H2266 0.959 . S
C2208 H2267 0.958 . S
C2209 C2208 1.582 . S
C2209 O2212 1.458 . S
C2209 H2238 0.980 . S
O2210 C2155 1.426 . S
O2210 C2156 1.334 . S
O2211 C2183 1.412 . S
O2211 C2184 1.393 . S
O2212 C2174 1.435 . S
O2212 C2209 1.458 . S
O2213 C2165 1.468 . S
O2213 C2166 1.408 . S
H2214 C2155 0.980 . S
H2215 C2154 0.959 . S
H2216 C2154 0.959 . S
H2217 C2154 0.960 . S
H2218 C2157 0.929 . S
H2219 C2161 0.929 . S
H2220 C2162 0.959 . S
H2221 C2162 0.961 . S
H2222 C2162 0.961 . S
H2223 C2163 0.960 . S
H2224 C2163 0.960 . S
H2225 C2163 0.961 . S
H2226 C2165 0.980 . S
H2227 C2164 0.961 . S
H2228 C2164 0.960 . S
H2229 C2164 0.959 . S
H2230 C2167 0.930 . S
H2231 C2171 0.931 . S
H2232 C2172 0.959 . S
H2233 C2172 0.961 . S
H2234 C2172 0.959 . S
H2235 C2173 0.960 . S
H2236 C2173 0.960 . S
H2237 C2173 0.960 . S
H2238 C2209 0.980 . S
H2239 C2175 0.930 . S
H2240 C2179 0.930 . S
H2241 C2180 0.961 . S
H2242 C2180 0.960 . S
H2243 C2180 0.958 . S
H2244 C2181 0.961 . S
H2245 C2181 0.960 . S
H2246 C2181 0.960 . S
H2247 C2183 0.980 . S
H2248 C2182 0.961 . S
H2249 C2182 0.961 . S
H2250 C2182 0.959 . S
H2251 C2185 0.932 . S
H2252 C2189 0.929 . S
H2253 C2190 0.961 . S
H2254 C2190 0.959 . S
H2255 C2190 0.959 . S
H2256 C2191 0.960 . S
H2257 C2191 0.962 . S
H2258 C2191 0.961 . S
H2259 C2193 0.929 . S
H2260 C2196 0.930 . S
H2261 C2197 0.929 . S
H2262 C2200 0.930 . S
H2263 C2203 0.929 . S
H2264 C2204 0.930 . S
H2265 C2208 0.962 . S
H2266 C2208 0.959 . S
H2267 C2208 0.958 . S
C2268 C2269 1.560 . S
C2268 H2329 0.959 . S
C2268 H2330 0.959 . S
C2268 H2331 0.960 . S
C2269 C2268 1.560 . S
C2269 O2324 1.426 . S
C2269 H2328 0.980 . S
C2270 C2271 1.407 . S
C2270 C2275 1.418 . S
C2270 O2324 1.334 . S
C2271 C2270 1.407 . S
C2271 C2272 1.360 . S
C2271 H2332 0.929 . S
C2272 C2271 1.360 . S
C2272 C2273 1.401 . S
C2272 C2276 1.527 . S
C2273 C2272 1.401 . S
C2273 C2274 1.405 . S
C2273 C2306 1.587 . S
C2274 C2273 1.405 . S
C2274 C2275 1.332 . S
C2274 C2277 1.496 . S
C2275 C2270 1.418 . S
C2275 C2274 1.332 . S
C2275 H2333 0.929 . S
C2276 C2272 1.527 . S
C2276 H2334 0.959 . S
C2276 H2335 0.961 . S
C2276 H2336 0.961 . S
C2277 C2274 1.496 . S
C2277 H2337 0.960 . S
C2277 H2338 0.960 . S
C2277 H2339 0.961 . S
C2278 C2279 1.517 . S
C2278 H2341 0.961 . S
C2278 H2342 0.960 . S
C2278 H2343 0.959 . S
C2279 C2278 1.517 . S
C2279 O2327 1.468 . S
C2279 H2340 0.980 . S
C2280 C2281 1.349 . S
C2280 C2285 1.367 . S
C2280 O2327 1.408 . S
C2281 C2280 1.349 . S
C2281 C2282 1.407 . S
C2281 H2344 0.930 . S
C2282 C2281 1.407 . S
C2282 C2283 1.449 . S
C2282 C2286 1.535 . S
C2283 C2282 1.449 . S
C2283 C2284 1.384 . S
C2283 C2308 1.553 . S
C2284 C2283 1.384 . S
C2284 C2285 1.364 . S
C2284 C2287 1.450 . S
C2285 C2280 1.367 . S
C2285 C2284 1.364 . S
C2285 H2345 0.931 . S
C2286 C2282 1.535 . S
C2286 H2346 0.959 . S
C2286 H2347 0.961 . S
C2286 H2348 0.959 . S
C2287 C2284 1.450 . S
C2287 H2349 0.960 . S
C2287 H2350 0.960 . S
C2287 H2351 0.960 . S
C2288 C2289 1.309 . S
C2288 C2293 1.304 . S
C2288 O2326 1.435 . S
C2289 C2288 1.309 . S
C2289 C2290 1.476 . S
C2289 H2353 0.930 . S
C2290 C2289 1.476 . S
C2290 C2291 1.400 . S
C2290 C2294 1.567 . S
C2291 C2290 1.400 . S
C2291 C2292 1.373 . S
C2291 C2313 1.432 . S
C2292 C2291 1.373 . S
C2292 C2293 1.339 . S
C2292 C2295 1.530 . S
C2293 C2288 1.304 . S
C2293 C2292 1.339 . S
C2293 H2354 0.930 . S
C2294 C2290 1.567 . S
C2294 H2355 0.961 . S
C2294 H2356 0.960 . S
C2294 H2357 0.958 . S
C2295 C2292 1.530 . S
C2295 H2358 0.961 . S
C2295 H2359 0.960 . S
C2295 H2360 0.960 . S
C2296 C2297 1.530 . S
C2296 H2362 0.961 . S
C2296 H2363 0.961 . S
C2296 H2364 0.959 . S
C2297 C2296 1.530 . S
C2297 O2325 1.412 . S
C2297 H2361 0.980 . S
C2298 C2299 1.288 . S
C2298 C2303 1.377 . S
C2298 O2325 1.393 . S
C2299 C2298 1.288 . S
C2299 C2300 1.369 . S
C2299 H2365 0.932 . S
C2300 C2299 1.369 . S
C2300 C2301 1.398 . S
C2300 C2304 1.527 . S
C2301 C2300 1.398 . S
C2301 C2302 1.380 . S
C2301 C2315 1.497 . S
C2302 C2301 1.380 . S
C2302 C2303 1.383 . S
C2302 C2305 1.603 . S
C2303 C2298 1.377 . S
C2303 C2302 1.383 . S
C2303 H2366 0.929 . S
C2304 C2300 1.527 . S
C2304 H2367 0.961 . S
C2304 H2368 0.959 . S
C2304 H2369 0.959 . S
C2305 C2302 1.603 . S
C2305 H2370 0.960 . S
C2305 H2371 0.962 . S
C2305 H2372 0.961 . S
C2306 C2273 1.587 . S
C2306 C2307 1.360 . S
C2306 C2319 1.412 . S
C2307 C2306 1.360 . S
C2307 C2308 1.365 . S
C2307 H2373 0.929 . S
C2308 C2283 1.553 . S
C2308 C2307 1.365 . S
C2308 C2309 1.404 . S
C2309 C2308 1.404 . S
C2309 C2310 1.395 . S
C2309 C2320 1.451 . S
C2310 C2309 1.395 . S
C2310 C2311 1.322 . S
C2310 H2374 0.930 . S
C2311 C2310 1.322 . S
C2311 C2312 1.459 . S
C2311 H2375 0.929 . S
C2312 C2311 1.459 . S
C2312 C2313 1.445 . S
C2312 C2321 1.395 . S
C2313 C2291 1.432 . S
C2313 C2312 1.445 . S
C2313 C2314 1.370 . S
C2314 C2313 1.370 . S
C2314 C2315 1.438 . S
C2314 H2376 0.930 . S
C2315 C2301 1.497 . S
C2315 C2314 1.438 . S
C2315 C2316 1.360 . S
C2316 C2315 1.360 . S
C2316 C2317 1.401 . S
C2316 C2321 1.446 . S
C2317 C2316 1.401 . S
C2317 C2318 1.347 . S
C2317 H2377 0.929 . S
C2318 C2317 1.347 . S
C2318 C2319 1.455 . S
C2318 H2378 0.930 . S
C2319 C2306 1.412 . S
C2319 C2318 1.455 . S
C2319 C2320 1.331 . S
C2320 C2309 1.451 . S
C2320 C2319 1.331 . S
C2320 C2321 1.497 . S
C2321 C2312 1.395 . S
C2321 C2316 1.446 . S
C2321 C2320 1.497 . S
C2322 C2323 1.582 . S
C2322 H2379 0.962 . S
C2322 H2380 0.959 . S
C2322 H2381 0.958 . S
C2323 C2322 1.582 . S
C2323 O2326 1.458 . S
C2323 H2352 0.980 . S
O2324 C2269 1.426 . S
O2324 C2270 1.334 . S
O2325 C2297 1.412 . S
O2325 C2298 1.393 . S
O2326 C2288 1.435 . S
O2326 C2323 1.458 . S
O2327 C2279 1.468 . S
O2327 C2280 1.408 . S
H2328 C2269 0.980 . S
H2329 C2268 0.959 . S
H2330 C2268 0.959 . S
H2331 C2268 0.960 . S
H2332 C2271 0.929 . S
H2333 C2275 0.929 . S
H2334 C2276 0.959 . S
H2335 C2276 0.961 . S
H2336 C2276 0.961 . S
H2337 C2277 0.960 . S
H2338 C2277 0.960 . S
H2339 C2277 0.961 . S
H2340 C2279 0.980 . S
H2341 C2278 0.961 . S
H2342 C2278 0.960 . S
H2343 C2278 0.959 . S
H2344 C2281 0.930 . S
H2345 C2285 0.931 . S
H2346 C2286 0.959 . S
H2347 C2286 0.961 . S
H2348 C2286 0.959 . S
H2349 C2287 0.960 . S
H2350 C2287 0.960 . S
H2351 C2287 0.960 . S
H2352 C2323 0.980 . S
H2353 C2289 0.930 . S
H2354 C2293 0.930 . S
H2355 C2294 0.961 . S
H2356 C2294 0.960 . S
H2357 C2294 0.958 . S
H2358 C2295 0.961 . S
H2359 C2295 0.960 . S
H2360 C2295 0.960 . S
H2361 C2297 0.980 . S
H2362 C2296 0.961 . S
H2363 C2296 0.961 . S
H2364 C2296 0.959 . S
H2365 C2299 0.932 . S
H2366 C2303 0.929 . S
H2367 C2304 0.961 . S
H2368 C2304 0.959 . S
H2369 C2304 0.959 . S
H2370 C2305 0.960 . S
H2371 C2305 0.962 . S
H2372 C2305 0.961 . S
H2373 C2307 0.929 . S
H2374 C2310 0.930 . S
H2375 C2311 0.929 . S
H2376 C2314 0.930 . S
H2377 C2317 0.929 . S
H2378 C2318 0.930 . S
H2379 C2322 0.962 . S
H2380 C2322 0.959 . S
H2381 C2322 0.958 . S
C2382 C2383 1.560 . S
C2382 H2443 0.959 . S
C2382 H2444 0.959 . S
C2382 H2445 0.960 . S
C2383 C2382 1.560 . S
C2383 O2438 1.426 . S
C2383 H2442 0.980 . S
C2384 C2385 1.407 . S
C2384 C2389 1.418 . S
C2384 O2438 1.334 . S
C2385 C2384 1.407 . S
C2385 C2386 1.360 . S
C2385 H2446 0.929 . S
C2386 C2385 1.360 . S
C2386 C2387 1.401 . S
C2386 C2390 1.527 . S
C2387 C2386 1.401 . S
C2387 C2388 1.405 . S
C2387 C2420 1.587 . S
C2388 C2387 1.405 . S
C2388 C2389 1.332 . S
C2388 C2391 1.496 . S
C2389 C2384 1.418 . S
C2389 C2388 1.332 . S
C2389 H2447 0.929 . S
C2390 C2386 1.527 . S
C2390 H2448 0.959 . S
C2390 H2449 0.961 . S
C2390 H2450 0.961 . S
C2391 C2388 1.496 . S
C2391 H2451 0.960 . S
C2391 H2452 0.960 . S
C2391 H2453 0.961 . S
C2392 C2393 1.517 . S
C2392 H2455 0.961 . S
C2392 H2456 0.960 . S
C2392 H2457 0.959 . S
C2393 C2392 1.517 . S
C2393 O2441 1.468 . S
C2393 H2454 0.980 . S
C2394 C2395 1.349 . S
C2394 C2399 1.367 . S
C2394 O2441 1.408 . S
C2395 C2394 1.349 . S
C2395 C2396 1.407 . S
C2395 H2458 0.930 . S
C2396 C2395 1.407 . S
C2396 C2397 1.449 . S
C2396 C2400 1.535 . S
C2397 C2396 1.449 . S
C2397 C2398 1.384 . S
C2397 C2422 1.553 . S
C2398 C2397 1.384 . S
C2398 C2399 1.364 . S
C2398 C2401 1.450 . S
C2399 C2394 1.367 . S
C2399 C2398 1.364 . S
C2399 H2459 0.931 . S
C2400 C2396 1.535 . S
C2400 H2460 0.959 . S
C2400 H2461 0.961 . S
C2400 H2462 0.959 . S
C2401 C2398 1.450 . S
C2401 H2463 0.960 . S
C2401 H2464 0.960 . S
C2401 H2465 0.960 . S
C2402 C2403 1.309 . S
C2402 C2407 1.304 . S
C2402 O2440 1.435 . S
C2403 C2402 1.309 . S
C2403 C2404 1.476 . S
C2403 H2467 0.930 . S
C2404 C2403 1.476 . S
C2404 C2405 1.400 . S
C2404 C2408 1.567 . S
C2405 C2404 1.400 . S
C2405 C2406 1.373 . S
C2405 C2427 1.432 . S
C2406 C2405 1.373 . S
C2406 C2407 1.339 . S
C2406 C2409 1.530 . S
C2407 C2402 1.304 . S
C2407 C2406 1.339 . S
C2407 H2468 0.930 . S
C2408 C2404 1.567 . S
C2408 H2469 0.961 . S
C2408 H2470 0.960 . S
C2408 H2471 0.958 . S
C2409 C2406 1.530 . S
C2409 H2472 0.961 . S
C2409 H2473 0.960 . S
C2409 H2474 0.960 . S
C2410 C2411 1.530 . S
C2410 H2476 0.961 . S
C2410 H2477 0.961 . S
C2410 H2478 0.959 . S
C2411 C2410 1.530 . S
C2411 O2439 1.412 . S
C2411 H2475 0.980 . S
C2412 C2413 1.288 . S
C2412 C2417 1.377 . S
C2412 O2439 1.393 . S
C2413 C2412 1.288 . S
C2413 C2414 1.369 . S
C2413 H2479 0.932 . S
C2414 C2413 1.369 . S
C2414 C2415 1.398 . S
C2414 C2418 1.527 . S
C2415 C2414 1.398 . S
C2415 C2416 1.380 . S
C2415 C2429 1.497 . S
C2416 C2415 1.380 . S
C2416 C2417 1.383 . S
C2416 C2419 1.603 . S
C2417 C2412 1.377 . S
C2417 C2416 1.383 . S
C2417 H2480 0.929 . S
C2418 C2414 1.527 . S
C2418 H2481 0.961 . S
C2418 H2482 0.959 . S
C2418 H2483 0.959 . S
C2419 C2416 1.603 . S
C2419 H2484 0.960 . S
C2419 H2485 0.962 . S
C2419 H2486 0.961 . S
C2420 C2387 1.587 . S
C2420 C2421 1.360 . S
C2420 C2433 1.412 . S
C2421 C2420 1.360 . S
C2421 C2422 1.365 . S
C2421 H2487 0.929 . S
C2422 C2397 1.553 . S
C2422 C2421 1.365 . S
C2422 C2423 1.404 . S
C2423 C2422 1.404 . S
C2423 C2424 1.395 . S
C2423 C2434 1.451 . S
C2424 C2423 1.395 . S
C2424 C2425 1.322 . S
C2424 H2488 0.930 . S
C2425 C2424 1.322 . S
C2425 C2426 1.459 . S
C2425 H2489 0.929 . S
C2426 C2425 1.459 . S
C2426 C2427 1.445 . S
C2426 C2435 1.395 . S
C2427 C2405 1.432 . S
C2427 C2426 1.445 . S
C2427 C2428 1.370 . S
C2428 C2427 1.370 . S
C2428 C2429 1.438 . S
C2428 H2490 0.930 . S
C2429 C2415 1.497 . S
C2429 C2428 1.438 . S
C2429 C2430 1.360 . S
C2430 C2429 1.360 . S
C2430 C2431 1.401 . S
C2430 C2435 1.446 . S
C2431 C2430 1.401 . S
C2431 C2432 1.347 . S
C2431 H2491 0.929 . S
C2432 C2431 1.347 . S
C2432 C2433 1.455 . S
C2432 H2492 0.930 . S
C2433 C2420 1.412 . S
C2433 C2432 1.455 . S
C2433 C2434 1.331 . S
C2434 C2423 1.451 . S
C2434 C2433 1.331 . S
C2434 C2435 1.497 . S
C2435 C2426 1.395 . S
C2435 C2430 1.446 . S
C2435 C2434 1.497 . S
C2436 C2437 1.582 . S
C2436 H2493 0.962 . S
C2436 H2494 0.959 . S
C2436 H2495 0.958 . S
C2437 C2436 1.582 . S
C2437 O2440 1.458 . S
C2437 H2466 0.980 . S
O2438 C2383 1.426 . S
O2438 C2384 1.334 . S
O2439 C2411 1.412 . S
O2439 C2412 1.393 . S
O2440 C2402 1.435 . S
O2440 C2437 1.458 . S
O2441 C2393 1.468 . S
O2441 C2394 1.408 . S
H2442 C2383 0.980 . S
H2443 C2382 0.959 . S
H2444 C2382 0.959 . S
H2445 C2382 0.960 . S
H2446 C2385 0.929 . S
H2447 C2389 0.929 . S
H2448 C2390 0.959 . S
H2449 C2390 0.961 . S
H2450 C2390 0.961 . S
H2451 C2391 0.960 . S
H2452 C2391 0.960 . S
H2453 C2391 0.961 . S
H2454 C2393 0.980 . S
H2455 C2392 0.961 . S
H2456 C2392 0.960 . S
H2457 C2392 0.959 . S
H2458 C2395 0.930 . S
H2459 C2399 0.931 . S
H2460 C2400 0.959 . S
H2461 C2400 0.961 . S
H2462 C2400 0.959 . S
H2463 C2401 0.960 . S
H2464 C2401 0.960 . S
H2465 C2401 0.960 . S
H2466 C2437 0.980 . S
H2467 C2403 0.930 . S
H2468 C2407 0.930 . S
H2469 C2408 0.961 . S
H2470 C2408 0.960 . S
H2471 C2408 0.958 . S
H2472 C2409 0.961 . S
H2473 C2409 0.960 . S
H2474 C2409 0.960 . S
H2475 C2411 0.980 . S
H2476 C2410 0.961 . S
H2477 C2410 0.961 . S
H2478 C2410 0.959 . S
H2479 C2413 0.932 . S
H2480 C2417 0.929 . S
H2481 C2418 0.961 . S
H2482 C2418 0.959 . S
H2483 C2418 0.959 . S
H2484 C2419 0.960 . S
H2485 C2419 0.962 . S
H2486 C2419 0.961 . S
H2487 C2421 0.929 . S
H2488 C2424 0.930 . S
H2489 C2425 0.929 . S
H2490 C2428 0.930 . S
H2491 C2431 0.929 . S
H2492 C2432 0.930 . S
H2493 C2436 0.962 . S
H2494 C2436 0.959 . S
H2495 C2436 0.958 . S
C2496 C2497 1.560 . S
C2496 H2557 0.959 . S
C2496 H2558 0.959 . S
C2496 H2559 0.960 . S
C2497 C2496 1.560 . S
C2497 O2552 1.426 . S
C2497 H2556 0.980 . S
C2498 C2499 1.407 . S
C2498 C2503 1.418 . S
C2498 O2552 1.334 . S
C2499 C2498 1.407 . S
C2499 C2500 1.360 . S
C2499 H2560 0.929 . S
C2500 C2499 1.360 . S
C2500 C2501 1.401 . S
C2500 C2504 1.527 . S
C2501 C2500 1.401 . S
C2501 C2502 1.405 . S
C2501 C2534 1.587 . S
C2502 C2501 1.405 . S
C2502 C2503 1.332 . S
C2502 C2505 1.496 . S
C2503 C2498 1.418 . S
C2503 C2502 1.332 . S
C2503 H2561 0.929 . S
C2504 C2500 1.527 . S
C2504 H2562 0.959 . S
C2504 H2563 0.961 . S
C2504 H2564 0.961 . S
C2505 C2502 1.496 . S
C2505 H2565 0.960 . S
C2505 H2566 0.960 . S
C2505 H2567 0.961 . S
C2506 C2507 1.517 . S
C2506 H2569 0.961 . S
C2506 H2570 0.960 . S
C2506 H2571 0.959 . S
C2507 C2506 1.517 . S
C2507 O2555 1.468 . S
C2507 H2568 0.980 . S
C2508 C2509 1.349 . S
C2508 C2513 1.367 . S
C2508 O2555 1.408 . S
C2509 C2508 1.349 . S
C2509 C2510 1.407 . S
C2509 H2572 0.930 . S
C2510 C2509 1.407 . S
C2510 C2511 1.449 . S
C2510 C2514 1.535 . S
C2511 C2510 1.449 . S
C2511 C2512 1.384 . S
C2511 C2536 1.553 . S
C2512 C2511 1.384 . S
C2512 C2513 1.364 . S
C2512 C2515 1.450 . S
C2513 C2508 1.367 . S
C2513 C2512 1.364 . S
C2513 H2573 0.931 . S
C2514 C2510 1.535 . S
C2514 H2574 0.959 . S
C2514 H2575 0.961 . S
C2514 H2576 0.959 . S
C2515 C2512 1.450 . S
C2515 H2577 0.960 . S
C2515 H2578 0.960 . S
C2515 H2579 0.960 . S
C2516 C2517 1.309 . S
C2516 C2521 1.304 . S
C2516 O2554 1.435 . S
C2517 C2516 1.309 . S
C2517 C2518 1.476 . S
C2517 H2581 0.930 . S
C2518 C2517 1.476 . S
C2518 C2519 1.400 . S
C2518 C2522 1.567 . S
C2519 C2518 1.400 . S
C2519 C2520 1.373 . S
C2519 C2541 1.432 . S
C2520 C2519 1.373 . S
C2520 C2521 1.339 . S
C2520 C2523 1.530 . S
C2521 C2516 1.304 . S
C2521 C2520 1.339 . S
C2521 H2582 0.930 . S
C2522 C2518 1.567 . S
C2522 H2583 0.961 . S
C2522 H2584 0.960 . S
C2522 H2585 0.958 . S
C2523 C2520 1.530 . S
C2523 H2586 0.961 . S
C2523 H2587 0.960 . S
C2523 H2588 0.960 . S
C2524 C2525 1.530 . S
C2524 H2590 0.961 . S
C2524 H2591 0.961 . S
C2524 H2592 0.959 . S
C2525 C2524 1.530 . S
C2525 O2553 1.412 . S
C2525 H2589 0.980 . S
C2526 C2527 1.288 . S
C2526 C2531 1.377 . S
C2526 O2553 1.393 . S
C2527 C2526 1.288 . S
C2527 C2528 1.369 . S
C2527 H2593 0.932 . S
C2528 C2527 1.369 . S
C2528 C2529 1.398 . S
C2528 C2532 1.527 . S
C2529 C2528 1.398 . S
C2529 C2530 1.380 . S
C2529 C2543 1.497 . S
C2530 C2529 1.380 . S
C2530 C2531 1.383 . S
C2530 C2533 1.603 . S
C2531 C2526 1.377 . S
C2531 C2530 1.383 . S
C2531 H2594 0.929 . S
C2532 C2528 1.527 . S
C2532 H2595 0.961 . S
C2532 H2596 0.959 . S
C2532 H2597 0.959 . S
C2533 C2530 1.603 . S
C2533 H2598 0.960 . S
C2533 H2599 0.962 . S
C2533 H2600 0.961 . S
C2534 C2501 1.587 . S
C2534 C2535 1.360 . S
C2534 C2547 1.412 . S
C2535 C2534 1.360 . S
C2535 C2536 1.365 . S
C2535 H2601 0.929 . S
C2536 C2511 1.553 . S
C2536 C2535 1.365 . S
C2536 C2537 1.404 . S
C2537 C2536 1.404 . S
C2537 C2538 1.395 . S
C2537 C2548 1.451 . S
C2538 C2537 1.395 . S
C2538 C2539 1.322 . S
C2538 H2602 0.930 . S
C2539 C2538 1.322 . S
C2539 C2540 1.459 . S
C2539 H2603 0.929 . S
C2540 C2539 1.459 . S
C2540 C2541 1.445 . S
C2540 C2549 1.395 . S
C2541 C2519 1.432 . S
C2541 C2540 1.445 . S
C2541 C2542 1.370 . S
C2542 C2541 1.370 . S
C2542 C2543 1.438 . S
C2542 H2604 0.930 . S
C2543 C2529 1.497 . S
C2543 C2542 1.438 . S
C2543 C2544 1.360 . S
C2544 C2543 1.360 . S
C2544 C2545 1.401 . S
C2544 C2549 1.446 . S
C2545 C2544 1.401 . S
C2545 C2546 1.347 . S
C2545 H2605 0.929 . S
C2546 C2545 1.347 . S
C2546 C2547 1.455 . S
C2546 H2606 0.930 . S
C2547 C2534 1.412 . S
C2547 C2546 1.455 . S
C2547 C2548 1.331 . S
C2548 C2537 1.451 . S
C2548 C2547 1.331 . S
C2548 C2549 1.497 . S
C2549 C2540 1.395 . S
C2549 C2544 1.446 . S
C2549 C2548 1.497 . S
C2550 C2551 1.582 . S
C2550 H2607 0.962 . S
C2550 H2608 0.959 . S
C2550 H2609 0.958 . S
C2551 C2550 1.582 . S
C2551 O2554 1.458 . S
C2551 H2580 0.980 . S
O2552 C2497 1.426 . S
O2552 C2498 1.334 . S
O2553 C2525 1.412 . S
O2553 C2526 1.393 . S
O2554 C2516 1.435 . S
O2554 C2551 1.458 . S
O2555 C2507 1.468 . S
O2555 C2508 1.408 . S
H2556 C2497 0.980 . S
H2557 C2496 0.959 . S
H2558 C2496 0.959 . S
H2559 C2496 0.960 . S
H2560 C2499 0.929 . S
H2561 C2503 0.929 . S
H2562 C2504 0.959 . S
H2563 C2504 0.961 . S
H2564 C2504 0.961 . S
H2565 C2505 0.960 . S
H2566 C2505 0.960 . S
H2567 C2505 0.961 . S
H2568 C2507 0.980 . S
H2569 C2506 0.961 . S
H2570 C2506 0.960 . S
H2571 C2506 0.959 . S
H2572 C2509 0.930 . S
H2573 C2513 0.931 . S
H2574 C2514 0.959 . S
H2575 C2514 0.961 . S
H2576 C2514 0.959 . S
H2577 C2515 0.960 . S
H2578 C2515 0.960 . S
H2579 C2515 0.960 . S
H2580 C2551 0.980 . S
H2581 C2517 0.930 . S
H2582 C2521 0.930 . S
H2583 C2522 0.961 . S
H2584 C2522 0.960 . S
H2585 C2522 0.958 . S
H2586 C2523 0.961 . S
H2587 C2523 0.960 . S
H2588 C2523 0.960 . S
H2589 C2525 0.980 . S
H2590 C2524 0.961 . S
H2591 C2524 0.961 . S
H2592 C2524 0.959 . S
H2593 C2527 0.932 . S
H2594 C2531 0.929 . S
H2595 C2532 0.961 . S
H2596 C2532 0.959 . S
H2597 C2532 0.959 . S
H2598 C2533 0.960 . S
H2599 C2533 0.962 . S
H2600 C2533 0.961 . S
H2601 C2535 0.929 . S
H2602 C2538 0.930 . S
H2603 C2539 0.929 . S
H2604 C2542 0.930 . S
H2605 C2545 0.929 . S
H2606 C2546 0.930 . S
H2607 C2550 0.962 . S
H2608 C2550 0.959 . S
H2609 C2550 0.958 . S
C2610 C2611 1.560 . S
C2610 H2671 0.959 . S
C2610 H2672 0.959 . S
C2610 H2673 0.960 . S
C2611 C2610 1.560 . S
C2611 O2666 1.426 . S
C2611 H2670 0.980 . S
C2612 C2613 1.407 1_455 S
C2612 C2617 1.418 . S
C2612 O2666 1.334 . S
C2613 C2612 1.407 1_655 S
C2613 C2614 1.360 . S
C2613 H2674 0.929 . S
C2614 C2613 1.360 . S
C2614 C2615 1.401 1_655 S
C2614 C2618 1.527 . S
C2615 C2614 1.401 1_455 S
C2615 C2616 1.405 . S
C2615 C2648 1.587 1_455 S
C2616 C2615 1.405 . S
C2616 C2617 1.332 . S
C2616 C2619 1.496 . S
C2617 C2612 1.418 . S
C2617 C2616 1.332 . S
C2617 H2675 0.929 . S
C2618 C2614 1.527 . S
C2618 H2676 0.959 . S
C2618 H2677 0.961 . S
C2618 H2678 0.961 . S
C2619 C2616 1.496 . S
C2619 H2679 0.960 . S
C2619 H2680 0.960 . S
C2619 H2681 0.961 . S
C2620 C2621 1.517 . S
C2620 H2683 0.963 . S
C2620 H2684 0.960 . S
C2620 H2685 0.959 . S
C2621 C2620 1.517 . S
C2621 O2669 1.468 . S
C2621 H2682 0.980 1_655 S
C2622 C2623 1.349 . S
C2622 C2627 1.367 . S
C2622 O2669 1.408 . S
C2623 C2622 1.349 . S
C2623 C2624 1.354 1_655 S
C2623 H2686 0.930 1_655 S
C2624 C2623 1.354 1_455 S
C2624 C2625 1.404 1_455 S
C2624 C2628 1.628 . S
C2625 C2624 1.404 1_655 S
C2625 C2626 1.384 . S
C2625 C2650 1.553 . S
C2626 C2625 1.384 . S
C2626 C2627 1.364 . S
C2626 C2629 1.450 . S
C2627 C2622 1.367 . S
C2627 C2626 1.364 . S
C2627 H2687 0.931 . S
C2628 C2624 1.628 . S
C2628 H2688 0.959 . S
C2628 H2689 0.961 . S
C2628 H2690 0.959 . S
C2629 C2626 1.450 . S
C2629 H2691 0.960 . S
C2629 H2692 0.960 . S
C2629 H2693 0.960 . S
C2630 C2631 1.309 . S
C2630 C2635 1.304 . S
C2630 O2668 1.435 . S
C2631 C2630 1.309 . S
C2631 C2632 1.478 1_655 S
C2631 H2695 0.930 1_655 S
C2632 C2631 1.478 1_455 S
C2632 C2633 1.402 1_455 S
C2632 C2636 1.563 . S
C2633 C2632 1.402 1_655 S
C2633 C2634 1.373 . S
C2633 C2655 1.432 . S
C2634 C2633 1.373 . S
C2634 C2635 1.339 . S
C2634 C2637 1.530 . S
C2635 C2630 1.304 . S
C2635 C2634 1.339 . S
C2635 H2696 0.930 . S
C2636 C2632 1.563 . S
C2636 H2697 0.961 . S
C2636 H2698 0.960 . S
C2636 H2699 0.958 . S
C2637 C2634 1.530 . S
C2637 H2700 0.961 . S
C2637 H2701 0.960 . S
C2637 H2702 0.960 . S
C2638 C2639 1.505 1_455 S
C2638 H2704 0.961 . S
C2638 H2705 0.961 . S
C2638 H2706 0.959 . S
C2639 C2638 1.505 1_655 S
C2639 O2667 1.407 1_655 S
C2639 H2703 0.988 . S
C2640 C2641 1.288 . S
C2640 C2645 1.377 1_455 S
C2640 O2667 1.393 . S
C2641 C2640 1.288 . S
C2641 C2642 1.369 . S
C2641 H2707 0.932 . S
C2642 C2641 1.369 . S
C2642 C2643 1.398 1_455 S
C2642 C2646 1.527 . S
C2643 C2642 1.398 1_655 S
C2643 C2644 1.380 . S
C2643 C2657 1.497 . S
C2644 C2643 1.380 . S
C2644 C2645 1.383 . S
C2644 C2647 1.603 . S
C2645 C2640 1.377 1_655 S
C2645 C2644 1.383 . S
C2645 H2708 0.929 . S
C2646 C2642 1.527 . S
C2646 H2709 0.961 . S
C2646 H2710 0.959 . S
C2646 H2711 0.959 . S
C2647 C2644 1.603 . S
C2647 H2712 0.960 . S
C2647 H2713 0.962 . S
C2647 H2714 0.961 . S
C2648 C2615 1.587 1_655 S
C2648 C2649 1.360 . S
C2648 C2661 1.412 . S
C2649 C2648 1.360 . S
C2649 C2650 1.365 . S
C2649 H2715 0.929 . S
C2650 C2625 1.553 . S
C2650 C2649 1.365 . S
C2650 C2651 1.404 . S
C2651 C2650 1.404 . S
C2651 C2652 1.395 . S
C2651 C2662 1.451 . S
C2652 C2651 1.395 . S
C2652 C2653 1.322 . S
C2652 H2716 0.930 . S
C2653 C2652 1.322 . S
C2653 C2654 1.459 . S
C2653 H2717 0.929 . S
C2654 C2653 1.459 . S
C2654 C2655 1.445 . S
C2654 C2663 1.395 . S
C2655 C2633 1.432 . S
C2655 C2654 1.445 . S
C2655 C2656 1.370 . S
C2656 C2655 1.370 . S
C2656 C2657 1.438 . S
C2656 H2718 0.930 . S
C2657 C2643 1.497 . S
C2657 C2656 1.438 . S
C2657 C2658 1.360 . S
C2658 C2657 1.360 . S
C2658 C2659 1.401 . S
C2658 C2663 1.446 . S
C2659 C2658 1.401 . S
C2659 C2660 1.347 . S
C2659 H2719 0.929 . S
C2660 C2659 1.347 . S
C2660 C2661 1.455 . S
C2660 H2720 0.930 . S
C2661 C2648 1.412 . S
C2661 C2660 1.455 . S
C2661 C2662 1.331 . S
C2662 C2651 1.451 . S
C2662 C2661 1.331 . S
C2662 C2663 1.497 . S
C2663 C2654 1.395 . S
C2663 C2658 1.446 . S
C2663 C2662 1.497 . S
C2664 C2665 1.582 . S
C2664 H2721 0.962 . S
C2664 H2722 0.959 . S
C2664 H2723 0.958 . S
C2665 C2664 1.582 . S
C2665 O2668 1.458 . S
C2665 H2694 0.980 . S
O2666 C2611 1.426 . S
O2666 C2612 1.334 . S
O2667 C2639 1.407 1_455 S
O2667 C2640 1.393 . S
O2668 C2630 1.435 . S
O2668 C2665 1.458 . S
O2669 C2621 1.468 . S
O2669 C2622 1.408 . S
H2670 C2611 0.980 . S
H2671 C2610 0.959 . S
H2672 C2610 0.959 . S
H2673 C2610 0.960 . S
H2674 C2613 0.929 . S
H2675 C2617 0.929 . S
H2676 C2618 0.959 . S
H2677 C2618 0.961 . S
H2678 C2618 0.961 . S
H2679 C2619 0.960 . S
H2680 C2619 0.960 . S
H2681 C2619 0.961 . S
H2682 C2621 0.980 1_455 S
H2683 C2620 0.963 . S
H2684 C2620 0.960 . S
H2685 C2620 0.959 . S
H2686 C2623 0.930 1_455 S
H2687 C2627 0.931 . S
H2688 C2628 0.959 . S
H2689 C2628 0.961 . S
H2690 C2628 0.959 . S
H2691 C2629 0.960 . S
H2692 C2629 0.960 . S
H2693 C2629 0.960 . S
H2694 C2665 0.980 . S
H2695 C2631 0.930 1_455 S
H2696 C2635 0.930 . S
H2697 C2636 0.961 . S
H2698 C2636 0.960 . S
H2699 C2636 0.958 . S
H2700 C2637 0.961 . S
H2701 C2637 0.960 . S
H2702 C2637 0.960 . S
H2703 C2639 0.988 . S
H2704 C2638 0.961 . S
H2705 C2638 0.961 . S
H2706 C2638 0.959 . S
H2707 C2641 0.932 . S
H2708 C2645 0.929 . S
H2709 C2646 0.961 . S
H2710 C2646 0.959 . S
H2711 C2646 0.959 . S
H2712 C2647 0.960 . S
H2713 C2647 0.962 . S
H2714 C2647 0.961 . S
H2715 C2649 0.929 . S
H2716 C2652 0.930 . S
H2717 C2653 0.929 . S
H2718 C2656 0.930 . S
H2719 C2659 0.929 . S
H2720 C2660 0.930 . S
H2721 C2664 0.962 . S
H2722 C2664 0.959 . S
H2723 C2664 0.958 . S
C2724 C2725 1.560 . S
C2724 H2785 0.959 . S
C2724 H2786 0.959 . S
C2724 H2787 0.960 . S
C2725 C2724 1.560 . S
C2725 O2780 1.426 . S
C2725 H2784 0.980 . S
C2726 C2727 1.407 . S
C2726 C2731 1.418 . S
C2726 O2780 1.334 . S
C2727 C2726 1.407 . S
C2727 C2728 1.360 . S
C2727 H2788 0.929 . S
C2728 C2727 1.360 . S
C2728 C2729 1.401 . S
C2728 C2732 1.527 . S
C2729 C2728 1.401 . S
C2729 C2730 1.405 . S
C2729 C2762 1.587 . S
C2730 C2729 1.405 . S
C2730 C2731 1.332 . S
C2730 C2733 1.496 . S
C2731 C2726 1.418 . S
C2731 C2730 1.332 . S
C2731 H2789 0.929 . S
C2732 C2728 1.527 . S
C2732 H2790 0.959 . S
C2732 H2791 0.961 . S
C2732 H2792 0.961 . S
C2733 C2730 1.496 . S
C2733 H2793 0.960 . S
C2733 H2794 0.960 . S
C2733 H2795 0.961 . S
C2734 C2735 1.517 . S
C2734 H2797 0.961 . S
C2734 H2798 0.960 . S
C2734 H2799 0.959 . S
C2735 C2734 1.517 . S
C2735 O2783 1.468 . S
C2735 H2796 0.980 . S
C2736 C2737 1.349 . S
C2736 C2741 1.367 . S
C2736 O2783 1.408 . S
C2737 C2736 1.349 . S
C2737 C2738 1.407 . S
C2737 H2800 0.930 . S
C2738 C2737 1.407 . S
C2738 C2739 1.449 . S
C2738 C2742 1.535 . S
C2739 C2738 1.449 . S
C2739 C2740 1.384 . S
C2739 C2764 1.553 . S
C2740 C2739 1.384 . S
C2740 C2741 1.364 . S
C2740 C2743 1.450 . S
C2741 C2736 1.367 . S
C2741 C2740 1.364 . S
C2741 H2801 0.931 . S
C2742 C2738 1.535 . S
C2742 H2802 0.959 . S
C2742 H2803 0.961 . S
C2742 H2804 0.959 . S
C2743 C2740 1.450 . S
C2743 H2805 0.960 . S
C2743 H2806 0.960 . S
C2743 H2807 0.960 . S
C2744 C2745 1.309 . S
C2744 C2749 1.304 . S
C2744 O2782 1.435 . S
C2745 C2744 1.309 . S
C2745 C2746 1.476 . S
C2745 H2809 0.930 . S
C2746 C2745 1.476 . S
C2746 C2747 1.400 . S
C2746 C2750 1.567 . S
C2747 C2746 1.400 . S
C2747 C2748 1.373 . S
C2747 C2769 1.432 . S
C2748 C2747 1.373 . S
C2748 C2749 1.339 . S
C2748 C2751 1.530 . S
C2749 C2744 1.304 . S
C2749 C2748 1.339 . S
C2749 H2810 0.930 . S
C2750 C2746 1.567 . S
C2750 H2811 0.961 . S
C2750 H2812 0.960 . S
C2750 H2813 0.958 . S
C2751 C2748 1.530 . S
C2751 H2814 0.961 . S
C2751 H2815 0.960 . S
C2751 H2816 0.960 . S
C2752 C2753 1.530 . S
C2752 H2818 0.961 . S
C2752 H2819 0.961 . S
C2752 H2820 0.959 . S
C2753 C2752 1.530 . S
C2753 O2781 1.412 . S
C2753 H2817 0.980 . S
C2754 C2755 1.288 . S
C2754 C2759 1.377 . S
C2754 O2781 1.393 . S
C2755 C2754 1.288 . S
C2755 C2756 1.369 . S
C2755 H2821 0.932 . S
C2756 C2755 1.369 . S
C2756 C2757 1.398 . S
C2756 C2760 1.527 . S
C2757 C2756 1.398 . S
C2757 C2758 1.380 . S
C2757 C2771 1.497 . S
C2758 C2757 1.380 . S
C2758 C2759 1.383 . S
C2758 C2761 1.603 . S
C2759 C2754 1.377 . S
C2759 C2758 1.383 . S
C2759 H2822 0.929 . S
C2760 C2756 1.527 . S
C2760 H2823 0.961 . S
C2760 H2824 0.959 . S
C2760 H2825 0.959 . S
C2761 C2758 1.603 . S
C2761 H2826 0.960 . S
C2761 H2827 0.962 . S
C2761 H2828 0.961 . S
C2762 C2729 1.587 . S
C2762 C2763 1.360 . S
C2762 C2775 1.412 . S
C2763 C2762 1.360 . S
C2763 C2764 1.365 . S
C2763 H2829 0.929 . S
C2764 C2739 1.553 . S
C2764 C2763 1.365 . S
C2764 C2765 1.404 . S
C2765 C2764 1.404 . S
C2765 C2766 1.395 . S
C2765 C2776 1.451 . S
C2766 C2765 1.395 . S
C2766 C2767 1.322 . S
C2766 H2830 0.930 . S
C2767 C2766 1.322 . S
C2767 C2768 1.459 . S
C2767 H2831 0.929 . S
C2768 C2767 1.459 . S
C2768 C2769 1.445 . S
C2768 C2777 1.395 . S
C2769 C2747 1.432 . S
C2769 C2768 1.445 . S
C2769 C2770 1.370 . S
C2770 C2769 1.370 . S
C2770 C2771 1.438 . S
C2770 H2832 0.930 . S
C2771 C2757 1.497 . S
C2771 C2770 1.438 . S
C2771 C2772 1.360 . S
C2772 C2771 1.360 . S
C2772 C2773 1.401 . S
C2772 C2777 1.446 . S
C2773 C2772 1.401 . S
C2773 C2774 1.347 . S
C2773 H2833 0.929 . S
C2774 C2773 1.347 . S
C2774 C2775 1.455 . S
C2774 H2834 0.930 . S
C2775 C2762 1.412 . S
C2775 C2774 1.455 . S
C2775 C2776 1.331 . S
C2776 C2765 1.451 . S
C2776 C2775 1.331 . S
C2776 C2777 1.497 . S
C2777 C2768 1.395 . S
C2777 C2772 1.446 . S
C2777 C2776 1.497 . S
C2778 C2779 1.582 . S
C2778 H2835 0.962 . S
C2778 H2836 0.959 . S
C2778 H2837 0.958 . S
C2779 C2778 1.582 . S
C2779 O2782 1.458 . S
C2779 H2808 0.980 . S
O2780 C2725 1.426 . S
O2780 C2726 1.334 . S
O2781 C2753 1.412 . S
O2781 C2754 1.393 . S
O2782 C2744 1.435 . S
O2782 C2779 1.458 . S
O2783 C2735 1.468 . S
O2783 C2736 1.408 . S
H2784 C2725 0.980 . S
H2785 C2724 0.959 . S
H2786 C2724 0.959 . S
H2787 C2724 0.960 . S
H2788 C2727 0.929 . S
H2789 C2731 0.929 . S
H2790 C2732 0.959 . S
H2791 C2732 0.961 . S
H2792 C2732 0.961 . S
H2793 C2733 0.960 . S
H2794 C2733 0.960 . S
H2795 C2733 0.961 . S
H2796 C2735 0.980 . S
H2797 C2734 0.961 . S
H2798 C2734 0.960 . S
H2799 C2734 0.959 . S
H2800 C2737 0.930 . S
H2801 C2741 0.931 . S
H2802 C2742 0.959 . S
H2803 C2742 0.961 . S
H2804 C2742 0.959 . S
H2805 C2743 0.960 . S
H2806 C2743 0.960 . S
H2807 C2743 0.960 . S
H2808 C2779 0.980 . S
H2809 C2745 0.930 . S
H2810 C2749 0.930 . S
H2811 C2750 0.961 . S
H2812 C2750 0.960 . S
H2813 C2750 0.958 . S
H2814 C2751 0.961 . S
H2815 C2751 0.960 . S
H2816 C2751 0.960 . S
H2817 C2753 0.980 . S
H2818 C2752 0.961 . S
H2819 C2752 0.961 . S
H2820 C2752 0.959 . S
H2821 C2755 0.932 . S
H2822 C2759 0.929 . S
H2823 C2760 0.961 . S
H2824 C2760 0.959 . S
H2825 C2760 0.959 . S
H2826 C2761 0.960 . S
H2827 C2761 0.962 . S
H2828 C2761 0.961 . S
H2829 C2763 0.929 . S
H2830 C2766 0.930 . S
H2831 C2767 0.929 . S
H2832 C2770 0.930 . S
H2833 C2773 0.929 . S
H2834 C2774 0.930 . S
H2835 C2778 0.962 . S
H2836 C2778 0.959 . S
H2837 C2778 0.958 . S
C2838 C2839 1.560 . S
C2838 H2899 0.959 . S
C2838 H2900 0.959 . S
C2838 H2901 0.960 . S
C2839 C2838 1.560 . S
C2839 O2894 1.426 . S
C2839 H2898 0.980 . S
C2840 C2841 1.407 1_565 S
C2840 C2845 1.418 . S
C2840 O2894 1.334 . S
C2841 C2840 1.407 1_545 S
C2841 C2842 1.360 . S
C2841 H2902 0.929 . S
C2842 C2841 1.360 . S
C2842 C2843 1.401 1_545 S
C2842 C2846 1.527 . S
C2843 C2842 1.401 1_565 S
C2843 C2844 1.405 . S
C2843 C2876 1.587 1_565 S
C2844 C2843 1.405 . S
C2844 C2845 1.332 . S
C2844 C2847 1.496 . S
C2845 C2840 1.418 . S
C2845 C2844 1.332 . S
C2845 H2903 0.929 . S
C2846 C2842 1.527 . S
C2846 H2904 0.959 . S
C2846 H2905 0.961 . S
C2846 H2906 0.961 . S
C2847 C2844 1.496 . S
C2847 H2907 0.960 . S
C2847 H2908 0.960 . S
C2847 H2909 0.961 . S
C2848 C2849 1.517 . S
C2848 H2911 0.961 1_545 S
C2848 H2912 0.960 . S
C2848 H2913 0.959 . S
C2849 C2848 1.517 . S
C2849 O2897 1.468 . S
C2849 H2910 0.980 1_545 S
C2850 C2851 1.378 . S
C2850 C2855 1.367 . S
C2850 O2897 1.408 . S
C2851 C2850 1.378 . S
C2851 C2852 1.425 1_545 S
C2851 H2914 0.884 1_545 S
C2852 C2851 1.425 1_565 S
C2852 C2853 1.449 1_565 S
C2852 C2856 1.535 . S
C2853 C2852 1.449 1_545 S
C2853 C2854 1.384 . S
C2853 C2878 1.553 . S
C2854 C2853 1.384 . S
C2854 C2855 1.364 . S
C2854 C2857 1.450 . S
C2855 C2850 1.367 . S
C2855 C2854 1.364 . S
C2855 H2915 0.931 . S
C2856 C2852 1.535 . S
C2856 H2916 0.959 . S
C2856 H2917 0.961 . S
C2856 H2918 0.959 . S
C2857 C2854 1.450 . S
C2857 H2919 0.960 . S
C2857 H2920 0.960 . S
C2857 H2921 0.960 . S
C2858 C2859 1.309 . S
C2858 C2863 1.304 . S
C2858 O2896 1.435 . S
C2859 C2858 1.309 . S
C2859 C2860 1.490 1_545 S
C2859 H2923 0.930 1_545 S
C2860 C2859 1.490 1_565 S
C2860 C2861 1.356 1_565 S
C2860 C2864 1.597 . S
C2861 C2860 1.356 1_545 S
C2861 C2862 1.373 . S
C2861 C2883 1.432 . S
C2862 C2861 1.373 . S
C2862 C2863 1.339 . S
C2862 C2865 1.530 . S
C2863 C2858 1.304 . S
C2863 C2862 1.339 . S
C2863 H2924 0.930 . S
C2864 C2860 1.597 . S
C2864 H2925 0.961 . S
C2864 H2926 0.960 . S
C2864 H2927 0.958 . S
C2865 C2862 1.530 . S
C2865 H2928 0.961 . S
C2865 H2929 0.960 . S
C2865 H2930 0.960 . S
C2866 C2867 1.530 1_565 S
C2866 H2932 0.961 . S
C2866 H2933 0.961 . S
C2866 H2934 0.959 . S
C2867 C2866 1.530 1_545 S
C2867 O2895 1.412 1_545 S
C2867 H2931 0.980 . S
C2868 C2869 1.288 . S
C2868 C2873 1.377 1_565 S
C2868 O2895 1.393 . S
C2869 C2868 1.288 . S
C2869 C2870 1.369 . S
C2869 H2935 0.932 . S
C2870 C2869 1.369 . S
C2870 C2871 1.398 1_565 S
C2870 C2874 1.527 . S
C2871 C2870 1.398 1_545 S
C2871 C2872 1.380 . S
C2871 C2885 1.497 . S
C2872 C2871 1.380 . S
C2872 C2873 1.383 . S
C2872 C2875 1.603 . S
C2873 C2868 1.377 1_545 S
C2873 C2872 1.383 . S
C2873 H2936 0.929 . S
C2874 C2870 1.527 . S
C2874 H2937 0.961 . S
C2874 H2938 0.959 . S
C2874 H2939 0.959 . S
C2875 C2872 1.603 . S
C2875 H2940 0.960 . S
C2875 H2941 0.962 . S
C2875 H2942 0.961 . S
C2876 C2843 1.587 1_545 S
C2876 C2877 1.360 . S
C2876 C2889 1.412 . S
C2877 C2876 1.360 . S
C2877 C2878 1.365 . S
C2877 H2943 0.929 . S
C2878 C2853 1.553 . S
C2878 C2877 1.365 . S
C2878 C2879 1.404 . S
C2879 C2878 1.404 . S
C2879 C2880 1.395 . S
C2879 C2890 1.451 . S
C2880 C2879 1.395 . S
C2880 C2881 1.322 . S
C2880 H2944 0.930 . S
C2881 C2880 1.322 . S
C2881 C2882 1.459 . S
C2881 H2945 0.929 . S
C2882 C2881 1.459 . S
C2882 C2883 1.445 . S
C2882 C2891 1.395 . S
C2883 C2861 1.432 . S
C2883 C2882 1.445 . S
C2883 C2884 1.370 . S
C2884 C2883 1.370 . S
C2884 C2885 1.438 . S
C2884 H2946 0.930 . S
C2885 C2871 1.497 . S
C2885 C2884 1.438 . S
C2885 C2886 1.360 . S
C2886 C2885 1.360 . S
C2886 C2887 1.401 . S
C2886 C2891 1.446 . S
C2887 C2886 1.401 . S
C2887 C2888 1.347 . S
C2887 H2947 0.929 . S
C2888 C2887 1.347 . S
C2888 C2889 1.455 . S
C2888 H2948 0.930 . S
C2889 C2876 1.412 . S
C2889 C2888 1.455 . S
C2889 C2890 1.331 . S
C2890 C2879 1.451 . S
C2890 C2889 1.331 . S
C2890 C2891 1.497 . S
C2891 C2882 1.395 . S
C2891 C2886 1.446 . S
C2891 C2890 1.497 . S
C2892 C2893 1.582 . S
C2892 H2949 0.962 . S
C2892 H2950 0.959 . S
C2892 H2951 0.958 . S
C2893 C2892 1.582 . S
C2893 O2896 1.458 . S
C2893 H2922 0.980 . S
O2894 C2839 1.426 . S
O2894 C2840 1.334 . S
O2895 C2867 1.412 1_565 S
O2895 C2868 1.393 . S
O2896 C2858 1.435 . S
O2896 C2893 1.458 . S
O2897 C2849 1.468 . S
O2897 C2850 1.408 . S
H2898 C2839 0.980 . S
H2899 C2838 0.959 . S
H2900 C2838 0.959 . S
H2901 C2838 0.960 . S
H2902 C2841 0.929 . S
H2903 C2845 0.929 . S
H2904 C2846 0.959 . S
H2905 C2846 0.961 . S
H2906 C2846 0.961 . S
H2907 C2847 0.960 . S
H2908 C2847 0.960 . S
H2909 C2847 0.961 . S
H2910 C2849 0.980 1_565 S
H2911 C2848 0.961 1_565 S
H2912 C2848 0.960 . S
H2913 C2848 0.959 . S
H2914 C2851 0.884 1_565 S
H2915 C2855 0.931 . S
H2916 C2856 0.959 . S
H2917 C2856 0.961 . S
H2918 C2856 0.959 . S
H2919 C2857 0.960 . S
H2920 C2857 0.960 . S
H2921 C2857 0.960 . S
H2922 C2893 0.980 . S
H2923 C2859 0.930 1_565 S
H2924 C2863 0.930 . S
H2925 C2864 0.961 . S
H2926 C2864 0.960 . S
H2927 C2864 0.958 . S
H2928 C2865 0.961 . S
H2929 C2865 0.960 . S
H2930 C2865 0.960 . S
H2931 C2867 0.980 . S
H2932 C2866 0.961 . S
H2933 C2866 0.961 . S
H2934 C2866 0.959 . S
H2935 C2869 0.932 . S
H2936 C2873 0.929 . S
H2937 C2874 0.961 . S
H2938 C2874 0.959 . S
H2939 C2874 0.959 . S
H2940 C2875 0.960 . S
H2941 C2875 0.962 . S
H2942 C2875 0.961 . S
H2943 C2877 0.929 . S
H2944 C2880 0.930 . S
H2945 C2881 0.929 . S
H2946 C2884 0.930 . S
H2947 C2887 0.929 . S
H2948 C2888 0.930 . S
H2949 C2892 0.962 . S
H2950 C2892 0.959 . S
H2951 C2892 0.958 . S
C2952 C2953 1.560 . S
C2952 H3013 0.959 . S
C2952 H3014 0.959 . S
C2952 H3015 0.960 . S
C2953 C2952 1.560 . S
C2953 O3008 1.426 . S
C2953 H3012 0.980 1_565 S
C2954 C2955 1.407 1_565 S
C2954 C2959 1.418 . S
C2954 O3008 1.334 . S
C2955 C2954 1.407 1_545 S
C2955 C2956 1.360 . S
C2955 H3016 0.929 . S
C2956 C2955 1.360 . S
C2956 C2957 1.401 . S
C2956 C2960 1.527 . S
C2957 C2956 1.401 . S
C2957 C2958 1.405 1_545 S
C2957 C2990 1.587 . S
C2958 C2957 1.405 1_565 S
C2958 C2959 1.332 . S
C2958 C2961 1.496 . S
C2959 C2954 1.418 . S
C2959 C2958 1.332 . S
C2959 H3017 0.929 . S
C2960 C2956 1.527 . S
C2960 H3018 0.959 . S
C2960 H3019 0.961 . S
C2960 H3020 0.961 . S
C2961 C2958 1.496 . S
C2961 H3021 0.960 . S
C2961 H3022 0.960 . S
C2961 H3023 0.961 . S
C2962 C2963 1.517 . S
C2962 H3025 0.961 . S
C2962 H3026 0.960 . S
C2962 H3027 0.959 . S
C2963 C2962 1.517 . S
C2963 O3011 1.468 . S
C2963 H3024 0.980 . S
C2964 C2965 1.349 . S
C2964 C2969 1.367 . S
C2964 O3011 1.408 . S
C2965 C2964 1.349 . S
C2965 C2966 1.407 . S
C2965 H3028 0.935 . S
C2966 C2965 1.407 . S
C2966 C2967 1.449 . S
C2966 C2970 1.535 1_545 S
C2967 C2966 1.449 . S
C2967 C2968 1.384 . S
C2967 C2992 1.553 . S
C2968 C2967 1.384 . S
C2968 C2969 1.364 . S
C2968 C2971 1.450 . S
C2969 C2964 1.367 . S
C2969 C2968 1.364 . S
C2969 H3029 0.931 . S
C2970 C2966 1.535 1_565 S
C2970 H3030 0.959 . S
C2970 H3031 0.961 . S
C2970 H3032 0.959 . S
C2971 C2968 1.450 . S
C2971 H3033 0.960 . S
C2971 H3034 0.960 . S
C2971 H3035 0.960 . S
C2972 C2973 1.309 1_545 S
C2972 C2977 1.304 . S
C2972 O3010 1.435 . S
C2973 C2972 1.309 1_565 S
C2973 C2974 1.476 . S
C2973 H3037 0.930 . S
C2974 C2973 1.476 . S
C2974 C2975 1.400 1_565 S
C2974 C2978 1.567 . S
C2975 C2974 1.400 1_545 S
C2975 C2976 1.373 . S
C2975 C2997 1.432 . S
C2976 C2975 1.373 . S
C2976 C2977 1.339 . S
C2976 C2979 1.530 . S
C2977 C2972 1.304 . S
C2977 C2976 1.339 . S
C2977 H3038 0.930 . S
C2978 C2974 1.567 . S
C2978 H3039 0.961 . S
C2978 H3040 0.960 . S
C2978 H3041 0.958 . S
C2979 C2976 1.530 . S
C2979 H3042 0.961 . S
C2979 H3043 0.960 . S
C2979 H3044 0.960 . S
C2980 C2981 1.530 . S
C2980 H3046 0.961 . S
C2980 H3047 0.961 . S
C2980 H3048 0.959 . S
C2981 C2980 1.530 . S
C2981 O3009 1.412 . S
C2981 H3045 1.011 . S
C2982 C2983 1.288 . S
C2982 C2987 1.377 1_565 S
C2982 O3009 1.393 . S
C2983 C2982 1.288 . S
C2983 C2984 1.369 . S
C2983 H3049 0.932 . S
C2984 C2983 1.369 . S
C2984 C2985 1.398 . S
C2984 C2988 1.527 . S
C2985 C2984 1.398 . S
C2985 C2986 1.380 1_565 S
C2985 C2999 1.497 1_565 S
C2986 C2985 1.380 1_545 S
C2986 C2987 1.383 . S
C2986 C2989 1.603 . S
C2987 C2982 1.377 1_545 S
C2987 C2986 1.383 . S
C2987 H3050 0.929 . S
C2988 C2984 1.527 . S
C2988 H3051 0.961 . S
C2988 H3052 0.959 . S
C2988 H3053 0.959 . S
C2989 C2986 1.603 . S
C2989 H3054 0.960 . S
C2989 H3055 0.962 . S
C2989 H3056 0.961 . S
C2990 C2957 1.587 . S
C2990 C2991 1.360 . S
C2990 C3003 1.412 . S
C2991 C2990 1.360 . S
C2991 C2992 1.365 . S
C2991 H3057 0.929 . S
C2992 C2967 1.553 . S
C2992 C2991 1.365 . S
C2992 C2993 1.404 . S
C2993 C2992 1.404 . S
C2993 C2994 1.395 . S
C2993 C3004 1.451 . S
C2994 C2993 1.395 . S
C2994 C2995 1.322 . S
C2994 H3058 0.930 . S
C2995 C2994 1.322 . S
C2995 C2996 1.459 . S
C2995 H3059 0.929 . S
C2996 C2995 1.459 . S
C2996 C2997 1.445 . S
C2996 C3005 1.395 . S
C2997 C2975 1.432 . S
C2997 C2996 1.445 . S
C2997 C2998 1.370 . S
C2998 C2997 1.370 . S
C2998 C2999 1.438 . S
C2998 H3060 0.930 . S
C2999 C2985 1.497 1_545 S
C2999 C2998 1.438 . S
C2999 C3000 1.360 . S
C3000 C2999 1.360 . S
C3000 C3001 1.401 . S
C3000 C3005 1.446 . S
C3001 C3000 1.401 . S
C3001 C3002 1.347 . S
C3001 H3061 0.959 . S
C3002 C3001 1.347 . S
C3002 C3003 1.455 . S
C3002 H3062 0.930 . S
C3003 C2990 1.412 . S
C3003 C3002 1.455 . S
C3003 C3004 1.331 . S
C3004 C2993 1.451 . S
C3004 C3003 1.331 . S
C3004 C3005 1.497 . S
C3005 C2996 1.395 . S
C3005 C3000 1.446 . S
C3005 C3004 1.497 . S
C3006 C3007 1.630 . S
C3006 H3063 0.962 . S
C3006 H3064 0.959 . S
C3006 H3065 0.958 . S
C3007 C3006 1.630 . S
C3007 O3010 1.477 . S
C3007 H3036 0.981 1_545 S
O3008 C2953 1.426 . S
O3008 C2954 1.334 . S
O3009 C2981 1.412 . S
O3009 C2982 1.393 . S
O3010 C2972 1.435 . S
O3010 C3007 1.477 . S
O3011 C2963 1.468 . S
O3011 C2964 1.408 . S
H3012 C2953 0.980 1_545 S
H3013 C2952 0.959 . S
H3014 C2952 0.959 . S
H3015 C2952 0.960 . S
H3016 C2955 0.929 . S
H3017 C2959 0.929 . S
H3018 C2960 0.959 . S
H3019 C2960 0.961 . S
H3020 C2960 0.961 . S
H3021 C2961 0.960 . S
H3022 C2961 0.960 . S
H3023 C2961 0.961 . S
H3024 C2963 0.980 . S
H3025 C2962 0.961 . S
H3026 C2962 0.960 . S
H3027 C2962 0.959 . S
H3028 C2965 0.935 . S
H3029 C2969 0.931 . S
H3030 C2970 0.959 . S
H3031 C2970 0.961 . S
H3032 C2970 0.959 . S
H3033 C2971 0.960 . S
H3034 C2971 0.960 . S
H3035 C2971 0.960 . S
H3036 C3007 0.981 1_565 S
H3037 C2973 0.930 . S
H3038 C2977 0.930 . S
H3039 C2978 0.961 . S
H3040 C2978 0.960 . S
H3041 C2978 0.958 . S
H3042 C2979 0.961 . S
H3043 C2979 0.960 . S
H3044 C2979 0.960 . S
H3045 C2981 1.011 . S
H3046 C2980 0.961 . S
H3047 C2980 0.961 . S
H3048 C2980 0.959 . S
H3049 C2983 0.932 . S
H3050 C2987 0.929 . S
H3051 C2988 0.961 . S
H3052 C2988 0.959 . S
H3053 C2988 0.959 . S
H3054 C2989 0.960 . S
H3055 C2989 0.962 . S
H3056 C2989 0.961 . S
H3057 C2991 0.929 . S
H3058 C2994 0.930 . S
H3059 C2995 0.929 . S
H3060 C2998 0.930 . S
H3061 C3001 0.959 . S
H3062 C3002 0.930 . S
H3063 C3006 0.962 . S
H3064 C3006 0.959 . S
H3065 C3006 0.958 . S
C3066 C3067 1.560 . S
C3066 H3127 0.959 . S
C3066 H3128 0.959 . S
C3066 H3129 0.960 . S
C3067 C3066 1.560 . S
C3067 O3122 1.426 . S
C3067 H3126 0.980 1_455 S
C3068 C3069 1.407 1_455 S
C3068 C3073 1.418 . S
C3068 O3122 1.334 . S
C3069 C3068 1.407 1_655 S
C3069 C3070 1.360 . S
C3069 H3130 0.929 . S
C3070 C3069 1.360 . S
C3070 C3071 1.401 . S
C3070 C3074 1.527 . S
C3071 C3070 1.401 . S
C3071 C3072 1.405 1_655 S
C3071 C3104 1.587 . S
C3072 C3071 1.405 1_455 S
C3072 C3073 1.332 . S
C3072 C3075 1.496 . S
C3073 C3068 1.418 . S
C3073 C3072 1.332 . S
C3073 H3131 0.929 . S
C3074 C3070 1.527 . S
C3074 H3132 0.959 . S
C3074 H3133 0.961 . S
C3074 H3134 0.961 . S
C3075 C3072 1.496 . S
C3075 H3135 0.960 . S
C3075 H3136 0.960 . S
C3075 H3137 0.961 . S
C3076 C3077 1.517 . S
C3076 H3139 0.961 . S
C3076 H3140 0.960 . S
C3076 H3141 0.959 . S
C3077 C3076 1.517 . S
C3077 O3125 1.468 . S
C3077 H3138 0.980 . S
C3078 C3079 1.349 . S
C3078 C3083 1.367 . S
C3078 O3125 1.408 . S
C3079 C3078 1.349 . S
C3079 C3080 1.407 . S
C3079 H3142 0.939 1_655 S
C3080 C3079 1.407 . S
C3080 C3081 1.449 . S
C3080 C3084 1.535 1_655 S
C3081 C3080 1.449 . S
C3081 C3082 1.384 . S
C3081 C3106 1.553 . S
C3082 C3081 1.384 . S
C3082 C3083 1.364 . S
C3082 C3085 1.450 . S
C3083 C3078 1.367 . S
C3083 C3082 1.364 . S
C3083 H3143 0.931 . S
C3084 C3080 1.535 1_455 S
C3084 H3144 0.959 . S
C3084 H3145 0.961 . S
C3084 H3146 0.959 . S
C3085 C3082 1.450 . S
C3085 H3147 0.960 . S
C3085 H3148 0.960 . S
C3085 H3149 0.960 . S
C3086 C3087 1.309 1_655 S
C3086 C3091 1.304 . S
C3086 O3124 1.435 . S
C3087 C3086 1.309 1_455 S
C3087 C3088 1.476 . S
C3087 H3151 0.930 . S
C3088 C3087 1.476 . S
C3088 C3089 1.400 1_455 S
C3088 C3092 1.567 . S
C3089 C3088 1.400 1_655 S
C3089 C3090 1.373 . S
C3089 C3111 1.432 . S
C3090 C3089 1.373 . S
C3090 C3091 1.339 . S
C3090 C3093 1.530 . S
C3091 C3086 1.304 . S
C3091 C3090 1.339 . S
C3091 H3152 0.930 . S
C3092 C3088 1.567 . S
C3092 H3153 0.961 . S
C3092 H3154 0.960 . S
C3092 H3155 0.958 . S
C3093 C3090 1.530 . S
C3093 H3156 0.961 . S
C3093 H3157 0.960 . S
C3093 H3158 0.960 . S
C3094 C3095 1.530 . S
C3094 H3160 0.961 . S
C3094 H3161 0.961 . S
C3094 H3162 0.959 . S
C3095 C3094 1.530 . S
C3095 O3123 1.412 . S
C3095 H3159 0.987 . S
C3096 C3097 1.288 . S
C3096 C3101 1.377 1_455 S
C3096 O3123 1.393 . S
C3097 C3096 1.288 . S
C3097 C3098 1.369 . S
C3097 H3163 0.932 . S
C3098 C3097 1.369 . S
C3098 C3099 1.398 . S
C3098 C3102 1.527 . S
C3099 C3098 1.398 . S
C3099 C3100 1.380 1_455 S
C3099 C3113 1.497 1_455 S
C3100 C3099 1.380 1_655 S
C3100 C3101 1.383 . S
C3100 C3103 1.603 . S
C3101 C3096 1.377 1_655 S
C3101 C3100 1.383 . S
C3101 H3164 0.929 . S
C3102 C3098 1.527 . S
C3102 H3165 0.961 . S
C3102 H3166 0.959 . S
C3102 H3167 0.959 . S
C3103 C3100 1.603 . S
C3103 H3168 0.960 . S
C3103 H3169 0.962 . S
C3103 H3170 0.961 . S
C3104 C3071 1.587 . S
C3104 C3105 1.360 . S
C3104 C3117 1.412 . S
C3105 C3104 1.360 . S
C3105 C3106 1.365 . S
C3105 H3171 0.929 . S
C3106 C3081 1.553 . S
C3106 C3105 1.365 . S
C3106 C3107 1.404 . S
C3107 C3106 1.404 . S
C3107 C3108 1.395 . S
C3107 C3118 1.451 . S
C3108 C3107 1.395 . S
C3108 C3109 1.322 . S
C3108 H3172 0.930 . S
C3109 C3108 1.322 . S
C3109 C3110 1.459 . S
C3109 H3173 0.929 . S
C3110 C3109 1.459 . S
C3110 C3111 1.445 . S
C3110 C3119 1.395 . S
C3111 C3089 1.432 . S
C3111 C3110 1.445 . S
C3111 C3112 1.370 . S
C3112 C3111 1.370 . S
C3112 C3113 1.438 . S
C3112 H3174 0.930 . S
C3113 C3099 1.497 1_655 S
C3113 C3112 1.438 . S
C3113 C3114 1.360 . S
C3114 C3113 1.360 . S
C3114 C3115 1.401 . S
C3114 C3119 1.446 . S
C3115 C3114 1.401 . S
C3115 C3116 1.347 . S
C3115 H3175 0.909 . S
C3116 C3115 1.347 . S
C3116 C3117 1.455 . S
C3116 H3176 0.930 . S
C3117 C3104 1.412 . S
C3117 C3116 1.455 . S
C3117 C3118 1.331 . S
C3118 C3107 1.451 . S
C3118 C3117 1.331 . S
C3118 C3119 1.497 . S
C3119 C3110 1.395 . S
C3119 C3114 1.446 . S
C3119 C3118 1.497 . S
C3120 C3121 1.582 1_655 S
C3120 H3177 0.952 1_655 S
C3120 H3178 0.959 . S
C3120 H3179 0.958 . S
C3121 C3120 1.582 1_455 S
C3121 O3124 1.377 1_455 S
C3121 H3150 1.014 . S
O3122 C3067 1.426 . S
O3122 C3068 1.334 . S
O3123 C3095 1.412 . S
O3123 C3096 1.393 . S
O3124 C3086 1.435 . S
O3124 C3121 1.377 1_655 S
O3125 C3077 1.468 . S
O3125 C3078 1.408 . S
H3126 C3067 0.980 1_655 S
H3127 C3066 0.959 . S
H3128 C3066 0.959 . S
H3129 C3066 0.960 . S
H3130 C3069 0.929 . S
H3131 C3073 0.929 . S
H3132 C3074 0.959 . S
H3133 C3074 0.961 . S
H3134 C3074 0.961 . S
H3135 C3075 0.960 . S
H3136 C3075 0.960 . S
H3137 C3075 0.961 . S
H3138 C3077 0.980 . S
H3139 C3076 0.961 . S
H3140 C3076 0.960 . S
H3141 C3076 0.959 . S
H3142 C3079 0.939 1_455 S
H3143 C3083 0.931 . S
H3144 C3084 0.959 . S
H3145 C3084 0.961 . S
H3146 C3084 0.959 . S
H3147 C3085 0.960 . S
H3148 C3085 0.960 . S
H3149 C3085 0.960 . S
H3150 C3121 1.014 . S
H3151 C3087 0.930 . S
H3152 C3091 0.930 . S
H3153 C3092 0.961 . S
H3154 C3092 0.960 . S
H3155 C3092 0.958 . S
H3156 C3093 0.961 . S
H3157 C3093 0.960 . S
H3158 C3093 0.960 . S
H3159 C3095 0.987 . S
H3160 C3094 0.961 . S
H3161 C3094 0.961 . S
H3162 C3094 0.959 . S
H3163 C3097 0.932 . S
H3164 C3101 0.929 . S
H3165 C3102 0.961 . S
H3166 C3102 0.959 . S
H3167 C3102 0.959 . S
H3168 C3103 0.960 . S
H3169 C3103 0.962 . S
H3170 C3103 0.961 . S
H3171 C3105 0.929 . S
H3172 C3108 0.930 . S
H3173 C3109 0.929 . S
H3174 C3112 0.930 . S
H3175 C3115 0.909 . S
H3176 C3116 0.930 . S
H3177 C3120 0.952 1_455 S
H3178 C3120 0.959 . S
H3179 C3120 0.958 . S
C3180 C3181 1.560 . S
C3180 H3241 0.959 . S
C3180 H3242 0.959 . S
C3180 H3243 0.960 . S
C3181 C3180 1.560 . S
C3181 O3236 1.426 . S
C3181 H3240 0.980 . S
C3182 C3183 1.407 . S
C3182 C3187 1.418 . S
C3182 O3236 1.334 . S
C3183 C3182 1.407 . S
C3183 C3184 1.360 . S
C3183 H3244 0.929 . S
C3184 C3183 1.360 . S
C3184 C3185 1.401 . S
C3184 C3188 1.527 . S
C3185 C3184 1.401 . S
C3185 C3186 1.405 . S
C3185 C3218 1.587 . S
C3186 C3185 1.405 . S
C3186 C3187 1.332 . S
C3186 C3189 1.496 . S
C3187 C3182 1.418 . S
C3187 C3186 1.332 . S
C3187 H3245 0.929 . S
C3188 C3184 1.527 . S
C3188 H3246 0.959 . S
C3188 H3247 0.961 . S
C3188 H3248 0.961 . S
C3189 C3186 1.496 . S
C3189 H3249 0.960 . S
C3189 H3250 0.960 . S
C3189 H3251 0.961 . S
C3190 C3191 1.517 . S
C3190 H3253 0.961 . S
C3190 H3254 0.960 . S
C3190 H3255 0.959 . S
C3191 C3190 1.517 . S
C3191 O3239 1.468 . S
C3191 H3252 0.980 . S
C3192 C3193 1.349 . S
C3192 C3197 1.367 . S
C3192 O3239 1.408 . S
C3193 C3192 1.349 . S
C3193 C3194 1.407 . S
C3193 H3256 0.930 . S
C3194 C3193 1.407 . S
C3194 C3195 1.449 . S
C3194 C3198 1.535 . S
C3195 C3194 1.449 . S
C3195 C3196 1.384 . S
C3195 C3220 1.553 . S
C3196 C3195 1.384 . S
C3196 C3197 1.364 . S
C3196 C3199 1.450 . S
C3197 C3192 1.367 . S
C3197 C3196 1.364 . S
C3197 H3257 0.931 . S
C3198 C3194 1.535 . S
C3198 H3258 0.959 . S
C3198 H3259 0.961 . S
C3198 H3260 0.959 . S
C3199 C3196 1.450 . S
C3199 H3261 0.960 . S
C3199 H3262 0.960 . S
C3199 H3263 0.960 . S
C3200 C3201 1.309 . S
C3200 C3205 1.304 . S
C3200 O3238 1.435 . S
C3201 C3200 1.309 . S
C3201 C3202 1.476 . S
C3201 H3265 0.930 . S
C3202 C3201 1.476 . S
C3202 C3203 1.400 . S
C3202 C3206 1.567 . S
C3203 C3202 1.400 . S
C3203 C3204 1.373 . S
C3203 C3225 1.432 . S
C3204 C3203 1.373 . S
C3204 C3205 1.339 . S
C3204 C3207 1.530 . S
C3205 C3200 1.304 . S
C3205 C3204 1.339 . S
C3205 H3266 0.930 . S
C3206 C3202 1.567 . S
C3206 H3267 0.961 . S
C3206 H3268 0.960 . S
C3206 H3269 0.958 . S
C3207 C3204 1.530 . S
C3207 H3270 0.961 . S
C3207 H3271 0.960 . S
C3207 H3272 0.960 . S
C3208 C3209 1.530 . S
C3208 H3274 0.961 . S
C3208 H3275 0.961 . S
C3208 H3276 0.959 . S
C3209 C3208 1.530 . S
C3209 O3237 1.412 . S
C3209 H3273 0.980 . S
C3210 C3211 1.288 . S
C3210 C3215 1.377 . S
C3210 O3237 1.393 . S
C3211 C3210 1.288 . S
C3211 C3212 1.369 . S
C3211 H3277 0.932 . S
C3212 C3211 1.369 . S
C3212 C3213 1.398 . S
C3212 C3216 1.527 . S
C3213 C3212 1.398 . S
C3213 C3214 1.380 . S
C3213 C3227 1.497 . S
C3214 C3213 1.380 . S
C3214 C3215 1.383 . S
C3214 C3217 1.603 . S
C3215 C3210 1.377 . S
C3215 C3214 1.383 . S
C3215 H3278 0.929 . S
C3216 C3212 1.527 . S
C3216 H3279 0.961 . S
C3216 H3280 0.959 . S
C3216 H3281 0.959 . S
C3217 C3214 1.603 . S
C3217 H3282 0.960 . S
C3217 H3283 0.962 . S
C3217 H3284 0.961 . S
C3218 C3185 1.587 . S
C3218 C3219 1.360 . S
C3218 C3231 1.412 . S
C3219 C3218 1.360 . S
C3219 C3220 1.365 . S
C3219 H3285 0.929 . S
C3220 C3195 1.553 . S
C3220 C3219 1.365 . S
C3220 C3221 1.404 . S
C3221 C3220 1.404 . S
C3221 C3222 1.395 . S
C3221 C3232 1.451 . S
C3222 C3221 1.395 . S
C3222 C3223 1.322 . S
C3222 H3286 0.930 . S
C3223 C3222 1.322 . S
C3223 C3224 1.459 . S
C3223 H3287 0.929 . S
C3224 C3223 1.459 . S
C3224 C3225 1.445 . S
C3224 C3233 1.395 . S
C3225 C3203 1.432 . S
C3225 C3224 1.445 . S
C3225 C3226 1.370 . S
C3226 C3225 1.370 . S
C3226 C3227 1.438 . S
C3226 H3288 0.930 . S
C3227 C3213 1.497 . S
C3227 C3226 1.438 . S
C3227 C3228 1.360 . S
C3228 C3227 1.360 . S
C3228 C3229 1.401 . S
C3228 C3233 1.446 . S
C3229 C3228 1.401 . S
C3229 C3230 1.347 . S
C3229 H3289 0.929 . S
C3230 C3229 1.347 . S
C3230 C3231 1.455 . S
C3230 H3290 0.930 . S
C3231 C3218 1.412 . S
C3231 C3230 1.455 . S
C3231 C3232 1.331 . S
C3232 C3221 1.451 . S
C3232 C3231 1.331 . S
C3232 C3233 1.497 . S
C3233 C3224 1.395 . S
C3233 C3228 1.446 . S
C3233 C3232 1.497 . S
C3234 C3235 1.582 . S
C3234 H3291 0.962 . S
C3234 H3292 0.959 . S
C3234 H3293 0.958 . S
C3235 C3234 1.582 . S
C3235 O3238 1.458 . S
C3235 H3264 0.980 . S
O3236 C3181 1.426 . S
O3236 C3182 1.334 . S
O3237 C3209 1.412 . S
O3237 C3210 1.393 . S
O3238 C3200 1.435 . S
O3238 C3235 1.458 . S
O3239 C3191 1.468 . S
O3239 C3192 1.408 . S
H3240 C3181 0.980 . S
H3241 C3180 0.959 . S
H3242 C3180 0.959 . S
H3243 C3180 0.960 . S
H3244 C3183 0.929 . S
H3245 C3187 0.929 . S
H3246 C3188 0.959 . S
H3247 C3188 0.961 . S
H3248 C3188 0.961 . S
H3249 C3189 0.960 . S
H3250 C3189 0.960 . S
H3251 C3189 0.961 . S
H3252 C3191 0.980 . S
H3253 C3190 0.961 . S
H3254 C3190 0.960 . S
H3255 C3190 0.959 . S
H3256 C3193 0.930 . S
H3257 C3197 0.931 . S
H3258 C3198 0.959 . S
H3259 C3198 0.961 . S
H3260 C3198 0.959 . S
H3261 C3199 0.960 . S
H3262 C3199 0.960 . S
H3263 C3199 0.960 . S
H3264 C3235 0.980 . S
H3265 C3201 0.930 . S
H3266 C3205 0.930 . S
H3267 C3206 0.961 . S
H3268 C3206 0.960 . S
H3269 C3206 0.958 . S
H3270 C3207 0.961 . S
H3271 C3207 0.960 . S
H3272 C3207 0.960 . S
H3273 C3209 0.980 . S
H3274 C3208 0.961 . S
H3275 C3208 0.961 . S
H3276 C3208 0.959 . S
H3277 C3211 0.932 . S
H3278 C3215 0.929 . S
H3279 C3216 0.961 . S
H3280 C3216 0.959 . S
H3281 C3216 0.959 . S
H3282 C3217 0.960 . S
H3283 C3217 0.962 . S
H3284 C3217 0.961 . S
H3285 C3219 0.929 . S
H3286 C3222 0.930 . S
H3287 C3223 0.929 . S
H3288 C3226 0.930 . S
H3289 C3229 0.929 . S
H3290 C3230 0.930 . S
H3291 C3234 0.962 . S
H3292 C3234 0.959 . S
H3293 C3234 0.958 . S
C3294 C3295 1.560 . S
C3294 H3355 0.959 . S
C3294 H3356 0.959 . S
C3294 H3357 0.960 . S
C3295 C3294 1.560 . S
C3295 O3350 1.426 . S
C3295 H3354 0.980 . S
C3296 C3297 1.407 . S
C3296 C3301 1.418 . S
C3296 O3350 1.334 . S
C3297 C3296 1.407 . S
C3297 C3298 1.360 . S
C3297 H3358 0.929 . S
C3298 C3297 1.360 . S
C3298 C3299 1.401 . S
C3298 C3302 1.527 . S
C3299 C3298 1.401 . S
C3299 C3300 1.405 . S
C3299 C3332 1.587 . S
C3300 C3299 1.405 . S
C3300 C3301 1.332 . S
C3300 C3303 1.496 . S
C3301 C3296 1.418 . S
C3301 C3300 1.332 . S
C3301 H3359 0.929 . S
C3302 C3298 1.527 . S
C3302 H3360 0.959 . S
C3302 H3361 0.961 . S
C3302 H3362 0.961 . S
C3303 C3300 1.496 . S
C3303 H3363 0.960 . S
C3303 H3364 0.960 . S
C3303 H3365 0.961 . S
C3304 C3305 1.517 . S
C3304 H3367 0.961 . S
C3304 H3368 0.960 . S
C3304 H3369 0.959 . S
C3305 C3304 1.517 . S
C3305 O3353 1.468 . S
C3305 H3366 0.980 . S
C3306 C3307 1.349 . S
C3306 C3311 1.367 . S
C3306 O3353 1.408 . S
C3307 C3306 1.349 . S
C3307 C3308 1.407 . S
C3307 H3370 0.930 . S
C3308 C3307 1.407 . S
C3308 C3309 1.449 . S
C3308 C3312 1.535 . S
C3309 C3308 1.449 . S
C3309 C3310 1.384 . S
C3309 C3334 1.553 . S
C3310 C3309 1.384 . S
C3310 C3311 1.364 . S
C3310 C3313 1.450 . S
C3311 C3306 1.367 . S
C3311 C3310 1.364 . S
C3311 H3371 0.931 . S
C3312 C3308 1.535 . S
C3312 H3372 0.959 . S
C3312 H3373 0.961 . S
C3312 H3374 0.959 . S
C3313 C3310 1.450 . S
C3313 H3375 0.960 . S
C3313 H3376 0.960 . S
C3313 H3377 0.960 . S
C3314 C3315 1.309 . S
C3314 C3319 1.304 . S
C3314 O3352 1.435 . S
C3315 C3314 1.309 . S
C3315 C3316 1.476 . S
C3315 H3379 0.930 . S
C3316 C3315 1.476 . S
C3316 C3317 1.400 . S
C3316 C3320 1.567 . S
C3317 C3316 1.400 . S
C3317 C3318 1.373 . S
C3317 C3339 1.432 . S
C3318 C3317 1.373 . S
C3318 C3319 1.339 . S
C3318 C3321 1.530 . S
C3319 C3314 1.304 . S
C3319 C3318 1.339 . S
C3319 H3380 0.930 . S
C3320 C3316 1.567 . S
C3320 H3381 0.961 . S
C3320 H3382 0.960 . S
C3320 H3383 0.958 . S
C3321 C3318 1.530 . S
C3321 H3384 0.961 . S
C3321 H3385 0.960 . S
C3321 H3386 0.960 . S
C3322 C3323 1.530 . S
C3322 H3388 0.961 . S
C3322 H3389 0.961 . S
C3322 H3390 0.959 . S
C3323 C3322 1.530 . S
C3323 O3351 1.412 . S
C3323 H3387 0.980 . S
C3324 C3325 1.288 . S
C3324 C3329 1.377 . S
C3324 O3351 1.393 . S
C3325 C3324 1.288 . S
C3325 C3326 1.369 . S
C3325 H3391 0.932 . S
C3326 C3325 1.369 . S
C3326 C3327 1.398 . S
C3326 C3330 1.527 . S
C3327 C3326 1.398 . S
C3327 C3328 1.380 . S
C3327 C3341 1.497 . S
C3328 C3327 1.380 . S
C3328 C3329 1.383 . S
C3328 C3331 1.603 . S
C3329 C3324 1.377 . S
C3329 C3328 1.383 . S
C3329 H3392 0.929 . S
C3330 C3326 1.527 . S
C3330 H3393 0.961 . S
C3330 H3394 0.959 . S
C3330 H3395 0.959 . S
C3331 C3328 1.603 . S
C3331 H3396 0.960 . S
C3331 H3397 0.962 . S
C3331 H3398 0.961 . S
C3332 C3299 1.587 . S
C3332 C3333 1.360 . S
C3332 C3345 1.412 . S
C3333 C3332 1.360 . S
C3333 C3334 1.365 . S
C3333 H3399 0.929 . S
C3334 C3309 1.553 . S
C3334 C3333 1.365 . S
C3334 C3335 1.404 . S
C3335 C3334 1.404 . S
C3335 C3336 1.395 . S
C3335 C3346 1.451 . S
C3336 C3335 1.395 . S
C3336 C3337 1.322 . S
C3336 H3400 0.930 . S
C3337 C3336 1.322 . S
C3337 C3338 1.459 . S
C3337 H3401 0.929 . S
C3338 C3337 1.459 . S
C3338 C3339 1.445 . S
C3338 C3347 1.395 . S
C3339 C3317 1.432 . S
C3339 C3338 1.445 . S
C3339 C3340 1.370 . S
C3340 C3339 1.370 . S
C3340 C3341 1.438 . S
C3340 H3402 0.930 . S
C3341 C3327 1.497 . S
C3341 C3340 1.438 . S
C3341 C3342 1.360 . S
C3342 C3341 1.360 . S
C3342 C3343 1.401 . S
C3342 C3347 1.446 . S
C3343 C3342 1.401 . S
C3343 C3344 1.347 . S
C3343 H3403 0.929 . S
C3344 C3343 1.347 . S
C3344 C3345 1.455 . S
C3344 H3404 0.930 . S
C3345 C3332 1.412 . S
C3345 C3344 1.455 . S
C3345 C3346 1.331 . S
C3346 C3335 1.451 . S
C3346 C3345 1.331 . S
C3346 C3347 1.497 . S
C3347 C3338 1.395 . S
C3347 C3342 1.446 . S
C3347 C3346 1.497 . S
C3348 C3349 1.582 . S
C3348 H3405 0.962 . S
C3348 H3406 0.959 . S
C3348 H3407 0.958 . S
C3349 C3348 1.582 . S
C3349 O3352 1.458 . S
C3349 H3378 0.980 . S
O3350 C3295 1.426 . S
O3350 C3296 1.334 . S
O3351 C3323 1.412 . S
O3351 C3324 1.393 . S
O3352 C3314 1.435 . S
O3352 C3349 1.458 . S
O3353 C3305 1.468 . S
O3353 C3306 1.408 . S
H3354 C3295 0.980 . S
H3355 C3294 0.959 . S
H3356 C3294 0.959 . S
H3357 C3294 0.960 . S
H3358 C3297 0.929 . S
H3359 C3301 0.929 . S
H3360 C3302 0.959 . S
H3361 C3302 0.961 . S
H3362 C3302 0.961 . S
H3363 C3303 0.960 . S
H3364 C3303 0.960 . S
H3365 C3303 0.961 . S
H3366 C3305 0.980 . S
H3367 C3304 0.961 . S
H3368 C3304 0.960 . S
H3369 C3304 0.959 . S
H3370 C3307 0.930 . S
H3371 C3311 0.931 . S
H3372 C3312 0.959 . S
H3373 C3312 0.961 . S
H3374 C3312 0.959 . S
H3375 C3313 0.960 . S
H3376 C3313 0.960 . S
H3377 C3313 0.960 . S
H3378 C3349 0.980 . S
H3379 C3315 0.930 . S
H3380 C3319 0.930 . S
H3381 C3320 0.961 . S
H3382 C3320 0.960 . S
H3383 C3320 0.958 . S
H3384 C3321 0.961 . S
H3385 C3321 0.960 . S
H3386 C3321 0.960 . S
H3387 C3323 0.980 . S
H3388 C3322 0.961 . S
H3389 C3322 0.961 . S
H3390 C3322 0.959 . S
H3391 C3325 0.932 . S
H3392 C3329 0.929 . S
H3393 C3330 0.961 . S
H3394 C3330 0.959 . S
H3395 C3330 0.959 . S
H3396 C3331 0.960 . S
H3397 C3331 0.962 . S
H3398 C3331 0.961 . S
H3399 C3333 0.929 . S
H3400 C3336 0.930 . S
H3401 C3337 0.929 . S
H3402 C3340 0.930 . S
H3403 C3343 0.929 . S
H3404 C3344 0.930 . S
H3405 C3348 0.962 . S
H3406 C3348 0.959 . S
H3407 C3348 0.958 . S
C3408 C3409 1.560 . S
C3408 H3469 0.959 . S
C3408 H3470 0.959 . S
C3408 H3471 0.960 . S
C3409 C3408 1.560 . S
C3409 O3464 1.426 . S
C3409 H3468 0.980 . S
C3410 C3411 1.407 . S
C3410 C3415 1.418 . S
C3410 O3464 1.334 . S
C3411 C3410 1.407 . S
C3411 C3412 1.360 . S
C3411 H3472 0.929 . S
C3412 C3411 1.360 . S
C3412 C3413 1.401 . S
C3412 C3416 1.527 . S
C3413 C3412 1.401 . S
C3413 C3414 1.405 . S
C3413 C3446 1.587 . S
C3414 C3413 1.405 . S
C3414 C3415 1.332 . S
C3414 C3417 1.496 . S
C3415 C3410 1.418 . S
C3415 C3414 1.332 . S
C3415 H3473 0.929 . S
C3416 C3412 1.527 . S
C3416 H3474 0.959 . S
C3416 H3475 0.961 . S
C3416 H3476 0.961 . S
C3417 C3414 1.496 . S
C3417 H3477 0.960 . S
C3417 H3478 0.960 . S
C3417 H3479 0.961 . S
C3418 C3419 1.517 . S
C3418 H3481 0.961 . S
C3418 H3482 0.960 . S
C3418 H3483 0.959 . S
C3419 C3418 1.517 . S
C3419 O3467 1.468 . S
C3419 H3480 0.980 . S
C3420 C3421 1.349 . S
C3420 C3425 1.367 . S
C3420 O3467 1.408 . S
C3421 C3420 1.349 . S
C3421 C3422 1.407 . S
C3421 H3484 0.930 . S
C3422 C3421 1.407 . S
C3422 C3423 1.449 . S
C3422 C3426 1.535 . S
C3423 C3422 1.449 . S
C3423 C3424 1.384 . S
C3423 C3448 1.553 . S
C3424 C3423 1.384 . S
C3424 C3425 1.364 . S
C3424 C3427 1.450 . S
C3425 C3420 1.367 . S
C3425 C3424 1.364 . S
C3425 H3485 0.931 . S
C3426 C3422 1.535 . S
C3426 H3486 0.959 . S
C3426 H3487 0.961 . S
C3426 H3488 0.959 . S
C3427 C3424 1.450 . S
C3427 H3489 0.960 . S
C3427 H3490 0.960 . S
C3427 H3491 0.960 . S
C3428 C3429 1.309 . S
C3428 C3433 1.304 . S
C3428 O3466 1.435 . S
C3429 C3428 1.309 . S
C3429 C3430 1.476 . S
C3429 H3493 0.930 . S
C3430 C3429 1.476 . S
C3430 C3431 1.400 . S
C3430 C3434 1.567 . S
C3431 C3430 1.400 . S
C3431 C3432 1.373 . S
C3431 C3453 1.432 . S
C3432 C3431 1.373 . S
C3432 C3433 1.339 . S
C3432 C3435 1.530 . S
C3433 C3428 1.304 . S
C3433 C3432 1.339 . S
C3433 H3494 0.930 . S
C3434 C3430 1.567 . S
C3434 H3495 0.961 . S
C3434 H3496 0.960 . S
C3434 H3497 0.958 . S
C3435 C3432 1.530 . S
C3435 H3498 0.961 . S
C3435 H3499 0.960 . S
C3435 H3500 0.960 . S
C3436 C3437 1.530 . S
C3436 H3502 0.961 . S
C3436 H3503 0.961 . S
C3436 H3504 0.959 . S
C3437 C3436 1.530 . S
C3437 O3465 1.412 . S
C3437 H3501 0.980 . S
C3438 C3439 1.288 . S
C3438 C3443 1.377 . S
C3438 O3465 1.393 . S
C3439 C3438 1.288 . S
C3439 C3440 1.369 . S
C3439 H3505 0.932 . S
C3440 C3439 1.369 . S
C3440 C3441 1.398 . S
C3440 C3444 1.527 . S
C3441 C3440 1.398 . S
C3441 C3442 1.380 . S
C3441 C3455 1.497 . S
C3442 C3441 1.380 . S
C3442 C3443 1.383 . S
C3442 C3445 1.603 . S
C3443 C3438 1.377 . S
C3443 C3442 1.383 . S
C3443 H3506 0.929 . S
C3444 C3440 1.527 . S
C3444 H3507 0.961 . S
C3444 H3508 0.959 . S
C3444 H3509 0.959 . S
C3445 C3442 1.603 . S
C3445 H3510 0.960 . S
C3445 H3511 0.962 . S
C3445 H3512 0.961 . S
C3446 C3413 1.587 . S
C3446 C3447 1.360 . S
C3446 C3459 1.412 . S
C3447 C3446 1.360 . S
C3447 C3448 1.365 . S
C3447 H3513 0.929 . S
C3448 C3423 1.553 . S
C3448 C3447 1.365 . S
C3448 C3449 1.404 . S
C3449 C3448 1.404 . S
C3449 C3450 1.395 . S
C3449 C3460 1.451 . S
C3450 C3449 1.395 . S
C3450 C3451 1.322 . S
C3450 H3514 0.930 . S
C3451 C3450 1.322 . S
C3451 C3452 1.459 . S
C3451 H3515 0.929 . S
C3452 C3451 1.459 . S
C3452 C3453 1.445 . S
C3452 C3461 1.395 . S
C3453 C3431 1.432 . S
C3453 C3452 1.445 . S
C3453 C3454 1.370 . S
C3454 C3453 1.370 . S
C3454 C3455 1.438 . S
C3454 H3516 0.930 . S
C3455 C3441 1.497 . S
C3455 C3454 1.438 . S
C3455 C3456 1.360 . S
C3456 C3455 1.360 . S
C3456 C3457 1.401 . S
C3456 C3461 1.446 . S
C3457 C3456 1.401 . S
C3457 C3458 1.347 . S
C3457 H3517 0.929 . S
C3458 C3457 1.347 . S
C3458 C3459 1.455 . S
C3458 H3518 0.930 . S
C3459 C3446 1.412 . S
C3459 C3458 1.455 . S
C3459 C3460 1.331 . S
C3460 C3449 1.451 . S
C3460 C3459 1.331 . S
C3460 C3461 1.497 . S
C3461 C3452 1.395 . S
C3461 C3456 1.446 . S
C3461 C3460 1.497 . S
C3462 C3463 1.582 . S
C3462 H3519 0.962 . S
C3462 H3520 0.959 . S
C3462 H3521 0.958 . S
C3463 C3462 1.582 . S
C3463 O3466 1.458 . S
C3463 H3492 0.980 . S
O3464 C3409 1.426 . S
O3464 C3410 1.334 . S
O3465 C3437 1.412 . S
O3465 C3438 1.393 . S
O3466 C3428 1.435 . S
O3466 C3463 1.458 . S
O3467 C3419 1.468 . S
O3467 C3420 1.408 . S
H3468 C3409 0.980 . S
H3469 C3408 0.959 . S
H3470 C3408 0.959 . S
H3471 C3408 0.960 . S
H3472 C3411 0.929 . S
H3473 C3415 0.929 . S
H3474 C3416 0.959 . S
H3475 C3416 0.961 . S
H3476 C3416 0.961 . S
H3477 C3417 0.960 . S
H3478 C3417 0.960 . S
H3479 C3417 0.961 . S
H3480 C3419 0.980 . S
H3481 C3418 0.961 . S
H3482 C3418 0.960 . S
H3483 C3418 0.959 . S
H3484 C3421 0.930 . S
H3485 C3425 0.931 . S
H3486 C3426 0.959 . S
H3487 C3426 0.961 . S
H3488 C3426 0.959 . S
H3489 C3427 0.960 . S
H3490 C3427 0.960 . S
H3491 C3427 0.960 . S
H3492 C3463 0.980 . S
H3493 C3429 0.930 . S
H3494 C3433 0.930 . S
H3495 C3434 0.961 . S
H3496 C3434 0.960 . S
H3497 C3434 0.958 . S
H3498 C3435 0.961 . S
H3499 C3435 0.960 . S
H3500 C3435 0.960 . S
H3501 C3437 0.980 . S
H3502 C3436 0.961 . S
H3503 C3436 0.961 . S
H3504 C3436 0.959 . S
H3505 C3439 0.932 . S
H3506 C3443 0.929 . S
H3507 C3444 0.961 . S
H3508 C3444 0.959 . S
H3509 C3444 0.959 . S
H3510 C3445 0.960 . S
H3511 C3445 0.962 . S
H3512 C3445 0.961 . S
H3513 C3447 0.929 . S
H3514 C3450 0.930 . S
H3515 C3451 0.929 . S
H3516 C3454 0.930 . S
H3517 C3457 0.929 . S
H3518 C3458 0.930 . S
H3519 C3462 0.962 . S
H3520 C3462 0.959 . S
H3521 C3462 0.958 . S
C3522 C3523 1.560 . S
C3522 H3583 0.959 . S
C3522 H3584 0.959 . S
C3522 H3585 0.960 . S
C3523 C3522 1.560 . S
C3523 O3578 1.426 . S
C3523 H3582 0.980 . S
C3524 C3525 1.407 . S
C3524 C3529 1.418 . S
C3524 O3578 1.334 . S
C3525 C3524 1.407 . S
C3525 C3526 1.360 . S
C3525 H3586 0.929 . S
C3526 C3525 1.360 . S
C3526 C3527 1.401 . S
C3526 C3530 1.527 . S
C3527 C3526 1.401 . S
C3527 C3528 1.405 . S
C3527 C3560 1.587 . S
C3528 C3527 1.405 . S
C3528 C3529 1.332 . S
C3528 C3531 1.496 . S
C3529 C3524 1.418 . S
C3529 C3528 1.332 . S
C3529 H3587 0.929 . S
C3530 C3526 1.527 . S
C3530 H3588 0.959 . S
C3530 H3589 0.961 . S
C3530 H3590 0.961 . S
C3531 C3528 1.496 . S
C3531 H3591 0.960 . S
C3531 H3592 0.960 . S
C3531 H3593 0.961 . S
C3532 C3533 1.517 . S
C3532 H3595 0.961 . S
C3532 H3596 0.960 . S
C3532 H3597 0.959 . S
C3533 C3532 1.517 . S
C3533 O3581 1.468 . S
C3533 H3594 0.980 . S
C3534 C3535 1.349 . S
C3534 C3539 1.367 . S
C3534 O3581 1.408 . S
C3535 C3534 1.349 . S
C3535 C3536 1.407 . S
C3535 H3598 0.930 . S
C3536 C3535 1.407 . S
C3536 C3537 1.449 . S
C3536 C3540 1.535 . S
C3537 C3536 1.449 . S
C3537 C3538 1.384 . S
C3537 C3562 1.553 . S
C3538 C3537 1.384 . S
C3538 C3539 1.364 . S
C3538 C3541 1.450 . S
C3539 C3534 1.367 . S
C3539 C3538 1.364 . S
C3539 H3599 0.931 . S
C3540 C3536 1.535 . S
C3540 H3600 0.959 . S
C3540 H3601 0.961 . S
C3540 H3602 0.959 . S
C3541 C3538 1.450 . S
C3541 H3603 0.960 . S
C3541 H3604 0.960 . S
C3541 H3605 0.960 . S
C3542 C3543 1.309 . S
C3542 C3547 1.304 . S
C3542 O3580 1.435 . S
C3543 C3542 1.309 . S
C3543 C3544 1.476 . S
C3543 H3607 0.930 . S
C3544 C3543 1.476 . S
C3544 C3545 1.400 . S
C3544 C3548 1.567 . S
C3545 C3544 1.400 . S
C3545 C3546 1.373 . S
C3545 C3567 1.432 . S
C3546 C3545 1.373 . S
C3546 C3547 1.339 . S
C3546 C3549 1.530 . S
C3547 C3542 1.304 . S
C3547 C3546 1.339 . S
C3547 H3608 0.930 . S
C3548 C3544 1.567 . S
C3548 H3609 0.961 . S
C3548 H3610 0.960 . S
C3548 H3611 0.958 . S
C3549 C3546 1.530 . S
C3549 H3612 0.961 . S
C3549 H3613 0.960 . S
C3549 H3614 0.960 . S
C3550 C3551 1.530 . S
C3550 H3616 0.961 . S
C3550 H3617 0.961 . S
C3550 H3618 0.959 . S
C3551 C3550 1.530 . S
C3551 O3579 1.412 . S
C3551 H3615 0.980 . S
C3552 C3553 1.288 . S
C3552 C3557 1.377 . S
C3552 O3579 1.393 . S
C3553 C3552 1.288 . S
C3553 C3554 1.369 . S
C3553 H3619 0.932 . S
C3554 C3553 1.369 . S
C3554 C3555 1.398 . S
C3554 C3558 1.527 . S
C3555 C3554 1.398 . S
C3555 C3556 1.380 . S
C3555 C3569 1.497 . S
C3556 C3555 1.380 . S
C3556 C3557 1.383 . S
C3556 C3559 1.603 . S
C3557 C3552 1.377 . S
C3557 C3556 1.383 . S
C3557 H3620 0.929 . S
C3558 C3554 1.527 . S
C3558 H3621 0.961 . S
C3558 H3622 0.959 . S
C3558 H3623 0.959 . S
C3559 C3556 1.603 . S
C3559 H3624 0.960 . S
C3559 H3625 0.962 . S
C3559 H3626 0.961 . S
C3560 C3527 1.587 . S
C3560 C3561 1.360 . S
C3560 C3573 1.412 . S
C3561 C3560 1.360 . S
C3561 C3562 1.365 . S
C3561 H3627 0.929 . S
C3562 C3537 1.553 . S
C3562 C3561 1.365 . S
C3562 C3563 1.404 . S
C3563 C3562 1.404 . S
C3563 C3564 1.395 . S
C3563 C3574 1.451 . S
C3564 C3563 1.395 . S
C3564 C3565 1.322 . S
C3564 H3628 0.930 . S
C3565 C3564 1.322 . S
C3565 C3566 1.459 . S
C3565 H3629 0.929 . S
C3566 C3565 1.459 . S
C3566 C3567 1.445 . S
C3566 C3575 1.395 . S
C3567 C3545 1.432 . S
C3567 C3566 1.445 . S
C3567 C3568 1.370 . S
C3568 C3567 1.370 . S
C3568 C3569 1.438 . S
C3568 H3630 0.930 . S
C3569 C3555 1.497 . S
C3569 C3568 1.438 . S
C3569 C3570 1.360 . S
C3570 C3569 1.360 . S
C3570 C3571 1.401 . S
C3570 C3575 1.446 . S
C3571 C3570 1.401 . S
C3571 C3572 1.347 . S
C3571 H3631 0.929 . S
C3572 C3571 1.347 . S
C3572 C3573 1.455 . S
C3572 H3632 0.930 . S
C3573 C3560 1.412 . S
C3573 C3572 1.455 . S
C3573 C3574 1.331 . S
C3574 C3563 1.451 . S
C3574 C3573 1.331 . S
C3574 C3575 1.497 . S
C3575 C3566 1.395 . S
C3575 C3570 1.446 . S
C3575 C3574 1.497 . S
C3576 C3577 1.582 . S
C3576 H3633 0.962 . S
C3576 H3634 0.959 . S
C3576 H3635 0.958 . S
C3577 C3576 1.582 . S
C3577 O3580 1.458 . S
C3577 H3606 0.980 . S
O3578 C3523 1.426 . S
O3578 C3524 1.334 . S
O3579 C3551 1.412 . S
O3579 C3552 1.393 . S
O3580 C3542 1.435 . S
O3580 C3577 1.458 . S
O3581 C3533 1.468 . S
O3581 C3534 1.408 . S
H3582 C3523 0.980 . S
H3583 C3522 0.959 . S
H3584 C3522 0.959 . S
H3585 C3522 0.960 . S
H3586 C3525 0.929 . S
H3587 C3529 0.929 . S
H3588 C3530 0.959 . S
H3589 C3530 0.961 . S
H3590 C3530 0.961 . S
H3591 C3531 0.960 . S
H3592 C3531 0.960 . S
H3593 C3531 0.961 . S
H3594 C3533 0.980 . S
H3595 C3532 0.961 . S
H3596 C3532 0.960 . S
H3597 C3532 0.959 . S
H3598 C3535 0.930 . S
H3599 C3539 0.931 . S
H3600 C3540 0.959 . S
H3601 C3540 0.961 . S
H3602 C3540 0.959 . S
H3603 C3541 0.960 . S
H3604 C3541 0.960 . S
H3605 C3541 0.960 . S
H3606 C3577 0.980 . S
H3607 C3543 0.930 . S
H3608 C3547 0.930 . S
H3609 C3548 0.961 . S
H3610 C3548 0.960 . S
H3611 C3548 0.958 . S
H3612 C3549 0.961 . S
H3613 C3549 0.960 . S
H3614 C3549 0.960 . S
H3615 C3551 0.980 . S
H3616 C3550 0.961 . S
H3617 C3550 0.961 . S
H3618 C3550 0.959 . S
H3619 C3553 0.932 . S
H3620 C3557 0.929 . S
H3621 C3558 0.961 . S
H3622 C3558 0.959 . S
H3623 C3558 0.959 . S
H3624 C3559 0.960 . S
H3625 C3559 0.962 . S
H3626 C3559 0.961 . S
H3627 C3561 0.929 . S
H3628 C3564 0.930 . S
H3629 C3565 0.929 . S
H3630 C3568 0.930 . S
H3631 C3571 0.929 . S
H3632 C3572 0.930 . S
H3633 C3576 0.962 . S
H3634 C3576 0.959 . S
H3635 C3576 0.958 . S
C3636 C3637 1.391 . S
C3636 C3638 1.394 . S
C3636 H3652 0.931 . S
C3637 C3636 1.391 . S
C3637 C3641 1.376 . S
C3638 C3636 1.394 . S
C3638 C3639 1.369 . S
C3638 C3642 1.531 . S
C3639 C3638 1.369 . S
C3639 C3640 1.410 . S
C3639 C3647 1.503 . S
C3640 C3639 1.410 . S
C3640 C3641 1.392 . S
C3640 C3643 1.511 1_655 S
C3641 C3637 1.376 . S
C3641 C3640 1.392 . S
C3641 H3653 0.929 1_655 S
C3642 C3638 1.531 . S
C3642 H3654 0.960 . S
C3642 H3655 0.962 . S
C3642 H3656 0.960 . S
C3643 C3640 1.511 1_455 S
C3643 H3657 0.961 . S
C3643 H3658 0.961 . S
C3643 H3659 0.961 . S
C3644 C3645 1.370 . S
C3644 C3646 1.363 . S
C3644 H3660 0.931 . S
C3645 C3644 1.370 . S
C3645 C3649 1.408 . S
C3646 C3644 1.363 . S
C3646 C3647 1.370 . S
C3646 C3650 1.524 . S
C3647 C3639 1.503 . S
C3647 C3646 1.370 . S
C3647 C3648 1.403 . S
C3648 C3647 1.403 . S
C3648 C3649 1.404 . S
C3648 C3651 1.539 . S
C3649 C3645 1.408 . S
C3649 C3648 1.404 . S
C3649 H3661 0.930 . S
C3650 C3646 1.524 . S
C3650 H3662 0.956 . S
C3650 H3663 0.961 . S
C3650 H3664 0.961 . S
C3651 C3648 1.539 . S
C3651 H3665 0.958 . S
C3651 H3666 0.961 1_655 S
C3651 H3667 0.988 . S
H3652 C3636 0.931 . S
H3653 C3641 0.929 1_455 S
H3654 C3642 0.960 . S
H3655 C3642 0.962 . S
H3656 C3642 0.960 . S
H3657 C3643 0.961 . S
H3658 C3643 0.961 . S
H3659 C3643 0.961 . S
H3660 C3644 0.931 . S
H3661 C3649 0.930 . S
H3662 C3650 0.956 . S
H3663 C3650 0.961 . S
H3664 C3650 0.961 . S
H3665 C3651 0.958 . S
H3666 C3651 0.961 1_455 S
H3667 C3651 0.988 . S
C3668 C3669 1.391 . S
C3668 C3670 1.394 . S
C3668 H3684 0.931 . S
C3669 C3668 1.391 . S
C3669 C3673 1.376 . S
C3670 C3668 1.394 . S
C3670 C3671 1.369 . S
C3670 C3674 1.531 . S
C3671 C3670 1.369 . S
C3671 C3672 1.410 . S
C3671 C3679 1.503 . S
C3672 C3671 1.410 . S
C3672 C3673 1.392 . S
C3672 C3675 1.511 . S
C3673 C3669 1.376 . S
C3673 C3672 1.392 . S
C3673 H3685 0.929 . S
C3674 C3670 1.531 . S
C3674 H3686 0.960 . S
C3674 H3687 0.962 . S
C3674 H3688 0.960 . S
C3675 C3672 1.511 . S
C3675 H3689 0.961 . S
C3675 H3690 0.961 . S
C3675 H3691 0.961 . S
C3676 C3677 1.370 . S
C3676 C3678 1.363 . S
C3676 H3692 0.931 . S
C3677 C3676 1.370 . S
C3677 C3681 1.408 . S
C3678 C3676 1.363 . S
C3678 C3679 1.370 . S
C3678 C3682 1.524 . S
C3679 C3671 1.503 . S
C3679 C3678 1.370 . S
C3679 C3680 1.403 . S
C3680 C3679 1.403 . S
C3680 C3681 1.404 . S
C3680 C3683 1.539 . S
C3681 C3677 1.408 . S
C3681 C3680 1.404 . S
C3681 H3693 0.930 . S
C3682 C3678 1.524 . S
C3682 H3694 0.956 . S
C3682 H3695 0.961 . S
C3682 H3696 0.961 . S
C3683 C3680 1.539 . S
C3683 H3697 0.958 . S
C3683 H3698 0.961 . S
C3683 H3699 0.960 . S
H3684 C3668 0.931 . S
H3685 C3673 0.929 . S
H3686 C3674 0.960 . S
H3687 C3674 0.962 . S
H3688 C3674 0.960 . S
H3689 C3675 0.961 . S
H3690 C3675 0.961 . S
H3691 C3675 0.961 . S
H3692 C3676 0.931 . S
H3693 C3681 0.930 . S
H3694 C3682 0.956 . S
H3695 C3682 0.961 . S
H3696 C3682 0.961 . S
H3697 C3683 0.958 . S
H3698 C3683 0.961 . S
H3699 C3683 0.960 . S
C3700 C3701 1.391 . S
C3700 C3702 1.394 . S
C3700 H3716 0.931 . S
C3701 C3700 1.391 . S
C3701 C3705 1.376 . S
C3702 C3700 1.394 . S
C3702 C3703 1.369 . S
C3702 C3706 1.531 . S
C3703 C3702 1.369 . S
C3703 C3704 1.410 . S
C3703 C3711 1.503 . S
C3704 C3703 1.410 . S
C3704 C3705 1.392 . S
C3704 C3707 1.511 . S
C3705 C3701 1.376 . S
C3705 C3704 1.392 . S
C3705 H3717 0.929 . S
C3706 C3702 1.531 . S
C3706 H3718 0.960 . S
C3706 H3719 0.962 . S
C3706 H3720 0.960 . S
C3707 C3704 1.511 . S
C3707 H3721 0.961 . S
C3707 H3722 0.961 . S
C3707 H3723 0.961 . S
C3708 C3709 1.360 1_565 S
C3708 C3710 1.342 1_565 S
C3708 H3724 0.964 . S
C3709 C3708 1.360 1_545 S
C3709 C3713 1.408 . S
C3710 C3708 1.342 1_545 S
C3710 C3711 1.370 . S
C3710 C3714 1.524 1_545 S
C3711 C3703 1.503 . S
C3711 C3710 1.370 . S
C3711 C3712 1.403 . S
C3712 C3711 1.403 . S
C3712 C3713 1.404 . S
C3712 C3715 1.539 . S
C3713 C3709 1.408 . S
C3713 C3712 1.404 . S
C3713 H3725 0.930 . S
C3714 C3710 1.524 1_565 S
C3714 H3726 0.956 . S
C3714 H3727 0.961 . S
C3714 H3728 0.961 . S
C3715 C3712 1.539 . S
C3715 H3729 0.958 . S
C3715 H3730 0.961 . S
C3715 H3731 0.960 . S
H3716 C3700 0.931 . S
H3717 C3705 0.929 . S
H3718 C3706 0.960 . S
H3719 C3706 0.962 . S
H3720 C3706 0.960 . S
H3721 C3707 0.961 . S
H3722 C3707 0.961 . S
H3723 C3707 0.961 . S
H3724 C3708 0.964 . S
H3725 C3713 0.930 . S
H3726 C3714 0.956 . S
H3727 C3714 0.961 . S
H3728 C3714 0.961 . S
H3729 C3715 0.958 . S
H3730 C3715 0.961 . S
H3731 C3715 0.960 . S
C3732 C3733 1.391 . S
C3732 C3734 1.394 . S
C3732 H3748 0.931 . S
C3733 C3732 1.391 . S
C3733 C3737 1.376 . S
C3734 C3732 1.394 . S
C3734 C3735 1.369 . S
C3734 C3738 1.531 . S
C3735 C3734 1.369 . S
C3735 C3736 1.410 . S
C3735 C3743 1.503 . S
C3736 C3735 1.410 . S
C3736 C3737 1.392 . S
C3736 C3739 1.511 1_565 S
C3737 C3733 1.376 . S
C3737 C3736 1.392 . S
C3737 H3749 0.992 . S
C3738 C3734 1.531 . S
C3738 H3750 0.960 . S
C3738 H3751 0.962 . S
C3738 H3752 0.960 . S
C3739 C3736 1.511 1_545 S
C3739 H3753 0.961 . S
C3739 H3754 0.961 . S
C3739 H3755 0.961 . S
C3740 C3741 1.370 . S
C3740 C3742 1.363 . S
C3740 H3756 0.931 . S
C3741 C3740 1.370 . S
C3741 C3745 1.408 . S
C3742 C3740 1.363 . S
C3742 C3743 1.370 . S
C3742 C3746 1.524 . S
C3743 C3735 1.503 . S
C3743 C3742 1.370 . S
C3743 C3744 1.403 . S
C3744 C3743 1.403 . S
C3744 C3745 1.404 . S
C3744 C3747 1.539 . S
C3745 C3741 1.408 . S
C3745 C3744 1.404 . S
C3745 H3757 0.930 . S
C3746 C3742 1.524 . S
C3746 H3758 0.956 . S
C3746 H3759 0.961 . S
C3746 H3760 0.961 . S
C3747 C3744 1.539 . S
C3747 H3761 0.958 . S
C3747 H3762 0.946 1_565 S
C3747 H3763 0.960 . S
H3748 C3732 0.931 . S
H3749 C3737 0.992 . S
H3750 C3738 0.960 . S
H3751 C3738 0.962 . S
H3752 C3738 0.960 . S
H3753 C3739 0.961 . S
H3754 C3739 0.961 . S
H3755 C3739 0.961 . S
H3756 C3740 0.931 . S
H3757 C3745 0.930 . S
H3758 C3746 0.956 . S
H3759 C3746 0.961 . S
H3760 C3746 0.961 . S
H3761 C3747 0.958 . S
H3762 C3747 0.946 1_545 S
H3763 C3747 0.960 . S
C3764 C3765 1.391 . S
C3764 C3766 1.394 . S
C3764 H3780 0.931 . S
C3765 C3764 1.391 . S
C3765 C3769 1.376 . S
C3766 C3764 1.394 . S
C3766 C3767 1.369 . S
C3766 C3770 1.531 . S
C3767 C3766 1.369 . S
C3767 C3768 1.410 . S
C3767 C3775 1.503 . S
C3768 C3767 1.410 . S
C3768 C3769 1.392 . S
C3768 C3771 1.511 . S
C3769 C3765 1.376 . S
C3769 C3768 1.392 . S
C3769 H3781 0.929 . S
C3770 C3766 1.531 . S
C3770 H3782 0.960 . S
C3770 H3783 1.025 . S
C3770 H3784 0.960 . S
C3771 C3768 1.511 . S
C3771 H3785 0.961 . S
C3771 H3786 0.961 . S
C3771 H3787 0.961 . S
C3772 C3773 1.370 . S
C3772 C3774 1.363 . S
C3772 H3788 0.931 1_455 S
C3773 C3772 1.370 . S
C3773 C3777 1.408 . S
C3774 C3772 1.363 . S
C3774 C3775 1.370 . S
C3774 C3778 1.524 1_455 S
C3775 C3767 1.503 . S
C3775 C3774 1.370 . S
C3775 C3776 1.403 . S
C3776 C3775 1.403 . S
C3776 C3777 1.404 . S
C3776 C3779 1.539 . S
C3777 C3773 1.408 . S
C3777 C3776 1.404 . S
C3777 H3789 0.930 . S
C3778 C3774 1.524 1_655 S
C3778 H3790 0.956 . S
C3778 H3791 0.907 1_655 S
C3778 H3792 0.961 . S
C3779 C3776 1.539 . S
C3779 H3793 0.958 . S
C3779 H3794 0.961 . S
C3779 H3795 0.960 . S
H3780 C3764 0.931 . S
H3781 C3769 0.929 . S
H3782 C3770 0.960 . S
H3783 C3770 1.025 . S
H3784 C3770 0.960 . S
H3785 C3771 0.961 . S
H3786 C3771 0.961 . S
H3787 C3771 0.961 . S
H3788 C3772 0.931 1_655 S
H3789 C3777 0.930 . S
H3790 C3778 0.956 . S
H3791 C3778 0.907 1_455 S
H3792 C3778 0.961 . S
H3793 C3779 0.958 . S
H3794 C3779 0.961 . S
H3795 C3779 0.960 . S
C3796 C3797 1.391 . S
C3796 C3798 1.394 . S
C3796 H3812 0.931 . S
C3797 C3796 1.391 . S
C3797 C3801 1.376 . S
C3798 C3796 1.394 . S
C3798 C3799 1.369 . S
C3798 C3802 1.531 . S
C3799 C3798 1.369 . S
C3799 C3800 1.410 . S
C3799 C3807 1.503 . S
C3800 C3799 1.410 . S
C3800 C3801 1.392 . S
C3800 C3803 1.511 . S
C3801 C3797 1.376 . S
C3801 C3800 1.392 . S
C3801 H3813 0.929 . S
C3802 C3798 1.531 . S
C3802 H3814 0.960 . S
C3802 H3815 0.962 . S
C3802 H3816 0.960 . S
C3803 C3800 1.511 . S
C3803 H3817 0.961 . S
C3803 H3818 0.961 . S
C3803 H3819 0.961 . S
C3804 C3805 1.370 . S
C3804 C3806 1.363 . S
C3804 H3820 0.931 . S
C3805 C3804 1.370 . S
C3805 C3809 1.408 . S
C3806 C3804 1.363 . S
C3806 C3807 1.370 . S
C3806 C3810 1.524 . S
C3807 C3799 1.503 . S
C3807 C3806 1.370 . S
C3807 C3808 1.403 . S
C3808 C3807 1.403 . S
C3808 C3809 1.404 . S
C3808 C3811 1.539 . S
C3809 C3805 1.408 . S
C3809 C3808 1.404 . S
C3809 H3821 0.930 . S
C3810 C3806 1.524 . S
C3810 H3822 0.956 . S
C3810 H3823 0.961 . S
C3810 H3824 0.961 . S
C3811 C3808 1.539 . S
C3811 H3825 0.958 . S
C3811 H3826 0.961 . S
C3811 H3827 0.960 . S
H3812 C3796 0.931 . S
H3813 C3801 0.929 . S
H3814 C3802 0.960 . S
H3815 C3802 0.962 . S
H3816 C3802 0.960 . S
H3817 C3803 0.961 . S
H3818 C3803 0.961 . S
H3819 C3803 0.961 . S
H3820 C3804 0.931 . S
H3821 C3809 0.930 . S
H3822 C3810 0.956 . S
H3823 C3810 0.961 . S
H3824 C3810 0.961 . S
H3825 C3811 0.958 . S
H3826 C3811 0.961 . S
H3827 C3811 0.960 . S
C3828 C3829 1.391 . S
C3828 C3830 1.394 . S
C3828 H3844 0.931 . S
C3829 C3828 1.391 . S
C3829 C3833 1.376 . S
C3830 C3828 1.394 . S
C3830 C3831 1.369 . S
C3830 C3834 1.531 1_455 S
C3831 C3830 1.369 . S
C3831 C3832 1.410 . S
C3831 C3839 1.503 . S
C3832 C3831 1.410 . S
C3832 C3833 1.392 . S
C3832 C3835 1.511 . S
C3833 C3829 1.376 . S
C3833 C3832 1.392 . S
C3833 H3845 0.929 . S
C3834 C3830 1.531 1_655 S
C3834 H3846 0.974 . S
C3834 H3847 0.962 . S
C3834 H3848 0.960 . S
C3835 C3832 1.511 . S
C3835 H3849 0.961 . S
C3835 H3850 0.961 . S
C3835 H3851 0.961 . S
C3836 C3837 1.370 1_655 S
C3836 C3838 1.363 1_655 S
C3836 H3852 0.931 . S
C3837 C3836 1.370 1_455 S
C3837 C3841 1.408 . S
C3838 C3836 1.363 1_455 S
C3838 C3839 1.370 . S
C3838 C3842 1.524 1_455 S
C3839 C3831 1.503 . S
C3839 C3838 1.370 . S
C3839 C3840 1.403 . S
C3840 C3839 1.403 . S
C3840 C3841 1.404 . S
C3840 C3843 1.539 . S
C3841 C3837 1.408 . S
C3841 C3840 1.404 . S
C3841 H3853 0.930 . S
C3842 C3838 1.524 1_655 S
C3842 H3854 0.956 . S
C3842 H3855 0.961 1_655 S
C3842 H3856 0.961 . S
C3843 C3840 1.539 . S
C3843 H3857 0.958 . S
C3843 H3858 0.961 . S
C3843 H3859 0.960 . S
H3844 C3828 0.931 . S
H3845 C3833 0.929 . S
H3846 C3834 0.974 . S
H3847 C3834 0.962 . S
H3848 C3834 0.960 . S
H3849 C3835 0.961 . S
H3850 C3835 0.961 . S
H3851 C3835 0.961 . S
H3852 C3836 0.931 . S
H3853 C3841 0.930 . S
H3854 C3842 0.956 . S
H3855 C3842 0.961 1_455 S
H3856 C3842 0.961 . S
H3857 C3843 0.958 . S
H3858 C3843 0.961 . S
H3859 C3843 0.960 . S
C3860 C3861 1.391 . S
C3860 C3862 1.394 . S
C3860 H3876 0.931 . S
C3861 C3860 1.391 . S
C3861 C3865 1.376 . S
C3862 C3860 1.394 . S
C3862 C3863 1.369 . S
C3862 C3866 1.531 . S
C3863 C3862 1.369 . S
C3863 C3864 1.410 . S
C3863 C3871 1.503 . S
C3864 C3863 1.410 . S
C3864 C3865 1.392 . S
C3864 C3867 1.511 . S
C3865 C3861 1.376 . S
C3865 C3864 1.392 . S
C3865 H3877 0.929 . S
C3866 C3862 1.531 . S
C3866 H3878 0.960 . S
C3866 H3879 0.962 . S
C3866 H3880 0.960 . S
C3867 C3864 1.511 . S
C3867 H3881 0.961 . S
C3867 H3882 0.961 . S
C3867 H3883 0.961 . S
C3868 C3869 1.370 . S
C3868 C3870 1.363 . S
C3868 H3884 0.931 . S
C3869 C3868 1.370 . S
C3869 C3873 1.408 . S
C3870 C3868 1.363 . S
C3870 C3871 1.370 . S
C3870 C3874 1.524 . S
C3871 C3863 1.503 . S
C3871 C3870 1.370 . S
C3871 C3872 1.403 . S
C3872 C3871 1.403 . S
C3872 C3873 1.404 . S
C3872 C3875 1.539 . S
C3873 C3869 1.408 . S
C3873 C3872 1.404 . S
C3873 H3885 0.930 . S
C3874 C3870 1.524 . S
C3874 H3886 0.956 . S
C3874 H3887 0.961 . S
C3874 H3888 0.961 . S
C3875 C3872 1.539 . S
C3875 H3889 0.958 . S
C3875 H3890 0.961 . S
C3875 H3891 0.960 . S
H3876 C3860 0.931 . S
H3877 C3865 0.929 . S
H3878 C3866 0.960 . S
H3879 C3866 0.962 . S
H3880 C3866 0.960 . S
H3881 C3867 0.961 . S
H3882 C3867 0.961 . S
H3883 C3867 0.961 . S
H3884 C3868 0.931 . S
H3885 C3873 0.930 . S
H3886 C3874 0.956 . S
H3887 C3874 0.961 . S
H3888 C3874 0.961 . S
H3889 C3875 0.958 . S
H3890 C3875 0.961 . S
H3891 C3875 0.960 . S
C3892 C3893 1.391 . S
C3892 C3894 1.394 . S
C3892 H3908 0.931 . S
C3893 C3892 1.391 . S
C3893 C3897 1.376 . S
C3894 C3892 1.394 . S
C3894 C3895 1.369 . S
C3894 C3898 1.531 . S
C3895 C3894 1.369 . S
C3895 C3896 1.410 . S
C3895 C3903 1.503 . S
C3896 C3895 1.410 . S
C3896 C3897 1.392 . S
C3896 C3899 1.511 . S
C3897 C3893 1.376 . S
C3897 C3896 1.392 . S
C3897 H3909 0.929 . S
C3898 C3894 1.531 . S
C3898 H3910 0.960 . S
C3898 H3911 0.962 1_565 S
C3898 H3912 0.960 . S
C3899 C3896 1.511 . S
C3899 H3913 0.961 . S
C3899 H3914 0.961 . S
C3899 H3915 0.961 . S
C3900 C3901 1.370 1_545 S
C3900 C3902 1.323 1_545 S
C3900 H3916 0.931 . S
C3901 C3900 1.370 1_565 S
C3901 C3905 1.408 . S
C3902 C3900 1.323 1_565 S
C3902 C3903 1.431 . S
C3902 C3906 1.505 1_565 S
C3903 C3895 1.503 . S
C3903 C3902 1.431 . S
C3903 C3904 1.403 . S
C3904 C3903 1.403 . S
C3904 C3905 1.404 . S
C3904 C3907 1.539 . S
C3905 C3901 1.408 . S
C3905 C3904 1.404 . S
C3905 H3917 0.930 . S
C3906 C3902 1.505 1_545 S
C3906 H3918 0.956 . S
C3906 H3919 0.961 . S
C3906 H3920 0.961 . S
C3907 C3904 1.539 . S
C3907 H3921 0.958 . S
C3907 H3922 0.961 . S
C3907 H3923 0.960 . S
H3908 C3892 0.931 . S
H3909 C3897 0.929 . S
H3910 C3898 0.960 . S
H3911 C3898 0.962 1_545 S
H3912 C3898 0.960 . S
H3913 C3899 0.961 . S
H3914 C3899 0.961 . S
H3915 C3899 0.961 . S
H3916 C3900 0.931 . S
H3917 C3905 0.930 . S
H3918 C3906 0.956 . S
H3919 C3906 0.961 . S
H3920 C3906 0.961 . S
H3921 C3907 0.958 . S
H3922 C3907 0.961 . S
H3923 C3907 0.960 . S
C3924 C3925 1.391 . S
C3924 C3926 1.394 . S
C3924 H3940 0.931 . S
C3925 C3924 1.391 . S
C3925 C3929 1.376 . S
C3926 C3924 1.394 . S
C3926 C3927 1.369 . S
C3926 C3930 1.531 . S
C3927 C3926 1.369 . S
C3927 C3928 1.410 . S
C3927 C3935 1.503 . S
C3928 C3927 1.410 . S
C3928 C3929 1.392 . S
C3928 C3931 1.511 . S
C3929 C3925 1.376 . S
C3929 C3928 1.392 . S
C3929 H3941 0.929 . S
C3930 C3926 1.531 . S
C3930 H3942 0.960 1_545 S
C3930 H3943 0.962 . S
C3930 H3944 0.960 1_545 S
C3931 C3928 1.511 . S
C3931 H3945 0.961 . S
C3931 H3946 0.961 . S
C3931 H3947 0.961 . S
C3932 C3933 1.370 . S
C3932 C3934 1.363 . S
C3932 H3948 0.931 . S
C3933 C3932 1.370 . S
C3933 C3937 1.408 1_545 S
C3934 C3932 1.363 . S
C3934 C3935 1.370 . S
C3934 C3938 1.524 . S
C3935 C3927 1.503 . S
C3935 C3934 1.370 . S
C3935 C3936 1.403 1_545 S
C3936 C3935 1.403 1_565 S
C3936 C3937 1.404 . S
C3936 C3939 1.539 . S
C3937 C3933 1.408 1_565 S
C3937 C3936 1.404 . S
C3937 H3949 0.930 . S
C3938 C3934 1.524 . S
C3938 H3950 0.956 . S
C3938 H3951 0.961 . S
C3938 H3952 0.961 . S
C3939 C3936 1.539 . S
C3939 H3953 0.958 . S
C3939 H3954 0.961 . S
C3939 H3955 0.960 . S
H3940 C3924 0.931 . S
H3941 C3929 0.929 . S
H3942 C3930 0.960 1_565 S
H3943 C3930 0.962 . S
H3944 C3930 0.960 1_565 S
H3945 C3931 0.961 . S
H3946 C3931 0.961 . S
H3947 C3931 0.961 . S
H3948 C3932 0.931 . S
H3949 C3937 0.930 . S
H3950 C3938 0.956 . S
H3951 C3938 0.961 . S
H3952 C3938 0.961 . S
H3953 C3939 0.958 . S
H3954 C3939 0.961 . S
H3955 C3939 0.960 . S
C3956 C3957 1.391 . S
C3956 C3958 1.394 . S
C3956 H3972 0.931 . S
C3957 C3956 1.391 . S
C3957 C3961 1.376 . S
C3958 C3956 1.394 . S
C3958 C3959 1.369 . S
C3958 C3962 1.531 . S
C3959 C3958 1.369 . S
C3959 C3960 1.410 . S
C3959 C3967 1.503 . S
C3960 C3959 1.410 . S
C3960 C3961 1.392 . S
C3960 C3963 1.511 1_655 S
C3961 C3957 1.376 . S
C3961 C3960 1.392 . S
C3961 H3973 0.929 . S
C3962 C3958 1.531 . S
C3962 H3974 0.960 . S
C3962 H3975 0.962 . S
C3962 H3976 0.960 . S
C3963 C3960 1.511 1_455 S
C3963 H3977 0.961 . S
C3963 H3978 0.961 . S
C3963 H3979 0.961 . S
C3964 C3965 1.370 . S
C3964 C3966 1.363 . S
C3964 H3980 0.931 . S
C3965 C3964 1.370 . S
C3965 C3969 1.408 . S
C3966 C3964 1.363 . S
C3966 C3967 1.370 . S
C3966 C3970 1.524 . S
C3967 C3959 1.503 . S
C3967 C3966 1.370 . S
C3967 C3968 1.403 . S
C3968 C3967 1.403 . S
C3968 C3969 1.404 . S
C3968 C3971 1.539 . S
C3969 C3965 1.408 . S
C3969 C3968 1.404 . S
C3969 H3981 0.930 . S
C3970 C3966 1.524 . S
C3970 H3982 0.956 . S
C3970 H3983 0.961 . S
C3970 H3984 0.961 . S
C3971 C3968 1.539 . S
C3971 H3985 0.958 . S
C3971 H3986 0.961 . S
C3971 H3987 0.960 . S
H3972 C3956 0.931 . S
H3973 C3961 0.929 . S
H3974 C3962 0.960 . S
H3975 C3962 0.962 . S
H3976 C3962 0.960 . S
H3977 C3963 0.961 . S
H3978 C3963 0.961 . S
H3979 C3963 0.961 . S
H3980 C3964 0.931 . S
H3981 C3969 0.930 . S
H3982 C3970 0.956 . S
H3983 C3970 0.961 . S
H3984 C3970 0.961 . S
H3985 C3971 0.958 . S
H3986 C3971 0.961 . S
H3987 C3971 0.960 . S
C3988 C3989 1.391 . S
C3988 C3990 1.394 . S
C3988 H4004 0.931 . S
C3989 C3988 1.391 . S
C3989 C3993 1.376 . S
C3990 C3988 1.394 . S
C3990 C3991 1.369 . S
C3990 C3994 1.531 . S
C3991 C3990 1.369 . S
C3991 C3992 1.410 . S
C3991 C3999 1.503 . S
C3992 C3991 1.410 . S
C3992 C3993 1.392 . S
C3992 C3995 1.511 . S
C3993 C3989 1.376 . S
C3993 C3992 1.392 . S
C3993 H4005 0.929 . S
C3994 C3990 1.531 . S
C3994 H4006 0.960 . S
C3994 H4007 0.962 . S
C3994 H4008 0.960 . S
C3995 C3992 1.511 . S
C3995 H4009 0.961 . S
C3995 H4010 0.961 . S
C3995 H4011 0.961 . S
C3996 C3997 1.370 . S
C3996 C3998 1.363 . S
C3996 H4012 0.931 . S
C3997 C3996 1.370 . S
C3997 C4001 1.408 . S
C3998 C3996 1.363 . S
C3998 C3999 1.370 . S
C3998 C4002 1.524 . S
C3999 C3991 1.503 . S
C3999 C3998 1.370 . S
C3999 C4000 1.403 . S
C4000 C3999 1.403 . S
C4000 C4001 1.404 . S
C4000 C4003 1.539 . S
C4001 C3997 1.408 . S
C4001 C4000 1.404 . S
C4001 H4013 0.930 . S
C4002 C3998 1.524 . S
C4002 H4014 0.956 . S
C4002 H4015 0.961 . S
C4002 H4016 0.961 . S
C4003 C4000 1.539 . S
C4003 H4017 0.958 . S
C4003 H4018 0.961 . S
C4003 H4019 0.960 . S
H4004 C3988 0.931 . S
H4005 C3993 0.929 . S
H4006 C3994 0.960 . S
H4007 C3994 0.962 . S
H4008 C3994 0.960 . S
H4009 C3995 0.961 . S
H4010 C3995 0.961 . S
H4011 C3995 0.961 . S
H4012 C3996 0.931 . S
H4013 C4001 0.930 . S
H4014 C4002 0.956 . S
H4015 C4002 0.961 . S
H4016 C4002 0.961 . S
H4017 C4003 0.958 . S
H4018 C4003 0.961 . S
H4019 C4003 0.960 . S
C4020 C4021 1.391 . S
C4020 C4022 1.394 . S
C4020 H4036 0.931 . S
C4021 C4020 1.391 . S
C4021 C4025 1.376 . S
C4022 C4020 1.394 . S
C4022 C4023 1.369 . S
C4022 C4026 1.531 . S
C4023 C4022 1.369 . S
C4023 C4024 1.410 . S
C4023 C4031 1.503 . S
C4024 C4023 1.410 . S
C4024 C4025 1.392 . S
C4024 C4027 1.511 . S
C4025 C4021 1.376 . S
C4025 C4024 1.392 . S
C4025 H4037 0.929 . S
C4026 C4022 1.531 . S
C4026 H4038 0.960 . S
C4026 H4039 0.962 . S
C4026 H4040 0.960 . S
C4027 C4024 1.511 . S
C4027 H4041 0.961 . S
C4027 H4042 0.961 . S
C4027 H4043 0.961 . S
C4028 C4029 1.370 . S
C4028 C4030 1.363 . S
C4028 H4044 0.931 . S
C4029 C4028 1.370 . S
C4029 C4033 1.408 . S
C4030 C4028 1.363 . S
C4030 C4031 1.370 . S
C4030 C4034 1.524 . S
C4031 C4023 1.503 . S
C4031 C4030 1.370 . S
C4031 C4032 1.403 . S
C4032 C4031 1.403 . S
C4032 C4033 1.404 . S
C4032 C4035 1.539 . S
C4033 C4029 1.408 . S
C4033 C4032 1.404 . S
C4033 H4045 0.930 . S
C4034 C4030 1.524 . S
C4034 H4046 0.956 . S
C4034 H4047 0.961 . S
C4034 H4048 0.961 . S
C4035 C4032 1.539 . S
C4035 H4049 0.958 . S
C4035 H4050 0.961 . S
C4035 H4051 0.960 . S
H4036 C4020 0.931 . S
H4037 C4025 0.929 . S
H4038 C4026 0.960 . S
H4039 C4026 0.962 . S
H4040 C4026 0.960 . S
H4041 C4027 0.961 . S
H4042 C4027 0.961 . S
H4043 C4027 0.961 . S
H4044 C4028 0.931 . S
H4045 C4033 0.930 . S
H4046 C4034 0.956 . S
H4047 C4034 0.961 . S
H4048 C4034 0.961 . S
H4049 C4035 0.958 . S
H4050 C4035 0.961 . S
H4051 C4035 0.960 . S
C4052 C4053 1.391 . S
C4052 C4054 1.394 . S
C4052 H4068 0.931 . S
C4053 C4052 1.391 . S
C4053 C4057 1.376 . S
C4054 C4052 1.394 . S
C4054 C4055 1.369 . S
C4054 C4058 1.531 . S
C4055 C4054 1.369 . S
C4055 C4056 1.410 . S
C4055 C4063 1.503 . S
C4056 C4055 1.410 . S
C4056 C4057 1.392 . S
C4056 C4059 1.511 . S
C4057 C4053 1.376 . S
C4057 C4056 1.392 . S
C4057 H4069 0.929 . S
C4058 C4054 1.531 . S
C4058 H4070 0.960 . S
C4058 H4071 0.962 . S
C4058 H4072 0.960 . S
C4059 C4056 1.511 . S
C4059 H4073 0.961 . S
C4059 H4074 0.961 . S
C4059 H4075 0.961 . S
C4060 C4061 1.370 . S
C4060 C4062 1.363 . S
C4060 H4076 0.931 . S
C4061 C4060 1.370 . S
C4061 C4065 1.408 . S
C4062 C4060 1.363 . S
C4062 C4063 1.370 . S
C4062 C4066 1.524 . S
C4063 C4055 1.503 . S
C4063 C4062 1.370 . S
C4063 C4064 1.403 . S
C4064 C4063 1.403 . S
C4064 C4065 1.404 . S
C4064 C4067 1.539 . S
C4065 C4061 1.408 . S
C4065 C4064 1.404 . S
C4065 H4077 0.930 . S
C4066 C4062 1.524 . S
C4066 H4078 0.956 . S
C4066 H4079 0.961 . S
C4066 H4080 0.961 . S
C4067 C4064 1.539 . S
C4067 H4081 0.958 . S
C4067 H4082 0.961 . S
C4067 H4083 0.960 . S
H4068 C4052 0.931 . S
H4069 C4057 0.929 . S
H4070 C4058 0.960 . S
H4071 C4058 0.962 . S
H4072 C4058 0.960 . S
H4073 C4059 0.961 . S
H4074 C4059 0.961 . S
H4075 C4059 0.961 . S
H4076 C4060 0.931 . S
H4077 C4065 0.930 . S
H4078 C4066 0.956 . S
H4079 C4066 0.961 . S
H4080 C4066 0.961 . S
H4081 C4067 0.958 . S
H4082 C4067 0.961 . S
H4083 C4067 0.960 . S
C4084 C4085 1.391 . S
C4084 C4086 1.394 . S
C4084 H4100 0.931 . S
C4085 C4084 1.391 . S
C4085 C4089 1.376 . S
C4086 C4084 1.394 . S
C4086 C4087 1.369 . S
C4086 C4090 1.531 . S
C4087 C4086 1.369 . S
C4087 C4088 1.410 . S
C4087 C4095 1.503 . S
C4088 C4087 1.410 . S
C4088 C4089 1.392 . S
C4088 C4091 1.511 . S
C4089 C4085 1.376 . S
C4089 C4088 1.392 . S
C4089 H4101 0.929 . S
C4090 C4086 1.531 . S
C4090 H4102 0.960 . S
C4090 H4103 0.962 . S
C4090 H4104 0.960 . S
C4091 C4088 1.511 . S
C4091 H4105 0.961 . S
C4091 H4106 0.961 . S
C4091 H4107 0.961 . S
C4092 C4093 1.370 . S
C4092 C4094 1.363 . S
C4092 H4108 0.931 . S
C4093 C4092 1.370 . S
C4093 C4097 1.408 . S
C4094 C4092 1.363 . S
C4094 C4095 1.370 . S
C4094 C4098 1.524 . S
C4095 C4087 1.503 . S
C4095 C4094 1.370 . S
C4095 C4096 1.403 . S
C4096 C4095 1.403 . S
C4096 C4097 1.404 . S
C4096 C4099 1.539 . S
C4097 C4093 1.408 . S
C4097 C4096 1.404 . S
C4097 H4109 0.930 . S
C4098 C4094 1.524 . S
C4098 H4110 0.956 . S
C4098 H4111 0.961 . S
C4098 H4112 0.961 . S
C4099 C4096 1.539 . S
C4099 H4113 0.958 . S
C4099 H4114 0.961 . S
C4099 H4115 0.960 . S
H4100 C4084 0.931 . S
H4101 C4089 0.929 . S
H4102 C4090 0.960 . S
H4103 C4090 0.962 . S
H4104 C4090 0.960 . S
H4105 C4091 0.961 . S
H4106 C4091 0.961 . S
H4107 C4091 0.961 . S
H4108 C4092 0.931 . S
H4109 C4097 0.930 . S
H4110 C4098 0.956 . S
H4111 C4098 0.961 . S
H4112 C4098 0.961 . S
H4113 C4099 0.958 . S
H4114 C4099 0.961 . S
H4115 C4099 0.960 . S
C4116 C4117 1.391 . S
C4116 C4118 1.394 . S
C4116 H4132 0.931 . S
C4117 C4116 1.391 . S
C4117 C4121 1.376 . S
C4118 C4116 1.394 . S
C4118 C4119 1.369 . S
C4118 C4122 1.531 . S
C4119 C4118 1.369 . S
C4119 C4120 1.410 . S
C4119 C4127 1.503 . S
C4120 C4119 1.410 . S
C4120 C4121 1.392 . S
C4120 C4123 1.511 . S
C4121 C4117 1.376 . S
C4121 C4120 1.392 . S
C4121 H4133 0.929 . S
C4122 C4118 1.531 . S
C4122 H4134 0.960 . S
C4122 H4135 0.962 . S
C4122 H4136 0.960 . S
C4123 C4120 1.511 . S
C4123 H4137 0.961 . S
C4123 H4138 0.961 . S
C4123 H4139 0.961 . S
C4124 C4125 1.370 . S
C4124 C4126 1.363 . S
C4124 H4140 0.931 . S
C4125 C4124 1.370 . S
C4125 C4129 1.408 . S
C4126 C4124 1.363 . S
C4126 C4127 1.370 . S
C4126 C4130 1.524 . S
C4127 C4119 1.503 . S
C4127 C4126 1.370 . S
C4127 C4128 1.403 . S
C4128 C4127 1.403 . S
C4128 C4129 1.404 . S
C4128 C4131 1.539 . S
C4129 C4125 1.408 . S
C4129 C4128 1.404 . S
C4129 H4141 0.930 . S
C4130 C4126 1.524 . S
C4130 H4142 0.956 . S
C4130 H4143 0.961 . S
C4130 H4144 0.961 . S
C4131 C4128 1.539 . S
C4131 H4145 0.958 . S
C4131 H4146 0.961 . S
C4131 H4147 0.960 . S
H4132 C4116 0.931 . S
H4133 C4121 0.929 . S
H4134 C4122 0.960 . S
H4135 C4122 0.962 . S
H4136 C4122 0.960 . S
H4137 C4123 0.961 . S
H4138 C4123 0.961 . S
H4139 C4123 0.961 . S
H4140 C4124 0.931 . S
H4141 C4129 0.930 . S
H4142 C4130 0.956 . S
H4143 C4130 0.961 . S
H4144 C4130 0.961 . S
H4145 C4131 0.958 . S
H4146 C4131 0.961 . S
H4147 C4131 0.960 . S
C4148 C4149 1.391 . S
C4148 C4150 1.394 . S
C4148 H4164 0.931 . S
C4149 C4148 1.391 . S
C4149 C4153 1.376 . S
C4150 C4148 1.394 . S
C4150 C4151 1.369 . S
C4150 C4154 1.531 . S
C4151 C4150 1.369 . S
C4151 C4152 1.410 . S
C4151 C4159 1.503 . S
C4152 C4151 1.410 . S
C4152 C4153 1.392 . S
C4152 C4155 1.511 . S
C4153 C4149 1.376 . S
C4153 C4152 1.392 . S
C4153 H4165 0.929 . S
C4154 C4150 1.531 . S
C4154 H4166 0.960 . S
C4154 H4167 0.962 . S
C4154 H4168 0.960 . S
C4155 C4152 1.511 . S
C4155 H4169 0.961 . S
C4155 H4170 0.961 . S
C4155 H4171 0.961 . S
C4156 C4157 1.370 . S
C4156 C4158 1.363 . S
C4156 H4172 0.931 . S
C4157 C4156 1.370 . S
C4157 C4161 1.408 . S
C4158 C4156 1.363 . S
C4158 C4159 1.370 . S
C4158 C4162 1.524 . S
C4159 C4151 1.503 . S
C4159 C4158 1.370 . S
C4159 C4160 1.403 . S
C4160 C4159 1.403 . S
C4160 C4161 1.404 . S
C4160 C4163 1.539 . S
C4161 C4157 1.408 . S
C4161 C4160 1.404 . S
C4161 H4173 0.930 . S
C4162 C4158 1.524 . S
C4162 H4174 0.956 . S
C4162 H4175 0.961 . S
C4162 H4176 0.961 . S
C4163 C4160 1.539 . S
C4163 H4177 0.958 . S
C4163 H4178 0.961 . S
C4163 H4179 0.960 . S
H4164 C4148 0.931 . S
H4165 C4153 0.929 . S
H4166 C4154 0.960 . S
H4167 C4154 0.962 . S
H4168 C4154 0.960 . S
H4169 C4155 0.961 . S
H4170 C4155 0.961 . S
H4171 C4155 0.961 . S
H4172 C4156 0.931 . S
H4173 C4161 0.930 . S
H4174 C4162 0.956 . S
H4175 C4162 0.961 . S
H4176 C4162 0.961 . S
H4177 C4163 0.958 . S
H4178 C4163 0.961 . S
H4179 C4163 0.960 . S
C4180 C4181 1.391 . S
C4180 C4182 1.394 . S
C4180 H4196 0.931 . S
C4181 C4180 1.391 . S
C4181 C4185 1.376 . S
C4182 C4180 1.394 . S
C4182 C4183 1.369 . S
C4182 C4186 1.531 . S
C4183 C4182 1.369 . S
C4183 C4184 1.410 . S
C4183 C4191 1.503 . S
C4184 C4183 1.410 . S
C4184 C4185 1.392 . S
C4184 C4187 1.511 . S
C4185 C4181 1.376 . S
C4185 C4184 1.392 . S
C4185 H4197 0.929 . S
C4186 C4182 1.531 . S
C4186 H4198 0.960 . S
C4186 H4199 0.962 . S
C4186 H4200 0.960 . S
C4187 C4184 1.511 . S
C4187 H4201 0.961 . S
C4187 H4202 0.961 . S
C4187 H4203 0.961 . S
C4188 C4189 1.370 . S
C4188 C4190 1.363 . S
C4188 H4204 0.931 . S
C4189 C4188 1.370 . S
C4189 C4193 1.408 . S
C4190 C4188 1.363 . S
C4190 C4191 1.370 . S
C4190 C4194 1.524 . S
C4191 C4183 1.503 . S
C4191 C4190 1.370 . S
C4191 C4192 1.403 . S
C4192 C4191 1.403 . S
C4192 C4193 1.404 . S
C4192 C4195 1.539 . S
C4193 C4189 1.408 . S
C4193 C4192 1.404 . S
C4193 H4205 0.930 . S
C4194 C4190 1.524 . S
C4194 H4206 0.956 . S
C4194 H4207 0.961 . S
C4194 H4208 0.961 . S
C4195 C4192 1.539 . S
C4195 H4209 0.958 . S
C4195 H4210 0.961 . S
C4195 H4211 0.960 . S
H4196 C4180 0.931 . S
H4197 C4185 0.929 . S
H4198 C4186 0.960 . S
H4199 C4186 0.962 . S
H4200 C4186 0.960 . S
H4201 C4187 0.961 . S
H4202 C4187 0.961 . S
H4203 C4187 0.961 . S
H4204 C4188 0.931 . S
H4205 C4193 0.930 . S
H4206 C4194 0.956 . S
H4207 C4194 0.961 . S
H4208 C4194 0.961 . S
H4209 C4195 0.958 . S
H4210 C4195 0.961 . S
H4211 C4195 0.960 . S
C4212 C4213 1.391 . S
C4212 C4214 1.394 . S
C4212 H4228 0.931 . S
C4213 C4212 1.391 . S
C4213 C4217 1.376 . S
C4214 C4212 1.394 . S
C4214 C4215 1.369 . S
C4214 C4218 1.531 . S
C4215 C4214 1.369 . S
C4215 C4216 1.410 . S
C4215 C4223 1.503 . S
C4216 C4215 1.410 . S
C4216 C4217 1.392 . S
C4216 C4219 1.511 . S
C4217 C4213 1.376 . S
C4217 C4216 1.392 . S
C4217 H4229 0.929 . S
C4218 C4214 1.531 . S
C4218 H4230 0.960 . S
C4218 H4231 0.962 . S
C4218 H4232 0.960 . S
C4219 C4216 1.511 . S
C4219 H4233 0.961 . S
C4219 H4234 0.961 . S
C4219 H4235 0.961 . S
C4220 C4221 1.370 . S
C4220 C4222 1.363 . S
C4220 H4236 0.931 . S
C4221 C4220 1.370 . S
C4221 C4225 1.408 . S
C4222 C4220 1.363 . S
C4222 C4223 1.370 . S
C4222 C4226 1.524 . S
C4223 C4215 1.503 . S
C4223 C4222 1.370 . S
C4223 C4224 1.403 . S
C4224 C4223 1.403 . S
C4224 C4225 1.404 . S
C4224 C4227 1.539 . S
C4225 C4221 1.408 . S
C4225 C4224 1.404 . S
C4225 H4237 0.930 . S
C4226 C4222 1.524 . S
C4226 H4238 0.956 . S
C4226 H4239 0.961 . S
C4226 H4240 0.961 . S
C4227 C4224 1.539 . S
C4227 H4241 0.958 . S
C4227 H4242 0.961 . S
C4227 H4243 0.960 . S
H4228 C4212 0.931 . S
H4229 C4217 0.929 . S
H4230 C4218 0.960 . S
H4231 C4218 0.962 . S
H4232 C4218 0.960 . S
H4233 C4219 0.961 . S
H4234 C4219 0.961 . S
H4235 C4219 0.961 . S
H4236 C4220 0.931 . S
H4237 C4225 0.930 . S
H4238 C4226 0.956 . S
H4239 C4226 0.961 . S
H4240 C4226 0.961 . S
H4241 C4227 0.958 . S
H4242 C4227 0.961 . S
H4243 C4227 0.960 . S
C4244 C4245 1.391 . S
C4244 C4246 1.394 . S
C4244 H4260 0.931 . S
C4245 C4244 1.391 . S
C4245 C4249 1.376 . S
C4246 C4244 1.394 . S
C4246 C4247 1.369 . S
C4246 C4250 1.531 . S
C4247 C4246 1.369 . S
C4247 C4248 1.410 . S
C4247 C4255 1.503 . S
C4248 C4247 1.410 . S
C4248 C4249 1.392 . S
C4248 C4251 1.511 . S
C4249 C4245 1.376 . S
C4249 C4248 1.392 . S
C4249 H4261 0.929 . S
C4250 C4246 1.531 . S
C4250 H4262 0.960 . S
C4250 H4263 0.962 . S
C4250 H4264 0.960 . S
C4251 C4248 1.511 . S
C4251 H4265 0.961 . S
C4251 H4266 0.961 . S
C4251 H4267 0.961 . S
C4252 C4253 1.370 . S
C4252 C4254 1.363 . S
C4252 H4268 0.931 . S
C4253 C4252 1.370 . S
C4253 C4257 1.408 . S
C4254 C4252 1.363 . S
C4254 C4255 1.370 . S
C4254 C4258 1.524 . S
C4255 C4247 1.503 . S
C4255 C4254 1.370 . S
C4255 C4256 1.403 . S
C4256 C4255 1.403 . S
C4256 C4257 1.404 . S
C4256 C4259 1.539 . S
C4257 C4253 1.408 . S
C4257 C4256 1.404 . S
C4257 H4269 0.930 . S
C4258 C4254 1.524 . S
C4258 H4270 0.956 . S
C4258 H4271 0.961 . S
C4258 H4272 0.961 . S
C4259 C4256 1.539 . S
C4259 H4273 0.958 . S
C4259 H4274 0.961 . S
C4259 H4275 0.960 . S
H4260 C4244 0.931 . S
H4261 C4249 0.929 . S
H4262 C4250 0.960 . S
H4263 C4250 0.962 . S
H4264 C4250 0.960 . S
H4265 C4251 0.961 . S
H4266 C4251 0.961 . S
H4267 C4251 0.961 . S
H4268 C4252 0.931 . S
H4269 C4257 0.930 . S
H4270 C4258 0.956 . S
H4271 C4258 0.961 . S
H4272 C4258 0.961 . S
H4273 C4259 0.958 . S
H4274 C4259 0.961 . S
H4275 C4259 0.960 . S
C4276 C4277 1.391 . S
C4276 C4278 1.394 . S
C4276 H4292 0.931 . S
C4277 C4276 1.391 . S
C4277 C4281 1.376 . S
C4278 C4276 1.394 . S
C4278 C4279 1.369 . S
C4278 C4282 1.531 . S
C4279 C4278 1.369 . S
C4279 C4280 1.410 . S
C4279 C4287 1.503 . S
C4280 C4279 1.410 . S
C4280 C4281 1.392 . S
C4280 C4283 1.511 . S
C4281 C4277 1.376 . S
C4281 C4280 1.392 . S
C4281 H4293 0.929 . S
C4282 C4278 1.531 . S
C4282 H4294 0.960 . S
C4282 H4295 0.962 . S
C4282 H4296 0.960 . S
C4283 C4280 1.511 . S
C4283 H4297 0.961 . S
C4283 H4298 0.961 . S
C4283 H4299 0.961 . S
C4284 C4285 1.370 . S
C4284 C4286 1.363 . S
C4284 H4300 0.931 . S
C4285 C4284 1.370 . S
C4285 C4289 1.408 . S
C4286 C4284 1.363 . S
C4286 C4287 1.370 . S
C4286 C4290 1.524 . S
C4287 C4279 1.503 . S
C4287 C4286 1.370 . S
C4287 C4288 1.403 . S
C4288 C4287 1.403 . S
C4288 C4289 1.404 . S
C4288 C4291 1.539 . S
C4289 C4285 1.408 . S
C4289 C4288 1.404 . S
C4289 H4301 0.930 . S
C4290 C4286 1.524 . S
C4290 H4302 0.956 . S
C4290 H4303 0.961 . S
C4290 H4304 0.961 . S
C4291 C4288 1.539 . S
C4291 H4305 0.958 . S
C4291 H4306 0.961 . S
C4291 H4307 0.960 . S
H4292 C4276 0.931 . S
H4293 C4281 0.929 . S
H4294 C4282 0.960 . S
H4295 C4282 0.962 . S
H4296 C4282 0.960 . S
H4297 C4283 0.961 . S
H4298 C4283 0.961 . S
H4299 C4283 0.961 . S
H4300 C4284 0.931 . S
H4301 C4289 0.930 . S
H4302 C4290 0.956 . S
H4303 C4290 0.961 . S
H4304 C4290 0.961 . S
H4305 C4291 0.958 . S
H4306 C4291 0.961 . S
H4307 C4291 0.960 . S
C4308 C4309 1.391 . S
C4308 C4310 1.394 . S
C4308 H4324 0.931 . S
C4309 C4308 1.391 . S
C4309 C4313 1.376 . S
C4310 C4308 1.394 . S
C4310 C4311 1.369 . S
C4310 C4314 1.531 . S
C4311 C4310 1.369 . S
C4311 C4312 1.410 . S
C4311 C4319 1.503 . S
C4312 C4311 1.410 . S
C4312 C4313 1.392 . S
C4312 C4315 1.511 . S
C4313 C4309 1.376 . S
C4313 C4312 1.392 . S
C4313 H4325 0.929 . S
C4314 C4310 1.531 . S
C4314 H4326 0.960 . S
C4314 H4327 0.962 . S
C4314 H4328 0.960 . S
C4315 C4312 1.511 . S
C4315 H4329 0.961 . S
C4315 H4330 0.961 . S
C4315 H4331 0.961 . S
C4316 C4317 1.370 . S
C4316 C4318 1.363 . S
C4316 H4332 0.931 . S
C4317 C4316 1.370 . S
C4317 C4321 1.408 . S
C4318 C4316 1.363 . S
C4318 C4319 1.370 . S
C4318 C4322 1.524 . S
C4319 C4311 1.503 . S
C4319 C4318 1.370 . S
C4319 C4320 1.403 . S
C4320 C4319 1.403 . S
C4320 C4321 1.404 . S
C4320 C4323 1.539 . S
C4321 C4317 1.408 . S
C4321 C4320 1.404 . S
C4321 H4333 0.930 . S
C4322 C4318 1.524 . S
C4322 H4334 0.956 . S
C4322 H4335 0.961 . S
C4322 H4336 0.961 . S
C4323 C4320 1.539 . S
C4323 H4337 0.958 . S
C4323 H4338 0.961 . S
C4323 H4339 0.960 . S
H4324 C4308 0.931 . S
H4325 C4313 0.929 . S
H4326 C4314 0.960 . S
H4327 C4314 0.962 . S
H4328 C4314 0.960 . S
H4329 C4315 0.961 . S
H4330 C4315 0.961 . S
H4331 C4315 0.961 . S
H4332 C4316 0.931 . S
H4333 C4321 0.930 . S
H4334 C4322 0.956 . S
H4335 C4322 0.961 . S
H4336 C4322 0.961 . S
H4337 C4323 0.958 . S
H4338 C4323 0.961 . S
H4339 C4323 0.960 . S
C4340 C4341 1.391 . S
C4340 C4342 1.394 . S
C4340 H4356 0.931 . S
C4341 C4340 1.391 . S
C4341 C4345 1.376 . S
C4342 C4340 1.394 . S
C4342 C4343 1.369 . S
C4342 C4346 1.531 . S
C4343 C4342 1.369 . S
C4343 C4344 1.410 . S
C4343 C4351 1.503 . S
C4344 C4343 1.410 . S
C4344 C4345 1.392 . S
C4344 C4347 1.511 . S
C4345 C4341 1.376 . S
C4345 C4344 1.392 . S
C4345 H4357 0.929 . S
C4346 C4342 1.531 . S
C4346 H4358 0.960 . S
C4346 H4359 0.962 . S
C4346 H4360 0.960 . S
C4347 C4344 1.511 . S
C4347 H4361 0.961 . S
C4347 H4362 0.961 . S
C4347 H4363 0.961 . S
C4348 C4349 1.370 . S
C4348 C4350 1.363 . S
C4348 H4364 0.931 . S
C4349 C4348 1.370 . S
C4349 C4353 1.408 . S
C4350 C4348 1.363 . S
C4350 C4351 1.370 . S
C4350 C4354 1.524 . S
C4351 C4343 1.503 . S
C4351 C4350 1.370 . S
C4351 C4352 1.403 . S
C4352 C4351 1.403 . S
C4352 C4353 1.404 . S
C4352 C4355 1.539 . S
C4353 C4349 1.408 . S
C4353 C4352 1.404 . S
C4353 H4365 0.930 . S
C4354 C4350 1.524 . S
C4354 H4366 0.956 . S
C4354 H4367 0.961 . S
C4354 H4368 0.961 . S
C4355 C4352 1.539 . S
C4355 H4369 0.958 . S
C4355 H4370 0.961 . S
C4355 H4371 0.960 . S
H4356 C4340 0.931 . S
H4357 C4345 0.929 . S
H4358 C4346 0.960 . S
H4359 C4346 0.962 . S
H4360 C4346 0.960 . S
H4361 C4347 0.961 . S
H4362 C4347 0.961 . S
H4363 C4347 0.961 . S
H4364 C4348 0.931 . S
H4365 C4353 0.930 . S
H4366 C4354 0.956 . S
H4367 C4354 0.961 . S
H4368 C4354 0.961 . S
H4369 C4355 0.958 . S
H4370 C4355 0.961 . S
H4371 C4355 0.960 . S
C4372 C4373 1.391 . S
C4372 C4374 1.394 . S
C4372 H4388 0.931 . S
C4373 C4372 1.391 . S
C4373 C4377 1.376 . S
C4374 C4372 1.394 . S
C4374 C4375 1.369 . S
C4374 C4378 1.531 . S
C4375 C4374 1.369 . S
C4375 C4376 1.410 . S
C4375 C4383 1.503 . S
C4376 C4375 1.410 . S
C4376 C4377 1.392 . S
C4376 C4379 1.511 . S
C4377 C4373 1.376 . S
C4377 C4376 1.392 . S
C4377 H4389 0.929 . S
C4378 C4374 1.531 . S
C4378 H4390 0.960 . S
C4378 H4391 0.962 . S
C4378 H4392 0.960 . S
C4379 C4376 1.511 . S
C4379 H4393 0.961 . S
C4379 H4394 0.961 . S
C4379 H4395 0.961 . S
C4380 C4381 1.370 . S
C4380 C4382 1.363 . S
C4380 H4396 0.931 . S
C4381 C4380 1.370 . S
C4381 C4385 1.408 . S
C4382 C4380 1.363 . S
C4382 C4383 1.370 . S
C4382 C4386 1.524 . S
C4383 C4375 1.503 . S
C4383 C4382 1.370 . S
C4383 C4384 1.403 . S
C4384 C4383 1.403 . S
C4384 C4385 1.404 . S
C4384 C4387 1.539 . S
C4385 C4381 1.408 . S
C4385 C4384 1.404 . S
C4385 H4397 0.930 . S
C4386 C4382 1.524 . S
C4386 H4398 0.956 . S
C4386 H4399 0.961 . S
C4386 H4400 0.961 . S
C4387 C4384 1.539 . S
C4387 H4401 0.958 . S
C4387 H4402 0.961 . S
C4387 H4403 0.960 . S
H4388 C4372 0.931 . S
H4389 C4377 0.929 . S
H4390 C4378 0.960 . S
H4391 C4378 0.962 . S
H4392 C4378 0.960 . S
H4393 C4379 0.961 . S
H4394 C4379 0.961 . S
H4395 C4379 0.961 . S
H4396 C4380 0.931 . S
H4397 C4385 0.930 . S
H4398 C4386 0.956 . S
H4399 C4386 0.961 . S
H4400 C4386 0.961 . S
H4401 C4387 0.958 . S
H4402 C4387 0.961 . S
H4403 C4387 0.960 . S
C4404 C4405 1.391 . S
C4404 C4406 1.394 . S
C4404 H4420 0.931 . S
C4405 C4404 1.391 . S
C4405 C4409 1.376 . S
C4406 C4404 1.394 . S
C4406 C4407 1.369 . S
C4406 C4410 1.531 . S
C4407 C4406 1.369 . S
C4407 C4408 1.410 . S
C4407 C4415 1.503 . S
C4408 C4407 1.410 . S
C4408 C4409 1.392 . S
C4408 C4411 1.511 . S
C4409 C4405 1.376 . S
C4409 C4408 1.392 . S
C4409 H4421 0.929 . S
C4410 C4406 1.531 . S
C4410 H4422 0.960 . S
C4410 H4423 0.962 . S
C4410 H4424 0.960 . S
C4411 C4408 1.511 . S
C4411 H4425 0.961 . S
C4411 H4426 0.961 . S
C4411 H4427 0.961 . S
C4412 C4413 1.370 . S
C4412 C4414 1.363 . S
C4412 H4428 0.931 . S
C4413 C4412 1.370 . S
C4413 C4417 1.408 . S
C4414 C4412 1.363 . S
C4414 C4415 1.370 . S
C4414 C4418 1.524 . S
C4415 C4407 1.503 . S
C4415 C4414 1.370 . S
C4415 C4416 1.403 . S
C4416 C4415 1.403 . S
C4416 C4417 1.404 . S
C4416 C4419 1.539 . S
C4417 C4413 1.408 . S
C4417 C4416 1.404 . S
C4417 H4429 0.930 . S
C4418 C4414 1.524 . S
C4418 H4430 0.956 . S
C4418 H4431 0.961 . S
C4418 H4432 0.961 . S
C4419 C4416 1.539 . S
C4419 H4433 0.958 . S
C4419 H4434 0.961 . S
C4419 H4435 0.960 . S
H4420 C4404 0.931 . S
H4421 C4409 0.929 . S
H4422 C4410 0.960 . S
H4423 C4410 0.962 . S
H4424 C4410 0.960 . S
H4425 C4411 0.961 . S
H4426 C4411 0.961 . S
H4427 C4411 0.961 . S
H4428 C4412 0.931 . S
H4429 C4417 0.930 . S
H4430 C4418 0.956 . S
H4431 C4418 0.961 . S
H4432 C4418 0.961 . S
H4433 C4419 0.958 . S
H4434 C4419 0.961 . S
H4435 C4419 0.960 . S
C4436 C4437 1.391 . S
C4436 C4438 1.394 . S
C4436 H4452 0.931 . S
C4437 C4436 1.391 . S
C4437 C4441 1.376 . S
C4438 C4436 1.394 . S
C4438 C4439 1.369 . S
C4438 C4442 1.531 . S
C4439 C4438 1.369 . S
C4439 C4440 1.410 . S
C4439 C4447 1.503 . S
C4440 C4439 1.410 . S
C4440 C4441 1.392 . S
C4440 C4443 1.511 . S
C4441 C4437 1.376 . S
C4441 C4440 1.392 . S
C4441 H4453 0.929 . S
C4442 C4438 1.531 . S
C4442 H4454 0.960 . S
C4442 H4455 0.962 . S
C4442 H4456 0.960 . S
C4443 C4440 1.511 . S
C4443 H4457 0.961 . S
C4443 H4458 0.961 . S
C4443 H4459 0.961 . S
C4444 C4445 1.370 . S
C4444 C4446 1.363 . S
C4444 H4460 0.931 . S
C4445 C4444 1.370 . S
C4445 C4449 1.408 . S
C4446 C4444 1.363 . S
C4446 C4447 1.370 . S
C4446 C4450 1.524 . S
C4447 C4439 1.503 . S
C4447 C4446 1.370 . S
C4447 C4448 1.403 . S
C4448 C4447 1.403 . S
C4448 C4449 1.404 . S
C4448 C4451 1.539 . S
C4449 C4445 1.408 . S
C4449 C4448 1.404 . S
C4449 H4461 0.930 . S
C4450 C4446 1.524 . S
C4450 H4462 0.956 . S
C4450 H4463 0.961 . S
C4450 H4464 0.961 . S
C4451 C4448 1.539 . S
C4451 H4465 0.958 . S
C4451 H4466 0.961 . S
C4451 H4467 0.960 . S
H4452 C4436 0.931 . S
H4453 C4441 0.929 . S
H4454 C4442 0.960 . S
H4455 C4442 0.962 . S
H4456 C4442 0.960 . S
H4457 C4443 0.961 . S
H4458 C4443 0.961 . S
H4459 C4443 0.961 . S
H4460 C4444 0.931 . S
H4461 C4449 0.930 . S
H4462 C4450 0.956 . S
H4463 C4450 0.961 . S
H4464 C4450 0.961 . S
H4465 C4451 0.958 . S
H4466 C4451 0.961 . S
H4467 C4451 0.960 . S
C4468 C4469 1.391 . S
C4468 C4470 1.394 . S
C4468 H4484 0.931 . S
C4469 C4468 1.391 . S
C4469 C4473 1.376 . S
C4470 C4468 1.394 . S
C4470 C4471 1.369 . S
C4470 C4474 1.531 . S
C4471 C4470 1.369 . S
C4471 C4472 1.410 . S
C4471 C4479 1.503 . S
C4472 C4471 1.410 . S
C4472 C4473 1.392 . S
C4472 C4475 1.511 . S
C4473 C4469 1.376 . S
C4473 C4472 1.392 . S
C4473 H4485 0.929 . S
C4474 C4470 1.531 . S
C4474 H4486 0.960 . S
C4474 H4487 0.962 . S
C4474 H4488 0.960 . S
C4475 C4472 1.511 . S
C4475 H4489 0.961 . S
C4475 H4490 0.961 . S
C4475 H4491 0.961 . S
C4476 C4477 1.370 . S
C4476 C4478 1.363 . S
C4476 H4492 0.931 . S
C4477 C4476 1.370 . S
C4477 C4481 1.408 . S
C4478 C4476 1.363 . S
C4478 C4479 1.370 . S
C4478 C4482 1.524 . S
C4479 C4471 1.503 . S
C4479 C4478 1.370 . S
C4479 C4480 1.403 . S
C4480 C4479 1.403 . S
C4480 C4481 1.404 . S
C4480 C4483 1.539 . S
C4481 C4477 1.408 . S
C4481 C4480 1.404 . S
C4481 H4493 0.930 . S
C4482 C4478 1.524 . S
C4482 H4494 0.956 . S
C4482 H4495 0.961 . S
C4482 H4496 0.961 . S
C4483 C4480 1.539 . S
C4483 H4497 0.958 . S
C4483 H4498 0.961 . S
C4483 H4499 0.960 . S
H4484 C4468 0.931 . S
H4485 C4473 0.929 . S
H4486 C4474 0.960 . S
H4487 C4474 0.962 . S
H4488 C4474 0.960 . S
H4489 C4475 0.961 . S
H4490 C4475 0.961 . S
H4491 C4475 0.961 . S
H4492 C4476 0.931 . S
H4493 C4481 0.930 . S
H4494 C4482 0.956 . S
H4495 C4482 0.961 . S
H4496 C4482 0.961 . S
H4497 C4483 0.958 . S
H4498 C4483 0.961 . S
H4499 C4483 0.960 . S
C4500 C4501 1.391 . S
C4500 C4502 1.394 . S
C4500 H4516 0.931 . S
C4501 C4500 1.391 . S
C4501 C4505 1.376 . S
C4502 C4500 1.394 . S
C4502 C4503 1.369 . S
C4502 C4506 1.531 . S
C4503 C4502 1.369 . S
C4503 C4504 1.410 . S
C4503 C4511 1.503 . S
C4504 C4503 1.410 . S
C4504 C4505 1.392 . S
C4504 C4507 1.511 . S
C4505 C4501 1.376 . S
C4505 C4504 1.392 . S
C4505 H4517 0.929 . S
C4506 C4502 1.531 . S
C4506 H4518 0.960 . S
C4506 H4519 0.962 . S
C4506 H4520 0.960 . S
C4507 C4504 1.511 . S
C4507 H4521 0.961 . S
C4507 H4522 0.961 . S
C4507 H4523 0.961 . S
C4508 C4509 1.370 . S
C4508 C4510 1.363 . S
C4508 H4524 0.931 . S
C4509 C4508 1.370 . S
C4509 C4513 1.408 . S
C4510 C4508 1.363 . S
C4510 C4511 1.370 . S
C4510 C4514 1.524 . S
C4511 C4503 1.503 . S
C4511 C4510 1.370 . S
C4511 C4512 1.403 . S
C4512 C4511 1.403 . S
C4512 C4513 1.404 . S
C4512 C4515 1.539 . S
C4513 C4509 1.408 . S
C4513 C4512 1.404 . S
C4513 H4525 0.930 . S
C4514 C4510 1.524 . S
C4514 H4526 0.956 . S
C4514 H4527 0.961 . S
C4514 H4528 0.961 . S
C4515 C4512 1.539 . S
C4515 H4529 0.958 . S
C4515 H4530 0.961 . S
C4515 H4531 0.960 . S
H4516 C4500 0.931 . S
H4517 C4505 0.929 . S
H4518 C4506 0.960 . S
H4519 C4506 0.962 . S
H4520 C4506 0.960 . S
H4521 C4507 0.961 . S
H4522 C4507 0.961 . S
H4523 C4507 0.961 . S
H4524 C4508 0.931 . S
H4525 C4513 0.930 . S
H4526 C4514 0.956 . S
H4527 C4514 0.961 . S
H4528 C4514 0.961 . S
H4529 C4515 0.958 . S
H4530 C4515 0.961 . S
H4531 C4515 0.960 . S
C4532 C4533 1.391 . S
C4532 C4534 1.394 . S
C4532 H4548 0.931 . S
C4533 C4532 1.391 . S
C4533 C4537 1.376 . S
C4534 C4532 1.394 . S
C4534 C4535 1.369 . S
C4534 C4538 1.531 . S
C4535 C4534 1.369 . S
C4535 C4536 1.410 . S
C4535 C4543 1.503 . S
C4536 C4535 1.410 . S
C4536 C4537 1.392 . S
C4536 C4539 1.511 . S
C4537 C4533 1.376 . S
C4537 C4536 1.392 . S
C4537 H4549 0.929 . S
C4538 C4534 1.531 . S
C4538 H4550 0.960 . S
C4538 H4551 0.962 . S
C4538 H4552 0.960 . S
C4539 C4536 1.511 . S
C4539 H4553 0.961 . S
C4539 H4554 0.961 . S
C4539 H4555 0.961 . S
C4540 C4541 1.370 . S
C4540 C4542 1.363 . S
C4540 H4556 0.931 . S
C4541 C4540 1.370 . S
C4541 C4545 1.408 . S
C4542 C4540 1.363 . S
C4542 C4543 1.370 . S
C4542 C4546 1.524 . S
C4543 C4535 1.503 . S
C4543 C4542 1.370 . S
C4543 C4544 1.403 . S
C4544 C4543 1.403 . S
C4544 C4545 1.404 . S
C4544 C4547 1.539 . S
C4545 C4541 1.408 . S
C4545 C4544 1.404 . S
C4545 H4557 0.930 . S
C4546 C4542 1.524 . S
C4546 H4558 0.956 . S
C4546 H4559 0.961 . S
C4546 H4560 0.961 . S
C4547 C4544 1.539 . S
C4547 H4561 0.958 . S
C4547 H4562 0.961 . S
C4547 H4563 0.960 . S
H4548 C4532 0.931 . S
H4549 C4537 0.929 . S
H4550 C4538 0.960 . S
H4551 C4538 0.962 . S
H4552 C4538 0.960 . S
H4553 C4539 0.961 . S
H4554 C4539 0.961 . S
H4555 C4539 0.961 . S
H4556 C4540 0.931 . S
H4557 C4545 0.930 . S
H4558 C4546 0.956 . S
H4559 C4546 0.961 . S
H4560 C4546 0.961 . S
H4561 C4547 0.958 . S
H4562 C4547 0.961 . S
H4563 C4547 0.960 . S
C4564 C4565 1.391 . S
C4564 C4566 1.394 . S
C4564 H4580 0.931 . S
C4565 C4564 1.391 . S
C4565 C4569 1.376 . S
C4566 C4564 1.394 . S
C4566 C4567 1.369 . S
C4566 C4570 1.531 . S
C4567 C4566 1.369 . S
C4567 C4568 1.410 . S
C4567 C4575 1.503 . S
C4568 C4567 1.410 . S
C4568 C4569 1.392 . S
C4568 C4571 1.511 . S
C4569 C4565 1.376 . S
C4569 C4568 1.392 . S
C4569 H4581 0.929 . S
C4570 C4566 1.531 . S
C4570 H4582 0.960 . S
C4570 H4583 0.962 . S
C4570 H4584 0.960 . S
C4571 C4568 1.511 . S
C4571 H4585 0.961 . S
C4571 H4586 0.961 . S
C4571 H4587 0.961 . S
C4572 C4573 1.370 . S
C4572 C4574 1.363 . S
C4572 H4588 0.931 . S
C4573 C4572 1.370 . S
C4573 C4577 1.408 . S
C4574 C4572 1.363 . S
C4574 C4575 1.370 . S
C4574 C4578 1.524 . S
C4575 C4567 1.503 . S
C4575 C4574 1.370 . S
C4575 C4576 1.403 . S
C4576 C4575 1.403 . S
C4576 C4577 1.404 . S
C4576 C4579 1.539 . S
C4577 C4573 1.408 . S
C4577 C4576 1.404 . S
C4577 H4589 0.930 . S
C4578 C4574 1.524 . S
C4578 H4590 0.956 . S
C4578 H4591 0.961 . S
C4578 H4592 0.961 . S
C4579 C4576 1.539 . S
C4579 H4593 0.958 . S
C4579 H4594 0.961 . S
C4579 H4595 0.960 . S
H4580 C4564 0.931 . S
H4581 C4569 0.929 . S
H4582 C4570 0.960 . S
H4583 C4570 0.962 . S
H4584 C4570 0.960 . S
H4585 C4571 0.961 . S
H4586 C4571 0.961 . S
H4587 C4571 0.961 . S
H4588 C4572 0.931 . S
H4589 C4577 0.930 . S
H4590 C4578 0.956 . S
H4591 C4578 0.961 . S
H4592 C4578 0.961 . S
H4593 C4579 0.958 . S
H4594 C4579 0.961 . S
H4595 C4579 0.960 . S
C4596 C4597 1.391 . S
C4596 C4598 1.394 . S
C4596 H4612 0.931 . S
C4597 C4596 1.391 . S
C4597 C4601 1.376 . S
C4598 C4596 1.394 . S
C4598 C4599 1.369 . S
C4598 C4602 1.531 . S
C4599 C4598 1.369 . S
C4599 C4600 1.410 . S
C4599 C4607 1.503 . S
C4600 C4599 1.410 . S
C4600 C4601 1.392 . S
C4600 C4603 1.511 . S
C4601 C4597 1.376 . S
C4601 C4600 1.392 . S
C4601 H4613 0.929 . S
C4602 C4598 1.531 . S
C4602 H4614 0.960 . S
C4602 H4615 0.962 . S
C4602 H4616 0.960 . S
C4603 C4600 1.511 . S
C4603 H4617 0.961 . S
C4603 H4618 0.961 . S
C4603 H4619 0.961 . S
C4604 C4605 1.370 . S
C4604 C4606 1.363 . S
C4604 H4620 0.931 . S
C4605 C4604 1.370 . S
C4605 C4609 1.408 . S
C4606 C4604 1.363 . S
C4606 C4607 1.370 . S
C4606 C4610 1.524 . S
C4607 C4599 1.503 . S
C4607 C4606 1.370 . S
C4607 C4608 1.403 . S
C4608 C4607 1.403 . S
C4608 C4609 1.404 . S
C4608 C4611 1.539 . S
C4609 C4605 1.408 . S
C4609 C4608 1.404 . S
C4609 H4621 0.930 . S
C4610 C4606 1.524 . S
C4610 H4622 0.956 . S
C4610 H4623 0.961 . S
C4610 H4624 0.961 . S
C4611 C4608 1.539 . S
C4611 H4625 0.958 . S
C4611 H4626 0.961 . S
C4611 H4627 0.960 . S
H4612 C4596 0.931 . S
H4613 C4601 0.929 . S
H4614 C4602 0.960 . S
H4615 C4602 0.962 . S
H4616 C4602 0.960 . S
H4617 C4603 0.961 . S
H4618 C4603 0.961 . S
H4619 C4603 0.961 . S
H4620 C4604 0.931 . S
H4621 C4609 0.930 . S
H4622 C4610 0.956 . S
H4623 C4610 0.961 . S
H4624 C4610 0.961 . S
H4625 C4611 0.958 . S
H4626 C4611 0.961 . S
H4627 C4611 0.960 . S
C4628 C4629 1.391 . S
C4628 C4630 1.394 . S
C4628 H4644 0.931 . S
C4629 C4628 1.391 . S
C4629 C4633 1.376 . S
C4630 C4628 1.394 . S
C4630 C4631 1.369 . S
C4630 C4634 1.531 . S
C4631 C4630 1.369 . S
C4631 C4632 1.410 . S
C4631 C4639 1.503 . S
C4632 C4631 1.410 . S
C4632 C4633 1.392 . S
C4632 C4635 1.511 . S
C4633 C4629 1.376 . S
C4633 C4632 1.392 . S
C4633 H4645 0.929 . S
C4634 C4630 1.531 . S
C4634 H4646 0.960 . S
C4634 H4647 0.962 . S
C4634 H4648 0.960 . S
C4635 C4632 1.511 . S
C4635 H4649 0.961 . S
C4635 H4650 0.961 . S
C4635 H4651 0.961 . S
C4636 C4637 1.370 . S
C4636 C4638 1.363 . S
C4636 H4652 0.931 . S
C4637 C4636 1.370 . S
C4637 C4641 1.408 . S
C4638 C4636 1.363 . S
C4638 C4639 1.370 . S
C4638 C4642 1.524 . S
C4639 C4631 1.503 . S
C4639 C4638 1.370 . S
C4639 C4640 1.403 . S
C4640 C4639 1.403 . S
C4640 C4641 1.404 . S
C4640 C4643 1.539 . S
C4641 C4637 1.408 . S
C4641 C4640 1.404 . S
C4641 H4653 0.930 . S
C4642 C4638 1.524 . S
C4642 H4654 0.956 . S
C4642 H4655 0.961 . S
C4642 H4656 0.961 . S
C4643 C4640 1.539 . S
C4643 H4657 0.958 . S
C4643 H4658 0.961 . S
C4643 H4659 0.960 . S
H4644 C4628 0.931 . S
H4645 C4633 0.929 . S
H4646 C4634 0.960 . S
H4647 C4634 0.962 . S
H4648 C4634 0.960 . S
H4649 C4635 0.961 . S
H4650 C4635 0.961 . S
H4651 C4635 0.961 . S
H4652 C4636 0.931 . S
H4653 C4641 0.930 . S
H4654 C4642 0.956 . S
H4655 C4642 0.961 . S
H4656 C4642 0.961 . S
H4657 C4643 0.958 . S
H4658 C4643 0.961 . S
H4659 C4643 0.960 . S
C4660 C4661 1.391 . S
C4660 C4662 1.394 . S
C4660 H4676 0.931 . S
C4661 C4660 1.391 . S
C4661 C4665 1.376 . S
C4662 C4660 1.394 . S
C4662 C4663 1.369 . S
C4662 C4666 1.531 . S
C4663 C4662 1.369 . S
C4663 C4664 1.410 . S
C4663 C4671 1.503 . S
C4664 C4663 1.410 . S
C4664 C4665 1.392 . S
C4664 C4667 1.511 . S
C4665 C4661 1.376 . S
C4665 C4664 1.392 . S
C4665 H4677 0.929 . S
C4666 C4662 1.531 . S
C4666 H4678 0.960 . S
C4666 H4679 0.962 . S
C4666 H4680 0.960 . S
C4667 C4664 1.511 . S
C4667 H4681 0.961 . S
C4667 H4682 0.961 . S
C4667 H4683 0.961 . S
C4668 C4669 1.370 . S
C4668 C4670 1.363 . S
C4668 H4684 0.931 . S
C4669 C4668 1.370 . S
C4669 C4673 1.408 . S
C4670 C4668 1.363 . S
C4670 C4671 1.370 . S
C4670 C4674 1.524 . S
C4671 C4663 1.503 . S
C4671 C4670 1.370 . S
C4671 C4672 1.403 . S
C4672 C4671 1.403 . S
C4672 C4673 1.404 . S
C4672 C4675 1.539 . S
C4673 C4669 1.408 . S
C4673 C4672 1.404 . S
C4673 H4685 0.930 . S
C4674 C4670 1.524 . S
C4674 H4686 0.956 . S
C4674 H4687 0.961 . S
C4674 H4688 0.961 . S
C4675 C4672 1.539 . S
C4675 H4689 0.958 . S
C4675 H4690 0.961 . S
C4675 H4691 0.960 . S
H4676 C4660 0.931 . S
H4677 C4665 0.929 . S
H4678 C4666 0.960 . S
H4679 C4666 0.962 . S
H4680 C4666 0.960 . S
H4681 C4667 0.961 . S
H4682 C4667 0.961 . S
H4683 C4667 0.961 . S
H4684 C4668 0.931 . S
H4685 C4673 0.930 . S
H4686 C4674 0.956 . S
H4687 C4674 0.961 . S
H4688 C4674 0.961 . S
H4689 C4675 0.958 . S
H4690 C4675 0.961 . S
H4691 C4675 0.960 . S
C4692 C4693 1.391 . S
C4692 C4694 1.394 . S
C4692 H4708 0.931 . S
C4693 C4692 1.391 . S
C4693 C4697 1.376 . S
C4694 C4692 1.394 . S
C4694 C4695 1.369 . S
C4694 C4698 1.531 . S
C4695 C4694 1.369 . S
C4695 C4696 1.410 . S
C4695 C4703 1.503 . S
C4696 C4695 1.410 . S
C4696 C4697 1.392 . S
C4696 C4699 1.511 . S
C4697 C4693 1.376 . S
C4697 C4696 1.392 . S
C4697 H4709 0.929 . S
C4698 C4694 1.531 . S
C4698 H4710 0.960 . S
C4698 H4711 0.962 . S
C4698 H4712 0.960 . S
C4699 C4696 1.511 . S
C4699 H4713 0.961 . S
C4699 H4714 0.961 . S
C4699 H4715 0.961 . S
C4700 C4701 1.370 . S
C4700 C4702 1.363 . S
C4700 H4716 0.931 . S
C4701 C4700 1.370 . S
C4701 C4705 1.408 . S
C4702 C4700 1.363 . S
C4702 C4703 1.370 . S
C4702 C4706 1.524 . S
C4703 C4695 1.503 . S
C4703 C4702 1.370 . S
C4703 C4704 1.403 . S
C4704 C4703 1.403 . S
C4704 C4705 1.404 . S
C4704 C4707 1.539 . S
C4705 C4701 1.408 . S
C4705 C4704 1.404 . S
C4705 H4717 0.930 . S
C4706 C4702 1.524 . S
C4706 H4718 0.956 . S
C4706 H4719 0.961 . S
C4706 H4720 0.961 . S
C4707 C4704 1.539 . S
C4707 H4721 0.958 . S
C4707 H4722 0.961 . S
C4707 H4723 0.960 . S
H4708 C4692 0.931 . S
H4709 C4697 0.929 . S
H4710 C4698 0.960 . S
H4711 C4698 0.962 . S
H4712 C4698 0.960 . S
H4713 C4699 0.961 . S
H4714 C4699 0.961 . S
H4715 C4699 0.961 . S
H4716 C4700 0.931 . S
H4717 C4705 0.930 . S
H4718 C4706 0.956 . S
H4719 C4706 0.961 . S
H4720 C4706 0.961 . S
H4721 C4707 0.958 . S
H4722 C4707 0.961 . S
H4723 C4707 0.960 . S
C4724 C4725 1.391 . S
C4724 C4726 1.394 . S
C4724 H4740 0.931 . S
C4725 C4724 1.391 . S
C4725 C4729 1.376 . S
C4726 C4724 1.394 . S
C4726 C4727 1.369 . S
C4726 C4730 1.531 . S
C4727 C4726 1.369 . S
C4727 C4728 1.410 . S
C4727 C4735 1.503 . S
C4728 C4727 1.410 . S
C4728 C4729 1.392 . S
C4728 C4731 1.511 . S
C4729 C4725 1.376 . S
C4729 C4728 1.392 . S
C4729 H4741 0.929 . S
C4730 C4726 1.531 . S
C4730 H4742 0.960 . S
C4730 H4743 0.962 . S
C4730 H4744 0.960 . S
C4731 C4728 1.511 . S
C4731 H4745 0.961 . S
C4731 H4746 0.961 . S
C4731 H4747 0.961 . S
C4732 C4733 1.370 . S
C4732 C4734 1.363 . S
C4732 H4748 0.931 . S
C4733 C4732 1.370 . S
C4733 C4737 1.408 . S
C4734 C4732 1.363 . S
C4734 C4735 1.370 . S
C4734 C4738 1.524 . S
C4735 C4727 1.503 . S
C4735 C4734 1.370 . S
C4735 C4736 1.403 . S
C4736 C4735 1.403 . S
C4736 C4737 1.404 . S
C4736 C4739 1.539 . S
C4737 C4733 1.408 . S
C4737 C4736 1.404 . S
C4737 H4749 0.930 . S
C4738 C4734 1.524 . S
C4738 H4750 0.956 . S
C4738 H4751 0.961 . S
C4738 H4752 0.961 . S
C4739 C4736 1.539 . S
C4739 H4753 0.958 . S
C4739 H4754 0.961 . S
C4739 H4755 0.960 . S
H4740 C4724 0.931 . S
H4741 C4729 0.929 . S
H4742 C4730 0.960 . S
H4743 C4730 0.962 . S
H4744 C4730 0.960 . S
H4745 C4731 0.961 . S
H4746 C4731 0.961 . S
H4747 C4731 0.961 . S
H4748 C4732 0.931 . S
H4749 C4737 0.930 . S
H4750 C4738 0.956 . S
H4751 C4738 0.961 . S
H4752 C4738 0.961 . S
H4753 C4739 0.958 . S
H4754 C4739 0.961 . S
H4755 C4739 0.960 . S
C4756 C4757 1.391 . S
C4756 C4758 1.394 . S
C4756 H4772 0.931 . S
C4757 C4756 1.391 . S
C4757 C4761 1.376 . S
C4758 C4756 1.394 . S
C4758 C4759 1.369 . S
C4758 C4762 1.531 . S
C4759 C4758 1.369 . S
C4759 C4760 1.410 . S
C4759 C4767 1.503 . S
C4760 C4759 1.410 . S
C4760 C4761 1.392 . S
C4760 C4763 1.511 . S
C4761 C4757 1.376 . S
C4761 C4760 1.392 . S
C4761 H4773 0.929 . S
C4762 C4758 1.531 . S
C4762 H4774 0.960 . S
C4762 H4775 0.962 . S
C4762 H4776 0.960 . S
C4763 C4760 1.511 . S
C4763 H4777 0.961 . S
C4763 H4778 0.961 . S
C4763 H4779 0.961 . S
C4764 C4765 1.370 . S
C4764 C4766 1.363 . S
C4764 H4780 0.931 . S
C4765 C4764 1.370 . S
C4765 C4769 1.408 . S
C4766 C4764 1.363 . S
C4766 C4767 1.370 . S
C4766 C4770 1.524 . S
C4767 C4759 1.503 . S
C4767 C4766 1.370 . S
C4767 C4768 1.403 . S
C4768 C4767 1.403 . S
C4768 C4769 1.404 . S
C4768 C4771 1.539 . S
C4769 C4765 1.408 . S
C4769 C4768 1.404 . S
C4769 H4781 0.930 . S
C4770 C4766 1.524 . S
C4770 H4782 0.956 . S
C4770 H4783 0.961 . S
C4770 H4784 0.961 . S
C4771 C4768 1.539 . S
C4771 H4785 0.958 . S
C4771 H4786 0.961 . S
C4771 H4787 0.960 . S
H4772 C4756 0.931 . S
H4773 C4761 0.929 . S
H4774 C4762 0.960 . S
H4775 C4762 0.962 . S
H4776 C4762 0.960 . S
H4777 C4763 0.961 . S
H4778 C4763 0.961 . S
H4779 C4763 0.961 . S
H4780 C4764 0.931 . S
H4781 C4769 0.930 . S
H4782 C4770 0.956 . S
H4783 C4770 0.961 . S
H4784 C4770 0.961 . S
H4785 C4771 0.958 . S
H4786 C4771 0.961 . S
H4787 C4771 0.960 . S
C4788 C4789 1.391 . S
C4788 C4790 1.394 . S
C4788 H4804 0.931 . S
C4789 C4788 1.391 . S
C4789 C4793 1.376 . S
C4790 C4788 1.394 . S
C4790 C4791 1.369 . S
C4790 C4794 1.531 . S
C4791 C4790 1.369 . S
C4791 C4792 1.410 . S
C4791 C4799 1.503 . S
C4792 C4791 1.410 . S
C4792 C4793 1.392 . S
C4792 C4795 1.511 . S
C4793 C4789 1.376 . S
C4793 C4792 1.392 . S
C4793 H4805 0.929 . S
C4794 C4790 1.531 . S
C4794 H4806 0.960 . S
C4794 H4807 0.962 . S
C4794 H4808 0.960 . S
C4795 C4792 1.511 . S
C4795 H4809 0.961 . S
C4795 H4810 0.961 . S
C4795 H4811 0.961 . S
C4796 C4797 1.370 . S
C4796 C4798 1.363 . S
C4796 H4812 0.931 . S
C4797 C4796 1.370 . S
C4797 C4801 1.408 . S
C4798 C4796 1.363 . S
C4798 C4799 1.370 . S
C4798 C4802 1.524 . S
C4799 C4791 1.503 . S
C4799 C4798 1.370 . S
C4799 C4800 1.403 . S
C4800 C4799 1.403 . S
C4800 C4801 1.404 . S
C4800 C4803 1.539 . S
C4801 C4797 1.408 . S
C4801 C4800 1.404 . S
C4801 H4813 0.930 . S
C4802 C4798 1.524 . S
C4802 H4814 0.956 . S
C4802 H4815 0.961 . S
C4802 H4816 0.961 . S
C4803 C4800 1.539 . S
C4803 H4817 0.958 . S
C4803 H4818 0.961 . S
C4803 H4819 0.960 . S
H4804 C4788 0.931 . S
H4805 C4793 0.929 . S
H4806 C4794 0.960 . S
H4807 C4794 0.962 . S
H4808 C4794 0.960 . S
H4809 C4795 0.961 . S
H4810 C4795 0.961 . S
H4811 C4795 0.961 . S
H4812 C4796 0.931 . S
H4813 C4801 0.930 . S
H4814 C4802 0.956 . S
H4815 C4802 0.961 . S
H4816 C4802 0.961 . S
H4817 C4803 0.958 . S
H4818 C4803 0.961 . S
H4819 C4803 0.960 . S
C4820 C4821 1.391 . S
C4820 C4822 1.394 . S
C4820 H4836 0.931 . S
C4821 C4820 1.391 . S
C4821 C4825 1.376 . S
C4822 C4820 1.394 . S
C4822 C4823 1.369 . S
C4822 C4826 1.531 . S
C4823 C4822 1.369 . S
C4823 C4824 1.410 . S
C4823 C4831 1.503 . S
C4824 C4823 1.410 . S
C4824 C4825 1.392 . S
C4824 C4827 1.511 . S
C4825 C4821 1.376 . S
C4825 C4824 1.392 . S
C4825 H4837 0.929 . S
C4826 C4822 1.531 . S
C4826 H4838 0.960 . S
C4826 H4839 0.962 . S
C4826 H4840 0.960 . S
C4827 C4824 1.511 . S
C4827 H4841 0.961 . S
C4827 H4842 0.961 . S
C4827 H4843 0.961 . S
C4828 C4829 1.370 . S
C4828 C4830 1.363 . S
C4828 H4844 0.931 . S
C4829 C4828 1.370 . S
C4829 C4833 1.408 . S
C4830 C4828 1.363 . S
C4830 C4831 1.370 . S
C4830 C4834 1.524 . S
C4831 C4823 1.503 . S
C4831 C4830 1.370 . S
C4831 C4832 1.403 . S
C4832 C4831 1.403 . S
C4832 C4833 1.404 . S
C4832 C4835 1.539 . S
C4833 C4829 1.408 . S
C4833 C4832 1.404 . S
C4833 H4845 0.930 . S
C4834 C4830 1.524 . S
C4834 H4846 0.956 . S
C4834 H4847 0.961 . S
C4834 H4848 0.961 . S
C4835 C4832 1.539 . S
C4835 H4849 0.958 . S
C4835 H4850 0.961 . S
C4835 H4851 0.960 . S
H4836 C4820 0.931 . S
H4837 C4825 0.929 . S
H4838 C4826 0.960 . S
H4839 C4826 0.962 . S
H4840 C4826 0.960 . S
H4841 C4827 0.961 . S
H4842 C4827 0.961 . S
H4843 C4827 0.961 . S
H4844 C4828 0.931 . S
H4845 C4833 0.930 . S
H4846 C4834 0.956 . S
H4847 C4834 0.961 . S
H4848 C4834 0.961 . S
H4849 C4835 0.958 . S
H4850 C4835 0.961 . S
H4851 C4835 0.960 . S
C4852 C4853 1.391 . S
C4852 C4854 1.394 . S
C4852 H4868 0.931 . S
C4853 C4852 1.391 . S
C4853 C4857 1.376 . S
C4854 C4852 1.394 . S
C4854 C4855 1.369 . S
C4854 C4858 1.531 . S
C4855 C4854 1.369 . S
C4855 C4856 1.410 . S
C4855 C4863 1.503 . S
C4856 C4855 1.410 . S
C4856 C4857 1.392 . S
C4856 C4859 1.511 . S
C4857 C4853 1.376 . S
C4857 C4856 1.392 . S
C4857 H4869 0.929 . S
C4858 C4854 1.531 . S
C4858 H4870 0.960 . S
C4858 H4871 0.962 . S
C4858 H4872 0.960 . S
C4859 C4856 1.511 . S
C4859 H4873 0.961 . S
C4859 H4874 0.961 . S
C4859 H4875 0.961 . S
C4860 C4861 1.370 . S
C4860 C4862 1.363 . S
C4860 H4876 0.931 . S
C4861 C4860 1.370 . S
C4861 C4865 1.408 . S
C4862 C4860 1.363 . S
C4862 C4863 1.370 . S
C4862 C4866 1.524 . S
C4863 C4855 1.503 . S
C4863 C4862 1.370 . S
C4863 C4864 1.403 . S
C4864 C4863 1.403 . S
C4864 C4865 1.404 . S
C4864 C4867 1.539 . S
C4865 C4861 1.408 . S
C4865 C4864 1.404 . S
C4865 H4877 0.930 . S
C4866 C4862 1.524 . S
C4866 H4878 0.956 . S
C4866 H4879 0.961 . S
C4866 H4880 0.961 . S
C4867 C4864 1.539 . S
C4867 H4881 0.958 . S
C4867 H4882 0.961 . S
C4867 H4883 0.960 . S
H4868 C4852 0.931 . S
H4869 C4857 0.929 . S
H4870 C4858 0.960 . S
H4871 C4858 0.962 . S
H4872 C4858 0.960 . S
H4873 C4859 0.961 . S
H4874 C4859 0.961 . S
H4875 C4859 0.961 . S
H4876 C4860 0.931 . S
H4877 C4865 0.930 . S
H4878 C4866 0.956 . S
H4879 C4866 0.961 . S
H4880 C4866 0.961 . S
H4881 C4867 0.958 . S
H4882 C4867 0.961 . S
H4883 C4867 0.960 . S
C4884 C4885 1.391 . S
C4884 C4886 1.394 . S
C4884 H4900 0.931 . S
C4885 C4884 1.391 . S
C4885 C4889 1.376 . S
C4886 C4884 1.394 . S
C4886 C4887 1.369 . S
C4886 C4890 1.531 . S
C4887 C4886 1.369 . S
C4887 C4888 1.410 . S
C4887 C4895 1.503 . S
C4888 C4887 1.410 . S
C4888 C4889 1.392 . S
C4888 C4891 1.511 . S
C4889 C4885 1.376 . S
C4889 C4888 1.392 . S
C4889 H4901 0.929 . S
C4890 C4886 1.531 . S
C4890 H4902 0.960 . S
C4890 H4903 0.962 . S
C4890 H4904 0.960 . S
C4891 C4888 1.511 . S
C4891 H4905 0.961 . S
C4891 H4906 0.961 . S
C4891 H4907 0.961 . S
C4892 C4893 1.370 . S
C4892 C4894 1.363 . S
C4892 H4908 0.931 . S
C4893 C4892 1.370 . S
C4893 C4897 1.408 . S
C4894 C4892 1.363 . S
C4894 C4895 1.370 . S
C4894 C4898 1.524 . S
C4895 C4887 1.503 . S
C4895 C4894 1.370 . S
C4895 C4896 1.403 . S
C4896 C4895 1.403 . S
C4896 C4897 1.404 . S
C4896 C4899 1.539 . S
C4897 C4893 1.408 . S
C4897 C4896 1.404 . S
C4897 H4909 0.930 . S
C4898 C4894 1.524 . S
C4898 H4910 0.956 . S
C4898 H4911 0.961 . S
C4898 H4912 0.961 . S
C4899 C4896 1.539 . S
C4899 H4913 0.958 . S
C4899 H4914 0.961 . S
C4899 H4915 0.960 . S
H4900 C4884 0.931 . S
H4901 C4889 0.929 . S
H4902 C4890 0.960 . S
H4903 C4890 0.962 . S
H4904 C4890 0.960 . S
H4905 C4891 0.961 . S
H4906 C4891 0.961 . S
H4907 C4891 0.961 . S
H4908 C4892 0.931 . S
H4909 C4897 0.930 . S
H4910 C4898 0.956 . S
H4911 C4898 0.961 . S
H4912 C4898 0.961 . S
H4913 C4899 0.958 . S
H4914 C4899 0.961 . S
H4915 C4899 0.960 . S
C4916 C4917 1.391 . S
C4916 C4918 1.394 . S
C4916 H4932 0.931 . S
C4917 C4916 1.391 . S
C4917 C4921 1.376 . S
C4918 C4916 1.394 . S
C4918 C4919 1.369 . S
C4918 C4922 1.531 . S
C4919 C4918 1.369 . S
C4919 C4920 1.410 . S
C4919 C4927 1.503 . S
C4920 C4919 1.410 . S
C4920 C4921 1.392 . S
C4920 C4923 1.511 . S
C4921 C4917 1.376 . S
C4921 C4920 1.392 . S
C4921 H4933 0.929 . S
C4922 C4918 1.531 . S
C4922 H4934 0.960 . S
C4922 H4935 0.962 . S
C4922 H4936 0.960 . S
C4923 C4920 1.511 . S
C4923 H4937 0.961 . S
C4923 H4938 0.961 . S
C4923 H4939 0.961 . S
C4924 C4925 1.370 . S
C4924 C4926 1.363 . S
C4924 H4940 0.931 . S
C4925 C4924 1.370 . S
C4925 C4929 1.408 . S
C4926 C4924 1.363 . S
C4926 C4927 1.370 . S
C4926 C4930 1.524 . S
C4927 C4919 1.503 . S
C4927 C4926 1.370 . S
C4927 C4928 1.403 . S
C4928 C4927 1.403 . S
C4928 C4929 1.404 . S
C4928 C4931 1.539 . S
C4929 C4925 1.408 . S
C4929 C4928 1.404 . S
C4929 H4941 0.930 . S
C4930 C4926 1.524 . S
C4930 H4942 0.956 . S
C4930 H4943 0.961 . S
C4930 H4944 0.961 . S
C4931 C4928 1.539 . S
C4931 H4945 0.958 . S
C4931 H4946 0.961 . S
C4931 H4947 0.960 . S
H4932 C4916 0.931 . S
H4933 C4921 0.929 . S
H4934 C4922 0.960 . S
H4935 C4922 0.962 . S
H4936 C4922 0.960 . S
H4937 C4923 0.961 . S
H4938 C4923 0.961 . S
H4939 C4923 0.961 . S
H4940 C4924 0.931 . S
H4941 C4929 0.930 . S
H4942 C4930 0.956 . S
H4943 C4930 0.961 . S
H4944 C4930 0.961 . S
H4945 C4931 0.958 . S
H4946 C4931 0.961 . S
H4947 C4931 0.960 . S
C4948 C4949 1.391 . S
C4948 C4950 1.394 . S
C4948 H4964 0.931 . S
C4949 C4948 1.391 . S
C4949 C4953 1.376 . S
C4950 C4948 1.394 . S
C4950 C4951 1.369 . S
C4950 C4954 1.531 . S
C4951 C4950 1.369 . S
C4951 C4952 1.410 . S
C4951 C4959 1.503 . S
C4952 C4951 1.410 . S
C4952 C4953 1.392 . S
C4952 C4955 1.511 . S
C4953 C4949 1.376 . S
C4953 C4952 1.392 . S
C4953 H4965 0.929 . S
C4954 C4950 1.531 . S
C4954 H4966 0.960 . S
C4954 H4967 0.962 . S
C4954 H4968 0.960 . S
C4955 C4952 1.511 . S
C4955 H4969 0.961 . S
C4955 H4970 0.961 . S
C4955 H4971 0.961 . S
C4956 C4957 1.370 . S
C4956 C4958 1.363 . S
C4956 H4972 0.931 . S
C4957 C4956 1.370 . S
C4957 C4961 1.408 . S
C4958 C4956 1.363 . S
C4958 C4959 1.370 . S
C4958 C4962 1.524 . S
C4959 C4951 1.503 . S
C4959 C4958 1.370 . S
C4959 C4960 1.403 . S
C4960 C4959 1.403 . S
C4960 C4961 1.404 . S
C4960 C4963 1.539 . S
C4961 C4957 1.408 . S
C4961 C4960 1.404 . S
C4961 H4973 0.930 . S
C4962 C4958 1.524 . S
C4962 H4974 0.956 . S
C4962 H4975 0.961 . S
C4962 H4976 0.961 . S
C4963 C4960 1.539 . S
C4963 H4977 0.958 . S
C4963 H4978 0.961 . S
C4963 H4979 0.960 . S
H4964 C4948 0.931 . S
H4965 C4953 0.929 . S
H4966 C4954 0.960 . S
H4967 C4954 0.962 . S
H4968 C4954 0.960 . S
H4969 C4955 0.961 . S
H4970 C4955 0.961 . S
H4971 C4955 0.961 . S
H4972 C4956 0.931 . S
H4973 C4961 0.930 . S
H4974 C4962 0.956 . S
H4975 C4962 0.961 . S
H4976 C4962 0.961 . S
H4977 C4963 0.958 . S
H4978 C4963 0.961 . S
H4979 C4963 0.960 . S
C4980 C4981 1.391 . S
C4980 C4982 1.394 . S
C4980 H4996 0.931 . S
C4981 C4980 1.391 . S
C4981 C4985 1.376 . S
C4982 C4980 1.394 . S
C4982 C4983 1.369 . S
C4982 C4986 1.531 . S
C4983 C4982 1.369 . S
C4983 C4984 1.410 . S
C4983 C4991 1.503 . S
C4984 C4983 1.410 . S
C4984 C4985 1.392 . S
C4984 C4987 1.511 . S
C4985 C4981 1.376 . S
C4985 C4984 1.392 . S
C4985 H4997 0.929 . S
C4986 C4982 1.531 . S
C4986 H4998 0.960 . S
C4986 H4999 0.962 . S
C4986 H5000 0.960 . S
C4987 C4984 1.511 . S
C4987 H5001 0.961 . S
C4987 H5002 0.961 . S
C4987 H5003 0.961 . S
C4988 C4989 1.370 . S
C4988 C4990 1.363 . S
C4988 H5004 0.931 . S
C4989 C4988 1.370 . S
C4989 C4993 1.408 . S
C4990 C4988 1.363 . S
C4990 C4991 1.370 . S
C4990 C4994 1.524 . S
C4991 C4983 1.503 . S
C4991 C4990 1.370 . S
C4991 C4992 1.403 . S
C4992 C4991 1.403 . S
C4992 C4993 1.404 . S
C4992 C4995 1.539 . S
C4993 C4989 1.408 . S
C4993 C4992 1.404 . S
C4993 H5005 0.930 . S
C4994 C4990 1.524 . S
C4994 H5006 0.956 . S
C4994 H5007 0.961 . S
C4994 H5008 0.961 . S
C4995 C4992 1.539 . S
C4995 H5009 0.958 . S
C4995 H5010 0.961 . S
C4995 H5011 0.960 . S
H4996 C4980 0.931 . S
H4997 C4985 0.929 . S
H4998 C4986 0.960 . S
H4999 C4986 0.962 . S
H5000 C4986 0.960 . S
H5001 C4987 0.961 . S
H5002 C4987 0.961 . S
H5003 C4987 0.961 . S
H5004 C4988 0.931 . S
H5005 C4993 0.930 . S
H5006 C4994 0.956 . S
H5007 C4994 0.961 . S
H5008 C4994 0.961 . S
H5009 C4995 0.958 . S
H5010 C4995 0.961 . S
H5011 C4995 0.960 . S
C5012 C5013 1.391 . S
C5012 C5014 1.394 . S
C5012 H5028 0.931 . S
C5013 C5012 1.391 . S
C5013 C5017 1.376 . S
C5014 C5012 1.394 . S
C5014 C5015 1.369 . S
C5014 C5018 1.531 . S
C5015 C5014 1.369 . S
C5015 C5016 1.410 . S
C5015 C5023 1.503 . S
C5016 C5015 1.410 . S
C5016 C5017 1.392 . S
C5016 C5019 1.511 . S
C5017 C5013 1.376 . S
C5017 C5016 1.392 . S
C5017 H5029 0.929 . S
C5018 C5014 1.531 . S
C5018 H5030 0.960 . S
C5018 H5031 0.962 . S
C5018 H5032 0.960 . S
C5019 C5016 1.511 . S
C5019 H5033 0.961 . S
C5019 H5034 0.961 . S
C5019 H5035 0.961 . S
C5020 C5021 1.370 . S
C5020 C5022 1.363 . S
C5020 H5036 0.931 . S
C5021 C5020 1.370 . S
C5021 C5025 1.408 . S
C5022 C5020 1.363 . S
C5022 C5023 1.370 . S
C5022 C5026 1.524 . S
C5023 C5015 1.503 . S
C5023 C5022 1.370 . S
C5023 C5024 1.403 . S
C5024 C5023 1.403 . S
C5024 C5025 1.404 . S
C5024 C5027 1.539 . S
C5025 C5021 1.408 . S
C5025 C5024 1.404 . S
C5025 H5037 0.930 . S
C5026 C5022 1.524 . S
C5026 H5038 0.956 . S
C5026 H5039 0.961 . S
C5026 H5040 0.961 . S
C5027 C5024 1.539 . S
C5027 H5041 0.958 . S
C5027 H5042 0.961 . S
C5027 H5043 0.960 . S
H5028 C5012 0.931 . S
H5029 C5017 0.929 . S
H5030 C5018 0.960 . S
H5031 C5018 0.962 . S
H5032 C5018 0.960 . S
H5033 C5019 0.961 . S
H5034 C5019 0.961 . S
H5035 C5019 0.961 . S
H5036 C5020 0.931 . S
H5037 C5025 0.930 . S
H5038 C5026 0.956 . S
H5039 C5026 0.961 . S
H5040 C5026 0.961 . S
H5041 C5027 0.958 . S
H5042 C5027 0.961 . S
H5043 C5027 0.960 . S
C5044 C5045 1.391 . S
C5044 C5046 1.394 . S
C5044 H5060 0.931 . S
C5045 C5044 1.391 . S
C5045 C5049 1.376 . S
C5046 C5044 1.394 . S
C5046 C5047 1.369 . S
C5046 C5050 1.531 . S
C5047 C5046 1.369 . S
C5047 C5048 1.410 . S
C5047 C5055 1.503 . S
C5048 C5047 1.410 . S
C5048 C5049 1.392 . S
C5048 C5051 1.511 . S
C5049 C5045 1.376 . S
C5049 C5048 1.392 . S
C5049 H5061 0.929 . S
C5050 C5046 1.531 . S
C5050 H5062 0.960 . S
C5050 H5063 0.962 . S
C5050 H5064 0.960 . S
C5051 C5048 1.511 . S
C5051 H5065 0.961 . S
C5051 H5066 0.961 . S
C5051 H5067 0.961 . S
C5052 C5053 1.370 . S
C5052 C5054 1.363 . S
C5052 H5068 0.931 . S
C5053 C5052 1.370 . S
C5053 C5057 1.408 . S
C5054 C5052 1.363 . S
C5054 C5055 1.370 . S
C5054 C5058 1.524 . S
C5055 C5047 1.503 . S
C5055 C5054 1.370 . S
C5055 C5056 1.403 . S
C5056 C5055 1.403 . S
C5056 C5057 1.404 . S
C5056 C5059 1.539 . S
C5057 C5053 1.408 . S
C5057 C5056 1.404 . S
C5057 H5069 0.930 . S
C5058 C5054 1.524 . S
C5058 H5070 0.956 . S
C5058 H5071 0.961 . S
C5058 H5072 0.961 . S
C5059 C5056 1.539 . S
C5059 H5073 0.958 . S
C5059 H5074 0.961 . S
C5059 H5075 0.960 . S
H5060 C5044 0.931 . S
H5061 C5049 0.929 . S
H5062 C5050 0.960 . S
H5063 C5050 0.962 . S
H5064 C5050 0.960 . S
H5065 C5051 0.961 . S
H5066 C5051 0.961 . S
H5067 C5051 0.961 . S
H5068 C5052 0.931 . S
H5069 C5057 0.930 . S
H5070 C5058 0.956 . S
H5071 C5058 0.961 . S
H5072 C5058 0.961 . S
H5073 C5059 0.958 . S
H5074 C5059 0.961 . S
H5075 C5059 0.960 . S
C5076 C5077 1.391 . S
C5076 C5078 1.394 . S
C5076 H5092 0.931 . S
C5077 C5076 1.391 . S
C5077 C5081 1.376 . S
C5078 C5076 1.394 . S
C5078 C5079 1.369 . S
C5078 C5082 1.531 . S
C5079 C5078 1.369 . S
C5079 C5080 1.410 . S
C5079 C5087 1.503 . S
C5080 C5079 1.410 . S
C5080 C5081 1.392 . S
C5080 C5083 1.511 . S
C5081 C5077 1.376 . S
C5081 C5080 1.392 . S
C5081 H5093 0.929 . S
C5082 C5078 1.531 . S
C5082 H5094 0.960 . S
C5082 H5095 0.962 . S
C5082 H5096 0.960 . S
C5083 C5080 1.511 . S
C5083 H5097 0.961 . S
C5083 H5098 0.961 . S
C5083 H5099 0.961 . S
C5084 C5085 1.370 . S
C5084 C5086 1.363 . S
C5084 H5100 0.931 . S
C5085 C5084 1.370 . S
C5085 C5089 1.408 . S
C5086 C5084 1.363 . S
C5086 C5087 1.370 . S
C5086 C5090 1.524 . S
C5087 C5079 1.503 . S
C5087 C5086 1.370 . S
C5087 C5088 1.403 . S
C5088 C5087 1.403 . S
C5088 C5089 1.404 . S
C5088 C5091 1.539 . S
C5089 C5085 1.408 . S
C5089 C5088 1.404 . S
C5089 H5101 0.930 . S
C5090 C5086 1.524 . S
C5090 H5102 0.956 . S
C5090 H5103 0.961 . S
C5090 H5104 0.961 . S
C5091 C5088 1.539 . S
C5091 H5105 0.958 . S
C5091 H5106 0.961 . S
C5091 H5107 0.960 . S
H5092 C5076 0.931 . S
H5093 C5081 0.929 . S
H5094 C5082 0.960 . S
H5095 C5082 0.962 . S
H5096 C5082 0.960 . S
H5097 C5083 0.961 . S
H5098 C5083 0.961 . S
H5099 C5083 0.961 . S
H5100 C5084 0.931 . S
H5101 C5089 0.930 . S
H5102 C5090 0.956 . S
H5103 C5090 0.961 . S
H5104 C5090 0.961 . S
H5105 C5091 0.958 . S
H5106 C5091 0.961 . S
H5107 C5091 0.960 . S
C5108 C5109 1.391 . S
C5108 C5110 1.394 . S
C5108 H5124 0.931 . S
C5109 C5108 1.391 . S
C5109 C5113 1.376 . S
C5110 C5108 1.394 . S
C5110 C5111 1.369 . S
C5110 C5114 1.531 . S
C5111 C5110 1.369 . S
C5111 C5112 1.410 . S
C5111 C5119 1.503 . S
C5112 C5111 1.410 . S
C5112 C5113 1.392 . S
C5112 C5115 1.511 . S
C5113 C5109 1.376 . S
C5113 C5112 1.392 . S
C5113 H5125 0.929 . S
C5114 C5110 1.531 . S
C5114 H5126 0.960 . S
C5114 H5127 0.962 . S
C5114 H5128 0.960 . S
C5115 C5112 1.511 . S
C5115 H5129 0.961 . S
C5115 H5130 0.961 . S
C5115 H5131 0.961 . S
C5116 C5117 1.370 . S
C5116 C5118 1.363 . S
C5116 H5132 0.931 . S
C5117 C5116 1.370 . S
C5117 C5121 1.408 . S
C5118 C5116 1.363 . S
C5118 C5119 1.370 . S
C5118 C5122 1.524 . S
C5119 C5111 1.503 . S
C5119 C5118 1.370 . S
C5119 C5120 1.403 . S
C5120 C5119 1.403 . S
C5120 C5121 1.404 . S
C5120 C5123 1.539 . S
C5121 C5117 1.408 . S
C5121 C5120 1.404 . S
C5121 H5133 0.930 . S
C5122 C5118 1.524 . S
C5122 H5134 0.956 . S
C5122 H5135 0.961 . S
C5122 H5136 0.961 . S
C5123 C5120 1.539 . S
C5123 H5137 0.958 . S
C5123 H5138 0.961 . S
C5123 H5139 0.960 . S
H5124 C5108 0.931 . S
H5125 C5113 0.929 . S
H5126 C5114 0.960 . S
H5127 C5114 0.962 . S
H5128 C5114 0.960 . S
H5129 C5115 0.961 . S
H5130 C5115 0.961 . S
H5131 C5115 0.961 . S
H5132 C5116 0.931 . S
H5133 C5121 0.930 . S
H5134 C5122 0.956 . S
H5135 C5122 0.961 . S
H5136 C5122 0.961 . S
H5137 C5123 0.958 . S
H5138 C5123 0.961 . S
H5139 C5123 0.960 . S
C5140 C5141 1.391 . S
C5140 C5142 1.394 . S
C5140 H5156 0.931 . S
C5141 C5140 1.391 . S
C5141 C5145 1.376 . S
C5142 C5140 1.394 . S
C5142 C5143 1.369 . S
C5142 C5146 1.531 . S
C5143 C5142 1.369 . S
C5143 C5144 1.410 . S
C5143 C5151 1.503 . S
C5144 C5143 1.410 . S
C5144 C5145 1.392 . S
C5144 C5147 1.511 . S
C5145 C5141 1.376 . S
C5145 C5144 1.392 . S
C5145 H5157 0.929 . S
C5146 C5142 1.531 . S
C5146 H5158 0.960 . S
C5146 H5159 0.962 . S
C5146 H5160 0.960 . S
C5147 C5144 1.511 . S
C5147 H5161 0.961 . S
C5147 H5162 0.961 . S
C5147 H5163 0.961 . S
C5148 C5149 1.370 . S
C5148 C5150 1.363 . S
C5148 H5164 0.931 . S
C5149 C5148 1.370 . S
C5149 C5153 1.408 . S
C5150 C5148 1.363 . S
C5150 C5151 1.370 . S
C5150 C5154 1.524 . S
C5151 C5143 1.503 . S
C5151 C5150 1.370 . S
C5151 C5152 1.403 . S
C5152 C5151 1.403 . S
C5152 C5153 1.404 . S
C5152 C5155 1.539 . S
C5153 C5149 1.408 . S
C5153 C5152 1.404 . S
C5153 H5165 0.930 . S
C5154 C5150 1.524 . S
C5154 H5166 0.956 . S
C5154 H5167 0.961 . S
C5154 H5168 0.961 . S
C5155 C5152 1.539 . S
C5155 H5169 0.958 . S
C5155 H5170 0.961 . S
C5155 H5171 0.960 . S
H5156 C5140 0.931 . S
H5157 C5145 0.929 . S
H5158 C5146 0.960 . S
H5159 C5146 0.962 . S
H5160 C5146 0.960 . S
H5161 C5147 0.961 . S
H5162 C5147 0.961 . S
H5163 C5147 0.961 . S
H5164 C5148 0.931 . S
H5165 C5153 0.930 . S
H5166 C5154 0.956 . S
H5167 C5154 0.961 . S
H5168 C5154 0.961 . S
H5169 C5155 0.958 . S
H5170 C5155 0.961 . S
H5171 C5155 0.960 . S
C5172 C5173 1.391 . S
C5172 C5174 1.394 . S
C5172 H5188 0.931 . S
C5173 C5172 1.391 . S
C5173 C5177 1.376 . S
C5174 C5172 1.394 . S
C5174 C5175 1.369 . S
C5174 C5178 1.531 . S
C5175 C5174 1.369 . S
C5175 C5176 1.410 . S
C5175 C5183 1.503 . S
C5176 C5175 1.410 . S
C5176 C5177 1.392 . S
C5176 C5179 1.511 . S
C5177 C5173 1.376 . S
C5177 C5176 1.392 . S
C5177 H5189 0.929 . S
C5178 C5174 1.531 . S
C5178 H5190 0.960 . S
C5178 H5191 0.962 . S
C5178 H5192 0.960 . S
C5179 C5176 1.511 . S
C5179 H5193 0.961 . S
C5179 H5194 0.961 . S
C5179 H5195 0.961 . S
C5180 C5181 1.370 . S
C5180 C5182 1.363 . S
C5180 H5196 0.931 . S
C5181 C5180 1.370 . S
C5181 C5185 1.408 . S
C5182 C5180 1.363 . S
C5182 C5183 1.370 . S
C5182 C5186 1.524 . S
C5183 C5175 1.503 . S
C5183 C5182 1.370 . S
C5183 C5184 1.403 . S
C5184 C5183 1.403 . S
C5184 C5185 1.404 . S
C5184 C5187 1.539 . S
C5185 C5181 1.408 . S
C5185 C5184 1.404 . S
C5185 H5197 0.930 . S
C5186 C5182 1.524 . S
C5186 H5198 0.956 . S
C5186 H5199 0.961 . S
C5186 H5200 0.961 . S
C5187 C5184 1.539 . S
C5187 H5201 0.958 . S
C5187 H5202 0.961 . S
C5187 H5203 0.960 . S
H5188 C5172 0.931 . S
H5189 C5177 0.929 . S
H5190 C5178 0.960 . S
H5191 C5178 0.962 . S
H5192 C5178 0.960 . S
H5193 C5179 0.961 . S
H5194 C5179 0.961 . S
H5195 C5179 0.961 . S
H5196 C5180 0.931 . S
H5197 C5185 0.930 . S
H5198 C5186 0.956 . S
H5199 C5186 0.961 . S
H5200 C5186 0.961 . S
H5201 C5187 0.958 . S
H5202 C5187 0.961 . S
H5203 C5187 0.960 . S
C5204 C5205 1.391 . S
C5204 C5206 1.394 . S
C5204 H5220 0.931 . S
C5205 C5204 1.391 . S
C5205 C5209 1.376 . S
C5206 C5204 1.394 . S
C5206 C5207 1.369 . S
C5206 C5210 1.531 . S
C5207 C5206 1.369 . S
C5207 C5208 1.410 . S
C5207 C5215 1.503 . S
C5208 C5207 1.410 . S
C5208 C5209 1.392 . S
C5208 C5211 1.511 . S
C5209 C5205 1.376 . S
C5209 C5208 1.392 . S
C5209 H5221 0.929 . S
C5210 C5206 1.531 . S
C5210 H5222 0.960 . S
C5210 H5223 0.962 . S
C5210 H5224 0.960 . S
C5211 C5208 1.511 . S
C5211 H5225 0.961 . S
C5211 H5226 0.961 . S
C5211 H5227 0.961 . S
C5212 C5213 1.370 . S
C5212 C5214 1.363 . S
C5212 H5228 0.931 . S
C5213 C5212 1.370 . S
C5213 C5217 1.408 . S
C5214 C5212 1.363 . S
C5214 C5215 1.370 . S
C5214 C5218 1.524 . S
C5215 C5207 1.503 . S
C5215 C5214 1.370 . S
C5215 C5216 1.403 . S
C5216 C5215 1.403 . S
C5216 C5217 1.404 . S
C5216 C5219 1.539 . S
C5217 C5213 1.408 . S
C5217 C5216 1.404 . S
C5217 H5229 0.930 . S
C5218 C5214 1.524 . S
C5218 H5230 0.956 . S
C5218 H5231 0.961 . S
C5218 H5232 0.961 . S
C5219 C5216 1.539 . S
C5219 H5233 0.958 . S
C5219 H5234 0.961 . S
C5219 H5235 0.960 . S
H5220 C5204 0.931 . S
H5221 C5209 0.929 . S
H5222 C5210 0.960 . S
H5223 C5210 0.962 . S
H5224 C5210 0.960 . S
H5225 C5211 0.961 . S
H5226 C5211 0.961 . S
H5227 C5211 0.961 . S
H5228 C5212 0.931 . S
H5229 C5217 0.930 . S
H5230 C5218 0.956 . S
H5231 C5218 0.961 . S
H5232 C5218 0.961 . S
H5233 C5219 0.958 . S
H5234 C5219 0.961 . S
H5235 C5219 0.960 . S
C5236 C5237 1.391 . S
C5236 C5238 1.394 . S
C5236 H5252 0.931 . S
C5237 C5236 1.391 . S
C5237 C5241 1.376 . S
C5238 C5236 1.394 . S
C5238 C5239 1.369 . S
C5238 C5242 1.531 . S
C5239 C5238 1.369 . S
C5239 C5240 1.410 . S
C5239 C5247 1.503 . S
C5240 C5239 1.410 . S
C5240 C5241 1.392 . S
C5240 C5243 1.511 . S
C5241 C5237 1.376 . S
C5241 C5240 1.392 . S
C5241 H5253 0.929 . S
C5242 C5238 1.531 . S
C5242 H5254 0.960 . S
C5242 H5255 0.962 . S
C5242 H5256 0.960 . S
C5243 C5240 1.511 . S
C5243 H5257 0.961 . S
C5243 H5258 0.961 . S
C5243 H5259 0.961 . S
C5244 C5245 1.370 . S
C5244 C5246 1.363 . S
C5244 H5260 0.931 . S
C5245 C5244 1.370 . S
C5245 C5249 1.408 . S
C5246 C5244 1.363 . S
C5246 C5247 1.370 . S
C5246 C5250 1.524 . S
C5247 C5239 1.503 . S
C5247 C5246 1.370 . S
C5247 C5248 1.403 . S
C5248 C5247 1.403 . S
C5248 C5249 1.404 . S
C5248 C5251 1.539 . S
C5249 C5245 1.408 . S
C5249 C5248 1.404 . S
C5249 H5261 0.930 . S
C5250 C5246 1.524 . S
C5250 H5262 0.956 . S
C5250 H5263 0.961 . S
C5250 H5264 0.961 . S
C5251 C5248 1.539 . S
C5251 H5265 0.958 . S
C5251 H5266 0.961 . S
C5251 H5267 0.960 . S
H5252 C5236 0.931 . S
H5253 C5241 0.929 . S
H5254 C5242 0.960 . S
H5255 C5242 0.962 . S
H5256 C5242 0.960 . S
H5257 C5243 0.961 . S
H5258 C5243 0.961 . S
H5259 C5243 0.961 . S
H5260 C5244 0.931 . S
H5261 C5249 0.930 . S
H5262 C5250 0.956 . S
H5263 C5250 0.961 . S
H5264 C5250 0.961 . S
H5265 C5251 0.958 . S
H5266 C5251 0.961 . S
H5267 C5251 0.960 . S
C5268 C5269 1.391 . S
C5268 C5270 1.394 . S
C5268 H5284 0.931 1_455 S
C5269 C5268 1.391 . S
C5269 C5273 1.376 . S
C5270 C5268 1.394 . S
C5270 C5271 1.369 . S
C5270 C5274 1.531 1_455 S
C5271 C5270 1.369 . S
C5271 C5272 1.410 . S
C5271 C5279 1.503 . S
C5272 C5271 1.410 . S
C5272 C5273 1.392 . S
C5272 C5275 1.511 . S
C5273 C5269 1.376 . S
C5273 C5272 1.392 . S
C5273 H5285 0.929 . S
C5274 C5270 1.531 1_655 S
C5274 H5286 0.960 . S
C5274 H5287 0.962 . S
C5274 H5288 0.960 . S
C5275 C5272 1.511 . S
C5275 H5289 0.961 . S
C5275 H5290 0.961 . S
C5275 H5291 0.961 . S
C5276 C5277 1.370 . S
C5276 C5278 1.363 . S
C5276 H5292 0.931 . S
C5277 C5276 1.370 . S
C5277 C5281 1.408 . S
C5278 C5276 1.363 . S
C5278 C5279 1.370 . S
C5278 C5282 1.524 . S
C5279 C5271 1.503 . S
C5279 C5278 1.370 . S
C5279 C5280 1.403 . S
C5280 C5279 1.403 . S
C5280 C5281 1.404 . S
C5280 C5283 1.539 1_455 S
C5281 C5277 1.408 . S
C5281 C5280 1.404 . S
C5281 H5293 0.930 1_455 S
C5282 C5278 1.524 . S
C5282 H5294 0.956 . S
C5282 H5295 0.961 . S
C5282 H5296 0.961 . S
C5283 C5280 1.539 1_655 S
C5283 H5297 0.958 . S
C5283 H5298 0.961 . S
C5283 H5299 0.960 1_655 S
H5284 C5268 0.931 1_655 S
H5285 C5273 0.929 . S
H5286 C5274 0.960 . S
H5287 C5274 0.962 . S
H5288 C5274 0.960 . S
H5289 C5275 0.961 . S
H5290 C5275 0.961 . S
H5291 C5275 0.961 . S
H5292 C5276 0.931 . S
H5293 C5281 0.930 1_655 S
H5294 C5282 0.956 . S
H5295 C5282 0.961 . S
H5296 C5282 0.961 . S
H5297 C5283 0.958 . S
H5298 C5283 0.961 . S
H5299 C5283 0.960 1_455 S
C5300 C5301 1.391 . S
C5300 C5302 1.394 . S
C5300 H5316 0.931 . S
C5301 C5300 1.391 . S
C5301 C5305 1.376 . S
C5302 C5300 1.394 . S
C5302 C5303 1.369 . S
C5302 C5306 1.531 . S
C5303 C5302 1.369 . S
C5303 C5304 1.410 . S
C5303 C5311 1.503 . S
C5304 C5303 1.410 . S
C5304 C5305 1.392 . S
C5304 C5307 1.511 . S
C5305 C5301 1.376 . S
C5305 C5304 1.392 . S
C5305 H5317 0.929 . S
C5306 C5302 1.531 . S
C5306 H5318 0.960 . S
C5306 H5319 0.962 . S
C5306 H5320 0.960 . S
C5307 C5304 1.511 . S
C5307 H5321 0.961 . S
C5307 H5322 0.961 . S
C5307 H5323 0.961 . S
C5308 C5309 1.370 . S
C5308 C5310 1.363 . S
C5308 H5324 0.931 . S
C5309 C5308 1.370 . S
C5309 C5313 1.408 . S
C5310 C5308 1.363 . S
C5310 C5311 1.370 . S
C5310 C5314 1.524 . S
C5311 C5303 1.503 . S
C5311 C5310 1.370 . S
C5311 C5312 1.403 . S
C5312 C5311 1.403 . S
C5312 C5313 1.404 . S
C5312 C5315 1.539 . S
C5313 C5309 1.408 . S
C5313 C5312 1.404 . S
C5313 H5325 0.930 . S
C5314 C5310 1.524 . S
C5314 H5326 0.956 . S
C5314 H5327 0.961 . S
C5314 H5328 0.961 . S
C5315 C5312 1.539 . S
C5315 H5329 0.958 . S
C5315 H5330 0.961 . S
C5315 H5331 0.960 . S
H5316 C5300 0.931 . S
H5317 C5305 0.929 . S
H5318 C5306 0.960 . S
H5319 C5306 0.962 . S
H5320 C5306 0.960 . S
H5321 C5307 0.961 . S
H5322 C5307 0.961 . S
H5323 C5307 0.961 . S
H5324 C5308 0.931 . S
H5325 C5313 0.930 . S
H5326 C5314 0.956 . S
H5327 C5314 0.961 . S
H5328 C5314 0.961 . S
H5329 C5315 0.958 . S
H5330 C5315 0.961 . S
H5331 C5315 0.960 . S
C5332 C5333 1.391 . S
C5332 C5334 1.371 . S
C5332 H5348 0.931 1_565 S
C5333 C5332 1.391 . S
C5333 C5337 1.376 . S
C5334 C5332 1.371 . S
C5334 C5335 1.423 . S
C5334 C5338 1.503 1_565 S
C5335 C5334 1.423 . S
C5335 C5336 1.410 . S
C5335 C5343 1.503 . S
C5336 C5335 1.410 . S
C5336 C5337 1.392 . S
C5336 C5339 1.511 . S
C5337 C5333 1.376 . S
C5337 C5336 1.392 . S
C5337 H5349 0.929 . S
C5338 C5334 1.503 1_545 S
C5338 H5350 0.960 . S
C5338 H5351 0.962 . S
C5338 H5352 0.960 . S
C5339 C5336 1.511 . S
C5339 H5353 0.961 . S
C5339 H5354 0.961 . S
C5339 H5355 0.961 . S
C5340 C5341 1.370 . S
C5340 C5342 1.363 . S
C5340 H5356 0.892 1_565 S
C5341 C5340 1.370 . S
C5341 C5345 1.408 . S
C5342 C5340 1.363 . S
C5342 C5343 1.370 . S
C5342 C5346 1.553 . S
C5343 C5335 1.503 . S
C5343 C5342 1.370 . S
C5343 C5344 1.403 . S
C5344 C5343 1.403 . S
C5344 C5345 1.404 . S
C5344 C5347 1.539 . S
C5345 C5341 1.408 . S
C5345 C5344 1.404 . S
C5345 H5357 0.930 . S
C5346 C5342 1.553 . S
C5346 H5358 0.923 1_565 S
C5346 H5359 0.976 . S
C5346 H5360 0.952 1_565 S
C5347 C5344 1.539 . S
C5347 H5361 0.958 . S
C5347 H5362 0.961 . S
C5347 H5363 0.960 . S
H5348 C5332 0.931 1_545 S
H5349 C5337 0.929 . S
H5350 C5338 0.960 . S
H5351 C5338 0.962 . S
H5352 C5338 0.960 . S
H5353 C5339 0.961 . S
H5354 C5339 0.961 . S
H5355 C5339 0.961 . S
H5356 C5340 0.892 1_545 S
H5357 C5345 0.930 . S
H5358 C5346 0.923 1_545 S
H5359 C5346 0.976 . S
H5360 C5346 0.952 1_545 S
H5361 C5347 0.958 . S
H5362 C5347 0.961 . S
H5363 C5347 0.960 . S
C5364 C5365 1.391 . S
C5364 C5366 1.394 . S
C5364 H5380 0.931 . S
C5365 C5364 1.391 . S
C5365 C5369 1.376 . S
C5366 C5364 1.394 . S
C5366 C5367 1.369 . S
C5366 C5370 1.531 . S
C5367 C5366 1.369 . S
C5367 C5368 1.410 . S
C5367 C5375 1.503 . S
C5368 C5367 1.410 . S
C5368 C5369 1.392 . S
C5368 C5371 1.511 . S
C5369 C5365 1.376 . S
C5369 C5368 1.392 . S
C5369 H5381 0.929 . S
C5370 C5366 1.531 . S
C5370 H5382 0.996 . S
C5370 H5383 0.962 . S
C5370 H5384 0.960 . S
C5371 C5368 1.511 . S
C5371 H5385 0.961 . S
C5371 H5386 0.961 . S
C5371 H5387 0.961 1_565 S
C5372 C5373 1.370 . S
C5372 C5374 1.363 . S
C5372 H5388 0.931 . S
C5373 C5372 1.370 . S
C5373 C5377 1.408 1_565 S
C5374 C5372 1.363 . S
C5374 C5375 1.370 . S
C5374 C5378 1.524 . S
C5375 C5367 1.503 . S
C5375 C5374 1.370 . S
C5375 C5376 1.403 1_565 S
C5376 C5375 1.403 1_545 S
C5376 C5377 1.404 . S
C5376 C5379 1.539 . S
C5377 C5373 1.408 1_545 S
C5377 C5376 1.404 . S
C5377 H5389 0.930 . S
C5378 C5374 1.524 . S
C5378 H5390 0.956 . S
C5378 H5391 0.961 . S
C5378 H5392 0.961 . S
C5379 C5376 1.539 . S
C5379 H5393 0.958 . S
C5379 H5394 0.961 . S
C5379 H5395 0.960 . S
H5380 C5364 0.931 . S
H5381 C5369 0.929 . S
H5382 C5370 0.996 . S
H5383 C5370 0.962 . S
H5384 C5370 0.960 . S
H5385 C5371 0.961 . S
H5386 C5371 0.961 . S
H5387 C5371 0.961 1_545 S
H5388 C5372 0.931 . S
H5389 C5377 0.930 . S
H5390 C5378 0.956 . S
H5391 C5378 0.961 . S
H5392 C5378 0.961 . S
H5393 C5379 0.958 . S
H5394 C5379 0.961 . S
H5395 C5379 0.960 . S
C5396 C5397 1.391 . S
C5396 C5398 1.394 . S
C5396 H5412 0.931 . S
C5397 C5396 1.391 . S
C5397 C5401 1.376 . S
C5398 C5396 1.394 . S
C5398 C5399 1.369 . S
C5398 C5402 1.531 . S
C5399 C5398 1.369 . S
C5399 C5400 1.410 . S
C5399 C5407 1.503 . S
C5400 C5399 1.410 . S
C5400 C5401 1.392 . S
C5400 C5403 1.507 . S
C5401 C5397 1.376 . S
C5401 C5400 1.392 . S
C5401 H5413 0.929 . S
C5402 C5398 1.531 . S
C5402 H5414 0.960 . S
C5402 H5415 0.962 . S
C5402 H5416 0.960 . S
C5403 C5400 1.507 . S
C5403 H5417 0.905 1_455 S
C5403 H5418 0.949 1_455 S
C5403 H5419 1.042 . S
C5404 C5405 1.370 1_655 S
C5404 C5406 1.363 . S
C5404 H5420 0.931 . S
C5405 C5404 1.370 1_455 S
C5405 C5409 1.408 . S
C5406 C5404 1.363 . S
C5406 C5407 1.370 1_655 S
C5406 C5410 1.524 . S
C5407 C5399 1.503 . S
C5407 C5406 1.370 1_455 S
C5407 C5408 1.403 . S
C5408 C5407 1.403 . S
C5408 C5409 1.404 . S
C5408 C5411 1.539 . S
C5409 C5405 1.408 . S
C5409 C5408 1.404 . S
C5409 H5421 0.930 . S
C5410 C5406 1.524 . S
C5410 H5422 0.956 . S
C5410 H5423 0.961 . S
C5410 H5424 0.961 . S
C5411 C5408 1.539 . S
C5411 H5425 0.958 . S
C5411 H5426 0.961 . S
C5411 H5427 0.960 . S
H5412 C5396 0.931 . S
H5413 C5401 0.929 . S
H5414 C5402 0.960 . S
H5415 C5402 0.962 . S
H5416 C5402 0.960 . S
H5417 C5403 0.905 1_655 S
H5418 C5403 0.949 1_655 S
H5419 C5403 1.042 . S
H5420 C5404 0.931 . S
H5421 C5409 0.930 . S
H5422 C5410 0.956 . S
H5423 C5410 0.961 . S
H5424 C5410 0.961 . S
H5425 C5411 0.958 . S
H5426 C5411 0.961 . S
H5427 C5411 0.960 . S
C5428 C5429 1.391 . S
C5428 C5430 1.394 . S
C5428 H5444 0.931 . S
C5429 C5428 1.391 . S
C5429 C5433 1.376 . S
C5430 C5428 1.394 . S
C5430 C5431 1.369 . S
C5430 C5434 1.531 . S
C5431 C5430 1.369 . S
C5431 C5432 1.410 . S
C5431 C5439 1.503 . S
C5432 C5431 1.410 . S
C5432 C5433 1.392 . S
C5432 C5435 1.511 . S
C5433 C5429 1.376 . S
C5433 C5432 1.392 . S
C5433 H5445 0.929 . S
C5434 C5430 1.531 . S
C5434 H5446 0.960 . S
C5434 H5447 0.962 . S
C5434 H5448 0.960 . S
C5435 C5432 1.511 . S
C5435 H5449 0.961 . S
C5435 H5450 0.961 . S
C5435 H5451 0.961 . S
C5436 C5437 1.370 . S
C5436 C5438 1.363 . S
C5436 H5452 0.931 . S
C5437 C5436 1.370 . S
C5437 C5441 1.408 . S
C5438 C5436 1.363 . S
C5438 C5439 1.370 . S
C5438 C5442 1.524 . S
C5439 C5431 1.503 . S
C5439 C5438 1.370 . S
C5439 C5440 1.403 . S
C5440 C5439 1.403 . S
C5440 C5441 1.404 . S
C5440 C5443 1.539 . S
C5441 C5437 1.408 . S
C5441 C5440 1.404 . S
C5441 H5453 0.930 . S
C5442 C5438 1.524 . S
C5442 H5454 0.956 . S
C5442 H5455 0.961 . S
C5442 H5456 0.961 . S
C5443 C5440 1.539 . S
C5443 H5457 0.958 . S
C5443 H5458 0.961 . S
C5443 H5459 0.960 . S
H5444 C5428 0.931 . S
H5445 C5433 0.929 . S
H5446 C5434 0.960 . S
H5447 C5434 0.962 . S
H5448 C5434 0.960 . S
H5449 C5435 0.961 . S
H5450 C5435 0.961 . S
H5451 C5435 0.961 . S
H5452 C5436 0.931 . S
H5453 C5441 0.930 . S
H5454 C5442 0.956 . S
H5455 C5442 0.961 . S
H5456 C5442 0.961 . S
H5457 C5443 0.958 . S
H5458 C5443 0.961 . S
H5459 C5443 0.960 . S
C5460 C5461 1.391 . S
C5460 C5462 1.394 . S
C5460 H5476 0.931 . S
C5461 C5460 1.391 . S
C5461 C5465 1.376 . S
C5462 C5460 1.394 . S
C5462 C5463 1.369 . S
C5462 C5466 1.531 . S
C5463 C5462 1.369 . S
C5463 C5464 1.410 . S
C5463 C5471 1.503 . S
C5464 C5463 1.410 . S
C5464 C5465 1.392 . S
C5464 C5467 1.511 . S
C5465 C5461 1.376 . S
C5465 C5464 1.392 . S
C5465 H5477 0.929 . S
C5466 C5462 1.531 . S
C5466 H5478 0.960 . S
C5466 H5479 0.962 . S
C5466 H5480 0.960 . S
C5467 C5464 1.511 . S
C5467 H5481 0.961 . S
C5467 H5482 0.961 . S
C5467 H5483 0.961 . S
C5468 C5469 1.370 . S
C5468 C5470 1.363 . S
C5468 H5484 0.931 . S
C5469 C5468 1.370 . S
C5469 C5473 1.408 . S
C5470 C5468 1.363 . S
C5470 C5471 1.370 . S
C5470 C5474 1.524 . S
C5471 C5463 1.503 . S
C5471 C5470 1.370 . S
C5471 C5472 1.403 . S
C5472 C5471 1.403 . S
C5472 C5473 1.404 . S
C5472 C5475 1.539 . S
C5473 C5469 1.408 . S
C5473 C5472 1.404 . S
C5473 H5485 0.930 . S
C5474 C5470 1.524 . S
C5474 H5486 0.956 . S
C5474 H5487 0.961 . S
C5474 H5488 0.961 . S
C5475 C5472 1.539 . S
C5475 H5489 0.958 . S
C5475 H5490 0.961 . S
C5475 H5491 0.960 . S
H5476 C5460 0.931 . S
H5477 C5465 0.929 . S
H5478 C5466 0.960 . S
H5479 C5466 0.962 . S
H5480 C5466 0.960 . S
H5481 C5467 0.961 . S
H5482 C5467 0.961 . S
H5483 C5467 0.961 . S
H5484 C5468 0.931 . S
H5485 C5473 0.930 . S
H5486 C5474 0.956 . S
H5487 C5474 0.961 . S
H5488 C5474 0.961 . S
H5489 C5475 0.958 . S
H5490 C5475 0.961 . S
H5491 C5475 0.960 . S
C5492 C5493 1.391 . S
C5492 C5494 1.394 . S
C5492 H5508 0.931 . S
C5493 C5492 1.391 . S
C5493 C5497 1.376 . S
C5494 C5492 1.394 . S
C5494 C5495 1.369 . S
C5494 C5498 1.531 . S
C5495 C5494 1.369 . S
C5495 C5496 1.410 . S
C5495 C5503 1.503 . S
C5496 C5495 1.410 . S
C5496 C5497 1.392 . S
C5496 C5499 1.511 . S
C5497 C5493 1.376 . S
C5497 C5496 1.392 . S
C5497 H5509 0.929 . S
C5498 C5494 1.531 . S
C5498 H5510 0.960 . S
C5498 H5511 0.962 . S
C5498 H5512 0.960 . S
C5499 C5496 1.511 . S
C5499 H5513 0.961 . S
C5499 H5514 0.961 . S
C5499 H5515 0.961 . S
C5500 C5501 1.370 . S
C5500 C5502 1.363 . S
C5500 H5516 0.931 . S
C5501 C5500 1.370 . S
C5501 C5505 1.408 . S
C5502 C5500 1.363 . S
C5502 C5503 1.370 . S
C5502 C5506 1.524 . S
C5503 C5495 1.503 . S
C5503 C5502 1.370 . S
C5503 C5504 1.403 . S
C5504 C5503 1.403 . S
C5504 C5505 1.404 . S
C5504 C5507 1.539 . S
C5505 C5501 1.408 . S
C5505 C5504 1.404 . S
C5505 H5517 0.930 . S
C5506 C5502 1.524 . S
C5506 H5518 0.956 . S
C5506 H5519 0.961 . S
C5506 H5520 0.961 . S
C5507 C5504 1.539 . S
C5507 H5521 0.958 . S
C5507 H5522 0.961 . S
C5507 H5523 0.960 . S
H5508 C5492 0.931 . S
H5509 C5497 0.929 . S
H5510 C5498 0.960 . S
H5511 C5498 0.962 . S
H5512 C5498 0.960 . S
H5513 C5499 0.961 . S
H5514 C5499 0.961 . S
H5515 C5499 0.961 . S
H5516 C5500 0.931 . S
H5517 C5505 0.930 . S
H5518 C5506 0.956 . S
H5519 C5506 0.961 . S
H5520 C5506 0.961 . S
H5521 C5507 0.958 . S
H5522 C5507 0.961 . S
H5523 C5507 0.960 . S
C5524 C5525 1.391 . S
C5524 C5526 1.394 . S
C5524 H5540 0.931 . S
C5525 C5524 1.391 . S
C5525 C5529 1.376 . S
C5526 C5524 1.394 . S
C5526 C5527 1.369 . S
C5526 C5530 1.531 . S
C5527 C5526 1.369 . S
C5527 C5528 1.410 . S
C5527 C5535 1.503 . S
C5528 C5527 1.410 . S
C5528 C5529 1.392 . S
C5528 C5531 1.511 . S
C5529 C5525 1.376 . S
C5529 C5528 1.392 . S
C5529 H5541 0.929 . S
C5530 C5526 1.531 . S
C5530 H5542 0.960 . S
C5530 H5543 0.962 . S
C5530 H5544 0.960 . S
C5531 C5528 1.511 . S
C5531 H5545 0.961 . S
C5531 H5546 0.961 . S
C5531 H5547 0.961 . S
C5532 C5533 1.370 . S
C5532 C5534 1.363 . S
C5532 H5548 0.931 . S
C5533 C5532 1.370 . S
C5533 C5537 1.408 . S
C5534 C5532 1.363 . S
C5534 C5535 1.370 . S
C5534 C5538 1.524 . S
C5535 C5527 1.503 . S
C5535 C5534 1.370 . S
C5535 C5536 1.403 . S
C5536 C5535 1.403 . S
C5536 C5537 1.404 . S
C5536 C5539 1.539 . S
C5537 C5533 1.408 . S
C5537 C5536 1.404 . S
C5537 H5549 0.930 . S
C5538 C5534 1.524 . S
C5538 H5550 0.956 . S
C5538 H5551 0.961 . S
C5538 H5552 0.961 . S
C5539 C5536 1.539 . S
C5539 H5553 0.958 . S
C5539 H5554 0.961 . S
C5539 H5555 0.960 . S
H5540 C5524 0.931 . S
H5541 C5529 0.929 . S
H5542 C5530 0.960 . S
H5543 C5530 0.962 . S
H5544 C5530 0.960 . S
H5545 C5531 0.961 . S
H5546 C5531 0.961 . S
H5547 C5531 0.961 . S
H5548 C5532 0.931 . S
H5549 C5537 0.930 . S
H5550 C5538 0.956 . S
H5551 C5538 0.961 . S
H5552 C5538 0.961 . S
H5553 C5539 0.958 . S
H5554 C5539 0.961 . S
H5555 C5539 0.960 . S
C5556 C5557 1.391 . S
C5556 C5558 1.394 . S
C5556 H5572 0.931 . S
C5557 C5556 1.391 . S
C5557 C5561 1.376 . S
C5558 C5556 1.394 . S
C5558 C5559 1.369 . S
C5558 C5562 1.546 . S
C5559 C5558 1.369 . S
C5559 C5560 1.410 . S
C5559 C5567 1.503 . S
C5560 C5559 1.410 . S
C5560 C5561 1.392 . S
C5560 C5563 1.511 . S
C5561 C5557 1.376 . S
C5561 C5560 1.392 . S
C5561 H5573 0.929 . S
C5562 C5558 1.546 . S
C5562 H5574 0.906 1_545 S
C5562 H5575 1.007 . S
C5562 H5576 0.959 1_545 S
C5563 C5560 1.511 . S
C5563 H5577 0.961 . S
C5563 H5578 0.961 . S
C5563 H5579 0.961 . S
C5564 C5565 1.370 . S
C5564 C5566 1.363 . S
C5564 H5580 0.931 . S
C5565 C5564 1.370 . S
C5565 C5569 1.408 1_545 S
C5566 C5564 1.363 . S
C5566 C5567 1.370 . S
C5566 C5570 1.524 . S
C5567 C5559 1.503 . S
C5567 C5566 1.370 . S
C5567 C5568 1.403 1_545 S
C5568 C5567 1.403 1_565 S
C5568 C5569 1.404 . S
C5568 C5571 1.539 . S
C5569 C5565 1.408 1_565 S
C5569 C5568 1.404 . S
C5569 H5581 0.930 . S
C5570 C5566 1.524 . S
C5570 H5582 0.956 . S
C5570 H5583 0.961 . S
C5570 H5584 0.961 . S
C5571 C5568 1.539 . S
C5571 H5585 0.958 . S
C5571 H5586 0.961 . S
C5571 H5587 0.960 . S
H5572 C5556 0.931 . S
H5573 C5561 0.929 . S
H5574 C5562 0.906 1_565 S
H5575 C5562 1.007 . S
H5576 C5562 0.959 1_565 S
H5577 C5563 0.961 . S
H5578 C5563 0.961 . S
H5579 C5563 0.961 . S
H5580 C5564 0.931 . S
H5581 C5569 0.930 . S
H5582 C5570 0.956 . S
H5583 C5570 0.961 . S
H5584 C5570 0.961 . S
H5585 C5571 0.958 . S
H5586 C5571 0.961 . S
H5587 C5571 0.960 . S
C5588 C5589 1.391 1_455 S
C5588 C5590 1.394 . S
C5588 H5604 0.931 . S
C5589 C5588 1.391 1_655 S
C5589 C5593 1.376 . S
C5590 C5588 1.394 . S
C5590 C5591 1.369 1_455 S
C5590 C5594 1.531 . S
C5591 C5590 1.369 1_655 S
C5591 C5592 1.410 . S
C5591 C5599 1.503 . S
C5592 C5591 1.410 . S
C5592 C5593 1.392 . S
C5592 C5595 1.511 . S
C5593 C5589 1.376 . S
C5593 C5592 1.392 . S
C5593 H5605 0.929 . S
C5594 C5590 1.531 . S
C5594 H5606 0.960 . S
C5594 H5607 0.962 . S
C5594 H5608 0.960 . S
C5595 C5592 1.511 . S
C5595 H5609 0.961 . S
C5595 H5610 0.961 . S
C5595 H5611 0.961 . S
C5596 C5597 1.370 . S
C5596 C5598 1.363 . S
C5596 H5612 0.931 . S
C5597 C5596 1.370 . S
C5597 C5601 1.408 . S
C5598 C5596 1.363 . S
C5598 C5599 1.370 . S
C5598 C5602 1.524 . S
C5599 C5591 1.503 . S
C5599 C5598 1.370 . S
C5599 C5600 1.403 . S
C5600 C5599 1.403 . S
C5600 C5601 1.404 . S
C5600 C5603 1.539 . S
C5601 C5597 1.408 . S
C5601 C5600 1.404 . S
C5601 H5613 0.930 . S
C5602 C5598 1.524 . S
C5602 H5614 0.956 . S
C5602 H5615 0.961 . S
C5602 H5616 0.961 . S
C5603 C5600 1.539 . S
C5603 H5617 0.958 1_655 S
C5603 H5618 0.961 . S
C5603 H5619 0.960 . S
H5604 C5588 0.931 . S
H5605 C5593 0.929 . S
H5606 C5594 0.960 . S
H5607 C5594 0.962 . S
H5608 C5594 0.960 . S
H5609 C5595 0.961 . S
H5610 C5595 0.961 . S
H5611 C5595 0.961 . S
H5612 C5596 0.931 . S
H5613 C5601 0.930 . S
H5614 C5602 0.956 . S
H5615 C5602 0.961 . S
H5616 C5602 0.961 . S
H5617 C5603 0.958 1_455 S
H5618 C5603 0.961 . S
H5619 C5603 0.960 . S
C5620 C5621 1.391 . S
C5620 C5622 1.394 . S
C5620 H5636 0.931 . S
C5621 C5620 1.391 . S
C5621 C5625 1.376 . S
C5622 C5620 1.394 . S
C5622 C5623 1.369 . S
C5622 C5626 1.531 . S
C5623 C5622 1.369 . S
C5623 C5624 1.410 . S
C5623 C5631 1.503 . S
C5624 C5623 1.410 . S
C5624 C5625 1.392 . S
C5624 C5627 1.511 . S
C5625 C5621 1.376 . S
C5625 C5624 1.392 . S
C5625 H5637 0.929 . S
C5626 C5622 1.531 . S
C5626 H5638 0.960 . S
C5626 H5639 0.962 . S
C5626 H5640 0.960 . S
C5627 C5624 1.511 . S
C5627 H5641 0.961 . S
C5627 H5642 0.961 . S
C5627 H5643 0.961 . S
C5628 C5629 1.370 . S
C5628 C5630 1.363 . S
C5628 H5644 0.931 . S
C5629 C5628 1.370 . S
C5629 C5633 1.408 . S
C5630 C5628 1.363 . S
C5630 C5631 1.370 . S
C5630 C5634 1.524 . S
C5631 C5623 1.503 . S
C5631 C5630 1.370 . S
C5631 C5632 1.403 . S
C5632 C5631 1.403 . S
C5632 C5633 1.404 . S
C5632 C5635 1.539 . S
C5633 C5629 1.408 . S
C5633 C5632 1.404 . S
C5633 H5645 0.930 . S
C5634 C5630 1.524 . S
C5634 H5646 0.956 . S
C5634 H5647 0.961 . S
C5634 H5648 0.961 . S
C5635 C5632 1.539 . S
C5635 H5649 0.958 . S
C5635 H5650 0.961 . S
C5635 H5651 0.960 . S
H5636 C5620 0.931 . S
H5637 C5625 0.929 . S
H5638 C5626 0.960 . S
H5639 C5626 0.962 . S
H5640 C5626 0.960 . S
H5641 C5627 0.961 . S
H5642 C5627 0.961 . S
H5643 C5627 0.961 . S
H5644 C5628 0.931 . S
H5645 C5633 0.930 . S
H5646 C5634 0.956 . S
H5647 C5634 0.961 . S
H5648 C5634 0.961 . S
H5649 C5635 0.958 . S
H5650 C5635 0.961 . S
H5651 C5635 0.960 . S
C5652 C5653 1.391 . S
C5652 C5654 1.394 . S
C5652 H5668 0.931 . S
C5653 C5652 1.391 . S
C5653 C5657 1.376 . S
C5654 C5652 1.394 . S
C5654 C5655 1.369 . S
C5654 C5658 1.531 . S
C5655 C5654 1.369 . S
C5655 C5656 1.410 . S
C5655 C5663 1.503 . S
C5656 C5655 1.410 . S
C5656 C5657 1.392 . S
C5656 C5659 1.511 . S
C5657 C5653 1.376 . S
C5657 C5656 1.392 . S
C5657 H5669 0.929 . S
C5658 C5654 1.531 . S
C5658 H5670 0.960 . S
C5658 H5671 0.962 . S
C5658 H5672 0.960 . S
C5659 C5656 1.511 . S
C5659 H5673 0.961 . S
C5659 H5674 0.961 . S
C5659 H5675 0.961 . S
C5660 C5661 1.370 . S
C5660 C5662 1.363 . S
C5660 H5676 0.931 . S
C5661 C5660 1.370 . S
C5661 C5665 1.408 . S
C5662 C5660 1.363 . S
C5662 C5663 1.370 . S
C5662 C5666 1.524 . S
C5663 C5655 1.503 . S
C5663 C5662 1.370 . S
C5663 C5664 1.403 . S
C5664 C5663 1.403 . S
C5664 C5665 1.404 . S
C5664 C5667 1.539 . S
C5665 C5661 1.408 . S
C5665 C5664 1.404 . S
C5665 H5677 0.930 . S
C5666 C5662 1.524 . S
C5666 H5678 0.956 . S
C5666 H5679 0.961 . S
C5666 H5680 0.961 . S
C5667 C5664 1.539 . S
C5667 H5681 0.958 . S
C5667 H5682 0.961 . S
C5667 H5683 0.960 . S
H5668 C5652 0.931 . S
H5669 C5657 0.929 . S
H5670 C5658 0.960 . S
H5671 C5658 0.962 . S
H5672 C5658 0.960 . S
H5673 C5659 0.961 . S
H5674 C5659 0.961 . S
H5675 C5659 0.961 . S
H5676 C5660 0.931 . S
H5677 C5665 0.930 . S
H5678 C5666 0.956 . S
H5679 C5666 0.961 . S
H5680 C5666 0.961 . S
H5681 C5667 0.958 . S
H5682 C5667 0.961 . S
H5683 C5667 0.960 . S
C5684 C5685 1.391 . S
C5684 C5686 1.394 . S
C5684 H5700 0.931 . S
C5685 C5684 1.391 . S
C5685 C5689 1.376 . S
C5686 C5684 1.394 . S
C5686 C5687 1.369 . S
C5686 C5690 1.531 . S
C5687 C5686 1.369 . S
C5687 C5688 1.410 . S
C5687 C5695 1.503 . S
C5688 C5687 1.410 . S
C5688 C5689 1.392 . S
C5688 C5691 1.511 . S
C5689 C5685 1.376 . S
C5689 C5688 1.392 . S
C5689 H5701 0.929 . S
C5690 C5686 1.531 . S
C5690 H5702 0.960 . S
C5690 H5703 0.962 . S
C5690 H5704 0.960 . S
C5691 C5688 1.511 . S
C5691 H5705 0.961 . S
C5691 H5706 0.961 . S
C5691 H5707 0.961 . S
C5692 C5693 1.370 . S
C5692 C5694 1.363 . S
C5692 H5708 0.931 . S
C5693 C5692 1.370 . S
C5693 C5697 1.408 . S
C5694 C5692 1.363 . S
C5694 C5695 1.370 . S
C5694 C5698 1.524 . S
C5695 C5687 1.503 . S
C5695 C5694 1.370 . S
C5695 C5696 1.403 . S
C5696 C5695 1.403 . S
C5696 C5697 1.404 . S
C5696 C5699 1.539 . S
C5697 C5693 1.408 . S
C5697 C5696 1.404 . S
C5697 H5709 0.930 . S
C5698 C5694 1.524 . S
C5698 H5710 0.956 . S
C5698 H5711 0.961 . S
C5698 H5712 0.961 . S
C5699 C5696 1.539 . S
C5699 H5713 0.958 . S
C5699 H5714 0.961 . S
C5699 H5715 0.960 . S
H5700 C5684 0.931 . S
H5701 C5689 0.929 . S
H5702 C5690 0.960 . S
H5703 C5690 0.962 . S
H5704 C5690 0.960 . S
H5705 C5691 0.961 . S
H5706 C5691 0.961 . S
H5707 C5691 0.961 . S
H5708 C5692 0.931 . S
H5709 C5697 0.930 . S
H5710 C5698 0.956 . S
H5711 C5698 0.961 . S
H5712 C5698 0.961 . S
H5713 C5699 0.958 . S
H5714 C5699 0.961 . S
H5715 C5699 0.960 . S
C5716 C5717 1.391 . S
C5716 C5718 1.394 . S
C5716 H5732 0.931 . S
C5717 C5716 1.391 . S
C5717 C5721 1.376 . S
C5718 C5716 1.394 . S
C5718 C5719 1.369 . S
C5718 C5722 1.531 . S
C5719 C5718 1.369 . S
C5719 C5720 1.410 . S
C5719 C5727 1.503 . S
C5720 C5719 1.410 . S
C5720 C5721 1.392 . S
C5720 C5723 1.511 . S
C5721 C5717 1.376 . S
C5721 C5720 1.392 . S
C5721 H5733 0.929 . S
C5722 C5718 1.531 . S
C5722 H5734 0.960 . S
C5722 H5735 0.962 . S
C5722 H5736 0.960 . S
C5723 C5720 1.511 . S
C5723 H5737 0.961 . S
C5723 H5738 0.961 . S
C5723 H5739 0.961 . S
C5724 C5725 1.370 . S
C5724 C5726 1.363 . S
C5724 H5740 0.931 . S
C5725 C5724 1.370 . S
C5725 C5729 1.408 . S
C5726 C5724 1.363 . S
C5726 C5727 1.370 . S
C5726 C5730 1.524 . S
C5727 C5719 1.503 . S
C5727 C5726 1.370 . S
C5727 C5728 1.403 . S
C5728 C5727 1.403 . S
C5728 C5729 1.404 . S
C5728 C5731 1.539 . S
C5729 C5725 1.408 . S
C5729 C5728 1.404 . S
C5729 H5741 0.930 . S
C5730 C5726 1.524 . S
C5730 H5742 0.956 . S
C5730 H5743 0.961 . S
C5730 H5744 0.961 . S
C5731 C5728 1.539 . S
C5731 H5745 0.958 . S
C5731 H5746 0.961 . S
C5731 H5747 0.960 . S
H5732 C5716 0.931 . S
H5733 C5721 0.929 . S
H5734 C5722 0.960 . S
H5735 C5722 0.962 . S
H5736 C5722 0.960 . S
H5737 C5723 0.961 . S
H5738 C5723 0.961 . S
H5739 C5723 0.961 . S
H5740 C5724 0.931 . S
H5741 C5729 0.930 . S
H5742 C5730 0.956 . S
H5743 C5730 0.961 . S
H5744 C5730 0.961 . S
H5745 C5731 0.958 . S
H5746 C5731 0.961 . S
H5747 C5731 0.960 . S
C5748 C5749 1.391 . S
C5748 C5750 1.394 . S
C5748 H5764 0.931 . S
C5749 C5748 1.391 . S
C5749 C5753 1.376 . S
C5750 C5748 1.394 . S
C5750 C5751 1.369 . S
C5750 C5754 1.531 . S
C5751 C5750 1.369 . S
C5751 C5752 1.410 . S
C5751 C5759 1.503 . S
C5752 C5751 1.410 . S
C5752 C5753 1.392 . S
C5752 C5755 1.511 . S
C5753 C5749 1.376 . S
C5753 C5752 1.392 . S
C5753 H5765 0.929 . S
C5754 C5750 1.531 . S
C5754 H5766 0.960 . S
C5754 H5767 0.962 . S
C5754 H5768 0.960 . S
C5755 C5752 1.511 . S
C5755 H5769 0.961 . S
C5755 H5770 0.961 . S
C5755 H5771 0.961 . S
C5756 C5757 1.370 . S
C5756 C5758 1.363 . S
C5756 H5772 0.931 . S
C5757 C5756 1.370 . S
C5757 C5761 1.408 . S
C5758 C5756 1.363 . S
C5758 C5759 1.370 . S
C5758 C5762 1.524 . S
C5759 C5751 1.503 . S
C5759 C5758 1.370 . S
C5759 C5760 1.403 . S
C5760 C5759 1.403 . S
C5760 C5761 1.404 . S
C5760 C5763 1.539 . S
C5761 C5757 1.408 . S
C5761 C5760 1.404 . S
C5761 H5773 0.930 . S
C5762 C5758 1.524 . S
C5762 H5774 0.956 . S
C5762 H5775 0.961 . S
C5762 H5776 0.961 . S
C5763 C5760 1.539 . S
C5763 H5777 0.958 . S
C5763 H5778 0.961 . S
C5763 H5779 0.960 . S
H5764 C5748 0.931 . S
H5765 C5753 0.929 . S
H5766 C5754 0.960 . S
H5767 C5754 0.962 . S
H5768 C5754 0.960 . S
H5769 C5755 0.961 . S
H5770 C5755 0.961 . S
H5771 C5755 0.961 . S
H5772 C5756 0.931 . S
H5773 C5761 0.930 . S
H5774 C5762 0.956 . S
H5775 C5762 0.961 . S
H5776 C5762 0.961 . S
H5777 C5763 0.958 . S
H5778 C5763 0.961 . S
H5779 C5763 0.960 . S
C5780 C5781 1.391 . S
C5780 C5782 1.394 . S
C5780 H5796 0.931 . S
C5781 C5780 1.391 . S
C5781 C5785 1.376 . S
C5782 C5780 1.394 . S
C5782 C5783 1.369 . S
C5782 C5786 1.531 . S
C5783 C5782 1.369 . S
C5783 C5784 1.410 . S
C5783 C5791 1.503 . S
C5784 C5783 1.410 . S
C5784 C5785 1.392 . S
C5784 C5787 1.511 . S
C5785 C5781 1.376 . S
C5785 C5784 1.392 . S
C5785 H5797 0.929 . S
C5786 C5782 1.531 . S
C5786 H5798 0.960 . S
C5786 H5799 0.962 . S
C5786 H5800 0.960 . S
C5787 C5784 1.511 . S
C5787 H5801 0.961 . S
C5787 H5802 0.961 . S
C5787 H5803 0.961 . S
C5788 C5789 1.370 . S
C5788 C5790 1.363 . S
C5788 H5804 0.931 . S
C5789 C5788 1.370 . S
C5789 C5793 1.408 . S
C5790 C5788 1.363 . S
C5790 C5791 1.370 . S
C5790 C5794 1.524 . S
C5791 C5783 1.503 . S
C5791 C5790 1.370 . S
C5791 C5792 1.403 . S
C5792 C5791 1.403 . S
C5792 C5793 1.404 . S
C5792 C5795 1.539 . S
C5793 C5789 1.408 . S
C5793 C5792 1.404 . S
C5793 H5805 0.930 . S
C5794 C5790 1.524 . S
C5794 H5806 0.956 . S
C5794 H5807 0.961 . S
C5794 H5808 0.961 . S
C5795 C5792 1.539 . S
C5795 H5809 0.958 . S
C5795 H5810 0.961 . S
C5795 H5811 0.960 . S
H5796 C5780 0.931 . S
H5797 C5785 0.929 . S
H5798 C5786 0.960 . S
H5799 C5786 0.962 . S
H5800 C5786 0.960 . S
H5801 C5787 0.961 . S
H5802 C5787 0.961 . S
H5803 C5787 0.961 . S
H5804 C5788 0.931 . S
H5805 C5793 0.930 . S
H5806 C5794 0.956 . S
H5807 C5794 0.961 . S
H5808 C5794 0.961 . S
H5809 C5795 0.958 . S
H5810 C5795 0.961 . S
H5811 C5795 0.960 . S
C5812 C5813 1.391 . S
C5812 C5814 1.394 . S
C5812 H5828 0.931 . S
C5813 C5812 1.391 . S
C5813 C5817 1.376 . S
C5814 C5812 1.394 . S
C5814 C5815 1.369 . S
C5814 C5818 1.531 . S
C5815 C5814 1.369 . S
C5815 C5816 1.410 . S
C5815 C5823 1.503 . S
C5816 C5815 1.410 . S
C5816 C5817 1.392 . S
C5816 C5819 1.511 . S
C5817 C5813 1.376 . S
C5817 C5816 1.392 . S
C5817 H5829 0.929 . S
C5818 C5814 1.531 . S
C5818 H5830 0.960 . S
C5818 H5831 0.962 . S
C5818 H5832 0.960 . S
C5819 C5816 1.511 . S
C5819 H5833 0.961 . S
C5819 H5834 0.961 . S
C5819 H5835 0.961 . S
C5820 C5821 1.370 . S
C5820 C5822 1.363 . S
C5820 H5836 0.931 . S
C5821 C5820 1.370 . S
C5821 C5825 1.408 . S
C5822 C5820 1.363 . S
C5822 C5823 1.370 . S
C5822 C5826 1.524 . S
C5823 C5815 1.503 . S
C5823 C5822 1.370 . S
C5823 C5824 1.403 . S
C5824 C5823 1.403 . S
C5824 C5825 1.404 . S
C5824 C5827 1.539 . S
C5825 C5821 1.408 . S
C5825 C5824 1.404 . S
C5825 H5837 0.930 . S
C5826 C5822 1.524 . S
C5826 H5838 0.956 . S
C5826 H5839 0.961 . S
C5826 H5840 0.961 . S
C5827 C5824 1.539 . S
C5827 H5841 0.958 . S
C5827 H5842 0.961 . S
C5827 H5843 0.960 . S
H5828 C5812 0.931 . S
H5829 C5817 0.929 . S
H5830 C5818 0.960 . S
H5831 C5818 0.962 . S
H5832 C5818 0.960 . S
H5833 C5819 0.961 . S
H5834 C5819 0.961 . S
H5835 C5819 0.961 . S
H5836 C5820 0.931 . S
H5837 C5825 0.930 . S
H5838 C5826 0.956 . S
H5839 C5826 0.961 . S
H5840 C5826 0.961 . S
H5841 C5827 0.958 . S
H5842 C5827 0.961 . S
H5843 C5827 0.960 . S
C5844 C5845 1.391 . S
C5844 C5846 1.394 . S
C5844 H5860 0.931 . S
C5845 C5844 1.391 . S
C5845 C5849 1.376 . S
C5846 C5844 1.394 . S
C5846 C5847 1.369 . S
C5846 C5850 1.531 . S
C5847 C5846 1.369 . S
C5847 C5848 1.410 . S
C5847 C5855 1.503 . S
C5848 C5847 1.410 . S
C5848 C5849 1.392 . S
C5848 C5851 1.511 . S
C5849 C5845 1.376 . S
C5849 C5848 1.392 . S
C5849 H5861 0.929 . S
C5850 C5846 1.531 . S
C5850 H5862 0.960 . S
C5850 H5863 0.962 . S
C5850 H5864 0.960 . S
C5851 C5848 1.511 . S
C5851 H5865 0.946 1_655 S
C5851 H5866 0.958 1_655 S
C5851 H5867 0.961 . S
C5852 C5853 1.370 1_455 S
C5852 C5854 1.363 . S
C5852 H5868 0.931 . S
C5853 C5852 1.370 1_655 S
C5853 C5857 1.408 . S
C5854 C5852 1.363 . S
C5854 C5855 1.370 1_455 S
C5854 C5858 1.524 . S
C5855 C5847 1.503 . S
C5855 C5854 1.370 1_655 S
C5855 C5856 1.403 . S
C5856 C5855 1.403 . S
C5856 C5857 1.404 . S
C5856 C5859 1.539 . S
C5857 C5853 1.408 . S
C5857 C5856 1.404 . S
C5857 H5869 0.930 . S
C5858 C5854 1.524 . S
C5858 H5870 0.956 . S
C5858 H5871 0.961 . S
C5858 H5872 0.961 . S
C5859 C5856 1.539 . S
C5859 H5873 0.958 . S
C5859 H5874 0.961 . S
C5859 H5875 0.960 . S
H5860 C5844 0.931 . S
H5861 C5849 0.929 . S
H5862 C5850 0.960 . S
H5863 C5850 0.962 . S
H5864 C5850 0.960 . S
H5865 C5851 0.946 1_455 S
H5866 C5851 0.958 1_455 S
H5867 C5851 0.961 . S
H5868 C5852 0.931 . S
H5869 C5857 0.930 . S
H5870 C5858 0.956 . S
H5871 C5858 0.961 . S
H5872 C5858 0.961 . S
H5873 C5859 0.958 . S
H5874 C5859 0.961 . S
H5875 C5859 0.960 . S
C5876 C5877 1.391 . S
C5876 C5878 1.394 . S
C5876 H5892 0.931 . S
C5877 C5876 1.391 . S
C5877 C5881 1.376 . S
C5878 C5876 1.394 . S
C5878 C5879 1.369 . S
C5878 C5882 1.531 . S
C5879 C5878 1.369 . S
C5879 C5880 1.410 . S
C5879 C5887 1.503 . S
C5880 C5879 1.410 . S
C5880 C5881 1.392 . S
C5880 C5883 1.511 . S
C5881 C5877 1.376 . S
C5881 C5880 1.392 . S
C5881 H5893 0.929 . S
C5882 C5878 1.531 . S
C5882 H5894 0.960 . S
C5882 H5895 0.962 . S
C5882 H5896 0.960 . S
C5883 C5880 1.511 . S
C5883 H5897 0.961 . S
C5883 H5898 0.961 . S
C5883 H5899 0.961 . S
C5884 C5885 1.370 . S
C5884 C5886 1.363 . S
C5884 H5900 0.931 . S
C5885 C5884 1.370 . S
C5885 C5889 1.408 . S
C5886 C5884 1.363 . S
C5886 C5887 1.370 . S
C5886 C5890 1.524 . S
C5887 C5879 1.503 . S
C5887 C5886 1.370 . S
C5887 C5888 1.403 . S
C5888 C5887 1.403 . S
C5888 C5889 1.404 . S
C5888 C5891 1.539 . S
C5889 C5885 1.408 . S
C5889 C5888 1.404 . S
C5889 H5901 0.930 . S
C5890 C5886 1.524 . S
C5890 H5902 0.956 . S
C5890 H5903 0.961 . S
C5890 H5904 0.961 . S
C5891 C5888 1.539 . S
C5891 H5905 0.958 . S
C5891 H5906 0.961 . S
C5891 H5907 0.960 . S
H5892 C5876 0.931 . S
H5893 C5881 0.929 . S
H5894 C5882 0.960 . S
H5895 C5882 0.962 . S
H5896 C5882 0.960 . S
H5897 C5883 0.961 . S
H5898 C5883 0.961 . S
H5899 C5883 0.961 . S
H5900 C5884 0.931 . S
H5901 C5889 0.930 . S
H5902 C5890 0.956 . S
H5903 C5890 0.961 . S
H5904 C5890 0.961 . S
H5905 C5891 0.958 . S
H5906 C5891 0.961 . S
H5907 C5891 0.960 . S
C5908 C5909 1.391 . S
C5908 C5910 1.394 . S
C5908 H5924 0.931 . S
C5909 C5908 1.391 . S
C5909 C5913 1.376 . S
C5910 C5908 1.394 . S
C5910 C5911 1.369 . S
C5910 C5914 1.531 . S
C5911 C5910 1.369 . S
C5911 C5912 1.410 . S
C5911 C5919 1.503 . S
C5912 C5911 1.410 . S
C5912 C5913 1.392 . S
C5912 C5915 1.511 1_545 S
C5913 C5909 1.376 . S
C5913 C5912 1.392 . S
C5913 H5925 0.929 . S
C5914 C5910 1.531 . S
C5914 H5926 0.960 . S
C5914 H5927 0.962 . S
C5914 H5928 0.960 . S
C5915 C5912 1.511 1_565 S
C5915 H5929 0.962 1_565 S
C5915 H5930 0.960 1_565 S
C5915 H5931 0.961 . S
C5916 C5917 1.370 . S
C5916 C5918 1.363 . S
C5916 H5932 0.931 . S
C5917 C5916 1.370 . S
C5917 C5921 1.408 1_545 S
C5918 C5916 1.363 . S
C5918 C5919 1.370 . S
C5918 C5922 1.524 . S
C5919 C5911 1.503 . S
C5919 C5918 1.370 . S
C5919 C5920 1.403 1_545 S
C5920 C5919 1.403 1_565 S
C5920 C5921 1.404 . S
C5920 C5923 1.539 . S
C5921 C5917 1.408 1_565 S
C5921 C5920 1.404 . S
C5921 H5933 0.930 . S
C5922 C5918 1.524 . S
C5922 H5934 0.956 . S
C5922 H5935 0.961 . S
C5922 H5936 0.961 . S
C5923 C5920 1.539 . S
C5923 H5937 0.958 . S
C5923 H5938 0.961 . S
C5923 H5939 0.960 . S
H5924 C5908 0.931 . S
H5925 C5913 0.929 . S
H5926 C5914 0.960 . S
H5927 C5914 0.962 . S
H5928 C5914 0.960 . S
H5929 C5915 0.962 1_545 S
H5930 C5915 0.960 1_545 S
H5931 C5915 0.961 . S
H5932 C5916 0.931 . S
H5933 C5921 0.930 . S
H5934 C5922 0.956 . S
H5935 C5922 0.961 . S
H5936 C5922 0.961 . S
H5937 C5923 0.958 . S
H5938 C5923 0.961 . S
H5939 C5923 0.960 . S
C3637 C49 1.408 . S
C3645 C2639 1.184 . S
C3669 C137 1.668 . S
C3677 C2779 1.065 . S
C3709 C2867 1.300 . S
C3701 C205 1.500 . S
C3733 C196 1.508 . S
C3741 C3007 1.169 1_565 S
C3765 C57 1.521 . S
C3773 C3121 1.314 . S
C3797 C145 1.675 . S
C3805 C3209 1.285 . S
C3829 C313 1.477 . S
C3837 C3095 1.097 . S
C3869 C3235 1.275 . S
C3861 C401 1.601 . S
C3901 C2981 1.172 . S
C3893 C489 1.537 . S
C3925 C469 1.520 . S
C3933 C2893 1.094 . S
C3965 C2665 1.105 . S
C3957 C293 1.521 . S
C3989 C381 1.589 . S
C3997 C2753 1.419 . S
C4021 C577 1.742 . S
C4029 C3323 1.309 . S
C4053 C645 1.773 . S
C4061 C3463 1.108 . S
C4093 C3551 1.213 . S
C4085 C733 1.680 . S
C4117 C724 1.702 . S
C4125 C1639 1.138 . S
C4149 C585 1.787 . S
C4157 C1753 1.207 . S
C4181 C636 1.774 . S
C4189 C1841 1.303 . S
C4213 C841 1.486 . S
C4221 C1727 1.290 . S
C4245 C937 1.698 . S
C4253 C1867 1.405 . S
C4285 C1613 1.477 . S
C4277 C1025 1.662 . S
C4317 C3577 1.516 . S
C4309 C988 1.787 . S
C4349 C3349 1.370 . S
C4341 C821 1.616 . S
C4381 C3437 1.520 . S
C4373 C900 1.674 . S
C4405 C1105 1.580 . S
C4413 C1955 1.183 . S
C4437 C1193 1.779 . S
C4445 C2095 1.155 . S
C4469 C1281 1.760 . S
C4477 C2183 1.318 . S
C4501 C1289 1.868 . S
C4509 C2323 1.277 . S
C4541 C2437 1.132 . S
C4533 C1113 1.712 . S
C4573 C2525 1.320 . S
C4565 C1201 1.767 . S
C4605 C2411 1.455 . S
C4597 C1369 1.670 . S
C4637 C2551 1.392 . S
C4629 C1457 1.670 . S
C4661 C1553 1.579 . S
C4669 C2297 1.381 . S
C4701 C2209 1.356 . S
C4693 C1516 1.611 . S
C4725 C1349 1.717 . S
C4733 C1981 1.389 . S
C4765 C2069 1.491 . S
C4757 C1437 1.685 . S
C4797 C1595 1.005 . S
C4789 C29 1.941 . S
C4821 C117 1.673 . S
C4829 C1709 0.838 . S
C4861 C1813 1.326 . S
C4853 C225 1.885 . S
C4893 C1927 1.234 . S
C4885 C233 1.698 . S
C4925 C2051 1.051 . S
C4917 C20 1.880 . S
C4957 C2155 1.171 . S
C4949 C108 1.693 . S
C4981 C321 2.072 . S
C4989 C2165 1.642 . S
C5013 C409 1.786 . S
C5021 C1937 1.479 . S
C5045 C497 2.055 . S
C5053 C2041 1.847 . S
C5077 C460 1.841 . S
C5085 C1699 1.712 . S
C5117 C1823 1.702 . S
C5109 C284 2.046 . S
C5141 C372 1.842 . S
C5149 C1585 1.670 . S
C5181 C2279 0.883 . S
C5173 C557 1.741 . S
C5205 C665 1.787 . S
C5213 C2393 0.996 . S
C5237 C753 1.782 . S
C5245 C2497 1.254 . S
C5277 C2611 0.809 . S
C5269 C761 0.967 . S
C5301 C548 1.636 . S
C5309 C2735 0.889 . S
C5333 C673 1.115 . S
C5341 C2839 0.867 . S
C5365 C849 1.209 . S
C5373 C2849 0.790 1_565 S
C5397 C929 1.106 . S
C5405 C2621 0.791 1_455 S
C5437 C2725 1.594 . S
C5429 C1017 1.738 . S
C5461 C997 1.696 . S
C5469 C2383 1.571 . S
C5493 C812 1.913 . S
C5501 C2507 1.542 . S
C5533 C2269 1.737 . S
C5525 C909 1.947 . S
C5565 C2963 0.773 . S
C5557 C1085 1.192 . S
C5589 C1173 1.071 . S
C5597 C3077 0.717 . S
C5621 C1261 1.609 . S
C5629 C3181 1.139 . S
C5661 C3295 1.135 . S
C5653 C1252 1.546 . S
C5693 C3419 0.972 . S
C5685 C1076 1.790 . S
C5717 C1164 1.790 . S
C5725 C3523 1.328 . S
C5749 C1377 1.852 . S
C5757 C3533 1.505 . S
C5781 C1465 1.900 . S
C5789 C3305 1.492 . S
C5821 C3409 1.702 . S
C5813 C1545 1.889 . S
C5853 C3067 0.862 1_655 S
C5845 C1525 0.987 . S
C5885 C3191 1.388 . S
C5877 C1340 1.747 . S
C5909 C1428 1.131 . S
C5917 C2953 0.925 1_545 S
