# Generated by pormake.
# Topology ptr, (4,4)-cn, num edge types: 1
# Building blocks:
#     Node 0, Type 0, BuildingBlock: UXUYUI_clean_sbu_0, # of connection points: 4
#     Node 1, Type 0, BuildingBlock: UXUYUI_clean_sbu_0, # of connection points: 4
#     Node 2, Type 0, BuildingBlock: UXUYUI_clean_sbu_0, # of connection points: 4
#     Node 3, Type 0, BuildingBlock: UXUYUI_clean_sbu_0, # of connection points: 4
#     Node 4, Type 0, BuildingBlock: UXUYUI_clean_sbu_0, # of connection points: 4
#     Node 5, Type 0, BuildingBlock: UXUYUI_clean_sbu_0, # of connection points: 4
#     Node 6, Type 0, BuildingBlock: UXUYUI_clean_sbu_0, # of connection points: 4
#     Node 7, Type 0, BuildingBlock: UXUYUI_clean_sbu_0, # of connection points: 4
#     Node 8, Type 0, BuildingBlock: UXUYUI_clean_sbu_0, # of connection points: 4
#     Node 9, Type 0, BuildingBlock: UXUYUI_clean_sbu_0, # of connection points: 4
#     Node 10, Type 0, BuildingBlock: UXUYUI_clean_sbu_0, # of connection points: 4
#     Node 11, Type 0, BuildingBlock: UXUYUI_clean_sbu_0, # of connection points: 4
#     Node 12, Type 0, BuildingBlock: UXUYUI_clean_sbu_0, # of connection points: 4
#     Node 13, Type 0, BuildingBlock: UXUYUI_clean_sbu_0, # of connection points: 4
#     Node 14, Type 0, BuildingBlock: UXUYUI_clean_sbu_0, # of connection points: 4
#     Node 15, Type 0, BuildingBlock: UXUYUI_clean_sbu_0, # of connection points: 4
#     Node 16, Type 0, BuildingBlock: UXUYUI_clean_sbu_0, # of connection points: 4
#     Node 17, Type 0, BuildingBlock: UXUYUI_clean_sbu_0, # of connection points: 4
#     Node 18, Type 1, BuildingBlock: KUFVIS_clean_linker_0, # of connection points: 4
#     Node 19, Type 1, BuildingBlock: KUFVIS_clean_linker_0, # of connection points: 4
#     Node 20, Type 1, BuildingBlock: KUFVIS_clean_linker_0, # of connection points: 4
#     Node 21, Type 1, BuildingBlock: KUFVIS_clean_linker_0, # of connection points: 4
#     Node 22, Type 1, BuildingBlock: KUFVIS_clean_linker_0, # of connection points: 4
#     Node 23, Type 1, BuildingBlock: KUFVIS_clean_linker_0, # of connection points: 4
#     Node 24, Type 1, BuildingBlock: KUFVIS_clean_linker_0, # of connection points: 4
#     Node 25, Type 1, BuildingBlock: KUFVIS_clean_linker_0, # of connection points: 4
#     Node 26, Type 1, BuildingBlock: KUFVIS_clean_linker_0, # of connection points: 4
#     Node 27, Type 1, BuildingBlock: KUFVIS_clean_linker_0, # of connection points: 4
#     Node 28, Type 1, BuildingBlock: KUFVIS_clean_linker_0, # of connection points: 4
#     Node 29, Type 1, BuildingBlock: KUFVIS_clean_linker_0, # of connection points: 4
#     Node 30, Type 1, BuildingBlock: KUFVIS_clean_linker_0, # of connection points: 4
#     Node 31, Type 1, BuildingBlock: KUFVIS_clean_linker_0, # of connection points: 4
#     Node 32, Type 1, BuildingBlock: KUFVIS_clean_linker_0, # of connection points: 4
#     Node 33, Type 1, BuildingBlock: KUFVIS_clean_linker_0, # of connection points: 4
#     Node 34, Type 1, BuildingBlock: KUFVIS_clean_linker_0, # of connection points: 4
#     Node 35, Type 1, BuildingBlock: KUFVIS_clean_linker_0, # of connection points: 4
#     Edge 36, Type (0, 1), BuildingBlock: OJICUG_clean_linker_0, # of connection points: 2
#     Edge 37, Type (0, 1), BuildingBlock: OJICUG_clean_linker_0, # of connection points: 2
#     Edge 38, Type (0, 1), BuildingBlock: OJICUG_clean_linker_0, # of connection points: 2
#     Edge 39, Type (0, 1), BuildingBlock: OJICUG_clean_linker_0, # of connection points: 2
#     Edge 40, Type (0, 1), BuildingBlock: OJICUG_clean_linker_0, # of connection points: 2
#     Edge 41, Type (0, 1), BuildingBlock: OJICUG_clean_linker_0, # of connection points: 2
#     Edge 42, Type (0, 1), BuildingBlock: OJICUG_clean_linker_0, # of connection points: 2
#     Edge 43, Type (0, 1), BuildingBlock: OJICUG_clean_linker_0, # of connection points: 2
#     Edge 44, Type (0, 1), BuildingBlock: OJICUG_clean_linker_0, # of connection points: 2
#     Edge 45, Type (0, 1), BuildingBlock: OJICUG_clean_linker_0, # of connection points: 2
#     Edge 46, Type (0, 1), BuildingBlock: OJICUG_clean_linker_0, # of connection points: 2
#     Edge 47, Type (0, 1), BuildingBlock: OJICUG_clean_linker_0, # of connection points: 2
#     Edge 48, Type (0, 1), BuildingBlock: OJICUG_clean_linker_0, # of connection points: 2
#     Edge 49, Type (0, 1), BuildingBlock: OJICUG_clean_linker_0, # of connection points: 2
#     Edge 50, Type (0, 1), BuildingBlock: OJICUG_clean_linker_0, # of connection points: 2
#     Edge 51, Type (0, 1), BuildingBlock: OJICUG_clean_linker_0, # of connection points: 2
#     Edge 52, Type (0, 1), BuildingBlock: OJICUG_clean_linker_0, # of connection points: 2
#     Edge 53, Type (0, 1), BuildingBlock: OJICUG_clean_linker_0, # of connection points: 2
#     Edge 54, Type (0, 1), BuildingBlock: OJICUG_clean_linker_0, # of connection points: 2
#     Edge 55, Type (0, 1), BuildingBlock: OJICUG_clean_linker_0, # of connection points: 2
#     Edge 56, Type (0, 1), BuildingBlock: OJICUG_clean_linker_0, # of connection points: 2
#     Edge 57, Type (0, 1), BuildingBlock: OJICUG_clean_linker_0, # of connection points: 2
#     Edge 58, Type (0, 1), BuildingBlock: OJICUG_clean_linker_0, # of connection points: 2
#     Edge 59, Type (0, 1), BuildingBlock: OJICUG_clean_linker_0, # of connection points: 2
#     Edge 60, Type (0, 1), BuildingBlock: OJICUG_clean_linker_0, # of connection points: 2
#     Edge 61, Type (0, 1), BuildingBlock: OJICUG_clean_linker_0, # of connection points: 2
#     Edge 62, Type (0, 1), BuildingBlock: OJICUG_clean_linker_0, # of connection points: 2
#     Edge 63, Type (0, 1), BuildingBlock: OJICUG_clean_linker_0, # of connection points: 2
#     Edge 64, Type (0, 1), BuildingBlock: OJICUG_clean_linker_0, # of connection points: 2
#     Edge 65, Type (0, 1), BuildingBlock: OJICUG_clean_linker_0, # of connection points: 2
#     Edge 66, Type (0, 1), BuildingBlock: OJICUG_clean_linker_0, # of connection points: 2
#     Edge 67, Type (0, 1), BuildingBlock: OJICUG_clean_linker_0, # of connection points: 2
#     Edge 68, Type (0, 1), BuildingBlock: OJICUG_clean_linker_0, # of connection points: 2
#     Edge 69, Type (0, 1), BuildingBlock: OJICUG_clean_linker_0, # of connection points: 2
#     Edge 70, Type (0, 1), BuildingBlock: OJICUG_clean_linker_0, # of connection points: 2
#     Edge 71, Type (0, 1), BuildingBlock: OJICUG_clean_linker_0, # of connection points: 2
#     Edge 72, Type (0, 1), BuildingBlock: OJICUG_clean_linker_0, # of connection points: 2
#     Edge 73, Type (0, 1), BuildingBlock: OJICUG_clean_linker_0, # of connection points: 2
#     Edge 74, Type (0, 1), BuildingBlock: OJICUG_clean_linker_0, # of connection points: 2
#     Edge 75, Type (0, 1), BuildingBlock: OJICUG_clean_linker_0, # of connection points: 2
#     Edge 76, Type (0, 1), BuildingBlock: OJICUG_clean_linker_0, # of connection points: 2
#     Edge 77, Type (0, 1), BuildingBlock: OJICUG_clean_linker_0, # of connection points: 2
#     Edge 78, Type (0, 1), BuildingBlock: OJICUG_clean_linker_0, # of connection points: 2
#     Edge 79, Type (0, 1), BuildingBlock: OJICUG_clean_linker_0, # of connection points: 2
#     Edge 80, Type (0, 1), BuildingBlock: OJICUG_clean_linker_0, # of connection points: 2
#     Edge 81, Type (0, 1), BuildingBlock: OJICUG_clean_linker_0, # of connection points: 2
#     Edge 82, Type (0, 1), BuildingBlock: OJICUG_clean_linker_0, # of connection points: 2
#     Edge 83, Type (0, 1), BuildingBlock: OJICUG_clean_linker_0, # of connection points: 2
#     Edge 84, Type (0, 1), BuildingBlock: OJICUG_clean_linker_0, # of connection points: 2
#     Edge 85, Type (0, 1), BuildingBlock: OJICUG_clean_linker_0, # of connection points: 2
#     Edge 86, Type (0, 1), BuildingBlock: OJICUG_clean_linker_0, # of connection points: 2
#     Edge 87, Type (0, 1), BuildingBlock: OJICUG_clean_linker_0, # of connection points: 2
#     Edge 88, Type (0, 1), BuildingBlock: OJICUG_clean_linker_0, # of connection points: 2
#     Edge 89, Type (0, 1), BuildingBlock: OJICUG_clean_linker_0, # of connection points: 2
#     Edge 90, Type (0, 1), BuildingBlock: OJICUG_clean_linker_0, # of connection points: 2
#     Edge 91, Type (0, 1), BuildingBlock: OJICUG_clean_linker_0, # of connection points: 2
#     Edge 92, Type (0, 1), BuildingBlock: OJICUG_clean_linker_0, # of connection points: 2
#     Edge 93, Type (0, 1), BuildingBlock: OJICUG_clean_linker_0, # of connection points: 2
#     Edge 94, Type (0, 1), BuildingBlock: OJICUG_clean_linker_0, # of connection points: 2
#     Edge 95, Type (0, 1), BuildingBlock: OJICUG_clean_linker_0, # of connection points: 2
#     Edge 96, Type (0, 1), BuildingBlock: OJICUG_clean_linker_0, # of connection points: 2
#     Edge 97, Type (0, 1), BuildingBlock: OJICUG_clean_linker_0, # of connection points: 2
#     Edge 98, Type (0, 1), BuildingBlock: OJICUG_clean_linker_0, # of connection points: 2
#     Edge 99, Type (0, 1), BuildingBlock: OJICUG_clean_linker_0, # of connection points: 2
#     Edge 100, Type (0, 1), BuildingBlock: OJICUG_clean_linker_0, # of connection points: 2
#     Edge 101, Type (0, 1), BuildingBlock: OJICUG_clean_linker_0, # of connection points: 2
#     Edge 102, Type (0, 1), BuildingBlock: OJICUG_clean_linker_0, # of connection points: 2
#     Edge 103, Type (0, 1), BuildingBlock: OJICUG_clean_linker_0, # of connection points: 2
#     Edge 104, Type (0, 1), BuildingBlock: OJICUG_clean_linker_0, # of connection points: 2
#     Edge 105, Type (0, 1), BuildingBlock: OJICUG_clean_linker_0, # of connection points: 2
#     Edge 106, Type (0, 1), BuildingBlock: OJICUG_clean_linker_0, # of connection points: 2
#     Edge 107, Type (0, 1), BuildingBlock: OJICUG_clean_linker_0, # of connection points: 2
# Relax obj value: 0.092
# Max RMSD: 0.233
# Mean RMSD: 0.128
data_MOF--net-ptr--node1-UXUYUI_clean_sbu_0--node2-KUFVIS_clean_linker_0--edge1-OJICUG_clean_linker_0
_symmetry_space_group_name_H-M    P1
_symmetry_Int_Tables_number       1
_symmetry_cell_setting            triclinic
loop_
_symmetry_equiv_pos_as_xyz
'x, y, z'
_cell_length_a     76.032373
_cell_length_b     76.184902
_cell_length_c     45.092793
_cell_angle_alpha  89.954712
_cell_angle_beta   90.01067
_cell_angle_gamma 120.00032
loop_
_atom_site_label
_atom_site_type_symbol
_atom_site_fract_x
_atom_site_fract_y
_atom_site_fract_z
_atom_type_partial_charge
Li0 Li 1.00249 0.35346 -0.00431 0.0
Li1 Li 0.03865 0.36926 -0.00402 0.0
Li2 Li 0.02323 0.38528 0.02603 0.0
Li3 Li 0.02387 0.38642 0.97068 0.0
C4 C 0.02888 0.34887 0.0458 0.0
N5 N 0.04919 0.3319 0.07368 0.0
C6 C 0.02369 0.32886 0.03973 0.0
C7 C 0.04428 0.36021 0.0662 0.0
C8 C 0.03415 0.32056 0.05406 0.0
C9 C 0.05442 0.35137 0.08 0.0
C10 C 0.02591 0.34827 0.94418 0.0
C11 C 0.04796 0.34576 0.90809 0.0
N12 N 0.03706 0.32521 0.91027 0.0
C13 C 1.01485 0.32711 0.94594 0.0
C14 C 0.04252 0.35768 0.92496 0.0
C15 C 0.02075 0.31573 0.92864 0.0
C16 C 0.96671 0.32541 0.9667 0.0
N17 N 0.97687 0.32861 0.99273 0.0
C18 C 0.95125 0.29619 0.01087 0.0
C19 C 0.96943 0.31457 0.01487 0.0
C20 C 0.94053 0.29243 0.98404 0.0
C21 C 0.94841 0.30748 0.96196 0.0
H22 H 0.97308 0.33669 0.94932 0.0
H23 H 0.97777 0.31748 0.03542 0.0
C24 C 0.07912 0.38045 0.00873 0.0
N25 N 0.06173 0.36493 -0.0027 0.0
C26 C 0.09589 0.37809 0.01433 0.0
C27 C 0.07697 0.34396 -0.0046 0.0
C28 C 0.06049 0.34696 0.9903 0.0
C29 C 0.09487 0.3595 0.00822 0.0
H30 H 0.07967 0.39441 0.01493 0.0
H31 H 0.04643 0.33453 0.9822 0.0
C32 C 0.98056 0.37199 0.9941 0.0
N33 N 0.9393 0.35593 0.98603 0.0
C34 C 0.97309 0.37415 0.96684 0.0
C35 C 0.96706 0.3617 0.01727 0.0
C36 C 0.95217 0.36594 0.96321 0.0
C37 C 0.94625 0.35367 0.01273 0.0
C38 C 0.06076 0.41572 0.9862 0.0
C39 C 0.06262 0.43406 -0.00445 0.0
C40 C 0.07286 0.4156 0.96298 0.0
C41 C 0.07647 0.45201 0.98126 0.0
C42 C 0.08653 0.43386 0.94926 0.0
N43 N 0.08802 0.45153 0.95858 0.0
C44 C 0.04453 0.4142 0.07019 0.0
C45 C 1.00925 0.40266 0.06924 0.0
C46 C 0.04756 0.42845 0.09201 0.0
N47 N 0.02563 0.40175 0.05921 0.0
C48 C 1.01155 0.41655 0.09126 0.0
C49 C 0.03095 0.42986 0.10283 0.0
H50 H 0.05737 0.41346 0.06131 0.0
H51 H 0.99446 0.39287 0.05976 0.0
C52 C 0.02774 0.40012 0.91069 0.0
N53 N 0.02584 0.40409 0.93948 0.0
C54 C 0.02905 0.41348 0.8884 0.0
C55 C 0.02668 0.43484 0.92592 0.0
C56 C 0.02513 0.42094 0.94738 0.0
C57 C 0.02852 0.43117 0.89586 0.0
H58 H 0.02798 0.38646 0.905 0.0
H59 H 0.02339 0.42357 0.97048 0.0
O60 O 0.01924 0.35746 0.03137 0.0
O61 O 0.02018 0.35966 0.96058 0.0
O62 O 1.00093 0.3795 -0.00214 0.0
O63 O 0.047 0.39793 -0.00052 0.0
H64 H 1.01195 0.31996 0.02374 0.0
H65 H 0.04852 0.37574 0.07102 0.0
H66 H 0.03041 0.30514 0.04941 0.0
H67 H 0.06648 0.36001 0.09566 0.0
H68 H 0.06084 0.35285 0.89322 0.0
H69 H 1.00198 0.31954 0.9607 0.0
H70 H 0.05112 0.37401 0.92309 0.0
H71 H 1.01239 0.29935 0.92989 0.0
H72 H 0.94574 0.28497 0.02842 0.0
H73 H 0.94093 0.3051 0.94068 0.0
H74 H 0.10907 0.39037 0.02495 0.0
H75 H 0.0754 0.32936 0.99031 0.0
H76 H 0.9833 0.38194 0.9486 0.0
H77 H 0.97257 0.3596 0.03835 0.0
H78 H 0.94617 0.36744 0.94221 0.0
H79 H 0.93562 0.34554 0.0304 0.0
H80 H 0.05326 0.43442 0.01335 0.0
H81 H 0.07169 0.40155 0.95563 0.0
H82 H 0.07797 0.4663 0.98812 0.0
H83 H 0.09594 0.43398 0.93118 0.0
H84 H 0.06284 0.43853 0.09984 0.0
H85 H 0.99822 0.41676 0.0992 0.0
H86 H 0.02997 0.40969 0.86553 0.0
H87 H 0.02642 0.4483 0.93289 0.0
Li88 Li 0.67126 0.65176 -0.00012 0.0
Li89 Li 0.65411 0.67206 -0.00064 0.0
Li90 Li 0.63825 0.6381 0.02631 0.0
Li91 Li 0.63795 0.63971 0.97259 0.0
C92 C 0.67856 0.67162 0.0562 0.0
N93 N 0.70731 0.68798 0.10071 0.0
C94 C 0.69168 0.69257 0.05774 0.0
C95 C 0.67986 0.65904 0.0776 0.0
C96 C 0.70617 0.70053 0.08032 0.0
C97 C 0.69456 0.66758 0.09984 0.0
C98 C 0.67537 0.68007 0.94622 0.0
C99 C 0.67562 0.70255 0.9083 0.0
N100 N 0.69628 0.71274 0.90858 0.0
C101 C 0.6966 0.69065 0.94593 0.0
C102 C 0.66478 0.68594 0.92707 0.0
C103 C 0.70689 0.70716 0.92681 0.0
C104 C 0.69876 0.63873 0.98343 0.0
N105 N 0.69744 0.65346 -0.00148 0.0
C106 C 0.73346 0.67154 0.00626 0.0
C107 C 0.7143 0.66958 0.01017 0.0
C108 C 0.7354 0.65687 0.98996 0.0
C109 C 0.7176 0.64009 0.97894 0.0
H110 H 0.68521 0.62623 0.97395 0.0
H111 H 0.71309 0.68141 0.0214 0.0
C112 C 0.64331 0.70111 0.01458 0.0
N113 N 0.65836 0.69906 0.0018 0.0
C114 C 0.64613 0.72034 0.02059 0.0
C115 C 0.67968 0.73512 -0.00078 0.0
C116 C 0.67623 0.71558 0.99375 0.0
C117 C 0.66471 0.73772 0.01353 0.0
H118 H 0.62939 0.68777 0.02132 0.0
H119 H 0.68823 0.71369 0.98441 0.0
C120 C 0.64537 0.60714 0.01079 0.0
N121 N 0.64239 0.57314 0.03766 0.0
C122 C 0.62994 0.58782 0.00256 0.0
C123 C 0.65944 0.60914 0.03237 0.0
C124 C 0.62864 0.57083 0.0165 0.0
C125 C 0.65764 0.59179 0.04577 0.0
C126 C 0.60814 0.64748 0.98782 0.0
C127 C 0.58916 0.63119 -0.00446 0.0
C128 C 0.60944 0.66129 0.9663 0.0
C129 C 0.57181 0.62872 0.98108 0.0
C130 C 0.59175 0.65832 0.95237 0.0
N131 N 0.57346 0.64221 0.95995 0.0
C132 C 0.62472 0.62991 0.08645 0.0
C133 C 0.60534 0.60388 0.05192 0.0
C134 C 0.61153 0.61854 0.10936 0.0
N135 N 0.62146 0.62239 0.05844 0.0
C136 C 0.59173 0.59203 0.07409 0.0
C137 C 0.59466 0.59934 0.1033 0.0
H138 H 0.6374 0.64484 0.09096 0.0
H139 H 0.60279 0.5985 0.02929 0.0
C140 C 0.62589 0.63038 0.91157 0.0
N141 N 0.621 0.62458 0.94028 0.0
C142 C 0.6128 0.61868 0.88877 0.0
C143 C 0.58994 0.59534 0.92556 0.0
C144 C 0.60348 0.60743 0.94757 0.0
C145 C 0.59454 0.60084 0.89563 0.0
H146 H 0.64004 0.64393 0.90633 0.0
H147 H 0.60002 0.60316 0.97061 0.0
O148 O 0.66418 0.6636 0.03433 0.0
O149 O 0.66505 0.66384 0.96476 0.0
O150 O 0.64679 0.62397 -0.00247 0.0
O151 O 0.62535 0.64998 0.00137 0.0
H152 H 0.6908 0.70256 0.04155 0.0
H153 H 0.66952 0.64286 0.07726 0.0
H154 H 0.71651 0.7167 0.08164 0.0
H155 H 0.69576 0.658 0.11649 0.0
H156 H 0.66762 0.7073 0.89345 0.0
H157 H 0.70505 0.68623 0.96038 0.0
H158 H 0.64838 0.67775 0.92658 0.0
H159 H 0.72332 0.71554 0.92648 0.0
H160 H 0.74667 0.68471 0.01523 0.0
H161 H 0.71827 0.62861 0.96565 0.0
H162 H 0.63429 0.72146 0.03227 0.0
H163 H 0.69422 0.74802 0.99331 0.0
H164 H 0.61905 0.58596 0.98566 0.0
H165 H 0.6717 0.62393 0.03856 0.0
H166 H 0.6167 0.55579 0.01047 0.0
H167 H 0.66841 0.59314 0.06256 0.0
H168 H 0.58784 0.62047 0.01234 0.0
H169 H 0.62394 0.67421 0.96053 0.0
H170 H 0.55704 0.61608 0.98667 0.0
H171 H 0.59256 0.66884 0.93558 0.0
H172 H 0.61459 0.62472 0.13159 0.0
H173 H 0.57881 0.5775 0.06824 0.0
H174 H 0.61719 0.62331 0.86599 0.0
H175 H 0.57601 0.58186 0.93195 0.0
Li176 Li 0.39128 1.00849 0.98087 0.0
Li177 Li 0.39275 0.01243 0.03586 0.0
Li178 Li 0.35972 0.99051 0.0093 0.0
Li179 Li 0.37713 0.02704 0.00515 0.0
C180 C 0.37994 0.96926 -0.00097 0.0
N181 N 0.37139 0.93291 0.9734 0.0
C182 C 0.38647 0.95701 0.01258 0.0
C183 C 0.36911 0.96305 0.9724 0.0
C184 C 0.38198 0.93868 -0.00072 0.0
C185 C 0.36492 0.94461 0.95981 0.0
C186 C 0.41662 0.05351 -0.00188 0.0
C187 C 0.42882 0.08845 0.01114 0.0
N188 N 0.43701 0.09423 0.9836 0.0
C189 C 0.42529 0.05982 0.97002 0.0
C190 C 0.41853 0.06796 0.01895 0.0
C191 C 0.43551 0.08047 0.96309 0.0
C192 C 0.40308 0.01137 0.92084 0.0
N193 N 0.40655 1.00712 0.94874 0.0
C194 C 0.43457 1.00377 0.932 0.0
C195 C 0.42173 1.00311 0.95468 0.0
C196 C 0.43184 1.00885 0.90311 0.0
C197 C 0.41563 0.01233 0.89756 0.0
H198 H 0.39096 0.01461 0.91688 0.0
H199 H 0.42416 0.9999 0.97721 0.0
C200 C 0.40587 0.99746 0.08267 0.0
N201 N 0.40932 0.01473 0.06882 0.0
C202 C 0.41903 0.99819 0.10486 0.0
C203 C 0.43875 0.03456 0.09865 0.0
C204 C 0.42538 0.03308 0.07625 0.0
C205 C 0.43578 0.01692 0.11297 0.0
H206 H 0.3931 0.98306 0.07605 0.0
H207 H 0.42803 0.04652 0.06444 0.0
C208 C 0.34735 1.00574 0.96247 0.0
N209 N 0.31192 1.00358 0.94273 0.0
C210 C 0.33423 1.00733 0.98257 0.0
C211 C 0.34249 1.0031 0.93232 0.0
C212 C 0.31639 1.00619 0.97216 0.0
C213 C 0.32449 1.00203 0.92277 0.0
C214 C 0.36049 0.0181 0.06478 0.0
C215 C 0.33994 0.01041 0.07125 0.0
C216 C 0.37529 0.03346 0.08243 0.0
C217 C 0.33453 0.0185 0.09501 0.0
C218 C 0.36926 0.04114 0.106 0.0
N219 N 0.34918 0.03358 0.11174 0.0
C220 C 0.33098 0.95669 0.04066 0.0
C221 C 0.32047 0.95693 0.99129 0.0
C222 C 0.31294 0.9387 0.04656 0.0
N223 N 0.33434 0.96555 0.01351 0.0
C224 C 0.30203 0.93904 -0.00363 0.0
C225 C 0.29805 0.92971 0.02438 0.0
H226 H 0.3423 0.9638 0.05788 0.0
H227 H 0.32358 0.96395 0.96965 0.0
C228 C 0.37926 0.05851 0.97133 0.0
N229 N 0.37377 0.0504 -0.00105 0.0
C230 C 0.3786 0.07591 0.96366 0.0
C231 C 0.36567 0.07599 0.01252 0.0
C232 C 0.36692 0.0587 0.01946 0.0
C233 C 0.37178 0.08493 0.98437 0.0
H234 H 0.38431 0.05147 0.95522 0.0
H235 H 0.36236 0.05202 0.04116 0.0
O236 O 0.3842 0.98724 0.01182 0.0
O237 O 0.40621 0.03331 0.00509 0.0
O238 O 0.36499 1.00693 0.97205 0.0
O239 O 0.36602 0.0102 0.04177 0.0
H240 H 0.39493 0.96164 0.03315 0.0
H241 H 0.36398 0.97234 0.96153 0.0
H242 H 0.38693 0.92904 0.00953 0.0
H243 H 0.35653 0.93961 0.93924 0.0
H244 H 0.43021 0.09976 0.02694 0.0
H245 H 0.42407 0.04892 0.95364 0.0
H246 H 0.41177 0.06339 0.0407 0.0
H247 H 0.44219 0.08554 0.94137 0.0
H248 H 0.44696 1.00113 0.93723 0.0
H249 H 0.41285 0.01606 0.8755 0.0
H250 H 0.41611 0.98429 0.11567 0.0
H251 H 0.45155 0.04925 0.10421 0.0
H252 H 0.33778 1.00946 0.00592 0.0
H253 H 0.3525 1.00186 0.91646 0.0
H254 H 0.3061 1.0074 0.98749 0.0
H255 H 0.32051 0.99996 0.89949 0.0
H256 H 0.3283 0.9983 0.05808 0.0
H257 H 0.39123 0.03944 0.07792 0.0
H258 H 0.31869 0.01276 0.1002 0.0
H259 H 0.38055 0.0531 0.11975 0.0
H260 H 0.3104 0.93225 0.06863 0.0
H261 H 0.29099 0.93258 0.97864 0.0
H262 H 0.38297 0.08199 0.94145 0.0
H263 H 0.36012 0.08237 0.02901 0.0
Li264 Li 0.03051 0.66602 0.01107 0.0
Li265 Li 1.00924 0.63222 0.03644 0.0
Li266 Li 1.01284 0.63386 0.98348 0.0
Li267 Li 0.99178 0.64519 0.00679 0.0
C268 C 0.04768 0.63766 0.00027 0.0
N269 N 0.07255 0.62657 0.9711 0.0
C270 C 0.04554 0.61858 0.00522 0.0
C271 C 0.06251 0.65114 0.98061 0.0
C272 C 0.05826 0.61324 0.99021 0.0
C273 C 0.07493 0.64524 0.96606 0.0
C274 C 1.00943 0.65809 0.07301 0.0
C275 C 0.99236 0.64779 0.12024 0.0
N276 N 1.01069 0.6564 0.13413 0.0
C277 C 0.02809 0.66689 0.08773 0.0
C278 C 0.9914 0.6485 0.08935 0.0
C279 C 0.02841 0.66587 0.11865 0.0
C280 C 0.05315 0.70905 0.00373 0.0
N281 N 0.05393 0.69265 0.01395 0.0
C282 C 0.08812 0.71394 0.03047 0.0
C283 C 0.07102 0.69473 0.02684 0.0
C284 C 0.08779 0.73131 0.02053 0.0
C285 C 0.07001 0.72855 0.00655 0.0
H286 H 0.03937 0.70698 0.9935 0.0
H287 H 0.07122 0.68146 0.03497 0.0
C288 C 0.99085 0.59993 0.07852 0.0
N289 N 1.00864 0.61612 0.06946 0.0
C290 C 0.99077 0.5866 0.09988 0.0
C291 C 0.02735 0.60681 0.10228 0.0
C292 C 0.0267 0.61986 0.08106 0.0
C293 C 1.00922 0.58979 0.11174 0.0
H294 H 0.97674 0.59695 0.06858 0.0
H295 H 0.04067 0.63269 0.07321 0.0
C296 C 0.01663 0.66362 0.94575 0.0
N297 N 0.0242 0.67191 0.8859 0.0
C298 C 1.00143 0.65259 0.92491 0.0
C299 C 0.03571 0.67884 0.93609 0.0
C300 C 1.00555 0.657 0.89477 0.0
C301 C 0.03923 0.68282 0.90576 0.0
C302 C 0.9675 0.60552 0.00335 0.0
C303 C 0.95942 0.59509 0.97678 0.0
C304 C 0.95437 0.60404 0.02617 0.0
C305 C 0.93837 0.58327 0.97359 0.0
C306 C 0.93341 0.59209 0.0221 0.0
N307 N 0.92591 0.58203 -0.00388 0.0
C308 C 1.00622 0.59812 0.95677 0.0
C309 C 0.02667 0.62681 0.92696 0.0
C310 C 1.00702 0.58524 0.93551 0.0
N311 N 1.01551 0.61844 0.95187 0.0
C312 C 0.02773 0.6145 0.90496 0.0
C313 C 0.01763 0.59335 0.90892 0.0
H314 H 0.99817 0.59189 0.97734 0.0
H315 H 0.03489 0.64301 0.92407 0.0
C316 C 0.96334 0.6584 0.02179 0.0
N317 N 0.96787 0.64765 0.00219 0.0
C318 C 0.94632 0.66067 0.01721 0.0
C319 C 0.93873 0.64031 0.97296 0.0
C320 C 0.95594 0.63873 0.97812 0.0
C321 C 0.93379 0.65157 0.99242 0.0
H322 H 0.97314 0.66554 0.04065 0.0
H323 H 0.95987 0.63048 0.96263 0.0
O324 O 0.03499 0.64293 0.01405 0.0
O325 O 1.00883 0.65844 0.04272 0.0
O326 O 1.01283 0.65974 0.9754 0.0
O327 O 0.9881 0.61733 0.00684 0.0
H328 H 0.03401 0.60792 0.0202 0.0
H329 H 0.0642 0.66589 0.97633 0.0
H330 H 0.0567 0.59848 0.99367 0.0
H331 H 0.0864 0.65546 0.95064 0.0
H332 H 0.97854 0.64036 0.13317 0.0
H333 H 0.04217 0.67425 0.0754 0.0
H334 H 0.97683 0.64163 0.07831 0.0
H335 H 0.04275 0.67253 0.13034 0.0
H336 H 0.10114 0.71513 0.04204 0.0
H337 H 0.06897 0.74132 -0.00181 0.0
H338 H 0.97646 0.5736 0.10641 0.0
H339 H 0.04189 0.61001 0.11119 0.0
H340 H 0.98673 0.64052 0.93183 0.0
H341 H 0.04778 0.68735 0.95175 0.0
H342 H 0.99395 0.64851 0.87842 0.0
H343 H 0.05393 0.69452 0.89801 0.0
H344 H 0.96922 0.59637 0.95856 0.0
H345 H 0.96026 0.61236 0.04659 0.0
H346 H 0.93193 0.57519 0.95312 0.0
H347 H 0.92311 0.59092 0.03953 0.0
H348 H 0.99946 0.56912 0.93994 0.0
H349 H 0.03608 0.62152 0.88485 0.0
H350 H 0.94315 0.66963 0.03263 0.0
H351 H 0.92985 0.63346 0.95316 0.0
Li352 Li 0.36161 0.37007 0.00469 0.0
Li353 Li 0.39282 0.38122 0.03281 0.0
Li354 Li 0.39402 0.38332 0.97814 0.0
Li355 Li 0.37915 0.35001 0.00343 0.0
C356 C 0.38227 0.41077 0.02328 0.0
N357 N 0.37555 0.4369 0.05752 0.0
C358 C 0.36976 0.40357 0.04827 0.0
C359 C 0.39138 0.43126 0.0157 0.0
C360 C 0.36655 0.41701 0.06529 0.0
C361 C 0.38779 0.44424 0.03329 0.0
C362 C 0.36419 0.3474 0.06532 0.0
C363 C 0.37437 0.33153 0.10255 0.0
N364 N 0.36023 0.33119 0.12138 0.0
C365 C 0.34964 0.34675 0.08494 0.0
C366 C 0.37657 0.33962 0.07409 0.0
C367 C 0.34792 0.33855 0.11323 0.0
C368 C 0.31987 0.35061 0.0169 0.0
N369 N 0.33537 0.36801 0.00554 0.0
C370 C 0.3138 0.38248 0.0019 0.0
C371 C 0.33259 0.38366 -0.00261 0.0
C372 C 0.29769 0.36497 0.01471 0.0
C373 C 0.30085 0.34874 0.02163 0.0
H374 H 0.32252 0.33844 0.02333 0.0
H375 H 0.34514 0.39735 0.98836 0.0
C376 C 0.42848 0.4098 0.0605 0.0
N377 N 0.40866 0.39613 0.06611 0.0
C378 C 0.44082 0.42308 0.08264 0.0
C379 C 0.41214 0.40778 0.11606 0.0
C380 C 0.40039 0.39479 0.09331 0.0
C381 C 0.43256 0.42241 0.11073 0.0
H382 H 0.43455 0.41079 0.03847 0.0
H383 H 0.38452 0.38416 0.09714 0.0
C384 C 0.35874 0.36078 0.94465 0.0
N385 N 0.34052 0.36629 0.89526 0.0
C386 C 0.3472 0.34456 0.9256 0.0
C387 C 0.36102 0.37982 0.93859 0.0
C388 C 0.33811 0.34765 0.90073 0.0
C389 C 0.35168 0.38228 0.91351 0.0
C390 C 0.42334 0.37013 0.00668 0.0
C391 C 0.43426 0.37131 0.98108 0.0
C392 C 0.42942 0.36632 0.03403 0.0
C393 C 0.45083 0.3682 0.9832 0.0
C394 C 0.44609 0.36332 0.03523 0.0
N395 N 0.45634 0.36429 0.01 0.0
C396 C 0.42582 0.41852 0.95314 0.0
C397 C 0.41014 0.39097 0.91959 0.0
C398 C 0.44006 0.43052 0.93168 0.0
N399 N 0.41131 0.39917 0.94675 0.0
C400 C 0.42404 0.40242 0.89746 0.0
C401 C 0.43939 0.42245 0.90342 0.0
H402 H 0.42655 0.42449 0.97515 0.0
H403 H 0.39861 0.37543 0.91526 0.0
C404 C 0.36016 0.30715 0.01392 0.0
N405 N 0.37579 0.32336 0.00017 0.0
C406 C 0.35705 0.28759 0.00948 0.0
C407 C 0.38636 0.30185 0.97729 0.0
C408 C 0.38877 0.32102 0.98211 0.0
C409 C 0.3702 0.28473 0.99076 0.0
H410 H 0.34978 0.30933 0.02776 0.0
H411 H 0.4006 0.33396 0.97057 0.0
O412 O 0.38579 0.39794 0.00637 0.0
O413 O 0.36617 0.35555 0.03765 0.0
O414 O 0.36769 0.35793 0.96908 0.0
O415 O 0.40719 0.37332 0.005 0.0
H416 H 0.3626 0.38777 0.05448 0.0
H417 H 0.40113 0.43706 -0.00357 0.0
H418 H 0.3569 0.41163 0.08469 0.0
H419 H 0.39474 0.46014 0.0277 0.0
H420 H 0.38388 0.32548 0.10964 0.0
H421 H 0.33988 0.35265 0.07844 0.0
H422 H 0.38765 0.3397 0.05901 0.0
H423 H 0.33681 0.33805 0.12871 0.0
H424 H 0.31205 0.39532 -0.00391 0.0
H425 H 0.28907 0.33509 0.03206 0.0
H426 H 0.45639 0.43424 0.07749 0.0
H427 H 0.4052 0.40657 0.1375 0.0
H428 H 0.34531 0.32974 0.93001 0.0
H429 H 0.36993 0.39257 0.95301 0.0
H430 H 0.32914 0.33523 0.88578 0.0
H431 H 0.35332 0.39692 0.90856 0.0
H432 H 0.42986 0.37443 0.95977 0.0
H433 H 0.4215 0.36588 0.05418 0.0
H434 H 0.45932 0.36892 0.96354 0.0
H435 H 0.45093 0.36031 0.05625 0.0
H436 H 0.45171 0.44577 0.93737 0.0
H437 H 0.42271 0.39565 0.87586 0.0
H438 H 0.34431 0.27482 0.02013 0.0
H439 H 0.39651 0.30037 0.96196 0.0
Li440 Li 0.65701 0.99312 0.01225 0.0
Li441 Li 0.64461 0.01268 0.03971 0.0
Li442 Li 0.64553 0.0131 0.9837 0.0
Li443 Li 0.6776 0.03144 0.01247 0.0
C444 C 0.61536 0.97043 0.00942 0.0
N445 N 0.58655 0.92979 0.00601 0.0
C446 C 0.60582 0.9596 0.03514 0.0
C447 C 0.61002 0.96071 0.98192 0.0
C448 C 0.59136 0.93902 0.03297 0.0
C449 C 0.59547 0.94013 0.98067 0.0
C450 C 0.67788 0.01863 0.07436 0.0
C451 C 0.69259 0.04536 0.11073 0.0
N452 N 0.69299 0.03212 0.13061 0.0
C453 C 0.67858 1.00532 0.09506 0.0
C454 C 0.68504 0.03883 0.08216 0.0
C455 C 0.68622 0.01242 0.12343 0.0
C456 C 0.66678 0.96229 0.99495 0.0
N457 N 0.65765 0.96835 0.01522 0.0
C458 C 0.64918 0.9394 0.04545 0.0
C459 C 0.64899 0.95733 0.04012 0.0
C460 C 0.65871 0.9328 0.02522 0.0
C461 C 0.66754 0.94447 -0.00041 0.0
H462 H 0.67389 0.97148 0.97556 0.0
H463 H 0.64234 0.96278 0.05627 0.0
C464 C 0.61366 0.01712 0.06541 0.0
N465 N 0.62764 0.01147 0.07151 0.0
C466 C 0.59883 0.0141 0.08632 0.0
C467 C 0.61325 0.99973 0.11952 0.0
C468 C 0.62773 1.00294 0.09793 0.0
C469 C 0.59831 1.00504 0.11371 0.0
H470 H 0.61364 0.02338 0.04388 0.0
H471 H 0.63858 0.99801 0.10194 0.0
C472 C 0.67463 0.01087 0.9493 0.0
N473 N 0.68125 1.00859 0.88955 0.0
C474 C 0.69034 0.02753 0.93468 0.0
C475 C 0.66243 0.993 0.93363 0.0
C476 C 0.69341 0.02608 0.90443 0.0
C477 C 0.66597 0.99216 0.9034 0.0
C478 C 0.65603 0.05452 0.01381 0.0
C479 C 0.65587 0.06467 0.98807 0.0
C480 C 0.65776 0.06351 0.04147 0.0
C481 C 0.6579 0.08388 0.9904 0.0
C482 C 0.65972 0.08272 0.04288 0.0
N483 N 0.65978 0.09244 0.01753 0.0
C484 C 0.6106 1.00825 0.95663 0.0
C485 C 0.63911 0.0233 0.92464 0.0
C486 C 0.59849 0.0103 0.93516 0.0
N487 N 0.63049 0.01471 0.95105 0.0
C488 C 0.62752 0.02542 0.90241 0.0
C489 C 0.60692 0.01906 0.90757 0.0
H490 H 0.60424 1.0019 0.97809 0.0
H491 H 0.65506 0.02891 0.92094 0.0
C492 C 0.72049 0.05508 0.02423 0.0
N493 N 0.70439 0.05493 0.01077 0.0
C494 C 0.74024 0.07131 0.01977 0.0
C495 C 0.72639 0.08716 0.98848 0.0
C496 C 0.70701 0.07064 0.99338 0.0
C497 C 0.74344 0.08754 0.00127 0.0
H498 H 0.71809 0.04228 0.03763 0.0
H499 H 0.69416 0.0699 0.98207 0.0
O500 O 0.62964 0.99054 0.01114 0.0
O501 O 0.67027 0.01186 0.0466 0.0
O502 O 0.67135 0.01206 0.97885 0.0
O503 O 0.65384 0.03561 0.01194 0.0
H504 H 0.60967 0.96696 0.05658 0.0
H505 H 0.61695 0.969 0.96176 0.0
H506 H 0.58397 0.9304 0.05271 0.0
H507 H 0.59124 0.93238 0.95954 0.0
H508 H 0.69816 0.06095 0.11708 0.0
H509 H 0.67316 0.98965 0.08931 0.0
H510 H 0.68489 0.04938 0.06628 0.0
H511 H 0.68675 1.00228 0.13974 0.0
H512 H 0.6427 0.93127 0.06593 0.0
H513 H 0.67519 0.94003 0.98356 0.0
H514 H 0.58751 0.01822 0.08068 0.0
H515 H 0.61368 0.99299 0.14046 0.0
H516 H 0.7 0.04143 0.94652 0.0
H517 H 0.65036 0.97992 0.94469 0.0
H518 H 0.70545 0.03887 0.89279 0.0
H519 H 0.65659 0.97845 0.89096 0.0
H520 H 0.65438 0.05786 0.96649 0.0
H521 H 0.6574 0.05567 0.06167 0.0
H522 H 0.65795 0.09197 0.97064 0.0
H523 H 0.66113 0.08988 0.06414 0.0
H524 H 0.58282 1.00545 0.94043 0.0
H525 H 0.63469 0.03198 0.88139 0.0
H526 H 0.75291 0.07091 0.03004 0.0
H527 H 0.72805 0.09896 0.97338 0.0
Li528 Li 0.6652 0.68309 0.34197 0.0
Li529 Li 0.70226 0.70395 0.34408 0.0
Li530 Li 0.67938 0.71447 0.36848 0.0
Li531 Li 0.68232 0.71635 0.31472 0.0
C532 C 0.67638 0.67361 0.39376 0.0
N533 N 0.66253 0.63797 0.42532 0.0
C534 C 0.68726 0.66328 0.39332 0.0
C535 C 0.65865 0.66599 0.41066 0.0
C536 C 0.67996 0.64525 0.40932 0.0
C537 C 0.65183 0.6479 0.42633 0.0
C538 C 0.69686 0.69464 0.28352 0.0
C539 C 0.72626 0.71635 0.2539 0.0
N540 N 0.72079 0.70104 0.23408 0.0
C541 C 0.69153 0.67912 0.26288 0.0
C542 C 0.71436 0.71343 0.27904 0.0
C543 C 0.70383 0.68265 0.23802 0.0
C544 C 0.62439 0.65266 0.33222 0.0
N545 N 0.6431 0.65561 0.33898 0.0
C546 C 0.63061 0.61988 0.33609 0.0
C547 C 0.64642 0.63969 0.34112 0.0
C548 C 0.61123 0.61639 0.32794 0.0
C549 C 0.60823 0.63318 0.32661 0.0
H550 H 0.62218 0.66554 0.32988 0.0
H551 H 0.66151 0.64238 0.34575 0.0
C552 C 0.74359 0.71725 0.36074 0.0
N553 N 0.72727 0.70294 0.34551 0.0
C554 C 0.76103 0.71569 0.36401 0.0
C555 C 0.74498 0.68491 0.33518 0.0
C556 C 0.72781 0.68712 0.3324 0.0
C557 C 0.76184 0.69917 0.35158 0.0
H558 H 0.74293 0.72959 0.37125 0.0
H559 H 0.71463 0.67579 0.32056 0.0
C560 C 0.64349 0.70849 0.35095 0.0
N561 N 0.61664 0.71835 0.37693 0.0
C562 C 0.64188 0.72486 0.34029 0.0
C563 C 0.63119 0.69693 0.37448 0.0
C564 C 0.62828 0.72966 0.3538 0.0
C565 C 0.61778 0.70221 0.38742 0.0
C566 C 0.71941 0.74827 0.35554 0.0
C567 C 0.72369 0.74936 0.38585 0.0
C568 C 0.73096 0.7651 0.33745 0.0
C569 C 0.73943 0.76734 0.3976 0.0
C570 C 0.7466 0.7828 0.35003 0.0
N571 N 0.75046 0.78355 0.3796 0.0
C572 C 0.67293 0.72311 0.42836 0.0
C573 C 0.67799 0.74765 0.39198 0.0
C574 C 0.67104 0.73494 0.45046 0.0
N575 N 0.67638 0.72967 0.39981 0.0
C576 C 0.67604 0.75986 0.41324 0.0
C577 C 0.67265 0.75366 0.44305 0.0
H578 H 0.67191 0.70884 0.43404 0.0
H579 H 0.68084 0.75253 0.36908 0.0
C580 C 0.67564 0.72435 0.25486 0.0
N581 N 0.68189 0.73224 0.28241 0.0
C582 C 0.67378 0.73605 0.23249 0.0
C583 C 0.68491 0.76374 0.26723 0.0
C584 C 0.68666 0.75156 0.28883 0.0
C585 C 0.67819 0.75598 0.23863 0.0
H586 H 0.67177 0.70888 0.2504 0.0
H587 H 0.69117 0.75729 0.31113 0.0
O588 O 0.68331 0.6913 0.37822 0.0
O589 O 0.68491 0.69135 0.30793 0.0
O590 O 0.65706 0.70383 0.33846 0.0
O591 O 0.70382 0.73095 0.34361 0.0
H592 H 0.70113 0.66906 0.3807 0.0
H593 H 0.65024 0.67395 0.41174 0.0
H594 H 0.68816 0.63704 0.40902 0.0
H595 H 0.63806 0.64177 0.43936 0.0
H596 H 0.73984 0.73081 0.25015 0.0
H597 H 0.67802 0.66449 0.26607 0.0
H598 H 0.71876 0.72563 0.29475 0.0
H599 H 0.69988 0.67077 0.22185 0.0
H600 H 0.63374 0.60753 0.33765 0.0
H601 H 0.59385 0.63153 0.31969 0.0
H602 H 0.77338 0.72685 0.37742 0.0
H603 H 0.74486 0.67195 0.32514 0.0
H604 H 0.65109 0.73385 0.32191 0.0
H605 H 0.63199 0.68403 0.38268 0.0
H606 H 0.62699 0.74238 0.34591 0.0
H607 H 0.60828 0.69346 0.40579 0.0
H608 H 0.71508 0.73638 0.40011 0.0
H609 H 0.72794 0.76446 0.3139 0.0
H610 H 0.74291 0.7684 0.42102 0.0
H611 H 0.75567 0.79593 0.33629 0.0
H612 H 0.66885 0.72968 0.47319 0.0
H613 H 0.67718 0.77401 0.40634 0.0
H614 H 0.66889 0.72951 0.21065 0.0
H615 H 0.68823 0.77886 0.27316 0.0
Li616 Li 0.30375 0.97284 0.3052 0.0
Li617 Li 0.30408 0.97106 0.35945 0.0
Li618 Li 0.32006 1.00389 0.33209 0.0
Li619 Li 0.33659 0.98358 0.3311 0.0
C620 C 0.27249 0.97671 0.32242 0.0
N621 N 0.23475 0.96338 0.29725 0.0
C622 C 0.25497 0.96198 0.33672 0.0
C623 C 0.27078 0.98485 0.2955 0.0
C624 C 0.23604 0.95541 0.3236 0.0
C625 C 0.25158 0.97785 0.28306 0.0
C626 C 0.31214 0.93976 0.32253 0.0
C627 C 0.31109 0.90843 0.33484 0.0
N628 N 0.31349 0.90558 0.30568 0.0
C629 C 0.31444 0.93644 0.29266 0.0
C630 C 0.31031 0.92558 0.34379 0.0
C631 C 0.31515 0.91911 0.28459 0.0
C632 C 0.29053 0.96358 0.24467 0.0
N633 N 0.28652 0.95737 0.27334 0.0
C634 C 0.25603 0.92731 0.25932 0.0
C635 C 0.26977 0.93962 0.28096 0.0
C636 C 0.25974 0.93314 0.22937 0.0
C637 C 0.2773 0.9516 0.22219 0.0
H638 H 0.30406 0.97771 0.23925 0.0
H639 H 0.26705 0.93507 0.30401 0.0
C640 C 0.2887 0.96396 0.41841 0.0
N641 N 0.28773 0.95539 0.39162 0.0
C642 C 0.2752 0.95252 0.44095 0.0
C643 C 0.26 0.92371 0.40788 0.0
C644 C 0.2739 0.93566 0.38607 0.0
C645 C 0.26039 0.93215 0.43574 0.0
H646 H 0.29974 0.97975 0.42209 0.0
H647 H 0.27326 0.9294 0.36431 0.0
C648 C 0.34202 0.01536 0.28477 0.0
N649 N 0.36422 0.05425 0.26252 0.0
C650 C 0.36249 0.02748 0.2923 0.0
C651 C 0.33286 0.02294 0.26579 0.0
C652 C 0.37345 0.04712 0.28084 0.0
C653 C 0.34434 0.04267 0.25482 0.0
C654 C 0.33968 0.99348 0.39206 0.0
C655 C 0.34919 1.00934 0.4124 0.0
C656 C 0.33854 0.97492 0.3979 0.0
C657 C 0.3575 1.00638 0.43827 0.0
C658 C 0.34703 0.97256 0.42401 0.0
N659 N 0.35626 0.98821 0.44349 0.0
C660 C 0.31019 0.03549 0.32791 0.0
C661 C 0.34309 0.0456 0.34622 0.0
C662 C 0.313 0.05483 0.33311 0.0
N663 N 0.32503 0.03118 0.33488 0.0
C664 C 0.34657 0.06514 0.35173 0.0
C665 C 0.33125 0.06989 0.34575 0.0
H666 H 0.29587 0.02376 0.31926 0.0
H667 H 0.35455 0.04172 0.35194 0.0
C668 C 0.36486 0.97449 0.30475 0.0
N669 N 0.36226 0.98385 0.32863 0.0
C670 C 0.38318 0.97474 0.30034 0.0
C671 C 0.39628 0.99469 0.34482 0.0
C672 C 0.37761 0.99396 0.34847 0.0
C673 C 0.39931 0.98505 0.32039 0.0
H674 H 0.35296 0.96741 0.28846 0.0
H675 H 0.37568 1.00198 0.36675 0.0
O676 O 0.2912 0.98306 0.33468 0.0
O677 O 0.31109 0.95649 0.33088 0.0
O678 O 0.33092 0.9963 0.29638 0.0
O679 O 0.3313 0.99612 0.36682 0.0
H680 H 0.25595 0.95569 0.35773 0.0
H681 H 0.28416 0.99617 0.28402 0.0
H682 H 0.22237 0.94395 0.33438 0.0
H683 H 0.25007 0.98386 0.26208 0.0
H684 H 0.30974 0.89736 0.35107 0.0
H685 H 0.31588 0.94723 0.27588 0.0
H686 H 0.30825 0.92775 0.36698 0.0
H687 H 0.31705 0.91642 0.26157 0.0
H688 H 0.24265 0.91341 0.26605 0.0
H689 H 0.28106 0.95656 0.1994 0.0
H690 H 0.27638 0.95959 0.46224 0.0
H691 H 0.24876 0.90821 0.40267 0.0
H692 H 0.36977 0.02187 0.30709 0.0
H693 H 0.31704 0.01376 0.25975 0.0
H694 H 0.38927 0.05671 0.28659 0.0
H695 H 0.33743 0.04878 0.24022 0.0
H696 H 0.35012 0.02378 0.40823 0.0
H697 H 0.33127 0.96252 0.38241 0.0
H698 H 0.36492 0.01853 0.45421 0.0
H699 H 0.34629 0.95828 0.42878 0.0
H700 H 0.30081 0.05779 0.32803 0.0
H701 H 0.36074 0.07607 0.36203 0.0
H702 H 0.38496 0.96768 0.28061 0.0
H703 H 0.40832 1.00301 0.3607 0.0
Li704 Li 0.05704 0.34001 0.30667 0.0
Li705 Li 0.05698 0.34016 0.3619 0.0
Li706 Li 0.02534 0.32056 0.33513 0.0
Li707 Li 0.04103 0.35718 0.33659 0.0
C708 C 0.04211 0.29749 0.3291 0.0
N709 N 0.02438 0.25635 0.31922 0.0
C710 C 0.03962 0.28445 0.35254 0.0
C711 C 0.03573 0.28969 0.30061 0.0
C712 C 0.03058 0.26366 0.34709 0.0
C713 C 0.02676 0.26882 0.29608 0.0
C714 C 0.087 0.37723 0.3491 0.0
C715 C 0.10329 0.4015 0.38842 0.0
N716 N 0.12152 0.40377 0.38011 0.0
C717 C 0.10589 0.37989 0.3408 0.0
C718 C 0.08567 0.38819 0.37297 0.0
C719 C 0.12316 0.39335 0.35682 0.0
C720 C 0.07275 0.3494 0.24756 0.0
N721 N 0.07407 0.34221 0.27453 0.0
C722 C 0.10329 0.3405 0.25923 0.0
C723 C 0.08882 0.33762 0.28064 0.0
C724 C 0.10251 0.34807 0.23112 0.0
C725 C 0.0868 0.35232 0.22535 0.0
H726 H 0.06098 0.35312 0.24344 0.0
H727 H 0.08962 0.33219 0.3025 0.0
C728 C 0.06636 0.33812 0.42232 0.0
N729 N 0.07282 0.33961 0.39388 0.0
C730 C 0.07734 0.33589 0.4454 0.0
C731 C 0.10149 0.337 0.40947 0.0
C732 C 0.08994 0.33903 0.38707 0.0
C733 C 0.09508 0.33516 0.43906 0.0
H734 H 0.05247 0.33822 0.42701 0.0
H735 H 0.09439 0.33972 0.36413 0.0
C736 C 1.01351 0.33169 0.28382 0.0
N737 N 0.97888 0.31662 0.24948 0.0
C738 C 0.99681 0.333 0.29377 0.0
C739 C 1.01266 0.32278 0.25638 0.0
C740 C 0.97941 0.32526 0.2761 0.0
C741 C 0.995 0.31524 0.23934 0.0
C742 C 0.0187 0.34259 0.38763 0.0
C743 C 0.99765 0.33245 0.38361 0.0
C744 C 0.02758 0.35749 0.40952 0.0
C745 C 0.98583 0.33751 0.40148 0.0
C746 C 1.01524 0.36214 0.42688 0.0
N747 N 0.9948 0.35214 0.42254 0.0
C748 C 0.99794 0.28734 0.36685 0.0
C749 C 0.98614 0.2848 0.31757 0.0
C750 C 0.98053 0.26932 0.37457 0.0
N751 N 1.00037 0.29492 0.33892 0.0
C752 C 0.96821 0.26678 0.32451 0.0
C753 C 0.96521 0.2589 0.35343 0.0
H754 H 1.00949 0.29558 0.38338 0.0
H755 H 0.98847 0.29066 0.29529 0.0
C756 C 0.05346 0.39775 0.32373 0.0
N757 N 0.03762 0.38068 0.33533 0.0
C758 C 0.05183 0.41498 0.31862 0.0
C759 C 0.01778 0.39711 0.33834 0.0
C760 C 0.02006 0.38018 0.34299 0.0
C761 C 0.03364 0.41473 0.32537 0.0
H762 H 0.06716 0.39774 0.3173 0.0
H763 H 1.00747 0.36648 0.35169 0.0
O764 O 0.05027 0.31776 0.33416 0.0
O765 O 0.06985 0.36384 0.3341 0.0
O766 O 0.03073 0.33933 0.30062 0.0
O767 O 0.03054 0.3377 0.37065 0.0
H768 H 0.04443 0.29031 0.37474 0.0
H769 H 0.03748 0.29964 0.2823 0.0
H770 H 0.02843 0.25335 0.36504 0.0
H771 H 0.02163 0.26253 0.27418 0.0
H772 H 0.10248 0.41003 0.40702 0.0
H773 H 0.10718 0.37156 0.32231 0.0
H774 H 0.07117 0.38639 0.37949 0.0
H775 H 0.13787 0.39549 0.35075 0.0
H776 H 0.1152 0.33726 0.26493 0.0
H777 H 0.0853 0.35782 0.20388 0.0
H778 H 0.07199 0.33472 0.46798 0.0
H779 H 0.11493 0.33629 0.40363 0.0
H780 H 0.99721 0.33976 0.315 0.0
H781 H 0.02546 0.32162 0.2484 0.0
H782 H 0.96633 0.32609 0.28358 0.0
H783 H 0.99409 0.30827 0.21808 0.0
H784 H 0.99049 0.32097 0.36669 0.0
H785 H 0.04381 0.36536 0.4131 0.0
H786 H 0.96954 0.32985 0.39854 0.0
H787 H 0.02191 0.37368 0.44384 0.0
H788 H 0.97874 0.26401 0.39726 0.0
H789 H 0.95679 0.25916 0.30755 0.0
H790 H 0.06435 0.42794 0.30797 0.0
H791 H 1.0035 0.39618 0.34404 0.0
Li792 Li 0.70318 1.00485 0.3392 0.0
Li793 Li 0.68441 0.9715 0.36485 0.0
Li794 Li 0.68591 0.97326 0.3103 0.0
Li795 Li 0.66573 0.98471 0.33724 0.0
C796 C 0.72662 0.98331 0.33747 0.0
N797 N 0.76417 0.98594 0.335 0.0
C798 C 0.73582 0.98176 0.36342 0.0
C799 C 0.73642 0.98597 0.31023 0.0
C800 C 0.75484 0.9832 0.36172 0.0
C801 C 0.75542 0.98732 0.30946 0.0
C802 C 0.67154 0.99451 0.39719 0.0
C803 C 0.64324 0.97331 0.42898 0.0
N804 N 0.64738 0.98978 0.44572 0.0
C805 C 0.67552 0.01123 0.41469 0.0
C806 C 0.65528 0.97539 0.40436 0.0
C807 C 0.66313 1.00853 0.43915 0.0
C808 C 0.72605 0.04759 0.32973 0.0
N809 N 0.72635 0.0315 0.3423 0.0
C810 C 0.75898 0.05341 0.36348 0.0
C811 C 0.74243 0.03406 0.35875 0.0
C812 C 0.75894 0.07044 0.35146 0.0
C813 C 0.74228 0.06729 0.334 0.0
H814 H 0.71296 0.04518 0.317 0.0
H815 H 0.74211 0.02113 0.36915 0.0
C816 C 0.68136 0.93651 0.38952 0.0
N817 N 0.68564 0.95562 0.39641 0.0
C818 C 0.68352 0.92439 0.41082 0.0
C819 C 0.69425 0.9518 0.446 0.0
C820 C 0.69197 0.96342 0.42398 0.0
C821 C 0.69019 0.93203 0.4395 0.0
H822 H 0.67665 0.93085 0.36723 0.0
H823 H 0.69553 0.97876 0.42873 0.0
C824 C 0.69281 1.00755 0.27721 0.0
N825 N 0.70821 0.02454 0.22241 0.0
C826 C 0.68013 1.00873 0.25583 0.0
C827 C 0.71334 0.01512 0.27081 0.0
C828 C 0.6882 0.01734 0.22822 0.0
C829 C 0.72083 0.02363 0.24296 0.0
C830 C 0.64528 0.94447 0.31908 0.0
C831 C 0.64198 0.95154 0.29223 0.0
C832 C 0.63159 0.92478 0.32849 0.0
C833 C 0.62497 0.93877 0.27522 0.0
C834 C 0.61475 0.91246 0.31085 0.0
N835 N 0.61181 0.91966 0.2848 0.0
C836 C 0.69089 0.94262 0.28687 0.0
C837 C 0.68727 0.96223 0.24909 0.0
C838 C 0.69288 0.9303 0.26581 0.0
N839 N 0.6882 0.95824 0.27824 0.0
C840 C 0.68935 0.95039 0.22726 0.0
C841 C 0.6922 0.93417 0.23554 0.0
H842 H 0.6915 0.93978 0.31025 0.0
H843 H 0.68474 0.97443 0.24265 0.0
C844 C 0.64301 1.00335 0.32199 0.0
N845 N 0.64159 0.98684 0.33584 0.0
C846 C 0.62575 1.00513 0.31787 0.0
C847 C 0.60591 0.97327 0.34343 0.0
C848 C 0.62358 0.97205 0.34692 0.0
C849 C 0.60673 0.98981 0.32821 0.0
H850 H 0.65751 0.01487 0.31332 0.0
H851 H 0.62279 0.95903 0.35782 0.0
O852 O 0.70789 0.98171 0.33875 0.0
O853 O 0.68353 0.99698 0.37315 0.0
O854 O 0.68504 0.99893 0.30419 0.0
O855 O 0.66175 0.95669 0.33628 0.0
H856 H 0.72842 0.97962 0.38467 0.0
H857 H 0.72939 0.98683 0.28985 0.0
H858 H 0.76218 0.98214 0.38164 0.0
H859 H 0.76318 0.9894 0.28853 0.0
H860 H 0.63059 0.95861 0.43477 0.0
H861 H 0.68806 0.02613 0.4094 0.0
H862 H 0.65196 0.96227 0.39108 0.0
H863 H 0.66603 0.02133 0.45289 0.0
H864 H 0.77118 0.05507 0.37774 0.0
H865 H 0.74158 0.07995 0.32436 0.0
H866 H 0.68042 0.90937 0.40467 0.0
H867 H 0.69909 0.95823 0.46791 0.0
H868 H 0.66418 1.00292 0.26045 0.0
H869 H 0.72338 0.01448 0.28716 0.0
H870 H 0.67854 0.01827 0.2114 0.0
H871 H 0.73669 0.02952 0.23769 0.0
H872 H 0.65238 0.96673 0.28459 0.0
H873 H 0.63395 0.9191 0.34926 0.0
H874 H 0.62222 0.94406 0.25441 0.0
H875 H 0.60401 0.89719 0.31787 0.0
H876 H 0.69508 0.91799 0.27313 0.0
H877 H 0.68832 0.95363 0.20414 0.0
H878 H 0.62722 0.01797 0.30546 0.0
H879 H 0.5917 0.96116 0.35203 0.0
Li880 Li 0.0631 0.71356 0.36865 0.0
Li881 Li 0.02993 0.7024 0.34442 0.0
Li882 Li 0.04736 0.6823 0.33939 0.0
Li883 Li 0.06074 0.7148 0.31405 0.0
C884 C 0.03799 0.67737 0.39953 0.0
N885 N 0.04078 0.65516 0.44589 0.0
C886 C 0.02117 0.66579 0.41764 0.0
C887 C 0.05624 0.67766 0.40497 0.0
C888 C 0.02289 0.65467 0.44099 0.0
C889 C 0.05734 0.66632 0.42851 0.0
C890 C 0.0521 0.74576 0.34737 0.0
C891 C 0.04694 0.77189 0.32611 0.0
N892 N 0.04695 0.77897 0.3538 0.0
C893 C 0.05235 0.75345 0.37558 0.0
C894 C 0.04963 0.75517 0.32239 0.0
C895 C 0.0496 0.77018 0.37839 0.0
C896 C 0.09959 0.74315 0.39296 0.0
N897 N 0.08047 0.72853 0.40047 0.0
C898 C 0.08722 0.73732 0.45165 0.0
C899 C 0.07405 0.72545 0.42911 0.0
C900 C 0.10703 0.75269 0.44455 0.0
C901 C 0.11317 0.75556 0.41476 0.0
H902 H 0.10416 0.74533 0.36991 0.0
H903 H 0.05864 0.71401 0.43441 0.0
C904 C 0.98826 0.69031 0.33089 0.0
N905 N 1.00424 0.70156 0.34922 0.0
C906 C 0.9696 0.68947 0.33526 0.0
C907 C 0.98404 0.71154 0.37751 0.0
C908 C 1.00237 0.71195 0.37233 0.0
C909 C 0.96723 0.7001 0.35896 0.0
H910 H 0.98979 0.68163 0.31318 0.0
H911 H 1.01497 0.72015 0.38731 0.0
C912 C 0.08772 0.70065 0.31976 0.0
N913 N 0.11151 0.69237 0.28255 0.0
C914 C 0.07958 0.68981 0.29353 0.0
C915 C 0.10795 0.70732 0.32704 0.0
C916 C 0.09185 0.68576 0.27502 0.0
C917 C 0.11974 0.70297 0.30794 0.0
C918 C 0.02585 0.68962 0.28092 0.0
C919 C 0.02251 0.67457 0.26031 0.0
C920 C 0.02135 0.70474 0.27337 0.0
C921 C 1.01475 0.67494 0.23236 0.0
C922 C 1.0136 0.70457 0.24521 0.0
N923 N 1.0105 0.68981 0.22546 0.0
C924 C 0.02611 0.64086 0.32392 0.0
C925 C 0.05869 0.65174 0.34423 0.0
C926 C 0.02348 0.62166 0.31823 0.0
N927 N 0.04365 0.65554 0.33618 0.0
C928 C 0.05672 0.63275 0.33889 0.0
C929 C 0.03906 0.61747 0.32522 0.0
H930 H 1.01442 0.64429 0.31765 0.0
H931 H 0.07252 0.66365 0.35398 0.0
C932 C 0.09206 0.74981 0.28877 0.0
N933 N 0.07617 0.7313 0.28149 0.0
C934 C 0.10474 0.76294 0.2667 0.0
C935 C 0.08441 0.73771 0.23008 0.0
C936 C 0.07237 0.72496 0.25284 0.0
C937 C 0.10079 0.75697 0.23692 0.0
H938 H 0.0949 0.75432 0.31181 0.0
H939 H 0.06018 0.70997 0.24755 0.0
O940 O 0.03648 0.68827 0.37655 0.0
O941 O 0.05491 0.72948 0.34419 0.0
O942 O 0.07607 0.70491 0.3382 0.0
O943 O 0.03375 0.68966 0.30818 0.0
H944 H 1.00694 0.66542 0.41368 0.0
H945 H 0.06943 0.6866 0.39126 0.0
H946 H 1.00999 0.64564 0.4552 0.0
H947 H 0.07136 0.66642 0.43299 0.0
H948 H 0.04493 0.77928 0.30698 0.0
H949 H 0.05447 0.74646 0.39513 0.0
H950 H 0.04994 0.74975 0.30034 0.0
H951 H 0.04958 0.7762 0.40011 0.0
H952 H 0.08179 0.73489 0.47432 0.0
H953 H 0.1283 0.76725 0.40841 0.0
H954 H 0.9571 0.68036 0.32044 0.0
H955 H 0.98286 0.71947 0.39665 0.0
H956 H 0.06397 0.68454 0.28752 0.0
H957 H 0.11447 0.71578 0.34725 0.0
H958 H 0.08575 0.67737 0.25467 0.0
H959 H 0.13543 0.70803 0.31329 0.0
H960 H 0.02601 0.66281 0.26576 0.0
H961 H 0.02373 0.71639 0.28913 0.0
H962 H 1.01215 0.66343 0.21614 0.0
H963 H 1.01005 0.71618 0.23907 0.0
H964 H 1.00975 0.61055 0.30716 0.0
H965 H 0.06906 0.6302 0.34484 0.0
H966 H 0.11725 0.77768 0.27276 0.0
H967 H 0.08113 0.73247 0.20734 0.0
Li968 Li 0.30864 0.34585 0.36729 0.0
Li969 Li 0.32185 0.32656 0.34221 0.0
Li970 Li 0.34109 0.36377 0.33766 0.0
Li971 Li 0.30857 0.34286 0.31279 0.0
C972 C 0.34164 0.33722 0.39259 0.0
N973 N 0.35431 0.3155 0.42682 0.0
C974 C 0.33012 0.32606 0.41698 0.0
C975 C 0.35957 0.33727 0.38554 0.0
C976 C 0.33682 0.31523 0.43407 0.0
C977 C 0.36571 0.32618 0.40311 0.0
C978 C 0.28113 0.30167 0.3498 0.0
C979 C 0.26474 0.26611 0.33751 0.0
N980 N 0.25608 0.26143 0.36489 0.0
C981 C 0.27202 0.29649 0.37781 0.0
C982 C 0.27741 0.28635 0.32944 0.0
C983 C 0.25941 0.27607 0.385 0.0
C984 C 0.27533 0.34657 0.39147 0.0
N985 N 0.29379 0.34907 0.39873 0.0
C986 C 0.28954 0.35588 0.44912 0.0
C987 C 0.30124 0.35406 0.42673 0.0
C988 C 0.27011 0.35289 0.44251 0.0
C989 C 0.26321 0.34846 0.41305 0.0
H990 H 0.26999 0.34298 0.36884 0.0
H991 H 0.31621 0.3565 0.43174 0.0
C992 C 0.33873 0.30136 0.3275 0.0
N993 N 0.32529 0.30297 0.34567 0.0
C994 C 0.34235 0.28512 0.33055 0.0
C995 C 0.31803 0.27229 0.37057 0.0
C996 C 0.31514 0.28887 0.36709 0.0
C997 C 0.33187 0.27029 0.35231 0.0
H998 H 0.347 0.31294 0.31105 0.0
H999 H 0.30514 0.29071 0.3821 0.0
C1000 C 0.32097 0.3853 0.35002 0.0
N1001 N 0.3284 0.42069 0.37776 0.0
C1002 C 0.31196 0.39619 0.33942 0.0
C1003 C 0.33368 0.39236 0.37483 0.0
C1004 C 0.31593 0.41406 0.35372 0.0
C1005 C 0.33727 0.4103 0.38851 0.0
C1006 C 0.33286 0.34031 0.27643 0.0
C1007 C 0.34108 0.35706 0.25743 0.0
C1008 C 0.32217 0.32077 0.26459 0.0
C1009 C 0.33833 0.35397 0.22685 0.0
C1010 C 0.31975 0.31831 0.23388 0.0
N1011 N 0.32779 0.33482 0.21581 0.0
C1012 C 0.38308 0.39207 0.3515 0.0
C1013 C 0.36813 0.40214 0.31404 0.0
C1014 C 0.40186 0.40973 0.34728 0.0
N1015 N 0.36682 0.38841 0.33446 0.0
C1016 C 0.38655 0.41995 0.3091 0.0
C1017 C 0.4039 0.42385 0.32546 0.0
H1018 H 0.38158 0.38118 0.3681 0.0
H1019 H 0.3549 0.39904 0.30111 0.0
C1020 C 0.27813 0.32334 0.26854 0.0
N1021 N 0.29275 0.34157 0.2791 0.0
C1022 C 0.26546 0.3224 0.24542 0.0
C1023 C 0.28306 0.35902 0.24457 0.0
C1024 C 0.29553 0.35924 0.2675 0.0
C1025 C 0.26769 0.3404 0.23338 0.0
H1026 H 0.2761 0.30953 0.27829 0.0
H1027 H 0.3073 0.37352 0.27631 0.0
O1028 O 0.33513 0.34761 0.37525 0.0
O1029 O 0.29338 0.3216 0.34229 0.0
O1030 O 0.31705 0.36767 0.33638 0.0
O1031 O 0.33489 0.34303 0.30648 0.0
H1032 H 0.31594 0.32539 0.42233 0.0
H1033 H 0.36842 0.34543 0.36634 0.0
H1034 H 0.328 0.30646 0.45292 0.0
H1035 H 0.37948 0.32597 0.39779 0.0
H1036 H 0.26187 0.25412 0.32205 0.0
H1037 H 0.27475 0.30806 0.39394 0.0
H1038 H 0.28453 0.28998 0.30786 0.0
H1039 H 0.25233 0.27187 0.40662 0.0
H1040 H 0.2955 0.35911 0.47148 0.0
H1041 H 0.24858 0.34643 0.40667 0.0
H1042 H 0.35337 0.28428 0.31628 0.0
H1043 H 0.3101 0.2616 0.38828 0.0
H1044 H 0.30195 0.39085 0.3204 0.0
H1045 H 0.34068 0.3841 0.38352 0.0
H1046 H 0.30907 0.42265 0.34575 0.0
H1047 H 0.34708 0.41594 0.4077 0.0
H1048 H 0.34938 0.37228 0.2662 0.0
H1049 H 0.31566 0.30765 0.27897 0.0
H1050 H 0.34453 0.36679 0.21189 0.0
H1051 H 0.31142 0.30327 0.22443 0.0
H1052 H 0.41471 0.41216 0.36067 0.0
H1053 H 0.38732 0.43013 0.29172 0.0
H1054 H 0.25376 0.30774 0.23748 0.0
H1055 H 0.2855 0.37325 0.23555 0.0
Li1056 Li 0.33477 0.02012 0.66501 0.0
Li1057 Li 0.37231 0.03988 0.66869 0.0
Li1058 Li 0.35009 0.05176 0.69336 0.0
Li1059 Li 0.35517 0.05478 0.63995 0.0
C1060 C 0.34574 0.01019 0.71863 0.0
N1061 N 0.3331 0.976 0.75326 0.0
C1062 C 0.35645 0.99969 0.71816 0.0
C1063 C 0.32874 1.00343 0.73697 0.0
C1064 C 0.34979 0.98241 0.73578 0.0
C1065 C 0.32255 0.98606 0.75421 0.0
C1066 C 0.36201 0.0204 0.61194 0.0
C1067 C 0.38395 0.02336 0.57127 0.0
N1068 N 0.37554 1.00286 0.57094 0.0
C1069 C 0.3535 0.99935 0.61106 0.0
C1070 C 0.37728 0.03251 0.59176 0.0
C1071 C 0.36058 0.99078 0.59022 0.0
C1072 C 0.2944 0.9922 0.64871 0.0
N1073 N 0.31119 0.9934 0.6614 0.0
C1074 C 0.29419 0.95722 0.66614 0.0
C1075 C 0.31133 0.97637 0.67016 0.0
C1076 C 0.27672 0.95546 0.65254 0.0
C1077 C 0.27698 0.97338 0.64407 0.0
H1078 H 0.29469 1.00587 0.64148 0.0
H1079 H 0.32491 0.9775 0.67951 0.0
C1080 C 0.41074 0.05192 0.69269 0.0
N1081 N 0.39701 0.03877 0.67287 0.0
C1082 C 0.42858 0.05154 0.69874 0.0
C1083 C 0.41825 0.02447 0.6632 0.0
C1084 C 0.40052 0.02527 0.65803 0.0
C1085 C 0.43247 0.03748 0.68421 0.0
H1086 H 0.40755 0.0624 0.70443 0.0
H1087 H 0.38939 0.01467 0.64278 0.0
C1088 C 0.31419 0.0458 0.67384 0.0
N1089 N 0.28468 0.05215 0.69892 0.0
C1090 C 0.31182 0.06196 0.66432 0.0
C1091 C 0.30137 0.03271 0.6958 0.0
C1092 C 0.29686 0.06497 0.67737 0.0
C1093 C 0.2866 0.03621 0.70829 0.0
C1094 C 0.39242 0.08471 0.66068 0.0
C1095 C 0.39663 0.10382 0.67048 0.0
C1096 C 0.40517 0.08316 0.63984 0.0
C1097 C 0.41339 0.12111 0.6589 0.0
C1098 C 0.42179 0.10079 0.62881 0.0
N1099 N 0.42551 0.11925 0.63846 0.0
C1100 C 0.34434 0.05945 0.75383 0.0
C1101 C 0.34697 0.08358 0.71833 0.0
C1102 C 0.34179 0.07045 0.77657 0.0
N1103 N 0.34685 0.06617 0.7254 0.0
C1104 C 0.34435 0.09498 0.74027 0.0
C1105 C 0.3418 0.08852 0.76994 0.0
H1106 H 0.34453 0.04567 0.75891 0.0
H1107 H 0.34905 0.08859 0.6955 0.0
C1108 C 0.35674 0.06669 0.57921 0.0
N1109 N 0.35753 0.07223 0.60802 0.0
C1110 C 0.35877 0.08007 0.55649 0.0
C1111 C 0.36198 0.10443 0.59351 0.0
C1112 C 0.35997 0.09062 0.61547 0.0
C1113 C 0.36144 0.09925 0.56352 0.0
H1114 H 0.35435 0.05183 0.57386 0.0
H1115 H 0.36026 0.09452 0.63858 0.0
O1116 O 0.35213 0.0272 0.70165 0.0
O1117 O 0.35516 0.02901 0.63211 0.0
O1118 O 0.329 0.04283 0.66177 0.0
O1119 O 0.37593 0.06763 0.67151 0.0
H1120 H 0.36969 1.00473 0.70422 0.0
H1121 H 0.3204 0.01147 0.73789 0.0
H1122 H 0.35788 0.97409 0.73552 0.0
H1123 H 0.30936 0.98061 0.7684 0.0
H1124 H 0.39579 0.03256 0.55558 0.0
H1125 H 0.34163 0.98973 0.62638 0.0
H1126 H 0.38387 0.04879 0.5918 0.0
H1127 H 0.35418 0.97451 0.58939 0.0
H1128 H 0.29478 0.94393 0.67312 0.0
H1129 H 0.26419 0.97291 0.6328 0.0
H1130 H 0.43873 0.06158 0.71563 0.0
H1131 H 0.42055 0.01344 0.6513 0.0
H1132 H 0.3215 0.07215 0.64719 0.0
H1133 H 0.30285 0.02 0.70312 0.0
H1134 H 0.29495 0.07749 0.67036 0.0
H1135 H 0.27664 0.02626 0.72543 0.0
H1136 H 0.387 0.1053 0.68677 0.0
H1137 H 0.4023 0.0685 0.63234 0.0
H1138 H 0.41676 0.136 0.66617 0.0
H1139 H 0.43175 0.0998 0.61261 0.0
H1140 H 0.3403 0.06507 0.79918 0.0
H1141 H 0.34429 0.10867 0.73402 0.0
H1142 H 0.35782 0.07527 0.53366 0.0
H1143 H 0.36405 0.11903 0.59994 0.0
Li1144 Li 1.00743 0.3193 0.67305 0.0
Li1145 Li 0.98706 0.33576 0.67673 0.0
Li1146 Li 0.97595 0.30211 0.70008 0.0
Li1147 Li 0.97395 0.3045 0.64661 0.0
C1148 C 1.01619 0.33779 0.72818 0.0
N1149 N 0.04943 0.35609 0.76549 0.0
C1150 C 0.02598 0.3587 0.73308 0.0
C1151 C 0.02312 0.32616 0.74264 0.0
C1152 C 0.04281 0.36768 0.75193 0.0
C1153 C 0.04 0.3357 0.7613 0.0
C1154 C 1.016 0.3479 0.62859 0.0
C1155 C 0.03832 0.36531 0.5875 0.0
N1156 N 0.0505 0.38084 0.60589 0.0
C1157 C 0.02873 0.36402 0.64704 0.0
C1158 C 0.02083 0.34851 0.59856 0.0
C1159 C 0.0461 0.38053 0.63519 0.0
C1160 C 0.03622 0.30844 0.65588 0.0
N1161 N 0.03464 0.32346 0.66964 0.0
C1162 C 0.07088 0.3432 0.67432 0.0
C1163 C 0.05151 0.34061 0.67901 0.0
C1164 C 0.07299 0.32805 0.65971 0.0
C1165 C 0.05524 0.31039 0.65077 0.0
H1166 H 0.02268 0.2951 0.64816 0.0
H1167 H 0.05007 0.35253 0.68957 0.0
C1168 C 0.9808 0.36391 0.70782 0.0
N1169 N 0.98653 0.36057 0.68086 0.0
C1170 C 0.98051 0.38179 0.71333 0.0
C1171 C 0.99162 0.39242 0.66298 0.0
C1172 C 0.99142 0.37415 0.65831 0.0
C1173 C 0.98625 0.39649 0.69089 0.0
H1174 H 0.97682 0.35278 0.72525 0.0
H1175 H 0.99542 0.37095 0.6368 0.0
C1176 C 0.98142 0.27219 0.67996 0.0
N1177 N 0.97212 0.23491 0.70304 0.0
C1178 C 0.96377 0.25468 0.67103 0.0
C1179 C 0.99453 0.27069 0.7002 0.0
C1180 C 0.95928 0.23598 0.68308 0.0
C1181 C 0.98951 0.25172 0.71173 0.0
C1182 C 0.9458 0.31553 0.66478 0.0
C1183 C 0.9272 0.30943 0.67866 0.0
C1184 C 0.95045 0.32638 0.63816 0.0
C1185 C 0.91351 0.31431 0.66567 0.0
C1186 C 0.93636 0.33098 0.62589 0.0
N1187 N 0.91834 0.3249 0.63978 0.0
C1188 C 0.96817 0.28737 0.75994 0.0
C1189 C 0.94277 0.26787 0.72459 0.0
C1190 C 0.95671 0.27382 0.78245 0.0
N1191 N 0.96106 0.28413 0.73167 0.0
C1192 C 0.93094 0.25381 0.74629 0.0
C1193 C 0.93778 0.2567 0.77581 0.0
H1194 H 0.98257 0.3006 0.76512 0.0
H1195 H 0.93738 0.26583 0.70196 0.0
C1196 C 0.96468 0.29299 0.58575 0.0
N1197 N 0.95736 0.28972 0.6139 0.0
C1198 C 0.95209 0.28159 0.56235 0.0
C1199 C 0.92472 0.26372 0.59738 0.0
C1200 C 0.93779 0.27554 0.62004 0.0
C1201 C 0.93185 0.26662 0.56807 0.0
H1202 H 0.98032 0.30428 0.58154 0.0
H1203 H 0.93239 0.27329 0.64269 0.0
O1204 O 0.99966 0.32875 0.70982 0.0
O1205 O 0.999 0.33148 0.63985 0.0
O1206 O 0.98592 0.29068 0.66878 0.0
O1207 O 0.95934 0.31085 0.6773 0.0
H1208 H 0.02066 0.36792 0.72247 0.0
H1209 H 1.01555 0.30995 0.73951 0.0
H1210 H 0.05059 0.38385 0.75579 0.0
H1211 H 0.04558 0.32689 0.77249 0.0
H1212 H 0.04223 0.36599 0.5643 0.0
H1213 H 0.02523 0.36377 0.67028 0.0
H1214 H 1.01119 0.33616 0.58393 0.0
H1215 H 0.05608 0.3931 0.64928 0.0
H1216 H 0.08407 0.35707 0.68165 0.0
H1217 H 0.05601 0.29849 0.63874 0.0
H1218 H 0.97658 0.38442 0.73532 0.0
H1219 H 0.99606 0.40331 0.64508 0.0
H1220 H 0.95356 0.25551 0.65518 0.0
H1221 H 1.00847 0.284 0.70683 0.0
H1222 H 0.94557 0.22233 0.67657 0.0
H1223 H 0.99948 0.25036 0.72753 0.0
H1224 H 0.92339 0.30099 0.69925 0.0
H1225 H 0.96475 0.33119 0.62706 0.0
H1226 H 0.89904 0.30969 0.67616 0.0
H1227 H 0.93976 0.33937 0.60532 0.0
H1228 H 0.96245 0.27705 0.80494 0.0
H1229 H 0.9166 0.24082 0.73992 0.0
H1230 H 0.9583 0.28412 0.54012 0.0
H1231 H 0.90921 0.25247 0.60274 0.0
Li1232 Li 0.7098 0.69492 0.6677 0.0
Li1233 Li 0.69236 0.6584 0.66716 0.0
Li1234 Li 0.72364 0.67655 0.69454 0.0
Li1235 Li 0.72391 0.67651 0.63927 0.0
C1236 C 0.68062 0.67615 0.71161 0.0
N1237 N 0.64568 0.67561 0.72995 0.0
C1238 C 0.66616 0.67431 0.69082 0.0
C1239 C 0.67729 0.67767 0.74174 0.0
C1240 C 0.6486 0.67407 0.70052 0.0
C1241 C 0.65954 0.67738 0.75056 0.0
C1242 C 0.68589 0.66876 0.60873 0.0
C1243 C 0.67487 0.64691 0.5659 0.0
N1244 N 0.66061 0.65228 0.56029 0.0
C1245 C 0.67129 0.67425 0.60237 0.0
C1246 C 0.68784 0.65513 0.59023 0.0
C1247 C 0.65858 0.66567 0.57785 0.0
C1248 C 0.7168 0.73007 0.6398 0.0
N1249 N 0.70848 0.71941 0.66509 0.0
C1250 C 0.69897 0.74362 0.68052 0.0
C1251 C 0.70001 0.726 0.68568 0.0
C1252 C 0.7071 0.75471 0.65423 0.0
C1253 C 0.71635 0.74783 0.63396 0.0
H1254 H 0.7235 0.72451 0.62387 0.0
H1255 H 0.6938 0.71753 0.70592 0.0
C1256 C 0.66327 0.62515 0.69787 0.0
N1257 N 0.66626 0.63375 0.67055 0.0
C1258 C 0.64527 0.60742 0.70462 0.0
C1259 C 0.63308 0.60779 0.65533 0.0
C1260 C 0.6516 0.62542 0.64929 0.0
C1261 C 0.6298 0.59854 0.68331 0.0
H1262 H 0.6749 0.63228 0.71465 0.0
H1263 H 0.654 0.63248 0.62782 0.0
C1264 C 0.75081 0.71727 0.68207 0.0
N1265 N 0.77646 0.75254 0.71215 0.0
C1266 C 0.76977 0.73099 0.67017 0.0
C1267 C 0.74487 0.72146 0.70927 0.0
C1268 C 0.78253 0.74875 0.68573 0.0
C1269 C 0.75806 0.73938 0.72413 0.0
C1270 C 0.70772 0.6334 0.67033 0.0
C1271 C 0.70699 0.62521 0.69836 0.0
C1272 C 0.69975 0.62053 0.64587 0.0
C1273 C 0.69792 0.60421 0.70154 0.0
C1274 C 0.69079 0.59961 0.64996 0.0
N1275 N 0.69004 0.59195 0.67748 0.0
C1276 C 0.73143 0.67137 0.75446 0.0
C1277 C 0.75792 0.67874 0.72022 0.0
C1278 C 0.74243 0.66885 0.7772 0.0
N1279 N 0.73926 0.67603 0.72664 0.0
C1280 C 0.76948 0.67643 0.74229 0.0
C1281 C 0.76163 0.67112 0.77115 0.0
H1282 H 0.71644 0.66911 0.75876 0.0
H1283 H 0.76357 0.68219 0.69771 0.0
C1284 C 0.74064 0.68655 0.58099 0.0
N1285 N 0.741 0.67834 0.60758 0.0
C1286 C 0.75491 0.68944 0.5592 0.0
C1287 C 0.76971 0.6756 0.59275 0.0
C1288 C 0.75505 0.67283 0.61377 0.0
C1289 C 0.76988 0.68414 0.56504 0.0
H1290 H 0.72949 0.69112 0.5769 0.0
H1291 H 0.75517 0.66673 0.6354 0.0
O1292 O 0.69789 0.67628 0.70275 0.0
O1293 O 0.69856 0.67717 0.63249 0.0
O1294 O 0.73814 0.69988 0.66702 0.0
O1295 O 0.7162 0.65391 0.66689 0.0
H1296 H 0.66844 0.67304 0.66748 0.0
H1297 H 0.68833 0.67908 0.75812 0.0
H1298 H 0.63729 0.67265 0.68465 0.0
H1299 H 0.65677 0.67857 0.77381 0.0
H1300 H 0.67617 0.63628 0.55144 0.0
H1301 H 0.6698 0.68505 0.6162 0.0
H1302 H 0.69928 0.65101 0.59452 0.0
H1303 H 0.64715 0.6697 0.57273 0.0
H1304 H 0.69175 0.74843 0.69675 0.0
H1305 H 0.72249 0.75565 0.61316 0.0
H1306 H 0.64319 0.60111 0.72674 0.0
H1307 H 0.62143 0.60152 0.6384 0.0
H1308 H 0.77455 0.72794 0.64912 0.0
H1309 H 0.73024 0.71102 0.71881 0.0
H1310 H 0.79725 0.75952 0.67678 0.0
H1311 H 0.75367 0.74283 0.74518 0.0
H1312 H 0.71311 0.63491 0.71754 0.0
H1313 H 0.70037 0.62658 0.62399 0.0
H1314 H 0.6971 0.59766 0.72314 0.0
H1315 H 0.68442 0.58946 0.63125 0.0
H1316 H 0.73595 0.66507 0.79926 0.0
H1317 H 0.78412 0.67818 0.73664 0.0
H1318 H 0.75419 0.69575 0.53802 0.0
H1319 H 0.78106 0.67156 0.59846 0.0
Li1320 Li 0.36725 0.33516 0.67214 0.0
Li1321 Li 0.34892 0.30285 0.69717 0.0
Li1322 Li 0.35022 0.30392 0.64381 0.0
Li1323 Li 0.33041 0.31577 0.6701 0.0
C1324 C 0.38979 0.31695 0.68834 0.0
N1325 N 0.42336 0.32551 0.7224 0.0
C1326 C 0.39397 0.32855 0.71412 0.0
C1327 C 0.40266 0.30968 0.67991 0.0
C1328 C 0.41102 0.33273 0.73103 0.0
C1329 C 0.41956 0.31418 0.69742 0.0
C1330 C 0.33561 0.3249 0.72991 0.0
C1331 C 0.30634 0.3031 0.75973 0.0
N1332 N 0.31107 0.31879 0.77855 0.0
C1333 C 0.34019 0.34079 0.74957 0.0
C1334 C 0.31856 0.30587 0.73504 0.0
C1335 C 0.3276 0.3374 0.77403 0.0
C1336 C 0.38831 0.37632 0.68907 0.0
N1337 N 0.39049 0.36199 0.6743 0.0
C1338 C 0.42598 0.38524 0.66737 0.0
C1339 C 0.4088 0.36618 0.66307 0.0
C1340 C 0.42442 0.40013 0.68369 0.0
C1341 C 0.4051 0.39553 0.69409 0.0
H1342 H 0.37361 0.37258 0.69788 0.0
H1343 H 0.41025 0.35452 0.65157 0.0
C1344 C 0.34581 0.26794 0.72201 0.0
N1345 N 0.34962 0.28687 0.7291 0.0
C1346 C 0.34788 0.25578 0.74333 0.0
C1347 C 0.35755 0.28278 0.77896 0.0
C1348 C 0.35531 0.29442 0.75693 0.0
C1349 C 0.35404 0.26324 0.77221 0.0
H1350 H 0.34161 0.26249 0.69952 0.0
H1351 H 0.35852 0.30962 0.7619 0.0
C1352 C 0.36142 0.33999 0.61285 0.0
N1353 N 0.38525 0.36128 0.56494 0.0
C1354 C 0.35615 0.35183 0.59541 0.0
C1355 C 0.3788 0.33897 0.60589 0.0
C1356 C 0.36839 0.36248 0.57128 0.0
C1357 C 0.39065 0.34985 0.5816 0.0
C1358 C 0.30981 0.2756 0.65183 0.0
C1359 C 0.30617 0.28311 0.62565 0.0
C1360 C 0.2967 0.25549 0.66011 0.0
C1361 C 0.28939 0.27035 0.60822 0.0
C1362 C 0.28008 0.24321 0.64207 0.0
N1363 N 0.2768 0.25083 0.61672 0.0
C1364 C 0.35455 0.2731 0.61856 0.0
C1365 C 0.34828 0.29212 0.58271 0.0
C1366 C 0.3553 0.26062 0.59651 0.0
N1367 N 0.35124 0.28855 0.6113 0.0
C1368 C 0.34928 0.28025 0.55992 0.0
C1369 C 0.35288 0.26432 0.56676 0.0
H1370 H 0.3566 0.27051 0.64157 0.0
H1371 H 0.34512 0.30412 0.57755 0.0
C1372 C 0.30912 0.33597 0.65709 0.0
N1373 N 0.30651 0.31825 0.66822 0.0
C1374 C 0.29241 0.33852 0.6521 0.0
C1375 C 0.27053 0.30475 0.67105 0.0
C1376 C 0.28773 0.30288 0.67581 0.0
C1377 C 0.2727 0.32265 0.65858 0.0
H1378 H 0.32421 0.34793 0.65123 0.0
H1379 H 0.286 0.28894 0.68478 0.0
O1380 O 0.37314 0.31252 0.67142 0.0
O1381 O 0.3479 0.32809 0.70595 0.0
O1382 O 0.34956 0.32956 0.63657 0.0
O1383 O 0.32614 0.28771 0.66935 0.0
H1384 H 0.38417 0.33428 0.72107 0.0
H1385 H 0.39959 0.30063 0.66004 0.0
H1386 H 0.41443 0.34169 0.75102 0.0
H1387 H 0.42966 0.30865 0.69116 0.0
H1388 H 0.29311 0.28846 0.76395 0.0
H1389 H 0.35337 0.3556 0.74599 0.0
H1390 H 0.3148 0.29333 0.72027 0.0
H1391 H 0.33097 0.34957 0.78942 0.0
H1392 H 0.44044 0.38807 0.65866 0.0
H1393 H 0.40309 0.40626 0.70728 0.0
H1394 H 0.34521 0.24093 0.73704 0.0
H1395 H 0.362 0.28904 0.80103 0.0
H1396 H 0.34272 0.35276 0.60046 0.0
H1397 H 0.38306 0.32978 0.61896 0.0
H1398 H 0.36448 0.37171 0.5576 0.0
H1399 H 0.40413 0.34917 0.57597 0.0
H1400 H 0.3161 0.29861 0.61883 0.0
H1401 H 0.29935 0.24946 0.6803 0.0
H1402 H 0.28637 0.27597 0.58793 0.0
H1403 H 0.2698 0.22762 0.64823 0.0
H1404 H 0.3581 0.24847 0.60257 0.0
H1405 H 0.34705 0.28334 0.5372 0.0
H1406 H 0.29488 0.35246 0.64195 0.0
H1407 H 0.25567 0.29217 0.67654 0.0
Li1408 Li 0.69281 0.03637 0.67521 0.0
Li1409 Li 0.72465 0.04916 0.70168 0.0
Li1410 Li 0.72459 0.04992 0.64817 0.0
Li1411 Li 0.7112 0.01783 0.67384 0.0
C1412 C 0.71214 0.07748 0.6602 0.0
N1413 N 0.70425 0.10382 0.62847 0.0
C1414 C 0.72052 0.09764 0.66921 0.0
C1415 C 0.69976 0.07071 0.63504 0.0
C1416 C 0.71634 0.11072 0.65288 0.0
C1417 C 0.69595 0.08426 0.6193 0.0
C1418 C 0.68922 0.02432 0.73401 0.0
C1419 C 0.66745 1.00832 0.77616 0.0
N1420 N 0.66949 0.02646 0.78417 0.0
C1421 C 0.69112 0.04281 0.74267 0.0
C1422 C 0.67729 1.00693 0.75087 0.0
C1423 C 0.68102 0.04357 0.76809 0.0
C1424 C 0.6498 0.01567 0.66861 0.0
N1425 N 0.66621 0.03344 0.67716 0.0
C1426 C 0.64465 0.04593 0.69388 0.0
C1427 C 0.66397 0.04858 0.68914 0.0
C1428 C 0.62731 0.02745 0.68635 0.0
C1429 C 0.63012 0.01234 0.673 0.0
H1430 H 0.65199 1.00382 0.65928 0.0
H1431 H 0.67718 0.06248 0.69619 0.0
C1432 C 0.75487 0.08435 0.72785 0.0
N1433 N 0.74088 0.0648 0.73422 0.0
C1434 C 0.76774 0.09718 0.74995 0.0
C1435 C 0.75159 0.06945 0.78481 0.0
C1436 C 0.7391 0.05713 0.76198 0.0
C1437 C 0.7662 0.08981 0.77896 0.0
H1438 H 0.75608 0.08994 0.70545 0.0
H1439 H 0.72796 0.04147 0.76641 0.0
C1440 C 0.69976 0.01498 0.61485 0.0
N1441 N 0.70207 0.9955 0.56459 0.0
C1442 C 0.71836 0.01708 0.60608 0.0
C1443 C 0.68235 1.00299 0.59805 0.0
C1444 C 0.71921 1.00711 0.58062 0.0
C1445 C 0.68383 0.99326 0.57271 0.0
C1446 C 0.75203 0.03633 0.68993 0.0
C1447 C 0.77219 0.04404 0.6811 0.0
C1448 C 0.74476 0.02397 0.71506 0.0
C1449 C 0.78477 0.03922 0.69758 0.0
C1450 C 0.75782 0.01951 0.73095 0.0
N1451 N 0.77739 0.02716 0.72195 0.0
C1452 C 0.76024 0.0802 0.62269 0.0
C1453 C 0.73282 0.06561 0.58869 0.0
C1454 C 0.77308 0.0936 0.60104 0.0
N1455 N 0.74058 0.06658 0.61618 0.0
C1456 C 0.74513 0.07869 0.56633 0.0
C1457 C 0.76557 0.09301 0.57237 0.0
H1458 H 0.76589 0.08077 0.6449 0.0
H1459 H 0.71708 0.05475 0.58415 0.0
C1460 C 0.69018 0.97484 0.67992 0.0
N1461 N 0.70801 0.99118 0.67133 0.0
C1462 C 0.68663 0.95517 0.67509 0.0
C1463 C 0.72011 0.96954 0.6536 0.0
C1464 C 0.72301 0.98887 0.65887 0.0
C1465 C 0.70156 0.95228 0.66115 0.0
H1466 H 0.67845 0.97709 0.68966 0.0
H1467 H 0.73698 1.00204 0.65187 0.0
O1468 O 0.71626 0.06459 0.67592 0.0
O1469 O 0.69881 0.02307 0.70911 0.0
O1470 O 0.69842 0.0244 0.63986 0.0
O1471 O 0.73963 0.04105 0.67401 0.0
H1472 H 0.73015 0.10311 0.68863 0.0
H1473 H 0.69314 0.05518 0.62769 0.0
H1474 H 0.72272 0.12637 0.65961 0.0
H1475 H 0.68641 0.07923 0.59979 0.0
H1476 H 0.65817 0.99498 0.78941 0.0
H1477 H 0.7003 0.05644 0.72998 0.0
H1478 H 0.67566 0.9925 0.74443 0.0
H1479 H 0.68236 0.05778 0.77502 0.0
H1480 H 0.64335 0.05787 0.70486 0.0
H1481 H 0.61725 0.99789 0.66674 0.0
H1482 H 0.77893 0.11261 0.74424 0.0
H1483 H 0.74962 0.06314 0.80689 0.0
H1484 H 0.732 0.02628 0.61879 0.0
H1485 H 0.66784 1.00119 0.60459 0.0
H1486 H 0.73349 1.00858 0.57361 0.0
H1487 H 0.67047 0.98392 0.5595 0.0
H1488 H 0.77804 0.05365 0.6617 0.0
H1489 H 0.72922 0.01784 0.72226 0.0
H1490 H 0.80041 0.04508 0.69099 0.0
H1491 H 0.7524 1.00996 0.75043 0.0
H1492 H 0.78861 0.10451 0.60683 0.0
H1493 H 0.73873 0.07745 0.54445 0.0
H1494 H 0.67214 0.94237 0.68147 0.0
H1495 H 0.73193 0.96821 0.64222 0.0
Li1496 Li 0.97544 0.68189 0.70149 0.0
Li1497 Li 0.98875 0.6611 0.67924 0.0
Li1498 Li 1.00575 0.69785 0.67105 0.0
Li1499 Li 0.97303 0.67612 0.64756 0.0
C1500 C 1.01272 0.6967 0.73134 0.0
N1501 N 0.03463 0.72423 0.77539 0.0
C1502 C 0.02536 0.69328 0.75004 0.0
C1503 C 1.01125 0.71414 0.73499 0.0
C1504 C 0.0363 0.70737 0.77221 0.0
C1505 C 0.02244 0.72787 0.7574 0.0
C1506 C 0.94324 0.63969 0.68888 0.0
C1507 C 0.91051 0.61054 0.67858 0.0
N1508 N 0.90771 0.60637 0.7081 0.0
C1509 C 0.94006 0.63511 0.71911 0.0
C1510 C 0.92837 0.62732 0.66842 0.0
C1511 C 0.92199 0.6182 0.72839 0.0
C1512 C 0.94486 0.68758 0.72588 0.0
N1513 N 0.96047 0.68458 0.73348 0.0
C1514 C 0.95326 0.68504 0.78497 0.0
C1515 C 0.9648 0.68321 0.76235 0.0
C1516 C 0.93695 0.68805 0.77781 0.0
C1517 C 0.93279 0.68929 0.74779 0.0
H1518 H 0.94172 0.68851 0.70271 0.0
H1519 H 0.97704 0.68044 0.76784 0.0
C1520 C 1.01004 0.63947 0.67288 0.0
N1521 N 0.99278 0.63816 0.68402 0.0
C1522 C 1.0139 0.62344 0.67647 0.0
C1523 C 0.98206 0.60485 0.70258 0.0
C1524 C 0.9788 0.62119 0.69841 0.0
C1525 C 0.99992 0.60586 0.69185 0.0
H1526 H 0.02096 0.65311 0.66148 0.0
H1527 H 0.96527 0.62041 0.70726 0.0
C1528 C 0.98501 0.71676 0.6493 0.0
N1529 N 0.99111 0.74655 0.60886 0.0
C1530 C 0.99523 0.71854 0.62269 0.0
C1531 C 0.97787 0.73009 0.65531 0.0
C1532 C 0.99817 0.73371 0.60255 0.0
C1533 C 0.98112 0.74506 0.63459 0.0
C1534 C 0.99703 0.66313 0.61862 0.0
C1535 C 1.0121 0.66897 0.59699 0.0
C1536 C 0.97978 0.64385 0.61738 0.0
C1537 C 1.00964 0.6554 0.57437 0.0
C1538 C 0.97789 0.63072 0.59443 0.0
N1539 N 0.99273 0.63671 0.57358 0.0
C1540 C 0.0472 0.71903 0.65595 0.0
C1541 C 0.03496 0.74058 0.67194 0.0
C1542 C 0.06639 0.73574 0.65045 0.0
N1543 N 0.0319 0.72171 0.66617 0.0
C1544 C 0.05392 0.75775 0.66662 0.0
C1545 C 0.06993 0.75548 0.65544 0.0
H1546 H 0.04435 0.70387 0.6515 0.0
H1547 H 0.02261 0.74236 0.68023 0.0
C1548 C 0.93677 0.66955 0.62217 0.0
N1549 N 0.9553 0.67212 0.61511 0.0
C1550 C 0.923 0.66725 0.59987 0.0
C1551 C 0.94766 0.67023 0.56343 0.0
C1552 C 0.961 0.67263 0.58641 0.0
C1553 C 0.92839 0.66757 0.57001 0.0
H1554 H 0.93276 0.66946 0.64521 0.0
H1555 H 0.976 0.67527 0.58126 0.0
O1556 O 1.00203 0.68307 0.70944 0.0
O1557 O 0.9607 0.65632 0.6793 0.0
O1558 O 0.98185 0.70201 0.6694 0.0
O1559 O 0.9993 0.67633 0.64082 0.0
H1560 H 0.02669 0.67986 0.74743 0.0
H1561 H 1.00152 0.71703 0.72076 0.0
H1562 H 0.04613 0.70491 0.78687 0.0
H1563 H 0.02143 0.74142 0.76049 0.0
H1564 H 0.89888 0.60083 0.66298 0.0
H1565 H 0.95154 0.64434 0.7352 0.0
H1566 H 0.93063 0.63061 0.64493 0.0
H1567 H 0.91934 0.61445 0.75171 0.0
H1568 H 0.95675 0.6836 0.80782 0.0
H1569 H 0.9204 0.69164 0.74132 0.0
H1570 H 0.02782 0.62493 0.66763 0.0
H1571 H 0.97101 0.5919 0.71518 0.0
H1572 H 1.00087 0.70839 0.61762 0.0
H1573 H 0.9699 0.72886 0.6758 0.0
H1574 H 1.00606 0.73528 0.5819 0.0
H1575 H 0.97568 0.7555 0.63896 0.0
H1576 H 0.02554 0.68385 0.59766 0.0
H1577 H 0.96797 0.63905 0.63391 0.0
H1578 H 0.02117 0.65972 0.55746 0.0
H1579 H 0.96462 0.61576 0.59319 0.0
H1580 H 0.07809 0.7332 0.64129 0.0
H1581 H 0.05596 0.77264 0.67092 0.0
H1582 H 0.90833 0.66525 0.60591 0.0
H1583 H 0.95262 0.67105 0.5407 0.0
H1584 H 0.25015 0.34935 0.1069 0.0
H1585 H 0.20895 0.36182 0.05923 0.0
H1586 H 0.19697 0.34135 0.15086 0.0
H1587 H 0.18024 0.35712 0.15299 0.0
H1588 H 0.13027 0.35479 0.10658 0.0
H1589 H 0.17564 0.34981 0.05715 0.0
C1590 C 0.23604 0.34968 0.1063 0.0
C1591 C 0.2243 0.3452 0.13189 0.0
C1592 C 0.23038 0.35532 0.08015 0.0
C1593 C 0.21259 0.35669 0.07945 0.0
C1594 C 0.20004 0.35184 0.10501 0.0
C1595 C 0.20619 0.34584 0.13104 0.0
C1596 C 0.18084 0.35317 0.10501 0.0
C1597 C 0.17257 0.35536 0.13209 0.0
C1598 C 0.15431 0.35573 0.13268 0.0
C1599 C 0.14444 0.35458 0.10614 0.0
C1600 C 0.15219 0.3527 0.07904 0.0
C1601 C 0.17029 0.35191 0.07834 0.0
H1602 H 0.68262 0.90505 0.11241 0.0
H1603 H 0.66612 0.84956 0.06758 0.0
H1604 H 0.69054 0.85997 0.15705 0.0
H1605 H 0.67327 0.82712 0.16068 0.0
H1606 H 0.67248 0.77799 0.11395 0.0
H1607 H 0.6786 0.8287 0.06461 0.0
C1608 C 0.68193 0.89047 0.11227 0.0
C1609 C 0.68706 0.88365 0.13777 0.0
C1610 C 0.67481 0.87843 0.08695 0.0
C1611 C 0.67255 0.85896 0.087 0.0
C1612 C 0.67823 0.85176 0.11224 0.0
C1613 C 0.68564 0.86455 0.13748 0.0
C1614 C 0.67627 0.83104 0.11257 0.0
C1615 C 0.67427 0.82075 0.13976 0.0
C1616 C 0.67303 0.80173 0.1403 0.0
C1617 C 0.67334 0.79265 0.11364 0.0
C1618 C 0.67507 0.8022 0.08653 0.0
C1619 C 0.67663 0.82137 0.08587 0.0
H1620 H 0.24379 0.90229 0.10653 0.0
H1621 H 0.20506 0.84612 0.06238 0.0
H1622 H 0.18888 0.85901 0.14884 0.0
H1623 H 0.17313 0.82666 0.15453 0.0
H1624 H 0.12411 0.77729 0.10932 0.0
H1625 H 0.17119 0.82498 0.05815 0.0
C1626 C 0.2297 0.88785 0.10599 0.0
C1627 C 0.21689 0.88171 0.13055 0.0
C1628 C 0.22538 0.87525 0.08139 0.0
C1629 C 0.20772 0.85598 0.08115 0.0
C1630 C 0.19404 0.8495 0.10554 0.0
C1631 C 0.19892 0.86289 0.12998 0.0
C1632 C 0.17497 0.82894 0.10618 0.0
C1633 C 0.16595 0.81976 0.13374 0.0
C1634 C 0.14722 0.80167 0.1349 0.0
C1635 C 0.13819 0.79172 0.10854 0.0
C1636 C 0.14685 0.79985 0.08106 0.0
C1637 C 0.16512 0.81854 0.07969 0.0
H1638 H 0.34922 0.11406 0.89552 0.0
H1639 H 0.36551 0.16881 0.94258 0.0
H1640 H 0.34156 0.15984 0.85291 0.0
H1641 H 0.35884 0.19235 0.84992 0.0
H1642 H 0.36112 0.24197 0.89711 0.0
H1643 H 0.35459 0.19094 0.94615 0.0
C1644 C 0.34988 0.12863 0.89635 0.0
C1645 C 0.345 0.13595 0.87119 0.0
C1646 C 0.3569 0.14025 0.92209 0.0
C1647 C 0.35912 0.15972 0.92288 0.0
C1648 C 0.35366 0.16741 0.89795 0.0
C1649 C 0.34633 0.15499 0.87231 0.0
C1650 C 0.35607 0.18835 0.89805 0.0
C1651 C 0.35808 0.19873 0.87096 0.0
C1652 C 0.35969 0.2179 0.87055 0.0
C1653 C 0.35994 0.22716 0.89729 0.0
C1654 C 0.35845 0.21766 0.92436 0.0
C1655 C 0.35632 0.19823 0.9249 0.0
H1656 H 0.78941 0.11556 0.90616 0.0
H1657 H 0.83538 0.16663 0.95348 0.0
H1658 H 0.83483 0.16542 0.85704 0.0
H1659 H 0.86682 0.18448 0.85932 0.0
H1660 H 0.91021 0.23983 0.89996 0.0
H1661 H 0.85676 0.19929 0.94863 0.0
C1662 C 0.80318 0.13028 0.90591 0.0
C1663 C 0.81192 0.13915 0.87885 0.0
C1664 C 0.8112 0.14039 0.93262 0.0
C1665 C 0.82906 0.15951 0.93242 0.0
C1666 C 0.83864 0.16885 0.90518 0.0
C1667 C 0.82908 0.15861 0.87846 0.0
C1668 C 0.8586 0.18874 0.90422 0.0
C1669 C 0.87097 0.19433 0.87838 0.0
C1670 C 0.88933 0.21276 0.8767 0.0
C1671 C 0.89607 0.22547 0.9013 0.0
C1672 C 0.88454 0.22053 0.9272 0.0
C1673 C 0.86571 0.20237 0.92868 0.0
H1674 H 0.77877 0.66186 0.89716 0.0
H1675 H 0.8296 0.67082 0.94933 0.0
H1676 H 0.8304 0.6658 0.85338 0.0
H1677 H 0.86287 0.6846 0.85796 0.0
H1678 H 0.90884 0.67874 0.90384 0.0
H1679 H 0.85241 0.66047 0.94755 0.0
C1680 C 0.79376 0.66343 0.8983 0.0
C1681 C 0.80386 0.66401 0.87222 0.0
C1682 C 0.80281 0.6655 0.92594 0.0
C1683 C 0.8226 0.66848 0.92772 0.0
C1684 C 0.83324 0.6689 0.90156 0.0
C1685 C 0.82333 0.66632 0.8739 0.0
C1686 C 0.85454 0.67221 0.90272 0.0
C1687 C 0.86757 0.68002 0.87772 0.0
C1688 C 0.887 0.68209 0.87774 0.0
C1689 C 0.89404 0.67761 0.90365 0.0
C1690 C 0.88183 0.67034 0.92889 0.0
C1691 C 0.86196 0.66715 0.92829 0.0
H1692 H 0.91299 0.67713 0.44392 0.0
H1693 H 0.87636 0.69543 0.39567 0.0
H1694 H 0.85945 0.67072 0.4847 0.0
H1695 H 0.84639 0.69 0.48791 0.0
H1696 H 0.79987 0.69422 0.44131 0.0
H1697 H 0.84289 0.68534 0.39175 0.0
C1698 C 0.89936 0.67831 0.44269 0.0
C1699 C 0.8868 0.6735 0.46745 0.0
C1700 C 0.89542 0.68572 0.41674 0.0
C1701 C 0.87862 0.68877 0.41547 0.0
C1702 C 0.86522 0.6836 0.44006 0.0
C1703 C 0.86948 0.67554 0.46573 0.0
C1704 C 0.8473 0.68706 0.43979 0.0
C1705 C 0.83933 0.68958 0.46691 0.0
C1706 C 0.82217 0.69188 0.46749 0.0
C1707 C 0.81328 0.69261 0.44089 0.0
C1708 C 0.8208 0.69054 0.41371 0.0
C1709 C 0.83769 0.68758 0.41298 0.0
H1710 H 0.35043 0.24015 0.43957 0.0
H1711 H 0.3482 0.19142 0.39002 0.0
H1712 H 0.35177 0.19227 0.48644 0.0
H1713 H 0.36298 0.17213 0.48295 0.0
H1714 H 0.35175 0.11817 0.43847 0.0
H1715 H 0.33948 0.15989 0.3927 0.0
C1716 C 0.35085 0.22611 0.43926 0.0
C1717 C 0.35244 0.21769 0.46585 0.0
C1718 C 0.34893 0.21647 0.41225 0.0
C1719 C 0.34907 0.19809 0.41147 0.0
C1720 C 0.35052 0.18887 0.43814 0.0
C1721 C 0.35157 0.19883 0.46534 0.0
C1722 C 0.35105 0.16919 0.43788 0.0
C1723 C 0.35756 0.16288 0.46329 0.0
C1724 C 0.35755 0.14444 0.46377 0.0
C1725 C 0.35199 0.13254 0.43827 0.0
C1726 C 0.34598 0.13837 0.41268 0.0
C1727 C 0.34507 0.15636 0.41252 0.0
H1728 H 0.9168 0.23342 0.44419 0.0
H1729 H 0.87291 0.17955 0.39998 0.0
H1730 H 0.86012 0.195 0.487 0.0
H1731 H 0.84098 0.16248 0.49251 0.0
H1732 H 0.7888 0.1174 0.44662 0.0
H1733 H 0.8395 0.16122 0.39616 0.0
C1734 C 0.90184 0.21998 0.44399 0.0
C1735 C 0.8892 0.21536 0.46865 0.0
C1736 C 0.89583 0.20737 0.41918 0.0
C1737 C 0.87687 0.18942 0.41904 0.0
C1738 C 0.86355 0.18427 0.44371 0.0
C1739 C 0.86999 0.19777 0.46821 0.0
C1740 C 0.84306 0.16513 0.44422 0.0
C1741 C 0.83338 0.15642 0.47161 0.0
C1742 C 0.81359 0.13973 0.47245 0.0
C1743 C 0.80377 0.13083 0.44595 0.0
C1744 C 0.81328 0.13817 0.41864 0.0
C1745 C 0.83277 0.15543 0.41764 0.0
H1746 H 0.03289 0.45361 0.22927 0.0
H1747 H 0.02416 0.49629 0.2793 0.0
H1748 H 0.0347 0.50391 0.18426 0.0
H1749 H 1.01602 0.51827 0.1866 0.0
H1750 H 0.01977 0.56882 0.23324 0.0
H1751 H 0.03672 0.52997 0.2781 0.0
C1752 C 0.0322 0.46749 0.2299 0.0
C1753 C 0.03395 0.47793 0.20362 0.0
C1754 C 0.02905 0.47424 0.25704 0.0
C1755 C 0.02731 0.49175 0.25814 0.0
C1756 C 0.02899 0.50278 0.23185 0.0
C1757 C 0.03262 0.49567 0.20471 0.0
C1758 C 0.02652 0.52124 0.23242 0.0
C1759 C 0.01981 0.52707 0.20679 0.0
C1760 C 0.01751 0.54425 0.20702 0.0
C1761 C 0.02128 0.55538 0.23308 0.0
C1762 C 0.02795 0.55015 0.25863 0.0
C1763 C 0.03086 0.53332 0.25833 0.0
H1764 H 0.45078 0.45427 0.2352 0.0
H1765 H 0.49596 0.5064 0.28153 0.0
H1766 H 0.50355 0.49735 0.18818 0.0
H1767 H 0.52077 0.53001 0.18623 0.0
H1768 H 0.57341 0.57652 0.22929 0.0
H1769 H 0.5296 0.52644 0.28085 0.0
C1770 C 0.46529 0.4683 0.23508 0.0
C1771 C 0.47607 0.47517 0.20864 0.0
C1772 C 0.47264 0.47918 0.26135 0.0
C1773 C 0.49108 0.49773 0.26121 0.0
C1774 C 0.50274 0.50495 0.23474 0.0
C1775 C 0.4951 0.49293 0.20873 0.0
C1776 C 0.52235 0.52504 0.23369 0.0
C1777 C 0.52951 0.5356 0.2064 0.0
C1778 C 0.54792 0.554 0.20478 0.0
C1779 C 0.55915 0.56228 0.23054 0.0
C1780 C 0.55253 0.55256 0.25788 0.0
C1781 C 0.53419 0.53395 0.25957 0.0
H1782 H 0.45417 1.00951 0.23751 0.0
H1783 H 0.49042 0.98992 0.28408 0.0
H1784 H 0.50643 0.01455 0.1948 0.0
H1785 H 0.52064 0.99676 0.19084 0.0
H1786 H 0.5661 0.99026 0.23639 0.0
H1787 H 0.52322 0.99851 0.28725 0.0
C1788 C 0.46763 1.008 0.23839 0.0
C1789 C 0.47973 0.01234 0.21324 0.0
C1790 C 0.47162 1.00029 0.26399 0.0
C1791 C 0.4882 0.99684 0.26456 0.0
C1792 C 0.50135 1.00191 0.23963 0.0
C1793 C 0.49686 1.01001 0.21424 0.0
C1794 C 0.51917 0.99823 0.23922 0.0
C1795 C 0.52737 0.99646 0.21178 0.0
C1796 C 0.5444 0.99394 0.21074 0.0
C1797 C 0.55279 0.99203 0.23712 0.0
C1798 C 0.545 0.99326 0.26455 0.0
C1799 C 0.52847 0.99676 0.26577 0.0
H1800 H 0.58512 0.0215 0.78301 0.0
H1801 H 0.53606 0.01738 0.7311 0.0
H1802 H 0.53772 0.02563 0.82677 0.0
H1803 H 0.50567 0.01256 0.82427 0.0
H1804 H 0.46285 0.02232 0.77674 0.0
H1805 H 0.51506 0.02917 0.73084 0.0
C1806 C 0.57083 0.02146 0.78178 0.0
C1807 C 0.56193 0.02318 0.80773 0.0
C1808 C 0.56168 0.01963 0.75427 0.0
C1809 C 0.54304 0.01935 0.75264 0.0
C1810 C 0.53357 0.02117 0.77876 0.0
C1811 C 0.5436 0.02333 0.80625 0.0
C1812 C 0.51355 0.02095 0.77769 0.0
C1813 C 0.50144 0.01667 0.80366 0.0
C1814 C 0.48372 0.01807 0.80366 0.0
C1815 C 0.47693 0.02193 0.7771 0.0
C1816 C 0.4879 0.0254 0.75091 0.0
C1817 C 0.50642 0.02544 0.75118 0.0
H1818 H 1.01626 0.5723 0.78303 0.0
H1819 H 1.01168 0.52407 0.72841 0.0
H1820 H 1.01083 0.51961 0.82453 0.0
H1821 H 0.02721 0.50358 0.81755 0.0
H1822 H 1.01302 0.44869 0.77319 0.0
H1823 H 0.99808 0.49001 0.73109 0.0
C1824 C 1.01512 0.55757 0.78097 0.0
C1825 C 1.01448 0.54704 0.80651 0.0
C1826 C 1.01344 0.54911 0.75292 0.0
C1827 C 1.01215 0.53004 0.75034 0.0
C1828 C 1.01208 0.51926 0.77613 0.0
C1829 C 1.01222 0.52772 0.80418 0.0
C1830 C 1.01254 0.49971 0.77445 0.0
C1831 C 0.02063 0.4939 0.79844 0.0
C1832 C 0.02054 0.47547 0.79823 0.0
C1833 C 1.01336 0.46311 0.7733 0.0
C1834 C 1.00555 0.4684 0.74906 0.0
C1835 C 1.00488 0.48655 0.7496 0.0
H1836 H 0.57709 0.57185 0.7703 0.0
H1837 H 0.54007 0.51484 0.72746 0.0
H1838 H 0.52493 0.52599 0.81566 0.0
H1839 H 0.51249 0.49361 0.82138 0.0
H1840 H 0.46613 0.44077 0.77832 0.0
H1841 H 0.50638 0.49202 0.72545 0.0
C1842 C 0.56353 0.55698 0.77043 0.0
C1843 C 0.55162 0.55011 0.79597 0.0
C1844 C 0.5592 0.5445 0.74566 0.0
C1845 C 0.54255 0.52461 0.74628 0.0
C1846 C 0.52971 0.51738 0.77155 0.0
C1847 C 0.53443 0.53063 0.7961 0.0
C1848 C 0.51205 0.49598 0.77312 0.0
C1849 C 0.50502 0.48621 0.80097 0.0
C1850 C 0.4884 0.46645 0.80291 0.0
C1851 C 0.47913 0.45599 0.77695 0.0
C1852 C 0.48574 0.46499 0.74917 0.0
C1853 C 0.50194 0.48507 0.74714 0.0
H1854 H 0.68183 0.78212 0.56716 0.0
H1855 H 0.69954 0.83795 0.6122 0.0
H1856 H 0.67566 0.82817 0.52246 0.0
H1857 H 0.69409 0.86088 0.5189 0.0
H1858 H 0.6953 0.91064 0.56425 0.0
H1859 H 0.68751 0.85961 0.61475 0.0
C1860 C 0.68292 0.79688 0.56742 0.0
C1861 C 0.67828 0.80405 0.54186 0.0
C1862 C 0.69027 0.80889 0.59277 0.0
C1863 C 0.69299 0.82857 0.59278 0.0
C1864 C 0.68769 0.83607 0.56748 0.0
C1865 C 0.68018 0.82335 0.54217 0.0
C1866 C 0.69031 0.85708 0.56694 0.0
C1867 C 0.69295 0.86739 0.53961 0.0
C1868 C 0.69461 0.88657 0.53859 0.0
C1869 C 0.69417 0.89586 0.56496 0.0
C1870 C 0.69187 0.88634 0.59228 0.0
C1871 C 0.68987 0.86696 0.59341 0.0
H1872 H 0.12224 0.78355 0.56817 0.0
H1873 H 0.15961 0.84034 0.61145 0.0
H1874 H 0.17555 0.82883 0.52408 0.0
H1875 H 0.18698 0.86147 0.51814 0.0
H1876 H 0.23514 0.91322 0.56084 0.0
H1877 H 0.19426 0.86217 0.61374 0.0
C1878 C 0.13591 0.79833 0.56818 0.0
C1879 C 0.14835 0.80489 0.54311 0.0
C1880 C 0.14011 0.81082 0.59289 0.0
C1881 C 0.15703 0.83055 0.59261 0.0
C1882 C 0.17013 0.83758 0.56763 0.0
C1883 C 0.16566 0.82428 0.54322 0.0
C1884 C 0.18799 0.85881 0.56624 0.0
C1885 C 0.19484 0.86867 0.53846 0.0
C1886 C 0.21184 0.88817 0.53649 0.0
C1887 C 0.2218 0.89823 0.56234 0.0
C1888 C 0.21546 0.88904 0.59006 0.0
C1889 C 0.19862 0.86932 0.59217 0.0
H1890 H 0.11468 0.33113 0.56657 0.0
H1891 H 0.16577 0.33882 0.61699 0.0
H1892 H 0.16346 0.32986 0.52164 0.0
H1893 H 0.19622 0.34909 0.52423 0.0
H1894 H 0.24284 0.3433 0.568 0.0
H1895 H 0.18763 0.32672 0.61475 0.0
C1896 C 0.12928 0.33181 0.56728 0.0
C1897 C 0.13823 0.33054 0.541 0.0
C1898 C 0.13891 0.33438 0.59456 0.0
C1899 C 0.15824 0.33613 0.59575 0.0
C1900 C 0.16783 0.33499 0.56935 0.0
C1901 C 0.15723 0.33173 0.54216 0.0
C1902 C 0.18886 0.33763 0.5696 0.0
C1903 C 0.20126 0.34475 0.5439 0.0
C1904 C 0.22054 0.34656 0.54314 0.0
C1905 C 0.22804 0.34219 0.56858 0.0
C1906 C 0.21637 0.33532 0.59438 0.0
C1907 C 0.19671 0.33278 0.59492 0.0
C1908 C 0.04763 0.44868 0.14971 0.0
C1909 C 0.0337 0.44463 0.1266 0.0
H1910 H 0.05916 0.46301 0.19159 0.0
C1911 C 0.0218 0.45408 0.12726 0.0
H1912 H 0.05699 0.44168 0.15017 0.0
C1913 C 0.02289 0.46618 0.15136 0.0
C1914 C 0.03592 0.46911 0.17527 0.0
H1915 H 1.01126 0.45172 0.10951 0.0
H1916 H 1.01274 0.4723 0.15203 0.0
C1917 C 0.0488 0.46084 0.17362 0.0
C1918 C 0.57219 0.56594 0.12883 0.0
C1919 C 0.58032 0.58708 0.12738 0.0
H1920 H 0.55517 0.53876 0.15446 0.0
C1921 C 0.57527 0.59659 0.14984 0.0
H1922 H 0.57583 0.55812 0.11201 0.0
C1923 C 0.56352 0.5855 0.17406 0.0
C1924 C 0.5564 0.56462 0.17631 0.0
H1925 H 0.58077 0.61272 0.14907 0.0
H1926 H 0.56061 0.5934 0.19166 0.0
C1927 C 0.56029 0.5548 0.15305 0.0
C1928 C 0.45718 1.00431 0.13673 0.0
C1929 C 0.44983 0.01796 0.13658 0.0
H1930 H 0.47306 0.99231 0.161 0.0
C1931 C 0.45502 0.0318 0.16005 0.0
H1932 H 0.4536 0.99365 0.1187 0.0
C1933 C 0.46612 0.03102 0.18423 0.0
C1934 C 0.4725 0.0166 0.18512 0.0
H1935 H 0.44954 0.04247 0.16049 0.0
H1936 H 0.46892 0.04103 0.20289 0.0
C1937 C 0.46854 1.00373 0.1607 0.0
C1938 C 0.45347 0.02844 0.86019 0.0
C1939 C 0.44638 0.01163 0.87912 0.0
H1940 H 0.47124 0.04385 0.82217 0.0
C1941 C 0.45316 0.99768 0.8747 0.0
H1942 H 0.44898 0.03975 0.8635 0.0
C1943 C 0.46603 1.00005 0.85086 0.0
C1944 C 0.47231 0.01643 0.8312 0.0
H1945 H 0.44798 0.9846 0.88905 0.0
H1946 H 0.47041 0.98871 0.84713 0.0
C1947 C 0.4663 0.03084 0.83662 0.0
C1948 C 0.01697 0.45444 0.87509 0.0
C1949 C 0.02888 0.44511 0.87233 0.0
H1950 H 1.00539 0.47177 0.85385 0.0
C1951 C 0.04017 0.44829 0.84616 0.0
H1952 H 1.00786 0.45219 0.89469 0.0
C1953 C 0.03853 0.45935 0.82265 0.0
C1954 C 0.02579 0.46771 0.82494 0.0
H1955 H 0.04991 0.4418 0.84348 0.0
H1956 H 0.04664 0.46075 0.80223 0.0
C1957 C 1.01555 0.46573 0.8517 0.0
C1958 C 0.57783 0.59606 0.84582 0.0
C1959 C 0.5809 0.5876 0.87166 0.0
H1960 H 0.56556 0.59074 0.80185 0.0
C1961 C 0.57173 0.56637 0.87371 0.0
H1962 H 0.58426 0.6123 0.84377 0.0
C1963 C 0.56083 0.55402 0.84981 0.0
C1964 C 0.55892 0.56262 0.8233 0.0
H1965 H 0.57389 0.55932 0.89317 0.0
H1966 H 0.55504 0.53785 0.85141 0.0
C1967 C 0.56697 0.58371 0.82192 0.0
C1968 C 0.03491 0.5862 0.86701 0.0
C1969 C 0.01768 0.57991 0.88504 0.0
H1970 H 0.04729 0.58047 0.82795 0.0
C1971 C 1.00009 0.56125 0.87884 0.0
H1972 H 0.04886 0.60019 0.8715 0.0
C1973 C 0.99944 0.54972 0.85428 0.0
C1974 C 1.01628 0.55675 0.83546 0.0
H1975 H 0.98647 0.556 0.89203 0.0
H1976 H 0.98545 0.53593 0.84907 0.0
C1977 C 0.03414 0.57482 0.84232 0.0
C1978 C 0.46207 0.42567 0.86079 0.0
C1979 C 0.45445 0.43476 0.88014 0.0
H1980 H 0.47926 0.42881 0.82155 0.0
C1981 C 0.46062 0.45538 0.87611 0.0
H1982 H 0.4581 0.41 0.86369 0.0
C1983 C 0.47304 0.46625 0.85215 0.0
C1984 C 0.47945 0.45668 0.83174 0.0
H1985 H 0.455 0.46284 0.89053 0.0
H1986 H 0.47656 0.48174 0.84853 0.0
C1987 C 0.47437 0.43649 0.83684 0.0
C1988 C 0.57384 1.00661 0.88012 0.0
C1989 C 0.59439 0.02145 0.8842 0.0
H1990 H 0.54726 0.99584 0.85281 0.0
C1991 C 0.60313 0.03822 0.86489 0.0
H1992 H 0.5666 0.99339 0.89432 0.0
C1993 C 0.59208 0.03943 0.84102 0.0
C1994 C 0.57194 0.02411 0.83623 0.0
H1995 H 0.61869 0.05024 0.86776 0.0
H1996 H 0.5995 0.05198 0.82562 0.0
C1997 C 0.5627 1.00799 0.85641 0.0
C1998 C 0.57399 0.98324 0.15345 0.0
C1999 C 0.58226 1.00094 0.13606 0.0
H2000 H 0.55511 0.96695 0.19038 0.0
C2001 C 0.57561 0.01494 0.14103 0.0
H2002 H 0.57828 0.97184 0.14973 0.0
C2003 C 0.56197 0.01188 0.164 0.0
C2004 C 0.55482 0.99484 0.18252 0.0
H2005 H 0.5817 0.02877 0.12815 0.0
H2006 H 0.55801 0.02345 0.16844 0.0
C2007 C 0.56051 0.98028 0.17649 0.0
C2008 C 0.99578 0.56884 0.15791 0.0
C2009 C 1.00956 0.57563 0.13412 0.0
H2010 H 0.98731 0.55316 0.19954 0.0
C2011 C 0.02418 0.56947 0.1326 0.0
H2012 H 0.98439 0.57335 0.15977 0.0
C2013 C 0.02567 0.55768 0.15523 0.0
C2014 C 1.01271 0.55203 0.1799 0.0
H2015 H 0.0348 0.57421 0.11428 0.0
H2016 H 0.03774 0.55405 0.15433 0.0
C2017 C 0.99741 0.55725 0.18063 0.0
C2018 C 0.43573 0.44609 0.15138 0.0
C2019 C 0.44472 0.43741 0.13402 0.0
H2020 H 0.43886 0.46516 0.18809 0.0
C2021 C 0.46511 0.44295 0.13949 0.0
H2022 H 0.42029 0.44263 0.14724 0.0
C2023 C 0.47588 0.45612 0.16288 0.0
C2024 C 0.46639 0.46388 0.18108 0.0
H2025 H 0.47246 0.43653 0.12643 0.0
H2026 H 0.49124 0.4595 0.16755 0.0
C2027 C 0.44642 0.45913 0.17461 0.0
C2028 C 0.65885 0.75867 0.4911 0.0
C2029 C 0.67177 0.76702 0.46646 0.0
H2030 H 0.65042 0.76399 0.53409 0.0
C2031 C 0.68473 0.78819 0.46525 0.0
H2032 H 0.64832 0.74253 0.49249 0.0
C2033 C 0.68561 0.80051 0.48886 0.0
C2034 C 0.67369 0.79192 0.51428 0.0
H2035 H 0.69505 0.79519 0.44681 0.0
H2036 H 0.69661 0.81657 0.48807 0.0
C2037 C 0.65986 0.77097 0.51478 0.0
C2038 C 0.23963 0.89932 0.46349 0.0
C2039 C 0.24555 0.91988 0.45928 0.0
H2040 H 0.22385 0.87299 0.49115 0.0
C2041 C 0.23778 0.92887 0.47855 0.0
H2042 H 0.24539 0.89192 0.44921 0.0
C2043 C 0.22557 0.91804 0.50255 0.0
C2044 C 0.22064 0.8979 0.50766 0.0
H2045 H 0.24153 0.94446 0.47553 0.0
H2046 H 0.2206 0.92564 0.51787 0.0
C2047 C 0.22722 0.88842 0.48741 0.0
C2048 C 0.1279 0.34412 0.46469 0.0
C2049 C 0.10661 0.33225 0.46325 0.0
H2050 H 0.1547 0.35281 0.49056 0.0
C2051 C 0.09623 0.318 0.48574 0.0
H2052 H 0.13629 0.35523 0.44765 0.0
C2053 C 0.10676 0.31647 0.51001 0.0
C2054 C 0.12788 0.32925 0.51248 0.0
H2055 H 0.07989 0.30829 0.48485 0.0
H2056 H 0.09825 0.30576 0.52745 0.0
C2057 C 0.13845 0.34266 0.48914 0.0
C2058 C 0.12548 0.33803 0.20484 0.0
C2059 C 0.1179 0.35146 0.20795 0.0
H2060 H 0.14339 0.32918 0.17876 0.0
C2061 C 0.12469 0.36782 0.18806 0.0
H2062 H 0.12051 0.32516 0.21954 0.0
C2063 C 0.13765 0.36998 0.16466 0.0
C2064 C 0.14436 0.35598 0.16079 0.0
H2065 H 0.11967 0.37879 0.19018 0.0
H2066 H 0.14189 0.3822 0.14891 0.0
C2067 C 0.13866 0.34034 0.18156 0.0
C2068 C 0.68952 0.78937 0.21273 0.0
C2069 C 0.6756 0.76846 0.21541 0.0
H2070 H 0.69937 0.81645 0.18696 0.0
C2071 C 0.65938 0.7594 0.19519 0.0
H2072 H 0.70225 0.79686 0.22779 0.0
C2073 C 0.65781 0.77062 0.1719 0.0
C2074 C 0.67231 0.79122 0.16835 0.0
H2075 H 0.64805 0.74349 0.19701 0.0
H2076 H 0.64562 0.76302 0.15597 0.0
C2077 C 0.68785 0.80065 0.18945 0.0
C2078 C 0.24247 0.92784 0.17985 0.0
C2079 C 0.24596 0.91964 0.20566 0.0
H2080 H 0.23009 0.92211 0.13589 0.0
C2081 C 0.23711 0.89844 0.20787 0.0
H2082 H 0.24858 0.94402 0.17763 0.0
C2083 C 0.22611 0.88589 0.1842 0.0
C2084 C 0.2239 0.89428 0.15773 0.0
H2085 H 0.23961 0.89154 0.22721 0.0
H2086 H 0.22054 0.86976 0.18586 0.0
C2087 C 0.23166 0.9153 0.15608 0.0
C2088 C 0.68241 0.89977 0.21522 0.0
C2089 C 0.69367 0.92101 0.21259 0.0
H2090 H 0.67164 0.87117 0.19345 0.0
C2091 C 0.7053 0.92959 0.18691 0.0
H2092 H 0.67327 0.89272 0.23475 0.0
C2093 C 0.70455 0.91727 0.16349 0.0
C2094 C 0.692 0.89609 0.16511 0.0
H2095 H 0.71449 0.94589 0.18454 0.0
H2096 H 0.71299 0.92436 0.14344 0.0
C2097 C 0.68156 0.88741 0.19165 0.0
C2098 C 0.10384 0.7742 0.18877 0.0
C2099 C 0.11335 0.77068 0.2128 0.0
H2100 H 0.10726 0.78747 0.14596 0.0
C2101 C 0.13461 0.7794 0.21267 0.0
H2102 H 0.08753 0.76798 0.18861 0.0
C2103 C 0.14599 0.79041 0.18794 0.0
C2104 C 0.13624 0.79293 0.16318 0.0
H2105 H 0.14226 0.77689 0.23106 0.0
H2106 H 0.1622 0.79607 0.18761 0.0
C2107 C 0.11515 0.78534 0.1644 0.0
C2108 C 0.2461 0.35274 0.20915 0.0
C2109 C 0.25436 0.33983 0.2089 0.0
H2110 H 0.22958 0.36415 0.18506 0.0
C2111 C 0.25051 0.32697 0.18448 0.0
H2112 H 0.2486 0.36262 0.22787 0.0
C2113 C 0.23961 0.32782 0.1601 0.0
C2114 C 0.23216 0.34139 0.15979 0.0
H2115 H 0.25671 0.3169 0.18361 0.0
H2116 H 0.23763 0.31839 0.14099 0.0
C2117 C 0.23499 0.35343 0.18487 0.0
C2118 C 0.23574 0.33987 0.46616 0.0
C2119 C 0.25684 0.35347 0.46644 0.0
H2120 H 0.20765 0.32736 0.49011 0.0
C2121 C 0.26527 0.36669 0.49073 0.0
H2122 H 0.22867 0.32927 0.44808 0.0
C2123 C 0.25319 0.36538 0.51494 0.0
C2124 C 0.23236 0.35102 0.51525 0.0
H2125 H 0.28133 0.37773 0.49145 0.0
H2126 H 0.26026 0.37509 0.53395 0.0
C2127 C 0.22362 0.33875 0.49024 0.0
C2128 C 0.70894 0.92864 0.483 0.0
C2129 C 0.69283 0.91954 0.46261 0.0
H2130 H 0.72237 0.92514 0.52268 0.0
C2131 C 0.67888 0.89865 0.46532 0.0
H2132 H 0.72029 0.94454 0.48116 0.0
C2133 C 0.68033 0.88744 0.48889 0.0
C2134 C 0.69569 0.89695 0.51025 0.0
H2135 H 0.66623 0.89114 0.45011 0.0
H2136 H 0.66874 0.87168 0.49143 0.0
C2137 C 0.7103 0.9175 0.50658 0.0
C2138 C 0.13094 0.78736 0.46458 0.0
C2139 C 0.12071 0.76619 0.4681 0.0
H2140 H 0.14783 0.81632 0.48571 0.0
C2141 C 0.12238 0.75803 0.49516 0.0
H2142 H 0.12987 0.79406 0.44394 0.0
C2143 C 0.13291 0.77074 0.51888 0.0
C2144 C 0.14174 0.79189 0.51618 0.0
H2145 H 0.11499 0.74177 0.49828 0.0
H2146 H 0.13329 0.76396 0.53981 0.0
C2147 C 0.14132 0.80011 0.48844 0.0
C2148 C 0.32748 0.0917 0.81865 0.0
C2149 C 0.34012 0.10099 0.79401 0.0
H2150 H 0.31869 0.09559 0.86219 0.0
C2151 C 0.3521 0.12228 0.79343 0.0
H2152 H 0.3177 0.0754 0.81954 0.0
C2153 C 0.3524 0.13386 0.8177 0.0
C2154 C 0.34084 0.12439 0.84311 0.0
H2155 H 0.36214 0.12998 0.77496 0.0
H2156 H 0.36273 0.15008 0.81737 0.0
C2157 C 0.32788 0.10326 0.84295 0.0
C2158 C 0.93383 0.2386 0.82429 0.0
C2159 C 0.9249 0.2426 0.79978 0.0
H2160 H 0.92944 0.22567 0.86779 0.0
C2161 C 0.90362 0.23401 0.79932 0.0
H2162 H 0.95006 0.24447 0.82515 0.0
C2163 C 0.89178 0.22277 0.82348 0.0
C2164 C 0.90097 0.22007 0.8487 0.0
H2165 H 0.89615 0.23687 0.78106 0.0
H2166 H 0.87562 0.21737 0.82325 0.0
C2167 C 0.92202 0.2276 0.84856 0.0
C2168 C 0.76312 0.65169 0.81497 0.0
C2169 C 0.77322 0.66778 0.79484 0.0
H2170 H 0.76513 0.6375 0.85479 0.0
C2171 C 0.79422 0.681 0.79824 0.0
H2172 H 0.74707 0.64093 0.81251 0.0
C2173 C 0.80462 0.67891 0.82237 0.0
C2174 C 0.79418 0.66358 0.84348 0.0
H2175 H 0.80242 0.69356 0.7831 0.0
H2176 H 0.82052 0.69 0.82546 0.0
C2177 C 0.77349 0.64961 0.839 0.0
C2178 C 0.79199 0.67327 0.53836 0.0
C2179 C 0.78547 0.68747 0.54232 0.0
H2180 H 0.80915 0.66382 0.51171 0.0
C2181 C 0.79343 0.70454 0.52364 0.0
H2182 H 0.78609 0.65987 0.55216 0.0
C2183 C 0.80652 0.70669 0.50044 0.0
C2184 C 0.81213 0.69194 0.49558 0.0
H2185 H 0.78922 0.71607 0.52651 0.0
H2186 H 0.8117 0.71952 0.48557 0.0
C2187 C 0.80527 0.67554 0.51527 0.0
C2188 C 0.35221 0.12401 0.54175 0.0
C2189 C 0.3629 0.11339 0.53964 0.0
H2190 H 0.34229 0.14238 0.51933 0.0
C2191 C 0.37411 0.11553 0.51379 0.0
H2192 H 0.34335 0.12263 0.56132 0.0
C2193 C 0.37361 0.12693 0.4899 0.0
C2194 C 0.3618 0.13641 0.49123 0.0
H2195 H 0.38289 0.10794 0.51174 0.0
H2196 H 0.3818 0.12766 0.46985 0.0
C2197 C 0.35167 0.13542 0.51776 0.0
C2198 C 0.90634 0.23258 0.54744 0.0
C2199 C 0.91856 0.25368 0.54368 0.0
H2200 H 0.88734 0.20387 0.52658 0.0
C2201 C 0.91885 0.26217 0.51591 0.0
H2202 H 0.90586 0.22556 0.56855 0.0
C2203 C 0.90814 0.24978 0.492 0.0
C2204 C 0.89699 0.22858 0.49525 0.0
H2205 H 0.92775 0.2784 0.51247 0.0
H2206 H 0.90917 0.25675 0.47064 0.0
C2207 C 0.89566 0.22015 0.52344 0.0
C2208 C 0.36709 0.26146 0.51843 0.0
C2209 C 0.35435 0.25189 0.54273 0.0
H2210 H 0.37712 0.25802 0.47577 0.0
C2211 C 0.34254 0.23062 0.54321 0.0
H2212 H 0.37663 0.27781 0.51782 0.0
C2213 C 0.34257 0.2192 0.51884 0.0
C2214 C 0.35457 0.22893 0.49383 0.0
H2215 H 0.33262 0.22292 0.5618 0.0
H2216 H 0.3325 0.20294 0.519 0.0
C2217 C 0.36735 0.25011 0.49442 0.0
C2218 C 0.79926 0.11181 0.54584 0.0
C2219 C 0.7789 0.10709 0.5488 0.0
H2220 H 0.8264 0.12615 0.51935 0.0
C2221 C 0.77107 0.11532 0.52828 0.0
H2222 H 0.80576 0.10565 0.56115 0.0
C2223 C 0.78286 0.12695 0.50446 0.0
C2224 C 0.8028 0.13076 0.50066 0.0
H2225 H 0.75566 0.11246 0.53028 0.0
H2226 H 0.77615 0.13245 0.48839 0.0
C2227 C 0.81113 0.12359 0.52199 0.0
C2228 C 0.90468 0.67764 0.54674 0.0
C2229 C 0.91457 0.66622 0.5457 0.0
H2230 H 0.88794 0.68878 0.5227 0.0
C2231 C 0.91242 0.65472 0.52021 0.0
H2232 H 0.9061 0.68672 0.56604 0.0
C2233 C 0.90187 0.65575 0.49555 0.0
C2234 C 0.89335 0.66843 0.49571 0.0
H2235 H 0.91949 0.64542 0.51899 0.0
H2236 H 0.9012 0.64736 0.47578 0.0
C2237 C 0.89418 0.67875 0.52196 0.0
C2238 C 0.90269 0.67796 0.79945 0.0
C2239 C 0.92399 0.6891 0.80164 0.0
H2240 H 0.87423 0.66706 0.82185 0.0
C2241 C 0.93283 0.70021 0.82762 0.0
H2242 H 0.89543 0.66919 0.77974 0.0
C2243 C 0.9207 0.6992 0.85157 0.0
C2244 C 0.89944 0.68688 0.85024 0.0
H2245 H 0.94918 0.70928 0.82973 0.0
H2246 H 0.92803 0.70741 0.87164 0.0
C2247 C 0.89053 0.67683 0.82353 0.0
C2248 C 0.34319 0.2299 0.79781 0.0
C2249 C 0.35688 0.25086 0.79523 0.0
H2250 H 0.33353 0.2029 0.82365 0.0
C2251 C 0.373 0.26011 0.81556 0.0
H2252 H 0.33056 0.22229 0.78258 0.0
C2253 C 0.37466 0.24902 0.83895 0.0
C2254 C 0.3603 0.22837 0.84251 0.0
H2255 H 0.38415 0.27608 0.81378 0.0
H2256 H 0.38679 0.25675 0.85493 0.0
C2257 C 0.34491 0.21875 0.82122 0.0
C2258 C 0.78472 0.12371 0.80481 0.0
C2259 C 0.77961 0.10322 0.80304 0.0
H2260 H 0.79918 0.15128 0.83014 0.0
C2261 C 0.78694 0.09543 0.82504 0.0
H2262 H 0.77922 0.13019 0.7884 0.0
C2263 C 0.7982 0.10746 0.84889 0.0
C2264 C 0.80257 0.12764 0.85126 0.0
H2265 H 0.78378 0.07992 0.82404 0.0
H2266 H 0.80316 0.10085 0.86592 0.0
C2267 C 0.79616 0.13583 0.82866 0.0
C2268 C 0.10621 0.3372 0.03274 0.0
C2269 C 0.11128 0.3557 0.01887 0.0
H2270 H 0.11584 0.32156 0.06215 0.0
C2271 C 0.13174 0.37136 0.01925 0.0
H2272 H 0.09065 0.32484 0.03325 0.0
C2273 C 0.14621 0.36938 0.03593 0.0
C2274 C 0.1405 0.35167 0.05227 0.0
H2275 H 0.13628 0.38567 0.00832 0.0
H2276 H 0.16131 0.38238 0.03833 0.0
C2277 C 0.12068 0.33523 0.04924 0.0
C2278 C 0.68824 0.77093 0.03797 0.0
C2279 C 0.66928 0.75797 0.02484 0.0
H2280 H 0.7051 0.79587 0.06746 0.0
C2281 C 0.65397 0.76319 0.02669 0.0
H2282 H 0.70036 0.76738 0.03732 0.0
C2283 C 0.6568 0.77966 0.04403 0.0
C2284 C 0.67502 0.79121 0.05957 0.0
H2285 H 0.63931 0.75376 0.01641 0.0
H2286 H 0.64413 0.78218 0.04748 0.0
C2287 C 0.69105 0.78736 0.0552 0.0
C2288 C 0.25989 0.91157 0.02459 0.0
C2289 C 0.27799 0.9117 0.03157 0.0
H2290 H 0.22825 0.89898 0.03467 0.0
C2291 C 0.27688 0.8959 0.04911 0.0
H2292 H 0.26025 0.92359 0.01128 0.0
C2293 C 0.25846 0.88159 0.06198 0.0
C2294 C 0.24085 0.88286 0.05764 0.0
H2295 H 0.29052 0.89544 0.05457 0.0
H2296 H 0.25845 0.87088 0.07781 0.0
C2297 C 0.24149 0.89734 0.0377 0.0
C2298 C 0.35153 0.10261 0.97956 0.0
C2299 C 0.36993 0.10274 0.9755 0.0
H2300 H 0.33308 0.1152 0.9659 0.0
C2301 C 0.38556 0.11868 0.95928 0.0
H2302 H 0.33918 0.09046 0.99179 0.0
C2303 C 0.38217 0.13302 0.94498 0.0
C2304 C 0.36309 0.13164 0.94659 0.0
H2305 H 0.39996 0.11927 0.95604 0.0
H2306 H 0.39379 0.14398 0.93035 0.0
C2307 C 0.34809 0.11688 0.965 0.0
C2308 C 0.9227 0.25437 0.98266 0.0
C2309 C 0.92231 0.27239 0.97752 0.0
H2310 H 0.91013 0.22304 0.97101 0.0
C2311 C 0.90574 0.27129 0.96196 0.0
H2312 H 0.9353 0.25471 0.99439 0.0
C2313 C 0.89116 0.25306 0.94903 0.0
C2314 C 0.89288 0.23561 0.95139 0.0
H2315 H 0.90487 0.28486 0.95795 0.0
H2316 H 0.8798 0.25314 0.9346 0.0
C2317 C 0.90817 0.23616 0.96954 0.0
C2318 C 0.77132 0.67941 0.97256 0.0
C2319 C 0.75579 0.66007 0.98141 0.0
H2320 H 0.79924 0.69639 0.94862 0.0
C2321 C 0.75904 0.64353 0.97816 0.0
H2322 H 0.76937 0.6925 0.97441 0.0
C2323 C 0.77632 0.64588 0.96346 0.0
C2324 C 0.79073 0.66482 0.952 0.0
H2325 H 0.7476 0.62849 0.98521 0.0
H2326 H 0.77743 0.63254 0.95856 0.0
C2327 C 0.7886 0.68173 0.95796 0.0
C2328 C 0.92054 0.67539 0.98426 0.0
C2329 C 0.91704 0.65545 0.98455 0.0
H2330 H 0.91142 0.69573 0.96649 0.0
C2331 C 0.89878 0.63989 0.97247 0.0
H2332 H 0.93448 0.68773 0.99318 0.0
C2333 C 0.88546 0.64449 0.95749 0.0
C2334 C 0.89021 0.66471 0.95436 0.0
H2335 H 0.89557 0.62434 0.97267 0.0
H2336 H 0.87258 0.63252 0.94585 0.0
C2337 C 0.90729 0.67999 0.96912 0.0
C2338 C 0.3463 0.24917 0.97386 0.0
C2339 C 0.366 0.26409 0.98231 0.0
H2340 H 0.32831 0.22185 0.94915 0.0
C2341 C 0.38208 0.26019 0.97807 0.0
H2342 H 0.3336 0.25171 0.97661 0.0
C2343 C 0.37894 0.24291 0.96266 0.0
C2344 C 0.35968 0.22925 0.95128 0.0
H2345 H 0.39739 0.27125 0.98471 0.0
H2346 H 0.39194 0.24137 0.95695 0.0
C2347 C 0.3432 0.23194 0.95834 0.0
C2348 C 0.76884 0.12353 0.98694 0.0
C2349 C 0.76428 0.10343 0.99205 0.0
H2350 H 0.78825 0.15163 0.96464 0.0
C2351 C 0.77869 0.09791 0.98378 0.0
H2352 H 0.75823 0.12839 0.99345 0.0
C2353 C 0.796 0.11135 0.96769 0.0
C2354 C 0.79932 0.1306 0.95973 0.0
H2355 H 0.77569 0.08258 0.98716 0.0
H2356 H 0.80568 0.10594 0.95884 0.0
C2357 C 0.78622 0.137 0.97091 0.0
C2358 C 0.68039 0.91672 0.03079 0.0
C2359 C 0.6612 0.91514 0.03293 0.0
H2360 H 0.69965 0.90549 0.04604 0.0
C2361 C 0.64534 0.89795 0.04684 0.0
H2362 H 0.69297 0.92981 0.02043 0.0
C2363 C 0.64916 0.8839 0.06119 0.0
C2364 C 0.66888 0.88678 0.0618 0.0
H2365 H 0.63032 0.89617 0.0485 0.0
H2366 H 0.63721 0.87198 0.0743 0.0
C2367 C 0.68421 0.90271 0.04526 0.0
C2368 C 0.10115 0.76763 0.03591 0.0
C2369 C 0.10503 0.75207 0.02756 0.0
H2370 H 0.11222 0.79597 0.05842 0.0
C2371 C 0.12513 0.75582 0.02979 0.0
H2372 H 0.08597 0.76546 0.03478 0.0
C2373 C 0.14023 0.77348 0.04349 0.0
C2374 C 0.13559 0.78783 0.05484 0.0
H2375 H 0.1289 0.7445 0.02283 0.0
H2376 H 0.15488 0.77488 0.04795 0.0
C2377 C 0.1163 0.78533 0.04927 0.0
C2378 C 0.27918 0.38097 0.03841 0.0
C2379 C 0.27849 0.36426 0.02396 0.0
H2380 H 0.26373 0.39128 0.06718 0.0
C2381 C 0.25976 0.34604 0.02238 0.0
H2382 H 0.29334 0.39518 0.04031 0.0
C2383 C 0.24277 0.34393 0.03762 0.0
C2384 C 0.24413 0.36002 0.05452 0.0
H2385 H 0.25861 0.33297 0.01105 0.0
H2386 H 0.22915 0.32916 0.03851 0.0
C2387 C 0.26217 0.37883 0.05365 0.0
C2388 C 0.77557 0.67651 0.36684 0.0
C2389 C 0.7792 0.69589 0.35872 0.0
H2390 H 0.78676 0.65948 0.39 0.0
C2391 C 0.79904 0.71246 0.3618 0.0
H2392 H 0.76051 0.6634 0.365 0.0
C2393 C 0.81414 0.71011 0.37596 0.0
C2394 C 0.80974 0.69113 0.3871 0.0
H2395 H 0.80252 0.72754 0.35525 0.0
H2396 H 0.82855 0.72348 0.38099 0.0
C2397 C 0.7907 0.67418 0.38093 0.0
C2398 C 0.31749 0.09009 0.37056 0.0
C2399 C 0.33357 0.0896 0.3558 0.0
H2400 H 0.30883 0.10669 0.39978 0.0
C2401 C 0.35255 0.10753 0.35438 0.0
H2402 H 0.30272 0.07656 0.37237 0.0
C2403 C 0.35592 0.12483 0.36995 0.0
C2404 C 0.34037 0.12457 0.38703 0.0
H2405 H 0.36516 0.10779 0.34282 0.0
H2406 H 0.37117 0.13775 0.37088 0.0
C2407 C 0.3209 0.10741 0.38611 0.0
C2408 C 0.94574 0.22649 0.382 0.0
C2409 C 0.9457 0.24103 0.36282 0.0
H2410 H 0.92916 0.20347 0.41447 0.0
C2411 C 0.92717 0.24028 0.35689 0.0
H2412 H 0.95975 0.22656 0.38672 0.0
C2413 C 0.90959 0.22686 0.37259 0.0
C2414 C 0.91028 0.21391 0.39415 0.0
H2415 H 0.92668 0.25135 0.34236 0.0
H2416 H 0.89608 0.22811 0.37013 0.0
C2417 C 0.92818 0.21306 0.39755 0.0
C2418 C 1.01212 0.42752 0.30205 0.0
C2419 C 0.03056 0.43172 0.31542 0.0
H2420 H 0.99702 0.43835 0.27356 0.0
C2421 C 0.04678 0.45188 0.31525 0.0
H2422 H 0.99932 0.41221 0.30144 0.0
C2423 C 0.04534 0.46689 0.29927 0.0
C2424 C 0.02762 0.46206 0.28341 0.0
H2425 H 0.06108 0.45577 0.32579 0.0
H2426 H 0.05871 0.48175 0.29698 0.0
C2427 C 1.01069 0.44254 0.28618 0.0
C2428 C 0.57431 0.58985 0.32004 0.0
C2429 C 0.5951 0.59608 0.31708 0.0
H2430 H 0.54404 0.57039 0.3038 0.0
C2431 C 0.60044 0.58402 0.29993 0.0
H2432 H 0.56951 0.59841 0.33364 0.0
C2433 C 0.58574 0.56765 0.28363 0.0
C2434 C 0.5654 0.56302 0.2839 0.0
H2435 H 0.61617 0.58822 0.29678 0.0
H2436 H 0.59061 0.55992 0.26839 0.0
C2437 C 0.5596 0.57352 0.30345 0.0
C2438 C 0.42129 0.97143 0.30101 0.0
C2439 C 0.41965 0.98741 0.3138 0.0
H2440 H 0.43987 0.96292 0.27598 0.0
C2441 C 0.43734 1.00648 0.31648 0.0
H2442 H 0.40805 0.95647 0.29901 0.0
C2443 C 0.45562 1.01002 0.30371 0.0
C2444 C 0.45664 0.99455 0.28826 0.0
H2445 H 0.43667 0.01919 0.32599 0.0
H2446 H 0.46838 0.02537 0.30328 0.0
C2447 C 0.43961 0.97498 0.28834 0.0
C2448 C 0.57034 0.97219 0.31108 0.0
C2449 C 0.5878 0.99013 0.32013 0.0
H2450 H 0.54228 0.95917 0.28711 0.0
C2451 C 0.58783 1.00858 0.31739 0.0
H2452 H 0.56969 0.95769 0.31256 0.0
C2453 C 0.57194 1.00934 0.30279 0.0
C2454 C 0.55564 0.99164 0.29094 0.0
H2455 H 0.60078 0.02266 0.3247 0.0
H2456 H 0.5734 0.02397 0.29815 0.0
C2457 C 0.55445 0.97296 0.29667 0.0
C2458 C 0.01882 0.57986 0.31591 0.0
C2459 C 0.03758 0.59807 0.31544 0.0
H2460 H 1.00123 0.54969 0.2987 0.0
C2461 C 0.05429 0.59813 0.30186 0.0
H2462 H 1.00572 0.57916 0.32661 0.0
C2463 C 0.05175 0.58107 0.28645 0.0
C2464 C 0.03252 0.56364 0.28446 0.0
H2465 H 0.06892 0.61189 0.30082 0.0
H2466 H 0.06434 0.58221 0.27363 0.0
C2467 C 1.0163 0.56284 0.30045 0.0
C2468 C 0.44126 0.43881 0.31548 0.0
C2469 C 0.42419 0.44137 0.3174 0.0
H2470 H 0.47084 0.44973 0.29675 0.0
C2471 C 0.42609 0.45977 0.30743 0.0
H2472 H 0.44041 0.42485 0.32271 0.0
C2473 C 0.44368 0.4741 0.29268 0.0
C2474 C 0.45976 0.47038 0.28788 0.0
H2475 H 0.41342 0.46247 0.3091 0.0
H2476 H 0.44386 0.48704 0.28238 0.0
C2477 C 0.45885 0.45317 0.30082 0.0
C2478 C 0.35687 0.25865 0.36241 0.0
C2479 C 0.33662 0.2539 0.35844 0.0
H2480 H 0.37681 0.24967 0.38223 0.0
C2481 C 0.32095 0.23416 0.36514 0.0
H2482 H 0.36927 0.27374 0.35761 0.0
C2483 C 0.32534 0.22027 0.37873 0.0
C2484 C 0.34543 0.22593 0.38598 0.0
H2485 H 0.30521 0.23001 0.36201 0.0
H2486 H 0.31289 0.20599 0.38658 0.0
C2487 C 0.36123 0.2448 0.37622 0.0
C2488 C 0.79524 0.09591 0.36411 0.0
C2489 C 0.77494 0.09119 0.36042 0.0
H2490 H 0.8239 0.11544 0.38497 0.0
C2491 C 0.7694 0.10538 0.36979 0.0
H2492 H 0.80007 0.08546 0.3567 0.0
C2493 C 0.78314 0.12262 0.38559 0.0
C2494 C 0.80268 0.12608 0.39214 0.0
H2495 H 0.75392 0.10224 0.36748 0.0
H2496 H 0.77784 0.13217 0.39526 0.0
C2497 C 0.80901 0.11324 0.37984 0.0
C2498 C 0.94548 0.71398 0.37855 0.0
C2499 C 0.947 0.69777 0.36632 0.0
H2500 H 0.92717 0.72292 0.40345 0.0
C2501 C 0.9293 0.67862 0.36462 0.0
H2502 H 0.95868 0.72902 0.37974 0.0
C2503 C 0.91118 0.67531 0.37764 0.0
C2504 C 0.91032 0.69106 0.39246 0.0
H2505 H 0.92983 0.66573 0.35561 0.0
H2506 H 0.89843 0.65997 0.37871 0.0
C2507 C 0.92732 0.71063 0.39159 0.0
C2508 C 0.44754 0.01548 0.69627 0.0
C2509 C 0.44999 0.03499 0.69346 0.0
H2510 H 0.45859 0.99727 0.71604 0.0
C2511 C 0.46832 0.05171 0.70331 0.0
H2512 H 0.43365 1.00219 0.68926 0.0
C2513 C 0.48266 0.04877 0.71869 0.0
C2514 C 0.47905 0.02911 0.72416 0.0
H2515 H 0.47098 0.06699 0.70093 0.0
H2516 H 0.49554 0.06171 0.72882 0.0
C2517 C 0.46194 0.0126 0.71144 0.0
C2518 C 1.00647 0.43449 0.69094 0.0
C2519 C 0.98836 0.41654 0.69786 0.0
H2520 H 0.02595 0.46588 0.70154 0.0
C2521 C 0.97378 0.4178 0.71551 0.0
H2522 H 0.01804 0.43401 0.67752 0.0
C2523 C 0.97821 0.43615 0.72877 0.0
C2524 C 0.9973 0.45351 0.7247 0.0
H2525 H 0.95959 0.40427 0.72091 0.0
H2526 H 0.96764 0.43622 0.74482 0.0
C2527 C 1.01094 0.45282 0.70441 0.0
C2528 C 0.60917 0.56469 0.70796 0.0
C2529 C 0.6099 0.58081 0.69169 0.0
H2530 H 0.59169 0.53963 0.73712 0.0
C2531 C 0.59188 0.58142 0.68769 0.0
H2532 H 0.6228 0.56377 0.71123 0.0
C2533 C 0.57406 0.56752 0.70244 0.0
C2534 C 0.57392 0.55262 0.72097 0.0
H2535 H 0.59201 0.59374 0.67548 0.0
H2536 H 0.56099 0.56962 0.70162 0.0
C2537 C 0.59131 0.55069 0.72242 0.0
C2538 C 0.72009 0.78934 0.63199 0.0
C2539 C 0.7044 0.7722 0.64623 0.0
H2540 H 0.72793 0.81526 0.60456 0.0
C2541 C 0.68519 0.77054 0.64868 0.0
H2542 H 0.73511 0.79116 0.63004 0.0
C2543 C 0.68118 0.78447 0.63431 0.0
C2544 C 0.69637 0.80043 0.61763 0.0
H2545 H 0.67274 0.75748 0.65931 0.0
H2546 H 0.66573 0.78165 0.63383 0.0
C2547 C 0.7161 0.80334 0.61782 0.0
C2548 C 0.23926 0.93196 0.64344 0.0
C2549 C 0.25921 0.93523 0.64426 0.0
H2550 H 0.20911 0.91387 0.62607 0.0
C2551 C 0.26265 0.91987 0.63343 0.0
H2552 H 0.23591 0.94321 0.65215 0.0
C2553 C 0.24711 0.90281 0.61931 0.0
C2554 C 0.22783 0.90074 0.61571 0.0
H2555 H 0.27776 0.9218 0.63338 0.0
H2556 H 0.25074 0.89232 0.60847 0.0
C2557 C 0.22375 0.91493 0.62911 0.0
C2558 C 0.10823 0.35018 0.63953 0.0
C2559 C 0.09336 0.33132 0.65092 0.0
H2560 H 0.13524 0.36611 0.61329 0.0
C2561 C 0.09713 0.315 0.64998 0.0
H2562 H 0.10587 0.36307 0.63963 0.0
C2563 C 0.11413 0.31687 0.63501 0.0
C2564 C 0.12773 0.33512 0.6209 0.0
H2565 H 0.08621 0.30037 0.65905 0.0
H2566 H 0.11551 0.30351 0.63192 0.0
C2567 C 0.12522 0.35203 0.62462 0.0
C2568 C 0.25503 0.34286 0.65137 0.0
C2569 C 0.25468 0.32424 0.64943 0.0
H2570 H 0.24233 0.36078 0.63583 0.0
C2571 C 0.23822 0.30796 0.63489 0.0
H2572 H 0.26727 0.35561 0.66282 0.0
C2573 C 0.22372 0.31088 0.61997 0.0
C2574 C 0.22534 0.33005 0.61949 0.0
H2575 H 0.23751 0.29347 0.63272 0.0
H2576 H 0.21244 0.29871 0.60642 0.0
C2577 C 0.24055 0.34575 0.6364 0.0
C2578 C 0.7126 0.9267 0.65016 0.0
C2579 C 0.69714 0.93177 0.65116 0.0
H2580 H 0.72272 0.90745 0.63107 0.0
C2581 C 0.67818 0.91824 0.6385 0.0
H2582 H 0.72727 0.93654 0.66015 0.0
C2583 C 0.67551 0.90138 0.62245 0.0
C2584 C 0.69169 0.89764 0.61881 0.0
H2585 H 0.66594 0.92162 0.63855 0.0
H2586 H 0.66146 0.89244 0.61038 0.0
C2587 C 0.70992 0.90982 0.63401 0.0
C2588 C 0.108 0.77335 0.6503 0.0
C2589 C 0.08965 0.7734 0.64648 0.0
H2590 H 0.13907 0.78612 0.6368 0.0
C2591 C 0.08999 0.78948 0.63058 0.0
H2592 H 0.10837 0.76141 0.66283 0.0
C2593 C 0.10773 0.80387 0.6162 0.0
C2594 C 0.12545 0.8025 0.61761 0.0
H2595 H 0.07615 0.78996 0.62701 0.0
H2596 H 0.10702 0.81478 0.60156 0.0
C2597 C 0.1257 0.78773 0.63591 0.0
C2598 C 0.02442 0.59475 0.70855 0.0
C2599 C 1.0047 0.5896 0.6995 0.0
H2600 H 0.04284 0.58532 0.73191 0.0
C2601 C 0.98918 0.56916 0.70163 0.0
H2602 H 0.03676 0.61028 0.70746 0.0
C2603 C 0.99279 0.55481 0.71556 0.0
C2604 C 1.01197 0.56061 0.7275 0.0
H2605 H 0.97391 0.56454 0.69429 0.0
H2606 H 0.98012 0.53973 0.71962 0.0
C2607 C 0.028 0.5804 0.72241 0.0
C2608 C 0.44233 0.43737 0.69693 0.0
C2609 C 0.44293 0.41933 0.69291 0.0
H2610 H 0.45621 0.46672 0.71749 0.0
C2611 C 0.46058 0.41904 0.70155 0.0
H2612 H 0.42919 0.43832 0.69003 0.0
C2613 C 0.4762 0.4355 0.71655 0.0
C2614 C 0.47456 0.45261 0.72322 0.0
H2615 H 0.46163 0.40545 0.69917 0.0
H2616 H 0.48863 0.43404 0.72554 0.0
C2617 C 0.45798 0.45384 0.71209 0.0
C2618 C 0.59322 1.00469 0.70937 0.0
C2619 C 0.60679 0.02332 0.69594 0.0
H2620 H 0.56748 0.98873 0.73797 0.0
C2621 C 0.60183 0.03884 0.69595 0.0
H2622 H 0.59654 0.99243 0.71004 0.0
C2623 C 0.58501 0.03659 0.71191 0.0
C2624 C 0.57285 0.01877 0.72799 0.0
H2625 H 0.61174 0.05324 0.68536 0.0
H2626 H 0.58273 0.04948 0.71407 0.0
C2627 C 0.57645 1.00248 0.72529 0.0
loop_
_geom_bond_atom_site_label_1
_geom_bond_atom_site_label_2
_geom_bond_distance
_geom_bond_site_symmetry_2
_ccdc_geom_bond_type
Li0 N17 1.990 1_554 S
Li0 O60 1.956 . S
Li0 O61 1.970 1_654 S
Li0 O62 1.961 . S
Li1 N25 1.990 . S
Li1 O60 1.970 1_455 S
Li1 O61 1.956 1_554 S
Li1 O63 1.961 . S
Li2 N47 1.990 . S
Li2 O60 1.961 . S
Li2 O62 1.956 . S
Li2 O63 1.970 1_655 S
Li3 N53 1.990 . S
Li3 O61 1.961 . S
Li3 O62 1.970 1_456 S
Li3 O63 1.956 1_556 S
C4 C6 1.348 1_655 S
C4 C7 1.356 . S
C4 O60 1.325 . S
N5 C8 1.314 . S
N5 C9 1.279 . S
C6 C4 1.348 1_455 S
C6 C8 1.353 1_455 S
C6 H64 0.929 . S
C7 C4 1.356 . S
C7 C9 1.358 . S
C7 H65 0.930 . S
C8 N5 1.314 . S
C8 C6 1.353 1_655 S
C8 H66 0.930 1_655 S
C9 N5 1.279 . S
C9 C7 1.358 . S
C9 H67 0.930 . S
C10 C13 1.348 1_455 S
C10 C14 1.356 . S
C10 O61 1.325 . S
C11 N12 1.279 . S
C11 C14 1.358 . S
C11 H68 0.930 . S
N12 C11 1.279 . S
N12 C15 1.314 . S
C13 C10 1.348 1_655 S
C13 C15 1.339 1_655 S
C13 H69 0.944 . S
C14 C10 1.356 . S
C14 C11 1.358 . S
C14 H70 0.930 . S
C15 N12 1.314 . S
C15 C13 1.339 1_455 S
C15 H71 0.930 1_455 S
C16 N17 1.314 . S
C16 C21 1.353 . S
C16 H22 0.930 . S
N17 Li0 1.990 1_556 S
N17 C16 1.314 . S
N17 C19 1.279 1_556 S
C18 C19 1.358 . S
C18 C20 1.356 1_554 S
C18 H72 0.930 . S
C19 N17 1.279 1_554 S
C19 C18 1.358 . S
C19 H23 0.930 . S
C20 C18 1.356 1_556 S
C20 C21 1.348 . S
C21 C16 1.353 . S
C21 C20 1.348 . S
C21 H73 0.929 . S
H22 C16 0.930 . S
H23 C19 0.930 . S
C24 N25 1.314 . S
C24 C26 1.353 . S
C24 H30 0.930 . S
N25 Li1 1.990 . S
N25 C24 1.314 . S
N25 C28 1.279 . S
C26 C24 1.353 . S
C26 C29 1.348 . S
C26 H74 0.929 . S
C27 C28 1.358 . S
C27 C29 1.356 . S
C27 H75 0.944 . S
C28 N25 1.279 . S
C28 C27 1.358 . S
C28 H31 0.930 1_554 S
C29 C26 1.348 . S
C29 C27 1.356 . S
H30 C24 0.930 . S
H31 C28 0.930 1_556 S
C32 C34 1.348 . S
C32 C35 1.356 1_556 S
C32 O62 1.325 1_556 S
N33 C36 1.314 . S
N33 C37 1.279 1_556 S
C34 C32 1.348 . S
C34 C36 1.353 . S
C34 H76 0.929 . S
C35 C32 1.356 1_554 S
C35 C37 1.358 . S
C35 H77 0.930 . S
C36 N33 1.314 . S
C36 C34 1.353 . S
C36 H78 0.930 . S
C37 N33 1.279 1_554 S
C37 C35 1.358 . S
C37 H79 0.930 . S
C38 C39 1.348 . S
C38 C40 1.356 . S
C38 O63 1.325 . S
C39 C38 1.348 . S
C39 C41 1.353 . S
C39 H80 0.929 . S
C40 C38 1.356 . S
C40 C42 1.358 . S
C40 H81 0.930 1_554 S
C41 C39 1.353 . S
C41 N43 1.314 . S
C41 H82 0.930 . S
C42 C40 1.358 . S
C42 N43 1.279 . S
C42 H83 0.930 . S
N43 C41 1.314 . S
N43 C42 1.279 . S
C44 C46 1.353 . S
C44 N47 1.314 . S
C44 H50 0.930 1_655 S
C45 N47 1.279 . S
C45 C48 1.358 . S
C45 H51 0.930 . S
C46 C44 1.353 . S
C46 C49 1.348 . S
C46 H84 0.964 . S
N47 Li2 1.990 . S
N47 C44 1.314 . S
N47 C45 1.279 . S
C48 C45 1.358 . S
C48 C49 1.356 . S
C48 H85 0.930 . S
C49 C46 1.348 . S
C49 C48 1.356 . S
H50 C44 0.930 1_455 S
H51 C45 0.930 . S
C52 N53 1.314 . S
C52 C54 1.353 . S
C52 H58 0.930 1_455 S
N53 Li3 1.990 . S
N53 C52 1.314 . S
N53 C56 1.279 . S
C54 C52 1.353 . S
C54 C57 1.348 . S
C54 H86 0.929 . S
C55 C56 1.358 . S
C55 C57 1.356 . S
C55 H87 0.930 . S
C56 N53 1.279 . S
C56 C55 1.358 . S
C56 H59 0.930 . S
C57 C54 1.348 . S
C57 C55 1.356 . S
H58 C52 0.930 1_655 S
H59 C56 0.930 . S
O60 Li0 1.956 . S
O60 Li1 1.970 1_655 S
O60 Li2 1.961 . S
O60 C4 1.325 . S
O61 Li0 1.970 1_456 S
O61 Li1 1.956 1_556 S
O61 Li3 1.961 . S
O61 C10 1.325 . S
O62 Li0 1.961 . S
O62 Li2 1.956 . S
O62 Li3 1.970 1_654 S
O62 C32 1.325 1_554 S
O63 Li1 1.961 . S
O63 Li2 1.970 1_455 S
O63 Li3 1.956 1_554 S
O63 C38 1.325 . S
H64 C6 0.929 . S
H65 C7 0.930 . S
H66 C8 0.930 1_455 S
H67 C9 0.930 . S
H68 C11 0.930 . S
H69 C13 0.944 . S
H70 C14 0.930 . S
H71 C15 0.930 1_655 S
H72 C18 0.930 . S
H73 C21 0.929 . S
H74 C26 0.929 . S
H75 C27 0.944 . S
H76 C34 0.929 . S
H77 C35 0.930 . S
H78 C36 0.930 . S
H79 C37 0.930 . S
H80 C39 0.929 . S
H81 C40 0.930 1_556 S
H82 C41 0.930 . S
H83 C42 0.930 . S
H84 C46 0.964 . S
H85 C48 0.930 . S
H86 C54 0.929 . S
H87 C55 0.930 . S
Li88 N105 1.990 1_554 S
Li88 O148 1.956 . S
Li88 O149 1.970 1_554 S
Li88 O150 1.961 1_554 S
Li89 N113 1.990 . S
Li89 O148 1.970 . S
Li89 O149 1.956 1_554 S
Li89 O151 1.961 . S
Li90 N135 1.990 . S
Li90 O148 1.961 . S
Li90 O150 1.956 1_554 S
Li90 O151 1.970 . S
Li91 N141 1.990 . S
Li91 O149 1.961 . S
Li91 O150 1.970 . S
Li91 O151 1.956 1_556 S
C92 C94 1.348 . S
C92 C95 1.356 . S
C92 O148 1.325 . S
N93 C96 1.314 . S
N93 C97 1.279 . S
C94 C92 1.348 . S
C94 C96 1.353 . S
C94 H152 0.929 . S
C95 C92 1.356 . S
C95 C97 1.358 . S
C95 H153 0.930 . S
C96 N93 1.314 . S
C96 C94 1.353 . S
C96 H154 0.930 . S
C97 N93 1.279 . S
C97 C95 1.358 . S
C97 H155 0.930 . S
C98 C101 1.348 . S
C98 C102 1.356 . S
C98 O149 1.325 . S
C99 N100 1.279 . S
C99 C102 1.358 . S
C99 H156 0.930 . S
N100 C99 1.279 . S
N100 C103 1.314 . S
C101 C98 1.348 . S
C101 C103 1.353 . S
C101 H157 0.929 . S
C102 C98 1.356 . S
C102 C99 1.358 . S
C102 H158 0.930 . S
C103 N100 1.314 . S
C103 C101 1.353 . S
C103 H159 0.930 . S
C104 N105 1.314 . S
C104 C109 1.353 . S
C104 H110 0.930 . S
N105 Li88 1.990 1_556 S
N105 C104 1.314 . S
N105 C107 1.279 1_556 S
C106 C107 1.360 . S
C106 C108 1.352 1_554 S
C106 H160 0.932 . S
C107 N105 1.279 1_554 S
C107 C106 1.360 . S
C107 H111 0.930 . S
C108 C106 1.352 1_556 S
C108 C109 1.348 . S
C109 C104 1.353 . S
C109 C108 1.348 . S
C109 H161 0.929 . S
H110 C104 0.930 . S
H111 C107 0.930 . S
C112 N113 1.314 . S
C112 C114 1.353 . S
C112 H118 0.930 . S
N113 Li89 1.990 . S
N113 C112 1.314 . S
N113 C116 1.279 . S
C114 C112 1.353 . S
C114 C117 1.348 . S
C114 H162 0.929 . S
C115 C116 1.358 . S
C115 C117 1.356 . S
C115 H163 0.930 . S
C116 N113 1.279 . S
C116 C115 1.358 . S
C116 H119 0.930 1_554 S
C117 C114 1.348 . S
C117 C115 1.356 . S
H118 C112 0.930 . S
H119 C116 0.930 1_556 S
C120 C122 1.348 . S
C120 C123 1.356 1_556 S
C120 O150 1.325 . S
N121 C124 1.314 . S
N121 C125 1.279 . S
C122 C120 1.348 . S
C122 C124 1.353 . S
C122 H164 0.929 . S
C123 C120 1.356 1_554 S
C123 C125 1.358 1_554 S
C123 H165 0.930 . S
C124 N121 1.314 . S
C124 C122 1.353 . S
C124 H166 0.930 . S
C125 N121 1.279 . S
C125 C123 1.358 1_556 S
C125 H167 0.930 1_556 S
C126 C127 1.348 . S
C126 C128 1.356 . S
C126 O151 1.325 . S
C127 C126 1.348 . S
C127 C129 1.353 . S
C127 H168 0.929 . S
C128 C126 1.356 . S
C128 C130 1.358 . S
C128 H169 0.930 . S
C129 C127 1.353 . S
C129 N131 1.314 . S
C129 H170 0.930 . S
C130 C128 1.358 . S
C130 N131 1.279 . S
C130 H171 0.930 . S
N131 C129 1.314 . S
N131 C130 1.279 . S
C132 C134 1.353 . S
C132 N135 1.314 . S
C132 H138 0.930 . S
C133 N135 1.279 . S
C133 C136 1.358 . S
C133 H139 0.930 . S
C134 C132 1.353 . S
C134 C137 1.348 . S
C134 H172 0.929 . S
N135 Li90 1.990 . S
N135 C132 1.314 . S
N135 C133 1.279 . S
C136 C133 1.358 . S
C136 C137 1.356 . S
C136 H173 0.930 . S
C137 C134 1.348 . S
C137 C136 1.356 . S
H138 C132 0.930 . S
H139 C133 0.930 . S
C140 N141 1.314 . S
C140 C142 1.353 . S
C140 H146 0.930 . S
N141 Li91 1.990 . S
N141 C140 1.314 . S
N141 C144 1.279 . S
C142 C140 1.353 . S
C142 C145 1.348 . S
C142 H174 0.929 . S
C143 C144 1.358 . S
C143 C145 1.356 . S
C143 H175 0.930 . S
C144 N141 1.279 . S
C144 C143 1.358 . S
C144 H147 0.930 . S
C145 C142 1.348 . S
C145 C143 1.356 . S
H146 C140 0.930 . S
H147 C144 0.930 . S
O148 Li88 1.956 . S
O148 Li89 1.970 . S
O148 Li90 1.961 . S
O148 C92 1.325 . S
O149 Li88 1.970 1_556 S
O149 Li89 1.956 1_556 S
O149 Li91 1.961 . S
O149 C98 1.325 . S
O150 Li88 1.961 1_556 S
O150 Li90 1.956 1_556 S
O150 Li91 1.970 . S
O150 C120 1.325 . S
O151 Li89 1.961 . S
O151 Li90 1.970 . S
O151 Li91 1.956 1_554 S
O151 C126 1.325 . S
H152 C94 0.929 . S
H153 C95 0.930 . S
H154 C96 0.930 . S
H155 C97 0.930 . S
H156 C99 0.930 . S
H157 C101 0.929 . S
H158 C102 0.930 . S
H159 C103 0.930 . S
H160 C106 0.932 . S
H161 C109 0.929 . S
H162 C114 0.929 . S
H163 C115 0.930 . S
H164 C122 0.929 . S
H165 C123 0.930 . S
H166 C124 0.930 . S
H167 C125 0.930 1_554 S
H168 C127 0.929 . S
H169 C128 0.930 . S
H170 C129 0.930 . S
H171 C130 0.930 . S
H172 C134 0.929 . S
H173 C136 0.930 . S
H174 C142 0.929 . S
H175 C143 0.930 . S
Li176 N193 1.990 . S
Li176 O236 1.956 1_556 S
Li176 O237 1.963 1_566 S
Li176 O238 1.961 . S
Li177 N201 1.990 . S
Li177 O236 1.970 1_545 S
Li177 O237 1.969 . S
Li177 O239 1.961 . S
Li178 N223 1.990 . S
Li178 O236 1.961 . S
Li178 O238 1.956 1_554 S
Li178 O239 1.970 1_565 S
Li179 N229 1.990 1_554 S
Li179 O237 1.962 . S
Li179 O238 1.970 1_544 S
Li179 O239 1.956 . S
C180 C182 1.348 . S
C180 C183 1.356 . S
C180 O236 1.325 . S
N181 C184 1.314 . S
N181 C185 1.279 . S
C182 C180 1.348 . S
C182 C184 1.353 . S
C182 H240 0.929 . S
C183 C180 1.356 . S
C183 C185 1.358 . S
C183 H241 0.930 1_554 S
C184 N181 1.314 . S
C184 C182 1.353 . S
C184 H242 0.930 . S
C185 N181 1.279 . S
C185 C183 1.358 . S
C185 H243 0.930 . S
C186 C189 1.348 . S
C186 C190 1.356 1_556 S
C186 O237 1.323 1_556 S
C187 N188 1.279 1_554 S
C187 C190 1.358 . S
C187 H244 0.930 . S
N188 C187 1.279 1_556 S
N188 C191 1.314 . S
C189 C186 1.348 . S
C189 C191 1.353 . S
C189 H245 0.929 . S
C190 C186 1.356 1_554 S
C190 C187 1.358 . S
C190 H246 0.930 . S
C191 N188 1.314 . S
C191 C189 1.353 . S
C191 H247 0.930 . S
C192 N193 1.314 . S
C192 C197 1.353 . S
C192 H198 0.930 1_565 S
N193 Li176 1.990 . S
N193 C192 1.314 . S
N193 C195 1.279 . S
C194 C195 1.358 . S
C194 C196 1.356 . S
C194 H248 0.930 . S
C195 N193 1.279 . S
C195 C194 1.358 . S
C195 H199 0.930 . S
C196 C194 1.356 . S
C196 C197 1.348 . S
C197 C192 1.353 . S
C197 C196 1.348 . S
C197 H249 0.929 . S
H198 C192 0.930 1_545 S
H199 C195 0.930 . S
C200 N201 1.314 . S
C200 C202 1.353 . S
C200 H206 0.930 1_545 S
N201 Li177 1.990 . S
N201 C200 1.314 . S
N201 C204 1.279 . S
C202 C200 1.353 . S
C202 C205 1.348 . S
C202 H250 0.929 . S
C203 C204 1.358 . S
C203 C205 1.356 . S
C203 H251 0.930 . S
C204 N201 1.279 . S
C204 C203 1.358 . S
C204 H207 0.930 . S
C205 C202 1.348 . S
C205 C203 1.356 . S
H206 C200 0.930 1_565 S
H207 C204 0.930 . S
C208 C210 1.348 1_565 S
C208 C211 1.356 . S
C208 O238 1.325 . S
N209 C212 1.314 . S
N209 C213 1.279 . S
C210 C208 1.348 1_545 S
C210 C212 1.353 1_545 S
C210 H252 0.929 . S
C211 C208 1.356 . S
C211 C213 1.358 . S
C211 H253 0.930 . S
C212 N209 1.314 . S
C212 C210 1.353 1_565 S
C212 H254 0.930 1_565 S
C213 N209 1.279 . S
C213 C211 1.358 . S
C213 H255 0.930 . S
C214 C215 1.348 1_545 S
C214 C216 1.356 . S
C214 O239 1.325 . S
C215 C214 1.348 1_565 S
C215 C217 1.341 1_565 S
C215 H256 0.942 . S
C216 C214 1.356 . S
C216 C218 1.358 . S
C216 H257 0.930 . S
C217 C215 1.341 1_545 S
C217 N219 1.314 . S
C217 H258 0.930 1_545 S
C218 C216 1.358 . S
C218 N219 1.279 . S
C218 H259 0.930 . S
N219 C217 1.314 . S
N219 C218 1.279 . S
C220 C222 1.353 . S
C220 N223 1.314 . S
C220 H226 0.930 . S
C221 N223 1.279 . S
C221 C224 1.358 . S
C221 H227 0.930 1_554 S
C222 C220 1.353 . S
C222 C225 1.348 . S
C222 H260 0.929 . S
N223 Li178 1.990 . S
N223 C220 1.314 . S
N223 C221 1.279 . S
C224 C221 1.358 . S
C224 C225 1.356 . S
C224 H261 0.907 1_554 S
C225 C222 1.348 . S
C225 C224 1.356 . S
H226 C220 0.930 . S
H227 C221 0.930 1_556 S
C228 N229 1.314 . S
C228 C230 1.353 . S
C228 H234 0.930 . S
N229 Li179 1.990 1_556 S
N229 C228 1.314 . S
N229 C232 1.279 1_556 S
C230 C228 1.353 . S
C230 C233 1.348 . S
C230 H262 0.929 . S
C231 C232 1.358 . S
C231 C233 1.356 1_554 S
C231 H263 0.930 . S
C232 N229 1.279 1_554 S
C232 C231 1.358 . S
C232 H235 0.930 . S
C233 C230 1.348 . S
C233 C231 1.356 1_556 S
H234 C228 0.930 . S
H235 C232 0.930 . S
O236 Li176 1.956 1_554 S
O236 Li177 1.970 1_565 S
O236 Li178 1.961 . S
O236 C180 1.325 . S
O237 Li176 1.963 1_544 S
O237 Li177 1.969 . S
O237 Li179 1.962 . S
O237 C186 1.323 1_554 S
O238 Li176 1.961 . S
O238 Li178 1.956 1_556 S
O238 Li179 1.970 1_566 S
O238 C208 1.325 . S
O239 Li177 1.961 . S
O239 Li178 1.970 1_545 S
O239 Li179 1.956 . S
O239 C214 1.325 . S
H240 C182 0.929 . S
H241 C183 0.930 1_556 S
H242 C184 0.930 . S
H243 C185 0.930 . S
H244 C187 0.930 . S
H245 C189 0.929 . S
H246 C190 0.930 . S
H247 C191 0.930 . S
H248 C194 0.930 . S
H249 C197 0.929 . S
H250 C202 0.929 . S
H251 C203 0.930 . S
H252 C210 0.929 . S
H253 C211 0.930 . S
H254 C212 0.930 1_545 S
H255 C213 0.930 . S
H256 C215 0.942 . S
H257 C216 0.930 . S
H258 C217 0.930 1_565 S
H259 C218 0.930 . S
H260 C222 0.929 . S
H261 C224 0.907 1_556 S
H262 C230 0.929 . S
H263 C231 0.930 . S
Li264 N281 1.990 . S
Li264 O324 1.956 . S
Li264 O325 1.970 1_455 S
Li264 O326 1.961 1_554 S
Li265 N289 1.990 . S
Li265 O324 1.970 1_655 S
Li265 O325 1.956 . S
Li265 O327 1.961 . S
Li266 N311 1.990 . S
Li266 O324 1.961 1_556 S
Li266 O326 1.956 . S
Li266 O327 1.970 1_456 S
Li267 N317 1.990 1_554 S
Li267 O325 1.961 . S
Li267 O326 1.970 1_654 S
Li267 O327 1.956 . S
C268 C270 1.348 . S
C268 C271 1.356 . S
C268 O324 1.325 . S
N269 C272 1.314 . S
N269 C273 1.279 . S
C270 C268 1.348 . S
C270 C272 1.353 . S
C270 H328 0.929 . S
C271 C268 1.356 . S
C271 C273 1.358 . S
C271 H329 0.930 1_554 S
C272 N269 1.314 . S
C272 C270 1.353 . S
C272 H330 0.930 . S
C273 N269 1.279 . S
C273 C271 1.358 . S
C273 H331 0.930 1_554 S
C274 C277 1.348 1_655 S
C274 C278 1.356 . S
C274 O325 1.325 . S
C275 N276 1.279 . S
C275 C278 1.358 . S
C275 H332 0.930 . S
N276 C275 1.279 . S
N276 C279 1.299 1_655 S
C277 C274 1.348 1_455 S
C277 C279 1.362 . S
C277 H333 0.929 . S
C278 C274 1.356 . S
C278 C275 1.358 . S
C278 H334 0.930 . S
C279 N276 1.299 1_455 S
C279 C277 1.362 . S
C279 H335 0.937 . S
C280 N281 1.314 . S
C280 C285 1.353 . S
C280 H286 0.930 . S
N281 Li264 1.990 . S
N281 C280 1.314 . S
N281 C283 1.279 . S
C282 C283 1.358 . S
C282 C284 1.356 . S
C282 H336 0.930 . S
C283 N281 1.279 . S
C283 C282 1.358 . S
C283 H287 0.930 . S
C284 C282 1.356 . S
C284 C285 1.348 . S
C285 C280 1.353 . S
C285 C284 1.348 . S
C285 H337 0.929 . S
H286 C280 0.930 . S
H287 C283 0.930 . S
C288 N289 1.314 . S
C288 C290 1.353 . S
C288 H294 0.930 . S
N289 Li265 1.990 . S
N289 C288 1.314 . S
N289 C292 1.279 . S
C290 C288 1.353 . S
C290 C293 1.348 . S
C290 H338 0.929 . S
C291 C292 1.358 . S
C291 C293 1.356 . S
C291 H339 0.930 . S
C292 N289 1.279 . S
C292 C291 1.358 . S
C292 H295 0.930 . S
C293 C290 1.348 . S
C293 C291 1.356 . S
H294 C288 0.930 . S
H295 C292 0.930 . S
C296 C298 1.348 1_455 S
C296 C299 1.356 . S
C296 O326 1.325 . S
N297 C300 1.297 1_455 S
N297 C301 1.279 . S
C298 C296 1.348 1_655 S
C298 C300 1.352 . S
C298 H340 0.929 . S
C299 C296 1.356 . S
C299 C301 1.358 . S
C299 H341 0.930 . S
C300 N297 1.297 1_655 S
C300 C298 1.352 . S
C300 H342 0.950 . S
C301 N297 1.279 . S
C301 C299 1.358 . S
C301 H343 0.930 . S
C302 C303 1.348 . S
C302 C304 1.356 1_556 S
C302 O327 1.325 1_556 S
C303 C302 1.348 . S
C303 C305 1.353 . S
C303 H344 0.929 . S
C304 C302 1.356 1_554 S
C304 C306 1.358 . S
C304 H345 0.930 . S
C305 C303 1.353 . S
C305 N307 1.314 . S
C305 H346 0.930 . S
C306 C304 1.358 . S
C306 N307 1.279 1_554 S
C306 H347 0.930 . S
N307 C305 1.314 . S
N307 C306 1.279 1_556 S
C308 C310 1.353 . S
C308 N311 1.314 . S
C308 H314 0.930 . S
C309 N311 1.279 . S
C309 C312 1.358 . S
C309 H315 0.930 . S
C310 C308 1.353 . S
C310 C313 1.348 . S
C310 H348 0.929 . S
N311 Li266 1.990 . S
N311 C308 1.314 . S
N311 C309 1.279 . S
C312 C309 1.358 . S
C312 C313 1.356 . S
C312 H349 0.930 . S
C313 C310 1.348 . S
C313 C312 1.356 . S
H314 C308 0.930 . S
H315 C309 0.930 . S
C316 N317 1.314 1_554 S
C316 C318 1.353 1_554 S
C316 H322 0.930 . S
N317 Li267 1.990 1_556 S
N317 C316 1.314 1_556 S
N317 C320 1.279 . S
C318 C316 1.353 1_556 S
C318 C321 1.348 . S
C318 H350 0.929 1_556 S
C319 C320 1.358 . S
C319 C321 1.356 . S
C319 H351 0.930 . S
C320 N317 1.279 . S
C320 C319 1.358 . S
C320 H323 0.930 . S
C321 C318 1.348 . S
C321 C319 1.356 . S
H322 C316 0.930 . S
H323 C320 0.930 . S
O324 Li264 1.956 . S
O324 Li265 1.970 1_455 S
O324 Li266 1.961 1_554 S
O324 C268 1.325 . S
O325 Li264 1.970 1_655 S
O325 Li265 1.956 . S
O325 Li267 1.961 . S
O325 C274 1.325 . S
O326 Li264 1.961 1_556 S
O326 Li266 1.956 . S
O326 Li267 1.970 1_456 S
O326 C296 1.325 . S
O327 Li265 1.961 . S
O327 Li266 1.970 1_654 S
O327 Li267 1.956 . S
O327 C302 1.325 1_554 S
H328 C270 0.929 . S
H329 C271 0.930 1_556 S
H330 C272 0.930 . S
H331 C273 0.930 1_556 S
H332 C275 0.930 . S
H333 C277 0.929 . S
H334 C278 0.930 . S
H335 C279 0.937 . S
H336 C282 0.930 . S
H337 C285 0.929 . S
H338 C290 0.929 . S
H339 C291 0.930 . S
H340 C298 0.929 . S
H341 C299 0.930 . S
H342 C300 0.950 . S
H343 C301 0.930 . S
H344 C303 0.929 . S
H345 C304 0.930 . S
H346 C305 0.930 . S
H347 C306 0.930 . S
H348 C310 0.929 . S
H349 C312 0.930 . S
H350 C318 0.929 1_554 S
H351 C319 0.930 . S
Li352 N369 1.990 . S
Li352 O412 1.956 . S
Li352 O413 1.970 . S
Li352 O414 1.961 1_554 S
Li353 N377 1.990 . S
Li353 O412 1.970 . S
Li353 O413 1.956 . S
Li353 O415 1.954 1_554 S
Li354 N399 1.990 . S
Li354 O412 1.961 1_556 S
Li354 O414 1.956 . S
Li354 O415 1.974 . S
Li355 N405 1.984 1_554 S
Li355 O413 1.987 . S
Li355 O414 1.956 1_554 S
Li355 O415 1.955 1_554 S
C356 C358 1.348 . S
C356 C359 1.356 . S
C356 O412 1.325 . S
N357 C360 1.314 . S
N357 C361 1.279 . S
C358 C356 1.348 . S
C358 C360 1.353 . S
C358 H416 0.929 . S
C359 C356 1.356 . S
C359 C361 1.358 . S
C359 H417 0.930 1_554 S
C360 N357 1.314 . S
C360 C358 1.353 . S
C360 H418 0.930 . S
C361 N357 1.279 . S
C361 C359 1.358 . S
C361 H419 0.930 . S
C362 C365 1.348 . S
C362 C366 1.356 . S
C362 O413 1.325 . S
C363 N364 1.279 . S
C363 C366 1.358 . S
C363 H420 0.930 . S
N364 C363 1.279 . S
N364 C367 1.314 . S
C365 C362 1.348 . S
C365 C367 1.353 . S
C365 H421 0.929 . S
C366 C362 1.356 . S
C366 C363 1.358 . S
C366 H422 0.930 . S
C367 N364 1.314 . S
C367 C365 1.353 . S
C367 H423 0.930 . S
C368 N369 1.314 . S
C368 C373 1.353 . S
C368 H374 0.930 . S
N369 Li352 1.990 . S
N369 C368 1.314 . S
N369 C371 1.279 . S
C370 C371 1.358 . S
C370 C372 1.356 . S
C370 H424 0.930 . S
C371 N369 1.279 . S
C371 C370 1.358 . S
C371 H375 0.930 . S
C372 C370 1.356 . S
C372 C373 1.348 . S
C373 C368 1.353 . S
C373 C372 1.348 . S
C373 H425 0.929 . S
H374 C368 0.930 . S
H375 C371 0.930 . S
C376 N377 1.314 . S
C376 C378 1.353 . S
C376 H382 0.930 . S
N377 Li353 1.990 . S
N377 C376 1.314 . S
N377 C380 1.279 . S
C378 C376 1.353 . S
C378 C381 1.348 . S
C378 H426 0.929 . S
C379 C380 1.358 . S
C379 C381 1.356 . S
C379 H427 0.930 . S
C380 N377 1.279 . S
C380 C379 1.358 . S
C380 H383 0.930 . S
C381 C378 1.348 . S
C381 C379 1.356 . S
H382 C376 0.930 . S
H383 C380 0.930 . S
C384 C386 1.348 . S
C384 C387 1.356 . S
C384 O414 1.325 . S
N385 C388 1.314 . S
N385 C389 1.279 . S
C386 C384 1.348 . S
C386 C388 1.353 . S
C386 H428 0.929 . S
C387 C384 1.356 . S
C387 C389 1.358 . S
C387 H429 0.930 . S
C388 N385 1.314 . S
C388 C386 1.353 . S
C388 H430 0.930 . S
C389 N385 1.279 . S
C389 C387 1.358 . S
C389 H431 0.930 . S
C390 C391 1.348 . S
C390 C392 1.356 1_556 S
C390 O415 1.327 . S
C391 C390 1.348 . S
C391 C393 1.353 . S
C391 H432 0.929 . S
C392 C390 1.356 1_554 S
C392 C394 1.358 . S
C392 H433 0.930 . S
C393 C391 1.353 . S
C393 N395 1.314 . S
C393 H434 0.930 . S
C394 C392 1.358 . S
C394 N395 1.279 1_554 S
C394 H435 0.930 . S
N395 C393 1.314 . S
N395 C394 1.279 1_556 S
C396 C398 1.353 . S
C396 N399 1.314 . S
C396 H402 0.930 . S
C397 N399 1.279 . S
C397 C400 1.358 . S
C397 H403 0.930 . S
C398 C396 1.353 . S
C398 C401 1.348 . S
C398 H436 0.929 . S
N399 Li354 1.990 . S
N399 C396 1.314 . S
N399 C397 1.279 . S
C400 C397 1.358 . S
C400 C401 1.356 . S
C400 H437 0.930 . S
C401 C398 1.348 . S
C401 C400 1.356 . S
H402 C396 0.930 . S
H403 C397 0.930 . S
C404 N405 1.314 . S
C404 C406 1.353 . S
C404 H410 0.930 1_556 S
N405 Li355 1.984 1_556 S
N405 C404 1.314 . S
N405 C408 1.279 . S
C406 C404 1.353 . S
C406 C409 1.348 . S
C406 H438 0.929 . S
C407 C408 1.358 . S
C407 C409 1.356 . S
C407 H439 0.930 . S
C408 N405 1.279 . S
C408 C407 1.358 . S
C408 H411 0.930 . S
C409 C406 1.348 . S
C409 C407 1.356 . S
H410 C404 0.930 1_554 S
H411 C408 0.930 . S
O412 Li352 1.956 . S
O412 Li353 1.970 . S
O412 Li354 1.961 1_554 S
O412 C356 1.325 . S
O413 Li352 1.970 . S
O413 Li353 1.956 . S
O413 Li355 1.987 . S
O413 C362 1.325 . S
O414 Li352 1.961 1_556 S
O414 Li354 1.956 . S
O414 Li355 1.956 1_556 S
O414 C384 1.325 . S
O415 Li353 1.954 1_556 S
O415 Li354 1.974 . S
O415 Li355 1.955 1_556 S
O415 C390 1.327 . S
H416 C358 0.929 . S
H417 C359 0.930 1_556 S
H418 C360 0.930 . S
H419 C361 0.930 . S
H420 C363 0.930 . S
H421 C365 0.929 . S
H422 C366 0.930 . S
H423 C367 0.930 . S
H424 C370 0.930 . S
H425 C373 0.929 . S
H426 C378 0.929 . S
H427 C379 0.930 . S
H428 C386 0.929 . S
H429 C387 0.930 . S
H430 C388 0.930 . S
H431 C389 0.930 . S
H432 C391 0.929 . S
H433 C392 0.930 . S
H434 C393 0.930 . S
H435 C394 0.930 . S
H436 C398 0.929 . S
H437 C400 0.930 . S
H438 C406 0.929 . S
H439 C407 0.930 . S
Li440 N457 1.990 . S
Li440 O500 1.956 . S
Li440 O501 1.970 1_565 S
Li440 O502 1.961 1_554 S
Li441 N465 1.990 . S
Li441 O500 1.970 1_545 S
Li441 O501 1.956 . S
Li441 O503 1.961 . S
Li442 N487 1.990 . S
Li442 O500 1.961 1_556 S
Li442 O502 1.956 . S
Li442 O503 1.970 1_566 S
Li443 N493 1.990 1_554 S
Li443 O501 1.961 . S
Li443 O502 1.970 1_544 S
Li443 O503 1.956 . S
C444 C446 1.348 . S
C444 C447 1.356 . S
C444 O500 1.325 . S
N445 C448 1.314 . S
N445 C449 1.279 . S
C446 C444 1.348 . S
C446 C448 1.353 . S
C446 H504 0.929 . S
C447 C444 1.356 . S
C447 C449 1.358 . S
C447 H505 0.930 1_554 S
C448 N445 1.314 . S
C448 C446 1.353 . S
C448 H506 0.930 . S
C449 N445 1.279 . S
C449 C447 1.358 . S
C449 H507 0.930 1_554 S
C450 C453 1.348 1_545 S
C450 C454 1.356 . S
C450 O501 1.325 . S
C451 N452 1.279 . S
C451 C454 1.358 . S
C451 H508 0.930 . S
N452 C451 1.279 . S
N452 C455 1.300 1_545 S
C453 C450 1.348 1_565 S
C453 C455 1.352 . S
C453 H509 0.929 . S
C454 C450 1.356 . S
C454 C451 1.358 . S
C454 H510 0.930 . S
C455 N452 1.300 1_565 S
C455 C453 1.352 . S
C455 H511 0.946 . S
C456 N457 1.314 . S
C456 C461 1.353 . S
C456 H462 0.930 . S
N457 Li440 1.990 . S
N457 C456 1.314 . S
N457 C459 1.279 . S
C458 C459 1.358 . S
C458 C460 1.356 . S
C458 H512 0.930 . S
C459 N457 1.279 . S
C459 C458 1.358 . S
C459 H463 0.930 . S
C460 C458 1.356 . S
C460 C461 1.348 . S
C461 C456 1.353 . S
C461 C460 1.348 . S
C461 H513 0.929 . S
H462 C456 0.930 . S
H463 C459 0.930 . S
C464 N465 1.314 . S
C464 C466 1.353 . S
C464 H470 0.930 . S
N465 Li441 1.990 . S
N465 C464 1.314 . S
N465 C468 1.279 . S
C466 C464 1.353 . S
C466 C469 1.348 . S
C466 H514 0.929 . S
C467 C468 1.358 . S
C467 C469 1.356 . S
C467 H515 0.930 . S
C468 N465 1.279 . S
C468 C467 1.358 . S
C468 H471 0.930 . S
C469 C466 1.348 . S
C469 C467 1.356 . S
H470 C464 0.930 . S
H471 C468 0.930 . S
C472 C474 1.348 1_565 S
C472 C475 1.356 . S
C472 O502 1.325 . S
N473 C476 1.305 1_565 S
N473 C477 1.279 . S
C474 C472 1.348 1_545 S
C474 C476 1.358 . S
C474 H516 0.929 . S
C475 C472 1.356 . S
C475 C477 1.358 . S
C475 H517 0.930 . S
C476 N473 1.305 1_545 S
C476 C474 1.358 . S
C476 H518 0.934 . S
C477 N473 1.279 . S
C477 C475 1.358 . S
C477 H519 0.930 . S
C478 C479 1.348 . S
C478 C480 1.356 1_556 S
C478 O503 1.325 1_556 S
C479 C478 1.348 . S
C479 C481 1.353 . S
C479 H520 0.929 . S
C480 C478 1.356 1_554 S
C480 C482 1.358 . S
C480 H521 0.930 . S
C481 C479 1.353 . S
C481 N483 1.314 . S
C481 H522 0.930 . S
C482 C480 1.358 . S
C482 N483 1.279 1_554 S
C482 H523 0.930 . S
N483 C481 1.314 . S
N483 C482 1.279 1_556 S
C484 C486 1.353 . S
C484 N487 1.314 . S
C484 H490 0.930 . S
C485 N487 1.279 . S
C485 C488 1.358 . S
C485 H491 0.930 . S
C486 C484 1.353 . S
C486 C489 1.348 . S
C486 H524 0.929 . S
N487 Li442 1.990 . S
N487 C484 1.314 . S
N487 C485 1.279 . S
C488 C485 1.358 . S
C488 C489 1.356 . S
C488 H525 0.930 . S
C489 C486 1.348 . S
C489 C488 1.356 . S
H490 C484 0.930 . S
H491 C485 0.930 . S
C492 N493 1.314 1_554 S
C492 C494 1.353 1_554 S
C492 H498 0.930 . S
N493 Li443 1.990 1_556 S
N493 C492 1.314 1_556 S
N493 C496 1.279 . S
C494 C492 1.353 1_556 S
C494 C497 1.348 . S
C494 H526 0.929 1_556 S
C495 C496 1.358 . S
C495 C497 1.356 . S
C495 H527 0.930 . S
C496 N493 1.279 . S
C496 C495 1.358 . S
C496 H499 0.930 . S
C497 C494 1.348 . S
C497 C495 1.356 . S
H498 C492 0.930 . S
H499 C496 0.930 . S
O500 Li440 1.956 . S
O500 Li441 1.970 1_565 S
O500 Li442 1.961 1_554 S
O500 C444 1.325 . S
O501 Li440 1.970 1_545 S
O501 Li441 1.956 . S
O501 Li443 1.961 . S
O501 C450 1.325 . S
O502 Li440 1.961 1_556 S
O502 Li442 1.956 . S
O502 Li443 1.970 1_566 S
O502 C472 1.325 . S
O503 Li441 1.961 . S
O503 Li442 1.970 1_544 S
O503 Li443 1.956 . S
O503 C478 1.325 1_554 S
H504 C446 0.929 . S
H505 C447 0.930 1_556 S
H506 C448 0.930 . S
H507 C449 0.930 1_556 S
H508 C451 0.930 . S
H509 C453 0.929 . S
H510 C454 0.930 . S
H511 C455 0.946 . S
H512 C458 0.930 . S
H513 C461 0.929 . S
H514 C466 0.929 . S
H515 C467 0.930 . S
H516 C474 0.929 . S
H517 C475 0.930 . S
H518 C476 0.934 . S
H519 C477 0.930 . S
H520 C479 0.929 . S
H521 C480 0.930 . S
H522 C481 0.930 . S
H523 C482 0.930 . S
H524 C486 0.929 . S
H525 C488 0.930 . S
H526 C494 0.929 1_554 S
H527 C495 0.930 . S
Li528 N545 1.990 . S
Li528 O588 1.956 . S
Li528 O589 1.970 . S
Li528 O590 1.961 . S
Li529 N553 1.990 . S
Li529 O588 1.970 . S
Li529 O589 1.956 . S
Li529 O591 1.961 . S
Li530 N575 1.990 . S
Li530 O588 1.961 . S
Li530 O590 1.956 . S
Li530 O591 1.970 . S
Li531 N581 1.990 . S
Li531 O589 1.961 . S
Li531 O590 1.970 . S
Li531 O591 1.956 . S
C532 C534 1.348 . S
C532 C535 1.356 . S
C532 O588 1.325 . S
N533 C536 1.314 . S
N533 C537 1.279 . S
C534 C532 1.348 . S
C534 C536 1.353 . S
C534 H592 0.929 . S
C535 C532 1.356 . S
C535 C537 1.358 . S
C535 H593 0.930 . S
C536 N533 1.314 . S
C536 C534 1.353 . S
C536 H594 0.930 . S
C537 N533 1.279 . S
C537 C535 1.358 . S
C537 H595 0.930 . S
C538 C541 1.348 . S
C538 C542 1.356 . S
C538 O589 1.325 . S
C539 N540 1.279 . S
C539 C542 1.358 . S
C539 H596 0.930 . S
N540 C539 1.279 . S
N540 C543 1.314 . S
C541 C538 1.348 . S
C541 C543 1.353 . S
C541 H597 0.929 . S
C542 C538 1.356 . S
C542 C539 1.358 . S
C542 H598 0.930 . S
C543 N540 1.314 . S
C543 C541 1.353 . S
C543 H599 0.930 . S
C544 N545 1.314 . S
C544 C549 1.353 . S
C544 H550 0.930 . S
N545 Li528 1.990 . S
N545 C544 1.314 . S
N545 C547 1.279 . S
C546 C547 1.358 . S
C546 C548 1.356 . S
C546 H600 0.930 . S
C547 N545 1.279 . S
C547 C546 1.358 . S
C547 H551 0.930 . S
C548 C546 1.356 . S
C548 C549 1.348 . S
C549 C544 1.353 . S
C549 C548 1.348 . S
C549 H601 0.929 . S
H550 C544 0.930 . S
H551 C547 0.930 . S
C552 N553 1.314 . S
C552 C554 1.353 . S
C552 H558 0.930 . S
N553 Li529 1.990 . S
N553 C552 1.314 . S
N553 C556 1.279 . S
C554 C552 1.353 . S
C554 C557 1.348 . S
C554 H602 0.929 . S
C555 C556 1.358 . S
C555 C557 1.356 . S
C555 H603 0.930 . S
C556 N553 1.279 . S
C556 C555 1.358 . S
C556 H559 0.930 . S
C557 C554 1.348 . S
C557 C555 1.356 . S
H558 C552 0.930 . S
H559 C556 0.930 . S
C560 C562 1.348 . S
C560 C563 1.356 . S
C560 O590 1.325 . S
N561 C564 1.314 . S
N561 C565 1.279 . S
C562 C560 1.348 . S
C562 C564 1.353 . S
C562 H604 0.929 . S
C563 C560 1.356 . S
C563 C565 1.358 . S
C563 H605 0.930 . S
C564 N561 1.314 . S
C564 C562 1.353 . S
C564 H606 0.930 . S
C565 N561 1.279 . S
C565 C563 1.358 . S
C565 H607 0.930 . S
C566 C567 1.348 . S
C566 C568 1.356 . S
C566 O591 1.325 . S
C567 C566 1.348 . S
C567 C569 1.353 . S
C567 H608 0.929 . S
C568 C566 1.356 . S
C568 C570 1.358 . S
C568 H609 0.930 . S
C569 C567 1.353 . S
C569 N571 1.314 . S
C569 H610 0.930 . S
C570 C568 1.358 . S
C570 N571 1.279 . S
C570 H611 0.930 . S
N571 C569 1.314 . S
N571 C570 1.279 . S
C572 C574 1.353 . S
C572 N575 1.314 . S
C572 H578 0.930 . S
C573 N575 1.279 . S
C573 C576 1.358 . S
C573 H579 0.930 . S
C574 C572 1.353 . S
C574 C577 1.348 . S
C574 H612 0.929 . S
N575 Li530 1.990 . S
N575 C572 1.314 . S
N575 C573 1.279 . S
C576 C573 1.358 . S
C576 C577 1.356 . S
C576 H613 0.930 . S
C577 C574 1.348 . S
C577 C576 1.356 . S
H578 C572 0.930 . S
H579 C573 0.930 . S
C580 N581 1.314 . S
C580 C582 1.353 . S
C580 H586 0.930 . S
N581 Li531 1.990 . S
N581 C580 1.314 . S
N581 C584 1.279 . S
C582 C580 1.353 . S
C582 C585 1.348 . S
C582 H614 0.929 . S
C583 C584 1.358 . S
C583 C585 1.356 . S
C583 H615 0.930 . S
C584 N581 1.279 . S
C584 C583 1.358 . S
C584 H587 0.930 . S
C585 C582 1.348 . S
C585 C583 1.356 . S
H586 C580 0.930 . S
H587 C584 0.930 . S
O588 Li528 1.956 . S
O588 Li529 1.970 . S
O588 Li530 1.961 . S
O588 C532 1.325 . S
O589 Li528 1.970 . S
O589 Li529 1.956 . S
O589 Li531 1.961 . S
O589 C538 1.325 . S
O590 Li528 1.961 . S
O590 Li530 1.956 . S
O590 Li531 1.970 . S
O590 C560 1.325 . S
O591 Li529 1.961 . S
O591 Li530 1.970 . S
O591 Li531 1.956 . S
O591 C566 1.325 . S
H592 C534 0.929 . S
H593 C535 0.930 . S
H594 C536 0.930 . S
H595 C537 0.930 . S
H596 C539 0.930 . S
H597 C541 0.929 . S
H598 C542 0.930 . S
H599 C543 0.930 . S
H600 C546 0.930 . S
H601 C549 0.929 . S
H602 C554 0.929 . S
H603 C555 0.930 . S
H604 C562 0.929 . S
H605 C563 0.930 . S
H606 C564 0.930 . S
H607 C565 0.930 . S
H608 C567 0.929 . S
H609 C568 0.930 . S
H610 C569 0.930 . S
H611 C570 0.930 . S
H612 C574 0.929 . S
H613 C576 0.930 . S
H614 C582 0.929 . S
H615 C583 0.930 . S
Li616 N633 1.990 . S
Li616 O676 1.956 . S
Li616 O677 1.970 . S
Li616 O678 1.961 . S
Li617 N641 1.990 . S
Li617 O676 1.970 . S
Li617 O677 1.956 . S
Li617 O679 1.961 . S
Li618 N663 1.990 . S
Li618 O676 1.961 1_545 S
Li618 O678 1.956 1_545 S
Li618 O679 1.970 1_545 S
Li619 N669 1.990 . S
Li619 O677 1.961 . S
Li619 O678 1.970 . S
Li619 O679 1.956 . S
C620 C622 1.348 . S
C620 C623 1.356 . S
C620 O676 1.325 . S
N621 C624 1.314 . S
N621 C625 1.279 . S
C622 C620 1.348 . S
C622 C624 1.353 . S
C622 H680 0.929 . S
C623 C620 1.356 . S
C623 C625 1.358 . S
C623 H681 0.935 . S
C624 N621 1.314 . S
C624 C622 1.353 . S
C624 H682 0.930 . S
C625 N621 1.279 . S
C625 C623 1.358 . S
C625 H683 0.930 . S
C626 C629 1.348 . S
C626 C630 1.356 . S
C626 O677 1.325 . S
C627 N628 1.279 . S
C627 C630 1.358 . S
C627 H684 0.930 . S
N628 C627 1.279 . S
N628 C631 1.314 . S
C629 C626 1.348 . S
C629 C631 1.353 . S
C629 H685 0.929 . S
C630 C626 1.356 . S
C630 C627 1.358 . S
C630 H686 0.930 . S
C631 N628 1.314 . S
C631 C629 1.353 . S
C631 H687 0.930 . S
C632 N633 1.314 . S
C632 C637 1.353 . S
C632 H638 0.930 . S
N633 Li616 1.990 . S
N633 C632 1.314 . S
N633 C635 1.279 . S
C634 C635 1.358 . S
C634 C636 1.356 . S
C634 H688 0.930 . S
C635 N633 1.279 . S
C635 C634 1.358 . S
C635 H639 0.930 . S
C636 C634 1.356 . S
C636 C637 1.348 . S
C637 C632 1.353 . S
C637 C636 1.348 . S
C637 H689 0.929 . S
H638 C632 0.930 . S
H639 C635 0.930 . S
C640 N641 1.314 . S
C640 C642 1.353 . S
C640 H646 0.930 . S
N641 Li617 1.990 . S
N641 C640 1.314 . S
N641 C644 1.279 . S
C642 C640 1.353 . S
C642 C645 1.348 . S
C642 H690 0.929 . S
C643 C644 1.358 . S
C643 C645 1.356 . S
C643 H691 0.930 . S
C644 N641 1.279 . S
C644 C643 1.358 . S
C644 H647 0.930 . S
C645 C642 1.348 . S
C645 C643 1.356 . S
H646 C640 0.930 . S
H647 C644 0.930 . S
C648 C650 1.348 . S
C648 C651 1.356 . S
C648 O678 1.325 1_545 S
N649 C652 1.314 . S
N649 C653 1.279 . S
C650 C648 1.348 . S
C650 C652 1.353 . S
C650 H692 0.929 . S
C651 C648 1.356 . S
C651 C653 1.358 . S
C651 H693 0.930 . S
C652 N649 1.314 . S
C652 C650 1.353 . S
C652 H694 0.930 . S
C653 N649 1.279 . S
C653 C651 1.358 . S
C653 H695 0.930 . S
C654 C655 1.348 1_565 S
C654 C656 1.356 . S
C654 O679 1.325 . S
C655 C654 1.348 1_545 S
C655 C657 1.353 . S
C655 H696 0.929 . S
C656 C654 1.356 . S
C656 C658 1.358 . S
C656 H697 0.930 . S
C657 C655 1.353 . S
C657 N659 1.314 . S
C657 H698 0.930 . S
C658 C656 1.358 . S
C658 N659 1.279 1_565 S
C658 H699 0.930 . S
N659 C657 1.314 . S
N659 C658 1.279 1_545 S
C660 C662 1.353 . S
C660 N663 1.314 . S
C660 H666 0.930 . S
C661 N663 1.279 . S
C661 C664 1.358 . S
C661 H667 0.930 . S
C662 C660 1.353 . S
C662 C665 1.348 . S
C662 H700 0.929 . S
N663 Li618 1.990 . S
N663 C660 1.314 . S
N663 C661 1.279 . S
C664 C661 1.358 . S
C664 C665 1.356 . S
C664 H701 0.930 . S
C665 C662 1.348 . S
C665 C664 1.356 . S
H666 C660 0.930 . S
H667 C661 0.930 . S
C668 N669 1.314 . S
C668 C670 1.353 . S
C668 H674 0.930 . S
N669 Li619 1.990 . S
N669 C668 1.314 . S
N669 C672 1.279 . S
C670 C668 1.353 . S
C670 C673 1.348 . S
C670 H702 0.929 . S
C671 C672 1.358 . S
C671 C673 1.356 . S
C671 H703 0.930 1_565 S
C672 N669 1.279 . S
C672 C671 1.358 . S
C672 H675 0.930 1_565 S
C673 C670 1.348 . S
C673 C671 1.356 . S
H674 C668 0.930 . S
H675 C672 0.930 1_545 S
O676 Li616 1.956 . S
O676 Li617 1.970 . S
O676 Li618 1.961 1_565 S
O676 C620 1.325 . S
O677 Li616 1.970 . S
O677 Li617 1.956 . S
O677 Li619 1.961 . S
O677 C626 1.325 . S
O678 Li616 1.961 . S
O678 Li618 1.956 1_565 S
O678 Li619 1.970 . S
O678 C648 1.325 1_565 S
O679 Li617 1.961 . S
O679 Li618 1.970 1_565 S
O679 Li619 1.956 . S
O679 C654 1.325 . S
H680 C622 0.929 . S
H681 C623 0.935 . S
H682 C624 0.930 . S
H683 C625 0.930 . S
H684 C627 0.930 . S
H685 C629 0.929 . S
H686 C630 0.930 . S
H687 C631 0.930 . S
H688 C634 0.930 . S
H689 C637 0.929 . S
H690 C642 0.929 . S
H691 C643 0.930 . S
H692 C650 0.929 . S
H693 C651 0.930 . S
H694 C652 0.930 . S
H695 C653 0.930 . S
H696 C655 0.929 . S
H697 C656 0.930 . S
H698 C657 0.930 . S
H699 C658 0.930 . S
H700 C662 0.929 . S
H701 C664 0.930 . S
H702 C670 0.929 . S
H703 C671 0.930 1_545 S
Li704 N721 1.990 . S
Li704 O764 1.956 . S
Li704 O765 1.970 . S
Li704 O766 1.961 . S
Li705 N729 1.990 . S
Li705 O764 1.970 . S
Li705 O765 1.956 . S
Li705 O767 1.961 . S
Li706 N751 1.990 . S
Li706 O764 1.961 1_655 S
Li706 O766 1.956 1_655 S
Li706 O767 1.970 1_655 S
Li707 N757 1.990 . S
Li707 O765 1.961 . S
Li707 O766 1.970 . S
Li707 O767 1.956 . S
C708 C710 1.348 . S
C708 C711 1.356 . S
C708 O764 1.325 . S
N709 C712 1.314 . S
N709 C713 1.279 . S
C710 C708 1.348 . S
C710 C712 1.353 . S
C710 H768 0.929 . S
C711 C708 1.356 . S
C711 C713 1.358 . S
C711 H769 0.930 . S
C712 N709 1.314 . S
C712 C710 1.353 . S
C712 H770 0.930 . S
C713 N709 1.279 . S
C713 C711 1.358 . S
C713 H771 0.930 . S
C714 C717 1.348 . S
C714 C718 1.356 . S
C714 O765 1.325 . S
C715 N716 1.279 . S
C715 C718 1.358 . S
C715 H772 0.930 . S
N716 C715 1.279 . S
N716 C719 1.314 . S
C717 C714 1.348 . S
C717 C719 1.353 . S
C717 H773 0.929 . S
C718 C714 1.356 . S
C718 C715 1.358 . S
C718 H774 0.930 . S
C719 N716 1.314 . S
C719 C717 1.353 . S
C719 H775 0.930 . S
C720 N721 1.314 . S
C720 C725 1.353 . S
C720 H726 0.930 . S
N721 Li704 1.990 . S
N721 C720 1.314 . S
N721 C723 1.279 . S
C722 C723 1.358 . S
C722 C724 1.356 . S
C722 H776 0.930 . S
C723 N721 1.279 . S
C723 C722 1.358 . S
C723 H727 0.930 . S
C724 C722 1.356 . S
C724 C725 1.348 . S
C725 C720 1.353 . S
C725 C724 1.348 . S
C725 H777 0.929 . S
H726 C720 0.930 . S
H727 C723 0.930 . S
C728 N729 1.314 . S
C728 C730 1.353 . S
C728 H734 0.930 . S
N729 Li705 1.990 . S
N729 C728 1.314 . S
N729 C732 1.279 . S
C730 C728 1.353 . S
C730 C733 1.348 . S
C730 H778 0.929 . S
C731 C732 1.358 . S
C731 C733 1.356 . S
C731 H779 0.930 . S
C732 N729 1.279 . S
C732 C731 1.358 . S
C732 H735 0.930 . S
C733 C730 1.348 . S
C733 C731 1.356 . S
H734 C728 0.930 . S
H735 C732 0.930 . S
C736 C738 1.348 . S
C736 C739 1.356 . S
C736 O766 1.325 1_655 S
N737 C740 1.314 . S
N737 C741 1.279 . S
C738 C736 1.348 . S
C738 C740 1.353 . S
C738 H780 0.929 . S
C739 C736 1.356 . S
C739 C741 1.358 . S
C739 H781 0.930 . S
C740 N737 1.314 . S
C740 C738 1.353 . S
C740 H782 0.930 . S
C741 N737 1.279 . S
C741 C739 1.358 . S
C741 H783 0.930 . S
C742 C743 1.348 1_455 S
C742 C744 1.356 . S
C742 O767 1.325 . S
C743 C742 1.348 1_655 S
C743 C745 1.353 . S
C743 H784 0.929 . S
C744 C742 1.356 . S
C744 C746 1.358 . S
C744 H785 0.930 . S
C745 C743 1.353 . S
C745 N747 1.314 . S
C745 H786 0.930 . S
C746 C744 1.358 . S
C746 N747 1.279 1_455 S
C746 H787 0.930 . S
N747 C745 1.314 . S
N747 C746 1.279 1_655 S
C748 C750 1.353 . S
C748 N751 1.314 . S
C748 H754 0.930 . S
C749 N751 1.279 . S
C749 C752 1.358 . S
C749 H755 0.930 . S
C750 C748 1.353 . S
C750 C753 1.348 . S
C750 H788 0.929 . S
N751 Li706 1.990 . S
N751 C748 1.314 . S
N751 C749 1.279 . S
C752 C749 1.358 . S
C752 C753 1.356 . S
C752 H789 0.930 . S
C753 C750 1.348 . S
C753 C752 1.356 . S
H754 C748 0.930 . S
H755 C749 0.930 . S
C756 N757 1.314 . S
C756 C758 1.353 . S
C756 H762 0.930 . S
N757 Li707 1.990 . S
N757 C756 1.314 . S
N757 C760 1.279 . S
C758 C756 1.353 . S
C758 C761 1.348 . S
C758 H790 0.929 . S
C759 C760 1.358 . S
C759 C761 1.356 . S
C759 H791 0.930 1_455 S
C760 N757 1.279 . S
C760 C759 1.358 . S
C760 H763 0.927 1_455 S
C761 C758 1.348 . S
C761 C759 1.356 . S
H762 C756 0.930 . S
H763 C760 0.927 1_655 S
O764 Li704 1.956 . S
O764 Li705 1.970 . S
O764 Li706 1.961 1_455 S
O764 C708 1.325 . S
O765 Li704 1.970 . S
O765 Li705 1.956 . S
O765 Li707 1.961 . S
O765 C714 1.325 . S
O766 Li704 1.961 . S
O766 Li706 1.956 1_455 S
O766 Li707 1.970 . S
O766 C736 1.325 1_455 S
O767 Li705 1.961 . S
O767 Li706 1.970 1_455 S
O767 Li707 1.956 . S
O767 C742 1.325 . S
H768 C710 0.929 . S
H769 C711 0.930 . S
H770 C712 0.930 . S
H771 C713 0.930 . S
H772 C715 0.930 . S
H773 C717 0.929 . S
H774 C718 0.930 . S
H775 C719 0.930 . S
H776 C722 0.930 . S
H777 C725 0.929 . S
H778 C730 0.929 . S
H779 C731 0.930 . S
H780 C738 0.929 . S
H781 C739 0.930 . S
H782 C740 0.930 . S
H783 C741 0.930 . S
H784 C743 0.929 . S
H785 C744 0.930 . S
H786 C745 0.930 . S
H787 C746 0.930 . S
H788 C750 0.929 . S
H789 C752 0.930 . S
H790 C758 0.929 . S
H791 C759 0.930 1_655 S
Li792 N809 1.990 . S
Li792 O852 1.956 1_545 S
Li792 O853 1.970 1_545 S
Li792 O854 1.961 1_545 S
Li793 N817 1.990 . S
Li793 O852 1.970 . S
Li793 O853 1.956 . S
Li793 O855 1.961 . S
Li794 N839 1.990 . S
Li794 O852 1.961 . S
Li794 O854 1.956 . S
Li794 O855 1.970 . S
Li795 N845 1.990 . S
Li795 O853 1.961 . S
Li795 O854 1.970 . S
Li795 O855 1.956 . S
C796 C798 1.348 . S
C796 C799 1.356 . S
C796 O852 1.325 . S
N797 C800 1.314 . S
N797 C801 1.279 . S
C798 C796 1.348 . S
C798 C800 1.353 . S
C798 H856 0.929 . S
C799 C796 1.356 . S
C799 C801 1.358 . S
C799 H857 0.930 . S
C800 N797 1.314 . S
C800 C798 1.353 . S
C800 H858 0.930 . S
C801 N797 1.279 . S
C801 C799 1.358 . S
C801 H859 0.930 . S
C802 C805 1.348 1_565 S
C802 C806 1.356 . S
C802 O853 1.325 . S
C803 N804 1.279 1_565 S
C803 C806 1.358 . S
C803 H860 0.930 . S
N804 C803 1.279 1_545 S
N804 C807 1.314 . S
C805 C802 1.348 1_545 S
C805 C807 1.353 . S
C805 H861 0.929 . S
C806 C802 1.356 . S
C806 C803 1.358 . S
C806 H862 0.930 . S
C807 N804 1.314 . S
C807 C805 1.353 . S
C807 H863 0.930 . S
C808 N809 1.314 . S
C808 C813 1.353 . S
C808 H814 0.930 . S
N809 Li792 1.990 . S
N809 C808 1.314 . S
N809 C811 1.279 . S
C810 C811 1.358 . S
C810 C812 1.356 . S
C810 H864 0.930 . S
C811 N809 1.279 . S
C811 C810 1.358 . S
C811 H815 0.930 . S
C812 C810 1.356 . S
C812 C813 1.348 . S
C813 C808 1.353 . S
C813 C812 1.348 . S
C813 H865 0.929 . S
H814 C808 0.930 . S
H815 C811 0.930 . S
C816 N817 1.314 . S
C816 C818 1.353 . S
C816 H822 0.930 . S
N817 Li793 1.990 . S
N817 C816 1.314 . S
N817 C820 1.279 . S
C818 C816 1.353 . S
C818 C821 1.348 . S
C818 H866 0.929 . S
C819 C820 1.358 . S
C819 C821 1.356 . S
C819 H867 0.930 . S
C820 N817 1.279 . S
C820 C819 1.358 . S
C820 H823 0.930 . S
C821 C818 1.348 . S
C821 C819 1.356 . S
H822 C816 0.930 . S
H823 C820 0.930 . S
C824 C826 1.348 . S
C824 C827 1.356 . S
C824 O854 1.325 1_545 S
N825 C828 1.314 . S
N825 C829 1.279 . S
C826 C824 1.348 . S
C826 C828 1.353 . S
C826 H868 0.930 1_545 S
C827 C824 1.356 . S
C827 C829 1.358 . S
C827 H869 0.930 . S
C828 N825 1.314 . S
C828 C826 1.353 . S
C828 H870 0.930 . S
C829 N825 1.279 . S
C829 C827 1.358 . S
C829 H871 0.930 . S
C830 C831 1.348 . S
C830 C832 1.356 . S
C830 O855 1.325 . S
C831 C830 1.348 . S
C831 C833 1.353 . S
C831 H872 0.929 . S
C832 C830 1.356 . S
C832 C834 1.358 . S
C832 H873 0.930 . S
C833 C831 1.353 . S
C833 N835 1.314 . S
C833 H874 0.930 . S
C834 C832 1.358 . S
C834 N835 1.279 . S
C834 H875 0.930 . S
N835 C833 1.314 . S
N835 C834 1.279 . S
C836 C838 1.353 . S
C836 N839 1.314 . S
C836 H842 0.930 . S
C837 N839 1.279 . S
C837 C840 1.358 . S
C837 H843 0.930 . S
C838 C836 1.353 . S
C838 C841 1.348 . S
C838 H876 0.929 . S
N839 Li794 1.990 . S
N839 C836 1.314 . S
N839 C837 1.279 . S
C840 C837 1.358 . S
C840 C841 1.356 . S
C840 H877 0.930 . S
C841 C838 1.348 . S
C841 C840 1.356 . S
H842 C836 0.930 . S
H843 C837 0.930 . S
C844 N845 1.314 . S
C844 C846 1.312 1_565 S
C844 H850 0.930 1_565 S
N845 Li795 1.990 . S
N845 C844 1.314 . S
N845 C848 1.279 . S
C846 C844 1.312 1_545 S
C846 C849 1.325 1_545 S
C846 H878 0.995 . S
C847 C848 1.358 . S
C847 C849 1.356 . S
C847 H879 0.930 . S
C848 N845 1.279 . S
C848 C847 1.358 . S
C848 H851 0.930 . S
C849 C846 1.325 1_565 S
C849 C847 1.356 . S
H850 C844 0.930 1_545 S
H851 C848 0.930 . S
O852 Li792 1.956 1_565 S
O852 Li793 1.970 . S
O852 Li794 1.961 . S
O852 C796 1.325 . S
O853 Li792 1.970 1_565 S
O853 Li793 1.956 . S
O853 Li795 1.961 . S
O853 C802 1.325 . S
O854 Li792 1.961 1_565 S
O854 Li794 1.956 . S
O854 Li795 1.970 . S
O854 C824 1.325 1_565 S
O855 Li793 1.961 . S
O855 Li794 1.970 . S
O855 Li795 1.956 . S
O855 C830 1.325 . S
H856 C798 0.929 . S
H857 C799 0.930 . S
H858 C800 0.930 . S
H859 C801 0.930 . S
H860 C803 0.930 . S
H861 C805 0.929 . S
H862 C806 0.930 . S
H863 C807 0.930 . S
H864 C810 0.930 . S
H865 C813 0.929 . S
H866 C818 0.929 . S
H867 C819 0.930 . S
H868 C826 0.930 1_565 S
H869 C827 0.930 . S
H870 C828 0.930 . S
H871 C829 0.930 . S
H872 C831 0.929 . S
H873 C832 0.930 . S
H874 C833 0.930 . S
H875 C834 0.930 . S
H876 C838 0.929 . S
H877 C840 0.930 . S
H878 C846 0.995 . S
H879 C847 0.930 . S
Li880 N897 1.990 . S
Li880 O940 1.956 . S
Li880 O941 1.970 . S
Li880 O942 1.961 . S
Li881 N905 1.990 . S
Li881 O940 1.970 1_655 S
Li881 O941 1.956 1_655 S
Li881 O943 1.961 1_655 S
Li882 N927 1.990 . S
Li882 O940 1.961 . S
Li882 O942 1.956 . S
Li882 O943 1.970 . S
Li883 N933 1.990 . S
Li883 O941 1.961 . S
Li883 O942 1.970 . S
Li883 O943 1.956 . S
C884 C886 1.348 1_455 S
C884 C887 1.356 . S
C884 O940 1.325 . S
N885 C888 1.314 . S
N885 C889 1.279 1_655 S
C886 C884 1.348 1_655 S
C886 C888 1.353 . S
C886 H944 0.929 . S
C887 C884 1.356 . S
C887 C889 1.358 . S
C887 H945 0.930 . S
C888 N885 1.314 . S
C888 C886 1.353 . S
C888 H946 0.930 . S
C889 N885 1.279 1_455 S
C889 C887 1.358 . S
C889 H947 0.930 . S
C890 C893 1.348 . S
C890 C894 1.356 . S
C890 O941 1.325 . S
C891 N892 1.279 . S
C891 C894 1.358 . S
C891 H948 0.930 . S
N892 C891 1.279 . S
N892 C895 1.314 . S
C893 C890 1.348 . S
C893 C895 1.353 . S
C893 H949 0.929 . S
C894 C890 1.356 . S
C894 C891 1.358 . S
C894 H950 0.930 . S
C895 N892 1.314 . S
C895 C893 1.353 . S
C895 H951 0.930 . S
C896 N897 1.314 . S
C896 C901 1.353 . S
C896 H902 0.930 . S
N897 Li880 1.990 . S
N897 C896 1.314 . S
N897 C899 1.279 . S
C898 C899 1.358 . S
C898 C900 1.356 . S
C898 H952 0.930 . S
C899 N897 1.279 . S
C899 C898 1.358 . S
C899 H903 0.930 . S
C900 C898 1.356 . S
C900 C901 1.348 . S
C901 C896 1.353 . S
C901 C900 1.348 . S
C901 H953 0.929 . S
H902 C896 0.930 . S
H903 C899 0.930 . S
C904 N905 1.314 . S
C904 C906 1.353 . S
C904 H910 0.930 . S
N905 Li881 1.990 . S
N905 C904 1.314 . S
N905 C908 1.279 . S
C906 C904 1.353 . S
C906 C909 1.348 . S
C906 H954 0.929 . S
C907 C908 1.358 . S
C907 C909 1.356 . S
C907 H955 0.930 . S
C908 N905 1.279 . S
C908 C907 1.358 . S
C908 H911 0.930 . S
C909 C906 1.348 . S
C909 C907 1.356 . S
H910 C904 0.930 . S
H911 C908 0.930 . S
C912 C914 1.348 . S
C912 C915 1.356 . S
C912 O942 1.325 . S
N913 C916 1.314 . S
N913 C917 1.279 . S
C914 C912 1.348 . S
C914 C916 1.353 . S
C914 H956 0.929 . S
C915 C912 1.356 . S
C915 C917 1.358 . S
C915 H957 0.930 . S
C916 N913 1.314 . S
C916 C914 1.353 . S
C916 H958 0.930 . S
C917 N913 1.279 . S
C917 C915 1.358 . S
C917 H959 0.930 . S
C918 C919 1.348 . S
C918 C920 1.356 . S
C918 O943 1.325 1_655 S
C919 C918 1.348 . S
C919 C921 1.353 . S
C919 H960 0.944 . S
C920 C918 1.356 . S
C920 C922 1.358 . S
C920 H961 0.930 . S
C921 C919 1.353 . S
C921 N923 1.314 . S
C921 H962 0.930 . S
C922 C920 1.358 . S
C922 N923 1.279 . S
C922 H963 0.930 . S
N923 C921 1.314 . S
N923 C922 1.279 . S
C924 C926 1.353 1_455 S
C924 N927 1.314 . S
C924 H930 0.930 1_455 S
C925 N927 1.279 . S
C925 C928 1.358 . S
C925 H931 0.930 . S
C926 C924 1.353 1_655 S
C926 C929 1.348 1_655 S
C926 H964 0.929 . S
N927 Li882 1.990 . S
N927 C924 1.314 . S
N927 C925 1.279 . S
C928 C925 1.358 . S
C928 C929 1.356 . S
C928 H965 0.930 . S
C929 C926 1.348 1_455 S
C929 C928 1.356 . S
H930 C924 0.930 1_655 S
H931 C925 0.930 . S
C932 N933 1.314 . S
C932 C934 1.353 . S
C932 H938 0.930 . S
N933 Li883 1.990 . S
N933 C932 1.314 . S
N933 C936 1.279 . S
C934 C932 1.353 . S
C934 C937 1.348 . S
C934 H966 0.929 . S
C935 C936 1.358 . S
C935 C937 1.356 . S
C935 H967 0.930 . S
C936 N933 1.279 . S
C936 C935 1.358 . S
C936 H939 0.930 . S
C937 C934 1.348 . S
C937 C935 1.356 . S
H938 C932 0.930 . S
H939 C936 0.930 . S
O940 Li880 1.956 . S
O940 Li881 1.970 1_455 S
O940 Li882 1.961 . S
O940 C884 1.325 . S
O941 Li880 1.970 . S
O941 Li881 1.956 1_455 S
O941 Li883 1.961 . S
O941 C890 1.325 . S
O942 Li880 1.961 . S
O942 Li882 1.956 . S
O942 Li883 1.970 . S
O942 C912 1.325 . S
O943 Li881 1.961 1_455 S
O943 Li882 1.970 . S
O943 Li883 1.956 . S
O943 C918 1.325 1_455 S
H944 C886 0.929 . S
H945 C887 0.930 . S
H946 C888 0.930 . S
H947 C889 0.930 . S
H948 C891 0.930 . S
H949 C893 0.929 . S
H950 C894 0.930 . S
H951 C895 0.930 . S
H952 C898 0.930 . S
H953 C901 0.929 . S
H954 C906 0.929 . S
H955 C907 0.930 . S
H956 C914 0.929 . S
H957 C915 0.930 . S
H958 C916 0.930 . S
H959 C917 0.930 . S
H960 C919 0.944 . S
H961 C920 0.930 . S
H962 C921 0.930 . S
H963 C922 0.930 . S
H964 C926 0.929 . S
H965 C928 0.930 . S
H966 C934 0.929 . S
H967 C935 0.930 . S
Li968 N985 1.990 . S
Li968 O1028 1.956 . S
Li968 O1029 1.970 . S
Li968 O1030 1.961 . S
Li969 N993 1.990 . S
Li969 O1028 1.970 . S
Li969 O1029 1.956 . S
Li969 O1031 1.961 . S
Li970 N1015 1.990 . S
Li970 O1028 1.961 . S
Li970 O1030 1.956 . S
Li970 O1031 1.970 . S
Li971 N1021 1.990 . S
Li971 O1029 1.961 . S
Li971 O1030 1.970 . S
Li971 O1031 1.956 . S
C972 C974 1.348 . S
C972 C975 1.356 . S
C972 O1028 1.325 . S
N973 C976 1.314 . S
N973 C977 1.279 . S
C974 C972 1.348 . S
C974 C976 1.353 . S
C974 H1032 0.929 . S
C975 C972 1.356 . S
C975 C977 1.358 . S
C975 H1033 0.930 . S
C976 N973 1.314 . S
C976 C974 1.353 . S
C976 H1034 0.930 . S
C977 N973 1.279 . S
C977 C975 1.358 . S
C977 H1035 0.930 . S
C978 C981 1.348 . S
C978 C982 1.356 . S
C978 O1029 1.325 . S
C979 N980 1.279 . S
C979 C982 1.358 . S
C979 H1036 0.930 . S
N980 C979 1.279 . S
N980 C983 1.314 . S
C981 C978 1.348 . S
C981 C983 1.353 . S
C981 H1037 0.929 . S
C982 C978 1.356 . S
C982 C979 1.358 . S
C982 H1038 0.930 . S
C983 N980 1.314 . S
C983 C981 1.353 . S
C983 H1039 0.930 . S
C984 N985 1.314 . S
C984 C989 1.353 . S
C984 H990 0.930 . S
N985 Li968 1.990 . S
N985 C984 1.314 . S
N985 C987 1.279 . S
C986 C987 1.358 . S
C986 C988 1.356 . S
C986 H1040 0.930 . S
C987 N985 1.279 . S
C987 C986 1.358 . S
C987 H991 0.930 . S
C988 C986 1.356 . S
C988 C989 1.348 . S
C989 C984 1.353 . S
C989 C988 1.348 . S
C989 H1041 0.929 . S
H990 C984 0.930 . S
H991 C987 0.930 . S
C992 N993 1.314 . S
C992 C994 1.353 . S
C992 H998 0.930 . S
N993 Li969 1.990 . S
N993 C992 1.314 . S
N993 C996 1.279 . S
C994 C992 1.353 . S
C994 C997 1.348 . S
C994 H1042 0.929 . S
C995 C996 1.358 . S
C995 C997 1.356 . S
C995 H1043 0.930 . S
C996 N993 1.279 . S
C996 C995 1.358 . S
C996 H999 0.930 . S
C997 C994 1.348 . S
C997 C995 1.356 . S
H998 C992 0.930 . S
H999 C996 0.930 . S
C1000 C1002 1.348 . S
C1000 C1003 1.356 . S
C1000 O1030 1.325 . S
N1001 C1004 1.314 . S
N1001 C1005 1.279 . S
C1002 C1000 1.348 . S
C1002 C1004 1.353 . S
C1002 H1044 0.929 . S
C1003 C1000 1.356 . S
C1003 C1005 1.358 . S
C1003 H1045 0.930 . S
C1004 N1001 1.314 . S
C1004 C1002 1.353 . S
C1004 H1046 0.930 . S
C1005 N1001 1.279 . S
C1005 C1003 1.358 . S
C1005 H1047 0.930 . S
C1006 C1007 1.348 . S
C1006 C1008 1.356 . S
C1006 O1031 1.325 . S
C1007 C1006 1.348 . S
C1007 C1009 1.353 . S
C1007 H1048 0.929 . S
C1008 C1006 1.356 . S
C1008 C1010 1.358 . S
C1008 H1049 0.930 . S
C1009 C1007 1.353 . S
C1009 N1011 1.314 . S
C1009 H1050 0.930 . S
C1010 C1008 1.358 . S
C1010 N1011 1.279 . S
C1010 H1051 0.930 . S
N1011 C1009 1.314 . S
N1011 C1010 1.279 . S
C1012 C1014 1.353 . S
C1012 N1015 1.314 . S
C1012 H1018 0.930 . S
C1013 N1015 1.279 . S
C1013 C1016 1.358 . S
C1013 H1019 0.930 . S
C1014 C1012 1.353 . S
C1014 C1017 1.348 . S
C1014 H1052 0.929 . S
N1015 Li970 1.990 . S
N1015 C1012 1.314 . S
N1015 C1013 1.279 . S
C1016 C1013 1.358 . S
C1016 C1017 1.356 . S
C1016 H1053 0.930 . S
C1017 C1014 1.348 . S
C1017 C1016 1.356 . S
H1018 C1012 0.930 . S
H1019 C1013 0.930 . S
C1020 N1021 1.314 . S
C1020 C1022 1.353 . S
C1020 H1026 0.930 . S
N1021 Li971 1.990 . S
N1021 C1020 1.314 . S
N1021 C1024 1.279 . S
C1022 C1020 1.353 . S
C1022 C1025 1.348 . S
C1022 H1054 0.929 . S
C1023 C1024 1.358 . S
C1023 C1025 1.356 . S
C1023 H1055 0.930 . S
C1024 N1021 1.279 . S
C1024 C1023 1.358 . S
C1024 H1027 0.930 . S
C1025 C1022 1.348 . S
C1025 C1023 1.356 . S
H1026 C1020 0.930 . S
H1027 C1024 0.930 . S
O1028 Li968 1.956 . S
O1028 Li969 1.970 . S
O1028 Li970 1.961 . S
O1028 C972 1.325 . S
O1029 Li968 1.970 . S
O1029 Li969 1.956 . S
O1029 Li971 1.961 . S
O1029 C978 1.325 . S
O1030 Li968 1.961 . S
O1030 Li970 1.956 . S
O1030 Li971 1.970 . S
O1030 C1000 1.325 . S
O1031 Li969 1.961 . S
O1031 Li970 1.970 . S
O1031 Li971 1.956 . S
O1031 C1006 1.325 . S
H1032 C974 0.929 . S
H1033 C975 0.930 . S
H1034 C976 0.930 . S
H1035 C977 0.930 . S
H1036 C979 0.930 . S
H1037 C981 0.929 . S
H1038 C982 0.930 . S
H1039 C983 0.930 . S
H1040 C986 0.930 . S
H1041 C989 0.929 . S
H1042 C994 0.929 . S
H1043 C995 0.930 . S
H1044 C1002 0.929 . S
H1045 C1003 0.930 . S
H1046 C1004 0.930 . S
H1047 C1005 0.930 . S
H1048 C1007 0.929 . S
H1049 C1008 0.930 . S
H1050 C1009 0.930 . S
H1051 C1010 0.930 . S
H1052 C1014 0.929 . S
H1053 C1016 0.930 . S
H1054 C1022 0.929 . S
H1055 C1023 0.930 . S
Li1056 N1073 1.990 . S
Li1056 O1116 1.956 1_565 S
Li1056 O1117 1.970 1_565 S
Li1056 O1118 1.961 1_565 S
Li1057 N1081 1.990 . S
Li1057 O1116 1.970 . S
Li1057 O1117 1.956 . S
Li1057 O1119 1.961 . S
Li1058 N1103 1.990 . S
Li1058 O1116 1.961 . S
Li1058 O1118 1.956 . S
Li1058 O1119 1.970 . S
Li1059 N1109 1.990 . S
Li1059 O1117 1.961 . S
Li1059 O1118 1.970 . S
Li1059 O1119 1.956 . S
C1060 C1062 1.348 . S
C1060 C1063 1.356 . S
C1060 O1116 1.325 1_565 S
N1061 C1064 1.314 . S
N1061 C1065 1.279 . S
C1062 C1060 1.348 . S
C1062 C1064 1.353 . S
C1062 H1120 0.929 . S
C1063 C1060 1.356 . S
C1063 C1065 1.358 . S
C1063 H1121 0.930 . S
C1064 N1061 1.314 . S
C1064 C1062 1.353 . S
C1064 H1122 0.930 . S
C1065 N1061 1.279 . S
C1065 C1063 1.358 . S
C1065 H1123 0.930 . S
C1066 C1069 1.348 1_545 S
C1066 C1070 1.356 . S
C1066 O1117 1.325 . S
C1067 N1068 1.279 1_545 S
C1067 C1070 1.358 . S
C1067 H1124 0.930 . S
N1068 C1067 1.279 1_565 S
N1068 C1071 1.314 . S
C1069 C1066 1.348 1_565 S
C1069 C1071 1.353 . S
C1069 H1125 0.929 . S
C1070 C1066 1.356 . S
C1070 C1067 1.358 . S
C1070 H1126 0.930 . S
C1071 N1068 1.314 . S
C1071 C1069 1.353 . S
C1071 H1127 0.930 . S
C1072 N1073 1.314 . S
C1072 C1077 1.353 . S
C1072 H1078 0.930 . S
N1073 Li1056 1.990 . S
N1073 C1072 1.314 . S
N1073 C1075 1.279 . S
C1074 C1075 1.358 . S
C1074 C1076 1.356 . S
C1074 H1128 0.930 . S
C1075 N1073 1.279 . S
C1075 C1074 1.358 . S
C1075 H1079 0.930 . S
C1076 C1074 1.356 . S
C1076 C1077 1.348 . S
C1077 C1072 1.353 . S
C1077 C1076 1.348 . S
C1077 H1129 0.929 . S
H1078 C1072 0.930 . S
H1079 C1075 0.930 . S
C1080 N1081 1.314 . S
C1080 C1082 1.353 . S
C1080 H1086 0.930 . S
N1081 Li1057 1.990 . S
N1081 C1080 1.314 . S
N1081 C1084 1.279 . S
C1082 C1080 1.353 . S
C1082 C1085 1.348 . S
C1082 H1130 0.929 . S
C1083 C1084 1.358 . S
C1083 C1085 1.356 . S
C1083 H1131 0.930 1_545 S
C1084 N1081 1.279 . S
C1084 C1083 1.358 . S
C1084 H1087 0.925 1_545 S
C1085 C1082 1.348 . S
C1085 C1083 1.356 . S
H1086 C1080 0.930 . S
H1087 C1084 0.925 1_565 S
C1088 C1090 1.348 . S
C1088 C1091 1.356 . S
C1088 O1118 1.325 . S
N1089 C1092 1.314 . S
N1089 C1093 1.279 . S
C1090 C1088 1.348 . S
C1090 C1092 1.353 . S
C1090 H1132 0.929 . S
C1091 C1088 1.356 . S
C1091 C1093 1.358 . S
C1091 H1133 0.930 . S
C1092 N1089 1.314 . S
C1092 C1090 1.353 . S
C1092 H1134 0.930 . S
C1093 N1089 1.279 . S
C1093 C1091 1.358 . S
C1093 H1135 0.930 . S
C1094 C1095 1.348 . S
C1094 C1096 1.356 . S
C1094 O1119 1.325 . S
C1095 C1094 1.348 . S
C1095 C1097 1.353 . S
C1095 H1136 0.929 . S
C1096 C1094 1.356 . S
C1096 C1098 1.358 . S
C1096 H1137 0.930 . S
C1097 C1095 1.353 . S
C1097 N1099 1.314 . S
C1097 H1138 0.930 . S
C1098 C1096 1.358 . S
C1098 N1099 1.279 . S
C1098 H1139 0.930 . S
N1099 C1097 1.314 . S
N1099 C1098 1.279 . S
C1100 C1102 1.353 . S
C1100 N1103 1.314 . S
C1100 H1106 0.930 . S
C1101 N1103 1.279 . S
C1101 C1104 1.358 . S
C1101 H1107 0.930 . S
C1102 C1100 1.353 . S
C1102 C1105 1.348 . S
C1102 H1140 0.929 . S
N1103 Li1058 1.990 . S
N1103 C1100 1.314 . S
N1103 C1101 1.279 . S
C1104 C1101 1.358 . S
C1104 C1105 1.356 . S
C1104 H1141 0.930 . S
C1105 C1102 1.348 . S
C1105 C1104 1.356 . S
H1106 C1100 0.930 . S
H1107 C1101 0.930 . S
C1108 N1109 1.314 . S
C1108 C1110 1.353 . S
C1108 H1114 0.930 . S
N1109 Li1059 1.990 . S
N1109 C1108 1.314 . S
N1109 C1112 1.279 . S
C1110 C1108 1.353 . S
C1110 C1113 1.348 . S
C1110 H1142 0.929 . S
C1111 C1112 1.358 . S
C1111 C1113 1.356 . S
C1111 H1143 0.930 . S
C1112 N1109 1.279 . S
C1112 C1111 1.358 . S
C1112 H1115 0.930 . S
C1113 C1110 1.348 . S
C1113 C1111 1.356 . S
H1114 C1108 0.930 . S
H1115 C1112 0.930 . S
O1116 Li1056 1.956 1_545 S
O1116 Li1057 1.970 . S
O1116 Li1058 1.961 . S
O1116 C1060 1.325 1_545 S
O1117 Li1056 1.970 1_545 S
O1117 Li1057 1.956 . S
O1117 Li1059 1.961 . S
O1117 C1066 1.325 . S
O1118 Li1056 1.961 1_545 S
O1118 Li1058 1.956 . S
O1118 Li1059 1.970 . S
O1118 C1088 1.325 . S
O1119 Li1057 1.961 . S
O1119 Li1058 1.970 . S
O1119 Li1059 1.956 . S
O1119 C1094 1.325 . S
H1120 C1062 0.929 . S
H1121 C1063 0.930 . S
H1122 C1064 0.930 . S
H1123 C1065 0.930 . S
H1124 C1067 0.930 . S
H1125 C1069 0.929 . S
H1126 C1070 0.930 . S
H1127 C1071 0.930 . S
H1128 C1074 0.930 . S
H1129 C1077 0.929 . S
H1130 C1082 0.929 . S
H1131 C1083 0.930 1_565 S
H1132 C1090 0.929 . S
H1133 C1091 0.930 . S
H1134 C1092 0.930 . S
H1135 C1093 0.930 . S
H1136 C1095 0.929 . S
H1137 C1096 0.930 . S
H1138 C1097 0.930 . S
H1139 C1098 0.930 . S
H1140 C1102 0.929 . S
H1141 C1104 0.930 . S
H1142 C1110 0.929 . S
H1143 C1111 0.930 . S
Li1144 N1161 1.990 . S
Li1144 O1204 1.956 1_455 S
Li1144 O1205 1.970 1_455 S
Li1144 O1206 1.961 1_455 S
Li1145 N1169 1.990 . S
Li1145 O1204 1.970 . S
Li1145 O1205 1.956 . S
Li1145 O1207 1.961 . S
Li1146 N1191 1.990 . S
Li1146 O1204 1.961 . S
Li1146 O1206 1.956 . S
Li1146 O1207 1.970 . S
Li1147 N1197 1.990 . S
Li1147 O1205 1.961 . S
Li1147 O1206 1.970 . S
Li1147 O1207 1.956 . S
C1148 C1150 1.348 . S
C1148 C1151 1.356 . S
C1148 O1204 1.325 1_455 S
N1149 C1152 1.314 . S
N1149 C1153 1.279 . S
C1150 C1148 1.348 . S
C1150 C1152 1.353 . S
C1150 H1208 0.929 . S
C1151 C1148 1.356 . S
C1151 C1153 1.358 . S
C1151 H1209 0.930 . S
C1152 N1149 1.314 . S
C1152 C1150 1.353 . S
C1152 H1210 0.930 . S
C1153 N1149 1.279 . S
C1153 C1151 1.358 . S
C1153 H1211 0.930 . S
C1154 C1157 1.348 1_655 S
C1154 C1158 1.356 . S
C1154 O1205 1.325 . S
C1155 N1156 1.279 1_655 S
C1155 C1158 1.358 . S
C1155 H1212 0.930 . S
N1156 C1155 1.279 1_455 S
N1156 C1159 1.314 . S
C1157 C1154 1.348 1_455 S
C1157 C1159 1.353 . S
C1157 H1213 0.929 . S
C1158 C1154 1.356 . S
C1158 C1155 1.358 . S
C1158 H1214 0.930 . S
C1159 N1156 1.314 . S
C1159 C1157 1.353 . S
C1159 H1215 0.930 . S
C1160 N1161 1.314 . S
C1160 C1165 1.353 . S
C1160 H1166 0.930 . S
N1161 Li1144 1.990 . S
N1161 C1160 1.314 . S
N1161 C1163 1.279 . S
C1162 C1163 1.358 . S
C1162 C1164 1.356 . S
C1162 H1216 0.930 . S
C1163 N1161 1.279 . S
C1163 C1162 1.358 . S
C1163 H1167 0.930 . S
C1164 C1162 1.356 . S
C1164 C1165 1.348 . S
C1165 C1160 1.353 . S
C1165 C1164 1.348 . S
C1165 H1217 0.929 . S
H1166 C1160 0.930 . S
H1167 C1163 0.930 . S
C1168 N1169 1.314 . S
C1168 C1170 1.353 . S
C1168 H1174 0.930 . S
N1169 Li1145 1.990 . S
N1169 C1168 1.314 . S
N1169 C1172 1.279 . S
C1170 C1168 1.353 . S
C1170 C1173 1.348 . S
C1170 H1218 0.929 . S
C1171 C1172 1.358 . S
C1171 C1173 1.356 . S
C1171 H1219 0.930 1_655 S
C1172 N1169 1.279 . S
C1172 C1171 1.358 . S
C1172 H1175 0.930 1_655 S
C1173 C1170 1.348 . S
C1173 C1171 1.356 . S
H1174 C1168 0.930 . S
H1175 C1172 0.930 1_455 S
C1176 C1178 1.348 . S
C1176 C1179 1.356 . S
C1176 O1206 1.325 . S
N1177 C1180 1.314 . S
N1177 C1181 1.279 . S
C1178 C1176 1.348 . S
C1178 C1180 1.353 . S
C1178 H1220 0.929 . S
C1179 C1176 1.356 . S
C1179 C1181 1.358 . S
C1179 H1221 0.935 . S
C1180 N1177 1.314 . S
C1180 C1178 1.353 . S
C1180 H1222 0.930 . S
C1181 N1177 1.279 . S
C1181 C1179 1.358 . S
C1181 H1223 0.930 . S
C1182 C1183 1.348 . S
C1182 C1184 1.356 . S
C1182 O1207 1.325 . S
C1183 C1182 1.348 . S
C1183 C1185 1.353 . S
C1183 H1224 0.929 . S
C1184 C1182 1.356 . S
C1184 C1186 1.358 . S
C1184 H1225 0.930 . S
C1185 C1183 1.353 . S
C1185 N1187 1.314 . S
C1185 H1226 0.930 . S
C1186 C1184 1.358 . S
C1186 N1187 1.279 . S
C1186 H1227 0.930 . S
N1187 C1185 1.314 . S
N1187 C1186 1.279 . S
C1188 C1190 1.353 . S
C1188 N1191 1.314 . S
C1188 H1194 0.930 . S
C1189 N1191 1.279 . S
C1189 C1192 1.358 . S
C1189 H1195 0.930 . S
C1190 C1188 1.353 . S
C1190 C1193 1.348 . S
C1190 H1228 0.929 . S
N1191 Li1146 1.990 . S
N1191 C1188 1.314 . S
N1191 C1189 1.279 . S
C1192 C1189 1.358 . S
C1192 C1193 1.356 . S
C1192 H1229 0.930 . S
C1193 C1190 1.348 . S
C1193 C1192 1.356 . S
H1194 C1188 0.930 . S
H1195 C1189 0.930 . S
C1196 N1197 1.314 . S
C1196 C1198 1.353 . S
C1196 H1202 0.930 . S
N1197 Li1147 1.990 . S
N1197 C1196 1.314 . S
N1197 C1200 1.279 . S
C1198 C1196 1.353 . S
C1198 C1201 1.348 . S
C1198 H1230 0.929 . S
C1199 C1200 1.358 . S
C1199 C1201 1.356 . S
C1199 H1231 0.930 . S
C1200 N1197 1.279 . S
C1200 C1199 1.358 . S
C1200 H1203 0.930 . S
C1201 C1198 1.348 . S
C1201 C1199 1.356 . S
H1202 C1196 0.930 . S
H1203 C1200 0.930 . S
O1204 Li1144 1.956 1_655 S
O1204 Li1145 1.970 . S
O1204 Li1146 1.961 . S
O1204 C1148 1.325 1_655 S
O1205 Li1144 1.970 1_655 S
O1205 Li1145 1.956 . S
O1205 Li1147 1.961 . S
O1205 C1154 1.325 . S
O1206 Li1144 1.961 1_655 S
O1206 Li1146 1.956 . S
O1206 Li1147 1.970 . S
O1206 C1176 1.325 . S
O1207 Li1145 1.961 . S
O1207 Li1146 1.970 . S
O1207 Li1147 1.956 . S
O1207 C1182 1.325 . S
H1208 C1150 0.929 . S
H1209 C1151 0.930 . S
H1210 C1152 0.930 . S
H1211 C1153 0.930 . S
H1212 C1155 0.930 . S
H1213 C1157 0.929 . S
H1214 C1158 0.930 . S
H1215 C1159 0.930 . S
H1216 C1162 0.930 . S
H1217 C1165 0.929 . S
H1218 C1170 0.929 . S
H1219 C1171 0.930 1_455 S
H1220 C1178 0.929 . S
H1221 C1179 0.935 . S
H1222 C1180 0.930 . S
H1223 C1181 0.930 . S
H1224 C1183 0.929 . S
H1225 C1184 0.930 . S
H1226 C1185 0.930 . S
H1227 C1186 0.930 . S
H1228 C1190 0.929 . S
H1229 C1192 0.930 . S
H1230 C1198 0.929 . S
H1231 C1199 0.930 . S
Li1232 N1249 1.990 . S
Li1232 O1292 1.956 . S
Li1232 O1293 1.970 . S
Li1232 O1294 1.961 . S
Li1233 N1257 1.990 . S
Li1233 O1292 1.970 . S
Li1233 O1293 1.956 . S
Li1233 O1295 1.961 . S
Li1234 N1279 1.990 . S
Li1234 O1292 1.961 . S
Li1234 O1294 1.956 . S
Li1234 O1295 1.970 . S
Li1235 N1285 1.990 . S
Li1235 O1293 1.961 . S
Li1235 O1294 1.970 . S
Li1235 O1295 1.956 . S
C1236 C1238 1.348 . S
C1236 C1239 1.356 . S
C1236 O1292 1.325 . S
N1237 C1240 1.314 . S
N1237 C1241 1.279 . S
C1238 C1236 1.348 . S
C1238 C1240 1.353 . S
C1238 H1296 0.929 . S
C1239 C1236 1.356 . S
C1239 C1241 1.358 . S
C1239 H1297 0.930 . S
C1240 N1237 1.314 . S
C1240 C1238 1.353 . S
C1240 H1298 0.930 . S
C1241 N1237 1.279 . S
C1241 C1239 1.358 . S
C1241 H1299 0.930 . S
C1242 C1245 1.348 . S
C1242 C1246 1.356 . S
C1242 O1293 1.325 . S
C1243 N1244 1.279 . S
C1243 C1246 1.358 . S
C1243 H1300 0.930 . S
N1244 C1243 1.279 . S
N1244 C1247 1.314 . S
C1245 C1242 1.348 . S
C1245 C1247 1.353 . S
C1245 H1301 0.929 . S
C1246 C1242 1.356 . S
C1246 C1243 1.358 . S
C1246 H1302 0.930 . S
C1247 N1244 1.314 . S
C1247 C1245 1.353 . S
C1247 H1303 0.930 . S
C1248 N1249 1.314 . S
C1248 C1253 1.353 . S
C1248 H1254 0.930 . S
N1249 Li1232 1.990 . S
N1249 C1248 1.314 . S
N1249 C1251 1.279 . S
C1250 C1251 1.358 . S
C1250 C1252 1.356 . S
C1250 H1304 0.930 . S
C1251 N1249 1.279 . S
C1251 C1250 1.358 . S
C1251 H1255 0.930 . S
C1252 C1250 1.356 . S
C1252 C1253 1.348 . S
C1253 C1248 1.353 . S
C1253 C1252 1.348 . S
C1253 H1305 0.929 . S
H1254 C1248 0.930 . S
H1255 C1251 0.930 . S
C1256 N1257 1.314 . S
C1256 C1258 1.353 . S
C1256 H1262 0.930 . S
N1257 Li1233 1.990 . S
N1257 C1256 1.314 . S
N1257 C1260 1.279 . S
C1258 C1256 1.353 . S
C1258 C1261 1.348 . S
C1258 H1306 0.929 . S
C1259 C1260 1.358 . S
C1259 C1261 1.356 . S
C1259 H1307 0.930 . S
C1260 N1257 1.279 . S
C1260 C1259 1.358 . S
C1260 H1263 0.930 . S
C1261 C1258 1.348 . S
C1261 C1259 1.356 . S
H1262 C1256 0.930 . S
H1263 C1260 0.930 . S
C1264 C1266 1.348 . S
C1264 C1267 1.356 . S
C1264 O1294 1.325 . S
N1265 C1268 1.314 . S
N1265 C1269 1.279 . S
C1266 C1264 1.348 . S
C1266 C1268 1.353 . S
C1266 H1308 0.929 . S
C1267 C1264 1.356 . S
C1267 C1269 1.358 . S
C1267 H1309 0.930 . S
C1268 N1265 1.314 . S
C1268 C1266 1.353 . S
C1268 H1310 0.930 . S
C1269 N1265 1.279 . S
C1269 C1267 1.358 . S
C1269 H1311 0.930 . S
C1270 C1271 1.348 . S
C1270 C1272 1.356 . S
C1270 O1295 1.325 . S
C1271 C1270 1.348 . S
C1271 C1273 1.353 . S
C1271 H1312 0.929 . S
C1272 C1270 1.356 . S
C1272 C1274 1.358 . S
C1272 H1313 0.930 . S
C1273 C1271 1.353 . S
C1273 N1275 1.314 . S
C1273 H1314 0.930 . S
C1274 C1272 1.358 . S
C1274 N1275 1.279 . S
C1274 H1315 0.930 . S
N1275 C1273 1.314 . S
N1275 C1274 1.279 . S
C1276 C1278 1.353 . S
C1276 N1279 1.314 . S
C1276 H1282 0.930 . S
C1277 N1279 1.279 . S
C1277 C1280 1.358 . S
C1277 H1283 0.930 . S
C1278 C1276 1.353 . S
C1278 C1281 1.348 . S
C1278 H1316 0.929 . S
N1279 Li1234 1.990 . S
N1279 C1276 1.314 . S
N1279 C1277 1.279 . S
C1280 C1277 1.358 . S
C1280 C1281 1.356 . S
C1280 H1317 0.930 . S
C1281 C1278 1.348 . S
C1281 C1280 1.356 . S
H1282 C1276 0.930 . S
H1283 C1277 0.930 . S
C1284 N1285 1.314 . S
C1284 C1286 1.353 . S
C1284 H1290 0.930 . S
N1285 Li1235 1.990 . S
N1285 C1284 1.314 . S
N1285 C1288 1.279 . S
C1286 C1284 1.353 . S
C1286 C1289 1.348 . S
C1286 H1318 0.929 . S
C1287 C1288 1.358 . S
C1287 C1289 1.356 . S
C1287 H1319 0.930 . S
C1288 N1285 1.279 . S
C1288 C1287 1.358 . S
C1288 H1291 0.930 . S
C1289 C1286 1.348 . S
C1289 C1287 1.356 . S
H1290 C1284 0.930 . S
H1291 C1288 0.930 . S
O1292 Li1232 1.956 . S
O1292 Li1233 1.970 . S
O1292 Li1234 1.961 . S
O1292 C1236 1.325 . S
O1293 Li1232 1.970 . S
O1293 Li1233 1.956 . S
O1293 Li1235 1.961 . S
O1293 C1242 1.325 . S
O1294 Li1232 1.961 . S
O1294 Li1234 1.956 . S
O1294 Li1235 1.970 . S
O1294 C1264 1.325 . S
O1295 Li1233 1.961 . S
O1295 Li1234 1.970 . S
O1295 Li1235 1.956 . S
O1295 C1270 1.325 . S
H1296 C1238 0.929 . S
H1297 C1239 0.930 . S
H1298 C1240 0.930 . S
H1299 C1241 0.930 . S
H1300 C1243 0.930 . S
H1301 C1245 0.929 . S
H1302 C1246 0.930 . S
H1303 C1247 0.930 . S
H1304 C1250 0.930 . S
H1305 C1253 0.929 . S
H1306 C1258 0.929 . S
H1307 C1259 0.930 . S
H1308 C1266 0.929 . S
H1309 C1267 0.930 . S
H1310 C1268 0.930 . S
H1311 C1269 0.930 . S
H1312 C1271 0.929 . S
H1313 C1272 0.930 . S
H1314 C1273 0.930 . S
H1315 C1274 0.930 . S
H1316 C1278 0.929 . S
H1317 C1280 0.930 . S
H1318 C1286 0.929 . S
H1319 C1287 0.930 . S
Li1320 N1337 1.990 . S
Li1320 O1380 1.956 . S
Li1320 O1381 1.970 . S
Li1320 O1382 1.961 . S
Li1321 N1345 1.990 . S
Li1321 O1380 1.970 . S
Li1321 O1381 1.956 . S
Li1321 O1383 1.961 . S
Li1322 N1367 1.990 . S
Li1322 O1380 1.961 . S
Li1322 O1382 1.956 . S
Li1322 O1383 1.970 . S
Li1323 N1373 1.990 . S
Li1323 O1381 1.961 . S
Li1323 O1382 1.970 . S
Li1323 O1383 1.956 . S
C1324 C1326 1.348 . S
C1324 C1327 1.356 . S
C1324 O1380 1.325 . S
N1325 C1328 1.314 . S
N1325 C1329 1.279 . S
C1326 C1324 1.348 . S
C1326 C1328 1.353 . S
C1326 H1384 0.929 . S
C1327 C1324 1.356 . S
C1327 C1329 1.358 . S
C1327 H1385 0.930 . S
C1328 N1325 1.314 . S
C1328 C1326 1.353 . S
C1328 H1386 0.930 . S
C1329 N1325 1.279 . S
C1329 C1327 1.358 . S
C1329 H1387 0.930 . S
C1330 C1333 1.348 . S
C1330 C1334 1.356 . S
C1330 O1381 1.325 . S
C1331 N1332 1.279 . S
C1331 C1334 1.358 . S
C1331 H1388 0.930 . S
N1332 C1331 1.279 . S
N1332 C1335 1.314 . S
C1333 C1330 1.348 . S
C1333 C1335 1.353 . S
C1333 H1389 0.929 . S
C1334 C1330 1.356 . S
C1334 C1331 1.358 . S
C1334 H1390 0.930 . S
C1335 N1332 1.314 . S
C1335 C1333 1.353 . S
C1335 H1391 0.930 . S
C1336 N1337 1.314 . S
C1336 C1341 1.353 . S
C1336 H1342 0.930 . S
N1337 Li1320 1.990 . S
N1337 C1336 1.314 . S
N1337 C1339 1.279 . S
C1338 C1339 1.358 . S
C1338 C1340 1.356 . S
C1338 H1392 0.930 . S
C1339 N1337 1.279 . S
C1339 C1338 1.358 . S
C1339 H1343 0.930 . S
C1340 C1338 1.356 . S
C1340 C1341 1.348 . S
C1341 C1336 1.353 . S
C1341 C1340 1.348 . S
C1341 H1393 0.929 . S
H1342 C1336 0.930 . S
H1343 C1339 0.930 . S
C1344 N1345 1.314 . S
C1344 C1346 1.353 . S
C1344 H1350 0.930 . S
N1345 Li1321 1.990 . S
N1345 C1344 1.314 . S
N1345 C1348 1.279 . S
C1346 C1344 1.353 . S
C1346 C1349 1.348 . S
C1346 H1394 0.929 . S
C1347 C1348 1.358 . S
C1347 C1349 1.356 . S
C1347 H1395 0.930 . S
C1348 N1345 1.279 . S
C1348 C1347 1.358 . S
C1348 H1351 0.930 . S
C1349 C1346 1.348 . S
C1349 C1347 1.356 . S
H1350 C1344 0.930 . S
H1351 C1348 0.930 . S
C1352 C1354 1.348 . S
C1352 C1355 1.356 . S
C1352 O1382 1.325 . S
N1353 C1356 1.314 . S
N1353 C1357 1.279 . S
C1354 C1352 1.348 . S
C1354 C1356 1.353 . S
C1354 H1396 0.929 . S
C1355 C1352 1.356 . S
C1355 C1357 1.358 . S
C1355 H1397 0.930 . S
C1356 N1353 1.314 . S
C1356 C1354 1.353 . S
C1356 H1398 0.930 . S
C1357 N1353 1.279 . S
C1357 C1355 1.358 . S
C1357 H1399 0.930 . S
C1358 C1359 1.348 . S
C1358 C1360 1.356 . S
C1358 O1383 1.325 . S
C1359 C1358 1.348 . S
C1359 C1361 1.353 . S
C1359 H1400 0.929 . S
C1360 C1358 1.356 . S
C1360 C1362 1.358 . S
C1360 H1401 0.930 . S
C1361 C1359 1.353 . S
C1361 N1363 1.314 . S
C1361 H1402 0.930 . S
C1362 C1360 1.358 . S
C1362 N1363 1.279 . S
C1362 H1403 0.930 . S
N1363 C1361 1.314 . S
N1363 C1362 1.279 . S
C1364 C1366 1.353 . S
C1364 N1367 1.314 . S
C1364 H1370 0.930 . S
C1365 N1367 1.279 . S
C1365 C1368 1.358 . S
C1365 H1371 0.930 . S
C1366 C1364 1.353 . S
C1366 C1369 1.348 . S
C1366 H1404 0.929 . S
N1367 Li1322 1.990 . S
N1367 C1364 1.314 . S
N1367 C1365 1.279 . S
C1368 C1365 1.358 . S
C1368 C1369 1.356 . S
C1368 H1405 0.930 . S
C1369 C1366 1.348 . S
C1369 C1368 1.356 . S
H1370 C1364 0.930 . S
H1371 C1365 0.930 . S
C1372 N1373 1.314 . S
C1372 C1374 1.353 . S
C1372 H1378 0.930 . S
N1373 Li1323 1.990 . S
N1373 C1372 1.314 . S
N1373 C1376 1.279 . S
C1374 C1372 1.353 . S
C1374 C1377 1.348 . S
C1374 H1406 0.929 . S
C1375 C1376 1.358 . S
C1375 C1377 1.356 . S
C1375 H1407 0.930 . S
C1376 N1373 1.279 . S
C1376 C1375 1.358 . S
C1376 H1379 0.930 . S
C1377 C1374 1.348 . S
C1377 C1375 1.356 . S
H1378 C1372 0.930 . S
H1379 C1376 0.930 . S
O1380 Li1320 1.956 . S
O1380 Li1321 1.970 . S
O1380 Li1322 1.961 . S
O1380 C1324 1.325 . S
O1381 Li1320 1.970 . S
O1381 Li1321 1.956 . S
O1381 Li1323 1.961 . S
O1381 C1330 1.325 . S
O1382 Li1320 1.961 . S
O1382 Li1322 1.956 . S
O1382 Li1323 1.970 . S
O1382 C1352 1.325 . S
O1383 Li1321 1.961 . S
O1383 Li1322 1.970 . S
O1383 Li1323 1.956 . S
O1383 C1358 1.325 . S
H1384 C1326 0.929 . S
H1385 C1327 0.930 . S
H1386 C1328 0.930 . S
H1387 C1329 0.930 . S
H1388 C1331 0.930 . S
H1389 C1333 0.929 . S
H1390 C1334 0.930 . S
H1391 C1335 0.930 . S
H1392 C1338 0.930 . S
H1393 C1341 0.929 . S
H1394 C1346 0.929 . S
H1395 C1347 0.930 . S
H1396 C1354 0.929 . S
H1397 C1355 0.930 . S
H1398 C1356 0.930 . S
H1399 C1357 0.930 . S
H1400 C1359 0.929 . S
H1401 C1360 0.930 . S
H1402 C1361 0.930 . S
H1403 C1362 0.930 . S
H1404 C1366 0.929 . S
H1405 C1368 0.930 . S
H1406 C1374 0.929 . S
H1407 C1375 0.930 . S
Li1408 N1425 1.990 . S
Li1408 O1468 1.956 . S
Li1408 O1469 1.970 . S
Li1408 O1470 1.961 . S
Li1409 N1433 1.990 . S
Li1409 O1468 1.970 . S
Li1409 O1469 1.956 . S
Li1409 O1471 1.961 . S
Li1410 N1455 1.990 . S
Li1410 O1468 1.961 . S
Li1410 O1470 1.956 . S
Li1410 O1471 1.970 . S
Li1411 N1461 1.990 . S
Li1411 O1469 1.961 1_565 S
Li1411 O1470 1.970 1_565 S
Li1411 O1471 1.956 1_565 S
C1412 C1414 1.348 . S
C1412 C1415 1.356 . S
C1412 O1468 1.325 . S
N1413 C1416 1.314 . S
N1413 C1417 1.279 . S
C1414 C1412 1.348 . S
C1414 C1416 1.353 . S
C1414 H1472 0.929 . S
C1415 C1412 1.356 . S
C1415 C1417 1.358 . S
C1415 H1473 0.930 . S
C1416 N1413 1.314 . S
C1416 C1414 1.353 . S
C1416 H1474 0.930 . S
C1417 N1413 1.279 . S
C1417 C1415 1.358 . S
C1417 H1475 0.930 . S
C1418 C1421 1.348 . S
C1418 C1422 1.356 . S
C1418 O1469 1.325 1_565 S
C1419 N1420 1.279 . S
C1419 C1422 1.358 . S
C1419 H1476 0.930 . S
N1420 C1419 1.279 . S
N1420 C1423 1.314 . S
C1421 C1418 1.348 . S
C1421 C1423 1.353 . S
C1421 H1477 0.944 . S
C1422 C1418 1.356 . S
C1422 C1419 1.358 . S
C1422 H1478 0.930 . S
C1423 N1420 1.314 . S
C1423 C1421 1.353 . S
C1423 H1479 0.930 . S
C1424 N1425 1.314 . S
C1424 C1429 1.353 1_545 S
C1424 H1430 0.930 1_545 S
N1425 Li1408 1.990 . S
N1425 C1424 1.314 . S
N1425 C1427 1.279 . S
C1426 C1427 1.358 . S
C1426 C1428 1.356 . S
C1426 H1480 0.930 . S
C1427 N1425 1.279 . S
C1427 C1426 1.358 . S
C1427 H1431 0.930 . S
C1428 C1426 1.356 . S
C1428 C1429 1.348 1_545 S
C1429 C1424 1.353 1_565 S
C1429 C1428 1.348 1_565 S
C1429 H1481 0.929 . S
H1430 C1424 0.930 1_565 S
H1431 C1427 0.930 . S
C1432 N1433 1.314 . S
C1432 C1434 1.353 . S
C1432 H1438 0.930 . S
N1433 Li1409 1.990 . S
N1433 C1432 1.314 . S
N1433 C1436 1.279 . S
C1434 C1432 1.353 . S
C1434 C1437 1.348 . S
C1434 H1482 0.929 . S
C1435 C1436 1.358 . S
C1435 C1437 1.356 . S
C1435 H1483 0.930 . S
C1436 N1433 1.279 . S
C1436 C1435 1.358 . S
C1436 H1439 0.930 . S
C1437 C1434 1.348 . S
C1437 C1435 1.356 . S
H1438 C1432 0.930 . S
H1439 C1436 0.930 . S
C1440 C1442 1.348 1_545 S
C1440 C1443 1.356 . S
C1440 O1470 1.325 . S
N1441 C1444 1.314 . S
N1441 C1445 1.279 1_565 S
C1442 C1440 1.348 1_565 S
C1442 C1444 1.353 . S
C1442 H1484 0.929 . S
C1443 C1440 1.356 . S
C1443 C1445 1.358 . S
C1443 H1485 0.930 . S
C1444 N1441 1.314 . S
C1444 C1442 1.353 . S
C1444 H1486 0.930 . S
C1445 N1441 1.279 1_545 S
C1445 C1443 1.358 . S
C1445 H1487 0.930 . S
C1446 C1447 1.348 . S
C1446 C1448 1.356 . S
C1446 O1471 1.325 . S
C1447 C1446 1.348 . S
C1447 C1449 1.353 . S
C1447 H1488 0.929 . S
C1448 C1446 1.356 . S
C1448 C1450 1.358 . S
C1448 H1489 0.930 . S
C1449 C1447 1.353 . S
C1449 N1451 1.314 . S
C1449 H1490 0.930 . S
C1450 C1448 1.358 . S
C1450 N1451 1.279 . S
C1450 H1491 0.930 . S
N1451 C1449 1.314 . S
N1451 C1450 1.279 . S
C1452 C1454 1.353 . S
C1452 N1455 1.314 . S
C1452 H1458 0.930 . S
C1453 N1455 1.279 . S
C1453 C1456 1.358 . S
C1453 H1459 0.930 . S
C1454 C1452 1.353 . S
C1454 C1457 1.348 . S
C1454 H1492 0.929 . S
N1455 Li1410 1.990 . S
N1455 C1452 1.314 . S
N1455 C1453 1.279 . S
C1456 C1453 1.358 . S
C1456 C1457 1.356 . S
C1456 H1493 0.930 . S
C1457 C1454 1.348 . S
C1457 C1456 1.356 . S
H1458 C1452 0.930 . S
H1459 C1453 0.930 . S
C1460 N1461 1.314 . S
C1460 C1462 1.353 . S
C1460 H1466 0.930 . S
N1461 Li1411 1.990 . S
N1461 C1460 1.314 . S
N1461 C1464 1.279 . S
C1462 C1460 1.353 . S
C1462 C1465 1.348 . S
C1462 H1494 0.929 . S
C1463 C1464 1.358 . S
C1463 C1465 1.356 . S
C1463 H1495 0.930 . S
C1464 N1461 1.279 . S
C1464 C1463 1.358 . S
C1464 H1467 0.930 . S
C1465 C1462 1.348 . S
C1465 C1463 1.356 . S
H1466 C1460 0.930 . S
H1467 C1464 0.930 . S
O1468 Li1408 1.956 . S
O1468 Li1409 1.970 . S
O1468 Li1410 1.961 . S
O1468 C1412 1.325 . S
O1469 Li1408 1.970 . S
O1469 Li1409 1.956 . S
O1469 Li1411 1.961 1_545 S
O1469 C1418 1.325 1_545 S
O1470 Li1408 1.961 . S
O1470 Li1410 1.956 . S
O1470 Li1411 1.970 1_545 S
O1470 C1440 1.325 . S
O1471 Li1409 1.961 . S
O1471 Li1410 1.970 . S
O1471 Li1411 1.956 1_545 S
O1471 C1446 1.325 . S
H1472 C1414 0.929 . S
H1473 C1415 0.930 . S
H1474 C1416 0.930 . S
H1475 C1417 0.930 . S
H1476 C1419 0.930 . S
H1477 C1421 0.944 . S
H1478 C1422 0.930 . S
H1479 C1423 0.930 . S
H1480 C1426 0.930 . S
H1481 C1429 0.929 . S
H1482 C1434 0.929 . S
H1483 C1435 0.930 . S
H1484 C1442 0.929 . S
H1485 C1443 0.930 . S
H1486 C1444 0.930 . S
H1487 C1445 0.930 . S
H1488 C1447 0.929 . S
H1489 C1448 0.930 . S
H1490 C1449 0.930 . S
H1491 C1450 0.930 . S
H1492 C1454 0.929 . S
H1493 C1456 0.930 . S
H1494 C1462 0.929 . S
H1495 C1463 0.930 . S
Li1496 N1513 1.990 . S
Li1496 O1556 1.956 . S
Li1496 O1557 1.970 . S
Li1496 O1558 1.961 . S
Li1497 N1521 1.990 . S
Li1497 O1556 1.970 . S
Li1497 O1557 1.956 . S
Li1497 O1559 1.961 . S
Li1498 N1543 1.990 . S
Li1498 O1556 1.961 1_455 S
Li1498 O1558 1.956 1_455 S
Li1498 O1559 1.970 1_455 S
Li1499 N1549 1.990 . S
Li1499 O1557 1.961 . S
Li1499 O1558 1.970 . S
Li1499 O1559 1.956 . S
C1500 C1502 1.348 . S
C1500 C1503 1.356 . S
C1500 O1556 1.325 1_455 S
N1501 C1504 1.314 . S
N1501 C1505 1.279 . S
C1502 C1500 1.348 . S
C1502 C1504 1.353 . S
C1502 H1560 0.929 . S
C1503 C1500 1.356 . S
C1503 C1505 1.358 . S
C1503 H1561 0.930 . S
C1504 N1501 1.314 . S
C1504 C1502 1.353 . S
C1504 H1562 0.930 . S
C1505 N1501 1.279 . S
C1505 C1503 1.358 . S
C1505 H1563 0.930 . S
C1506 C1509 1.348 . S
C1506 C1510 1.356 . S
C1506 O1557 1.325 . S
C1507 N1508 1.279 . S
C1507 C1510 1.358 . S
C1507 H1564 0.930 . S
N1508 C1507 1.279 . S
N1508 C1511 1.314 . S
C1509 C1506 1.348 . S
C1509 C1511 1.353 . S
C1509 H1565 0.929 . S
C1510 C1506 1.356 . S
C1510 C1507 1.358 . S
C1510 H1566 0.930 . S
C1511 N1508 1.314 . S
C1511 C1509 1.353 . S
C1511 H1567 0.930 . S
C1512 N1513 1.314 . S
C1512 C1517 1.353 . S
C1512 H1518 0.930 . S
N1513 Li1496 1.990 . S
N1513 C1512 1.314 . S
N1513 C1515 1.279 . S
C1514 C1515 1.358 . S
C1514 C1516 1.356 . S
C1514 H1568 0.930 . S
C1515 N1513 1.279 . S
C1515 C1514 1.358 . S
C1515 H1519 0.930 . S
C1516 C1514 1.356 . S
C1516 C1517 1.348 . S
C1517 C1512 1.353 . S
C1517 C1516 1.348 . S
C1517 H1569 0.929 . S
H1518 C1512 0.930 . S
H1519 C1515 0.930 . S
C1520 N1521 1.314 . S
C1520 C1522 1.313 1_655 S
C1520 H1526 0.930 1_655 S
N1521 Li1497 1.990 . S
N1521 C1520 1.314 . S
N1521 C1524 1.279 . S
C1522 C1520 1.313 1_455 S
C1522 C1525 1.326 1_455 S
C1522 H1570 0.994 . S
C1523 C1524 1.358 . S
C1523 C1525 1.356 . S
C1523 H1571 0.930 . S
C1524 N1521 1.279 . S
C1524 C1523 1.358 . S
C1524 H1527 0.930 . S
C1525 C1522 1.326 1_655 S
C1525 C1523 1.356 . S
H1526 C1520 0.930 1_455 S
H1527 C1524 0.930 . S
C1528 C1530 1.348 . S
C1528 C1531 1.356 . S
C1528 O1558 1.325 . S
N1529 C1532 1.314 . S
N1529 C1533 1.279 . S
C1530 C1528 1.348 . S
C1530 C1532 1.353 . S
C1530 H1572 0.929 . S
C1531 C1528 1.356 . S
C1531 C1533 1.358 . S
C1531 H1573 0.930 . S
C1532 N1529 1.314 . S
C1532 C1530 1.353 . S
C1532 H1574 0.930 . S
C1533 N1529 1.279 . S
C1533 C1531 1.358 . S
C1533 H1575 0.930 . S
C1534 C1535 1.348 1_655 S
C1534 C1536 1.356 . S
C1534 O1559 1.325 . S
C1535 C1534 1.348 1_455 S
C1535 C1537 1.353 . S
C1535 H1576 0.929 . S
C1536 C1534 1.356 . S
C1536 C1538 1.358 . S
C1536 H1577 0.930 . S
C1537 C1535 1.353 . S
C1537 N1539 1.314 . S
C1537 H1578 0.930 . S
C1538 C1536 1.358 . S
C1538 N1539 1.279 1_655 S
C1538 H1579 0.930 . S
N1539 C1537 1.314 . S
N1539 C1538 1.279 1_455 S
C1540 C1542 1.353 . S
C1540 N1543 1.314 . S
C1540 H1546 0.930 . S
C1541 N1543 1.279 . S
C1541 C1544 1.358 . S
C1541 H1547 0.930 . S
C1542 C1540 1.353 . S
C1542 C1545 1.348 . S
C1542 H1580 0.929 . S
N1543 Li1498 1.990 . S
N1543 C1540 1.314 . S
N1543 C1541 1.279 . S
C1544 C1541 1.358 . S
C1544 C1545 1.356 . S
C1544 H1581 0.930 . S
C1545 C1542 1.348 . S
C1545 C1544 1.356 . S
H1546 C1540 0.930 . S
H1547 C1541 0.930 . S
C1548 N1549 1.314 . S
C1548 C1550 1.353 . S
C1548 H1554 0.930 . S
N1549 Li1499 1.990 . S
N1549 C1548 1.314 . S
N1549 C1552 1.279 . S
C1550 C1548 1.353 . S
C1550 C1553 1.348 . S
C1550 H1582 0.929 . S
C1551 C1552 1.358 . S
C1551 C1553 1.356 . S
C1551 H1583 0.930 . S
C1552 N1549 1.279 . S
C1552 C1551 1.358 . S
C1552 H1555 0.930 . S
C1553 C1550 1.348 . S
C1553 C1551 1.356 . S
H1554 C1548 0.930 . S
H1555 C1552 0.930 . S
O1556 Li1496 1.956 . S
O1556 Li1497 1.970 . S
O1556 Li1498 1.961 1_655 S
O1556 C1500 1.325 1_655 S
O1557 Li1496 1.970 . S
O1557 Li1497 1.956 . S
O1557 Li1499 1.961 . S
O1557 C1506 1.325 . S
O1558 Li1496 1.961 . S
O1558 Li1498 1.956 1_655 S
O1558 Li1499 1.970 . S
O1558 C1528 1.325 . S
O1559 Li1497 1.961 . S
O1559 Li1498 1.970 1_655 S
O1559 Li1499 1.956 . S
O1559 C1534 1.325 . S
H1560 C1502 0.929 . S
H1561 C1503 0.930 . S
H1562 C1504 0.930 . S
H1563 C1505 0.930 . S
H1564 C1507 0.930 . S
H1565 C1509 0.929 . S
H1566 C1510 0.930 . S
H1567 C1511 0.930 . S
H1568 C1514 0.930 . S
H1569 C1517 0.929 . S
H1570 C1522 0.994 . S
H1571 C1523 0.930 . S
H1572 C1530 0.929 . S
H1573 C1531 0.930 . S
H1574 C1532 0.930 . S
H1575 C1533 0.930 . S
H1576 C1535 0.929 . S
H1577 C1536 0.930 . S
H1578 C1537 0.930 . S
H1579 C1538 0.930 . S
H1580 C1542 0.929 . S
H1581 C1544 0.930 . S
H1582 C1550 0.929 . S
H1583 C1551 0.930 . S
H1584 C1590 0.930 . S
H1585 C1593 0.931 . S
H1586 C1595 0.931 . S
H1587 C1597 0.930 . S
H1588 C1599 0.930 . S
H1589 C1601 0.931 . S
C1590 H1584 0.930 . S
C1590 C1591 1.380 . S
C1590 C1592 1.394 . S
C1591 C1590 1.380 . S
C1591 C1595 1.382 . S
C1592 C1590 1.394 . S
C1592 C1593 1.400 . S
C1593 H1585 0.931 . S
C1593 C1592 1.400 . S
C1593 C1594 1.375 . S
C1594 C1593 1.375 . S
C1594 C1595 1.415 . S
C1594 C1596 1.501 . S
C1595 H1586 0.931 . S
C1595 C1591 1.382 . S
C1595 C1594 1.415 . S
C1596 C1594 1.501 . S
C1596 C1597 1.384 . S
C1596 C1601 1.408 . S
C1597 H1587 0.930 . S
C1597 C1596 1.384 . S
C1597 C1598 1.389 . S
C1598 C1597 1.389 . S
C1598 C1599 1.405 . S
C1599 H1588 0.930 . S
C1599 C1598 1.405 . S
C1599 C1600 1.364 . S
C1600 C1599 1.364 . S
C1600 C1601 1.400 . S
C1601 H1589 0.931 . S
C1601 C1596 1.408 . S
C1601 C1600 1.400 . S
H1602 C1608 0.930 . S
H1603 C1611 0.931 . S
H1604 C1613 0.931 . S
H1605 C1615 0.930 . S
H1606 C1617 0.930 . S
H1607 C1619 0.931 . S
C1608 H1602 0.930 . S
C1608 C1609 1.380 . S
C1608 C1610 1.394 . S
C1609 C1608 1.380 . S
C1609 C1613 1.382 . S
C1610 C1608 1.394 . S
C1610 C1611 1.400 . S
C1611 H1603 0.931 . S
C1611 C1610 1.400 . S
C1611 C1612 1.375 . S
C1612 C1611 1.375 . S
C1612 C1613 1.415 . S
C1612 C1614 1.501 . S
C1613 H1604 0.931 . S
C1613 C1609 1.382 . S
C1613 C1612 1.415 . S
C1614 C1612 1.501 . S
C1614 C1615 1.384 . S
C1614 C1619 1.408 . S
C1615 H1605 0.930 . S
C1615 C1614 1.384 . S
C1615 C1616 1.389 . S
C1616 C1615 1.389 . S
C1616 C1617 1.405 . S
C1617 H1606 0.930 . S
C1617 C1616 1.405 . S
C1617 C1618 1.364 . S
C1618 C1617 1.364 . S
C1618 C1619 1.400 . S
C1619 H1607 0.931 . S
C1619 C1614 1.408 . S
C1619 C1618 1.400 . S
H1620 C1626 0.930 . S
H1621 C1629 0.931 . S
H1622 C1631 0.931 . S
H1623 C1633 0.930 . S
H1624 C1635 0.930 . S
H1625 C1637 0.931 . S
C1626 H1620 0.930 . S
C1626 C1627 1.380 . S
C1626 C1628 1.394 . S
C1627 C1626 1.380 . S
C1627 C1631 1.382 . S
C1628 C1626 1.394 . S
C1628 C1629 1.400 . S
C1629 H1621 0.931 . S
C1629 C1628 1.400 . S
C1629 C1630 1.375 . S
C1630 C1629 1.375 . S
C1630 C1631 1.415 . S
C1630 C1632 1.501 . S
C1631 H1622 0.931 . S
C1631 C1627 1.382 . S
C1631 C1630 1.415 . S
C1632 C1630 1.501 . S
C1632 C1633 1.384 . S
C1632 C1637 1.408 . S
C1633 H1623 0.930 . S
C1633 C1632 1.384 . S
C1633 C1634 1.389 . S
C1634 C1633 1.389 . S
C1634 C1635 1.405 . S
C1635 H1624 0.930 . S
C1635 C1634 1.405 . S
C1635 C1636 1.364 . S
C1636 C1635 1.364 . S
C1636 C1637 1.400 . S
C1637 H1625 0.931 . S
C1637 C1632 1.408 . S
C1637 C1636 1.400 . S
H1638 C1644 0.930 . S
H1639 C1647 0.931 . S
H1640 C1649 0.931 . S
H1641 C1651 0.930 . S
H1642 C1653 0.930 . S
H1643 C1655 0.931 . S
C1644 H1638 0.930 . S
C1644 C1645 1.380 . S
C1644 C1646 1.394 . S
C1645 C1644 1.380 . S
C1645 C1649 1.382 . S
C1646 C1644 1.394 . S
C1646 C1647 1.400 . S
C1647 H1639 0.931 . S
C1647 C1646 1.400 . S
C1647 C1648 1.375 . S
C1648 C1647 1.375 . S
C1648 C1649 1.415 . S
C1648 C1650 1.501 . S
C1649 H1640 0.931 . S
C1649 C1645 1.382 . S
C1649 C1648 1.415 . S
C1650 C1648 1.501 . S
C1650 C1651 1.384 . S
C1650 C1655 1.408 . S
C1651 H1641 0.930 . S
C1651 C1650 1.384 . S
C1651 C1652 1.389 . S
C1652 C1651 1.389 . S
C1652 C1653 1.405 . S
C1653 H1642 0.930 . S
C1653 C1652 1.405 . S
C1653 C1654 1.364 . S
C1654 C1653 1.364 . S
C1654 C1655 1.400 . S
C1655 H1643 0.931 . S
C1655 C1650 1.408 . S
C1655 C1654 1.400 . S
H1656 C1662 0.930 . S
H1657 C1665 0.931 . S
H1658 C1667 0.931 . S
H1659 C1669 0.930 . S
H1660 C1671 0.930 . S
H1661 C1673 0.931 . S
C1662 H1656 0.930 . S
C1662 C1663 1.380 . S
C1662 C1664 1.394 . S
C1663 C1662 1.380 . S
C1663 C1667 1.382 . S
C1664 C1662 1.394 . S
C1664 C1665 1.400 . S
C1665 H1657 0.931 . S
C1665 C1664 1.400 . S
C1665 C1666 1.375 . S
C1666 C1665 1.375 . S
C1666 C1667 1.415 . S
C1666 C1668 1.501 . S
C1667 H1658 0.931 . S
C1667 C1663 1.382 . S
C1667 C1666 1.415 . S
C1668 C1666 1.501 . S
C1668 C1669 1.384 . S
C1668 C1673 1.408 . S
C1669 H1659 0.930 . S
C1669 C1668 1.384 . S
C1669 C1670 1.389 . S
C1670 C1669 1.389 . S
C1670 C1671 1.405 . S
C1671 H1660 0.930 . S
C1671 C1670 1.405 . S
C1671 C1672 1.364 . S
C1672 C1671 1.364 . S
C1672 C1673 1.400 . S
C1673 H1661 0.931 . S
C1673 C1668 1.408 . S
C1673 C1672 1.400 . S
H1674 C1680 0.930 . S
H1675 C1683 0.931 . S
H1676 C1685 0.931 . S
H1677 C1687 0.930 . S
H1678 C1689 0.930 . S
H1679 C1691 0.931 . S
C1680 H1674 0.930 . S
C1680 C1681 1.380 . S
C1680 C1682 1.394 . S
C1681 C1680 1.380 . S
C1681 C1685 1.382 . S
C1682 C1680 1.394 . S
C1682 C1683 1.400 . S
C1683 H1675 0.931 . S
C1683 C1682 1.400 . S
C1683 C1684 1.375 . S
C1684 C1683 1.375 . S
C1684 C1685 1.415 . S
C1684 C1686 1.501 . S
C1685 H1676 0.931 . S
C1685 C1681 1.382 . S
C1685 C1684 1.415 . S
C1686 C1684 1.501 . S
C1686 C1687 1.384 . S
C1686 C1691 1.408 . S
C1687 H1677 0.930 . S
C1687 C1686 1.384 . S
C1687 C1688 1.389 . S
C1688 C1687 1.389 . S
C1688 C1689 1.405 . S
C1689 H1678 0.930 . S
C1689 C1688 1.405 . S
C1689 C1690 1.364 . S
C1690 C1689 1.364 . S
C1690 C1691 1.400 . S
C1691 H1679 0.931 . S
C1691 C1686 1.408 . S
C1691 C1690 1.400 . S
H1692 C1698 0.930 . S
H1693 C1701 0.931 . S
H1694 C1703 0.931 . S
H1695 C1705 0.930 . S
H1696 C1707 0.930 . S
H1697 C1709 0.931 . S
C1698 H1692 0.930 . S
C1698 C1699 1.380 . S
C1698 C1700 1.394 . S
C1699 C1698 1.380 . S
C1699 C1703 1.382 . S
C1700 C1698 1.394 . S
C1700 C1701 1.400 . S
C1701 H1693 0.931 . S
C1701 C1700 1.400 . S
C1701 C1702 1.375 . S
C1702 C1701 1.375 . S
C1702 C1703 1.415 . S
C1702 C1704 1.501 . S
C1703 H1694 0.931 . S
C1703 C1699 1.382 . S
C1703 C1702 1.415 . S
C1704 C1702 1.501 . S
C1704 C1705 1.384 . S
C1704 C1709 1.408 . S
C1705 H1695 0.930 . S
C1705 C1704 1.384 . S
C1705 C1706 1.389 . S
C1706 C1705 1.389 . S
C1706 C1707 1.405 . S
C1707 H1696 0.930 . S
C1707 C1706 1.405 . S
C1707 C1708 1.364 . S
C1708 C1707 1.364 . S
C1708 C1709 1.400 . S
C1709 H1697 0.931 . S
C1709 C1704 1.408 . S
C1709 C1708 1.400 . S
H1710 C1716 0.930 . S
H1711 C1719 0.931 . S
H1712 C1721 0.931 . S
H1713 C1723 0.930 . S
H1714 C1725 0.930 . S
H1715 C1727 0.931 . S
C1716 H1710 0.930 . S
C1716 C1717 1.380 . S
C1716 C1718 1.394 . S
C1717 C1716 1.380 . S
C1717 C1721 1.382 . S
C1718 C1716 1.394 . S
C1718 C1719 1.400 . S
C1719 H1711 0.931 . S
C1719 C1718 1.400 . S
C1719 C1720 1.375 . S
C1720 C1719 1.375 . S
C1720 C1721 1.415 . S
C1720 C1722 1.501 . S
C1721 H1712 0.931 . S
C1721 C1717 1.382 . S
C1721 C1720 1.415 . S
C1722 C1720 1.501 . S
C1722 C1723 1.384 . S
C1722 C1727 1.408 . S
C1723 H1713 0.930 . S
C1723 C1722 1.384 . S
C1723 C1724 1.389 . S
C1724 C1723 1.389 . S
C1724 C1725 1.405 . S
C1725 H1714 0.930 . S
C1725 C1724 1.405 . S
C1725 C1726 1.364 . S
C1726 C1725 1.364 . S
C1726 C1727 1.400 . S
C1727 H1715 0.931 . S
C1727 C1722 1.408 . S
C1727 C1726 1.400 . S
H1728 C1734 0.930 . S
H1729 C1737 0.931 . S
H1730 C1739 0.931 . S
H1731 C1741 0.930 . S
H1732 C1743 0.930 . S
H1733 C1745 0.931 . S
C1734 H1728 0.930 . S
C1734 C1735 1.380 . S
C1734 C1736 1.394 . S
C1735 C1734 1.380 . S
C1735 C1739 1.382 . S
C1736 C1734 1.394 . S
C1736 C1737 1.400 . S
C1737 H1729 0.931 . S
C1737 C1736 1.400 . S
C1737 C1738 1.375 . S
C1738 C1737 1.375 . S
C1738 C1739 1.415 . S
C1738 C1740 1.501 . S
C1739 H1730 0.931 . S
C1739 C1735 1.382 . S
C1739 C1738 1.415 . S
C1740 C1738 1.501 . S
C1740 C1741 1.384 . S
C1740 C1745 1.408 . S
C1741 H1731 0.930 . S
C1741 C1740 1.384 . S
C1741 C1742 1.389 . S
C1742 C1741 1.389 . S
C1742 C1743 1.405 . S
C1743 H1732 0.930 . S
C1743 C1742 1.405 . S
C1743 C1744 1.364 . S
C1744 C1743 1.364 . S
C1744 C1745 1.400 . S
C1745 H1733 0.931 . S
C1745 C1740 1.408 . S
C1745 C1744 1.400 . S
H1746 C1752 0.922 . S
H1747 C1755 0.931 . S
H1748 C1757 0.931 . S
H1749 C1759 0.930 . S
H1750 C1761 0.930 . S
H1751 C1763 0.941 . S
C1752 H1746 0.922 . S
C1752 C1753 1.387 . S
C1752 C1754 1.395 1_655 S
C1753 C1752 1.387 . S
C1753 C1757 1.382 . S
C1754 C1752 1.395 1_455 S
C1754 C1755 1.400 . S
C1755 H1747 0.931 . S
C1755 C1754 1.400 . S
C1755 C1756 1.375 . S
C1756 C1755 1.375 . S
C1756 C1757 1.415 1_455 S
C1756 C1758 1.501 . S
C1757 H1748 0.931 . S
C1757 C1753 1.382 . S
C1757 C1756 1.415 1_655 S
C1758 C1756 1.501 . S
C1758 C1759 1.384 . S
C1758 C1763 1.425 . S
C1759 H1749 0.930 . S
C1759 C1758 1.384 . S
C1759 C1760 1.389 . S
C1760 C1759 1.389 . S
C1760 C1761 1.405 . S
C1761 H1750 0.930 . S
C1761 C1760 1.405 . S
C1761 C1762 1.356 . S
C1762 C1761 1.356 . S
C1762 C1763 1.393 . S
C1763 H1751 0.941 . S
C1763 C1758 1.425 . S
C1763 C1762 1.393 . S
H1764 C1770 0.930 . S
H1765 C1773 0.931 . S
H1766 C1775 0.931 . S
H1767 C1777 0.930 . S
H1768 C1779 0.930 . S
H1769 C1781 0.931 . S
C1770 H1764 0.930 . S
C1770 C1771 1.380 . S
C1770 C1772 1.394 . S
C1771 C1770 1.380 . S
C1771 C1775 1.382 . S
C1772 C1770 1.394 . S
C1772 C1773 1.400 . S
C1773 H1765 0.931 . S
C1773 C1772 1.400 . S
C1773 C1774 1.375 . S
C1774 C1773 1.375 . S
C1774 C1775 1.415 . S
C1774 C1776 1.501 . S
C1775 H1766 0.931 . S
C1775 C1771 1.382 . S
C1775 C1774 1.415 . S
C1776 C1774 1.501 . S
C1776 C1777 1.384 . S
C1776 C1781 1.408 . S
C1777 H1767 0.930 . S
C1777 C1776 1.384 . S
C1777 C1778 1.389 . S
C1778 C1777 1.389 . S
C1778 C1779 1.405 . S
C1779 H1768 0.930 . S
C1779 C1778 1.405 . S
C1779 C1780 1.364 . S
C1780 C1779 1.364 . S
C1780 C1781 1.400 . S
C1781 H1769 0.931 . S
C1781 C1776 1.408 . S
C1781 C1780 1.400 . S
H1782 C1788 0.948 . S
H1783 C1791 0.931 . S
H1784 C1793 0.931 . S
H1785 C1795 0.930 . S
H1786 C1797 0.930 . S
H1787 C1799 0.919 . S
C1788 H1782 0.948 . S
C1788 C1789 1.376 . S
C1788 C1790 1.381 1_545 S
C1789 C1788 1.376 . S
C1789 C1793 1.382 . S
C1790 C1788 1.381 1_565 S
C1790 C1791 1.400 . S
C1791 H1783 0.931 . S
C1791 C1790 1.400 . S
C1791 C1792 1.375 . S
C1792 C1791 1.375 . S
C1792 C1793 1.415 1_565 S
C1792 C1794 1.501 . S
C1793 H1784 0.931 . S
C1793 C1789 1.382 . S
C1793 C1792 1.415 1_545 S
C1794 C1792 1.501 . S
C1794 C1795 1.384 . S
C1794 C1799 1.396 . S
C1795 H1785 0.930 . S
C1795 C1794 1.384 . S
C1795 C1796 1.389 . S
C1796 C1795 1.389 . S
C1796 C1797 1.405 . S
C1797 H1786 0.930 . S
C1797 C1796 1.405 . S
C1797 C1798 1.380 . S
C1798 C1797 1.380 . S
C1798 C1799 1.405 . S
C1799 H1787 0.919 . S
C1799 C1794 1.396 . S
C1799 C1798 1.405 . S
H1800 C1806 0.916 . S
H1801 C1809 0.931 . S
H1802 C1811 0.927 . S
H1803 C1813 0.930 . S
H1804 C1815 0.930 . S
H1805 C1817 0.931 . S
C1806 H1800 0.916 . S
C1806 C1807 1.387 . S
C1806 C1808 1.412 1_545 S
C1807 C1806 1.387 . S
C1807 C1811 1.400 1_545 S
C1808 C1806 1.412 1_565 S
C1808 C1809 1.381 . S
C1809 H1801 0.931 . S
C1809 C1808 1.381 . S
C1809 C1810 1.375 . S
C1810 C1809 1.375 . S
C1810 C1811 1.409 . S
C1810 C1812 1.501 . S
C1811 H1802 0.927 . S
C1811 C1807 1.400 1_565 S
C1811 C1810 1.409 . S
C1812 C1810 1.501 . S
C1812 C1813 1.384 . S
C1812 C1817 1.408 1_565 S
C1813 H1803 0.930 . S
C1813 C1812 1.384 . S
C1813 C1814 1.389 . S
C1814 C1813 1.389 . S
C1814 C1815 1.405 . S
C1815 H1804 0.930 . S
C1815 C1814 1.405 . S
C1815 C1816 1.364 1_565 S
C1816 C1815 1.364 1_545 S
C1816 C1817 1.400 . S
C1817 H1805 0.931 . S
C1817 C1812 1.408 1_545 S
C1817 C1816 1.400 . S
H1818 C1824 0.957 . S
H1819 C1827 0.931 . S
H1820 C1829 0.934 . S
H1821 C1831 0.930 . S
H1822 C1833 0.930 . S
H1823 C1835 0.931 . S
C1824 H1818 0.957 . S
C1824 C1825 1.373 . S
C1824 C1826 1.373 1_655 S
C1825 C1824 1.373 . S
C1825 C1829 1.360 1_655 S
C1826 C1824 1.373 1_455 S
C1826 C1827 1.419 . S
C1827 H1819 0.931 . S
C1827 C1826 1.419 . S
C1827 C1828 1.375 . S
C1828 C1827 1.375 . S
C1828 C1829 1.423 . S
C1828 C1830 1.501 . S
C1829 H1820 0.934 . S
C1829 C1825 1.360 1_455 S
C1829 C1828 1.423 . S
C1830 C1828 1.501 . S
C1830 C1831 1.384 . S
C1830 C1835 1.408 1_455 S
C1831 H1821 0.930 . S
C1831 C1830 1.384 . S
C1831 C1832 1.389 . S
C1832 C1831 1.389 . S
C1832 C1833 1.405 . S
C1833 H1822 0.930 . S
C1833 C1832 1.405 . S
C1833 C1834 1.364 1_455 S
C1834 C1833 1.364 1_655 S
C1834 C1835 1.400 . S
C1835 H1823 0.931 . S
C1835 C1830 1.408 1_655 S
C1835 C1834 1.400 . S
H1836 C1842 0.930 . S
H1837 C1845 0.931 . S
H1838 C1847 0.931 . S
H1839 C1849 0.930 . S
H1840 C1851 0.930 . S
H1841 C1853 0.931 . S
C1842 H1836 0.930 . S
C1842 C1843 1.380 . S
C1842 C1844 1.394 . S
C1843 C1842 1.380 . S
C1843 C1847 1.382 . S
C1844 C1842 1.394 . S
C1844 C1845 1.400 . S
C1845 H1837 0.931 . S
C1845 C1844 1.400 . S
C1845 C1846 1.375 . S
C1846 C1845 1.375 . S
C1846 C1847 1.415 . S
C1846 C1848 1.501 . S
C1847 H1838 0.931 . S
C1847 C1843 1.382 . S
C1847 C1846 1.415 . S
C1848 C1846 1.501 . S
C1848 C1849 1.384 . S
C1848 C1853 1.408 . S
C1849 H1839 0.930 . S
C1849 C1848 1.384 . S
C1849 C1850 1.389 . S
C1850 C1849 1.389 . S
C1850 C1851 1.405 . S
C1851 H1840 0.930 . S
C1851 C1850 1.405 . S
C1851 C1852 1.364 . S
C1852 C1851 1.364 . S
C1852 C1853 1.400 . S
C1853 H1841 0.931 . S
C1853 C1848 1.408 . S
C1853 C1852 1.400 . S
H1854 C1860 0.930 . S
H1855 C1863 0.931 . S
H1856 C1865 0.931 . S
H1857 C1867 0.930 . S
H1858 C1869 0.930 . S
H1859 C1871 0.931 . S
C1860 H1854 0.930 . S
C1860 C1861 1.380 . S
C1860 C1862 1.394 . S
C1861 C1860 1.380 . S
C1861 C1865 1.382 . S
C1862 C1860 1.394 . S
C1862 C1863 1.400 . S
C1863 H1855 0.931 . S
C1863 C1862 1.400 . S
C1863 C1864 1.375 . S
C1864 C1863 1.375 . S
C1864 C1865 1.415 . S
C1864 C1866 1.501 . S
C1865 H1856 0.931 . S
C1865 C1861 1.382 . S
C1865 C1864 1.415 . S
C1866 C1864 1.501 . S
C1866 C1867 1.384 . S
C1866 C1871 1.408 . S
C1867 H1857 0.930 . S
C1867 C1866 1.384 . S
C1867 C1868 1.389 . S
C1868 C1867 1.389 . S
C1868 C1869 1.405 . S
C1869 H1858 0.930 . S
C1869 C1868 1.405 . S
C1869 C1870 1.364 . S
C1870 C1869 1.364 . S
C1870 C1871 1.400 . S
C1871 H1859 0.931 . S
C1871 C1866 1.408 . S
C1871 C1870 1.400 . S
H1872 C1878 0.930 . S
H1873 C1881 0.931 . S
H1874 C1883 0.931 . S
H1875 C1885 0.930 . S
H1876 C1887 0.930 . S
H1877 C1889 0.931 . S
C1878 H1872 0.930 . S
C1878 C1879 1.380 . S
C1878 C1880 1.394 . S
C1879 C1878 1.380 . S
C1879 C1883 1.382 . S
C1880 C1878 1.394 . S
C1880 C1881 1.400 . S
C1881 H1873 0.931 . S
C1881 C1880 1.400 . S
C1881 C1882 1.375 . S
C1882 C1881 1.375 . S
C1882 C1883 1.415 . S
C1882 C1884 1.501 . S
C1883 H1874 0.931 . S
C1883 C1879 1.382 . S
C1883 C1882 1.415 . S
C1884 C1882 1.501 . S
C1884 C1885 1.384 . S
C1884 C1889 1.408 . S
C1885 H1875 0.930 . S
C1885 C1884 1.384 . S
C1885 C1886 1.389 . S
C1886 C1885 1.389 . S
C1886 C1887 1.405 . S
C1887 H1876 0.930 . S
C1887 C1886 1.405 . S
C1887 C1888 1.364 . S
C1888 C1887 1.364 . S
C1888 C1889 1.400 . S
C1889 H1877 0.931 . S
C1889 C1884 1.408 . S
C1889 C1888 1.400 . S
H1890 C1896 0.930 . S
H1891 C1899 0.931 . S
H1892 C1901 0.931 . S
H1893 C1903 0.930 . S
H1894 C1905 0.930 . S
H1895 C1907 0.931 . S
C1896 H1890 0.930 . S
C1896 C1897 1.380 . S
C1896 C1898 1.394 . S
C1897 C1896 1.380 . S
C1897 C1901 1.382 . S
C1898 C1896 1.394 . S
C1898 C1899 1.400 . S
C1899 H1891 0.931 . S
C1899 C1898 1.400 . S
C1899 C1900 1.375 . S
C1900 C1899 1.375 . S
C1900 C1901 1.415 . S
C1900 C1902 1.501 . S
C1901 H1892 0.931 . S
C1901 C1897 1.382 . S
C1901 C1900 1.415 . S
C1902 C1900 1.501 . S
C1902 C1903 1.384 . S
C1902 C1907 1.408 . S
C1903 H1893 0.930 . S
C1903 C1902 1.384 . S
C1903 C1904 1.389 . S
C1904 C1903 1.389 . S
C1904 C1905 1.405 . S
C1905 H1894 0.930 . S
C1905 C1904 1.405 . S
C1905 C1906 1.364 . S
C1906 C1905 1.364 . S
C1906 C1907 1.400 . S
C1907 H1895 0.931 . S
C1907 C1902 1.408 . S
C1907 C1906 1.400 . S
C1908 C1909 1.387 . S
C1908 H1912 0.950 . S
C1908 C1917 1.390 . S
C1909 C1908 1.387 . S
C1909 C1911 1.387 . S
H1910 C1917 0.950 . S
C1911 C1909 1.387 . S
C1911 C1913 1.390 . S
C1911 H1915 0.950 . S
H1912 C1908 0.950 . S
C1913 C1911 1.390 . S
C1913 C1914 1.387 . S
C1913 H1916 0.950 . S
C1914 C1913 1.387 . S
C1914 C1917 1.387 . S
H1915 C1911 0.950 . S
H1916 C1913 0.950 . S
C1917 C1908 1.390 . S
C1917 H1910 0.950 . S
C1917 C1914 1.387 . S
C1918 C1919 1.387 . S
C1918 H1922 0.950 . S
C1918 C1927 1.390 . S
C1919 C1918 1.387 . S
C1919 C1921 1.387 . S
H1920 C1927 0.950 . S
C1921 C1919 1.387 . S
C1921 C1923 1.390 . S
C1921 H1925 0.950 . S
H1922 C1918 0.950 . S
C1923 C1921 1.390 . S
C1923 C1924 1.387 . S
C1923 H1926 0.950 . S
C1924 C1923 1.387 . S
C1924 C1927 1.387 . S
H1925 C1921 0.950 . S
H1926 C1923 0.950 . S
C1927 C1918 1.390 . S
C1927 H1920 0.950 . S
C1927 C1924 1.387 . S
C1928 C1929 1.387 1_565 S
C1928 H1932 0.950 . S
C1928 C1937 1.390 . S
C1929 C1928 1.387 1_545 S
C1929 C1931 1.387 . S
H1930 C1937 0.950 . S
C1931 C1929 1.387 . S
C1931 C1933 1.390 . S
C1931 H1935 0.950 . S
H1932 C1928 0.950 . S
C1933 C1931 1.390 . S
C1933 C1934 1.387 . S
C1933 H1936 0.950 . S
C1934 C1933 1.387 . S
C1934 C1937 1.387 1_545 S
H1935 C1931 0.950 . S
H1936 C1933 0.950 . S
C1937 C1928 1.390 . S
C1937 H1930 0.950 . S
C1937 C1934 1.387 1_565 S
C1938 C1939 1.387 . S
C1938 H1942 0.950 1_565 S
C1938 C1947 1.390 1_565 S
C1939 C1938 1.387 . S
C1939 C1941 1.387 . S
H1940 C1947 0.950 . S
C1941 C1939 1.387 . S
C1941 C1943 1.390 . S
C1941 H1945 0.950 . S
H1942 C1938 0.950 1_545 S
C1943 C1941 1.390 . S
C1943 C1944 1.387 . S
C1943 H1946 0.950 . S
C1944 C1943 1.387 . S
C1944 C1947 1.387 1_565 S
H1945 C1941 0.950 . S
H1946 C1943 0.950 . S
C1947 C1938 1.390 1_545 S
C1947 H1940 0.950 . S
C1947 C1944 1.387 1_545 S
C1948 C1949 1.387 . S
C1948 H1952 0.950 . S
C1948 C1957 1.390 . S
C1949 C1948 1.387 . S
C1949 C1951 1.387 . S
H1950 C1957 0.950 . S
C1951 C1949 1.387 . S
C1951 C1953 1.390 . S
C1951 H1955 0.950 . S
H1952 C1948 0.950 . S
C1953 C1951 1.390 . S
C1953 C1954 1.387 . S
C1953 H1956 0.950 . S
C1954 C1953 1.387 . S
C1954 C1957 1.387 . S
H1955 C1951 0.950 . S
H1956 C1953 0.950 . S
C1957 C1948 1.390 . S
C1957 H1950 0.950 . S
C1957 C1954 1.387 . S
C1958 C1959 1.387 . S
C1958 H1962 0.950 . S
C1958 C1967 1.390 . S
C1959 C1958 1.387 . S
C1959 C1961 1.387 . S
H1960 C1967 0.950 . S
C1961 C1959 1.387 . S
C1961 C1963 1.390 . S
C1961 H1965 0.950 . S
H1962 C1958 0.950 . S
C1963 C1961 1.390 . S
C1963 C1964 1.387 . S
C1963 H1966 0.950 . S
C1964 C1963 1.387 . S
C1964 C1967 1.387 . S
H1965 C1961 0.950 . S
H1966 C1963 0.950 . S
C1967 C1958 1.390 . S
C1967 H1960 0.950 . S
C1967 C1964 1.387 . S
C1968 C1969 1.387 . S
C1968 H1972 0.950 . S
C1968 C1977 1.390 . S
C1969 C1968 1.387 . S
C1969 C1971 1.387 . S
H1970 C1977 0.938 1_655 S
C1971 C1969 1.387 . S
C1971 C1973 1.390 . S
C1971 H1975 0.950 . S
H1972 C1968 0.950 . S
C1973 C1971 1.390 . S
C1973 C1974 1.387 . S
C1973 H1976 0.950 . S
C1974 C1973 1.387 . S
C1974 C1977 1.387 . S
H1975 C1971 0.950 . S
H1976 C1973 0.950 . S
C1977 C1968 1.390 . S
C1977 H1970 0.938 1_455 S
C1977 C1974 1.387 . S
C1978 C1979 1.387 . S
C1978 H1982 0.950 . S
C1978 C1987 1.390 . S
C1979 C1978 1.387 . S
C1979 C1981 1.387 . S
H1980 C1987 0.950 . S
C1981 C1979 1.387 . S
C1981 C1983 1.390 . S
C1981 H1985 0.950 . S
H1982 C1978 0.950 . S
C1983 C1981 1.390 . S
C1983 C1984 1.387 . S
C1983 H1986 0.950 . S
C1984 C1983 1.387 . S
C1984 C1987 1.387 . S
H1985 C1981 0.950 . S
H1986 C1983 0.950 . S
C1987 C1978 1.390 . S
C1987 H1980 0.950 . S
C1987 C1984 1.387 . S
C1988 C1989 1.387 . S
C1988 H1992 0.950 . S
C1988 C1997 1.390 . S
C1989 C1988 1.387 . S
C1989 C1991 1.387 1_565 S
H1990 C1997 0.950 . S
C1991 C1989 1.387 1_545 S
C1991 C1993 1.390 . S
C1991 H1995 0.950 . S
H1992 C1988 0.950 . S
C1993 C1991 1.390 . S
C1993 C1994 1.387 1_545 S
C1993 H1996 0.950 . S
C1994 C1993 1.387 1_565 S
C1994 C1997 1.387 . S
H1995 C1991 0.950 . S
H1996 C1993 0.950 . S
C1997 C1988 1.390 . S
C1997 H1990 0.950 . S
C1997 C1994 1.387 . S
C1998 C1999 1.387 1_565 S
C1998 H2002 0.950 . S
C1998 C2007 1.390 . S
C1999 C1998 1.387 1_545 S
C1999 C2001 1.387 . S
H2000 C2007 0.950 . S
C2001 C1999 1.387 . S
C2001 C2003 1.390 . S
C2001 H2005 0.950 . S
H2002 C1998 0.950 . S
C2003 C2001 1.390 . S
C2003 C2004 1.387 . S
C2003 H2006 0.950 . S
C2004 C2003 1.387 . S
C2004 C2007 1.387 1_545 S
H2005 C2001 0.950 . S
H2006 C2003 0.950 . S
C2007 C1998 1.390 . S
C2007 H2000 0.950 . S
C2007 C2004 1.387 1_565 S
C2008 C2009 1.387 . S
C2008 H2012 0.950 . S
C2008 C2017 1.390 . S
C2009 C2008 1.387 . S
C2009 C2011 1.387 . S
H2010 C2017 0.950 . S
C2011 C2009 1.387 . S
C2011 C2013 1.390 . S
C2011 H2015 0.950 . S
H2012 C2008 0.950 . S
C2013 C2011 1.390 . S
C2013 C2014 1.387 . S
C2013 H2016 0.950 . S
C2014 C2013 1.387 . S
C2014 C2017 1.387 . S
H2015 C2011 0.950 . S
H2016 C2013 0.950 . S
C2017 C2008 1.390 . S
C2017 H2010 0.950 . S
C2017 C2014 1.387 . S
C2018 C2019 1.387 . S
C2018 H2022 0.950 . S
C2018 C2027 1.390 . S
C2019 C2018 1.387 . S
C2019 C2021 1.387 . S
H2020 C2027 0.950 . S
C2021 C2019 1.387 . S
C2021 C2023 1.390 . S
C2021 H2025 0.950 . S
H2022 C2018 0.950 . S
C2023 C2021 1.390 . S
C2023 C2024 1.387 . S
C2023 H2026 0.950 . S
C2024 C2023 1.387 . S
C2024 C2027 1.387 . S
H2025 C2021 0.950 . S
H2026 C2023 0.950 . S
C2027 C2018 1.390 . S
C2027 H2020 0.950 . S
C2027 C2024 1.387 . S
C2028 C2029 1.387 . S
C2028 H2032 0.950 . S
C2028 C2037 1.390 . S
C2029 C2028 1.387 . S
C2029 C2031 1.387 . S
H2030 C2037 0.950 . S
C2031 C2029 1.387 . S
C2031 C2033 1.390 . S
C2031 H2035 0.950 . S
H2032 C2028 0.950 . S
C2033 C2031 1.390 . S
C2033 C2034 1.387 . S
C2033 H2036 0.950 . S
C2034 C2033 1.387 . S
C2034 C2037 1.387 . S
H2035 C2031 0.950 . S
H2036 C2033 0.950 . S
C2037 C2028 1.390 . S
C2037 H2030 0.950 . S
C2037 C2034 1.387 . S
C2038 C2039 1.387 . S
C2038 H2042 0.950 . S
C2038 C2047 1.390 . S
C2039 C2038 1.387 . S
C2039 C2041 1.387 . S
H2040 C2047 0.950 . S
C2041 C2039 1.387 . S
C2041 C2043 1.390 . S
C2041 H2045 0.950 . S
H2042 C2038 0.950 . S
C2043 C2041 1.390 . S
C2043 C2044 1.387 . S
C2043 H2046 0.950 . S
C2044 C2043 1.387 . S
C2044 C2047 1.387 . S
H2045 C2041 0.950 . S
H2046 C2043 0.950 . S
C2047 C2038 1.390 . S
C2047 H2040 0.950 . S
C2047 C2044 1.387 . S
C2048 C2049 1.387 . S
C2048 H2052 0.950 . S
C2048 C2057 1.390 . S
C2049 C2048 1.387 . S
C2049 C2051 1.387 . S
H2050 C2057 0.950 . S
C2051 C2049 1.387 . S
C2051 C2053 1.390 . S
C2051 H2055 0.950 . S
H2052 C2048 0.950 . S
C2053 C2051 1.390 . S
C2053 C2054 1.387 . S
C2053 H2056 0.950 . S
C2054 C2053 1.387 . S
C2054 C2057 1.387 . S
H2055 C2051 0.950 . S
H2056 C2053 0.950 . S
C2057 C2048 1.390 . S
C2057 H2050 0.950 . S
C2057 C2054 1.387 . S
C2058 C2059 1.387 . S
C2058 H2062 0.950 . S
C2058 C2067 1.390 . S
C2059 C2058 1.387 . S
C2059 C2061 1.387 . S
H2060 C2067 0.950 . S
C2061 C2059 1.387 . S
C2061 C2063 1.390 . S
C2061 H2065 0.950 . S
H2062 C2058 0.950 . S
C2063 C2061 1.390 . S
C2063 C2064 1.387 . S
C2063 H2066 0.950 . S
C2064 C2063 1.387 . S
C2064 C2067 1.387 . S
H2065 C2061 0.950 . S
H2066 C2063 0.950 . S
C2067 C2058 1.390 . S
C2067 H2060 0.950 . S
C2067 C2064 1.387 . S
C2068 C2069 1.387 . S
C2068 H2072 0.950 . S
C2068 C2077 1.390 . S
C2069 C2068 1.387 . S
C2069 C2071 1.387 . S
H2070 C2077 0.950 . S
C2071 C2069 1.387 . S
C2071 C2073 1.390 . S
C2071 H2075 0.950 . S
H2072 C2068 0.950 . S
C2073 C2071 1.390 . S
C2073 C2074 1.387 . S
C2073 H2076 0.950 . S
C2074 C2073 1.387 . S
C2074 C2077 1.387 . S
H2075 C2071 0.950 . S
H2076 C2073 0.950 . S
C2077 C2068 1.390 . S
C2077 H2070 0.950 . S
C2077 C2074 1.387 . S
C2078 C2079 1.387 . S
C2078 H2082 0.950 . S
C2078 C2087 1.390 . S
C2079 C2078 1.387 . S
C2079 C2081 1.387 . S
H2080 C2087 0.950 . S
C2081 C2079 1.387 . S
C2081 C2083 1.390 . S
C2081 H2085 0.950 . S
H2082 C2078 0.950 . S
C2083 C2081 1.390 . S
C2083 C2084 1.387 . S
C2083 H2086 0.950 . S
C2084 C2083 1.387 . S
C2084 C2087 1.387 . S
H2085 C2081 0.950 . S
H2086 C2083 0.950 . S
C2087 C2078 1.390 . S
C2087 H2080 0.950 . S
C2087 C2084 1.387 . S
C2088 C2089 1.387 . S
C2088 H2092 0.950 . S
C2088 C2097 1.390 . S
C2089 C2088 1.387 . S
C2089 C2091 1.387 . S
H2090 C2097 0.950 . S
C2091 C2089 1.387 . S
C2091 C2093 1.390 . S
C2091 H2095 0.950 . S
H2092 C2088 0.950 . S
C2093 C2091 1.390 . S
C2093 C2094 1.387 . S
C2093 H2096 0.950 . S
C2094 C2093 1.387 . S
C2094 C2097 1.387 . S
H2095 C2091 0.950 . S
H2096 C2093 0.950 . S
C2097 C2088 1.390 . S
C2097 H2090 0.950 . S
C2097 C2094 1.387 . S
C2098 C2099 1.387 . S
C2098 H2102 0.950 . S
C2098 C2107 1.390 . S
C2099 C2098 1.387 . S
C2099 C2101 1.387 . S
H2100 C2107 0.950 . S
C2101 C2099 1.387 . S
C2101 C2103 1.390 . S
C2101 H2105 0.950 . S
H2102 C2098 0.950 . S
C2103 C2101 1.390 . S
C2103 C2104 1.387 . S
C2103 H2106 0.950 . S
C2104 C2103 1.387 . S
C2104 C2107 1.387 . S
H2105 C2101 0.950 . S
H2106 C2103 0.950 . S
C2107 C2098 1.390 . S
C2107 H2100 0.950 . S
C2107 C2104 1.387 . S
C2108 C2109 1.387 . S
C2108 H2112 0.950 . S
C2108 C2117 1.390 . S
C2109 C2108 1.387 . S
C2109 C2111 1.387 . S
H2110 C2117 0.950 . S
C2111 C2109 1.387 . S
C2111 C2113 1.390 . S
C2111 H2115 0.950 . S
H2112 C2108 0.950 . S
C2113 C2111 1.390 . S
C2113 C2114 1.387 . S
C2113 H2116 0.950 . S
C2114 C2113 1.387 . S
C2114 C2117 1.387 . S
H2115 C2111 0.950 . S
H2116 C2113 0.950 . S
C2117 C2108 1.390 . S
C2117 H2110 0.950 . S
C2117 C2114 1.387 . S
C2118 C2119 1.387 . S
C2118 H2122 0.950 . S
C2118 C2127 1.390 . S
C2119 C2118 1.387 . S
C2119 C2121 1.387 . S
H2120 C2127 0.950 . S
C2121 C2119 1.387 . S
C2121 C2123 1.390 . S
C2121 H2125 0.950 . S
H2122 C2118 0.950 . S
C2123 C2121 1.390 . S
C2123 C2124 1.387 . S
C2123 H2126 0.950 . S
C2124 C2123 1.387 . S
C2124 C2127 1.387 . S
H2125 C2121 0.950 . S
H2126 C2123 0.950 . S
C2127 C2118 1.390 . S
C2127 H2120 0.950 . S
C2127 C2124 1.387 . S
C2128 C2129 1.387 . S
C2128 H2132 0.950 . S
C2128 C2137 1.390 . S
C2129 C2128 1.387 . S
C2129 C2131 1.387 . S
H2130 C2137 0.950 . S
C2131 C2129 1.387 . S
C2131 C2133 1.390 . S
C2131 H2135 0.950 . S
H2132 C2128 0.950 . S
C2133 C2131 1.390 . S
C2133 C2134 1.387 . S
C2133 H2136 0.950 . S
C2134 C2133 1.387 . S
C2134 C2137 1.387 . S
H2135 C2131 0.950 . S
H2136 C2133 0.950 . S
C2137 C2128 1.390 . S
C2137 H2130 0.950 . S
C2137 C2134 1.387 . S
C2138 C2139 1.387 . S
C2138 H2142 0.950 . S
C2138 C2147 1.390 . S
C2139 C2138 1.387 . S
C2139 C2141 1.387 . S
H2140 C2147 0.950 . S
C2141 C2139 1.387 . S
C2141 C2143 1.390 . S
C2141 H2145 0.950 . S
H2142 C2138 0.950 . S
C2143 C2141 1.390 . S
C2143 C2144 1.387 . S
C2143 H2146 0.950 . S
C2144 C2143 1.387 . S
C2144 C2147 1.387 . S
H2145 C2141 0.950 . S
H2146 C2143 0.950 . S
C2147 C2138 1.390 . S
C2147 H2140 0.950 . S
C2147 C2144 1.387 . S
C2148 C2149 1.387 . S
C2148 H2152 0.950 . S
C2148 C2157 1.390 . S
C2149 C2148 1.387 . S
C2149 C2151 1.387 . S
H2150 C2157 0.950 . S
C2151 C2149 1.387 . S
C2151 C2153 1.390 . S
C2151 H2155 0.950 . S
H2152 C2148 0.950 . S
C2153 C2151 1.390 . S
C2153 C2154 1.387 . S
C2153 H2156 0.950 . S
C2154 C2153 1.387 . S
C2154 C2157 1.387 . S
H2155 C2151 0.950 . S
H2156 C2153 0.950 . S
C2157 C2148 1.390 . S
C2157 H2150 0.950 . S
C2157 C2154 1.387 . S
C2158 C2159 1.387 . S
C2158 H2162 0.950 . S
C2158 C2167 1.390 . S
C2159 C2158 1.387 . S
C2159 C2161 1.387 . S
H2160 C2167 0.950 . S
C2161 C2159 1.387 . S
C2161 C2163 1.390 . S
C2161 H2165 0.950 . S
H2162 C2158 0.950 . S
C2163 C2161 1.390 . S
C2163 C2164 1.387 . S
C2163 H2166 0.950 . S
C2164 C2163 1.387 . S
C2164 C2167 1.387 . S
H2165 C2161 0.950 . S
H2166 C2163 0.950 . S
C2167 C2158 1.390 . S
C2167 H2160 0.950 . S
C2167 C2164 1.387 . S
C2168 C2169 1.387 . S
C2168 H2172 0.950 . S
C2168 C2177 1.390 . S
C2169 C2168 1.387 . S
C2169 C2171 1.387 . S
H2170 C2177 0.950 . S
C2171 C2169 1.387 . S
C2171 C2173 1.390 . S
C2171 H2175 0.950 . S
H2172 C2168 0.950 . S
C2173 C2171 1.390 . S
C2173 C2174 1.387 . S
C2173 H2176 0.950 . S
C2174 C2173 1.387 . S
C2174 C2177 1.387 . S
H2175 C2171 0.950 . S
H2176 C2173 0.950 . S
C2177 C2168 1.390 . S
C2177 H2170 0.950 . S
C2177 C2174 1.387 . S
C2178 C2179 1.387 . S
C2178 H2182 0.950 . S
C2178 C2187 1.390 . S
C2179 C2178 1.387 . S
C2179 C2181 1.387 . S
H2180 C2187 0.950 . S
C2181 C2179 1.387 . S
C2181 C2183 1.390 . S
C2181 H2185 0.950 . S
H2182 C2178 0.950 . S
C2183 C2181 1.390 . S
C2183 C2184 1.387 . S
C2183 H2186 0.950 . S
C2184 C2183 1.387 . S
C2184 C2187 1.387 . S
H2185 C2181 0.950 . S
H2186 C2183 0.950 . S
C2187 C2178 1.390 . S
C2187 H2180 0.950 . S
C2187 C2184 1.387 . S
C2188 C2189 1.387 . S
C2188 H2192 0.950 . S
C2188 C2197 1.390 . S
C2189 C2188 1.387 . S
C2189 C2191 1.387 . S
H2190 C2197 0.950 . S
C2191 C2189 1.387 . S
C2191 C2193 1.390 . S
C2191 H2195 0.950 . S
H2192 C2188 0.950 . S
C2193 C2191 1.390 . S
C2193 C2194 1.387 . S
C2193 H2196 0.950 . S
C2194 C2193 1.387 . S
C2194 C2197 1.387 . S
H2195 C2191 0.950 . S
H2196 C2193 0.950 . S
C2197 C2188 1.390 . S
C2197 H2190 0.950 . S
C2197 C2194 1.387 . S
C2198 C2199 1.387 . S
C2198 H2202 0.950 . S
C2198 C2207 1.390 . S
C2199 C2198 1.387 . S
C2199 C2201 1.387 . S
H2200 C2207 0.950 . S
C2201 C2199 1.387 . S
C2201 C2203 1.390 . S
C2201 H2205 0.950 . S
H2202 C2198 0.950 . S
C2203 C2201 1.390 . S
C2203 C2204 1.387 . S
C2203 H2206 0.950 . S
C2204 C2203 1.387 . S
C2204 C2207 1.387 . S
H2205 C2201 0.950 . S
H2206 C2203 0.950 . S
C2207 C2198 1.390 . S
C2207 H2200 0.950 . S
C2207 C2204 1.387 . S
C2208 C2209 1.387 . S
C2208 H2212 0.950 . S
C2208 C2217 1.390 . S
C2209 C2208 1.387 . S
C2209 C2211 1.387 . S
H2210 C2217 0.950 . S
C2211 C2209 1.387 . S
C2211 C2213 1.390 . S
C2211 H2215 0.950 . S
H2212 C2208 0.950 . S
C2213 C2211 1.390 . S
C2213 C2214 1.387 . S
C2213 H2216 0.950 . S
C2214 C2213 1.387 . S
C2214 C2217 1.387 . S
H2215 C2211 0.950 . S
H2216 C2213 0.950 . S
C2217 C2208 1.390 . S
C2217 H2210 0.950 . S
C2217 C2214 1.387 . S
C2218 C2219 1.387 . S
C2218 H2222 0.950 . S
C2218 C2227 1.390 . S
C2219 C2218 1.387 . S
C2219 C2221 1.387 . S
H2220 C2227 0.950 . S
C2221 C2219 1.387 . S
C2221 C2223 1.390 . S
C2221 H2225 0.950 . S
H2222 C2218 0.950 . S
C2223 C2221 1.390 . S
C2223 C2224 1.387 . S
C2223 H2226 0.950 . S
C2224 C2223 1.387 . S
C2224 C2227 1.387 . S
H2225 C2221 0.950 . S
H2226 C2223 0.950 . S
C2227 C2218 1.390 . S
C2227 H2220 0.950 . S
C2227 C2224 1.387 . S
C2228 C2229 1.387 . S
C2228 H2232 0.950 . S
C2228 C2237 1.390 . S
C2229 C2228 1.387 . S
C2229 C2231 1.387 . S
H2230 C2237 0.950 . S
C2231 C2229 1.387 . S
C2231 C2233 1.390 . S
C2231 H2235 0.950 . S
H2232 C2228 0.950 . S
C2233 C2231 1.390 . S
C2233 C2234 1.387 . S
C2233 H2236 0.950 . S
C2234 C2233 1.387 . S
C2234 C2237 1.387 . S
H2235 C2231 0.950 . S
H2236 C2233 0.950 . S
C2237 C2228 1.390 . S
C2237 H2230 0.950 . S
C2237 C2234 1.387 . S
C2238 C2239 1.387 . S
C2238 H2242 0.950 . S
C2238 C2247 1.390 . S
C2239 C2238 1.387 . S
C2239 C2241 1.387 . S
H2240 C2247 0.950 . S
C2241 C2239 1.387 . S
C2241 C2243 1.390 . S
C2241 H2245 0.950 . S
H2242 C2238 0.950 . S
C2243 C2241 1.390 . S
C2243 C2244 1.387 . S
C2243 H2246 0.950 . S
C2244 C2243 1.387 . S
C2244 C2247 1.387 . S
H2245 C2241 0.950 . S
H2246 C2243 0.950 . S
C2247 C2238 1.390 . S
C2247 H2240 0.950 . S
C2247 C2244 1.387 . S
C2248 C2249 1.387 . S
C2248 H2252 0.950 . S
C2248 C2257 1.390 . S
C2249 C2248 1.387 . S
C2249 C2251 1.387 . S
H2250 C2257 0.950 . S
C2251 C2249 1.387 . S
C2251 C2253 1.390 . S
C2251 H2255 0.950 . S
H2252 C2248 0.950 . S
C2253 C2251 1.390 . S
C2253 C2254 1.387 . S
C2253 H2256 0.950 . S
C2254 C2253 1.387 . S
C2254 C2257 1.387 . S
H2255 C2251 0.950 . S
H2256 C2253 0.950 . S
C2257 C2248 1.390 . S
C2257 H2250 0.950 . S
C2257 C2254 1.387 . S
C2258 C2259 1.387 . S
C2258 H2262 0.950 . S
C2258 C2267 1.390 . S
C2259 C2258 1.387 . S
C2259 C2261 1.387 . S
H2260 C2267 0.950 . S
C2261 C2259 1.387 . S
C2261 C2263 1.390 . S
C2261 H2265 0.950 . S
H2262 C2258 0.950 . S
C2263 C2261 1.390 . S
C2263 C2264 1.387 . S
C2263 H2266 0.950 . S
C2264 C2263 1.387 . S
C2264 C2267 1.387 . S
H2265 C2261 0.950 . S
H2266 C2263 0.950 . S
C2267 C2258 1.390 . S
C2267 H2260 0.950 . S
C2267 C2264 1.387 . S
C2268 C2269 1.387 . S
C2268 H2272 0.950 . S
C2268 C2277 1.390 . S
C2269 C2268 1.387 . S
C2269 C2271 1.387 . S
H2270 C2277 0.950 . S
C2271 C2269 1.387 . S
C2271 C2273 1.390 . S
C2271 H2275 0.950 . S
H2272 C2268 0.950 . S
C2273 C2271 1.390 . S
C2273 C2274 1.387 . S
C2273 H2276 0.950 . S
C2274 C2273 1.387 . S
C2274 C2277 1.387 . S
H2275 C2271 0.950 . S
H2276 C2273 0.950 . S
C2277 C2268 1.390 . S
C2277 H2270 0.950 . S
C2277 C2274 1.387 . S
C2278 C2279 1.387 . S
C2278 H2282 0.950 . S
C2278 C2287 1.390 . S
C2279 C2278 1.387 . S
C2279 C2281 1.387 . S
H2280 C2287 0.950 . S
C2281 C2279 1.387 . S
C2281 C2283 1.390 . S
C2281 H2285 0.950 . S
H2282 C2278 0.950 . S
C2283 C2281 1.390 . S
C2283 C2284 1.387 . S
C2283 H2286 0.950 . S
C2284 C2283 1.387 . S
C2284 C2287 1.387 . S
H2285 C2281 0.950 . S
H2286 C2283 0.950 . S
C2287 C2278 1.390 . S
C2287 H2280 0.950 . S
C2287 C2284 1.387 . S
C2288 C2289 1.387 . S
C2288 H2292 0.950 . S
C2288 C2297 1.390 . S
C2289 C2288 1.387 . S
C2289 C2291 1.387 . S
H2290 C2297 0.950 . S
C2291 C2289 1.387 . S
C2291 C2293 1.390 . S
C2291 H2295 0.950 . S
H2292 C2288 0.950 . S
C2293 C2291 1.390 . S
C2293 C2294 1.387 . S
C2293 H2296 0.950 . S
C2294 C2293 1.387 . S
C2294 C2297 1.387 . S
H2295 C2291 0.950 . S
H2296 C2293 0.950 . S
C2297 C2288 1.390 . S
C2297 H2290 0.950 . S
C2297 C2294 1.387 . S
C2298 C2299 1.387 . S
C2298 H2302 0.950 . S
C2298 C2307 1.390 . S
C2299 C2298 1.387 . S
C2299 C2301 1.387 . S
H2300 C2307 0.950 . S
C2301 C2299 1.387 . S
C2301 C2303 1.390 . S
C2301 H2305 0.950 . S
H2302 C2298 0.950 . S
C2303 C2301 1.390 . S
C2303 C2304 1.387 . S
C2303 H2306 0.950 . S
C2304 C2303 1.387 . S
C2304 C2307 1.387 . S
H2305 C2301 0.950 . S
H2306 C2303 0.950 . S
C2307 C2298 1.390 . S
C2307 H2300 0.950 . S
C2307 C2304 1.387 . S
C2308 C2309 1.387 . S
C2308 H2312 0.950 . S
C2308 C2317 1.390 . S
C2309 C2308 1.387 . S
C2309 C2311 1.387 . S
H2310 C2317 0.950 . S
C2311 C2309 1.387 . S
C2311 C2313 1.390 . S
C2311 H2315 0.950 . S
H2312 C2308 0.950 . S
C2313 C2311 1.390 . S
C2313 C2314 1.387 . S
C2313 H2316 0.950 . S
C2314 C2313 1.387 . S
C2314 C2317 1.387 . S
H2315 C2311 0.950 . S
H2316 C2313 0.950 . S
C2317 C2308 1.390 . S
C2317 H2310 0.950 . S
C2317 C2314 1.387 . S
C2318 C2319 1.387 . S
C2318 H2322 0.950 . S
C2318 C2327 1.390 . S
C2319 C2318 1.387 . S
C2319 C2321 1.387 . S
H2320 C2327 0.950 . S
C2321 C2319 1.387 . S
C2321 C2323 1.390 . S
C2321 H2325 0.950 . S
H2322 C2318 0.950 . S
C2323 C2321 1.390 . S
C2323 C2324 1.387 . S
C2323 H2326 0.950 . S
C2324 C2323 1.387 . S
C2324 C2327 1.387 . S
H2325 C2321 0.950 . S
H2326 C2323 0.950 . S
C2327 C2318 1.390 . S
C2327 H2320 0.950 . S
C2327 C2324 1.387 . S
C2328 C2329 1.387 . S
C2328 H2332 0.950 . S
C2328 C2337 1.390 . S
C2329 C2328 1.387 . S
C2329 C2331 1.387 . S
H2330 C2337 0.950 . S
C2331 C2329 1.387 . S
C2331 C2333 1.390 . S
C2331 H2335 0.950 . S
H2332 C2328 0.950 . S
C2333 C2331 1.390 . S
C2333 C2334 1.387 . S
C2333 H2336 0.950 . S
C2334 C2333 1.387 . S
C2334 C2337 1.387 . S
H2335 C2331 0.950 . S
H2336 C2333 0.950 . S
C2337 C2328 1.390 . S
C2337 H2330 0.950 . S
C2337 C2334 1.387 . S
C2338 C2339 1.387 . S
C2338 H2342 0.950 . S
C2338 C2347 1.390 . S
C2339 C2338 1.387 . S
C2339 C2341 1.387 . S
H2340 C2347 0.950 . S
C2341 C2339 1.387 . S
C2341 C2343 1.390 . S
C2341 H2345 0.950 . S
H2342 C2338 0.950 . S
C2343 C2341 1.390 . S
C2343 C2344 1.387 . S
C2343 H2346 0.950 . S
C2344 C2343 1.387 . S
C2344 C2347 1.387 . S
H2345 C2341 0.950 . S
H2346 C2343 0.950 . S
C2347 C2338 1.390 . S
C2347 H2340 0.950 . S
C2347 C2344 1.387 . S
C2348 C2349 1.387 . S
C2348 H2352 0.950 1_556 S
C2348 C2357 1.390 . S
C2349 C2348 1.387 . S
C2349 C2351 1.387 . S
H2350 C2357 0.950 . S
C2351 C2349 1.387 . S
C2351 C2353 1.390 . S
C2351 H2355 0.950 . S
H2352 C2348 0.950 1_554 S
C2353 C2351 1.390 . S
C2353 C2354 1.387 . S
C2353 H2356 0.950 . S
C2354 C2353 1.387 . S
C2354 C2357 1.387 . S
H2355 C2351 0.950 . S
H2356 C2353 0.950 . S
C2357 C2348 1.390 . S
C2357 H2350 0.950 . S
C2357 C2354 1.387 . S
C2358 C2359 1.387 . S
C2358 H2362 0.950 . S
C2358 C2367 1.390 . S
C2359 C2358 1.387 . S
C2359 C2361 1.387 . S
H2360 C2367 0.950 . S
C2361 C2359 1.387 . S
C2361 C2363 1.390 . S
C2361 H2365 0.950 . S
H2362 C2358 0.950 . S
C2363 C2361 1.390 . S
C2363 C2364 1.387 . S
C2363 H2366 0.950 . S
C2364 C2363 1.387 . S
C2364 C2367 1.387 . S
H2365 C2361 0.950 . S
H2366 C2363 0.950 . S
C2367 C2358 1.390 . S
C2367 H2360 0.950 . S
C2367 C2364 1.387 . S
C2368 C2369 1.387 . S
C2368 H2372 0.950 . S
C2368 C2377 1.390 . S
C2369 C2368 1.387 . S
C2369 C2371 1.387 . S
H2370 C2377 0.950 . S
C2371 C2369 1.387 . S
C2371 C2373 1.390 . S
C2371 H2375 0.950 . S
H2372 C2368 0.950 . S
C2373 C2371 1.390 . S
C2373 C2374 1.387 . S
C2373 H2376 0.950 . S
C2374 C2373 1.387 . S
C2374 C2377 1.387 . S
H2375 C2371 0.950 . S
H2376 C2373 0.950 . S
C2377 C2368 1.390 . S
C2377 H2370 0.950 . S
C2377 C2374 1.387 . S
C2378 C2379 1.387 . S
C2378 H2382 0.950 . S
C2378 C2387 1.390 . S
C2379 C2378 1.387 . S
C2379 C2381 1.387 . S
H2380 C2387 0.950 . S
C2381 C2379 1.387 . S
C2381 C2383 1.390 . S
C2381 H2385 0.950 . S
H2382 C2378 0.950 . S
C2383 C2381 1.390 . S
C2383 C2384 1.387 . S
C2383 H2386 0.950 . S
C2384 C2383 1.387 . S
C2384 C2387 1.387 . S
H2385 C2381 0.950 . S
H2386 C2383 0.950 . S
C2387 C2378 1.390 . S
C2387 H2380 0.950 . S
C2387 C2384 1.387 . S
C2388 C2389 1.387 . S
C2388 H2392 0.950 . S
C2388 C2397 1.390 . S
C2389 C2388 1.387 . S
C2389 C2391 1.387 . S
H2390 C2397 0.950 . S
C2391 C2389 1.387 . S
C2391 C2393 1.390 . S
C2391 H2395 0.950 . S
H2392 C2388 0.950 . S
C2393 C2391 1.390 . S
C2393 C2394 1.387 . S
C2393 H2396 0.950 . S
C2394 C2393 1.387 . S
C2394 C2397 1.387 . S
H2395 C2391 0.950 . S
H2396 C2393 0.950 . S
C2397 C2388 1.390 . S
C2397 H2390 0.950 . S
C2397 C2394 1.387 . S
C2398 C2399 1.387 . S
C2398 H2402 0.950 . S
C2398 C2407 1.390 . S
C2399 C2398 1.387 . S
C2399 C2401 1.387 . S
H2400 C2407 0.950 . S
C2401 C2399 1.387 . S
C2401 C2403 1.390 . S
C2401 H2405 0.950 . S
H2402 C2398 0.950 . S
C2403 C2401 1.390 . S
C2403 C2404 1.387 . S
C2403 H2406 0.950 . S
C2404 C2403 1.387 . S
C2404 C2407 1.387 . S
H2405 C2401 0.950 . S
H2406 C2403 0.950 . S
C2407 C2398 1.390 . S
C2407 H2400 0.950 . S
C2407 C2404 1.387 . S
C2408 C2409 1.387 . S
C2408 H2412 0.950 . S
C2408 C2417 1.390 . S
C2409 C2408 1.387 . S
C2409 C2411 1.387 . S
H2410 C2417 0.950 . S
C2411 C2409 1.387 . S
C2411 C2413 1.390 . S
C2411 H2415 0.950 . S
H2412 C2408 0.950 . S
C2413 C2411 1.390 . S
C2413 C2414 1.387 . S
C2413 H2416 0.950 . S
C2414 C2413 1.387 . S
C2414 C2417 1.387 . S
H2415 C2411 0.950 . S
H2416 C2413 0.950 . S
C2417 C2408 1.390 . S
C2417 H2410 0.950 . S
C2417 C2414 1.387 . S
C2418 C2419 1.387 1_655 S
C2418 H2422 0.950 . S
C2418 C2427 1.390 . S
C2419 C2418 1.387 1_455 S
C2419 C2421 1.387 . S
H2420 C2427 0.950 . S
C2421 C2419 1.387 . S
C2421 C2423 1.390 . S
C2421 H2425 0.950 . S
H2422 C2418 0.950 . S
C2423 C2421 1.390 . S
C2423 C2424 1.387 . S
C2423 H2426 0.950 . S
C2424 C2423 1.387 . S
C2424 C2427 1.387 1_455 S
H2425 C2421 0.950 . S
H2426 C2423 0.950 . S
C2427 C2418 1.390 . S
C2427 H2420 0.950 . S
C2427 C2424 1.387 1_655 S
C2428 C2429 1.387 . S
C2428 H2432 0.950 . S
C2428 C2437 1.390 . S
C2429 C2428 1.387 . S
C2429 C2431 1.387 . S
H2430 C2437 0.950 . S
C2431 C2429 1.387 . S
C2431 C2433 1.390 . S
C2431 H2435 0.950 . S
H2432 C2428 0.950 . S
C2433 C2431 1.390 . S
C2433 C2434 1.387 . S
C2433 H2436 0.950 . S
C2434 C2433 1.387 . S
C2434 C2437 1.387 . S
H2435 C2431 0.950 . S
H2436 C2433 0.950 . S
C2437 C2428 1.390 . S
C2437 H2430 0.950 . S
C2437 C2434 1.387 . S
C2438 C2439 1.387 . S
C2438 H2442 0.950 . S
C2438 C2447 1.390 . S
C2439 C2438 1.387 . S
C2439 C2441 1.387 1_565 S
H2440 C2447 0.950 . S
C2441 C2439 1.387 1_545 S
C2441 C2443 1.390 . S
C2441 H2445 0.950 . S
H2442 C2438 0.950 . S
C2443 C2441 1.390 . S
C2443 C2444 1.387 1_545 S
C2443 H2446 0.950 . S
C2444 C2443 1.387 1_565 S
C2444 C2447 1.387 . S
H2445 C2441 0.950 . S
H2446 C2443 0.950 . S
C2447 C2438 1.390 . S
C2447 H2440 0.950 . S
C2447 C2444 1.387 . S
C2448 C2449 1.387 . S
C2448 H2452 0.950 . S
C2448 C2457 1.390 . S
C2449 C2448 1.387 . S
C2449 C2451 1.387 1_565 S
H2450 C2457 0.950 . S
C2451 C2449 1.387 1_545 S
C2451 C2453 1.390 . S
C2451 H2455 0.950 . S
H2452 C2448 0.950 . S
C2453 C2451 1.390 . S
C2453 C2454 1.387 1_545 S
C2453 H2456 0.950 . S
C2454 C2453 1.387 1_565 S
C2454 C2457 1.387 . S
H2455 C2451 0.950 . S
H2456 C2453 0.950 . S
C2457 C2448 1.390 . S
C2457 H2450 0.950 . S
C2457 C2454 1.387 . S
C2458 C2459 1.387 . S
C2458 H2462 0.950 1_455 S
C2458 C2467 1.390 1_455 S
C2459 C2458 1.387 . S
C2459 C2461 1.387 . S
H2460 C2467 0.950 . S
C2461 C2459 1.387 . S
C2461 C2463 1.390 . S
C2461 H2465 0.950 . S
H2462 C2458 0.950 1_655 S
C2463 C2461 1.390 . S
C2463 C2464 1.387 . S
C2463 H2466 0.950 . S
C2464 C2463 1.387 . S
C2464 C2467 1.387 1_455 S
H2465 C2461 0.950 . S
H2466 C2463 0.950 . S
C2467 C2458 1.390 1_655 S
C2467 H2460 0.950 . S
C2467 C2464 1.387 1_655 S
C2468 C2469 1.387 . S
C2468 H2472 0.950 . S
C2468 C2477 1.390 . S
C2469 C2468 1.387 . S
C2469 C2471 1.387 . S
H2470 C2477 0.950 . S
C2471 C2469 1.387 . S
C2471 C2473 1.390 . S
C2471 H2475 0.950 . S
H2472 C2468 0.950 . S
C2473 C2471 1.390 . S
C2473 C2474 1.387 . S
C2473 H2476 0.950 . S
C2474 C2473 1.387 . S
C2474 C2477 1.387 . S
H2475 C2471 0.950 . S
H2476 C2473 0.950 . S
C2477 C2468 1.390 . S
C2477 H2470 0.950 . S
C2477 C2474 1.387 . S
C2478 C2479 1.387 . S
C2478 H2482 0.950 . S
C2478 C2487 1.390 . S
C2479 C2478 1.387 . S
C2479 C2481 1.387 . S
H2480 C2487 0.950 . S
C2481 C2479 1.387 . S
C2481 C2483 1.390 . S
C2481 H2485 0.950 . S
H2482 C2478 0.950 . S
C2483 C2481 1.390 . S
C2483 C2484 1.387 . S
C2483 H2486 0.950 . S
C2484 C2483 1.387 . S
C2484 C2487 1.387 . S
H2485 C2481 0.950 . S
H2486 C2483 0.950 . S
C2487 C2478 1.390 . S
C2487 H2480 0.950 . S
C2487 C2484 1.387 . S
C2488 C2489 1.387 . S
C2488 H2492 0.950 . S
C2488 C2497 1.390 . S
C2489 C2488 1.387 . S
C2489 C2491 1.387 . S
H2490 C2497 0.950 . S
C2491 C2489 1.387 . S
C2491 C2493 1.390 . S
C2491 H2495 0.950 . S
H2492 C2488 0.950 . S
C2493 C2491 1.390 . S
C2493 C2494 1.387 . S
C2493 H2496 0.950 . S
C2494 C2493 1.387 . S
C2494 C2497 1.387 . S
H2495 C2491 0.950 . S
H2496 C2493 0.950 . S
C2497 C2488 1.390 . S
C2497 H2490 0.950 . S
C2497 C2494 1.387 . S
C2498 C2499 1.387 . S
C2498 H2502 0.950 . S
C2498 C2507 1.390 . S
C2499 C2498 1.387 . S
C2499 C2501 1.387 . S
H2500 C2507 0.950 . S
C2501 C2499 1.387 . S
C2501 C2503 1.390 . S
C2501 H2505 0.950 . S
H2502 C2498 0.950 . S
C2503 C2501 1.390 . S
C2503 C2504 1.387 . S
C2503 H2506 0.950 . S
C2504 C2503 1.387 . S
C2504 C2507 1.387 . S
H2505 C2501 0.950 . S
H2506 C2503 0.950 . S
C2507 C2498 1.390 . S
C2507 H2500 0.950 . S
C2507 C2504 1.387 . S
C2508 C2509 1.387 1_565 S
C2508 H2512 0.950 . S
C2508 C2517 1.390 . S
C2509 C2508 1.387 1_545 S
C2509 C2511 1.387 . S
H2510 C2517 0.950 . S
C2511 C2509 1.387 . S
C2511 C2513 1.390 . S
C2511 H2515 0.950 . S
H2512 C2508 0.950 . S
C2513 C2511 1.390 . S
C2513 C2514 1.387 . S
C2513 H2516 0.950 . S
C2514 C2513 1.387 . S
C2514 C2517 1.387 1_545 S
H2515 C2511 0.950 . S
H2516 C2513 0.950 . S
C2517 C2508 1.390 . S
C2517 H2510 0.950 . S
C2517 C2514 1.387 1_565 S
C2518 C2519 1.389 . S
C2518 H2522 0.938 1_655 S
C2518 C2527 1.401 1_655 S
C2519 C2518 1.389 . S
C2519 C2521 1.387 . S
H2520 C2527 0.950 . S
C2521 C2519 1.387 . S
C2521 C2523 1.390 . S
C2521 H2525 0.950 . S
H2522 C2518 0.938 1_455 S
C2523 C2521 1.390 . S
C2523 C2524 1.387 . S
C2523 H2526 0.950 . S
C2524 C2523 1.387 . S
C2524 C2527 1.387 1_655 S
H2525 C2521 0.950 . S
H2526 C2523 0.950 . S
C2527 C2518 1.401 1_455 S
C2527 H2520 0.950 . S
C2527 C2524 1.387 1_455 S
C2528 C2529 1.387 . S
C2528 H2532 0.950 . S
C2528 C2537 1.390 . S
C2529 C2528 1.387 . S
C2529 C2531 1.387 . S
H2530 C2537 0.950 . S
C2531 C2529 1.387 . S
C2531 C2533 1.390 . S
C2531 H2535 0.950 . S
H2532 C2528 0.950 . S
C2533 C2531 1.390 . S
C2533 C2534 1.387 . S
C2533 H2536 0.950 . S
C2534 C2533 1.387 . S
C2534 C2537 1.387 . S
H2535 C2531 0.950 . S
H2536 C2533 0.950 . S
C2537 C2528 1.390 . S
C2537 H2530 0.950 . S
C2537 C2534 1.387 . S
C2538 C2539 1.387 . S
C2538 H2542 0.950 . S
C2538 C2547 1.390 . S
C2539 C2538 1.387 . S
C2539 C2541 1.387 . S
H2540 C2547 0.950 . S
C2541 C2539 1.387 . S
C2541 C2543 1.390 . S
C2541 H2545 0.950 . S
H2542 C2538 0.950 . S
C2543 C2541 1.390 . S
C2543 C2544 1.387 . S
C2543 H2546 0.950 . S
C2544 C2543 1.387 . S
C2544 C2547 1.387 . S
H2545 C2541 0.950 . S
H2546 C2543 0.950 . S
C2547 C2538 1.390 . S
C2547 H2540 0.950 . S
C2547 C2544 1.387 . S
C2548 C2549 1.387 . S
C2548 H2552 0.950 . S
C2548 C2557 1.390 . S
C2549 C2548 1.387 . S
C2549 C2551 1.387 . S
H2550 C2557 0.950 . S
C2551 C2549 1.387 . S
C2551 C2553 1.390 . S
C2551 H2555 0.950 . S
H2552 C2548 0.950 . S
C2553 C2551 1.390 . S
C2553 C2554 1.387 . S
C2553 H2556 0.950 . S
C2554 C2553 1.387 . S
C2554 C2557 1.387 . S
H2555 C2551 0.950 . S
H2556 C2553 0.950 . S
C2557 C2548 1.390 . S
C2557 H2550 0.950 . S
C2557 C2554 1.387 . S
C2558 C2559 1.387 . S
C2558 H2562 0.950 . S
C2558 C2567 1.390 . S
C2559 C2558 1.387 . S
C2559 C2561 1.387 . S
H2560 C2567 0.950 . S
C2561 C2559 1.387 . S
C2561 C2563 1.390 . S
C2561 H2565 0.950 . S
H2562 C2558 0.950 . S
C2563 C2561 1.390 . S
C2563 C2564 1.387 . S
C2563 H2566 0.950 . S
C2564 C2563 1.387 . S
C2564 C2567 1.387 . S
H2565 C2561 0.950 . S
H2566 C2563 0.950 . S
C2567 C2558 1.390 . S
C2567 H2560 0.950 . S
C2567 C2564 1.387 . S
C2568 C2569 1.387 . S
C2568 H2572 0.950 . S
C2568 C2577 1.390 . S
C2569 C2568 1.387 . S
C2569 C2571 1.387 . S
H2570 C2577 0.950 . S
C2571 C2569 1.387 . S
C2571 C2573 1.390 . S
C2571 H2575 0.950 . S
H2572 C2568 0.950 . S
C2573 C2571 1.390 . S
C2573 C2574 1.387 . S
C2573 H2576 0.950 . S
C2574 C2573 1.387 . S
C2574 C2577 1.387 . S
H2575 C2571 0.950 . S
H2576 C2573 0.950 . S
C2577 C2568 1.390 . S
C2577 H2570 0.950 . S
C2577 C2574 1.387 . S
C2578 C2579 1.387 . S
C2578 H2582 0.950 . S
C2578 C2587 1.390 . S
C2579 C2578 1.387 . S
C2579 C2581 1.387 . S
H2580 C2587 0.950 . S
C2581 C2579 1.387 . S
C2581 C2583 1.390 . S
C2581 H2585 0.950 . S
H2582 C2578 0.950 . S
C2583 C2581 1.390 . S
C2583 C2584 1.387 . S
C2583 H2586 0.950 . S
C2584 C2583 1.387 . S
C2584 C2587 1.387 . S
H2585 C2581 0.950 . S
H2586 C2583 0.950 . S
C2587 C2578 1.390 . S
C2587 H2580 0.950 . S
C2587 C2584 1.387 . S
C2588 C2589 1.387 . S
C2588 H2592 0.950 . S
C2588 C2597 1.390 . S
C2589 C2588 1.387 . S
C2589 C2591 1.387 . S
H2590 C2597 0.950 . S
C2591 C2589 1.387 . S
C2591 C2593 1.390 . S
C2591 H2595 0.950 . S
H2592 C2588 0.950 . S
C2593 C2591 1.390 . S
C2593 C2594 1.387 . S
C2593 H2596 0.950 . S
C2594 C2593 1.387 . S
C2594 C2597 1.387 . S
H2595 C2591 0.950 . S
H2596 C2593 0.950 . S
C2597 C2588 1.390 . S
C2597 H2590 0.950 . S
C2597 C2594 1.387 . S
C2598 C2599 1.386 . S
C2598 H2602 0.949 1_655 S
C2598 C2607 1.392 1_655 S
C2599 C2598 1.386 . S
C2599 C2601 1.387 . S
H2600 C2607 0.950 . S
C2601 C2599 1.387 . S
C2601 C2603 1.390 . S
C2601 H2605 0.950 . S
H2602 C2598 0.949 1_455 S
C2603 C2601 1.390 . S
C2603 C2604 1.387 . S
C2603 H2606 0.950 . S
C2604 C2603 1.387 . S
C2604 C2607 1.387 1_655 S
H2605 C2601 0.950 . S
H2606 C2603 0.950 . S
C2607 C2598 1.392 1_455 S
C2607 H2600 0.950 . S
C2607 C2604 1.387 1_455 S
C2608 C2609 1.387 . S
C2608 H2612 0.950 . S
C2608 C2617 1.390 . S
C2609 C2608 1.387 . S
C2609 C2611 1.387 . S
H2610 C2617 0.950 . S
C2611 C2609 1.387 . S
C2611 C2613 1.390 . S
C2611 H2615 0.950 . S
H2612 C2608 0.950 . S
C2613 C2611 1.390 . S
C2613 C2614 1.387 . S
C2613 H2616 0.950 . S
C2614 C2613 1.387 . S
C2614 C2617 1.387 . S
H2615 C2611 0.950 . S
H2616 C2613 0.950 . S
C2617 C2608 1.390 . S
C2617 H2610 0.950 . S
C2617 C2614 1.387 . S
C2618 C2619 1.387 1_565 S
C2618 H2622 0.950 . S
C2618 C2627 1.390 . S
C2619 C2618 1.387 1_545 S
C2619 C2621 1.387 . S
H2620 C2627 0.950 . S
C2621 C2619 1.387 . S
C2621 C2623 1.390 . S
C2621 H2625 0.950 . S
H2622 C2618 0.950 . S
C2623 C2621 1.390 . S
C2623 C2624 1.387 . S
C2623 H2626 0.950 . S
C2624 C2623 1.387 . S
C2624 C2627 1.387 1_545 S
H2625 C2621 0.950 . S
H2626 C2623 0.950 . S
C2627 C2618 1.390 . S
C2627 H2620 0.950 . S
C2627 C2624 1.387 1_565 S
C1909 C49 1.704 . S
C1914 C1753 1.702 . S
C1919 C137 1.694 . S
C1924 C1778 1.677 . S
C1934 C1789 1.711 . S
C1929 C205 1.713 . S
C1939 C196 1.705 . S
C1944 C1814 1.701 . S
C1949 C57 1.708 . S
C1954 C1832 1.712 . S
C1959 C145 1.694 . S
C1964 C1843 1.670 . S
C1969 C313 1.729 . S
C1974 C1825 1.719 1_455 S
C1984 C1850 1.676 . S
C1979 C401 1.687 . S
C1994 C1807 1.719 1_565 S
C1989 C489 1.734 . S
C1999 C469 1.729 . S
C2004 C1796 1.730 1_545 S
C2014 C1760 1.736 1_655 S
C2009 C293 1.734 . S
C2019 C381 1.687 . S
C2024 C1771 1.670 . S
C2029 C577 1.717 . S
C2034 C1861 1.690 . S
C2039 C645 1.699 . S
C2044 C1886 1.675 . S
C2054 C1897 1.657 . S
C2049 C733 1.688 . S
C2059 C724 1.695 . S
C2064 C1598 1.679 . S
C2069 C585 1.710 . S
C2074 C1616 1.692 . S
C2079 C636 1.716 . S
C2084 C1627 1.691 . S
C2089 C841 1.688 . S
C2094 C1609 1.672 . S
C2099 C937 1.706 . S
C2104 C1634 1.697 . S
C2114 C1591 1.683 . S
C2109 C1025 1.701 . S
C2124 C1904 1.692 . S
C2119 C988 1.705 . S
C2134 C1868 1.656 . S
C2129 C821 1.674 . S
C2144 C1879 1.664 . S
C2139 C900 1.685 . S
C2149 C1105 1.696 . S
C2154 C1645 1.673 . S
C2159 C1193 1.716 . S
C2164 C1670 1.698 . S
C2169 C1281 1.711 . S
C2174 C1681 1.687 . S
C2179 C1289 1.714 . S
C2184 C1706 1.695 . S
C2194 C1724 1.667 . S
C2189 C1113 1.689 . S
C2204 C1735 1.669 . S
C2199 C1201 1.700 . S
C2214 C1717 1.689 . S
C2209 C1369 1.706 . S
C2224 C1742 1.667 . S
C2219 C1457 1.685 . S
C2229 C1553 1.673 . S
C2234 C1699 1.652 . S
C2244 C1688 1.677 . S
C2239 C1516 1.686 . S
C2249 C1349 1.703 . S
C2254 C1652 1.691 . S
C2264 C1663 1.691 . S
C2259 C1437 1.706 . S
C2274 C1600 1.403 . S
C2269 C29 1.432 . S
C2279 C117 1.381 . S
C2284 C1618 1.328 . S
C2294 C1628 1.400 . S
C2289 C225 1.443 . S
C2304 C1646 1.389 . S
C2299 C233 1.428 . S
C2314 C1672 1.412 . S
C2309 C20 1.443 . S
C2324 C1682 1.317 . S
C2319 C108 1.382 . S
C2329 C321 1.498 . S
C2334 C1690 1.418 . S
C2339 C409 1.446 . S
C2344 C1654 1.336 . S
C2349 C497 1.509 . S
C2354 C1664 1.449 . S
C2359 C460 1.493 . S
C2364 C1610 1.439 . S
C2374 C1636 1.420 . S
C2369 C284 1.508 . S
C2379 C372 1.446 . S
C2384 C1592 1.364 . S
C2394 C1708 1.336 . S
C2389 C557 1.392 . S
C2399 C665 1.431 . S
C2404 C1726 1.368 . S
C2409 C753 1.435 . S
C2414 C1736 1.360 . S
C2424 C1754 1.231 . S
C2419 C761 1.285 . S
C2429 C548 1.383 . S
C2434 C1780 1.325 . S
C2439 C673 1.293 . S
C2444 C1790 1.232 . S
C2449 C849 1.313 . S
C2454 C1798 1.256 . S
C2459 C929 1.317 . S
C2464 C1762 1.229 . S
C2474 C1772 1.360 . S
C2469 C1017 1.443 . S
C2479 C997 1.453 . S
C2484 C1718 1.367 . S
C2489 C812 1.493 . S
C2494 C1744 1.383 . S
C2504 C1700 1.403 . S
C2499 C909 1.487 . S
C2514 C1816 1.234 . S
C2509 C1085 1.289 . S
C2519 C1173 1.292 . S
C2524 C1834 1.232 . S
C2529 C1261 1.382 . S
C2534 C1844 1.316 . S
C2544 C1862 1.320 . S
C2539 C1252 1.388 . S
C2554 C1888 1.371 . S
C2549 C1076 1.435 . S
C2559 C1164 1.431 . S
C2564 C1898 1.362 . S
C2569 C1377 1.458 . S
C2574 C1906 1.350 . S
C2579 C1465 1.487 . S
C2584 C1870 1.380 . S
C2594 C1880 1.402 . S
C2589 C1545 1.493 . S
C2604 C1826 1.229 1_655 S
C2599 C1525 1.306 . S
C2614 C1852 1.341 . S
C2609 C1340 1.445 . S
C2619 C1428 1.317 . S
C2624 C1808 1.263 1_545 S
