# Generated by pormake.
# Topology anh, (6,3)-cn, num edge types: 1
# Building blocks:
#     Node 0, Type 0, BuildingBlock: CUKXOW_clean_sbu_0, # of connection points: 6
#     Node 1, Type 0, BuildingBlock: CUKXOW_clean_sbu_0, # of connection points: 6
#     Node 2, Type 0, BuildingBlock: CUKXOW_clean_sbu_0, # of connection points: 6
#     Node 3, Type 1, BuildingBlock: MIDCAF_clean_linker_0, # of connection points: 3
#     Node 4, Type 1, BuildingBlock: MIDCAF_clean_linker_0, # of connection points: 3
#     Node 5, Type 1, BuildingBlock: MIDCAF_clean_linker_0, # of connection points: 3
#     Node 6, Type 1, BuildingBlock: MIDCAF_clean_linker_0, # of connection points: 3
#     Node 7, Type 1, BuildingBlock: MIDCAF_clean_linker_0, # of connection points: 3
#     Node 8, Type 1, BuildingBlock: MIDCAF_clean_linker_0, # of connection points: 3
#     Edge 9, Type (0, 1), BuildingBlock: CIFDUS_clean_linker_0, # of connection points: 2
#     Edge 10, Type (0, 1), BuildingBlock: CIFDUS_clean_linker_0, # of connection points: 2
#     Edge 11, Type (0, 1), BuildingBlock: CIFDUS_clean_linker_0, # of connection points: 2
#     Edge 12, Type (0, 1), BuildingBlock: CIFDUS_clean_linker_0, # of connection points: 2
#     Edge 13, Type (0, 1), BuildingBlock: CIFDUS_clean_linker_0, # of connection points: 2
#     Edge 14, Type (0, 1), BuildingBlock: CIFDUS_clean_linker_0, # of connection points: 2
#     Edge 15, Type (0, 1), BuildingBlock: CIFDUS_clean_linker_0, # of connection points: 2
#     Edge 16, Type (0, 1), BuildingBlock: CIFDUS_clean_linker_0, # of connection points: 2
#     Edge 17, Type (0, 1), BuildingBlock: CIFDUS_clean_linker_0, # of connection points: 2
#     Edge 18, Type (0, 1), BuildingBlock: CIFDUS_clean_linker_0, # of connection points: 2
#     Edge 19, Type (0, 1), BuildingBlock: CIFDUS_clean_linker_0, # of connection points: 2
#     Edge 20, Type (0, 1), BuildingBlock: CIFDUS_clean_linker_0, # of connection points: 2
#     Edge 21, Type (0, 1), BuildingBlock: CIFDUS_clean_linker_0, # of connection points: 2
#     Edge 22, Type (0, 1), BuildingBlock: CIFDUS_clean_linker_0, # of connection points: 2
#     Edge 23, Type (0, 1), BuildingBlock: CIFDUS_clean_linker_0, # of connection points: 2
#     Edge 24, Type (0, 1), BuildingBlock: CIFDUS_clean_linker_0, # of connection points: 2
#     Edge 25, Type (0, 1), BuildingBlock: CIFDUS_clean_linker_0, # of connection points: 2
#     Edge 26, Type (0, 1), BuildingBlock: CIFDUS_clean_linker_0, # of connection points: 2
# Relax obj value: 0.135
# Max RMSD: 0.194
# Mean RMSD: 0.140
data_MOF--net-anh--node1-CUKXOW_clean_sbu_0--node2-MIDCAF_clean_linker_0--edge1-CIFDUS_clean_linker_0
_symmetry_space_group_name_H-M    P1
_symmetry_Int_Tables_number       1
_symmetry_cell_setting            triclinic
loop_
_symmetry_equiv_pos_as_xyz
'x, y, z'
_cell_length_a     30.984222
_cell_length_b     30.337443
_cell_length_c     58.373793
_cell_angle_alpha  95.16821
_cell_angle_beta   90.317751
_cell_angle_gamma 113.72374
loop_
_atom_site_label
_atom_site_type_symbol
_atom_site_fract_x
_atom_site_fract_y
_atom_site_fract_z
_atom_type_partial_charge
Tb0 Tb 0.08375 0.5325 0.15423 0.0
C1 C 0.05135 0.48291 0.19925 0.0
Tb2 Tb 1.01593 0.42365 0.15048 0.0
O3 O 0.02859 0.55211 0.16948 0.0
O4 O 1.0102 0.49042 0.14646 0.0
O5 O 0.08627 0.51697 0.18969 0.0
C6 C 0.93415 0.34636 0.14702 0.0
O7 O 1.01659 0.4472 0.18693 0.0
C8 C 0.10571 0.43381 0.15116 0.0
C9 C 0.05488 0.47006 0.105 0.0
O10 O 0.97178 0.35009 0.15841 0.0
O11 O 0.94277 0.38583 0.13755 0.0
O12 O 0.06936 0.39233 0.14897 0.0
O13 O 0.08898 0.46564 0.15268 0.0
O14 O 0.0255 0.43137 0.11426 0.0
O15 O 0.08147 0.51173 0.11717 0.0
C16 C 0.15606 0.61754 0.15274 0.0
O17 O 0.11303 0.60762 0.14573 0.0
O18 O 0.15812 0.57991 0.16072 0.0
C19 C 0.99353 0.51413 0.15993 0.0
Tb20 Tb 0.50828 0.0066 0.50549 0.0
C21 C 0.54481 0.03379 0.4564 0.0
Tb22 Tb 0.61434 0.0743 0.5015 0.0
O23 O 0.48744 0.06538 0.4977 0.0
O24 O 0.55289 0.08021 0.5135 0.0
O25 O 0.51001 0.00504 0.46826 0.0
C26 C 0.68852 0.15331 0.49245 0.0
O27 O 0.58665 0.06368 0.46594 0.0
C28 C 0.59745 0.98292 0.50188 0.0
C29 C 0.57606 0.04895 0.55052 0.0
O30 O 0.64591 0.1395 0.48392 0.0
O31 O 0.68983 0.1223 0.50614 0.0
O32 O 0.63938 0.01721 0.506 0.0
O33 O 0.57054 1.0006 0.49415 0.0
O34 O 0.60719 0.08202 0.53862 0.0
O35 O 0.53738 0.01333 0.54062 0.0
C36 C 0.42914 0.92856 0.50968 0.0
O37 O 0.43459 0.97295 0.51548 0.0
O38 O 0.46785 0.92847 0.50149 0.0
C39 C 0.52842 0.09914 0.50457 0.0
Tb40 Tb 0.51026 0.54453 0.83384 0.0
C41 C 0.56179 0.55931 0.88226 0.0
Tb42 Tb 0.61811 0.56316 0.8362 0.0
O43 O 0.49265 0.47246 0.84498 0.0
O44 O 0.55239 0.50532 0.82617 0.0
O45 O 0.5255 0.56129 0.87073 0.0
C46 C 0.68837 0.53477 0.83565 0.0
O47 O 0.59912 0.55612 0.87218 0.0
C48 C 0.60596 0.6448 0.8404 0.0
C49 C 0.56858 0.56011 0.78841 0.0
O50 O 0.68858 0.57196 0.82608 0.0
O51 O 0.6497 0.51524 0.84637 0.0
O52 O 0.64759 0.64361 0.84146 0.0
O53 O 0.57637 0.60167 0.83808 0.0
O54 O 0.60451 0.55601 0.79913 0.0
O55 O 0.53111 0.56105 0.799 0.0
C56 C 0.42752 0.54668 0.82439 0.0
O57 O 0.46068 0.579 0.83799 0.0
O58 O 0.44026 0.51239 0.81682 0.0
C59 C 0.53039 0.46917 0.83692 0.0
C60 C 0.38504 0.8765 0.19755 0.0
C61 C 0.3933 0.85027 0.17829 0.0
C62 C 0.43835 0.86686 0.16924 0.0
C63 C 0.4748 0.90883 0.17955 0.0
H64 H 0.62022 0.01502 0.17502 0.0
H65 H 0.69292 0.06546 0.15716 0.0
H66 H 0.70182 0.18945 0.20258 0.0
H67 H 0.63037 0.13922 0.22084 0.0
H68 H 0.59314 0.10655 0.27396 0.0
H69 H 0.59867 0.11738 0.31589 0.0
H70 H 0.49502 0.97076 0.3176 0.0
H71 H 0.48804 0.96072 0.27585 0.0
H72 H 0.41436 0.93667 0.22323 0.0
H73 H 0.3507 0.86408 0.20497 0.0
H74 H 0.44542 0.84706 0.1544 0.0
H75 H 0.50948 0.92057 0.17251 0.0
N76 N 0.54347 0.00397 0.20006 0.0
N77 N 0.57681 0.05289 0.23449 0.0
N78 N 0.50444 0.9862 0.23457 0.0
C79 C 0.5788 0.04284 0.21148 0.0
C80 C 0.53993 0.02445 0.24619 0.0
C81 C 0.5058 0.97598 0.21153 0.0
C82 C 0.61995 0.07334 0.19932 0.0
C83 C 0.63754 0.05316 0.18098 0.0
C84 C 0.67899 0.08177 0.17084 0.0
C85 C 0.70243 0.13107 0.17853 0.0
C86 C 0.68396 0.1515 0.19632 0.0
C87 C 0.64334 0.12278 0.2068 0.0
C88 C 0.5403 0.03271 0.27156 0.0
C89 C 0.57114 0.07684 0.28332 0.0
C90 C 0.57454 0.08293 0.30736 0.0
C91 C 0.54762 0.04482 0.32018 0.0
C92 C 0.5158 1.00118 0.30836 0.0
C93 C 0.51196 0.99532 0.28435 0.0
C94 C 0.46689 0.93404 0.19935 0.0
C95 C 0.42156 0.91776 0.20809 0.0
C96 C 0.58859 0.39377 0.53497 0.0
C97 C 0.56395 0.37478 0.51364 0.0
C98 C 0.54833 0.40442 0.50166 0.0
C99 C 0.55647 0.45159 0.51118 0.0
H100 H 0.59372 0.61339 0.5008 0.0
H101 H 0.59394 0.68561 0.48467 0.0
H102 H 0.57211 0.74165 0.55228 0.0
H103 H 0.57066 0.67044 0.568 0.0
H104 H 0.63434 0.64667 0.61027 0.0
H105 H 0.64165 0.65323 0.65247 0.0
H106 H 0.57634 0.49768 0.65063 0.0
H107 H 0.56987 0.49068 0.60866 0.0
H108 H 0.61537 0.45278 0.56097 0.0
H109 H 0.60027 0.37207 0.54509 0.0
H110 H 0.52941 0.391 0.48513 0.0
H111 H 0.54302 0.47318 0.50197 0.0
N112 N 0.58142 0.55296 0.53412 0.0
N113 N 0.59293 0.59981 0.56987 0.0
N114 N 0.5911 0.52215 0.56841 0.0
C115 C 0.5857 0.59503 0.54661 0.0
C116 C 0.59552 0.56356 0.58086 0.0
C117 C 0.58441 0.51635 0.54516 0.0
C118 C 0.58249 0.6361 0.53572 0.0
C119 C 0.58831 0.64092 0.51206 0.0
C120 C 0.58872 0.68238 0.50287 0.0
C121 C 0.5828 0.71938 0.51715 0.0
C122 C 0.57587 0.71367 0.54062 0.0
C123 C 0.5756 0.67276 0.54973 0.0
C124 C 0.60145 0.56817 0.60618 0.0
C125 C 0.62182 0.61391 0.61888 0.0
C126 C 0.62627 0.61773 0.64292 0.0
C127 C 0.60951 0.57592 0.65453 0.0
C128 C 0.58946 0.53031 0.6419 0.0
C129 C 0.58589 0.52642 0.61793 0.0
C130 C 0.57999 0.46956 0.53289 0.0
C131 C 0.59676 0.44031 0.54431 0.0
C132 C 0.86172 0.38648 0.85693 0.0
C133 C 0.85409 0.39552 0.83441 0.0
C134 C 0.89175 0.40805 0.81952 0.0
C135 C 0.9376 0.42025 0.8282 0.0
H136 H 0.08088 0.4991 0.81439 0.0
H137 H 0.15445 0.53632 0.7949 0.0
H138 H 0.22002 0.62562 0.85791 0.0
H139 H 0.1469 0.58974 0.87702 0.0
H140 H 0.12075 0.54012 0.92328 0.0
H141 H 0.13178 0.5466 0.96497 0.0
H142 H 0.98863 0.44163 0.9692 0.0
H143 H 0.97765 0.43426 0.92756 0.0
H144 H 0.91256 0.39562 0.88368 0.0
H145 H 0.83341 0.37629 0.86882 0.0
H146 H 0.88656 0.41391 0.80186 0.0
H147 H 0.9665 0.43477 0.81689 0.0
N148 N 0.0285 0.4776 0.85029 0.0
N149 N 0.07588 0.51182 0.88405 0.0
N150 N 1.0002 0.45119 0.88596 0.0
C151 C 0.06974 0.50957 0.86089 0.0
C152 C 0.04143 0.48271 0.89671 0.0
C153 C 0.99348 0.44825 0.86276 0.0
C154 C 0.10884 0.54007 0.84748 0.0
C155 C 0.11058 0.52787 0.82381 0.0
C156 C 0.15265 0.54927 0.81262 0.0
C157 C 0.19342 0.58289 0.82501 0.0
C158 C 0.18948 0.59975 0.84779 0.0
C159 C 0.1476 0.57847 0.85893 0.0
C160 C 0.04831 0.4865 0.92202 0.0
C161 C 0.09159 0.51829 0.93306 0.0
C162 C 0.09791 0.52227 0.95697 0.0
C163 C 0.06115 0.49454 0.97032 0.0
C164 C 1.01788 0.46291 0.95931 0.0
C165 C 1.01154 0.45886 0.93543 0.0
C166 C 0.94609 0.4194 0.8518 0.0
C167 C 0.90744 0.39825 0.86557 0.0
C168 C 0.15601 0.71701 0.46435 0.0
C169 C 0.17738 0.71577 0.48541 0.0
C170 C 0.16389 0.67147 0.49494 0.0
C171 C 0.13095 0.6288 0.48313 0.0
H172 H 1.01115 0.48896 0.48888 0.0
H173 H 0.95037 0.41856 0.5041 0.0
H174 H 0.91118 0.34759 0.43509 0.0
H175 H 0.97111 0.41679 0.41986 0.0
H176 H 0.03344 0.4601 0.37943 0.0
H177 H 0.04122 0.45559 0.33802 0.0
H178 H 0.10904 0.61167 0.34199 0.0
H179 H 0.10268 0.6162 0.38367 0.0
H180 H 0.10958 0.67619 0.43567 0.0
H181 H 0.16613 0.75058 0.45651 0.0
H182 H 0.17999 0.66967 0.51116 0.0
H183 H 0.12239 0.59485 0.49042 0.0
N184 N 0.05479 0.54419 0.45673 0.0
N185 N 0.03399 0.50128 0.42004 0.0
N186 N 0.0869 0.58253 0.42379 0.0
C187 C 0.02957 0.50246 0.4432 0.0
C188 C 0.06258 0.54095 0.41019 0.0
C189 C 0.08337 0.58442 0.44702 0.0
C190 C 0.99581 0.45894 0.4531 0.0
C191 C 0.98984 0.45817 0.47698 0.0
C192 C 0.95524 0.41788 0.48573 0.0
C193 C 0.92583 0.37803 0.47071 0.0
C194 C 0.93293 0.37818 0.44701 0.0
C195 C 0.9675 0.41796 0.43832 0.0
C196 C 0.0673 0.53854 0.38491 0.0
C197 C 0.05001 0.49354 0.37153 0.0
C198 C 0.05427 0.49094 0.34771 0.0
C199 C 0.0755 0.53327 0.33661 0.0
C200 C 0.09302 0.57831 0.35 0.0
C201 C 0.08912 0.58091 0.3739 0.0
C202 C 0.11197 0.62974 0.46135 0.0
C203 C 0.12395 0.67438 0.45235 0.0
C204 C 0.56379 0.20007 0.8237 0.0
C205 C 0.60299 0.24328 0.82057 0.0
C206 C 0.64487 0.23988 0.81316 0.0
C207 C 0.64615 0.19471 0.80713 0.0
H208 H 0.63275 0.02294 0.83887 0.0
H209 H 0.63763 0.95241 0.85448 0.0
H210 H 0.56443 0.8627 0.79287 0.0
H211 H 0.55871 0.93177 0.77775 0.0
H212 H 0.57429 0.9772 0.73186 0.0
H213 H 0.56446 0.96763 0.69008 0.0
H214 H 0.59022 0.1186 0.69064 0.0
H215 H 0.60069 0.12863 0.73248 0.0
H216 H 0.53381 0.12233 0.81913 0.0
H217 H 0.53068 0.20082 0.82904 0.0
H218 H 0.67619 0.27212 0.81108 0.0
H219 H 0.67771 0.1932 0.7999 0.0
N220 N 0.60172 0.06814 0.8081 0.0
N221 N 0.59252 0.02187 0.77246 0.0
N222 N 0.59942 0.1015 0.7734 0.0
C223 C 0.59656 0.02567 0.7958 0.0
C224 C 0.5939 0.05937 0.7611 0.0
C225 C 0.60323 0.10617 0.79676 0.0
C226 C 0.5956 0.98318 0.80701 0.0
C227 C 0.617 0.98791 0.82892 0.0
C228 C 0.62013 0.9476 0.83776 0.0
C229 C 0.60139 0.90174 0.82495 0.0
C230 C 0.57864 0.89706 0.80343 0.0
C231 C 0.57577 0.93704 0.79463 0.0
C232 C 0.58836 0.05376 0.73562 0.0
C233 C 0.57801 0.0085 0.72315 0.0
C234 C 0.57205 0.00285 0.69918 0.0
C235 C 0.57651 0.04232 0.68709 0.0
C236 C 0.58705 0.08762 0.69948 0.0
C237 C 0.59282 0.09327 0.72349 0.0
C238 C 0.60615 0.15193 0.80905 0.0
C239 C 0.56547 0.15491 0.81807 0.0
C240 C 0.71619 0.52287 0.14856 0.0
C241 C 0.7215 0.47913 0.14287 0.0
C242 C 0.68094 0.43828 0.13424 0.0
C243 C 0.63776 0.44187 0.12996 0.0
H244 H 0.45933 0.43958 0.15015 0.0
H245 H 0.38033 0.43463 0.16009 0.0
H246 H 0.40414 0.56052 0.12448 0.0
H247 H 0.4819 0.5654 0.11486 0.0
H248 H 0.52505 0.55798 0.06395 0.0
H249 H 0.53481 0.57396 0.02379 0.0
H250 H 0.63281 0.50506 0.01787 0.0
H251 H 0.62458 0.49106 0.05831 0.0
H252 H 0.67119 0.56135 0.14728 0.0
H253 H 0.74628 0.55542 0.15493 0.0
H254 H 0.68287 0.40367 0.12997 0.0
H255 H 0.60848 0.41058 0.12176 0.0
N256 N 0.55464 0.49287 0.1336 0.0
N257 N 0.52881 0.51275 0.09949 0.0
N258 N 0.59995 0.50331 0.10055 0.0
C259 C 0.52153 0.50256 0.1217 0.0
C260 C 0.56748 0.51288 0.08875 0.0
C261 C 0.59434 0.49367 0.12286 0.0
C262 C 0.47731 0.50309 0.13182 0.0
C263 C 0.44799 0.4668 0.14499 0.0
C264 C 0.4024 0.46363 0.1504 0.0
C265 C 0.38533 0.49712 0.14308 0.0
C266 C 0.41571 0.53434 0.13073 0.0
C267 C 0.46059 0.53709 0.12513 0.0
C268 C 0.57397 0.52316 0.06436 0.0
C269 C 0.54878 0.54635 0.05409 0.0
C270 C 0.55421 0.55528 0.03097 0.0
C271 C 0.58444 0.54062 0.01742 0.0
C272 C 0.60981 0.51764 0.02779 0.0
C273 C 0.60488 0.50931 0.051 0.0
C274 C 0.63335 0.4861 0.13456 0.0
C275 C 0.67286 0.5263 0.14435 0.0
H276 H 0.18922 0.51708 0.15686 0.0
H277 H 0.13602 0.36216 0.14277 0.0
H278 H 0.21625 0.36704 0.14011 0.0
H279 H 0.30225 0.41517 0.14061 0.0
H280 H 0.35618 0.57035 0.15497 0.0
H281 H 0.27597 0.56551 0.15859 0.0
C282 C 0.19511 0.48453 0.15315 0.0
C283 C 0.15607 0.43942 0.14988 0.0
C284 C 0.24197 0.48756 0.15166 0.0
C285 C 0.16499 0.39752 0.14532 0.0
C286 C 0.2111 0.40021 0.14379 0.0
C287 C 0.29665 0.44794 0.14486 0.0
C288 C 0.33585 0.49309 0.14736 0.0
C289 C 0.25001 0.44501 0.14685 0.0
C290 C 0.32714 0.53504 0.15259 0.0
C291 C 0.28103 0.53234 0.15473 0.0
H292 H 0.77813 0.19313 0.51187 0.0
H293 H 0.68773 0.21232 0.46074 0.0
H294 H 0.75279 0.28436 0.45019 0.0
H295 H 0.83552 0.34065 0.45461 0.0
H296 H 0.9271 0.32425 0.50587 0.0
H297 H 0.86142 0.25285 0.51757 0.0
C298 C 0.77288 0.21324 0.49846 0.0
C299 C 0.72845 0.1973 0.48693 0.0
C300 C 0.81052 0.25511 0.49258 0.0
C301 C 0.72174 0.22378 0.46976 0.0
C302 C 0.75888 0.265 0.46371 0.0
C303 C 0.84106 0.32137 0.46834 0.0
C304 C 0.88601 0.33714 0.4792 0.0
C305 C 0.80341 0.28073 0.47487 0.0
C306 C 0.89267 0.31262 0.49729 0.0
C307 C 0.85523 0.27174 0.50387 0.0
H308 H 0.66569 0.7389 0.85197 0.0
H309 H 0.52539 0.64869 0.82444 0.0
H310 H 0.50939 0.71993 0.82009 0.0
H311 H 0.53711 0.80797 0.82153 0.0
H312 H 0.67966 0.89934 0.84614 0.0
H313 H 0.69279 0.82806 0.85459 0.0
C314 C 0.63149 0.73499 0.84527 0.0
C315 C 0.59619 0.68844 0.83909 0.0
C316 C 0.6231 0.7765 0.8422 0.0
C317 C 0.55231 0.68387 0.83016 0.0
C318 C 0.54345 0.72475 0.82736 0.0
C319 C 0.57109 0.81241 0.82877 0.0
C320 C 0.60743 0.8591 0.83299 0.0
C321 C 0.57879 0.77123 0.83302 0.0
C322 C 0.65086 0.86402 0.84287 0.0
C323 C 0.65857 0.82316 0.84751 0.0
H324 H 0.91726 0.45733 0.13027 0.0
H325 H 0.95638 0.55886 0.19119 0.0
H326 H 0.87657 0.55612 0.19201 0.0
H327 H 0.79581 0.52722 0.17484 0.0
H328 H 0.75674 0.42681 0.11338 0.0
H329 H 0.835 0.42585 0.11384 0.0
C330 C 0.90811 0.47816 0.14395 0.0
C331 C 0.94311 0.50811 0.16073 0.0
C332 C 0.86171 0.47668 0.14427 0.0
C333 C 0.93046 0.53553 0.17803 0.0
C334 C 0.88465 0.53403 0.17852 0.0
C335 C 0.80423 0.50517 0.16146 0.0
C336 C 0.76949 0.47705 0.14414 0.0
C337 C 0.85001 0.50521 0.16158 0.0
C338 C 0.78175 0.4483 0.12724 0.0
C339 C 0.82699 0.44802 0.12733 0.0
H340 H 0.33921 0.92254 0.5107 0.0
H341 H 0.42145 0.83665 0.50927 0.0
H342 H 0.34942 0.76242 0.50503 0.0
H343 H 0.264 0.7222 0.49721 0.0
H344 H 0.18159 0.80734 0.49513 0.0
H345 H 0.25237 0.88155 0.50545 0.0
C346 C 0.34111 0.8875 0.50987 0.0
C347 C 0.3853 0.88481 0.5102 0.0
C348 C 0.29953 0.84491 0.50664 0.0
C349 C 0.38764 0.8394 0.5089 0.0
C350 C 0.34653 0.797 0.50646 0.0
C351 C 0.26141 0.75692 0.49962 0.0
C352 C 0.21782 0.75947 0.49555 0.0
C353 C 0.30239 0.79932 0.50468 0.0
C354 C 0.21494 0.80469 0.49821 0.0
C355 C 0.25537 0.84704 0.50402 0.0
H356 H 0.59129 0.44473 0.81067 0.0
H357 H 0.49604 0.39862 0.8657 0.0
H358 H 0.51265 0.32649 0.86681 0.0
H359 H 0.55201 0.27505 0.85119 0.0
H360 H 0.64357 0.31921 0.79442 0.0
H361 H 0.63188 0.39392 0.79554 0.0
C362 C 0.57451 0.41904 0.82302 0.0
C363 C 0.54252 0.42695 0.83811 0.0
C364 C 0.58375 0.3773 0.82335 0.0
C365 C 0.52071 0.39322 0.85388 0.0
C366 C 0.53025 0.35202 0.85454 0.0
C367 C 0.5693 0.30079 0.83896 0.0
C368 C 0.59867 0.29093 0.82276 0.0
C369 C 0.5613 0.34336 0.83917 0.0
C370 C 0.62137 0.32562 0.80739 0.0
C371 C 0.61426 0.36835 0.80779 0.0
H372 H 0.64091 0.92731 0.48356 0.0
H373 H 0.52916 0.92489 0.52758 0.0
H374 H 0.50994 0.84049 0.53323 0.0
H375 H 0.52865 0.76936 0.52796 0.0
H376 H 0.64525 0.77314 0.48693 0.0
H377 H 0.65827 0.85428 0.47733 0.0
C378 C 0.61203 0.90788 0.49414 0.0
C379 C 0.58507 0.93144 0.5044 0.0
C380 C 0.60224 0.85964 0.49787 0.0
C381 C 0.5485 0.90661 0.51848 0.0
C382 C 0.5381 0.85859 0.52204 0.0
C383 C 0.5569 0.78784 0.51687 0.0
C384 C 0.58623 0.76528 0.5084 0.0
C385 C 0.56509 0.83494 0.51204 0.0
C386 C 0.62191 0.78939 0.49359 0.0
C387 C 0.62971 0.83605 0.48829 0.0
H388 H 0.67853 0.44584 0.84497 0.0
H389 H 0.77367 0.5747 0.81681 0.0
H390 H 0.83033 0.53807 0.80986 0.0
H391 H 0.85531 0.47333 0.81532 0.0
H392 H 0.76099 0.34398 0.84352 0.0
H393 H 0.70017 0.37632 0.84613 0.0
C394 C 0.71164 0.46574 0.83724 0.0
C395 C 0.72259 0.51311 0.83176 0.0
C396 C 0.74353 0.44417 0.833 0.0
C397 C 0.76506 0.53843 0.82146 0.0
C398 C 0.79718 0.5174 0.81734 0.0
C399 C 0.82089 0.45121 0.82122 0.0
C400 C 0.81274 0.40637 0.82932 0.0
C401 C 0.78702 0.47063 0.82336 0.0
C402 C 0.76813 0.37873 0.83731 0.0
C403 C 0.73362 0.3974 0.83901 0.0
H404 H 0.24819 0.63505 0.15653 0.0
H405 H 0.15298 0.70525 0.14982 0.0
H406 H 0.21941 0.78464 0.15514 0.0
H407 H 0.30362 0.83364 0.16528 0.0
H408 H 0.39871 0.76303 0.17117 0.0
H409 H 0.33338 0.68393 0.16213 0.0
C410 C 0.24219 0.6678 0.156 0.0
C411 C 0.19605 0.66474 0.15315 0.0
C412 C 0.28042 0.713 0.1589 0.0
C413 C 0.1884 0.70706 0.15211 0.0
C414 C 0.22627 0.75232 0.15521 0.0
C415 C 0.30995 0.80085 0.16423 0.0
C416 C 0.35556 0.8038 0.16902 0.0
C417 C 0.27227 0.75569 0.15914 0.0
C418 C 0.36379 0.76141 0.16742 0.0
C419 C 0.32647 0.71628 0.16244 0.0
H420 H 0.47721 0.14745 0.48961 0.0
H421 H 0.61222 0.16935 0.52032 0.0
H422 H 0.63797 0.2565 0.52147 0.0
H423 H 0.62057 0.32643 0.51677 0.0
H424 H 0.48209 0.3067 0.4917 0.0
H425 H 0.4599 0.21937 0.48453 0.0
C426 C 0.51232 0.17144 0.49639 0.0
C427 C 0.54306 0.1519 0.5045 0.0
C428 C 0.52632 0.22203 0.49797 0.0
C429 C 0.58824 0.18334 0.5135 0.0
C430 C 0.60295 0.23329 0.51431 0.0
C431 C 0.58539 0.30316 0.5098 0.0
C432 C 0.55285 0.32326 0.50521 0.0
C433 C 0.57203 0.253 0.50699 0.0
C434 C 0.50804 0.29247 0.49537 0.0
C435 C 0.49509 0.24236 0.49154 0.0
H436 H 0.40621 0.62494 0.82954 0.0
H437 H 0.34942 0.4735 0.80443 0.0
H438 H 0.27219 0.47462 0.79715 0.0
H439 H 0.21922 0.5151 0.80392 0.0
H440 H 0.27473 0.66641 0.82941 0.0
H441 H 0.35479 0.6694 0.82983 0.0
C442 C 0.3769 0.5924 0.82229 0.0
C443 C 0.38271 0.54889 0.81808 0.0
C444 C 0.33274 0.59339 0.8181 0.0
C445 C 0.34522 0.50716 0.80814 0.0
C446 C 0.30122 0.50783 0.80391 0.0
C447 C 0.24883 0.54936 0.80864 0.0
C448 C 0.24094 0.59026 0.81707 0.0
C449 C 0.29428 0.55034 0.80956 0.0
C450 C 0.2799 0.63421 0.82323 0.0
C451 C 0.32558 0.63581 0.82367 0.0
H452 H 0.91335 0.2563 0.15922 0.0
H453 H 0.85019 0.34896 0.13627 0.0
H454 H 0.77157 0.28805 0.14213 0.0
H455 H 0.72157 0.21189 0.15746 0.0
H456 H 0.78394 0.1179 0.17931 0.0
H457 H 0.86221 0.1754 0.16989 0.0
C458 C 0.88224 0.26268 0.15522 0.0
C459 C 0.88724 0.30696 0.14761 0.0
C460 C 0.8372 0.22738 0.15848 0.0
C461 C 0.84696 0.31498 0.14221 0.0
C462 C 0.80207 0.28031 0.14563 0.0
C463 C 0.75234 0.20384 0.15972 0.0
C464 C 0.74756 0.16127 0.16912 0.0
C465 C 0.79689 0.23692 0.15428 0.0
C466 C 0.78719 0.15059 0.17197 0.0
C467 C 0.83181 0.18353 0.16675 0.0
H468 H 0.09323 0.54389 0.07802 0.0
H469 H 1.02039 0.38832 0.07502 0.0
H470 H 1.01803 0.38235 0.03315 0.0
H471 H 0.03357 0.42112 -0.00256 0.0
H472 H 0.10364 0.57659 -1e-05 0.0
H473 H 0.11094 0.58266 0.042 0.0
C474 C 0.07722 0.50865 0.06821 0.0
C475 C 0.05675 0.46669 0.07966 0.0
C476 C 0.07543 0.50541 0.04407 0.0
C477 C 0.03605 0.4213 0.06668 0.0
C478 C 0.03469 0.41777 0.04271 0.0
C479 C 0.0502 0.45636 0.0072 0.0
C480 C 0.06766 0.49832 0.99567 0.0
C481 C 0.05362 0.4596 0.03126 0.0
C482 C 0.09014 0.54369 0.00849 0.0
C483 C 0.09408 0.54721 0.0325 0.0
H484 H 0.61059 0.07467 0.42541 0.0
H485 H 0.4616 0.98937 0.43085 0.0
H486 H 0.44906 0.98725 0.38937 0.0
H487 H 0.48042 0.00923 0.35161 0.0
H488 H 0.63016 0.09062 0.34615 0.0
H489 H 0.64198 0.09574 0.38773 0.0
C490 C 0.5753 0.05564 0.41759 0.0
C491 C 0.53714 0.03213 0.43126 0.0
C492 C 0.56835 0.05423 0.39374 0.0
C493 C 0.49171 0.00755 0.42075 0.0
C494 C 0.48445 0.00643 0.39703 0.0
C495 C 0.51573 0.02776 0.35946 0.0
C496 C 0.55426 0.04958 0.34567 0.0
C497 C 0.52255 0.02949 0.38336 0.0
C498 C 0.59964 0.07422 0.35628 0.0
C499 C 0.60657 0.07678 0.38008 0.0
H500 H 0.64503 0.59366 0.76204 0.0
H501 H 0.49268 0.53027 0.75849 0.0
H502 H 0.49215 0.53013 0.71672 0.0
H503 H 0.5348 0.54612 0.68108 0.0
H504 H 0.68668 0.61352 0.68419 0.0
H505 H 0.68786 0.61433 0.72631 0.0
C506 C 0.6118 0.57983 0.75207 0.0
C507 C 0.56899 0.56169 0.76326 0.0
C508 C 0.61172 0.58065 0.72806 0.0
C509 C 0.52611 0.54452 0.75025 0.0
C510 C 0.52574 0.5443 0.72637 0.0
C511 C 0.56804 0.56109 0.69109 0.0
C512 C 0.61058 0.57941 0.67985 0.0
C513 C 0.56827 0.56201 0.71511 0.0
C514 C 0.6536 0.5993 0.69273 0.0
C515 C 0.65422 0.59959 0.7167 0.0
H516 H 0.52268 0.98792 0.58072 0.0
H517 H 0.64553 0.1214 0.57745 0.0
H518 H 0.65634 0.13096 0.61926 0.0
H519 H 0.63086 0.10186 0.65683 0.0
H520 H 0.508 0.96881 0.66022 0.0
H521 H 0.49753 0.95854 0.61827 0.0
C522 C 0.55184 0.01914 0.58911 0.0
C523 C 0.5831 0.05394 0.57589 0.0
C524 C 0.55793 0.0245 0.61321 0.0
C525 C 0.62084 0.09399 0.58713 0.0
C526 C 0.62708 0.09959 0.61108 0.0
C527 C 0.60158 0.07083 0.64838 0.0
C528 C 0.57021 0.03623 0.66161 0.0
C529 C 0.59574 0.06519 0.62429 0.0
C530 C 0.5329 0.99575 0.6504 0.0
C531 C 0.52676 0.98996 0.62643 0.0
H532 H 0.63284 0.5711 0.91322 0.0
H533 H 0.48513 0.54458 0.90831 0.0
H534 H 0.47941 0.5371 0.94951 0.0
H535 H 0.51511 0.53425 0.98654 0.0
H536 H 0.66363 0.56443 0.99201 0.0
H537 H 0.6698 0.57325 0.9509 0.0
C538 C 0.59942 0.5639 0.92115 0.0
C539 C 0.55947 0.55825 0.90758 0.0
C540 C 0.5963 0.55974 0.94494 0.0
C541 C 0.51656 0.54928 0.91826 0.0
C542 C 0.51315 0.54478 0.94185 0.0
C543 C 0.5491 0.54361 0.97891 0.0
C544 C 0.58874 0.54832 0.9925 0.0
C545 C 0.55267 0.54952 0.95532 0.0
C546 C 0.63222 0.55958 0.98202 0.0
C547 C 0.63592 0.56503 0.95849 0.0
H548 H 0.11845 0.54477 0.23094 0.0
H549 H 0.97979 0.42772 0.2248 0.0
H550 H 0.9751 0.43352 0.26648 0.0
H551 H 1.00931 0.47243 0.30461 0.0
H552 H 0.14891 0.58752 0.31128 0.0
H553 H 0.15371 0.58244 0.26943 0.0
C554 C 0.08722 0.52046 0.2387 0.0
C555 C 0.04957 0.48588 0.22467 0.0
C556 C 0.08468 0.52384 0.26278 0.0
C557 C 1.00944 0.45461 0.23509 0.0
C558 C 1.0066 0.45794 0.25897 0.0
C559 C 0.0411 0.49602 0.29698 0.0
C560 C 0.07868 0.53025 0.31114 0.0
C561 C 0.04394 0.49244 0.27297 0.0
C562 C 0.11915 0.56123 0.30083 0.0
C563 C 0.12208 0.55813 0.27689 0.0
loop_
_geom_bond_atom_site_label_1
_geom_bond_atom_site_label_2
_geom_bond_distance
_geom_bond_site_symmetry_2
_ccdc_geom_bond_type
Tb0 O3 2.453 1_455 S
Tb0 O4 2.596 1_455 S
Tb0 O5 2.374 . S
Tb0 O13 2.343 . S
Tb0 O15 2.353 . S
Tb0 O17 2.427 . S
Tb0 O18 2.513 . S
C1 O5 1.251 . S
C1 O7 1.263 . S
Tb2 O4 2.343 1_455 S
Tb2 O7 2.353 . S
Tb2 O10 2.427 1_455 S
Tb2 O11 2.513 1_455 S
Tb2 O12 2.453 . S
Tb2 O13 2.596 . S
Tb2 O14 2.374 . S
O3 Tb0 2.453 1_655 S
O3 C19 1.245 . S
O4 Tb0 2.596 1_655 S
O4 Tb2 2.343 1_655 S
O4 C19 1.259 . S
O5 Tb0 2.374 . S
O5 C1 1.251 . S
C6 O10 1.275 . S
C6 O11 1.246 . S
O7 C1 1.263 . S
O7 Tb2 2.353 . S
C8 O12 1.245 . S
C8 O13 1.259 . S
C9 O14 1.250 . S
C9 O15 1.263 . S
O10 Tb2 2.427 1_655 S
O10 C6 1.275 . S
O11 Tb2 2.513 1_655 S
O11 C6 1.246 . S
O12 Tb2 2.453 . S
O12 C8 1.245 . S
O13 Tb0 2.343 . S
O13 Tb2 2.596 . S
O13 C8 1.259 . S
O14 Tb2 2.374 . S
O14 C9 1.250 . S
O15 Tb0 2.353 . S
O15 C9 1.263 . S
C16 O17 1.275 . S
C16 O18 1.246 . S
O17 Tb0 2.427 . S
O17 C16 1.275 . S
O18 Tb0 2.513 . S
O18 C16 1.246 . S
C19 O3 1.245 . S
C19 O4 1.259 . S
Tb20 O23 2.453 . S
Tb20 O24 2.596 . S
Tb20 O25 2.374 . S
Tb20 O33 2.343 1_545 S
Tb20 O35 2.353 . S
Tb20 O37 2.427 1_545 S
Tb20 O38 2.513 1_545 S
C21 O25 1.251 . S
C21 O27 1.263 . S
Tb22 O24 2.343 . S
Tb22 O27 2.353 . S
Tb22 O30 2.427 . S
Tb22 O31 2.513 . S
Tb22 O32 2.453 1_545 S
Tb22 O33 2.596 1_545 S
Tb22 O34 2.374 . S
O23 Tb20 2.453 . S
O23 C39 1.245 . S
O24 Tb20 2.596 . S
O24 Tb22 2.343 . S
O24 C39 1.259 . S
O25 Tb20 2.374 . S
O25 C21 1.251 . S
C26 O30 1.275 . S
C26 O31 1.246 . S
O27 C21 1.263 . S
O27 Tb22 2.353 . S
C28 O32 1.245 . S
C28 O33 1.259 . S
C29 O34 1.250 . S
C29 O35 1.263 . S
O30 Tb22 2.427 . S
O30 C26 1.275 . S
O31 Tb22 2.513 . S
O31 C26 1.246 . S
O32 Tb22 2.453 1_565 S
O32 C28 1.245 . S
O33 Tb20 2.343 1_565 S
O33 Tb22 2.596 1_565 S
O33 C28 1.259 . S
O34 Tb22 2.374 . S
O34 C29 1.250 . S
O35 Tb20 2.353 . S
O35 C29 1.263 . S
C36 O37 1.275 . S
C36 O38 1.246 . S
O37 Tb20 2.427 1_565 S
O37 C36 1.275 . S
O38 Tb20 2.513 1_565 S
O38 C36 1.246 . S
C39 O23 1.245 . S
C39 O24 1.259 . S
Tb40 O43 2.453 . S
Tb40 O44 2.596 . S
Tb40 O45 2.374 . S
Tb40 O53 2.343 . S
Tb40 O55 2.353 . S
Tb40 O57 2.427 . S
Tb40 O58 2.513 . S
C41 O45 1.251 . S
C41 O47 1.263 . S
Tb42 O44 2.343 . S
Tb42 O47 2.353 . S
Tb42 O50 2.427 . S
Tb42 O51 2.513 . S
Tb42 O52 2.453 . S
Tb42 O53 2.596 . S
Tb42 O54 2.374 . S
O43 Tb40 2.453 . S
O43 C59 1.245 . S
O44 Tb40 2.596 . S
O44 Tb42 2.343 . S
O44 C59 1.259 . S
O45 Tb40 2.374 . S
O45 C41 1.251 . S
C46 O50 1.275 . S
C46 O51 1.246 . S
O47 C41 1.263 . S
O47 Tb42 2.353 . S
C48 O52 1.245 . S
C48 O53 1.259 . S
C49 O54 1.250 . S
C49 O55 1.263 . S
O50 Tb42 2.427 . S
O50 C46 1.275 . S
O51 Tb42 2.513 . S
O51 C46 1.246 . S
O52 Tb42 2.453 . S
O52 C48 1.245 . S
O53 Tb40 2.343 . S
O53 Tb42 2.596 . S
O53 C48 1.259 . S
O54 Tb42 2.374 . S
O54 C49 1.250 . S
O55 Tb40 2.353 . S
O55 C49 1.263 . S
C56 O57 1.275 . S
C56 O58 1.246 . S
O57 Tb40 2.427 . S
O57 C56 1.275 . S
O58 Tb40 2.513 . S
O58 C56 1.246 . S
C59 O43 1.245 . S
C59 O44 1.259 . S
C60 C61 1.384 . S
C60 H73 0.947 . S
C60 C95 1.382 . S
C61 C60 1.384 . S
C61 C62 1.378 . S
C62 C61 1.378 . S
C62 C63 1.378 . S
C62 H74 0.952 . S
C63 C62 1.378 . S
C63 H75 0.950 . S
C63 C94 1.383 . S
H64 C83 0.947 . S
H65 C84 0.946 . S
H66 C86 0.953 . S
H67 C87 0.945 . S
H68 C89 0.952 . S
H69 C90 0.949 . S
H70 C92 0.950 1_565 S
H71 C93 0.948 1_565 S
H72 C95 0.951 . S
H73 C60 0.947 . S
H74 C62 0.952 . S
H75 C63 0.950 . S
N76 C79 1.382 . S
N76 C81 1.363 1_545 S
N77 C79 1.371 . S
N77 C80 1.372 . S
N78 C80 1.361 . S
N78 C81 1.377 1_545 S
C79 N76 1.382 . S
C79 N77 1.371 . S
C79 C82 1.480 . S
C80 N77 1.372 . S
C80 N78 1.361 . S
C80 C88 1.457 . S
C81 N76 1.363 1_565 S
C81 N78 1.377 1_565 S
C81 C94 1.479 . S
C82 C79 1.480 . S
C82 C83 1.383 . S
C82 C87 1.385 . S
C83 H64 0.947 . S
C83 C82 1.383 . S
C83 C84 1.388 . S
C84 H65 0.946 . S
C84 C83 1.388 . S
C84 C85 1.384 . S
C85 C84 1.384 . S
C85 C86 1.377 . S
C86 H66 0.953 . S
C86 C85 1.377 . S
C86 C87 1.369 . S
C87 H67 0.945 . S
C87 C82 1.385 . S
C87 C86 1.369 . S
C88 C80 1.457 . S
C88 C89 1.372 . S
C88 C93 1.364 . S
C89 H68 0.952 . S
C89 C88 1.372 . S
C89 C90 1.389 . S
C90 H69 0.949 . S
C90 C89 1.389 . S
C90 C91 1.387 . S
C91 C90 1.387 . S
C91 C92 1.372 . S
C92 H70 0.950 1_545 S
C92 C91 1.372 . S
C92 C93 1.379 . S
C93 H71 0.948 1_545 S
C93 C88 1.364 . S
C93 C92 1.379 . S
C94 C63 1.383 . S
C94 C81 1.479 . S
C94 C95 1.398 . S
C95 C60 1.382 . S
C95 H72 0.951 . S
C95 C94 1.398 . S
C96 C97 1.384 . S
C96 H109 0.947 . S
C96 C131 1.382 . S
C97 C96 1.384 . S
C97 C98 1.378 . S
C98 C97 1.378 . S
C98 C99 1.378 . S
C98 H110 0.952 . S
C99 C98 1.378 . S
C99 H111 0.950 . S
C99 C130 1.383 . S
H100 C119 0.947 . S
H101 C120 0.946 . S
H102 C122 0.953 . S
H103 C123 0.945 . S
H104 C125 0.952 . S
H105 C126 0.949 . S
H106 C128 0.950 . S
H107 C129 0.948 . S
H108 C131 0.951 . S
H109 C96 0.947 . S
H110 C98 0.952 . S
H111 C99 0.950 . S
N112 C115 1.382 . S
N112 C117 1.363 . S
N113 C115 1.371 . S
N113 C116 1.372 . S
N114 C116 1.361 . S
N114 C117 1.377 . S
C115 N112 1.382 . S
C115 N113 1.371 . S
C115 C118 1.480 . S
C116 N113 1.372 . S
C116 N114 1.361 . S
C116 C124 1.457 . S
C117 N112 1.363 . S
C117 N114 1.377 . S
C117 C130 1.479 . S
C118 C115 1.480 . S
C118 C119 1.383 . S
C118 C123 1.385 . S
C119 H100 0.947 . S
C119 C118 1.383 . S
C119 C120 1.388 . S
C120 H101 0.946 . S
C120 C119 1.388 . S
C120 C121 1.384 . S
C121 C120 1.384 . S
C121 C122 1.377 . S
C122 H102 0.953 . S
C122 C121 1.377 . S
C122 C123 1.369 . S
C123 H103 0.945 . S
C123 C118 1.385 . S
C123 C122 1.369 . S
C124 C116 1.457 . S
C124 C125 1.372 . S
C124 C129 1.364 . S
C125 H104 0.952 . S
C125 C124 1.372 . S
C125 C126 1.389 . S
C126 H105 0.949 . S
C126 C125 1.389 . S
C126 C127 1.387 . S
C127 C126 1.387 . S
C127 C128 1.372 . S
C128 H106 0.950 . S
C128 C127 1.372 . S
C128 C129 1.379 . S
C129 H107 0.948 . S
C129 C124 1.364 . S
C129 C128 1.379 . S
C130 C99 1.383 . S
C130 C117 1.479 . S
C130 C131 1.398 . S
C131 C96 1.382 . S
C131 H108 0.951 . S
C131 C130 1.398 . S
C132 C133 1.384 . S
C132 H145 0.947 . S
C132 C167 1.382 . S
C133 C132 1.384 . S
C133 C134 1.378 . S
C134 C133 1.378 . S
C134 C135 1.378 . S
C134 H146 0.952 . S
C135 C134 1.378 . S
C135 H147 0.950 1_655 S
C135 C166 1.383 . S
H136 C155 0.947 . S
H137 C156 0.946 . S
H138 C158 0.953 . S
H139 C159 0.945 . S
H140 C161 0.952 . S
H141 C162 0.949 . S
H142 C164 0.950 1_655 S
H143 C165 0.948 1_655 S
H144 C167 0.951 . S
H145 C132 0.947 . S
H146 C134 0.952 . S
H147 C135 0.950 1_455 S
N148 C151 1.382 . S
N148 C153 1.363 . S
N149 C151 1.371 . S
N149 C152 1.372 . S
N150 C152 1.361 . S
N150 C153 1.377 . S
C151 N148 1.382 . S
C151 N149 1.371 . S
C151 C154 1.480 . S
C152 N149 1.372 . S
C152 N150 1.361 . S
C152 C160 1.457 . S
C153 N148 1.363 . S
C153 N150 1.377 . S
C153 C166 1.479 1_455 S
C154 C151 1.480 . S
C154 C155 1.383 . S
C154 C159 1.385 . S
C155 H136 0.947 . S
C155 C154 1.383 . S
C155 C156 1.388 . S
C156 H137 0.946 . S
C156 C155 1.388 . S
C156 C157 1.384 . S
C157 C156 1.384 . S
C157 C158 1.377 . S
C158 H138 0.953 . S
C158 C157 1.377 . S
C158 C159 1.369 . S
C159 H139 0.945 . S
C159 C154 1.385 . S
C159 C158 1.369 . S
C160 C152 1.457 . S
C160 C161 1.372 . S
C160 C165 1.364 . S
C161 H140 0.952 . S
C161 C160 1.372 . S
C161 C162 1.389 . S
C162 H141 0.949 . S
C162 C161 1.389 . S
C162 C163 1.387 . S
C163 C162 1.387 . S
C163 C164 1.372 . S
C164 H142 0.950 1_455 S
C164 C163 1.372 . S
C164 C165 1.379 . S
C165 H143 0.948 1_455 S
C165 C160 1.364 . S
C165 C164 1.379 . S
C166 C135 1.383 . S
C166 C153 1.479 1_655 S
C166 C167 1.398 . S
C167 C132 1.382 . S
C167 H144 0.951 . S
C167 C166 1.398 . S
C168 C169 1.384 . S
C168 H181 0.947 . S
C168 C203 1.382 . S
C169 C168 1.384 . S
C169 C170 1.378 . S
C170 C169 1.378 . S
C170 C171 1.378 . S
C170 H182 0.952 . S
C171 C170 1.378 . S
C171 H183 0.950 . S
C171 C202 1.383 . S
H172 C191 0.947 . S
H173 C192 0.946 . S
H174 C194 0.953 . S
H175 C195 0.945 . S
H176 C197 0.952 . S
H177 C198 0.949 . S
H178 C200 0.950 . S
H179 C201 0.948 . S
H180 C203 0.951 . S
H181 C168 0.947 . S
H182 C170 0.952 . S
H183 C171 0.950 . S
N184 C187 1.382 1_455 S
N184 C189 1.363 . S
N185 C187 1.371 . S
N185 C188 1.372 1_655 S
N186 C188 1.361 . S
N186 C189 1.377 . S
C187 N184 1.382 1_655 S
C187 N185 1.371 . S
C187 C190 1.480 . S
C188 N185 1.372 1_455 S
C188 N186 1.361 . S
C188 C196 1.457 . S
C189 N184 1.363 . S
C189 N186 1.377 . S
C189 C202 1.479 . S
C190 C187 1.480 . S
C190 C191 1.383 . S
C190 C195 1.385 . S
C191 H172 0.947 . S
C191 C190 1.383 . S
C191 C192 1.388 . S
C192 H173 0.946 . S
C192 C191 1.388 . S
C192 C193 1.384 . S
C193 C192 1.384 . S
C193 C194 1.377 . S
C194 H174 0.953 . S
C194 C193 1.377 . S
C194 C195 1.369 . S
C195 H175 0.945 . S
C195 C190 1.385 . S
C195 C194 1.369 . S
C196 C188 1.457 . S
C196 C197 1.372 1_455 S
C196 C201 1.364 . S
C197 H176 0.952 . S
C197 C196 1.372 1_655 S
C197 C198 1.389 . S
C198 H177 0.949 . S
C198 C197 1.389 . S
C198 C199 1.387 1_655 S
C199 C198 1.387 1_455 S
C199 C200 1.372 . S
C200 H178 0.950 . S
C200 C199 1.372 . S
C200 C201 1.379 . S
C201 H179 0.948 . S
C201 C196 1.364 . S
C201 C200 1.379 . S
C202 C171 1.383 . S
C202 C189 1.479 . S
C202 C203 1.398 . S
C203 C168 1.382 . S
C203 H180 0.951 . S
C203 C202 1.398 . S
C204 C205 1.384 . S
C204 H217 0.947 . S
C204 C239 1.382 . S
C205 C204 1.384 . S
C205 C206 1.378 . S
C206 C205 1.378 . S
C206 C207 1.378 . S
C206 H218 0.952 . S
C207 C206 1.378 . S
C207 H219 0.950 . S
C207 C238 1.383 . S
H208 C227 0.947 . S
H209 C228 0.946 . S
H210 C230 0.953 . S
H211 C231 0.945 . S
H212 C233 0.952 . S
H213 C234 0.949 . S
H214 C236 0.950 . S
H215 C237 0.948 . S
H216 C239 0.951 . S
H217 C204 0.947 . S
H218 C206 0.952 . S
H219 C207 0.950 . S
N220 C223 1.382 1_545 S
N220 C225 1.363 . S
N221 C223 1.371 . S
N221 C224 1.372 1_565 S
N222 C224 1.361 . S
N222 C225 1.377 . S
C223 N220 1.382 1_565 S
C223 N221 1.371 . S
C223 C226 1.480 . S
C224 N221 1.372 1_545 S
C224 N222 1.361 . S
C224 C232 1.457 . S
C225 N220 1.363 . S
C225 N222 1.377 . S
C225 C238 1.479 . S
C226 C223 1.480 . S
C226 C227 1.383 . S
C226 C231 1.385 . S
C227 H208 0.947 . S
C227 C226 1.383 . S
C227 C228 1.388 . S
C228 H209 0.946 . S
C228 C227 1.388 . S
C228 C229 1.384 . S
C229 C228 1.384 . S
C229 C230 1.377 . S
C230 H210 0.953 . S
C230 C229 1.377 . S
C230 C231 1.369 . S
C231 H211 0.945 . S
C231 C226 1.385 . S
C231 C230 1.369 . S
C232 C224 1.457 . S
C232 C233 1.372 1_545 S
C232 C237 1.364 . S
C233 H212 0.952 . S
C233 C232 1.372 1_565 S
C233 C234 1.389 . S
C234 H213 0.949 . S
C234 C233 1.389 . S
C234 C235 1.387 1_565 S
C235 C234 1.387 1_545 S
C235 C236 1.372 . S
C236 H214 0.950 . S
C236 C235 1.372 . S
C236 C237 1.379 . S
C237 H215 0.948 . S
C237 C232 1.364 . S
C237 C236 1.379 . S
C238 C207 1.383 . S
C238 C225 1.479 . S
C238 C239 1.398 . S
C239 C204 1.382 . S
C239 H216 0.951 . S
C239 C238 1.398 . S
C240 C241 1.384 . S
C240 H253 0.947 . S
C240 C275 1.382 . S
C241 C240 1.384 . S
C241 C242 1.378 . S
C242 C241 1.378 . S
C242 C243 1.378 . S
C242 H254 0.952 . S
C243 C242 1.378 . S
C243 H255 0.950 . S
C243 C274 1.383 . S
H244 C263 0.947 . S
H245 C264 0.946 . S
H246 C266 0.953 . S
H247 C267 0.945 . S
H248 C269 0.952 . S
H249 C270 0.949 . S
H250 C272 0.950 . S
H251 C273 0.948 . S
H252 C275 0.951 . S
H253 C240 0.947 . S
H254 C242 0.952 . S
H255 C243 0.950 . S
N256 C259 1.382 . S
N256 C261 1.363 . S
N257 C259 1.371 . S
N257 C260 1.372 . S
N258 C260 1.361 . S
N258 C261 1.377 . S
C259 N256 1.382 . S
C259 N257 1.371 . S
C259 C262 1.480 . S
C260 N257 1.372 . S
C260 N258 1.361 . S
C260 C268 1.457 . S
C261 N256 1.363 . S
C261 N258 1.377 . S
C261 C274 1.479 . S
C262 C259 1.480 . S
C262 C263 1.383 . S
C262 C267 1.385 . S
C263 H244 0.947 . S
C263 C262 1.383 . S
C263 C264 1.388 . S
C264 H245 0.946 . S
C264 C263 1.388 . S
C264 C265 1.384 . S
C265 C264 1.384 . S
C265 C266 1.377 . S
C266 H246 0.953 . S
C266 C265 1.377 . S
C266 C267 1.369 . S
C267 H247 0.945 . S
C267 C262 1.385 . S
C267 C266 1.369 . S
C268 C260 1.457 . S
C268 C269 1.372 . S
C268 C273 1.364 . S
C269 H248 0.952 . S
C269 C268 1.372 . S
C269 C270 1.389 . S
C270 H249 0.949 . S
C270 C269 1.389 . S
C270 C271 1.387 . S
C271 C270 1.387 . S
C271 C272 1.372 . S
C272 H250 0.950 . S
C272 C271 1.372 . S
C272 C273 1.379 . S
C273 H251 0.948 . S
C273 C268 1.364 . S
C273 C272 1.379 . S
C274 C243 1.383 . S
C274 C261 1.479 . S
C274 C275 1.398 . S
C275 C240 1.382 . S
C275 H252 0.951 . S
C275 C274 1.398 . S
H276 C282 0.930 . S
H277 C285 0.930 . S
H278 C286 0.930 . S
H279 C287 0.930 . S
H280 C290 0.930 . S
H281 C291 0.930 . S
C282 H276 0.930 . S
C282 C283 1.355 . S
C282 C284 1.415 . S
C283 C282 1.355 . S
C283 C285 1.419 . S
C284 C282 1.415 . S
C284 C289 1.425 . S
C284 C291 1.409 . S
C285 H277 0.930 . S
C285 C283 1.419 . S
C285 C286 1.362 . S
C286 H278 0.930 . S
C286 C285 1.362 . S
C286 C289 1.409 . S
C287 H279 0.930 . S
C287 C288 1.355 . S
C287 C289 1.415 . S
C288 C287 1.355 . S
C288 C290 1.419 . S
C289 C284 1.425 . S
C289 C286 1.409 . S
C289 C287 1.415 . S
C290 H280 0.930 . S
C290 C288 1.419 . S
C290 C291 1.362 . S
C291 H281 0.930 . S
C291 C284 1.409 . S
C291 C290 1.362 . S
H292 C298 0.930 . S
H293 C301 0.930 . S
H294 C302 0.930 . S
H295 C303 0.930 . S
H296 C306 0.930 . S
H297 C307 0.930 . S
C298 H292 0.930 . S
C298 C299 1.355 . S
C298 C300 1.415 . S
C299 C298 1.355 . S
C299 C301 1.419 . S
C300 C298 1.415 . S
C300 C305 1.425 . S
C300 C307 1.409 . S
C301 H293 0.930 . S
C301 C299 1.419 . S
C301 C302 1.362 . S
C302 H294 0.930 . S
C302 C301 1.362 . S
C302 C305 1.409 . S
C303 H295 0.930 . S
C303 C304 1.355 . S
C303 C305 1.415 . S
C304 C303 1.355 . S
C304 C306 1.419 . S
C305 C300 1.425 . S
C305 C302 1.409 . S
C305 C303 1.415 . S
C306 H296 0.930 . S
C306 C304 1.419 . S
C306 C307 1.362 . S
C307 H297 0.930 . S
C307 C300 1.409 . S
C307 C306 1.362 . S
H308 C314 0.930 . S
H309 C317 0.930 . S
H310 C318 0.930 . S
H311 C319 0.930 . S
H312 C322 0.930 . S
H313 C323 0.930 . S
C314 H308 0.930 . S
C314 C315 1.355 . S
C314 C316 1.415 . S
C315 C314 1.355 . S
C315 C317 1.419 . S
C316 C314 1.415 . S
C316 C321 1.425 . S
C316 C323 1.409 . S
C317 H309 0.930 . S
C317 C315 1.419 . S
C317 C318 1.362 . S
C318 H310 0.930 . S
C318 C317 1.362 . S
C318 C321 1.409 . S
C319 H311 0.930 . S
C319 C320 1.355 . S
C319 C321 1.415 . S
C320 C319 1.355 . S
C320 C322 1.419 . S
C321 C316 1.425 . S
C321 C318 1.409 . S
C321 C319 1.415 . S
C322 H312 0.930 . S
C322 C320 1.419 . S
C322 C323 1.362 . S
C323 H313 0.930 . S
C323 C316 1.409 . S
C323 C322 1.362 . S
H324 C330 0.930 . S
H325 C333 0.930 . S
H326 C334 0.930 . S
H327 C335 0.930 . S
H328 C338 0.930 . S
H329 C339 0.930 . S
C330 H324 0.930 . S
C330 C331 1.355 . S
C330 C332 1.415 . S
C331 C330 1.355 . S
C331 C333 1.419 . S
C332 C330 1.415 . S
C332 C337 1.425 . S
C332 C339 1.409 . S
C333 H325 0.930 . S
C333 C331 1.419 . S
C333 C334 1.362 . S
C334 H326 0.930 . S
C334 C333 1.362 . S
C334 C337 1.409 . S
C335 H327 0.930 . S
C335 C336 1.355 . S
C335 C337 1.415 . S
C336 C335 1.355 . S
C336 C338 1.419 . S
C337 C332 1.425 . S
C337 C334 1.409 . S
C337 C335 1.415 . S
C338 H328 0.930 . S
C338 C336 1.419 . S
C338 C339 1.362 . S
C339 H329 0.930 . S
C339 C332 1.409 . S
C339 C338 1.362 . S
H340 C346 0.930 . S
H341 C349 0.930 . S
H342 C350 0.930 . S
H343 C351 0.930 . S
H344 C354 0.930 . S
H345 C355 0.930 . S
C346 H340 0.930 . S
C346 C347 1.355 . S
C346 C348 1.415 . S
C347 C346 1.355 . S
C347 C349 1.419 . S
C348 C346 1.415 . S
C348 C353 1.425 . S
C348 C355 1.409 . S
C349 H341 0.930 . S
C349 C347 1.419 . S
C349 C350 1.362 . S
C350 H342 0.930 . S
C350 C349 1.362 . S
C350 C353 1.409 . S
C351 H343 0.930 . S
C351 C352 1.355 . S
C351 C353 1.415 . S
C352 C351 1.355 . S
C352 C354 1.419 . S
C353 C348 1.425 . S
C353 C350 1.409 . S
C353 C351 1.415 . S
C354 H344 0.930 . S
C354 C352 1.419 . S
C354 C355 1.362 . S
C355 H345 0.930 . S
C355 C348 1.409 . S
C355 C354 1.362 . S
H356 C362 0.930 . S
H357 C365 0.930 . S
H358 C366 0.930 . S
H359 C367 0.930 . S
H360 C370 0.930 . S
H361 C371 0.930 . S
C362 H356 0.930 . S
C362 C363 1.355 . S
C362 C364 1.415 . S
C363 C362 1.355 . S
C363 C365 1.419 . S
C364 C362 1.415 . S
C364 C369 1.425 . S
C364 C371 1.409 . S
C365 H357 0.930 . S
C365 C363 1.419 . S
C365 C366 1.362 . S
C366 H358 0.930 . S
C366 C365 1.362 . S
C366 C369 1.409 . S
C367 H359 0.930 . S
C367 C368 1.355 . S
C367 C369 1.415 . S
C368 C367 1.355 . S
C368 C370 1.419 . S
C369 C364 1.425 . S
C369 C366 1.409 . S
C369 C367 1.415 . S
C370 H360 0.930 . S
C370 C368 1.419 . S
C370 C371 1.362 . S
C371 H361 0.930 . S
C371 C364 1.409 . S
C371 C370 1.362 . S
H372 C378 0.930 . S
H373 C381 0.930 . S
H374 C382 0.930 . S
H375 C383 0.930 . S
H376 C386 0.930 . S
H377 C387 0.930 . S
C378 H372 0.930 . S
C378 C379 1.355 . S
C378 C380 1.415 . S
C379 C378 1.355 . S
C379 C381 1.419 . S
C380 C378 1.415 . S
C380 C385 1.425 . S
C380 C387 1.409 . S
C381 H373 0.930 . S
C381 C379 1.419 . S
C381 C382 1.362 . S
C382 H374 0.930 . S
C382 C381 1.362 . S
C382 C385 1.409 . S
C383 H375 0.930 . S
C383 C384 1.355 . S
C383 C385 1.415 . S
C384 C383 1.355 . S
C384 C386 1.419 . S
C385 C380 1.425 . S
C385 C382 1.409 . S
C385 C383 1.415 . S
C386 H376 0.930 . S
C386 C384 1.419 . S
C386 C387 1.362 . S
C387 H377 0.930 . S
C387 C380 1.409 . S
C387 C386 1.362 . S
H388 C394 0.930 . S
H389 C397 0.930 . S
H390 C398 0.930 . S
H391 C399 0.930 . S
H392 C402 0.930 . S
H393 C403 0.930 . S
C394 H388 0.930 . S
C394 C395 1.355 . S
C394 C396 1.415 . S
C395 C394 1.355 . S
C395 C397 1.419 . S
C396 C394 1.415 . S
C396 C401 1.425 . S
C396 C403 1.409 . S
C397 H389 0.930 . S
C397 C395 1.419 . S
C397 C398 1.362 . S
C398 H390 0.930 . S
C398 C397 1.362 . S
C398 C401 1.409 . S
C399 H391 0.930 . S
C399 C400 1.355 . S
C399 C401 1.415 . S
C400 C399 1.355 . S
C400 C402 1.419 . S
C401 C396 1.425 . S
C401 C398 1.409 . S
C401 C399 1.415 . S
C402 H392 0.930 . S
C402 C400 1.419 . S
C402 C403 1.362 . S
C403 H393 0.930 . S
C403 C396 1.409 . S
C403 C402 1.362 . S
H404 C410 0.930 . S
H405 C413 0.930 . S
H406 C414 0.930 . S
H407 C415 0.930 . S
H408 C418 0.930 . S
H409 C419 0.930 . S
C410 H404 0.930 . S
C410 C411 1.355 . S
C410 C412 1.415 . S
C411 C410 1.355 . S
C411 C413 1.419 . S
C412 C410 1.415 . S
C412 C417 1.425 . S
C412 C419 1.409 . S
C413 H405 0.930 . S
C413 C411 1.419 . S
C413 C414 1.362 . S
C414 H406 0.930 . S
C414 C413 1.362 . S
C414 C417 1.409 . S
C415 H407 0.930 . S
C415 C416 1.355 . S
C415 C417 1.415 . S
C416 C415 1.355 . S
C416 C418 1.419 . S
C417 C412 1.425 . S
C417 C414 1.409 . S
C417 C415 1.415 . S
C418 H408 0.930 . S
C418 C416 1.419 . S
C418 C419 1.362 . S
C419 H409 0.930 . S
C419 C412 1.409 . S
C419 C418 1.362 . S
H420 C426 0.930 . S
H421 C429 0.930 . S
H422 C430 0.930 . S
H423 C431 0.930 . S
H424 C434 0.930 . S
H425 C435 0.930 . S
C426 H420 0.930 . S
C426 C427 1.355 . S
C426 C428 1.415 . S
C427 C426 1.355 . S
C427 C429 1.419 . S
C428 C426 1.415 . S
C428 C433 1.425 . S
C428 C435 1.409 . S
C429 H421 0.930 . S
C429 C427 1.419 . S
C429 C430 1.362 . S
C430 H422 0.930 . S
C430 C429 1.362 . S
C430 C433 1.409 . S
C431 H423 0.930 . S
C431 C432 1.355 . S
C431 C433 1.415 . S
C432 C431 1.355 . S
C432 C434 1.419 . S
C433 C428 1.425 . S
C433 C430 1.409 . S
C433 C431 1.415 . S
C434 H424 0.930 . S
C434 C432 1.419 . S
C434 C435 1.362 . S
C435 H425 0.930 . S
C435 C428 1.409 . S
C435 C434 1.362 . S
H436 C442 0.930 . S
H437 C445 0.930 . S
H438 C446 0.930 . S
H439 C447 0.930 . S
H440 C450 0.930 . S
H441 C451 0.930 . S
C442 H436 0.930 . S
C442 C443 1.355 . S
C442 C444 1.415 . S
C443 C442 1.355 . S
C443 C445 1.419 . S
C444 C442 1.415 . S
C444 C449 1.425 . S
C444 C451 1.409 . S
C445 H437 0.930 . S
C445 C443 1.419 . S
C445 C446 1.362 . S
C446 H438 0.930 . S
C446 C445 1.362 . S
C446 C449 1.409 . S
C447 H439 0.930 . S
C447 C448 1.355 . S
C447 C449 1.415 . S
C448 C447 1.355 . S
C448 C450 1.419 . S
C449 C444 1.425 . S
C449 C446 1.409 . S
C449 C447 1.415 . S
C450 H440 0.930 . S
C450 C448 1.419 . S
C450 C451 1.362 . S
C451 H441 0.930 . S
C451 C444 1.409 . S
C451 C450 1.362 . S
H452 C458 0.930 . S
H453 C461 0.930 . S
H454 C462 0.930 . S
H455 C463 0.930 . S
H456 C466 0.930 . S
H457 C467 0.930 . S
C458 H452 0.930 . S
C458 C459 1.355 . S
C458 C460 1.415 . S
C459 C458 1.355 . S
C459 C461 1.419 . S
C460 C458 1.415 . S
C460 C465 1.425 . S
C460 C467 1.409 . S
C461 H453 0.930 . S
C461 C459 1.419 . S
C461 C462 1.362 . S
C462 H454 0.930 . S
C462 C461 1.362 . S
C462 C465 1.409 . S
C463 H455 0.930 . S
C463 C464 1.355 . S
C463 C465 1.415 . S
C464 C463 1.355 . S
C464 C466 1.419 . S
C465 C460 1.425 . S
C465 C462 1.409 . S
C465 C463 1.415 . S
C466 H456 0.930 . S
C466 C464 1.419 . S
C466 C467 1.362 . S
C467 H457 0.930 . S
C467 C460 1.409 . S
C467 C466 1.362 . S
H468 C474 0.930 . S
H469 C477 0.930 . S
H470 C478 0.930 . S
H471 C479 0.930 . S
H472 C482 0.930 . S
H473 C483 0.930 . S
C474 H468 0.930 . S
C474 C475 1.355 . S
C474 C476 1.415 . S
C475 C474 1.355 . S
C475 C477 1.419 . S
C476 C474 1.415 . S
C476 C481 1.425 . S
C476 C483 1.409 . S
C477 H469 0.930 . S
C477 C475 1.419 . S
C477 C478 1.362 . S
C478 H470 0.930 . S
C478 C477 1.362 . S
C478 C481 1.409 . S
C479 H471 0.930 . S
C479 C480 1.355 . S
C479 C481 1.415 . S
C480 C479 1.355 . S
C480 C482 1.419 . S
C481 C476 1.425 . S
C481 C478 1.409 . S
C481 C479 1.415 . S
C482 H472 0.930 . S
C482 C480 1.419 . S
C482 C483 1.362 . S
C483 H473 0.930 . S
C483 C476 1.409 . S
C483 C482 1.362 . S
H484 C490 0.930 . S
H485 C493 0.930 . S
H486 C494 0.930 . S
H487 C495 0.930 . S
H488 C498 0.930 . S
H489 C499 0.930 . S
C490 H484 0.930 . S
C490 C491 1.355 . S
C490 C492 1.415 . S
C491 C490 1.355 . S
C491 C493 1.419 . S
C492 C490 1.415 . S
C492 C497 1.425 . S
C492 C499 1.409 . S
C493 H485 0.930 . S
C493 C491 1.419 . S
C493 C494 1.362 . S
C494 H486 0.930 . S
C494 C493 1.362 . S
C494 C497 1.409 . S
C495 H487 0.930 . S
C495 C496 1.355 . S
C495 C497 1.415 . S
C496 C495 1.355 . S
C496 C498 1.419 . S
C497 C492 1.425 . S
C497 C494 1.409 . S
C497 C495 1.415 . S
C498 H488 0.930 . S
C498 C496 1.419 . S
C498 C499 1.362 . S
C499 H489 0.930 . S
C499 C492 1.409 . S
C499 C498 1.362 . S
H500 C506 0.930 . S
H501 C509 0.930 . S
H502 C510 0.930 . S
H503 C511 0.930 . S
H504 C514 0.930 . S
H505 C515 0.930 . S
C506 H500 0.930 . S
C506 C507 1.355 . S
C506 C508 1.415 . S
C507 C506 1.355 . S
C507 C509 1.419 . S
C508 C506 1.415 . S
C508 C513 1.425 . S
C508 C515 1.409 . S
C509 H501 0.930 . S
C509 C507 1.419 . S
C509 C510 1.362 . S
C510 H502 0.930 . S
C510 C509 1.362 . S
C510 C513 1.409 . S
C511 H503 0.930 . S
C511 C512 1.355 . S
C511 C513 1.415 . S
C512 C511 1.355 . S
C512 C514 1.419 . S
C513 C508 1.425 . S
C513 C510 1.409 . S
C513 C511 1.415 . S
C514 H504 0.930 . S
C514 C512 1.419 . S
C514 C515 1.362 . S
C515 H505 0.930 . S
C515 C508 1.409 . S
C515 C514 1.362 . S
H516 C522 0.930 . S
H517 C525 0.930 . S
H518 C526 0.930 . S
H519 C527 0.930 . S
H520 C530 0.930 . S
H521 C531 0.930 . S
C522 H516 0.930 . S
C522 C523 1.355 1_565 S
C522 C524 1.415 . S
C523 C522 1.355 1_545 S
C523 C525 1.419 . S
C524 C522 1.415 . S
C524 C529 1.425 1_565 S
C524 C531 1.409 . S
C525 H517 0.930 . S
C525 C523 1.419 . S
C525 C526 1.362 . S
C526 H518 0.930 . S
C526 C525 1.362 . S
C526 C529 1.409 . S
C527 H519 0.930 . S
C527 C528 1.355 . S
C527 C529 1.415 . S
C528 C527 1.355 . S
C528 C530 1.419 1_545 S
C529 C524 1.425 1_545 S
C529 C526 1.409 . S
C529 C527 1.415 . S
C530 H520 0.930 . S
C530 C528 1.419 1_565 S
C530 C531 1.362 . S
C531 H521 0.930 . S
C531 C524 1.409 . S
C531 C530 1.362 . S
H532 C538 0.930 . S
H533 C541 0.930 . S
H534 C542 0.930 . S
H535 C543 0.930 . S
H536 C546 0.930 . S
H537 C547 0.930 . S
C538 H532 0.930 . S
C538 C539 1.355 . S
C538 C540 1.415 . S
C539 C538 1.355 . S
C539 C541 1.419 . S
C540 C538 1.415 . S
C540 C545 1.425 . S
C540 C547 1.409 . S
C541 H533 0.930 . S
C541 C539 1.419 . S
C541 C542 1.362 . S
C542 H534 0.930 . S
C542 C541 1.362 . S
C542 C545 1.409 . S
C543 H535 0.930 . S
C543 C544 1.355 . S
C543 C545 1.415 . S
C544 C543 1.355 . S
C544 C546 1.419 . S
C545 C540 1.425 . S
C545 C542 1.409 . S
C545 C543 1.415 . S
C546 H536 0.930 . S
C546 C544 1.419 . S
C546 C547 1.362 . S
C547 H537 0.930 . S
C547 C540 1.409 . S
C547 C546 1.362 . S
H548 C554 0.930 . S
H549 C557 0.930 . S
H550 C558 0.930 . S
H551 C559 0.930 . S
H552 C562 0.930 . S
H553 C563 0.930 . S
C554 H548 0.930 . S
C554 C555 1.355 . S
C554 C556 1.415 . S
C555 C554 1.355 . S
C555 C557 1.419 1_455 S
C556 C554 1.415 . S
C556 C561 1.425 1_455 S
C556 C563 1.409 . S
C557 H549 0.930 . S
C557 C555 1.419 1_655 S
C557 C558 1.362 . S
C558 H550 0.930 . S
C558 C557 1.362 . S
C558 C561 1.409 . S
C559 H551 0.930 . S
C559 C560 1.355 1_655 S
C559 C561 1.415 . S
C560 C559 1.355 1_455 S
C560 C562 1.419 . S
C561 C556 1.425 1_655 S
C561 C558 1.409 . S
C561 C559 1.415 . S
C562 H552 0.930 . S
C562 C560 1.419 . S
C562 C563 1.362 . S
C563 H553 0.930 . S
C563 C556 1.409 . S
C563 C562 1.362 . S
C283 C8 1.997 . S
C288 C265 2.052 . S
C299 C26 1.378 . S
C304 C193 1.358 . S
C315 C48 1.543 . S
C320 C229 1.508 . S
C331 C19 1.848 . S
C336 C241 1.911 . S
C352 C169 1.547 . S
C347 C36 1.568 . S
C368 C205 1.756 . S
C363 C59 1.748 . S
C379 C28 1.589 . S
C384 C121 1.580 . S
C395 C46 1.215 . S
C400 C133 1.228 . S
C411 C16 1.570 . S
C416 C61 1.586 . S
C432 C97 1.745 . S
C427 C39 1.763 . S
C448 C157 1.103 . S
C443 C56 1.040 . S
C459 C6 1.432 . S
C464 C85 1.351 . S
C480 C163 1.439 1_554 S
C475 C9 1.425 . S
C491 C21 1.510 . S
C496 C91 1.488 . S
C507 C49 1.464 . S
C512 C127 1.472 . S
C528 C235 1.476 . S
C523 C29 1.449 . S
C544 C271 1.581 1_556 S
C539 C41 1.557 . S
C555 C1 1.515 . S
C560 C199 1.482 . S
