# Generated by pormake.
# Topology ctn, (3,4)-cn, num edge types: 1
# Building blocks:
#     Node 0, Type 0, BuildingBlock: VETTIZ_charged_linker_0, # of connection points: 3
#     Node 1, Type 0, BuildingBlock: VETTIZ_charged_linker_0, # of connection points: 3
#     Node 2, Type 0, BuildingBlock: VETTIZ_charged_linker_0, # of connection points: 3
#     Node 3, Type 0, BuildingBlock: VETTIZ_charged_linker_0, # of connection points: 3
#     Node 4, Type 0, BuildingBlock: VETTIZ_charged_linker_0, # of connection points: 3
#     Node 5, Type 0, BuildingBlock: VETTIZ_charged_linker_0, # of connection points: 3
#     Node 6, Type 0, BuildingBlock: VETTIZ_charged_linker_0, # of connection points: 3
#     Node 7, Type 0, BuildingBlock: VETTIZ_charged_linker_0, # of connection points: 3
#     Node 8, Type 0, BuildingBlock: VETTIZ_charged_linker_0, # of connection points: 3
#     Node 9, Type 0, BuildingBlock: VETTIZ_charged_linker_0, # of connection points: 3
#     Node 10, Type 0, BuildingBlock: VETTIZ_charged_linker_0, # of connection points: 3
#     Node 11, Type 0, BuildingBlock: VETTIZ_charged_linker_0, # of connection points: 3
#     Node 12, Type 0, BuildingBlock: VETTIZ_charged_linker_0, # of connection points: 3
#     Node 13, Type 0, BuildingBlock: VETTIZ_charged_linker_0, # of connection points: 3
#     Node 14, Type 0, BuildingBlock: VETTIZ_charged_linker_0, # of connection points: 3
#     Node 15, Type 0, BuildingBlock: VETTIZ_charged_linker_0, # of connection points: 3
#     Node 16, Type 1, BuildingBlock: TATPOV_clean_sbu_0, # of connection points: 4
#     Node 17, Type 1, BuildingBlock: TATPOV_clean_sbu_0, # of connection points: 4
#     Node 18, Type 1, BuildingBlock: TATPOV_clean_sbu_0, # of connection points: 4
#     Node 19, Type 1, BuildingBlock: TATPOV_clean_sbu_0, # of connection points: 4
#     Node 20, Type 1, BuildingBlock: TATPOV_clean_sbu_0, # of connection points: 4
#     Node 21, Type 1, BuildingBlock: TATPOV_clean_sbu_0, # of connection points: 4
#     Node 22, Type 1, BuildingBlock: TATPOV_clean_sbu_0, # of connection points: 4
#     Node 23, Type 1, BuildingBlock: TATPOV_clean_sbu_0, # of connection points: 4
#     Node 24, Type 1, BuildingBlock: TATPOV_clean_sbu_0, # of connection points: 4
#     Node 25, Type 1, BuildingBlock: TATPOV_clean_sbu_0, # of connection points: 4
#     Node 26, Type 1, BuildingBlock: TATPOV_clean_sbu_0, # of connection points: 4
#     Node 27, Type 1, BuildingBlock: TATPOV_clean_sbu_0, # of connection points: 4
#     Edge 28, Type (0, 1), BuildingBlock: AJUNOK_clean_linker_0, # of connection points: 2
#     Edge 29, Type (0, 1), BuildingBlock: AJUNOK_clean_linker_0, # of connection points: 2
#     Edge 30, Type (0, 1), BuildingBlock: AJUNOK_clean_linker_0, # of connection points: 2
#     Edge 31, Type (0, 1), BuildingBlock: AJUNOK_clean_linker_0, # of connection points: 2
#     Edge 32, Type (0, 1), BuildingBlock: AJUNOK_clean_linker_0, # of connection points: 2
#     Edge 33, Type (0, 1), BuildingBlock: AJUNOK_clean_linker_0, # of connection points: 2
#     Edge 34, Type (0, 1), BuildingBlock: AJUNOK_clean_linker_0, # of connection points: 2
#     Edge 35, Type (0, 1), BuildingBlock: AJUNOK_clean_linker_0, # of connection points: 2
#     Edge 36, Type (0, 1), BuildingBlock: AJUNOK_clean_linker_0, # of connection points: 2
#     Edge 37, Type (0, 1), BuildingBlock: AJUNOK_clean_linker_0, # of connection points: 2
#     Edge 38, Type (0, 1), BuildingBlock: AJUNOK_clean_linker_0, # of connection points: 2
#     Edge 39, Type (0, 1), BuildingBlock: AJUNOK_clean_linker_0, # of connection points: 2
#     Edge 40, Type (0, 1), BuildingBlock: AJUNOK_clean_linker_0, # of connection points: 2
#     Edge 41, Type (0, 1), BuildingBlock: AJUNOK_clean_linker_0, # of connection points: 2
#     Edge 42, Type (0, 1), BuildingBlock: AJUNOK_clean_linker_0, # of connection points: 2
#     Edge 43, Type (0, 1), BuildingBlock: AJUNOK_clean_linker_0, # of connection points: 2
#     Edge 44, Type (0, 1), BuildingBlock: AJUNOK_clean_linker_0, # of connection points: 2
#     Edge 45, Type (0, 1), BuildingBlock: AJUNOK_clean_linker_0, # of connection points: 2
#     Edge 46, Type (0, 1), BuildingBlock: AJUNOK_clean_linker_0, # of connection points: 2
#     Edge 47, Type (0, 1), BuildingBlock: AJUNOK_clean_linker_0, # of connection points: 2
#     Edge 48, Type (0, 1), BuildingBlock: AJUNOK_clean_linker_0, # of connection points: 2
#     Edge 49, Type (0, 1), BuildingBlock: AJUNOK_clean_linker_0, # of connection points: 2
#     Edge 50, Type (0, 1), BuildingBlock: AJUNOK_clean_linker_0, # of connection points: 2
#     Edge 51, Type (0, 1), BuildingBlock: AJUNOK_clean_linker_0, # of connection points: 2
#     Edge 52, Type (0, 1), BuildingBlock: AJUNOK_clean_linker_0, # of connection points: 2
#     Edge 53, Type (0, 1), BuildingBlock: AJUNOK_clean_linker_0, # of connection points: 2
#     Edge 54, Type (0, 1), BuildingBlock: AJUNOK_clean_linker_0, # of connection points: 2
#     Edge 55, Type (0, 1), BuildingBlock: AJUNOK_clean_linker_0, # of connection points: 2
#     Edge 56, Type (0, 1), BuildingBlock: AJUNOK_clean_linker_0, # of connection points: 2
#     Edge 57, Type (0, 1), BuildingBlock: AJUNOK_clean_linker_0, # of connection points: 2
#     Edge 58, Type (0, 1), BuildingBlock: AJUNOK_clean_linker_0, # of connection points: 2
#     Edge 59, Type (0, 1), BuildingBlock: AJUNOK_clean_linker_0, # of connection points: 2
#     Edge 60, Type (0, 1), BuildingBlock: AJUNOK_clean_linker_0, # of connection points: 2
#     Edge 61, Type (0, 1), BuildingBlock: AJUNOK_clean_linker_0, # of connection points: 2
#     Edge 62, Type (0, 1), BuildingBlock: AJUNOK_clean_linker_0, # of connection points: 2
#     Edge 63, Type (0, 1), BuildingBlock: AJUNOK_clean_linker_0, # of connection points: 2
#     Edge 64, Type (0, 1), BuildingBlock: AJUNOK_clean_linker_0, # of connection points: 2
#     Edge 65, Type (0, 1), BuildingBlock: AJUNOK_clean_linker_0, # of connection points: 2
#     Edge 66, Type (0, 1), BuildingBlock: AJUNOK_clean_linker_0, # of connection points: 2
#     Edge 67, Type (0, 1), BuildingBlock: AJUNOK_clean_linker_0, # of connection points: 2
#     Edge 68, Type (0, 1), BuildingBlock: AJUNOK_clean_linker_0, # of connection points: 2
#     Edge 69, Type (0, 1), BuildingBlock: AJUNOK_clean_linker_0, # of connection points: 2
#     Edge 70, Type (0, 1), BuildingBlock: AJUNOK_clean_linker_0, # of connection points: 2
#     Edge 71, Type (0, 1), BuildingBlock: AJUNOK_clean_linker_0, # of connection points: 2
#     Edge 72, Type (0, 1), BuildingBlock: AJUNOK_clean_linker_0, # of connection points: 2
#     Edge 73, Type (0, 1), BuildingBlock: AJUNOK_clean_linker_0, # of connection points: 2
#     Edge 74, Type (0, 1), BuildingBlock: AJUNOK_clean_linker_0, # of connection points: 2
#     Edge 75, Type (0, 1), BuildingBlock: AJUNOK_clean_linker_0, # of connection points: 2
# Relax obj value: 0.003
# Max RMSD: 0.047
# Mean RMSD: 0.021
data_MOF--net-ctn--node1-TATPOV_clean_sbu_0--node2-VETTIZ_charged_linker_0--edge1-AJUNOK_clean_linker_0
_symmetry_space_group_name_H-M    P1
_symmetry_Int_Tables_number       1
_symmetry_cell_setting            triclinic
loop_
_symmetry_equiv_pos_as_xyz
'x, y, z'
_cell_length_a     52.3323
_cell_length_b     52.371153
_cell_length_c     52.381532
_cell_angle_alpha  91.140414
_cell_angle_beta   91.163983
_cell_angle_gamma 91.097982
loop_
_atom_site_label
_atom_site_type_symbol
_atom_site_fract_x
_atom_site_fract_y
_atom_site_fract_z
_atom_type_partial_charge
C0 C 0.03132 0.09457 0.96157 0.0
C1 C 0.01249 0.11338 0.96216 0.0
C2 C 0.99405 0.11255 0.98141 0.0
C3 C 0.01355 0.07494 -0.00084 0.0
C4 C 0.03153 0.07567 0.98019 0.0
C5 C 0.05033 0.05439 0.98238 0.0
H6 H 0.09286 0.95072 0.0447 0.0
C7 C 0.01911 0.05286 0.0155 0.0
C8 C 0.04066 0.04074 0.00574 0.0
H9 H 0.12355 0.98501 0.97717 0.0
H10 H 0.091 0.01698 0.97824 0.0
H11 H 0.0817 0.00366 0.07488 0.0
H12 H 0.03383 0.95423 0.0268 0.0
H13 H 0.01527 0.96459 0.05242 0.0
H14 H 0.0432 0.94582 0.05864 0.0
H15 H 0.07089 0.97268 0.08464 0.0
H16 H 0.05181 0.00061 0.08936 0.0
C17 C 0.0773 0.06648 0.98716 0.0
C18 C 0.04772 0.03735 0.9579 0.0
C19 C 0.96287 0.03395 0.09137 0.0
C20 C 0.9633 0.01497 0.11001 0.0
C21 C 0.98232 0.99628 0.10889 0.0
C22 C 0.00078 0.99667 0.08982 0.0
C23 C 0.00025 0.0159 0.07147 0.0
C24 C 0.98146 0.03408 0.07241 0.0
C25 C 0.98377 0.05297 0.05125 0.0
C26 C 0.007 0.04314 0.03745 0.0
C27 C 0.01661 0.02142 0.0494 0.0
C28 C 0.98886 0.07981 0.06349 0.0
C29 C 0.95919 0.05074 0.03428 0.0
C30 C 0.09236 0.96492 0.02996 0.0
C31 C 0.11075 0.96518 0.01069 0.0
C32 C 0.10972 0.98443 0.99227 0.0
C33 C 0.09071 0.00294 0.99287 0.0
C34 C 0.0724 0.00235 0.01214 0.0
C35 C 0.07341 0.98354 0.03026 0.0
C36 C 0.05227 0.98586 0.04922 0.0
C37 C 0.03849 0.00918 0.03955 0.0
C38 C 0.05041 0.01878 0.01784 0.0
C39 C 0.06461 0.99079 0.07604 0.0
C40 C 0.03523 0.96136 0.04694 0.0
H41 H 0.97993 0.09396 0.01398 0.0
H42 H 0.04576 0.0947 0.94704 0.0
H43 H 0.02747 0.03603 0.95099 0.0
H44 H 0.05318 0.01738 0.96105 0.0
H45 H 0.05927 0.04525 0.94224 0.0
H46 H 0.07632 0.08395 -0.00047 0.0
H47 H 0.08611 0.0721 0.96894 0.0
H48 H 0.0904 0.05382 0.99748 0.0
H49 H 0.94852 0.04858 0.09168 0.0
H50 H 0.98275 0.9811 0.12263 0.0
H51 H 0.01472 0.98192 0.09008 0.0
H52 H 0.00141 0.07861 0.08081 0.0
H53 H 0.97075 0.08872 0.06935 0.0
H54 H 0.99914 0.0929 0.05081 0.0
H55 H 0.95213 0.03058 0.03278 0.0
H56 H 0.96231 0.05637 0.01437 0.0
H57 H 0.94364 0.06234 0.04237 0.0
H58 H 0.97903 0.12647 0.98198 0.0
C59 C 0.99451 0.09351 -0.00012 0.0
C60 C 0.21226 0.64663 0.24771 0.0
C61 C 0.18962 0.64072 0.23372 0.0
C62 C 0.18243 0.65648 0.21339 0.0
C63 C 0.22021 0.6833 0.22112 0.0
C64 C 0.22716 0.66793 0.24115 0.0
C65 C 0.25192 0.67672 0.2539 0.0
H66 H 0.35473 0.75728 0.25684 0.0
C67 C 0.24004 0.70362 0.21903 0.0
C68 C 0.25862 0.69994 0.23828 0.0
H69 H 0.33859 0.69522 0.30766 0.0
H70 H 0.29849 0.68643 0.28529 0.0
H71 H 0.3 0.78027 0.25873 0.0
H72 H 0.33331 0.72894 0.20411 0.0
H73 H 0.31756 0.75314 0.18745 0.0
H74 H 0.34364 0.76161 0.20902 0.0
H75 H 0.32076 0.79168 0.23444 0.0
H76 H 0.28672 0.78771 0.22881 0.0
C77 C 0.2465 0.68408 0.28204 0.0
C78 C 0.27153 0.65517 0.25058 0.0
C79 C 0.23489 0.76653 0.14641 0.0
C80 C 0.25077 0.78703 0.13933 0.0
C81 C 0.27167 0.79445 0.15532 0.0
C82 C 0.27749 0.78084 0.1774 0.0
C83 C 0.26219 0.75959 0.18362 0.0
C84 C 0.24086 0.75322 0.16866 0.0
C85 C 0.22638 0.73057 0.17871 0.0
C86 C 0.24294 0.72399 0.20173 0.0
C87 C 0.26408 0.74083 0.20429 0.0
C88 C 0.19953 0.73948 0.18655 0.0
C89 C 0.22612 0.70908 0.15793 0.0
C90 C 0.34255 0.74181 0.26319 0.0
C91 C 0.35015 0.72661 0.28377 0.0
C92 C 0.33361 0.70675 0.29143 0.0
C93 C 0.31019 0.70183 0.27854 0.0
C94 C 0.30307 0.717 0.2578 0.0
C95 C 0.31905 0.73678 0.25065 0.0
C96 C 0.30811 0.75141 0.22868 0.0
C97 C 0.28307 0.73692 0.22354 0.0
C98 C 0.28029 0.71667 0.24052 0.0
C99 C 0.30377 0.77929 0.2379 0.0
C100 C 0.32656 0.74889 0.20605 0.0
H101 H 0.19111 0.68885 0.19129 0.0
H102 H 0.21825 0.6349 0.26346 0.0
H103 H 0.26943 0.64594 0.23132 0.0
H104 H 0.29155 0.66213 0.25181 0.0
H105 H 0.26871 0.64012 0.26495 0.0
H106 H 0.22724 0.69252 0.28377 0.0
H107 H 0.2471 0.66711 0.2944 0.0
H108 H 0.25988 0.69893 0.28992 0.0
H109 H 0.21856 0.76062 0.13454 0.0
H110 H 0.28417 0.81016 0.15012 0.0
H111 H 0.29404 0.78701 0.18843 0.0
H112 H 0.20018 0.75972 0.19348 0.0
H113 H 0.18574 0.73811 0.17016 0.0
H114 H 0.1918 0.72868 0.20267 0.0
H115 H 0.24487 0.70831 0.14834 0.0
H116 H 0.2231 0.68985 0.16569 0.0
H117 H 0.21121 0.71237 0.14302 0.0
H118 H 0.16536 0.65203 0.202 0.0
C119 C 0.19753 0.67775 0.20708 0.0
C120 C 0.00679 0.38025 0.98275 0.0
C121 C 0.9924 0.37639 0.95998 0.0
C122 C 0.97154 0.39223 0.9549 0.0
C123 C 0.97934 0.41519 0.99492 0.0
C124 C -3e-05 0.39982 -0.00013 0.0
C125 C 0.01333 0.40707 0.02479 0.0
H126 H 0.0191 0.48195 0.13202 0.0
C127 C 0.97714 0.43354 0.01649 0.0
C128 C 0.99704 0.42901 0.03406 0.0
H129 H 0.07004 0.42172 0.11016 0.0
H130 H 0.04583 0.41441 0.07082 0.0
H131 H 0.96856 0.45275 0.11579 0.0
H132 H 0.01372 0.50717 0.07451 0.0
H133 H 0.98129 0.51517 0.07135 0.0
H134 H 0.99634 0.51553 0.10258 0.0
H135 H 0.96794 0.48636 0.12304 0.0
H136 H 0.94717 0.47177 0.09874 0.0
C137 C 0.01166 0.38385 0.04259 0.0
C138 C 0.04095 0.41604 0.01896 0.0
C139 C 0.9042 0.4958 0.01638 0.0
C140 C 0.89554 0.51381 0.03432 0.0
C141 C 0.90971 0.51796 0.05726 0.0
C142 C 0.93181 0.50397 0.06242 0.0
C143 C 0.93982 0.48559 0.04446 0.0
C144 C 0.92595 0.48176 0.02196 0.0
C145 C 0.93654 0.46093 0.0054 0.0
C146 C 0.95921 0.45288 0.02157 0.0
C147 C 0.96123 0.4675 0.04431 0.0
C148 C 0.91588 0.43936 0.00237 0.0
C149 C 0.94497 0.47286 0.97998 0.0
C150 C 0.02529 0.46754 0.11849 0.0
C151 C 0.04665 0.45258 0.12395 0.0
C152 C 0.05366 0.43348 0.10626 0.0
C153 C 0.03959 0.42929 0.08346 0.0
C154 C 0.01812 0.44423 0.07835 0.0
C155 C 0.01136 0.46305 0.09569 0.0
C156 C 0.98768 0.47671 0.08734 0.0
C157 C 0.98152 0.46318 0.06201 0.0
C158 C 0.99938 0.44413 0.05686 0.0
C159 C 0.96667 0.47192 0.10723 0.0
C160 C 0.99489 0.50521 0.08385 0.0
H161 H 0.9488 0.42287 0.96716 0.0
H162 H 0.02316 0.36858 0.98694 0.0
H163 H 0.04156 0.42614 0.00048 0.0
H164 H 0.04884 0.43004 0.03321 0.0
H165 H 0.05397 0.39958 0.0176 0.0
H166 H 0.99268 0.37402 0.04043 0.0
H167 H 0.02649 0.36969 0.03797 0.0
H168 H 0.01341 0.38924 0.06303 0.0
H169 H 0.89427 0.49264 0.99822 0.0
H170 H 0.9035 0.5318 0.07135 0.0
H171 H 0.9417 0.50787 0.08026 0.0
H172 H 0.90429 0.43787 0.01988 0.0
H173 H 0.90254 0.443 0.98615 0.0
H174 H 0.92405 0.42021 -0.00019 0.0
H175 H 0.95266 0.49264 0.98325 0.0
H176 H 0.96071 0.4625 0.97092 0.0
H177 H 0.92865 0.47385 0.96617 0.0
H178 H 0.96016 0.38951 0.9375 0.0
C179 C 0.96493 0.41154 0.9722 0.0
C180 C 0.65073 0.76932 0.27502 0.0
C181 C 0.63386 0.74813 0.27384 0.0
C182 C 0.64005 0.7267 0.25872 0.0
C183 C 0.67796 0.74904 0.24395 0.0
C184 C 0.6725 0.76942 0.25995 0.0
C185 C 0.69133 0.79127 0.2577 0.0
H186 H 0.78955 0.84661 0.19586 0.0
C187 C 0.70072 0.75628 0.22911 0.0
C188 C 0.70872 0.78094 0.23726 0.0
H189 H 0.74781 0.87649 0.25987 0.0
H190 H 0.72332 0.83728 0.26183 0.0
H191 H 0.74101 0.81934 0.16636 0.0
H192 H 0.79718 0.79109 0.21931 0.0
H193 H 0.79054 0.76633 0.19694 0.0
H194 H 0.80425 0.79614 0.1864 0.0
H195 H 0.77398 0.81549 0.15855 0.0
H196 H 0.75106 0.78957 0.15464 0.0
C197 C 0.67647 0.81487 0.24859 0.0
C198 C 0.70559 0.79515 0.28377 0.0
C199 C 0.73028 0.69802 0.15709 0.0
C200 C 0.74977 0.7004 0.13914 0.0
C201 C 0.76619 0.72206 0.14052 0.0
C202 C 0.76301 0.74125 0.15912 0.0
C203 C 0.74307 0.73893 0.17653 0.0
C204 C 0.72735 0.71739 0.17561 0.0
C205 C 0.70724 0.71822 0.19573 0.0
C206 C 0.7134 0.74385 0.20875 0.0
C207 C 0.73427 0.756 0.19722 0.0
C208 C 0.6807 0.71785 0.18205 0.0
C209 C 0.71153 0.6957 0.21395 0.0
C210 C 0.77513 0.8446 0.21027 0.0
C211 C 0.77007 0.86495 0.22723 0.0
C212 C 0.75146 0.86143 0.24602 0.0
C213 C 0.73737 0.83855 0.24726 0.0
C214 C 0.74186 0.81874 0.22958 0.0
C215 C 0.76079 0.82173 0.21178 0.0
C216 C 0.76317 0.79826 0.19498 0.0
C217 C 0.74239 0.78092 0.2055 0.0
C218 C 0.72983 0.79316 0.22559 0.0
C219 C 0.75719 0.80587 0.16709 0.0
C220 C 0.7902 0.78734 0.19935 0.0
H221 H 0.66542 0.71042 0.23207 0.0
H222 H 0.64648 0.78595 0.28671 0.0
H223 H 0.70701 0.77685 0.2941 0.0
H224 H 0.72564 0.80174 0.28171 0.0
H225 H 0.69552 0.80885 0.29632 0.0
H226 H 0.66157 0.80914 0.23401 0.0
H227 H 0.66673 0.82437 0.26474 0.0
H228 H 0.68861 0.82914 0.23915 0.0
H229 H 0.71711 0.6818 0.15631 0.0
H230 H 0.78148 0.7242 0.12704 0.0
H231 H 0.77603 0.75731 0.15901 0.0
H232 H 0.68109 0.72983 0.16474 0.0
H233 H 0.6749 0.69813 0.17586 0.0
H234 H 0.66552 0.72591 0.19386 0.0
H235 H 0.73226 0.69184 0.21642 0.0
H236 H 0.70483 0.69971 0.23346 0.0
H237 H 0.70203 0.6779 0.20635 0.0
H238 H 0.62725 0.71019 0.2576 0.0
C239 C 0.66206 0.72702 0.24377 0.0
C240 C 0.03341 0.90727 0.51689 0.0
C241 C 0.01186 0.89084 0.51611 0.0
C242 C 0.99466 0.89154 0.49511 0.0
C243 C 0.01943 0.92582 0.47691 0.0
C244 C 0.03674 0.92467 0.49713 0.0
C245 C 0.05814 0.94409 0.49505 0.0
H246 H 0.11363 0.03997 0.4297 0.0
C247 C 0.02785 0.94641 0.46002 0.0
C248 C 0.05055 0.95721 0.47046 0.0
H249 H 0.14106 0.00508 0.49886 0.0
H250 H 0.10335 0.97777 0.49923 0.0
H251 H 0.05366 0.04241 0.44634 0.0
H252 H 0.0955 0.98822 0.4013 0.0
H253 H 0.06593 0.99304 0.38576 0.0
H254 H 0.08822 0.01951 0.39015 0.0
H255 H 0.06468 0.04945 0.41497 0.0
H256 H 0.03446 0.03327 0.41968 0.0
C257 C 0.05733 0.96251 0.51853 0.0
C258 C 0.0835 0.92954 0.49246 0.0
C259 C 0.97247 0.9683 0.38337 0.0
C260 C 0.97393 0.9875 0.36511 0.0
C261 C 0.99576 0.00365 0.36489 0.0
C262 C 0.01535 0.00139 0.38343 0.0
C263 C 0.01305 0.98275 0.40231 0.0
C264 C 0.992 0.96641 0.40177 0.0
C265 C 0.99233 0.94802 0.4234 0.0
C266 C 0.01692 0.95618 0.4373 0.0
C267 C 0.02901 0.97651 0.42493 0.0
C268 C 0.96849 0.9529 0.43981 0.0
C269 C 0.99381 0.92058 0.4119 0.0
C270 C 0.11147 0.0264 0.44488 0.0
C271 C 0.1304 0.0244 0.46413 0.0
C272 C 0.12668 0.00694 0.48387 0.0
C273 C 0.10488 0.99097 0.48391 0.0
C274 C 0.08657 0.99251 0.46402 0.0
C275 C 0.08988 0.01022 0.4451 0.0
C276 C 0.06852 0.00907 0.42542 0.0
C277 C 0.05211 0.98739 0.43536 0.0
C278 C 0.06276 0.97782 0.45802 0.0
C279 C 0.05457 0.03488 0.42637 0.0
C280 C 0.07996 0.00228 0.39916 0.0
H281 H 0.98436 0.90858 0.46027 0.0
H282 H 0.04699 0.90697 0.53276 0.0
H283 H 0.08044 0.91141 0.48128 0.0
H284 H 0.0981 0.94026 0.48188 0.0
H285 H 0.09152 0.9246 0.51148 0.0
H286 H 0.03724 0.96629 0.52381 0.0
H287 H 0.06711 0.95426 0.53539 0.0
H288 H 0.06582 0.98152 0.51493 0.0
H289 H 0.95608 0.95536 0.3837 0.0
H290 H 0.99726 0.01853 0.3509 0.0
H291 H 0.03129 0.01452 0.38262 0.0
H292 H 0.96399 0.97359 0.44054 0.0
H293 H 0.95139 0.94247 0.43176 0.0
H294 H 0.97124 0.94771 0.45999 0.0
H295 H 0.00476 0.9204 0.39391 0.0
H296 H 0.00414 0.90742 0.42451 0.0
H297 H 0.97444 0.91248 0.40735 0.0
H298 H 0.97823 0.87862 0.49389 0.0
C299 C 0.99831 0.90889 0.47556 0.0
C300 C 0.28245 0.6606 0.76536 0.0
C301 C 0.27961 0.64279 0.74501 0.0
C302 C 0.26158 0.64739 0.72537 0.0
C303 C 0.24818 0.68585 0.7477 0.0
C304 C 0.2666 0.68179 0.76638 0.0
C305 C 0.26611 0.70143 0.78768 0.0
H306 H 0.21143 0.80454 0.84251 0.0
C307 C 0.2336 0.70857 0.75558 0.0
C308 C 0.24412 0.71781 0.77895 0.0
H309 H 0.27613 0.76209 0.86988 0.0
H310 H 0.27307 0.73418 0.83285 0.0
H311 H 0.17769 0.75399 0.82301 0.0
H312 H 0.2278 0.80626 0.78483 0.0
H313 H 0.20247 0.79863 0.76337 0.0
H314 H 0.19596 0.81469 0.79331 0.0
H315 H 0.16974 0.7866 0.81726 0.0
H316 H 0.16299 0.76166 0.79377 0.0
C317 C 0.26014 0.68749 0.8128 0.0
C318 C 0.29193 0.71644 0.78809 0.0
C319 C 0.15621 0.73539 0.70296 0.0
C320 C 0.13842 0.75491 0.70621 0.0
C321 C 0.14196 0.77256 0.72671 0.0
C322 C 0.16229 0.77025 0.74425 0.0
C323 C 0.1794 0.7501 0.74131 0.0
C324 C 0.17647 0.73334 0.72068 0.0
C325 C 0.19668 0.71327 0.72053 0.0
C326 C 0.21201 0.7206 0.74459 0.0
C327 C 0.20165 0.74208 0.75679 0.0
C328 C 0.18325 0.6868 0.72262 0.0
C329 C 0.21264 0.71648 0.69617 0.0
C330 C 0.22479 0.78912 0.84048 0.0
C331 C 0.24426 0.7857 0.85892 0.0
C332 C 0.2613 0.76542 0.85566 0.0
C333 C 0.25942 0.74914 0.83417 0.0
C334 C 0.24015 0.75295 0.81568 0.0
C335 C 0.22319 0.77262 0.819 0.0
C336 C 0.20401 0.77367 0.79724 0.0
C337 C 0.21235 0.75148 0.78038 0.0
C338 C 0.23347 0.73939 0.79136 0.0
C339 C 0.1771 0.76892 0.8082 0.0
C340 C 0.20745 0.79967 0.78398 0.0
H341 H 0.23212 0.671 0.71135 0.0
H342 H 0.29618 0.65759 0.78073 0.0
H343 H 0.29901 0.71891 0.76839 0.0
H344 H 0.29045 0.73606 0.79596 0.0
H345 H 0.3068 0.70621 0.79908 0.0
H346 H 0.24695 0.67085 0.80909 0.0
H347 H 0.27784 0.68023 0.82192 0.0
H348 H 0.25014 0.69956 0.82677 0.0
H349 H 0.15403 0.7216 0.68734 0.0
H350 H 0.12889 0.78816 0.7292 0.0
H351 H 0.16376 0.78414 0.75956 0.0
H352 H 0.16698 0.68782 0.73593 0.0
H353 H 0.17554 0.67994 0.70374 0.0
H354 H 0.19582 0.67213 0.73054 0.0
H355 H 0.21476 0.73699 0.69132 0.0
H356 H 0.23241 0.70976 0.69854 0.0
H357 H 0.20334 0.70637 0.67951 0.0
H358 H 0.25877 0.63377 0.70969 0.0
C359 C 0.24591 0.66886 0.72656 0.0
C360 C 0.8875 0.49195 0.50368 0.0
C361 C 0.87767 0.47247 0.48727 0.0
C362 C 0.88855 0.46866 0.46318 0.0
C363 C 0.91948 0.50277 0.47247 0.0
C364 C 0.90819 0.50702 0.49578 0.0
C365 C 0.92041 0.52928 0.51032 0.0
H366 H 0.00326 0.63007 0.51176 0.0
C367 C 0.94085 0.52139 0.47023 0.0
C368 C 0.94132 0.53718 0.49222 0.0
H369 H 0.94821 0.61019 0.56866 0.0
H370 H 0.93747 0.57082 0.54555 0.0
H371 H 0.97056 0.61321 0.46186 0.0
H372 H 0.02601 0.57415 0.50743 0.0
H373 H 0.02835 0.56096 0.47652 0.0
H374 H 0.03552 0.59453 0.4821 0.0
H375 H 0.00392 0.62191 0.46432 0.0
H376 H 0.99237 0.59824 0.44138 0.0
C377 C 0.9 0.55012 0.51338 0.0
C378 C 0.93156 0.51945 0.53584 0.0
C379 C 0.00035 0.51522 0.39501 0.0
C380 C 0.02297 0.5285 0.38889 0.0
C381 C 0.03116 0.54952 0.40438 0.0
C382 C 0.01728 0.55692 0.42582 0.0
C383 C 0.9951 0.54302 0.43204 0.0
C384 C 0.98691 0.52262 0.41667 0.0
C385 C 0.96349 0.50947 0.42677 0.0
C386 C 0.95944 0.52489 0.45116 0.0
C387 C 0.97785 0.54464 0.45397 0.0
C388 C 0.94123 0.51251 0.40714 0.0
C389 C 0.97022 0.4814 0.43229 0.0
C390 C 0.98913 0.61699 0.51926 0.0
C391 C 0.9764 0.62305 0.54183 0.0
C392 C 0.95827 0.60567 0.55132 0.0
C393 C 0.95188 0.58304 0.53772 0.0
C394 C 0.96379 0.57782 0.51442 0.0
C395 C 0.98272 0.59422 0.50601 0.0
C396 C 0.99413 0.58497 0.48148 0.0
C397 C 0.97773 0.56127 0.47568 0.0
C398 C 0.95986 0.55728 0.49491 0.0
C399 C 0.99025 0.60562 0.46108 0.0
C400 C 0.0225 0.57842 0.48695 0.0
H401 H 0.91713 0.47961 0.43727 0.0
H402 H 0.8792 0.49537 0.52219 0.0
H403 H 0.9395 0.50003 0.5332 0.0
H404 H 0.94775 0.53135 0.54341 0.0
H405 H 0.91662 0.51825 0.55055 0.0
H406 H 0.88734 0.55074 0.49609 0.0
H407 H 0.8877 0.54628 0.52997 0.0
H408 H 0.90827 0.56959 0.51544 0.0
H409 H 0.99353 0.49902 0.38345 0.0
H410 H 0.04879 0.55974 0.40046 0.0
H411 H 0.02459 0.57294 0.43696 0.0
H412 H 0.94355 0.53038 0.3962 0.0
H413 H 0.94029 0.4963 0.39313 0.0
H414 H 0.92248 0.5143 0.41631 0.0
H415 H 0.98953 0.4804 0.44146 0.0
H416 H 0.95712 0.47221 0.44571 0.0
H417 H 0.97032 0.46972 0.41436 0.0
H418 H 0.88118 0.45366 0.45035 0.0
C419 C 0.90946 0.48364 0.45572 0.0
C420 C 0.82407 0.73977 0.88056 0.0
C421 C 0.80427 0.73756 0.89814 0.0
C422 C 0.78585 0.75681 0.89944 0.0
C423 C 0.80585 0.7787 0.86447 0.0
C424 C 0.82445 0.76033 0.86395 0.0
C425 C 0.84295 0.76424 0.84274 0.0
H426 H 0.87295 0.82389 0.73416 0.0
C427 C 0.81045 0.79616 0.84314 0.0
C428 C 0.83229 0.78789 0.83049 0.0
H429 H 0.9106 0.7601 0.76874 0.0
H430 H 0.8836 0.76368 0.80541 0.0
H431 H 0.86828 0.85819 0.78629 0.0
H432 H 0.81707 0.80537 0.74613 0.0
H433 H 0.7993 0.83201 0.75527 0.0
H434 H 0.82561 0.83617 0.7341 0.0
H435 H 0.85114 0.86682 0.75783 0.0
H436 H 0.83745 0.8705 0.78905 0.0
C437 C 0.86987 0.76941 0.85481 0.0
C438 C 0.84099 0.74047 0.82457 0.0
C439 C 0.7453 0.86346 0.82161 0.0
C440 C 0.74305 0.88055 0.80138 0.0
C441 C 0.76334 0.88316 0.78432 0.0
C442 C 0.78495 0.8679 0.78653 0.0
C443 C 0.7862 0.84973 0.80591 0.0
C444 C 0.76689 0.84821 0.82345 0.0
C445 C 0.77138 0.82774 0.84267 0.0
C446 C 0.79642 0.81698 0.83358 0.0
C447 C 0.80483 0.82974 0.81187 0.0
C448 C 0.77433 0.84063 0.86946 0.0
C449 C 0.74903 0.80792 0.83999 0.0
C450 C 0.87547 0.81087 0.74979 0.0
C451 C 0.89385 0.79169 0.74862 0.0
C452 C 0.89677 0.77521 0.76936 0.0
C453 C 0.88087 0.77716 0.79049 0.0
C454 C 0.86164 0.79555 0.79073 0.0
C455 C 0.85961 0.81242 0.77089 0.0
C456 C 0.83785 0.83045 0.77415 0.0
C457 C 0.82683 0.82131 0.799 0.0
C458 C 0.84068 0.80072 0.80848 0.0
C459 C 0.84905 0.85801 0.7768 0.0
C460 C 0.81892 0.82606 0.75124 0.0
H461 H 0.77179 0.7912 0.88435 0.0
H462 H 0.83851 0.72528 0.87918 0.0
H463 H 0.82098 0.73291 0.82313 0.0
H464 H 0.84604 0.74463 0.80473 0.0
H465 H 0.85319 0.72487 0.8316 0.0
H466 H 0.86863 0.78044 0.8731 0.0
H467 H 0.87963 0.75127 0.85897 0.0
H468 H 0.88221 0.78128 0.84271 0.0
H469 H 0.7302 0.86147 0.83533 0.0
H470 H 0.76203 0.89632 0.76867 0.0
H471 H 0.79949 0.87029 0.77259 0.0
H472 H 0.7841 0.85962 0.86832 0.0
H473 H 0.75541 0.84364 0.87815 0.0
H474 H 0.78644 0.8297 0.88268 0.0
H475 H 0.74297 0.80513 0.81962 0.0
H476 H 0.75417 0.78871 0.84635 0.0
H477 H 0.73213 0.81434 0.85069 0.0
H478 H 0.77018 0.75534 0.91254 0.0
C479 C 0.78666 0.77746 0.88282 0.0
C480 C 0.32099 0.24707 0.37655 0.0
C481 C 0.29942 0.24401 0.39175 0.0
C482 C 0.28238 0.26433 0.39436 0.0
C483 C 0.3067 0.28887 0.36407 0.0
C484 C 0.32417 0.26946 0.36281 0.0
C485 C 0.34466 0.27447 0.34379 0.0
H486 H 0.3828 0.33899 0.2415 0.0
C487 C 0.31422 0.30832 0.34542 0.0
C488 C 0.33667 0.30015 0.33376 0.0
H489 H 0.4156 0.27152 0.27364 0.0
H490 H 0.38895 0.27589 0.31067 0.0
H491 H 0.38104 0.37163 0.29472 0.0
H492 H 0.32525 0.32531 0.25278 0.0
H493 H 0.31147 0.35463 0.26136 0.0
H494 H 0.3389 0.35464 0.24153 0.0
H495 H 0.3625 0.38439 0.26897 0.0
H496 H 0.35125 0.3849 0.30139 0.0
C497 C 0.37078 0.27629 0.35825 0.0
C498 C 0.34261 0.25299 0.32295 0.0
C499 C 0.25391 0.38023 0.32466 0.0
C500 C 0.25494 0.40022 0.30712 0.0
C501 C 0.27734 0.40388 0.29304 0.0
C502 C 0.29789 0.38729 0.29557 0.0
C503 C 0.29599 0.36665 0.31219 0.0
C504 C 0.27468 0.36395 0.32709 0.0
C505 C 0.27644 0.34142 0.34439 0.0
C506 C 0.30209 0.33075 0.33696 0.0
C507 C 0.31312 0.34528 0.31766 0.0
C508 C 0.27671 0.35143 0.37243 0.0
C509 C 0.25397 0.32271 0.33734 0.0
C510 C 0.38442 0.32547 0.25681 0.0
C511 C 0.40077 0.30463 0.25467 0.0
C512 C 0.40294 0.2876 0.27497 0.0
C513 C 0.38726 0.29003 0.29623 0.0
C514 C 0.36909 0.3095 0.29691 0.0
C515 C 0.36871 0.3275 0.278 0.0
C516 C 0.34823 0.34689 0.28188 0.0
C517 C 0.33558 0.33681 0.3056 0.0
C518 C 0.34762 0.31468 0.31403 0.0
C519 C 0.36126 0.37341 0.28684 0.0
C520 C 0.32995 0.34554 0.25819 0.0
H521 H 0.27195 0.30136 0.38277 0.0
H522 H 0.33462 0.23187 0.3746 0.0
H523 H 0.32225 0.24786 0.31848 0.0
H524 H 0.35058 0.25848 0.30452 0.0
H525 H 0.35216 0.23543 0.32942 0.0
H526 H 0.36864 0.28424 0.37793 0.0
H527 H 0.37947 0.25719 0.35991 0.0
H528 H 0.38447 0.28947 0.34919 0.0
H529 H 0.23689 0.37656 0.33551 0.0
H530 H 0.27876 0.41933 0.27966 0.0
H531 H 0.31419 0.39074 0.28396 0.0
H532 H 0.28598 0.3707 0.37421 0.0
H533 H 0.257 0.35298 0.37971 0.0
H534 H 0.28805 0.33938 0.38534 0.0
H535 H 0.25111 0.32121 0.31625 0.0
H536 H 0.25721 0.30303 0.3435 0.0
H537 H 0.23585 0.32939 0.34563 0.0
H538 H 0.26571 0.26235 0.40616 0.0
C539 C 0.28596 0.28682 0.38064 0.0
C540 C 0.49623 0.87158 0.49833 0.0
C541 C 0.48006 0.86333 0.47796 0.0
C542 C 0.45694 0.87591 0.47347 0.0
C543 C 0.46705 0.90574 0.50828 0.0
C544 C 0.48918 0.89261 0.51344 0.0
C545 C 0.50365 0.90366 0.53634 0.0
H546 H 0.5091 0.98903 0.63528 0.0
C547 C 0.46582 0.92736 0.52671 0.0
C548 C 0.48698 0.92606 0.54348 0.0
H549 H 0.56063 0.92755 0.61953 0.0
H550 H 0.5378 0.91754 0.57982 0.0
H551 H 0.457 0.9604 0.61828 0.0
H552 H 0.50823 0.00933 0.57746 0.0
H553 H 0.47742 0.01532 0.56554 0.0
H554 H 0.4851 0.02204 0.5988 0.0
H555 H 0.46156 0.9939 0.62538 0.0
H556 H 0.43873 0.9827 0.60137 0.0
C557 C 0.50406 0.88313 0.55725 0.0
C558 C 0.53043 0.91264 0.52771 0.0
C559 C 0.39777 0.99407 0.51518 0.0
C560 C 0.39311 0.01743 0.52773 0.0
C561 C 0.40738 0.02418 0.55001 0.0
C562 C 0.42685 0.00838 0.55897 0.0
C563 C 0.43206 0.98561 0.54549 0.0
C564 C 0.41738 0.97866 0.52417 0.0
C565 C 0.42578 0.95408 0.51195 0.0
C566 C 0.44853 0.94782 0.52896 0.0
C567 C 0.45204 0.96625 0.54861 0.0
C568 C 0.40376 0.934 0.51387 0.0
C569 C 0.43381 0.95976 0.48429 0.0
C570 C 0.51546 0.97356 0.62307 0.0
C571 C 0.53638 0.95882 0.63042 0.0
C572 C 0.5445 0.93907 0.61408 0.0
C573 C 0.53107 0.93316 0.59123 0.0
C574 C 0.50936 0.94723 0.58469 0.0
C575 C 0.50233 0.96752 0.60014 0.0
C576 C 0.47933 0.98091 0.58969 0.0
C577 C 0.47283 0.96438 0.56625 0.0
C578 C 0.49041 0.94462 0.56347 0.0
C579 C 0.45795 0.97965 0.60967 0.0
C580 C 0.48771 0.00839 0.58261 0.0
H581 H 0.43274 0.90619 0.4838 0.0
H582 H 0.51403 0.86202 0.50222 0.0
H583 H 0.52923 0.92124 0.50847 0.0
H584 H 0.53904 0.92777 0.5403 0.0
H585 H 0.54372 0.8964 0.52657 0.0
H586 H 0.48603 0.87148 0.55669 0.0
H587 H 0.52014 0.86987 0.55454 0.0
H588 H 0.50522 0.89136 0.5768 0.0
H589 H 0.38667 0.98813 0.49833 0.0
H590 H 0.40396 0.04203 0.56005 0.0
H591 H 0.43735 0.01468 0.57581 0.0
H592 H 0.39133 0.93825 0.53035 0.0
H593 H 0.39141 0.93352 0.49637 0.0
H594 H 0.41082 0.91458 0.51741 0.0
H595 H 0.44533 0.97783 0.48381 0.0
H596 H 0.446 0.94498 0.47592 0.0
H597 H 0.41678 0.96195 0.47157 0.0
H598 H 0.44434 0.86981 0.45775 0.0
C599 C 0.45036 0.8971 0.48848 0.0
C600 C 0.15519 0.25717 0.77078 0.0
C601 C 0.13792 0.23648 0.76715 0.0
C602 C 0.14247 0.21805 0.74794 0.0
C603 C 0.18036 0.24172 0.73539 0.0
C604 C 0.17606 0.25956 0.75457 0.0
C605 C 0.1948 0.28171 0.75413 0.0
H606 H 0.28858 0.34568 0.69322 0.0
C607 C 0.20244 0.25084 0.72063 0.0
C608 C 0.21093 0.27433 0.73143 0.0
H609 H 0.25096 0.36727 0.7629 0.0
H610 H 0.22711 0.32751 0.76188 0.0
H611 H 0.23927 0.32017 0.66351 0.0
H612 H 0.29839 0.28799 0.71055 0.0
H613 H 0.29087 0.26534 0.68627 0.0
H614 H 0.30376 0.29627 0.678 0.0
H615 H 0.27202 0.31838 0.65411 0.0
H616 H 0.24983 0.29213 0.64828 0.0
C617 C 0.17953 0.3063 0.7493 0.0
C618 C 0.21059 0.28214 0.77949 0.0
C619 C 0.23125 0.19911 0.64363 0.0
C620 C 0.25009 0.20334 0.62537 0.0
C621 C 0.26586 0.22543 0.6277 0.0
C622 C 0.26256 0.24331 0.64757 0.0
C623 C 0.24326 0.23912 0.66537 0.0
C624 C 0.22814 0.2172 0.66334 0.0
C625 C 0.20839 0.21609 0.68377 0.0
C626 C 0.21443 0.24072 0.69865 0.0
C627 C 0.23475 0.25424 0.68767 0.0
C628 C 0.18154 0.2163 0.67064 0.0
C629 C 0.21345 0.19228 0.70005 0.0
C630 C 0.2752 0.34177 0.70822 0.0
C631 C 0.27099 0.36006 0.72766 0.0
C632 C 0.25382 0.35397 0.74715 0.0
C633 C 0.24009 0.33077 0.74665 0.0
C634 C 0.24356 0.3132 0.7265 0.0
C635 C 0.26133 0.31852 0.70806 0.0
C636 C 0.26317 0.29695 0.68877 0.0
C637 C 0.24307 0.27825 0.69829 0.0
C638 C 0.23147 0.28803 0.72027 0.0
C639 C 0.25588 0.30728 0.66216 0.0
C640 C 0.29046 0.28605 0.69071 0.0
H641 H 0.16599 0.2059 0.71775 0.0
H642 H 0.15174 0.27189 0.78505 0.0
H643 H 0.21335 0.26246 0.78654 0.0
H644 H 0.23016 0.29001 0.77733 0.0
H645 H 0.20084 0.29316 0.79465 0.0
H646 H 0.16363 0.30244 0.73525 0.0
H647 H 0.17104 0.31362 0.76722 0.0
H648 H 0.19104 0.32173 0.74093 0.0
H649 H 0.21879 0.18235 0.64224 0.0
H650 H 0.2808 0.22884 0.61409 0.0
H651 H 0.27504 0.25981 0.64818 0.0
H652 H 0.18199 0.22666 0.65231 0.0
H653 H 0.17427 0.19659 0.66632 0.0
H654 H 0.16735 0.22657 0.6821 0.0
H655 H 0.23432 0.19001 0.70355 0.0
H656 H 0.20509 0.19359 0.71919 0.0
H657 H 0.20602 0.17462 0.69016 0.0
H658 H 0.12921 0.20211 0.74478 0.0
C659 C 0.16372 0.22041 0.73221 0.0
C660 C 0.72083 0.13487 0.74763 0.0
C661 C 0.69822 0.12836 0.73382 0.0
C662 C 0.69028 0.14408 0.71374 0.0
C663 C 0.7274 0.17189 0.72113 0.0
C664 C 0.73507 0.15657 0.74095 0.0
C665 C 0.75964 0.16605 0.75355 0.0
H666 H 0.85796 0.25207 0.75839 0.0
C667 C 0.74636 0.19305 0.71924 0.0
C668 C 0.76526 0.18978 0.73828 0.0
H669 H 0.84659 0.18697 0.80659 0.0
H670 H 0.80683 0.17639 0.78404 0.0
H671 H 0.80221 0.27153 0.76126 0.0
H672 H 0.8383 0.2243 0.70493 0.0
H673 H 0.82094 0.24792 0.68905 0.0
H674 H 0.84651 0.25737 0.71085 0.0
H675 H 0.82183 0.28504 0.73712 0.0
H676 H 0.788 0.27902 0.73178 0.0
C677 C 0.75431 0.1727 0.78187 0.0
C678 C 0.78004 0.14535 0.74964 0.0
C679 C 0.73744 0.2581 0.64872 0.0
C680 C 0.75187 0.28 0.64266 0.0
C681 C 0.77247 0.28787 0.65884 0.0
C682 C 0.77926 0.27364 0.68022 0.0
C683 C 0.76528 0.25126 0.68557 0.0
C684 C 0.74429 0.24423 0.6704 0.0
C685 C 0.73103 0.22054 0.67981 0.0
C686 C 0.74807 0.21406 0.70254 0.0
C687 C 0.7683 0.23192 0.70556 0.0
C688 C 0.70377 0.22779 0.68802 0.0
C689 C 0.7317 0.19972 0.65843 0.0
C690 C 0.84676 0.23571 0.76434 0.0
C691 C 0.85527 0.22051 0.78454 0.0
C692 C 0.84045 0.19897 0.7911 0.0
C693 C 0.81733 0.19294 0.77803 0.0
C694 C 0.80896 0.20856 0.75807 0.0
C695 C 0.82362 0.22957 0.75162 0.0
C696 C 0.81174 0.24426 0.73019 0.0
C697 C 0.78761 0.22844 0.72458 0.0
C698 C 0.78611 0.20749 0.74087 0.0
C699 C 0.80572 0.27146 0.74038 0.0
C700 C 0.83026 0.24368 0.7075 0.0
H701 H 0.69775 0.17683 0.69173 0.0
H702 H 0.72719 0.12346 0.76348 0.0
H703 H 0.77757 0.1358 0.73056 0.0
H704 H 0.79976 0.15323 0.7499 0.0
H705 H 0.77853 0.13037 0.76428 0.0
H706 H 0.73512 0.18124 0.7838 0.0
H707 H 0.75475 0.15536 0.79373 0.0
H708 H 0.76783 0.18717 0.79019 0.0
H709 H 0.72146 0.2517 0.6366 0.0
H710 H 0.78401 0.30451 0.65432 0.0
H711 H 0.79551 0.28031 0.69144 0.0
H712 H 0.7033 0.24793 0.69516 0.0
H713 H 0.68986 0.22579 0.67177 0.0
H714 H 0.69688 0.21639 0.70412 0.0
H715 H 0.75064 0.19983 0.64915 0.0
H716 H 0.72907 0.18019 0.66557 0.0
H717 H 0.71691 0.20305 0.64341 0.0
H718 H 0.67297 0.13941 0.70279 0.0
C719 C 0.70473 0.16576 0.70731 0.0
C720 C 0.53957 0.5991 0.467 0.0
C721 C 0.52128 0.61846 0.46771 0.0
C722 C 0.50243 0.61768 0.48654 0.0
C723 C 0.5207 0.57931 0.50397 0.0
C724 C 0.53892 0.57982 0.48523 0.0
C725 C 0.55702 0.55791 0.48727 0.0
H726 H 0.59577 0.45224 0.54887 0.0
C727 C 0.52553 0.55694 0.52015 0.0
C728 C 0.54676 0.54426 0.51038 0.0
H729 H 0.62796 0.48592 0.48175 0.0
H730 H 0.59647 0.51899 0.48288 0.0
H731 H 0.58677 0.5053 0.57922 0.0
H732 H 0.53687 0.45797 0.5311 0.0
H733 H 0.51892 0.46873 0.55702 0.0
H734 H 0.54625 0.44898 0.56277 0.0
H735 H 0.5745 0.47489 0.58907 0.0
H736 H 0.55681 0.50376 0.59371 0.0
C737 C 0.5843 0.56911 0.49237 0.0
C738 C 0.55409 0.54125 0.46256 0.0
C739 C 0.46991 0.54048 0.59703 0.0
C740 C 0.47001 0.52163 0.61582 0.0
C741 C 0.488 0.50199 0.61425 0.0
C742 C 0.5059 0.50139 0.59466 0.0
C743 C 0.50586 0.52061 0.57627 0.0
C744 C 0.48793 0.53962 0.57756 0.0
C745 C 0.49061 0.55834 0.55629 0.0
C746 C 0.51322 0.54758 0.54215 0.0
C747 C 0.52212 0.5255 0.55397 0.0
C748 C 0.49688 0.58501 0.56839 0.0
C749 C 0.46573 0.557 0.53971 0.0
C750 C 0.59582 0.46655 0.53423 0.0
C751 C 0.61428 0.4663 0.51504 0.0
C752 C 0.61402 0.48571 0.49677 0.0
C753 C 0.59564 0.50486 0.4974 0.0
C754 C 0.57723 0.50477 0.5166 0.0
C755 C 0.57754 0.48582 0.53459 0.0
C756 C 0.55655 0.4888 0.55361 0.0
C757 C 0.54355 0.51259 0.54402 0.0
C758 C 0.55579 0.52191 0.52236 0.0
C759 C 0.5691 0.49326 0.58041 0.0
C760 C 0.53869 0.46488 0.55129 0.0
H761 H 0.48734 0.59894 0.51859 0.0
H762 H 0.55401 0.59888 0.45248 0.0
H763 H 0.53389 0.54068 0.45547 0.0
H764 H 0.55884 0.52106 0.46552 0.0
H765 H 0.56605 0.54896 0.44712 0.0
H766 H 0.58379 0.58624 0.50525 0.0
H767 H 0.59327 0.57502 0.47432 0.0
H768 H 0.59703 0.55577 0.50226 0.0
H769 H 0.45602 0.55554 0.59739 0.0
H770 H 0.4885 0.48729 0.6285 0.0
H771 H 0.5192 0.48606 0.5947 0.0
H772 H 0.51013 0.58341 0.58515 0.0
H773 H 0.47928 0.59434 0.57512 0.0
H774 H 0.50684 0.59793 0.55533 0.0
H775 H 0.45749 0.53724 0.5389 0.0
H776 H 0.46892 0.56178 0.51956 0.0
H777 H 0.451 0.56976 0.54761 0.0
H778 H 0.48819 0.63239 0.48752 0.0
C779 C 0.50206 0.59829 0.50465 0.0
C780 C 0.52963 0.41535 0.01763 0.0
C781 C 0.50881 0.39807 0.01562 0.0
C782 C 0.49316 0.39767 0.99342 0.0
C783 C 0.51808 0.43246 0.97627 0.0
C784 C 0.53381 0.43243 0.9978 0.0
C785 C 0.55458 0.45263 0.99698 0.0
H786 H 0.61286 0.54849 0.93431 0.0
C787 C 0.52709 0.45302 0.95962 0.0
C788 C 0.54846 0.46492 0.97158 0.0
H789 H 0.63459 0.51573 0.0065 0.0
H790 H 0.59771 0.48763 0.00413 0.0
H791 H 0.5511 0.54972 0.94582 0.0
H792 H 0.59715 0.49523 0.90547 0.0
H793 H 0.56918 0.50076 0.88727 0.0
H794 H 0.59154 0.52672 0.89385 0.0
H795 H 0.56431 0.55639 0.91525 0.0
H796 H 0.53422 0.53939 0.91804 0.0
C797 C 0.55111 0.47143 0.01983 0.0
C798 C 0.58066 0.43907 0.9968 0.0
C799 C 0.47709 0.4709 0.87846 0.0
C800 C 0.47884 0.48993 0.86005 0.0
C801 C 0.49981 0.50725 0.86126 0.0
C802 C 0.51824 0.50611 0.88114 0.0
C803 C 0.51556 0.48753 0.90004 0.0
C804 C 0.49535 0.47017 0.89821 0.0
C805 C 0.49472 0.45229 0.92022 0.0
C806 C 0.51772 0.46187 0.93585 0.0
C807 C 0.52999 0.48245 0.92402 0.0
C808 C 0.46933 0.45627 0.93448 0.0
C809 C 0.49843 0.42479 0.90959 0.0
C810 C 0.60945 0.53536 0.94965 0.0
C811 C 0.62645 0.53452 0.97079 0.0
C812 C 0.62148 0.51716 0.99035 0.0
C813 C 0.60019 0.50061 0.98876 0.0
C814 C 0.58368 0.50126 0.96732 0.0
C815 C 0.58821 0.51862 0.94833 0.0
C816 C 0.56846 0.51645 0.927 0.0
C817 C 0.55183 0.49445 0.93603 0.0
C818 C 0.56089 0.48572 0.95969 0.0
C819 C 0.55375 0.54179 0.9262 0.0
C820 C 0.58214 0.50958 0.90194 0.0
H821 H 0.48492 0.41356 0.95748 0.0
H822 H 0.542 0.41594 0.03448 0.0
H823 H 0.57909 0.42035 0.98641 0.0
H824 H 0.59553 0.44986 0.98663 0.0
H825 H 0.58764 0.43538 0.01653 0.0
H826 H 0.53048 0.47416 0.02362 0.0
H827 H 0.56017 0.46414 0.03754 0.0
H828 H 0.55875 0.49081 0.01632 0.0
H829 H 0.46124 0.45726 0.87798 0.0
H830 H 0.50142 0.52226 0.84742 0.0
H831 H 0.53355 0.52005 0.88136 0.0
H832 H 0.46336 0.47652 0.93366 0.0
H833 H 0.45359 0.44424 0.92584 0.0
H834 H 0.47091 0.45239 0.95508 0.0
H835 H 0.51146 0.42479 0.89306 0.0
H836 H 0.50761 0.41218 0.92357 0.0
H837 H 0.47994 0.41596 0.90294 0.0
H838 H 0.47731 0.38412 0.99132 0.0
C839 C 0.49768 0.41472 0.97376 0.0
C840 C 0.78172 0.16393 0.26493 0.0
C841 C 0.77866 0.14562 0.24506 0.0
C842 C 0.75957 0.14913 0.22615 0.0
C843 C 0.74545 0.18726 0.24859 0.0
C844 C 0.76492 0.18433 0.26644 0.0
C845 C 0.76421 0.20385 0.28782 0.0
H846 H 0.7059 0.30287 0.34579 0.0
C847 C 0.72997 0.20916 0.25711 0.0
C848 C 0.74096 0.21894 0.28005 0.0
H849 H 0.77321 0.2629 0.37081 0.0
H850 H 0.77087 0.23615 0.33305 0.0
H851 H 0.67438 0.25133 0.32706 0.0
H852 H 0.72026 0.30596 0.287 0.0
H853 H 0.69404 0.29754 0.2669 0.0
H854 H 0.68865 0.313 0.29739 0.0
H855 H 0.66436 0.28337 0.32151 0.0
H856 H 0.65823 0.25802 0.29831 0.0
C857 C 0.76018 0.18958 0.31318 0.0
C858 C 0.78911 0.22029 0.28714 0.0
C859 C 0.64879 0.23151 0.20809 0.0
C860 C 0.63005 0.24996 0.21219 0.0
C861 C 0.63354 0.26784 0.23247 0.0
C862 C 0.65488 0.26682 0.24899 0.0
C863 C 0.67296 0.24767 0.24526 0.0
C864 C 0.67001 0.23071 0.2248 0.0
C865 C 0.69127 0.21179 0.22373 0.0
C866 C 0.70727 0.21999 0.24708 0.0
C867 C 0.69631 0.24089 0.25975 0.0
C868 C 0.67941 0.18466 0.22642 0.0
C869 C 0.70588 0.21579 0.19866 0.0
C870 C 0.71993 0.28816 0.34323 0.0
C871 C 0.73976 0.28503 0.3614 0.0
C872 C 0.7579 0.26593 0.35703 0.0
C873 C 0.75645 0.25028 0.33509 0.0
C874 C 0.7365 0.25346 0.31722 0.0
C875 C 0.71865 0.27213 0.32139 0.0
C876 C 0.69861 0.27236 0.30034 0.0
C877 C 0.70748 0.2508 0.28294 0.0
C878 C 0.72967 0.23984 0.29298 0.0
C879 C 0.67241 0.26613 0.31223 0.0
C880 C 0.70019 0.29858 0.28721 0.0
H881 H 0.72844 0.1712 0.21316 0.0
H882 H 0.7962 0.16174 0.27977 0.0
H883 H 0.79475 0.22372 0.26711 0.0
H884 H 0.78705 0.23954 0.29576 0.0
H885 H 0.80519 0.21062 0.29687 0.0
H886 H 0.74879 0.17161 0.30988 0.0
H887 H 0.77872 0.18439 0.32215 0.0
H888 H 0.74906 0.2006 0.32715 0.0
H889 H 0.64686 0.21784 0.19235 0.0
H890 H 0.61936 0.28224 0.23594 0.0
H891 H 0.65624 0.28074 0.26428 0.0
H892 H 0.66359 0.18486 0.2403 0.0
H893 H 0.67141 0.17728 0.20784 0.0
H894 H 0.69306 0.17078 0.23398 0.0
H895 H 0.70702 0.2364 0.19397 0.0
H896 H 0.72594 0.20971 0.19998 0.0
H897 H 0.69613 0.20552 0.18234 0.0
H898 H 0.75656 0.1351 0.21087 0.0
C899 C 0.74303 0.16993 0.22774 0.0
C900 C 0.38436 0.00075 0.00347 0.0
C901 C 0.37533 0.98108 0.98687 0.0
C902 C 0.38766 0.97662 0.96364 0.0
C903 C 0.41839 0.01057 0.97411 0.0
C904 C 0.40571 0.01548 0.99654 0.0
C905 C 0.4173 0.03798 0.01124 0.0
H906 H 0.50209 0.13728 0.01558 0.0
C907 C 0.44017 0.02882 0.97282 0.0
C908 C 0.43949 0.04515 0.99435 0.0
H909 H 0.44227 0.12046 0.06856 0.0
H910 H 0.43246 0.08052 0.04606 0.0
H911 H 0.47259 0.11995 0.96424 0.0
H912 H 0.52361 0.08008 0.01418 0.0
H913 H 0.5282 0.0671 0.98352 0.0
H914 H 0.53542 0.10053 0.98987 0.0
H915 H 0.506 0.12776 0.96855 0.0
H916 H 0.49514 0.10382 0.94557 0.0
C917 C 0.39701 0.05913 0.01241 0.0
C918 C 0.42665 0.02871 0.03766 0.0
C919 C 0.50427 0.01943 0.90203 0.0
C920 C 0.5275 0.03206 0.89693 0.0
C921 C 0.53518 0.05343 0.91217 0.0
C922 C 0.52017 0.06171 0.93253 0.0
C923 C 0.49735 0.04838 0.9378 0.0
C924 C 0.48969 0.02771 0.92255 0.0
C925 C 0.46538 0.01528 0.93141 0.0
C926 C 0.46008 0.03146 0.95499 0.0
C927 C 0.47871 0.05092 0.95849 0.0
C928 C 0.4445 0.01817 0.91028 0.0
C929 C 0.47118 0.98728 0.93817 0.0
C930 C 0.48714 0.12472 0.0224 0.0
C931 C 0.47273 0.13183 0.04358 0.0
C932 C 0.45355 0.11514 0.05225 0.0
C933 C 0.44773 0.09219 0.03899 0.0
C934 C 0.46127 0.08596 0.01688 0.0
C935 C 0.48119 0.10169 0.00943 0.0
C936 C 0.49403 0.09157 0.986 0.0
C937 C 0.47749 0.0681 0.97968 0.0
C938 C 0.45824 0.06498 0.99774 0.0
C939 C 0.49206 0.11178 0.96489 0.0
C940 C 0.52181 0.08456 0.99355 0.0
H941 H 0.41794 0.98668 0.93938 0.0
H942 H 0.37499 0.00459 0.02136 0.0
H943 H 0.43486 0.00932 0.03597 0.0
H944 H 0.44219 0.04088 0.04615 0.0
H945 H 0.41066 0.02767 0.05124 0.0
H946 H 0.38518 0.05918 0.99451 0.0
H947 H 0.38388 0.05615 0.02852 0.0
H948 H 0.40546 0.07857 0.014 0.0
H949 H 0.49779 0.00304 0.89054 0.0
H950 H 0.55317 0.06325 0.90886 0.0
H951 H 0.52711 0.07794 0.9436 0.0
H952 H 0.44809 0.03547 0.89878 0.0
H953 H 0.44389 0.00142 0.89692 0.0
H954 H 0.42527 0.02093 0.91815 0.0
H955 H 0.4899 0.98619 0.94852 0.0
H956 H 0.45711 0.97872 0.95101 0.0
H957 H 0.47214 0.97506 0.92064 0.0
H958 H 0.38092 0.96141 0.95073 0.0
C959 C 0.40918 0.99121 0.95719 0.0
Zn960 Zn 0.28819 0.84947 0.00151 0.0
Zn961 Zn 0.24644 0.87606 0.00046 0.0
O962 O 0.24367 0.85483 0.03375 0.0
O963 O 0.27581 0.82849 0.03039 0.0
O964 O 0.21527 0.8987 0.00112 0.0
O965 O 0.31048 0.88063 0.00816 0.0
O966 O 0.27611 0.90294 0.00027 0.0
C967 C 0.25624 0.8359 0.04196 0.0
C968 C 0.25972 0.84203 0.95455 0.0
O969 O 0.24305 0.8552 0.96613 0.0
O970 O 0.28103 0.83783 0.96535 0.0
C971 C 0.1928 0.89088 0.0062 0.0
O972 O 0.18901 0.86658 0.01094 0.0
C973 C 0.30016 0.90194 0.00454 0.0
Zn974 Zn 0.10545 0.44716 0.27618 0.0
Zn975 Zn 0.12598 0.49365 0.26596 0.0
O976 O 0.10128 0.50173 0.29503 0.0
O977 O 0.08404 0.46411 0.303 0.0
O978 O 0.14302 0.5275 0.25864 0.0
O979 O 0.14031 0.43447 0.2862 0.0
O980 O 0.15682 0.47192 0.27604 0.0
C981 C 0.08585 0.48793 0.3076 0.0
C982 C 0.09585 0.46305 0.22435 0.0
O983 O 0.10803 0.48316 0.23202 0.0
O984 O 0.09268 0.44466 0.2394 0.0
C985 C 0.13095 0.54807 0.25544 0.0
O986 O 0.10591 0.54754 0.25677 0.0
C987 C 0.15948 0.44927 0.28394 0.0
Zn988 Zn 0.77845 0.58943 0.9569 0.0
Zn989 Zn 0.77049 0.61513 0.00085 0.0
O990 O 0.7997 0.59125 0.01104 0.0
O991 O 0.80396 0.56798 0.97585 0.0
O992 O 0.76455 0.63628 0.03262 0.0
O993 O 0.78922 0.62224 0.94012 0.0
O994 O 0.78041 0.6429 0.97566 0.0
C995 C 0.81018 0.57304 0.99891 0.0
C996 C 0.72696 0.58378 0.974 0.0
O997 O 0.73564 0.59721 0.99295 0.0
O998 O 0.74142 0.57838 0.95566 0.0
C999 C 0.76119 0.62741 0.05474 0.0
O1000 O 0.76122 0.60256 0.05769 0.0
C1001 C 0.78763 0.64308 0.9526 0.0
Zn1002 Zn 0.83512 0.00028 0.27921 0.0
Zn1003 Zn 0.86509 0.00401 0.24016 0.0
O1004 O 0.84481 0.03821 0.23913 0.0
O1005 O 0.82187 0.03506 0.27368 0.0
O1006 O 0.89037 0.0066 0.21129 0.0
O1007 O 0.86432 0.99583 0.30378 0.0
O1008 O 0.88988 0.00119 0.27154 0.0
C1009 C 0.82867 0.04763 0.25453 0.0
C1010 C 0.82441 0.96063 0.24269 0.0
O1011 O 0.84346 0.97074 0.23153 0.0
O1012 O 0.81652 0.97021 0.26335 0.0
C1013 C 0.8849 0.01111 0.18806 0.0
O1014 O 0.86087 0.01437 0.18134 0.0
C1015 C 0.88671 0.99782 0.29535 0.0
Zn1016 Zn 0.27804 0.09172 0.44259 0.0
Zn1017 Zn 0.2684 0.11559 0.48681 0.0
O1018 O 0.29955 0.09385 0.49651 0.0
O1019 O 0.30818 0.07535 0.45965 0.0
O1020 O 0.26169 0.13702 0.51827 0.0
O1021 O 0.28282 0.12485 0.42457 0.0
O1022 O 0.27548 0.14415 0.46119 0.0
C1023 C 0.31338 0.07914 0.48315 0.0
C1024 C 0.2281 0.07938 0.46162 0.0
O1025 O 0.23508 0.09457 0.47992 0.0
O1026 O 0.24316 0.07501 0.4435 0.0
C1027 C 0.26292 0.13016 0.54138 0.0
O1028 O 0.26834 0.10636 0.54641 0.0
C1029 C 0.28068 0.14527 0.43757 0.0
Zn1030 Zn 0.33768 0.49754 0.77875 0.0
Zn1031 Zn 0.36455 0.50051 0.73737 0.0
O1032 O 0.34401 0.53455 0.73751 0.0
O1033 O 0.32331 0.53195 0.77349 0.0
O1034 O 0.38609 0.50243 0.70553 0.0
O1035 O 0.36918 0.49435 0.80063 0.0
O1036 O 0.39224 0.49882 0.76638 0.0
C1037 C 0.32878 0.54419 0.7537 0.0
C1038 C 0.32462 0.45679 0.74437 0.0
O1039 O 0.34255 0.4669 0.73154 0.0
O1040 O 0.31827 0.46674 0.76543 0.0
C1041 C 0.40029 0.52193 0.70171 0.0
O1042 O 0.40028 0.54094 0.71846 0.0
C1043 C 0.39086 0.49616 0.79049 0.0
Zn1044 Zn 0.78667 0.3434 0.50489 0.0
Zn1045 Zn 0.74648 0.37202 0.50552 0.0
O1046 O 0.74367 0.35058 0.5387 0.0
O1047 O 0.77404 0.32248 0.53373 0.0
O1048 O 0.7165 0.39613 0.50711 0.0
O1049 O 0.8107 0.37326 0.51154 0.0
O1050 O 0.77743 0.39741 0.50457 0.0
C1051 C 0.75545 0.33086 0.54624 0.0
C1052 C 0.75661 0.33792 0.45882 0.0
O1053 O 0.74098 0.35165 0.47118 0.0
O1054 O 0.77814 0.33281 0.46868 0.0
C1055 C 0.69348 0.38896 0.51057 0.0
O1056 O 0.6884 0.3645 0.51316 0.0
C1057 C 0.80143 0.39512 0.50842 0.0
Zn1058 Zn 0.5954 0.94477 0.78068 0.0
Zn1059 Zn 0.62311 0.98665 0.77061 0.0
O1060 O 0.60161 0.9982 0.80134 0.0
O1061 O 0.58102 0.96279 0.81113 0.0
O1062 O 0.64493 0.01764 0.76289 0.0
O1063 O 0.62742 0.9245 0.78472 0.0
O1064 O 0.65007 0.95953 0.77861 0.0
C1065 C 0.58616 0.9862 0.81556 0.0
C1066 C 0.5844 0.96418 0.73099 0.0
O1067 O 0.60228 0.98013 0.73716 0.0
O1068 O 0.57746 0.9473 0.7465 0.0
C1069 C 0.63542 0.03943 0.75914 0.0
O1070 O 0.61055 0.04192 0.76061 0.0
C1071 C 0.64895 0.93576 0.78343 0.0
Zn1072 Zn 0.00013 0.28005 0.82978 0.0
Zn1073 Zn 0.00325 0.24215 0.86229 0.0
O1074 O 0.03552 0.23775 0.84011 0.0
O1075 O 0.02988 0.26645 0.81041 0.0
O1076 O 0.0057 0.2143 0.88856 0.0
O1077 O 0.00553 0.30614 0.85817 0.0
O1078 O 0.00408 0.27476 0.88532 0.0
C1079 C 0.04271 0.24851 0.81973 0.0
C1080 C 0.95493 0.24855 0.82852 0.0
O1081 O 0.96799 0.23509 0.84389 0.0
O1082 O 0.96424 0.26915 0.82017 0.0
C1083 C 0.00821 0.1907 0.88321 0.0
O1084 O 0.00935 0.18341 0.85911 0.0
C1085 C 0.00552 0.29861 0.88098 0.0
Zn1086 Zn 0.49257 0.78505 0.34129 0.0
Zn1087 Zn 0.49708 0.74164 0.36507 0.0
O1088 O 0.52944 0.74272 0.34215 0.0
O1089 O 0.52312 0.77758 0.32045 0.0
O1090 O 0.5002 0.70889 0.38506 0.0
O1091 O 0.49731 0.80558 0.3737 0.0
O1092 O 0.49632 0.76926 0.39419 0.0
C1093 C 0.53649 0.75828 0.32502 0.0
C1094 C 0.44893 0.75234 0.33226 0.0
O1095 O 0.46239 0.73692 0.34518 0.0
O1096 O 0.45726 0.77479 0.32858 0.0
C1097 C 0.52025 0.70454 0.39831 0.0
O1098 O 0.53928 0.72126 0.39812 0.0
C1099 C 0.49744 0.79362 0.39443 0.0
Zn1100 Zn 0.9508 0.77073 0.59939 0.0
Zn1101 Zn 0.99624 0.76804 0.6232 0.0
O1102 O 0.00169 0.79904 0.59989 0.0
O1103 O 0.96294 0.80308 0.58336 0.0
O1104 O 0.02871 0.76594 0.64418 0.0
O1105 O 0.93258 0.77284 0.63276 0.0
O1106 O 0.97039 0.77355 0.65171 0.0
C1107 C 0.98585 0.81104 0.58597 0.0
C1108 C 0.97664 0.72406 0.58825 0.0
O1109 O 0.99315 0.73314 0.60437 0.0
O1110 O 0.95721 0.7368 0.58218 0.0
C1111 C 0.05093 0.76163 0.636 0.0
O1112 O 0.05412 0.75857 0.61132 0.0
C1113 C 0.94617 0.77462 0.653 0.0
Zn1114 Zn 0.44832 0.2796 0.10217 0.0
Zn1115 Zn 0.49439 0.27669 0.12405 0.0
O1116 O 0.49818 0.30788 0.10061 0.0
O1117 O 0.45902 0.3118 0.08522 0.0
O1118 O 0.52906 0.27416 0.14137 0.0
O1119 O 0.43225 0.28167 0.13649 0.0
O1120 O 0.47051 0.28214 0.15453 0.0
C1121 C 0.48195 0.3198 0.08706 0.0
C1122 C 0.47269 0.23316 0.08918 0.0
O1123 O 0.4898 0.24201 0.10478 0.0
O1124 O 0.45301 0.24593 0.08415 0.0
C1125 C 0.53465 0.25394 0.15314 0.0
O1126 O 0.51763 0.2352 0.15353 0.0
C1127 C 0.44631 0.28327 0.1564 0.0
C1128 C 0.22676 0.80758 0.89792 0.0
C1129 C 0.24731 0.80313 0.88155 0.0
C1130 C 0.23043 0.8214 0.92109 0.0
C1131 C 0.25478 0.83106 0.92859 0.0
H1132 H 0.20803 0.79938 0.89334 0.0
H1133 H 0.21443 0.82345 0.93373 0.0
S1134 S 0.31364 0.82841 0.8903 0.0
N1135 N 0.29191 0.81237 0.87286 0.0
N1136 N 0.29892 0.83791 0.9163 0.0
C1137 C 0.27501 0.82808 0.91156 0.0
C1138 C 0.27126 0.81423 0.88807 0.0
C1139 C 0.04381 0.49281 0.36549 0.0
C1140 C 0.03893 0.51906 0.36768 0.0
C1141 C 0.05898 0.4831 0.34605 0.0
C1142 C 0.07011 0.49923 0.328 0.0
H1143 H 0.0361 0.4796 0.37915 0.0
H1144 H 0.06217 0.46273 0.34537 0.0
S1145 S 0.06243 0.56942 0.32464 0.0
N1146 N 0.04569 0.56102 0.34962 0.0
N1147 N 0.07472 0.54282 0.31324 0.0
C1148 C 0.06543 0.52558 0.32992 0.0
C1149 C 0.04975 0.53547 0.3497 0.0
C1150 C 0.80277 0.69008 0.90059 0.0
C1151 C 0.80144 0.71398 0.91312 0.0
C1152 C 0.79875 0.66738 0.91366 0.0
C1153 C 0.79319 0.6676 0.93986 0.0
H1154 H 0.80631 0.68887 0.88029 0.0
H1155 H 0.79958 0.64955 0.90292 0.0
S1156 S 0.78939 0.72537 0.98188 0.0
N1157 N 0.79559 0.73667 0.95341 0.0
N1158 N 0.78777 0.694 0.97815 0.0
C1159 C 0.79238 0.69143 0.95279 0.0
C1160 C 0.79651 0.71461 0.93939 0.0
C1161 C 0.95512 0.99197 0.32089 0.0
C1162 C 0.9519 0.99144 0.34746 0.0
C1163 C 0.93402 0.99428 0.3041 0.0
C1164 C 0.90898 0.99623 0.31333 0.0
H1165 H 0.97398 0.99001 0.31303 0.0
H1166 H 0.93734 0.99415 0.28376 0.0
S1167 S 0.89105 0.9985 0.3817 0.0
N1168 N 0.92231 0.99499 0.38238 0.0
N1169 N 0.88272 -0.00078 0.35118 0.0
C1170 C 0.90577 0.99651 0.34001 0.0
C1171 C 0.9272 0.99416 0.35697 0.0
C1172 C 0.25562 0.15878 0.60821 0.0
C1173 C 0.25302 0.185 0.60371 0.0
C1174 C 0.25873 0.1412 0.58797 0.0
C1175 C 0.25909 0.14913 0.56243 0.0
H1176 H 0.25561 0.15186 0.62756 0.0
H1177 H 0.2609 0.12126 0.59246 0.0
S1178 S 0.25155 0.21576 0.54057 0.0
N1179 N 0.24997 0.218 0.57196 0.0
N1180 N 0.25581 0.18522 0.53391 0.0
C1181 C 0.25608 0.17535 0.55772 0.0
C1182 C 0.25307 0.1932 0.57835 0.0
C1183 C 0.4375 0.50046 0.64348 0.0
C1184 C 0.4517 0.52246 0.63722 0.0
C1185 C 0.42063 0.5006 0.664 0.0
C1186 C 0.41745 0.52269 0.67933 0.0
H1187 H 0.43938 0.48296 0.63234 0.0
H1188 H 0.41028 0.48309 0.66806 0.0
S1189 S 0.45056 0.58534 0.67103 0.0
N1190 N 0.46169 0.56689 0.64806 0.0
N1191 N 0.43004 0.56733 0.68649 0.0
C1192 C 0.4315 0.5449 0.67315 0.0
C1193 C 0.44856 0.54475 0.65215 0.0
C1194 C 0.75033 0.27908 0.59513 0.0
C1195 C 0.74762 0.29299 0.6181 0.0
C1196 C 0.7513 0.29147 0.57171 0.0
C1197 C 0.74906 0.31815 0.57031 0.0
H1198 H 0.75326 0.25866 0.59542 0.0
H1199 H 0.75483 0.28017 0.55463 0.0
S1200 S 0.73893 0.36286 0.62474 0.0
N1201 N 0.74088 0.33456 0.63795 0.0
N1202 N 0.74203 0.35784 0.59372 0.0
C1203 C 0.74459 0.33208 0.59293 0.0
C1204 C 0.74411 0.31949 0.6169 0.0
C1205 C 0.57426 0.9685 0.65928 0.0
C1206 C 0.54812 0.96226 0.65615 0.0
C1207 C 0.58579 0.97017 0.68373 0.0
C1208 C 0.57164 0.96493 0.70564 0.0
H1209 H 0.58584 0.9719 0.64273 0.0
H1210 H 0.60606 0.97466 0.68541 0.0
S1211 S 0.50244 0.94846 0.70743 0.0
N1212 N 0.50829 0.95168 0.6768 0.0
N1213 N 0.52998 0.95417 0.72263 0.0
C1214 C 0.54541 0.95905 0.70267 0.0
C1215 C 0.53364 0.95787 0.67793 0.0
C1216 C 0.89818 0.2086 0.80301 0.0
C1217 C 0.87962 0.22725 0.7985 0.0
C1218 C 0.92227 0.21528 0.81388 0.0
C1219 C 0.92862 0.24085 0.82031 0.0
H1220 H 0.89443 0.18889 0.79723 0.0
H1221 H 0.93636 0.20057 0.81619 0.0
S1222 S 0.88546 0.29608 0.81628 0.0
N1223 N 0.86823 0.27173 0.80449 0.0
N1224 N 0.91355 0.28434 0.82405 0.0
C1225 C 0.90979 0.25937 0.81712 0.0
C1226 C 0.88529 0.25256 0.80643 0.0
C1227 C 0.47326 0.8205 0.45665 0.0
C1228 C 0.48792 0.84318 0.45982 0.0
C1229 C 0.47787 0.80321 0.4365 0.0
C1230 C 0.49679 0.80851 0.41857 0.0
H1231 H 0.45754 0.81663 0.46924 0.0
H1232 H 0.46545 0.78652 0.43394 0.0
S1233 S 0.54136 0.86441 0.4196 0.0
N1234 N 0.52317 0.8691 0.4446 0.0
N1235 N 0.5313 0.8371 0.40624 0.0
C1236 C 0.51225 0.83055 0.42226 0.0
C1237 C 0.50794 0.84779 0.44304 0.0
C1238 C 0.09046 0.23827 0.76752 0.0
C1239 C 0.11365 0.23592 0.78117 0.0
C1240 C 0.0674 0.24122 0.78025 0.0
C1241 C 0.06659 0.24132 0.80709 0.0
H1242 H 0.09032 0.23901 0.74686 0.0
H1243 H 0.05012 0.24409 0.76901 0.0
S1244 S 0.12189 0.23406 0.85152 0.0
N1245 N 0.13444 0.23285 0.82283 0.0
N1246 N 0.09084 0.23759 0.84686 0.0
C1247 C 0.08947 0.23771 0.82094 0.0
C1248 C 0.1131 0.23528 0.80795 0.0
C1249 C 0.4994 0.64638 0.43589 0.0
C1250 C 0.52185 0.63966 0.44916 0.0
C1251 C 0.49922 0.66694 0.41907 0.0
C1252 C 0.52143 0.68184 0.41502 0.0
H1253 H 0.48178 0.63566 0.43854 0.0
H1254 H 0.48135 0.67143 0.40954 0.0
S1255 S 0.58529 0.67202 0.44525 0.0
N1256 N 0.56689 0.64943 0.45714 0.0
N1257 N 0.56671 0.68795 0.42559 0.0
C1258 C 0.54411 0.67509 0.42802 0.0
C1259 C 0.54429 0.65405 0.44502 0.0
C1260 C 0.89447 0.78577 0.70139 0.0
C1261 C 0.90805 0.78745 0.72479 0.0
C1262 C 0.90698 0.7814 0.67846 0.0
C1263 C 0.93368 0.77859 0.67792 0.0
H1264 H 0.87386 0.78757 0.70081 0.0
H1265 H 0.89552 0.78031 0.66101 0.0
S1266 S 0.97809 0.78172 0.73423 0.0
N1267 N 0.94957 0.78624 0.74627 0.0
N1268 N 0.97334 0.77787 0.70311 0.0
C1269 C 0.94754 0.78018 0.70128 0.0
C1270 C 0.93468 0.7846 0.72472 0.0
C1271 C 0.02484 0.85496 0.54436 0.0
C1272 C 0.00668 0.87305 0.53706 0.0
C1273 C 0.01856 0.83559 0.56149 0.0
C1274 C 0.99392 0.83375 0.57166 0.0
H1275 H 0.04353 0.85504 0.53584 0.0
H1276 H 0.03259 0.82124 0.56569 0.0
S1277 S 0.94128 0.8793 0.56201 0.0
N1278 N 0.96444 0.88999 0.5439 0.0
N1279 N 0.95251 0.85362 0.57576 0.0
C1280 C 0.97629 0.85282 0.56582 0.0
C1281 C 0.98271 0.87248 0.54859 0.0
C1282 C 0.11899 0.75566 0.66204 0.0
C1283 C 0.1159 0.75658 0.68865 0.0
C1284 C 0.09792 0.75734 0.64517 0.0
C1285 C 0.07293 0.7599 0.65427 0.0
H1286 H 0.13789 0.75393 0.65418 0.0
H1287 H 0.10134 0.75672 0.62485 0.0
S1288 S 0.05454 0.76148 0.72249 0.0
N1289 N 0.08592 0.75891 0.72338 0.0
N1290 N 0.04638 0.76232 0.69193 0.0
C1291 C 0.06961 0.76051 0.68093 0.0
C1292 C 0.09106 0.7588 0.69804 0.0
C1293 C 0.9715 0.66993 0.53961 0.0
C1294 C 0.97944 0.64878 0.55356 0.0
C1295 C 0.97134 0.69434 0.55091 0.0
C1296 C 0.97962 0.69854 0.57638 0.0
H1297 H 0.96446 0.6674 0.52011 0.0
H1298 H 0.96433 0.71 0.5397 0.0
S1299 S 0.00362 0.64955 0.62051 0.0
N1300 N 0.99649 0.63346 0.59376 0.0
N1301 N 0.99698 0.67968 0.61492 0.0
C1302 C 0.98861 0.6777 0.59023 0.0
C1303 C 0.98825 0.65269 0.57884 0.0
C1304 C 0.811 0.89099 0.22612 0.0
C1305 C 0.78406 0.88986 0.22593 0.0
C1306 C 0.82438 0.91446 0.22934 0.0
C1307 C 0.81117 0.93739 0.23251 0.0
H1308 H 0.82177 0.87354 0.22533 0.0
H1309 H 0.84504 0.91444 0.23114 0.0
S1310 S 0.74099 0.94525 0.22878 0.0
N1311 N 0.74493 0.91417 0.22539 0.0
N1312 N 0.77002 0.95795 0.23217 0.0
C1313 C 0.78439 0.93666 0.23043 0.0
C1314 C 0.77084 0.91297 0.22693 0.0
C1315 C 0.79314 0.10821 0.26956 0.0
C1316 C 0.79284 0.12133 0.24644 0.0
C1317 C 0.80516 0.0848 0.2718 0.0
C1318 C 0.81755 0.07328 0.25103 0.0
H1319 H 0.78346 0.11584 0.28606 0.0
H1320 H 0.80449 0.07558 0.29012 0.0
S1321 S 0.82312 0.10027 0.18637 0.0
N1322 N 0.80657 0.1216 0.20239 0.0
N1323 N 0.82932 0.07723 0.20656 0.0
C1324 C 0.81785 0.08636 0.22781 0.0
C1325 C 0.80537 0.11038 0.22549 0.0
C1326 C 0.35809 0.94586 0.01301 0.0
C1327 C 0.35404 0.96401 0.99409 0.0
C1328 C 0.33986 0.92652 0.0172 0.0
C1329 C 0.31678 0.92499 0.00291 0.0
H1330 H 0.37604 0.94582 0.02371 0.0
H1331 H 0.34425 0.91215 0.03114 0.0
S1332 S 0.29644 0.96947 0.95247 0.0
N1333 N 0.32504 0.9803 0.96186 0.0
N1334 N 0.29032 0.94436 0.97013 0.0
C1335 C 0.31192 0.94401 0.98495 0.0
C1336 C 0.33072 0.9634 0.98038 0.0
C1337 C 0.22412 0.41983 0.27639 0.0
C1338 C 0.23197 0.41569 0.30186 0.0
C1339 C 0.20102 0.4318 0.2707 0.0
C1340 C 0.18498 0.43985 0.29027 0.0
H1341 H 0.23536 0.41284 0.26068 0.0
H1342 H 0.19521 0.43387 0.25089 0.0
S1343 S 0.19763 0.43623 0.35985 0.0
N1344 N 0.22273 0.42298 0.34677 0.0
N1345 N 0.17884 0.44462 0.33585 0.0
C1346 C 0.19286 0.43675 0.31571 0.0
C1347 C 0.2165 0.42488 0.32158 0.0
C1348 C 0.16425 0.05326 0.48432 0.0
C1349 C 0.15469 0.03932 0.46286 0.0
C1350 C 0.18774 0.06662 0.48364 0.0
C1351 C 0.20266 0.06626 0.46155 0.0
H1352 H 0.15349 0.05383 0.50177 0.0
H1353 H 0.19441 0.07692 0.50071 0.0
S1354 S 0.18594 0.03223 0.40028 0.0
N1355 N 0.16184 0.0257 0.41904 0.0
N1356 N 0.20572 0.05084 0.41749 0.0
C1357 C 0.19308 0.05248 0.43988 0.0
C1358 C 0.16918 0.03902 0.4406 0.0
C1359 C 0.65623 0.10727 0.7435 0.0
C1360 C 0.68276 0.1054 0.7404 0.0
C1361 C 0.64119 0.08591 0.74967 0.0
C1362 C 0.65204 0.06174 0.7529 0.0
H1363 H 0.64702 0.12549 0.74139 0.0
H1364 H 0.62086 0.08845 0.75193 0.0
S1365 S 0.72066 0.04655 0.74573 0.0
N1366 N 0.71923 0.0774 0.74018 0.0
N1367 N 0.69116 0.03725 0.75197 0.0
C1368 C 0.67862 0.05961 0.74971 0.0
C1369 C 0.69391 0.08142 0.74345 0.0
C1370 C 0.35463 0.04508 0.53191 0.0
C1371 C 0.37411 0.03502 0.51681 0.0
C1372 C 0.33543 0.06015 0.52114 0.0
C1373 C 0.33509 0.06558 0.49491 0.0
H1374 H 0.35376 0.04059 0.55198 0.0
H1375 H 0.32031 0.06683 0.53325 0.0
S1376 S 0.38412 0.04688 0.44814 0.0
N1377 N 0.39354 0.03387 0.47509 0.0
N1378 N 0.35751 0.06184 0.45477 0.0
C1379 C 0.35523 0.05662 0.47995 0.0
C1380 C 0.37472 0.04143 0.49092 0.0
C1381 C 0.6599 0.45296 0.51112 0.0
C1382 C 0.63401 0.44614 0.51411 0.0
C1383 C 0.67886 0.43439 0.51005 0.0
C1384 C 0.67278 0.40815 0.51183 0.0
H1385 H 0.66562 0.47287 0.50985 0.0
H1386 H 0.69849 0.44076 0.50784 0.0
S1387 S 0.6075 0.38022 0.5187 0.0
N1388 N 0.60309 0.41132 0.518 0.0
N1389 N 0.6386 0.37641 0.51621 0.0
C1390 C 0.64687 0.40108 0.51469 0.0
C1391 C 0.62756 0.42004 0.5158 0.0
C1392 C 0.76654 0.31135 0.39228 0.0
C1393 C 0.74227 0.3015 0.38484 0.0
C1394 C 0.77056 0.32398 0.41581 0.0
C1395 C 0.75045 0.32766 0.43282 0.0
H1396 H 0.78278 0.30868 0.38008 0.0
H1397 H 0.78981 0.33048 0.42094 0.0
S1398 S 0.68289 0.30707 0.42197 0.0
N1399 N 0.6975 0.29721 0.396 0.0
N1400 N 0.70505 0.32171 0.44013 0.0
C1401 C 0.72577 0.31921 0.42514 0.0
C1402 C 0.72168 0.30598 0.40117 0.0
C1403 C 0.54865 0.99526 0.8759 0.0
C1404 C 0.54421 0.02164 0.87685 0.0
C1405 C 0.56286 0.98427 0.85642 0.0
C1406 C 0.57342 -0.00081 0.83707 0.0
H1407 H 0.54085 0.98289 0.89027 0.0
H1408 H 0.56532 0.96378 0.85642 0.0
S1409 S 0.568 0.06939 0.83118 0.0
N1410 N 0.55188 0.06262 0.85707 0.0
N1411 N 0.57907 0.04195 0.82046 0.0
C1412 C 0.5699 0.02577 0.8382 0.0
C1413 C 0.5552 0.03699 0.85808 0.0
C1414 C 0.28934 0.21698 0.42937 0.0
C1415 C 0.29382 0.21894 0.40313 0.0
C1416 C 0.28489 0.19311 0.44034 0.0
C1417 C 0.28461 0.17039 0.42541 0.0
H1418 H 0.28976 0.23395 0.44155 0.0
H1419 H 0.28194 0.1925 0.46073 0.0
S1420 S 0.29288 0.16591 0.35513 0.0
N1421 N 0.29599 0.19668 0.36215 0.0
N1422 N 0.28774 0.15187 0.38253 0.0
C1423 C 0.28837 0.17233 0.39894 0.0
C1424 C 0.29294 0.19658 0.38787 0.0
C1425 C 0.43226 0.49285 0.85052 0.0
C1426 C 0.45733 0.49278 0.84145 0.0
C1427 C 0.4112 0.49412 0.83385 0.0
C1428 C 0.41416 0.49542 0.80722 0.0
H1429 H 0.42883 0.49186 0.87082 0.0
H1430 H 0.39238 0.49396 0.84208 0.0
S1431 S 0.47604 0.49633 0.7737 0.0
N1432 N 0.48421 0.49446 0.80423 0.0
N1433 N 0.44448 0.49708 0.77259 0.0
C1434 C 0.43922 0.49585 0.79783 0.0
C1435 C 0.46082 0.49454 0.815 0.0
C1436 C 0.75462 0.6893 0.09292 0.0
C1437 C 0.75238 0.68115 0.11819 0.0
C1438 C 0.75724 0.67176 0.07267 0.0
C1439 C 0.7578 0.64527 0.0768 0.0
H1440 H 0.75412 0.70945 0.08868 0.0
H1441 H 0.75889 0.67916 0.0536 0.0
S1442 S 0.75321 0.61413 0.13972 0.0
N1443 N 0.75132 0.64495 0.14647 0.0
N1444 N 0.75604 0.61182 0.10842 0.0
C1445 C 0.75551 0.63683 0.10206 0.0
C1446 C 0.75282 0.65479 0.12272 0.0
C1447 C 0.91766 0.01656 0.12393 0.0
C1448 C 0.94377 0.01443 0.13034 0.0
C1449 C 0.89886 0.01554 0.14268 0.0
C1450 C 0.90537 0.01243 0.16867 0.0
H1451 H 0.91165 0.01864 0.10418 0.0
H1452 H 0.87905 0.01705 0.13664 0.0
S1453 S 0.97135 0.00769 0.19562 0.0
N1454 N 0.97531 0.01036 0.1646 0.0
N1455 N 0.94018 0.00822 0.19981 0.0
C1456 C 0.93152 0.01067 0.17535 0.0
C1457 C 0.95063 0.0117 0.15623 0.0
C1458 C 0.24538 0.82569 0.11224 0.0
C1459 C 0.24745 0.79902 0.11411 0.0
C1460 C 0.24608 0.83756 0.08841 0.0
C1461 C 0.24952 0.82314 0.06585 0.0
H1462 H 0.24407 0.83748 0.12938 0.0
H1463 H 0.24559 0.85821 0.08782 0.0
S1464 S 0.25434 0.75272 0.06037 0.0
N1465 N 0.25145 0.75852 0.09126 0.0
N1466 N 0.25343 0.78083 0.04667 0.0
C1467 C 0.25052 0.79643 0.06742 0.0
C1468 C 0.24931 0.78435 0.09152 0.0
C1469 C 0.06433 0.43447 0.16414 0.0
C1470 C 0.06063 0.45578 0.14873 0.0
C1471 C 0.07604 0.43704 0.18834 0.0
C1472 C 0.08476 0.46102 0.19804 0.0
H1473 H 0.05752 0.41571 0.15772 0.0
H1474 H 0.07807 0.42004 0.1996 0.0
S1475 S 0.08087 0.52261 0.16433 0.0
N1476 N 0.06745 0.50146 0.14419 0.0
N1477 N 0.0896 0.50644 0.18971 0.0
C1478 C 0.08176 0.48243 0.18248 0.0
C1479 C 0.06961 0.47979 0.15786 0.0
C1480 C 0.38211 0.75757 0.30362 0.0
C1481 C 0.37496 0.73213 0.29744 0.0
C1482 C 0.40582 0.76369 0.31522 0.0
C1483 C 0.42342 0.74464 0.32139 0.0
H1484 H 0.36927 0.77298 0.29939 0.0
H1485 H 0.41039 0.78363 0.31933 0.0
S1486 S 0.4142 0.67503 0.30913 0.0
N1487 N 0.38758 0.68767 0.29815 0.0
N1488 N 0.43199 0.69918 0.32059 0.0
C1489 C 0.41638 0.71904 0.31586 0.0
C1490 C 0.39221 0.71279 0.30376 0.0
C1491 C 0.00163 0.36281 0.91534 0.0
C1492 C 0.99892 0.35629 0.94102 0.0
C1493 C 0.00482 0.34406 0.89635 0.0
C1494 C 0.00523 0.31791 0.9022 0.0
H1495 H 0.00072 0.3826 0.90977 0.0
H1496 H 0.00619 0.35021 0.8768 0.0
S1497 S 0.00045 0.29104 0.9671 0.0
N1498 N 0.99808 0.32219 0.97175 0.0
N1499 N 0.00408 0.28669 0.93607 0.0
C1500 C 0.00358 0.31121 0.92807 0.0
C1501 C 0.00045 0.33045 0.94747 0.0
C1502 C 0.60085 0.73222 0.30443 0.0
C1503 C 0.60862 0.74981 0.28605 0.0
C1504 C 0.57733 0.73474 0.31676 0.0
C1505 C 0.56069 0.75479 0.3109 0.0
H1506 H 0.61327 0.71679 0.3097 0.0
H1507 H 0.57235 0.7211 0.33121 0.0
S1508 S 0.57166 0.8043 0.26202 0.0
N1509 N 0.59747 0.78674 0.2613 0.0
N1510 N 0.55345 0.79159 0.28395 0.0
C1511 C 0.56811 0.77194 0.29179 0.0
C1512 C 0.592 0.76942 0.27951 0.0
C1513 C 0.01315 0.12683 0.91645 0.0
C1514 C 0.0118 0.13354 0.94251 0.0
C1515 C 0.01201 0.1454 0.89751 0.0
C1516 C 0.00961 0.17152 0.90384 0.0
H1517 H 0.01472 0.10697 0.91059 0.0
H1518 H 0.01292 0.13912 0.87773 0.0
S1519 S 0.00682 0.19921 0.96962 0.0
N1520 N 0.00904 0.16817 0.97382 0.0
N1521 N 0.00675 0.2031 0.93842 0.0
C1522 C 0.0086 0.17851 0.92994 0.0
C1523 C 0.0097 0.15955 0.9492 0.0
C1524 C 0.43899 0.2967 0.22764 0.0
C1525 C 0.41241 0.29865 0.22988 0.0
C1526 C 0.44987 0.29137 0.20386 0.0
C1527 C 0.43446 0.28754 0.18164 0.0
H1528 H 0.45141 0.29972 0.24426 0.0
H1529 H 0.47049 0.29053 0.20289 0.0
S1530 S 0.36338 0.28821 0.17852 0.0
N1531 N 0.37082 0.29476 0.20872 0.0
N1532 N 0.39089 0.28458 0.16416 0.0
C1533 C 0.4077 0.28868 0.18403 0.0
C1534 C 0.39678 0.29427 0.20811 0.0
C1535 C 0.52133 0.36355 0.04563 0.0
C1536 C 0.5029 0.38053 0.03657 0.0
C1537 C 0.51484 0.34462 0.06313 0.0
C1538 C 0.48973 0.34215 0.07202 0.0
H1539 H 0.54053 0.36416 0.03828 0.0
H1540 H 0.52925 0.33113 0.06874 0.0
S1541 S 0.43583 0.38495 0.05734 0.0
N1542 N 0.45959 0.39584 0.04012 0.0
N1543 N 0.44729 0.36038 0.07284 0.0
C1544 C 0.47166 0.36017 0.06432 0.0
C1545 C 0.47827 0.37934 0.04662 0.0
C1546 C 0.59823 0.27306 0.18523 0.0
C1547 C 0.60642 0.25018 0.19603 0.0
C1548 C 0.5753 0.27396 0.17096 0.0
C1549 C 0.5595 0.25207 0.16719 0.0
H1550 H 0.60963 0.29044 0.18788 0.0
H1551 H 0.56975 0.29211 0.16323 0.0
S1552 S 0.57254 0.18735 0.19159 0.0
N1553 N 0.59712 0.20511 0.20204 0.0
N1554 N 0.55411 0.20664 0.1752 0.0
C1555 C 0.56768 0.22897 0.1777 0.0
C1556 C 0.59111 0.22806 0.19209 0.0
C1557 C 0.4831 0.16216 0.0801 0.0
C1558 C 0.47526 0.15793 0.05452 0.0
C1559 C 0.48349 0.18689 0.09102 0.0
C1560 C 0.47533 0.20786 0.07682 0.0
H1561 H 0.4886 0.14623 0.09176 0.0
H1562 H 0.48915 0.18945 0.11093 0.0
S1563 S 0.45397 0.20668 0.00887 0.0
N1564 N 0.46026 0.17662 0.01505 0.0
N1565 N 0.46026 0.22291 0.03568 0.0
C1566 C 0.46796 0.20383 0.05111 0.0
C1567 C 0.4681 0.17887 0.03991 0.0
C1568 C 0.31096 0.38756 0.72507 0.0
C1569 C 0.28427 0.38549 0.72798 0.0
C1570 C 0.32403 0.41117 0.72865 0.0
C1571 C 0.31078 0.43334 0.73539 0.0
H1572 H 0.32196 0.37065 0.72123 0.0
H1573 H 0.34468 0.41178 0.72759 0.0
S1574 S 0.24062 0.43904 0.74089 0.0
N1575 N 0.24488 0.40846 0.73439 0.0
N1576 N 0.26946 0.4524 0.74193 0.0
C1577 C 0.28404 0.43179 0.73675 0.0
C1578 C 0.27077 0.40799 0.73282 0.0
C1579 C 0.29199 0.60413 0.76872 0.0
C1580 C 0.29314 0.61814 0.74619 0.0
C1581 C 0.30371 0.58052 0.77073 0.0
C1582 C 0.31726 0.56971 0.75032 0.0
H1583 H 0.28153 0.61129 0.78492 0.0
H1584 H 0.30198 0.57067 0.78862 0.0
S1585 S 0.32662 0.59918 0.68723 0.0
N1586 N 0.30927 0.61997 0.70307 0.0
N1587 N 0.33151 0.57531 0.7068 0.0
C1588 C 0.31883 0.58364 0.72765 0.0
C1589 C 0.30666 0.60783 0.72557 0.0
C1590 C 0.83348 0.45392 0.48177 0.0
C1591 C 0.85687 0.4552 0.49544 0.0
C1592 C 0.81471 0.43547 0.48734 0.0
C1593 C 0.81906 0.41732 0.50632 0.0
H1594 H 0.82998 0.46684 0.46623 0.0
H1595 H 0.79732 0.43451 0.47575 0.0
S1596 S 0.87664 0.41375 0.54849 0.0
N1597 N 0.88279 0.43799 0.52972 0.0
N1598 N 0.84789 0.4028 0.53976 0.0
C1599 C 0.84204 0.41906 0.5207 0.0
C1600 C 0.86087 0.43815 0.51537 0.0
C1601 C 0.71938 0.92088 0.79318 0.0
C1602 C 0.71895 0.8944 0.79705 0.0
C1603 C 0.6967 0.9341 0.78874 0.0
C1604 C 0.67275 0.92129 0.78786 0.0
H1605 H 0.73737 0.93149 0.79382 0.0
H1606 H 0.69801 0.95454 0.78608 0.0
S1607 S 0.66174 0.85145 0.79507 0.0
N1608 N 0.69297 0.85555 0.79846 0.0
N1609 N 0.65035 0.88017 0.79032 0.0
C1610 C 0.67221 0.89465 0.79137 0.0
C1611 C 0.69529 0.88128 0.79592 0.0
C1612 C 0.66659 0.54891 0.9502 0.0
C1613 C 0.65062 0.54978 0.9714 0.0
C1614 C 0.69089 0.56052 0.95114 0.0
C1615 C 0.70026 0.57358 0.9733 0.0
H1616 H 0.66067 0.53832 0.93304 0.0
H1617 H 0.70261 0.5587 0.93441 0.0
S1618 S 0.66465 0.58347 0.03321 0.0
N1619 N 0.64486 0.56628 0.01455 0.0
N1620 N 0.69069 0.5881 0.01647 0.0
C1621 C 0.684 0.57551 0.99433 0.0
C1622 C 0.65919 0.56358 0.99335 0.0
C1623 C 0.1861 0.59399 0.24234 0.0
C1624 C 0.17412 0.61761 0.23968 0.0
C1625 C 0.17197 0.57174 0.24743 0.0
C1626 C 0.14523 0.57217 0.25015 0.0
H1627 H 0.20656 0.5926 0.24009 0.0
H1628 H 0.18218 0.55404 0.24909 0.0
S1629 S 0.10494 0.62967 0.2463 0.0
N1630 N 0.13419 0.64045 0.24113 0.0
N1631 N 0.10748 0.59866 0.25055 0.0
C1632 C 0.13304 0.5958 0.24782 0.0
C1633 C 0.1475 0.61848 0.24259 0.0
C1634 C 0.87193 0.55513 0.03235 0.0
C1635 C 0.87208 0.5284 0.02861 0.0
C1636 C 0.8511 0.56953 0.02396 0.0
C1637 C 0.83 0.55767 0.01128 0.0
H1638 H 0.88845 0.5651 0.04076 0.0
H1639 H 0.85212 0.59014 0.0262 0.0
S1640 S 0.81899 0.48815 0.00069 0.0
N1641 N 0.84751 0.49051 0.01471 0.0
N1642 N 0.80909 0.51773 0.9979 0.0
C1643 C 0.82927 0.53097 0.00871 0.0
C1644 C 0.85013 0.51629 0.01765 0.0
C1645 C 0.15678 0.95347 0.00622 0.0
C1646 C 0.13121 0.94576 0.00978 0.0
C1647 C 0.17642 0.93564 0.00504 0.0
C1648 C 0.17138 0.90925 0.00734 0.0
H1649 H 0.16173 0.97354 0.00458 0.0
H1650 H 0.19576 0.9427 0.00241 0.0
S1651 S 0.10733 0.87901 0.01569 0.0
N1652 N 0.10171 0.90989 0.01465 0.0
N1653 N 0.13852 0.87635 0.01274 0.0
C1654 C 0.14581 0.90126 0.01077 0.0
C1655 C 0.1258 0.91948 0.01194 0.0
loop_
_geom_bond_atom_site_label_1
_geom_bond_atom_site_label_2
_geom_bond_distance
_geom_bond_site_symmetry_2
_ccdc_geom_bond_type
C0 C1 1.391 . S
C0 C4 1.391 . S
C0 H42 0.948 . S
C1 C0 1.391 . S
C1 C2 1.391 . S
C2 C1 1.391 . S
C2 H58 0.953 1_455 S
C2 C59 1.392 1_556 S
C3 C4 1.391 1_554 S
C3 C7 1.397 . S
C3 C59 1.419 . S
C4 C0 1.391 . S
C4 C3 1.391 1_556 S
C4 C5 1.399 . S
C5 C4 1.399 . S
C5 C8 1.396 1_556 S
C5 C17 1.453 . S
C5 C18 1.684 . S
H6 C30 0.948 . S
C7 C3 1.397 . S
C7 C8 1.394 . S
C7 C26 1.723 . S
C8 C5 1.396 1_554 S
C8 C7 1.394 . S
C8 C38 1.723 . S
H9 C32 0.953 1_556 S
H10 C33 0.948 1_556 S
H11 C39 0.982 1_545 S
H12 C40 0.979 . S
H13 C40 0.980 . S
H14 C40 0.983 . S
H15 C39 0.979 . S
H16 C39 0.977 . S
C17 C5 1.453 . S
C17 H46 0.982 1_556 S
C17 H47 0.979 . S
C17 H48 0.977 . S
C18 C5 1.684 . S
C18 H43 0.979 . S
C18 H44 0.980 . S
C18 H45 0.983 . S
C19 C20 1.391 . S
C19 C24 1.391 . S
C19 H49 0.948 . S
C20 C19 1.391 . S
C20 C21 1.391 . S
C21 C20 1.391 . S
C21 C22 1.392 1_655 S
C21 H50 0.953 1_545 S
C22 C21 1.392 1_455 S
C22 C23 1.419 . S
C22 H51 0.948 1_545 S
C23 C22 1.419 . S
C23 C24 1.391 1_455 S
C23 C27 1.397 . S
C24 C19 1.391 . S
C24 C23 1.391 1_655 S
C24 C25 1.399 . S
C25 C24 1.399 . S
C25 C26 1.396 1_655 S
C25 C28 1.453 . S
C25 C29 1.684 . S
C26 C7 1.723 . S
C26 C25 1.396 1_455 S
C26 C27 1.394 . S
C27 C23 1.397 . S
C27 C26 1.394 . S
C27 C37 1.723 . S
C28 C25 1.453 . S
C28 H52 0.982 1_655 S
C28 H53 0.979 . S
C28 H54 0.977 . S
C29 C25 1.684 . S
C29 H55 0.979 . S
C29 H56 0.980 . S
C29 H57 0.983 . S
C30 H6 0.948 . S
C30 C31 1.391 . S
C30 C35 1.391 . S
C31 C30 1.391 . S
C31 C32 1.391 . S
C32 H9 0.953 1_554 S
C32 C31 1.391 . S
C32 C33 1.392 1_565 S
C33 H10 0.948 1_554 S
C33 C32 1.392 1_545 S
C33 C34 1.419 . S
C34 C33 1.419 . S
C34 C35 1.391 1_545 S
C34 C38 1.397 . S
C35 C30 1.391 . S
C35 C34 1.391 1_565 S
C35 C36 1.399 . S
C36 C35 1.399 . S
C36 C37 1.396 1_565 S
C36 C39 1.453 . S
C36 C40 1.684 . S
C37 C27 1.723 . S
C37 C36 1.396 1_545 S
C37 C38 1.394 . S
C38 C8 1.723 . S
C38 C34 1.397 . S
C38 C37 1.394 . S
C39 H11 0.982 1_565 S
C39 H15 0.979 . S
C39 H16 0.977 . S
C39 C36 1.453 . S
C40 H12 0.979 . S
C40 H13 0.980 . S
C40 H14 0.983 . S
C40 C36 1.684 . S
H41 C59 0.948 1_655 S
H42 C0 0.948 . S
H43 C18 0.979 . S
H44 C18 0.980 . S
H45 C18 0.983 . S
H46 C17 0.982 1_554 S
H47 C17 0.979 . S
H48 C17 0.977 . S
H49 C19 0.948 . S
H50 C21 0.953 1_565 S
H51 C22 0.948 1_565 S
H52 C28 0.982 1_455 S
H53 C28 0.979 . S
H54 C28 0.977 . S
H55 C29 0.979 . S
H56 C29 0.980 . S
H57 C29 0.983 . S
H58 C2 0.953 1_655 S
C59 C2 1.392 1_554 S
C59 C3 1.419 . S
C59 H41 0.948 1_455 S
C60 C61 1.391 . S
C60 C64 1.391 . S
C60 H102 0.948 . S
C61 C60 1.391 . S
C61 C62 1.391 . S
C62 C61 1.391 . S
C62 H118 0.947 . S
C62 C119 1.392 . S
C63 C64 1.391 . S
C63 C67 1.397 . S
C63 C119 1.419 . S
C64 C60 1.391 . S
C64 C63 1.391 . S
C64 C65 1.399 . S
C65 C64 1.399 . S
C65 C68 1.396 . S
C65 C77 1.453 . S
C65 C78 1.684 . S
H66 C90 0.948 . S
C67 C63 1.397 . S
C67 C68 1.394 . S
C67 C86 1.723 . S
C68 C65 1.396 . S
C68 C67 1.394 . S
C68 C98 1.723 . S
H69 C92 0.947 . S
H70 C93 0.948 . S
H71 C99 0.982 . S
H72 C100 0.979 . S
H73 C100 0.980 . S
H74 C100 0.983 . S
H75 C99 0.979 . S
H76 C99 0.977 . S
C77 C65 1.453 . S
C77 H106 0.982 . S
C77 H107 0.979 . S
C77 H108 0.977 . S
C78 C65 1.684 . S
C78 H103 0.979 . S
C78 H104 0.980 . S
C78 H105 0.983 . S
C79 C80 1.391 . S
C79 C84 1.391 . S
C79 H109 0.948 . S
C80 C79 1.391 . S
C80 C81 1.391 . S
C81 C80 1.391 . S
C81 C82 1.392 . S
C81 H110 0.947 . S
C82 C81 1.392 . S
C82 C83 1.419 . S
C82 H111 0.948 . S
C83 C82 1.419 . S
C83 C84 1.391 . S
C83 C87 1.397 . S
C84 C79 1.391 . S
C84 C83 1.391 . S
C84 C85 1.399 . S
C85 C84 1.399 . S
C85 C86 1.396 . S
C85 C88 1.453 . S
C85 C89 1.684 . S
C86 C67 1.723 . S
C86 C85 1.396 . S
C86 C87 1.394 . S
C87 C83 1.397 . S
C87 C86 1.394 . S
C87 C97 1.723 . S
C88 C85 1.453 . S
C88 H112 0.982 . S
C88 H113 0.979 . S
C88 H114 0.977 . S
C89 C85 1.684 . S
C89 H115 0.979 . S
C89 H116 0.980 . S
C89 H117 0.983 . S
C90 H66 0.948 . S
C90 C91 1.391 . S
C90 C95 1.391 . S
C91 C90 1.391 . S
C91 C92 1.391 . S
C92 H69 0.947 . S
C92 C91 1.391 . S
C92 C93 1.392 . S
C93 H70 0.948 . S
C93 C92 1.392 . S
C93 C94 1.419 . S
C94 C93 1.419 . S
C94 C95 1.391 . S
C94 C98 1.397 . S
C95 C90 1.391 . S
C95 C94 1.391 . S
C95 C96 1.399 . S
C96 C95 1.399 . S
C96 C97 1.396 . S
C96 C99 1.453 . S
C96 C100 1.684 . S
C97 C87 1.723 . S
C97 C96 1.396 . S
C97 C98 1.394 . S
C98 C68 1.723 . S
C98 C94 1.397 . S
C98 C97 1.394 . S
C99 H71 0.982 . S
C99 H75 0.979 . S
C99 H76 0.977 . S
C99 C96 1.453 . S
C100 H72 0.979 . S
C100 H73 0.980 . S
C100 H74 0.983 . S
C100 C96 1.684 . S
H101 C119 0.948 . S
H102 C60 0.948 . S
H103 C78 0.979 . S
H104 C78 0.980 . S
H105 C78 0.983 . S
H106 C77 0.982 . S
H107 C77 0.979 . S
H108 C77 0.977 . S
H109 C79 0.948 . S
H110 C81 0.947 . S
H111 C82 0.948 . S
H112 C88 0.982 . S
H113 C88 0.979 . S
H114 C88 0.977 . S
H115 C89 0.979 . S
H116 C89 0.980 . S
H117 C89 0.983 . S
H118 C62 0.947 . S
C119 C62 1.392 . S
C119 C63 1.419 . S
C119 H101 0.948 . S
C120 C121 1.391 1_554 S
C120 C124 1.391 . S
C120 H162 0.948 . S
C121 C120 1.391 1_556 S
C121 C122 1.391 . S
C122 C121 1.391 . S
C122 H178 0.947 . S
C122 C179 1.392 . S
C123 C124 1.391 . S
C123 C127 1.397 . S
C123 C179 1.419 1_554 S
C124 C120 1.391 . S
C124 C123 1.391 . S
C124 C125 1.399 . S
C125 C124 1.399 . S
C125 C128 1.396 . S
C125 C137 1.453 . S
C125 C138 1.684 1_655 S
H126 C150 0.945 1_655 S
C127 C123 1.397 . S
C127 C128 1.394 . S
C127 C146 1.723 . S
C128 C125 1.396 . S
C128 C127 1.394 . S
C128 C158 1.723 . S
H129 C152 0.947 . S
H130 C153 0.948 . S
H131 C159 0.982 . S
H132 C160 0.979 . S
H133 C160 0.980 . S
H134 C160 0.983 . S
H135 C159 0.979 . S
H136 C159 0.977 . S
C137 C125 1.453 . S
C137 H166 0.982 . S
C137 H167 0.987 . S
C137 H168 0.977 . S
C138 C125 1.684 1_455 S
C138 H163 0.979 . S
C138 H164 0.980 . S
C138 H165 0.983 . S
C139 C140 1.391 . S
C139 C144 1.391 . S
C139 H169 0.948 . S
C140 C139 1.391 . S
C140 C141 1.391 . S
C141 C140 1.391 . S
C141 C142 1.392 . S
C141 H170 0.947 . S
C142 C141 1.392 . S
C142 C143 1.419 . S
C142 H171 0.948 . S
C143 C142 1.419 . S
C143 C144 1.391 . S
C143 C147 1.397 . S
C144 C139 1.391 . S
C144 C143 1.391 . S
C144 C145 1.399 . S
C145 C144 1.399 . S
C145 C146 1.396 . S
C145 C148 1.453 . S
C145 C149 1.684 1_554 S
C146 C127 1.723 . S
C146 C145 1.396 . S
C146 C147 1.394 . S
C147 C143 1.397 . S
C147 C146 1.394 . S
C147 C157 1.723 . S
C148 C145 1.453 . S
C148 H172 0.982 . S
C148 H173 0.979 . S
C148 H174 0.977 . S
C149 C145 1.684 1_556 S
C149 H175 0.979 . S
C149 H176 0.980 . S
C149 H177 0.983 . S
C150 H126 0.945 1_455 S
C150 C151 1.402 . S
C150 C155 1.384 1_455 S
C151 C150 1.402 . S
C151 C152 1.391 . S
C152 H129 0.947 . S
C152 C151 1.391 . S
C152 C153 1.392 . S
C153 H130 0.948 . S
C153 C152 1.392 . S
C153 C154 1.419 1_455 S
C154 C153 1.419 1_655 S
C154 C155 1.391 . S
C154 C158 1.397 . S
C155 C150 1.384 1_655 S
C155 C154 1.391 . S
C155 C156 1.399 . S
C156 C155 1.399 . S
C156 C157 1.396 . S
C156 C159 1.453 . S
C156 C160 1.684 . S
C157 C147 1.723 . S
C157 C156 1.396 . S
C157 C158 1.394 . S
C158 C128 1.723 . S
C158 C154 1.397 . S
C158 C157 1.394 . S
C159 H131 0.982 . S
C159 H135 0.979 . S
C159 H136 0.977 . S
C159 C156 1.453 . S
C160 H132 0.979 . S
C160 H133 0.980 . S
C160 H134 0.983 . S
C160 C156 1.684 . S
H161 C179 0.948 . S
H162 C120 0.948 . S
H163 C138 0.979 . S
H164 C138 0.980 . S
H165 C138 0.983 . S
H166 C137 0.982 . S
H167 C137 0.987 . S
H168 C137 0.977 . S
H169 C139 0.948 . S
H170 C141 0.947 . S
H171 C142 0.948 . S
H172 C148 0.982 . S
H173 C148 0.979 . S
H174 C148 0.977 . S
H175 C149 0.979 . S
H176 C149 0.980 . S
H177 C149 0.983 . S
H178 C122 0.947 . S
C179 C122 1.392 . S
C179 C123 1.419 1_556 S
C179 H161 0.948 . S
C180 C181 1.391 . S
C180 C184 1.391 . S
C180 H222 0.948 . S
C181 C180 1.391 . S
C181 C182 1.391 . S
C182 C181 1.391 . S
C182 H238 0.947 . S
C182 C239 1.392 . S
C183 C184 1.391 . S
C183 C187 1.397 . S
C183 C239 1.419 . S
C184 C180 1.391 . S
C184 C183 1.391 . S
C184 C185 1.399 . S
C185 C184 1.399 . S
C185 C188 1.396 . S
C185 C197 1.453 . S
C185 C198 1.684 . S
H186 C210 0.948 . S
C187 C183 1.397 . S
C187 C188 1.394 . S
C187 C206 1.723 . S
C188 C185 1.396 . S
C188 C187 1.394 . S
C188 C218 1.723 . S
H189 C212 0.947 . S
H190 C213 0.948 . S
H191 C219 0.982 . S
H192 C220 0.979 . S
H193 C220 0.980 . S
H194 C220 0.983 . S
H195 C219 0.979 . S
H196 C219 0.977 . S
C197 C185 1.453 . S
C197 H226 0.982 . S
C197 H227 0.979 . S
C197 H228 0.977 . S
C198 C185 1.684 . S
C198 H223 0.979 . S
C198 H224 0.980 . S
C198 H225 0.983 . S
C199 C200 1.391 . S
C199 C204 1.391 . S
C199 H229 0.948 . S
C200 C199 1.391 . S
C200 C201 1.391 . S
C201 C200 1.391 . S
C201 C202 1.392 . S
C201 H230 0.947 . S
C202 C201 1.392 . S
C202 C203 1.419 . S
C202 H231 0.948 . S
C203 C202 1.419 . S
C203 C204 1.391 . S
C203 C207 1.397 . S
C204 C199 1.391 . S
C204 C203 1.391 . S
C204 C205 1.399 . S
C205 C204 1.399 . S
C205 C206 1.396 . S
C205 C208 1.453 . S
C205 C209 1.684 . S
C206 C187 1.723 . S
C206 C205 1.396 . S
C206 C207 1.394 . S
C207 C203 1.397 . S
C207 C206 1.394 . S
C207 C217 1.723 . S
C208 C205 1.453 . S
C208 H232 0.982 . S
C208 H233 0.979 . S
C208 H234 0.977 . S
C209 C205 1.684 . S
C209 H235 0.979 . S
C209 H236 0.980 . S
C209 H237 0.983 . S
C210 H186 0.948 . S
C210 C211 1.391 . S
C210 C215 1.391 . S
C211 C210 1.391 . S
C211 C212 1.391 . S
C212 H189 0.947 . S
C212 C211 1.391 . S
C212 C213 1.392 . S
C213 H190 0.948 . S
C213 C212 1.392 . S
C213 C214 1.419 . S
C214 C213 1.419 . S
C214 C215 1.391 . S
C214 C218 1.397 . S
C215 C210 1.391 . S
C215 C214 1.391 . S
C215 C216 1.399 . S
C216 C215 1.399 . S
C216 C217 1.396 . S
C216 C219 1.453 . S
C216 C220 1.684 . S
C217 C207 1.723 . S
C217 C216 1.396 . S
C217 C218 1.394 . S
C218 C188 1.723 . S
C218 C214 1.397 . S
C218 C217 1.394 . S
C219 H191 0.982 . S
C219 H195 0.979 . S
C219 H196 0.977 . S
C219 C216 1.453 . S
C220 H192 0.979 . S
C220 H193 0.980 . S
C220 H194 0.983 . S
C220 C216 1.684 . S
H221 C239 0.948 . S
H222 C180 0.948 . S
H223 C198 0.979 . S
H224 C198 0.980 . S
H225 C198 0.983 . S
H226 C197 0.982 . S
H227 C197 0.979 . S
H228 C197 0.977 . S
H229 C199 0.948 . S
H230 C201 0.947 . S
H231 C202 0.948 . S
H232 C208 0.982 . S
H233 C208 0.979 . S
H234 C208 0.977 . S
H235 C209 0.979 . S
H236 C209 0.980 . S
H237 C209 0.983 . S
H238 C182 0.947 . S
C239 C182 1.392 . S
C239 C183 1.419 . S
C239 H221 0.948 . S
C240 C241 1.391 . S
C240 C244 1.391 . S
C240 H282 0.948 . S
C241 C240 1.391 . S
C241 C242 1.391 . S
C242 C241 1.391 . S
C242 H298 0.947 . S
C242 C299 1.392 . S
C243 C244 1.391 . S
C243 C247 1.397 . S
C243 C299 1.419 . S
C244 C240 1.391 . S
C244 C243 1.391 . S
C244 C245 1.399 . S
C245 C244 1.399 . S
C245 C248 1.396 . S
C245 C257 1.453 . S
C245 C258 1.684 . S
H246 C270 0.948 . S
C247 C243 1.397 . S
C247 C248 1.394 . S
C247 C266 1.723 . S
C248 C245 1.396 . S
C248 C247 1.394 . S
C248 C278 1.723 . S
H249 C272 0.947 . S
H250 C273 0.948 . S
H251 C279 0.982 . S
H252 C280 0.988 . S
H253 C280 0.980 . S
H254 C280 0.972 1_545 S
H255 C279 0.979 . S
H256 C279 0.977 . S
C257 C245 1.453 . S
C257 H286 0.982 . S
C257 H287 0.979 . S
C257 H288 0.977 . S
C258 C245 1.684 . S
C258 H283 0.979 . S
C258 H284 0.980 . S
C258 H285 0.983 . S
C259 C260 1.391 . S
C259 C264 1.391 1_655 S
C259 H289 0.948 . S
C260 C259 1.391 . S
C260 C261 1.391 1_655 S
C261 C260 1.391 1_455 S
C261 C262 1.392 . S
C261 H290 0.979 . S
C262 C261 1.392 . S
C262 C263 1.419 . S
C262 H291 0.948 . S
C263 C262 1.419 . S
C263 C264 1.391 . S
C263 C267 1.397 . S
C264 C259 1.391 1_455 S
C264 C263 1.391 . S
C264 C265 1.399 . S
C265 C264 1.399 . S
C265 C266 1.396 . S
C265 C268 1.453 1_455 S
C265 C269 1.684 . S
C266 C247 1.723 . S
C266 C265 1.396 . S
C266 C267 1.394 . S
C267 C263 1.397 . S
C267 C266 1.394 . S
C267 C277 1.723 . S
C268 C265 1.453 1_655 S
C268 H292 0.982 . S
C268 H293 0.979 . S
C268 H294 0.977 . S
C269 C265 1.684 . S
C269 H295 0.979 . S
C269 H296 0.980 . S
C269 H297 0.983 1_455 S
C270 H246 0.948 . S
C270 C271 1.391 . S
C270 C275 1.391 1_545 S
C271 C270 1.391 . S
C271 C272 1.391 1_545 S
C272 H249 0.947 . S
C272 C271 1.391 1_565 S
C272 C273 1.392 . S
C273 H250 0.948 . S
C273 C272 1.392 . S
C273 C274 1.419 . S
C274 C273 1.419 . S
C274 C275 1.391 . S
C274 C278 1.397 . S
C275 C270 1.391 1_565 S
C275 C274 1.391 . S
C275 C276 1.399 . S
C276 C275 1.399 . S
C276 C277 1.396 . S
C276 C279 1.453 1_565 S
C276 C280 1.686 . S
C277 C267 1.723 . S
C277 C276 1.396 . S
C277 C278 1.394 . S
C278 C248 1.723 . S
C278 C274 1.397 . S
C278 C277 1.394 . S
C279 H251 0.982 . S
C279 H255 0.979 . S
C279 H256 0.977 . S
C279 C276 1.453 1_545 S
C280 H252 0.988 . S
C280 H253 0.980 . S
C280 H254 0.972 1_565 S
C280 C276 1.686 . S
H281 C299 0.948 . S
H282 C240 0.948 . S
H283 C258 0.979 . S
H284 C258 0.980 . S
H285 C258 0.983 . S
H286 C257 0.982 . S
H287 C257 0.979 . S
H288 C257 0.977 . S
H289 C259 0.948 . S
H290 C261 0.979 . S
H291 C262 0.948 . S
H292 C268 0.982 . S
H293 C268 0.979 . S
H294 C268 0.977 . S
H295 C269 0.979 . S
H296 C269 0.980 . S
H297 C269 0.983 1_655 S
H298 C242 0.947 . S
C299 C242 1.392 . S
C299 C243 1.419 . S
C299 H281 0.948 . S
C300 C301 1.391 . S
C300 C304 1.391 . S
C300 H342 0.948 . S
C301 C300 1.391 . S
C301 C302 1.391 . S
C302 C301 1.391 . S
C302 H358 0.947 . S
C302 C359 1.392 . S
C303 C304 1.391 . S
C303 C307 1.397 . S
C303 C359 1.419 . S
C304 C300 1.391 . S
C304 C303 1.391 . S
C304 C305 1.399 . S
C305 C304 1.399 . S
C305 C308 1.396 . S
C305 C317 1.453 . S
C305 C318 1.684 . S
H306 C330 0.948 . S
C307 C303 1.397 . S
C307 C308 1.394 . S
C307 C326 1.723 . S
C308 C305 1.396 . S
C308 C307 1.394 . S
C308 C338 1.723 . S
H309 C332 0.947 . S
H310 C333 0.948 . S
H311 C339 0.982 . S
H312 C340 0.979 . S
H313 C340 0.980 . S
H314 C340 0.983 . S
H315 C339 0.979 . S
H316 C339 0.977 . S
C317 C305 1.453 . S
C317 H346 0.982 . S
C317 H347 0.979 . S
C317 H348 0.977 . S
C318 C305 1.684 . S
C318 H343 0.979 . S
C318 H344 0.980 . S
C318 H345 0.983 . S
C319 C320 1.391 . S
C319 C324 1.391 . S
C319 H349 0.948 . S
C320 C319 1.391 . S
C320 C321 1.391 . S
C321 C320 1.391 . S
C321 C322 1.392 . S
C321 H350 0.947 . S
C322 C321 1.392 . S
C322 C323 1.419 . S
C322 H351 0.948 . S
C323 C322 1.419 . S
C323 C324 1.391 . S
C323 C327 1.397 . S
C324 C319 1.391 . S
C324 C323 1.391 . S
C324 C325 1.399 . S
C325 C324 1.399 . S
C325 C326 1.396 . S
C325 C328 1.453 . S
C325 C329 1.684 . S
C326 C307 1.723 . S
C326 C325 1.396 . S
C326 C327 1.394 . S
C327 C323 1.397 . S
C327 C326 1.394 . S
C327 C337 1.723 . S
C328 C325 1.453 . S
C328 H352 0.982 . S
C328 H353 0.979 . S
C328 H354 0.977 . S
C329 C325 1.684 . S
C329 H355 0.979 . S
C329 H356 0.980 . S
C329 H357 0.983 . S
C330 H306 0.948 . S
C330 C331 1.391 . S
C330 C335 1.391 . S
C331 C330 1.391 . S
C331 C332 1.391 . S
C332 H309 0.947 . S
C332 C331 1.391 . S
C332 C333 1.392 . S
C333 H310 0.948 . S
C333 C332 1.392 . S
C333 C334 1.419 . S
C334 C333 1.419 . S
C334 C335 1.391 . S
C334 C338 1.397 . S
C335 C330 1.391 . S
C335 C334 1.391 . S
C335 C336 1.399 . S
C336 C335 1.399 . S
C336 C337 1.396 . S
C336 C339 1.453 . S
C336 C340 1.684 . S
C337 C327 1.723 . S
C337 C336 1.396 . S
C337 C338 1.394 . S
C338 C308 1.723 . S
C338 C334 1.397 . S
C338 C337 1.394 . S
C339 H311 0.982 . S
C339 H315 0.979 . S
C339 H316 0.977 . S
C339 C336 1.453 . S
C340 H312 0.979 . S
C340 H313 0.980 . S
C340 H314 0.983 . S
C340 C336 1.684 . S
H341 C359 0.948 . S
H342 C300 0.948 . S
H343 C318 0.979 . S
H344 C318 0.980 . S
H345 C318 0.983 . S
H346 C317 0.982 . S
H347 C317 0.979 . S
H348 C317 0.977 . S
H349 C319 0.948 . S
H350 C321 0.947 . S
H351 C322 0.948 . S
H352 C328 0.982 . S
H353 C328 0.979 . S
H354 C328 0.977 . S
H355 C329 0.979 . S
H356 C329 0.980 . S
H357 C329 0.983 . S
H358 C302 0.947 . S
C359 C302 1.392 . S
C359 C303 1.419 . S
C359 H341 0.948 . S
C360 C361 1.391 . S
C360 C364 1.391 . S
C360 H402 0.948 . S
C361 C360 1.391 . S
C361 C362 1.391 . S
C362 C361 1.391 . S
C362 H418 0.947 . S
C362 C419 1.392 . S
C363 C364 1.391 . S
C363 C367 1.397 . S
C363 C419 1.419 . S
C364 C360 1.391 . S
C364 C363 1.391 . S
C364 C365 1.399 . S
C365 C364 1.399 . S
C365 C368 1.396 . S
C365 C377 1.453 . S
C365 C378 1.684 . S
H366 C390 0.948 1_455 S
C367 C363 1.397 . S
C367 C368 1.394 . S
C367 C386 1.723 . S
C368 C365 1.396 . S
C368 C367 1.394 . S
C368 C398 1.723 . S
H369 C392 0.947 . S
H370 C393 0.948 . S
H371 C399 0.982 . S
H372 C400 0.979 . S
H373 C400 0.980 . S
H374 C400 0.983 . S
H375 C399 0.979 1_455 S
H376 C399 0.977 1_455 S
C377 C365 1.453 . S
C377 H406 0.982 . S
C377 H407 0.979 . S
C377 H408 0.977 . S
C378 C365 1.684 . S
C378 H403 0.979 . S
C378 H404 0.980 . S
C378 H405 0.983 . S
C379 C380 1.391 . S
C379 C384 1.391 1_455 S
C379 H409 0.948 . S
C380 C379 1.391 . S
C380 C381 1.391 . S
C381 C380 1.391 . S
C381 C382 1.392 . S
C381 H410 0.947 . S
C382 C381 1.392 . S
C382 C383 1.419 1_455 S
C382 H411 0.948 . S
C383 C382 1.419 1_655 S
C383 C384 1.391 . S
C383 C387 1.397 . S
C384 C379 1.391 1_655 S
C384 C383 1.391 . S
C384 C385 1.399 . S
C385 C384 1.399 . S
C385 C386 1.396 . S
C385 C388 1.453 . S
C385 C389 1.684 . S
C386 C367 1.723 . S
C386 C385 1.396 . S
C386 C387 1.394 . S
C387 C383 1.397 . S
C387 C386 1.394 . S
C387 C397 1.723 . S
C388 C385 1.453 . S
C388 H412 0.982 . S
C388 H413 0.979 . S
C388 H414 0.977 . S
C389 C385 1.684 . S
C389 H415 0.979 . S
C389 H416 0.980 . S
C389 H417 0.983 . S
C390 H366 0.948 1_655 S
C390 C391 1.391 . S
C390 C395 1.391 . S
C391 C390 1.391 . S
C391 C392 1.391 . S
C392 H369 0.947 . S
C392 C391 1.391 . S
C392 C393 1.392 . S
C393 H370 0.948 . S
C393 C392 1.392 . S
C393 C394 1.419 . S
C394 C393 1.419 . S
C394 C395 1.391 . S
C394 C398 1.397 . S
C395 C390 1.391 . S
C395 C394 1.391 . S
C395 C396 1.399 . S
C396 C395 1.399 . S
C396 C397 1.396 . S
C396 C399 1.453 . S
C396 C400 1.684 1_655 S
C397 C387 1.723 . S
C397 C396 1.396 . S
C397 C398 1.394 . S
C398 C368 1.723 . S
C398 C394 1.397 . S
C398 C397 1.394 . S
C399 H371 0.982 . S
C399 H375 0.979 1_655 S
C399 H376 0.977 1_655 S
C399 C396 1.453 . S
C400 H372 0.979 . S
C400 H373 0.980 . S
C400 H374 0.983 . S
C400 C396 1.684 1_455 S
H401 C419 0.948 . S
H402 C360 0.948 . S
H403 C378 0.979 . S
H404 C378 0.980 . S
H405 C378 0.983 . S
H406 C377 0.982 . S
H407 C377 0.979 . S
H408 C377 0.977 . S
H409 C379 0.948 . S
H410 C381 0.947 . S
H411 C382 0.948 . S
H412 C388 0.982 . S
H413 C388 0.979 . S
H414 C388 0.977 . S
H415 C389 0.979 . S
H416 C389 0.980 . S
H417 C389 0.983 . S
H418 C362 0.947 . S
C419 C362 1.392 . S
C419 C363 1.419 . S
C419 H401 0.948 . S
C420 C421 1.391 . S
C420 C424 1.391 . S
C420 H462 0.948 . S
C421 C420 1.391 . S
C421 C422 1.391 . S
C422 C421 1.391 . S
C422 H478 0.947 . S
C422 C479 1.392 . S
C423 C424 1.391 . S
C423 C427 1.397 . S
C423 C479 1.419 . S
C424 C420 1.391 . S
C424 C423 1.391 . S
C424 C425 1.399 . S
C425 C424 1.399 . S
C425 C428 1.396 . S
C425 C437 1.453 . S
C425 C438 1.684 . S
H426 C450 0.948 . S
C427 C423 1.397 . S
C427 C428 1.394 . S
C427 C446 1.723 . S
C428 C425 1.396 . S
C428 C427 1.394 . S
C428 C458 1.723 . S
H429 C452 0.947 . S
H430 C453 0.948 . S
H431 C459 0.982 . S
H432 C460 0.979 . S
H433 C460 0.980 . S
H434 C460 0.983 . S
H435 C459 0.979 . S
H436 C459 0.977 . S
C437 C425 1.453 . S
C437 H466 0.982 . S
C437 H467 0.979 . S
C437 H468 0.977 . S
C438 C425 1.684 . S
C438 H463 0.979 . S
C438 H464 0.980 . S
C438 H465 0.983 . S
C439 C440 1.391 . S
C439 C444 1.391 . S
C439 H469 0.948 . S
C440 C439 1.391 . S
C440 C441 1.391 . S
C441 C440 1.391 . S
C441 C442 1.392 . S
C441 H470 0.947 . S
C442 C441 1.392 . S
C442 C443 1.419 . S
C442 H471 0.948 . S
C443 C442 1.419 . S
C443 C444 1.391 . S
C443 C447 1.397 . S
C444 C439 1.391 . S
C444 C443 1.391 . S
C444 C445 1.399 . S
C445 C444 1.399 . S
C445 C446 1.396 . S
C445 C448 1.453 . S
C445 C449 1.684 . S
C446 C427 1.723 . S
C446 C445 1.396 . S
C446 C447 1.394 . S
C447 C443 1.397 . S
C447 C446 1.394 . S
C447 C457 1.723 . S
C448 C445 1.453 . S
C448 H472 0.982 . S
C448 H473 0.979 . S
C448 H474 0.977 . S
C449 C445 1.684 . S
C449 H475 0.979 . S
C449 H476 0.980 . S
C449 H477 0.983 . S
C450 H426 0.948 . S
C450 C451 1.391 . S
C450 C455 1.391 . S
C451 C450 1.391 . S
C451 C452 1.391 . S
C452 H429 0.947 . S
C452 C451 1.391 . S
C452 C453 1.392 . S
C453 H430 0.948 . S
C453 C452 1.392 . S
C453 C454 1.419 . S
C454 C453 1.419 . S
C454 C455 1.391 . S
C454 C458 1.397 . S
C455 C450 1.391 . S
C455 C454 1.391 . S
C455 C456 1.399 . S
C456 C455 1.399 . S
C456 C457 1.396 . S
C456 C459 1.453 . S
C456 C460 1.684 . S
C457 C447 1.723 . S
C457 C456 1.396 . S
C457 C458 1.394 . S
C458 C428 1.723 . S
C458 C454 1.397 . S
C458 C457 1.394 . S
C459 H431 0.982 . S
C459 H435 0.979 . S
C459 H436 0.977 . S
C459 C456 1.453 . S
C460 H432 0.979 . S
C460 H433 0.980 . S
C460 H434 0.983 . S
C460 C456 1.684 . S
H461 C479 0.948 . S
H462 C420 0.948 . S
H463 C438 0.979 . S
H464 C438 0.980 . S
H465 C438 0.983 . S
H466 C437 0.982 . S
H467 C437 0.979 . S
H468 C437 0.977 . S
H469 C439 0.948 . S
H470 C441 0.947 . S
H471 C442 0.948 . S
H472 C448 0.982 . S
H473 C448 0.979 . S
H474 C448 0.977 . S
H475 C449 0.979 . S
H476 C449 0.980 . S
H477 C449 0.983 . S
H478 C422 0.947 . S
C479 C422 1.392 . S
C479 C423 1.419 . S
C479 H461 0.948 . S
C480 C481 1.391 . S
C480 C484 1.391 . S
C480 H522 0.948 . S
C481 C480 1.391 . S
C481 C482 1.391 . S
C482 C481 1.391 . S
C482 H538 0.947 . S
C482 C539 1.392 . S
C483 C484 1.391 . S
C483 C487 1.397 . S
C483 C539 1.419 . S
C484 C480 1.391 . S
C484 C483 1.391 . S
C484 C485 1.399 . S
C485 C484 1.399 . S
C485 C488 1.396 . S
C485 C497 1.453 . S
C485 C498 1.684 . S
H486 C510 0.948 . S
C487 C483 1.397 . S
C487 C488 1.394 . S
C487 C506 1.723 . S
C488 C485 1.396 . S
C488 C487 1.394 . S
C488 C518 1.723 . S
H489 C512 0.947 . S
H490 C513 0.948 . S
H491 C519 0.982 . S
H492 C520 0.979 . S
H493 C520 0.980 . S
H494 C520 0.983 . S
H495 C519 0.979 . S
H496 C519 0.977 . S
C497 C485 1.453 . S
C497 H526 0.982 . S
C497 H527 0.979 . S
C497 H528 0.977 . S
C498 C485 1.684 . S
C498 H523 0.979 . S
C498 H524 0.980 . S
C498 H525 0.983 . S
C499 C500 1.391 . S
C499 C504 1.391 . S
C499 H529 0.948 . S
C500 C499 1.391 . S
C500 C501 1.391 . S
C501 C500 1.391 . S
C501 C502 1.392 . S
C501 H530 0.947 . S
C502 C501 1.392 . S
C502 C503 1.419 . S
C502 H531 0.948 . S
C503 C502 1.419 . S
C503 C504 1.391 . S
C503 C507 1.397 . S
C504 C499 1.391 . S
C504 C503 1.391 . S
C504 C505 1.399 . S
C505 C504 1.399 . S
C505 C506 1.396 . S
C505 C508 1.453 . S
C505 C509 1.684 . S
C506 C487 1.723 . S
C506 C505 1.396 . S
C506 C507 1.394 . S
C507 C503 1.397 . S
C507 C506 1.394 . S
C507 C517 1.723 . S
C508 C505 1.453 . S
C508 H532 0.982 . S
C508 H533 0.979 . S
C508 H534 0.977 . S
C509 C505 1.684 . S
C509 H535 0.979 . S
C509 H536 0.980 . S
C509 H537 0.983 . S
C510 H486 0.948 . S
C510 C511 1.391 . S
C510 C515 1.391 . S
C511 C510 1.391 . S
C511 C512 1.391 . S
C512 H489 0.947 . S
C512 C511 1.391 . S
C512 C513 1.392 . S
C513 H490 0.948 . S
C513 C512 1.392 . S
C513 C514 1.419 . S
C514 C513 1.419 . S
C514 C515 1.391 . S
C514 C518 1.397 . S
C515 C510 1.391 . S
C515 C514 1.391 . S
C515 C516 1.399 . S
C516 C515 1.399 . S
C516 C517 1.396 . S
C516 C519 1.453 . S
C516 C520 1.684 . S
C517 C507 1.723 . S
C517 C516 1.396 . S
C517 C518 1.394 . S
C518 C488 1.723 . S
C518 C514 1.397 . S
C518 C517 1.394 . S
C519 H491 0.982 . S
C519 H495 0.979 . S
C519 H496 0.977 . S
C519 C516 1.453 . S
C520 H492 0.979 . S
C520 H493 0.980 . S
C520 H494 0.983 . S
C520 C516 1.684 . S
H521 C539 0.948 . S
H522 C480 0.948 . S
H523 C498 0.979 . S
H524 C498 0.980 . S
H525 C498 0.983 . S
H526 C497 0.982 . S
H527 C497 0.979 . S
H528 C497 0.977 . S
H529 C499 0.948 . S
H530 C501 0.947 . S
H531 C502 0.948 . S
H532 C508 0.982 . S
H533 C508 0.979 . S
H534 C508 0.977 . S
H535 C509 0.979 . S
H536 C509 0.980 . S
H537 C509 0.983 . S
H538 C482 0.947 . S
C539 C482 1.392 . S
C539 C483 1.419 . S
C539 H521 0.948 . S
C540 C541 1.391 . S
C540 C544 1.391 . S
C540 H582 0.948 . S
C541 C540 1.391 . S
C541 C542 1.391 . S
C542 C541 1.391 . S
C542 H598 0.947 . S
C542 C599 1.392 . S
C543 C544 1.391 . S
C543 C547 1.397 . S
C543 C599 1.419 . S
C544 C540 1.391 . S
C544 C543 1.391 . S
C544 C545 1.399 . S
C545 C544 1.399 . S
C545 C548 1.396 . S
C545 C557 1.453 . S
C545 C558 1.684 . S
H546 C570 0.948 1_545 S
C547 C543 1.397 . S
C547 C548 1.394 . S
C547 C566 1.723 . S
C548 C545 1.396 . S
C548 C547 1.394 . S
C548 C578 1.723 . S
H549 C572 0.947 . S
H550 C573 0.948 . S
H551 C579 0.982 . S
H552 C580 0.979 . S
H553 C580 0.980 . S
H554 C580 0.983 . S
H555 C579 0.979 1_545 S
H556 C579 0.977 1_545 S
C557 C545 1.453 . S
C557 H586 0.982 . S
C557 H587 0.979 . S
C557 H588 0.977 . S
C558 C545 1.684 . S
C558 H583 0.979 . S
C558 H584 0.980 . S
C558 H585 0.983 . S
C559 C560 1.391 . S
C559 C564 1.391 1_545 S
C559 H589 0.948 . S
C560 C559 1.391 . S
C560 C561 1.391 . S
C561 C560 1.391 . S
C561 C562 1.392 . S
C561 H590 0.947 . S
C562 C561 1.392 . S
C562 C563 1.419 1_545 S
C562 H591 0.948 . S
C563 C562 1.419 1_565 S
C563 C564 1.391 . S
C563 C567 1.397 . S
C564 C559 1.391 1_565 S
C564 C563 1.391 . S
C564 C565 1.399 . S
C565 C564 1.399 . S
C565 C566 1.396 . S
C565 C568 1.453 . S
C565 C569 1.684 . S
C566 C547 1.723 . S
C566 C565 1.396 . S
C566 C567 1.394 . S
C567 C563 1.397 . S
C567 C566 1.394 . S
C567 C577 1.723 . S
C568 C565 1.453 . S
C568 H592 0.982 . S
C568 H593 0.979 . S
C568 H594 0.977 . S
C569 C565 1.684 . S
C569 H595 0.979 . S
C569 H596 0.980 . S
C569 H597 0.983 . S
C570 H546 0.948 1_565 S
C570 C571 1.391 . S
C570 C575 1.391 . S
C571 C570 1.391 . S
C571 C572 1.391 . S
C572 H549 0.947 . S
C572 C571 1.391 . S
C572 C573 1.392 . S
C573 H550 0.948 . S
C573 C572 1.392 . S
C573 C574 1.419 . S
C574 C573 1.419 . S
C574 C575 1.391 . S
C574 C578 1.397 . S
C575 C570 1.391 . S
C575 C574 1.391 . S
C575 C576 1.399 . S
C576 C575 1.399 . S
C576 C577 1.396 . S
C576 C579 1.453 . S
C576 C580 1.684 1_565 S
C577 C567 1.723 . S
C577 C576 1.396 . S
C577 C578 1.394 . S
C578 C548 1.723 . S
C578 C574 1.397 . S
C578 C577 1.394 . S
C579 H551 0.982 . S
C579 H555 0.979 1_565 S
C579 H556 0.977 1_565 S
C579 C576 1.453 . S
C580 H552 0.979 . S
C580 H553 0.980 . S
C580 H554 0.983 . S
C580 C576 1.684 1_545 S
H581 C599 0.948 . S
H582 C540 0.948 . S
H583 C558 0.979 . S
H584 C558 0.980 . S
H585 C558 0.983 . S
H586 C557 0.982 . S
H587 C557 0.979 . S
H588 C557 0.977 . S
H589 C559 0.948 . S
H590 C561 0.947 . S
H591 C562 0.948 . S
H592 C568 0.982 . S
H593 C568 0.979 . S
H594 C568 0.977 . S
H595 C569 0.979 . S
H596 C569 0.980 . S
H597 C569 0.983 . S
H598 C542 0.947 . S
C599 C542 1.392 . S
C599 C543 1.419 . S
C599 H581 0.948 . S
C600 C601 1.391 . S
C600 C604 1.391 . S
C600 H642 0.948 . S
C601 C600 1.391 . S
C601 C602 1.391 . S
C602 C601 1.391 . S
C602 H658 0.947 . S
C602 C659 1.392 . S
C603 C604 1.391 . S
C603 C607 1.397 . S
C603 C659 1.419 . S
C604 C600 1.391 . S
C604 C603 1.391 . S
C604 C605 1.399 . S
C605 C604 1.399 . S
C605 C608 1.396 . S
C605 C617 1.453 . S
C605 C618 1.684 . S
H606 C630 0.948 . S
C607 C603 1.397 . S
C607 C608 1.394 . S
C607 C626 1.723 . S
C608 C605 1.396 . S
C608 C607 1.394 . S
C608 C638 1.723 . S
H609 C632 0.947 . S
H610 C633 0.948 . S
H611 C639 0.982 . S
H612 C640 0.979 . S
H613 C640 0.980 . S
H614 C640 0.983 . S
H615 C639 0.979 . S
H616 C639 0.977 . S
C617 C605 1.453 . S
C617 H646 0.982 . S
C617 H647 0.979 . S
C617 H648 0.977 . S
C618 C605 1.684 . S
C618 H643 0.979 . S
C618 H644 0.980 . S
C618 H645 0.983 . S
C619 C620 1.391 . S
C619 C624 1.391 . S
C619 H649 0.948 . S
C620 C619 1.391 . S
C620 C621 1.391 . S
C621 C620 1.391 . S
C621 C622 1.392 . S
C621 H650 0.947 . S
C622 C621 1.392 . S
C622 C623 1.419 . S
C622 H651 0.948 . S
C623 C622 1.419 . S
C623 C624 1.391 . S
C623 C627 1.397 . S
C624 C619 1.391 . S
C624 C623 1.391 . S
C624 C625 1.399 . S
C625 C624 1.399 . S
C625 C626 1.396 . S
C625 C628 1.453 . S
C625 C629 1.684 . S
C626 C607 1.723 . S
C626 C625 1.396 . S
C626 C627 1.394 . S
C627 C623 1.397 . S
C627 C626 1.394 . S
C627 C637 1.723 . S
C628 C625 1.453 . S
C628 H652 0.982 . S
C628 H653 0.979 . S
C628 H654 0.977 . S
C629 C625 1.684 . S
C629 H655 0.979 . S
C629 H656 0.980 . S
C629 H657 0.983 . S
C630 H606 0.948 . S
C630 C631 1.391 . S
C630 C635 1.391 . S
C631 C630 1.391 . S
C631 C632 1.391 . S
C632 H609 0.947 . S
C632 C631 1.391 . S
C632 C633 1.392 . S
C633 H610 0.948 . S
C633 C632 1.392 . S
C633 C634 1.419 . S
C634 C633 1.419 . S
C634 C635 1.391 . S
C634 C638 1.397 . S
C635 C630 1.391 . S
C635 C634 1.391 . S
C635 C636 1.399 . S
C636 C635 1.399 . S
C636 C637 1.396 . S
C636 C639 1.453 . S
C636 C640 1.684 . S
C637 C627 1.723 . S
C637 C636 1.396 . S
C637 C638 1.394 . S
C638 C608 1.723 . S
C638 C634 1.397 . S
C638 C637 1.394 . S
C639 H611 0.982 . S
C639 H615 0.979 . S
C639 H616 0.977 . S
C639 C636 1.453 . S
C640 H612 0.979 . S
C640 H613 0.980 . S
C640 H614 0.983 . S
C640 C636 1.684 . S
H641 C659 0.948 . S
H642 C600 0.948 . S
H643 C618 0.979 . S
H644 C618 0.980 . S
H645 C618 0.983 . S
H646 C617 0.982 . S
H647 C617 0.979 . S
H648 C617 0.977 . S
H649 C619 0.948 . S
H650 C621 0.947 . S
H651 C622 0.948 . S
H652 C628 0.982 . S
H653 C628 0.979 . S
H654 C628 0.977 . S
H655 C629 0.979 . S
H656 C629 0.980 . S
H657 C629 0.983 . S
H658 C602 0.947 . S
C659 C602 1.392 . S
C659 C603 1.419 . S
C659 H641 0.948 . S
C660 C661 1.391 . S
C660 C664 1.391 . S
C660 H702 0.948 . S
C661 C660 1.391 . S
C661 C662 1.391 . S
C662 C661 1.391 . S
C662 H718 0.947 . S
C662 C719 1.392 . S
C663 C664 1.391 . S
C663 C667 1.397 . S
C663 C719 1.419 . S
C664 C660 1.391 . S
C664 C663 1.391 . S
C664 C665 1.399 . S
C665 C664 1.399 . S
C665 C668 1.396 . S
C665 C677 1.453 . S
C665 C678 1.684 . S
H666 C690 0.948 . S
C667 C663 1.397 . S
C667 C668 1.394 . S
C667 C686 1.723 . S
C668 C665 1.396 . S
C668 C667 1.394 . S
C668 C698 1.723 . S
H669 C692 0.947 . S
H670 C693 0.948 . S
H671 C699 0.982 . S
H672 C700 0.979 . S
H673 C700 0.980 . S
H674 C700 0.983 . S
H675 C699 0.979 . S
H676 C699 0.977 . S
C677 C665 1.453 . S
C677 H706 0.982 . S
C677 H707 0.979 . S
C677 H708 0.977 . S
C678 C665 1.684 . S
C678 H703 0.979 . S
C678 H704 0.980 . S
C678 H705 0.983 . S
C679 C680 1.391 . S
C679 C684 1.391 . S
C679 H709 0.948 . S
C680 C679 1.391 . S
C680 C681 1.391 . S
C681 C680 1.391 . S
C681 C682 1.392 . S
C681 H710 0.947 . S
C682 C681 1.392 . S
C682 C683 1.419 . S
C682 H711 0.948 . S
C683 C682 1.419 . S
C683 C684 1.391 . S
C683 C687 1.397 . S
C684 C679 1.391 . S
C684 C683 1.391 . S
C684 C685 1.399 . S
C685 C684 1.399 . S
C685 C686 1.396 . S
C685 C688 1.453 . S
C685 C689 1.684 . S
C686 C667 1.723 . S
C686 C685 1.396 . S
C686 C687 1.394 . S
C687 C683 1.397 . S
C687 C686 1.394 . S
C687 C697 1.723 . S
C688 C685 1.453 . S
C688 H712 0.982 . S
C688 H713 0.979 . S
C688 H714 0.977 . S
C689 C685 1.684 . S
C689 H715 0.979 . S
C689 H716 0.980 . S
C689 H717 0.983 . S
C690 H666 0.948 . S
C690 C691 1.391 . S
C690 C695 1.391 . S
C691 C690 1.391 . S
C691 C692 1.391 . S
C692 H669 0.947 . S
C692 C691 1.391 . S
C692 C693 1.392 . S
C693 H670 0.948 . S
C693 C692 1.392 . S
C693 C694 1.419 . S
C694 C693 1.419 . S
C694 C695 1.391 . S
C694 C698 1.397 . S
C695 C690 1.391 . S
C695 C694 1.391 . S
C695 C696 1.399 . S
C696 C695 1.399 . S
C696 C697 1.396 . S
C696 C699 1.453 . S
C696 C700 1.684 . S
C697 C687 1.723 . S
C697 C696 1.396 . S
C697 C698 1.394 . S
C698 C668 1.723 . S
C698 C694 1.397 . S
C698 C697 1.394 . S
C699 H671 0.982 . S
C699 H675 0.979 . S
C699 H676 0.977 . S
C699 C696 1.453 . S
C700 H672 0.979 . S
C700 H673 0.980 . S
C700 H674 0.983 . S
C700 C696 1.684 . S
H701 C719 0.948 . S
H702 C660 0.948 . S
H703 C678 0.979 . S
H704 C678 0.980 . S
H705 C678 0.983 . S
H706 C677 0.982 . S
H707 C677 0.979 . S
H708 C677 0.977 . S
H709 C679 0.948 . S
H710 C681 0.947 . S
H711 C682 0.948 . S
H712 C688 0.982 . S
H713 C688 0.979 . S
H714 C688 0.977 . S
H715 C689 0.979 . S
H716 C689 0.980 . S
H717 C689 0.983 . S
H718 C662 0.947 . S
C719 C662 1.392 . S
C719 C663 1.419 . S
C719 H701 0.948 . S
C720 C721 1.391 . S
C720 C724 1.391 . S
C720 H762 0.948 . S
C721 C720 1.391 . S
C721 C722 1.391 . S
C722 C721 1.391 . S
C722 H778 0.947 . S
C722 C779 1.392 . S
C723 C724 1.391 . S
C723 C727 1.397 . S
C723 C779 1.419 . S
C724 C720 1.391 . S
C724 C723 1.391 . S
C724 C725 1.399 . S
C725 C724 1.399 . S
C725 C728 1.396 . S
C725 C737 1.453 . S
C725 C738 1.684 . S
H726 C750 0.948 . S
C727 C723 1.397 . S
C727 C728 1.394 . S
C727 C746 1.723 . S
C728 C725 1.396 . S
C728 C727 1.394 . S
C728 C758 1.723 . S
H729 C752 0.947 . S
H730 C753 0.948 . S
H731 C759 0.982 . S
H732 C760 0.979 . S
H733 C760 0.980 . S
H734 C760 0.983 . S
H735 C759 0.979 . S
H736 C759 0.977 . S
C737 C725 1.453 . S
C737 H766 0.982 . S
C737 H767 0.979 . S
C737 H768 0.977 . S
C738 C725 1.684 . S
C738 H763 0.979 . S
C738 H764 0.980 . S
C738 H765 0.983 . S
C739 C740 1.391 . S
C739 C744 1.391 . S
C739 H769 0.948 . S
C740 C739 1.391 . S
C740 C741 1.391 . S
C741 C740 1.391 . S
C741 C742 1.392 . S
C741 H770 0.947 . S
C742 C741 1.392 . S
C742 C743 1.419 . S
C742 H771 0.948 . S
C743 C742 1.419 . S
C743 C744 1.391 . S
C743 C747 1.397 . S
C744 C739 1.391 . S
C744 C743 1.391 . S
C744 C745 1.399 . S
C745 C744 1.399 . S
C745 C746 1.396 . S
C745 C748 1.453 . S
C745 C749 1.684 . S
C746 C727 1.723 . S
C746 C745 1.396 . S
C746 C747 1.394 . S
C747 C743 1.397 . S
C747 C746 1.394 . S
C747 C757 1.723 . S
C748 C745 1.453 . S
C748 H772 0.982 . S
C748 H773 0.979 . S
C748 H774 0.977 . S
C749 C745 1.684 . S
C749 H775 0.979 . S
C749 H776 0.980 . S
C749 H777 0.983 . S
C750 H726 0.948 . S
C750 C751 1.391 . S
C750 C755 1.391 . S
C751 C750 1.391 . S
C751 C752 1.391 . S
C752 H729 0.947 . S
C752 C751 1.391 . S
C752 C753 1.392 . S
C753 H730 0.948 . S
C753 C752 1.392 . S
C753 C754 1.419 . S
C754 C753 1.419 . S
C754 C755 1.391 . S
C754 C758 1.397 . S
C755 C750 1.391 . S
C755 C754 1.391 . S
C755 C756 1.399 . S
C756 C755 1.399 . S
C756 C757 1.396 . S
C756 C759 1.453 . S
C756 C760 1.684 . S
C757 C747 1.723 . S
C757 C756 1.396 . S
C757 C758 1.394 . S
C758 C728 1.723 . S
C758 C754 1.397 . S
C758 C757 1.394 . S
C759 H731 0.982 . S
C759 H735 0.979 . S
C759 H736 0.977 . S
C759 C756 1.453 . S
C760 H732 0.979 . S
C760 H733 0.980 . S
C760 H734 0.983 . S
C760 C756 1.684 . S
H761 C779 0.948 . S
H762 C720 0.948 . S
H763 C738 0.979 . S
H764 C738 0.980 . S
H765 C738 0.983 . S
H766 C737 0.982 . S
H767 C737 0.979 . S
H768 C737 0.977 . S
H769 C739 0.948 . S
H770 C741 0.947 . S
H771 C742 0.948 . S
H772 C748 0.982 . S
H773 C748 0.979 . S
H774 C748 0.977 . S
H775 C749 0.979 . S
H776 C749 0.980 . S
H777 C749 0.983 . S
H778 C722 0.947 . S
C779 C722 1.392 . S
C779 C723 1.419 . S
C779 H761 0.948 . S
C780 C781 1.391 . S
C780 C784 1.391 . S
C780 H822 0.948 . S
C781 C780 1.391 . S
C781 C782 1.359 1_554 S
C782 C781 1.359 1_556 S
C782 H838 0.950 . S
C782 C839 1.422 . S
C783 C784 1.391 1_556 S
C783 C787 1.397 . S
C783 C839 1.419 . S
C784 C780 1.391 . S
C784 C783 1.391 1_554 S
C784 C785 1.399 . S
C785 C784 1.399 . S
C785 C788 1.396 1_554 S
C785 C797 1.453 . S
C785 C798 1.684 . S
H786 C810 0.948 . S
C787 C783 1.397 . S
C787 C788 1.394 . S
C787 C806 1.723 . S
C788 C785 1.396 1_556 S
C788 C787 1.394 . S
C788 C818 1.723 . S
H789 C812 0.947 1_554 S
H790 C813 0.948 1_554 S
H791 C819 0.982 . S
H792 C820 0.979 . S
H793 C820 0.980 . S
H794 C820 0.983 . S
H795 C819 0.979 . S
H796 C819 0.977 . S
C797 C785 1.453 . S
C797 H826 0.982 . S
C797 H827 0.979 . S
C797 H828 0.977 . S
C798 C785 1.684 . S
C798 H823 0.979 1_554 S
C798 H824 0.980 . S
C798 H825 0.983 . S
C799 C800 1.391 . S
C799 C804 1.391 . S
C799 H829 0.948 . S
C800 C799 1.391 . S
C800 C801 1.391 . S
C801 C800 1.391 . S
C801 C802 1.392 . S
C801 H830 0.947 . S
C802 C801 1.392 . S
C802 C803 1.419 . S
C802 H831 0.948 . S
C803 C802 1.419 . S
C803 C804 1.391 . S
C803 C807 1.397 . S
C804 C799 1.391 . S
C804 C803 1.391 . S
C804 C805 1.399 . S
C805 C804 1.399 . S
C805 C806 1.396 . S
C805 C808 1.453 . S
C805 C809 1.684 . S
C806 C787 1.723 . S
C806 C805 1.396 . S
C806 C807 1.394 . S
C807 C803 1.397 . S
C807 C806 1.394 . S
C807 C817 1.723 . S
C808 C805 1.453 . S
C808 H832 0.982 . S
C808 H833 0.979 . S
C808 H834 0.977 . S
C809 C805 1.684 . S
C809 H835 0.979 . S
C809 H836 0.980 . S
C809 H837 0.983 . S
C810 H786 0.948 . S
C810 C811 1.391 . S
C810 C815 1.391 . S
C811 C810 1.391 . S
C811 C812 1.391 . S
C812 H789 0.947 1_556 S
C812 C811 1.391 . S
C812 C813 1.392 . S
C813 H790 0.948 1_556 S
C813 C812 1.392 . S
C813 C814 1.419 . S
C814 C813 1.419 . S
C814 C815 1.391 . S
C814 C818 1.397 . S
C815 C810 1.391 . S
C815 C814 1.391 . S
C815 C816 1.399 . S
C816 C815 1.399 . S
C816 C817 1.396 . S
C816 C819 1.453 . S
C816 C820 1.684 . S
C817 C807 1.723 . S
C817 C816 1.396 . S
C817 C818 1.394 . S
C818 C788 1.723 . S
C818 C814 1.397 . S
C818 C817 1.394 . S
C819 H791 0.982 . S
C819 H795 0.979 . S
C819 H796 0.977 . S
C819 C816 1.453 . S
C820 H792 0.979 . S
C820 H793 0.980 . S
C820 H794 0.983 . S
C820 C816 1.684 . S
H821 C839 0.948 . S
H822 C780 0.948 . S
H823 C798 0.979 1_556 S
H824 C798 0.980 . S
H825 C798 0.983 . S
H826 C797 0.982 . S
H827 C797 0.979 . S
H828 C797 0.977 . S
H829 C799 0.948 . S
H830 C801 0.947 . S
H831 C802 0.948 . S
H832 C808 0.982 . S
H833 C808 0.979 . S
H834 C808 0.977 . S
H835 C809 0.979 . S
H836 C809 0.980 . S
H837 C809 0.983 . S
H838 C782 0.950 . S
C839 C782 1.422 . S
C839 C783 1.419 . S
C839 H821 0.948 . S
C840 C841 1.391 . S
C840 C844 1.391 . S
C840 H882 0.948 . S
C841 C840 1.391 . S
C841 C842 1.391 . S
C842 C841 1.391 . S
C842 H898 0.947 . S
C842 C899 1.392 . S
C843 C844 1.391 . S
C843 C847 1.397 . S
C843 C899 1.419 . S
C844 C840 1.391 . S
C844 C843 1.391 . S
C844 C845 1.399 . S
C845 C844 1.399 . S
C845 C848 1.396 . S
C845 C857 1.453 . S
C845 C858 1.684 . S
H846 C870 0.948 . S
C847 C843 1.397 . S
C847 C848 1.394 . S
C847 C866 1.723 . S
C848 C845 1.396 . S
C848 C847 1.394 . S
C848 C878 1.723 . S
H849 C872 0.947 . S
H850 C873 0.948 . S
H851 C879 0.982 . S
H852 C880 0.979 . S
H853 C880 0.980 . S
H854 C880 0.983 . S
H855 C879 0.979 . S
H856 C879 0.977 . S
C857 C845 1.453 . S
C857 H886 0.982 . S
C857 H887 0.979 . S
C857 H888 0.977 . S
C858 C845 1.684 . S
C858 H883 0.979 . S
C858 H884 0.980 . S
C858 H885 0.983 . S
C859 C860 1.391 . S
C859 C864 1.391 . S
C859 H889 0.948 . S
C860 C859 1.391 . S
C860 C861 1.391 . S
C861 C860 1.391 . S
C861 C862 1.392 . S
C861 H890 0.947 . S
C862 C861 1.392 . S
C862 C863 1.419 . S
C862 H891 0.948 . S
C863 C862 1.419 . S
C863 C864 1.391 . S
C863 C867 1.397 . S
C864 C859 1.391 . S
C864 C863 1.391 . S
C864 C865 1.399 . S
C865 C864 1.399 . S
C865 C866 1.396 . S
C865 C868 1.453 . S
C865 C869 1.684 . S
C866 C847 1.723 . S
C866 C865 1.396 . S
C866 C867 1.394 . S
C867 C863 1.397 . S
C867 C866 1.394 . S
C867 C877 1.723 . S
C868 C865 1.453 . S
C868 H892 0.982 . S
C868 H893 0.979 . S
C868 H894 0.977 . S
C869 C865 1.684 . S
C869 H895 0.979 . S
C869 H896 0.980 . S
C869 H897 0.983 . S
C870 H846 0.948 . S
C870 C871 1.391 . S
C870 C875 1.391 . S
C871 C870 1.391 . S
C871 C872 1.391 . S
C872 H849 0.947 . S
C872 C871 1.391 . S
C872 C873 1.392 . S
C873 H850 0.948 . S
C873 C872 1.392 . S
C873 C874 1.419 . S
C874 C873 1.419 . S
C874 C875 1.391 . S
C874 C878 1.397 . S
C875 C870 1.391 . S
C875 C874 1.391 . S
C875 C876 1.399 . S
C876 C875 1.399 . S
C876 C877 1.396 . S
C876 C879 1.453 . S
C876 C880 1.684 . S
C877 C867 1.723 . S
C877 C876 1.396 . S
C877 C878 1.394 . S
C878 C848 1.723 . S
C878 C874 1.397 . S
C878 C877 1.394 . S
C879 H851 0.982 . S
C879 H855 0.979 . S
C879 H856 0.977 . S
C879 C876 1.453 . S
C880 H852 0.979 . S
C880 H853 0.980 . S
C880 H854 0.983 . S
C880 C876 1.684 . S
H881 C899 0.948 . S
H882 C840 0.948 . S
H883 C858 0.979 . S
H884 C858 0.980 . S
H885 C858 0.983 . S
H886 C857 0.982 . S
H887 C857 0.979 . S
H888 C857 0.977 . S
H889 C859 0.948 . S
H890 C861 0.947 . S
H891 C862 0.948 . S
H892 C868 0.982 . S
H893 C868 0.979 . S
H894 C868 0.977 . S
H895 C869 0.979 . S
H896 C869 0.980 . S
H897 C869 0.983 . S
H898 C842 0.947 . S
C899 C842 1.392 . S
C899 C843 1.419 . S
C899 H881 0.948 . S
C900 C901 1.391 1_545 S
C900 C904 1.391 . S
C900 H942 0.948 . S
C901 C900 1.391 1_565 S
C901 C902 1.391 . S
C902 C901 1.391 . S
C902 H958 0.947 . S
C902 C959 1.392 . S
C903 C904 1.391 . S
C903 C907 1.397 . S
C903 C959 1.419 1_545 S
C904 C900 1.391 . S
C904 C903 1.391 . S
C904 C905 1.399 . S
C905 C904 1.399 . S
C905 C908 1.396 . S
C905 C917 1.453 . S
C905 C918 1.684 1_556 S
H906 C930 0.945 1_556 S
C907 C903 1.397 . S
C907 C908 1.394 . S
C907 C926 1.723 . S
C908 C905 1.396 . S
C908 C907 1.394 . S
C908 C938 1.723 . S
H909 C932 0.947 . S
H910 C933 0.948 . S
H911 C939 0.982 . S
H912 C940 0.979 . S
H913 C940 0.980 . S
H914 C940 0.983 . S
H915 C939 0.979 . S
H916 C939 0.977 . S
C917 C905 1.453 . S
C917 H946 0.982 . S
C917 H947 0.987 . S
C917 H948 0.977 . S
C918 C905 1.684 1_554 S
C918 H943 0.979 . S
C918 H944 0.980 . S
C918 H945 0.983 . S
C919 C920 1.391 . S
C919 C924 1.391 . S
C919 H949 0.948 . S
C920 C919 1.391 . S
C920 C921 1.391 . S
C921 C920 1.391 . S
C921 C922 1.392 . S
C921 H950 0.947 . S
C922 C921 1.392 . S
C922 C923 1.419 . S
C922 H951 0.948 . S
C923 C922 1.419 . S
C923 C924 1.391 . S
C923 C927 1.397 . S
C924 C919 1.391 . S
C924 C923 1.391 . S
C924 C925 1.399 . S
C925 C924 1.399 . S
C925 C926 1.396 . S
C925 C928 1.453 . S
C925 C929 1.684 1_545 S
C926 C907 1.723 . S
C926 C925 1.396 . S
C926 C927 1.394 . S
C927 C923 1.397 . S
C927 C926 1.394 . S
C927 C937 1.723 . S
C928 C925 1.453 . S
C928 H952 0.982 . S
C928 H953 0.979 . S
C928 H954 0.977 . S
C929 C925 1.684 1_565 S
C929 H955 0.979 . S
C929 H956 0.980 . S
C929 H957 0.983 . S
C930 H906 0.945 1_554 S
C930 C931 1.402 . S
C930 C935 1.384 1_554 S
C931 C930 1.402 . S
C931 C932 1.391 . S
C932 H909 0.947 . S
C932 C931 1.391 . S
C932 C933 1.392 . S
C933 H910 0.948 . S
C933 C932 1.392 . S
C933 C934 1.419 1_554 S
C934 C933 1.419 1_556 S
C934 C935 1.391 . S
C934 C938 1.397 . S
C935 C930 1.384 1_556 S
C935 C934 1.391 . S
C935 C936 1.399 . S
C936 C935 1.399 . S
C936 C937 1.396 . S
C936 C939 1.453 . S
C936 C940 1.684 . S
C937 C927 1.723 . S
C937 C936 1.396 . S
C937 C938 1.394 . S
C938 C908 1.723 . S
C938 C934 1.397 . S
C938 C937 1.394 . S
C939 H911 0.982 . S
C939 H915 0.979 . S
C939 H916 0.977 . S
C939 C936 1.453 . S
C940 H912 0.979 . S
C940 H913 0.980 . S
C940 H914 0.983 . S
C940 C936 1.684 . S
H941 C959 0.948 . S
H942 C900 0.948 . S
H943 C918 0.979 . S
H944 C918 0.980 . S
H945 C918 0.983 . S
H946 C917 0.982 . S
H947 C917 0.987 . S
H948 C917 0.977 . S
H949 C919 0.948 . S
H950 C921 0.947 . S
H951 C922 0.948 . S
H952 C928 0.982 . S
H953 C928 0.979 . S
H954 C928 0.977 . S
H955 C929 0.979 . S
H956 C929 0.980 . S
H957 C929 0.983 . S
H958 C902 0.947 . S
C959 C902 1.392 . S
C959 C903 1.419 1_565 S
C959 H941 0.948 . S
Zn960 O963 2.024 1_556 S
Zn960 O965 2.054 . S
Zn960 O970 2.077 . S
Zn961 O962 1.962 . S
Zn961 O964 1.986 . S
Zn961 O966 1.996 . S
Zn961 O969 1.943 1_554 S
O962 Zn961 1.962 . S
O962 C967 1.254 . S
O963 Zn960 2.024 1_554 S
O963 C967 1.269 . S
O964 Zn961 1.986 . S
O964 C971 1.262 . S
O965 Zn960 2.054 . S
O965 C973 1.260 . S
O966 Zn961 1.996 . S
O966 C973 1.257 1_554 S
C967 O962 1.254 . S
C967 O963 1.269 . S
C968 O969 1.249 . S
C968 O970 1.270 . S
O969 Zn961 1.943 1_556 S
O969 C968 1.249 . S
O970 Zn960 2.077 . S
O970 C968 1.270 . S
C971 O964 1.262 . S
C971 O972 1.232 . S
O972 C971 1.232 . S
C973 O965 1.260 . S
C973 O966 1.257 1_556 S
Zn974 O977 2.031 . S
Zn974 O979 2.049 . S
Zn974 O984 2.067 . S
Zn975 O976 1.962 . S
Zn975 O978 1.986 . S
Zn975 O980 1.996 . S
Zn975 O983 1.943 . S
O976 Zn975 1.962 . S
O976 C981 1.254 . S
O977 Zn974 2.031 . S
O977 C981 1.269 . S
O978 Zn975 1.986 . S
O978 C985 1.262 . S
O979 Zn974 2.049 . S
O979 C987 1.260 . S
O980 Zn975 1.996 . S
O980 C987 1.257 . S
C981 O976 1.254 . S
C981 O977 1.269 . S
C982 O983 1.249 . S
C982 O984 1.270 . S
O983 Zn975 1.943 . S
O983 C982 1.249 . S
O984 Zn974 2.067 . S
O984 C982 1.270 . S
C985 O978 1.262 . S
C985 O986 1.232 . S
O986 C985 1.232 . S
C987 O979 1.260 . S
C987 O980 1.257 . S
Zn988 O991 2.031 . S
Zn988 O993 2.049 . S
Zn988 O998 2.067 . S
Zn989 O990 1.962 . S
Zn989 O992 1.986 . S
Zn989 O994 1.996 1_554 S
Zn989 O997 1.943 . S
O990 Zn989 1.962 . S
O990 C995 1.254 . S
O991 Zn988 2.031 . S
O991 C995 1.269 1_556 S
O992 Zn989 1.986 . S
O992 C999 1.262 . S
O993 Zn988 2.049 . S
O993 C1001 1.260 . S
O994 Zn989 1.996 1_556 S
O994 C1001 1.257 . S
C995 O990 1.254 . S
C995 O991 1.269 1_554 S
C996 O997 1.249 1_556 S
C996 O998 1.270 . S
O997 Zn989 1.943 . S
O997 C996 1.249 1_554 S
O998 Zn988 2.067 . S
O998 C996 1.270 . S
C999 O992 1.262 . S
C999 O1000 1.232 . S
O1000 C999 1.232 . S
C1001 O993 1.260 . S
C1001 O994 1.257 . S
Zn1002 O1005 2.024 1_565 S
Zn1002 O1007 2.054 . S
Zn1002 O1012 2.077 . S
Zn1003 O1004 1.962 . S
Zn1003 O1006 1.986 . S
Zn1003 O1008 1.996 . S
Zn1003 O1011 1.943 1_545 S
O1004 Zn1003 1.962 . S
O1004 C1009 1.254 . S
O1005 Zn1002 2.024 1_545 S
O1005 C1009 1.269 . S
O1006 Zn1003 1.986 . S
O1006 C1013 1.262 . S
O1007 Zn1002 2.054 . S
O1007 C1015 1.260 . S
O1008 Zn1003 1.996 . S
O1008 C1015 1.257 1_545 S
C1009 O1004 1.254 . S
C1009 O1005 1.269 . S
C1010 O1011 1.249 . S
C1010 O1012 1.270 . S
O1011 Zn1003 1.943 1_565 S
O1011 C1010 1.249 . S
O1012 Zn1002 2.077 . S
O1012 C1010 1.270 . S
C1013 O1006 1.262 . S
C1013 O1014 1.232 . S
O1014 C1013 1.232 . S
C1015 O1007 1.260 . S
C1015 O1008 1.257 1_565 S
Zn1016 O1019 2.031 . S
Zn1016 O1021 2.049 . S
Zn1016 O1026 2.067 . S
Zn1017 O1018 1.962 . S
Zn1017 O1020 1.986 . S
Zn1017 O1022 1.996 . S
Zn1017 O1025 1.943 . S
O1018 Zn1017 1.962 . S
O1018 C1023 1.254 . S
O1019 Zn1016 2.031 . S
O1019 C1023 1.269 . S
O1020 Zn1017 1.986 . S
O1020 C1027 1.262 . S
O1021 Zn1016 2.049 . S
O1021 C1029 1.260 . S
O1022 Zn1017 1.996 . S
O1022 C1029 1.257 . S
C1023 O1018 1.254 . S
C1023 O1019 1.269 . S
C1024 O1025 1.249 . S
C1024 O1026 1.270 . S
O1025 Zn1017 1.943 . S
O1025 C1024 1.249 . S
O1026 Zn1016 2.067 . S
O1026 C1024 1.270 . S
C1027 O1020 1.262 . S
C1027 O1028 1.232 . S
O1028 C1027 1.232 . S
C1029 O1021 1.260 . S
C1029 O1022 1.257 . S
Zn1030 O1033 2.031 . S
Zn1030 O1035 2.049 . S
Zn1030 O1040 2.067 . S
Zn1031 O1032 1.962 . S
Zn1031 O1034 1.986 . S
Zn1031 O1036 1.996 . S
Zn1031 O1039 1.943 . S
O1032 Zn1031 1.962 . S
O1032 C1037 1.254 . S
O1033 Zn1030 2.031 . S
O1033 C1037 1.269 . S
O1034 Zn1031 1.986 . S
O1034 C1041 1.262 . S
O1035 Zn1030 2.049 . S
O1035 C1043 1.260 . S
O1036 Zn1031 1.996 . S
O1036 C1043 1.257 . S
C1037 O1032 1.254 . S
C1037 O1033 1.269 . S
C1038 O1039 1.249 . S
C1038 O1040 1.270 . S
O1039 Zn1031 1.943 . S
O1039 C1038 1.249 . S
O1040 Zn1030 2.067 . S
O1040 C1038 1.270 . S
C1041 O1034 1.262 . S
C1041 O1042 1.232 . S
O1042 C1041 1.232 . S
C1043 O1035 1.260 . S
C1043 O1036 1.257 . S
Zn1044 O1047 2.031 . S
Zn1044 O1049 2.049 . S
Zn1044 O1054 2.067 . S
Zn1045 O1046 1.962 . S
Zn1045 O1048 1.986 . S
Zn1045 O1050 1.996 . S
Zn1045 O1053 1.943 . S
O1046 Zn1045 1.962 . S
O1046 C1051 1.254 . S
O1047 Zn1044 2.031 . S
O1047 C1051 1.269 . S
O1048 Zn1045 1.986 . S
O1048 C1055 1.262 . S
O1049 Zn1044 2.049 . S
O1049 C1057 1.260 . S
O1050 Zn1045 1.996 . S
O1050 C1057 1.257 . S
C1051 O1046 1.254 . S
C1051 O1047 1.269 . S
C1052 O1053 1.249 . S
C1052 O1054 1.270 . S
O1053 Zn1045 1.943 . S
O1053 C1052 1.249 . S
O1054 Zn1044 2.067 . S
O1054 C1052 1.270 . S
C1055 O1048 1.262 . S
C1055 O1056 1.232 . S
O1056 C1055 1.232 . S
C1057 O1049 1.260 . S
C1057 O1050 1.257 . S
Zn1058 O1061 2.031 . S
Zn1058 O1063 2.049 . S
Zn1058 O1068 2.067 . S
Zn1059 O1060 1.962 . S
Zn1059 O1062 1.986 . S
Zn1059 O1064 1.996 1_545 S
Zn1059 O1067 1.943 . S
O1060 Zn1059 1.962 . S
O1060 C1065 1.254 . S
O1061 Zn1058 2.031 . S
O1061 C1065 1.269 1_565 S
O1062 Zn1059 1.986 . S
O1062 C1069 1.262 . S
O1063 Zn1058 2.049 . S
O1063 C1071 1.260 . S
O1064 Zn1059 1.996 1_565 S
O1064 C1071 1.257 . S
C1065 O1060 1.254 . S
C1065 O1061 1.269 1_545 S
C1066 O1067 1.249 1_565 S
C1066 O1068 1.270 . S
O1067 Zn1059 1.943 . S
O1067 C1066 1.249 1_545 S
O1068 Zn1058 2.067 . S
O1068 C1066 1.270 . S
C1069 O1062 1.262 . S
C1069 O1070 1.232 . S
O1070 C1069 1.232 . S
C1071 O1063 1.260 . S
C1071 O1064 1.257 . S
Zn1072 O1075 2.024 1_655 S
Zn1072 O1077 2.054 . S
Zn1072 O1082 2.077 . S
Zn1073 O1074 1.962 . S
Zn1073 O1076 1.986 . S
Zn1073 O1078 1.996 . S
Zn1073 O1081 1.943 1_455 S
O1074 Zn1073 1.962 . S
O1074 C1079 1.254 . S
O1075 Zn1072 2.024 1_455 S
O1075 C1079 1.269 . S
O1076 Zn1073 1.986 . S
O1076 C1083 1.262 . S
O1077 Zn1072 2.054 . S
O1077 C1085 1.260 . S
O1078 Zn1073 1.996 . S
O1078 C1085 1.257 1_455 S
C1079 O1074 1.254 . S
C1079 O1075 1.269 . S
C1080 O1081 1.249 . S
C1080 O1082 1.270 . S
O1081 Zn1073 1.943 1_655 S
O1081 C1080 1.249 . S
O1082 Zn1072 2.077 . S
O1082 C1080 1.270 . S
C1083 O1076 1.262 . S
C1083 O1084 1.232 . S
O1084 C1083 1.232 . S
C1085 O1077 1.260 . S
C1085 O1078 1.257 1_655 S
Zn1086 O1089 2.031 . S
Zn1086 O1091 2.049 . S
Zn1086 O1096 2.067 . S
Zn1087 O1088 1.962 . S
Zn1087 O1090 1.986 . S
Zn1087 O1092 1.996 . S
Zn1087 O1095 1.943 . S
O1088 Zn1087 1.962 . S
O1088 C1093 1.254 . S
O1089 Zn1086 2.031 . S
O1089 C1093 1.269 . S
O1090 Zn1087 1.986 . S
O1090 C1097 1.262 . S
O1091 Zn1086 2.049 . S
O1091 C1099 1.260 . S
O1092 Zn1087 1.996 . S
O1092 C1099 1.257 . S
C1093 O1088 1.254 . S
C1093 O1089 1.269 . S
C1094 O1095 1.249 . S
C1094 O1096 1.270 . S
O1095 Zn1087 1.943 . S
O1095 C1094 1.249 . S
O1096 Zn1086 2.067 . S
O1096 C1094 1.270 . S
C1097 O1090 1.262 . S
C1097 O1098 1.232 . S
O1098 C1097 1.232 . S
C1099 O1091 1.260 . S
C1099 O1092 1.257 . S
Zn1100 O1103 2.031 . S
Zn1100 O1105 2.049 . S
Zn1100 O1110 2.067 . S
Zn1101 O1102 1.962 . S
Zn1101 O1104 1.986 . S
Zn1101 O1106 1.996 1_455 S
Zn1101 O1109 1.943 . S
O1102 Zn1101 1.962 . S
O1102 C1107 1.254 . S
O1103 Zn1100 2.031 . S
O1103 C1107 1.269 1_655 S
O1104 Zn1101 1.986 . S
O1104 C1111 1.262 . S
O1105 Zn1100 2.049 . S
O1105 C1113 1.260 . S
O1106 Zn1101 1.996 1_655 S
O1106 C1113 1.257 . S
C1107 O1102 1.254 . S
C1107 O1103 1.269 1_455 S
C1108 O1109 1.249 1_655 S
C1108 O1110 1.270 . S
O1109 Zn1101 1.943 . S
O1109 C1108 1.249 1_455 S
O1110 Zn1100 2.067 . S
O1110 C1108 1.270 . S
C1111 O1104 1.262 . S
C1111 O1112 1.232 . S
O1112 C1111 1.232 . S
C1113 O1105 1.260 . S
C1113 O1106 1.257 . S
Zn1114 O1117 2.031 . S
Zn1114 O1119 2.049 . S
Zn1114 O1124 2.067 . S
Zn1115 O1116 1.962 . S
Zn1115 O1118 1.986 . S
Zn1115 O1120 1.996 . S
Zn1115 O1123 1.943 . S
O1116 Zn1115 1.962 . S
O1116 C1121 1.254 . S
O1117 Zn1114 2.031 . S
O1117 C1121 1.269 . S
O1118 Zn1115 1.986 . S
O1118 C1125 1.262 . S
O1119 Zn1114 2.049 . S
O1119 C1127 1.260 . S
O1120 Zn1115 1.996 . S
O1120 C1127 1.257 . S
C1121 O1116 1.254 . S
C1121 O1117 1.269 . S
C1122 O1123 1.249 . S
C1122 O1124 1.270 . S
O1123 Zn1115 1.943 . S
O1123 C1122 1.249 . S
O1124 Zn1114 2.067 . S
O1124 C1122 1.270 . S
C1125 O1118 1.262 . S
C1125 O1126 1.232 . S
O1126 C1125 1.232 . S
C1127 O1119 1.260 . S
C1127 O1120 1.257 . S
C1128 C1129 1.369 . S
C1128 C1130 1.419 . S
C1128 H1132 0.930 . S
C1129 C1128 1.369 . S
C1129 C1138 1.429 . S
C1130 C1128 1.419 . S
C1130 C1131 1.363 . S
C1130 H1133 0.929 . S
C1131 C1130 1.363 . S
C1131 C1137 1.428 . S
H1132 C1128 0.930 . S
H1133 C1130 0.929 . S
S1134 N1135 1.613 . S
S1134 N1136 1.610 . S
N1135 S1134 1.613 . S
N1135 C1138 1.350 . S
N1136 S1134 1.610 . S
N1136 C1137 1.351 . S
C1137 C1131 1.428 . S
C1137 N1136 1.351 . S
C1137 C1138 1.434 . S
C1138 C1129 1.429 . S
C1138 N1135 1.350 . S
C1138 C1137 1.434 . S
C1139 C1140 1.369 . S
C1139 C1141 1.419 . S
C1139 H1143 0.930 . S
C1140 C1139 1.369 . S
C1140 C1149 1.429 . S
C1141 C1139 1.419 . S
C1141 C1142 1.363 . S
C1141 H1144 0.929 . S
C1142 C1141 1.363 . S
C1142 C1148 1.428 . S
H1143 C1139 0.930 . S
H1144 C1141 0.929 . S
S1145 N1146 1.613 . S
S1145 N1147 1.610 . S
N1146 S1145 1.613 . S
N1146 C1149 1.350 . S
N1147 S1145 1.610 . S
N1147 C1148 1.351 . S
C1148 C1142 1.428 . S
C1148 N1147 1.351 . S
C1148 C1149 1.434 . S
C1149 C1140 1.429 . S
C1149 N1146 1.350 . S
C1149 C1148 1.434 . S
C1150 C1151 1.369 . S
C1150 C1152 1.419 . S
C1150 H1154 0.930 . S
C1151 C1150 1.369 . S
C1151 C1160 1.429 . S
C1152 C1150 1.419 . S
C1152 C1153 1.363 . S
C1152 H1155 0.929 . S
C1153 C1152 1.363 . S
C1153 C1159 1.428 . S
H1154 C1150 0.930 . S
H1155 C1152 0.929 . S
S1156 N1157 1.613 . S
S1156 N1158 1.610 . S
N1157 S1156 1.613 . S
N1157 C1160 1.350 . S
N1158 S1156 1.610 . S
N1158 C1159 1.351 . S
C1159 C1153 1.428 . S
C1159 N1158 1.351 . S
C1159 C1160 1.434 . S
C1160 C1151 1.429 . S
C1160 N1157 1.350 . S
C1160 C1159 1.434 . S
C1161 C1162 1.369 . S
C1161 C1163 1.419 . S
C1161 H1165 0.930 . S
C1162 C1161 1.369 . S
C1162 C1171 1.429 . S
C1163 C1161 1.419 . S
C1163 C1164 1.363 . S
C1163 H1166 0.929 . S
C1164 C1163 1.363 . S
C1164 C1170 1.428 1_565 S
H1165 C1161 0.930 . S
H1166 C1163 0.929 . S
S1167 N1168 1.613 . S
S1167 N1169 1.610 . S
N1168 S1167 1.613 . S
N1168 C1171 1.350 1_545 S
N1169 S1167 1.610 . S
N1169 C1170 1.351 . S
C1170 C1164 1.428 1_545 S
C1170 N1169 1.351 . S
C1170 C1171 1.434 1_545 S
C1171 C1162 1.429 . S
C1171 N1168 1.350 1_565 S
C1171 C1170 1.434 1_565 S
C1172 C1173 1.369 . S
C1172 C1174 1.419 . S
C1172 H1176 0.930 . S
C1173 C1172 1.369 . S
C1173 C1182 1.429 . S
C1174 C1172 1.419 . S
C1174 C1175 1.363 . S
C1174 H1177 0.929 . S
C1175 C1174 1.363 . S
C1175 C1181 1.428 . S
H1176 C1172 0.930 . S
H1177 C1174 0.929 . S
S1178 N1179 1.613 . S
S1178 N1180 1.610 . S
N1179 S1178 1.613 . S
N1179 C1182 1.350 . S
N1180 S1178 1.610 . S
N1180 C1181 1.351 . S
C1181 C1175 1.428 . S
C1181 N1180 1.351 . S
C1181 C1182 1.434 . S
C1182 C1173 1.429 . S
C1182 N1179 1.350 . S
C1182 C1181 1.434 . S
C1183 C1184 1.369 . S
C1183 C1185 1.419 . S
C1183 H1187 0.930 . S
C1184 C1183 1.369 . S
C1184 C1193 1.429 . S
C1185 C1183 1.419 . S
C1185 C1186 1.363 . S
C1185 H1188 0.929 . S
C1186 C1185 1.363 . S
C1186 C1192 1.428 . S
H1187 C1183 0.930 . S
H1188 C1185 0.929 . S
S1189 N1190 1.613 . S
S1189 N1191 1.610 . S
N1190 S1189 1.613 . S
N1190 C1193 1.350 . S
N1191 S1189 1.610 . S
N1191 C1192 1.351 . S
C1192 C1186 1.428 . S
C1192 N1191 1.351 . S
C1192 C1193 1.434 . S
C1193 C1184 1.429 . S
C1193 N1190 1.350 . S
C1193 C1192 1.434 . S
C1194 C1195 1.369 . S
C1194 C1196 1.419 . S
C1194 H1198 0.930 . S
C1195 C1194 1.369 . S
C1195 C1204 1.429 . S
C1196 C1194 1.419 . S
C1196 C1197 1.363 . S
C1196 H1199 0.929 . S
C1197 C1196 1.363 . S
C1197 C1203 1.428 . S
H1198 C1194 0.930 . S
H1199 C1196 0.929 . S
S1200 N1201 1.613 . S
S1200 N1202 1.610 . S
N1201 S1200 1.613 . S
N1201 C1204 1.350 . S
N1202 S1200 1.610 . S
N1202 C1203 1.351 . S
C1203 C1197 1.428 . S
C1203 N1202 1.351 . S
C1203 C1204 1.434 . S
C1204 C1195 1.429 . S
C1204 N1201 1.350 . S
C1204 C1203 1.434 . S
C1205 C1206 1.369 . S
C1205 C1207 1.419 . S
C1205 H1209 0.930 . S
C1206 C1205 1.369 . S
C1206 C1215 1.429 . S
C1207 C1205 1.419 . S
C1207 C1208 1.363 . S
C1207 H1210 0.929 . S
C1208 C1207 1.363 . S
C1208 C1214 1.428 1_565 S
H1209 C1205 0.930 . S
H1210 C1207 0.929 . S
S1211 N1212 1.613 . S
S1211 N1213 1.610 . S
N1212 S1211 1.613 . S
N1212 C1215 1.350 1_545 S
N1213 S1211 1.610 . S
N1213 C1214 1.351 . S
C1214 C1208 1.428 1_545 S
C1214 N1213 1.351 . S
C1214 C1215 1.434 1_545 S
C1215 C1206 1.429 . S
C1215 N1212 1.350 1_565 S
C1215 C1214 1.434 1_565 S
C1216 C1217 1.369 . S
C1216 C1218 1.419 . S
C1216 H1220 0.930 . S
C1217 C1216 1.369 . S
C1217 C1226 1.429 . S
C1218 C1216 1.419 . S
C1218 C1219 1.363 . S
C1218 H1221 0.929 . S
C1219 C1218 1.363 . S
C1219 C1225 1.428 . S
H1220 C1216 0.930 . S
H1221 C1218 0.929 . S
S1222 N1223 1.613 . S
S1222 N1224 1.610 . S
N1223 S1222 1.613 . S
N1223 C1226 1.350 . S
N1224 S1222 1.610 . S
N1224 C1225 1.351 . S
C1225 C1219 1.428 . S
C1225 N1224 1.351 . S
C1225 C1226 1.434 . S
C1226 C1217 1.429 . S
C1226 N1223 1.350 . S
C1226 C1225 1.434 . S
C1227 C1228 1.369 . S
C1227 C1229 1.419 . S
C1227 H1231 0.930 . S
C1228 C1227 1.369 . S
C1228 C1237 1.429 . S
C1229 C1227 1.419 . S
C1229 C1230 1.363 . S
C1229 H1232 0.929 . S
C1230 C1229 1.363 . S
C1230 C1236 1.428 . S
H1231 C1227 0.930 . S
H1232 C1229 0.929 . S
S1233 N1234 1.613 . S
S1233 N1235 1.610 . S
N1234 S1233 1.613 . S
N1234 C1237 1.350 . S
N1235 S1233 1.610 . S
N1235 C1236 1.351 . S
C1236 C1230 1.428 . S
C1236 N1235 1.351 . S
C1236 C1237 1.434 . S
C1237 C1228 1.429 . S
C1237 N1234 1.350 . S
C1237 C1236 1.434 . S
C1238 C1239 1.369 . S
C1238 C1240 1.419 . S
C1238 H1242 0.930 . S
C1239 C1238 1.369 . S
C1239 C1248 1.429 . S
C1240 C1238 1.419 . S
C1240 C1241 1.363 . S
C1240 H1243 0.929 . S
C1241 C1240 1.363 . S
C1241 C1247 1.428 . S
H1242 C1238 0.930 . S
H1243 C1240 0.929 . S
S1244 N1245 1.613 . S
S1244 N1246 1.610 . S
N1245 S1244 1.613 . S
N1245 C1248 1.350 . S
N1246 S1244 1.610 . S
N1246 C1247 1.351 . S
C1247 C1241 1.428 . S
C1247 N1246 1.351 . S
C1247 C1248 1.434 . S
C1248 C1239 1.429 . S
C1248 N1245 1.350 . S
C1248 C1247 1.434 . S
C1249 C1250 1.369 . S
C1249 C1251 1.419 . S
C1249 H1253 0.930 . S
C1250 C1249 1.369 . S
C1250 C1259 1.429 . S
C1251 C1249 1.419 . S
C1251 C1252 1.363 . S
C1251 H1254 0.929 . S
C1252 C1251 1.363 . S
C1252 C1258 1.428 . S
H1253 C1249 0.930 . S
H1254 C1251 0.929 . S
S1255 N1256 1.613 . S
S1255 N1257 1.610 . S
N1256 S1255 1.613 . S
N1256 C1259 1.350 . S
N1257 S1255 1.610 . S
N1257 C1258 1.351 . S
C1258 C1252 1.428 . S
C1258 N1257 1.351 . S
C1258 C1259 1.434 . S
C1259 C1250 1.429 . S
C1259 N1256 1.350 . S
C1259 C1258 1.434 . S
C1260 C1261 1.369 . S
C1260 C1262 1.419 . S
C1260 H1264 0.930 . S
C1261 C1260 1.369 . S
C1261 C1270 1.429 . S
C1262 C1260 1.419 . S
C1262 C1263 1.363 . S
C1262 H1265 0.929 . S
C1263 C1262 1.363 . S
C1263 C1269 1.428 . S
H1264 C1260 0.930 . S
H1265 C1262 0.929 . S
S1266 N1267 1.613 . S
S1266 N1268 1.610 . S
N1267 S1266 1.613 . S
N1267 C1270 1.350 . S
N1268 S1266 1.610 . S
N1268 C1269 1.351 . S
C1269 C1263 1.428 . S
C1269 N1268 1.351 . S
C1269 C1270 1.434 . S
C1270 C1261 1.429 . S
C1270 N1267 1.350 . S
C1270 C1269 1.434 . S
C1271 C1272 1.369 . S
C1271 C1273 1.419 . S
C1271 H1275 0.930 . S
C1272 C1271 1.369 . S
C1272 C1281 1.429 . S
C1273 C1271 1.419 . S
C1273 C1274 1.363 . S
C1273 H1276 0.929 . S
C1274 C1273 1.363 . S
C1274 C1280 1.428 . S
H1275 C1271 0.930 . S
H1276 C1273 0.929 . S
S1277 N1278 1.613 . S
S1277 N1279 1.610 . S
N1278 S1277 1.613 . S
N1278 C1281 1.350 . S
N1279 S1277 1.610 . S
N1279 C1280 1.351 . S
C1280 C1274 1.428 . S
C1280 N1279 1.351 . S
C1280 C1281 1.434 . S
C1281 C1272 1.429 . S
C1281 N1278 1.350 . S
C1281 C1280 1.434 . S
C1282 C1283 1.369 . S
C1282 C1284 1.419 . S
C1282 H1286 0.930 . S
C1283 C1282 1.369 . S
C1283 C1292 1.429 . S
C1284 C1282 1.419 . S
C1284 C1285 1.363 . S
C1284 H1287 0.929 . S
C1285 C1284 1.363 . S
C1285 C1291 1.428 . S
H1286 C1282 0.930 . S
H1287 C1284 0.929 . S
S1288 N1289 1.613 . S
S1288 N1290 1.610 . S
N1289 S1288 1.613 . S
N1289 C1292 1.350 . S
N1290 S1288 1.610 . S
N1290 C1291 1.351 . S
C1291 C1285 1.428 . S
C1291 N1290 1.351 . S
C1291 C1292 1.434 . S
C1292 C1283 1.429 . S
C1292 N1289 1.350 . S
C1292 C1291 1.434 . S
C1293 C1294 1.369 . S
C1293 C1295 1.419 1_655 S
C1293 H1297 0.930 1_655 S
C1294 C1293 1.369 . S
C1294 C1303 1.429 . S
C1295 C1293 1.419 1_455 S
C1295 C1296 1.363 1_455 S
C1295 H1298 0.929 . S
C1296 C1295 1.363 1_655 S
C1296 C1302 1.428 . S
H1297 C1293 0.930 1_455 S
H1298 C1295 0.929 . S
S1299 N1300 1.613 . S
S1299 N1301 1.610 . S
N1300 S1299 1.613 . S
N1300 C1303 1.350 . S
N1301 S1299 1.610 . S
N1301 C1302 1.351 . S
C1302 C1296 1.428 . S
C1302 N1301 1.351 . S
C1302 C1303 1.434 . S
C1303 C1294 1.429 . S
C1303 N1300 1.350 . S
C1303 C1302 1.434 . S
C1304 C1305 1.369 . S
C1304 C1306 1.419 . S
C1304 H1308 0.930 . S
C1305 C1304 1.369 . S
C1305 C1314 1.429 . S
C1306 C1304 1.419 . S
C1306 C1307 1.363 . S
C1306 H1309 0.929 . S
C1307 C1306 1.363 . S
C1307 C1313 1.428 . S
H1308 C1304 0.930 . S
H1309 C1306 0.929 . S
S1310 N1311 1.613 . S
S1310 N1312 1.610 . S
N1311 S1310 1.613 . S
N1311 C1314 1.350 . S
N1312 S1310 1.610 . S
N1312 C1313 1.351 . S
C1313 C1307 1.428 . S
C1313 N1312 1.351 . S
C1313 C1314 1.434 . S
C1314 C1305 1.429 . S
C1314 N1311 1.350 . S
C1314 C1313 1.434 . S
C1315 C1316 1.369 . S
C1315 C1317 1.419 . S
C1315 H1319 0.930 . S
C1316 C1315 1.369 . S
C1316 C1325 1.429 . S
C1317 C1315 1.419 . S
C1317 C1318 1.363 . S
C1317 H1320 0.929 . S
C1318 C1317 1.363 . S
C1318 C1324 1.428 . S
H1319 C1315 0.930 . S
H1320 C1317 0.929 . S
S1321 N1322 1.613 . S
S1321 N1323 1.610 . S
N1322 S1321 1.613 . S
N1322 C1325 1.350 . S
N1323 S1321 1.610 . S
N1323 C1324 1.351 . S
C1324 C1318 1.428 . S
C1324 N1323 1.351 . S
C1324 C1325 1.434 . S
C1325 C1316 1.429 . S
C1325 N1322 1.350 . S
C1325 C1324 1.434 . S
C1326 C1327 1.369 . S
C1326 C1328 1.419 1_556 S
C1326 H1330 0.930 1_556 S
C1327 C1326 1.369 . S
C1327 C1336 1.429 . S
C1328 C1326 1.419 1_554 S
C1328 C1329 1.363 1_554 S
C1328 H1331 0.929 . S
C1329 C1328 1.363 1_556 S
C1329 C1335 1.428 . S
H1330 C1326 0.930 1_554 S
H1331 C1328 0.929 . S
S1332 N1333 1.613 . S
S1332 N1334 1.610 . S
N1333 S1332 1.613 . S
N1333 C1336 1.350 . S
N1334 S1332 1.610 . S
N1334 C1335 1.351 . S
C1335 C1329 1.428 . S
C1335 N1334 1.351 . S
C1335 C1336 1.434 . S
C1336 C1327 1.429 . S
C1336 N1333 1.350 . S
C1336 C1335 1.434 . S
C1337 C1338 1.369 . S
C1337 C1339 1.419 . S
C1337 H1341 0.930 . S
C1338 C1337 1.369 . S
C1338 C1347 1.429 . S
C1339 C1337 1.419 . S
C1339 C1340 1.363 . S
C1339 H1342 0.929 . S
C1340 C1339 1.363 . S
C1340 C1346 1.428 . S
H1341 C1337 0.930 . S
H1342 C1339 0.929 . S
S1343 N1344 1.613 . S
S1343 N1345 1.610 . S
N1344 S1343 1.613 . S
N1344 C1347 1.350 . S
N1345 S1343 1.610 . S
N1345 C1346 1.351 . S
C1346 C1340 1.428 . S
C1346 N1345 1.351 . S
C1346 C1347 1.434 . S
C1347 C1338 1.429 . S
C1347 N1344 1.350 . S
C1347 C1346 1.434 . S
C1348 C1349 1.369 . S
C1348 C1350 1.419 . S
C1348 H1352 0.930 . S
C1349 C1348 1.369 . S
C1349 C1358 1.429 . S
C1350 C1348 1.419 . S
C1350 C1351 1.363 . S
C1350 H1353 0.929 . S
C1351 C1350 1.363 . S
C1351 C1357 1.428 . S
H1352 C1348 0.930 . S
H1353 C1350 0.929 . S
S1354 N1355 1.613 . S
S1354 N1356 1.610 . S
N1355 S1354 1.613 . S
N1355 C1358 1.350 . S
N1356 S1354 1.610 . S
N1356 C1357 1.351 . S
C1357 C1351 1.428 . S
C1357 N1356 1.351 . S
C1357 C1358 1.434 . S
C1358 C1349 1.429 . S
C1358 N1355 1.350 . S
C1358 C1357 1.434 . S
C1359 C1360 1.369 . S
C1359 C1361 1.419 . S
C1359 H1363 0.930 . S
C1360 C1359 1.369 . S
C1360 C1369 1.429 . S
C1361 C1359 1.419 . S
C1361 C1362 1.363 . S
C1361 H1364 0.929 . S
C1362 C1361 1.363 . S
C1362 C1368 1.428 . S
H1363 C1359 0.930 . S
H1364 C1361 0.929 . S
S1365 N1366 1.613 . S
S1365 N1367 1.610 . S
N1366 S1365 1.613 . S
N1366 C1369 1.350 . S
N1367 S1365 1.610 . S
N1367 C1368 1.351 . S
C1368 C1362 1.428 . S
C1368 N1367 1.351 . S
C1368 C1369 1.434 . S
C1369 C1360 1.429 . S
C1369 N1366 1.350 . S
C1369 C1368 1.434 . S
C1370 C1371 1.369 . S
C1370 C1372 1.419 . S
C1370 H1374 0.930 . S
C1371 C1370 1.369 . S
C1371 C1380 1.429 . S
C1372 C1370 1.419 . S
C1372 C1373 1.363 . S
C1372 H1375 0.929 . S
C1373 C1372 1.363 . S
C1373 C1379 1.428 . S
H1374 C1370 0.930 . S
H1375 C1372 0.929 . S
S1376 N1377 1.613 . S
S1376 N1378 1.610 . S
N1377 S1376 1.613 . S
N1377 C1380 1.350 . S
N1378 S1376 1.610 . S
N1378 C1379 1.351 . S
C1379 C1373 1.428 . S
C1379 N1378 1.351 . S
C1379 C1380 1.434 . S
C1380 C1371 1.429 . S
C1380 N1377 1.350 . S
C1380 C1379 1.434 . S
C1381 C1382 1.369 . S
C1381 C1383 1.419 . S
C1381 H1385 0.930 . S
C1382 C1381 1.369 . S
C1382 C1391 1.429 . S
C1383 C1381 1.419 . S
C1383 C1384 1.363 . S
C1383 H1386 0.929 . S
C1384 C1383 1.363 . S
C1384 C1390 1.428 . S
H1385 C1381 0.930 . S
H1386 C1383 0.929 . S
S1387 N1388 1.613 . S
S1387 N1389 1.610 . S
N1388 S1387 1.613 . S
N1388 C1391 1.350 . S
N1389 S1387 1.610 . S
N1389 C1390 1.351 . S
C1390 C1384 1.428 . S
C1390 N1389 1.351 . S
C1390 C1391 1.434 . S
C1391 C1382 1.429 . S
C1391 N1388 1.350 . S
C1391 C1390 1.434 . S
C1392 C1393 1.369 . S
C1392 C1394 1.419 . S
C1392 H1396 0.930 . S
C1393 C1392 1.369 . S
C1393 C1402 1.429 . S
C1394 C1392 1.419 . S
C1394 C1395 1.363 . S
C1394 H1397 0.929 . S
C1395 C1394 1.363 . S
C1395 C1401 1.428 . S
H1396 C1392 0.930 . S
H1397 C1394 0.929 . S
S1398 N1399 1.613 . S
S1398 N1400 1.610 . S
N1399 S1398 1.613 . S
N1399 C1402 1.350 . S
N1400 S1398 1.610 . S
N1400 C1401 1.351 . S
C1401 C1395 1.428 . S
C1401 N1400 1.351 . S
C1401 C1402 1.434 . S
C1402 C1393 1.429 . S
C1402 N1399 1.350 . S
C1402 C1401 1.434 . S
C1403 C1404 1.369 . S
C1403 C1405 1.419 . S
C1403 H1407 0.930 . S
C1404 C1403 1.369 . S
C1404 C1413 1.429 . S
C1405 C1403 1.419 . S
C1405 C1406 1.363 . S
C1405 H1408 0.929 . S
C1406 C1405 1.363 . S
C1406 C1412 1.428 . S
H1407 C1403 0.930 . S
H1408 C1405 0.929 . S
S1409 N1410 1.613 . S
S1409 N1411 1.610 . S
N1410 S1409 1.613 . S
N1410 C1413 1.350 . S
N1411 S1409 1.610 . S
N1411 C1412 1.351 . S
C1412 C1406 1.428 . S
C1412 N1411 1.351 . S
C1412 C1413 1.434 . S
C1413 C1404 1.429 . S
C1413 N1410 1.350 . S
C1413 C1412 1.434 . S
C1414 C1415 1.369 . S
C1414 C1416 1.419 . S
C1414 H1418 0.930 . S
C1415 C1414 1.369 . S
C1415 C1424 1.429 . S
C1416 C1414 1.419 . S
C1416 C1417 1.363 . S
C1416 H1419 0.929 . S
C1417 C1416 1.363 . S
C1417 C1423 1.428 . S
H1418 C1414 0.930 . S
H1419 C1416 0.929 . S
S1420 N1421 1.613 . S
S1420 N1422 1.610 . S
N1421 S1420 1.613 . S
N1421 C1424 1.350 . S
N1422 S1420 1.610 . S
N1422 C1423 1.351 . S
C1423 C1417 1.428 . S
C1423 N1422 1.351 . S
C1423 C1424 1.434 . S
C1424 C1415 1.429 . S
C1424 N1421 1.350 . S
C1424 C1423 1.434 . S
C1425 C1426 1.369 . S
C1425 C1427 1.419 . S
C1425 H1429 0.930 . S
C1426 C1425 1.369 . S
C1426 C1435 1.429 . S
C1427 C1425 1.419 . S
C1427 C1428 1.363 . S
C1427 H1430 0.929 . S
C1428 C1427 1.363 . S
C1428 C1434 1.428 . S
H1429 C1425 0.930 . S
H1430 C1427 0.929 . S
S1431 N1432 1.613 . S
S1431 N1433 1.610 . S
N1432 S1431 1.613 . S
N1432 C1435 1.350 . S
N1433 S1431 1.610 . S
N1433 C1434 1.351 . S
C1434 C1428 1.428 . S
C1434 N1433 1.351 . S
C1434 C1435 1.434 . S
C1435 C1426 1.429 . S
C1435 N1432 1.350 . S
C1435 C1434 1.434 . S
C1436 C1437 1.369 . S
C1436 C1438 1.419 . S
C1436 H1440 0.930 . S
C1437 C1436 1.369 . S
C1437 C1446 1.429 . S
C1438 C1436 1.419 . S
C1438 C1439 1.363 . S
C1438 H1441 0.929 . S
C1439 C1438 1.363 . S
C1439 C1445 1.428 . S
H1440 C1436 0.930 . S
H1441 C1438 0.929 . S
S1442 N1443 1.613 . S
S1442 N1444 1.610 . S
N1443 S1442 1.613 . S
N1443 C1446 1.350 . S
N1444 S1442 1.610 . S
N1444 C1445 1.351 . S
C1445 C1439 1.428 . S
C1445 N1444 1.351 . S
C1445 C1446 1.434 . S
C1446 C1437 1.429 . S
C1446 N1443 1.350 . S
C1446 C1445 1.434 . S
C1447 C1448 1.369 . S
C1447 C1449 1.419 . S
C1447 H1451 0.930 . S
C1448 C1447 1.369 . S
C1448 C1457 1.429 . S
C1449 C1447 1.419 . S
C1449 C1450 1.363 . S
C1449 H1452 0.929 . S
C1450 C1449 1.363 . S
C1450 C1456 1.428 . S
H1451 C1447 0.930 . S
H1452 C1449 0.929 . S
S1453 N1454 1.613 1_565 S
S1453 N1455 1.610 1_565 S
N1454 S1453 1.613 1_545 S
N1454 C1457 1.350 . S
N1455 S1453 1.610 1_545 S
N1455 C1456 1.352 . S
C1456 C1450 1.428 . S
C1456 N1455 1.352 . S
C1456 C1457 1.434 . S
C1457 C1448 1.429 . S
C1457 N1454 1.350 . S
C1457 C1456 1.434 . S
C1458 C1459 1.369 . S
C1458 C1460 1.419 . S
C1458 H1462 0.930 . S
C1459 C1458 1.369 . S
C1459 C1468 1.429 . S
C1460 C1458 1.419 . S
C1460 C1461 1.363 . S
C1460 H1463 0.929 . S
C1461 C1460 1.363 . S
C1461 C1467 1.428 . S
H1462 C1458 0.930 . S
H1463 C1460 0.929 . S
S1464 N1465 1.613 . S
S1464 N1466 1.610 . S
N1465 S1464 1.613 . S
N1465 C1468 1.350 . S
N1466 S1464 1.610 . S
N1466 C1467 1.351 . S
C1467 C1461 1.428 . S
C1467 N1466 1.351 . S
C1467 C1468 1.434 . S
C1468 C1459 1.429 . S
C1468 N1465 1.350 . S
C1468 C1467 1.434 . S
C1469 C1470 1.369 . S
C1469 C1471 1.419 . S
C1469 H1473 0.930 . S
C1470 C1469 1.369 . S
C1470 C1479 1.429 . S
C1471 C1469 1.419 . S
C1471 C1472 1.363 . S
C1471 H1474 0.929 . S
C1472 C1471 1.363 . S
C1472 C1478 1.428 . S
H1473 C1469 0.930 . S
H1474 C1471 0.929 . S
S1475 N1476 1.613 . S
S1475 N1477 1.610 . S
N1476 S1475 1.613 . S
N1476 C1479 1.350 . S
N1477 S1475 1.610 . S
N1477 C1478 1.351 . S
C1478 C1472 1.428 . S
C1478 N1477 1.351 . S
C1478 C1479 1.434 . S
C1479 C1470 1.429 . S
C1479 N1476 1.350 . S
C1479 C1478 1.434 . S
C1480 C1481 1.369 . S
C1480 C1482 1.419 . S
C1480 H1484 0.930 . S
C1481 C1480 1.369 . S
C1481 C1490 1.429 . S
C1482 C1480 1.419 . S
C1482 C1483 1.363 . S
C1482 H1485 0.929 . S
C1483 C1482 1.363 . S
C1483 C1489 1.428 . S
H1484 C1480 0.930 . S
H1485 C1482 0.929 . S
S1486 N1487 1.613 . S
S1486 N1488 1.610 . S
N1487 S1486 1.613 . S
N1487 C1490 1.350 . S
N1488 S1486 1.610 . S
N1488 C1489 1.351 . S
C1489 C1483 1.428 . S
C1489 N1488 1.351 . S
C1489 C1490 1.434 . S
C1490 C1481 1.429 . S
C1490 N1487 1.350 . S
C1490 C1489 1.434 . S
C1491 C1492 1.369 . S
C1491 C1493 1.419 . S
C1491 H1495 0.930 . S
C1492 C1491 1.369 . S
C1492 C1501 1.429 . S
C1493 C1491 1.419 . S
C1493 C1494 1.363 . S
C1493 H1496 0.929 1_655 S
C1494 C1493 1.363 . S
C1494 C1500 1.428 . S
H1495 C1491 0.930 . S
H1496 C1493 0.929 1_455 S
S1497 N1498 1.613 . S
S1497 N1499 1.610 . S
N1498 S1497 1.613 . S
N1498 C1501 1.350 . S
N1499 S1497 1.610 . S
N1499 C1500 1.351 . S
C1500 C1494 1.428 . S
C1500 N1499 1.351 . S
C1500 C1501 1.434 . S
C1501 C1492 1.429 . S
C1501 N1498 1.350 . S
C1501 C1500 1.434 . S
C1502 C1503 1.369 . S
C1502 C1504 1.419 . S
C1502 H1506 0.930 . S
C1503 C1502 1.369 . S
C1503 C1512 1.429 . S
C1504 C1502 1.419 . S
C1504 C1505 1.363 . S
C1504 H1507 0.929 . S
C1505 C1504 1.363 . S
C1505 C1511 1.428 . S
H1506 C1502 0.930 . S
H1507 C1504 0.929 . S
S1508 N1509 1.613 . S
S1508 N1510 1.610 . S
N1509 S1508 1.613 . S
N1509 C1512 1.350 . S
N1510 S1508 1.610 . S
N1510 C1511 1.351 . S
C1511 C1505 1.428 . S
C1511 N1510 1.351 . S
C1511 C1512 1.434 . S
C1512 C1503 1.429 . S
C1512 N1509 1.350 . S
C1512 C1511 1.434 . S
C1513 C1514 1.369 . S
C1513 C1515 1.419 . S
C1513 H1517 0.930 . S
C1514 C1513 1.369 . S
C1514 C1523 1.429 . S
C1515 C1513 1.419 . S
C1515 C1516 1.363 . S
C1515 H1518 0.929 . S
C1516 C1515 1.363 . S
C1516 C1522 1.428 . S
H1517 C1513 0.930 . S
H1518 C1515 0.929 . S
S1519 N1520 1.613 . S
S1519 N1521 1.610 . S
N1520 S1519 1.613 . S
N1520 C1523 1.350 1_655 S
N1521 S1519 1.610 . S
N1521 C1522 1.351 1_655 S
C1522 C1516 1.428 . S
C1522 N1521 1.351 1_455 S
C1522 C1523 1.434 . S
C1523 C1514 1.429 . S
C1523 N1520 1.350 1_455 S
C1523 C1522 1.434 . S
C1524 C1525 1.369 . S
C1524 C1526 1.419 . S
C1524 H1528 0.930 . S
C1525 C1524 1.369 . S
C1525 C1534 1.429 . S
C1526 C1524 1.419 . S
C1526 C1527 1.363 . S
C1526 H1529 0.929 . S
C1527 C1526 1.363 . S
C1527 C1533 1.428 . S
H1528 C1524 0.930 . S
H1529 C1526 0.929 . S
S1530 N1531 1.613 . S
S1530 N1532 1.610 . S
N1531 S1530 1.613 . S
N1531 C1534 1.350 . S
N1532 S1530 1.610 . S
N1532 C1533 1.351 . S
C1533 C1527 1.428 . S
C1533 N1532 1.351 . S
C1533 C1534 1.434 . S
C1534 C1525 1.429 . S
C1534 N1531 1.350 . S
C1534 C1533 1.434 . S
C1535 C1536 1.369 . S
C1535 C1537 1.419 . S
C1535 H1539 0.930 . S
C1536 C1535 1.369 . S
C1536 C1545 1.429 . S
C1537 C1535 1.419 . S
C1537 C1538 1.363 . S
C1537 H1540 0.929 . S
C1538 C1537 1.363 . S
C1538 C1544 1.428 . S
H1539 C1535 0.930 . S
H1540 C1537 0.929 . S
S1541 N1542 1.613 . S
S1541 N1543 1.610 . S
N1542 S1541 1.613 . S
N1542 C1545 1.350 . S
N1543 S1541 1.610 . S
N1543 C1544 1.351 . S
C1544 C1538 1.428 . S
C1544 N1543 1.351 . S
C1544 C1545 1.434 . S
C1545 C1536 1.429 . S
C1545 N1542 1.350 . S
C1545 C1544 1.434 . S
C1546 C1547 1.369 . S
C1546 C1548 1.419 . S
C1546 H1550 0.930 . S
C1547 C1546 1.369 . S
C1547 C1556 1.429 . S
C1548 C1546 1.419 . S
C1548 C1549 1.363 . S
C1548 H1551 0.929 . S
C1549 C1548 1.363 . S
C1549 C1555 1.428 . S
H1550 C1546 0.930 . S
H1551 C1548 0.929 . S
S1552 N1553 1.613 . S
S1552 N1554 1.610 . S
N1553 S1552 1.613 . S
N1553 C1556 1.350 . S
N1554 S1552 1.610 . S
N1554 C1555 1.351 . S
C1555 C1549 1.428 . S
C1555 N1554 1.351 . S
C1555 C1556 1.434 . S
C1556 C1547 1.429 . S
C1556 N1553 1.350 . S
C1556 C1555 1.434 . S
C1557 C1558 1.369 . S
C1557 C1559 1.419 . S
C1557 H1561 0.930 . S
C1558 C1557 1.369 . S
C1558 C1567 1.429 . S
C1559 C1557 1.419 . S
C1559 C1560 1.363 . S
C1559 H1562 0.929 . S
C1560 C1559 1.363 . S
C1560 C1566 1.428 . S
H1561 C1557 0.930 . S
H1562 C1559 0.929 . S
S1563 N1564 1.613 . S
S1563 N1565 1.610 . S
N1564 S1563 1.613 . S
N1564 C1567 1.350 . S
N1565 S1563 1.610 . S
N1565 C1566 1.351 . S
C1566 C1560 1.428 . S
C1566 N1565 1.351 . S
C1566 C1567 1.434 . S
C1567 C1558 1.429 . S
C1567 N1564 1.350 . S
C1567 C1566 1.434 . S
C1568 C1569 1.369 . S
C1568 C1570 1.419 . S
C1568 H1572 0.930 . S
C1569 C1568 1.369 . S
C1569 C1578 1.429 . S
C1570 C1568 1.419 . S
C1570 C1571 1.363 . S
C1570 H1573 0.929 . S
C1571 C1570 1.363 . S
C1571 C1577 1.428 . S
H1572 C1568 0.930 . S
H1573 C1570 0.929 . S
S1574 N1575 1.613 . S
S1574 N1576 1.610 . S
N1575 S1574 1.613 . S
N1575 C1578 1.350 . S
N1576 S1574 1.610 . S
N1576 C1577 1.351 . S
C1577 C1571 1.428 . S
C1577 N1576 1.351 . S
C1577 C1578 1.434 . S
C1578 C1569 1.429 . S
C1578 N1575 1.350 . S
C1578 C1577 1.434 . S
C1579 C1580 1.369 . S
C1579 C1581 1.419 . S
C1579 H1583 0.930 . S
C1580 C1579 1.369 . S
C1580 C1589 1.429 . S
C1581 C1579 1.419 . S
C1581 C1582 1.363 . S
C1581 H1584 0.929 . S
C1582 C1581 1.363 . S
C1582 C1588 1.428 . S
H1583 C1579 0.930 . S
H1584 C1581 0.929 . S
S1585 N1586 1.613 . S
S1585 N1587 1.610 . S
N1586 S1585 1.613 . S
N1586 C1589 1.350 . S
N1587 S1585 1.610 . S
N1587 C1588 1.351 . S
C1588 C1582 1.428 . S
C1588 N1587 1.351 . S
C1588 C1589 1.434 . S
C1589 C1580 1.429 . S
C1589 N1586 1.350 . S
C1589 C1588 1.434 . S
C1590 C1591 1.369 . S
C1590 C1592 1.419 . S
C1590 H1594 0.930 . S
C1591 C1590 1.369 . S
C1591 C1600 1.429 . S
C1592 C1590 1.419 . S
C1592 C1593 1.363 . S
C1592 H1595 0.929 . S
C1593 C1592 1.363 . S
C1593 C1599 1.428 . S
H1594 C1590 0.930 . S
H1595 C1592 0.929 . S
S1596 N1597 1.613 . S
S1596 N1598 1.610 . S
N1597 S1596 1.613 . S
N1597 C1600 1.350 . S
N1598 S1596 1.610 . S
N1598 C1599 1.351 . S
C1599 C1593 1.428 . S
C1599 N1598 1.351 . S
C1599 C1600 1.434 . S
C1600 C1591 1.429 . S
C1600 N1597 1.350 . S
C1600 C1599 1.434 . S
C1601 C1602 1.369 . S
C1601 C1603 1.419 . S
C1601 H1605 0.930 . S
C1602 C1601 1.369 . S
C1602 C1611 1.429 . S
C1603 C1601 1.419 . S
C1603 C1604 1.363 . S
C1603 H1606 0.929 . S
C1604 C1603 1.363 . S
C1604 C1610 1.428 . S
H1605 C1601 0.930 . S
H1606 C1603 0.929 . S
S1607 N1608 1.613 . S
S1607 N1609 1.610 . S
N1608 S1607 1.613 . S
N1608 C1611 1.350 . S
N1609 S1607 1.610 . S
N1609 C1610 1.351 . S
C1610 C1604 1.428 . S
C1610 N1609 1.351 . S
C1610 C1611 1.434 . S
C1611 C1602 1.429 . S
C1611 N1608 1.350 . S
C1611 C1610 1.434 . S
C1612 C1613 1.369 . S
C1612 C1614 1.414 1_556 S
C1612 H1616 0.930 1_556 S
C1613 C1612 1.369 . S
C1613 C1622 1.429 . S
C1614 C1612 1.414 1_554 S
C1614 C1615 1.349 1_554 S
C1614 H1617 0.950 . S
C1615 C1614 1.349 1_556 S
C1615 C1621 1.428 . S
H1616 C1612 0.930 1_554 S
H1617 C1614 0.950 . S
S1618 N1619 1.613 . S
S1618 N1620 1.610 . S
N1619 S1618 1.613 . S
N1619 C1622 1.350 . S
N1620 S1618 1.610 . S
N1620 C1621 1.351 . S
C1621 C1615 1.428 . S
C1621 N1620 1.351 . S
C1621 C1622 1.434 . S
C1622 C1613 1.429 . S
C1622 N1619 1.350 . S
C1622 C1621 1.434 . S
C1623 C1624 1.369 . S
C1623 C1625 1.419 . S
C1623 H1627 0.930 . S
C1624 C1623 1.369 . S
C1624 C1633 1.429 . S
C1625 C1623 1.419 . S
C1625 C1626 1.363 . S
C1625 H1628 0.929 . S
C1626 C1625 1.363 . S
C1626 C1632 1.428 . S
H1627 C1623 0.930 . S
H1628 C1625 0.929 . S
S1629 N1630 1.613 . S
S1629 N1631 1.610 . S
N1630 S1629 1.613 . S
N1630 C1633 1.350 . S
N1631 S1629 1.610 . S
N1631 C1632 1.351 . S
C1632 C1626 1.428 . S
C1632 N1631 1.351 . S
C1632 C1633 1.434 . S
C1633 C1624 1.429 . S
C1633 N1630 1.350 . S
C1633 C1632 1.434 . S
C1634 C1635 1.369 . S
C1634 C1636 1.419 . S
C1634 H1638 0.930 . S
C1635 C1634 1.369 . S
C1635 C1644 1.429 . S
C1636 C1634 1.419 . S
C1636 C1637 1.363 . S
C1636 H1639 0.929 . S
C1637 C1636 1.363 . S
C1637 C1643 1.428 . S
H1638 C1634 0.930 . S
H1639 C1636 0.929 . S
S1640 N1641 1.613 . S
S1640 N1642 1.610 . S
N1641 S1640 1.613 . S
N1641 C1644 1.350 . S
N1642 S1640 1.610 . S
N1642 C1643 1.351 . S
C1643 C1637 1.428 . S
C1643 N1642 1.351 . S
C1643 C1644 1.434 . S
C1644 C1635 1.429 . S
C1644 N1641 1.350 . S
C1644 C1643 1.434 . S
C1645 C1646 1.369 . S
C1645 C1647 1.419 . S
C1645 H1649 0.930 1_554 S
C1646 C1645 1.369 . S
C1646 C1655 1.429 . S
C1647 C1645 1.419 . S
C1647 C1648 1.363 . S
C1647 H1650 0.929 1_554 S
C1648 C1647 1.363 . S
C1648 C1654 1.428 . S
H1649 C1645 0.930 1_556 S
H1650 C1647 0.929 1_556 S
S1651 N1652 1.613 . S
S1651 N1653 1.610 . S
N1652 S1651 1.613 . S
N1652 C1655 1.350 . S
N1653 S1651 1.610 . S
N1653 C1654 1.351 . S
C1654 C1648 1.428 . S
C1654 N1653 1.351 . S
C1654 C1655 1.434 . S
C1655 C1646 1.429 . S
C1655 N1652 1.350 . S
C1655 C1654 1.434 . S
C1131 C968 1.489 . S
C1129 C331 1.490 . S
C1142 C981 1.493 . S
C1140 C380 1.465 . S
C1151 C421 1.632 . S
C1153 C1001 1.525 . S
C1164 C1015 1.395 . S
C1162 C260 1.442 . S
C1175 C1027 1.510 . S
C1173 C620 1.482 . S
C1186 C1041 1.441 . S
C1184 C740 1.431 . S
C1195 C680 1.479 . S
C1197 C1051 1.483 . S
C1208 C1066 1.515 . S
C1206 C571 1.505 . S
C1217 C691 1.494 . S
C1219 C1080 1.488 . S
C1230 C1099 1.395 . S
C1228 C541 1.425 . S
C1239 C601 1.459 . S
C1241 C1079 1.483 . S
C1252 C1097 1.442 . S
C1250 C721 1.431 . S
C1261 C451 1.633 . S
C1263 C1113 1.524 . S
C1272 C241 1.482 . S
C1274 C1107 1.493 . S
C1283 C320 1.485 . S
C1285 C1111 1.510 . S
C1294 C391 1.499 . S
C1296 C1108 1.512 . S
C1305 C211 1.491 . S
C1307 C1010 1.490 . S
C1316 C841 1.458 . S
C1318 C1009 1.483 . S
C1329 C973 1.399 . S
C1327 C901 1.429 . S
C1340 C987 1.516 . S
C1338 C500 1.636 . S
C1349 C271 1.540 . S
C1351 C1024 1.511 . S
C1362 C1069 1.510 . S
C1360 C661 1.497 . S
C1373 C1023 1.492 . S
C1371 C560 1.461 . S
C1384 C1055 1.441 . S
C1382 C751 1.431 . S
C1395 C1052 1.492 . S
C1393 C871 1.495 . S
C1404 C920 1.467 . S
C1406 C1065 1.492 . S
C1415 C481 1.633 . S
C1417 C1029 1.517 . S
C1428 C1043 1.402 . S
C1426 C800 1.441 . S
C1437 C200 1.483 . S
C1439 C999 1.509 . S
C1450 C1013 1.443 . S
C1448 C20 1.426 . S
C1461 C967 1.483 . S
C1459 C80 1.478 . S
C1472 C982 1.516 . S
C1470 C151 1.502 . S
C1481 C91 1.489 . S
C1483 C1094 1.493 . S
C1492 C121 1.432 . S
C1494 C1085 1.402 . S
C1503 C181 1.465 . S
C1505 C1093 1.480 . S
C1514 C1 1.426 . S
C1516 C1083 1.443 . S
C1527 C1127 1.520 . S
C1525 C511 1.632 . S
C1538 C1121 1.493 . S
C1536 C781 1.482 . S
C1549 C1125 1.510 . S
C1547 C860 1.485 . S
C1558 C931 1.506 . S
C1560 C1122 1.512 . S
C1569 C631 1.493 . S
C1571 C1038 1.491 . S
C1582 C1037 1.483 . S
C1580 C301 1.459 . S
C1593 C1057 1.398 . S
C1591 C361 1.429 . S
C1604 C1071 1.520 . S
C1602 C440 1.632 . S
C1613 C811 1.541 . S
C1615 C996 1.512 . S
C1626 C985 1.508 . S
C1624 C61 1.497 . S
C1635 C140 1.467 . S
C1637 C995 1.491 . S
C1648 C971 1.441 . S
C1646 C31 1.431 . S
