# Generated by pormake.
# Topology llj, (12,3)-cn, num edge types: 1
# Building blocks:
#     Node 0, Type 0, BuildingBlock: QEWDON_clean_sbu_0, # of connection points: 12
#     Node 1, Type 0, BuildingBlock: QEWDON_clean_sbu_0, # of connection points: 12
#     Node 2, Type 1, BuildingBlock: BELTOD_clean_linker_0, # of connection points: 3
#     Node 3, Type 1, BuildingBlock: BELTOD_clean_linker_0, # of connection points: 3
#     Node 4, Type 1, BuildingBlock: BELTOD_clean_linker_0, # of connection points: 3
#     Node 5, Type 1, BuildingBlock: BELTOD_clean_linker_0, # of connection points: 3
#     Node 6, Type 1, BuildingBlock: BELTOD_clean_linker_0, # of connection points: 3
#     Node 7, Type 1, BuildingBlock: BELTOD_clean_linker_0, # of connection points: 3
#     Node 8, Type 1, BuildingBlock: BELTOD_clean_linker_0, # of connection points: 3
#     Node 9, Type 1, BuildingBlock: BELTOD_clean_linker_0, # of connection points: 3
#     Edge 10, Type (0, 1), BuildingBlock: ZUJKAS_clean_linker_0, # of connection points: 2
#     Edge 11, Type (0, 1), BuildingBlock: ZUJKAS_clean_linker_0, # of connection points: 2
#     Edge 12, Type (0, 1), BuildingBlock: ZUJKAS_clean_linker_0, # of connection points: 2
#     Edge 13, Type (0, 1), BuildingBlock: ZUJKAS_clean_linker_0, # of connection points: 2
#     Edge 14, Type (0, 1), BuildingBlock: ZUJKAS_clean_linker_0, # of connection points: 2
#     Edge 15, Type (0, 1), BuildingBlock: ZUJKAS_clean_linker_0, # of connection points: 2
#     Edge 16, Type (0, 1), BuildingBlock: ZUJKAS_clean_linker_0, # of connection points: 2
#     Edge 17, Type (0, 1), BuildingBlock: ZUJKAS_clean_linker_0, # of connection points: 2
#     Edge 18, Type (0, 1), BuildingBlock: ZUJKAS_clean_linker_0, # of connection points: 2
#     Edge 19, Type (0, 1), BuildingBlock: ZUJKAS_clean_linker_0, # of connection points: 2
#     Edge 20, Type (0, 1), BuildingBlock: ZUJKAS_clean_linker_0, # of connection points: 2
#     Edge 21, Type (0, 1), BuildingBlock: ZUJKAS_clean_linker_0, # of connection points: 2
#     Edge 22, Type (0, 1), BuildingBlock: ZUJKAS_clean_linker_0, # of connection points: 2
#     Edge 23, Type (0, 1), BuildingBlock: ZUJKAS_clean_linker_0, # of connection points: 2
#     Edge 24, Type (0, 1), BuildingBlock: ZUJKAS_clean_linker_0, # of connection points: 2
#     Edge 25, Type (0, 1), BuildingBlock: ZUJKAS_clean_linker_0, # of connection points: 2
#     Edge 26, Type (0, 1), BuildingBlock: ZUJKAS_clean_linker_0, # of connection points: 2
#     Edge 27, Type (0, 1), BuildingBlock: ZUJKAS_clean_linker_0, # of connection points: 2
#     Edge 28, Type (0, 1), BuildingBlock: ZUJKAS_clean_linker_0, # of connection points: 2
#     Edge 29, Type (0, 1), BuildingBlock: ZUJKAS_clean_linker_0, # of connection points: 2
#     Edge 30, Type (0, 1), BuildingBlock: ZUJKAS_clean_linker_0, # of connection points: 2
#     Edge 31, Type (0, 1), BuildingBlock: ZUJKAS_clean_linker_0, # of connection points: 2
#     Edge 32, Type (0, 1), BuildingBlock: ZUJKAS_clean_linker_0, # of connection points: 2
#     Edge 33, Type (0, 1), BuildingBlock: ZUJKAS_clean_linker_0, # of connection points: 2
# Relax obj value: 0.009
# Max RMSD: 0.042
# Mean RMSD: 0.040
data_MOF--net-llj--node1-QEWDON_clean_sbu_0--node2-BELTOD_clean_linker_0--edge1-ZUJKAS_clean_linker_0
_symmetry_space_group_name_H-M    P1
_symmetry_Int_Tables_number       1
_symmetry_cell_setting            triclinic
loop_
_symmetry_equiv_pos_as_xyz
'x, y, z'
_cell_length_a     52.22564
_cell_length_b     52.205531
_cell_length_c     36.200008
_cell_angle_alpha  89.41833
_cell_angle_beta   90.06335
_cell_angle_gamma 89.865711
loop_
_atom_site_label
_atom_site_type_symbol
_atom_site_fract_x
_atom_site_fract_y
_atom_site_fract_z
_atom_type_partial_charge
Zn0 Zn 0.93799 0.04343 0.9906 0.0
Zn1 Zn 0.94578 0.04316 0.07681 0.0
O2 O 0.96452 0.03579 0.03009 0.0
H3 H 0.97868 0.02401 0.02739 0.0
C4 C 0.91468 0.99268 0.92313 0.0
O5 O 0.90159 0.00131 0.95137 0.0
Zn6 Zn 0.01956 0.9657 0.07244 0.0
Zn7 Zn 0.02395 0.95888 0.98708 0.0
O8 O 0.99825 0.96668 0.02702 0.0
H9 H 0.98278 0.97655 0.02337 0.0
Zn10 Zn 0.92848 0.95752 0.98098 0.0
O11 O 0.92436 0.98281 0.0228 0.0
Zn12 Zn 0.9244 0.96036 0.06765 0.0
H13 H 0.91771 5e-05 0.02079 0.0
Zn14 Zn 0.03305 0.064 0.9664 0.0
O15 O 0.03268 0.03604 0.00598 0.0
H16 H 0.0296 0.01796 0.00263 0.0
Zn17 Zn 0.03598 0.05453 0.05352 0.0
C18 C 0.03777 0.03105 0.90138 0.0
O19 O 0.02115 0.01697 0.91968 0.0
O20 O 0.91075 0.06932 0.00809 0.0
O21 O 0.91933 0.07142 0.06824 0.0
O22 O 0.05482 0.93761 0.00599 0.0
O23 O 0.04999 0.94136 0.06674 0.0
O24 O 0.91159 0.92265 0.99286 0.0
O25 O 0.90849 0.92578 0.05404 0.0
C26 C 0.9943 0.05681 0.10837 0.0
O27 O 0.04991 0.09736 0.98464 0.0
O28 O 0.05248 0.08914 0.04491 0.0
O29 O 0.00792 0.94991 0.93672 0.0
C30 C 0.9067 0.07888 0.03985 0.0
O31 O 0.9523 0.04854 0.93767 0.0
C32 C 0.97302 0.95184 0.1134 0.0
O33 O 0.92822 0.97263 0.92752 0.0
C34 C 0.06195 0.93237 0.03893 0.0
O35 O 0.04513 0.05212 0.91501 0.0
C36 C 0.91077 0.00188 0.11069 0.0
O37 O 0.97115 0.05247 0.117 0.0
O38 O 0.00056 0.05653 0.07452 0.0
C39 C 0.90476 0.91347 0.02414 0.0
O40 O 0.99725 0.95401 0.11509 0.0
O41 O 0.96171 0.95765 0.08326 0.0
C42 C 0.05232 0.01066 0.09397 0.0
O43 O 0.90421 0.97857 0.10764 0.0
O44 O 0.92842 0.00992 0.08942 0.0
C45 C 0.05675 0.10371 0.0171 0.0
O46 O 0.05818 0.03394 0.08822 0.0
O47 O 0.03271 0.00176 0.07769 0.0
C48 C 0.98682 0.93786 0.93798 0.0
O49 O 0.97705 0.93182 0.97034 0.0
C50 C 0.96923 0.06577 0.93365 0.0
O51 O 0.97627 0.07901 0.96262 0.0
Zn52 Zn 0.43451 0.56043 0.48566 0.0
Zn53 Zn 0.43895 0.5498 0.57327 0.0
O54 O 0.4571 0.54423 0.52524 0.0
H55 H 0.46957 0.53092 0.52073 0.0
C56 C 0.43947 0.48281 0.42069 0.0
O57 O 0.45596 0.49351 0.44319 0.0
Zn58 Zn 0.5193 0.4639 0.5752 0.0
Zn59 Zn 0.52228 0.45989 0.48899 0.0
O60 O 0.49713 0.46617 0.53043 0.0
H61 H 0.48192 0.47664 0.52804 0.0
Zn62 Zn 0.42842 0.45323 0.48758 0.0
O63 O 0.425 0.48132 0.52555 0.0
Zn64 Zn 0.42429 0.4615 0.57306 0.0
H65 H 0.41751 0.49795 0.52065 0.0
Zn66 Zn 0.53735 0.55192 0.46928 0.0
O67 O 0.53024 0.52927 0.51362 0.0
H68 H 0.52237 0.51256 0.51275 0.0
Zn69 Zn 0.53197 0.55242 0.5569 0.0
C70 C 0.54119 0.51935 0.40314 0.0
O71 O 0.51654 0.51595 0.40838 0.0
O72 O 0.40608 0.58337 0.50686 0.0
O73 O 0.41077 0.57686 0.5674 0.0
O74 O 0.55394 0.43899 0.50535 0.0
O75 O 0.55008 0.44033 0.56647 0.0
O76 O 0.41065 0.41976 0.50406 0.0
O77 O 0.40707 0.42675 0.56437 0.0
C78 C 0.48818 0.56136 0.60586 0.0
O79 O 0.55308 0.58682 0.4827 0.0
O80 O 0.54993 0.58573 0.54389 0.0
O81 O 0.50646 0.45154 0.43823 0.0
C82 C 0.39961 0.58791 0.54012 0.0
O83 O 0.45093 0.57046 0.43508 0.0
C84 C 0.47358 0.4494 0.61771 0.0
O85 O 0.42553 0.46464 0.43271 0.0
C86 C 0.56173 0.43268 0.53757 0.0
O87 O 0.55359 0.53378 0.42477 0.0
C88 C 0.40855 0.50629 0.61099 0.0
O89 O 0.46443 0.55998 0.61286 0.0
O90 O 0.49573 0.55792 0.57299 0.0
C91 C 0.40321 0.41275 0.53614 0.0
O92 O 0.49792 0.45058 0.61778 0.0
O93 O 0.46152 0.45764 0.58932 0.0
C94 C 0.54821 0.51127 0.60357 0.0
O95 O 0.40444 0.4823 0.61064 0.0
O96 O 0.42434 0.51531 0.58751 0.0
C97 C 0.5569 0.59692 0.51408 0.0
O98 O 0.5518 0.53497 0.59751 0.0
O99 O 0.5318 0.49987 0.58364 0.0
C100 C 0.48682 0.43723 0.43835 0.0
O101 O 0.47778 0.42892 0.47013 0.0
C102 C 0.47451 0.57644 0.43455 0.0
O103 O 0.48742 0.57607 0.46572 0.0
P104 P 0.38074 0.24781 0.02762 0.0
H105 H 0.39886 0.2392 0.10288 0.0
H106 H 0.41029 0.26837 0.15275 0.0
H107 H 0.39233 0.33308 0.08186 0.0
H108 H 0.38125 0.30388 0.03216 0.0
H109 H 0.35371 0.20076 0.00984 0.0
H110 H 0.3087 0.18837 0.0143 0.0
H111 H 0.29078 0.26157 0.06275 0.0
H112 H 0.33577 0.27392 0.05781 0.0
H113 H 0.42583 0.2605 0.98431 0.0
H114 H 0.34409 0.27094 0.97506 0.0
O115 O 0.39981 0.22213 0.02927 0.0
H116 H 0.43196 0.28593 0.92792 0.0
H117 H 0.35001 0.29585 0.91847 0.0
C118 C 0.38982 0.26939 0.06365 0.0
C119 C 0.39761 0.25967 0.09805 0.0
C120 C 0.40391 0.27635 0.12658 0.0
C121 C 0.40232 0.30303 0.12115 0.0
C122 C 0.39418 0.31265 0.08667 0.0
C123 C 0.38785 0.29595 0.05823 0.0
C124 C 0.34812 0.238 0.03421 0.0
C125 C 0.34015 0.21397 0.02193 0.0
C126 C 0.31444 0.20692 0.02455 0.0
C127 C 0.29624 0.22396 0.0391 0.0
C128 C 0.30434 0.24809 0.05131 0.0
C129 C 0.33009 0.25506 0.04883 0.0
C130 C 0.38455 0.26352 0.98358 0.0
C131 C 0.40919 0.26781 0.96971 0.0
C132 C 0.41265 0.28231 0.93746 0.0
C133 C 0.39145 0.29289 0.91872 0.0
C134 C 0.36673 0.28817 0.93247 0.0
C135 C 0.36332 0.27369 0.96471 0.0
P136 P 0.74754 0.40299 0.01094 0.0
H137 H 0.75553 0.40826 0.08996 0.0
H138 H 0.72681 0.41843 0.14114 0.0
H139 H 0.66344 0.42407 0.06448 0.0
H140 H 0.69197 0.41318 0.01395 0.0
H141 H 0.79447 0.37812 0.98688 0.0
H142 H 0.81104 0.33458 0.99448 0.0
H143 H 0.74178 0.31284 0.05194 0.0
H144 H 0.72513 0.35637 0.04349 0.0
H145 H 0.74191 0.44872 0.96522 0.0
H146 H 0.7175 0.36993 0.96212 0.0
O147 O 0.77264 0.42258 0.01397 0.0
H148 H 0.71684 0.45812 0.90974 0.0
H149 H 0.6919 0.37927 0.90692 0.0
C150 C 0.72601 0.41029 0.04815 0.0
C151 C 0.73543 0.41168 0.08429 0.0
C152 C 0.71901 0.4176 0.11344 0.0
C153 C 0.69282 0.42222 0.10689 0.0
C154 C 0.68342 0.42037 0.07059 0.0
C155 C 0.69985 0.41436 0.04152 0.0
C156 C 0.75886 0.37055 0.0153 0.0
C157 C 0.78288 0.36397 0.00112 0.0
C158 C 0.79237 0.33911 0.00567 0.0
C159 C 0.77789 0.32032 0.02432 0.0
C160 C 0.75339 0.32684 0.03743 0.0
C161 C 0.74393 0.35176 0.03284 0.0
C162 C 0.73198 0.40854 0.96726 0.0
C163 C 0.73147 0.43334 0.9522 0.0
C164 C 0.71688 0.43875 0.92074 0.0
C165 C 0.70227 0.41946 0.90399 0.0
C166 C 0.7032 0.39446 0.91886 0.0
C167 C 0.71784 0.38909 0.95039 0.0
P168 P 0.69448 0.61663 0.02716 0.0
H169 H 0.70536 0.58273 0.96487 0.0
H170 H 0.68196 0.57379 0.90789 0.0
H171 H 0.62678 0.63244 0.93537 0.0
H172 H 0.64982 0.6406 0.99274 0.0
H173 H 0.73858 0.63089 0.07154 0.0
H174 H 0.76605 0.66876 0.0723 0.0
H175 H 0.72079 0.70282 0.98462 0.0
H176 H 0.69364 0.66484 0.98376 0.0
H177 H 0.65 0.58473 0.04067 0.0
H178 H 0.68511 0.65057 0.09075 0.0
O179 O 0.71294 0.59123 0.03642 0.0
H180 H 0.61687 0.58463 0.08823 0.0
H181 H 0.65197 0.65058 0.13844 0.0
C182 C 0.67913 0.61211 0.98316 0.0
C183 C 0.68829 0.59372 0.9585 0.0
C184 C 0.67496 0.58873 0.92582 0.0
C185 C 0.6523 0.60218 0.91723 0.0
C186 C 0.64381 0.62131 0.94149 0.0
C187 C 0.65707 0.62616 0.97416 0.0
C188 C 0.71435 0.64482 0.02719 0.0
C189 C 0.73466 0.64647 0.05237 0.0
C190 C 0.75022 0.66821 0.05297 0.0
C191 C 0.74569 0.68876 0.02838 0.0
C192 C 0.72504 0.68715 0.00351 0.0
C193 C 0.70942 0.66543 0.00307 0.0
C194 C 0.66988 0.61778 0.06192 0.0
C195 C 0.65043 0.59933 0.06171 0.0
C196 C 0.63142 0.59937 0.08879 0.0
C197 C 0.63171 0.6177 0.11695 0.0
C198 C 0.65131 0.63616 0.11716 0.0
C199 C 0.67024 0.63621 0.08983 0.0
P200 P 0.33967 0.70076 0.02904 0.0
H201 H 0.34559 0.71765 0.95248 0.0
H202 H 0.34424 0.69495 0.89374 0.0
H203 H 0.32523 0.62489 0.95212 0.0
H204 H 0.32577 0.64793 0.01041 0.0
H205 H 0.33023 0.74276 0.07948 0.0
H206 H 0.29318 0.77056 0.08956 0.0
H207 H 0.24908 0.72538 0.01307 0.0
H208 H 0.28631 0.69792 0.00281 0.0
H209 H 0.38525 0.66988 0.03892 0.0
H210 H 0.31379 0.68103 0.09615 0.0
O211 O 0.36363 0.72166 0.0247 0.0
H212 H 0.39815 0.63782 0.08498 0.0
H213 H 0.32653 0.64881 0.14239 0.0
C214 C 0.33645 0.68432 0.98579 0.0
C215 C 0.34099 0.69744 0.95252 0.0
C216 C 0.34031 0.6844 0.919 0.0
C217 C 0.33499 0.65798 0.9182 0.0
C218 C 0.32926 0.64522 0.95161 0.0
C219 C 0.32983 0.65833 0.98508 0.0
C220 C 0.31115 0.71861 0.03991 0.0
C221 C 0.31249 0.73872 0.06518 0.0
C222 C 0.29123 0.7545 0.07107 0.0
C223 C 0.26823 0.75038 0.05179 0.0
C224 C 0.26665 0.72938 0.0278 0.0
C225 C 0.28792 0.71358 0.02201 0.0
C226 C 0.34874 0.67801 0.06439 0.0
C227 C 0.37239 0.66548 0.06156 0.0
C228 C 0.37965 0.64701 0.08772 0.0
C229 C 0.36335 0.64075 0.11731 0.0
C230 C 0.33961 0.65343 0.12012 0.0
C231 C 0.33229 0.67182 0.0937 0.0
P232 P 0.87391 0.75388 0.52521 0.0
H233 H 0.88799 0.74373 0.60189 0.0
H234 H 0.8982 0.77189 0.65355 0.0
H235 H 0.88465 0.838 0.58335 0.0
H236 H 0.87468 0.80987 0.532 0.0
H237 H 0.84838 0.70792 0.49951 0.0
H238 H 0.80362 0.69437 0.49997 0.0
H239 H 0.78273 0.76384 0.5566 0.0
H240 H 0.82751 0.77741 0.55556 0.0
H241 H 0.92017 0.76445 0.4832 0.0
H242 H 0.83958 0.78178 0.4745 0.0
O243 O 0.89328 0.72844 0.52725 0.0
H244 H 0.92856 0.7912 0.42872 0.0
H245 H 0.84783 0.80888 0.42062 0.0
C246 C 0.88123 0.77469 0.56296 0.0
C247 C 0.88734 0.76429 0.59767 0.0
C248 C 0.89294 0.78039 0.62718 0.0
C249 C 0.89239 0.80715 0.62237 0.0
C250 C 0.88567 0.81747 0.58769 0.0
C251 C 0.87998 0.80136 0.5583 0.0
C252 C 0.84128 0.74335 0.52821 0.0
C253 C 0.8342 0.72005 0.51243 0.0
C254 C 0.80863 0.71233 0.51278 0.0
C255 C 0.78969 0.72797 0.52859 0.0
C256 C 0.79688 0.75144 0.54412 0.0
C257 C 0.8225 0.75909 0.54386 0.0
C258 C 0.87924 0.77071 0.4824 0.0
C259 C 0.90425 0.7737 0.46921 0.0
C260 C 0.90903 0.78921 0.43835 0.0
C261 C 0.88885 0.80221 0.42041 0.0
C262 C 0.86373 0.79884 0.43348 0.0
C263 C 0.85899 0.78331 0.46433 0.0
P264 P 0.24172 0.90595 0.50943 0.0
H265 H 0.24949 0.93944 0.57279 0.0
H266 H 0.2207 0.95502 0.62074 0.0
H267 H 0.15794 0.91431 0.57038 0.0
H268 H 0.187 0.89844 0.52286 0.0
H269 H 0.27094 0.86915 0.46713 0.0
H270 H 0.28384 0.82483 0.47903 0.0
H271 H 0.24143 0.82525 0.58154 0.0
H272 H 0.22935 0.86974 0.57 0.0
H273 H 0.2448 0.94759 0.45541 0.0
H274 H 0.20607 0.87507 0.46604 0.0
O275 O 0.26917 0.92221 0.51074 0.0
H276 H 0.22314 0.95565 0.39665 0.0
H277 H 0.1835 0.88335 0.40793 0.0
C278 C 0.22028 0.91813 0.54395 0.0
C279 C 0.22951 0.93403 0.57189 0.0
C280 C 0.213 0.94299 0.59923 0.0
C281 C 0.18699 0.93603 0.59923 0.0
C282 C 0.17789 0.91989 0.57127 0.0
C283 C 0.19443 0.911 0.5439 0.0
C284 C 0.24906 0.87268 0.51746 0.0
C285 C 0.26427 0.85959 0.49201 0.0
C286 C 0.2715 0.83419 0.49878 0.0
C287 C 0.26362 0.82141 0.53124 0.0
C288 C 0.24807 0.83458 0.55649 0.0
C289 C 0.24095 0.86003 0.54973 0.0
C290 C 0.22729 0.9106 0.46474 0.0
C291 C 0.23176 0.9333 0.44491 0.0
C292 C 0.21915 0.93798 0.41146 0.0
C293 C 0.20147 0.92019 0.39754 0.0
C294 C 0.19726 0.89729 0.41747 0.0
C295 C 0.21006 0.89257 0.45081 0.0
P296 P 0.19258 0.11692 0.53462 0.0
H297 H 0.20587 0.08602 0.47008 0.0
H298 H 0.18427 0.07916 0.4111 0.0
H299 H 0.1276 0.13606 0.4399 0.0
H300 H 0.14881 0.14207 0.4993 0.0
H301 H 0.23651 0.12944 0.58069 0.0
H302 H 0.26325 0.16765 0.58589 0.0
H303 H 0.21629 0.20618 0.50411 0.0
H304 H 0.18985 0.16795 0.49882 0.0
H305 H 0.145 0.08794 0.53701 0.0
H306 H 0.18465 0.14138 0.60685 0.0
O307 O 0.2116 0.09168 0.54222 0.0
H308 H 0.11087 0.08417 0.58273 0.0
H309 H 0.15061 0.13735 0.65302 0.0
C310 C 0.17879 0.11438 0.48915 0.0
C311 C 0.1889 0.09713 0.46356 0.0
C312 C 0.17659 0.09333 0.42973 0.0
C313 C 0.15402 0.10686 0.42088 0.0
C314 C 0.14462 0.12492 0.44611 0.0
C315 C 0.15686 0.12858 0.47994 0.0
C316 C 0.21148 0.14561 0.53886 0.0
C317 C 0.23201 0.14611 0.56383 0.0
C318 C 0.24716 0.16803 0.56699 0.0
C319 C 0.24202 0.18989 0.54519 0.0
C320 C 0.22102 0.1895 0.52081 0.0
C321 C 0.20581 0.16761 0.51785 0.0
C322 C 0.16708 0.11545 0.56804 0.0
C323 C 0.1462 0.09918 0.56193 0.0
C324 C 0.12667 0.09702 0.58806 0.0
C325 C 0.12798 0.11064 0.62125 0.0
C326 C 0.14912 0.12665 0.62762 0.0
C327 C 0.16853 0.12905 0.60118 0.0
P328 P 0.84671 0.20936 0.5151 0.0
H329 H 0.8548 0.22356 0.43778 0.0
H330 H 0.85245 0.19933 0.38041 0.0
H331 H 0.82813 0.13243 0.44228 0.0
H332 H 0.82979 0.15704 0.49924 0.0
H333 H 0.83735 0.25372 0.56128 0.0
H334 H 0.79947 0.28029 0.57189 0.0
H335 H 0.75485 0.23018 0.50282 0.0
H336 H 0.79284 0.20383 0.49216 0.0
H337 H 0.88804 0.17238 0.52075 0.0
H338 H 0.82627 0.19856 0.5898 0.0
O339 O 0.87051 0.23031 0.50946 0.0
H340 H 0.90152 0.14231 0.56911 0.0
H341 H 0.84014 0.16926 0.63889 0.0
C342 C 0.84315 0.19188 0.47278 0.0
C343 C 0.84887 0.2037 0.4389 0.0
C344 C 0.8476 0.18979 0.40616 0.0
C345 C 0.84044 0.16381 0.40675 0.0
C346 C 0.83359 0.15241 0.44072 0.0
C347 C 0.8348 0.16638 0.47341 0.0
C348 C 0.81802 0.22712 0.52541 0.0
C349 C 0.81936 0.24839 0.54862 0.0
C350 C 0.79765 0.26346 0.55485 0.0
C351 C 0.77418 0.25748 0.53793 0.0
C352 C 0.77274 0.23554 0.51575 0.0
C353 C 0.79445 0.22041 0.50971 0.0
C354 C 0.85609 0.18756 0.55157 0.0
C355 C 0.87746 0.17171 0.54646 0.0
C356 C 0.88526 0.15467 0.57428 0.0
C357 C 0.87196 0.15332 0.60801 0.0
C358 C 0.85061 0.16947 0.61308 0.0
C359 C 0.84273 0.18641 0.58508 0.0
H360 H 0.07166 0.13876 0.96449 0.0
H361 H 0.10776 0.16829 0.96894 0.0
H362 H 0.11695 0.14841 0.08408 0.0
H363 H 0.08063 0.1193 0.08028 0.0
H364 H 0.12943 0.20041 0.06677 0.0
H365 H 0.17696 0.13017 0.97448 0.0
H366 H 0.1483 0.14471 0.95641 0.0
H367 H 0.14652 0.12386 0.99613 0.0
C368 C 0.08086 0.14119 0.99105 0.0
C369 C 0.07366 0.12616 0.0218 0.0
C370 C 0.10153 0.15804 0.99349 0.0
C371 C 0.11537 0.15994 0.02657 0.0
C372 C 0.10661 0.14702 0.05822 0.0
H373 H 0.27585 0.17826 0.0612 0.0
H374 H 0.23093 0.16528 0.05922 0.0
C375 C 0.08585 0.13031 0.05592 0.0
C376 C 0.14087 0.17218 0.02709 0.0
H377 H 0.20176 0.16461 0.99487 0.0
C378 C 0.14524 0.19282 0.05082 0.0
C379 C 0.1615 0.16182 0.00672 0.0
C380 C 0.15827 0.13879 0.98221 0.0
C381 C 0.16985 0.20327 0.05493 0.0
C382 C 0.19039 0.19288 0.0345 0.0
C383 C 0.1859 0.17252 0.01041 0.0
C384 C 0.21706 0.20185 0.0387 0.0
C385 C 0.17388 0.22468 0.08197 0.0
C386 C 0.22406 0.22676 0.02803 0.0
C387 C 0.24975 0.2342 0.02906 0.0
C388 C 0.26882 0.21676 0.04049 0.0
C389 C 0.26163 0.192 0.05185 0.0
C390 C 0.23599 0.18462 0.05092 0.0
H391 H 0.15735 0.22686 0.10098 0.0
H392 H 0.19146 0.22129 0.09862 0.0
H393 H 0.17635 0.24297 0.06651 0.0
H394 H 0.2098 0.24016 0.01781 0.0
H395 H 0.25478 0.25331 0.01969 0.0
H396 H 0.89838 0.11002 0.09935 0.0
H397 H 0.87207 0.14881 0.10093 0.0
H398 H 0.84655 0.13471 0.9896 0.0
H399 H 0.87317 0.09635 0.98742 0.0
H400 H 0.8661 0.18187 0.99675 0.0
H401 H 0.79609 0.16375 0.10906 0.0
H402 H 0.82879 0.15905 0.12294 0.0
H403 H 0.81494 0.13849 0.08878 0.0
C404 C 0.88685 0.11495 0.07541 0.0
C405 C 0.88815 0.10026 0.04307 0.0
C406 C 0.87165 0.13705 0.07647 0.0
C407 C 0.85724 0.14461 0.04543 0.0
C408 C 0.85755 0.12925 0.01385 0.0
H409 H 0.75317 0.27423 0.01783 0.0
H410 H 0.7716 0.23122 0.02495 0.0
C411 C 0.87283 0.10733 0.01265 0.0
C412 C 0.84408 0.1698 0.0441 0.0
H413 H 0.79911 0.20691 0.08656 0.0
C414 C 0.85133 0.18724 0.01627 0.0
C415 C 0.82475 0.17676 0.06949 0.0
C416 C 0.81548 0.15845 0.09905 0.0
C417 C 0.84004 0.21154 0.01334 0.0
C418 C 0.82131 0.21881 0.03936 0.0
C419 C 0.81367 0.2013 0.06688 0.0
C420 C 0.80962 0.24466 0.03819 0.0
C421 C 0.84812 0.22917 0.98217 0.0
C422 C 0.82481 0.26635 0.04407 0.0
C423 C 0.81438 0.29087 0.04008 0.0
C424 C 0.78851 0.29417 0.03024 0.0
C425 C 0.77312 0.27234 0.02559 0.0
C426 C 0.7836 0.24778 0.02959 0.0
H427 H 0.85795 0.2186 0.95976 0.0
H428 H 0.83134 0.23942 0.97023 0.0
H429 H 0.86161 0.24368 0.99297 0.0
H430 H 0.84485 0.2643 0.0513 0.0
H431 H 0.82661 0.30726 0.04467 0.0
H432 H 0.8874 0.88747 0.08537 0.0
H433 H 0.86187 0.84827 0.08707 0.0
H434 H 0.8653 0.84403 0.9683 0.0
H435 H 0.89067 0.88328 0.96616 0.0
H436 H 0.81532 0.8401 0.99832 0.0
H437 H 0.88333 0.7734 0.06821 0.0
H438 H 0.87815 0.80331 0.09123 0.0
H439 H 0.89346 0.8031 0.04683 0.0
C440 C 0.88297 0.87809 0.0596 0.0
C441 C 0.89105 0.88862 0.0256 0.0
C442 C 0.86848 0.85559 0.06067 0.0
C443 C 0.86189 0.84315 0.02783 0.0
C444 C 0.87026 0.85333 0.99395 0.0
H445 H 0.76517 0.71476 0.96881 0.0
H446 H 0.7931 0.7523 0.96896 0.0
C447 C 0.8848 0.87577 0.99282 0.0
C448 C 0.84503 0.82035 0.02856 0.0
H449 H 0.84103 0.75837 0.05901 0.0
C450 C 0.82096 0.82218 0.01144 0.0
C451 C 0.85239 0.79711 0.04595 0.0
C452 C 0.87831 0.79391 0.06387 0.0
C453 C 0.80389 0.80146 0.01159 0.0
C454 C 0.81135 0.77808 0.02861 0.0
C455 C 0.83538 0.7763 0.04593 0.0
C456 C 0.79453 0.75521 0.02853 0.0
C457 C 0.77782 0.805 0.99422 0.0
C458 C 0.7866 0.74395 0.06196 0.0
C459 C 0.77072 0.72241 0.06196 0.0
C460 C 0.76253 0.71168 0.02848 0.0
C461 C 0.77074 0.72286 0.99504 0.0
C462 C 0.78669 0.74432 0.99508 0.0
H463 H 0.77248 0.82557 0.99192 0.0
H464 H 0.77805 0.797 0.96594 0.0
H465 H 0.76284 0.79485 0.01043 0.0
H466 H 0.79248 0.75201 0.08809 0.0
H467 H 0.76458 0.71437 0.08818 0.0
H468 H 0.08879 0.90622 0.98668 0.0
H469 H 0.12454 0.87677 0.99596 0.0
H470 H 0.12193 0.88993 0.1133 0.0
H471 H 0.08575 0.91937 0.10439 0.0
H472 H 0.17245 0.88587 0.02691 0.0
H473 H 0.11928 0.81153 0.10681 0.0
H474 H 0.10321 0.83674 0.0813 0.0
H475 H 0.11813 0.84346 0.12484 0.0
C476 C 0.09574 0.90292 0.01453 0.0
C477 C 0.08421 0.91505 0.04482 0.0
C478 C 0.11623 0.88606 0.01976 0.0
C479 C 0.12567 0.88086 0.05534 0.0
C480 C 0.1146 0.89326 0.08567 0.0
H481 H 0.24962 0.77346 0.11426 0.0
H482 H 0.2158 0.80605 0.11804 0.0
C483 C 0.09399 0.91017 0.08049 0.0
C484 C 0.14725 0.86257 0.06009 0.0
H485 H 0.16292 0.80348 0.09498 0.0
C486 C 0.17041 0.86793 0.04199 0.0
C487 C 0.1446 0.83923 0.07996 0.0
C488 C 0.11994 0.83218 0.09916 0.0
C489 C 0.19081 0.85039 0.04257 0.0
C490 C 0.18784 0.82667 0.06127 0.0
C491 C 0.16506 0.82165 0.08054 0.0
C492 C 0.20771 0.80639 0.05943 0.0
C493 C 0.21535 0.85733 0.02296 0.0
C494 C 0.21393 0.79542 0.02537 0.0
C495 C 0.23318 0.77689 0.02311 0.0
C496 C 0.24658 0.76885 0.05491 0.0
C497 C 0.23987 0.77945 0.08919 0.0
C498 C 0.2205 0.79797 0.09144 0.0
H499 H 0.21714 0.87837 0.01885 0.0
H500 H 0.23229 0.85028 0.03864 0.0
H501 H 0.21553 0.84828 0.99536 0.0
H502 H 0.20401 0.80138 0.00042 0.0
H503 H 0.23801 0.76936 0.99623 0.0
H504 H 0.58072 0.61641 0.57481 0.0
H505 H 0.61455 0.64839 0.57524 0.0
H506 H 0.60301 0.66248 0.45874 0.0
H507 H 0.56964 0.62979 0.45779 0.0
H508 H 0.65045 0.64933 0.47213 0.0
H509 H 0.62427 0.72434 0.57161 0.0
H510 H 0.62096 0.69316 0.59219 0.0
H511 H 0.60104 0.70216 0.55347 0.0
C512 C 0.58482 0.62682 0.54947 0.0
C513 C 0.57277 0.62028 0.51613 0.0
C514 C 0.60409 0.64532 0.54984 0.0
C515 C 0.61126 0.65798 0.51706 0.0
C516 C 0.59779 0.65294 0.48435 0.0
H517 H 0.74742 0.75715 0.51224 0.0
H518 H 0.70282 0.74281 0.50809 0.0
C519 C 0.57874 0.63423 0.48386 0.0
C520 C 0.63539 0.67286 0.51571 0.0
H521 H 0.66994 0.71826 0.5611 0.0
C522 C 0.65446 0.66477 0.4911 0.0
C523 C 0.64067 0.69313 0.54022 0.0
C524 C 0.62051 0.70387 0.56556 0.0
C525 C 0.67902 0.67541 0.49166 0.0
C526 C 0.68486 0.69424 0.5181 0.0
C527 C 0.66548 0.70345 0.54131 0.0
C528 C 0.71134 0.70349 0.52305 0.0
C529 C 0.69866 0.66603 0.46434 0.0
C530 C 0.73065 0.68623 0.53378 0.0
C531 C 0.75602 0.69432 0.5362 0.0
C532 C 0.76251 0.71987 0.52819 0.0
C533 C 0.74296 0.73737 0.51876 0.0
C534 C 0.71753 0.72922 0.51627 0.0
H535 H 0.68944 0.65749 0.4397 0.0
H536 H 0.71139 0.68184 0.45508 0.0
H537 H 0.71066 0.65101 0.47772 0.0
H538 H 0.72612 0.6664 0.53986 0.0
H539 H 0.77057 0.68053 0.54425 0.0
H540 H 0.38645 0.60987 0.60608 0.0
H541 H 0.35704 0.64592 0.6154 0.0
H542 H 0.33881 0.64651 0.49919 0.0
H543 H 0.36793 0.61071 0.48957 0.0
H544 H 0.36383 0.6936 0.57929 0.0
H545 H 0.26826 0.65356 0.54821 0.0
H546 H 0.29546 0.63368 0.56026 0.0
H547 H 0.29179 0.64591 0.5139 0.0
C548 C 0.37582 0.61738 0.58263 0.0
C549 C 0.3797 0.60754 0.54701 0.0
C550 C 0.35903 0.63794 0.58804 0.0
C551 C 0.34555 0.64865 0.55806 0.0
C552 C 0.34864 0.63821 0.52282 0.0
H553 H 0.26829 0.78165 0.48286 0.0
H554 H 0.28647 0.73923 0.49494 0.0
C555 C 0.3655 0.61785 0.51733 0.0
C556 C 0.33055 0.67253 0.56229 0.0
H557 H 0.27239 0.69939 0.54278 0.0
C558 C 0.34369 0.69485 0.57211 0.0
C559 C 0.30435 0.67403 0.55272 0.0
C560 C 0.28906 0.65046 0.54352 0.0
C561 C 0.33174 0.71893 0.57036 0.0
C562 C 0.30577 0.72058 0.55929 0.0
C563 C 0.29231 0.69808 0.55114 0.0
C564 C 0.29295 0.74561 0.55318 0.0
C565 C 0.34745 0.7425 0.57827 0.0
C566 C 0.29003 0.76305 0.58209 0.0
C567 C 0.27999 0.78748 0.57517 0.0
C568 C 0.27244 0.79481 0.53923 0.0
C569 C 0.27438 0.77683 0.51069 0.0
C570 C 0.28454 0.75249 0.51761 0.0
H571 H 0.36831 0.7383 0.57865 0.0
H572 H 0.34372 0.75774 0.5573 0.0
H573 H 0.34209 0.75005 0.60574 0.0
H574 H 0.29599 0.75796 0.60988 0.0
H575 H 0.2789 0.80087 0.59777 0.0
H576 H 0.3874 0.38067 0.48145 0.0
H577 H 0.36047 0.34272 0.48748 0.0
H578 H 0.35858 0.35184 0.60565 0.0
H579 H 0.38562 0.39002 0.60005 0.0
H580 H 0.36779 0.2991 0.57753 0.0
H581 H 0.28266 0.34745 0.51625 0.0
H582 H 0.3118 0.35072 0.49025 0.0
H583 H 0.3094 0.36493 0.53509 0.0
C584 C 0.38144 0.37461 0.50881 0.0
C585 C 0.38853 0.38858 0.54025 0.0
C586 C 0.36596 0.35294 0.51215 0.0
C587 C 0.35726 0.34475 0.54693 0.0
C588 C 0.36499 0.35801 0.57854 0.0
H589 H 0.26178 0.21255 0.60699 0.0
H590 H 0.28972 0.25011 0.60984 0.0
C591 C 0.38042 0.37982 0.57525 0.0
C592 C 0.33968 0.32262 0.54989 0.0
H593 H 0.28013 0.30244 0.52465 0.0
C594 C 0.34854 0.29981 0.5663 0.0
C595 C 0.31461 0.32372 0.53521 0.0
C596 C 0.30388 0.34806 0.51845 0.0
C597 C 0.33324 0.27768 0.56716 0.0
C598 C 0.30827 0.27865 0.55188 0.0
C599 C 0.29929 0.30169 0.53623 0.0
C600 C 0.2914 0.25582 0.55059 0.0
C601 C 0.34431 0.25324 0.58314 0.0
C602 C 0.28251 0.24696 0.51643 0.0
C603 C 0.2664 0.22567 0.51474 0.0
C604 C 0.25881 0.2128 0.54722 0.0
C605 C 0.26759 0.22182 0.58146 0.0
C606 C 0.28362 0.24323 0.58313 0.0
H607 H 0.36552 0.25404 0.5851 0.0
H608 H 0.33664 0.25018 0.61141 0.0
H609 H 0.33891 0.2365 0.56616 0.0
H610 H 0.28822 0.25641 0.49097 0.0
H611 H 0.26022 0.21904 0.48793 0.0
H612 H 0.58706 0.41785 0.60099 0.0
H613 H 0.62442 0.38946 0.60609 0.0
H614 H 0.62475 0.38047 0.48781 0.0
H615 H 0.58791 0.40894 0.48232 0.0
H616 H 0.62953 0.33868 0.58441 0.0
H617 H 0.69853 0.40005 0.50879 0.0
H618 H 0.66829 0.41202 0.52556 0.0
H619 H 0.66977 0.39463 0.48292 0.0
C620 C 0.59518 0.40993 0.57605 0.0
C621 C 0.58452 0.41579 0.54121 0.0
C622 C 0.61651 0.39371 0.57903 0.0
C623 C 0.62763 0.3832 0.54727 0.0
C624 C 0.61689 0.38885 0.5126 0.0
H625 H 0.74112 0.27361 0.48397 0.0
H626 H 0.70546 0.30376 0.48956 0.0
C627 C 0.59569 0.40506 0.50956 0.0
C628 C 0.64995 0.36563 0.55007 0.0
H629 H 0.71028 0.35593 0.51661 0.0
C630 C 0.64733 0.34258 0.57004 0.0
C631 C 0.67319 0.3708 0.53137 0.0
C632 C 0.67776 0.39584 0.51127 0.0
C633 C 0.66694 0.32407 0.57044 0.0
C634 C 0.68975 0.32889 0.5506 0.0
C635 C 0.69266 0.35223 0.53154 0.0
C636 C 0.71058 0.30966 0.54815 0.0
C637 C 0.66279 0.2991 0.59087 0.0
C638 C 0.72524 0.30297 0.5793 0.0
C639 C 0.74564 0.28569 0.57622 0.0
C640 C 0.7517 0.27477 0.54191 0.0
C641 C 0.73674 0.28135 0.51089 0.0
C642 C 0.71647 0.29871 0.51397 0.0
H643 H 0.64252 0.29657 0.59944 0.0
H644 H 0.66849 0.28268 0.57341 0.0
H645 H 0.67494 0.29867 0.61604 0.0
H646 H 0.72117 0.31145 0.60585 0.0
H647 H 0.75672 0.28091 0.60065 0.0
H648 H 0.0335 0.09082 0.10864 0.0
H649 H 0.06512 0.0976 0.1576 0.0
H650 H 0.02897 0.0388 0.22379 0.0
H651 H 0.99781 0.03152 0.17426 0.0
H652 H 0.05344 0.11298 0.22859 0.0
H653 H 0.10532 0.02017 0.231 0.0
H654 H 0.08539 0.03038 0.19274 0.0
H655 H 0.07111 0.01701 0.23369 0.0
C656 C 0.03286 0.07886 0.13315 0.0
C657 C 0.01367 0.06033 0.13744 0.0
C658 C 0.05071 0.0829 0.16123 0.0
C659 C 0.04964 0.06841 0.19406 0.0
C660 C 0.03048 0.0498 0.19835 0.0
H661 H 0.10218 0.10344 0.41181 0.0
H662 H 0.07849 0.09476 0.35518 0.0
C663 C 0.01257 0.04583 0.17028 0.0
C664 C 0.06725 0.07418 0.22494 0.0
H665 H 0.11176 0.04752 0.28295 0.0
C666 C 0.06637 0.09875 0.24026 0.0
C667 C 0.08426 0.05565 0.23985 0.0
C668 C 0.08684 0.02938 0.2233 0.0
C669 C 0.08144 0.10504 0.2709 0.0
C670 C 0.09759 0.08617 0.28684 0.0
C671 C 0.09916 0.06185 0.2708 0.0
C672 C 0.11222 0.09117 0.32101 0.0
C673 C 0.0799 0.13179 0.28614 0.0
C674 C 0.13906 0.09161 0.32059 0.0
C675 C 0.15273 0.09683 0.35292 0.0
C676 C 0.13973 0.10148 0.38626 0.0
C677 C 0.1128 0.10057 0.38651 0.0
C678 C 0.09921 0.09548 0.35422 0.0
H679 H 0.07163 0.14554 0.26573 0.0
H680 H 0.06745 0.13168 0.31097 0.0
H681 H 0.09914 0.13869 0.2945 0.0
H682 H 0.1494 0.08827 0.29516 0.0
H683 H 0.17343 0.09755 0.35169 0.0
H684 H 0.86714 0.99236 0.15048 0.0
H685 H 0.84671 0.02015 0.1961 0.0
H686 H 0.90522 0.07702 0.17789 0.0
H687 H 0.92542 0.04959 0.13286 0.0
H688 H 0.86761 0.03716 0.26014 0.0
H689 H 0.84124 0.12057 0.17282 0.0
H690 H 0.8502 0.09009 0.15349 0.0
H691 H 0.8744 0.11247 0.16768 0.0
C692 C 0.87548 0.01092 0.15592 0.0
C693 C 0.89784 0.0189 0.13746 0.0
C694 C 0.86374 0.02679 0.18191 0.0
C695 C 0.87407 0.05095 0.18975 0.0
C696 C 0.89637 0.05886 0.17145 0.0
H697 H 0.87675 0.16545 0.35245 0.0
H698 H 0.88038 0.13804 0.2985 0.0
C699 C 0.90805 0.04304 0.14561 0.0
C700 C 0.86313 0.0671 0.21929 0.0
H701 H 0.84514 0.12848 0.23844 0.0
C702 C 0.86214 0.05698 0.25533 0.0
C703 C 0.85602 0.09296 0.2129 0.0
C704 C 0.85526 0.10456 0.17454 0.0
C705 C 0.85577 0.07242 0.28549 0.0
C706 C 0.8499 0.09858 0.2793 0.0
C707 C 0.84976 0.10844 0.24308 0.0
C708 C 0.84603 0.11642 0.31036 0.0
C709 C 0.85674 0.061 0.32394 0.0
C710 C 0.82517 0.1137 0.33446 0.0
C711 C 0.82294 0.12948 0.36532 0.0
C712 C 0.84151 0.1483 0.37252 0.0
C713 C 0.86192 0.15143 0.34756 0.0
C714 C 0.8641 0.13569 0.31676 0.0
H715 H 0.86578 0.04172 0.32443 0.0
H716 H 0.86756 0.07367 0.34281 0.0
H717 H 0.83697 0.05913 0.33482 0.0
H718 H 0.81082 0.09917 0.32965 0.0
H719 H 0.80677 0.12684 0.38365 0.0
H720 H 0.99002 0.94969 0.18449 0.0
H721 H 0.97005 0.92765 0.23683 0.0
H722 H 0.90469 0.90963 0.16913 0.0
H723 H 0.92491 0.93086 0.11659 0.0
H724 H 0.92185 0.93283 0.27329 0.0
H725 H 0.93248 0.83927 0.20243 0.0
H726 H 0.94849 0.86791 0.18655 0.0
H727 H 0.91499 0.8635 0.17737 0.0
C728 C 0.97125 0.94129 0.18079 0.0
C729 C 0.95905 0.94198 0.14611 0.0
C730 C 0.95985 0.9288 0.21079 0.0
C731 C 0.93611 0.9167 0.20662 0.0
C732 C 0.92321 0.91857 0.17273 0.0
H733 H 0.86162 0.80774 0.35611 0.0
H734 H 0.87025 0.83729 0.30467 0.0
C735 C 0.93467 0.93099 0.1427 0.0
C736 C 0.92585 0.90066 0.23699 0.0
H737 H 0.91383 0.83856 0.26149 0.0
C738 C 0.91992 0.91224 0.27072 0.0
C739 C 0.92338 0.87382 0.2334 0.0
C740 C 0.93034 0.86027 0.19813 0.0
C741 C 0.91173 0.8976 0.30118 0.0
C742 C 0.90993 0.87069 0.29787 0.0
C743 C 0.91523 0.85921 0.26386 0.0
C744 C 0.90389 0.85387 0.32978 0.0
C745 C 0.90505 0.91106 0.33659 0.0
C746 C 0.92012 0.85325 0.36066 0.0
C747 C 0.91521 0.8365 0.39008 0.0
C748 C 0.89407 0.81989 0.389 0.0
C749 C 0.87788 0.8205 0.35793 0.0
C750 C 0.88282 0.83729 0.32851 0.0
H751 H 0.90002 0.93148 0.33147 0.0
H752 H 0.88877 0.90154 0.35083 0.0
H753 H 0.92186 0.9105 0.35536 0.0
H754 H 0.93682 0.86549 0.36182 0.0
H755 H 0.92788 0.83669 0.41378 0.0
H756 H 0.10325 0.01591 0.10763 0.0
H757 H 0.12865 0.99354 0.15468 0.0
H758 H 0.06297 0.94777 0.18414 0.0
H759 H 0.03739 0.97095 0.13822 0.0
H760 H 0.08327 0.96952 0.24282 0.0
H761 H 0.16082 0.9234 0.16392 0.0
H762 H 0.15884 0.95698 0.15329 0.0
H763 H 0.13247 0.93632 0.14198 0.0
C764 C 0.09439 0.0007 0.12363 0.0
C765 C 0.06838 0.99476 0.11876 0.0
C766 C 0.109 0.98773 0.15025 0.0
C767 C 0.09787 0.96858 0.17246 0.0
C768 C 0.07207 0.96221 0.16696 0.0
H769 H 0.18797 0.88731 0.34198 0.0
H770 H 0.1618 0.89687 0.28734 0.0
C771 C 0.05748 0.97523 0.14039 0.0
C772 C 0.11223 0.95759 0.20423 0.0
H773 H 0.1692 0.93014 0.22898 0.0
C774 C 0.10192 0.96062 0.23971 0.0
C775 C 0.13636 0.94557 0.2002 0.0
C776 C 0.14762 0.94012 0.16273 0.0
C777 C 0.11558 0.95312 0.27135 0.0
C778 C 0.14047 0.94275 0.26746 0.0
C779 C 0.1503 0.93851 0.23194 0.0
C780 C 0.15681 0.93698 0.30002 0.0
C781 C 0.10319 0.95651 0.30865 0.0
C782 C 0.16306 0.95645 0.32485 0.0
C783 C 0.17767 0.95101 0.35627 0.0
C784 C 0.1867 0.92602 0.36328 0.0
C785 C 0.18099 0.90667 0.33776 0.0
C786 C 0.16621 0.91212 0.30638 0.0
H787 H 0.08197 0.95678 0.30644 0.0
H788 H 0.10889 0.94098 0.32819 0.0
H789 H 0.10927 0.9751 0.32034 0.0
H790 H 0.15646 0.97589 0.32007 0.0
H791 H 0.18143 0.96635 0.37543 0.0
H792 H 0.03133 0.98431 0.86924 0.0
H793 H 0.05505 0.96687 0.81683 0.0
H794 H 0.09522 0.03854 0.80434 0.0
H795 H 0.0718 0.05598 0.85663 0.0
H796 H 0.0597 0.98094 0.74468 0.0
H797 H 0.15378 0.98838 0.81424 0.0
H798 H 0.12392 0.9925 0.8385 0.0
H799 H 0.13737 0.01856 0.81202 0.0
C800 C 0.04506 0.9964 0.85511 0.0
C801 C 0.04994 0.02138 0.86741 0.0
C802 C 0.05864 0.9864 0.82524 0.0
C803 C 0.07739 0.00117 0.80732 0.0
C804 C 0.0814 0.02652 0.81846 0.0
H805 H 0.18426 0.98419 0.62797 0.0
H806 H 0.15648 0.99917 0.67768 0.0
C807 C 0.06787 0.03652 0.84825 0.0
C808 C 0.09295 0.99015 0.77714 0.0
H809 H 0.15462 0.98014 0.74961 0.0
C810 C 0.08045 0.98073 0.74574 0.0
C811 C 0.12002 0.98945 0.77887 0.0
C812 C 0.13455 0.99751 0.81289 0.0
C813 C 0.09434 0.97192 0.71518 0.0
C814 C 0.1214 0.97181 0.71663 0.0
C815 C 0.13387 0.98053 0.74843 0.0
C816 C 0.13731 0.96282 0.68548 0.0
C817 C 0.07995 0.96358 0.68122 0.0
C818 C 0.13581 0.93738 0.67355 0.0
C819 C 0.1517 0.92874 0.64522 0.0
C820 C 0.16954 0.94536 0.62854 0.0
C821 C 0.17092 0.97085 0.64054 0.0
C822 C 0.15499 0.97947 0.66879 0.0
H823 H 0.06 0.97102 0.68092 0.0
H824 H 0.08977 0.9702 0.65567 0.0
H825 H 0.07909 0.94235 0.68081 0.0
H826 H 0.12271 0.92405 0.68666 0.0
H827 H 0.15046 0.9089 0.637 0.0
H828 H 0.00498 0.10192 0.91627 0.0
H829 H 0.02546 0.10951 0.85673 0.0
H830 H 0.98066 0.049 0.80869 0.0
H831 H 0.96078 0.04066 0.86884 0.0
H832 H 0.02891 0.04504 0.78846 0.0
H833 H 0.99879 0.14514 0.76573 0.0
H834 H 0.01399 0.14197 0.80996 0.0
H835 H 0.98464 0.12499 0.80097 0.0
C836 C -0.00072 0.09035 0.893 0.0
C837 C 0.98101 0.07084 0.89716 0.0
C838 C 0.01085 0.09489 0.85884 0.0
C839 C 0.0041 0.08033 0.82794 0.0
C840 C 0.98594 0.06071 0.83201 0.0
H841 H 0.07604 0.1119 0.61149 0.0
H842 H 0.04281 0.10423 0.65831 0.0
C843 C 0.9745 0.05602 0.86633 0.0
C844 C 0.01741 0.08462 0.79223 0.0
H845 H 0.03755 0.13206 0.73346 0.0
C846 C 0.03052 0.06402 0.77623 0.0
C847 C 0.0188 0.10917 0.77533 0.0
C848 C 0.00302 0.13147 0.78868 0.0
C849 C 0.04658 0.06779 0.74562 0.0
C850 C 0.04994 0.09276 0.73122 0.0
C851 C 0.03542 0.11302 0.74533 0.0
C852 C 0.06966 0.09828 0.70308 0.0
C853 C 0.06015 0.04515 0.72903 0.0
C854 C 0.09561 0.09777 0.71308 0.0
C855 C 0.11453 0.10236 0.68663 0.0
C856 C 0.1078 0.10727 0.64964 0.0
C857 C 0.08173 0.10799 0.63978 0.0
C858 C 0.06278 0.10371 0.6664 0.0
H859 H 0.05111 0.02685 0.73769 0.0
H860 H 0.05991 0.04644 0.69839 0.0
H861 H 0.08046 0.04502 0.73807 0.0
H862 H 0.1012 0.09364 0.74136 0.0
H863 H 0.13445 0.10142 0.69491 0.0
H864 H 0.89207 0.03864 0.90891 0.0
H865 H 0.89126 0.06267 0.85097 0.0
H866 H 0.9358 0.00358 0.79872 0.0
H867 H 0.93652 0.97902 0.85699 0.0
H868 H 0.93277 0.08133 0.80924 0.0
H869 H 0.87294 0.01258 0.73035 0.0
H870 H 0.87578 0.01095 0.78002 0.0
H871 H 0.9017 0.00028 0.75148 0.0
C872 C 0.90158 0.03058 0.88512 0.0
C873 C 0.9142 0.00681 0.88751 0.0
C874 C 0.90121 0.04444 0.85204 0.0
C875 C 0.91328 0.03483 0.82051 0.0
C876 C 0.92605 0.01114 0.82264 0.0
H877 H 0.92102 0.14023 0.62855 0.0
H878 H 0.93434 0.10994 0.67685 0.0
C879 C 0.92651 0.9972 0.85594 0.0
C880 C 0.91201 0.04991 0.78568 0.0
H881 H 0.88318 0.05151 0.70104 0.0
C882 C 0.92225 0.07474 0.78531 0.0
C883 C 0.89816 0.04122 0.75468 0.0
C884 C 0.88633 0.01488 0.75396 0.0
C885 C 0.91805 0.09159 0.75543 0.0
C886 C 0.90351 0.08317 0.72484 0.0
C887 C 0.89425 0.05793 0.72456 0.0
C888 C 0.8958 0.10079 0.69434 0.0
C889 C 0.9281 0.11861 0.75784 0.0
C890 C 0.8697 0.10515 0.68732 0.0
C891 C 0.862 0.12207 0.6593 0.0
C892 C 0.88024 0.13509 0.63765 0.0
C893 C 0.90642 0.13043 0.64446 0.0
C894 C 0.91411 0.11333 0.67238 0.0
H895 H 0.93354 0.12366 0.78654 0.0
H896 H 0.94543 0.12047 0.74031 0.0
H897 H 0.91363 0.13266 0.74777 0.0
H898 H 0.85522 0.09557 0.7038 0.0
H899 H 0.8417 0.12476 0.65442 0.0
H900 H 0.946 0.90568 0.93172 0.0
H901 H 0.92776 0.88843 0.87504 0.0
H902 H 0.98003 0.93423 0.8102 0.0
H903 H 0.99886 0.95108 0.86681 0.0
H904 H 0.90493 0.91025 0.81295 0.0
H905 H 0.99635 0.86159 0.77745 0.0
H906 H 0.99076 0.87561 0.82206 0.0
H907 H 0.99887 0.89562 0.7831 0.0
C908 C 0.95356 0.91219 0.90541 0.0
C909 C 0.97422 0.92936 0.90372 0.0
C910 C 0.94304 0.90238 0.87306 0.0
C911 C 0.95294 0.90964 0.83853 0.0
C912 C 0.97257 0.9279 0.83666 0.0
H913 H 0.92321 0.84925 0.61954 0.0
H914 H 0.93616 0.87659 0.67078 0.0
C915 C 0.98326 0.93756 0.86901 0.0
C916 C 0.94358 0.89701 0.80475 0.0
H917 H 0.96244 0.85787 0.73487 0.0
C918 C 0.91749 0.89886 0.79577 0.0
C919 C 0.96005 0.88208 0.78255 0.0
C920 C 0.98801 0.87835 0.79185 0.0
C921 C 0.90739 0.88612 0.76508 0.0
C922 C 0.92383 0.87105 0.74317 0.0
C923 C 0.94997 0.86956 0.75176 0.0
C924 C 0.91426 0.85583 0.71192 0.0
C925 C 0.87929 0.88891 0.75622 0.0
C926 C 0.89774 0.83511 0.71827 0.0
C927 C 0.89033 0.81945 0.68911 0.0
C928 C 0.89937 0.82428 0.65315 0.0
C929 C 0.91568 0.84526 0.64687 0.0
C930 C 0.92316 0.86083 0.67606 0.0
H931 H 0.8707 0.90579 0.77003 0.0
H932 H 0.87624 0.89081 0.72595 0.0
H933 H 0.86901 0.87154 0.76597 0.0
H934 H 0.89104 0.83071 0.74592 0.0
H935 H 0.87761 0.80352 0.6947 0.0
H936 H 0.48766 0.53783 0.67301 0.0
H937 H 0.51836 0.54321 0.72371 0.0
H938 H 0.56089 0.59739 0.65732 0.0
H939 H 0.52979 0.59253 0.60705 0.0
H940 H 0.57284 0.5359 0.72518 0.0
H941 H 0.54374 0.6364 0.75294 0.0
H942 H 0.52466 0.61511 0.72525 0.0
H943 H 0.55271 0.62995 0.70603 0.0
C944 C 0.50355 0.55092 0.6694 0.0
C945 C 0.50664 0.56462 0.63614 0.0
C946 C 0.52113 0.55383 0.69816 0.0
C947 C 0.54178 0.57077 0.69426 0.0
C948 C 0.54497 0.58435 0.66093 0.0
H949 H 0.66984 0.5906 0.84774 0.0
H950 H 0.64427 0.58111 0.79272 0.0
C951 C 0.52741 0.5814 0.63215 0.0
C952 C 0.55941 0.5749 0.72563 0.0
H953 H 0.57831 0.61981 0.78775 0.0
C954 C 0.57427 0.55426 0.73871 0.0
C955 C 0.56081 0.59881 0.74351 0.0
C956 C 0.54451 0.62132 0.73152 0.0
C957 C 0.59066 0.55698 0.76921 0.0
C958 C 0.59208 0.58093 0.78696 0.0
C959 C 0.57724 0.60153 0.77385 0.0
C960 C 0.6078 0.58487 0.82042 0.0
C961 C 0.60584 0.53413 0.78282 0.0
C962 C 0.59571 0.59021 0.85402 0.0
C963 C 0.61019 0.59552 0.88542 0.0
C964 C 0.6371 0.59587 0.88378 0.0
C965 C 0.64918 0.59023 0.85006 0.0
C966 C 0.63462 0.5848 0.81861 0.0
H967 H 0.59951 0.51605 0.76973 0.0
H968 H 0.62638 0.53704 0.77627 0.0
H969 H 0.60408 0.53205 0.81327 0.0
H970 H 0.575 0.59035 0.8559 0.0
H971 H 0.60025 0.59925 0.91106 0.0
H972 H 0.36803 0.4936 0.65528 0.0
H973 H 0.34798 0.51964 0.70316 0.0
H974 H 0.40012 0.58133 0.67815 0.0
H975 H 0.41972 0.55569 0.63044 0.0
H976 H 0.37015 0.53761 0.76425 0.0
H977 H 0.33374 0.6199 0.68248 0.0
H978 H 0.34448 0.59068 0.66116 0.0
H979 H 0.3672 0.61481 0.67451 0.0
C980 C 0.375 0.51286 0.65962 0.0
C981 C 0.39547 0.52264 0.63854 0.0
C982 C 0.36348 0.52772 0.68698 0.0
C983 C 0.37217 0.55267 0.69378 0.0
C984 C 0.39248 0.56247 0.6727 0.0
H985 H 0.3704 0.66388 0.86315 0.0
H986 H 0.37552 0.63818 0.80767 0.0
C987 C 0.40387 0.54767 0.64533 0.0
C988 C 0.36168 0.56769 0.72492 0.0
H989 H 0.33939 0.627 0.74795 0.0
C990 C 0.36294 0.55697 0.76062 0.0
C991 C 0.35231 0.59299 0.72016 0.0
C992 C 0.3491 0.60514 0.68243 0.0
C993 C 0.35633 0.57128 0.79182 0.0
C994 C 0.348 0.59689 0.78713 0.0
C995 C 0.34587 0.60736 0.75141 0.0
C996 C 0.34317 0.6136 0.81919 0.0
C997 C 0.35947 0.55932 0.8297 0.0
C998 C 0.32291 0.60863 0.8436 0.0
C999 C 0.31977 0.62344 0.87529 0.0
C1000 C 0.33686 0.6435 0.88308 0.0
C1001 C 0.35667 0.64885 0.85784 0.0
C1002 C 0.35972 0.6341 0.82618 0.0
H1003 H 0.3701 0.54088 0.82881 0.0
H1004 H 0.36978 0.57255 0.84836 0.0
H1005 H 0.3403 0.5556 0.84176 0.0
H1006 H 0.30972 0.59309 0.83837 0.0
H1007 H 0.30406 0.61906 0.89379 0.0
H1008 H 0.42239 0.43762 0.62655 0.0
H1009 H 0.40248 0.41475 0.6779 0.0
H1010 H 0.47539 0.41103 0.73368 0.0
H1011 H 0.49533 0.43415 0.68265 0.0
H1012 H 0.41547 0.36585 0.70141 0.0
H1013 H 0.42743 0.43484 0.81522 0.0
H1014 H 0.43048 0.44402 0.76718 0.0
H1015 H 0.4568 0.42889 0.79108 0.0
C1016 C 0.43413 0.43237 0.64975 0.0
C1017 C 0.46047 0.43775 0.65007 0.0
C1018 C 0.42271 0.41922 0.67921 0.0
C1019 C 0.43741 0.41146 0.70978 0.0
C1020 C 0.46357 0.4173 0.71069 0.0
H1021 H 0.42472 0.2861 0.86127 0.0
H1022 H 0.43268 0.3153 0.80933 0.0
C1023 C 0.47496 0.43039 0.68126 0.0
C1024 C 0.42604 0.39551 0.73945 0.0
H1025 H 0.41979 0.39104 0.83305 0.0
C1026 C 0.41605 0.37148 0.73017 0.0
C1027 C 0.42652 0.40305 0.77683 0.0
C1028 C 0.43564 0.42922 0.78818 0.0
C1029 C 0.40765 0.35426 0.75753 0.0
C1030 C 0.40972 0.36116 0.79508 0.0
C1031 C 0.41853 0.38567 0.80423 0.0
C1032 C 0.40389 0.34291 0.82541 0.0
C1033 C 0.39687 0.32877 0.74602 0.0
C1034 C 0.38539 0.349 0.85196 0.0
C1035 C 0.38101 0.3325 0.88189 0.0
C1036 C 0.3952 0.3097 0.8859 0.0
C1037 C 0.4136 0.30359 0.85906 0.0
C1038 C 0.41795 0.32009 0.82915 0.0
H1039 H 0.3895 0.32951 0.71721 0.0
H1040 H 0.41225 0.31408 0.74731 0.0
H1041 H 0.38113 0.32259 0.76467 0.0
H1042 H 0.37453 0.36665 0.84972 0.0
H1043 H 0.367 0.33796 0.90241 0.0
H1044 H 0.58844 0.53077 0.64173 0.0
H1045 H 0.61382 0.51006 0.69001 0.0
H1046 H 0.56868 0.44148 0.67988 0.0
H1047 H 0.54312 0.46211 0.63134 0.0
H1048 H 0.57608 0.46184 0.75517 0.0
H1049 H 0.66667 0.44987 0.67692 0.0
H1050 H 0.65219 0.48108 0.67324 0.0
H1051 H 0.63592 0.45382 0.65459 0.0
C1052 C 0.58395 0.51118 0.64939 0.0
C1053 C 0.56375 0.49799 0.63223 0.0
C1054 C 0.5986 0.49936 0.67693 0.0
C1055 C 0.59331 0.47417 0.68807 0.0
C1056 C 0.57313 0.46092 0.67137 0.0
H1057 H 0.69461 0.39146 0.84123 0.0
H1058 H 0.66661 0.40207 0.78882 0.0
C1059 C 0.55856 0.47271 0.64352 0.0
C1060 C 0.60836 0.46227 0.71827 0.0
H1061 H 0.66916 0.4448 0.74232 0.0
C1062 C 0.59635 0.45776 0.75232 0.0
C1063 C 0.63471 0.45684 0.71423 0.0
C1064 C 0.64818 0.46042 0.6777 0.0
C1065 C 0.61032 0.44888 0.78303 0.0
C1066 C 0.63699 0.44472 0.77953 0.0
C1067 C 0.64875 0.44821 0.745 0.0
C1068 C 0.65324 0.43782 0.81168 0.0
C1069 C 0.59643 0.44423 0.81898 0.0
C1070 C 0.65517 0.45453 0.84163 0.0
C1071 C 0.671 0.4485 0.87157 0.0
C1072 C 0.68543 0.4257 0.87203 0.0
C1073 C 0.68353 0.40902 0.84188 0.0
C1074 C 0.66766 0.4151 0.81188 0.0
H1075 H 0.57567 0.44088 0.81441 0.0
H1076 H 0.60459 0.42751 0.83416 0.0
H1077 H 0.59839 0.46138 0.83662 0.0
H1078 H 0.64458 0.47241 0.8417 0.0
H1079 H 0.67179 0.46163 0.89452 0.0
H1080 H 0.52066 0.49032 0.34787 0.0
H1081 H 0.54371 0.46897 0.29776 0.0
H1082 H 0.61502 0.49911 0.33872 0.0
H1083 H 0.59242 0.51963 0.38924 0.0
H1084 H 0.57386 0.49121 0.24315 0.0
H1085 H 0.63157 0.42352 0.3277 0.0
H1086 H 0.60408 0.4402 0.34587 0.0
H1087 H 0.63464 0.45597 0.34285 0.0
C1088 C 0.5413 0.49192 0.34658 0.0
C1089 C 0.55475 0.5063 0.37285 0.0
C1090 C 0.5544 0.47989 0.31783 0.0
C1091 C 0.58113 0.48201 0.31505 0.0
C1092 C 0.59449 0.49663 0.34096 0.0
H1093 H 0.70294 0.45431 0.16438 0.0
H1094 H 0.67414 0.46682 0.21426 0.0
C1095 C 0.58148 0.50851 0.36969 0.0
C1096 C 0.5952 0.47001 0.28425 0.0
H1097 H 0.64618 0.4312 0.26568 0.0
C1098 C 0.58938 0.47774 0.24795 0.0
C1099 C 0.61543 0.45244 0.29069 0.0
C1100 C 0.62164 0.44234 0.32887 0.0
C1101 C 0.60408 0.46924 0.21801 0.0
C1102 C 0.62493 0.45252 0.22469 0.0
C1103 C 0.63024 0.44417 0.2608 0.0
C1104 C 0.6422 0.4444 0.19472 0.0
C1105 C 0.59793 0.47895 0.17961 0.0
C1106 C 0.63379 0.42738 0.16762 0.0
C1107 C 0.65028 0.41995 0.13928 0.0
C1108 C 0.67547 0.42945 0.13759 0.0
C1109 C 0.68382 0.44634 0.16511 0.0
C1110 C 0.66736 0.45365 0.1935 0.0
H1111 H 0.58339 0.49452 0.17979 0.0
H1112 H 0.61553 0.48617 0.16587 0.0
H1113 H 0.5904 0.46295 0.16286 0.0
H1114 H 0.61451 0.4198 0.16849 0.0
H1115 H 0.64337 0.4066 0.11888 0.0
H1116 H 0.45301 0.58437 0.36609 0.0
H1117 H 0.47547 0.59198 0.30742 0.0
H1118 H 0.54773 0.59114 0.36514 0.0
H1119 H 0.52557 0.58345 0.42328 0.0
H1120 H 0.51031 0.63213 0.28604 0.0
H1121 H 0.55662 0.53655 0.28463 0.0
H1122 H 0.52947 0.5438 0.31364 0.0
H1123 H 0.56121 0.55331 0.32718 0.0
C1124 C 0.4737 0.58573 0.3662 0.0
C1125 C 0.48758 0.58267 0.39929 0.0
C1126 C 0.48646 0.59017 0.33271 0.0
C1127 C 0.51328 0.59157 0.33188 0.0
C1128 C 0.52705 0.58952 0.36504 0.0
H1129 H 0.63963 0.6223 0.19113 0.0
H1130 H 0.60819 0.61727 0.24076 0.0
C1131 C 0.51434 0.58517 0.39836 0.0
C1132 C 0.52724 0.59512 0.29661 0.0
H1133 H 0.57458 0.56844 0.24455 0.0
C1134 C 0.52408 0.61808 0.27656 0.0
C1135 C 0.545 0.57664 0.28416 0.0
C1136 C 0.54813 0.55105 0.30328 0.0
C1137 C 0.53932 0.62356 0.24547 0.0
C1138 C 0.558 0.60562 0.23439 0.0
C1139 C 0.56039 0.58226 0.25348 0.0
C1140 C 0.57616 0.61103 0.20407 0.0
C1141 C 0.53616 0.64883 0.22544 0.0
C1142 C 0.56841 0.60932 0.1671 0.0
C1143 C 0.58633 0.61212 0.13867 0.0
C1144 C 0.61227 0.61673 0.14682 0.0
C1145 C 0.61977 0.61907 0.18394 0.0
C1146 C 0.60188 0.6161 0.2123 0.0
H1147 H 0.52198 0.66148 0.23908 0.0
H1148 H 0.55485 0.65889 0.22394 0.0
H1149 H 0.52974 0.64535 0.19668 0.0
H1150 H 0.54864 0.60521 0.16032 0.0
H1151 H 0.57997 0.61041 0.11032 0.0
H1152 H 0.4065 0.46564 0.36778 0.0
H1153 H 0.39632 0.48608 0.30849 0.0
H1154 H 0.45275 0.54424 0.32945 0.0
H1155 H 0.46344 0.52373 0.38828 0.0
H1156 H 0.37551 0.53073 0.30093 0.0
H1157 H 0.46647 0.53389 0.22385 0.0
H1158 H 0.46261 0.51435 0.26485 0.0
H1159 H 0.47065 0.54782 0.26842 0.0
C1160 C 0.41712 0.48252 0.35941 0.0
C1161 C 0.43559 0.49321 0.38292 0.0
C1162 C 0.41126 0.4942 0.32551 0.0
C1163 C 0.42378 0.51679 0.31444 0.0
C1164 C 0.44308 0.52674 0.33713 0.0
H1165 H 0.35899 0.64309 0.19247 0.0
H1166 H 0.3731 0.6113 0.23827 0.0
C1167 C 0.44904 0.51503 0.37093 0.0
C1168 C 0.41459 0.5317 0.28178 0.0
H1169 H 0.43472 0.56588 0.2063 0.0
C1170 C 0.38845 0.53801 0.27991 0.0
C1171 C 0.43133 0.54112 0.25406 0.0
C1172 C 0.45926 0.53369 0.25272 0.0
C1173 C 0.37877 0.55423 0.25207 0.0
C1174 C 0.39579 0.56506 0.22592 0.0
C1175 C 0.42174 0.55792 0.22675 0.0
C1176 C 0.38712 0.58426 0.19804 0.0
C1177 C 0.35036 0.55957 0.25104 0.0
C1178 C 0.39089 0.57994 0.16024 0.0
C1179 C 0.383 0.59819 0.13402 0.0
C1180 C 0.37124 0.62113 0.14513 0.0
C1181 C 0.36757 0.62542 0.18302 0.0
C1182 C 0.3756 0.60725 0.20921 0.0
H1183 H 0.33934 0.544 0.26481 0.0
H1184 H 0.34636 0.5776 0.26598 0.0
H1185 H 0.34334 0.56178 0.22221 0.0
H1186 H 0.39979 0.56238 0.15099 0.0
H1187 H 0.38592 0.59423 0.10501 0.0
H1188 H 0.50007 0.45167 0.36819 0.0
H1189 H 0.48243 0.43576 0.3102 0.0
H1190 H 0.42979 0.388 0.37137 0.0
H1191 H 0.44683 0.4043 0.4293 0.0
H1192 H 0.4847 0.38577 0.29004 0.0
H1193 H 0.38343 0.41742 0.29176 0.0
H1194 H 0.40776 0.43169 0.32034 0.0
H1195 H 0.39305 0.40196 0.33407 0.0
C1196 C 0.48445 0.43812 0.36925 0.0
C1197 C 0.47498 0.42912 0.4033 0.0
C1198 C 0.47437 0.42908 0.33611 0.0
C1199 C 0.4546 0.41092 0.33646 0.0
C1200 C 0.44462 0.40245 0.37041 0.0
H1201 H 0.3896 0.29911 0.19421 0.0
H1202 H 0.40228 0.32759 0.24429 0.0
C1203 C 0.45461 0.41157 0.40354 0.0
C1204 C 0.44637 0.39865 0.30175 0.0
H1205 H 0.39365 0.38284 0.25109 0.0
C1206 C 0.46486 0.38549 0.28115 0.0
C1207 C 0.42048 0.39829 0.29029 0.0
C1208 C 0.40006 0.4133 0.31007 0.0
C1209 C 0.45799 0.371 0.25031 0.0
C1210 C 0.43198 0.36991 0.23966 0.0
C1211 C 0.41356 0.38365 0.25956 0.0
C1212 C 0.42346 0.3536 0.20894 0.0
C1213 C 0.47842 0.35612 0.23026 0.0
C1214 C 0.43095 0.35906 0.17253 0.0
C1215 C 0.42388 0.34276 0.14393 0.0
C1216 C 0.40917 0.32076 0.15131 0.0
C1217 C 0.40127 0.31568 0.18776 0.0
C1218 C 0.4083 0.33202 0.21631 0.0
H1219 H 0.49668 0.35529 0.246 0.0
H1220 H 0.47192 0.33625 0.22496 0.0
H1221 H 0.48226 0.36547 0.20317 0.0
H1222 H 0.44247 0.37578 0.16633 0.0
H1223 H 0.43038 0.34709 0.11616 0.0
loop_
_geom_bond_atom_site_label_1
_geom_bond_atom_site_label_2
_geom_bond_distance
_geom_bond_site_symmetry_2
_ccdc_geom_bond_type
Zn0 O2 1.933 1_556 S
Zn0 O20 1.985 . S
Zn0 O31 1.955 . S
Zn1 O2 1.911 . S
Zn1 O21 1.970 . S
Zn1 O37 1.945 . S
Zn1 O44 1.981 . S
O2 Zn0 1.933 1_554 S
O2 Zn1 1.911 . S
O2 H3 0.841 1_655 S
H3 O2 0.841 1_455 S
C4 O5 1.246 . S
C4 O33 1.266 1_545 S
O5 C4 1.246 . S
Zn6 O8 1.911 . S
Zn6 O23 1.970 . S
Zn6 O40 1.945 . S
Zn6 O47 1.981 . S
Zn7 O8 1.933 1_556 S
Zn7 O22 1.985 . S
Zn7 O29 1.955 . S
O8 Zn6 1.911 . S
O8 Zn7 1.933 1_554 S
O8 H9 0.841 1_455 S
H9 O8 0.841 1_655 S
Zn10 O11 1.933 1_556 S
Zn10 O24 1.985 . S
Zn10 O33 1.959 . S
O11 Zn10 1.933 1_554 S
O11 Zn12 1.911 . S
O11 H13 0.841 1_565 S
Zn12 O11 1.911 . S
Zn12 O25 1.970 . S
Zn12 O41 1.981 . S
Zn12 O43 1.945 . S
H13 O11 0.841 1_545 S
Zn14 O15 1.933 1_556 S
Zn14 O27 1.985 . S
Zn14 O35 1.955 . S
O15 Zn14 1.933 1_554 S
O15 H16 0.841 1_545 S
O15 Zn17 1.911 . S
H16 O15 0.841 1_565 S
Zn17 O15 1.911 . S
Zn17 O28 1.970 . S
Zn17 O38 1.981 . S
Zn17 O46 1.945 . S
C18 O19 1.246 . S
C18 O35 1.276 1_565 S
O19 C18 1.246 . S
O20 Zn0 1.985 . S
O20 C30 1.245 1_556 S
O21 Zn1 1.970 . S
O21 C30 1.263 . S
O22 Zn7 1.985 . S
O22 C34 1.245 1_556 S
O23 Zn6 1.970 . S
O23 C34 1.263 . S
O24 Zn10 1.985 . S
O24 C39 1.245 1_556 S
O25 Zn12 1.970 . S
O25 C39 1.263 . S
C26 O37 1.262 1_455 S
C26 O38 1.245 . S
O27 Zn14 1.985 . S
O27 C45 1.245 1_556 S
O28 Zn17 1.970 . S
O28 C45 1.263 . S
O29 Zn7 1.955 . S
O29 C48 1.276 1_455 S
C30 O20 1.245 1_554 S
C30 O21 1.263 . S
O31 Zn0 1.955 . S
O31 C50 1.276 1_655 S
C32 O40 1.262 1_655 S
C32 O41 1.245 . S
O33 C4 1.266 1_565 S
O33 Zn10 1.959 . S
C34 O22 1.245 1_554 S
C34 O23 1.263 . S
O35 Zn14 1.955 . S
O35 C18 1.276 1_545 S
C36 O43 1.262 1_545 S
C36 O44 1.245 . S
O37 Zn1 1.945 . S
O37 C26 1.262 1_655 S
O38 Zn17 1.981 . S
O38 C26 1.245 . S
C39 O24 1.245 1_554 S
C39 O25 1.263 . S
O40 Zn6 1.945 . S
O40 C32 1.262 1_455 S
O41 Zn12 1.981 . S
O41 C32 1.245 . S
C42 O46 1.262 1_565 S
C42 O47 1.245 . S
O43 Zn12 1.945 . S
O43 C36 1.262 1_565 S
O44 Zn1 1.981 . S
O44 C36 1.245 . S
C45 O27 1.245 1_554 S
C45 O28 1.263 . S
O46 Zn17 1.945 . S
O46 C42 1.262 1_545 S
O47 Zn6 1.981 . S
O47 C42 1.245 . S
C48 O29 1.276 1_655 S
C48 O49 1.246 . S
O49 C48 1.246 . S
C50 O31 1.276 1_455 S
C50 O51 1.246 . S
O51 C50 1.246 . S
Zn52 O54 1.933 . S
Zn52 O72 1.985 . S
Zn52 O83 1.955 . S
Zn53 O54 1.911 . S
Zn53 O73 1.970 . S
Zn53 O89 1.945 . S
Zn53 O96 1.981 . S
O54 Zn52 1.933 . S
O54 Zn53 1.911 . S
O54 H55 0.841 . S
H55 O54 0.841 . S
C56 O57 1.246 . S
C56 O85 1.276 . S
O57 C56 1.246 . S
Zn58 O60 1.911 . S
Zn58 O75 1.970 . S
Zn58 O92 1.945 . S
Zn58 O99 1.981 . S
Zn59 O60 1.933 . S
Zn59 O74 1.985 . S
Zn59 O81 1.955 . S
O60 Zn58 1.911 . S
O60 Zn59 1.933 . S
O60 H61 0.841 . S
H61 O60 0.841 . S
Zn62 O63 1.933 . S
Zn62 O76 1.985 . S
Zn62 O85 1.955 . S
O63 Zn62 1.933 . S
O63 Zn64 1.911 . S
O63 H65 0.841 . S
Zn64 O63 1.911 . S
Zn64 O77 1.970 . S
Zn64 O93 1.981 . S
Zn64 O95 1.945 . S
H65 O63 0.841 . S
Zn66 O67 1.933 . S
Zn66 O79 1.985 . S
Zn66 O87 1.955 . S
O67 Zn66 1.933 . S
O67 H68 0.841 . S
O67 Zn69 1.911 . S
H68 O67 0.841 . S
Zn69 O67 1.911 . S
Zn69 O80 1.970 . S
Zn69 O90 1.981 . S
Zn69 O98 1.945 . S
C70 O71 1.246 . S
C70 O87 1.276 . S
O71 C70 1.246 . S
O72 Zn52 1.985 . S
O72 C82 1.245 . S
O73 Zn53 1.970 . S
O73 C82 1.263 . S
O74 Zn59 1.985 . S
O74 C86 1.245 . S
O75 Zn58 1.970 . S
O75 C86 1.263 . S
O76 Zn62 1.985 . S
O76 C91 1.245 . S
O77 Zn64 1.970 . S
O77 C91 1.263 . S
C78 O89 1.262 . S
C78 O90 1.245 . S
O79 Zn66 1.985 . S
O79 C97 1.245 . S
O80 Zn69 1.970 . S
O80 C97 1.263 . S
O81 Zn59 1.955 . S
O81 C100 1.276 . S
C82 O72 1.245 . S
C82 O73 1.263 . S
O83 Zn52 1.955 . S
O83 C102 1.276 . S
C84 O92 1.262 . S
C84 O93 1.245 . S
O85 C56 1.276 . S
O85 Zn62 1.955 . S
C86 O74 1.245 . S
C86 O75 1.263 . S
O87 Zn66 1.955 . S
O87 C70 1.276 . S
C88 O95 1.262 . S
C88 O96 1.245 . S
O89 Zn53 1.945 . S
O89 C78 1.262 . S
O90 Zn69 1.981 . S
O90 C78 1.245 . S
C91 O76 1.245 . S
C91 O77 1.263 . S
O92 Zn58 1.945 . S
O92 C84 1.262 . S
O93 Zn64 1.981 . S
O93 C84 1.245 . S
C94 O98 1.262 . S
C94 O99 1.245 . S
O95 Zn64 1.945 . S
O95 C88 1.262 . S
O96 Zn53 1.981 . S
O96 C88 1.245 . S
C97 O79 1.245 . S
C97 O80 1.263 . S
O98 Zn69 1.945 . S
O98 C94 1.262 . S
O99 Zn58 1.981 . S
O99 C94 1.245 . S
C100 O81 1.276 . S
C100 O101 1.246 . S
O101 C100 1.246 . S
C102 O83 1.276 . S
C102 O103 1.246 . S
O103 C102 1.246 . S
P104 O115 1.490 . S
P104 C118 1.812 . S
P104 C124 1.803 . S
P104 C130 1.819 1_554 S
H105 C119 0.941 . S
H106 C120 0.939 . S
H107 C122 0.940 . S
H108 C123 0.940 . S
H109 C125 0.939 . S
H110 C126 0.942 1_556 S
H111 C128 0.940 . S
H112 C129 0.939 . S
H113 C131 0.941 . S
H114 C135 0.939 . S
O115 P104 1.490 . S
H116 C132 0.939 . S
H117 C134 0.940 . S
C118 P104 1.812 . S
C118 C119 1.389 . S
C118 C123 1.391 . S
C119 H105 0.941 . S
C119 C118 1.389 . S
C119 C120 1.397 . S
C120 H106 0.939 . S
C120 C119 1.397 . S
C120 C121 1.378 . S
C121 C120 1.378 . S
C121 C122 1.378 . S
C122 H107 0.940 . S
C122 C121 1.378 . S
C122 C123 1.396 . S
C123 H108 0.940 . S
C123 C118 1.391 . S
C123 C122 1.396 . S
C124 P104 1.803 . S
C124 C125 1.378 . S
C124 C129 1.400 . S
C125 H109 0.939 . S
C125 C124 1.378 . S
C125 C126 1.361 . S
C126 H110 0.942 1_554 S
C126 C125 1.361 . S
C126 C127 1.369 . S
C127 C126 1.369 . S
C127 C128 1.404 . S
C128 H111 0.940 . S
C128 C127 1.404 . S
C128 C129 1.389 . S
C129 H112 0.939 . S
C129 C124 1.400 . S
C129 C128 1.389 . S
C130 P104 1.819 1_556 S
C130 C131 1.391 . S
C130 C135 1.391 . S
C131 H113 0.941 . S
C131 C130 1.391 . S
C131 C132 1.396 . S
C132 H116 0.939 . S
C132 C131 1.396 . S
C132 C133 1.397 . S
C133 C132 1.397 . S
C133 C134 1.385 . S
C134 H117 0.940 . S
C134 C133 1.385 . S
C134 C135 1.388 . S
C135 H114 0.939 . S
C135 C130 1.391 . S
C135 C134 1.388 . S
P136 O147 1.490 . S
P136 C150 1.812 . S
P136 C156 1.803 . S
P136 C162 1.819 1_554 S
H137 C151 0.941 . S
H138 C152 0.939 . S
H139 C154 0.940 . S
H140 C155 0.940 . S
H141 C157 0.939 1_556 S
H142 C158 0.942 1_556 S
H143 C160 0.940 . S
H144 C161 0.939 . S
H145 C163 0.941 . S
H146 C167 0.939 . S
O147 P136 1.490 . S
H148 C164 0.939 . S
H149 C166 0.940 . S
C150 P136 1.812 . S
C150 C151 1.389 . S
C150 C155 1.391 . S
C151 H137 0.941 . S
C151 C150 1.389 . S
C151 C152 1.397 . S
C152 H138 0.939 . S
C152 C151 1.397 . S
C152 C153 1.378 . S
C153 C152 1.378 . S
C153 C154 1.378 . S
C154 H139 0.940 . S
C154 C153 1.378 . S
C154 C155 1.396 . S
C155 H140 0.940 . S
C155 C150 1.391 . S
C155 C154 1.396 . S
C156 P136 1.803 . S
C156 C157 1.378 . S
C156 C161 1.400 . S
C157 H141 0.939 1_554 S
C157 C156 1.378 . S
C157 C158 1.361 . S
C158 H142 0.942 1_554 S
C158 C157 1.361 . S
C158 C159 1.369 . S
C159 C158 1.369 . S
C159 C160 1.404 . S
C160 H143 0.940 . S
C160 C159 1.404 . S
C160 C161 1.389 . S
C161 H144 0.939 . S
C161 C156 1.400 . S
C161 C160 1.389 . S
C162 P136 1.819 1_556 S
C162 C163 1.391 . S
C162 C167 1.391 . S
C163 H145 0.941 . S
C163 C162 1.391 . S
C163 C164 1.396 . S
C164 H148 0.939 . S
C164 C163 1.396 . S
C164 C165 1.397 . S
C165 C164 1.397 . S
C165 C166 1.385 . S
C166 H149 0.940 . S
C166 C165 1.385 . S
C166 C167 1.388 . S
C167 H146 0.939 . S
C167 C162 1.391 . S
C167 C166 1.388 . S
P168 O179 1.490 . S
P168 C182 1.812 1_554 S
P168 C188 1.803 . S
P168 C194 1.819 . S
H169 C183 0.941 . S
H170 C184 0.939 . S
H171 C186 0.940 . S
H172 C187 0.940 1_554 S
H173 C189 0.939 . S
H174 C190 0.942 . S
H175 C192 0.940 1_556 S
H176 C193 0.939 1_556 S
H177 C195 0.941 . S
H178 C199 0.939 . S
O179 P168 1.490 . S
H180 C196 0.939 . S
H181 C198 0.940 . S
C182 P168 1.812 1_556 S
C182 C183 1.389 . S
C182 C187 1.391 . S
C183 H169 0.941 . S
C183 C182 1.389 . S
C183 C184 1.397 . S
C184 H170 0.939 . S
C184 C183 1.397 . S
C184 C185 1.378 . S
C185 C184 1.378 . S
C185 C186 1.378 . S
C186 H171 0.940 . S
C186 C185 1.378 . S
C186 C187 1.396 . S
C187 H172 0.940 1_556 S
C187 C182 1.391 . S
C187 C186 1.396 . S
C188 P168 1.803 . S
C188 C189 1.378 . S
C188 C193 1.400 . S
C189 H173 0.939 . S
C189 C188 1.378 . S
C189 C190 1.361 . S
C190 H174 0.942 . S
C190 C189 1.361 . S
C190 C191 1.369 . S
C191 C190 1.369 . S
C191 C192 1.404 . S
C192 H175 0.940 1_554 S
C192 C191 1.404 . S
C192 C193 1.389 . S
C193 H176 0.939 1_554 S
C193 C188 1.400 . S
C193 C192 1.389 . S
C194 P168 1.819 . S
C194 C195 1.391 . S
C194 C199 1.391 . S
C195 H177 0.941 . S
C195 C194 1.391 . S
C195 C196 1.396 . S
C196 H180 0.939 . S
C196 C195 1.396 . S
C196 C197 1.397 . S
C197 C196 1.397 . S
C197 C198 1.385 . S
C198 H181 0.940 . S
C198 C197 1.385 . S
C198 C199 1.388 . S
C199 H178 0.939 . S
C199 C194 1.391 . S
C199 C198 1.388 . S
P200 O211 1.490 . S
P200 C214 1.812 1_554 S
P200 C220 1.803 . S
P200 C226 1.819 . S
H201 C215 0.941 . S
H202 C216 0.939 . S
H203 C218 0.940 . S
H204 C219 0.940 1_554 S
H205 C221 0.939 . S
H206 C222 0.942 . S
H207 C224 0.937 1_556 S
H208 C225 0.939 1_556 S
H209 C227 0.941 . S
H210 C231 0.939 . S
O211 P200 1.490 . S
H212 C228 0.939 . S
H213 C230 0.940 . S
C214 P200 1.812 1_556 S
C214 C215 1.389 . S
C214 C219 1.391 . S
C215 H201 0.941 . S
C215 C214 1.389 . S
C215 C216 1.397 . S
C216 H202 0.939 . S
C216 C215 1.397 . S
C216 C217 1.378 . S
C217 C216 1.378 . S
C217 C218 1.378 . S
C218 H203 0.940 . S
C218 C217 1.378 . S
C218 C219 1.396 . S
C219 H204 0.940 1_556 S
C219 C214 1.391 . S
C219 C218 1.396 . S
C220 P200 1.803 . S
C220 C221 1.378 . S
C220 C225 1.400 . S
C221 H205 0.939 . S
C221 C220 1.378 . S
C221 C222 1.361 . S
C222 H206 0.942 . S
C222 C221 1.361 . S
C222 C223 1.369 . S
C223 C222 1.369 . S
C223 C224 1.404 . S
C224 H207 0.937 1_554 S
C224 C223 1.404 . S
C224 C225 1.389 . S
C225 H208 0.939 1_554 S
C225 C220 1.400 . S
C225 C224 1.389 . S
C226 P200 1.819 . S
C226 C227 1.391 . S
C226 C231 1.391 . S
C227 H209 0.941 . S
C227 C226 1.391 . S
C227 C228 1.396 . S
C228 H212 0.939 . S
C228 C227 1.396 . S
C228 C229 1.397 . S
C229 C228 1.397 . S
C229 C230 1.385 . S
C230 H213 0.940 . S
C230 C229 1.385 . S
C230 C231 1.388 . S
C231 H210 0.939 . S
C231 C226 1.391 . S
C231 C230 1.388 . S
P232 O243 1.490 . S
P232 C246 1.812 . S
P232 C252 1.803 . S
P232 C258 1.819 . S
H233 C247 0.941 . S
H234 C248 0.939 . S
H235 C250 0.940 . S
H236 C251 0.940 . S
H237 C253 0.939 . S
H238 C254 0.942 . S
H239 C256 0.940 . S
H240 C257 0.939 . S
H241 C259 0.941 . S
H242 C263 0.939 . S
O243 P232 1.490 . S
H244 C260 0.939 . S
H245 C262 0.940 . S
C246 P232 1.812 . S
C246 C247 1.389 . S
C246 C251 1.391 . S
C247 H233 0.941 . S
C247 C246 1.389 . S
C247 C248 1.397 . S
C248 H234 0.939 . S
C248 C247 1.397 . S
C248 C249 1.378 . S
C249 C248 1.378 . S
C249 C250 1.378 . S
C250 H235 0.940 . S
C250 C249 1.378 . S
C250 C251 1.396 . S
C251 H236 0.940 . S
C251 C246 1.391 . S
C251 C250 1.396 . S
C252 P232 1.803 . S
C252 C253 1.378 . S
C252 C257 1.400 . S
C253 H237 0.939 . S
C253 C252 1.378 . S
C253 C254 1.361 . S
C254 H238 0.942 . S
C254 C253 1.361 . S
C254 C255 1.369 . S
C255 C254 1.369 . S
C255 C256 1.404 . S
C256 H239 0.940 . S
C256 C255 1.404 . S
C256 C257 1.389 . S
C257 H240 0.939 . S
C257 C252 1.400 . S
C257 C256 1.389 . S
C258 P232 1.819 . S
C258 C259 1.391 . S
C258 C263 1.391 . S
C259 H241 0.941 . S
C259 C258 1.391 . S
C259 C260 1.396 . S
C260 H244 0.939 . S
C260 C259 1.396 . S
C260 C261 1.397 . S
C261 C260 1.397 . S
C261 C262 1.385 . S
C262 H245 0.940 . S
C262 C261 1.385 . S
C262 C263 1.388 . S
C263 H242 0.939 . S
C263 C258 1.391 . S
C263 C262 1.388 . S
P264 O275 1.490 . S
P264 C278 1.812 . S
P264 C284 1.803 . S
P264 C290 1.819 . S
H265 C279 0.941 . S
H266 C280 0.939 . S
H267 C282 0.940 . S
H268 C283 0.940 . S
H269 C285 0.939 . S
H270 C286 0.942 . S
H271 C288 0.940 . S
H272 C289 0.939 . S
H273 C291 0.941 . S
H274 C295 0.939 . S
O275 P264 1.490 . S
H276 C292 0.939 . S
H277 C294 0.940 . S
C278 P264 1.812 . S
C278 C279 1.389 . S
C278 C283 1.391 . S
C279 H265 0.941 . S
C279 C278 1.389 . S
C279 C280 1.397 . S
C280 H266 0.939 . S
C280 C279 1.397 . S
C280 C281 1.378 . S
C281 C280 1.378 . S
C281 C282 1.378 . S
C282 H267 0.940 . S
C282 C281 1.378 . S
C282 C283 1.396 . S
C283 H268 0.940 . S
C283 C278 1.391 . S
C283 C282 1.396 . S
C284 P264 1.803 . S
C284 C285 1.378 . S
C284 C289 1.400 . S
C285 H269 0.939 . S
C285 C284 1.378 . S
C285 C286 1.361 . S
C286 H270 0.942 . S
C286 C285 1.361 . S
C286 C287 1.369 . S
C287 C286 1.369 . S
C287 C288 1.404 . S
C288 H271 0.940 . S
C288 C287 1.404 . S
C288 C289 1.389 . S
C289 H272 0.939 . S
C289 C284 1.400 . S
C289 C288 1.389 . S
C290 P264 1.819 . S
C290 C291 1.391 . S
C290 C295 1.391 . S
C291 H273 0.941 . S
C291 C290 1.391 . S
C291 C292 1.396 . S
C292 H276 0.939 . S
C292 C291 1.396 . S
C292 C293 1.397 . S
C293 C292 1.397 . S
C293 C294 1.385 . S
C294 H277 0.940 . S
C294 C293 1.385 . S
C294 C295 1.388 . S
C295 H274 0.939 . S
C295 C290 1.391 . S
C295 C294 1.388 . S
P296 O307 1.490 . S
P296 C310 1.812 . S
P296 C316 1.803 . S
P296 C322 1.819 . S
H297 C311 0.941 . S
H298 C312 0.939 . S
H299 C314 0.940 . S
H300 C315 0.940 . S
H301 C317 0.939 . S
H302 C318 0.942 . S
H303 C320 0.940 . S
H304 C321 0.939 . S
H305 C323 0.941 . S
H306 C327 0.939 . S
O307 P296 1.490 . S
H308 C324 0.939 . S
H309 C326 0.940 . S
C310 P296 1.812 . S
C310 C311 1.389 . S
C310 C315 1.391 . S
C311 H297 0.941 . S
C311 C310 1.389 . S
C311 C312 1.397 . S
C312 H298 0.939 . S
C312 C311 1.397 . S
C312 C313 1.378 . S
C313 C312 1.378 . S
C313 C314 1.378 . S
C314 H299 0.940 . S
C314 C313 1.378 . S
C314 C315 1.396 . S
C315 H300 0.940 . S
C315 C310 1.391 . S
C315 C314 1.396 . S
C316 P296 1.803 . S
C316 C317 1.378 . S
C316 C321 1.400 . S
C317 H301 0.939 . S
C317 C316 1.378 . S
C317 C318 1.361 . S
C318 H302 0.942 . S
C318 C317 1.361 . S
C318 C319 1.369 . S
C319 C318 1.369 . S
C319 C320 1.404 . S
C320 H303 0.940 . S
C320 C319 1.404 . S
C320 C321 1.389 . S
C321 H304 0.939 . S
C321 C316 1.400 . S
C321 C320 1.389 . S
C322 P296 1.819 . S
C322 C323 1.391 . S
C322 C327 1.391 . S
C323 H305 0.941 . S
C323 C322 1.391 . S
C323 C324 1.396 . S
C324 H308 0.939 . S
C324 C323 1.396 . S
C324 C325 1.397 . S
C325 C324 1.397 . S
C325 C326 1.385 . S
C326 H309 0.940 . S
C326 C325 1.385 . S
C326 C327 1.388 . S
C327 H306 0.939 . S
C327 C322 1.391 . S
C327 C326 1.388 . S
P328 O339 1.490 . S
P328 C342 1.812 . S
P328 C348 1.803 . S
P328 C354 1.819 . S
H329 C343 0.941 . S
H330 C344 0.939 . S
H331 C346 0.940 . S
H332 C347 0.940 . S
H333 C349 0.939 . S
H334 C350 0.942 . S
H335 C352 0.940 . S
H336 C353 0.939 . S
H337 C355 0.941 . S
H338 C359 0.939 . S
O339 P328 1.490 . S
H340 C356 0.939 . S
H341 C358 0.940 . S
C342 P328 1.812 . S
C342 C343 1.389 . S
C342 C347 1.391 . S
C343 H329 0.941 . S
C343 C342 1.389 . S
C343 C344 1.397 . S
C344 H330 0.939 . S
C344 C343 1.397 . S
C344 C345 1.378 . S
C345 C344 1.378 . S
C345 C346 1.378 . S
C346 H331 0.940 . S
C346 C345 1.378 . S
C346 C347 1.396 . S
C347 H332 0.940 . S
C347 C342 1.391 . S
C347 C346 1.396 . S
C348 P328 1.803 . S
C348 C349 1.378 . S
C348 C353 1.400 . S
C349 H333 0.939 . S
C349 C348 1.378 . S
C349 C350 1.361 . S
C350 H334 0.942 . S
C350 C349 1.361 . S
C350 C351 1.369 . S
C351 C350 1.369 . S
C351 C352 1.404 . S
C352 H335 0.940 . S
C352 C351 1.404 . S
C352 C353 1.389 . S
C353 H336 0.939 . S
C353 C348 1.400 . S
C353 C352 1.389 . S
C354 P328 1.819 . S
C354 C355 1.391 . S
C354 C359 1.391 . S
C355 H337 0.941 . S
C355 C354 1.391 . S
C355 C356 1.396 . S
C356 H340 0.939 . S
C356 C355 1.396 . S
C356 C357 1.397 . S
C357 C356 1.397 . S
C357 C358 1.385 . S
C358 H341 0.940 . S
C358 C357 1.385 . S
C358 C359 1.388 . S
C359 H338 0.939 . S
C359 C354 1.391 . S
C359 C358 1.388 . S
H360 C368 0.929 . S
H361 C370 0.930 . S
H362 C372 0.930 . S
H363 C375 0.929 . S
H364 C378 0.930 . S
H365 C380 0.960 . S
H366 C380 0.960 . S
H367 C380 0.960 . S
C368 H360 0.929 . S
C368 C369 1.377 . S
C368 C370 1.384 . S
C369 C368 1.377 . S
C369 C375 1.390 . S
C370 H361 0.930 . S
C370 C368 1.384 . S
C370 C371 1.372 . S
C371 C370 1.372 . S
C371 C372 1.400 . S
C371 C376 1.490 . S
C372 H362 0.930 . S
C372 C371 1.400 . S
C372 C375 1.386 . S
H373 C389 0.930 . S
H374 C390 0.931 . S
C375 H363 0.929 . S
C375 C369 1.390 . S
C375 C372 1.386 . S
C376 C371 1.490 . S
C376 C378 1.395 . S
C376 C379 1.403 1_554 S
H377 C383 0.941 . S
C378 H364 0.930 . S
C378 C376 1.395 . S
C378 C381 1.403 . S
C379 C376 1.403 1_556 S
C379 C380 1.524 . S
C379 C383 1.401 . S
C380 H365 0.960 . S
C380 H366 0.960 . S
C380 H367 0.960 . S
C380 C379 1.524 . S
C381 C378 1.403 . S
C381 C382 1.392 . S
C381 C385 1.495 . S
C382 C381 1.392 . S
C382 C383 1.374 1_554 S
C382 C384 1.478 . S
C383 H377 0.941 . S
C383 C379 1.401 . S
C383 C382 1.374 1_556 S
C384 C382 1.478 . S
C384 C386 1.381 . S
C384 C390 1.383 . S
C385 C381 1.495 . S
C385 H391 0.959 . S
C385 H392 0.961 . S
C385 H393 0.960 . S
C386 C384 1.381 . S
C386 C387 1.394 . S
C386 H394 0.930 . S
C387 C386 1.394 . S
C387 C388 1.383 . S
C387 H395 0.929 . S
C388 C387 1.383 . S
C388 C389 1.377 . S
C389 H373 0.930 . S
C389 C388 1.377 . S
C389 C390 1.379 . S
C390 H374 0.931 . S
C390 C384 1.383 . S
C390 C389 1.379 . S
H391 C385 0.959 . S
H392 C385 0.961 . S
H393 C385 0.960 . S
H394 C386 0.930 . S
H395 C387 0.929 . S
H396 C404 0.929 . S
H397 C406 0.930 . S
H398 C408 0.930 1_556 S
H399 C411 0.929 1_556 S
H400 C414 0.930 . S
H401 C416 0.960 . S
H402 C416 0.960 . S
H403 C416 0.960 . S
C404 H396 0.929 . S
C404 C405 1.377 . S
C404 C406 1.384 . S
C405 C404 1.377 . S
C405 C411 1.390 . S
C406 H397 0.930 . S
C406 C404 1.384 . S
C406 C407 1.372 . S
C407 C406 1.372 . S
C407 C408 1.400 . S
C407 C412 1.490 . S
C408 H398 0.930 1_554 S
C408 C407 1.400 . S
C408 C411 1.386 . S
H409 C425 0.930 . S
H410 C426 0.931 . S
C411 H399 0.929 1_554 S
C411 C405 1.390 . S
C411 C408 1.386 . S
C412 C407 1.490 . S
C412 C414 1.395 . S
C412 C415 1.403 . S
H413 C419 0.930 . S
C414 H400 0.930 . S
C414 C412 1.395 . S
C414 C417 1.403 . S
C415 C412 1.403 . S
C415 C416 1.524 . S
C415 C419 1.400 . S
C416 H401 0.960 . S
C416 H402 0.960 . S
C416 H403 0.960 . S
C416 C415 1.524 . S
C417 C414 1.403 . S
C417 C418 1.392 . S
C417 C421 1.495 1_554 S
C418 C417 1.392 . S
C418 C419 1.385 . S
C418 C420 1.478 . S
C419 H413 0.930 . S
C419 C415 1.400 . S
C419 C418 1.385 . S
C420 C418 1.478 . S
C420 C422 1.381 . S
C420 C426 1.383 1_554 S
C421 C417 1.495 1_556 S
C421 H427 0.959 . S
C421 H428 0.961 . S
C421 H429 0.960 1_556 S
C422 C420 1.381 . S
C422 C423 1.394 . S
C422 H430 0.930 . S
C423 C422 1.394 . S
C423 C424 1.383 . S
C423 H431 0.929 . S
C424 C423 1.383 . S
C424 C425 1.377 1_554 S
C425 H409 0.930 . S
C425 C424 1.377 1_556 S
C425 C426 1.379 . S
C426 H410 0.931 . S
C426 C420 1.383 1_556 S
C426 C425 1.379 . S
H427 C421 0.959 . S
H428 C421 0.961 . S
H429 C421 0.960 1_554 S
H430 C422 0.930 . S
H431 C423 0.929 . S
H432 C440 0.929 . S
H433 C442 0.930 . S
H434 C444 0.930 . S
H435 C447 0.929 . S
H436 C450 0.930 . S
H437 C452 0.960 . S
H438 C452 0.960 . S
H439 C452 0.960 . S
C440 H432 0.929 . S
C440 C441 1.377 . S
C440 C442 1.384 . S
C441 C440 1.377 . S
C441 C447 1.390 . S
C442 H433 0.930 . S
C442 C440 1.384 . S
C442 C443 1.372 . S
C443 C442 1.372 . S
C443 C444 1.400 . S
C443 C448 1.490 . S
C444 H434 0.930 . S
C444 C443 1.400 . S
C444 C447 1.386 . S
H445 C461 0.939 . S
H446 C462 0.931 1_556 S
C447 H435 0.929 . S
C447 C441 1.390 . S
C447 C444 1.386 . S
C448 C443 1.490 . S
C448 C450 1.395 1_554 S
C448 C451 1.403 . S
H449 C455 0.930 . S
C450 H436 0.930 . S
C450 C448 1.395 1_556 S
C450 C453 1.403 . S
C451 C448 1.403 . S
C451 C452 1.524 . S
C451 C455 1.400 . S
C452 H437 0.960 . S
C452 H438 0.960 . S
C452 H439 0.960 . S
C452 C451 1.524 . S
C453 C450 1.403 . S
C453 C454 1.392 1_556 S
C453 C457 1.495 . S
C454 C453 1.392 1_554 S
C454 C455 1.385 . S
C454 C456 1.478 . S
C455 H449 0.930 . S
C455 C451 1.400 . S
C455 C454 1.385 . S
C456 C454 1.478 . S
C456 C458 1.381 . S
C456 C462 1.383 . S
C457 C453 1.495 . S
C457 H463 0.959 . S
C457 H464 0.961 . S
C457 H465 0.960 . S
C458 C456 1.381 . S
C458 C459 1.394 . S
C458 H466 0.930 . S
C459 C458 1.394 . S
C459 C460 1.383 . S
C459 H467 0.929 . S
C460 C459 1.383 . S
C460 C461 1.377 . S
C461 H445 0.939 . S
C461 C460 1.377 . S
C461 C462 1.379 . S
C462 H446 0.931 1_554 S
C462 C456 1.383 . S
C462 C461 1.379 . S
H463 C457 0.959 . S
H464 C457 0.961 . S
H465 C457 0.960 . S
H466 C458 0.930 . S
H467 C459 0.929 . S
H468 C476 0.946 . S
H469 C478 0.930 . S
H470 C480 0.930 . S
H471 C483 0.929 . S
H472 C486 0.930 . S
H473 C488 0.960 . S
H474 C488 0.960 . S
H475 C488 0.960 . S
C476 H468 0.946 . S
C476 C477 1.360 1_556 S
C476 C478 1.385 . S
C477 C476 1.360 1_554 S
C477 C483 1.390 . S
C478 H469 0.930 . S
C478 C476 1.385 . S
C478 C479 1.372 1_556 S
C479 C478 1.372 1_554 S
C479 C480 1.400 . S
C479 C484 1.490 . S
C480 H470 0.930 . S
C480 C479 1.400 . S
C480 C483 1.386 . S
H481 C497 0.930 . S
H482 C498 0.931 . S
C483 H471 0.929 . S
C483 C477 1.390 . S
C483 C480 1.386 . S
C484 C479 1.490 . S
C484 C486 1.395 1_554 S
C484 C487 1.403 . S
H485 C491 0.930 . S
C486 H472 0.930 . S
C486 C484 1.395 1_556 S
C486 C489 1.403 . S
C487 C484 1.403 . S
C487 C488 1.524 . S
C487 C491 1.400 . S
C488 H473 0.960 . S
C488 H474 0.960 . S
C488 H475 0.960 . S
C488 C487 1.524 . S
C489 C486 1.403 . S
C489 C490 1.392 1_556 S
C489 C493 1.495 . S
C490 C489 1.392 1_554 S
C490 C491 1.385 . S
C490 C492 1.478 . S
C491 H485 0.930 . S
C491 C487 1.400 . S
C491 C490 1.385 . S
C492 C490 1.478 . S
C492 C494 1.381 1_554 S
C492 C498 1.383 . S
C493 C489 1.495 . S
C493 H499 0.959 . S
C493 H500 0.961 . S
C493 H501 0.960 . S
C494 C492 1.381 1_556 S
C494 C495 1.394 . S
C494 H502 0.930 . S
C495 C494 1.394 . S
C495 C496 1.383 1_556 S
C495 H503 0.929 . S
C496 C495 1.383 1_554 S
C496 C497 1.377 . S
C497 H481 0.930 . S
C497 C496 1.377 . S
C497 C498 1.379 . S
C498 H482 0.931 . S
C498 C492 1.383 . S
C498 C497 1.379 . S
H499 C493 0.959 . S
H500 C493 0.961 . S
H501 C493 0.960 . S
H502 C494 0.930 . S
H503 C495 0.929 . S
H504 C512 0.929 . S
H505 C514 0.930 . S
H506 C516 0.930 . S
H507 C519 0.929 . S
H508 C522 0.930 . S
H509 C524 0.960 . S
H510 C524 0.960 . S
H511 C524 0.960 . S
C512 H504 0.929 . S
C512 C513 1.377 . S
C512 C514 1.384 . S
C513 C512 1.377 . S
C513 C519 1.390 . S
C514 H505 0.930 . S
C514 C512 1.384 . S
C514 C515 1.372 . S
C515 C514 1.372 . S
C515 C516 1.400 . S
C515 C520 1.490 . S
C516 H506 0.930 . S
C516 C515 1.400 . S
C516 C519 1.386 . S
H517 C533 0.930 . S
H518 C534 0.931 . S
C519 H507 0.929 . S
C519 C513 1.390 . S
C519 C516 1.386 . S
C520 C515 1.490 . S
C520 C522 1.395 . S
C520 C523 1.403 . S
H521 C527 0.930 . S
C522 H508 0.930 . S
C522 C520 1.395 . S
C522 C525 1.403 . S
C523 C520 1.403 . S
C523 C524 1.524 . S
C523 C527 1.400 . S
C524 H509 0.960 . S
C524 H510 0.960 . S
C524 H511 0.960 . S
C524 C523 1.524 . S
C525 C522 1.403 . S
C525 C526 1.392 . S
C525 C529 1.495 . S
C526 C525 1.392 . S
C526 C527 1.385 . S
C526 C528 1.478 . S
C527 H521 0.930 . S
C527 C523 1.400 . S
C527 C526 1.385 . S
C528 C526 1.478 . S
C528 C530 1.381 . S
C528 C534 1.383 . S
C529 C525 1.495 . S
C529 H535 0.959 . S
C529 H536 0.961 . S
C529 H537 0.960 . S
C530 C528 1.381 . S
C530 C531 1.394 . S
C530 H538 0.930 . S
C531 C530 1.394 . S
C531 C532 1.383 . S
C531 H539 0.929 . S
C532 C531 1.383 . S
C532 C533 1.377 . S
C533 H517 0.930 . S
C533 C532 1.377 . S
C533 C534 1.379 . S
C534 H518 0.931 . S
C534 C528 1.383 . S
C534 C533 1.379 . S
H535 C529 0.959 . S
H536 C529 0.961 . S
H537 C529 0.960 . S
H538 C530 0.930 . S
H539 C531 0.929 . S
H540 C548 0.929 . S
H541 C550 0.930 . S
H542 C552 0.930 . S
H543 C555 0.929 . S
H544 C558 0.930 . S
H545 C560 0.960 . S
H546 C560 0.960 . S
H547 C560 0.960 . S
C548 H540 0.929 . S
C548 C549 1.377 . S
C548 C550 1.384 . S
C549 C548 1.377 . S
C549 C555 1.390 . S
C550 H541 0.930 . S
C550 C548 1.384 . S
C550 C551 1.372 . S
C551 C550 1.372 . S
C551 C552 1.400 . S
C551 C556 1.490 . S
C552 H542 0.930 . S
C552 C551 1.400 . S
C552 C555 1.386 . S
H553 C569 0.930 . S
H554 C570 0.931 . S
C555 H543 0.929 . S
C555 C549 1.390 . S
C555 C552 1.386 . S
C556 C551 1.490 . S
C556 C558 1.395 . S
C556 C559 1.403 . S
H557 C563 0.930 . S
C558 H544 0.930 . S
C558 C556 1.395 . S
C558 C561 1.403 . S
C559 C556 1.403 . S
C559 C560 1.524 . S
C559 C563 1.400 . S
C560 H545 0.960 . S
C560 H546 0.960 . S
C560 H547 0.960 . S
C560 C559 1.524 . S
C561 C558 1.403 . S
C561 C562 1.392 . S
C561 C565 1.495 . S
C562 C561 1.392 . S
C562 C563 1.385 . S
C562 C564 1.478 . S
C563 H557 0.930 . S
C563 C559 1.400 . S
C563 C562 1.385 . S
C564 C562 1.478 . S
C564 C566 1.381 . S
C564 C570 1.383 . S
C565 C561 1.495 . S
C565 H571 0.959 . S
C565 H572 0.961 . S
C565 H573 0.960 . S
C566 C564 1.381 . S
C566 C567 1.394 . S
C566 H574 0.930 . S
C567 C566 1.394 . S
C567 C568 1.383 . S
C567 H575 0.929 . S
C568 C567 1.383 . S
C568 C569 1.377 . S
C569 H553 0.930 . S
C569 C568 1.377 . S
C569 C570 1.379 . S
C570 H554 0.931 . S
C570 C564 1.383 . S
C570 C569 1.379 . S
H571 C565 0.959 . S
H572 C565 0.961 . S
H573 C565 0.960 . S
H574 C566 0.930 . S
H575 C567 0.929 . S
H576 C584 0.929 . S
H577 C586 0.930 . S
H578 C588 0.930 . S
H579 C591 0.929 . S
H580 C594 0.930 . S
H581 C596 0.960 . S
H582 C596 0.960 . S
H583 C596 0.960 . S
C584 H576 0.929 . S
C584 C585 1.377 . S
C584 C586 1.384 . S
C585 C584 1.377 . S
C585 C591 1.390 . S
C586 H577 0.930 . S
C586 C584 1.384 . S
C586 C587 1.372 . S
C587 C586 1.372 . S
C587 C588 1.400 . S
C587 C592 1.490 . S
C588 H578 0.930 . S
C588 C587 1.400 . S
C588 C591 1.386 . S
H589 C605 0.930 . S
H590 C606 0.931 . S
C591 H579 0.929 . S
C591 C585 1.390 . S
C591 C588 1.386 . S
C592 C587 1.490 . S
C592 C594 1.395 . S
C592 C595 1.403 . S
H593 C599 0.930 . S
C594 H580 0.930 . S
C594 C592 1.395 . S
C594 C597 1.403 . S
C595 C592 1.403 . S
C595 C596 1.524 . S
C595 C599 1.400 . S
C596 H581 0.960 . S
C596 H582 0.960 . S
C596 H583 0.960 . S
C596 C595 1.524 . S
C597 C594 1.403 . S
C597 C598 1.392 . S
C597 C601 1.495 . S
C598 C597 1.392 . S
C598 C599 1.385 . S
C598 C600 1.478 . S
C599 H593 0.930 . S
C599 C595 1.400 . S
C599 C598 1.385 . S
C600 C598 1.478 . S
C600 C602 1.381 . S
C600 C606 1.383 . S
C601 C597 1.495 . S
C601 H607 0.959 . S
C601 H608 0.961 . S
C601 H609 0.960 . S
C602 C600 1.381 . S
C602 C603 1.394 . S
C602 H610 0.930 . S
C603 C602 1.394 . S
C603 C604 1.383 . S
C603 H611 0.929 . S
C604 C603 1.383 . S
C604 C605 1.377 . S
C605 H589 0.930 . S
C605 C604 1.377 . S
C605 C606 1.379 . S
C606 H590 0.931 . S
C606 C600 1.383 . S
C606 C605 1.379 . S
H607 C601 0.959 . S
H608 C601 0.961 . S
H609 C601 0.960 . S
H610 C602 0.930 . S
H611 C603 0.929 . S
H612 C620 0.929 . S
H613 C622 0.930 . S
H614 C624 0.930 . S
H615 C627 0.929 . S
H616 C630 0.930 . S
H617 C632 0.960 . S
H618 C632 0.960 . S
H619 C632 0.960 . S
C620 H612 0.929 . S
C620 C621 1.377 . S
C620 C622 1.384 . S
C621 C620 1.377 . S
C621 C627 1.390 . S
C622 H613 0.930 . S
C622 C620 1.384 . S
C622 C623 1.372 . S
C623 C622 1.372 . S
C623 C624 1.400 . S
C623 C628 1.490 . S
C624 H614 0.930 . S
C624 C623 1.400 . S
C624 C627 1.386 . S
H625 C641 0.930 . S
H626 C642 0.931 . S
C627 H615 0.929 . S
C627 C621 1.390 . S
C627 C624 1.386 . S
C628 C623 1.490 . S
C628 C630 1.395 . S
C628 C631 1.403 . S
H629 C635 0.930 . S
C630 H616 0.930 . S
C630 C628 1.395 . S
C630 C633 1.403 . S
C631 C628 1.403 . S
C631 C632 1.524 . S
C631 C635 1.400 . S
C632 H617 0.960 . S
C632 H618 0.960 . S
C632 H619 0.960 . S
C632 C631 1.524 . S
C633 C630 1.403 . S
C633 C634 1.392 . S
C633 C637 1.495 . S
C634 C633 1.392 . S
C634 C635 1.385 . S
C634 C636 1.478 . S
C635 H629 0.930 . S
C635 C631 1.400 . S
C635 C634 1.385 . S
C636 C634 1.478 . S
C636 C638 1.381 . S
C636 C642 1.383 . S
C637 C633 1.495 . S
C637 H643 0.959 . S
C637 H644 0.961 . S
C637 H645 0.960 . S
C638 C636 1.381 . S
C638 C639 1.394 . S
C638 H646 0.930 . S
C639 C638 1.394 . S
C639 C640 1.383 . S
C639 H647 0.929 . S
C640 C639 1.383 . S
C640 C641 1.377 . S
C641 H625 0.930 . S
C641 C640 1.377 . S
C641 C642 1.379 . S
C642 H626 0.931 . S
C642 C636 1.383 . S
C642 C641 1.379 . S
H643 C637 0.959 . S
H644 C637 0.961 . S
H645 C637 0.960 . S
H646 C638 0.930 . S
H647 C639 0.929 . S
H648 C656 0.929 . S
H649 C658 0.930 . S
H650 C660 0.930 . S
H651 C663 0.929 . S
H652 C666 0.930 . S
H653 C668 0.960 . S
H654 C668 0.960 . S
H655 C668 0.960 . S
C656 H648 0.929 . S
C656 C657 1.377 . S
C656 C658 1.384 . S
C657 C656 1.377 . S
C657 C663 1.390 . S
C658 H649 0.930 . S
C658 C656 1.384 . S
C658 C659 1.372 . S
C659 C658 1.372 . S
C659 C660 1.400 . S
C659 C664 1.490 . S
C660 H650 0.930 . S
C660 C659 1.400 . S
C660 C663 1.386 . S
H661 C677 0.930 . S
H662 C678 0.931 . S
C663 H651 0.929 . S
C663 C657 1.390 . S
C663 C660 1.386 . S
C664 C659 1.490 . S
C664 C666 1.395 . S
C664 C667 1.403 . S
H665 C671 0.930 . S
C666 H652 0.930 . S
C666 C664 1.395 . S
C666 C669 1.403 . S
C667 C664 1.403 . S
C667 C668 1.524 . S
C667 C671 1.400 . S
C668 H653 0.960 . S
C668 H654 0.960 . S
C668 H655 0.960 . S
C668 C667 1.524 . S
C669 C666 1.403 . S
C669 C670 1.392 . S
C669 C673 1.495 . S
C670 C669 1.392 . S
C670 C671 1.385 . S
C670 C672 1.478 . S
C671 H665 0.930 . S
C671 C667 1.400 . S
C671 C670 1.385 . S
C672 C670 1.478 . S
C672 C674 1.381 . S
C672 C678 1.383 . S
C673 C669 1.495 . S
C673 H679 0.959 1_455 S
C673 H680 0.961 . S
C673 H681 0.960 . S
C674 C672 1.381 . S
C674 C675 1.394 . S
C674 H682 0.930 . S
C675 C674 1.394 . S
C675 C676 1.383 . S
C675 H683 0.929 . S
C676 C675 1.383 . S
C676 C677 1.377 . S
C677 H661 0.930 . S
C677 C676 1.377 . S
C677 C678 1.379 . S
C678 H662 0.931 . S
C678 C672 1.383 . S
C678 C677 1.379 . S
H679 C673 0.959 1_655 S
H680 C673 0.961 . S
H681 C673 0.960 . S
H682 C674 0.930 . S
H683 C675 0.929 . S
H684 C692 0.929 . S
H685 C694 0.930 . S
H686 C696 0.930 . S
H687 C699 0.929 . S
H688 C702 0.930 . S
H689 C704 0.960 . S
H690 C704 0.960 . S
H691 C704 0.960 . S
C692 H684 0.929 . S
C692 C693 1.377 . S
C692 C694 1.384 . S
C693 C692 1.377 . S
C693 C699 1.390 . S
C694 H685 0.930 . S
C694 C692 1.384 . S
C694 C695 1.372 . S
C695 C694 1.372 . S
C695 C696 1.400 . S
C695 C700 1.490 . S
C696 H686 0.930 . S
C696 C695 1.400 . S
C696 C699 1.386 . S
H697 C713 0.930 . S
H698 C714 0.931 . S
C699 H687 0.929 . S
C699 C693 1.390 . S
C699 C696 1.386 . S
C700 C695 1.490 . S
C700 C702 1.395 . S
C700 C703 1.403 . S
H701 C707 0.930 . S
C702 H688 0.930 . S
C702 C700 1.395 . S
C702 C705 1.403 . S
C703 C700 1.403 . S
C703 C704 1.524 . S
C703 C707 1.400 . S
C704 H689 0.960 . S
C704 H690 0.960 . S
C704 H691 0.960 . S
C704 C703 1.524 . S
C705 C702 1.403 . S
C705 C706 1.392 . S
C705 C709 1.495 . S
C706 C705 1.392 . S
C706 C707 1.385 . S
C706 C708 1.478 . S
C707 H701 0.930 . S
C707 C703 1.400 . S
C707 C706 1.385 . S
C708 C706 1.478 . S
C708 C710 1.381 . S
C708 C714 1.383 . S
C709 C705 1.495 . S
C709 H715 0.959 1_545 S
C709 H716 0.961 . S
C709 H717 0.960 . S
C710 C708 1.381 . S
C710 C711 1.394 . S
C710 H718 0.930 . S
C711 C710 1.394 . S
C711 C712 1.383 . S
C711 H719 0.929 . S
C712 C711 1.383 . S
C712 C713 1.377 . S
C713 H697 0.930 . S
C713 C712 1.377 . S
C713 C714 1.379 . S
C714 H698 0.931 . S
C714 C708 1.383 . S
C714 C713 1.379 . S
H715 C709 0.959 1_565 S
H716 C709 0.961 . S
H717 C709 0.960 . S
H718 C710 0.930 . S
H719 C711 0.929 . S
H720 C728 0.929 . S
H721 C730 0.930 . S
H722 C732 0.930 . S
H723 C735 0.929 . S
H724 C738 0.930 . S
H725 C740 0.960 . S
H726 C740 0.960 . S
H727 C740 0.960 . S
C728 H720 0.929 . S
C728 C729 1.377 . S
C728 C730 1.384 . S
C729 C728 1.377 . S
C729 C735 1.390 . S
C730 H721 0.930 . S
C730 C728 1.384 . S
C730 C731 1.372 . S
C731 C730 1.372 . S
C731 C732 1.400 . S
C731 C736 1.490 . S
C732 H722 0.930 . S
C732 C731 1.400 . S
C732 C735 1.386 . S
H733 C749 0.930 . S
H734 C750 0.931 . S
C735 H723 0.929 . S
C735 C729 1.390 . S
C735 C732 1.386 . S
C736 C731 1.490 . S
C736 C738 1.395 . S
C736 C739 1.403 . S
H737 C743 0.930 . S
C738 H724 0.930 . S
C738 C736 1.395 . S
C738 C741 1.403 . S
C739 C736 1.403 . S
C739 C740 1.524 . S
C739 C743 1.400 . S
C740 H725 0.960 . S
C740 H726 0.960 . S
C740 H727 0.960 . S
C740 C739 1.524 . S
C741 C738 1.403 . S
C741 C742 1.392 . S
C741 C745 1.495 . S
C742 C741 1.392 . S
C742 C743 1.385 . S
C742 C744 1.478 . S
C743 H737 0.930 . S
C743 C739 1.400 . S
C743 C742 1.385 . S
C744 C742 1.478 . S
C744 C746 1.381 . S
C744 C750 1.383 . S
C745 C741 1.495 . S
C745 H751 0.959 . S
C745 H752 0.961 . S
C745 H753 0.960 . S
C746 C744 1.381 . S
C746 C747 1.394 . S
C746 H754 0.930 . S
C747 C746 1.394 . S
C747 C748 1.383 . S
C747 H755 0.929 . S
C748 C747 1.383 . S
C748 C749 1.377 . S
C749 H733 0.930 . S
C749 C748 1.377 . S
C749 C750 1.379 . S
C750 H734 0.931 . S
C750 C744 1.383 . S
C750 C749 1.379 . S
H751 C745 0.959 . S
H752 C745 0.961 . S
H753 C745 0.960 . S
H754 C746 0.930 . S
H755 C747 0.929 . S
H756 C764 0.929 . S
H757 C766 0.930 . S
H758 C768 0.930 . S
H759 C771 0.929 . S
H760 C774 0.930 . S
H761 C776 0.960 . S
H762 C776 0.960 . S
H763 C776 0.960 . S
C764 H756 0.929 . S
C764 C765 1.377 . S
C764 C766 1.384 . S
C765 C764 1.377 . S
C765 C771 1.390 . S
C766 H757 0.930 . S
C766 C764 1.384 . S
C766 C767 1.372 . S
C767 C766 1.372 . S
C767 C768 1.400 . S
C767 C772 1.490 . S
C768 H758 0.930 . S
C768 C767 1.400 . S
C768 C771 1.386 . S
H769 C785 0.930 . S
H770 C786 0.931 . S
C771 H759 0.929 . S
C771 C765 1.390 . S
C771 C768 1.386 . S
C772 C767 1.490 . S
C772 C774 1.395 . S
C772 C775 1.403 . S
H773 C779 0.930 . S
C774 H760 0.930 . S
C774 C772 1.395 . S
C774 C777 1.403 . S
C775 C772 1.403 . S
C775 C776 1.524 . S
C775 C779 1.400 . S
C776 H761 0.960 . S
C776 H762 0.960 . S
C776 H763 0.960 . S
C776 C775 1.524 . S
C777 C774 1.403 . S
C777 C778 1.392 . S
C777 C781 1.495 . S
C778 C777 1.392 . S
C778 C779 1.385 . S
C778 C780 1.478 . S
C779 H773 0.930 . S
C779 C775 1.400 . S
C779 C778 1.385 . S
C780 C778 1.478 . S
C780 C782 1.381 . S
C780 C786 1.383 . S
C781 C777 1.495 . S
C781 H787 0.959 . S
C781 H788 0.961 . S
C781 H789 0.960 . S
C782 C780 1.381 . S
C782 C783 1.394 . S
C782 H790 0.930 . S
C783 C782 1.394 . S
C783 C784 1.383 . S
C783 H791 0.929 . S
C784 C783 1.383 . S
C784 C785 1.377 . S
C785 H769 0.930 . S
C785 C784 1.377 . S
C785 C786 1.379 . S
C786 H770 0.931 . S
C786 C780 1.383 . S
C786 C785 1.379 . S
H787 C781 0.959 . S
H788 C781 0.961 . S
H789 C781 0.960 . S
H790 C782 0.930 . S
H791 C783 0.929 . S
H792 C800 0.929 . S
H793 C802 0.930 . S
H794 C804 0.930 . S
H795 C807 0.931 . S
H796 C810 0.930 . S
H797 C812 0.960 . S
H798 C812 0.960 . S
H799 C812 0.960 . S
C800 H792 0.929 . S
C800 C801 1.377 . S
C800 C802 1.384 . S
C801 C800 1.377 . S
C801 C807 1.390 . S
C802 H793 0.930 . S
C802 C800 1.384 . S
C802 C803 1.372 . S
C803 C802 1.372 . S
C803 C804 1.400 . S
C803 C808 1.490 . S
C804 H794 0.930 . S
C804 C803 1.400 . S
C804 C807 1.386 . S
H805 C821 0.930 . S
H806 C822 0.931 . S
C807 H795 0.931 . S
C807 C801 1.390 . S
C807 C804 1.386 . S
C808 C803 1.490 . S
C808 C810 1.395 . S
C808 C811 1.403 . S
H809 C815 0.930 . S
C810 H796 0.930 . S
C810 C808 1.395 . S
C810 C813 1.403 . S
C811 C808 1.403 . S
C811 C812 1.524 . S
C811 C815 1.400 . S
C812 H797 0.960 . S
C812 H798 0.960 . S
C812 H799 0.960 . S
C812 C811 1.524 . S
C813 C810 1.403 . S
C813 C814 1.392 . S
C813 C817 1.495 . S
C814 C813 1.392 . S
C814 C815 1.385 . S
C814 C816 1.478 . S
C815 H809 0.930 . S
C815 C811 1.400 . S
C815 C814 1.385 . S
C816 C814 1.478 . S
C816 C818 1.381 . S
C816 C822 1.383 . S
C817 C813 1.495 . S
C817 H823 0.959 . S
C817 H824 0.961 . S
C817 H825 0.960 . S
C818 C816 1.381 . S
C818 C819 1.394 . S
C818 H826 0.930 . S
C819 C818 1.394 . S
C819 C820 1.383 . S
C819 H827 0.929 . S
C820 C819 1.383 . S
C820 C821 1.377 . S
C821 H805 0.930 . S
C821 C820 1.377 . S
C821 C822 1.379 . S
C822 H806 0.931 . S
C822 C816 1.383 . S
C822 C821 1.379 . S
H823 C817 0.959 . S
H824 C817 0.961 . S
H825 C817 0.960 . S
H826 C818 0.930 . S
H827 C819 0.929 . S
H828 C836 0.929 . S
H829 C838 0.930 . S
H830 C840 0.930 . S
H831 C843 0.929 1_655 S
H832 C846 0.930 . S
H833 C848 0.960 . S
H834 C848 0.960 . S
H835 C848 0.960 1_655 S
C836 H828 0.929 . S
C836 C837 1.377 . S
C836 C838 1.384 . S
C837 C836 1.377 . S
C837 C843 1.390 . S
C838 H829 0.930 . S
C838 C836 1.384 . S
C838 C839 1.372 . S
C839 C838 1.372 . S
C839 C840 1.400 . S
C839 C844 1.490 . S
C840 H830 0.930 . S
C840 C839 1.400 . S
C840 C843 1.386 . S
H841 C857 0.930 . S
H842 C858 0.931 . S
C843 H831 0.929 1_455 S
C843 C837 1.390 . S
C843 C840 1.386 . S
C844 C839 1.490 . S
C844 C846 1.395 . S
C844 C847 1.403 . S
H845 C851 0.930 . S
C846 H832 0.930 . S
C846 C844 1.395 . S
C846 C849 1.403 . S
C847 C844 1.403 . S
C847 C848 1.524 . S
C847 C851 1.400 . S
C848 H833 0.960 . S
C848 H834 0.960 . S
C848 H835 0.960 1_455 S
C848 C847 1.524 . S
C849 C846 1.403 . S
C849 C850 1.392 . S
C849 C853 1.495 . S
C850 C849 1.392 . S
C850 C851 1.385 . S
C850 C852 1.478 . S
C851 H845 0.930 . S
C851 C847 1.400 . S
C851 C850 1.385 . S
C852 C850 1.478 . S
C852 C854 1.381 . S
C852 C858 1.383 . S
C853 C849 1.495 . S
C853 H859 0.959 . S
C853 H860 0.961 . S
C853 H861 0.960 . S
C854 C852 1.381 . S
C854 C855 1.394 . S
C854 H862 0.930 . S
C855 C854 1.394 . S
C855 C856 1.383 . S
C855 H863 0.929 . S
C856 C855 1.383 . S
C856 C857 1.377 . S
C857 H841 0.930 . S
C857 C856 1.377 . S
C857 C858 1.379 . S
C858 H842 0.931 . S
C858 C852 1.383 . S
C858 C857 1.379 . S
H859 C853 0.959 . S
H860 C853 0.961 . S
H861 C853 0.960 . S
H862 C854 0.930 . S
H863 C855 0.929 . S
H864 C872 0.929 . S
H865 C874 0.930 . S
H866 C876 0.930 . S
H867 C879 0.929 . S
H868 C882 0.930 . S
H869 C884 0.960 . S
H870 C884 0.960 1_565 S
H871 C884 0.960 . S
C872 H864 0.929 . S
C872 C873 1.377 . S
C872 C874 1.384 . S
C873 C872 1.377 . S
C873 C879 1.390 . S
C874 H865 0.930 . S
C874 C872 1.384 . S
C874 C875 1.372 . S
C875 C874 1.372 . S
C875 C876 1.400 . S
C875 C880 1.490 . S
C876 H866 0.930 . S
C876 C875 1.400 . S
C876 C879 1.386 . S
H877 C893 0.930 . S
H878 C894 0.931 . S
C879 H867 0.929 . S
C879 C873 1.390 . S
C879 C876 1.386 . S
C880 C875 1.490 . S
C880 C882 1.395 . S
C880 C883 1.403 . S
H881 C887 0.930 . S
C882 H868 0.930 . S
C882 C880 1.395 . S
C882 C885 1.403 . S
C883 C880 1.403 . S
C883 C884 1.524 . S
C883 C887 1.400 . S
C884 H869 0.960 . S
C884 H870 0.960 1_545 S
C884 H871 0.960 . S
C884 C883 1.524 . S
C885 C882 1.403 . S
C885 C886 1.392 . S
C885 C889 1.495 . S
C886 C885 1.392 . S
C886 C887 1.385 . S
C886 C888 1.478 . S
C887 H881 0.930 . S
C887 C883 1.400 . S
C887 C886 1.385 . S
C888 C886 1.478 . S
C888 C890 1.381 . S
C888 C894 1.383 . S
C889 C885 1.495 . S
C889 H895 0.959 . S
C889 H896 0.961 . S
C889 H897 0.960 . S
C890 C888 1.381 . S
C890 C891 1.394 . S
C890 H898 0.930 . S
C891 C890 1.394 . S
C891 C892 1.383 . S
C891 H899 0.929 . S
C892 C891 1.383 . S
C892 C893 1.377 . S
C893 H877 0.930 . S
C893 C892 1.377 . S
C893 C894 1.379 . S
C894 H878 0.931 . S
C894 C888 1.383 . S
C894 C893 1.379 . S
H895 C889 0.959 . S
H896 C889 0.961 . S
H897 C889 0.960 . S
H898 C890 0.930 . S
H899 C891 0.929 . S
H900 C908 0.929 . S
H901 C910 0.930 . S
H902 C912 0.930 . S
H903 C915 0.929 1_455 S
H904 C918 0.930 . S
H905 C920 0.960 . S
H906 C920 0.960 . S
H907 C920 0.960 1_455 S
C908 H900 0.929 . S
C908 C909 1.377 . S
C908 C910 1.384 . S
C909 C908 1.377 . S
C909 C915 1.390 . S
C910 H901 0.930 . S
C910 C908 1.384 . S
C910 C911 1.372 . S
C911 C910 1.372 . S
C911 C912 1.400 . S
C911 C916 1.490 . S
C912 H902 0.930 . S
C912 C911 1.400 . S
C912 C915 1.386 . S
H913 C929 0.930 . S
H914 C930 0.931 . S
C915 H903 0.929 1_655 S
C915 C909 1.390 . S
C915 C912 1.386 . S
C916 C911 1.490 . S
C916 C918 1.395 . S
C916 C919 1.403 . S
H917 C923 0.930 . S
C918 H904 0.930 . S
C918 C916 1.395 . S
C918 C921 1.403 . S
C919 C916 1.403 . S
C919 C920 1.524 . S
C919 C923 1.400 . S
C920 H905 0.960 . S
C920 H906 0.960 . S
C920 H907 0.960 1_655 S
C920 C919 1.524 . S
C921 C918 1.403 . S
C921 C922 1.392 . S
C921 C925 1.495 . S
C922 C921 1.392 . S
C922 C923 1.385 . S
C922 C924 1.478 . S
C923 H917 0.930 . S
C923 C919 1.400 . S
C923 C922 1.385 . S
C924 C922 1.478 . S
C924 C926 1.381 . S
C924 C930 1.383 . S
C925 C921 1.495 . S
C925 H931 0.959 . S
C925 H932 0.961 . S
C925 H933 0.960 . S
C926 C924 1.381 . S
C926 C927 1.394 . S
C926 H934 0.930 . S
C927 C926 1.394 . S
C927 C928 1.383 . S
C927 H935 0.929 . S
C928 C927 1.383 . S
C928 C929 1.377 . S
C929 H913 0.930 . S
C929 C928 1.377 . S
C929 C930 1.379 . S
C930 H914 0.931 . S
C930 C924 1.383 . S
C930 C929 1.379 . S
H931 C925 0.959 . S
H932 C925 0.961 . S
H933 C925 0.960 . S
H934 C926 0.930 . S
H935 C927 0.929 . S
H936 C944 0.929 . S
H937 C946 0.930 . S
H938 C948 0.930 . S
H939 C951 0.929 . S
H940 C954 0.930 . S
H941 C956 0.960 . S
H942 C956 0.960 . S
H943 C956 0.960 . S
C944 H936 0.929 . S
C944 C945 1.377 . S
C944 C946 1.384 . S
C945 C944 1.377 . S
C945 C951 1.390 . S
C946 H937 0.930 . S
C946 C944 1.384 . S
C946 C947 1.372 . S
C947 C946 1.372 . S
C947 C948 1.400 . S
C947 C952 1.490 . S
C948 H938 0.930 . S
C948 C947 1.400 . S
C948 C951 1.386 . S
H949 C965 0.930 . S
H950 C966 0.931 . S
C951 H939 0.929 . S
C951 C945 1.390 . S
C951 C948 1.386 . S
C952 C947 1.490 . S
C952 C954 1.395 . S
C952 C955 1.403 . S
H953 C959 0.930 . S
C954 H940 0.930 . S
C954 C952 1.395 . S
C954 C957 1.403 . S
C955 C952 1.403 . S
C955 C956 1.524 . S
C955 C959 1.400 . S
C956 H941 0.960 . S
C956 H942 0.960 . S
C956 H943 0.960 . S
C956 C955 1.524 . S
C957 C954 1.403 . S
C957 C958 1.392 . S
C957 C961 1.495 . S
C958 C957 1.392 . S
C958 C959 1.385 . S
C958 C960 1.478 . S
C959 H953 0.930 . S
C959 C955 1.400 . S
C959 C958 1.385 . S
C960 C958 1.478 . S
C960 C962 1.381 . S
C960 C966 1.383 . S
C961 C957 1.495 . S
C961 H967 0.959 . S
C961 H968 0.961 . S
C961 H969 0.960 . S
C962 C960 1.381 . S
C962 C963 1.394 . S
C962 H970 0.930 . S
C963 C962 1.394 . S
C963 C964 1.383 . S
C963 H971 0.929 . S
C964 C963 1.383 . S
C964 C965 1.377 . S
C965 H949 0.930 . S
C965 C964 1.377 . S
C965 C966 1.379 . S
C966 H950 0.931 . S
C966 C960 1.383 . S
C966 C965 1.379 . S
H967 C961 0.959 . S
H968 C961 0.961 . S
H969 C961 0.960 . S
H970 C962 0.930 . S
H971 C963 0.929 . S
H972 C980 0.929 . S
H973 C982 0.930 . S
H974 C984 0.930 . S
H975 C987 0.929 . S
H976 C990 0.930 . S
H977 C992 0.960 . S
H978 C992 0.960 . S
H979 C992 0.960 . S
C980 H972 0.929 . S
C980 C981 1.377 . S
C980 C982 1.384 . S
C981 C980 1.377 . S
C981 C987 1.390 . S
C982 H973 0.930 . S
C982 C980 1.384 . S
C982 C983 1.372 . S
C983 C982 1.372 . S
C983 C984 1.400 . S
C983 C988 1.490 . S
C984 H974 0.930 . S
C984 C983 1.400 . S
C984 C987 1.386 . S
H985 C1001 0.930 . S
H986 C1002 0.931 . S
C987 H975 0.929 . S
C987 C981 1.390 . S
C987 C984 1.386 . S
C988 C983 1.490 . S
C988 C990 1.395 . S
C988 C991 1.403 . S
H989 C995 0.930 . S
C990 H976 0.930 . S
C990 C988 1.395 . S
C990 C993 1.403 . S
C991 C988 1.403 . S
C991 C992 1.524 . S
C991 C995 1.400 . S
C992 H977 0.960 . S
C992 H978 0.960 . S
C992 H979 0.960 . S
C992 C991 1.524 . S
C993 C990 1.403 . S
C993 C994 1.392 . S
C993 C997 1.495 . S
C994 C993 1.392 . S
C994 C995 1.385 . S
C994 C996 1.478 . S
C995 H989 0.930 . S
C995 C991 1.400 . S
C995 C994 1.385 . S
C996 C994 1.478 . S
C996 C998 1.381 . S
C996 C1002 1.383 . S
C997 C993 1.495 . S
C997 H1003 0.959 . S
C997 H1004 0.961 . S
C997 H1005 0.960 . S
C998 C996 1.381 . S
C998 C999 1.394 . S
C998 H1006 0.930 . S
C999 C998 1.394 . S
C999 C1000 1.383 . S
C999 H1007 0.929 . S
C1000 C999 1.383 . S
C1000 C1001 1.377 . S
C1001 H985 0.930 . S
C1001 C1000 1.377 . S
C1001 C1002 1.379 . S
C1002 H986 0.931 . S
C1002 C996 1.383 . S
C1002 C1001 1.379 . S
H1003 C997 0.959 . S
H1004 C997 0.961 . S
H1005 C997 0.960 . S
H1006 C998 0.930 . S
H1007 C999 0.929 . S
H1008 C1016 0.929 . S
H1009 C1018 0.930 . S
H1010 C1020 0.930 . S
H1011 C1023 0.929 . S
H1012 C1026 0.930 . S
H1013 C1028 0.960 . S
H1014 C1028 0.960 . S
H1015 C1028 0.960 . S
C1016 H1008 0.929 . S
C1016 C1017 1.377 . S
C1016 C1018 1.384 . S
C1017 C1016 1.377 . S
C1017 C1023 1.390 . S
C1018 H1009 0.930 . S
C1018 C1016 1.384 . S
C1018 C1019 1.372 . S
C1019 C1018 1.372 . S
C1019 C1020 1.400 . S
C1019 C1024 1.490 . S
C1020 H1010 0.930 . S
C1020 C1019 1.400 . S
C1020 C1023 1.386 . S
H1021 C1037 0.930 . S
H1022 C1038 0.931 . S
C1023 H1011 0.929 . S
C1023 C1017 1.390 . S
C1023 C1020 1.386 . S
C1024 C1019 1.490 . S
C1024 C1026 1.395 . S
C1024 C1027 1.403 . S
H1025 C1031 0.930 . S
C1026 H1012 0.930 . S
C1026 C1024 1.395 . S
C1026 C1029 1.403 . S
C1027 C1024 1.403 . S
C1027 C1028 1.524 . S
C1027 C1031 1.400 . S
C1028 H1013 0.960 . S
C1028 H1014 0.960 . S
C1028 H1015 0.960 . S
C1028 C1027 1.524 . S
C1029 C1026 1.403 . S
C1029 C1030 1.392 . S
C1029 C1033 1.495 . S
C1030 C1029 1.392 . S
C1030 C1031 1.385 . S
C1030 C1032 1.478 . S
C1031 H1025 0.930 . S
C1031 C1027 1.400 . S
C1031 C1030 1.385 . S
C1032 C1030 1.478 . S
C1032 C1034 1.381 . S
C1032 C1038 1.383 . S
C1033 C1029 1.495 . S
C1033 H1039 0.959 . S
C1033 H1040 0.961 . S
C1033 H1041 0.960 . S
C1034 C1032 1.381 . S
C1034 C1035 1.394 . S
C1034 H1042 0.930 . S
C1035 C1034 1.394 . S
C1035 C1036 1.383 . S
C1035 H1043 0.929 . S
C1036 C1035 1.383 . S
C1036 C1037 1.377 . S
C1037 H1021 0.930 . S
C1037 C1036 1.377 . S
C1037 C1038 1.379 . S
C1038 H1022 0.931 . S
C1038 C1032 1.383 . S
C1038 C1037 1.379 . S
H1039 C1033 0.959 . S
H1040 C1033 0.961 . S
H1041 C1033 0.960 . S
H1042 C1034 0.930 . S
H1043 C1035 0.929 . S
H1044 C1052 0.929 . S
H1045 C1054 0.930 . S
H1046 C1056 0.930 . S
H1047 C1059 0.929 . S
H1048 C1062 0.930 . S
H1049 C1064 0.960 . S
H1050 C1064 0.960 . S
H1051 C1064 0.960 . S
C1052 H1044 0.929 . S
C1052 C1053 1.377 . S
C1052 C1054 1.384 . S
C1053 C1052 1.377 . S
C1053 C1059 1.390 . S
C1054 H1045 0.930 . S
C1054 C1052 1.384 . S
C1054 C1055 1.372 . S
C1055 C1054 1.372 . S
C1055 C1056 1.400 . S
C1055 C1060 1.490 . S
C1056 H1046 0.930 . S
C1056 C1055 1.400 . S
C1056 C1059 1.386 . S
H1057 C1073 0.930 . S
H1058 C1074 0.931 . S
C1059 H1047 0.929 . S
C1059 C1053 1.390 . S
C1059 C1056 1.386 . S
C1060 C1055 1.490 . S
C1060 C1062 1.395 . S
C1060 C1063 1.403 . S
H1061 C1067 0.930 . S
C1062 H1048 0.930 . S
C1062 C1060 1.395 . S
C1062 C1065 1.403 . S
C1063 C1060 1.403 . S
C1063 C1064 1.524 . S
C1063 C1067 1.400 . S
C1064 H1049 0.960 . S
C1064 H1050 0.960 . S
C1064 H1051 0.960 . S
C1064 C1063 1.524 . S
C1065 C1062 1.403 . S
C1065 C1066 1.392 . S
C1065 C1069 1.495 . S
C1066 C1065 1.392 . S
C1066 C1067 1.385 . S
C1066 C1068 1.478 . S
C1067 H1061 0.930 . S
C1067 C1063 1.400 . S
C1067 C1066 1.385 . S
C1068 C1066 1.478 . S
C1068 C1070 1.381 . S
C1068 C1074 1.383 . S
C1069 C1065 1.495 . S
C1069 H1075 0.959 . S
C1069 H1076 0.961 . S
C1069 H1077 0.960 . S
C1070 C1068 1.381 . S
C1070 C1071 1.394 . S
C1070 H1078 0.930 . S
C1071 C1070 1.394 . S
C1071 C1072 1.383 . S
C1071 H1079 0.929 . S
C1072 C1071 1.383 . S
C1072 C1073 1.377 . S
C1073 H1057 0.930 . S
C1073 C1072 1.377 . S
C1073 C1074 1.379 . S
C1074 H1058 0.931 . S
C1074 C1068 1.383 . S
C1074 C1073 1.379 . S
H1075 C1069 0.959 . S
H1076 C1069 0.961 . S
H1077 C1069 0.960 . S
H1078 C1070 0.930 . S
H1079 C1071 0.929 . S
H1080 C1088 0.929 . S
H1081 C1090 0.930 . S
H1082 C1092 0.930 . S
H1083 C1095 0.929 . S
H1084 C1098 0.930 . S
H1085 C1100 0.960 . S
H1086 C1100 0.960 . S
H1087 C1100 0.960 . S
C1088 H1080 0.929 . S
C1088 C1089 1.377 . S
C1088 C1090 1.384 . S
C1089 C1088 1.377 . S
C1089 C1095 1.390 . S
C1090 H1081 0.930 . S
C1090 C1088 1.384 . S
C1090 C1091 1.372 . S
C1091 C1090 1.372 . S
C1091 C1092 1.400 . S
C1091 C1096 1.490 . S
C1092 H1082 0.930 . S
C1092 C1091 1.400 . S
C1092 C1095 1.386 . S
H1093 C1109 0.930 . S
H1094 C1110 0.931 . S
C1095 H1083 0.929 . S
C1095 C1089 1.390 . S
C1095 C1092 1.386 . S
C1096 C1091 1.490 . S
C1096 C1098 1.395 . S
C1096 C1099 1.403 . S
H1097 C1103 0.930 . S
C1098 H1084 0.930 . S
C1098 C1096 1.395 . S
C1098 C1101 1.403 . S
C1099 C1096 1.403 . S
C1099 C1100 1.524 . S
C1099 C1103 1.400 . S
C1100 H1085 0.960 . S
C1100 H1086 0.960 . S
C1100 H1087 0.960 . S
C1100 C1099 1.524 . S
C1101 C1098 1.403 . S
C1101 C1102 1.392 . S
C1101 C1105 1.495 . S
C1102 C1101 1.392 . S
C1102 C1103 1.385 . S
C1102 C1104 1.478 . S
C1103 H1097 0.930 . S
C1103 C1099 1.400 . S
C1103 C1102 1.385 . S
C1104 C1102 1.478 . S
C1104 C1106 1.381 . S
C1104 C1110 1.383 . S
C1105 C1101 1.495 . S
C1105 H1111 0.959 . S
C1105 H1112 0.961 . S
C1105 H1113 0.960 . S
C1106 C1104 1.381 . S
C1106 C1107 1.394 . S
C1106 H1114 0.930 . S
C1107 C1106 1.394 . S
C1107 C1108 1.383 . S
C1107 H1115 0.929 . S
C1108 C1107 1.383 . S
C1108 C1109 1.377 . S
C1109 H1093 0.930 . S
C1109 C1108 1.377 . S
C1109 C1110 1.379 . S
C1110 H1094 0.931 . S
C1110 C1104 1.383 . S
C1110 C1109 1.379 . S
H1111 C1105 0.959 . S
H1112 C1105 0.961 . S
H1113 C1105 0.960 . S
H1114 C1106 0.930 . S
H1115 C1107 0.929 . S
H1116 C1124 0.929 . S
H1117 C1126 0.930 . S
H1118 C1128 0.930 . S
H1119 C1131 0.929 . S
H1120 C1134 0.930 . S
H1121 C1136 0.960 . S
H1122 C1136 0.960 . S
H1123 C1136 0.960 . S
C1124 H1116 0.929 . S
C1124 C1125 1.377 . S
C1124 C1126 1.384 . S
C1125 C1124 1.377 . S
C1125 C1131 1.390 . S
C1126 H1117 0.930 . S
C1126 C1124 1.384 . S
C1126 C1127 1.372 . S
C1127 C1126 1.372 . S
C1127 C1128 1.400 . S
C1127 C1132 1.490 . S
C1128 H1118 0.930 . S
C1128 C1127 1.400 . S
C1128 C1131 1.386 . S
H1129 C1145 0.930 . S
H1130 C1146 0.931 . S
C1131 H1119 0.929 . S
C1131 C1125 1.390 . S
C1131 C1128 1.386 . S
C1132 C1127 1.490 . S
C1132 C1134 1.395 . S
C1132 C1135 1.403 . S
H1133 C1139 0.930 . S
C1134 H1120 0.930 . S
C1134 C1132 1.395 . S
C1134 C1137 1.403 . S
C1135 C1132 1.403 . S
C1135 C1136 1.524 . S
C1135 C1139 1.400 . S
C1136 H1121 0.960 . S
C1136 H1122 0.960 . S
C1136 H1123 0.960 . S
C1136 C1135 1.524 . S
C1137 C1134 1.403 . S
C1137 C1138 1.392 . S
C1137 C1141 1.495 . S
C1138 C1137 1.392 . S
C1138 C1139 1.385 . S
C1138 C1140 1.478 . S
C1139 H1133 0.930 . S
C1139 C1135 1.400 . S
C1139 C1138 1.385 . S
C1140 C1138 1.478 . S
C1140 C1142 1.381 . S
C1140 C1146 1.383 . S
C1141 C1137 1.495 . S
C1141 H1147 0.959 . S
C1141 H1148 0.961 . S
C1141 H1149 0.960 . S
C1142 C1140 1.381 . S
C1142 C1143 1.394 . S
C1142 H1150 0.930 . S
C1143 C1142 1.394 . S
C1143 C1144 1.383 . S
C1143 H1151 0.929 . S
C1144 C1143 1.383 . S
C1144 C1145 1.377 . S
C1145 H1129 0.930 . S
C1145 C1144 1.377 . S
C1145 C1146 1.379 . S
C1146 H1130 0.931 . S
C1146 C1140 1.383 . S
C1146 C1145 1.379 . S
H1147 C1141 0.959 . S
H1148 C1141 0.961 . S
H1149 C1141 0.960 . S
H1150 C1142 0.930 . S
H1151 C1143 0.929 . S
H1152 C1160 0.929 . S
H1153 C1162 0.930 . S
H1154 C1164 0.930 . S
H1155 C1167 0.929 . S
H1156 C1170 0.930 . S
H1157 C1172 0.960 . S
H1158 C1172 0.960 . S
H1159 C1172 0.960 . S
C1160 H1152 0.929 . S
C1160 C1161 1.377 . S
C1160 C1162 1.384 . S
C1161 C1160 1.377 . S
C1161 C1167 1.390 . S
C1162 H1153 0.930 . S
C1162 C1160 1.384 . S
C1162 C1163 1.372 . S
C1163 C1162 1.372 . S
C1163 C1164 1.400 . S
C1163 C1168 1.490 . S
C1164 H1154 0.930 . S
C1164 C1163 1.400 . S
C1164 C1167 1.386 . S
H1165 C1181 0.930 . S
H1166 C1182 0.931 . S
C1167 H1155 0.929 . S
C1167 C1161 1.390 . S
C1167 C1164 1.386 . S
C1168 C1163 1.490 . S
C1168 C1170 1.395 . S
C1168 C1171 1.403 . S
H1169 C1175 0.930 . S
C1170 H1156 0.930 . S
C1170 C1168 1.395 . S
C1170 C1173 1.403 . S
C1171 C1168 1.403 . S
C1171 C1172 1.524 . S
C1171 C1175 1.400 . S
C1172 H1157 0.960 . S
C1172 H1158 0.960 . S
C1172 H1159 0.960 . S
C1172 C1171 1.524 . S
C1173 C1170 1.403 . S
C1173 C1174 1.392 . S
C1173 C1177 1.495 . S
C1174 C1173 1.392 . S
C1174 C1175 1.385 . S
C1174 C1176 1.478 . S
C1175 H1169 0.930 . S
C1175 C1171 1.400 . S
C1175 C1174 1.385 . S
C1176 C1174 1.478 . S
C1176 C1178 1.381 . S
C1176 C1182 1.383 . S
C1177 C1173 1.495 . S
C1177 H1183 0.959 . S
C1177 H1184 0.961 . S
C1177 H1185 0.960 . S
C1178 C1176 1.381 . S
C1178 C1179 1.394 . S
C1178 H1186 0.930 . S
C1179 C1178 1.394 . S
C1179 C1180 1.383 . S
C1179 H1187 0.929 . S
C1180 C1179 1.383 . S
C1180 C1181 1.377 . S
C1181 H1165 0.930 . S
C1181 C1180 1.377 . S
C1181 C1182 1.379 . S
C1182 H1166 0.931 . S
C1182 C1176 1.383 . S
C1182 C1181 1.379 . S
H1183 C1177 0.959 . S
H1184 C1177 0.961 . S
H1185 C1177 0.960 . S
H1186 C1178 0.930 . S
H1187 C1179 0.929 . S
H1188 C1196 0.929 . S
H1189 C1198 0.930 . S
H1190 C1200 0.930 . S
H1191 C1203 0.929 . S
H1192 C1206 0.930 . S
H1193 C1208 0.960 . S
H1194 C1208 0.960 . S
H1195 C1208 0.960 . S
C1196 H1188 0.929 . S
C1196 C1197 1.377 . S
C1196 C1198 1.384 . S
C1197 C1196 1.377 . S
C1197 C1203 1.390 . S
C1198 H1189 0.930 . S
C1198 C1196 1.384 . S
C1198 C1199 1.372 . S
C1199 C1198 1.372 . S
C1199 C1200 1.400 . S
C1199 C1204 1.490 . S
C1200 H1190 0.930 . S
C1200 C1199 1.400 . S
C1200 C1203 1.386 . S
H1201 C1217 0.930 . S
H1202 C1218 0.931 . S
C1203 H1191 0.929 . S
C1203 C1197 1.390 . S
C1203 C1200 1.386 . S
C1204 C1199 1.490 . S
C1204 C1206 1.395 . S
C1204 C1207 1.403 . S
H1205 C1211 0.930 . S
C1206 H1192 0.930 . S
C1206 C1204 1.395 . S
C1206 C1209 1.403 . S
C1207 C1204 1.403 . S
C1207 C1208 1.524 . S
C1207 C1211 1.400 . S
C1208 H1193 0.960 . S
C1208 H1194 0.960 . S
C1208 H1195 0.960 . S
C1208 C1207 1.524 . S
C1209 C1206 1.403 . S
C1209 C1210 1.392 . S
C1209 C1213 1.495 . S
C1210 C1209 1.392 . S
C1210 C1211 1.385 . S
C1210 C1212 1.478 . S
C1211 H1205 0.930 . S
C1211 C1207 1.400 . S
C1211 C1210 1.385 . S
C1212 C1210 1.478 . S
C1212 C1214 1.381 . S
C1212 C1218 1.383 . S
C1213 C1209 1.495 . S
C1213 H1219 0.959 . S
C1213 H1220 0.961 . S
C1213 H1221 0.960 . S
C1214 C1212 1.381 . S
C1214 C1215 1.394 . S
C1214 H1222 0.930 . S
C1215 C1214 1.394 . S
C1215 C1216 1.383 . S
C1215 H1223 0.929 . S
C1216 C1215 1.383 . S
C1216 C1217 1.377 . S
C1217 H1201 0.930 . S
C1217 C1216 1.377 . S
C1217 C1218 1.379 . S
C1218 H1202 0.931 . S
C1218 C1212 1.383 . S
C1218 C1217 1.379 . S
H1219 C1213 0.959 . S
H1220 C1213 0.961 . S
H1221 C1213 0.960 . S
H1222 C1214 0.930 . S
H1223 C1215 0.929 . S
C369 C45 1.610 . S
C388 C127 1.627 . S
C405 C30 1.608 . S
C424 C159 1.626 . S
C441 C39 1.607 . S
C460 C191 1.559 . S
C496 C223 1.528 . S
C477 C34 1.604 . S
C513 C97 1.609 . S
C532 C255 1.626 . S
C568 C287 1.624 . S
C549 C82 1.610 . S
C604 C319 1.526 . S
C585 C91 1.609 . S
C640 C351 1.572 . S
C621 C86 1.611 . S
C676 C313 1.466 . S
C657 C26 1.454 . S
C712 C345 1.458 . S
C693 C36 1.451 . S
C748 C261 1.522 . S
C729 C32 1.459 . S
C784 C293 1.523 . S
C765 C42 1.459 . S
C801 C18 1.538 . S
C820 C281 1.610 . S
C856 C325 1.487 . S
C837 C50 1.541 . S
C873 C4 1.539 . S
C892 C357 1.508 . S
C909 C48 1.532 . S
C928 C249 1.613 . S
C964 C185 1.413 . S
C945 C78 1.449 . S
C981 C88 1.448 . S
C1000 C217 1.436 . S
C1036 C133 1.519 . S
C1017 C84 1.469 . S
C1072 C165 1.524 . S
C1053 C94 1.463 . S
C1108 C153 1.611 . S
C1089 C70 1.536 . S
C1144 C197 1.548 . S
C1125 C102 1.547 . S
C1161 C56 1.546 . S
C1180 C229 1.548 . S
C1197 C100 1.541 . S
C1216 C121 1.610 . S
