# Generated by pormake.
# Topology ssb, (4,4)-cn, num edge types: 1
# Building blocks:
#     Node 0, Type 0, BuildingBlock: NAHDIM_clean_linker_0, # of connection points: 4
#     Node 1, Type 0, BuildingBlock: NAHDIM_clean_linker_0, # of connection points: 4
#     Node 2, Type 0, BuildingBlock: NAHDIM_clean_linker_0, # of connection points: 4
#     Node 3, Type 0, BuildingBlock: NAHDIM_clean_linker_0, # of connection points: 4
#     Node 4, Type 0, BuildingBlock: NAHDIM_clean_linker_0, # of connection points: 4
#     Node 5, Type 0, BuildingBlock: NAHDIM_clean_linker_0, # of connection points: 4
#     Node 6, Type 0, BuildingBlock: NAHDIM_clean_linker_0, # of connection points: 4
#     Node 7, Type 0, BuildingBlock: NAHDIM_clean_linker_0, # of connection points: 4
#     Node 8, Type 1, BuildingBlock: NAWXER_clean_sbu_0, # of connection points: 4
#     Node 9, Type 1, BuildingBlock: NAWXER_clean_sbu_0, # of connection points: 4
#     Node 10, Type 1, BuildingBlock: NAWXER_clean_sbu_0, # of connection points: 4
#     Node 11, Type 1, BuildingBlock: NAWXER_clean_sbu_0, # of connection points: 4
#     Node 12, Type 1, BuildingBlock: NAWXER_clean_sbu_0, # of connection points: 4
#     Node 13, Type 1, BuildingBlock: NAWXER_clean_sbu_0, # of connection points: 4
#     Node 14, Type 1, BuildingBlock: NAWXER_clean_sbu_0, # of connection points: 4
#     Node 15, Type 1, BuildingBlock: NAWXER_clean_sbu_0, # of connection points: 4
#     Edge 16, Type (0, 1), BuildingBlock: XIVTED_clean_linker_0, # of connection points: 2
#     Edge 17, Type (0, 1), BuildingBlock: XIVTED_clean_linker_0, # of connection points: 2
#     Edge 18, Type (0, 1), BuildingBlock: XIVTED_clean_linker_0, # of connection points: 2
#     Edge 19, Type (0, 1), BuildingBlock: XIVTED_clean_linker_0, # of connection points: 2
#     Edge 20, Type (0, 1), BuildingBlock: XIVTED_clean_linker_0, # of connection points: 2
#     Edge 21, Type (0, 1), BuildingBlock: XIVTED_clean_linker_0, # of connection points: 2
#     Edge 22, Type (0, 1), BuildingBlock: XIVTED_clean_linker_0, # of connection points: 2
#     Edge 23, Type (0, 1), BuildingBlock: XIVTED_clean_linker_0, # of connection points: 2
#     Edge 24, Type (0, 1), BuildingBlock: XIVTED_clean_linker_0, # of connection points: 2
#     Edge 25, Type (0, 1), BuildingBlock: XIVTED_clean_linker_0, # of connection points: 2
#     Edge 26, Type (0, 1), BuildingBlock: XIVTED_clean_linker_0, # of connection points: 2
#     Edge 27, Type (0, 1), BuildingBlock: XIVTED_clean_linker_0, # of connection points: 2
#     Edge 28, Type (0, 1), BuildingBlock: XIVTED_clean_linker_0, # of connection points: 2
#     Edge 29, Type (0, 1), BuildingBlock: XIVTED_clean_linker_0, # of connection points: 2
#     Edge 30, Type (0, 1), BuildingBlock: XIVTED_clean_linker_0, # of connection points: 2
#     Edge 31, Type (0, 1), BuildingBlock: XIVTED_clean_linker_0, # of connection points: 2
#     Edge 32, Type (0, 1), BuildingBlock: XIVTED_clean_linker_0, # of connection points: 2
#     Edge 33, Type (0, 1), BuildingBlock: XIVTED_clean_linker_0, # of connection points: 2
#     Edge 34, Type (0, 1), BuildingBlock: XIVTED_clean_linker_0, # of connection points: 2
#     Edge 35, Type (0, 1), BuildingBlock: XIVTED_clean_linker_0, # of connection points: 2
#     Edge 36, Type (0, 1), BuildingBlock: XIVTED_clean_linker_0, # of connection points: 2
#     Edge 37, Type (0, 1), BuildingBlock: XIVTED_clean_linker_0, # of connection points: 2
#     Edge 38, Type (0, 1), BuildingBlock: XIVTED_clean_linker_0, # of connection points: 2
#     Edge 39, Type (0, 1), BuildingBlock: XIVTED_clean_linker_0, # of connection points: 2
#     Edge 40, Type (0, 1), BuildingBlock: XIVTED_clean_linker_0, # of connection points: 2
#     Edge 41, Type (0, 1), BuildingBlock: XIVTED_clean_linker_0, # of connection points: 2
#     Edge 42, Type (0, 1), BuildingBlock: XIVTED_clean_linker_0, # of connection points: 2
#     Edge 43, Type (0, 1), BuildingBlock: XIVTED_clean_linker_0, # of connection points: 2
#     Edge 44, Type (0, 1), BuildingBlock: XIVTED_clean_linker_0, # of connection points: 2
#     Edge 45, Type (0, 1), BuildingBlock: XIVTED_clean_linker_0, # of connection points: 2
#     Edge 46, Type (0, 1), BuildingBlock: XIVTED_clean_linker_0, # of connection points: 2
#     Edge 47, Type (0, 1), BuildingBlock: XIVTED_clean_linker_0, # of connection points: 2
# Relax obj value: 0.005
# Max RMSD: 0.044
# Mean RMSD: 0.033
data_MOF--net-ssb--node1-NAWXER_clean_sbu_0--node2-NAHDIM_clean_linker_0--edge1-XIVTED_clean_linker_0
_symmetry_space_group_name_H-M    P1
_symmetry_Int_Tables_number       1
_symmetry_cell_setting            triclinic
loop_
_symmetry_equiv_pos_as_xyz
'x, y, z'
_cell_length_a     62.38097
_cell_length_b     62.399071
_cell_length_c     53.550779
_cell_angle_alpha  90.014046
_cell_angle_beta   90.019273
_cell_angle_gamma 89.988756
loop_
_atom_site_label
_atom_site_type_symbol
_atom_site_fract_x
_atom_site_fract_y
_atom_site_fract_z
_atom_type_partial_charge
C0 C 0.2904 0.13586 0.33643 0.0
C1 C 0.31304 0.14082 0.34624 0.0
C2 C 0.31673 0.17923 0.33603 0.0
C3 C 0.31834 0.19974 0.34628 0.0
C4 C 0.31942 0.21799 0.33103 0.0
C5 C 0.31797 0.21565 0.30477 0.0
C6 C 0.31677 0.19488 0.2942 0.0
C7 C 0.31665 0.17687 0.30991 0.0
C8 C 0.32194 0.23971 0.34311 0.0
C9 C 0.31551 0.19163 0.2663 0.0
C10 C 0.45427 0.2569 0.22513 0.0
C11 C 0.43316 0.2542 0.21094 0.0
C12 C 0.39934 0.26844 0.22602 0.0
C13 C 0.38517 0.25341 0.21568 0.0
C14 C 0.3647 0.25034 0.22595 0.0
C15 C 0.35849 0.26228 0.24725 0.0
C16 C 0.37266 0.27777 0.25736 0.0
C17 C 0.39276 0.28096 0.2462 0.0
C18 C 0.34987 0.23408 0.21427 0.0
C19 C 0.36686 0.29056 0.28032 0.0
C20 C 0.27096 0.37278 0.21234 0.0
C21 C 0.26612 0.35366 0.19992 0.0
C22 C 0.26396 0.33441 0.21326 0.0
C23 C 0.26733 0.33437 0.23943 0.0
C24 C 0.27187 0.35385 0.25197 0.0
C25 C 0.27325 0.37292 0.23823 0.0
C26 C 0.25827 0.31415 0.19938 0.0
C27 C 0.27548 0.35457 0.27983 0.0
C28 C 0.18929 0.28083 0.39526 0.0
C29 C 0.17838 0.29708 0.37788 0.0
C30 C 0.19571 0.29049 0.33725 0.0
C31 C 0.1928 0.28218 0.31323 0.0
C32 C 0.20952 0.28233 0.29564 0.0
C33 C 0.22965 0.29099 0.30234 0.0
C34 C 0.23277 0.29935 0.32664 0.0
C35 C 0.21581 0.29905 0.3438 0.0
C36 C 0.20572 0.27323 0.26993 0.0
C37 C 0.25408 0.30866 0.33452 0.0
C38 C 0.3178 0.23487 0.28836 0.0
C39 C 0.33652 0.23978 0.2752 0.0
C40 C 0.33769 0.25779 0.25974 0.0
C41 C 0.3197 0.27143 0.25728 0.0
C42 C 0.32028 0.28963 0.24184 0.0
C43 C 0.30288 0.30354 0.24053 0.0
C44 C 0.28408 0.2996 0.25428 0.0
C45 C 0.26654 0.31399 0.2537 0.0
C46 C 0.2485 0.31002 0.26846 0.0
C47 C 0.24742 0.29202 0.28393 0.0
C48 C 0.26436 0.27697 0.28392 0.0
C49 C 0.26335 0.2582 0.29837 0.0
C50 C 0.28056 0.24403 0.29924 0.0
C51 C 0.29967 0.2484 0.28625 0.0
C52 C 0.30074 0.26686 0.27086 0.0
C53 C 0.28294 0.28101 0.26944 0.0
C54 C 0.30837 0.40607 0.19587 0.0
C55 C 0.28977 0.39482 0.18262 0.0
O56 O 0.31506 0.16238 0.35206 0.0
O57 O 0.17883 0.28982 0.35339 0.0
O58 O 0.27338 0.39131 0.19957 0.0
O59 O 0.41954 0.27093 0.21714 0.0
H60 H 0.32507 0.13641 0.33178 0.0
H61 H 0.28717 0.14425 0.3186 0.0
H62 H 0.27802 0.14096 0.35011 0.0
H63 H 0.28867 0.11838 0.33296 0.0
H64 H 0.31876 0.20143 0.36642 0.0
H65 H 0.31622 0.16111 0.30155 0.0
H66 H 0.33344 0.24978 0.33249 0.0
H67 H 0.32759 0.23839 0.36273 0.0
H68 H 0.30624 0.24806 0.34321 0.0
H69 H 0.31102 0.17494 0.26131 0.0
H70 H 0.33139 0.19514 0.25792 0.0
H71 H 0.30366 0.20277 0.25788 0.0
H72 H 0.42625 0.23859 0.21714 0.0
H73 H 0.46545 0.24361 0.22052 0.0
H74 H 0.45117 0.25659 0.24555 0.0
H75 H 0.46199 0.27242 0.22037 0.0
H76 H 0.39015 0.2441 0.19962 0.0
H77 H 0.40382 0.29263 0.25386 0.0
H78 H 0.33349 0.24083 0.21226 0.0
H79 H 0.34878 0.21985 0.22663 0.0
H80 H 0.35562 0.22873 0.19565 0.0
H81 H 0.38067 0.29992 0.2876 0.0
H82 H 0.36099 0.27976 0.29531 0.0
H83 H 0.35373 0.3019 0.27575 0.0
H84 H 0.29579 0.37928 0.1751 0.0
H85 H 0.26395 0.35389 0.17984 0.0
H86 H 0.27676 0.38794 0.24754 0.0
H87 H 0.27243 0.30339 0.19881 0.0
H88 H 0.25313 0.31744 0.17989 0.0
H89 H 0.24521 0.3055 0.20921 0.0
H90 H 0.28196 0.37027 0.28607 0.0
H91 H 0.28674 0.34173 0.28566 0.0
H92 H 0.26 0.35179 0.28952 0.0
H93 H 0.18686 0.31273 0.37922 0.0
H94 H 0.18863 0.28654 0.4149 0.0
H95 H 0.20638 0.27868 0.39014 0.0
H96 H 0.18126 0.26496 0.39402 0.0
H97 H 0.17731 0.27558 0.30828 0.0
H98 H 0.21852 0.30555 0.36223 0.0
H99 H 0.2179 0.26074 0.2658 0.0
H100 H 0.20759 0.28611 0.25579 0.0
H101 H 0.18948 0.26611 0.26798 0.0
H102 H 0.25358 0.31559 0.35362 0.0
H103 H 0.25907 0.32136 0.32125 0.0
H104 H 0.26653 0.29595 0.33409 0.0
H105 H 0.35048 0.22956 0.27726 0.0
H106 H 0.33432 0.29349 0.23084 0.0
H107 H 0.30446 0.31753 0.22873 0.0
H108 H 0.2355 0.32158 0.26873 0.0
H109 H 0.24921 0.25429 0.30918 0.0
H110 H 0.27882 0.22981 0.31062 0.0
H111 H 0.30307 0.42173 0.20362 0.0
H112 H 0.32185 0.4088 0.18269 0.0
H113 H 0.3143 0.39592 0.21144 0.0
C114 C 0.65043 0.1356 0.16109 0.0
C115 C 0.65169 0.15976 0.15621 0.0
C116 C 0.68575 0.17732 0.16436 0.0
C117 C 0.6785 0.19603 0.1762 0.0
C118 C 0.69179 0.20724 0.19282 0.0
C119 C 0.71272 0.19953 0.1977 0.0
C120 C 0.72046 0.18138 0.18465 0.0
C121 C 0.70691 0.17066 0.16784 0.0
C122 C 0.68323 0.2269 0.20584 0.0
C123 C 0.74271 0.17276 0.18931 0.0
C124 C 0.72945 0.1966 0.40314 0.0
C125 C 0.73295 0.18203 0.38055 0.0
C126 C 0.71986 0.18978 0.33855 0.0
C127 C 0.73655 0.18023 0.32494 0.0
C128 C 0.7401 0.18574 0.29987 0.0
C129 C 0.72684 0.20128 0.28836 0.0
C130 C 0.70933 0.21006 0.30169 0.0
C131 C 0.70592 0.20394 0.32658 0.0
C132 C 0.75842 0.17544 0.28592 0.0
C133 C 0.69468 0.22643 0.28992 0.0
C134 C 0.8337 0.28653 0.31456 0.0
C135 C 0.83887 0.26813 0.30081 0.0
C136 C 0.82828 0.26355 0.27833 0.0
C137 C 0.81206 0.27759 0.26965 0.0
C138 C 0.80781 0.29684 0.28271 0.0
C139 C 0.81894 0.30119 0.30494 0.0
C140 C 0.8338 0.24326 0.26441 0.0
C141 C 0.79079 0.31223 0.27385 0.0
C142 C 0.80337 0.30083 0.06569 0.0
C143 C 0.79753 0.31122 0.09064 0.0
C144 C 0.8065 0.29707 0.13184 0.0
C145 C 0.81924 0.28122 0.14272 0.0
C146 C 0.81405 0.27252 0.16611 0.0
C147 C 0.79597 0.28036 0.1792 0.0
C148 C 0.78349 0.29705 0.1687 0.0
C149 C 0.7888 0.30513 0.14503 0.0
C150 C 0.82783 0.25484 0.17674 0.0
C151 C 0.76461 0.3064 0.18255 0.0
C152 C 0.72548 0.20894 0.21838 0.0
C153 C 0.72117 0.20158 0.24255 0.0
C154 C 0.73228 0.2096 0.26315 0.0
C155 C 0.74828 0.22536 0.2597 0.0
C156 C 0.75962 0.23388 0.2801 0.0
C157 C 0.77578 0.24886 0.27654 0.0
C158 C 0.78111 0.25611 0.25247 0.0
C159 C 0.79801 0.27084 0.24869 0.0
C160 C 0.80229 0.27852 0.22472 0.0
C161 C 0.79043 0.27145 0.20411 0.0
C162 C 0.77403 0.25598 0.20739 0.0
C163 C 0.76231 0.24781 0.18703 0.0
C164 C 0.7463 0.2325 0.19054 0.0
C165 C 0.74149 0.22469 0.21453 0.0
C166 C 0.753 0.23281 0.23531 0.0
C167 C 0.76934 0.24837 0.23171 0.0
C168 C 0.82799 0.28149 0.37694 0.0
C169 C 0.84385 0.27537 0.35637 0.0
O170 O 0.67256 0.16521 0.14994 0.0
O171 O 0.81182 0.30428 0.10873 0.0
O172 O 0.84253 0.29033 0.33726 0.0
O173 O 0.71687 0.18585 0.36323 0.0
H174 H 0.64681 0.16745 0.17412 0.0
H175 H 0.66022 0.13152 0.17776 0.0
H176 H 0.65676 0.1263 0.14502 0.0
H177 H 0.63359 0.13072 0.16476 0.0
H178 H 0.66236 0.20169 0.17271 0.0
H179 H 0.71244 0.1564 0.15825 0.0
H180 H 0.68046 0.22316 0.22584 0.0
H181 H 0.66789 0.23251 0.19757 0.0
H182 H 0.69513 0.24011 0.20493 0.0
H183 H 0.74645 0.1587 0.17734 0.0
H184 H 0.74429 0.16796 0.20919 0.0
H185 H 0.75475 0.18548 0.18569 0.0
H186 H 0.74892 0.18638 0.37269 0.0
H187 H 0.74223 0.19396 0.41727 0.0
H188 H 0.71359 0.19346 0.41186 0.0
H189 H 0.73 0.21365 0.39719 0.0
H190 H 0.74687 0.16858 0.33391 0.0
H191 H 0.69284 0.21089 0.33717 0.0
H192 H 0.75304 0.17009 0.26716 0.0
H193 H 0.76515 0.16148 0.29614 0.0
H194 H 0.7714 0.18739 0.2832 0.0
H195 H 0.68229 0.23235 0.30313 0.0
H196 H 0.68652 0.21922 0.27352 0.0
H197 H 0.70419 0.2403 0.28313 0.0
H198 H 0.8392 0.25912 0.34963 0.0
H199 H 0.85097 0.25723 0.30784 0.0
H200 H 0.8154 0.31557 0.31554 0.0
H201 H 0.82068 0.23144 0.26686 0.0
H202 H 0.84894 0.23595 0.27126 0.0
H203 H 0.83537 0.24655 0.24411 0.0
H204 H 0.78966 0.32669 0.28589 0.0
H205 H 0.77498 0.30406 0.27367 0.0
H206 H 0.79432 0.31735 0.25443 0.0
H207 H 0.78099 0.30566 0.09514 0.0
H208 H 0.79209 0.30612 0.05085 0.0
H209 H 0.80228 0.28311 0.06735 0.0
H210 H 0.81999 0.30508 0.0601 0.0
H211 H 0.83303 0.27531 0.1325 0.0
H212 H 0.77929 0.31792 0.137 0.0
H213 H 0.81765 0.24116 0.18268 0.0
H214 H 0.83639 0.26085 0.19352 0.0
H215 H 0.8399 0.24898 0.1631 0.0
H216 H 0.75785 0.32067 0.17296 0.0
H217 H 0.76946 0.31103 0.20176 0.0
H218 H 0.75181 0.29412 0.1842 0.0
H219 H 0.70893 0.18946 0.24537 0.0
H220 H 0.75628 0.22897 0.29909 0.0
H221 H 0.78402 0.25469 0.29299 0.0
H222 H 0.81518 0.28996 0.22203 0.0
H223 H 0.76544 0.25311 0.16813 0.0
H224 H 0.7378 0.22677 0.17423 0.0
H225 H 0.8317 0.29767 0.38447 0.0
H226 H 0.82862 0.26964 0.39242 0.0
H227 H 0.81144 0.28166 0.36928 0.0
C228 C 0.651 0.86672 0.34492 0.0
C229 C 0.66985 0.86125 0.36213 0.0
C230 C 0.69088 0.83749 0.33475 0.0
C231 C 0.6801 0.81824 0.3401 0.0
C232 C 0.68375 0.79976 0.32578 0.0
C233 C 0.69807 0.80063 0.30531 0.0
C234 C 0.70897 0.81997 0.29989 0.0
C235 C 0.70552 0.83802 0.31502 0.0
C236 C 0.67211 0.77932 0.33243 0.0
C237 C 0.72392 0.82172 0.27783 0.0
C238 C 0.57511 0.75965 0.21409 0.0
C239 C 0.5947 0.76293 0.19734 0.0
C240 C 0.62801 0.74855 0.21312 0.0
C241 C 0.64309 0.76377 0.20532 0.0
C242 C 0.6622 0.76684 0.21871 0.0
C243 C 0.66605 0.75464 0.24056 0.0
C244 C 0.65093 0.73898 0.24817 0.0
C245 C 0.63228 0.73583 0.23396 0.0
C246 C 0.67808 0.78337 0.20976 0.0
C247 C 0.65408 0.72603 0.2717 0.0
C248 C 0.75759 0.64532 0.21885 0.0
C249 C 0.76451 0.66453 0.2082 0.0
C250 C 0.76482 0.68353 0.22227 0.0
C251 C 0.7577 0.68316 0.24739 0.0
C252 C 0.75125 0.66352 0.25833 0.0
C253 C 0.75163 0.64474 0.24398 0.0
C254 C 0.77249 0.704 0.21026 0.0
C255 C 0.7439 0.66233 0.28514 0.0
C256 C 0.82277 0.73553 0.41252 0.0
C257 C 0.83553 0.72121 0.39457 0.0
C258 C 0.81961 0.72856 0.35333 0.0
C259 C 0.8231 0.73805 0.33003 0.0
C260 C 0.80749 0.7372 0.31114 0.0
C261 C 0.78784 0.72662 0.31577 0.0
C262 C 0.78407 0.71714 0.33935 0.0
C263 C 0.79996 0.71816 0.35785 0.0
C264 C 0.81195 0.74754 0.28623 0.0
C265 C 0.76322 0.70585 0.34498 0.0
C266 C 0.70071 0.78162 0.28888 0.0
C267 C 0.68427 0.77715 0.27192 0.0
C268 C 0.6851 0.7592 0.25637 0.0
C269 C 0.70317 0.74553 0.25714 0.0
C270 C 0.7048 0.72764 0.24132 0.0
C271 C 0.72223 0.7138 0.24288 0.0
C272 C 0.73888 0.71749 0.26009 0.0
C273 C 0.75647 0.70327 0.26215 0.0
C274 C 0.77251 0.7072 0.2798 0.0
C275 C 0.77139 0.72486 0.29581 0.0
C276 C 0.75407 0.7394 0.29386 0.0
C277 C 0.75245 0.75734 0.30965 0.0
C278 C 0.73503 0.77123 0.30803 0.0
C279 C 0.7186 0.76776 0.2905 0.0
C280 C 0.7199 0.74974 0.27441 0.0
C281 C 0.73773 0.73565 0.27596 0.0
C282 C 0.72593 0.60538 0.21238 0.0
C283 C 0.73829 0.61958 0.19401 0.0
O284 O 0.68769 0.85585 0.34797 0.0
O285 O 0.8355 0.72992 0.37073 0.0
O286 O 0.75695 0.62727 0.20487 0.0
O287 O 0.60903 0.74626 0.20112 0.0
H288 H 0.66531 0.8477 0.37447 0.0
H289 H 0.64679 0.85264 0.33323 0.0
H290 H 0.65524 0.88029 0.33242 0.0
H291 H 0.63665 0.87114 0.35608 0.0
H292 H 0.66892 0.81734 0.35546 0.0
H293 H 0.71382 0.85289 0.31106 0.0
H294 H 0.65965 0.77602 0.31814 0.0
H295 H 0.66419 0.78032 0.35097 0.0
H296 H 0.68342 0.76557 0.33252 0.0
H297 H 0.72941 0.83844 0.27466 0.0
H298 H 0.71584 0.81587 0.26065 0.0
H299 H 0.73821 0.81148 0.281 0.0
H300 H 0.60203 0.77852 0.20293 0.0
H301 H 0.56339 0.77285 0.21127 0.0
H302 H 0.58014 0.75968 0.23399 0.0
H303 H 0.56719 0.7441 0.20998 0.0
H304 H 0.6398 0.77329 0.18884 0.0
H305 H 0.62049 0.72406 0.23968 0.0
H306 H 0.69455 0.7766 0.20982 0.0
H307 H 0.67793 0.79728 0.22268 0.0
H308 H 0.67427 0.78918 0.19066 0.0
H309 H 0.63961 0.71657 0.27665 0.0
H310 H 0.65811 0.73674 0.2876 0.0
H311 H 0.66767 0.71477 0.26912 0.0
H312 H 0.72783 0.63334 0.18864 0.0
H313 H 0.76947 0.66463 0.1888 0.0
H314 H 0.74712 0.62959 0.25231 0.0
H315 H 0.75872 0.71504 0.20766 0.0
H316 H 0.78002 0.70109 0.19176 0.0
H317 H 0.78427 0.71216 0.22256 0.0
H318 H 0.73668 0.64653 0.28972 0.0
H319 H 0.73195 0.67508 0.2891 0.0
H320 H 0.75785 0.66494 0.29763 0.0
H321 H 0.82815 0.70498 0.39417 0.0
H322 H 0.82312 0.7287 0.43168 0.0
H323 H 0.80578 0.73669 0.40656 0.0
H324 H 0.82957 0.75198 0.413 0.0
H325 H 0.83822 0.74609 0.32665 0.0
H326 H 0.79678 0.71079 0.37572 0.0
H327 H 0.79918 0.75937 0.28187 0.0
H328 H 0.81168 0.73517 0.27133 0.0
H329 H 0.82773 0.75579 0.28583 0.0
H330 H 0.7628 0.69912 0.36418 0.0
H331 H 0.7607 0.69262 0.33145 0.0
H332 H 0.74966 0.71722 0.34284 0.0
H333 H 0.67036 0.78759 0.27121 0.0
H334 H 0.69251 0.72403 0.22767 0.0
H335 H 0.72243 0.70012 0.23046 0.0
H336 H 0.78569 0.69597 0.28165 0.0
H337 H 0.76461 0.76079 0.32351 0.0
H338 H 0.73455 0.78467 0.3208 0.0
H339 H 0.71216 0.59753 0.2029 0.0
H340 H 0.71932 0.6152 0.22783 0.0
H341 H 0.73659 0.59282 0.22028 0.0
C342 C 0.31952 0.83486 0.09494 0.0
C343 C 0.33799 0.83237 0.11363 0.0
C344 C 0.32261 0.81214 0.14909 0.0
C345 C 0.32409 0.79286 0.16218 0.0
C346 C 0.31194 0.78921 0.18378 0.0
C347 C 0.29734 0.80508 0.19201 0.0
C348 C 0.29569 0.82468 0.17882 0.0
C349 C 0.30854 0.82814 0.15765 0.0
C350 C 0.31483 0.76841 0.19778 0.0
C351 C 0.28035 0.84198 0.18708 0.0
C352 C 0.34889 0.86052 0.35764 0.0
C353 C 0.3269 0.86469 0.346 0.0
C354 C 0.3064 0.83672 0.32545 0.0
C355 C 0.29427 0.84889 0.3086 0.0
C356 C 0.2853 0.83936 0.28727 0.0
C357 C 0.28897 0.81733 0.28252 0.0
C358 C 0.3013 0.80507 0.29957 0.0
C359 C 0.30939 0.81487 0.32118 0.0
C360 C 0.27199 0.85287 0.26978 0.0
C361 C 0.3062 0.78171 0.29489 0.0
C362 C 0.18382 0.73541 0.33347 0.0
C363 C 0.17574 0.75235 0.31905 0.0
C364 C 0.18361 0.75618 0.29491 0.0
C365 C 0.20001 0.74289 0.28521 0.0
C366 C 0.20731 0.7251 0.29923 0.0
C367 C 0.19887 0.72144 0.32312 0.0
C368 C 0.17494 0.77482 0.2801 0.0
C369 C 0.22462 0.71047 0.28937 0.0
C370 C 0.19997 0.70812 0.08621 0.0
C371 C 0.20679 0.69496 0.10896 0.0
C372 C 0.19755 0.70816 0.15025 0.0
C373 C 0.18414 0.7242 0.15956 0.0
C374 C 0.18952 0.73551 0.18135 0.0
C375 C 0.20848 0.73009 0.19447 0.0
C376 C 0.22144 0.71295 0.18587 0.0
C377 C 0.21593 0.70231 0.16368 0.0
C378 C 0.17522 0.75353 0.19004 0.0
C379 C 0.24122 0.70601 0.19995 0.0
C380 C 0.28427 0.80134 0.21479 0.0
C381 C 0.29101 0.81094 0.23703 0.0
C382 C 0.28029 0.80719 0.25952 0.0
C383 C 0.26236 0.79332 0.25999 0.0
C384 C 0.25123 0.78914 0.28227 0.0
C385 C 0.23437 0.77459 0.28282 0.0
C386 C 0.22768 0.76394 0.261 0.0
C387 C 0.2109 0.7487 0.26152 0.0
C388 C 0.20485 0.73817 0.23958 0.0
C389 C 0.21501 0.74259 0.21686 0.0
C390 C 0.23158 0.75809 0.21591 0.0
C391 C 0.2418 0.76338 0.19331 0.0
C392 C 0.25878 0.77785 0.1928 0.0
C393 C 0.26625 0.78754 0.21486 0.0
C394 C 0.25553 0.78323 0.23764 0.0
C395 C 0.23816 0.76851 0.23815 0.0
C396 C 0.18993 0.74481 0.39659 0.0
C397 C 0.17418 0.74808 0.37505 0.0
O398 O 0.3349 0.81433 0.12829 0.0
O399 O 0.19243 0.69863 0.12827 0.0
O400 O 0.1775 0.73215 0.3574 0.0
O401 O 0.31542 0.84568 0.34597 0.0
H402 H 0.33894 0.84689 0.12566 0.0
H403 H 0.30405 0.83703 0.10481 0.0
H404 H 0.31821 0.82044 0.08285 0.0
H405 H 0.32222 0.84915 0.08297 0.0
H406 H 0.33505 0.78066 0.15549 0.0
H407 H 0.30733 0.84325 0.14788 0.0
H408 H 0.31644 0.77147 0.21813 0.0
H409 H 0.32915 0.75939 0.19131 0.0
H410 H 0.30052 0.75814 0.19498 0.0
H411 H 0.27877 0.85495 0.17297 0.0
H412 H 0.28621 0.84916 0.20477 0.0
H413 H 0.26424 0.83507 0.19074 0.0
H414 H 0.32973 0.8703 0.3265 0.0
H415 H 0.35878 0.87533 0.35734 0.0
H416 H 0.35743 0.84795 0.34683 0.0
H417 H 0.34717 0.85498 0.37727 0.0
H418 H 0.29167 0.86576 0.3123 0.0
H419 H 0.31874 0.80567 0.33444 0.0
H420 H 0.28094 0.85534 0.25212 0.0
H421 H 0.26815 0.86881 0.27787 0.0
H422 H 0.25678 0.84452 0.26512 0.0
H423 H 0.319 0.77563 0.30745 0.0
H424 H 0.31126 0.77918 0.27523 0.0
H425 H 0.29155 0.77203 0.29811 0.0
H426 H 0.17754 0.76423 0.36708 0.0
H427 H 0.16339 0.76264 0.32671 0.0
H428 H 0.20466 0.70816 0.33429 0.0
H429 H 0.18737 0.7875 0.27884 0.0
H430 H 0.16036 0.78183 0.28878 0.0
H431 H 0.17104 0.76967 0.26077 0.0
H432 H 0.22862 0.69741 0.30266 0.0
H433 H 0.23936 0.71989 0.28553 0.0
H434 H 0.21935 0.70322 0.27146 0.0
H435 H 0.22315 0.70063 0.11414 0.0
H436 H 0.21126 0.70545 0.07046 0.0
H437 H 0.20012 0.72545 0.09098 0.0
H438 H 0.18351 0.7037 0.08015 0.0
H439 H 0.16981 0.72835 0.14918 0.0
H440 H 0.22591 0.68936 0.15684 0.0
H441 H 0.18479 0.76838 0.1926 0.0
H442 H 0.16813 0.74934 0.20841 0.0
H443 H 0.162 0.75684 0.17669 0.0
H444 H 0.24749 0.6904 0.19314 0.0
H445 H 0.23773 0.70465 0.22022 0.0
H446 H 0.25397 0.71825 0.19761 0.0
H447 H 0.30506 0.82119 0.23692 0.0
H448 H 0.25561 0.79686 0.29965 0.0
H449 H 0.22675 0.77173 0.30066 0.0
H450 H 0.19226 0.72619 0.24025 0.0
H451 H 0.2369 0.75626 0.17579 0.0
H452 H 0.26615 0.78116 0.17491 0.0
H453 H 0.18779 0.75751 0.41094 0.0
H454 H 0.20664 0.74569 0.38948 0.0
H455 H 0.18751 0.72888 0.40543 0.0
C456 C 0.18045 0.63656 0.61595 0.0
C457 C 0.17367 0.65825 0.62668 0.0
C458 C 0.20033 0.68291 0.64294 0.0
C459 C 0.18853 0.69472 0.6604 0.0
C460 C 0.19884 0.70496 0.68045 0.0
C461 C 0.22133 0.70283 0.68334 0.0
C462 C 0.23324 0.69097 0.66549 0.0
C463 C 0.22258 0.68169 0.6451 0.0
C464 C 0.18561 0.71767 0.69881 0.0
C465 C 0.25708 0.68745 0.66821 0.0
C466 C 0.25213 0.61908 0.85896 0.0
C467 C 0.25702 0.6338 0.83813 0.0
C468 C 0.24075 0.6616 0.81249 0.0
C469 C 0.25663 0.6606 0.79388 0.0
C470 C 0.25615 0.67446 0.77334 0.0
C471 C 0.2395 0.68975 0.77131 0.0
C472 C 0.22327 0.69062 0.7897 0.0
C473 C 0.2241 0.67647 0.8101 0.0
C474 C 0.27364 0.67289 0.75391 0.0
C475 C 0.20531 0.70673 0.78796 0.0
C476 C 0.33072 0.78762 0.81882 0.0
C477 C 0.33744 0.77064 0.80359 0.0
C478 C 0.3276 0.76686 0.78044 0.0
C479 C 0.31052 0.78023 0.7726 0.0
C480 C 0.30452 0.79806 0.78737 0.0
C481 C 0.31494 0.80167 0.81023 0.0
C482 C 0.33501 0.74817 0.76476 0.0
C483 C 0.28657 0.81277 0.77945 0.0
C484 C 0.31597 0.80747 0.56923 0.0
C485 C 0.30871 0.8183 0.59342 0.0
C486 C 0.31475 0.80479 0.63552 0.0
C487 C 0.32607 0.78845 0.64744 0.0
C488 C 0.31894 0.77994 0.67019 0.0
C489 C 0.30035 0.78853 0.68163 0.0
C490 C 0.28945 0.80587 0.67027 0.0
C491 C 0.29666 0.81371 0.64716 0.0
C492 C 0.33117 0.76161 0.68184 0.0
C493 C 0.27012 0.81596 0.68245 0.0
C494 C 0.23199 0.71116 0.70622 0.0
C495 C 0.22921 0.69942 0.72824 0.0
C496 C 0.23976 0.70516 0.75023 0.0
C497 C 0.25293 0.72354 0.75071 0.0
C498 C 0.26311 0.73015 0.77282 0.0
C499 C 0.27727 0.74732 0.77281 0.0
C500 C 0.2822 0.75823 0.75056 0.0
C501 C 0.29791 0.77456 0.75001 0.0
C502 C 0.30277 0.78477 0.72749 0.0
C503 C 0.29237 0.77907 0.70531 0.0
C504 C 0.27625 0.76308 0.7056 0.0
C505 C 0.26516 0.75715 0.68376 0.0
C506 C 0.24999 0.74076 0.6841 0.0
C507 C 0.24595 0.72908 0.70605 0.0
C508 C 0.25653 0.73519 0.7284 0.0
C509 C 0.27145 0.75238 0.72824 0.0
C510 C 0.32679 0.77819 0.88117 0.0
C511 C 0.3424 0.77481 0.85951 0.0
O512 O 0.19058 0.67249 0.62387 0.0
O513 O 0.32171 0.81149 0.61281 0.0
O514 O 0.33913 0.79077 0.84188 0.0
O515 O 0.24105 0.64859 0.83288 0.0
H516 H 0.16999 0.65578 0.64685 0.0
H517 H 0.19515 0.63085 0.6256 0.0
H518 H 0.18392 0.63798 0.59566 0.0
H519 H 0.16765 0.62443 0.61877 0.0
H520 H 0.1713 0.69593 0.65829 0.0
H521 H 0.23147 0.67259 0.63132 0.0
H522 H 0.18416 0.70851 0.7165 0.0
H523 H 0.16922 0.72094 0.69163 0.0
H524 H 0.19357 0.73315 0.70317 0.0
H525 H 0.26295 0.67439 0.65588 0.0
H526 H 0.2613 0.68344 0.6878 0.0
H527 H 0.26572 0.70236 0.66311 0.0
H528 H 0.27351 0.64071 0.83823 0.0
H529 H 0.24918 0.58708 0.84028 0.0
H530 H 0.23872 0.62674 0.87 0.0
H531 H 0.26478 0.62229 0.87358 0.0
H532 H 0.26955 0.64909 0.79525 0.0
H533 H 0.21186 0.6771 0.82444 0.0
H534 H 0.26647 0.67104 0.73505 0.0
H535 H 0.28464 0.65921 0.75735 0.0
H536 H 0.28321 0.68789 0.75386 0.0
H537 H 0.19384 0.70533 0.80374 0.0
H538 H 0.19648 0.70445 0.77014 0.0
H539 H 0.21207 0.72319 0.7878 0.0
H540 H 0.33891 0.75869 0.85153 0.0
H541 H 0.35031 0.76028 0.80985 0.0
H542 H 0.31018 0.81499 0.82199 0.0
H543 H 0.3228 0.73525 0.76548 0.0
H544 H 0.3505 0.74153 0.77145 0.0
H545 H 0.33681 0.75309 0.74496 0.0
H546 H 0.28374 0.82585 0.79313 0.0
H547 H 0.27155 0.80342 0.77722 0.0
H548 H 0.29041 0.82 0.76104 0.0
H549 H 0.29186 0.813 0.5966 0.0
H550 H 0.30577 0.81274 0.55336 0.0
H551 H 0.31447 0.7898 0.5711 0.0
H552 H 0.33297 0.81137 0.56504 0.0
H553 H 0.34018 0.78192 0.63842 0.0
H554 H 0.28826 0.82687 0.63831 0.0
H555 H 0.32008 0.74829 0.68654 0.0
H556 H 0.33872 0.76713 0.69947 0.0
H557 H 0.34395 0.75537 0.66935 0.0
H558 H 0.26472 0.83061 0.67249 0.0
H559 H 0.27384 0.82017 0.70213 0.0
H560 H 0.25671 0.80427 0.68272 0.0
H561 H 0.21944 0.68502 0.72798 0.0
H562 H 0.26033 0.72201 0.79039 0.0
H563 H 0.28467 0.75159 0.79041 0.0
H564 H 0.31532 0.79681 0.72707 0.0
H565 H 0.26812 0.76508 0.66612 0.0
H566 H 0.24188 0.73695 0.66678 0.0
H567 H 0.32894 0.76548 0.8955 0.0
H568 H 0.32937 0.79411 0.89 0.0
H569 H 0.31004 0.77741 0.87418 0.0
C570 C 0.15337 0.35851 0.86164 0.0
C571 C 0.17399 0.35422 0.87643 0.0
C572 C 0.19337 0.33225 0.84554 0.0
C573 C 0.18283 0.31275 0.85023 0.0
C574 C 0.18552 0.29513 0.83422 0.0
C575 C 0.19869 0.29713 0.81282 0.0
C576 C 0.20949 0.31667 0.80819 0.0
C577 C 0.20696 0.33384 0.82489 0.0
C578 C 0.174 0.27444 0.83999 0.0
C579 C 0.22329 0.31961 0.7853 0.0
C580 C 0.07292 0.26709 0.71597 0.0
C581 C 0.0928 0.26819 0.6993 0.0
C582 C 0.12496 0.25283 0.71739 0.0
C583 C 0.14054 0.26788 0.71044 0.0
C584 C 0.15961 0.26997 0.72417 0.0
C585 C 0.16299 0.25685 0.74537 0.0
C586 C 0.14739 0.2414 0.75212 0.0
C587 C 0.12872 0.23933 0.73769 0.0
C588 C 0.17608 0.28626 0.71612 0.0
C589 C 0.15023 0.22735 0.77482 0.0
C590 C 0.25012 0.14944 0.70497 0.0
C591 C 0.25615 0.16972 0.69626 0.0
C592 C 0.25818 0.18705 0.71284 0.0
C593 C 0.25346 0.18404 0.73849 0.0
C594 C 0.24797 0.16336 0.74733 0.0
C595 C 0.24676 0.14621 0.73044 0.0
C596 C 0.265 0.2086 0.70287 0.0
C597 C 0.24302 0.15938 0.77452 0.0
C598 C 0.32589 0.2274 0.90335 0.0
C599 C 0.3391 0.2144 0.8845 0.0
C600 C 0.32146 0.22259 0.84443 0.0
C601 C 0.32338 0.23378 0.82192 0.0
C602 C 0.30685 0.23358 0.80409 0.0
C603 C 0.28789 0.2219 0.80897 0.0
C604 C 0.28582 0.21046 0.83164 0.0
C605 C 0.3026 0.21085 0.84908 0.0
C606 C 0.30955 0.24594 0.7801 0.0
C607 C 0.26577 0.19788 0.83749 0.0
C608 C 0.20006 0.27922 0.79456 0.0
C609 C 0.18278 0.27633 0.77826 0.0
C610 C 0.18255 0.25962 0.7609 0.0
C611 C 0.20027 0.24557 0.75924 0.0
C612 C 0.2007 0.22881 0.74172 0.0
C613 C 0.21791 0.21469 0.74066 0.0
C614 C 0.23558 0.217 0.75677 0.0
C615 C 0.25314 0.20264 0.75586 0.0
C616 C 0.2702 0.20513 0.77255 0.0
C617 C 0.27017 0.22148 0.79043 0.0
C618 C 0.25289 0.23615 0.79141 0.0
C619 C 0.25235 0.25282 0.8091 0.0
C620 C 0.23508 0.26694 0.8102 0.0
C621 C 0.21772 0.265 0.79359 0.0
C622 C 0.21788 0.24823 0.7757 0.0
C623 C 0.23554 0.23388 0.7745 0.0
C624 C 0.21049 0.12693 0.68083 0.0
C625 C 0.23259 0.13227 0.67002 0.0
O626 O 0.19079 0.34993 0.86016 0.0
O627 O 0.33801 0.22372 0.86101 0.0
O628 O 0.24761 0.13273 0.68911 0.0
O629 O 0.10616 0.25108 0.70483 0.0
H630 H 0.17152 0.34037 0.88915 0.0
H631 H 0.14891 0.34422 0.85043 0.0
H632 H 0.15561 0.37231 0.84879 0.0
H633 H 0.13986 0.36205 0.87452 0.0
H634 H 0.17246 0.31107 0.86627 0.0
H635 H 0.2151 0.3489 0.82146 0.0
H636 H 0.16084 0.27206 0.82632 0.0
H637 H 0.16701 0.2744 0.85907 0.0
H638 H 0.18515 0.26064 0.83823 0.0
H639 H 0.22906 0.33637 0.78328 0.0
H640 H 0.21414 0.31516 0.76828 0.0
H641 H 0.23742 0.30886 0.78643 0.0
H642 H 0.10087 0.28371 0.70354 0.0
H643 H 0.06195 0.28067 0.71179 0.0
H644 H 0.07777 0.26817 0.73589 0.0
H645 H 0.0642 0.25176 0.71312 0.0
H646 H 0.1378 0.2779 0.69423 0.0
H647 H 0.11662 0.22765 0.7427 0.0
H648 H 0.19211 0.27861 0.71472 0.0
H649 H 0.17718 0.29913 0.7304 0.0
H650 H 0.17204 0.29369 0.69786 0.0
H651 H 0.13566 0.21777 0.77898 0.0
H652 H 0.15417 0.2373 0.7914 0.0
H653 H 0.16381 0.21617 0.77173 0.0
H654 H 0.23171 0.14824 0.66078 0.0
H655 H 0.25933 0.17192 0.67654 0.0
H656 H 0.24243 0.13034 0.73691 0.0
H657 H 0.25094 0.2195 0.70233 0.0
H658 H 0.27169 0.20742 0.68369 0.0
H659 H 0.27721 0.21595 0.7153 0.0
H660 H 0.23643 0.14308 0.77778 0.0
H661 H 0.23132 0.17138 0.78152 0.0
H662 H 0.25795 0.16111 0.78562 0.0
H663 H 0.33274 0.19776 0.88365 0.0
H664 H 0.32714 0.22013 0.92224 0.0
H665 H 0.30871 0.22762 0.898 0.0
H666 H 0.33164 0.24424 0.90423 0.0
H667 H 0.33792 0.24278 0.8184 0.0
H668 H 0.3007 0.202 0.86628 0.0
H669 H 0.29652 0.25797 0.77833 0.0
H670 H 0.30822 0.23486 0.76395 0.0
H671 H 0.32524 0.25432 0.77912 0.0
H672 H 0.26661 0.1898 0.85595 0.0
H673 H 0.26311 0.18555 0.82288 0.0
H674 H 0.25167 0.20874 0.83737 0.0
H675 H 0.16913 0.28709 0.77937 0.0
H676 H 0.18764 0.22632 0.72871 0.0
H677 H 0.21713 0.20193 0.727 0.0
H678 H 0.28343 0.19384 0.77206 0.0
H679 H 0.26526 0.2551 0.82235 0.0
H680 H 0.23548 0.27938 0.82428 0.0
H681 H 0.21082 0.11108 0.69029 0.0
H682 H 0.19819 0.12661 0.66582 0.0
H683 H 0.2057 0.13931 0.69465 0.0
C684 C 0.81458 0.32733 0.58443 0.0
C685 C 0.83174 0.32982 0.60472 0.0
C686 C 0.81713 0.31254 0.64263 0.0
C687 C 0.82097 0.29608 0.65969 0.0
C688 C 0.80862 0.29393 0.6814 0.0
C689 C 0.79133 0.30819 0.68563 0.0
C690 C 0.78711 0.32477 0.66822 0.0
C691 C 0.80028 0.32699 0.64708 0.0
C692 C 0.8143 0.27653 0.69986 0.0
C693 C 0.76869 0.34014 0.67188 0.0
C694 C 0.75704 0.41152 0.85084 0.0
C695 C 0.75498 0.40074 0.82638 0.0
C696 C 0.772 0.37215 0.80252 0.0
C697 C 0.75498 0.36983 0.78553 0.0
C698 C 0.75477 0.35304 0.76817 0.0
C699 C 0.77179 0.33805 0.76797 0.0
C700 C 0.78915 0.3405 0.78471 0.0
C701 C 0.78909 0.35766 0.8017 0.0
C702 C 0.73619 0.35121 0.7502 0.0
C703 C 0.80749 0.32476 0.78495 0.0
C704 C 0.6941 0.23974 0.84363 0.0
C705 C 0.68326 0.25378 0.82752 0.0
C706 C 0.68969 0.25598 0.80253 0.0
C707 C 0.70752 0.24415 0.79371 0.0
C708 C 0.71772 0.22917 0.80961 0.0
C709 C 0.71064 0.22697 0.83434 0.0
C710 C 0.67786 0.27141 0.78577 0.0
C711 C 0.73658 0.21607 0.80075 0.0
C712 C 0.70161 0.19853 0.60043 0.0
C713 C 0.70958 0.18455 0.62198 0.0
C714 C 0.70142 0.19812 0.66326 0.0
C715 C 0.68758 0.21402 0.67195 0.0
C716 C 0.69326 0.22692 0.69237 0.0
C717 C 0.71301 0.22329 0.70473 0.0
C718 C 0.72642 0.20624 0.69695 0.0
C719 C 0.72055 0.19393 0.6761 0.0
C720 C 0.67843 0.24478 0.70031 0.0
C721 C 0.74713 0.20132 0.71034 0.0
C722 C 0.77831 0.30619 0.70875 0.0
C723 C 0.78149 0.32133 0.72766 0.0
C724 C 0.77087 0.31961 0.75052 0.0
C725 C 0.75783 0.30159 0.75542 0.0
C726 C 0.74867 0.29829 0.77907 0.0
C727 C 0.73556 0.28071 0.78359 0.0
C728 C 0.73048 0.26616 0.7644 0.0
C729 C 0.71658 0.2486 0.7686 0.0
C730 C 0.71141 0.23481 0.74893 0.0
C731 C 0.71995 0.23791 0.72505 0.0
C732 C 0.73437 0.25503 0.72065 0.0
C733 C 0.7436 0.25844 0.69699 0.0
C734 C 0.75808 0.27509 0.69304 0.0
C735 C 0.7635 0.28928 0.71243 0.0
C736 C 0.75371 0.28666 0.7361 0.0
C737 C 0.73954 0.26923 0.7404 0.0
C738 C 0.69702 0.25513 0.9068 0.0
C739 C 0.68291 0.25509 0.88345 0.0
O740 O 0.82995 0.31351 0.62216 0.0
O741 O 0.69608 0.18716 0.64231 0.0
O742 O 0.68912 0.23822 0.86822 0.0
O743 O 0.7723 0.38788 0.8201 0.0
H744 H 0.82991 0.34566 0.61404 0.0
H745 H 0.79828 0.32837 0.5926 0.0
H746 H 0.81612 0.31157 0.57494 0.0
H747 H 0.81621 0.34029 0.57032 0.0
H748 H 0.83404 0.28504 0.65611 0.0
H749 H 0.79715 0.33989 0.63411 0.0
H750 H 0.81408 0.28286 0.71924 0.0
H751 H 0.83037 0.26955 0.69611 0.0
H752 H 0.80229 0.26347 0.69867 0.0
H753 H 0.76514 0.34942 0.65466 0.0
H754 H 0.77277 0.35163 0.68697 0.0
H755 H 0.75401 0.33138 0.67763 0.0
H756 H 0.74899 0.41098 0.81081 0.0
H757 H 0.75671 0.42926 0.84666 0.0
H758 H 0.77465 0.41127 0.85578 0.0
H759 H 0.73171 0.3959 0.87427 0.0
H760 H 0.74174 0.38103 0.78573 0.0
H761 H 0.80218 0.3596 0.81481 0.0
H762 H 0.72658 0.33678 0.75484 0.0
H763 H 0.74218 0.34927 0.7308 0.0
H764 H 0.72548 0.36543 0.7509 0.0
H765 H 0.81944 0.32846 0.79972 0.0
H766 H 0.81568 0.32494 0.76654 0.0
H767 H 0.80125 0.30829 0.78797 0.0
H768 H 0.68561 0.27073 0.87391 0.0
H769 H 0.66986 0.26308 0.83447 0.0
H770 H 0.71861 0.21589 0.84686 0.0
H771 H 0.68807 0.28567 0.78228 0.0
H772 H 0.66253 0.27689 0.79419 0.0
H773 H 0.67444 0.26382 0.76744 0.0
H774 H 0.74301 0.20543 0.8156 0.0
H775 H 0.7496 0.22688 0.79432 0.0
H776 H 0.7317 0.20605 0.78459 0.0
H777 H 0.72611 0.19011 0.6265 0.0
H778 H 0.71218 0.1966 0.58387 0.0
H779 H 0.70185 0.21565 0.60612 0.0
H780 H 0.68493 0.19418 0.59517 0.0
H781 H 0.67269 0.21685 0.66205 0.0
H782 H 0.73088 0.18108 0.66974 0.0
H783 H 0.6872 0.26027 0.70031 0.0
H784 H 0.6728 0.24182 0.71967 0.0
H785 H 0.66423 0.24622 0.68791 0.0
H786 H 0.75419 0.18584 0.70421 0.0
H787 H 0.74443 0.20075 0.73083 0.0
H788 H 0.7589 0.21426 0.70659 0.0
H789 H 0.79211 0.33481 0.72441 0.0
H790 H 0.75178 0.30914 0.79444 0.0
H791 H 0.72922 0.27887 0.80228 0.0
H792 H 0.70055 0.22153 0.75223 0.0
H793 H 0.73989 0.24817 0.68128 0.0
H794 H 0.7648 0.27686 0.67452 0.0
H795 H 0.69524 0.23984 0.91726 0.0
H796 H 0.69261 0.26869 0.91924 0.0
H797 H 0.7141 0.257 0.90137 0.0
C798 C 0.78107 0.63521 0.83961 0.0
C799 C 0.80418 0.63807 0.84906 0.0
C800 C 0.81089 0.6763 0.84018 0.0
C801 C 0.81417 0.69642 0.85101 0.0
C802 C 0.81675 0.71485 0.83626 0.0
C803 C 0.8153 0.71318 0.80994 0.0
C804 C 0.81229 0.69282 0.79881 0.0
C805 C 0.81054 0.67457 0.81399 0.0
C806 C 0.8209 0.73608 0.84886 0.0
C807 C 0.81085 0.69031 0.77081 0.0
C808 C 0.95802 0.75142 0.7359 0.0
C809 C 0.9369 0.74937 0.72159 0.0
C810 C 0.90277 0.7633 0.73649 0.0
C811 C 0.88902 0.74816 0.72559 0.0
C812 C 0.86807 0.74531 0.73462 0.0
C813 C 0.86091 0.75767 0.75517 0.0
C814 C 0.87468 0.77322 0.76587 0.0
C815 C 0.89531 0.77611 0.756 0.0
C816 C 0.85371 0.72895 0.72235 0.0
C817 C 0.86782 0.78651 0.78803 0.0
C818 C 0.77701 0.86563 0.70189 0.0
C819 C 0.77204 0.84534 0.69228 0.0
C820 C 0.76925 0.82774 0.7083 0.0
C821 C 0.77192 0.8305 0.73438 0.0
C822 C 0.7765 0.85113 0.74408 0.0
C823 C 0.77861 0.86851 0.72766 0.0
C824 C 0.7635 0.80621 0.69734 0.0
C825 C 0.77936 0.85483 0.77173 0.0
C826 C 0.69174 0.78723 0.8933 0.0
C827 C 0.67966 0.80224 0.87545 0.0
C828 C 0.69705 0.79457 0.8351 0.0
C829 C 0.69462 0.78447 0.81195 0.0
C830 C 0.71152 0.78378 0.79461 0.0
C831 C 0.73136 0.7934 0.80068 0.0
C832 C 0.7339 0.80384 0.82396 0.0
C833 C 0.71674 0.80441 0.84085 0.0
C834 C 0.7083 0.77259 0.76993 0.0
C835 C 0.75487 0.81428 0.8311 0.0
C836 C 0.81709 0.7326 0.79396 0.0
C837 C 0.8366 0.73639 0.7819 0.0
C838 C 0.83929 0.75396 0.766 0.0
C839 C 0.82194 0.76806 0.76162 0.0
C840 C 0.82382 0.78542 0.74504 0.0
C841 C 0.80693 0.79966 0.74152 0.0
C842 C 0.78746 0.79708 0.75442 0.0
C843 C 0.77036 0.81179 0.75147 0.0
C844 C 0.75179 0.80951 0.76587 0.0
C845 C 0.74965 0.79269 0.78294 0.0
C846 C 0.76596 0.77704 0.78489 0.0
C847 C 0.76373 0.75918 0.80067 0.0
C848 C 0.78018 0.74424 0.80309 0.0
C849 C 0.79981 0.74704 0.79059 0.0
C850 C 0.80228 0.76481 0.77433 0.0
C851 C 0.78514 0.77954 0.77102 0.0
C852 C 0.81594 0.89085 0.67648 0.0
C853 C 0.79396 0.88365 0.66688 0.0
O854 O 0.80796 0.65923 0.85569 0.0
O855 O 0.68017 0.79424 0.85127 0.0
O856 O 0.77973 0.8828 0.68674 0.0
O857 O 0.92332 0.76584 0.72875 0.0
H858 H 0.81556 0.63322 0.83408 0.0
H859 H 0.77822 0.64452 0.82232 0.0
H860 H 0.76935 0.6407 0.85386 0.0
H861 H 0.77795 0.61807 0.8353 0.0
H862 H 0.81472 0.69763 0.87119 0.0
H863 H 0.80868 0.65911 0.80514 0.0
H864 H 0.83416 0.74473 0.83936 0.0
H865 H 0.82506 0.73412 0.8689 0.0
H866 H 0.80634 0.74624 0.84757 0.0
H867 H 0.80561 0.67398 0.76525 0.0
H868 H 0.82683 0.69338 0.76246 0.0
H869 H 0.79947 0.70219 0.76288 0.0
H870 H 0.92998 0.73354 0.72695 0.0
H871 H 0.96919 0.73835 0.73047 0.0
H872 H 0.95494 0.75018 0.75628 0.0
H873 H 0.96576 0.76712 0.7321 0.0
H874 H 0.89461 0.73864 0.70998 0.0
H875 H 0.90603 0.78789 0.76409 0.0
H876 H 0.85171 0.71506 0.73506 0.0
H877 H 0.86041 0.72308 0.70439 0.0
H878 H 0.83758 0.73587 0.71887 0.0
H879 H 0.88131 0.79586 0.79607 0.0
H880 H 0.86103 0.77606 0.80284 0.0
H881 H 0.85509 0.79789 0.78222 0.0
H882 H 0.79579 0.86753 0.65821 0.0
H883 H 0.77003 0.84334 0.67233 0.0
H884 H 0.78209 0.88438 0.73482 0.0
H885 H 0.77743 0.79523 0.69898 0.0
H886 H 0.75899 0.80738 0.67732 0.0
H887 H 0.74998 0.79895 0.70784 0.0
H888 H 0.78589 0.87101 0.77586 0.0
H889 H 0.79027 0.8426 0.77982 0.0
H890 H 0.76359 0.85327 0.78115 0.0
H891 H 0.68722 0.81839 0.87591 0.0
H892 H 0.69092 0.79347 0.91271 0.0
H893 H 0.70889 0.78599 0.88804 0.0
H894 H 0.68472 0.77087 0.89282 0.0
H895 H 0.67941 0.77697 0.80757 0.0
H896 H 0.71901 0.81249 0.8585 0.0
H897 H 0.72022 0.75947 0.76794 0.0
H898 H 0.71107 0.78407 0.75443 0.0
H899 H 0.69194 0.76575 0.76805 0.0
H900 H 0.7541 0.82229 0.84961 0.0
H901 H 0.75942 0.82635 0.81684 0.0
H902 H 0.76776 0.80201 0.83165 0.0
H903 H 0.84995 0.72557 0.78506 0.0
H904 H 0.83844 0.78826 0.73466 0.0
H905 H 0.80944 0.81287 0.72876 0.0
H906 H 0.73914 0.82138 0.76437 0.0
H907 H 0.74916 0.75647 0.81118 0.0
H908 H 0.77745 0.73069 0.81531 0.0
H909 H 0.82777 0.8913 0.66098 0.0
H910 H 0.82185 0.87939 0.69078 0.0
H911 H 0.81483 0.90703 0.68507 0.0
C912 C 0.9739 0.31302 0.51833 0.0
C913 C 0.03625 0.30714 0.46338 0.0
O914 O 0.98473 0.32849 0.50934 0.0
Zn915 Zn 0.00531 0.31089 0.49122 0.0
O916 O 0.97939 0.29369 0.51337 0.0
Zn917 Zn 0.0031 0.27668 0.49242 0.0
O918 O 0.01803 0.26088 0.5183 0.0
O919 O 0.02275 0.29586 0.52088 0.0
O920 O 0.02847 0.28893 0.46974 0.0
O921 O 0.02778 0.32425 0.47171 0.0
O922 O 0.98502 0.29665 0.46347 0.0
O923 O 0.9853 0.26154 0.46862 0.0
C924 C 0.02632 0.27694 0.52928 0.0
C925 C 0.97855 0.27796 0.45693 0.0
C926 C 0.71281 0.04161 0.53774 0.0
C927 C 0.70471 0.98438 0.47658 0.0
O928 O 0.73069 0.03635 0.52756 0.0
Zn929 Zn 0.74194 0.01354 0.50009 0.0
O930 O 0.69581 0.03159 0.53183 0.0
Zn931 Zn 0.70881 0.01261 0.50789 0.0
O932 O 0.72824 0.99235 0.53127 0.0
O933 O 0.76166 0.99583 0.51849 0.0
O934 O 0.6905 0.99267 0.49054 0.0
O935 O 0.72418 0.99079 0.4783 0.0
O936 O 0.75356 0.03231 0.47504 0.0
O937 O 0.71847 0.03506 0.47923 0.0
C938 C 0.74813 0.9874 0.53322 0.0
C939 C 0.73597 0.04104 0.46873 0.0
C940 C 0.99206 0.74212 0.54653 0.0
C941 C 0.03833 0.74185 0.47311 0.0
O942 O 0.001 0.75807 0.53609 0.0
Zn943 Zn 0.01431 0.74248 0.50893 0.0
O944 O 0.9943 0.7234 0.53702 0.0
Zn945 Zn 0.01031 0.70886 0.50595 0.0
O946 O 0.02944 0.68924 0.52271 0.0
O947 O 0.03799 0.72329 0.52805 0.0
O948 O 0.03131 0.72311 0.47867 0.0
O949 O 0.03202 0.75797 0.48564 0.0
O950 O 0.98759 0.73257 0.48638 0.0
O951 O 0.9871 0.69724 0.4864 0.0
C952 C 0.04188 0.70336 0.53183 0.0
C953 C 0.97898 0.71489 0.47935 0.0
C954 C 0.27217 0.02378 0.53894 0.0
C955 C 0.28487 0.9773 0.46719 0.0
O956 O 0.29214 0.01972 0.53557 0.0
Zn957 Zn 0.31166 0.00181 0.5098 0.0
O958 O 0.25828 0.0157 0.52433 0.0
Zn959 Zn 0.27791 0.00024 0.5032 0.0
O960 O 0.29034 0.97598 0.5273 0.0
O961 O 0.3253 0.9804 0.53078 0.0
O962 O 0.26679 0.98318 0.47572 0.0
O963 O 0.30215 0.98327 0.4781 0.0
O964 O 0.32893 0.02375 0.49395 0.0
O965 O 0.29442 0.02588 0.48479 0.0
C966 C 0.30843 0.96995 0.53618 0.0
C967 C 0.31359 0.03306 0.48266 0.0
C968 C 0.47549 0.81301 0.0177 0.0
C969 C 0.53773 0.80721 0.96269 0.0
O970 O 0.48676 0.82835 0.00917 0.0
Zn971 Zn 0.50677 0.81064 0.99059 0.0
O972 O 0.48055 0.79363 0.01232 0.0
Zn973 Zn 0.50428 0.77664 0.99101 0.0
O974 O 0.5189 0.76014 0.01643 0.0
O975 O 0.52398 0.79498 0.0201 0.0
O976 O 0.52988 0.78891 0.96861 0.0
O977 O 0.52924 0.82417 0.97133 0.0
O978 O 0.4859 0.79706 0.96276 0.0
O979 O 0.48649 0.76188 0.96704 0.0
C980 C 0.52728 0.77584 0.02797 0.0
C981 C 0.47941 0.77845 0.95593 0.0
C982 C 0.21231 0.54745 0.03472 0.0
C983 C 0.20628 0.48349 0.9827 0.0
O984 O 0.23064 0.54064 0.02728 0.0
Zn985 Zn 0.24273 0.51452 0.00503 0.0
O986 O 0.1955 0.53721 0.02866 0.0
Zn987 Zn 0.20934 0.51505 0.00934 0.0
O988 O 0.22647 0.49663 0.03722 0.0
O989 O 0.2607 0.49884 0.02732 0.0
O990 O 0.19141 0.49355 0.99389 0.0
O991 O 0.22576 0.48968 0.98526 0.0
O992 O 0.25697 0.52908 0.97865 0.0
O993 O 0.22177 0.53262 0.97731 0.0
C994 C 0.24611 0.49173 0.04155 0.0
C995 C 0.24037 0.53654 0.96804 0.0
C996 C 0.54144 0.23998 0.96847 0.0
C997 C 0.49077 0.24083 0.03765 0.0
O998 O 0.53391 0.25607 0.98003 0.0
Zn999 Zn 0.51486 0.24065 0.00196 0.0
O1000 O 0.53449 0.22118 0.97374 0.0
Zn1001 Zn 0.51203 0.20706 0.99929 0.0
O1002 O 0.4903 0.19454 0.97832 0.0
O1003 O 0.48948 0.22984 0.97787 0.0
O1004 O 0.49394 0.22187 0.0291 0.0
O1005 O 0.4997 0.25672 0.02707 0.0
O1006 O 0.53689 0.22226 0.02476 0.0
O1007 O 0.53054 0.18797 0.01759 0.0
C1008 C 0.48182 0.2118 0.97059 0.0
C1009 C 0.54116 0.20244 0.02885 0.0
C1010 C 0.76436 0.52229 0.04751 0.0
C1011 C 0.76111 0.47617 0.97469 0.0
O1012 O 0.78321 0.51637 0.04071 0.0
Zn1013 Zn 0.79669 0.4966 0.01129 0.0
O1014 O 0.74812 0.51574 0.03544 0.0
Zn1015 Zn 0.763 0.49926 0.01102 0.0
O1016 O 0.77551 0.47243 0.03178 0.0
O1017 O 0.81079 0.47381 0.02941 0.0
O1018 O 0.74588 0.48562 0.9859 0.0
O1019 O 0.78046 0.4788 0.98222 0.0
O1020 O 0.81414 0.51647 0.99214 0.0
O1021 O 0.7795 0.52332 0.98998 0.0
C1022 C 0.79393 0.46451 0.03716 0.0
C1023 C 0.79885 0.52803 0.98411 0.0
H1024 H 0.14372 0.27024 0.37144 0.0
H1025 H 0.06354 0.34094 0.45456 0.0
H1026 H 0.16123 0.33101 0.40395 0.0
H1027 H 0.05267 0.27465 0.43529 0.0
H1028 H 0.09689 0.34011 0.43031 0.0
H1029 H 0.10768 0.2742 0.38893 0.0
C1030 C 0.13984 0.28457 0.38194 0.0
C1031 C 0.15541 0.30039 0.38611 0.0
C1032 C 0.08709 0.32582 0.43128 0.0
C1033 C 0.11435 0.30492 0.40646 0.0
C1034 C 0.06804 0.3263 0.44504 0.0
C1035 C 0.05542 0.30778 0.44715 0.0
C1036 C 0.09342 0.30673 0.41942 0.0
C1037 C 0.06201 0.28925 0.43441 0.0
C1038 C 0.11933 0.28678 0.39202 0.0
C1039 C 0.14964 0.31852 0.40015 0.0
N1040 N 0.08057 0.28918 0.42119 0.0
N1041 N 0.1296 0.32027 0.40989 0.0
H1042 H 0.69835 0.15612 0.39131 0.0
H1043 H 0.77018 0.06086 0.44621 0.0
H1044 H 0.76743 0.15572 0.3892 0.0
H1045 H 0.70112 0.06289 0.451 0.0
H1046 H 0.76937 0.0934 0.4208 0.0
H1047 H 0.6989 0.11989 0.40877 0.0
C1048 C 0.71361 0.14822 0.39415 0.0
C1049 C 0.73287 0.1588 0.38859 0.0
C1050 C 0.75439 0.08661 0.42723 0.0
C1051 C 0.7337 0.11755 0.40901 0.0
C1052 C 0.75483 0.06799 0.44169 0.0
C1053 C 0.7357 0.05922 0.45096 0.0
C1054 C 0.73468 0.09656 0.42202 0.0
C1055 C 0.71629 0.06915 0.44444 0.0
C1056 C 0.71395 0.12759 0.40421 0.0
C1057 C 0.75224 0.14802 0.39304 0.0
N1058 N 0.71629 0.08736 0.43055 0.0
N1059 N 0.75217 0.12802 0.40309 0.0
H1060 H 0.85457 0.68639 0.41696 0.0
H1061 H 0.96063 0.74939 0.4562 0.0
H1062 H 0.86803 0.75122 0.39394 0.0
H1063 H 0.95241 0.68137 0.46734 0.0
H1064 H 0.92698 0.75027 0.43294 0.0
H1065 H 0.8905 0.68402 0.43504 0.0
C1066 C 0.86521 0.70004 0.41546 0.0
C1067 C 0.85837 0.71898 0.4038 0.0
C1068 C 0.93259 0.73512 0.44032 0.0
C1069 C 0.89939 0.71655 0.42484 0.0
C1070 C 0.9518 0.7346 0.45367 0.0
C1071 C 0.9593 0.71529 0.46389 0.0
C1072 C 0.92064 0.71623 0.43734 0.0
C1073 C 0.94722 0.69662 0.45985 0.0
C1074 C 0.88571 0.6987 0.42581 0.0
C1075 C 0.87273 0.73629 0.40265 0.0
N1076 N 0.9284 0.69759 0.44707 0.0
N1077 N 0.8925 0.7347 0.41318 0.0
H1078 H 0.29824 0.86082 0.38561 0.0
H1079 H 0.3146 0.97917 0.43053 0.0
H1080 H 0.33038 0.90793 0.34013 0.0
H1081 H 0.25963 0.94287 0.4548 0.0
H1082 H 0.321 0.95278 0.39769 0.0
H1083 H 0.28397 0.88977 0.41176 0.0
C1084 C 0.30191 0.87727 0.3808 0.0
C1085 C 0.31531 0.88204 0.36046 0.0
C1086 C 0.30732 0.95072 0.40991 0.0
C1087 C 0.29961 0.91506 0.39071 0.0
C1088 C 0.3037 0.96574 0.42866 0.0
C1089 C 0.28659 0.96311 0.44531 0.0
C1090 C 0.2941 0.93259 0.40822 0.0
C1091 C 0.27292 0.94547 0.44216 0.0
C1092 C 0.29378 0.89376 0.39573 0.0
C1093 C 0.31994 0.90361 0.35547 0.0
N1094 N 0.27721 0.93058 0.42422 0.0
N1095 N 0.31233 0.91929 0.37065 0.0
H1096 H 0.13262 0.64428 0.63325 0.0
H1097 H 0.07768 0.72729 0.54046 0.0
H1098 H 0.16919 0.68966 0.58988 0.0
H1099 H 0.0499 0.66536 0.55594 0.0
H1100 H 0.1096 0.71692 0.56407 0.0
H1101 H 0.10021 0.65508 0.61054 0.0
C1102 C 0.13376 0.65666 0.61912 0.0
C1103 C 0.1536 0.6662 0.61366 0.0
C1104 C 0.09651 0.70562 0.56228 0.0
C1105 C 0.11668 0.67863 0.58773 0.0
C1106 C 0.07826 0.71153 0.54892 0.0
C1107 C 0.06112 0.69713 0.54623 0.0
C1108 C 0.0975 0.68532 0.57344 0.0
C1109 C 0.0628 0.67689 0.55747 0.0
C1110 C 0.11534 0.6627 0.60613 0.0
C1111 C 0.15426 0.68201 0.59498 0.0
N1112 N 0.08064 0.67162 0.57075 0.0
N1113 N 0.13603 0.68782 0.58281 0.0
H1114 H 0.21888 0.12989 0.62164 0.0
H1115 H 0.29456 0.03373 0.58114 0.0
H1116 H 0.25932 0.09664 0.67432 0.0
H1117 H 0.23527 0.0474 0.54276 0.0
H1118 H 0.28465 0.0596 0.61349 0.0
H1119 H 0.22748 0.10265 0.59015 0.0
C1120 C 0.22971 0.11696 0.62647 0.0
C1121 C 0.23871 0.11581 0.65046 0.0
C1122 C 0.27376 0.05682 0.59806 0.0
C1123 C 0.24855 0.08464 0.61468 0.0
C1124 C 0.27941 0.04213 0.57957 0.0
C1125 C 0.26569 0.03842 0.55925 0.0
C1126 C 0.25446 0.06822 0.59596 0.0
C1127 C 0.24625 0.0497 0.55819 0.0
C1128 C 0.23448 0.1014 0.6086 0.0
C1129 C 0.25234 0.09849 0.65594 0.0
N1130 N 0.2413 0.06429 0.57617 0.0
N1131 N 0.25701 0.08371 0.6381 0.0
H1132 H 0.85899 0.36283 0.59117 0.0
H1133 H 0.95052 0.28308 0.54306 0.0
H1134 H 0.85408 0.29388 0.59055 0.0
H1135 H 0.95263 0.35105 0.52808 0.0
H1136 H 0.91689 0.28793 0.56495 0.0
H1137 H 0.89458 0.35993 0.57161 0.0
C1138 C 0.86549 0.34712 0.58709 0.0
C1139 C 0.85379 0.32855 0.59297 0.0
C1140 C 0.92464 0.30185 0.55695 0.0
C1141 C 0.8942 0.32513 0.57057 0.0
C1142 C 0.94396 0.29911 0.54444 0.0
C1143 C 0.95438 0.31667 0.53347 0.0
C1144 C 0.91548 0.32233 0.55863 0.0
C1145 C 0.9451 0.33706 0.53619 0.0
C1146 C 0.88571 0.34548 0.57591 0.0
C1147 C 0.86271 0.30859 0.58683 0.0
N1148 N 0.92606 0.33934 0.54842 0.0
N1149 N 0.88236 0.30744 0.57612 0.0
H1150 H 0.76459 0.91718 0.67096 0.0
H1151 H 0.78557 0.96447 0.53529 0.0
H1152 H 0.80613 0.88574 0.61791 0.0
H1153 H 0.72657 0.97551 0.57537 0.0
H1154 H 0.79649 0.93897 0.56772 0.0
H1155 H 0.75342 0.94214 0.63828 0.0
C1156 C 0.77122 0.91536 0.65239 0.0
C1157 C 0.78601 0.899 0.64699 0.0
C1158 C 0.78115 0.94697 0.56933 0.0
C1159 C 0.77375 0.92801 0.60979 0.0
C1160 C 0.77495 0.96158 0.55093 0.0
C1161 C 0.75511 0.97208 0.55263 0.0
C1162 C 0.76759 0.94317 0.58978 0.0
C1163 C 0.74195 0.96767 0.57326 0.0
C1164 C 0.76486 0.92966 0.63378 0.0
C1165 C 0.79445 0.8979 0.62272 0.0
N1166 N 0.74848 0.95366 0.59112 0.0
N1167 N 0.78828 0.91225 0.60503 0.0
H1168 H 0.94821 0.78396 0.69219 0.0
H1169 H 0.9689 0.71166 0.57113 0.0
H1170 H 0.93541 0.71615 0.68809 0.0
H1171 H 0.98807 0.77801 0.57614 0.0
H1172 H 0.95218 0.71456 0.61203 0.0
H1173 H 0.95858 0.78355 0.64798 0.0
C1174 C 0.94731 0.76907 0.68184 0.0
C1175 C 0.94093 0.75006 0.69374 0.0
C1176 C 0.95992 0.72855 0.60418 0.0
C1177 C 0.95291 0.74941 0.64339 0.0
C1178 C 0.96948 0.72692 0.58076 0.0
C1179 C 0.98013 0.74457 0.57026 0.0
C1180 C 0.96102 0.74795 0.61738 0.0
C1181 C 0.98015 0.76396 0.58358 0.0
C1182 C 0.95328 0.76882 0.65669 0.0
C1183 C 0.94018 0.73116 0.67961 0.0
N1184 N 0.9709 0.76509 0.60656 0.0
N1185 N 0.94619 0.7313 0.65524 0.0
H1186 H 0.34433 0.84455 0.59083 0.0
H1187 H 0.27504 0.94835 0.55702 0.0
H1188 H 0.27525 0.84659 0.58952 0.0
H1189 H 0.34381 0.94575 0.54866 0.0
H1190 H 0.27569 0.91292 0.57591 0.0
H1191 H 0.34519 0.88313 0.58189 0.0
C1192 C 0.32937 0.85322 0.58898 0.0
C1193 C 0.30968 0.84241 0.59082 0.0
C1194 C 0.29069 0.92012 0.57016 0.0
C1195 C 0.31052 0.88636 0.58055 0.0
C1196 C 0.29034 0.9404 0.55938 0.0
C1197 C 0.30938 0.94992 0.55091 0.0
C1198 C 0.3102 0.90909 0.5724 0.0
C1199 C 0.32875 0.93895 0.55479 0.0
C1200 C 0.32986 0.87517 0.58384 0.0
C1201 C 0.29075 0.85431 0.58821 0.0
N1202 N 0.32864 0.91896 0.565 0.0
N1203 N 0.29165 0.87559 0.5831 0.0
H1204 H 0.07806 0.23404 0.6712 0.0
H1205 H 0.04979 0.3075 0.55323 0.0
H1206 H 0.09227 0.30151 0.66595 0.0
H1207 H 0.03235 0.24066 0.55782 0.0
H1208 H 0.06863 0.30429 0.5928 0.0
H1209 H 0.06438 0.23487 0.62821 0.0
C1210 C 0.07856 0.24894 0.66084 0.0
C1211 C 0.0864 0.26772 0.67206 0.0
C1212 C 0.0608 0.29025 0.58516 0.0
C1213 C 0.07061 0.26886 0.62313 0.0
C1214 C 0.05001 0.29207 0.5625 0.0
C1215 C 0.03928 0.27436 0.55226 0.0
C1216 C 0.06085 0.2706 0.5979 0.0
C1217 C 0.04033 0.25475 0.56507 0.0
C1218 C 0.07071 0.24943 0.63638 0.0
C1219 C 0.08648 0.28665 0.65797 0.0
N1220 N 0.05078 0.25343 0.58736 0.0
N1221 N 0.07865 0.28675 0.63432 0.0
H1222 H 0.74484 0.16019 0.61058 0.0
H1223 H 0.6774 0.06061 0.55885 0.0
H1224 H 0.67592 0.15643 0.61484 0.0
H1225 H 0.74638 0.0654 0.55518 0.0
H1226 H 0.67652 0.09383 0.58315 0.0
H1227 H 0.74575 0.12375 0.594 0.0
C1228 C 0.72991 0.15154 0.60831 0.0
C1229 C 0.71029 0.16127 0.61417 0.0
C1230 C 0.69185 0.08749 0.5772 0.0
C1231 C 0.71112 0.11964 0.5948 0.0
C1232 C 0.69237 0.06849 0.56338 0.0
C1233 C 0.71198 0.06029 0.55475 0.0
C1234 C 0.71107 0.09836 0.58241 0.0
C1235 C 0.73087 0.07119 0.56123 0.0
C1236 C 0.73041 0.13076 0.59878 0.0
C1237 C 0.69138 0.14943 0.61065 0.0
N1238 N 0.72992 0.08971 0.57448 0.0
N1239 N 0.69225 0.12927 0.60103 0.0
H1240 H 0.8658 0.24033 0.37383 0.0
H1241 H 0.964 0.30947 0.426 0.0
H1242 H 0.87237 0.30859 0.36392 0.0
H1243 H 0.95477 0.24258 0.4436 0.0
H1244 H 0.93328 0.30796 0.39803 0.0
H1245 H 0.90079 0.23956 0.39465 0.0
C1246 C 0.87481 0.25508 0.37567 0.0
C1247 C 0.86636 0.27449 0.3668 0.0
C1248 C 0.93804 0.29355 0.40783 0.0
C1249 C 0.90616 0.27382 0.3909 0.0
C1250 C 0.95564 0.29436 0.4238 0.0
C1251 C 0.96185 0.27616 0.43741 0.0
C1252 C 0.92641 0.27441 0.40545 0.0
C1253 C 0.9505 0.25702 0.43357 0.0
C1254 C 0.89471 0.25466 0.38762 0.0
C1255 C 0.87845 0.29324 0.37012 0.0
N1256 N 0.93317 0.25669 0.41812 0.0
N1257 N 0.8977 0.29243 0.38194 0.0
H1258 H 0.65045 0.87221 0.40606 0.0
H1259 H 0.72889 0.96917 0.43792 0.0
H1260 H 0.69975 0.89391 0.35555 0.0
H1261 H 0.66787 0.96044 0.47452 0.0
H1262 H 0.72001 0.93995 0.40934 0.0
H1263 H 0.65801 0.90288 0.43322 0.0
C1264 C 0.66297 0.88336 0.40082 0.0
C1265 C 0.67485 0.88018 0.37887 0.0
C1266 C 0.70852 0.94451 0.42355 0.0
C1267 C 0.68348 0.91535 0.40969 0.0
C1268 C 0.7136 0.96113 0.43993 0.0
C1269 C 0.69911 0.96722 0.45868 0.0
C1270 C 0.68894 0.93367 0.42612 0.0
C1271 C 0.67949 0.9563 0.46032 0.0
C1272 C 0.66719 0.90089 0.41622 0.0
C1273 C 0.69055 0.8954 0.3726 0.0
N1274 N 0.67505 0.93993 0.44436 0.0
N1275 N 0.69455 0.91221 0.38807 0.0
H1276 H 0.14842 0.71279 0.38341 0.0
H1277 H 0.0595 0.77838 0.45843 0.0
H1278 H 0.14889 0.78166 0.39 0.0
H1279 H 0.05602 0.71033 0.44431 0.0
H1280 H 0.09063 0.78051 0.43076 0.0
H1281 H 0.11316 0.71199 0.4032 0.0
C1282 C 0.14089 0.72778 0.38862 0.0
C1283 C 0.15141 0.74736 0.38469 0.0
C1284 C 0.0829 0.76516 0.43351 0.0
C1285 C 0.11128 0.74657 0.40799 0.0
C1286 C 0.06509 0.76394 0.44927 0.0
C1287 C 0.05524 0.74411 0.45392 0.0
C1288 C 0.09098 0.7464 0.42244 0.0
C1289 C 0.06317 0.72595 0.44147 0.0
C1290 C 0.12079 0.72733 0.40001 0.0
C1291 C 0.14116 0.76627 0.39239 0.0
N1292 N 0.08068 0.7275 0.42653 0.0
N1293 N 0.12172 0.7654 0.40381 0.0
H1294 H 0.29526 0.14592 0.3928 0.0
H1295 H 0.3488 0.04172 0.45358 0.0
H1296 H 0.33962 0.10579 0.3524 0.0
H1297 H 0.28669 0.06638 0.47428 0.0
H1298 H 0.35194 0.07049 0.42229 0.0
H1299 H 0.29854 0.12211 0.4289 0.0
C1300 C 0.30593 0.13225 0.39169 0.0
C1301 C 0.31711 0.12774 0.36956 0.0
C1302 C 0.33779 0.06969 0.43396 0.0
C1303 C 0.32095 0.10051 0.41075 0.0
C1304 C 0.33605 0.05343 0.45186 0.0
C1305 C 0.31739 0.05167 0.46632 0.0
C1306 C 0.32094 0.08442 0.43102 0.0
C1307 C 0.30125 0.06709 0.4633 0.0
C1308 C 0.30775 0.11867 0.41223 0.0
C1309 C 0.33072 0.10981 0.36911 0.0
N1310 N 0.30338 0.0828 0.44598 0.0
N1311 N 0.33221 0.09676 0.38939 0.0
H1312 H 0.64652 0.77325 0.87092 0.0
H1313 H 0.56378 0.84178 0.95311 0.0
H1314 H 0.66098 0.83583 0.90065 0.0
H1315 H 0.55561 0.77474 0.93562 0.0
H1316 H 0.59702 0.8419 0.92871 0.0
H1317 H 0.61062 0.77559 0.8892 0.0
C1318 C 0.64198 0.78762 0.88096 0.0
C1319 C 0.65665 0.80445 0.88409 0.0
C1320 C 0.58786 0.82721 0.93012 0.0
C1321 C 0.61577 0.80715 0.90538 0.0
C1322 C 0.56887 0.82715 0.94398 0.0
C1323 C 0.55699 0.80818 0.94659 0.0
C1324 C 0.59492 0.80821 0.91866 0.0
C1325 C 0.56434 0.78969 0.93432 0.0
C1326 C 0.62156 0.78892 0.89151 0.0
C1327 C 0.65008 0.82259 0.89761 0.0
N1328 N 0.58283 0.79016 0.92098 0.0
N1329 N 0.63014 0.82344 0.90781 0.0
H1330 H 0.21234 0.61447 0.82401 0.0
H1331 H 0.27731 0.54806 0.94421 0.0
H1332 H 0.2939 0.60308 0.83308 0.0
H1333 H 0.20846 0.55397 0.93904 0.0
H1334 H 0.28078 0.56812 0.90541 0.0
H1335 H 0.20862 0.5896 0.86949 0.0
C1336 C 0.22607 0.60679 0.8325 0.0
C1337 C 0.25429 0.61453 0.8254 0.0
C1338 C 0.26491 0.56504 0.91275 0.0
C1339 C 0.24813 0.58381 0.87657 0.0
C1340 C 0.2629 0.5536 0.93495 0.0
C1341 C 0.24254 0.54925 0.94488 0.0
C1342 C 0.24646 0.57217 0.90036 0.0
C1343 C 0.22446 0.55692 0.93203 0.0
C1344 C 0.22416 0.59264 0.86129 0.0
C1345 C 0.27749 0.59957 0.83821 0.0
N1346 N 0.22684 0.56801 0.91034 0.0
N1347 N 0.27185 0.58722 0.86411 0.0
H1348 H 0.36982 0.24626 0.88368 0.0
H1349 H 0.45796 0.17686 0.95668 0.0
H1350 H 0.36052 0.18045 0.90573 0.0
H1351 H 0.46173 0.24551 0.94764 0.0
H1352 H 0.42466 0.17679 0.93258 0.0
H1353 H 0.40595 0.24515 0.90164 0.0
C1354 C 0.37553 0.2315 0.892 0.0
C1355 C 0.36222 0.21338 0.89308 0.0
C1356 C 0.43285 0.19185 0.93576 0.0
C1357 C 0.4034 0.21202 0.91387 0.0
C1358 C 0.4519 0.1919 0.94946 0.0
C1359 C 0.46259 0.21124 0.95437 0.0
C1360 C 0.42444 0.21127 0.92678 0.0
C1361 C 0.45396 0.23023 0.94448 0.0
C1362 C 0.39608 0.23089 0.90233 0.0
C1363 C 0.3703 0.19472 0.90434 0.0
N1364 N 0.43537 0.22978 0.93125 0.0
N1365 N 0.39033 0.19454 0.91432 0.0
H1366 H 0.76558 0.36334 0.86294 0.0
H1367 H 0.72591 0.47616 0.94424 0.0
H1368 H 0.71035 0.41898 0.83219 0.0
H1369 H 0.78607 0.44367 0.95673 0.0
H1370 H 0.71889 0.45219 0.9089 0.0
H1371 H 0.77072 0.39101 0.90592 0.0
C1372 C 0.75548 0.37721 0.86583 0.0
C1373 C 0.73955 0.38995 0.84038 0.0
C1374 C 0.73363 0.45038 0.91939 0.0
C1375 C 0.74484 0.41972 0.89241 0.0
C1376 C 0.7376 0.46396 0.93957 0.0
C1377 C 0.75663 0.46192 0.95333 0.0
C1378 C 0.74858 0.43444 0.91335 0.0
C1379 C 0.77127 0.44587 0.94647 0.0
C1380 C 0.75943 0.39504 0.89133 0.0
C1381 C 0.72063 0.41229 0.84647 0.0
N1382 N 0.76686 0.4326 0.92702 0.0
N1383 N 0.72689 0.42594 0.87131 0.0
H1384 H 0.64755 0.14399 0.10793 0.0
H1385 H 0.55818 0.22755 0.06554 0.0
H1386 H 0.62183 0.19203 0.15756 0.0
H1387 H 0.56289 0.16437 0.03316 0.0
H1388 H 0.58606 0.21786 0.09561 0.0
H1389 H 0.62113 0.1545 0.07634 0.0
C1390 C 0.63629 0.15666 0.11225 0.0
C1391 C 0.63644 0.16671 0.13573 0.0
C1392 C 0.58099 0.20614 0.0819 0.0
C1393 C 0.60674 0.17923 0.0994 0.0
C1394 C 0.56514 0.21166 0.06469 0.0
C1395 C 0.55816 0.1967 0.04688 0.0
C1396 C 0.59021 0.18565 0.08105 0.0
C1397 C 0.56772 0.17633 0.04669 0.0
C1398 C 0.62127 0.16266 0.0942 0.0
C1399 C 0.62198 0.18357 0.13991 0.0
N1400 N 0.58336 0.17142 0.06346 0.0
N1401 N 0.6077 0.1893 0.12195 0.0
H1402 H 0.71486 0.6163 0.15099 0.0
H1403 H 0.79412 0.53439 0.08254 0.0
H1404 H 0.773 0.59295 0.18507 0.0
H1405 H 0.72811 0.54396 0.06095 0.0
H1406 H 0.78876 0.55913 0.11756 0.0
H1407 H 0.7217 0.59333 0.11482 0.0
C1408 C 0.72924 0.60656 0.15064 0.0
C1409 C 0.7436 0.60685 0.17079 0.0
C1410 C 0.77548 0.55576 0.10513 0.0
C1411 C 0.75137 0.58027 0.12973 0.0
C1412 C 0.77852 0.54169 0.08514 0.0
C1413 C 0.76151 0.53704 0.06886 0.0
C1414 C 0.75537 0.56543 0.10865 0.0
C1415 C 0.74165 0.54696 0.07311 0.0
C1416 C 0.73307 0.59336 0.13012 0.0
C1417 C 0.76174 0.59353 0.1697 0.0
N1418 N 0.73915 0.56073 0.09253 0.0
N1419 N 0.76516 0.58082 0.14946 0.0
H1420 H 0.35387 0.79637 0.09066 0.0
H1421 H 0.45907 0.85161 0.03431 0.0
H1422 H 0.36906 0.86284 0.10381 0.0
H1423 H 0.44741 0.78339 0.03553 0.0
H1424 H 0.42574 0.85703 0.05798 0.0
H1425 H 0.38749 0.79228 0.06803 0.0
C1426 C 0.36442 0.81008 0.08893 0.0
C1427 C 0.35892 0.82985 0.09962 0.0
C1428 C 0.4306 0.8409 0.0531 0.0
C1429 C 0.3974 0.82541 0.07329 0.0
C1430 C 0.44959 0.8378 0.03961 0.0
C1431 C 0.45605 0.81702 0.03287 0.0
C1432 C 0.41798 0.82311 0.05967 0.0
C1433 C 0.44314 0.79971 0.04024 0.0
C1434 C 0.38361 0.80776 0.07597 0.0
C1435 C 0.37292 0.84724 0.09622 0.0
N1436 N 0.42475 0.80317 0.0531 0.0
N1437 N 0.39158 0.84462 0.08337 0.0
H1438 H 0.30592 0.39637 0.13531 0.0
H1439 H 0.22129 0.48052 0.08174 0.0
H1440 H 0.25671 0.42475 0.18127 0.0
H1441 H 0.2837 0.47029 0.04902 0.0
H1442 H 0.23113 0.4564 0.11604 0.0
H1443 H 0.29498 0.41966 0.10078 0.0
C1444 C 0.29264 0.40733 0.13799 0.0
C1445 C 0.28196 0.40832 0.16099 0.0
C1446 C 0.24264 0.45951 0.10134 0.0
C1447 C 0.26948 0.43511 0.12176 0.0
C1448 C 0.23703 0.4732 0.08176 0.0
C1449 C 0.25173 0.47746 0.06256 0.0
C1450 C 0.26294 0.44978 0.10145 0.0
C1451 C 0.27192 0.46756 0.06352 0.0
C1452 C 0.2865 0.42067 0.11838 0.0
C1453 C 0.26513 0.42313 0.1637 0.0
N1454 N 0.27689 0.4541 0.08257 0.0
N1455 N 0.25932 0.43586 0.14425 0.0
H1456 H 0.4435 0.28767 0.17939 0.0
H1457 H 0.46865 0.2104 0.06377 0.0
H1458 H 0.43285 0.21941 0.17965 0.0
H1459 H 0.48411 0.27784 0.06442 0.0
H1460 H 0.45108 0.21453 0.10412 0.0
H1461 H 0.45413 0.28547 0.13537 0.0
C1462 C 0.44309 0.27229 0.17002 0.0
C1463 C 0.43723 0.25369 0.1831 0.0
C1464 C 0.45817 0.22848 0.09538 0.0
C1465 C 0.44958 0.25099 0.13296 0.0
C1466 C 0.4682 0.22615 0.07228 0.0
C1467 C 0.47808 0.24377 0.06077 0.0
C1468 C 0.45805 0.24857 0.1072 0.0
C1469 C 0.47682 0.26379 0.07267 0.0
C1470 C 0.44922 0.27101 0.14497 0.0
C1471 C 0.43718 0.23412 0.17022 0.0
N1472 N 0.46716 0.26561 0.09535 0.0
N1473 N 0.44336 0.23327 0.14593 0.0
H1474 H 0.83258 0.3381 0.08666 0.0
H1475 H 0.76098 0.4416 0.05754 0.0
H1476 H 0.7635 0.33902 0.08855 0.0
H1477 H 0.82957 0.43986 0.04697 0.0
H1478 H 0.76241 0.40559 0.07499 0.0
H1479 H 0.83252 0.37672 0.07796 0.0
C1480 C 0.81743 0.34654 0.0856 0.0
C1481 C 0.79801 0.3354 0.08835 0.0
C1482 C 0.77719 0.41311 0.06905 0.0
C1483 C 0.79777 0.37942 0.07821 0.0
C1484 C 0.77641 0.43374 0.0591 0.0
C1485 C 0.79517 0.44374 0.05051 0.0
C1486 C 0.79688 0.40225 0.07039 0.0
C1487 C 0.81469 0.43275 0.05322 0.0
C1488 C 0.81739 0.36852 0.08056 0.0
C1489 C 0.77882 0.34701 0.08662 0.0
N1490 N 0.81501 0.41251 0.06272 0.0
N1491 N 0.77918 0.36833 0.08155 0.0
H1492 H 0.593 0.79822 0.16694 0.0
H1493 H 0.53462 0.73825 0.05356 0.0
H1494 H 0.58067 0.73023 0.16654 0.0
H1495 H 0.54881 0.80597 0.05508 0.0
H1496 H 0.55356 0.73416 0.0934 0.0
H1497 H 0.57912 0.8006 0.12443 0.0
C1498 C 0.58758 0.78374 0.15774 0.0
C1499 C 0.58805 0.764 0.17021 0.0
C1500 C 0.55263 0.74987 0.08489 0.0
C1501 C 0.57177 0.76659 0.1216 0.0
C1502 C 0.54185 0.75222 0.06214 0.0
C1503 C 0.53997 0.77251 0.05102 0.0
C1504 C 0.56158 0.76796 0.09658 0.0
C1505 C 0.54968 0.79003 0.06299 0.0
C1506 C 0.57959 0.78509 0.13349 0.0
C1507 C 0.58065 0.74574 0.15749 0.0
N1508 N 0.55994 0.78736 0.08512 0.0
N1509 N 0.57268 0.7475 0.13392 0.0
H1510 H 0.24223 0.66995 0.1007 0.0
H1511 H 0.17619 0.56844 0.05117 0.0
H1512 H 0.1732 0.66677 0.10141 0.0
H1513 H 0.24528 0.57258 0.05128 0.0
H1514 H 0.17456 0.6031 0.07255 0.0
H1515 H 0.24351 0.63298 0.08577 0.0
C1516 C 0.22734 0.66133 0.09802 0.0
C1517 C 0.20759 0.67137 0.10243 0.0
C1518 C 0.19007 0.59634 0.06803 0.0
C1519 C 0.20886 0.62911 0.08488 0.0
C1520 C 0.19102 0.57654 0.05584 0.0
C1521 C 0.2109 0.56763 0.04924 0.0
C1522 C 0.20914 0.60732 0.07366 0.0
C1523 C 0.22958 0.57885 0.05583 0.0
C1524 C 0.22806 0.64024 0.08941 0.0
C1525 C 0.18876 0.65953 0.09838 0.0
N1526 N 0.22822 0.59812 0.06752 0.0
N1527 N 0.18985 0.63907 0.08969 0.0
H1528 H 0.36832 0.80986 0.86859 0.0
H1529 H 0.45834 0.7423 0.93974 0.0
H1530 H 0.36771 0.74088 0.87336 0.0
H1531 H 0.46098 0.81085 0.92918 0.0
H1532 H 0.42683 0.74092 0.91254 0.0
H1533 H 0.40376 0.81017 0.88805 0.0
C1534 C 0.37585 0.79476 0.87333 0.0
C1535 C 0.36524 0.77528 0.869 0.0
C1536 C 0.43446 0.75623 0.91597 0.0
C1537 C 0.40558 0.7755 0.89188 0.0
C1538 C 0.45249 0.75701 0.93146 0.0
C1539 C 0.46222 0.77674 0.93696 0.0
C1540 C 0.42605 0.77531 0.90604 0.0
C1541 C 0.45393 0.79529 0.92566 0.0
C1542 C 0.39605 0.79492 0.88453 0.0
C1543 C 0.3755 0.75621 0.87609 0.0
N1544 N 0.43624 0.79414 0.91095 0.0
N1545 N 0.39505 0.75679 0.88729 0.0
H1546 H 0.15655 0.36499 0.92154 0.0
H1547 H 0.23157 0.46586 0.94656 0.0
H1548 H 0.20236 0.38788 0.86741 0.0
H1549 H 0.17001 0.45856 0.98234 0.0
H1550 H 0.22369 0.43466 0.9205 0.0
H1551 H 0.16376 0.39671 0.94727 0.0
C1552 C 0.16827 0.3766 0.91522 0.0
C1553 C 0.17919 0.37351 0.89258 0.0
C1554 C 0.21189 0.43993 0.93401 0.0
C1555 C 0.18744 0.40981 0.92179 0.0
C1556 C 0.21639 0.45767 0.94897 0.0
C1557 C 0.20141 0.46481 0.96667 0.0
C1558 C 0.19242 0.42899 0.93704 0.0
C1559 C 0.18197 0.45364 0.96886 0.0
C1560 C 0.17227 0.39471 0.9298 0.0
C1561 C 0.19389 0.38928 0.88496 0.0
N1562 N 0.17809 0.43616 0.95434 0.0
N1563 N 0.19773 0.40664 0.89966 0.0
H1564 H 0.65379 0.2872 0.89163 0.0
H1565 H 0.56269 0.20848 0.94301 0.0
H1566 H 0.65961 0.21836 0.89334 0.0
H1567 H 0.5617 0.27704 0.95393 0.0
H1568 H 0.59527 0.21221 0.91826 0.0
H1569 H 0.61733 0.28405 0.90823 0.0
C1570 C 0.64721 0.27141 0.89509 0.0
C1571 C 0.65959 0.25301 0.89078 0.0
C1572 C 0.58784 0.22646 0.92589 0.0
C1573 C 0.6181 0.24926 0.9101 0.0
C1574 C 0.56916 0.22437 0.93998 0.0
C1575 C 0.55953 0.24246 0.95081 0.0
C1576 C 0.597 0.2468 0.92254 0.0
C1577 C 0.56864 0.26263 0.94609 0.0
C1578 C 0.62647 0.26962 0.90465 0.0
C1579 C 0.6505 0.23294 0.89603 0.0
N1580 N 0.58697 0.26424 0.93246 0.0
N1581 N 0.63032 0.23161 0.90546 0.0
H1582 H 0.82815 0.601 0.85259 0.0
H1583 H 0.77398 0.56342 0.97832 0.0
H1584 H 0.78752 0.6424 0.8964 0.0
H1585 H 0.83239 0.53434 0.95164 0.0
H1586 H 0.77831 0.59209 0.94776 0.0
H1587 H 0.82993 0.57595 0.88782 0.0
C1588 C 0.81988 0.60496 0.86976 0.0
C1589 C 0.80767 0.6238 0.87159 0.0
C1590 C 0.79034 0.5796 0.94874 0.0
C1591 C 0.80927 0.59507 0.91169 0.0
C1592 C 0.78783 0.56318 0.96612 0.0
C1593 C 0.8028 0.54644 0.9674 0.0
C1594 C 0.8077 0.57908 0.9321 0.0
C1595 C 0.82051 0.54699 0.95126 0.0
C1596 C 0.82091 0.59068 0.88983 0.0
C1597 C 0.79711 0.62806 0.89421 0.0
N1598 N 0.82232 0.5629 0.93397 0.0
N1599 N 0.79794 0.61368 0.91324 0.0
loop_
_geom_bond_atom_site_label_1
_geom_bond_atom_site_label_2
_geom_bond_distance
_geom_bond_site_symmetry_2
_ccdc_geom_bond_type
C0 C1 1.560 . S
C0 H61 0.959 . S
C0 H62 0.959 . S
C0 H63 0.960 . S
C1 C0 1.560 . S
C1 O56 1.426 . S
C1 H60 0.980 . S
C2 C3 1.407 . S
C2 C7 1.418 . S
C2 O56 1.334 . S
C3 C2 1.407 . S
C3 C4 1.360 . S
C3 H64 0.929 . S
C4 C3 1.360 . S
C4 C5 1.401 . S
C4 C8 1.527 . S
C5 C4 1.401 . S
C5 C6 1.405 . S
C5 C38 1.587 . S
C6 C5 1.405 . S
C6 C7 1.332 . S
C6 C9 1.496 . S
C7 C2 1.418 . S
C7 C6 1.332 . S
C7 H65 0.929 . S
C8 C4 1.527 . S
C8 H66 0.959 . S
C8 H67 0.961 . S
C8 H68 0.961 . S
C9 C6 1.496 . S
C9 H69 0.960 . S
C9 H70 0.960 . S
C9 H71 0.961 . S
C10 C11 1.517 . S
C10 H73 0.961 . S
C10 H74 0.960 . S
C10 H75 0.959 . S
C11 C10 1.517 . S
C11 O59 1.468 . S
C11 H72 0.980 . S
C12 C13 1.349 . S
C12 C17 1.367 . S
C12 O59 1.408 . S
C13 C12 1.349 . S
C13 C14 1.407 . S
C13 H76 0.930 . S
C14 C13 1.407 . S
C14 C15 1.449 . S
C14 C18 1.535 . S
C15 C14 1.449 . S
C15 C16 1.384 . S
C15 C40 1.553 . S
C16 C15 1.384 . S
C16 C17 1.364 . S
C16 C19 1.450 . S
C17 C12 1.367 . S
C17 C16 1.364 . S
C17 H77 0.931 . S
C18 C14 1.535 . S
C18 H78 0.959 . S
C18 H79 0.961 . S
C18 H80 0.959 . S
C19 C16 1.450 . S
C19 H81 0.960 . S
C19 H82 0.960 . S
C19 H83 0.960 . S
C20 C21 1.309 . S
C20 C25 1.304 . S
C20 O58 1.435 . S
C21 C20 1.309 . S
C21 C22 1.476 . S
C21 H85 0.930 . S
C22 C21 1.476 . S
C22 C23 1.400 . S
C22 C26 1.567 . S
C23 C22 1.400 . S
C23 C24 1.373 . S
C23 C45 1.432 . S
C24 C23 1.373 . S
C24 C25 1.339 . S
C24 C27 1.530 . S
C25 C20 1.304 . S
C25 C24 1.339 . S
C25 H86 0.930 . S
C26 C22 1.567 . S
C26 H87 0.961 . S
C26 H88 0.960 . S
C26 H89 0.958 . S
C27 C24 1.530 . S
C27 H90 0.961 . S
C27 H91 0.960 . S
C27 H92 0.960 . S
C28 C29 1.530 . S
C28 H94 0.961 . S
C28 H95 0.961 . S
C28 H96 0.959 . S
C29 C28 1.530 . S
C29 O57 1.412 . S
C29 H93 0.980 . S
C30 C31 1.288 . S
C30 C35 1.377 . S
C30 O57 1.393 . S
C31 C30 1.288 . S
C31 C32 1.369 . S
C31 H97 0.932 . S
C32 C31 1.369 . S
C32 C33 1.398 . S
C32 C36 1.527 . S
C33 C32 1.398 . S
C33 C34 1.380 . S
C33 C47 1.497 . S
C34 C33 1.380 . S
C34 C35 1.383 . S
C34 C37 1.603 . S
C35 C30 1.377 . S
C35 C34 1.383 . S
C35 H98 0.929 . S
C36 C32 1.527 . S
C36 H99 0.961 . S
C36 H100 0.959 . S
C36 H101 0.959 . S
C37 C34 1.603 . S
C37 H102 0.960 . S
C37 H103 0.962 . S
C37 H104 0.961 . S
C38 C5 1.587 . S
C38 C39 1.360 . S
C38 C51 1.412 . S
C39 C38 1.360 . S
C39 C40 1.365 . S
C39 H105 0.929 . S
C40 C15 1.553 . S
C40 C39 1.365 . S
C40 C41 1.404 . S
C41 C40 1.404 . S
C41 C42 1.395 . S
C41 C52 1.451 . S
C42 C41 1.395 . S
C42 C43 1.322 . S
C42 H106 0.930 . S
C43 C42 1.322 . S
C43 C44 1.459 . S
C43 H107 0.929 . S
C44 C43 1.459 . S
C44 C45 1.445 . S
C44 C53 1.395 . S
C45 C23 1.432 . S
C45 C44 1.445 . S
C45 C46 1.370 . S
C46 C45 1.370 . S
C46 C47 1.438 . S
C46 H108 0.930 . S
C47 C33 1.497 . S
C47 C46 1.438 . S
C47 C48 1.360 . S
C48 C47 1.360 . S
C48 C49 1.401 . S
C48 C53 1.446 . S
C49 C48 1.401 . S
C49 C50 1.347 . S
C49 H109 0.929 . S
C50 C49 1.347 . S
C50 C51 1.455 . S
C50 H110 0.930 . S
C51 C38 1.412 . S
C51 C50 1.455 . S
C51 C52 1.331 . S
C52 C41 1.451 . S
C52 C51 1.331 . S
C52 C53 1.497 . S
C53 C44 1.395 . S
C53 C48 1.446 . S
C53 C52 1.497 . S
C54 C55 1.582 . S
C54 H111 0.962 . S
C54 H112 0.959 . S
C54 H113 0.958 . S
C55 C54 1.582 . S
C55 O58 1.458 . S
C55 H84 0.980 . S
O56 C1 1.426 . S
O56 C2 1.334 . S
O57 C29 1.412 . S
O57 C30 1.393 . S
O58 C20 1.435 . S
O58 C55 1.458 . S
O59 C11 1.468 . S
O59 C12 1.408 . S
H60 C1 0.980 . S
H61 C0 0.959 . S
H62 C0 0.959 . S
H63 C0 0.960 . S
H64 C3 0.929 . S
H65 C7 0.929 . S
H66 C8 0.959 . S
H67 C8 0.961 . S
H68 C8 0.961 . S
H69 C9 0.960 . S
H70 C9 0.960 . S
H71 C9 0.961 . S
H72 C11 0.980 . S
H73 C10 0.961 . S
H74 C10 0.960 . S
H75 C10 0.959 . S
H76 C13 0.930 . S
H77 C17 0.931 . S
H78 C18 0.959 . S
H79 C18 0.961 . S
H80 C18 0.959 . S
H81 C19 0.960 . S
H82 C19 0.960 . S
H83 C19 0.960 . S
H84 C55 0.980 . S
H85 C21 0.930 . S
H86 C25 0.930 . S
H87 C26 0.961 . S
H88 C26 0.960 . S
H89 C26 0.958 . S
H90 C27 0.961 . S
H91 C27 0.960 . S
H92 C27 0.960 . S
H93 C29 0.980 . S
H94 C28 0.961 . S
H95 C28 0.961 . S
H96 C28 0.959 . S
H97 C31 0.932 . S
H98 C35 0.929 . S
H99 C36 0.961 . S
H100 C36 0.959 . S
H101 C36 0.959 . S
H102 C37 0.960 . S
H103 C37 0.962 . S
H104 C37 0.961 . S
H105 C39 0.929 . S
H106 C42 0.930 . S
H107 C43 0.929 . S
H108 C46 0.930 . S
H109 C49 0.929 . S
H110 C50 0.930 . S
H111 C54 0.962 . S
H112 C54 0.959 . S
H113 C54 0.958 . S
C114 C115 1.560 . S
C114 H175 0.959 . S
C114 H176 0.959 . S
C114 H177 0.960 . S
C115 C114 1.560 . S
C115 O170 1.426 . S
C115 H174 0.980 . S
C116 C117 1.407 . S
C116 C121 1.418 . S
C116 O170 1.334 . S
C117 C116 1.407 . S
C117 C118 1.360 . S
C117 H178 0.929 . S
C118 C117 1.360 . S
C118 C119 1.401 . S
C118 C122 1.527 . S
C119 C118 1.401 . S
C119 C120 1.405 . S
C119 C152 1.587 . S
C120 C119 1.405 . S
C120 C121 1.332 . S
C120 C123 1.496 . S
C121 C116 1.418 . S
C121 C120 1.332 . S
C121 H179 0.929 . S
C122 C118 1.527 . S
C122 H180 0.959 . S
C122 H181 0.961 . S
C122 H182 0.961 . S
C123 C120 1.496 . S
C123 H183 0.960 . S
C123 H184 0.960 . S
C123 H185 0.961 . S
C124 C125 1.517 . S
C124 H187 0.961 . S
C124 H188 0.960 . S
C124 H189 0.959 . S
C125 C124 1.517 . S
C125 O173 1.468 . S
C125 H186 0.980 . S
C126 C127 1.349 . S
C126 C131 1.367 . S
C126 O173 1.408 . S
C127 C126 1.349 . S
C127 C128 1.407 . S
C127 H190 0.930 . S
C128 C127 1.407 . S
C128 C129 1.449 . S
C128 C132 1.535 . S
C129 C128 1.449 . S
C129 C130 1.384 . S
C129 C154 1.553 . S
C130 C129 1.384 . S
C130 C131 1.364 . S
C130 C133 1.450 . S
C131 C126 1.367 . S
C131 C130 1.364 . S
C131 H191 0.931 . S
C132 C128 1.535 . S
C132 H192 0.959 . S
C132 H193 0.961 . S
C132 H194 0.959 . S
C133 C130 1.450 . S
C133 H195 0.960 . S
C133 H196 0.960 . S
C133 H197 0.960 . S
C134 C135 1.309 . S
C134 C139 1.304 . S
C134 O172 1.435 . S
C135 C134 1.309 . S
C135 C136 1.476 . S
C135 H199 0.930 . S
C136 C135 1.476 . S
C136 C137 1.400 . S
C136 C140 1.567 . S
C137 C136 1.400 . S
C137 C138 1.373 . S
C137 C159 1.432 . S
C138 C137 1.373 . S
C138 C139 1.339 . S
C138 C141 1.530 . S
C139 C134 1.304 . S
C139 C138 1.339 . S
C139 H200 0.930 . S
C140 C136 1.567 . S
C140 H201 0.961 . S
C140 H202 0.960 . S
C140 H203 0.958 . S
C141 C138 1.530 . S
C141 H204 0.961 . S
C141 H205 0.960 . S
C141 H206 0.960 . S
C142 C143 1.530 . S
C142 H208 0.961 . S
C142 H209 0.961 . S
C142 H210 0.959 . S
C143 C142 1.530 . S
C143 O171 1.412 . S
C143 H207 0.980 . S
C144 C145 1.288 . S
C144 C149 1.377 . S
C144 O171 1.393 . S
C145 C144 1.288 . S
C145 C146 1.369 . S
C145 H211 0.932 . S
C146 C145 1.369 . S
C146 C147 1.398 . S
C146 C150 1.527 . S
C147 C146 1.398 . S
C147 C148 1.380 . S
C147 C161 1.497 . S
C148 C147 1.380 . S
C148 C149 1.383 . S
C148 C151 1.603 . S
C149 C144 1.377 . S
C149 C148 1.383 . S
C149 H212 0.929 . S
C150 C146 1.527 . S
C150 H213 0.961 . S
C150 H214 0.959 . S
C150 H215 0.959 . S
C151 C148 1.603 . S
C151 H216 0.960 . S
C151 H217 0.962 . S
C151 H218 0.961 . S
C152 C119 1.587 . S
C152 C153 1.360 . S
C152 C165 1.412 . S
C153 C152 1.360 . S
C153 C154 1.365 . S
C153 H219 0.929 . S
C154 C129 1.553 . S
C154 C153 1.365 . S
C154 C155 1.404 . S
C155 C154 1.404 . S
C155 C156 1.395 . S
C155 C166 1.451 . S
C156 C155 1.395 . S
C156 C157 1.322 . S
C156 H220 0.930 . S
C157 C156 1.322 . S
C157 C158 1.459 . S
C157 H221 0.929 . S
C158 C157 1.459 . S
C158 C159 1.445 . S
C158 C167 1.395 . S
C159 C137 1.432 . S
C159 C158 1.445 . S
C159 C160 1.370 . S
C160 C159 1.370 . S
C160 C161 1.438 . S
C160 H222 0.930 . S
C161 C147 1.497 . S
C161 C160 1.438 . S
C161 C162 1.360 . S
C162 C161 1.360 . S
C162 C163 1.401 . S
C162 C167 1.446 . S
C163 C162 1.401 . S
C163 C164 1.347 . S
C163 H223 0.929 . S
C164 C163 1.347 . S
C164 C165 1.455 . S
C164 H224 0.930 . S
C165 C152 1.412 . S
C165 C164 1.455 . S
C165 C166 1.331 . S
C166 C155 1.451 . S
C166 C165 1.331 . S
C166 C167 1.497 . S
C167 C158 1.395 . S
C167 C162 1.446 . S
C167 C166 1.497 . S
C168 C169 1.582 . S
C168 H225 0.962 . S
C168 H226 0.959 . S
C168 H227 0.958 . S
C169 C168 1.582 . S
C169 O172 1.458 . S
C169 H198 0.980 . S
O170 C115 1.426 . S
O170 C116 1.334 . S
O171 C143 1.412 . S
O171 C144 1.393 . S
O172 C134 1.435 . S
O172 C169 1.458 . S
O173 C125 1.468 . S
O173 C126 1.408 . S
H174 C115 0.980 . S
H175 C114 0.959 . S
H176 C114 0.959 . S
H177 C114 0.960 . S
H178 C117 0.929 . S
H179 C121 0.929 . S
H180 C122 0.959 . S
H181 C122 0.961 . S
H182 C122 0.961 . S
H183 C123 0.960 . S
H184 C123 0.960 . S
H185 C123 0.961 . S
H186 C125 0.980 . S
H187 C124 0.961 . S
H188 C124 0.960 . S
H189 C124 0.959 . S
H190 C127 0.930 . S
H191 C131 0.931 . S
H192 C132 0.959 . S
H193 C132 0.961 . S
H194 C132 0.959 . S
H195 C133 0.960 . S
H196 C133 0.960 . S
H197 C133 0.960 . S
H198 C169 0.980 . S
H199 C135 0.930 . S
H200 C139 0.930 . S
H201 C140 0.961 . S
H202 C140 0.960 . S
H203 C140 0.958 . S
H204 C141 0.961 . S
H205 C141 0.960 . S
H206 C141 0.960 . S
H207 C143 0.980 . S
H208 C142 0.961 . S
H209 C142 0.961 . S
H210 C142 0.959 . S
H211 C145 0.932 . S
H212 C149 0.929 . S
H213 C150 0.961 . S
H214 C150 0.959 . S
H215 C150 0.959 . S
H216 C151 0.960 . S
H217 C151 0.962 . S
H218 C151 0.961 . S
H219 C153 0.929 . S
H220 C156 0.930 . S
H221 C157 0.929 . S
H222 C160 0.930 . S
H223 C163 0.929 . S
H224 C164 0.930 . S
H225 C168 0.962 . S
H226 C168 0.959 . S
H227 C168 0.958 . S
C228 C229 1.560 . S
C228 H289 0.959 . S
C228 H290 0.959 . S
C228 H291 0.960 . S
C229 C228 1.560 . S
C229 O284 1.426 . S
C229 H288 0.980 . S
C230 C231 1.407 . S
C230 C235 1.418 . S
C230 O284 1.334 . S
C231 C230 1.407 . S
C231 C232 1.360 . S
C231 H292 0.929 . S
C232 C231 1.360 . S
C232 C233 1.401 . S
C232 C236 1.527 . S
C233 C232 1.401 . S
C233 C234 1.405 . S
C233 C266 1.587 . S
C234 C233 1.405 . S
C234 C235 1.332 . S
C234 C237 1.496 . S
C235 C230 1.418 . S
C235 C234 1.332 . S
C235 H293 0.929 . S
C236 C232 1.527 . S
C236 H294 0.959 . S
C236 H295 0.961 . S
C236 H296 0.961 . S
C237 C234 1.496 . S
C237 H297 0.960 . S
C237 H298 0.960 . S
C237 H299 0.961 . S
C238 C239 1.517 . S
C238 H301 0.961 . S
C238 H302 0.960 . S
C238 H303 0.959 . S
C239 C238 1.517 . S
C239 O287 1.468 . S
C239 H300 0.980 . S
C240 C241 1.349 . S
C240 C245 1.367 . S
C240 O287 1.408 . S
C241 C240 1.349 . S
C241 C242 1.407 . S
C241 H304 0.930 . S
C242 C241 1.407 . S
C242 C243 1.449 . S
C242 C246 1.535 . S
C243 C242 1.449 . S
C243 C244 1.384 . S
C243 C268 1.553 . S
C244 C243 1.384 . S
C244 C245 1.364 . S
C244 C247 1.450 . S
C245 C240 1.367 . S
C245 C244 1.364 . S
C245 H305 0.931 . S
C246 C242 1.535 . S
C246 H306 0.959 . S
C246 H307 0.961 . S
C246 H308 0.959 . S
C247 C244 1.450 . S
C247 H309 0.960 . S
C247 H310 0.960 . S
C247 H311 0.960 . S
C248 C249 1.309 . S
C248 C253 1.304 . S
C248 O286 1.435 . S
C249 C248 1.309 . S
C249 C250 1.476 . S
C249 H313 0.930 . S
C250 C249 1.476 . S
C250 C251 1.400 . S
C250 C254 1.567 . S
C251 C250 1.400 . S
C251 C252 1.373 . S
C251 C273 1.432 . S
C252 C251 1.373 . S
C252 C253 1.339 . S
C252 C255 1.530 . S
C253 C248 1.304 . S
C253 C252 1.339 . S
C253 H314 0.930 . S
C254 C250 1.567 . S
C254 H315 0.961 . S
C254 H316 0.960 . S
C254 H317 0.958 . S
C255 C252 1.530 . S
C255 H318 0.961 . S
C255 H319 0.960 . S
C255 H320 0.960 . S
C256 C257 1.530 . S
C256 H322 0.961 . S
C256 H323 0.961 . S
C256 H324 0.959 . S
C257 C256 1.530 . S
C257 O285 1.412 . S
C257 H321 0.980 . S
C258 C259 1.288 . S
C258 C263 1.377 . S
C258 O285 1.393 . S
C259 C258 1.288 . S
C259 C260 1.369 . S
C259 H325 0.932 . S
C260 C259 1.369 . S
C260 C261 1.398 . S
C260 C264 1.527 . S
C261 C260 1.398 . S
C261 C262 1.380 . S
C261 C275 1.497 . S
C262 C261 1.380 . S
C262 C263 1.383 . S
C262 C265 1.603 . S
C263 C258 1.377 . S
C263 C262 1.383 . S
C263 H326 0.929 . S
C264 C260 1.527 . S
C264 H327 0.961 . S
C264 H328 0.959 . S
C264 H329 0.959 . S
C265 C262 1.603 . S
C265 H330 0.960 . S
C265 H331 0.962 . S
C265 H332 0.961 . S
C266 C233 1.587 . S
C266 C267 1.360 . S
C266 C279 1.412 . S
C267 C266 1.360 . S
C267 C268 1.365 . S
C267 H333 0.929 . S
C268 C243 1.553 . S
C268 C267 1.365 . S
C268 C269 1.404 . S
C269 C268 1.404 . S
C269 C270 1.395 . S
C269 C280 1.451 . S
C270 C269 1.395 . S
C270 C271 1.322 . S
C270 H334 0.930 . S
C271 C270 1.322 . S
C271 C272 1.459 . S
C271 H335 0.929 . S
C272 C271 1.459 . S
C272 C273 1.445 . S
C272 C281 1.395 . S
C273 C251 1.432 . S
C273 C272 1.445 . S
C273 C274 1.370 . S
C274 C273 1.370 . S
C274 C275 1.438 . S
C274 H336 0.930 . S
C275 C261 1.497 . S
C275 C274 1.438 . S
C275 C276 1.360 . S
C276 C275 1.360 . S
C276 C277 1.401 . S
C276 C281 1.446 . S
C277 C276 1.401 . S
C277 C278 1.347 . S
C277 H337 0.929 . S
C278 C277 1.347 . S
C278 C279 1.455 . S
C278 H338 0.930 . S
C279 C266 1.412 . S
C279 C278 1.455 . S
C279 C280 1.331 . S
C280 C269 1.451 . S
C280 C279 1.331 . S
C280 C281 1.497 . S
C281 C272 1.395 . S
C281 C276 1.446 . S
C281 C280 1.497 . S
C282 C283 1.582 . S
C282 H339 0.962 . S
C282 H340 0.959 . S
C282 H341 0.958 . S
C283 C282 1.582 . S
C283 O286 1.458 . S
C283 H312 0.980 . S
O284 C229 1.426 . S
O284 C230 1.334 . S
O285 C257 1.412 . S
O285 C258 1.393 . S
O286 C248 1.435 . S
O286 C283 1.458 . S
O287 C239 1.468 . S
O287 C240 1.408 . S
H288 C229 0.980 . S
H289 C228 0.959 . S
H290 C228 0.959 . S
H291 C228 0.960 . S
H292 C231 0.929 . S
H293 C235 0.929 . S
H294 C236 0.959 . S
H295 C236 0.961 . S
H296 C236 0.961 . S
H297 C237 0.960 . S
H298 C237 0.960 . S
H299 C237 0.961 . S
H300 C239 0.980 . S
H301 C238 0.961 . S
H302 C238 0.960 . S
H303 C238 0.959 . S
H304 C241 0.930 . S
H305 C245 0.931 . S
H306 C246 0.959 . S
H307 C246 0.961 . S
H308 C246 0.959 . S
H309 C247 0.960 . S
H310 C247 0.960 . S
H311 C247 0.960 . S
H312 C283 0.980 . S
H313 C249 0.930 . S
H314 C253 0.930 . S
H315 C254 0.961 . S
H316 C254 0.960 . S
H317 C254 0.958 . S
H318 C255 0.961 . S
H319 C255 0.960 . S
H320 C255 0.960 . S
H321 C257 0.980 . S
H322 C256 0.961 . S
H323 C256 0.961 . S
H324 C256 0.959 . S
H325 C259 0.932 . S
H326 C263 0.929 . S
H327 C264 0.961 . S
H328 C264 0.959 . S
H329 C264 0.959 . S
H330 C265 0.960 . S
H331 C265 0.962 . S
H332 C265 0.961 . S
H333 C267 0.929 . S
H334 C270 0.930 . S
H335 C271 0.929 . S
H336 C274 0.930 . S
H337 C277 0.929 . S
H338 C278 0.930 . S
H339 C282 0.962 . S
H340 C282 0.959 . S
H341 C282 0.958 . S
C342 C343 1.560 . S
C342 H403 0.959 . S
C342 H404 0.959 . S
C342 H405 0.960 . S
C343 C342 1.560 . S
C343 O398 1.426 . S
C343 H402 0.980 . S
C344 C345 1.407 . S
C344 C349 1.418 . S
C344 O398 1.334 . S
C345 C344 1.407 . S
C345 C346 1.360 . S
C345 H406 0.929 . S
C346 C345 1.360 . S
C346 C347 1.401 . S
C346 C350 1.527 . S
C347 C346 1.401 . S
C347 C348 1.405 . S
C347 C380 1.587 . S
C348 C347 1.405 . S
C348 C349 1.332 . S
C348 C351 1.496 . S
C349 C344 1.418 . S
C349 C348 1.332 . S
C349 H407 0.929 . S
C350 C346 1.527 . S
C350 H408 0.959 . S
C350 H409 0.961 . S
C350 H410 0.961 . S
C351 C348 1.496 . S
C351 H411 0.960 . S
C351 H412 0.960 . S
C351 H413 0.961 . S
C352 C353 1.517 . S
C352 H415 0.961 . S
C352 H416 0.960 . S
C352 H417 0.959 . S
C353 C352 1.517 . S
C353 O401 1.468 . S
C353 H414 0.980 . S
C354 C355 1.349 . S
C354 C359 1.367 . S
C354 O401 1.408 . S
C355 C354 1.349 . S
C355 C356 1.407 . S
C355 H418 0.930 . S
C356 C355 1.407 . S
C356 C357 1.449 . S
C356 C360 1.535 . S
C357 C356 1.449 . S
C357 C358 1.384 . S
C357 C382 1.553 . S
C358 C357 1.384 . S
C358 C359 1.364 . S
C358 C361 1.450 . S
C359 C354 1.367 . S
C359 C358 1.364 . S
C359 H419 0.931 . S
C360 C356 1.535 . S
C360 H420 0.959 . S
C360 H421 0.961 . S
C360 H422 0.959 . S
C361 C358 1.450 . S
C361 H423 0.960 . S
C361 H424 0.960 . S
C361 H425 0.960 . S
C362 C363 1.309 . S
C362 C367 1.304 . S
C362 O400 1.435 . S
C363 C362 1.309 . S
C363 C364 1.476 . S
C363 H427 0.930 . S
C364 C363 1.476 . S
C364 C365 1.400 . S
C364 C368 1.567 . S
C365 C364 1.400 . S
C365 C366 1.373 . S
C365 C387 1.432 . S
C366 C365 1.373 . S
C366 C367 1.339 . S
C366 C369 1.530 . S
C367 C362 1.304 . S
C367 C366 1.339 . S
C367 H428 0.930 . S
C368 C364 1.567 . S
C368 H429 0.961 . S
C368 H430 0.960 . S
C368 H431 0.958 . S
C369 C366 1.530 . S
C369 H432 0.961 . S
C369 H433 0.960 . S
C369 H434 0.960 . S
C370 C371 1.530 . S
C370 H436 0.961 . S
C370 H437 0.961 . S
C370 H438 0.959 . S
C371 C370 1.530 . S
C371 O399 1.412 . S
C371 H435 0.980 . S
C372 C373 1.288 . S
C372 C377 1.377 . S
C372 O399 1.393 . S
C373 C372 1.288 . S
C373 C374 1.369 . S
C373 H439 0.932 . S
C374 C373 1.369 . S
C374 C375 1.398 . S
C374 C378 1.527 . S
C375 C374 1.398 . S
C375 C376 1.380 . S
C375 C389 1.497 . S
C376 C375 1.380 . S
C376 C377 1.383 . S
C376 C379 1.603 . S
C377 C372 1.377 . S
C377 C376 1.383 . S
C377 H440 0.929 . S
C378 C374 1.527 . S
C378 H441 0.961 . S
C378 H442 0.959 . S
C378 H443 0.959 . S
C379 C376 1.603 . S
C379 H444 0.960 . S
C379 H445 0.962 . S
C379 H446 0.961 . S
C380 C347 1.587 . S
C380 C381 1.360 . S
C380 C393 1.412 . S
C381 C380 1.360 . S
C381 C382 1.365 . S
C381 H447 0.929 . S
C382 C357 1.553 . S
C382 C381 1.365 . S
C382 C383 1.404 . S
C383 C382 1.404 . S
C383 C384 1.395 . S
C383 C394 1.451 . S
C384 C383 1.395 . S
C384 C385 1.322 . S
C384 H448 0.930 . S
C385 C384 1.322 . S
C385 C386 1.459 . S
C385 H449 0.929 . S
C386 C385 1.459 . S
C386 C387 1.445 . S
C386 C395 1.395 . S
C387 C365 1.432 . S
C387 C386 1.445 . S
C387 C388 1.370 . S
C388 C387 1.370 . S
C388 C389 1.438 . S
C388 H450 0.930 . S
C389 C375 1.497 . S
C389 C388 1.438 . S
C389 C390 1.360 . S
C390 C389 1.360 . S
C390 C391 1.401 . S
C390 C395 1.446 . S
C391 C390 1.401 . S
C391 C392 1.347 . S
C391 H451 0.929 . S
C392 C391 1.347 . S
C392 C393 1.455 . S
C392 H452 0.930 . S
C393 C380 1.412 . S
C393 C392 1.455 . S
C393 C394 1.331 . S
C394 C383 1.451 . S
C394 C393 1.331 . S
C394 C395 1.497 . S
C395 C386 1.395 . S
C395 C390 1.446 . S
C395 C394 1.497 . S
C396 C397 1.582 . S
C396 H453 0.962 . S
C396 H454 0.959 . S
C396 H455 0.958 . S
C397 C396 1.582 . S
C397 O400 1.458 . S
C397 H426 0.980 . S
O398 C343 1.426 . S
O398 C344 1.334 . S
O399 C371 1.412 . S
O399 C372 1.393 . S
O400 C362 1.435 . S
O400 C397 1.458 . S
O401 C353 1.468 . S
O401 C354 1.408 . S
H402 C343 0.980 . S
H403 C342 0.959 . S
H404 C342 0.959 . S
H405 C342 0.960 . S
H406 C345 0.929 . S
H407 C349 0.929 . S
H408 C350 0.959 . S
H409 C350 0.961 . S
H410 C350 0.961 . S
H411 C351 0.960 . S
H412 C351 0.960 . S
H413 C351 0.961 . S
H414 C353 0.980 . S
H415 C352 0.961 . S
H416 C352 0.960 . S
H417 C352 0.959 . S
H418 C355 0.930 . S
H419 C359 0.931 . S
H420 C360 0.959 . S
H421 C360 0.961 . S
H422 C360 0.959 . S
H423 C361 0.960 . S
H424 C361 0.960 . S
H425 C361 0.960 . S
H426 C397 0.980 . S
H427 C363 0.930 . S
H428 C367 0.930 . S
H429 C368 0.961 . S
H430 C368 0.960 . S
H431 C368 0.958 . S
H432 C369 0.961 . S
H433 C369 0.960 . S
H434 C369 0.960 . S
H435 C371 0.980 . S
H436 C370 0.961 . S
H437 C370 0.961 . S
H438 C370 0.959 . S
H439 C373 0.932 . S
H440 C377 0.929 . S
H441 C378 0.961 . S
H442 C378 0.959 . S
H443 C378 0.959 . S
H444 C379 0.960 . S
H445 C379 0.962 . S
H446 C379 0.961 . S
H447 C381 0.929 . S
H448 C384 0.930 . S
H449 C385 0.929 . S
H450 C388 0.930 . S
H451 C391 0.929 . S
H452 C392 0.930 . S
H453 C396 0.962 . S
H454 C396 0.959 . S
H455 C396 0.958 . S
C456 C457 1.560 . S
C456 H517 0.959 . S
C456 H518 0.959 . S
C456 H519 0.960 . S
C457 C456 1.560 . S
C457 O512 1.426 . S
C457 H516 0.980 . S
C458 C459 1.407 . S
C458 C463 1.418 . S
C458 O512 1.334 . S
C459 C458 1.407 . S
C459 C460 1.360 . S
C459 H520 0.929 . S
C460 C459 1.360 . S
C460 C461 1.401 . S
C460 C464 1.527 . S
C461 C460 1.401 . S
C461 C462 1.405 . S
C461 C494 1.587 . S
C462 C461 1.405 . S
C462 C463 1.332 . S
C462 C465 1.496 . S
C463 C458 1.418 . S
C463 C462 1.332 . S
C463 H521 0.929 . S
C464 C460 1.527 . S
C464 H522 0.959 . S
C464 H523 0.961 . S
C464 H524 0.961 . S
C465 C462 1.496 . S
C465 H525 0.960 . S
C465 H526 0.960 . S
C465 H527 0.961 . S
C466 C467 1.517 . S
C466 H529 0.961 . S
C466 H530 0.960 . S
C466 H531 0.959 . S
C467 C466 1.517 . S
C467 O515 1.468 . S
C467 H528 0.980 . S
C468 C469 1.349 . S
C468 C473 1.367 . S
C468 O515 1.408 . S
C469 C468 1.349 . S
C469 C470 1.407 . S
C469 H532 0.930 . S
C470 C469 1.407 . S
C470 C471 1.449 . S
C470 C474 1.535 . S
C471 C470 1.449 . S
C471 C472 1.384 . S
C471 C496 1.553 . S
C472 C471 1.384 . S
C472 C473 1.364 . S
C472 C475 1.450 . S
C473 C468 1.367 . S
C473 C472 1.364 . S
C473 H533 0.931 . S
C474 C470 1.535 . S
C474 H534 0.959 . S
C474 H535 0.961 . S
C474 H536 0.959 . S
C475 C472 1.450 . S
C475 H537 0.960 . S
C475 H538 0.960 . S
C475 H539 0.960 . S
C476 C477 1.309 . S
C476 C481 1.304 . S
C476 O514 1.435 . S
C477 C476 1.309 . S
C477 C478 1.476 . S
C477 H541 0.930 . S
C478 C477 1.476 . S
C478 C479 1.400 . S
C478 C482 1.567 . S
C479 C478 1.400 . S
C479 C480 1.373 . S
C479 C501 1.432 . S
C480 C479 1.373 . S
C480 C481 1.339 . S
C480 C483 1.530 . S
C481 C476 1.304 . S
C481 C480 1.339 . S
C481 H542 0.930 . S
C482 C478 1.567 . S
C482 H543 0.961 . S
C482 H544 0.960 . S
C482 H545 0.958 . S
C483 C480 1.530 . S
C483 H546 0.961 . S
C483 H547 0.960 . S
C483 H548 0.960 . S
C484 C485 1.530 . S
C484 H550 0.961 . S
C484 H551 0.961 . S
C484 H552 0.959 . S
C485 C484 1.530 . S
C485 O513 1.412 . S
C485 H549 0.980 . S
C486 C487 1.288 . S
C486 C491 1.377 . S
C486 O513 1.393 . S
C487 C486 1.288 . S
C487 C488 1.369 . S
C487 H553 0.932 . S
C488 C487 1.369 . S
C488 C489 1.398 . S
C488 C492 1.527 . S
C489 C488 1.398 . S
C489 C490 1.380 . S
C489 C503 1.497 . S
C490 C489 1.380 . S
C490 C491 1.383 . S
C490 C493 1.603 . S
C491 C486 1.377 . S
C491 C490 1.383 . S
C491 H554 0.929 . S
C492 C488 1.527 . S
C492 H555 0.961 . S
C492 H556 0.959 . S
C492 H557 0.959 . S
C493 C490 1.603 . S
C493 H558 0.960 . S
C493 H559 0.962 . S
C493 H560 0.961 . S
C494 C461 1.587 . S
C494 C495 1.360 . S
C494 C507 1.412 . S
C495 C494 1.360 . S
C495 C496 1.365 . S
C495 H561 0.929 . S
C496 C471 1.553 . S
C496 C495 1.365 . S
C496 C497 1.404 . S
C497 C496 1.404 . S
C497 C498 1.395 . S
C497 C508 1.451 . S
C498 C497 1.395 . S
C498 C499 1.322 . S
C498 H562 0.930 . S
C499 C498 1.322 . S
C499 C500 1.459 . S
C499 H563 0.929 . S
C500 C499 1.459 . S
C500 C501 1.445 . S
C500 C509 1.395 . S
C501 C479 1.432 . S
C501 C500 1.445 . S
C501 C502 1.370 . S
C502 C501 1.370 . S
C502 C503 1.438 . S
C502 H564 0.930 . S
C503 C489 1.497 . S
C503 C502 1.438 . S
C503 C504 1.360 . S
C504 C503 1.360 . S
C504 C505 1.401 . S
C504 C509 1.446 . S
C505 C504 1.401 . S
C505 C506 1.347 . S
C505 H565 0.929 . S
C506 C505 1.347 . S
C506 C507 1.455 . S
C506 H566 0.930 . S
C507 C494 1.412 . S
C507 C506 1.455 . S
C507 C508 1.331 . S
C508 C497 1.451 . S
C508 C507 1.331 . S
C508 C509 1.497 . S
C509 C500 1.395 . S
C509 C504 1.446 . S
C509 C508 1.497 . S
C510 C511 1.582 . S
C510 H567 0.962 . S
C510 H568 0.959 . S
C510 H569 0.958 . S
C511 C510 1.582 . S
C511 O514 1.458 . S
C511 H540 0.980 . S
O512 C457 1.426 . S
O512 C458 1.334 . S
O513 C485 1.412 . S
O513 C486 1.393 . S
O514 C476 1.435 . S
O514 C511 1.458 . S
O515 C467 1.468 . S
O515 C468 1.408 . S
H516 C457 0.980 . S
H517 C456 0.959 . S
H518 C456 0.959 . S
H519 C456 0.960 . S
H520 C459 0.929 . S
H521 C463 0.929 . S
H522 C464 0.959 . S
H523 C464 0.961 . S
H524 C464 0.961 . S
H525 C465 0.960 . S
H526 C465 0.960 . S
H527 C465 0.961 . S
H528 C467 0.980 . S
H529 C466 0.961 . S
H530 C466 0.960 . S
H531 C466 0.959 . S
H532 C469 0.930 . S
H533 C473 0.931 . S
H534 C474 0.959 . S
H535 C474 0.961 . S
H536 C474 0.959 . S
H537 C475 0.960 . S
H538 C475 0.960 . S
H539 C475 0.960 . S
H540 C511 0.980 . S
H541 C477 0.930 . S
H542 C481 0.930 . S
H543 C482 0.961 . S
H544 C482 0.960 . S
H545 C482 0.958 . S
H546 C483 0.961 . S
H547 C483 0.960 . S
H548 C483 0.960 . S
H549 C485 0.980 . S
H550 C484 0.961 . S
H551 C484 0.961 . S
H552 C484 0.959 . S
H553 C487 0.932 . S
H554 C491 0.929 . S
H555 C492 0.961 . S
H556 C492 0.959 . S
H557 C492 0.959 . S
H558 C493 0.960 . S
H559 C493 0.962 . S
H560 C493 0.961 . S
H561 C495 0.929 . S
H562 C498 0.930 . S
H563 C499 0.929 . S
H564 C502 0.930 . S
H565 C505 0.929 . S
H566 C506 0.930 . S
H567 C510 0.962 . S
H568 C510 0.959 . S
H569 C510 0.958 . S
C570 C571 1.560 . S
C570 H631 0.959 . S
C570 H632 0.959 . S
C570 H633 0.960 . S
C571 C570 1.560 . S
C571 O626 1.426 . S
C571 H630 0.980 . S
C572 C573 1.407 . S
C572 C577 1.418 . S
C572 O626 1.334 . S
C573 C572 1.407 . S
C573 C574 1.360 . S
C573 H634 0.929 . S
C574 C573 1.360 . S
C574 C575 1.401 . S
C574 C578 1.527 . S
C575 C574 1.401 . S
C575 C576 1.405 . S
C575 C608 1.587 . S
C576 C575 1.405 . S
C576 C577 1.332 . S
C576 C579 1.496 . S
C577 C572 1.418 . S
C577 C576 1.332 . S
C577 H635 0.929 . S
C578 C574 1.527 . S
C578 H636 0.959 . S
C578 H637 0.961 . S
C578 H638 0.961 . S
C579 C576 1.496 . S
C579 H639 0.960 . S
C579 H640 0.960 . S
C579 H641 0.961 . S
C580 C581 1.517 . S
C580 H643 0.961 . S
C580 H644 0.960 . S
C580 H645 0.959 . S
C581 C580 1.517 . S
C581 O629 1.468 . S
C581 H642 0.980 . S
C582 C583 1.349 . S
C582 C587 1.367 . S
C582 O629 1.408 . S
C583 C582 1.349 . S
C583 C584 1.407 . S
C583 H646 0.930 . S
C584 C583 1.407 . S
C584 C585 1.449 . S
C584 C588 1.535 . S
C585 C584 1.449 . S
C585 C586 1.384 . S
C585 C610 1.553 . S
C586 C585 1.384 . S
C586 C587 1.364 . S
C586 C589 1.450 . S
C587 C582 1.367 . S
C587 C586 1.364 . S
C587 H647 0.931 . S
C588 C584 1.535 . S
C588 H648 0.959 . S
C588 H649 0.961 . S
C588 H650 0.959 . S
C589 C586 1.450 . S
C589 H651 0.960 . S
C589 H652 0.960 . S
C589 H653 0.960 . S
C590 C591 1.309 . S
C590 C595 1.304 . S
C590 O628 1.435 . S
C591 C590 1.309 . S
C591 C592 1.476 . S
C591 H655 0.930 . S
C592 C591 1.476 . S
C592 C593 1.400 . S
C592 C596 1.567 . S
C593 C592 1.400 . S
C593 C594 1.373 . S
C593 C615 1.432 . S
C594 C593 1.373 . S
C594 C595 1.339 . S
C594 C597 1.530 . S
C595 C590 1.304 . S
C595 C594 1.339 . S
C595 H656 0.930 . S
C596 C592 1.567 . S
C596 H657 0.961 . S
C596 H658 0.960 . S
C596 H659 0.958 . S
C597 C594 1.530 . S
C597 H660 0.961 . S
C597 H661 0.960 . S
C597 H662 0.960 . S
C598 C599 1.530 . S
C598 H664 0.961 . S
C598 H665 0.961 . S
C598 H666 0.959 . S
C599 C598 1.530 . S
C599 O627 1.412 . S
C599 H663 0.980 . S
C600 C601 1.288 . S
C600 C605 1.377 . S
C600 O627 1.393 . S
C601 C600 1.288 . S
C601 C602 1.369 . S
C601 H667 0.932 . S
C602 C601 1.369 . S
C602 C603 1.398 . S
C602 C606 1.527 . S
C603 C602 1.398 . S
C603 C604 1.380 . S
C603 C617 1.497 . S
C604 C603 1.380 . S
C604 C605 1.383 . S
C604 C607 1.603 . S
C605 C600 1.377 . S
C605 C604 1.383 . S
C605 H668 0.929 . S
C606 C602 1.527 . S
C606 H669 0.961 . S
C606 H670 0.959 . S
C606 H671 0.959 . S
C607 C604 1.603 . S
C607 H672 0.960 . S
C607 H673 0.962 . S
C607 H674 0.961 . S
C608 C575 1.587 . S
C608 C609 1.360 . S
C608 C621 1.412 . S
C609 C608 1.360 . S
C609 C610 1.365 . S
C609 H675 0.929 . S
C610 C585 1.553 . S
C610 C609 1.365 . S
C610 C611 1.404 . S
C611 C610 1.404 . S
C611 C612 1.395 . S
C611 C622 1.451 . S
C612 C611 1.395 . S
C612 C613 1.322 . S
C612 H676 0.930 . S
C613 C612 1.322 . S
C613 C614 1.459 . S
C613 H677 0.929 . S
C614 C613 1.459 . S
C614 C615 1.445 . S
C614 C623 1.395 . S
C615 C593 1.432 . S
C615 C614 1.445 . S
C615 C616 1.370 . S
C616 C615 1.370 . S
C616 C617 1.438 . S
C616 H678 0.930 . S
C617 C603 1.497 . S
C617 C616 1.438 . S
C617 C618 1.360 . S
C618 C617 1.360 . S
C618 C619 1.401 . S
C618 C623 1.446 . S
C619 C618 1.401 . S
C619 C620 1.347 . S
C619 H679 0.929 . S
C620 C619 1.347 . S
C620 C621 1.455 . S
C620 H680 0.930 . S
C621 C608 1.412 . S
C621 C620 1.455 . S
C621 C622 1.331 . S
C622 C611 1.451 . S
C622 C621 1.331 . S
C622 C623 1.497 . S
C623 C614 1.395 . S
C623 C618 1.446 . S
C623 C622 1.497 . S
C624 C625 1.582 . S
C624 H681 0.962 . S
C624 H682 0.959 . S
C624 H683 0.958 . S
C625 C624 1.582 . S
C625 O628 1.458 . S
C625 H654 0.980 . S
O626 C571 1.426 . S
O626 C572 1.334 . S
O627 C599 1.412 . S
O627 C600 1.393 . S
O628 C590 1.435 . S
O628 C625 1.458 . S
O629 C581 1.468 . S
O629 C582 1.408 . S
H630 C571 0.980 . S
H631 C570 0.959 . S
H632 C570 0.959 . S
H633 C570 0.960 . S
H634 C573 0.929 . S
H635 C577 0.929 . S
H636 C578 0.959 . S
H637 C578 0.961 . S
H638 C578 0.961 . S
H639 C579 0.960 . S
H640 C579 0.960 . S
H641 C579 0.961 . S
H642 C581 0.980 . S
H643 C580 0.961 . S
H644 C580 0.960 . S
H645 C580 0.959 . S
H646 C583 0.930 . S
H647 C587 0.931 . S
H648 C588 0.959 . S
H649 C588 0.961 . S
H650 C588 0.959 . S
H651 C589 0.960 . S
H652 C589 0.960 . S
H653 C589 0.960 . S
H654 C625 0.980 . S
H655 C591 0.930 . S
H656 C595 0.930 . S
H657 C596 0.961 . S
H658 C596 0.960 . S
H659 C596 0.958 . S
H660 C597 0.961 . S
H661 C597 0.960 . S
H662 C597 0.960 . S
H663 C599 0.980 . S
H664 C598 0.961 . S
H665 C598 0.961 . S
H666 C598 0.959 . S
H667 C601 0.932 . S
H668 C605 0.929 . S
H669 C606 0.961 . S
H670 C606 0.959 . S
H671 C606 0.959 . S
H672 C607 0.960 . S
H673 C607 0.962 . S
H674 C607 0.961 . S
H675 C609 0.929 . S
H676 C612 0.930 . S
H677 C613 0.929 . S
H678 C616 0.930 . S
H679 C619 0.929 . S
H680 C620 0.930 . S
H681 C624 0.962 . S
H682 C624 0.959 . S
H683 C624 0.958 . S
C684 C685 1.560 . S
C684 H745 0.959 . S
C684 H746 0.959 . S
C684 H747 0.960 . S
C685 C684 1.560 . S
C685 O740 1.426 . S
C685 H744 0.980 . S
C686 C687 1.407 . S
C686 C691 1.418 . S
C686 O740 1.334 . S
C687 C686 1.407 . S
C687 C688 1.360 . S
C687 H748 0.929 . S
C688 C687 1.360 . S
C688 C689 1.401 . S
C688 C692 1.527 . S
C689 C688 1.401 . S
C689 C690 1.405 . S
C689 C722 1.587 . S
C690 C689 1.405 . S
C690 C691 1.332 . S
C690 C693 1.496 . S
C691 C686 1.418 . S
C691 C690 1.332 . S
C691 H749 0.929 . S
C692 C688 1.527 . S
C692 H750 0.959 . S
C692 H751 0.961 . S
C692 H752 0.961 . S
C693 C690 1.496 . S
C693 H753 0.960 . S
C693 H754 0.960 . S
C693 H755 0.961 . S
C694 C695 1.517 . S
C694 H757 0.961 . S
C694 H758 0.960 . S
C694 H759 0.959 . S
C695 C694 1.517 . S
C695 O743 1.468 . S
C695 H756 0.980 . S
C696 C697 1.349 . S
C696 C701 1.367 . S
C696 O743 1.408 . S
C697 C696 1.349 . S
C697 C698 1.407 . S
C697 H760 0.930 . S
C698 C697 1.407 . S
C698 C699 1.449 . S
C698 C702 1.535 . S
C699 C698 1.449 . S
C699 C700 1.384 . S
C699 C724 1.553 . S
C700 C699 1.384 . S
C700 C701 1.364 . S
C700 C703 1.450 . S
C701 C696 1.367 . S
C701 C700 1.364 . S
C701 H761 0.931 . S
C702 C698 1.535 . S
C702 H762 0.959 . S
C702 H763 0.961 . S
C702 H764 0.959 . S
C703 C700 1.450 . S
C703 H765 0.960 . S
C703 H766 0.960 . S
C703 H767 0.960 . S
C704 C705 1.309 . S
C704 C709 1.304 . S
C704 O742 1.435 . S
C705 C704 1.309 . S
C705 C706 1.476 . S
C705 H769 0.930 . S
C706 C705 1.476 . S
C706 C707 1.400 . S
C706 C710 1.567 . S
C707 C706 1.400 . S
C707 C708 1.373 . S
C707 C729 1.432 . S
C708 C707 1.373 . S
C708 C709 1.339 . S
C708 C711 1.530 . S
C709 C704 1.304 . S
C709 C708 1.339 . S
C709 H770 0.930 . S
C710 C706 1.567 . S
C710 H771 0.961 . S
C710 H772 0.960 . S
C710 H773 0.958 . S
C711 C708 1.530 . S
C711 H774 0.961 . S
C711 H775 0.960 . S
C711 H776 0.960 . S
C712 C713 1.530 . S
C712 H778 0.961 . S
C712 H779 0.961 . S
C712 H780 0.959 . S
C713 C712 1.530 . S
C713 O741 1.412 . S
C713 H777 0.980 . S
C714 C715 1.288 . S
C714 C719 1.377 . S
C714 O741 1.393 . S
C715 C714 1.288 . S
C715 C716 1.369 . S
C715 H781 0.932 . S
C716 C715 1.369 . S
C716 C717 1.398 . S
C716 C720 1.527 . S
C717 C716 1.398 . S
C717 C718 1.380 . S
C717 C731 1.497 . S
C718 C717 1.380 . S
C718 C719 1.383 . S
C718 C721 1.603 . S
C719 C714 1.377 . S
C719 C718 1.383 . S
C719 H782 0.929 . S
C720 C716 1.527 . S
C720 H783 0.961 . S
C720 H784 0.959 . S
C720 H785 0.959 . S
C721 C718 1.603 . S
C721 H786 0.960 . S
C721 H787 0.962 . S
C721 H788 0.961 . S
C722 C689 1.587 . S
C722 C723 1.360 . S
C722 C735 1.412 . S
C723 C722 1.360 . S
C723 C724 1.365 . S
C723 H789 0.929 . S
C724 C699 1.553 . S
C724 C723 1.365 . S
C724 C725 1.404 . S
C725 C724 1.404 . S
C725 C726 1.395 . S
C725 C736 1.451 . S
C726 C725 1.395 . S
C726 C727 1.322 . S
C726 H790 0.930 . S
C727 C726 1.322 . S
C727 C728 1.459 . S
C727 H791 0.929 . S
C728 C727 1.459 . S
C728 C729 1.445 . S
C728 C737 1.395 . S
C729 C707 1.432 . S
C729 C728 1.445 . S
C729 C730 1.370 . S
C730 C729 1.370 . S
C730 C731 1.438 . S
C730 H792 0.930 . S
C731 C717 1.497 . S
C731 C730 1.438 . S
C731 C732 1.360 . S
C732 C731 1.360 . S
C732 C733 1.401 . S
C732 C737 1.446 . S
C733 C732 1.401 . S
C733 C734 1.347 . S
C733 H793 0.929 . S
C734 C733 1.347 . S
C734 C735 1.455 . S
C734 H794 0.930 . S
C735 C722 1.412 . S
C735 C734 1.455 . S
C735 C736 1.331 . S
C736 C725 1.451 . S
C736 C735 1.331 . S
C736 C737 1.497 . S
C737 C728 1.395 . S
C737 C732 1.446 . S
C737 C736 1.497 . S
C738 C739 1.582 . S
C738 H795 0.962 . S
C738 H796 0.959 . S
C738 H797 0.958 . S
C739 C738 1.582 . S
C739 O742 1.458 . S
C739 H768 0.980 . S
O740 C685 1.426 . S
O740 C686 1.334 . S
O741 C713 1.412 . S
O741 C714 1.393 . S
O742 C704 1.435 . S
O742 C739 1.458 . S
O743 C695 1.468 . S
O743 C696 1.408 . S
H744 C685 0.980 . S
H745 C684 0.959 . S
H746 C684 0.959 . S
H747 C684 0.960 . S
H748 C687 0.929 . S
H749 C691 0.929 . S
H750 C692 0.959 . S
H751 C692 0.961 . S
H752 C692 0.961 . S
H753 C693 0.960 . S
H754 C693 0.960 . S
H755 C693 0.961 . S
H756 C695 0.980 . S
H757 C694 0.961 . S
H758 C694 0.960 . S
H759 C694 0.959 . S
H760 C697 0.930 . S
H761 C701 0.931 . S
H762 C702 0.959 . S
H763 C702 0.961 . S
H764 C702 0.959 . S
H765 C703 0.960 . S
H766 C703 0.960 . S
H767 C703 0.960 . S
H768 C739 0.980 . S
H769 C705 0.930 . S
H770 C709 0.930 . S
H771 C710 0.961 . S
H772 C710 0.960 . S
H773 C710 0.958 . S
H774 C711 0.961 . S
H775 C711 0.960 . S
H776 C711 0.960 . S
H777 C713 0.980 . S
H778 C712 0.961 . S
H779 C712 0.961 . S
H780 C712 0.959 . S
H781 C715 0.932 . S
H782 C719 0.929 . S
H783 C720 0.961 . S
H784 C720 0.959 . S
H785 C720 0.959 . S
H786 C721 0.960 . S
H787 C721 0.962 . S
H788 C721 0.961 . S
H789 C723 0.929 . S
H790 C726 0.930 . S
H791 C727 0.929 . S
H792 C730 0.930 . S
H793 C733 0.929 . S
H794 C734 0.930 . S
H795 C738 0.962 . S
H796 C738 0.959 . S
H797 C738 0.958 . S
C798 C799 1.560 . S
C798 H859 0.959 . S
C798 H860 0.959 . S
C798 H861 0.960 . S
C799 C798 1.560 . S
C799 O854 1.426 . S
C799 H858 0.980 . S
C800 C801 1.407 . S
C800 C805 1.418 . S
C800 O854 1.334 . S
C801 C800 1.407 . S
C801 C802 1.360 . S
C801 H862 0.929 . S
C802 C801 1.360 . S
C802 C803 1.401 . S
C802 C806 1.527 . S
C803 C802 1.401 . S
C803 C804 1.405 . S
C803 C836 1.587 . S
C804 C803 1.405 . S
C804 C805 1.332 . S
C804 C807 1.496 . S
C805 C800 1.418 . S
C805 C804 1.332 . S
C805 H863 0.929 . S
C806 C802 1.527 . S
C806 H864 0.959 . S
C806 H865 0.961 . S
C806 H866 0.961 . S
C807 C804 1.496 . S
C807 H867 0.960 . S
C807 H868 0.960 . S
C807 H869 0.961 . S
C808 C809 1.517 . S
C808 H871 0.961 . S
C808 H872 0.960 . S
C808 H873 0.959 . S
C809 C808 1.517 . S
C809 O857 1.468 . S
C809 H870 0.980 . S
C810 C811 1.349 . S
C810 C815 1.367 . S
C810 O857 1.408 . S
C811 C810 1.349 . S
C811 C812 1.407 . S
C811 H874 0.930 . S
C812 C811 1.407 . S
C812 C813 1.449 . S
C812 C816 1.535 . S
C813 C812 1.449 . S
C813 C814 1.384 . S
C813 C838 1.553 . S
C814 C813 1.384 . S
C814 C815 1.364 . S
C814 C817 1.450 . S
C815 C810 1.367 . S
C815 C814 1.364 . S
C815 H875 0.931 . S
C816 C812 1.535 . S
C816 H876 0.959 . S
C816 H877 0.961 . S
C816 H878 0.959 . S
C817 C814 1.450 . S
C817 H879 0.960 . S
C817 H880 0.960 . S
C817 H881 0.960 . S
C818 C819 1.309 . S
C818 C823 1.304 . S
C818 O856 1.435 . S
C819 C818 1.309 . S
C819 C820 1.476 . S
C819 H883 0.930 . S
C820 C819 1.476 . S
C820 C821 1.400 . S
C820 C824 1.567 . S
C821 C820 1.400 . S
C821 C822 1.373 . S
C821 C843 1.432 . S
C822 C821 1.373 . S
C822 C823 1.339 . S
C822 C825 1.530 . S
C823 C818 1.304 . S
C823 C822 1.339 . S
C823 H884 0.930 . S
C824 C820 1.567 . S
C824 H885 0.961 . S
C824 H886 0.960 . S
C824 H887 0.958 . S
C825 C822 1.530 . S
C825 H888 0.961 . S
C825 H889 0.960 . S
C825 H890 0.960 . S
C826 C827 1.530 . S
C826 H892 0.961 . S
C826 H893 0.961 . S
C826 H894 0.959 . S
C827 C826 1.530 . S
C827 O855 1.412 . S
C827 H891 0.980 . S
C828 C829 1.288 . S
C828 C833 1.377 . S
C828 O855 1.393 . S
C829 C828 1.288 . S
C829 C830 1.369 . S
C829 H895 0.932 . S
C830 C829 1.369 . S
C830 C831 1.398 . S
C830 C834 1.527 . S
C831 C830 1.398 . S
C831 C832 1.380 . S
C831 C845 1.497 . S
C832 C831 1.380 . S
C832 C833 1.383 . S
C832 C835 1.603 . S
C833 C828 1.377 . S
C833 C832 1.383 . S
C833 H896 0.929 . S
C834 C830 1.527 . S
C834 H897 0.961 . S
C834 H898 0.959 . S
C834 H899 0.959 . S
C835 C832 1.603 . S
C835 H900 0.960 . S
C835 H901 0.962 . S
C835 H902 0.961 . S
C836 C803 1.587 . S
C836 C837 1.360 . S
C836 C849 1.412 . S
C837 C836 1.360 . S
C837 C838 1.365 . S
C837 H903 0.929 . S
C838 C813 1.553 . S
C838 C837 1.365 . S
C838 C839 1.404 . S
C839 C838 1.404 . S
C839 C840 1.395 . S
C839 C850 1.451 . S
C840 C839 1.395 . S
C840 C841 1.322 . S
C840 H904 0.930 . S
C841 C840 1.322 . S
C841 C842 1.459 . S
C841 H905 0.929 . S
C842 C841 1.459 . S
C842 C843 1.445 . S
C842 C851 1.395 . S
C843 C821 1.432 . S
C843 C842 1.445 . S
C843 C844 1.370 . S
C844 C843 1.370 . S
C844 C845 1.438 . S
C844 H906 0.930 . S
C845 C831 1.497 . S
C845 C844 1.438 . S
C845 C846 1.360 . S
C846 C845 1.360 . S
C846 C847 1.401 . S
C846 C851 1.446 . S
C847 C846 1.401 . S
C847 C848 1.347 . S
C847 H907 0.929 . S
C848 C847 1.347 . S
C848 C849 1.455 . S
C848 H908 0.930 . S
C849 C836 1.412 . S
C849 C848 1.455 . S
C849 C850 1.331 . S
C850 C839 1.451 . S
C850 C849 1.331 . S
C850 C851 1.497 . S
C851 C842 1.395 . S
C851 C846 1.446 . S
C851 C850 1.497 . S
C852 C853 1.582 . S
C852 H909 0.962 . S
C852 H910 0.959 . S
C852 H911 0.958 . S
C853 C852 1.582 . S
C853 O856 1.458 . S
C853 H882 0.980 . S
O854 C799 1.426 . S
O854 C800 1.334 . S
O855 C827 1.412 . S
O855 C828 1.393 . S
O856 C818 1.435 . S
O856 C853 1.458 . S
O857 C809 1.468 . S
O857 C810 1.408 . S
H858 C799 0.980 . S
H859 C798 0.959 . S
H860 C798 0.959 . S
H861 C798 0.960 . S
H862 C801 0.929 . S
H863 C805 0.929 . S
H864 C806 0.959 . S
H865 C806 0.961 . S
H866 C806 0.961 . S
H867 C807 0.960 . S
H868 C807 0.960 . S
H869 C807 0.961 . S
H870 C809 0.980 . S
H871 C808 0.961 . S
H872 C808 0.960 . S
H873 C808 0.959 . S
H874 C811 0.930 . S
H875 C815 0.931 . S
H876 C816 0.959 . S
H877 C816 0.961 . S
H878 C816 0.959 . S
H879 C817 0.960 . S
H880 C817 0.960 . S
H881 C817 0.960 . S
H882 C853 0.980 . S
H883 C819 0.930 . S
H884 C823 0.930 . S
H885 C824 0.961 . S
H886 C824 0.960 . S
H887 C824 0.958 . S
H888 C825 0.961 . S
H889 C825 0.960 . S
H890 C825 0.960 . S
H891 C827 0.980 . S
H892 C826 0.961 . S
H893 C826 0.961 . S
H894 C826 0.959 . S
H895 C829 0.932 . S
H896 C833 0.929 . S
H897 C834 0.961 . S
H898 C834 0.959 . S
H899 C834 0.959 . S
H900 C835 0.960 . S
H901 C835 0.962 . S
H902 C835 0.961 . S
H903 C837 0.929 . S
H904 C840 0.930 . S
H905 C841 0.929 . S
H906 C844 0.930 . S
H907 C847 0.929 . S
H908 C848 0.930 . S
H909 C852 0.962 . S
H910 C852 0.959 . S
H911 C852 0.958 . S
C912 O914 1.247 . S
C912 O916 1.258 . S
C913 O920 1.247 . S
C913 O921 1.258 . S
O914 C912 1.247 . S
O914 Zn915 2.028 1_655 S
Zn915 O914 2.028 1_455 S
Zn915 O919 2.035 . S
Zn915 O921 2.035 . S
Zn915 O922 2.028 1_455 S
O916 C912 1.258 . S
O916 Zn917 2.035 1_655 S
Zn917 O916 2.035 1_455 S
Zn917 O918 2.028 . S
Zn917 O920 2.028 . S
Zn917 O923 2.035 1_455 S
O918 Zn917 2.028 . S
O918 C924 1.247 . S
O919 Zn915 2.035 . S
O919 C924 1.258 . S
O920 C913 1.247 . S
O920 Zn917 2.028 . S
O921 C913 1.258 . S
O921 Zn915 2.035 . S
O922 Zn915 2.028 1_655 S
O922 C925 1.247 . S
O923 Zn917 2.035 1_655 S
O923 C925 1.258 . S
C924 O918 1.247 . S
C924 O919 1.258 . S
C925 O922 1.247 . S
C925 O923 1.258 . S
C926 O928 1.247 . S
C926 O930 1.258 . S
C927 O934 1.247 . S
C927 O935 1.258 . S
O928 C926 1.247 . S
O928 Zn929 2.028 . S
Zn929 O928 2.028 . S
Zn929 O933 2.035 1_545 S
Zn929 O935 2.035 1_545 S
Zn929 O936 2.028 . S
O930 C926 1.258 . S
O930 Zn931 2.035 . S
Zn931 O930 2.035 . S
Zn931 O932 2.028 1_545 S
Zn931 O934 2.028 1_545 S
Zn931 O937 2.035 . S
O932 Zn931 2.028 1_565 S
O932 C938 1.247 . S
O933 Zn929 2.035 1_565 S
O933 C938 1.258 . S
O934 C927 1.247 . S
O934 Zn931 2.028 1_565 S
O935 C927 1.258 . S
O935 Zn929 2.035 1_565 S
O936 Zn929 2.028 . S
O936 C939 1.247 . S
O937 Zn931 2.035 . S
O937 C939 1.258 . S
C938 O932 1.247 . S
C938 O933 1.258 . S
C939 O936 1.247 . S
C939 O937 1.258 . S
C940 O942 1.247 . S
C940 O944 1.258 . S
C941 O948 1.247 . S
C941 O949 1.258 . S
O942 C940 1.247 . S
O942 Zn943 2.028 1_655 S
Zn943 O942 2.028 1_455 S
Zn943 O947 2.035 . S
Zn943 O949 2.035 . S
Zn943 O950 2.028 1_455 S
O944 C940 1.258 . S
O944 Zn945 2.035 1_655 S
Zn945 O944 2.035 1_455 S
Zn945 O946 2.028 . S
Zn945 O948 2.028 . S
Zn945 O951 2.035 1_455 S
O946 Zn945 2.028 . S
O946 C952 1.247 . S
O947 Zn943 2.035 . S
O947 C952 1.258 . S
O948 C941 1.247 . S
O948 Zn945 2.028 . S
O949 C941 1.258 . S
O949 Zn943 2.035 . S
O950 Zn943 2.028 1_655 S
O950 C953 1.247 . S
O951 Zn945 2.035 1_655 S
O951 C953 1.258 . S
C952 O946 1.247 . S
C952 O947 1.258 . S
C953 O950 1.247 . S
C953 O951 1.258 . S
C954 O956 1.247 . S
C954 O958 1.258 . S
C955 O962 1.247 . S
C955 O963 1.258 . S
O956 C954 1.247 . S
O956 Zn957 2.028 . S
Zn957 O956 2.028 . S
Zn957 O961 2.035 1_545 S
Zn957 O963 2.035 1_545 S
Zn957 O964 2.028 . S
O958 C954 1.258 . S
O958 Zn959 2.035 . S
Zn959 O958 2.035 . S
Zn959 O960 2.028 1_545 S
Zn959 O962 2.028 1_545 S
Zn959 O965 2.035 . S
O960 Zn959 2.028 1_565 S
O960 C966 1.247 . S
O961 Zn957 2.035 1_565 S
O961 C966 1.258 . S
O962 C955 1.247 . S
O962 Zn959 2.028 1_565 S
O963 C955 1.258 . S
O963 Zn957 2.035 1_565 S
O964 Zn957 2.028 . S
O964 C967 1.247 . S
O965 Zn959 2.035 . S
O965 C967 1.258 . S
C966 O960 1.247 . S
C966 O961 1.258 . S
C967 O964 1.247 . S
C967 O965 1.258 . S
C968 O970 1.247 . S
C968 O972 1.258 . S
C969 O976 1.247 . S
C969 O977 1.258 . S
O970 C968 1.247 . S
O970 Zn971 2.031 . S
Zn971 O970 2.031 . S
Zn971 O975 2.039 . S
Zn971 O977 2.032 1_554 S
Zn971 O978 2.024 1_554 S
O972 C968 1.258 . S
O972 Zn973 2.041 . S
Zn973 O972 2.041 . S
Zn973 O974 2.034 . S
Zn973 O976 2.022 1_554 S
Zn973 O979 2.029 1_554 S
O974 Zn973 2.034 . S
O974 C980 1.247 . S
O975 Zn971 2.039 . S
O975 C980 1.258 . S
O976 C969 1.247 . S
O976 Zn973 2.022 1_556 S
O977 C969 1.258 . S
O977 Zn971 2.032 1_556 S
O978 Zn971 2.024 1_556 S
O978 C981 1.247 . S
O979 Zn973 2.029 1_556 S
O979 C981 1.258 . S
C980 O974 1.247 . S
C980 O975 1.258 . S
C981 O978 1.247 . S
C981 O979 1.258 . S
C982 O984 1.247 . S
C982 O986 1.258 . S
C983 O990 1.247 . S
C983 O991 1.258 . S
O984 C982 1.247 . S
O984 Zn985 2.028 . S
Zn985 O984 2.028 . S
Zn985 O989 2.035 . S
Zn985 O991 2.035 1_554 S
Zn985 O992 2.028 1_554 S
O986 C982 1.258 . S
O986 Zn987 2.035 . S
Zn987 O986 2.035 . S
Zn987 O988 2.028 . S
Zn987 O990 2.028 1_554 S
Zn987 O993 2.035 1_554 S
O988 Zn987 2.028 . S
O988 C994 1.247 . S
O989 Zn985 2.035 . S
O989 C994 1.258 . S
O990 C983 1.247 . S
O990 Zn987 2.028 1_556 S
O991 C983 1.258 . S
O991 Zn985 2.035 1_556 S
O992 Zn985 2.028 1_556 S
O992 C995 1.247 . S
O993 Zn987 2.035 1_556 S
O993 C995 1.258 . S
C994 O988 1.247 . S
C994 O989 1.258 . S
C995 O992 1.247 . S
C995 O993 1.258 . S
C996 O998 1.247 . S
C996 O1000 1.258 . S
C997 O1004 1.247 . S
C997 O1005 1.258 . S
O998 C996 1.247 . S
O998 Zn999 2.021 1_556 S
Zn999 O998 2.021 1_554 S
Zn999 O1003 2.029 1_554 S
Zn999 O1005 2.042 . S
Zn999 O1006 2.034 . S
O1000 C996 1.258 . S
O1000 Zn1001 2.030 1_556 S
Zn1001 O1000 2.030 1_554 S
Zn1001 O1002 2.023 1_554 S
Zn1001 O1004 2.033 . S
Zn1001 O1007 2.040 . S
O1002 Zn1001 2.023 1_556 S
O1002 C1008 1.247 . S
O1003 Zn999 2.029 1_556 S
O1003 C1008 1.258 . S
O1004 C997 1.247 . S
O1004 Zn1001 2.033 . S
O1005 C997 1.258 . S
O1005 Zn999 2.042 . S
O1006 Zn999 2.034 . S
O1006 C1009 1.247 . S
O1007 Zn1001 2.040 . S
O1007 C1009 1.258 . S
C1008 O1002 1.247 . S
C1008 O1003 1.258 . S
C1009 O1006 1.247 . S
C1009 O1007 1.258 . S
C1010 O1012 1.247 . S
C1010 O1014 1.258 . S
C1011 O1018 1.247 . S
C1011 O1019 1.258 . S
O1012 C1010 1.247 . S
O1012 Zn1013 2.028 . S
Zn1013 O1012 2.028 . S
Zn1013 O1017 2.035 . S
Zn1013 O1019 2.035 1_554 S
Zn1013 O1020 2.028 1_554 S
O1014 C1010 1.258 . S
O1014 Zn1015 2.035 . S
Zn1015 O1014 2.035 . S
Zn1015 O1016 2.028 . S
Zn1015 O1018 2.028 1_554 S
Zn1015 O1021 2.035 1_554 S
O1016 Zn1015 2.028 . S
O1016 C1022 1.247 . S
O1017 Zn1013 2.035 . S
O1017 C1022 1.258 . S
O1018 C1011 1.247 . S
O1018 Zn1015 2.028 1_556 S
O1019 C1011 1.258 . S
O1019 Zn1013 2.035 1_556 S
O1020 Zn1013 2.028 1_556 S
O1020 C1023 1.247 . S
O1021 Zn1015 2.035 1_556 S
O1021 C1023 1.258 . S
C1022 O1016 1.247 . S
C1022 O1017 1.258 . S
C1023 O1020 1.247 . S
C1023 O1021 1.258 . S
H1024 C1030 0.930 . S
H1025 C1034 0.930 . S
H1026 C1039 0.929 . S
H1027 C1037 0.929 . S
H1028 C1032 0.929 . S
H1029 C1038 0.929 . S
C1030 H1024 0.930 . S
C1030 C1031 1.367 . S
C1030 C1038 1.378 . S
C1031 C1030 1.367 . S
C1031 C1039 1.433 . S
C1032 H1028 0.929 . S
C1032 C1034 1.378 . S
C1032 C1036 1.350 . S
C1033 C1036 1.463 . S
C1033 C1038 1.350 . S
C1033 N1041 1.427 . S
C1034 H1025 0.930 . S
C1034 C1032 1.378 . S
C1034 C1035 1.367 . S
C1035 C1034 1.367 . S
C1035 C1037 1.433 . S
C1036 C1032 1.350 . S
C1036 C1033 1.463 . S
C1036 N1040 1.427 . S
C1037 H1027 0.929 . S
C1037 C1035 1.433 . S
C1037 N1040 1.384 . S
C1038 H1029 0.929 . S
C1038 C1030 1.378 . S
C1038 C1033 1.350 . S
C1039 H1026 0.929 . S
C1039 C1031 1.433 . S
C1039 N1041 1.384 . S
N1040 C1036 1.427 . S
N1040 C1037 1.384 . S
N1041 C1033 1.427 . S
N1041 C1039 1.384 . S
H1042 C1048 0.930 . S
H1043 C1052 0.930 . S
H1044 C1057 0.929 . S
H1045 C1055 0.929 . S
H1046 C1050 0.929 . S
H1047 C1056 0.929 . S
C1048 H1042 0.930 . S
C1048 C1049 1.367 . S
C1048 C1056 1.378 . S
C1049 C1048 1.367 . S
C1049 C1057 1.433 . S
C1050 H1046 0.929 . S
C1050 C1052 1.378 . S
C1050 C1054 1.350 . S
C1051 C1054 1.463 . S
C1051 C1056 1.350 . S
C1051 N1059 1.427 . S
C1052 H1043 0.930 . S
C1052 C1050 1.378 . S
C1052 C1053 1.367 . S
C1053 C1052 1.367 . S
C1053 C1055 1.433 . S
C1054 C1050 1.350 . S
C1054 C1051 1.463 . S
C1054 N1058 1.427 . S
C1055 H1045 0.929 . S
C1055 C1053 1.433 . S
C1055 N1058 1.384 . S
C1056 H1047 0.929 . S
C1056 C1048 1.378 . S
C1056 C1051 1.350 . S
C1057 H1044 0.929 . S
C1057 C1049 1.433 . S
C1057 N1059 1.384 . S
N1058 C1054 1.427 . S
N1058 C1055 1.384 . S
N1059 C1051 1.427 . S
N1059 C1057 1.384 . S
H1060 C1066 0.930 . S
H1061 C1070 0.930 . S
H1062 C1075 0.929 . S
H1063 C1073 0.929 . S
H1064 C1068 0.929 . S
H1065 C1074 0.929 . S
C1066 H1060 0.930 . S
C1066 C1067 1.367 . S
C1066 C1074 1.378 . S
C1067 C1066 1.367 . S
C1067 C1075 1.433 . S
C1068 H1064 0.929 . S
C1068 C1070 1.378 . S
C1068 C1072 1.350 . S
C1069 C1072 1.463 . S
C1069 C1074 1.350 . S
C1069 N1077 1.427 . S
C1070 H1061 0.930 . S
C1070 C1068 1.378 . S
C1070 C1071 1.367 . S
C1071 C1070 1.367 . S
C1071 C1073 1.433 . S
C1072 C1068 1.350 . S
C1072 C1069 1.463 . S
C1072 N1076 1.427 . S
C1073 H1063 0.929 . S
C1073 C1071 1.433 . S
C1073 N1076 1.384 . S
C1074 H1065 0.929 . S
C1074 C1066 1.378 . S
C1074 C1069 1.350 . S
C1075 H1062 0.929 . S
C1075 C1067 1.433 . S
C1075 N1077 1.384 . S
N1076 C1072 1.427 . S
N1076 C1073 1.384 . S
N1077 C1069 1.427 . S
N1077 C1075 1.384 . S
H1078 C1084 0.930 . S
H1079 C1088 0.930 . S
H1080 C1093 0.929 . S
H1081 C1091 0.929 . S
H1082 C1086 0.929 . S
H1083 C1092 0.929 . S
C1084 H1078 0.930 . S
C1084 C1085 1.367 . S
C1084 C1092 1.378 . S
C1085 C1084 1.367 . S
C1085 C1093 1.433 . S
C1086 H1082 0.929 . S
C1086 C1088 1.378 . S
C1086 C1090 1.350 . S
C1087 C1090 1.463 . S
C1087 C1092 1.350 . S
C1087 N1095 1.427 . S
C1088 H1079 0.930 . S
C1088 C1086 1.378 . S
C1088 C1089 1.367 . S
C1089 C1088 1.367 . S
C1089 C1091 1.433 . S
C1090 C1086 1.350 . S
C1090 C1087 1.463 . S
C1090 N1094 1.427 . S
C1091 H1081 0.929 . S
C1091 C1089 1.433 . S
C1091 N1094 1.384 . S
C1092 H1083 0.929 . S
C1092 C1084 1.378 . S
C1092 C1087 1.350 . S
C1093 H1080 0.929 . S
C1093 C1085 1.433 . S
C1093 N1095 1.384 . S
N1094 C1090 1.427 . S
N1094 C1091 1.384 . S
N1095 C1087 1.427 . S
N1095 C1093 1.384 . S
H1096 C1102 0.930 . S
H1097 C1106 0.930 . S
H1098 C1111 0.929 . S
H1099 C1109 0.929 . S
H1100 C1104 0.929 . S
H1101 C1110 0.929 . S
C1102 H1096 0.930 . S
C1102 C1103 1.367 . S
C1102 C1110 1.378 . S
C1103 C1102 1.367 . S
C1103 C1111 1.433 . S
C1104 H1100 0.929 . S
C1104 C1106 1.378 . S
C1104 C1108 1.350 . S
C1105 C1108 1.463 . S
C1105 C1110 1.350 . S
C1105 N1113 1.427 . S
C1106 H1097 0.930 . S
C1106 C1104 1.378 . S
C1106 C1107 1.367 . S
C1107 C1106 1.367 . S
C1107 C1109 1.433 . S
C1108 C1104 1.350 . S
C1108 C1105 1.463 . S
C1108 N1112 1.427 . S
C1109 H1099 0.929 . S
C1109 C1107 1.433 . S
C1109 N1112 1.384 . S
C1110 H1101 0.929 . S
C1110 C1102 1.378 . S
C1110 C1105 1.350 . S
C1111 H1098 0.929 . S
C1111 C1103 1.433 . S
C1111 N1113 1.384 . S
N1112 C1108 1.427 . S
N1112 C1109 1.384 . S
N1113 C1105 1.427 . S
N1113 C1111 1.384 . S
H1114 C1120 0.930 . S
H1115 C1124 0.930 . S
H1116 C1129 0.929 . S
H1117 C1127 0.929 . S
H1118 C1122 0.929 . S
H1119 C1128 0.929 . S
C1120 H1114 0.930 . S
C1120 C1121 1.367 . S
C1120 C1128 1.378 . S
C1121 C1120 1.367 . S
C1121 C1129 1.433 . S
C1122 H1118 0.929 . S
C1122 C1124 1.378 . S
C1122 C1126 1.350 . S
C1123 C1126 1.463 . S
C1123 C1128 1.350 . S
C1123 N1131 1.427 . S
C1124 H1115 0.930 . S
C1124 C1122 1.378 . S
C1124 C1125 1.367 . S
C1125 C1124 1.367 . S
C1125 C1127 1.433 . S
C1126 C1122 1.350 . S
C1126 C1123 1.463 . S
C1126 N1130 1.427 . S
C1127 H1117 0.929 . S
C1127 C1125 1.433 . S
C1127 N1130 1.384 . S
C1128 H1119 0.929 . S
C1128 C1120 1.378 . S
C1128 C1123 1.350 . S
C1129 H1116 0.929 . S
C1129 C1121 1.433 . S
C1129 N1131 1.384 . S
N1130 C1126 1.427 . S
N1130 C1127 1.384 . S
N1131 C1123 1.427 . S
N1131 C1129 1.384 . S
H1132 C1138 0.930 . S
H1133 C1142 0.930 . S
H1134 C1147 0.929 . S
H1135 C1145 0.929 . S
H1136 C1140 0.929 . S
H1137 C1146 0.929 . S
C1138 H1132 0.930 . S
C1138 C1139 1.367 . S
C1138 C1146 1.378 . S
C1139 C1138 1.367 . S
C1139 C1147 1.433 . S
C1140 H1136 0.929 . S
C1140 C1142 1.378 . S
C1140 C1144 1.350 . S
C1141 C1144 1.463 . S
C1141 C1146 1.350 . S
C1141 N1149 1.427 . S
C1142 H1133 0.930 . S
C1142 C1140 1.378 . S
C1142 C1143 1.367 . S
C1143 C1142 1.367 . S
C1143 C1145 1.433 . S
C1144 C1140 1.350 . S
C1144 C1141 1.463 . S
C1144 N1148 1.427 . S
C1145 H1135 0.929 . S
C1145 C1143 1.433 . S
C1145 N1148 1.384 . S
C1146 H1137 0.929 . S
C1146 C1138 1.378 . S
C1146 C1141 1.350 . S
C1147 H1134 0.929 . S
C1147 C1139 1.433 . S
C1147 N1149 1.384 . S
N1148 C1144 1.427 . S
N1148 C1145 1.384 . S
N1149 C1141 1.427 . S
N1149 C1147 1.384 . S
H1150 C1156 0.930 . S
H1151 C1160 0.930 . S
H1152 C1165 0.929 . S
H1153 C1163 0.929 . S
H1154 C1158 0.929 . S
H1155 C1164 0.929 . S
C1156 H1150 0.930 . S
C1156 C1157 1.367 . S
C1156 C1164 1.378 . S
C1157 C1156 1.367 . S
C1157 C1165 1.433 . S
C1158 H1154 0.929 . S
C1158 C1160 1.378 . S
C1158 C1162 1.350 . S
C1159 C1162 1.463 . S
C1159 C1164 1.350 . S
C1159 N1167 1.427 . S
C1160 H1151 0.930 . S
C1160 C1158 1.378 . S
C1160 C1161 1.367 . S
C1161 C1160 1.367 . S
C1161 C1163 1.433 . S
C1162 C1158 1.350 . S
C1162 C1159 1.463 . S
C1162 N1166 1.427 . S
C1163 H1153 0.929 . S
C1163 C1161 1.433 . S
C1163 N1166 1.384 . S
C1164 H1155 0.929 . S
C1164 C1156 1.378 . S
C1164 C1159 1.350 . S
C1165 H1152 0.929 . S
C1165 C1157 1.433 . S
C1165 N1167 1.384 . S
N1166 C1162 1.427 . S
N1166 C1163 1.384 . S
N1167 C1159 1.427 . S
N1167 C1165 1.384 . S
H1168 C1174 0.930 . S
H1169 C1178 0.930 . S
H1170 C1183 0.929 . S
H1171 C1181 0.929 . S
H1172 C1176 0.929 . S
H1173 C1182 0.929 . S
C1174 H1168 0.930 . S
C1174 C1175 1.367 . S
C1174 C1182 1.378 . S
C1175 C1174 1.367 . S
C1175 C1183 1.433 . S
C1176 H1172 0.929 . S
C1176 C1178 1.378 . S
C1176 C1180 1.350 . S
C1177 C1180 1.463 . S
C1177 C1182 1.350 . S
C1177 N1185 1.427 . S
C1178 H1169 0.930 . S
C1178 C1176 1.378 . S
C1178 C1179 1.367 . S
C1179 C1178 1.367 . S
C1179 C1181 1.433 . S
C1180 C1176 1.350 . S
C1180 C1177 1.463 . S
C1180 N1184 1.427 . S
C1181 H1171 0.929 . S
C1181 C1179 1.433 . S
C1181 N1184 1.384 . S
C1182 H1173 0.929 . S
C1182 C1174 1.378 . S
C1182 C1177 1.350 . S
C1183 H1170 0.929 . S
C1183 C1175 1.433 . S
C1183 N1185 1.384 . S
N1184 C1180 1.427 . S
N1184 C1181 1.384 . S
N1185 C1177 1.427 . S
N1185 C1183 1.384 . S
H1186 C1192 0.930 . S
H1187 C1196 0.930 . S
H1188 C1201 0.929 . S
H1189 C1199 0.929 . S
H1190 C1194 0.929 . S
H1191 C1200 0.929 . S
C1192 H1186 0.930 . S
C1192 C1193 1.367 . S
C1192 C1200 1.378 . S
C1193 C1192 1.367 . S
C1193 C1201 1.433 . S
C1194 H1190 0.929 . S
C1194 C1196 1.378 . S
C1194 C1198 1.350 . S
C1195 C1198 1.463 . S
C1195 C1200 1.350 . S
C1195 N1203 1.427 . S
C1196 H1187 0.930 . S
C1196 C1194 1.378 . S
C1196 C1197 1.367 . S
C1197 C1196 1.367 . S
C1197 C1199 1.433 . S
C1198 C1194 1.350 . S
C1198 C1195 1.463 . S
C1198 N1202 1.427 . S
C1199 H1189 0.929 . S
C1199 C1197 1.433 . S
C1199 N1202 1.384 . S
C1200 H1191 0.929 . S
C1200 C1192 1.378 . S
C1200 C1195 1.350 . S
C1201 H1188 0.929 . S
C1201 C1193 1.433 . S
C1201 N1203 1.384 . S
N1202 C1198 1.427 . S
N1202 C1199 1.384 . S
N1203 C1195 1.427 . S
N1203 C1201 1.384 . S
H1204 C1210 0.930 . S
H1205 C1214 0.930 . S
H1206 C1219 0.929 . S
H1207 C1217 0.929 . S
H1208 C1212 0.929 . S
H1209 C1218 0.929 . S
C1210 H1204 0.930 . S
C1210 C1211 1.367 . S
C1210 C1218 1.378 . S
C1211 C1210 1.367 . S
C1211 C1219 1.433 . S
C1212 H1208 0.929 . S
C1212 C1214 1.378 . S
C1212 C1216 1.350 . S
C1213 C1216 1.463 . S
C1213 C1218 1.350 . S
C1213 N1221 1.427 . S
C1214 H1205 0.930 . S
C1214 C1212 1.378 . S
C1214 C1215 1.367 . S
C1215 C1214 1.367 . S
C1215 C1217 1.433 . S
C1216 C1212 1.350 . S
C1216 C1213 1.463 . S
C1216 N1220 1.427 . S
C1217 H1207 0.929 . S
C1217 C1215 1.433 . S
C1217 N1220 1.384 . S
C1218 H1209 0.929 . S
C1218 C1210 1.378 . S
C1218 C1213 1.350 . S
C1219 H1206 0.929 . S
C1219 C1211 1.433 . S
C1219 N1221 1.384 . S
N1220 C1216 1.427 . S
N1220 C1217 1.384 . S
N1221 C1213 1.427 . S
N1221 C1219 1.384 . S
H1222 C1228 0.930 . S
H1223 C1232 0.930 . S
H1224 C1237 0.929 . S
H1225 C1235 0.929 . S
H1226 C1230 0.929 . S
H1227 C1236 0.929 . S
C1228 H1222 0.930 . S
C1228 C1229 1.367 . S
C1228 C1236 1.378 . S
C1229 C1228 1.367 . S
C1229 C1237 1.433 . S
C1230 H1226 0.929 . S
C1230 C1232 1.378 . S
C1230 C1234 1.350 . S
C1231 C1234 1.463 . S
C1231 C1236 1.350 . S
C1231 N1239 1.427 . S
C1232 H1223 0.930 . S
C1232 C1230 1.378 . S
C1232 C1233 1.367 . S
C1233 C1232 1.367 . S
C1233 C1235 1.433 . S
C1234 C1230 1.350 . S
C1234 C1231 1.463 . S
C1234 N1238 1.427 . S
C1235 H1225 0.929 . S
C1235 C1233 1.433 . S
C1235 N1238 1.384 . S
C1236 H1227 0.929 . S
C1236 C1228 1.378 . S
C1236 C1231 1.350 . S
C1237 H1224 0.929 . S
C1237 C1229 1.433 . S
C1237 N1239 1.384 . S
N1238 C1234 1.427 . S
N1238 C1235 1.384 . S
N1239 C1231 1.427 . S
N1239 C1237 1.384 . S
H1240 C1246 0.930 . S
H1241 C1250 0.930 . S
H1242 C1255 0.929 . S
H1243 C1253 0.929 . S
H1244 C1248 0.929 . S
H1245 C1254 0.929 . S
C1246 H1240 0.930 . S
C1246 C1247 1.367 . S
C1246 C1254 1.378 . S
C1247 C1246 1.367 . S
C1247 C1255 1.433 . S
C1248 H1244 0.929 . S
C1248 C1250 1.378 . S
C1248 C1252 1.350 . S
C1249 C1252 1.463 . S
C1249 C1254 1.350 . S
C1249 N1257 1.427 . S
C1250 H1241 0.930 . S
C1250 C1248 1.378 . S
C1250 C1251 1.367 . S
C1251 C1250 1.367 . S
C1251 C1253 1.433 . S
C1252 C1248 1.350 . S
C1252 C1249 1.463 . S
C1252 N1256 1.427 . S
C1253 H1243 0.929 . S
C1253 C1251 1.433 . S
C1253 N1256 1.384 . S
C1254 H1245 0.929 . S
C1254 C1246 1.378 . S
C1254 C1249 1.350 . S
C1255 H1242 0.929 . S
C1255 C1247 1.433 . S
C1255 N1257 1.384 . S
N1256 C1252 1.427 . S
N1256 C1253 1.384 . S
N1257 C1249 1.427 . S
N1257 C1255 1.384 . S
H1258 C1264 0.930 . S
H1259 C1268 0.930 . S
H1260 C1273 0.929 . S
H1261 C1271 0.929 . S
H1262 C1266 0.929 . S
H1263 C1272 0.929 . S
C1264 H1258 0.930 . S
C1264 C1265 1.367 . S
C1264 C1272 1.378 . S
C1265 C1264 1.367 . S
C1265 C1273 1.433 . S
C1266 H1262 0.929 . S
C1266 C1268 1.378 . S
C1266 C1270 1.350 . S
C1267 C1270 1.463 . S
C1267 C1272 1.350 . S
C1267 N1275 1.427 . S
C1268 H1259 0.930 . S
C1268 C1266 1.378 . S
C1268 C1269 1.367 . S
C1269 C1268 1.367 . S
C1269 C1271 1.433 . S
C1270 C1266 1.350 . S
C1270 C1267 1.463 . S
C1270 N1274 1.427 . S
C1271 H1261 0.929 . S
C1271 C1269 1.433 . S
C1271 N1274 1.384 . S
C1272 H1263 0.929 . S
C1272 C1264 1.378 . S
C1272 C1267 1.350 . S
C1273 H1260 0.929 . S
C1273 C1265 1.433 . S
C1273 N1275 1.384 . S
N1274 C1270 1.427 . S
N1274 C1271 1.384 . S
N1275 C1267 1.427 . S
N1275 C1273 1.384 . S
H1276 C1282 0.930 . S
H1277 C1286 0.930 . S
H1278 C1291 0.929 . S
H1279 C1289 0.929 . S
H1280 C1284 0.929 . S
H1281 C1290 0.929 . S
C1282 H1276 0.930 . S
C1282 C1283 1.367 . S
C1282 C1290 1.378 . S
C1283 C1282 1.367 . S
C1283 C1291 1.433 . S
C1284 H1280 0.929 . S
C1284 C1286 1.378 . S
C1284 C1288 1.350 . S
C1285 C1288 1.463 . S
C1285 C1290 1.350 . S
C1285 N1293 1.427 . S
C1286 H1277 0.930 . S
C1286 C1284 1.378 . S
C1286 C1287 1.367 . S
C1287 C1286 1.367 . S
C1287 C1289 1.433 . S
C1288 C1284 1.350 . S
C1288 C1285 1.463 . S
C1288 N1292 1.427 . S
C1289 H1279 0.929 . S
C1289 C1287 1.433 . S
C1289 N1292 1.384 . S
C1290 H1281 0.929 . S
C1290 C1282 1.378 . S
C1290 C1285 1.350 . S
C1291 H1278 0.929 . S
C1291 C1283 1.433 . S
C1291 N1293 1.384 . S
N1292 C1288 1.427 . S
N1292 C1289 1.384 . S
N1293 C1285 1.427 . S
N1293 C1291 1.384 . S
H1294 C1300 0.930 . S
H1295 C1304 0.930 . S
H1296 C1309 0.929 . S
H1297 C1307 0.929 . S
H1298 C1302 0.929 . S
H1299 C1308 0.929 . S
C1300 H1294 0.930 . S
C1300 C1301 1.367 . S
C1300 C1308 1.378 . S
C1301 C1300 1.367 . S
C1301 C1309 1.433 . S
C1302 H1298 0.929 . S
C1302 C1304 1.378 . S
C1302 C1306 1.350 . S
C1303 C1306 1.463 . S
C1303 C1308 1.350 . S
C1303 N1311 1.427 . S
C1304 H1295 0.930 . S
C1304 C1302 1.378 . S
C1304 C1305 1.367 . S
C1305 C1304 1.367 . S
C1305 C1307 1.433 . S
C1306 C1302 1.350 . S
C1306 C1303 1.463 . S
C1306 N1310 1.427 . S
C1307 H1297 0.929 . S
C1307 C1305 1.433 . S
C1307 N1310 1.384 . S
C1308 H1299 0.929 . S
C1308 C1300 1.378 . S
C1308 C1303 1.350 . S
C1309 H1296 0.929 . S
C1309 C1301 1.433 . S
C1309 N1311 1.384 . S
N1310 C1306 1.427 . S
N1310 C1307 1.384 . S
N1311 C1303 1.427 . S
N1311 C1309 1.384 . S
H1312 C1318 0.930 . S
H1313 C1322 0.930 . S
H1314 C1327 0.929 . S
H1315 C1325 0.929 . S
H1316 C1320 0.929 . S
H1317 C1326 0.929 . S
C1318 H1312 0.930 . S
C1318 C1319 1.367 . S
C1318 C1326 1.378 . S
C1319 C1318 1.367 . S
C1319 C1327 1.433 . S
C1320 H1316 0.929 . S
C1320 C1322 1.378 . S
C1320 C1324 1.350 . S
C1321 C1324 1.463 . S
C1321 C1326 1.350 . S
C1321 N1329 1.427 . S
C1322 H1313 0.930 . S
C1322 C1320 1.378 . S
C1322 C1323 1.367 . S
C1323 C1322 1.367 . S
C1323 C1325 1.433 . S
C1324 C1320 1.350 . S
C1324 C1321 1.463 . S
C1324 N1328 1.427 . S
C1325 H1315 0.929 . S
C1325 C1323 1.433 . S
C1325 N1328 1.384 . S
C1326 H1317 0.929 . S
C1326 C1318 1.378 . S
C1326 C1321 1.350 . S
C1327 H1314 0.929 . S
C1327 C1319 1.433 . S
C1327 N1329 1.384 . S
N1328 C1324 1.427 . S
N1328 C1325 1.384 . S
N1329 C1321 1.427 . S
N1329 C1327 1.384 . S
H1330 C1336 0.930 . S
H1331 C1340 0.930 . S
H1332 C1345 0.929 . S
H1333 C1343 0.929 . S
H1334 C1338 0.929 . S
H1335 C1344 0.929 . S
C1336 H1330 0.930 . S
C1336 C1337 1.367 . S
C1336 C1344 1.378 . S
C1337 C1336 1.367 . S
C1337 C1345 1.433 . S
C1338 H1334 0.929 . S
C1338 C1340 1.378 . S
C1338 C1342 1.350 . S
C1339 C1342 1.463 . S
C1339 C1344 1.350 . S
C1339 N1347 1.427 . S
C1340 H1331 0.930 . S
C1340 C1338 1.378 . S
C1340 C1341 1.367 . S
C1341 C1340 1.367 . S
C1341 C1343 1.433 . S
C1342 C1338 1.350 . S
C1342 C1339 1.463 . S
C1342 N1346 1.427 . S
C1343 H1333 0.929 . S
C1343 C1341 1.433 . S
C1343 N1346 1.384 . S
C1344 H1335 0.929 . S
C1344 C1336 1.378 . S
C1344 C1339 1.350 . S
C1345 H1332 0.929 . S
C1345 C1337 1.433 . S
C1345 N1347 1.384 . S
N1346 C1342 1.427 . S
N1346 C1343 1.384 . S
N1347 C1339 1.427 . S
N1347 C1345 1.384 . S
H1348 C1354 0.930 . S
H1349 C1358 0.930 . S
H1350 C1363 0.929 . S
H1351 C1361 0.929 . S
H1352 C1356 0.929 . S
H1353 C1362 0.929 . S
C1354 H1348 0.930 . S
C1354 C1355 1.367 . S
C1354 C1362 1.378 . S
C1355 C1354 1.367 . S
C1355 C1363 1.433 . S
C1356 H1352 0.929 . S
C1356 C1358 1.378 . S
C1356 C1360 1.350 . S
C1357 C1360 1.463 . S
C1357 C1362 1.350 . S
C1357 N1365 1.427 . S
C1358 H1349 0.930 . S
C1358 C1356 1.378 . S
C1358 C1359 1.367 . S
C1359 C1358 1.367 . S
C1359 C1361 1.433 . S
C1360 C1356 1.350 . S
C1360 C1357 1.463 . S
C1360 N1364 1.427 . S
C1361 H1351 0.929 . S
C1361 C1359 1.433 . S
C1361 N1364 1.384 . S
C1362 H1353 0.929 . S
C1362 C1354 1.378 . S
C1362 C1357 1.350 . S
C1363 H1350 0.929 . S
C1363 C1355 1.433 . S
C1363 N1365 1.384 . S
N1364 C1360 1.427 . S
N1364 C1361 1.384 . S
N1365 C1357 1.427 . S
N1365 C1363 1.384 . S
H1366 C1372 0.930 . S
H1367 C1376 0.930 . S
H1368 C1381 0.929 . S
H1369 C1379 0.929 . S
H1370 C1374 0.929 . S
H1371 C1380 0.929 . S
C1372 H1366 0.930 . S
C1372 C1373 1.367 . S
C1372 C1380 1.378 . S
C1373 C1372 1.367 . S
C1373 C1381 1.433 . S
C1374 H1370 0.929 . S
C1374 C1376 1.378 . S
C1374 C1378 1.350 . S
C1375 C1378 1.463 . S
C1375 C1380 1.350 . S
C1375 N1383 1.427 . S
C1376 H1367 0.930 . S
C1376 C1374 1.378 . S
C1376 C1377 1.367 . S
C1377 C1376 1.367 . S
C1377 C1379 1.433 . S
C1378 C1374 1.350 . S
C1378 C1375 1.463 . S
C1378 N1382 1.427 . S
C1379 H1369 0.929 . S
C1379 C1377 1.433 . S
C1379 N1382 1.384 . S
C1380 H1371 0.929 . S
C1380 C1372 1.378 . S
C1380 C1375 1.350 . S
C1381 H1368 0.929 . S
C1381 C1373 1.433 . S
C1381 N1383 1.384 . S
N1382 C1378 1.427 . S
N1382 C1379 1.384 . S
N1383 C1375 1.427 . S
N1383 C1381 1.384 . S
H1384 C1390 0.930 . S
H1385 C1394 0.930 . S
H1386 C1399 0.929 . S
H1387 C1397 0.929 . S
H1388 C1392 0.929 . S
H1389 C1398 0.929 . S
C1390 H1384 0.930 . S
C1390 C1391 1.367 . S
C1390 C1398 1.378 . S
C1391 C1390 1.367 . S
C1391 C1399 1.433 . S
C1392 H1388 0.929 . S
C1392 C1394 1.378 . S
C1392 C1396 1.350 . S
C1393 C1396 1.463 . S
C1393 C1398 1.350 . S
C1393 N1401 1.427 . S
C1394 H1385 0.930 . S
C1394 C1392 1.378 . S
C1394 C1395 1.367 . S
C1395 C1394 1.367 . S
C1395 C1397 1.433 . S
C1396 C1392 1.350 . S
C1396 C1393 1.463 . S
C1396 N1400 1.427 . S
C1397 H1387 0.929 . S
C1397 C1395 1.433 . S
C1397 N1400 1.384 . S
C1398 H1389 0.929 . S
C1398 C1390 1.378 . S
C1398 C1393 1.350 . S
C1399 H1386 0.929 . S
C1399 C1391 1.433 . S
C1399 N1401 1.384 . S
N1400 C1396 1.427 . S
N1400 C1397 1.384 . S
N1401 C1393 1.427 . S
N1401 C1399 1.384 . S
H1402 C1408 0.930 . S
H1403 C1412 0.930 . S
H1404 C1417 0.929 . S
H1405 C1415 0.929 . S
H1406 C1410 0.929 . S
H1407 C1416 0.929 . S
C1408 H1402 0.930 . S
C1408 C1409 1.367 . S
C1408 C1416 1.378 . S
C1409 C1408 1.367 . S
C1409 C1417 1.433 . S
C1410 H1406 0.929 . S
C1410 C1412 1.378 . S
C1410 C1414 1.350 . S
C1411 C1414 1.463 . S
C1411 C1416 1.350 . S
C1411 N1419 1.427 . S
C1412 H1403 0.930 . S
C1412 C1410 1.378 . S
C1412 C1413 1.367 . S
C1413 C1412 1.367 . S
C1413 C1415 1.433 . S
C1414 C1410 1.350 . S
C1414 C1411 1.463 . S
C1414 N1418 1.427 . S
C1415 H1405 0.929 . S
C1415 C1413 1.433 . S
C1415 N1418 1.384 . S
C1416 H1407 0.929 . S
C1416 C1408 1.378 . S
C1416 C1411 1.350 . S
C1417 H1404 0.929 . S
C1417 C1409 1.433 . S
C1417 N1419 1.384 . S
N1418 C1414 1.427 . S
N1418 C1415 1.384 . S
N1419 C1411 1.427 . S
N1419 C1417 1.384 . S
H1420 C1426 0.930 . S
H1421 C1430 0.930 . S
H1422 C1435 0.929 . S
H1423 C1433 0.929 . S
H1424 C1428 0.929 . S
H1425 C1434 0.929 . S
C1426 H1420 0.930 . S
C1426 C1427 1.367 . S
C1426 C1434 1.378 . S
C1427 C1426 1.367 . S
C1427 C1435 1.433 . S
C1428 H1424 0.929 . S
C1428 C1430 1.378 . S
C1428 C1432 1.350 . S
C1429 C1432 1.463 . S
C1429 C1434 1.350 . S
C1429 N1437 1.427 . S
C1430 H1421 0.930 . S
C1430 C1428 1.378 . S
C1430 C1431 1.367 . S
C1431 C1430 1.367 . S
C1431 C1433 1.433 . S
C1432 C1428 1.350 . S
C1432 C1429 1.463 . S
C1432 N1436 1.427 . S
C1433 H1423 0.929 . S
C1433 C1431 1.433 . S
C1433 N1436 1.384 . S
C1434 H1425 0.929 . S
C1434 C1426 1.378 . S
C1434 C1429 1.350 . S
C1435 H1422 0.929 . S
C1435 C1427 1.433 . S
C1435 N1437 1.384 . S
N1436 C1432 1.427 . S
N1436 C1433 1.384 . S
N1437 C1429 1.427 . S
N1437 C1435 1.384 . S
H1438 C1444 0.930 . S
H1439 C1448 0.930 . S
H1440 C1453 0.929 . S
H1441 C1451 0.929 . S
H1442 C1446 0.929 . S
H1443 C1452 0.929 . S
C1444 H1438 0.930 . S
C1444 C1445 1.367 . S
C1444 C1452 1.378 . S
C1445 C1444 1.367 . S
C1445 C1453 1.433 . S
C1446 H1442 0.929 . S
C1446 C1448 1.378 . S
C1446 C1450 1.350 . S
C1447 C1450 1.463 . S
C1447 C1452 1.350 . S
C1447 N1455 1.427 . S
C1448 H1439 0.930 . S
C1448 C1446 1.378 . S
C1448 C1449 1.367 . S
C1449 C1448 1.367 . S
C1449 C1451 1.433 . S
C1450 C1446 1.350 . S
C1450 C1447 1.463 . S
C1450 N1454 1.427 . S
C1451 H1441 0.929 . S
C1451 C1449 1.433 . S
C1451 N1454 1.384 . S
C1452 H1443 0.929 . S
C1452 C1444 1.378 . S
C1452 C1447 1.350 . S
C1453 H1440 0.929 . S
C1453 C1445 1.433 . S
C1453 N1455 1.384 . S
N1454 C1450 1.427 . S
N1454 C1451 1.384 . S
N1455 C1447 1.427 . S
N1455 C1453 1.384 . S
H1456 C1462 0.930 . S
H1457 C1466 0.930 . S
H1458 C1471 0.929 . S
H1459 C1469 0.929 . S
H1460 C1464 0.929 . S
H1461 C1470 0.929 . S
C1462 H1456 0.930 . S
C1462 C1463 1.367 . S
C1462 C1470 1.378 . S
C1463 C1462 1.367 . S
C1463 C1471 1.433 . S
C1464 H1460 0.929 . S
C1464 C1466 1.378 . S
C1464 C1468 1.350 . S
C1465 C1468 1.463 . S
C1465 C1470 1.350 . S
C1465 N1473 1.427 . S
C1466 H1457 0.930 . S
C1466 C1464 1.378 . S
C1466 C1467 1.367 . S
C1467 C1466 1.367 . S
C1467 C1469 1.433 . S
C1468 C1464 1.350 . S
C1468 C1465 1.463 . S
C1468 N1472 1.427 . S
C1469 H1459 0.929 . S
C1469 C1467 1.433 . S
C1469 N1472 1.384 . S
C1470 H1461 0.929 . S
C1470 C1462 1.378 . S
C1470 C1465 1.350 . S
C1471 H1458 0.929 . S
C1471 C1463 1.433 . S
C1471 N1473 1.384 . S
N1472 C1468 1.427 . S
N1472 C1469 1.384 . S
N1473 C1465 1.427 . S
N1473 C1471 1.384 . S
H1474 C1480 0.930 . S
H1475 C1484 0.930 . S
H1476 C1489 0.929 . S
H1477 C1487 0.929 . S
H1478 C1482 0.929 . S
H1479 C1488 0.929 . S
C1480 H1474 0.930 . S
C1480 C1481 1.367 . S
C1480 C1488 1.378 . S
C1481 C1480 1.367 . S
C1481 C1489 1.433 . S
C1482 H1478 0.929 . S
C1482 C1484 1.378 . S
C1482 C1486 1.350 . S
C1483 C1486 1.463 . S
C1483 C1488 1.350 . S
C1483 N1491 1.427 . S
C1484 H1475 0.930 . S
C1484 C1482 1.378 . S
C1484 C1485 1.367 . S
C1485 C1484 1.367 . S
C1485 C1487 1.433 . S
C1486 C1482 1.350 . S
C1486 C1483 1.463 . S
C1486 N1490 1.427 . S
C1487 H1477 0.929 . S
C1487 C1485 1.433 . S
C1487 N1490 1.384 . S
C1488 H1479 0.929 . S
C1488 C1480 1.378 . S
C1488 C1483 1.350 . S
C1489 H1476 0.929 . S
C1489 C1481 1.433 . S
C1489 N1491 1.384 . S
N1490 C1486 1.427 . S
N1490 C1487 1.384 . S
N1491 C1483 1.427 . S
N1491 C1489 1.384 . S
H1492 C1498 0.930 . S
H1493 C1502 0.930 . S
H1494 C1507 0.929 . S
H1495 C1505 0.929 . S
H1496 C1500 0.929 . S
H1497 C1506 0.929 . S
C1498 H1492 0.930 . S
C1498 C1499 1.367 . S
C1498 C1506 1.378 . S
C1499 C1498 1.367 . S
C1499 C1507 1.433 . S
C1500 H1496 0.929 . S
C1500 C1502 1.378 . S
C1500 C1504 1.350 . S
C1501 C1504 1.463 . S
C1501 C1506 1.350 . S
C1501 N1509 1.427 . S
C1502 H1493 0.930 . S
C1502 C1500 1.378 . S
C1502 C1503 1.367 . S
C1503 C1502 1.367 . S
C1503 C1505 1.433 . S
C1504 C1500 1.350 . S
C1504 C1501 1.463 . S
C1504 N1508 1.427 . S
C1505 H1495 0.929 . S
C1505 C1503 1.433 . S
C1505 N1508 1.384 . S
C1506 H1497 0.929 . S
C1506 C1498 1.378 . S
C1506 C1501 1.350 . S
C1507 H1494 0.929 . S
C1507 C1499 1.433 . S
C1507 N1509 1.384 . S
N1508 C1504 1.427 . S
N1508 C1505 1.384 . S
N1509 C1501 1.427 . S
N1509 C1507 1.384 . S
H1510 C1516 0.930 . S
H1511 C1520 0.930 . S
H1512 C1525 0.929 . S
H1513 C1523 0.929 . S
H1514 C1518 0.929 . S
H1515 C1524 0.929 . S
C1516 H1510 0.930 . S
C1516 C1517 1.367 . S
C1516 C1524 1.378 . S
C1517 C1516 1.367 . S
C1517 C1525 1.433 . S
C1518 H1514 0.929 . S
C1518 C1520 1.378 . S
C1518 C1522 1.350 . S
C1519 C1522 1.463 . S
C1519 C1524 1.350 . S
C1519 N1527 1.427 . S
C1520 H1511 0.930 . S
C1520 C1518 1.378 . S
C1520 C1521 1.367 . S
C1521 C1520 1.367 . S
C1521 C1523 1.433 . S
C1522 C1518 1.350 . S
C1522 C1519 1.463 . S
C1522 N1526 1.427 . S
C1523 H1513 0.929 . S
C1523 C1521 1.433 . S
C1523 N1526 1.384 . S
C1524 H1515 0.929 . S
C1524 C1516 1.378 . S
C1524 C1519 1.350 . S
C1525 H1512 0.929 . S
C1525 C1517 1.433 . S
C1525 N1527 1.384 . S
N1526 C1522 1.427 . S
N1526 C1523 1.384 . S
N1527 C1519 1.427 . S
N1527 C1525 1.384 . S
H1528 C1534 0.930 . S
H1529 C1538 0.930 . S
H1530 C1543 0.929 . S
H1531 C1541 0.929 . S
H1532 C1536 0.929 . S
H1533 C1542 0.929 . S
C1534 H1528 0.930 . S
C1534 C1535 1.367 . S
C1534 C1542 1.378 . S
C1535 C1534 1.367 . S
C1535 C1543 1.433 . S
C1536 H1532 0.929 . S
C1536 C1538 1.378 . S
C1536 C1540 1.350 . S
C1537 C1540 1.463 . S
C1537 C1542 1.350 . S
C1537 N1545 1.427 . S
C1538 H1529 0.930 . S
C1538 C1536 1.378 . S
C1538 C1539 1.367 . S
C1539 C1538 1.367 . S
C1539 C1541 1.433 . S
C1540 C1536 1.350 . S
C1540 C1537 1.463 . S
C1540 N1544 1.427 . S
C1541 H1531 0.929 . S
C1541 C1539 1.433 . S
C1541 N1544 1.384 . S
C1542 H1533 0.929 . S
C1542 C1534 1.378 . S
C1542 C1537 1.350 . S
C1543 H1530 0.929 . S
C1543 C1535 1.433 . S
C1543 N1545 1.384 . S
N1544 C1540 1.427 . S
N1544 C1541 1.384 . S
N1545 C1537 1.427 . S
N1545 C1543 1.384 . S
H1546 C1552 0.930 . S
H1547 C1556 0.930 . S
H1548 C1561 0.929 . S
H1549 C1559 0.929 . S
H1550 C1554 0.929 . S
H1551 C1560 0.929 . S
C1552 H1546 0.930 . S
C1552 C1553 1.367 . S
C1552 C1560 1.378 . S
C1553 C1552 1.367 . S
C1553 C1561 1.433 . S
C1554 H1550 0.929 . S
C1554 C1556 1.378 . S
C1554 C1558 1.350 . S
C1555 C1558 1.463 . S
C1555 C1560 1.350 . S
C1555 N1563 1.427 . S
C1556 H1547 0.930 . S
C1556 C1554 1.378 . S
C1556 C1557 1.367 . S
C1557 C1556 1.367 . S
C1557 C1559 1.433 . S
C1558 C1554 1.350 . S
C1558 C1555 1.463 . S
C1558 N1562 1.427 . S
C1559 H1549 0.929 . S
C1559 C1557 1.433 . S
C1559 N1562 1.384 . S
C1560 H1551 0.929 . S
C1560 C1552 1.378 . S
C1560 C1555 1.350 . S
C1561 H1548 0.929 . S
C1561 C1553 1.433 . S
C1561 N1563 1.384 . S
N1562 C1558 1.427 . S
N1562 C1559 1.384 . S
N1563 C1555 1.427 . S
N1563 C1561 1.384 . S
H1564 C1570 0.930 . S
H1565 C1574 0.930 . S
H1566 C1579 0.929 . S
H1567 C1577 0.929 . S
H1568 C1572 0.929 . S
H1569 C1578 0.929 . S
C1570 H1564 0.930 . S
C1570 C1571 1.367 . S
C1570 C1578 1.378 . S
C1571 C1570 1.367 . S
C1571 C1579 1.433 . S
C1572 H1568 0.929 . S
C1572 C1574 1.378 . S
C1572 C1576 1.350 . S
C1573 C1576 1.463 . S
C1573 C1578 1.350 . S
C1573 N1581 1.427 . S
C1574 H1565 0.930 . S
C1574 C1572 1.378 . S
C1574 C1575 1.367 . S
C1575 C1574 1.367 . S
C1575 C1577 1.433 . S
C1576 C1572 1.350 . S
C1576 C1573 1.463 . S
C1576 N1580 1.427 . S
C1577 H1567 0.929 . S
C1577 C1575 1.433 . S
C1577 N1580 1.384 . S
C1578 H1569 0.929 . S
C1578 C1570 1.378 . S
C1578 C1573 1.350 . S
C1579 H1566 0.929 . S
C1579 C1571 1.433 . S
C1579 N1581 1.384 . S
N1580 C1576 1.427 . S
N1580 C1577 1.384 . S
N1581 C1573 1.427 . S
N1581 C1579 1.384 . S
H1582 C1588 0.930 . S
H1583 C1592 0.930 . S
H1584 C1597 0.929 . S
H1585 C1595 0.929 . S
H1586 C1590 0.929 . S
H1587 C1596 0.929 . S
C1588 H1582 0.930 . S
C1588 C1589 1.367 . S
C1588 C1596 1.378 . S
C1589 C1588 1.367 . S
C1589 C1597 1.433 . S
C1590 H1586 0.929 . S
C1590 C1592 1.378 . S
C1590 C1594 1.350 . S
C1591 C1594 1.463 . S
C1591 C1596 1.350 . S
C1591 N1599 1.427 . S
C1592 H1583 0.930 . S
C1592 C1590 1.378 . S
C1592 C1593 1.367 . S
C1593 C1592 1.367 . S
C1593 C1595 1.433 . S
C1594 C1590 1.350 . S
C1594 C1591 1.463 . S
C1594 N1598 1.427 . S
C1595 H1585 0.929 . S
C1595 C1593 1.433 . S
C1595 N1598 1.384 . S
C1596 H1587 0.929 . S
C1596 C1588 1.378 . S
C1596 C1591 1.350 . S
C1597 H1584 0.929 . S
C1597 C1589 1.433 . S
C1597 N1599 1.384 . S
N1598 C1594 1.427 . S
N1598 C1595 1.384 . S
N1599 C1591 1.427 . S
N1599 C1597 1.384 . S
C1035 C913 1.519 . S
C1031 C29 1.222 . S
C1053 C939 1.672 . S
C1049 C125 0.947 . S
C1071 C953 1.517 . S
C1067 C257 1.235 . S
C1089 C955 1.675 . S
C1085 C353 0.967 . S
C1103 C457 1.159 . S
C1107 C952 1.482 . S
C1125 C954 1.664 . S
C1121 C625 1.292 . S
C1143 C912 1.479 . S
C1139 C685 1.149 . S
C1161 C938 1.659 . S
C1157 C853 1.308 . S
C1179 C940 1.703 . S
C1175 C809 1.107 . S
C1197 C966 1.503 . S
C1193 C485 1.253 . S
C1215 C924 1.703 . S
C1211 C581 1.106 . S
C1233 C926 1.505 . S
C1229 C713 1.225 . S
C1251 C925 1.678 . S
C1247 C169 1.220 . S
C1269 C927 1.469 . S
C1265 C229 1.142 . S
C1287 C941 1.675 . S
C1283 C397 1.225 . S
C1305 C967 1.471 . S
C1301 C1 1.166 . S
C1323 C969 1.517 . S
C1319 C827 1.237 . S
C1337 C467 0.946 . S
C1341 C995 1.672 . S
C1355 C599 1.225 . S
C1359 C1008 1.520 . S
C1373 C695 0.962 . S
C1377 C1011 1.674 . S
C1391 C115 1.159 . S
C1395 C1009 1.479 . S
C1409 C283 1.309 . S
C1413 C1010 1.660 . S
C1427 C343 1.179 . S
C1431 C968 1.482 . S
C1449 C994 1.663 . S
C1445 C55 1.293 . S
C1467 C997 1.704 . S
C1463 C11 1.111 . S
C1481 C143 1.254 . S
C1485 C1022 1.504 . S
C1499 C239 1.103 . S
C1503 C980 1.695 . S
C1517 C371 1.256 . S
C1521 C982 1.506 . S
C1539 C981 1.677 . S
C1535 C511 1.220 . S
C1557 C983 1.469 . S
C1553 C571 1.164 . S
C1571 C739 1.228 . S
C1575 C996 1.680 . S
C1593 C1023 1.470 . S
C1589 C799 1.132 . S
