# Generated by pormake.
# Topology apo, (3,6)-cn, num edge types: 1
# Building blocks:
#     Node 0, Type 0, BuildingBlock: KAKCAD_clean_linker_0, # of connection points: 3
#     Node 1, Type 0, BuildingBlock: KAKCAD_clean_linker_0, # of connection points: 3
#     Node 2, Type 0, BuildingBlock: KAKCAD_clean_linker_0, # of connection points: 3
#     Node 3, Type 0, BuildingBlock: KAKCAD_clean_linker_0, # of connection points: 3
#     Node 4, Type 0, BuildingBlock: KAKCAD_clean_linker_0, # of connection points: 3
#     Node 5, Type 0, BuildingBlock: KAKCAD_clean_linker_0, # of connection points: 3
#     Node 6, Type 0, BuildingBlock: KAKCAD_clean_linker_0, # of connection points: 3
#     Node 7, Type 0, BuildingBlock: KAKCAD_clean_linker_0, # of connection points: 3
#     Node 8, Type 1, BuildingBlock: KUMBUR_clean_sbu_1, # of connection points: 6
#     Node 9, Type 1, BuildingBlock: KUMBUR_clean_sbu_1, # of connection points: 6
#     Node 10, Type 1, BuildingBlock: KUMBUR_clean_sbu_1, # of connection points: 6
#     Node 11, Type 1, BuildingBlock: KUMBUR_clean_sbu_1, # of connection points: 6
#     Edge 12, Type (0, 1), BuildingBlock: AJUNOK_clean_linker_0, # of connection points: 2
#     Edge 13, Type (0, 1), BuildingBlock: AJUNOK_clean_linker_0, # of connection points: 2
#     Edge 14, Type (0, 1), BuildingBlock: AJUNOK_clean_linker_0, # of connection points: 2
#     Edge 15, Type (0, 1), BuildingBlock: AJUNOK_clean_linker_0, # of connection points: 2
#     Edge 16, Type (0, 1), BuildingBlock: AJUNOK_clean_linker_0, # of connection points: 2
#     Edge 17, Type (0, 1), BuildingBlock: AJUNOK_clean_linker_0, # of connection points: 2
#     Edge 18, Type (0, 1), BuildingBlock: AJUNOK_clean_linker_0, # of connection points: 2
#     Edge 19, Type (0, 1), BuildingBlock: AJUNOK_clean_linker_0, # of connection points: 2
#     Edge 20, Type (0, 1), BuildingBlock: AJUNOK_clean_linker_0, # of connection points: 2
#     Edge 21, Type (0, 1), BuildingBlock: AJUNOK_clean_linker_0, # of connection points: 2
#     Edge 22, Type (0, 1), BuildingBlock: AJUNOK_clean_linker_0, # of connection points: 2
#     Edge 23, Type (0, 1), BuildingBlock: AJUNOK_clean_linker_0, # of connection points: 2
#     Edge 24, Type (0, 1), BuildingBlock: AJUNOK_clean_linker_0, # of connection points: 2
#     Edge 25, Type (0, 1), BuildingBlock: AJUNOK_clean_linker_0, # of connection points: 2
#     Edge 26, Type (0, 1), BuildingBlock: AJUNOK_clean_linker_0, # of connection points: 2
#     Edge 27, Type (0, 1), BuildingBlock: AJUNOK_clean_linker_0, # of connection points: 2
#     Edge 28, Type (0, 1), BuildingBlock: AJUNOK_clean_linker_0, # of connection points: 2
#     Edge 29, Type (0, 1), BuildingBlock: AJUNOK_clean_linker_0, # of connection points: 2
#     Edge 30, Type (0, 1), BuildingBlock: AJUNOK_clean_linker_0, # of connection points: 2
#     Edge 31, Type (0, 1), BuildingBlock: AJUNOK_clean_linker_0, # of connection points: 2
#     Edge 32, Type (0, 1), BuildingBlock: AJUNOK_clean_linker_0, # of connection points: 2
#     Edge 33, Type (0, 1), BuildingBlock: AJUNOK_clean_linker_0, # of connection points: 2
#     Edge 34, Type (0, 1), BuildingBlock: AJUNOK_clean_linker_0, # of connection points: 2
#     Edge 35, Type (0, 1), BuildingBlock: AJUNOK_clean_linker_0, # of connection points: 2
# Relax obj value: 0.008
# Max RMSD: 0.112
# Mean RMSD: 0.085
data_MOF--net-apo--node1-KUMBUR_clean_sbu_1--node2-KAKCAD_clean_linker_0--edge1-AJUNOK_clean_linker_0
_symmetry_space_group_name_H-M    P1
_symmetry_Int_Tables_number       1
_symmetry_cell_setting            triclinic
loop_
_symmetry_equiv_pos_as_xyz
'x, y, z'
_cell_length_a     23.300329
_cell_length_b     40.73064
_cell_length_c     51.404875
_cell_angle_alpha  89.875676
_cell_angle_beta   90.283576
_cell_angle_gamma 90.376165
loop_
_atom_site_label
_atom_site_type_symbol
_atom_site_fract_x
_atom_site_fract_y
_atom_site_fract_z
_atom_type_partial_charge
C0 C 0.30888 0.48128 0.34507 0.0
C1 C 0.36249 0.49475 0.35208 0.0
C2 C 0.28475 0.45545 0.35951 0.0
C3 C 0.31384 0.44239 0.38124 0.0
C4 C 0.36724 0.45622 0.38827 0.0
C5 C 0.39076 0.48227 0.37414 0.0
C6 C 0.28981 0.41413 0.3964 0.0
C7 C 0.25941 0.38857 0.38402 0.0
C8 C 0.24118 0.36072 0.39804 0.0
C9 C 0.25436 0.35821 0.42472 0.0
C10 C 0.28403 0.38371 0.43758 0.0
C11 C 0.29996 0.41181 0.42332 0.0
C12 C 0.30033 0.38114 0.46564 0.0
C13 C 0.2629 0.3673 0.48414 0.0
C14 C 0.35369 0.39347 0.47422 0.0
C15 C 0.36834 0.39323 0.50056 0.0
C16 C 0.3305 0.38023 0.51917 0.0
C17 C 0.20991 0.33389 0.38438 0.0
C18 C 0.16173 0.34096 0.36888 0.0
C19 C 0.22923 0.30134 0.38587 0.0
C20 C 0.20169 0.27648 0.37163 0.0
C21 C 0.15344 0.28351 0.35603 0.0
C22 C 0.13359 0.31605 0.35503 0.0
C23 C 0.27793 0.36674 0.51062 0.0
H24 H 0.28587 0.49045 0.32823 0.0
H25 H 0.24322 0.44585 0.35367 0.0
H26 H 0.39167 0.44667 0.40454 0.0
H27 H 0.43126 0.49267 0.38059 0.0
H28 H 0.25172 0.3896 0.36323 0.0
H29 H 0.32061 0.4321 0.43331 0.0
H30 H 0.24185 0.33632 0.43535 0.0
H31 H 0.22148 0.35756 0.47828 0.0
H32 H 0.38434 0.40357 0.46055 0.0
H33 H 0.40911 0.4039 0.50639 0.0
H34 H 0.14578 0.36584 0.36752 0.0
H35 H 0.26678 0.29532 0.39739 0.0
H36 H 0.24832 0.35582 0.52436 0.0
H37 H 0.09629 0.32233 0.34344 0.0
H38 H 0.21926 0.25195 0.37231 0.0
C39 C 0.17079 0.0125 0.87866 0.0
C40 C 0.14023 0.018 0.85546 0.0
C41 C 0.18896 0.03895 0.89402 0.0
C42 C 0.1775 0.07138 0.88627 0.0
C43 C 0.14687 0.07682 0.86305 0.0
C44 C 0.128 0.05036 0.8479 0.0
C45 C 0.1985 0.09954 0.90203 0.0
C46 C 0.22864 0.12533 0.89008 0.0
C47 C 0.25014 0.15184 0.90472 0.0
C48 C 0.24006 0.15265 0.9317 0.0
C49 C 0.20949 0.12707 0.94402 0.0
C50 C 0.18925 0.10052 0.92898 0.0
C51 C 0.19985 0.1273 0.97265 0.0
C52 C 0.24468 0.13535 0.98996 0.0
C53 C 0.1464 0.1178 0.98293 0.0
C54 C 0.13868 0.11506 1.00982 0.0
C55 C 0.18435 0.12149 0.02707 0.0
C56 C 0.28343 0.17833 0.89155 0.0
C57 C 0.32494 0.17038 0.87285 0.0
C58 C 0.27255 0.2116 0.89668 0.0
C59 C 0.30148 0.23633 0.88289 0.0
C60 C 0.34232 0.22826 0.86394 0.0
C61 C 0.35395 0.19503 0.85919 0.0
C62 C 0.237 0.13246 0.01689 0.0
H63 H 0.18013 0.98771 0.88502 0.0
H64 H 0.21279 0.0341 0.91175 0.0
H65 H 0.13713 0.10156 0.85672 0.0
H66 H 0.10435 0.05517 0.83012 0.0
H67 H 0.23576 0.1246 0.86927 0.0
H68 H 0.16643 0.08043 0.93827 0.0
H69 H 0.25633 0.17305 0.94311 0.0
H70 H 0.28645 0.14257 0.98269 0.0
H71 H 0.11064 0.1121 0.97014 0.0
H72 H 0.09718 0.10736 0.01711 0.0
H73 H 0.33472 0.14499 0.86861 0.0
H74 H 0.24051 0.21851 0.91081 0.0
H75 H 0.27302 0.13752 0.0297 0.0
H76 H 0.38446 0.18804 0.8444 0.0
H77 H 0.29166 0.26177 0.88691 0.0
C78 C 0.82721 0.04558 0.68742 0.0
C79 C 0.88217 0.03274 0.68364 0.0
C80 C 0.80703 0.07092 0.67155 0.0
C81 C 0.84173 0.08438 0.65178 0.0
C82 C 0.89667 0.07117 0.6479 0.0
C83 C 0.9165 0.04546 0.66358 0.0
C84 C 0.8213 0.11286 0.63604 0.0
C85 C 0.7885 0.13735 0.64793 0.0
C86 C 0.7685 0.1644 0.63377 0.0
C87 C 0.7828 0.16752 0.60741 0.0
C88 C 0.81542 0.14328 0.59487 0.0
C89 C 0.8344 0.11596 0.6094 0.0
C90 C 0.829 0.14651 0.56661 0.0
C91 C 0.78835 0.15953 0.54913 0.0
C92 C 0.88293 0.13729 0.55691 0.0
C93 C 0.89595 0.14128 0.53051 0.0
C94 C 0.8554 0.15458 0.51316 0.0
C95 C 0.73216 0.18906 0.64682 0.0
C96 C 0.68595 0.17871 0.66231 0.0
C97 C 0.74457 0.22276 0.64482 0.0
C98 C 0.7123 0.24561 0.65872 0.0
C99 C 0.66662 0.23515 0.67456 0.0
C100 C 0.65348 0.20149 0.67599 0.0
C101 C 0.80154 0.16376 0.52284 0.0
H102 H 0.7995 0.03563 0.7024 0.0
H103 H 0.76395 0.07983 0.67474 0.0
H104 H 0.92487 0.0811 0.63312 0.0
H105 H 0.95903 0.03577 0.66026 0.0
H106 H 0.7793 0.13584 0.66854 0.0
H107 H 0.85815 0.09672 0.59983 0.0
H108 H 0.7681 0.18882 0.59668 0.0
H109 H 0.7461 0.16651 0.55573 0.0
H110 H 0.91559 0.12756 0.56979 0.0
H111 H 0.93786 0.13401 0.52366 0.0
H112 H 0.67507 0.15288 0.66395 0.0
H113 H 0.78036 0.23133 0.63321 0.0
H114 H 0.76976 0.17481 0.51018 0.0
H115 H 0.6182 0.19275 0.68784 0.0
H116 H 0.72418 0.27132 0.65766 0.0
C117 C 0.69366 0.47821 0.18113 0.0
C118 C 0.6366 0.48892 0.17944 0.0
C119 C 0.71261 0.45231 0.16571 0.0
C120 C 0.67504 0.43669 0.14809 0.0
C121 C 0.61851 0.44812 0.14573 0.0
C122 C 0.59945 0.47397 0.16128 0.0
C123 C 0.69406 0.40736 0.13345 0.0
C124 C 0.72451 0.38267 0.14649 0.0
C125 C 0.74227 0.3544 0.13343 0.0
C126 C 0.72929 0.35079 0.10689 0.0
C127 C 0.69993 0.37563 0.09316 0.0
C128 C 0.68186 0.40371 0.10678 0.0
C129 C 0.69028 0.37269 0.06451 0.0
C130 C 0.73286 0.35908 0.0486 0.0
C131 C 0.63917 0.38373 0.05273 0.0
C132 C 0.63088 0.381 0.02577 0.0
C133 C 0.67336 0.36702 1.01001 0.0
C134 C 0.77479 0.32896 0.14782 0.0
C135 C 0.82233 0.338 0.16318 0.0
C136 C 0.75734 0.29591 0.14724 0.0
C137 C 0.78588 0.27251 0.16242 0.0
C138 C 0.83268 0.28169 0.17828 0.0
C139 C 0.85129 0.31458 0.17805 0.0
C140 C 0.72442 0.35618 0.0218 0.0
H141 H 0.72374 0.48991 0.19436 0.0
H142 H 0.75672 0.44439 0.16762 0.0
H143 H 0.58852 0.4364 0.13246 0.0
H144 H 0.55524 0.48177 0.15954 0.0
H145 H 0.73333 0.38507 0.16714 0.0
H146 H 0.65999 0.42328 0.09652 0.0
H147 H 0.74282 0.32877 0.09692 0.0
H148 H 0.77323 0.35091 0.05679 0.0
H149 H 0.60528 0.39419 0.06435 0.0
H150 H 0.59142 0.39007 0.01727 0.0
H151 H 0.83717 0.36326 0.16364 0.0
H152 H 0.72063 0.28837 0.13565 0.0
H153 H 0.75791 0.34511 1.01027 0.0
H154 H 0.8884 0.32226 0.1893 0.0
H155 H 0.77061 0.24734 0.16216 0.0
C156 C 0.63333 0.55112 0.69075 0.0
C157 C 0.63176 0.51933 0.68015 0.0
C158 C 0.6541 0.5777 0.67622 0.0
C159 C 0.67469 0.5732 0.65076 0.0
C160 C 0.67272 0.54136 0.64013 0.0
C161 C 0.65095 0.5149 0.65451 0.0
C162 C 0.69887 0.60144 0.63557 0.0
C163 C 0.72967 0.62662 0.6482 0.0
C164 C 0.75352 0.65299 0.63419 0.0
C165 C 0.74742 0.65384 0.60695 0.0
C166 C 0.71684 0.6289 0.59378 0.0
C167 C 0.69218 0.60313 0.60836 0.0
C168 C 0.71137 0.62904 0.56481 0.0
C169 C 0.69989 0.65813 0.55092 0.0
C170 C 0.71714 0.59963 0.55079 0.0
C171 C 0.71127 0.59921 0.52373 0.0
C172 C 0.69957 0.62816 0.50981 0.0
C173 C 0.7851 0.67931 0.64841 0.0
C174 C 0.76054 0.69391 0.67044 0.0
C175 C 0.84058 0.68907 0.64085 0.0
C176 C 0.87128 0.71246 0.65539 0.0
C177 C 0.84665 0.72683 0.67748 0.0
C178 C 0.7908 0.7176 0.68469 0.0
C179 C 0.6939 0.65768 0.52372 0.0
H180 H 0.61877 0.55547 0.71041 0.0
H181 H 0.65359 0.60183 0.68499 0.0
H182 H 0.68863 0.53666 0.62076 0.0
H183 H 0.64875 0.49099 0.64539 0.0
H184 H 0.73668 0.62541 0.66903 0.0
H185 H 0.66693 0.58454 0.59843 0.0
H186 H 0.76667 0.67383 0.59604 0.0
H187 H 0.69449 0.68114 0.56111 0.0
H188 H 0.72696 0.57687 0.56074 0.0
H189 H 0.71673 0.57614 0.51362 0.0
H190 H 0.71775 0.68698 0.67663 0.0
H191 H 0.86066 0.67808 0.62405 0.0
H192 H 0.68403 0.68033 0.51363 0.0
H193 H 0.77089 0.72839 0.70163 0.0
H194 H 0.91412 0.71946 0.64932 0.0
C195 C 0.74322 0.86916 0.01797 0.0
C196 C 0.79394 0.87656 1.00436 0.0
C197 C 0.74192 0.87035 0.04515 0.0
C198 C 0.79106 0.87945 0.05944 0.0
C199 C 0.84149 0.88756 0.04586 0.0
C200 C 0.84294 0.88606 0.01864 0.0
C201 C 0.78971 0.88017 0.08841 0.0
C202 C 0.76366 0.85434 0.10235 0.0
C203 C 0.76277 0.85453 0.12966 0.0
C204 C 0.7874 0.88111 0.14307 0.0
C205 C 0.81211 0.90771 0.12959 0.0
C206 C 0.81382 0.90677 0.10221 0.0
C207 C 0.83446 0.93671 0.14425 0.0
C208 C 0.80477 0.94846 0.16609 0.0
C209 C 0.88556 0.9527 0.13681 0.0
C210 C 0.90667 0.97952 0.15105 0.0
C211 C 0.87714 0.99089 0.17301 0.0
C212 C 0.73503 0.82739 0.14437 0.0
C213 C 0.67843 0.81768 0.13856 0.0
C214 C 0.76414 0.81198 0.16503 0.0
C215 C 0.73708 0.78742 0.17966 0.0
C216 C 0.68013 0.77824 0.17417 0.0
C217 C 0.65101 0.79354 0.15351 0.0
C218 C 0.82601 0.97509 0.18035 0.0
H219 H 0.70418 0.86278 1.00758 0.0
H220 H 0.7021 0.86457 0.05499 0.0
H221 H 0.88018 0.89446 0.05633 0.0
H222 H 0.8827 0.89189 1.00877 0.0
H223 H 0.74519 0.83363 0.09198 0.0
H224 H 0.83209 0.92728 0.09156 0.0
H225 H 0.78655 0.8812 0.16415 0.0
H226 H 0.7647 0.93724 0.1721 0.0
H227 H 0.90988 0.94408 0.12031 0.0
H228 H 0.94668 0.99096 0.1452 0.0
H229 H 0.65492 0.82937 0.12289 0.0
H230 H 0.80784 0.81898 0.16985 0.0
H231 H 0.80214 0.98354 0.19706 0.0
H232 H 0.60704 0.7868 0.14898 0.0
H233 H 0.76016 0.77604 0.19562 0.0
C234 C 0.12336 0.95046 0.33895 0.0
C235 C 0.1335 0.98214 0.34877 0.0
C236 C 0.13772 0.9228 0.35363 0.0
C237 C 0.16186 0.92618 0.3786 0.0
C238 C 0.17112 0.95781 0.38866 0.0
C239 C 0.15723 0.98553 0.37385 0.0
C240 C 0.17821 0.89661 0.39373 0.0
C241 C 0.20874 0.87142 0.38156 0.0
C242 C 0.22325 0.84263 0.39508 0.0
C243 C 0.20697 0.83937 0.42123 0.0
C244 C 0.17666 0.86442 0.43387 0.0
C245 C 0.16279 0.89314 0.41999 0.0
C246 C 0.15899 0.86018 0.46144 0.0
C247 C 0.13755 0.82976 0.47019 0.0
C248 C 0.16445 0.88611 0.47933 0.0
C249 C 0.14965 0.88153 0.50546 0.0
C250 C 0.12895 0.85096 0.51417 0.0
C251 C 0.25581 0.81627 0.38181 0.0
C252 C 0.24452 0.80874 0.35556 0.0
C253 C 0.29959 0.79916 0.39494 0.0
C254 C 0.33214 0.77568 0.38193 0.0
C255 C 0.32183 0.76913 0.35554 0.0
C256 C 0.27752 0.7856 0.34252 0.0
C257 C 0.12289 0.8252 0.49625 0.0
H258 H 0.10342 0.947 0.32008 0.0
H259 H 0.12925 0.89869 0.34556 0.0
H260 H 0.19004 0.96109 0.40778 0.0
H261 H 0.16549 0.00965 0.38194 0.0
H262 H 0.22226 0.87464 0.36157 0.0
H263 H 0.13836 0.91231 0.42933 0.0
H264 H 0.21785 0.8172 0.43179 0.0
H265 H 0.13185 0.80945 0.45684 0.0
H266 H 0.18148 0.90971 0.47327 0.0
H267 H 0.15563 0.90166 0.51896 0.0
H268 H 0.21036 0.82088 0.345 0.0
H269 H 0.30997 0.80461 0.41503 0.0
H270 H 0.10654 0.80147 0.5024 0.0
H271 H 0.2687 0.78068 0.32217 0.0
H272 H 0.36662 0.76344 0.39223 0.0
C273 C 0.31045 0.65886 1.00899 0.0
C274 C 0.35764 0.64234 0.01976 0.0
C275 C 0.30094 0.65871 0.98212 0.0
C276 C 0.33877 0.64227 0.96542 0.0
C277 C 0.38745 0.627 0.97622 0.0
C278 C 0.39665 0.62694 1.00311 0.0
C279 C 0.32574 0.63949 0.93709 0.0
C280 C 0.30159 0.66591 0.92328 0.0
C281 C 0.28566 0.66265 0.89693 0.0
C282 C 0.29606 0.63263 0.88431 0.0
C283 C 0.3215 0.60621 0.89756 0.0
C284 C 0.33542 0.60978 0.92402 0.0
C285 C 0.33414 0.575 0.88372 0.0
C286 C 0.29614 0.56242 0.86477 0.0
C287 C 0.38537 0.55801 0.88886 0.0
C288 C 0.3986 0.52946 0.87521 0.0
C289 C 0.36111 0.51737 0.856 0.0
C290 C 0.25657 0.69004 0.88275 0.0
C291 C 0.21839 0.71097 0.89575 0.0
C292 C 0.26486 0.69475 0.85587 0.0
C293 C 0.23377 0.71848 0.84221 0.0
C294 C 0.19437 0.73864 0.8551 0.0
C295 C 0.18842 0.73526 0.88218 0.0
C296 C 0.30974 0.53403 0.85091 0.0
H297 H 0.27956 0.67074 0.02147 0.0
H298 H 0.26269 0.6704 0.97457 0.0
H299 H 0.41813 0.61471 0.96391 0.0
H300 H 0.43383 0.61444 1.01096 0.0
H301 H 0.29571 0.68914 0.93307 0.0
H302 H 0.35238 0.58898 0.93466 0.0
H303 H 0.28416 0.62968 0.86408 0.0
H304 H 0.25585 0.57448 0.8606 0.0
H305 H 0.41614 0.56725 0.90296 0.0
H306 H 0.439 0.51735 0.87913 0.0
H307 H 0.21034 0.70819 0.91636 0.0
H308 H 0.29505 0.67993 0.84519 0.0
H309 H 0.28015 0.52507 0.83619 0.0
H310 H 0.16019 0.75119 0.89296 0.0
H311 H 0.23978 0.72053 0.82139 0.0
Tb312 Tb 0.07009 0.1431 0.2398 0.0
C313 C 0.81864 0.11736 0.26643 0.0
N314 N 0.84956 0.1451 0.27123 0.0
C315 C 0.77284 0.17763 0.25367 0.0
C316 C 0.76467 0.11852 0.25396 0.0
C317 C 0.82558 0.17513 0.26663 0.0
C318 C 0.74274 0.14915 0.24682 0.0
C319 C 0.80638 0.05897 0.2739 0.0
C320 C 0.83898 0.08806 0.27616 0.0
C321 C 0.7541 0.05955 0.26018 0.0
C322 C 0.73332 0.08929 0.25017 0.0
Tb323 Tb 0.93758 0.13751 0.2906 0.0
N324 N 0.88988 0.08849 0.28905 0.0
C325 C 0.82648 0.03056 0.28626 0.0
C326 C 0.90792 0.06153 0.3026 0.0
C327 C 0.87693 0.03202 0.3011 0.0
H328 H 0.8465 0.19732 0.27322 0.0
H329 H 0.89205 0.01044 0.31129 0.0
H330 H 0.1741 0.11161 0.27544 0.0
H331 H 0.05293 0.26027 0.19026 0.0
H332 H 0.94686 0.06273 0.31404 0.0
H333 H 0.80261 0.0077 0.28507 0.0
H334 H 0.0297 0.20208 0.19797 0.0
H335 H 0.75496 0.20152 0.24944 0.0
H336 H 0.72863 0.03738 0.2579 0.0
H337 H 0.69204 0.08961 0.24038 0.0
H338 H 0.262 0.13144 0.29784 0.0
H339 H 0.70145 0.15115 0.23717 0.0
H340 H 0.13274 0.28678 0.21444 0.0
N341 N 0.15301 0.15861 0.26021 0.0
C342 C 0.17001 0.19023 0.25675 0.0
C343 C 0.23622 0.14829 0.28652 0.0
C344 C 0.21955 0.20268 0.26914 0.0
C345 C 0.18648 0.13714 0.27388 0.0
C346 C 0.25242 0.18132 0.28444 0.0
N347 N 0.09081 0.19643 0.22862 0.0
C348 C 0.06247 0.21367 0.20973 0.0
C349 C 0.15371 0.24282 0.23615 0.0
C350 C 0.13732 0.20993 0.24065 0.0
C351 C 0.1217 0.26139 0.21841 0.0
C352 C 0.07648 0.24655 0.20482 0.0
H353 H 0.29087 0.18991 0.29429 0.0
H354 H 0.27253 0.24599 0.27511 0.0
H355 H 0.21492 0.28117 0.24613 0.0
O356 O 0.11035 0.14613 0.20289 0.0
O357 O 0.0775 0.16126 0.28002 0.0
O358 O 0.98956 0.18243 0.2902 0.0
O359 O 0.1098 0.10069 0.22532 0.0
O360 O 0.98688 0.16376 0.22783 0.0
O361 O 0.94386 0.18161 0.26572 0.0
O362 O 0.95499 0.1303 0.33034 0.0
O363 O 0.95214 0.09742 0.26256 0.0
O364 O 0.9867 0.12447 0.22692 0.0
O365 O 0.87698 0.15325 0.31817 0.0
O366 O 0.01941 0.1153 0.30195 0.0
O367 O 0.06699 0.09909 0.26457 0.0
C368 C 0.04581 0.18391 0.29078 0.0
C369 C 0.15807 0.09882 0.18353 0.0
C370 C 0.18277 0.09124 0.13779 0.0
C371 C 0.21627 0.06403 0.14481 0.0
C372 C 0.19146 0.07139 0.19002 0.0
C373 C 0.22071 0.05431 0.17077 0.0
C374 C 0.15445 0.10901 0.15734 0.0
C375 C 0.9528 0.1839 0.24045 0.0
C376 C 0.12526 0.1155 0.20404 0.0
C377 C 0.23489 0.23579 0.26557 0.0
C378 C 0.20202 0.25584 0.24909 0.0
C379 C 0.96024 0.09924 0.23731 0.0
C380 C 0.91663 0.16936 0.35861 0.0
C381 C 0.91216 0.1833 0.40479 0.0
C382 C 0.93443 0.21464 0.3989 0.0
C383 C 0.93827 0.20081 0.35312 0.0
C384 C 0.90417 0.16062 0.38442 0.0
C385 C 0.94745 0.22323 0.37324 0.0
C386 C 0.05343 0.09516 0.28931 0.0
C387 C 0.90871 0.1449 0.3379 0.0
H388 H 0.239 0.05025 0.13013 0.0
H389 H 0.19491 0.06312 0.21001 0.0
H390 H 0.2465 0.03325 0.17595 0.0
H391 H 0.12812 0.12985 0.15205 0.0
H392 H 0.94107 0.23266 0.4141 0.0
H393 H 0.94833 0.20795 0.33337 0.0
H394 H 0.88892 0.13598 0.38862 0.0
H395 H 0.96452 0.24741 0.36893 0.0
Tb396 Tb 0.42143 0.36748 0.74298 0.0
C397 C 0.6733 0.40175 0.77252 0.0
N398 N 0.64842 0.37153 0.77116 0.0
C399 C 0.72964 0.35113 0.74787 0.0
C400 C 0.72699 0.40806 0.76099 0.0
C401 C 0.67601 0.34616 0.75937 0.0
C402 C 0.75521 0.38223 0.74861 0.0
C403 C 0.66762 0.45841 0.78644 0.0
C404 C 0.64365 0.42659 0.78489 0.0
C405 C 0.72069 0.46504 0.77459 0.0
C406 C 0.75033 0.43991 0.76192 0.0
Tb407 Tb 0.56084 0.36613 0.79047 0.0
N408 N 0.59191 0.41934 0.79581 0.0
C409 C 0.63818 0.4824 0.80036 0.0
C410 C 0.56618 0.44187 0.81149 0.0
C411 C 0.58784 0.47389 0.81339 0.0
H412 H 0.65725 0.32191 0.75932 0.0
H413 H 0.56635 0.49176 0.8254 0.0
H414 H 0.3323 0.42673 0.76 0.0
H415 H 0.3987 0.23529 0.73948 0.0
H416 H 0.53038 0.43523 0.82349 0.0
H417 H 0.65513 0.50715 0.80204 0.0
H418 H 0.45027 0.2878 0.73494 0.0
H419 H 0.75128 0.33094 0.7385 0.0
H420 H 0.73953 0.4894 0.77541 0.0
H421 H 0.79135 0.44534 0.75299 0.0
H422 H 0.23196 0.43086 0.77489 0.0
H423 H 0.79659 0.38607 0.73953 0.0
H424 H 0.29708 0.23457 0.7532 0.0
N425 N 0.32982 0.37471 0.75683 0.0
C426 C 0.29762 0.3469 0.7589 0.0
C427 C 0.25 0.40709 0.77055 0.0
C428 C 0.24008 0.3481 0.76711 0.0
C429 C 0.30699 0.40465 0.76239 0.0
C430 C 0.21637 0.3787 0.77292 0.0
N431 N 0.37985 0.3168 0.74717 0.0
C432 C 0.40656 0.288 0.74144 0.0
C433 C 0.29188 0.28747 0.75631 0.0
C434 C 0.32323 0.31697 0.75362 0.0
C435 C 0.31964 0.2578 0.75134 0.0
C436 C 0.37711 0.2581 0.74373 0.0
H437 H 0.17228 0.38068 0.7793 0.0
H438 H 0.16411 0.31918 0.77582 0.0
H439 H 0.20943 0.26613 0.76635 0.0
O440 O 0.41874 0.3518 0.70412 0.0
O441 O 0.41108 0.3439 0.78136 0.0
O442 O 0.50109 0.32466 0.78963 0.0
O443 O 0.37003 0.39358 0.7162 0.0
O444 O 0.50038 0.34472 0.72885 0.0
O445 O 0.54709 0.32394 0.76493 0.0
O446 O 0.56794 0.3674 0.83196 0.0
O447 O 0.56867 0.38953 0.75194 0.0
O448 O 0.47893 0.41033 0.74288 0.0
O449 O 0.62245 0.33645 0.80826 0.0
O450 O 0.48153 0.38948 0.80439 0.0
O451 O 0.43493 0.41022 0.76791 0.0
C452 C 0.44639 0.32576 0.79519 0.0
C453 C 0.40609 0.3934 0.67324 0.0
C454 C 0.40635 0.39982 0.62603 0.0
C455 C 0.45136 0.42278 0.62834 0.0
C456 C 0.45039 0.41673 0.67513 0.0
C457 C 0.47295 0.43131 0.6528 0.0
C458 C 0.38374 0.38516 0.64862 0.0
C459 C 0.53887 0.32545 0.73961 0.0
C460 C 0.38605 0.37581 0.69657 0.0
C461 C 0.20843 0.31877 0.76956 0.0
C462 C 0.23425 0.28855 0.76417 0.0
C463 C 0.53513 0.41106 0.74057 0.0
C464 C 0.63891 0.33256 0.85459 0.0
C465 C 0.66326 0.33364 0.90085 0.0
C466 C 0.69925 0.30656 0.89725 0.0
C467 C 0.67496 0.30527 0.85157 0.0
C468 C 0.63257 0.34654 0.8795 0.0
C469 C 0.70475 0.29238 0.87278 0.0
C470 C 0.44477 0.40975 0.7932 0.0
C471 C 0.6091 0.34595 0.83146 0.0
H472 H 0.4694 0.43434 0.6112 0.0
H473 H 0.46783 0.4234 0.69383 0.0
H474 H 0.50746 0.44913 0.65446 0.0
H475 H 0.34985 0.3669 0.64699 0.0
H476 H 0.72301 0.2963 0.91348 0.0
H477 H 0.68029 0.2938 0.83275 0.0
H478 H 0.60498 0.36757 0.8822 0.0
H479 H 0.73242 0.2714 0.8702 0.0
Tb480 Tb 0.06791 0.873 0.73721 0.0
C481 C 0.81426 0.85374 0.76766 0.0
N482 N 0.84808 0.88067 0.77157 0.0
C483 C 0.77153 0.91555 0.75714 0.0
C484 C 0.75826 0.8567 0.75742 0.0
C485 C 0.82676 0.91142 0.76733 0.0
C486 C 0.73729 0.88808 0.75194 0.0
C487 C 0.80267 0.79449 0.76949 0.0
C488 C 0.83578 0.82303 0.77407 0.0
C489 C 0.74706 0.79735 0.75911 0.0
C490 C 0.72484 0.82837 0.75319 0.0
Tb491 Tb 0.93633 0.87034 0.7892 0.0
N492 N 0.89032 0.82107 0.78351 0.0
C493 C 0.82694 0.76389 0.7749 0.0
C494 C 0.91441 0.79122 0.78842 0.0
C495 C 0.88315 0.76227 0.78428 0.0
H496 H 0.85129 0.93299 0.7724 0.0
H497 H 0.90279 0.73869 0.78794 0.0
H498 H 0.14994 0.80694 0.73632 0.0
H499 H 0.12448 1.00093 0.72414 0.0
H500 H 0.95842 0.78943 0.79432 0.0
H501 H 0.80305 0.74139 0.77146 0.0
H502 H 0.06024 0.95235 0.72204 0.0
H503 H 0.75513 0.93998 0.75364 0.0
H504 H 0.72101 0.7757 0.75546 0.0
H505 H 0.68179 0.83018 0.74528 0.0
H506 H 0.25277 0.79429 0.7436 0.0
H507 H 0.69444 0.8914 0.74414 0.0
H508 H 0.22536 0.99452 0.73855 0.0
N509 N 0.16115 0.85815 0.74264 0.0
C510 C 0.19889 0.88333 0.74608 0.0
C511 C 0.23807 0.81941 0.74458 0.0
C512 C 0.2578 0.87739 0.75001 0.0
C513 C 0.18002 0.82658 0.74058 0.0
C514 C 0.27694 0.84487 0.74985 0.0
N515 N 0.1228 0.91964 0.73722 0.0
C516 C 0.10384 0.94958 0.72878 0.0
C517 C 0.21772 0.94192 0.74398 0.0
C518 C 0.17914 0.91517 0.74308 0.0
C519 C 0.19711 0.97329 0.73802 0.0
C520 C 0.14019 0.97702 0.72985 0.0
H521 H 0.32192 0.83926 0.75276 0.0
H522 H 0.34126 0.90005 0.75601 0.0
H523 H 0.30614 0.95657 0.75075 0.0
O524 O 0.02695 0.87423 0.70061 0.0
O525 O 0.06732 0.9115 0.76686 0.0
O526 O 0.01887 0.89023 0.80253 0.0
O527 O 0.117 0.86492 0.70357 0.0
O528 O 0.98577 0.89756 0.73097 0.0
O529 O 0.94986 0.9174 0.76922 0.0
O530 O 0.913 0.85247 0.82608 0.0
O531 O 0.93209 0.84933 0.74971 0.0
O532 O 0.02045 0.8272 0.74195 0.0
O533 O 0.89634 0.90262 0.81545 0.0
O534 O 0.01084 0.84132 0.80114 0.0
O535 O 0.07899 0.8352 0.76782 0.0
C536 C 0.05596 0.91051 0.79183 0.0
C537 C 0.0683 0.84118 0.66824 0.0
C538 C 0.07436 0.82451 0.62278 0.0
C539 C 0.05954 0.79227 0.63018 0.0
C540 C 0.0549 0.80884 0.6753 0.0
C541 C 0.0499 0.78455 0.6563 0.0
C542 C 0.07848 0.84892 0.64206 0.0
C543 C 0.96241 0.92123 0.74444 0.0
C544 C 0.07337 0.867 0.68799 0.0
C545 C 0.29591 0.90409 0.75264 0.0
C546 C 0.27591 0.93629 0.74962 0.0
C547 C 0.96436 0.82609 0.73983 0.0
C548 C 0.83797 0.87865 0.84843 0.0
C549 C 0.79093 0.87509 0.89076 0.0
C550 C 0.73754 0.87287 0.87804 0.0
C551 C 0.78427 0.87661 0.83611 0.0
C552 C 0.84105 0.87819 0.87578 0.0
C553 C 0.73434 0.87376 0.85089 0.0
C554 C 0.05877 0.82916 0.79153 0.0
C555 C 0.89168 0.8803 0.8335 0.0
H556 H 0.0556 0.77303 0.61576 0.0
H557 H 0.04904 0.80246 0.69548 0.0
H558 H 0.03904 0.75963 0.66185 0.0
H559 H 0.09094 0.87375 0.63684 0.0
H560 H 0.69828 0.87075 0.88914 0.0
H561 H 0.78077 0.87717 0.81518 0.0
H562 H 0.88251 0.87966 0.88541 0.0
H563 H 0.69299 0.87217 0.84127 0.0
Tb564 Tb 0.44679 0.64816 0.2426 0.0
C565 C 0.69243 0.68125 0.27242 0.0
N566 N 0.67015 0.65037 0.27236 0.0
C567 C 0.75381 0.63022 0.2509 0.0
C568 C 0.74564 0.68811 0.26065 0.0
C569 C 0.70017 0.62476 0.26228 0.0
C570 C 0.77655 0.66206 0.24996 0.0
C571 C 0.68172 0.73862 0.28351 0.0
C572 C 0.66068 0.70608 0.28374 0.0
C573 C 0.734 0.74582 0.27114 0.0
C574 C 0.766 0.72061 0.25984 0.0
Tb575 Tb 0.58437 0.64364 0.29247 0.0
N576 N 0.61 0.69817 0.29544 0.0
C577 C 0.65024 0.76283 0.29621 0.0
C578 C 0.58217 0.72128 0.30984 0.0
C579 C 0.60085 0.75399 0.30983 0.0
H580 H 0.68273 0.60015 0.26303 0.0
H581 H 0.57778 0.77224 0.32084 0.0
H582 H 0.3746 0.7148 0.25906 0.0
H583 H 0.36924 0.52587 0.2221 0.0
H584 H 0.54682 0.71484 0.32223 0.0
H585 H 0.66486 0.78814 0.29646 0.0
H586 H 0.43738 0.57279 0.21969 0.0
H587 H 0.77745 0.60993 0.24276 0.0
H588 H 0.75055 0.77074 0.2706 0.0
H589 H 0.80652 0.72648 0.25062 0.0
H590 H 0.28305 0.72771 0.28081 0.0
H591 H 0.81779 0.66628 0.24085 0.0
H592 H 0.27849 0.53144 0.24654 0.0
N593 N 0.36119 0.66317 0.2605 0.0
C594 C 0.32273 0.63864 0.26474 0.0
C595 C 0.29394 0.70247 0.2767 0.0
C596 C 0.26899 0.64481 0.27611 0.0
C597 C 0.34616 0.69505 0.2648 0.0
C598 C 0.25556 0.67714 0.28283 0.0
N599 N 0.38669 0.60361 0.24359 0.0
C600 C 0.39798 0.57516 0.23052 0.0
C601 C 0.29526 0.58197 0.25734 0.0
C602 C 0.33556 0.60777 0.2556 0.0
C603 C 0.30833 0.55191 0.24567 0.0
C604 C 0.35953 0.54868 0.23183 0.0
H605 H 0.21479 0.68296 0.29169 0.0
H606 H 0.1883 0.62295 0.28823 0.0
H607 H 0.21132 0.56784 0.27172 0.0
O608 O 0.46284 0.64324 0.20237 0.0
O609 O 0.45046 0.60629 0.26964 0.0
O610 O 0.50506 0.62032 0.30618 0.0
O611 O 0.3944 0.67333 0.21596 0.0
O612 O 0.51977 0.61775 0.23106 0.0
O613 O 0.57079 0.60005 0.26789 0.0
O614 O 0.62273 0.65193 0.3294 0.0
O615 O 0.59264 0.65959 0.25162 0.0
O616 O 0.50968 0.68775 0.24613 0.0
O617 O 0.62983 0.60466 0.3099 0.0
O618 O 0.50513 0.66474 0.30776 0.0
O619 O 0.46759 0.68697 0.27053 0.0
C620 C 0.46494 0.60296 0.29427 0.0
C621 C 0.37828 0.64483 0.17685 0.0
C622 C 0.35208 0.63164 0.13205 0.0
C623 C 0.30295 0.61512 0.14109 0.0
C624 C 0.32826 0.62871 0.18538 0.0
C625 C 0.29113 0.61377 0.16761 0.0
C626 C 0.38975 0.64655 0.15004 0.0
C627 C 0.55345 0.59671 0.24341 0.0
C628 C 0.41798 0.66018 0.19575 0.0
C629 C 0.22966 0.61881 0.27932 0.0
C630 C 0.24273 0.58743 0.26988 0.0
C631 C 0.56366 0.68323 0.24036 0.0
C632 C 0.6774 0.60944 0.35207 0.0
C633 C 0.70289 0.60784 0.39827 0.0
C634 C 0.74395 0.58377 0.39291 0.0
C635 C 0.71851 0.58519 0.34725 0.0
C636 C 0.66988 0.62096 0.37773 0.0
C637 C 0.75179 0.57263 0.36754 0.0
C638 C 0.46655 0.6828 0.29582 0.0
C639 C 0.64277 0.62226 0.3302 0.0
H640 H 0.27306 0.60382 0.12753 0.0
H641 H 0.31736 0.62794 0.20574 0.0
H642 H 0.25276 0.60139 0.17441 0.0
H643 H 0.42777 0.65934 0.14321 0.0
H644 H 0.76969 0.57341 0.40847 0.0
H645 H 0.72521 0.5761 0.32771 0.0
H646 H 0.63788 0.63943 0.38179 0.0
H647 H 0.78355 0.55403 0.36362 0.0
C648 C 0.08571 0.03677 0.34519 0.0
C649 C 0.11699 0.01156 0.33336 0.0
C650 C 0.06666 0.0639 0.3309 0.0
C651 C 0.07776 0.06697 0.30405 0.0
H652 H 0.07455 0.03518 0.36559 0.0
H653 H 0.04213 0.08232 0.34105 0.0
S654 S 0.16247 0.00876 0.26429 0.0
N655 N 0.16203 0.99234 0.29368 0.0
N656 N 0.12507 0.04289 0.26654 0.0
C657 C 0.11049 0.04229 0.2921 0.0
C658 C 0.13021 0.01469 0.30678 0.0
C659 C 0.38009 0.49113 0.81309 0.0
C660 C 0.37735 0.48848 0.84031 0.0
C661 C 0.40039 0.46518 0.79793 0.0
C662 C 0.41819 0.43551 0.80943 0.0
H663 H 0.36843 0.51387 0.80352 0.0
H664 H 0.40395 0.46889 0.77713 0.0
S665 S 0.41332 0.41517 0.87983 0.0
N666 N 0.39017 0.45336 0.87809 0.0
N667 N 0.42726 0.4042 0.84963 0.0
C668 C 0.41319 0.4321 0.83659 0.0
C669 C 0.39311 0.45869 0.85203 0.0
C670 C 0.55819 0.49508 0.71026 0.0
C671 C 0.60875 0.49122 0.69569 0.0
C672 C 0.53504 0.46909 0.72482 0.0
C673 C 0.56145 0.43816 0.72544 0.0
H674 H 0.53571 0.51827 0.71012 0.0
H675 H 0.49603 0.47328 0.73568 0.0
S676 S 0.69377 0.4147 0.69051 0.0
N677 N 0.68487 0.45383 0.68319 0.0
N678 N 0.63976 0.40469 0.70968 0.0
C679 C 0.61182 0.43381 0.71098 0.0
C680 C 0.63573 0.46035 0.69627 0.0
C681 C 0.90587 0.0153 0.21581 0.0
C682 C 0.89981 0.01873 0.18871 0.0
C683 C 0.92616 0.04128 0.23121 0.0
C684 C 0.94015 0.07199 0.22029 0.0
H685 H 0.89545 0.99217 0.22517 0.0
H686 H 0.93153 0.03703 0.25182 0.0
S687 S 0.93125 0.09368 0.15013 0.0
N688 N 0.90953 0.05505 0.15144 0.0
N689 N 0.94671 0.10415 0.18038 0.0
C690 C 0.93462 0.07567 0.19311 0.0
C691 C 0.91458 0.04902 0.17736 0.0
C692 C 0.91951 0.97584 0.68778 0.0
C693 C 0.90271 0.00506 0.69984 0.0
C694 C 0.93811 0.94898 0.70247 0.0
C695 C 0.94124 0.9503 0.72987 0.0
H696 H 0.91752 0.97358 0.6668 0.0
H697 H 0.94994 0.92695 0.6921 0.0
S698 S 0.90568 0.02238 0.77061 0.0
N699 N 0.89191 0.03451 0.74054 0.0
N700 N 0.92847 0.98419 0.76831 0.0
C701 C 0.92535 0.97968 0.74216 0.0
C702 C 0.90568 0.00699 0.72712 0.0
C703 C 0.585 0.54199 0.18542 0.0
C704 C 0.61591 0.51586 0.19636 0.0
C705 C 0.56527 0.56782 0.20081 0.0
C706 C 0.57544 0.56868 0.22789 0.0
H707 H 0.57656 0.54271 0.16468 0.0
H708 H 0.54205 0.58737 0.19119 0.0
S709 S 0.65216 0.505 0.26622 0.0
N710 N 0.65412 0.49152 0.23598 0.0
N711 N 0.6176 0.54021 0.265 0.0
C712 C 0.60606 0.54246 0.23912 0.0
C713 C 0.62615 0.51608 0.22336 0.0
C714 C 0.35587 0.54896 0.32865 0.0
C715 C 0.38898 0.52185 0.33662 0.0
C716 C 0.38068 0.57533 0.31498 0.0
C717 C 0.4393 0.57544 0.3088 0.0
H718 H 0.31074 0.55016 0.33348 0.0
H719 H 0.35413 0.59603 0.30974 0.0
S720 S 0.54418 0.51008 0.32356 0.0
N721 N 0.48322 0.49632 0.33583 0.0
N722 N 0.52957 0.54636 0.31088 0.0
C723 C 0.47277 0.54862 0.31639 0.0
C724 C 0.44766 0.52166 0.33007 0.0
C725 C 0.06121 0.98684 0.83334 0.0
C726 C 0.11995 0.99007 0.83933 0.0
C727 C 0.0408 0.96059 0.81824 0.0
C728 C 0.07861 0.93713 0.80822 0.0
H729 H 0.03078 1.00457 0.84061 0.0
H730 H 0.99524 0.95885 0.81409 0.0
S731 S 0.23589 0.93434 0.81819 0.0
N732 N 0.21551 0.96743 0.83414 0.0
N733 N 0.17687 0.91827 0.80545 0.0
C734 C 0.13727 0.94004 0.81393 0.0
C735 C 0.15803 0.96648 0.82962 0.0
C736 C 0.19698 0.13801 0.07398 0.0
C737 C 0.17852 0.11473 0.05544 0.0
C738 C 0.19578 0.13092 0.10077 0.0
C739 C 0.17691 0.10014 0.10988 0.0
H740 H 0.21312 0.16172 0.0677 0.0
H741 H 0.21166 0.14916 0.11437 0.0
S742 S 0.12224 0.03115 0.06968 0.0
N743 N 0.13933 0.05994 0.04837 0.0
N744 N 0.13697 0.04684 0.09856 0.0
C745 C 0.15693 0.07704 0.09166 0.0
C746 C 0.15773 0.08428 0.06449 0.0
C747 C 0.40299 0.37435 0.55515 0.0
C748 C 0.3464 0.38163 0.54732 0.0
C749 C 0.42147 0.37931 0.58084 0.0
C750 C 0.38392 0.39127 0.59984 0.0
H751 H 0.43373 0.36539 0.54116 0.0
H752 H 0.4658 0.37428 0.5858 0.0
S753 S 0.23145 0.41352 0.59002 0.0
N754 N 0.25285 0.40124 0.56107 0.0
N755 N 0.28749 0.40953 0.60954 0.0
C756 C 0.32677 0.39744 0.59269 0.0
C757 C 0.308 0.39281 0.56641 0.0
C758 C 0.71096 0.37106 0.9645 0.0
C759 C 0.66535 0.36324 0.98137 0.0
C760 C 0.70828 0.36338 0.93797 0.0
C761 C 0.65961 0.34801 0.92718 0.0
H762 H 0.74995 0.3822 0.97205 0.0
H763 H 0.74551 0.36825 0.92597 0.0
S764 S 0.52741 0.32382 0.96215 0.0
N765 N 0.56897 0.34023 0.98486 0.0
N766 N 0.56388 0.3265 0.93474 0.0
C767 C 0.61251 0.34162 0.94334 0.0
C768 C 0.61532 0.34915 0.97049 0.0
C769 C 0.9224 0.17514 0.47853 0.0
C770 C 0.86996 0.16007 0.48526 0.0
C771 C 0.93586 0.18224 0.45253 0.0
C772 C 0.89753 0.17449 0.43215 0.0
H773 H 0.95286 0.18216 0.49354 0.0
H774 H 0.97669 0.19393 0.44836 0.0
S775 S 0.75532 0.13387 0.43924 0.0
N776 N 0.78052 0.13636 0.46925 0.0
N777 N 0.80487 0.15071 0.42054 0.0
C778 C 0.84527 0.159 0.43857 0.0
C779 C 0.83168 0.15163 0.46504 0.0
C780 C 0.82051 0.90054 0.9608 0.0
C781 C 0.79536 0.87488 0.97535 0.0
C782 C 0.82004 0.90014 0.93346 0.0
C783 C 0.79405 0.8742 0.91964 0.0
H784 H 0.83955 0.92149 0.9706 0.0
H785 H 0.83887 0.92067 0.92304 0.0
S786 S 0.72844 0.79931 0.94818 0.0
N787 N 0.74853 0.82135 0.97361 0.0
N788 N 0.74655 0.82111 0.92234 0.0
C789 C 0.77029 0.848 0.93385 0.0
C790 C 0.77119 0.84822 0.96165 0.0
C791 C 0.66139 0.6017 0.46911 0.0
C792 C 0.69405 0.62694 0.48086 0.0
C793 C 0.66152 0.59705 0.44206 0.0
C794 C 0.69392 0.61757 0.42569 0.0
H795 H 0.63689 0.58474 0.481 0.0
H796 H 0.63799 0.5764 0.43397 0.0
S797 S 0.78463 0.688 0.4461 0.0
N798 N 0.75811 0.67345 0.47359 0.0
N799 N 0.75767 0.66469 0.42272 0.0
C800 C 0.72468 0.64372 0.43689 0.0
C801 C 0.72474 0.64849 0.46448 0.0
C802 C 0.36248 0.66758 0.06418 0.0
C803 C 0.36357 0.6394 0.0484 0.0
C804 C 0.36216 0.66498 0.09142 0.0
C805 C 0.36195 0.63411 0.1037 0.0
H806 H 0.36066 0.69175 0.05537 0.0
H807 H 0.35945 0.68718 0.10291 0.0
S808 S 0.36681 0.55301 0.07129 0.0
N809 N 0.36652 0.57977 0.04711 0.0
N810 N 0.36544 0.57497 0.09825 0.0
C811 C 0.3648 0.60585 0.08819 0.0
C812 C 0.36578 0.60847 0.06054 0.0
C813 C 0.13748 0.81784 0.555 0.0
C814 C 0.11505 0.84537 0.54199 0.0
C815 C 0.12416 0.81142 0.58107 0.0
C816 C 0.0877 0.83219 0.59516 0.0
H817 H 0.16597 0.80124 0.54499 0.0
H818 H 0.14304 0.79013 0.59033 0.0
S819 S 0.01536 0.90659 0.5696 0.0
N820 N 0.05336 0.89308 0.54484 0.0
N821 N 0.02779 0.88087 0.59383 0.0
C822 C 0.06481 0.85978 0.58235 0.0
C823 C 0.0786 0.8664 0.55579 0.0
C824 C 0.10886 0.26443 0.31401 0.0
C825 C 0.12525 0.25749 0.3399 0.0
C826 C 0.08254 0.24053 0.29829 0.0
C827 C 0.07313 0.20861 0.30761 0.0
H828 H 0.11682 0.28847 0.30568 0.0
H829 H 0.06978 0.24702 0.27866 0.0
S830 S 0.10246 0.17805 0.37414 0.0
N831 N 0.12509 0.21658 0.37457 0.0
N832 N 0.07858 0.17134 0.34431 0.0
C833 C 0.08842 0.20121 0.33333 0.0
C834 C 0.11399 0.22569 0.34962 0.0
C835 C 0.33723 0.2783 0.83563 0.0
C836 C 0.3706 0.25427 0.84811 0.0
C837 C 0.36229 0.30166 0.81907 0.0
C838 C 0.42174 0.30183 0.8141 0.0
H839 H 0.2911 0.27858 0.83818 0.0
H840 H 0.33446 0.3195 0.80994 0.0
S841 S 0.5289 0.24635 0.84463 0.0
N842 N 0.46665 0.23376 0.85634 0.0
N843 N 0.51393 0.27727 0.82499 0.0
C844 C 0.45591 0.27864 0.82731 0.0
C845 C 0.4303 0.25492 0.84427 0.0
C846 C 0.62411 0.25194 0.71703 0.0
C847 C 0.63404 0.25885 0.69058 0.0
C848 C 0.59328 0.27357 0.73271 0.0
C849 C 0.57112 0.30297 0.72256 0.0
H850 H 0.64076 0.22971 0.72578 0.0
H851 H 0.58666 0.26711 0.75294 0.0
S852 S 0.5851 0.33265 0.65452 0.0
N853 N 0.61869 0.29707 0.65484 0.0
N854 N 0.56169 0.33813 0.68444 0.0
C855 C 0.58076 0.31027 0.69615 0.0
C856 C 0.61217 0.28819 0.68016 0.0
C857 C 0.87721 0.22631 0.18431 0.0
C858 C 0.86236 0.25696 0.1948 0.0
C859 C 0.9063 0.20284 0.19926 0.0
C860 C 0.9216 0.20908 0.2253 0.0
H861 H 0.86703 0.22055 0.16424 0.0
H862 H 0.91681 0.17959 0.19032 0.0
S863 S 0.89192 0.28513 0.26225 0.0
N864 N 0.86365 0.29181 0.23322 0.0
N865 N 0.92023 0.24813 0.26095 0.0
C866 C 0.90694 0.23952 0.2361 0.0
C867 C 0.87696 0.26336 0.22094 0.0
C868 C 0.8543 0.78286 0.69699 0.0
C869 C 0.87849 0.7518 0.69295 0.0
C870 C 0.8828 0.80673 0.71191 0.0
C871 C 0.93628 0.80033 0.72371 0.0
H872 H 0.81312 0.78884 0.68838 0.0
H873 H 0.86261 0.83042 0.71417 0.0
S874 S 0.01541 0.72171 0.72088 0.0
N875 N 0.95781 0.71532 0.70267 0.0
N876 N 0.01048 0.75977 0.73162 0.0
C877 C 0.96036 0.76907 0.72027 0.0
C878 C 0.93173 0.74493 0.70465 0.0
C879 C 0.6012 0.76194 0.20441 0.0
C880 C 0.65058 0.75338 0.19045 0.0
C881 C 0.57311 0.73899 0.22035 0.0
C882 C 0.59323 0.70661 0.22276 0.0
H883 H 0.58471 0.78672 0.20329 0.0
H884 H 0.53587 0.74685 0.23116 0.0
S885 S 0.71697 0.67112 0.18771 0.0
N886 N 0.71647 0.71006 0.1787 0.0
N887 N 0.66274 0.66653 0.208 0.0
C888 C 0.64168 0.69755 0.20829 0.0
C889 C 0.67061 0.72104 0.19231 0.0
C890 C 0.38935 0.75839 0.31926 0.0
C891 C 0.35933 0.74664 0.34106 0.0
C892 C 0.42492 0.73769 0.30495 0.0
C893 C 0.43097 0.70448 0.3118 0.0
H894 H 0.38549 0.78382 0.31332 0.0
H895 H 0.44756 0.74766 0.28832 0.0
S896 S 0.36021 0.66152 0.36664 0.0
N897 N 0.33741 0.69977 0.36869 0.0
N898 N 0.40391 0.66061 0.34145 0.0
C899 C 0.40157 0.69246 0.33362 0.0
C900 C 0.36562 0.7136 0.34831 0.0
C901 C 0.18439 0.78164 0.82028 0.0
C902 C 0.15912 0.76263 0.84008 0.0
C903 C 0.15175 0.80332 0.80514 0.0
C904 C 0.09235 0.80683 0.80883 0.0
H905 H 0.23001 0.78003 0.81658 0.0
H906 H 0.17378 0.8181 0.79092 0.0
S907 S 0.00618 0.76495 0.86001 0.0
N908 N 0.07117 0.74965 0.86336 0.0
N909 N 0.01088 0.79186 0.8361 0.0
C910 C 0.06708 0.78923 0.82956 0.0
C911 C 0.1001 0.76669 0.84475 0.0
loop_
_geom_bond_atom_site_label_1
_geom_bond_atom_site_label_2
_geom_bond_distance
_geom_bond_site_symmetry_2
_ccdc_geom_bond_type
C0 C1 1.386 . S
C0 C2 1.397 . S
C0 H24 0.931 . S
C1 C0 1.386 . S
C1 C5 1.397 . S
C2 C0 1.397 . S
C2 C3 1.384 . S
C2 H25 0.930 . S
C3 C2 1.384 . S
C3 C4 1.377 . S
C3 C6 1.481 . S
C4 C3 1.377 . S
C4 C5 1.389 . S
C4 H26 0.929 . S
C5 C1 1.397 . S
C5 C4 1.389 . S
C5 H27 0.931 . S
C6 C3 1.481 . S
C6 C7 1.387 . S
C6 C11 1.390 . S
C7 C6 1.387 . S
C7 C8 1.401 . S
C7 H28 0.930 . S
C8 C7 1.401 . S
C8 C9 1.376 . S
C8 C17 1.511 . S
C9 C8 1.376 . S
C9 C10 1.392 . S
C9 H30 0.931 . S
C10 C9 1.392 . S
C10 C11 1.361 . S
C10 C12 1.500 . S
C11 C6 1.390 . S
C11 C10 1.361 . S
C11 H29 0.931 . S
C12 C10 1.500 . S
C12 C13 1.371 . S
C12 C14 1.365 . S
C13 C12 1.371 . S
C13 C23 1.386 . S
C13 H31 0.931 . S
C14 C12 1.365 . S
C14 C15 1.409 . S
C14 H32 0.929 . S
C15 C14 1.409 . S
C15 C16 1.380 . S
C15 H33 0.930 . S
C16 C15 1.380 . S
C16 C23 1.357 . S
C17 C8 1.511 . S
C17 C18 1.341 . S
C17 C19 1.371 . S
C18 C17 1.341 . S
C18 C22 1.394 . S
C18 H34 0.930 . S
C19 C17 1.371 . S
C19 C20 1.392 . S
C19 H35 0.931 . S
C20 C19 1.392 . S
C20 C21 1.331 . S
C20 H38 0.932 . S
C21 C20 1.331 . S
C21 C22 1.336 . S
C22 C18 1.394 . S
C22 C21 1.336 . S
C22 H37 0.929 . S
C23 C13 1.386 . S
C23 C16 1.357 . S
C23 H36 0.928 . S
H24 C0 0.931 . S
H25 C2 0.930 . S
H26 C4 0.929 . S
H27 C5 0.931 . S
H28 C7 0.930 . S
H29 C11 0.931 . S
H30 C9 0.931 . S
H31 C13 0.931 . S
H32 C14 0.929 . S
H33 C15 0.930 . S
H34 C18 0.930 . S
H35 C19 0.931 . S
H36 C23 0.928 . S
H37 C22 0.929 . S
H38 C20 0.932 . S
C39 C40 1.386 . S
C39 C41 1.397 . S
C39 H63 0.931 . S
C40 C39 1.386 . S
C40 C44 1.397 . S
C41 C39 1.397 . S
C41 C42 1.384 . S
C41 H64 0.930 . S
C42 C41 1.384 . S
C42 C43 1.377 . S
C42 C45 1.481 . S
C43 C42 1.377 . S
C43 C44 1.389 . S
C43 H65 0.929 . S
C44 C40 1.397 . S
C44 C43 1.389 . S
C44 H66 0.931 . S
C45 C42 1.481 . S
C45 C46 1.387 . S
C45 C50 1.390 . S
C46 C45 1.387 . S
C46 C47 1.401 . S
C46 H67 0.930 . S
C47 C46 1.401 . S
C47 C48 1.376 . S
C47 C56 1.511 . S
C48 C47 1.376 . S
C48 C49 1.392 . S
C48 H69 0.931 . S
C49 C48 1.392 . S
C49 C50 1.361 . S
C49 C51 1.500 . S
C50 C45 1.390 . S
C50 C49 1.361 . S
C50 H68 0.931 . S
C51 C49 1.500 . S
C51 C52 1.371 . S
C51 C53 1.365 . S
C52 C51 1.371 . S
C52 C62 1.386 . S
C52 H70 0.931 . S
C53 C51 1.365 . S
C53 C54 1.409 . S
C53 H71 0.929 . S
C54 C53 1.409 . S
C54 C55 1.380 1_556 S
C54 H72 0.930 . S
C55 C54 1.380 1_554 S
C55 C62 1.357 1_554 S
C56 C47 1.511 . S
C56 C57 1.341 . S
C56 C58 1.371 . S
C57 C56 1.341 . S
C57 C61 1.394 . S
C57 H73 0.930 . S
C58 C56 1.371 . S
C58 C59 1.392 . S
C58 H74 0.931 . S
C59 C58 1.392 . S
C59 C60 1.331 . S
C59 H77 0.932 . S
C60 C59 1.331 . S
C60 C61 1.336 . S
C61 C57 1.394 . S
C61 C60 1.336 . S
C61 H76 0.929 . S
C62 C52 1.386 . S
C62 C55 1.357 1_556 S
C62 H75 0.928 1_556 S
H63 C39 0.931 . S
H64 C41 0.930 . S
H65 C43 0.929 . S
H66 C44 0.931 . S
H67 C46 0.930 . S
H68 C50 0.931 . S
H69 C48 0.931 . S
H70 C52 0.931 . S
H71 C53 0.929 . S
H72 C54 0.930 . S
H73 C57 0.930 . S
H74 C58 0.931 . S
H75 C62 0.928 1_554 S
H76 C61 0.929 . S
H77 C59 0.932 . S
C78 C79 1.386 . S
C78 C80 1.397 . S
C78 H102 0.931 . S
C79 C78 1.386 . S
C79 C83 1.397 . S
C80 C78 1.397 . S
C80 C81 1.384 . S
C80 H103 0.930 . S
C81 C80 1.384 . S
C81 C82 1.377 . S
C81 C84 1.481 . S
C82 C81 1.377 . S
C82 C83 1.389 . S
C82 H104 0.929 . S
C83 C79 1.397 . S
C83 C82 1.389 . S
C83 H105 0.931 . S
C84 C81 1.481 . S
C84 C85 1.387 . S
C84 C89 1.390 . S
C85 C84 1.387 . S
C85 C86 1.401 . S
C85 H106 0.930 . S
C86 C85 1.401 . S
C86 C87 1.376 . S
C86 C95 1.511 . S
C87 C86 1.376 . S
C87 C88 1.392 . S
C87 H108 0.931 . S
C88 C87 1.392 . S
C88 C89 1.361 . S
C88 C90 1.500 . S
C89 C84 1.390 . S
C89 C88 1.361 . S
C89 H107 0.931 . S
C90 C88 1.500 . S
C90 C91 1.371 . S
C90 C92 1.365 . S
C91 C90 1.371 . S
C91 C101 1.386 . S
C91 H109 0.931 . S
C92 C90 1.365 . S
C92 C93 1.409 . S
C92 H110 0.929 . S
C93 C92 1.409 . S
C93 C94 1.380 . S
C93 H111 0.930 . S
C94 C93 1.380 . S
C94 C101 1.357 . S
C95 C86 1.511 . S
C95 C96 1.341 . S
C95 C97 1.371 . S
C96 C95 1.341 . S
C96 C100 1.394 . S
C96 H112 0.930 . S
C97 C95 1.371 . S
C97 C98 1.392 . S
C97 H113 0.931 . S
C98 C97 1.392 . S
C98 C99 1.331 . S
C98 H116 0.932 . S
C99 C98 1.331 . S
C99 C100 1.336 . S
C100 C96 1.394 . S
C100 C99 1.336 . S
C100 H115 0.929 . S
C101 C91 1.386 . S
C101 C94 1.357 . S
C101 H114 0.928 . S
H102 C78 0.931 . S
H103 C80 0.930 . S
H104 C82 0.929 . S
H105 C83 0.931 . S
H106 C85 0.930 . S
H107 C89 0.931 . S
H108 C87 0.931 . S
H109 C91 0.931 . S
H110 C92 0.929 . S
H111 C93 0.930 . S
H112 C96 0.930 . S
H113 C97 0.931 . S
H114 C101 0.928 . S
H115 C100 0.929 . S
H116 C98 0.932 . S
C117 C118 1.386 . S
C117 C119 1.397 . S
C117 H141 0.931 . S
C118 C117 1.386 . S
C118 C122 1.397 . S
C119 C117 1.397 . S
C119 C120 1.384 . S
C119 H142 0.930 . S
C120 C119 1.384 . S
C120 C121 1.377 . S
C120 C123 1.481 . S
C121 C120 1.377 . S
C121 C122 1.389 . S
C121 H143 0.929 . S
C122 C118 1.397 . S
C122 C121 1.389 . S
C122 H144 0.931 . S
C123 C120 1.481 . S
C123 C124 1.387 . S
C123 C128 1.390 . S
C124 C123 1.387 . S
C124 C125 1.401 . S
C124 H145 0.930 . S
C125 C124 1.401 . S
C125 C126 1.376 . S
C125 C134 1.511 . S
C126 C125 1.376 . S
C126 C127 1.392 . S
C126 H147 0.931 . S
C127 C126 1.392 . S
C127 C128 1.361 . S
C127 C129 1.500 . S
C128 C123 1.390 . S
C128 C127 1.361 . S
C128 H146 0.931 . S
C129 C127 1.500 . S
C129 C130 1.371 . S
C129 C131 1.365 . S
C130 C129 1.371 . S
C130 C140 1.386 . S
C130 H148 0.931 . S
C131 C129 1.365 . S
C131 C132 1.409 . S
C131 H149 0.929 . S
C132 C131 1.409 . S
C132 C133 1.380 1_554 S
C132 H150 0.930 . S
C133 C132 1.380 1_556 S
C133 C140 1.357 1_556 S
C134 C125 1.511 . S
C134 C135 1.341 . S
C134 C136 1.371 . S
C135 C134 1.341 . S
C135 C139 1.394 . S
C135 H151 0.930 . S
C136 C134 1.371 . S
C136 C137 1.392 . S
C136 H152 0.931 . S
C137 C136 1.392 . S
C137 C138 1.331 . S
C137 H155 0.932 . S
C138 C137 1.331 . S
C138 C139 1.336 . S
C139 C135 1.394 . S
C139 C138 1.336 . S
C139 H154 0.929 . S
C140 C130 1.386 . S
C140 C133 1.357 1_554 S
C140 H153 0.928 1_554 S
H141 C117 0.931 . S
H142 C119 0.930 . S
H143 C121 0.929 . S
H144 C122 0.931 . S
H145 C124 0.930 . S
H146 C128 0.931 . S
H147 C126 0.931 . S
H148 C130 0.931 . S
H149 C131 0.929 . S
H150 C132 0.930 . S
H151 C135 0.930 . S
H152 C136 0.931 . S
H153 C140 0.928 1_556 S
H154 C139 0.929 . S
H155 C137 0.932 . S
C156 C157 1.386 . S
C156 C158 1.397 . S
C156 H180 0.931 . S
C157 C156 1.386 . S
C157 C161 1.397 . S
C158 C156 1.397 . S
C158 C159 1.384 . S
C158 H181 0.930 . S
C159 C158 1.384 . S
C159 C160 1.377 . S
C159 C162 1.481 . S
C160 C159 1.377 . S
C160 C161 1.389 . S
C160 H182 0.929 . S
C161 C157 1.397 . S
C161 C160 1.389 . S
C161 H183 0.931 . S
C162 C159 1.481 . S
C162 C163 1.387 . S
C162 C167 1.390 . S
C163 C162 1.387 . S
C163 C164 1.401 . S
C163 H184 0.930 . S
C164 C163 1.401 . S
C164 C165 1.376 . S
C164 C173 1.511 . S
C165 C164 1.376 . S
C165 C166 1.392 . S
C165 H186 0.931 . S
C166 C165 1.392 . S
C166 C167 1.361 . S
C166 C168 1.500 . S
C167 C162 1.390 . S
C167 C166 1.361 . S
C167 H185 0.931 . S
C168 C166 1.500 . S
C168 C169 1.371 . S
C168 C170 1.365 . S
C169 C168 1.371 . S
C169 C179 1.386 . S
C169 H187 0.931 . S
C170 C168 1.365 . S
C170 C171 1.409 . S
C170 H188 0.929 . S
C171 C170 1.409 . S
C171 C172 1.380 . S
C171 H189 0.930 . S
C172 C171 1.380 . S
C172 C179 1.357 . S
C173 C164 1.511 . S
C173 C174 1.341 . S
C173 C175 1.371 . S
C174 C173 1.341 . S
C174 C178 1.394 . S
C174 H190 0.930 . S
C175 C173 1.371 . S
C175 C176 1.392 . S
C175 H191 0.931 . S
C176 C175 1.392 . S
C176 C177 1.331 . S
C176 H194 0.932 . S
C177 C176 1.331 . S
C177 C178 1.336 . S
C178 C174 1.394 . S
C178 C177 1.336 . S
C178 H193 0.929 . S
C179 C169 1.386 . S
C179 C172 1.357 . S
C179 H192 0.928 . S
H180 C156 0.931 . S
H181 C158 0.930 . S
H182 C160 0.929 . S
H183 C161 0.931 . S
H184 C163 0.930 . S
H185 C167 0.931 . S
H186 C165 0.931 . S
H187 C169 0.931 . S
H188 C170 0.929 . S
H189 C171 0.930 . S
H190 C174 0.930 . S
H191 C175 0.931 . S
H192 C179 0.928 . S
H193 C178 0.929 . S
H194 C176 0.932 . S
C195 C196 1.386 1_554 S
C195 C197 1.397 . S
C195 H219 0.931 1_554 S
C196 C195 1.386 1_556 S
C196 C200 1.397 1_556 S
C197 C195 1.397 . S
C197 C198 1.384 . S
C197 H220 0.930 . S
C198 C197 1.384 . S
C198 C199 1.377 . S
C198 C201 1.481 . S
C199 C198 1.377 . S
C199 C200 1.389 . S
C199 H221 0.929 . S
C200 C196 1.397 1_554 S
C200 C199 1.389 . S
C200 H222 0.931 . S
C201 C198 1.481 . S
C201 C202 1.387 . S
C201 C206 1.390 . S
C202 C201 1.387 . S
C202 C203 1.401 . S
C202 H223 0.930 . S
C203 C202 1.401 . S
C203 C204 1.376 . S
C203 C212 1.511 . S
C204 C203 1.376 . S
C204 C205 1.392 . S
C204 H225 0.931 . S
C205 C204 1.392 . S
C205 C206 1.361 . S
C205 C207 1.500 . S
C206 C201 1.390 . S
C206 C205 1.361 . S
C206 H224 0.931 . S
C207 C205 1.500 . S
C207 C208 1.371 . S
C207 C209 1.365 . S
C208 C207 1.371 . S
C208 C218 1.386 . S
C208 H226 0.931 . S
C209 C207 1.365 . S
C209 C210 1.409 . S
C209 H227 0.929 . S
C210 C209 1.409 . S
C210 C211 1.380 . S
C210 H228 0.930 . S
C211 C210 1.380 . S
C211 C218 1.357 . S
C212 C203 1.511 . S
C212 C213 1.341 . S
C212 C214 1.371 . S
C213 C212 1.341 . S
C213 C217 1.394 . S
C213 H229 0.930 . S
C214 C212 1.371 . S
C214 C215 1.392 . S
C214 H230 0.931 . S
C215 C214 1.392 . S
C215 C216 1.331 . S
C215 H233 0.932 . S
C216 C215 1.331 . S
C216 C217 1.336 . S
C217 C213 1.394 . S
C217 C216 1.336 . S
C217 H232 0.929 . S
C218 C208 1.386 . S
C218 C211 1.357 . S
C218 H231 0.928 . S
H219 C195 0.931 1_556 S
H220 C197 0.930 . S
H221 C199 0.929 . S
H222 C200 0.931 . S
H223 C202 0.930 . S
H224 C206 0.931 . S
H225 C204 0.931 . S
H226 C208 0.931 . S
H227 C209 0.929 . S
H228 C210 0.930 . S
H229 C213 0.930 . S
H230 C214 0.931 . S
H231 C218 0.928 . S
H232 C217 0.929 . S
H233 C215 0.932 . S
C234 C235 1.386 . S
C234 C236 1.397 . S
C234 H258 0.931 . S
C235 C234 1.386 . S
C235 C239 1.397 . S
C236 C234 1.397 . S
C236 C237 1.384 . S
C236 H259 0.930 . S
C237 C236 1.384 . S
C237 C238 1.377 . S
C237 C240 1.481 . S
C238 C237 1.377 . S
C238 C239 1.389 . S
C238 H260 0.929 . S
C239 C235 1.397 . S
C239 C238 1.389 . S
C239 H261 0.931 1_565 S
C240 C237 1.481 . S
C240 C241 1.387 . S
C240 C245 1.390 . S
C241 C240 1.387 . S
C241 C242 1.401 . S
C241 H262 0.930 . S
C242 C241 1.401 . S
C242 C243 1.376 . S
C242 C251 1.511 . S
C243 C242 1.376 . S
C243 C244 1.392 . S
C243 H264 0.931 . S
C244 C243 1.392 . S
C244 C245 1.361 . S
C244 C246 1.500 . S
C245 C240 1.390 . S
C245 C244 1.361 . S
C245 H263 0.931 . S
C246 C244 1.500 . S
C246 C247 1.371 . S
C246 C248 1.365 . S
C247 C246 1.371 . S
C247 C257 1.386 . S
C247 H265 0.931 . S
C248 C246 1.365 . S
C248 C249 1.409 . S
C248 H266 0.929 . S
C249 C248 1.409 . S
C249 C250 1.380 . S
C249 H267 0.930 . S
C250 C249 1.380 . S
C250 C257 1.357 . S
C251 C242 1.511 . S
C251 C252 1.341 . S
C251 C253 1.371 . S
C252 C251 1.341 . S
C252 C256 1.394 . S
C252 H268 0.930 . S
C253 C251 1.371 . S
C253 C254 1.392 . S
C253 H269 0.931 . S
C254 C253 1.392 . S
C254 C255 1.331 . S
C254 H272 0.932 . S
C255 C254 1.331 . S
C255 C256 1.336 . S
C256 C252 1.394 . S
C256 C255 1.336 . S
C256 H271 0.929 . S
C257 C247 1.386 . S
C257 C250 1.357 . S
C257 H270 0.928 . S
H258 C234 0.931 . S
H259 C236 0.930 . S
H260 C238 0.929 . S
H261 C239 0.931 1_545 S
H262 C241 0.930 . S
H263 C245 0.931 . S
H264 C243 0.931 . S
H265 C247 0.931 . S
H266 C248 0.929 . S
H267 C249 0.930 . S
H268 C252 0.930 . S
H269 C253 0.931 . S
H270 C257 0.928 . S
H271 C256 0.929 . S
H272 C254 0.932 . S
C273 C274 1.386 1_556 S
C273 C275 1.397 . S
C273 H297 0.931 1_556 S
C274 C273 1.386 1_554 S
C274 C278 1.397 1_554 S
C275 C273 1.397 . S
C275 C276 1.384 . S
C275 H298 0.930 . S
C276 C275 1.384 . S
C276 C277 1.377 . S
C276 C279 1.481 . S
C277 C276 1.377 . S
C277 C278 1.389 . S
C277 H299 0.929 . S
C278 C274 1.397 1_556 S
C278 C277 1.389 . S
C278 H300 0.931 . S
C279 C276 1.481 . S
C279 C280 1.387 . S
C279 C284 1.390 . S
C280 C279 1.387 . S
C280 C281 1.401 . S
C280 H301 0.930 . S
C281 C280 1.401 . S
C281 C282 1.376 . S
C281 C290 1.511 . S
C282 C281 1.376 . S
C282 C283 1.392 . S
C282 H303 0.931 . S
C283 C282 1.392 . S
C283 C284 1.361 . S
C283 C285 1.500 . S
C284 C279 1.390 . S
C284 C283 1.361 . S
C284 H302 0.931 . S
C285 C283 1.500 . S
C285 C286 1.371 . S
C285 C287 1.365 . S
C286 C285 1.371 . S
C286 C296 1.386 . S
C286 H304 0.931 . S
C287 C285 1.365 . S
C287 C288 1.409 . S
C287 H305 0.929 . S
C288 C287 1.409 . S
C288 C289 1.380 . S
C288 H306 0.930 . S
C289 C288 1.380 . S
C289 C296 1.357 . S
C290 C281 1.511 . S
C290 C291 1.341 . S
C290 C292 1.371 . S
C291 C290 1.341 . S
C291 C295 1.394 . S
C291 H307 0.930 . S
C292 C290 1.371 . S
C292 C293 1.392 . S
C292 H308 0.931 . S
C293 C292 1.392 . S
C293 C294 1.331 . S
C293 H311 0.932 . S
C294 C293 1.331 . S
C294 C295 1.336 . S
C295 C291 1.394 . S
C295 C294 1.336 . S
C295 H310 0.929 . S
C296 C286 1.386 . S
C296 C289 1.357 . S
C296 H309 0.928 . S
H297 C273 0.931 1_554 S
H298 C275 0.930 . S
H299 C277 0.929 . S
H300 C278 0.931 . S
H301 C280 0.930 . S
H302 C284 0.931 . S
H303 C282 0.931 . S
H304 C286 0.931 . S
H305 C287 0.929 . S
H306 C288 0.930 . S
H307 C291 0.930 . S
H308 C292 0.931 . S
H309 C296 0.928 . S
H310 C295 0.929 . S
H311 C293 0.932 . S
Tb312 N341 2.617 . S
Tb312 N347 2.572 . S
Tb312 O356 2.465 . S
Tb312 O357 2.387 . S
Tb312 O359 2.428 . S
Tb312 O360 2.308 . S
Tb312 O364 2.349 . S
Tb312 O367 2.393 . S
Tb312 C376 2.802 . S
C313 N314 1.379 . S
C313 C316 1.416 . S
C313 C320 1.424 . S
N314 C313 1.379 . S
N314 C317 1.334 . S
N314 Tb323 2.617 . S
C315 C317 1.390 . S
C315 C318 1.339 . S
C315 H335 0.930 . S
C316 C313 1.416 . S
C316 C318 1.416 . S
C316 C322 1.448 . S
C317 N314 1.334 . S
C317 C315 1.390 . S
C317 H328 0.930 . S
C318 C315 1.339 . S
C318 C316 1.416 . S
C318 H339 0.930 . S
C319 C320 1.413 . S
C319 C321 1.427 . S
C319 C325 1.416 . S
C320 C313 1.424 . S
C320 C319 1.413 . S
C320 N324 1.361 . S
C321 C319 1.427 . S
C321 C322 1.328 . S
C321 H336 0.929 . S
C322 C316 1.448 . S
C322 C321 1.328 . S
C322 H337 0.930 . S
Tb323 N314 2.617 . S
Tb323 N324 2.572 . S
Tb323 O358 2.349 1_655 S
Tb323 O361 2.393 . S
Tb323 O362 2.465 . S
Tb323 O363 2.387 . S
Tb323 O365 2.428 . S
Tb323 O366 2.308 1_655 S
Tb323 C387 2.802 . S
N324 C320 1.361 . S
N324 Tb323 2.572 . S
N324 C326 1.340 . S
C325 C319 1.416 . S
C325 C327 1.332 . S
C325 H333 0.931 . S
C326 N324 1.340 . S
C326 C327 1.407 . S
C326 H332 0.930 . S
C327 C325 1.332 . S
C327 C326 1.407 . S
C327 H329 0.929 . S
H328 C317 0.930 . S
H329 C327 0.929 . S
H330 C345 0.930 . S
H331 C352 0.929 . S
H332 C326 0.930 . S
H333 C325 0.931 . S
H334 C348 0.930 . S
H335 C315 0.930 . S
H336 C321 0.929 . S
H337 C322 0.930 . S
H338 C343 0.930 . S
H339 C318 0.930 . S
H340 C351 0.931 . S
N341 Tb312 2.617 . S
N341 C342 1.379 . S
N341 C345 1.334 . S
C342 N341 1.379 . S
C342 C344 1.416 . S
C342 C350 1.424 . S
C343 H338 0.930 . S
C343 C345 1.390 . S
C343 C346 1.339 . S
C344 C342 1.416 . S
C344 C346 1.416 . S
C344 C377 1.448 . S
C345 H330 0.930 . S
C345 N341 1.334 . S
C345 C343 1.390 . S
C346 C343 1.339 . S
C346 C344 1.416 . S
C346 H353 0.930 . S
N347 Tb312 2.572 . S
N347 C348 1.340 . S
N347 C350 1.361 . S
C348 H334 0.930 . S
C348 N347 1.340 . S
C348 C352 1.407 . S
C349 C350 1.413 . S
C349 C351 1.416 . S
C349 C378 1.427 . S
C350 C342 1.424 . S
C350 N347 1.361 . S
C350 C349 1.413 . S
C351 H340 0.931 . S
C351 C349 1.416 . S
C351 C352 1.332 . S
C352 H331 0.929 . S
C352 C348 1.407 . S
C352 C351 1.332 . S
H353 C346 0.930 . S
H354 C377 0.930 . S
H355 C378 0.929 . S
O356 Tb312 2.465 . S
O356 C376 1.264 . S
O357 Tb312 2.387 . S
O357 C368 1.264 . S
O358 Tb323 2.349 1_455 S
O358 C368 1.243 . S
O359 Tb312 2.428 . S
O359 C376 1.256 . S
O360 Tb312 2.308 . S
O360 C375 1.266 1_455 S
O361 Tb323 2.393 . S
O361 C375 1.248 . S
O362 Tb323 2.465 . S
O362 C387 1.264 . S
O363 Tb323 2.387 . S
O363 C379 1.264 . S
O364 Tb312 2.349 . S
O364 C379 1.243 1_455 S
O365 Tb323 2.428 . S
O365 C387 1.256 . S
O366 Tb323 2.308 1_455 S
O366 C386 1.266 . S
O367 Tb312 2.393 . S
O367 C386 1.248 . S
C368 O357 1.264 . S
C368 O358 1.243 . S
C369 C372 1.399 . S
C369 C374 1.383 . S
C369 C376 1.496 . S
C370 C371 1.399 . S
C370 C374 1.389 . S
C371 C370 1.399 . S
C371 C373 1.380 . S
C371 H388 0.929 . S
C372 C369 1.399 . S
C372 C373 1.392 . S
C372 H389 0.929 . S
C373 C371 1.380 . S
C373 C372 1.392 . S
C373 H390 0.929 . S
C374 C369 1.383 . S
C374 C370 1.389 . S
C374 H391 0.931 . S
C375 O360 1.266 1_655 S
C375 O361 1.248 . S
C376 Tb312 2.802 . S
C376 O356 1.264 . S
C376 O359 1.256 . S
C376 C369 1.496 . S
C377 C344 1.448 . S
C377 H354 0.930 . S
C377 C378 1.328 . S
C378 C349 1.427 . S
C378 H355 0.929 . S
C378 C377 1.328 . S
C379 O363 1.264 . S
C379 O364 1.243 1_655 S
C380 C383 1.399 . S
C380 C384 1.383 . S
C380 C387 1.496 . S
C381 C382 1.399 . S
C381 C384 1.389 . S
C382 C381 1.399 . S
C382 C385 1.380 . S
C382 H392 0.929 . S
C383 C380 1.399 . S
C383 C385 1.392 . S
C383 H393 0.929 . S
C384 C380 1.383 . S
C384 C381 1.389 . S
C384 H394 0.931 . S
C385 C382 1.380 . S
C385 C383 1.392 . S
C385 H395 0.929 . S
C386 O366 1.266 . S
C386 O367 1.248 . S
C387 Tb323 2.802 . S
C387 O362 1.264 . S
C387 O365 1.256 . S
C387 C380 1.496 . S
H388 C371 0.929 . S
H389 C372 0.929 . S
H390 C373 0.929 . S
H391 C374 0.931 . S
H392 C382 0.929 . S
H393 C383 0.929 . S
H394 C384 0.931 . S
H395 C385 0.929 . S
Tb396 N425 2.617 . S
Tb396 N431 2.572 . S
Tb396 O440 2.465 . S
Tb396 O441 2.387 . S
Tb396 O443 2.428 . S
Tb396 O444 2.308 . S
Tb396 O448 2.349 . S
Tb396 O451 2.393 . S
Tb396 C460 2.802 . S
C397 N398 1.379 . S
C397 C400 1.416 . S
C397 C404 1.424 . S
N398 C397 1.379 . S
N398 C401 1.334 . S
N398 Tb407 2.617 . S
C399 C401 1.390 . S
C399 C402 1.339 . S
C399 H419 0.930 . S
C400 C397 1.416 . S
C400 C402 1.416 . S
C400 C406 1.448 . S
C401 N398 1.334 . S
C401 C399 1.390 . S
C401 H412 0.930 . S
C402 C399 1.339 . S
C402 C400 1.416 . S
C402 H423 0.930 . S
C403 C404 1.413 . S
C403 C405 1.427 . S
C403 C409 1.416 . S
C404 C397 1.424 . S
C404 C403 1.413 . S
C404 N408 1.361 . S
C405 C403 1.427 . S
C405 C406 1.328 . S
C405 H420 0.929 . S
C406 C400 1.448 . S
C406 C405 1.328 . S
C406 H421 0.930 . S
Tb407 N398 2.617 . S
Tb407 N408 2.572 . S
Tb407 O442 2.349 . S
Tb407 O445 2.393 . S
Tb407 O446 2.465 . S
Tb407 O447 2.387 . S
Tb407 O449 2.428 . S
Tb407 O450 2.308 . S
Tb407 C471 2.802 . S
N408 C404 1.361 . S
N408 Tb407 2.572 . S
N408 C410 1.340 . S
C409 C403 1.416 . S
C409 C411 1.332 . S
C409 H417 0.931 . S
C410 N408 1.340 . S
C410 C411 1.407 . S
C410 H416 0.930 . S
C411 C409 1.332 . S
C411 C410 1.407 . S
C411 H413 0.929 . S
H412 C401 0.930 . S
H413 C411 0.929 . S
H414 C429 0.930 . S
H415 C436 0.929 . S
H416 C410 0.930 . S
H417 C409 0.931 . S
H418 C432 0.930 . S
H419 C399 0.930 . S
H420 C405 0.929 . S
H421 C406 0.930 . S
H422 C427 0.930 . S
H423 C402 0.930 . S
H424 C435 0.931 . S
N425 Tb396 2.617 . S
N425 C426 1.379 . S
N425 C429 1.334 . S
C426 N425 1.379 . S
C426 C428 1.416 . S
C426 C434 1.424 . S
C427 H422 0.930 . S
C427 C429 1.390 . S
C427 C430 1.339 . S
C428 C426 1.416 . S
C428 C430 1.416 . S
C428 C461 1.448 . S
C429 H414 0.930 . S
C429 N425 1.334 . S
C429 C427 1.390 . S
C430 C427 1.339 . S
C430 C428 1.416 . S
C430 H437 0.930 . S
N431 Tb396 2.572 . S
N431 C432 1.340 . S
N431 C434 1.361 . S
C432 H418 0.930 . S
C432 N431 1.340 . S
C432 C436 1.407 . S
C433 C434 1.413 . S
C433 C435 1.416 . S
C433 C462 1.427 . S
C434 C426 1.424 . S
C434 N431 1.361 . S
C434 C433 1.413 . S
C435 H424 0.931 . S
C435 C433 1.416 . S
C435 C436 1.332 . S
C436 H415 0.929 . S
C436 C432 1.407 . S
C436 C435 1.332 . S
H437 C430 0.930 . S
H438 C461 0.930 . S
H439 C462 0.929 . S
O440 Tb396 2.465 . S
O440 C460 1.264 . S
O441 Tb396 2.387 . S
O441 C452 1.264 . S
O442 Tb407 2.349 . S
O442 C452 1.243 . S
O443 Tb396 2.428 . S
O443 C460 1.256 . S
O444 Tb396 2.308 . S
O444 C459 1.266 . S
O445 Tb407 2.393 . S
O445 C459 1.248 . S
O446 Tb407 2.465 . S
O446 C471 1.264 . S
O447 Tb407 2.387 . S
O447 C463 1.264 . S
O448 Tb396 2.349 . S
O448 C463 1.243 . S
O449 Tb407 2.428 . S
O449 C471 1.256 . S
O450 Tb407 2.308 . S
O450 C470 1.266 . S
O451 Tb396 2.393 . S
O451 C470 1.248 . S
C452 O441 1.264 . S
C452 O442 1.243 . S
C453 C456 1.399 . S
C453 C458 1.383 . S
C453 C460 1.496 . S
C454 C455 1.399 . S
C454 C458 1.389 . S
C455 C454 1.399 . S
C455 C457 1.380 . S
C455 H472 0.929 . S
C456 C453 1.399 . S
C456 C457 1.392 . S
C456 H473 0.929 . S
C457 C455 1.380 . S
C457 C456 1.392 . S
C457 H474 0.929 . S
C458 C453 1.383 . S
C458 C454 1.389 . S
C458 H475 0.931 . S
C459 O444 1.266 . S
C459 O445 1.248 . S
C460 Tb396 2.802 . S
C460 O440 1.264 . S
C460 O443 1.256 . S
C460 C453 1.496 . S
C461 C428 1.448 . S
C461 H438 0.930 . S
C461 C462 1.328 . S
C462 C433 1.427 . S
C462 H439 0.929 . S
C462 C461 1.328 . S
C463 O447 1.264 . S
C463 O448 1.243 . S
C464 C467 1.399 . S
C464 C468 1.383 . S
C464 C471 1.496 . S
C465 C466 1.399 . S
C465 C468 1.389 . S
C466 C465 1.399 . S
C466 C469 1.380 . S
C466 H476 0.929 . S
C467 C464 1.399 . S
C467 C469 1.392 . S
C467 H477 0.929 . S
C468 C464 1.383 . S
C468 C465 1.389 . S
C468 H478 0.931 . S
C469 C466 1.380 . S
C469 C467 1.392 . S
C469 H479 0.929 . S
C470 O450 1.266 . S
C470 O451 1.248 . S
C471 Tb407 2.802 . S
C471 O446 1.264 . S
C471 O449 1.256 . S
C471 C464 1.496 . S
H472 C455 0.929 . S
H473 C456 0.929 . S
H474 C457 0.929 . S
H475 C458 0.931 . S
H476 C466 0.929 . S
H477 C467 0.929 . S
H478 C468 0.931 . S
H479 C469 0.929 . S
Tb480 N509 2.617 . S
Tb480 N515 2.572 . S
Tb480 O524 2.465 . S
Tb480 O525 2.387 . S
Tb480 O527 2.428 . S
Tb480 O528 2.308 . S
Tb480 O532 2.349 . S
Tb480 O535 2.393 . S
Tb480 C544 2.802 . S
C481 N482 1.379 . S
C481 C484 1.416 . S
C481 C488 1.424 . S
N482 C481 1.379 . S
N482 C485 1.334 . S
N482 Tb491 2.617 . S
C483 C485 1.390 . S
C483 C486 1.339 . S
C483 H503 0.930 . S
C484 C481 1.416 . S
C484 C486 1.416 . S
C484 C490 1.448 . S
C485 N482 1.334 . S
C485 C483 1.390 . S
C485 H496 0.930 . S
C486 C483 1.339 . S
C486 C484 1.416 . S
C486 H507 0.930 . S
C487 C488 1.413 . S
C487 C489 1.427 . S
C487 C493 1.416 . S
C488 C481 1.424 . S
C488 C487 1.413 . S
C488 N492 1.361 . S
C489 C487 1.427 . S
C489 C490 1.328 . S
C489 H504 0.929 . S
C490 C484 1.448 . S
C490 C489 1.328 . S
C490 H505 0.930 . S
Tb491 N482 2.617 . S
Tb491 N492 2.572 . S
Tb491 O526 2.349 1_655 S
Tb491 O529 2.393 . S
Tb491 O530 2.465 . S
Tb491 O531 2.387 . S
Tb491 O533 2.428 . S
Tb491 O534 2.308 1_655 S
Tb491 C555 2.802 . S
N492 C488 1.361 . S
N492 Tb491 2.572 . S
N492 C494 1.340 . S
C493 C487 1.416 . S
C493 C495 1.332 . S
C493 H501 0.931 . S
C494 N492 1.340 . S
C494 C495 1.407 . S
C494 H500 0.930 . S
C495 C493 1.332 . S
C495 C494 1.407 . S
C495 H497 0.929 . S
H496 C485 0.930 . S
H497 C495 0.929 . S
H498 C513 0.930 . S
H499 C520 0.929 . S
H500 C494 0.930 . S
H501 C493 0.931 . S
H502 C516 0.930 . S
H503 C483 0.930 . S
H504 C489 0.929 . S
H505 C490 0.930 . S
H506 C511 0.930 . S
H507 C486 0.930 . S
H508 C519 0.931 . S
N509 Tb480 2.617 . S
N509 C510 1.379 . S
N509 C513 1.334 . S
C510 N509 1.379 . S
C510 C512 1.416 . S
C510 C518 1.424 . S
C511 H506 0.930 . S
C511 C513 1.390 . S
C511 C514 1.339 . S
C512 C510 1.416 . S
C512 C514 1.416 . S
C512 C545 1.448 . S
C513 H498 0.930 . S
C513 N509 1.334 . S
C513 C511 1.390 . S
C514 C511 1.339 . S
C514 C512 1.416 . S
C514 H521 0.930 . S
N515 Tb480 2.572 . S
N515 C516 1.340 . S
N515 C518 1.361 . S
C516 H502 0.930 . S
C516 N515 1.340 . S
C516 C520 1.407 . S
C517 C518 1.413 . S
C517 C519 1.416 . S
C517 C546 1.427 . S
C518 C510 1.424 . S
C518 N515 1.361 . S
C518 C517 1.413 . S
C519 H508 0.931 . S
C519 C517 1.416 . S
C519 C520 1.332 . S
C520 H499 0.929 . S
C520 C516 1.407 . S
C520 C519 1.332 . S
H521 C514 0.930 . S
H522 C545 0.930 . S
H523 C546 0.929 . S
O524 Tb480 2.465 . S
O524 C544 1.264 . S
O525 Tb480 2.387 . S
O525 C536 1.264 . S
O526 Tb491 2.349 1_455 S
O526 C536 1.243 . S
O527 Tb480 2.428 . S
O527 C544 1.256 . S
O528 Tb480 2.308 . S
O528 C543 1.266 1_455 S
O529 Tb491 2.393 . S
O529 C543 1.248 . S
O530 Tb491 2.465 . S
O530 C555 1.264 . S
O531 Tb491 2.387 . S
O531 C547 1.264 . S
O532 Tb480 2.349 . S
O532 C547 1.243 1_455 S
O533 Tb491 2.428 . S
O533 C555 1.256 . S
O534 Tb491 2.308 1_455 S
O534 C554 1.266 . S
O535 Tb480 2.393 . S
O535 C554 1.248 . S
C536 O525 1.264 . S
C536 O526 1.243 . S
C537 C540 1.399 . S
C537 C542 1.383 . S
C537 C544 1.496 . S
C538 C539 1.399 . S
C538 C542 1.389 . S
C539 C538 1.399 . S
C539 C541 1.380 . S
C539 H556 0.929 . S
C540 C537 1.399 . S
C540 C541 1.392 . S
C540 H557 0.929 . S
C541 C539 1.380 . S
C541 C540 1.392 . S
C541 H558 0.929 . S
C542 C537 1.383 . S
C542 C538 1.389 . S
C542 H559 0.931 . S
C543 O528 1.266 1_655 S
C543 O529 1.248 . S
C544 Tb480 2.802 . S
C544 O524 1.264 . S
C544 O527 1.256 . S
C544 C537 1.496 . S
C545 C512 1.448 . S
C545 H522 0.930 . S
C545 C546 1.328 . S
C546 C517 1.427 . S
C546 H523 0.929 . S
C546 C545 1.328 . S
C547 O531 1.264 . S
C547 O532 1.243 1_655 S
C548 C551 1.399 . S
C548 C552 1.383 . S
C548 C555 1.496 . S
C549 C550 1.399 . S
C549 C552 1.389 . S
C550 C549 1.399 . S
C550 C553 1.380 . S
C550 H560 0.929 . S
C551 C548 1.399 . S
C551 C553 1.392 . S
C551 H561 0.929 . S
C552 C548 1.383 . S
C552 C549 1.389 . S
C552 H562 0.931 . S
C553 C550 1.380 . S
C553 C551 1.392 . S
C553 H563 0.929 . S
C554 O534 1.266 . S
C554 O535 1.248 . S
C555 Tb491 2.802 . S
C555 O530 1.264 . S
C555 O533 1.256 . S
C555 C548 1.496 . S
H556 C539 0.929 . S
H557 C540 0.929 . S
H558 C541 0.929 . S
H559 C542 0.931 . S
H560 C550 0.929 . S
H561 C551 0.929 . S
H562 C552 0.931 . S
H563 C553 0.929 . S
Tb564 N593 2.617 . S
Tb564 N599 2.572 . S
Tb564 O608 2.465 . S
Tb564 O609 2.387 . S
Tb564 O611 2.428 . S
Tb564 O612 2.308 . S
Tb564 O616 2.349 . S
Tb564 O619 2.393 . S
Tb564 C628 2.802 . S
C565 N566 1.379 . S
C565 C568 1.416 . S
C565 C572 1.424 . S
N566 C565 1.379 . S
N566 C569 1.334 . S
N566 Tb575 2.617 . S
C567 C569 1.390 . S
C567 C570 1.339 . S
C567 H587 0.930 . S
C568 C565 1.416 . S
C568 C570 1.416 . S
C568 C574 1.448 . S
C569 N566 1.334 . S
C569 C567 1.390 . S
C569 H580 0.930 . S
C570 C567 1.339 . S
C570 C568 1.416 . S
C570 H591 0.930 . S
C571 C572 1.413 . S
C571 C573 1.427 . S
C571 C577 1.416 . S
C572 C565 1.424 . S
C572 C571 1.413 . S
C572 N576 1.361 . S
C573 C571 1.427 . S
C573 C574 1.328 . S
C573 H588 0.929 . S
C574 C568 1.448 . S
C574 C573 1.328 . S
C574 H589 0.930 . S
Tb575 N566 2.617 . S
Tb575 N576 2.572 . S
Tb575 O610 2.349 . S
Tb575 O613 2.393 . S
Tb575 O614 2.465 . S
Tb575 O615 2.387 . S
Tb575 O617 2.428 . S
Tb575 O618 2.308 . S
Tb575 C639 2.802 . S
N576 C572 1.361 . S
N576 Tb575 2.572 . S
N576 C578 1.340 . S
C577 C571 1.416 . S
C577 C579 1.332 . S
C577 H585 0.931 . S
C578 N576 1.340 . S
C578 C579 1.407 . S
C578 H584 0.930 . S
C579 C577 1.332 . S
C579 C578 1.407 . S
C579 H581 0.929 . S
H580 C569 0.930 . S
H581 C579 0.929 . S
H582 C597 0.930 . S
H583 C604 0.929 . S
H584 C578 0.930 . S
H585 C577 0.931 . S
H586 C600 0.930 . S
H587 C567 0.930 . S
H588 C573 0.929 . S
H589 C574 0.930 . S
H590 C595 0.930 . S
H591 C570 0.930 . S
H592 C603 0.931 . S
N593 Tb564 2.617 . S
N593 C594 1.379 . S
N593 C597 1.334 . S
C594 N593 1.379 . S
C594 C596 1.416 . S
C594 C602 1.424 . S
C595 H590 0.930 . S
C595 C597 1.390 . S
C595 C598 1.339 . S
C596 C594 1.416 . S
C596 C598 1.416 . S
C596 C629 1.448 . S
C597 H582 0.930 . S
C597 N593 1.334 . S
C597 C595 1.390 . S
C598 C595 1.339 . S
C598 C596 1.416 . S
C598 H605 0.930 . S
N599 Tb564 2.572 . S
N599 C600 1.340 . S
N599 C602 1.361 . S
C600 H586 0.930 . S
C600 N599 1.340 . S
C600 C604 1.407 . S
C601 C602 1.413 . S
C601 C603 1.416 . S
C601 C630 1.427 . S
C602 C594 1.424 . S
C602 N599 1.361 . S
C602 C601 1.413 . S
C603 H592 0.931 . S
C603 C601 1.416 . S
C603 C604 1.332 . S
C604 H583 0.929 . S
C604 C600 1.407 . S
C604 C603 1.332 . S
H605 C598 0.930 . S
H606 C629 0.930 . S
H607 C630 0.929 . S
O608 Tb564 2.465 . S
O608 C628 1.264 . S
O609 Tb564 2.387 . S
O609 C620 1.264 . S
O610 Tb575 2.349 . S
O610 C620 1.243 . S
O611 Tb564 2.428 . S
O611 C628 1.256 . S
O612 Tb564 2.308 . S
O612 C627 1.266 . S
O613 Tb575 2.393 . S
O613 C627 1.248 . S
O614 Tb575 2.465 . S
O614 C639 1.264 . S
O615 Tb575 2.387 . S
O615 C631 1.264 . S
O616 Tb564 2.349 . S
O616 C631 1.243 . S
O617 Tb575 2.428 . S
O617 C639 1.256 . S
O618 Tb575 2.308 . S
O618 C638 1.266 . S
O619 Tb564 2.393 . S
O619 C638 1.248 . S
C620 O609 1.264 . S
C620 O610 1.243 . S
C621 C624 1.399 . S
C621 C626 1.383 . S
C621 C628 1.496 . S
C622 C623 1.399 . S
C622 C626 1.389 . S
C623 C622 1.399 . S
C623 C625 1.380 . S
C623 H640 0.929 . S
C624 C621 1.399 . S
C624 C625 1.392 . S
C624 H641 0.929 . S
C625 C623 1.380 . S
C625 C624 1.392 . S
C625 H642 0.929 . S
C626 C621 1.383 . S
C626 C622 1.389 . S
C626 H643 0.931 . S
C627 O612 1.266 . S
C627 O613 1.248 . S
C628 Tb564 2.802 . S
C628 O608 1.264 . S
C628 O611 1.256 . S
C628 C621 1.496 . S
C629 C596 1.448 . S
C629 H606 0.930 . S
C629 C630 1.328 . S
C630 C601 1.427 . S
C630 H607 0.929 . S
C630 C629 1.328 . S
C631 O615 1.264 . S
C631 O616 1.243 . S
C632 C635 1.399 . S
C632 C636 1.383 . S
C632 C639 1.496 . S
C633 C634 1.399 . S
C633 C636 1.389 . S
C634 C633 1.399 . S
C634 C637 1.380 . S
C634 H644 0.929 . S
C635 C632 1.399 . S
C635 C637 1.392 . S
C635 H645 0.929 . S
C636 C632 1.383 . S
C636 C633 1.389 . S
C636 H646 0.931 . S
C637 C634 1.380 . S
C637 C635 1.392 . S
C637 H647 0.929 . S
C638 O618 1.266 . S
C638 O619 1.248 . S
C639 Tb575 2.802 . S
C639 O614 1.264 . S
C639 O617 1.256 . S
C639 C632 1.496 . S
H640 C623 0.929 . S
H641 C624 0.929 . S
H642 C625 0.929 . S
H643 C626 0.931 . S
H644 C634 0.929 . S
H645 C635 0.929 . S
H646 C636 0.931 . S
H647 C637 0.929 . S
C648 C649 1.369 . S
C648 C650 1.419 . S
C648 H652 0.930 . S
C649 C648 1.369 . S
C649 C658 1.429 . S
C650 C648 1.419 . S
C650 C651 1.363 . S
C650 H653 0.929 . S
C651 C650 1.363 . S
C651 C657 1.428 . S
H652 C648 0.930 . S
H653 C650 0.929 . S
S654 N655 1.611 1_545 S
S654 N656 1.619 . S
N655 S654 1.611 1_565 S
N655 C658 1.350 1_565 S
N656 S654 1.619 . S
N656 C657 1.351 . S
C657 C651 1.428 . S
C657 N656 1.351 . S
C657 C658 1.434 . S
C658 C649 1.429 . S
C658 N655 1.350 1_545 S
C658 C657 1.434 . S
C659 C660 1.369 . S
C659 C661 1.419 . S
C659 H663 0.930 . S
C660 C659 1.369 . S
C660 C669 1.429 . S
C661 C659 1.419 . S
C661 C662 1.363 . S
C661 H664 0.929 . S
C662 C661 1.363 . S
C662 C668 1.428 . S
H663 C659 0.930 . S
H664 C661 0.929 . S
S665 N666 1.613 . S
S665 N667 1.610 . S
N666 S665 1.613 . S
N666 C669 1.350 . S
N667 S665 1.610 . S
N667 C668 1.351 . S
C668 C662 1.428 . S
C668 N667 1.351 . S
C668 C669 1.434 . S
C669 C660 1.429 . S
C669 N666 1.350 . S
C669 C668 1.434 . S
C670 C671 1.369 . S
C670 C672 1.419 . S
C670 H674 0.930 . S
C671 C670 1.369 . S
C671 C680 1.429 . S
C672 C670 1.419 . S
C672 C673 1.363 . S
C672 H675 0.929 . S
C673 C672 1.363 . S
C673 C679 1.428 . S
H674 C670 0.930 . S
H675 C672 0.929 . S
S676 N677 1.613 . S
S676 N678 1.610 . S
N677 S676 1.613 . S
N677 C680 1.350 . S
N678 S676 1.610 . S
N678 C679 1.351 . S
C679 C673 1.428 . S
C679 N678 1.351 . S
C679 C680 1.434 . S
C680 C671 1.429 . S
C680 N677 1.350 . S
C680 C679 1.434 . S
C681 C682 1.369 . S
C681 C683 1.419 . S
C681 H685 0.930 . S
C682 C681 1.369 . S
C682 C691 1.429 . S
C683 C681 1.419 . S
C683 C684 1.363 . S
C683 H686 0.929 . S
C684 C683 1.363 . S
C684 C690 1.428 . S
H685 C681 0.930 . S
H686 C683 0.929 . S
S687 N688 1.613 . S
S687 N689 1.610 . S
N688 S687 1.613 . S
N688 C691 1.350 . S
N689 S687 1.610 . S
N689 C690 1.351 . S
C690 C684 1.428 . S
C690 N689 1.351 . S
C690 C691 1.434 . S
C691 C682 1.429 . S
C691 N688 1.350 . S
C691 C690 1.434 . S
C692 C693 1.369 . S
C692 C694 1.419 . S
C692 H696 0.930 . S
C693 C692 1.369 . S
C693 C702 1.429 . S
C694 C692 1.419 . S
C694 C695 1.363 . S
C694 H697 0.929 . S
C695 C694 1.363 . S
C695 C701 1.428 . S
H696 C692 0.930 . S
H697 C694 0.929 . S
S698 N699 1.613 . S
S698 N700 1.610 . S
N699 S698 1.613 . S
N699 C702 1.350 . S
N700 S698 1.610 . S
N700 C701 1.351 . S
C701 C695 1.428 . S
C701 N700 1.351 . S
C701 C702 1.434 . S
C702 C693 1.429 . S
C702 N699 1.350 . S
C702 C701 1.434 . S
C703 C704 1.369 . S
C703 C705 1.419 . S
C703 H707 0.930 . S
C704 C703 1.369 . S
C704 C713 1.429 . S
C705 C703 1.419 . S
C705 C706 1.363 . S
C705 H708 0.929 . S
C706 C705 1.363 . S
C706 C712 1.428 . S
H707 C703 0.930 . S
H708 C705 0.929 . S
S709 N710 1.613 . S
S709 N711 1.610 . S
N710 S709 1.613 . S
N710 C713 1.350 . S
N711 S709 1.610 . S
N711 C712 1.351 . S
C712 C706 1.428 . S
C712 N711 1.351 . S
C712 C713 1.434 . S
C713 C704 1.429 . S
C713 N710 1.350 . S
C713 C712 1.434 . S
C714 C715 1.369 . S
C714 C716 1.419 . S
C714 H718 0.930 . S
C715 C714 1.369 . S
C715 C724 1.429 . S
C716 C714 1.419 . S
C716 C717 1.363 . S
C716 H719 0.929 . S
C717 C716 1.363 . S
C717 C723 1.428 . S
H718 C714 0.930 . S
H719 C716 0.929 . S
S720 N721 1.613 . S
S720 N722 1.610 . S
N721 S720 1.613 . S
N721 C724 1.350 . S
N722 S720 1.610 . S
N722 C723 1.351 . S
C723 C717 1.428 . S
C723 N722 1.351 . S
C723 C724 1.434 . S
C724 C715 1.429 . S
C724 N721 1.350 . S
C724 C723 1.434 . S
C725 C726 1.369 . S
C725 C727 1.419 . S
C725 H729 0.930 . S
C726 C725 1.369 . S
C726 C735 1.429 . S
C727 C725 1.419 . S
C727 C728 1.363 . S
C727 H730 0.929 . S
C728 C727 1.363 . S
C728 C734 1.428 . S
H729 C725 0.930 . S
H730 C727 0.929 . S
S731 N732 1.613 . S
S731 N733 1.610 . S
N732 S731 1.613 . S
N732 C735 1.350 . S
N733 S731 1.610 . S
N733 C734 1.351 . S
C734 C728 1.428 . S
C734 N733 1.351 . S
C734 C735 1.434 . S
C735 C726 1.429 . S
C735 N732 1.350 . S
C735 C734 1.434 . S
C736 C737 1.369 . S
C736 C738 1.419 . S
C736 H740 0.930 . S
C737 C736 1.369 . S
C737 C746 1.429 . S
C738 C736 1.419 . S
C738 C739 1.363 . S
C738 H741 0.929 . S
C739 C738 1.363 . S
C739 C745 1.428 . S
H740 C736 0.930 . S
H741 C738 0.929 . S
S742 N743 1.613 . S
S742 N744 1.610 . S
N743 S742 1.613 . S
N743 C746 1.350 . S
N744 S742 1.610 . S
N744 C745 1.351 . S
C745 C739 1.428 . S
C745 N744 1.351 . S
C745 C746 1.434 . S
C746 C737 1.429 . S
C746 N743 1.350 . S
C746 C745 1.434 . S
C747 C748 1.369 . S
C747 C749 1.419 . S
C747 H751 0.930 . S
C748 C747 1.369 . S
C748 C757 1.429 . S
C749 C747 1.419 . S
C749 C750 1.363 . S
C749 H752 0.929 . S
C750 C749 1.363 . S
C750 C756 1.428 . S
H751 C747 0.930 . S
H752 C749 0.929 . S
S753 N754 1.613 . S
S753 N755 1.610 . S
N754 S753 1.613 . S
N754 C757 1.350 . S
N755 S753 1.610 . S
N755 C756 1.351 . S
C756 C750 1.428 . S
C756 N755 1.351 . S
C756 C757 1.434 . S
C757 C748 1.429 . S
C757 N754 1.350 . S
C757 C756 1.434 . S
C758 C759 1.369 . S
C758 C760 1.419 . S
C758 H762 0.930 . S
C759 C758 1.369 . S
C759 C768 1.429 . S
C760 C758 1.419 . S
C760 C761 1.363 . S
C760 H763 0.929 . S
C761 C760 1.363 . S
C761 C767 1.428 . S
H762 C758 0.930 . S
H763 C760 0.929 . S
S764 N765 1.613 . S
S764 N766 1.610 . S
N765 S764 1.613 . S
N765 C768 1.350 . S
N766 S764 1.610 . S
N766 C767 1.351 . S
C767 C761 1.428 . S
C767 N766 1.351 . S
C767 C768 1.434 . S
C768 C759 1.429 . S
C768 N765 1.350 . S
C768 C767 1.434 . S
C769 C770 1.369 . S
C769 C771 1.419 . S
C769 H773 0.930 . S
C770 C769 1.369 . S
C770 C779 1.429 . S
C771 C769 1.419 . S
C771 C772 1.363 . S
C771 H774 0.929 . S
C772 C771 1.363 . S
C772 C778 1.428 . S
H773 C769 0.930 . S
H774 C771 0.929 . S
S775 N776 1.613 . S
S775 N777 1.610 . S
N776 S775 1.613 . S
N776 C779 1.350 . S
N777 S775 1.610 . S
N777 C778 1.351 . S
C778 C772 1.428 . S
C778 N777 1.351 . S
C778 C779 1.434 . S
C779 C770 1.429 . S
C779 N776 1.350 . S
C779 C778 1.434 . S
C780 C781 1.369 . S
C780 C782 1.419 . S
C780 H784 0.930 . S
C781 C780 1.369 . S
C781 C790 1.429 . S
C782 C780 1.419 . S
C782 C783 1.363 . S
C782 H785 0.929 . S
C783 C782 1.363 . S
C783 C789 1.428 . S
H784 C780 0.930 . S
H785 C782 0.929 . S
S786 N787 1.613 . S
S786 N788 1.610 . S
N787 S786 1.613 . S
N787 C790 1.350 . S
N788 S786 1.610 . S
N788 C789 1.351 . S
C789 C783 1.428 . S
C789 N788 1.351 . S
C789 C790 1.434 . S
C790 C781 1.429 . S
C790 N787 1.350 . S
C790 C789 1.434 . S
C791 C792 1.369 . S
C791 C793 1.419 . S
C791 H795 0.930 . S
C792 C791 1.369 . S
C792 C801 1.429 . S
C793 C791 1.419 . S
C793 C794 1.363 . S
C793 H796 0.929 . S
C794 C793 1.363 . S
C794 C800 1.428 . S
H795 C791 0.930 . S
H796 C793 0.929 . S
S797 N798 1.613 . S
S797 N799 1.610 . S
N798 S797 1.613 . S
N798 C801 1.350 . S
N799 S797 1.610 . S
N799 C800 1.351 . S
C800 C794 1.428 . S
C800 N799 1.351 . S
C800 C801 1.434 . S
C801 C792 1.429 . S
C801 N798 1.350 . S
C801 C800 1.434 . S
C802 C803 1.369 . S
C802 C804 1.419 . S
C802 H806 0.930 . S
C803 C802 1.369 . S
C803 C812 1.429 . S
C804 C802 1.419 . S
C804 C805 1.363 . S
C804 H807 0.929 . S
C805 C804 1.363 . S
C805 C811 1.428 . S
H806 C802 0.930 . S
H807 C804 0.929 . S
S808 N809 1.613 . S
S808 N810 1.610 . S
N809 S808 1.613 . S
N809 C812 1.350 . S
N810 S808 1.610 . S
N810 C811 1.351 . S
C811 C805 1.428 . S
C811 N810 1.351 . S
C811 C812 1.434 . S
C812 C803 1.429 . S
C812 N809 1.350 . S
C812 C811 1.434 . S
C813 C814 1.369 . S
C813 C815 1.419 . S
C813 H817 0.930 . S
C814 C813 1.369 . S
C814 C823 1.429 . S
C815 C813 1.419 . S
C815 C816 1.363 . S
C815 H818 0.929 . S
C816 C815 1.363 . S
C816 C822 1.428 . S
H817 C813 0.930 . S
H818 C815 0.929 . S
S819 N820 1.613 . S
S819 N821 1.610 . S
N820 S819 1.613 . S
N820 C823 1.350 . S
N821 S819 1.610 . S
N821 C822 1.351 . S
C822 C816 1.428 . S
C822 N821 1.351 . S
C822 C823 1.434 . S
C823 C814 1.429 . S
C823 N820 1.350 . S
C823 C822 1.434 . S
C824 C825 1.369 . S
C824 C826 1.419 . S
C824 H828 0.930 . S
C825 C824 1.369 . S
C825 C834 1.429 . S
C826 C824 1.419 . S
C826 C827 1.363 . S
C826 H829 0.929 . S
C827 C826 1.363 . S
C827 C833 1.428 . S
H828 C824 0.930 . S
H829 C826 0.929 . S
S830 N831 1.613 . S
S830 N832 1.610 . S
N831 S830 1.613 . S
N831 C834 1.350 . S
N832 S830 1.610 . S
N832 C833 1.351 . S
C833 C827 1.428 . S
C833 N832 1.351 . S
C833 C834 1.434 . S
C834 C825 1.429 . S
C834 N831 1.350 . S
C834 C833 1.434 . S
C835 C836 1.369 . S
C835 C837 1.419 . S
C835 H839 0.930 . S
C836 C835 1.369 . S
C836 C845 1.429 . S
C837 C835 1.419 . S
C837 C838 1.363 . S
C837 H840 0.929 . S
C838 C837 1.363 . S
C838 C844 1.428 . S
H839 C835 0.930 . S
H840 C837 0.929 . S
S841 N842 1.613 . S
S841 N843 1.610 . S
N842 S841 1.613 . S
N842 C845 1.350 . S
N843 S841 1.610 . S
N843 C844 1.351 . S
C844 C838 1.428 . S
C844 N843 1.351 . S
C844 C845 1.434 . S
C845 C836 1.429 . S
C845 N842 1.350 . S
C845 C844 1.434 . S
C846 C847 1.369 . S
C846 C848 1.419 . S
C846 H850 0.930 . S
C847 C846 1.369 . S
C847 C856 1.429 . S
C848 C846 1.419 . S
C848 C849 1.363 . S
C848 H851 0.929 . S
C849 C848 1.363 . S
C849 C855 1.428 . S
H850 C846 0.930 . S
H851 C848 0.929 . S
S852 N853 1.613 . S
S852 N854 1.610 . S
N853 S852 1.613 . S
N853 C856 1.350 . S
N854 S852 1.610 . S
N854 C855 1.351 . S
C855 C849 1.428 . S
C855 N854 1.351 . S
C855 C856 1.434 . S
C856 C847 1.429 . S
C856 N853 1.350 . S
C856 C855 1.434 . S
C857 C858 1.369 . S
C857 C859 1.419 . S
C857 H861 0.930 . S
C858 C857 1.369 . S
C858 C867 1.429 . S
C859 C857 1.419 . S
C859 C860 1.363 . S
C859 H862 0.929 . S
C860 C859 1.363 . S
C860 C866 1.428 . S
H861 C857 0.930 . S
H862 C859 0.929 . S
S863 N864 1.613 . S
S863 N865 1.610 . S
N864 S863 1.613 . S
N864 C867 1.350 . S
N865 S863 1.610 . S
N865 C866 1.351 . S
C866 C860 1.428 . S
C866 N865 1.351 . S
C866 C867 1.434 . S
C867 C858 1.429 . S
C867 N864 1.350 . S
C867 C866 1.434 . S
C868 C869 1.369 . S
C868 C870 1.419 . S
C868 H872 0.930 . S
C869 C868 1.369 . S
C869 C878 1.429 . S
C870 C868 1.419 . S
C870 C871 1.363 . S
C870 H873 0.929 . S
C871 C870 1.363 . S
C871 C877 1.428 . S
H872 C868 0.930 . S
H873 C870 0.929 . S
S874 N875 1.613 . S
S874 N876 1.610 . S
N875 S874 1.613 . S
N875 C878 1.350 . S
N876 S874 1.610 . S
N876 C877 1.351 . S
C877 C871 1.428 . S
C877 N876 1.351 . S
C877 C878 1.434 . S
C878 C869 1.429 . S
C878 N875 1.350 . S
C878 C877 1.434 . S
C879 C880 1.369 . S
C879 C881 1.419 . S
C879 H883 0.930 . S
C880 C879 1.369 . S
C880 C889 1.429 . S
C881 C879 1.419 . S
C881 C882 1.363 . S
C881 H884 0.929 . S
C882 C881 1.363 . S
C882 C888 1.428 . S
H883 C879 0.930 . S
H884 C881 0.929 . S
S885 N886 1.613 . S
S885 N887 1.610 . S
N886 S885 1.613 . S
N886 C889 1.350 . S
N887 S885 1.610 . S
N887 C888 1.351 . S
C888 C882 1.428 . S
C888 N887 1.351 . S
C888 C889 1.434 . S
C889 C880 1.429 . S
C889 N886 1.350 . S
C889 C888 1.434 . S
C890 C891 1.369 . S
C890 C892 1.419 . S
C890 H894 0.930 . S
C891 C890 1.369 . S
C891 C900 1.429 . S
C892 C890 1.419 . S
C892 C893 1.363 . S
C892 H895 0.929 . S
C893 C892 1.363 . S
C893 C899 1.428 . S
H894 C890 0.930 . S
H895 C892 0.929 . S
S896 N897 1.613 . S
S896 N898 1.610 . S
N897 S896 1.613 . S
N897 C900 1.350 . S
N898 S896 1.610 . S
N898 C899 1.351 . S
C899 C893 1.428 . S
C899 N898 1.351 . S
C899 C900 1.434 . S
C900 C891 1.429 . S
C900 N897 1.350 . S
C900 C899 1.434 . S
C901 C902 1.369 . S
C901 C903 1.419 . S
C901 H905 0.930 . S
C902 C901 1.369 . S
C902 C911 1.429 . S
C903 C901 1.419 . S
C903 C904 1.363 . S
C903 H906 0.929 . S
C904 C903 1.363 . S
C904 C910 1.428 . S
H905 C901 0.930 . S
H906 C903 0.929 . S
S907 N908 1.613 1_655 S
S907 N909 1.610 . S
N908 S907 1.613 1_455 S
N908 C911 1.350 . S
N909 S907 1.610 . S
N909 C910 1.351 1_655 S
C910 C904 1.428 . S
C910 N909 1.351 1_455 S
C910 C911 1.434 . S
C911 C902 1.429 . S
C911 N908 1.350 . S
C911 C910 1.434 . S
C649 C235 1.485 1_545 S
C651 C386 1.473 . S
C662 C470 1.475 . S
C660 C289 1.485 . S
C673 C463 1.481 . S
C671 C157 1.483 . S
C682 C211 1.480 1_545 S
C684 C379 1.480 . S
C695 C543 1.472 . S
C693 C79 1.487 1_565 S
C706 C627 1.475 . S
C704 C118 1.489 . S
C715 C1 1.483 . S
C717 C620 1.482 . S
C726 C40 1.486 1_565 S
C728 C536 1.486 . S
C739 C370 1.318 . S
C737 C55 1.517 . S
C750 C454 1.313 . S
C748 C16 1.520 . S
C761 C465 1.395 . S
C759 C133 1.534 . S
C772 C381 1.394 . S
C770 C94 1.535 . S
C783 C549 1.324 . S
C781 C196 1.526 . S
C792 C172 1.523 . S
C794 C633 1.327 . S
C805 C622 1.401 . S
C803 C274 1.541 . S
C814 C250 1.538 . S
C816 C538 1.406 . S
C827 C368 1.575 . S
C825 C21 1.572 . S
C838 C452 1.578 . S
C836 C60 1.577 . S
C847 C99 1.561 . S
C849 C459 1.561 . S
C860 C375 1.562 . S
C858 C138 1.562 . S
C871 C547 1.584 . S
C869 C177 1.569 . S
C880 C216 1.572 . S
C882 C631 1.582 . S
C891 C255 1.558 . S
C893 C638 1.567 . S
C902 C294 1.561 . S
C904 C554 1.566 . S
