# Generated by pormake.
# Topology zzz, (3,6)-cn, num edge types: 1
# Building blocks:
#     Node 0, Type 0, BuildingBlock: MIDCAF_clean_linker_0, # of connection points: 3
#     Node 1, Type 0, BuildingBlock: MIDCAF_clean_linker_0, # of connection points: 3
#     Node 2, Type 0, BuildingBlock: MIDCAF_clean_linker_0, # of connection points: 3
#     Node 3, Type 0, BuildingBlock: MIDCAF_clean_linker_0, # of connection points: 3
#     Node 4, Type 0, BuildingBlock: MIDCAF_clean_linker_0, # of connection points: 3
#     Node 5, Type 0, BuildingBlock: MIDCAF_clean_linker_0, # of connection points: 3
#     Node 6, Type 0, BuildingBlock: MIDCAF_clean_linker_0, # of connection points: 3
#     Node 7, Type 0, BuildingBlock: MIDCAF_clean_linker_0, # of connection points: 3
#     Node 8, Type 1, BuildingBlock: PAMTUU_clean_sbu_0, # of connection points: 6
#     Node 9, Type 1, BuildingBlock: PAMTUU_clean_sbu_0, # of connection points: 6
#     Node 10, Type 1, BuildingBlock: PAMTUU_clean_sbu_0, # of connection points: 6
#     Node 11, Type 1, BuildingBlock: PAMTUU_clean_sbu_0, # of connection points: 6
#     Edge 12, Type (0, 1), BuildingBlock: OJICUG_clean_linker_0, # of connection points: 2
#     Edge 13, Type (0, 1), BuildingBlock: OJICUG_clean_linker_0, # of connection points: 2
#     Edge 14, Type (0, 1), BuildingBlock: OJICUG_clean_linker_0, # of connection points: 2
#     Edge 15, Type (0, 1), BuildingBlock: OJICUG_clean_linker_0, # of connection points: 2
#     Edge 16, Type (0, 1), BuildingBlock: OJICUG_clean_linker_0, # of connection points: 2
#     Edge 17, Type (0, 1), BuildingBlock: OJICUG_clean_linker_0, # of connection points: 2
#     Edge 18, Type (0, 1), BuildingBlock: OJICUG_clean_linker_0, # of connection points: 2
#     Edge 19, Type (0, 1), BuildingBlock: OJICUG_clean_linker_0, # of connection points: 2
#     Edge 20, Type (0, 1), BuildingBlock: OJICUG_clean_linker_0, # of connection points: 2
#     Edge 21, Type (0, 1), BuildingBlock: OJICUG_clean_linker_0, # of connection points: 2
#     Edge 22, Type (0, 1), BuildingBlock: OJICUG_clean_linker_0, # of connection points: 2
#     Edge 23, Type (0, 1), BuildingBlock: OJICUG_clean_linker_0, # of connection points: 2
#     Edge 24, Type (0, 1), BuildingBlock: OJICUG_clean_linker_0, # of connection points: 2
#     Edge 25, Type (0, 1), BuildingBlock: OJICUG_clean_linker_0, # of connection points: 2
#     Edge 26, Type (0, 1), BuildingBlock: OJICUG_clean_linker_0, # of connection points: 2
#     Edge 27, Type (0, 1), BuildingBlock: OJICUG_clean_linker_0, # of connection points: 2
#     Edge 28, Type (0, 1), BuildingBlock: OJICUG_clean_linker_0, # of connection points: 2
#     Edge 29, Type (0, 1), BuildingBlock: OJICUG_clean_linker_0, # of connection points: 2
#     Edge 30, Type (0, 1), BuildingBlock: OJICUG_clean_linker_0, # of connection points: 2
#     Edge 31, Type (0, 1), BuildingBlock: OJICUG_clean_linker_0, # of connection points: 2
#     Edge 32, Type (0, 1), BuildingBlock: OJICUG_clean_linker_0, # of connection points: 2
#     Edge 33, Type (0, 1), BuildingBlock: OJICUG_clean_linker_0, # of connection points: 2
#     Edge 34, Type (0, 1), BuildingBlock: OJICUG_clean_linker_0, # of connection points: 2
#     Edge 35, Type (0, 1), BuildingBlock: OJICUG_clean_linker_0, # of connection points: 2
# Relax obj value: 0.424
# Max RMSD: 0.291
# Mean RMSD: 0.221
data_MOF--net-zzz--node1-PAMTUU_clean_sbu_0--node2-MIDCAF_clean_linker_0--edge1-OJICUG_clean_linker_0
_symmetry_space_group_name_H-M    P1
_symmetry_Int_Tables_number       1
_symmetry_cell_setting            triclinic
loop_
_symmetry_equiv_pos_as_xyz
'x, y, z'
_cell_length_a     43.745139
_cell_length_b     48.172025
_cell_length_c     16.432832
_cell_angle_alpha  100.81652
_cell_angle_beta   89.892089
_cell_angle_gamma 89.143716
loop_
_atom_site_label
_atom_site_type_symbol
_atom_site_fract_x
_atom_site_fract_y
_atom_site_fract_z
_atom_type_partial_charge
C0 C 0.82903 0.52116 0.56463 0.0
C1 C 0.8421 0.50058 0.60575 0.0
C2 C 0.82895 0.47364 0.59204 0.0
C3 C 0.80468 0.46705 0.53668 0.0
H4 H 0.66922 0.47271 0.35226 0.0
H5 H 0.62803 0.48403 0.26354 0.0
H6 H 0.68974 0.53546 0.15221 0.0
H7 H 0.73103 0.52357 0.24099 0.0
H8 H 0.73568 0.41805 0.15749 0.0
H9 H 0.76322 0.38711 0.04644 0.0
H10 H 0.83397 0.37421 0.21936 0.0
H11 H 0.80632 0.40435 0.33 0.0
H12 H 0.79573 0.53044 0.47615 0.0
H13 H 0.83826 0.54224 0.57395 0.0
H14 H 0.83834 0.45701 0.62105 0.0
H15 H 0.79621 0.44565 0.52563 0.0
N16 N 0.74744 0.49339 0.40071 0.0
N17 N 0.73572 0.45635 0.28994 0.0
N18 N 0.7767 0.45117 0.37653 0.0
C19 C 0.7293 0.48243 0.33457 0.0
C20 C 0.75937 0.4406 0.31004 0.0
C21 C 0.77111 0.47725 0.42264 0.0
C22 C 0.70317 0.49791 0.30548 0.0
C23 C 0.67356 0.48754 0.31162 0.0
C24 C 0.64996 0.49387 0.25992 0.0
C25 C 0.6554 0.51046 0.19943 0.0
C26 C 0.68465 0.52229 0.19698 0.0
C27 C 0.70824 0.51602 0.24917 0.0
C28 C 0.76959 0.41478 0.25184 0.0
C29 C 0.75654 0.40775 0.17255 0.0
C30 C 0.77229 0.38994 0.1087 0.0
C31 C 0.80137 0.37905 0.12312 0.0
C32 C 0.8118 0.38239 0.20532 0.0
C33 C 0.79605 0.40009 0.26908 0.0
C34 C 0.79238 0.48713 0.49308 0.0
C35 C 0.80433 0.51456 0.50933 0.0
C36 C 0.05626 0.81817 0.67835 0.0
C37 C 0.0267 0.83012 0.67812 0.0
C38 C 1.00456 0.81511 0.62566 0.0
C39 C 1.01272 0.79045 0.569 0.0
H40 H 0.99437 0.70819 0.34467 0.0
H41 H 0.9767 0.66399 0.25787 0.0
H42 H 0.06968 0.63214 0.23517 0.0
H43 H 0.08721 0.67621 0.31909 0.0
H44 H 0.09162 0.75819 0.2096 0.0
H45 H 0.11236 0.7953 0.14441 0.0
H46 H 0.15597 0.83197 0.37448 0.0
H47 H 0.13433 0.79535 0.44021 0.0
H48 H 0.08792 0.78652 0.61936 0.0
H49 H 0.07418 0.82895 0.71663 0.0
H50 H 0.9814 0.82327 0.62484 0.0
H51 H 0.99605 0.78082 0.5242 0.0
N52 N 0.04215 0.73775 0.45129 0.0
N53 N 0.0773 0.7343 0.34041 0.0
N54 N 0.07862 0.77293 0.44968 0.0
C55 C 0.05398 0.72318 0.37829 0.0
C56 C 0.08967 0.75924 0.37601 0.0
C57 C 0.05507 0.76258 0.48774 0.0
C58 C 0.0421 0.69546 0.33838 0.0
C59 C 1.0108 0.69143 0.32233 0.0
C60 C 1.00077 0.66631 0.27246 0.0
C61 C 1.02184 0.64466 0.2401 0.0
C62 C 0.0529 0.64831 0.25995 0.0
C63 C 0.06294 0.67354 0.30771 0.0
C64 C 0.11084 0.77432 0.33032 0.0
C65 C 0.10669 0.77348 0.24522 0.0
C66 C 0.11861 0.79482 0.20787 0.0
C67 C 0.13509 0.81706 0.25504 0.0
C68 C 0.14263 0.81557 0.3372 0.0
C69 C 0.13043 0.7945 0.37469 0.0
C70 C 0.04309 0.78046 0.56424 0.0
C71 C 0.06427 0.79369 0.62228 0.0
C72 C 0.71096 0.95195 0.57165 0.0
C73 C 0.70198 0.98014 0.60076 0.0
C74 C 0.72155 0.00164 0.5851 0.0
C75 C 0.74824 0.99494 0.53582 0.0
H76 H 0.8779 0.93509 0.33364 0.0
H77 H 0.9211 0.94729 0.25473 0.0
H78 H 0.87825 0.02813 0.24683 0.0
H79 H 0.83446 0.0152 0.32468 0.0
H80 H 0.80473 0.92232 0.13716 0.0
H81 H 0.76874 0.92505 0.02662 0.0
H82 H 0.69519 0.90499 0.18038 0.0
H83 H 0.73106 0.90134 0.28916 0.0
H84 H 0.74264 0.92323 0.4996 0.0
H85 H 0.69677 0.93487 0.5834 0.0
H86 H 0.71528 0.02362 0.60672 0.0
H87 H 0.76154 0.01189 0.51954 0.0
N88 N 0.80536 0.97125 0.42342 0.0
N89 N 0.81271 0.94148 0.29297 0.0
N90 N 0.76858 0.93769 0.36894 0.0
C91 C 0.8232 0.962 0.35411 0.0
C92 C 0.7854 0.92932 0.29936 0.0
C93 C 0.77798 0.95827 0.43145 0.0
C94 C 0.85299 0.97441 0.33736 0.0
C95 C 0.87836 0.95601 0.31836 0.0
C96 C 0.90316 0.96301 0.27221 0.0
C97 C 0.90336 0.98864 0.24264 0.0
C98 C 0.87888 0.00796 0.26685 0.0
C99 C 0.85399 0.0009 0.31338 0.0
C100 C 0.77017 0.91398 0.22421 0.0
C101 C 0.78116 0.91687 0.14578 0.0
C102 C 0.76048 0.91849 0.08216 0.0
C103 C 0.72891 0.91749 0.09743 0.0
C104 C 0.71925 0.90708 0.16753 0.0
C105 C 0.73993 0.90517 0.23072 0.0
C106 C 0.75595 0.96659 0.50221 0.0
C107 C 0.7375 0.94531 0.52388 0.0
C108 C 0.49057 0.69162 0.97171 0.0
C109 C 0.47053 0.67408 1.00563 0.0
C110 C 0.45508 0.68542 0.07991 0.0
C111 C 0.46223 0.71222 0.12385 0.0
H112 H 0.54742 0.79356 0.01278 0.0
H113 H 0.55649 0.83343 0.94504 0.0
H114 H 0.53583 0.89092 0.17451 0.0
H115 H 0.52822 0.85064 0.24312 0.0
H116 H 0.48267 0.7522 0.38804 0.0
H117 H 0.49791 0.7232 0.48683 0.0
H118 H 0.59271 0.74164 0.44835 0.0
H119 H 0.57704 0.77023 0.34658 0.0
H120 H 0.51427 0.73081 0.98982 0.0
H121 H 0.50327 0.68382 0.91529 0.0
H122 H 0.43873 0.67303 0.10669 0.0
H123 H 0.45177 0.71957 0.18401 0.0
N124 N 0.50979 0.7745 0.1184 0.0
N125 N 0.53163 0.79236 0.24847 0.0
N126 N 0.50307 0.75071 0.22821 0.0
C127 C 0.52599 0.79479 0.16822 0.0
C128 C 0.51995 0.77011 0.27846 0.0
C129 C 0.49795 0.75264 0.14848 0.0
C130 C 0.53689 0.81902 0.13308 0.0
C131 C 0.54544 0.81475 0.04915 0.0
C132 C 0.55033 0.83767 0.01009 0.0
C133 C 0.54618 0.86555 0.05343 0.0
C134 C 0.5394 0.86982 0.13894 0.0
C135 C 0.53501 0.84674 0.1785 0.0
C136 C 0.52865 0.76338 0.35946 0.0
C137 C 0.50669 0.75105 0.40336 0.0
C138 C 0.51554 0.73431 0.46018 0.0
C139 C 0.54668 0.72944 0.47464 0.0
C140 C 0.56855 0.74437 0.43736 0.0
C141 C 0.5596 0.76123 0.38022 0.0
C142 C 0.48424 0.72853 0.09311 0.0
C143 C 0.49706 0.7187 0.01463 0.0
C144 C 0.20727 0.50784 0.11073 0.0
C145 C 0.19516 0.48731 0.04659 0.0
C146 C 0.2119 0.46191 0.02221 0.0
C147 C 0.23831 0.4562 0.06488 0.0
H148 H 0.3269 0.51732 0.36394 0.0
H149 H 0.36919 0.52802 0.46293 0.0
H150 H 0.40398 0.44272 0.38816 0.0
H151 H 0.36197 0.43224 0.29061 0.0
H152 H 0.28551 0.42088 0.44146 0.0
H153 H 0.24782 0.42461 0.55169 0.0
H154 H 0.17568 0.41623 0.36973 0.0
H155 H 0.2131 0.41124 0.26047 0.0
H156 H 0.2409 0.51718 0.20746 0.0
H157 H 0.19504 0.52761 0.13168 0.0
H158 H 0.20382 0.44578 0.97227 0.0
H159 H 0.24908 0.4355 0.04838 0.0
N160 N 0.29611 0.47558 0.22307 0.0
N161 N 0.29799 0.4434 0.31508 0.0
N162 N 0.2559 0.444 0.22903 0.0
C163 C 0.31137 0.46404 0.28223 0.0
C164 C 0.27021 0.4334 0.28966 0.0
C165 C 0.26835 0.46474 0.1949 0.0
C166 C 0.34131 0.47405 0.31846 0.0
C167 C 0.34439 0.50133 0.36615 0.0
C168 C 0.36846 0.50731 0.42364 0.0
C169 C 0.38972 0.48604 0.4351 0.0
C170 C 0.38776 0.45947 0.38265 0.0
C171 C 0.36392 0.45358 0.32553 0.0
C172 C 0.252 0.41826 0.34301 0.0
C173 C 0.26165 0.41826 0.42461 0.0
C174 C 0.23998 0.42059 0.48813 0.0
C175 C 0.20877 0.42321 0.47001 0.0
C176 C 0.19951 0.4156 0.38689 0.0
C177 C 0.22116 0.41287 0.32348 0.0
C178 C 0.24911 0.47573 0.13291 0.0
C179 C 0.23385 0.50205 0.15368 0.0
C180 C 1.0132 0.19563 0.01547 0.0
C181 C 0.04199 0.18247 0.01813 0.0
C182 C 0.06504 0.19736 0.06709 0.0
C183 C 0.05833 0.22325 0.11946 0.0
H184 H 1.006 0.34127 0.26987 0.0
H185 H 1.01177 0.38803 0.35813 0.0
H186 H 0.06576 0.35047 0.52978 0.0
H187 H 0.05921 0.30378 0.44273 0.0
H188 H 0.98123 0.26418 0.49399 0.0
H189 H 0.96142 0.23177 0.57827 0.0
H190 H 0.93835 0.17274 0.35554 0.0
H191 H 0.95684 0.20529 0.27216 0.0
H192 H 0.98316 0.22933 0.07148 0.0
H193 H 0.99483 0.18483 0.97901 0.0
H194 H 0.08761 0.18801 0.06955 0.0
H195 H 0.07553 0.23273 0.1629 0.0
N196 N 0.02976 0.27776 0.23433 0.0
N197 N 1.00159 0.27831 0.35735 0.0
N198 N 0.99779 0.24011 0.24753 0.0
C199 C 1.02116 0.29106 0.31203 0.0
C200 C 0.98962 0.25285 0.32505 0.0
C201 C 1.01768 0.25214 0.20194 0.0
C202 C 0.03247 0.31916 0.34938 0.0
C203 C 1.02012 0.34329 0.3247 0.0
C204 C 0.02325 0.36992 0.37538 0.0
C205 C 0.03919 0.37279 0.45071 0.0
C206 C 0.05369 0.3489 0.47161 0.0
C207 C 0.04999 0.32223 0.42189 0.0
C208 C 0.97136 0.237 0.37634 0.0
C209 C 0.97105 0.24467 0.46317 0.0
C210 C 0.95989 0.22599 0.51147 0.0
C211 C 0.94891 0.19936 0.47376 0.0
C212 C 0.94651 0.19304 0.38703 0.0
C213 C 0.95749 0.21168 0.33895 0.0
C214 C 0.02847 0.23449 0.1239 0.0
C215 C 1.00649 0.2213 0.06815 0.0
C216 C 0.33799 0.00476 0.11126 0.0
C217 C 0.34921 0.0253 0.06813 0.0
C218 C 0.33145 0.04998 0.06991 0.0
C219 C 0.30472 0.05498 0.11787 0.0
H220 H 0.23675 0.0012 0.42366 0.0
H221 H 0.19694 0.98926 0.5159 0.0
H222 H 0.1322 0.04154 0.41284 0.0
H223 H 0.17209 0.05317 0.32083 0.0
H224 H 0.26169 0.08962 0.5226 0.0
H225 H 0.30888 0.09545 0.59876 0.0
H226 H 0.3506 0.13031 0.40272 0.0
H227 H 0.30321 0.12376 0.32508 0.0
H228 H 0.30449 0.99476 0.19773 0.0
H229 H 0.351 0.98548 0.11151 0.0
H230 H 0.3388 0.06604 0.03633 0.0
H231 H 0.29286 0.07509 0.12148 0.0
N232 N 0.24978 0.03087 0.26098 0.0
N233 N 0.24097 0.0675 0.37659 0.0
N234 N 0.28008 0.07149 0.28329 0.0
C235 C 0.23289 0.04228 0.33034 0.0
C236 C 0.26455 0.08225 0.35361 0.0
C237 C 0.27327 0.04613 0.23648 0.0
C238 C 0.20737 0.02744 0.36308 0.0
C239 C 0.21365 0.00905 0.41818 0.0
C240 C 0.1909 0.0027 0.47229 0.0
C241 C 0.16121 0.01467 0.47306 0.0
C242 C 0.15454 0.03165 0.41401 0.0
C243 C 0.17738 0.03815 0.36049 0.0
C244 C 0.27979 0.10397 0.41498 0.0
C245 C 0.28018 0.10026 0.49774 0.0
C246 C 0.30754 0.10366 0.54185 0.0
C247 C 0.33413 0.11118 0.50329 0.0
C248 C 0.33078 0.123 0.43179 0.0
C249 C 0.3035 0.11935 0.38735 0.0
C250 C 0.29464 0.03554 0.16596 0.0
C251 C 0.31106 0.00988 0.15998 0.0
C252 C 0.55286 0.33669 0.50852 0.0
C253 C 0.55796 0.34004 0.59416 0.0
C254 C 0.557 0.31598 0.63137 0.0
C255 C 0.54858 0.28977 0.58534 0.0
H256 H 0.50407 0.21829 0.61734 0.0
H257 H 0.50181 0.17917 0.69064 0.0
H258 H 0.4901 0.12112 0.45887 0.0
H259 H 0.49196 0.1608 0.38445 0.0
H260 H 0.44182 0.24304 0.28933 0.0
H261 H 0.42482 0.27145 0.18868 0.0
H262 H 0.51827 0.27481 0.10505 0.0
H263 H 0.53445 0.2457 0.20245 0.0
H264 H 0.53978 0.30929 0.39745 0.0
H265 H 0.55302 0.35462 0.47746 0.0
H266 H 0.5615 0.31763 0.69686 0.0
H267 H 0.54651 0.27202 0.61674 0.0
N268 N 0.52049 0.23906 0.49176 0.0
N269 N 0.49453 0.21654 0.37221 0.0
N270 N 0.51746 0.26059 0.37646 0.0
C271 C 0.50458 0.21655 0.45114 0.0
C272 C 0.50137 0.23873 0.33477 0.0
C273 C 0.52705 0.26112 0.4547 0.0
C274 C 0.49876 0.19268 0.49462 0.0
C275 C 0.50078 0.19726 0.58155 0.0
C276 C 0.49957 0.17477 0.62382 0.0
C277 C 0.49647 0.14691 0.58061 0.0
C278 C 0.49256 0.14235 0.49403 0.0
C279 C 0.49366 0.16506 0.45136 0.0
C280 C 0.48942 0.24213 0.25339 0.0
C281 C 0.45826 0.2484 0.2456 0.0
C282 C 0.44872 0.2653 0.18916 0.0
C283 C 0.47025 0.2764 0.1402 0.0
C284 C 0.50081 0.26687 0.14102 0.0
C285 C 0.51021 0.2499 0.19681 0.0
C286 C 0.54128 0.28706 0.50101 0.0
C287 C 0.54485 0.31055 0.46252 0.0
Tb288 Tb 1.00395 0.01119 0.80325 0.0
Tb289 Tb 0.0614 -0.0 0.92159 0.0
C290 C 0.99396 0.00127 0.98799 0.0
C291 C 0.95583 0.04845 0.67608 0.0
C292 C 0.94863 0.09952 0.61812 0.0
C293 C 0.92289 0.08484 0.63763 0.0
C294 C 0.9265 0.0595 0.66668 0.0
C295 C 0.9815 0.06261 0.65451 0.0
C296 C 0.97794 0.08781 0.62535 0.0
C297 C 0.95985 0.02457 0.71882 0.0
O298 O 0.02801 0.05093 0.83198 0.0
O299 O 0.05006 0.04491 0.95377 0.0
O300 O 0.08181 0.01335 0.81393 0.0
O301 O 0.0434 0.00222 0.71922 0.0
O302 O 0.08269 0.00607 0.03789 0.0
O303 O 0.10559 0.98307 0.92881 0.0
O304 O 0.04958 0.95852 0.85223 0.0
O305 O 1.00124 0.96632 0.80432 0.0
O306 O 0.98598 0.01526 0.92965 0.0
O307 O 1.02112 0.98916 0.98742 0.0
C308 C 0.04093 0.06133 0.90284 0.0
O309 O 0.98081 0.00583 0.68931 0.0
O310 O 0.96169 0.0319 0.79889 0.0
C311 C 0.07227 0.00795 0.73678 0.0
C312 C 0.11425 0.96684 0.05293 0.0
C313 C 0.12894 0.91992 0.12591 0.0
C314 C 0.14932 0.92871 0.07003 0.0
C315 C 0.14209 0.9521 0.03424 0.0
C316 C 0.09402 0.95824 0.10952 0.0
C317 C 0.10138 0.93509 0.14592 0.0
C318 C 0.10603 0.98996 0.00932 0.0
C319 C 0.02356 0.94928 0.81815 0.0
H320 H 0.90005 0.09339 0.63306 0.0
H321 H 0.90648 0.04903 0.68445 0.0
H322 H 1.00438 0.0546 0.66242 0.0
H323 H 0.99821 0.09825 0.60914 0.0
H324 H 0.17074 0.91744 0.05388 0.0
H325 H 0.15799 0.95837 0.99062 0.0
H326 H 0.07224 0.96899 0.12451 0.0
H327 H 0.08505 0.92851 0.18789 0.0
Tb328 Tb 0.50915 0.98854 0.7448 0.0
Tb329 Tb 0.53861 0.02868 0.90409 0.0
C330 C 0.53728 0.9614 0.8862 0.0
C331 C 0.45749 0.98092 0.5788 0.0
C332 C 0.42117 0.02638 0.54624 0.0
C333 C 0.41192 0.01074 0.6058 0.0
C334 C 0.42985 0.98823 0.62189 0.0
C335 C 0.46495 0.99458 0.51303 0.0
C336 C 0.44707 0.01723 0.49724 0.0
C337 C 0.48184 0.96591 0.61643 0.0
O338 O 0.47528 0.99224 0.84492 0.0
O339 O 0.48905 0.03511 0.91951 0.0
O340 O 0.53441 0.05461 0.8099 0.0
O341 O 0.49437 0.03164 0.74115 0.0
O342 O 0.5415 0.04079 0.03365 0.0
O343 O 0.56805 0.06164 0.95333 0.0
O344 O 0.57829 0.00759 0.83718 0.0
O345 O 0.55655 0.99477 0.70936 0.0
O346 O 0.53139 0.95773 0.80648 0.0
O347 O 0.53693 0.98654 0.93412 0.0
C348 C 0.46885 0.01491 0.90086 0.0
O349 O 0.50876 0.97701 0.61514 0.0
O350 O 0.4759 0.95995 0.68905 0.0
C351 C 0.5119 0.05375 0.75714 0.0
C352 C 0.59463 0.04321 0.05619 0.0
C353 C 0.64169 0.00288 0.05883 0.0
C354 C 0.64541 0.02466 0.01382 0.0
C355 C 0.62222 0.04481 0.01312 0.0
C356 C 0.5926 0.02349 0.10907 0.0
C357 C 0.61583 0.00339 0.10992 0.0
C358 C 0.56622 0.05502 0.02657 0.0
C359 C 0.58089 -0.0007 0.75663 0.0
H360 H 0.39138 0.01655 0.64233 0.0
H361 H 0.42315 0.97807 0.6725 0.0
H362 H 0.4861 0.98944 0.47872 0.0
H363 H 0.45468 0.02866 0.45032 0.0
H364 H 0.6653 0.0251 0.97474 0.0
H365 H 0.62478 0.0599 0.97239 0.0
H366 H 0.57188 0.02188 0.14401 0.0
H367 H 0.61291 0.98751 0.14792 0.0
Tb368 Tb 0.49706 0.49209 0.88446 0.0
Tb369 Tb 0.54398 0.52064 0.76563 0.0
C370 C 0.4787 0.5013 0.70555 0.0
C371 C 0.46074 0.43781 0.98868 0.0
C372 C 0.4572 0.3826 0.02464 0.0
C373 C 0.45483 0.40669 0.08813 0.0
C374 C 0.45646 0.43388 0.07024 0.0
C375 C 0.46309 0.41397 0.92475 0.0
C376 C 0.46121 0.38666 0.94251 0.0
C377 C 0.46356 0.46691 0.9729 0.0
O378 O 0.53077 0.45982 0.83712 0.0
O379 O 0.54721 0.47522 0.72017 0.0
O380 O 0.57125 0.50845 0.86499 0.0
O381 O 0.53347 0.51325 0.96284 0.0
O382 O 0.558 0.52773 0.64842 0.0
O383 O 0.58179 0.54643 0.7597 0.0
O384 O 0.52155 0.55543 0.84731 0.0
O385 O 0.47927 0.53489 0.89504 0.0
O386 O 0.47953 0.4834 0.75716 0.0
O387 O 0.49847 0.52184 0.71207 0.0
C388 C 0.54384 0.45515 0.7638 0.0
O389 O 0.45595 0.47144 0.8999 0.0
O390 O 0.4886 0.47983 0.99867 0.0
C391 C 0.56269 0.51192 0.94305 0.0
C392 C 0.57569 0.57445 0.65672 0.0
C393 C 0.57062 0.62777 0.60791 0.0
C394 C 0.56433 0.62502 0.69009 0.0
C395 C 0.56664 0.59868 0.71406 0.0
C396 C 0.58219 0.57707 0.57498 0.0
C397 C 0.57957 0.60336 0.5507 0.0
C398 C 0.57796 0.5464 0.68102 0.0
C399 C 0.49443 0.55704 0.88238 0.0
H400 H 0.45251 0.40466 0.15233 0.0
H401 H 0.45483 0.45194 0.12061 0.0
H402 H 0.46658 0.4164 0.86121 0.0
H403 H 0.46288 0.36876 0.89177 0.0
H404 H 0.55772 0.64324 0.73631 0.0
H405 H 0.56128 0.59733 0.77757 0.0
H406 H 0.58898 0.55867 0.52953 0.0
H407 H 0.58397 0.60436 0.48647 0.0
Tb408 Tb 0.02744 0.52992 0.80192 0.0
Tb409 Tb 1.00317 0.48331 0.90367 0.0
C410 C 1.00425 0.54794 0.9804 0.0
C411 C 0.08365 0.55296 0.68043 0.0
C412 C 0.13001 0.51326 0.62245 0.0
C413 C 0.10826 0.52076 0.56733 0.0
C414 C 0.08545 0.54077 0.5959 0.0
C415 C 0.10804 0.54839 0.73259 0.0
C416 C 0.131 0.52856 0.7038 0.0
C417 C 0.05316 0.56064 0.71708 0.0
O418 O 0.0651 0.52397 0.88491 0.0
O419 O 0.05315 0.48012 0.90832 0.0
O420 O 1.00201 0.46468 0.7731 0.0
O421 O 0.04334 0.4881 0.73971 0.0
O422 O 0.97633 0.47212 0.99797 0.0
O423 O 1.00727 0.44183 0.92476 0.0
O424 O 0.96095 0.49807 0.85237 0.0
O425 O 0.9806 0.52288 0.75745 0.0
O426 O 1.00132 0.55325 0.90541 0.0
O427 O 1.01148 0.52236 0.99164 0.0
C428 C 0.07283 0.50064 0.91073 0.0
O429 O 0.03193 0.54283 0.68755 0.0
O430 O 0.05181 0.56704 0.79788 0.0
C431 C 0.02481 0.46671 0.72324 0.0
C432 C 0.96176 0.42462 0.9708 0.0
C433 C 0.91076 0.38945 0.96516 0.0
C434 C 0.91719 0.40314 0.89862 0.0
C435 C 0.94246 0.42075 0.90165 0.0
C436 C 0.95688 0.40938 0.03394 0.0
C437 C 0.93163 0.39193 0.03126 0.0
C438 C 0.98575 0.44581 0.98087 0.0
C439 C 0.95746 0.5112 0.78917 0.0
H440 H 0.10772 0.50982 0.50343 0.0
H441 H 0.06716 0.54406 0.55417 0.0
H442 H 0.10767 0.55766 0.79795 0.0
H443 H 0.1479 0.52348 0.74707 0.0
H444 H 0.90181 0.40147 0.84643 0.0
H445 H 0.94618 0.43227 0.85193 0.0
H446 H 0.97172 0.41209 0.0875 0.0
H447 H 0.92731 0.38219 0.08433 0.0
C448 C 0.10675 0.00874 0.52216 0.0
C449 C 0.13827 0.01155 0.53934 0.0
H450 H 0.06141 0.0052 0.56966 0.0
C451 C 0.14763 0.01278 0.62194 0.0
H452 H 0.09855 0.00755 0.45949 0.0
C453 C 0.12631 0.01157 0.6852 0.0
C454 C 0.09481 0.00891 0.66824 0.0
H455 H 0.1715 0.01543 0.63842 0.0
H456 H 0.13464 0.01285 0.74779 0.0
C457 C 0.08539 0.00729 0.58552 0.0
C458 C 0.48039 0.09938 0.60951 0.0
C459 C 0.49958 0.12294 0.62597 0.0
H460 H 0.46883 0.0593 0.6393 0.0
C461 C 0.52234 0.1236 0.68668 0.0
H462 H 0.4625 0.09827 0.56359 0.0
C463 C 0.52593 0.1014 0.72978 0.0
C464 C 0.50687 0.07781 0.7135 0.0
H465 H 0.53788 0.14115 0.70006 0.0
H466 H 0.54396 0.10266 0.77536 0.0
C467 C 0.48392 0.07712 0.65316 0.0
C468 C 0.42928 0.51548 0.52486 0.0
C469 C 0.4124 0.49048 0.5049 0.0
H470 H 0.46351 0.53842 0.60252 0.0
C471 C 0.41722 0.4694 0.55282 0.0
H472 H 0.42627 0.53214 0.48946 0.0
C473 C 0.43834 0.47305 0.61805 0.0
C474 C 0.45561 0.49781 0.63719 0.0
H475 H 0.40435 0.45005 0.54047 0.0
H476 H 0.4413 0.45627 0.65305 0.0
C477 C 0.45075 0.519 0.58963 0.0
C478 C 1.00709 0.40962 0.53957 0.0
C479 C 0.03635 0.39917 0.51357 0.0
H480 H 0.98066 0.43895 0.62711 0.0
C481 C 0.06213 0.41224 0.55414 0.0
H482 H 0.98685 0.39969 0.51018 0.0
C483 C 0.05857 0.43513 0.62045 0.0
C484 C 0.0292 0.44465 0.64848 0.0
H485 H 0.08492 0.40442 0.53554 0.0
H486 H 0.07866 0.44454 0.65209 0.0
C487 C 1.00355 0.4319 0.60688 0.0
C488 C 0.91988 0.00753 0.11522 0.0
C489 C 0.92745 0.99378 0.18122 0.0
H490 H 0.93437 0.02057 1.00367 0.0
C491 C 0.95769 0.98333 0.18416 0.0
H492 H 0.89688 0.01547 0.10917 0.0
C493 C 0.97928 0.98595 0.12243 0.0
C494 C 0.97144 -0.00079 0.05575 0.0
H495 H 0.96478 0.97295 0.23416 0.0
H496 H 1.00212 0.97737 0.12681 0.0
C497 C 0.94147 0.01023 0.05378 0.0
C498 C 0.55725 0.91645 0.04602 0.0
C499 C 0.54653 0.88975 1.00811 0.0
H500 H 0.563 0.95987 0.03715 0.0
C501 C 0.53461 0.8866 0.92727 0.0
H502 H 0.56709 0.91965 0.10741 0.0
C503 C 0.53276 0.90956 0.88641 0.0
C504 C 0.54237 0.93641 0.92562 0.0
H505 H 0.52557 0.8666 0.89629 0.0
H506 H 0.52267 0.90645 0.82528 0.0
C507 C 0.55506 0.93951 1.00544 0.0
C508 C 0.63999 0.51195 0.05153 0.0
C509 C 0.63159 0.51317 0.13503 0.0
H510 H 0.62528 0.51053 0.92638 0.0
C511 C 0.60016 0.51512 0.15493 0.0
H512 H 0.6638 0.50997 0.03299 0.0
C513 C 0.57792 0.51525 0.09326 0.0
C514 C 0.58636 0.51336 0.00959 0.0
H515 H 0.59265 0.5164 0.21837 0.0
H516 H 0.55404 0.51643 0.11122 0.0
C517 C 0.61776 0.51202 0.9899 0.0
C518 C 0.99676 0.62211 0.10761 0.0
C519 C 1.01245 0.61923 0.18014 0.0
H520 H 0.98191 0.6018 0.98711 0.0
C521 C 1.02244 0.5922 0.18992 0.0
H522 H 0.98905 0.64275 0.09821 0.0
C523 C 1.01812 0.56872 0.12684 0.0
C524 C 1.00419 0.57186 0.05195 0.0
H525 H 0.03455 0.58941 0.24535 0.0
H526 H 0.02712 0.54839 0.13524 0.0
C527 C 0.99286 0.59869 0.04385 0.0
C528 C 0.92233 0.15581 0.49957 0.0
C529 C 0.9446 0.17659 0.52227 0.0
H530 H 0.90636 0.11491 0.51106 0.0
C531 C 0.96579 0.17318 0.584 0.0
H532 H 0.90537 0.15798 0.45316 0.0
C533 C 0.96605 0.14875 0.61794 0.0
C534 C 0.94533 0.12701 0.5905 0.0
H535 H 0.98346 0.18855 0.60269 0.0
H536 H 0.98324 0.14648 0.66371 0.0
C537 C 0.92275 0.13121 0.53317 0.0
C538 C 0.37808 0.07994 0.44781 0.0
C539 C 0.3632 0.09645 0.51691 0.0
H540 H 0.40721 0.04444 0.40267 0.0
C541 C 0.37155 0.0926 0.59655 0.0
H542 H 0.37203 0.08191 0.38526 0.0
C543 C 0.39183 0.07078 0.60634 0.0
C544 C 0.40399 0.05235 0.53666 0.0
H545 H 0.36075 0.10511 0.65094 0.0
H546 H 0.39689 0.06753 0.66839 0.0
C547 C 0.39814 0.05809 0.45759 0.0
C548 C 0.57334 0.39109 0.61298 0.0
C549 C 0.55996 0.36896 0.64506 0.0
H550 H 0.57866 0.43584 0.62502 0.0
C551 C 0.54472 0.37545 0.72182 0.0
H552 H 0.58588 0.38684 0.55498 0.0
C553 C 0.54117 0.4034 0.76258 0.0
C554 C 0.55238 0.42565 0.72711 0.0
H555 H 0.53373 0.35918 0.74825 0.0
H556 H 0.52803 0.40756 0.81964 0.0
C557 C 0.56934 0.41919 0.65322 0.0
C558 C 0.15648 0.43968 0.52358 0.0
C559 C 0.18843 0.44219 0.52923 0.0
H560 H 0.11304 0.46074 0.54651 0.0
C561 C 0.20057 0.467 0.57692 0.0
H562 H 0.14626 0.42073 0.48917 0.0
C563 C 0.18147 0.4897 0.61059 0.0
C564 C 0.14995 0.48818 0.5966 0.0
H565 H 0.22499 0.47008 0.58239 0.0
H566 H 0.19156 0.50909 0.64274 0.0
C567 C 0.13747 0.46262 0.55592 0.0
C568 C 0.13189 0.86972 0.27652 0.0
C569 C 0.13916 0.84383 0.22415 0.0
H570 H 0.12331 0.91405 0.28653 0.0
C571 C 0.14627 0.84377 0.14064 0.0
H572 H 0.1258 0.87057 0.34087 0.0
C573 C 0.14455 0.86884 0.10937 0.0
C574 C 0.13545 0.89432 0.16096 0.0
H575 H 0.15209 0.8242 0.0989 0.0
H576 H 0.14877 0.86802 0.04398 0.0
C577 C 0.13004 0.89464 0.24526 0.0
C578 C 0.6763 0.93 0.05328 0.0
C579 C 0.70756 0.93618 0.06164 0.0
H580 H 0.63083 0.94636 0.04567 0.0
C581 C 0.71708 0.96362 0.05632 0.0
H582 H 0.66825 0.90904 0.05607 0.0
C583 C 0.69573 0.98498 0.05164 0.0
C584 C 0.66439 0.97942 0.05176 0.0
H585 H 0.74086 0.96946 0.06371 0.0
H586 H 0.70379 0.00625 0.0538 0.0
C587 C 0.65489 0.95145 0.04854 0.0
C588 C 0.46734 0.62336 0.02311 0.0
C589 C 0.46951 0.64324 0.97029 0.0
H590 H 0.47295 0.58001 0.03566 0.0
C591 C 0.47509 0.63326 0.88538 0.0
H592 H 0.46352 0.63001 0.08901 0.0
C593 C 0.4816 0.60471 0.85597 0.0
C594 C 0.48145 0.58543 0.9101 0.0
H595 H 0.476 0.64764 0.84215 0.0
H596 H 0.48792 0.59784 0.79143 0.0
C597 C 0.47293 0.59463 0.99294 0.0
C598 C 0.82624 0.39034 0.99737 0.0
C599 C 0.82404 0.37206 0.05454 0.0
H600 H 0.85577 0.41021 0.92363 0.0
C601 C 0.84837 0.35305 0.05952 0.0
H602 H 0.80798 0.40521 0.99109 0.0
C603 C 0.87618 0.35593 0.02005 0.0
C604 C 0.87995 0.37787 0.97533 0.0
H605 H 0.84705 0.3381 0.10105 0.0
H606 H 0.89552 0.34295 0.0317 0.0
C607 C 0.85397 0.39327 0.9583 0.0
C608 C 0.0598 0.13347 0.02821 0.0
C609 C 0.04595 0.15185 0.98152 0.0
H610 H 0.06903 0.09072 0.04045 0.0
C611 C 0.03251 0.14016 0.90527 0.0
H612 H 0.06992 0.14162 0.08784 0.0
C613 C 0.03176 0.11081 0.8783 0.0
C614 C 0.0443 0.09244 0.92717 0.0
H615 H 1.02181 0.15369 0.86749 0.0
H616 H 1.02049 0.10255 0.82036 0.0
C617 C 0.05897 0.10417 1.00144 0.0
C618 C 0.38993 0.99648 0.97655 0.0
C619 C 0.38 0.02222 0.02559 0.0
H620 H 0.42514 0.97406 0.89817 0.0
C621 C 0.39985 0.0454 0.03369 0.0
H622 H 0.37536 0.97819 0.96844 0.0
C623 C 0.42854 0.04302 0.99395 0.0
C624 C 0.4383 0.01743 0.94394 0.0
H625 H 0.39336 0.06548 0.07182 0.0
H626 H 0.443 0.06137 1.00215 0.0
C627 C 0.41851 0.99419 0.93583 0.0
C628 C 0.44204 0.32238 0.13934 0.0
C629 C 0.46243 0.3011 0.1001 0.0
H630 H 0.42364 0.36405 0.14518 0.0
C631 C 0.4783 0.30576 0.02928 0.0
H632 H 0.4295 0.31997 0.19437 0.0
C633 C 0.47572 0.33169 1.00266 0.0
C634 C 0.45684 0.35361 0.04537 0.0
H635 H 0.49374 0.28977 0.9961 0.0
H636 H 0.48975 0.33494 0.95103 0.0
C637 C 0.43913 0.3481 0.11202 0.0
C638 C 0.14364 0.46829 0.99509 0.0
C639 C 0.1641 0.49102 0.00995 0.0
H640 H 0.09939 0.4534 0.95324 0.0
C641 C 0.1542 0.51706 0.99116 0.0
H642 H 0.15004 0.44802 0.0099 0.0
C643 C 0.12488 0.52015 0.9581 0.0
C644 C 0.1044 0.4974 0.94394 0.0
H645 H 0.16922 0.53504 1.00129 0.0
H646 H 0.11818 0.5405 0.94438 0.0
C647 C 0.11433 0.47144 0.96296 0.0
C648 C 0.03656 0.87039 0.7972 0.0
C649 C 1.02087 0.85972 0.72338 0.0
H650 H 0.05002 0.90701 0.88428 0.0
C651 C 1.00296 0.8787 0.68721 0.0
H652 H 0.0499 0.85647 0.82844 0.0
C653 C 1.00241 0.90767 0.72079 0.0
C654 C 1.02019 0.91841 0.79037 0.0
H655 H 0.9908 0.87156 0.62998 0.0
H656 H 0.98954 0.92184 0.68926 0.0
C657 C 0.03657 0.89939 0.82956 0.0
C658 C 0.64488 0.97411 0.60032 0.0
C659 C 0.67109 0.98639 0.64085 0.0
H660 H 0.59635 0.96868 0.6039 0.0
C661 C 0.6674 0.0033 0.72007 0.0
H662 H 0.64684 0.96103 0.53919 0.0
C663 C 0.63831 0.00726 0.75826 0.0
C664 C 0.61207 0.99493 0.7174 0.0
H665 H 0.68709 0.01294 0.75322 0.0
H666 H 0.63634 0.02019 0.81955 0.0
C667 C 0.61585 0.97852 0.63753 0.0
C668 C 0.58045 0.68775 0.48852 0.0
C669 C 0.55586 0.70604 0.51838 0.0
H670 H 0.60484 0.64934 0.49413 0.0
C671 C 0.53792 0.69956 0.58335 0.0
H672 H 0.59467 0.69172 0.43806 0.0
C673 C 0.54319 0.67467 0.61386 0.0
C674 C 0.56683 0.65565 0.58105 0.0
H675 H 0.51907 0.71329 0.60901 0.0
H676 H 0.52783 0.66985 0.66086 0.0
C677 C 0.58594 0.66301 0.51967 0.0
C678 C 0.89467 0.52186 0.63511 0.0
C679 C 0.87037 0.50612 0.65851 0.0
H680 H 0.94076 0.53587 0.65714 0.0
C681 C 0.8744 0.49382 0.72933 0.0
H682 H 0.89279 0.53142 0.5807 0.0
C683 C 0.90212 0.49623 0.7732 0.0
C684 C 0.92681 0.51106 0.74786 0.0
H685 H 0.85621 0.48188 0.75046 0.0
H686 H 0.90439 0.48581 0.82588 0.0
C687 C 0.92242 0.52425 0.67893 0.0
loop_
_geom_bond_atom_site_label_1
_geom_bond_atom_site_label_2
_geom_bond_distance
_geom_bond_site_symmetry_2
_ccdc_geom_bond_type
C0 C1 1.384 . S
C0 H13 0.947 . S
C0 C35 1.382 . S
C1 C0 1.384 . S
C1 C2 1.378 . S
C2 C1 1.378 . S
C2 C3 1.378 . S
C2 H14 0.952 . S
C3 C2 1.378 . S
C3 H15 0.950 . S
C3 C34 1.383 . S
H4 C23 0.947 . S
H5 C24 0.946 . S
H6 C26 0.953 . S
H7 C27 0.945 . S
H8 C29 0.952 . S
H9 C30 0.949 . S
H10 C32 0.950 . S
H11 C33 0.948 . S
H12 C35 0.951 . S
H13 C0 0.947 . S
H14 C2 0.952 . S
H15 C3 0.950 . S
N16 C19 1.382 . S
N16 C21 1.363 . S
N17 C19 1.371 . S
N17 C20 1.372 . S
N18 C20 1.361 . S
N18 C21 1.377 . S
C19 N16 1.382 . S
C19 N17 1.371 . S
C19 C22 1.480 . S
C20 N17 1.372 . S
C20 N18 1.361 . S
C20 C28 1.457 . S
C21 N16 1.363 . S
C21 N18 1.377 . S
C21 C34 1.479 . S
C22 C19 1.480 . S
C22 C23 1.383 . S
C22 C27 1.385 . S
C23 H4 0.947 . S
C23 C22 1.383 . S
C23 C24 1.388 . S
C24 H5 0.946 . S
C24 C23 1.388 . S
C24 C25 1.384 . S
C25 C24 1.384 . S
C25 C26 1.377 . S
C26 H6 0.953 . S
C26 C25 1.377 . S
C26 C27 1.369 . S
C27 H7 0.945 . S
C27 C22 1.385 . S
C27 C26 1.369 . S
C28 C20 1.457 . S
C28 C29 1.372 . S
C28 C33 1.364 . S
C29 H8 0.952 . S
C29 C28 1.372 . S
C29 C30 1.389 . S
C30 H9 0.949 . S
C30 C29 1.389 . S
C30 C31 1.387 . S
C31 C30 1.387 . S
C31 C32 1.372 . S
C32 H10 0.950 . S
C32 C31 1.372 . S
C32 C33 1.379 . S
C33 H11 0.948 . S
C33 C28 1.364 . S
C33 C32 1.379 . S
C34 C3 1.383 . S
C34 C21 1.479 . S
C34 C35 1.398 . S
C35 C0 1.382 . S
C35 H12 0.951 . S
C35 C34 1.398 . S
C36 C37 1.384 1_655 S
C36 H49 0.948 . S
C36 C71 1.382 1_655 S
C37 C36 1.384 1_455 S
C37 C38 1.378 . S
C38 C37 1.378 . S
C38 C39 1.378 . S
C38 H50 0.952 . S
C39 C38 1.378 . S
C39 H51 0.950 . S
C39 C70 1.383 . S
H40 C59 0.947 . S
H41 C60 0.952 . S
H42 C62 0.953 . S
H43 C63 0.945 . S
H44 C65 0.948 1_655 S
H45 C66 0.949 . S
H46 C68 0.950 . S
H47 C69 0.948 . S
H48 C71 0.951 1_655 S
H49 C36 0.948 . S
H50 C38 0.952 . S
H51 C39 0.950 . S
N52 C55 1.382 . S
N52 C57 1.363 . S
N53 C55 1.371 . S
N53 C56 1.372 . S
N54 C56 1.361 . S
N54 C57 1.377 . S
C55 N52 1.382 . S
C55 N53 1.371 . S
C55 C58 1.480 . S
C56 N53 1.372 . S
C56 N54 1.361 . S
C56 C64 1.457 . S
C57 N52 1.363 . S
C57 N54 1.377 . S
C57 C70 1.479 . S
C58 C55 1.480 . S
C58 C59 1.383 . S
C58 C63 1.385 . S
C59 H40 0.947 . S
C59 C58 1.383 . S
C59 C60 1.385 1_455 S
C60 H41 0.952 . S
C60 C59 1.385 1_655 S
C60 C61 1.381 1_655 S
C61 C60 1.381 1_455 S
C61 C62 1.377 . S
C62 H42 0.953 . S
C62 C61 1.377 . S
C62 C63 1.369 . S
C63 H43 0.945 . S
C63 C58 1.385 . S
C63 C62 1.369 . S
C64 C56 1.457 . S
C64 C65 1.377 . S
C64 C69 1.364 . S
C65 H44 0.948 1_455 S
C65 C64 1.377 . S
C65 C66 1.388 1_455 S
C66 H45 0.949 . S
C66 C65 1.388 1_655 S
C66 C67 1.387 1_655 S
C67 C66 1.387 1_455 S
C67 C68 1.372 . S
C68 H46 0.950 . S
C68 C67 1.372 . S
C68 C69 1.379 . S
C69 H47 0.948 . S
C69 C64 1.364 . S
C69 C68 1.379 . S
C70 C39 1.383 . S
C70 C57 1.479 . S
C70 C71 1.398 . S
C71 C36 1.382 1_455 S
C71 H48 0.951 1_455 S
C71 C70 1.398 . S
C72 C73 1.384 1_565 S
C72 H85 0.948 . S
C72 C107 1.381 1_565 S
C73 C72 1.384 1_545 S
C73 C74 1.378 . S
C74 C73 1.378 . S
C74 C75 1.378 . S
C74 H86 0.952 . S
C75 C74 1.378 . S
C75 H87 0.950 . S
C75 C106 1.383 . S
H76 C95 0.947 . S
H77 C96 0.955 . S
H78 C98 0.953 . S
H79 C99 0.945 . S
H80 C101 0.950 1_565 S
H81 C102 0.949 . S
H82 C104 0.950 . S
H83 C105 0.948 . S
H84 C107 0.951 1_565 S
H85 C72 0.948 . S
H86 C74 0.952 . S
H87 C75 0.950 . S
N88 C91 1.382 . S
N88 C93 1.363 . S
N89 C91 1.371 . S
N89 C92 1.372 . S
N90 C92 1.361 . S
N90 C93 1.377 . S
C91 N88 1.382 . S
C91 N89 1.371 . S
C91 C94 1.480 . S
C92 N89 1.372 . S
C92 N90 1.361 . S
C92 C100 1.457 . S
C93 N88 1.363 . S
C93 N90 1.377 . S
C93 C106 1.479 . S
C94 C91 1.480 . S
C94 C95 1.383 . S
C94 C99 1.385 . S
C95 H76 0.947 . S
C95 C94 1.383 . S
C95 C96 1.388 1_545 S
C96 H77 0.955 . S
C96 C95 1.388 1_565 S
C96 C97 1.376 1_565 S
C97 C96 1.376 1_545 S
C97 C98 1.377 . S
C98 H78 0.953 . S
C98 C97 1.377 . S
C98 C99 1.369 . S
C99 H79 0.945 . S
C99 C94 1.385 . S
C99 C98 1.369 . S
C100 C92 1.457 . S
C100 C101 1.372 . S
C100 C105 1.364 . S
C101 H80 0.950 1_545 S
C101 C100 1.372 . S
C101 C102 1.390 1_545 S
C102 H81 0.949 . S
C102 C101 1.390 1_565 S
C102 C103 1.387 1_565 S
C103 C102 1.387 1_545 S
C103 C104 1.372 . S
C104 H82 0.950 . S
C104 C103 1.372 . S
C104 C105 1.379 . S
C105 H83 0.948 . S
C105 C100 1.364 . S
C105 C104 1.379 . S
C106 C75 1.383 . S
C106 C93 1.479 . S
C106 C107 1.398 . S
C107 C72 1.381 1_545 S
C107 H84 0.951 1_545 S
C107 C106 1.398 . S
C108 C109 1.384 . S
C108 H121 0.947 . S
C108 C143 1.382 . S
C109 C108 1.384 . S
C109 C110 1.378 . S
C110 C109 1.378 . S
C110 C111 1.378 . S
C110 H122 0.952 . S
C111 C110 1.378 . S
C111 H123 0.950 . S
C111 C142 1.383 . S
H112 C131 0.947 . S
H113 C132 0.946 . S
H114 C134 0.953 . S
H115 C135 0.945 . S
H116 C137 0.952 . S
H117 C138 0.949 . S
H118 C140 0.950 . S
H119 C141 0.948 . S
H120 C143 0.951 . S
H121 C108 0.947 . S
H122 C110 0.952 . S
H123 C111 0.950 . S
N124 C127 1.382 . S
N124 C129 1.363 . S
N125 C127 1.371 1_554 S
N125 C128 1.372 . S
N126 C128 1.361 . S
N126 C129 1.377 1_554 S
C127 N124 1.382 . S
C127 N125 1.371 1_556 S
C127 C130 1.480 . S
C128 N125 1.372 . S
C128 N126 1.361 . S
C128 C136 1.457 . S
C129 N124 1.363 . S
C129 N126 1.377 1_556 S
C129 C142 1.479 . S
C130 C127 1.480 . S
C130 C131 1.383 . S
C130 C135 1.385 1_556 S
C131 H112 0.947 . S
C131 C130 1.383 . S
C131 C132 1.388 . S
C132 H113 0.946 . S
C132 C131 1.388 . S
C132 C133 1.384 . S
C133 C132 1.384 . S
C133 C134 1.377 1_556 S
C134 H114 0.953 . S
C134 C133 1.377 1_554 S
C134 C135 1.369 . S
C135 H115 0.945 . S
C135 C130 1.385 1_554 S
C135 C134 1.369 . S
C136 C128 1.457 . S
C136 C137 1.372 . S
C136 C141 1.364 . S
C137 H116 0.952 . S
C137 C136 1.372 . S
C137 C138 1.389 . S
C138 H117 0.949 . S
C138 C137 1.389 . S
C138 C139 1.387 . S
C139 C138 1.387 . S
C139 C140 1.372 . S
C140 H118 0.950 . S
C140 C139 1.372 . S
C140 C141 1.379 . S
C141 H119 0.948 . S
C141 C136 1.364 . S
C141 C140 1.379 . S
C142 C111 1.383 . S
C142 C129 1.479 . S
C142 C143 1.398 . S
C143 C108 1.382 . S
C143 H120 0.951 . S
C143 C142 1.398 . S
C144 C145 1.384 . S
C144 H157 0.947 . S
C144 C179 1.382 . S
C145 C144 1.384 . S
C145 C146 1.378 . S
C146 C145 1.378 . S
C146 C147 1.378 . S
C146 H158 0.952 . S
C147 C146 1.378 . S
C147 H159 0.950 . S
C147 C178 1.383 1_556 S
H148 C167 0.947 . S
H149 C168 0.946 . S
H150 C170 0.953 . S
H151 C171 0.945 . S
H152 C173 0.952 . S
H153 C174 0.949 . S
H154 C176 0.950 . S
H155 C177 0.948 . S
H156 C179 0.951 1_554 S
H157 C144 0.947 . S
H158 C146 0.952 . S
H159 C147 0.950 . S
N160 C163 1.382 . S
N160 C165 1.363 . S
N161 C163 1.371 . S
N161 C164 1.372 . S
N162 C164 1.361 . S
N162 C165 1.377 . S
C163 N160 1.382 . S
C163 N161 1.371 . S
C163 C166 1.480 . S
C164 N161 1.372 . S
C164 N162 1.361 . S
C164 C172 1.457 . S
C165 N160 1.363 . S
C165 N162 1.377 . S
C165 C178 1.479 . S
C166 C163 1.480 . S
C166 C167 1.383 . S
C166 C171 1.385 . S
C167 H148 0.947 . S
C167 C166 1.383 . S
C167 C168 1.388 . S
C168 H149 0.946 . S
C168 C167 1.388 . S
C168 C169 1.384 . S
C169 C168 1.384 . S
C169 C170 1.377 . S
C170 H150 0.953 . S
C170 C169 1.377 . S
C170 C171 1.369 . S
C171 H151 0.945 . S
C171 C166 1.385 . S
C171 C170 1.369 . S
C172 C164 1.457 . S
C172 C173 1.372 . S
C172 C177 1.364 . S
C173 H152 0.952 . S
C173 C172 1.372 . S
C173 C174 1.389 . S
C174 H153 0.949 . S
C174 C173 1.389 . S
C174 C175 1.387 . S
C175 C174 1.387 . S
C175 C176 1.372 . S
C176 H154 0.950 . S
C176 C175 1.372 . S
C176 C177 1.379 . S
C177 H155 0.948 . S
C177 C172 1.364 . S
C177 C176 1.379 . S
C178 C147 1.383 1_554 S
C178 C165 1.479 . S
C178 C179 1.398 1_554 S
C179 C144 1.382 . S
C179 H156 0.951 1_556 S
C179 C178 1.398 1_556 S
C180 C181 1.384 1_655 S
C180 H193 0.947 . S
C180 C215 1.382 1_656 S
C181 C180 1.384 1_455 S
C181 C182 1.378 . S
C182 C181 1.378 . S
C182 C183 1.378 1_556 S
C182 H194 0.952 . S
C183 C182 1.378 1_554 S
C183 H195 0.950 . S
C183 C214 1.383 . S
H184 C203 0.947 . S
H185 C204 0.949 . S
H186 C206 0.953 . S
H187 C207 0.945 . S
H188 C209 0.948 1_655 S
H189 C210 0.954 . S
H190 C212 0.950 . S
H191 C213 0.948 . S
H192 C215 0.950 1_655 S
H193 C180 0.947 . S
H194 C182 0.952 . S
H195 C183 0.950 . S
N196 C199 1.382 . S
N196 C201 1.363 . S
N197 C199 1.371 . S
N197 C200 1.372 . S
N198 C200 1.361 . S
N198 C201 1.377 . S
C199 N196 1.382 . S
C199 N197 1.371 . S
C199 C202 1.480 . S
C200 N197 1.372 . S
C200 N198 1.361 . S
C200 C208 1.457 . S
C201 N196 1.363 . S
C201 N198 1.377 . S
C201 C214 1.479 . S
C202 C199 1.480 . S
C202 C203 1.383 . S
C202 C207 1.385 . S
C203 H184 0.947 . S
C203 C202 1.383 . S
C203 C204 1.387 1_455 S
C204 H185 0.949 . S
C204 C203 1.387 1_655 S
C204 C205 1.382 1_655 S
C205 C204 1.382 1_455 S
C205 C206 1.377 . S
C206 H186 0.953 . S
C206 C205 1.377 . S
C206 C207 1.369 . S
C207 H187 0.945 . S
C207 C202 1.385 . S
C207 C206 1.369 . S
C208 C200 1.457 . S
C208 C209 1.379 . S
C208 C213 1.364 . S
C209 H188 0.948 1_455 S
C209 C208 1.379 . S
C209 C210 1.385 1_455 S
C210 H189 0.954 . S
C210 C209 1.385 1_655 S
C210 C211 1.384 1_655 S
C211 C210 1.384 1_455 S
C211 C212 1.372 . S
C212 H190 0.950 . S
C212 C211 1.372 . S
C212 C213 1.379 . S
C213 H191 0.948 . S
C213 C208 1.364 . S
C213 C212 1.379 . S
C214 C183 1.383 . S
C214 C201 1.479 . S
C214 C215 1.400 . S
C215 C180 1.382 1_454 S
C215 H192 0.950 1_455 S
C215 C214 1.400 . S
C216 C217 1.385 1_565 S
C216 H229 0.947 . S
C216 C251 1.383 1_566 S
C217 C216 1.385 1_545 S
C217 C218 1.378 . S
C218 C217 1.378 . S
C218 C219 1.378 . S
C218 H230 0.952 . S
C219 C218 1.378 . S
C219 H231 0.950 . S
C219 C250 1.383 1_556 S
H220 C239 0.947 . S
H221 C240 0.947 . S
H222 C242 0.953 . S
H223 C243 0.945 . S
H224 C245 0.946 1_565 S
H225 C246 0.961 . S
H226 C248 0.950 . S
H227 C249 0.948 . S
H228 C251 0.949 1_565 S
H229 C216 0.947 . S
H230 C218 0.952 . S
H231 C219 0.950 . S
N232 C235 1.382 . S
N232 C237 1.363 . S
N233 C235 1.371 . S
N233 C236 1.372 . S
N234 C236 1.361 . S
N234 C237 1.377 . S
C235 N232 1.382 . S
C235 N233 1.371 . S
C235 C238 1.480 . S
C236 N233 1.372 . S
C236 N234 1.361 . S
C236 C244 1.457 . S
C237 N232 1.363 . S
C237 N234 1.377 . S
C237 C250 1.479 . S
C238 C235 1.480 . S
C238 C239 1.383 . S
C238 C243 1.385 . S
C239 H220 0.947 . S
C239 C238 1.383 . S
C239 C240 1.385 1_545 S
C240 H221 0.947 . S
C240 C239 1.385 1_565 S
C240 C241 1.386 1_565 S
C241 C240 1.386 1_545 S
C241 C242 1.377 . S
C242 H222 0.953 . S
C242 C241 1.377 . S
C242 C243 1.369 . S
C243 H223 0.945 . S
C243 C238 1.385 . S
C243 C242 1.369 . S
C244 C236 1.457 . S
C244 C245 1.385 . S
C244 C249 1.364 . S
C245 H224 0.946 1_545 S
C245 C244 1.385 . S
C245 C246 1.378 1_545 S
C246 H225 0.961 . S
C246 C245 1.378 1_565 S
C246 C247 1.381 1_565 S
C247 C246 1.381 1_545 S
C247 C248 1.372 . S
C248 H226 0.950 . S
C248 C247 1.372 . S
C248 C249 1.379 . S
C249 H227 0.948 . S
C249 C244 1.364 . S
C249 C248 1.379 . S
C250 C219 1.383 1_554 S
C250 C237 1.479 . S
C250 C251 1.399 . S
C251 C216 1.383 1_544 S
C251 H228 0.949 1_545 S
C251 C250 1.399 . S
C252 C253 1.384 . S
C252 H265 0.947 . S
C252 C287 1.382 . S
C253 C252 1.384 . S
C253 C254 1.378 . S
C254 C253 1.378 . S
C254 C255 1.378 . S
C254 H266 0.952 . S
C255 C254 1.378 . S
C255 H267 0.950 . S
C255 C286 1.383 . S
H256 C275 0.947 . S
H257 C276 0.946 . S
H258 C278 0.953 . S
H259 C279 0.945 . S
H260 C281 0.952 . S
H261 C282 0.949 . S
H262 C284 0.950 . S
H263 C285 0.948 . S
H264 C287 0.951 . S
H265 C252 0.947 . S
H266 C254 0.952 . S
H267 C255 0.950 . S
N268 C271 1.382 . S
N268 C273 1.363 . S
N269 C271 1.371 . S
N269 C272 1.372 . S
N270 C272 1.361 . S
N270 C273 1.377 . S
C271 N268 1.382 . S
C271 N269 1.371 . S
C271 C274 1.480 . S
C272 N269 1.372 . S
C272 N270 1.361 . S
C272 C280 1.457 . S
C273 N268 1.363 . S
C273 N270 1.377 . S
C273 C286 1.479 . S
C274 C271 1.480 . S
C274 C275 1.383 . S
C274 C279 1.385 . S
C275 H256 0.947 . S
C275 C274 1.383 . S
C275 C276 1.388 . S
C276 H257 0.946 . S
C276 C275 1.388 . S
C276 C277 1.384 . S
C277 C276 1.384 . S
C277 C278 1.377 . S
C278 H258 0.953 . S
C278 C277 1.377 . S
C278 C279 1.369 . S
C279 H259 0.945 . S
C279 C274 1.385 . S
C279 C278 1.369 . S
C280 C272 1.457 . S
C280 C281 1.372 . S
C280 C285 1.364 . S
C281 H260 0.952 . S
C281 C280 1.372 . S
C281 C282 1.389 . S
C282 H261 0.949 . S
C282 C281 1.389 . S
C282 C283 1.387 . S
C283 C282 1.387 . S
C283 C284 1.372 . S
C284 H262 0.950 . S
C284 C283 1.372 . S
C284 C285 1.379 . S
C285 H263 0.948 . S
C285 C280 1.364 . S
C285 C284 1.379 . S
C286 C255 1.383 . S
C286 C273 1.479 . S
C286 C287 1.398 . S
C287 C252 1.382 . S
C287 H264 0.951 . S
C287 C286 1.398 . S
Tb288 C297 2.764 . S
Tb288 O298 2.325 . S
Tb288 O301 2.303 1_655 S
Tb288 O305 2.322 1_545 S
Tb288 O306 2.349 . S
Tb288 O309 2.415 . S
Tb288 O310 2.399 . S
Tb289 O299 2.322 1_565 S
Tb289 O300 2.349 . S
Tb289 O302 2.415 . S
Tb289 O303 2.399 . S
Tb289 O304 2.325 . S
Tb289 O307 2.303 1_455 S
Tb289 C318 2.764 . S
C290 O306 1.261 . S
C290 O307 1.257 1_545 S
C291 C294 1.358 . S
C291 C295 1.332 . S
C291 C297 1.504 . S
C292 C293 1.373 . S
C292 C296 1.308 . S
C293 C292 1.373 . S
C293 C294 1.429 . S
C293 H320 0.932 . S
C294 C291 1.358 . S
C294 C293 1.429 . S
C294 H321 0.930 . S
C295 C291 1.332 . S
C295 C296 1.394 . S
C295 H322 0.904 1_655 S
C296 C292 1.308 . S
C296 C295 1.394 . S
C296 H323 0.929 . S
C297 Tb288 2.764 . S
C297 C291 1.504 . S
C297 O309 1.239 . S
C297 O310 1.263 . S
O298 Tb288 2.325 . S
O298 C308 1.236 1_655 S
O299 Tb289 2.322 1_545 S
O299 C308 1.257 . S
O300 Tb289 2.349 . S
O300 C311 1.261 . S
O301 Tb288 2.303 1_455 S
O301 C311 1.257 1_545 S
O302 Tb289 2.415 . S
O302 C318 1.239 . S
O303 Tb289 2.399 . S
O303 C318 1.263 . S
O304 Tb289 2.325 . S
O304 C319 1.236 1_455 S
O305 Tb288 2.322 1_565 S
O305 C319 1.257 . S
O306 Tb288 2.349 . S
O306 C290 1.261 . S
O307 Tb289 2.303 1_655 S
O307 C290 1.257 1_565 S
C308 O298 1.236 1_455 S
C308 O299 1.257 . S
O309 Tb288 2.415 . S
O309 C297 1.239 . S
O310 Tb288 2.399 . S
O310 C297 1.263 . S
C311 O300 1.261 . S
C311 O301 1.257 1_565 S
C312 C315 1.358 1_556 S
C312 C316 1.332 1_556 S
C312 C318 1.504 . S
C313 C314 1.373 . S
C313 C317 1.308 . S
C314 C313 1.373 . S
C314 C315 1.429 . S
C314 H324 0.932 . S
C315 C312 1.358 1_554 S
C315 C314 1.429 . S
C315 H325 0.930 1_554 S
C316 C312 1.332 1_554 S
C316 C317 1.394 . S
C316 H326 0.913 1_455 S
C317 C313 1.308 . S
C317 C316 1.394 . S
C317 H327 0.929 . S
C318 Tb289 2.764 . S
C318 O302 1.239 . S
C318 O303 1.263 . S
C318 C312 1.504 . S
C319 O304 1.236 1_655 S
C319 O305 1.257 . S
H320 C293 0.932 . S
H321 C294 0.930 . S
H322 C295 0.904 1_455 S
H323 C296 0.929 . S
H324 C314 0.932 . S
H325 C315 0.930 1_556 S
H326 C316 0.913 1_655 S
H327 C317 0.929 . S
Tb328 C337 2.764 . S
Tb328 O338 2.325 . S
Tb328 O341 2.303 1_565 S
Tb328 O345 2.322 . S
Tb328 O346 2.349 . S
Tb328 O349 2.415 1_565 S
Tb328 O350 2.399 . S
Tb329 O339 2.322 . S
Tb329 O340 2.349 . S
Tb329 O342 2.415 1_545 S
Tb329 O343 2.399 . S
Tb329 O344 2.325 . S
Tb329 O347 2.303 1_545 S
Tb329 C358 2.764 1_556 S
C330 O346 1.261 . S
C330 O347 1.257 . S
C331 C334 1.358 . S
C331 C335 1.312 1_565 S
C331 C337 1.504 . S
C332 C333 1.373 . S
C332 C336 1.308 . S
C333 C332 1.373 . S
C333 C334 1.429 . S
C333 H360 0.932 . S
C334 C331 1.358 . S
C334 C333 1.429 . S
C334 H361 0.930 . S
C335 C331 1.312 1_545 S
C335 C336 1.395 1_545 S
C335 H362 0.952 . S
C336 C332 1.308 . S
C336 C335 1.395 1_565 S
C336 H363 0.929 1_565 S
C337 Tb328 2.764 . S
C337 C331 1.504 . S
C337 O349 1.239 1_565 S
C337 O350 1.263 . S
O338 Tb328 2.325 . S
O338 C348 1.236 1_565 S
O339 Tb329 2.322 . S
O339 C348 1.257 . S
O340 Tb329 2.349 . S
O340 C351 1.261 . S
O341 Tb328 2.303 1_545 S
O341 C351 1.257 . S
O342 Tb329 2.415 1_565 S
O342 C358 1.239 1_566 S
O343 Tb329 2.399 . S
O343 C358 1.263 1_556 S
O344 Tb329 2.325 . S
O344 C359 1.236 1_545 S
O345 Tb328 2.322 . S
O345 C359 1.257 . S
O346 Tb328 2.349 . S
O346 C330 1.261 . S
O347 Tb329 2.303 1_565 S
O347 C330 1.257 . S
C348 O338 1.236 1_545 S
C348 O339 1.257 . S
O349 Tb328 2.415 1_545 S
O349 C337 1.239 1_545 S
O350 Tb328 2.399 . S
O350 C337 1.263 . S
C351 O340 1.261 . S
C351 O341 1.257 . S
C352 C355 1.358 . S
C352 C356 1.320 1_545 S
C352 C358 1.504 . S
C353 C354 1.373 . S
C353 C357 1.308 . S
C354 C353 1.373 . S
C354 C355 1.429 . S
C354 H364 0.932 . S
C355 C352 1.358 . S
C355 C354 1.429 . S
C355 H365 0.930 . S
C356 C352 1.320 1_565 S
C356 C357 1.395 1_565 S
C356 H366 0.944 . S
C357 C353 1.308 . S
C357 C356 1.395 1_545 S
C357 H367 0.929 1_545 S
C358 Tb329 2.764 1_554 S
C358 O342 1.239 1_544 S
C358 O343 1.263 1_554 S
C358 C352 1.504 . S
C359 O344 1.236 1_565 S
C359 O345 1.257 . S
H360 C333 0.932 . S
H361 C334 0.930 . S
H362 C335 0.952 . S
H363 C336 0.929 1_545 S
H364 C354 0.932 . S
H365 C355 0.930 . S
H366 C356 0.944 . S
H367 C357 0.929 1_565 S
Tb368 C377 2.764 1_556 S
Tb368 O378 2.325 . S
Tb368 O381 2.303 . S
Tb368 O385 2.322 . S
Tb368 O386 2.349 . S
Tb368 O389 2.415 1_556 S
Tb368 O390 2.399 . S
Tb369 O379 2.322 . S
Tb369 O380 2.349 . S
Tb369 O382 2.415 . S
Tb369 O383 2.399 . S
Tb369 O384 2.325 . S
Tb369 O387 2.303 . S
Tb369 C398 2.764 . S
C370 O386 1.261 . S
C370 O387 1.257 . S
C371 C374 1.358 . S
C371 C375 1.332 . S
C371 C377 1.504 . S
C372 C373 1.373 . S
C372 C376 1.308 . S
C373 C372 1.373 . S
C373 C374 1.429 . S
C373 H400 0.932 . S
C374 C371 1.358 . S
C374 C373 1.429 . S
C374 H401 0.930 . S
C375 C371 1.332 . S
C375 C376 1.394 . S
C375 H402 0.932 . S
C376 C372 1.308 . S
C376 C375 1.394 . S
C376 H403 0.929 . S
C377 Tb368 2.764 1_554 S
C377 C371 1.504 . S
C377 O389 1.239 . S
C377 O390 1.263 1_554 S
O378 Tb368 2.325 . S
O378 C388 1.236 . S
O379 Tb369 2.322 . S
O379 C388 1.257 . S
O380 Tb369 2.349 . S
O380 C391 1.261 . S
O381 Tb368 2.303 . S
O381 C391 1.257 . S
O382 Tb369 2.415 . S
O382 C398 1.239 . S
O383 Tb369 2.399 . S
O383 C398 1.263 . S
O384 Tb369 2.325 . S
O384 C399 1.236 . S
O385 Tb368 2.322 . S
O385 C399 1.257 . S
O386 Tb368 2.349 . S
O386 C370 1.261 . S
O387 Tb369 2.303 . S
O387 C370 1.257 . S
C388 O378 1.236 . S
C388 O379 1.257 . S
O389 Tb368 2.415 1_554 S
O389 C377 1.239 . S
O390 Tb368 2.399 . S
O390 C377 1.263 1_556 S
C391 O380 1.261 . S
C391 O381 1.257 . S
C392 C395 1.358 . S
C392 C396 1.332 . S
C392 C398 1.504 . S
C393 C394 1.373 . S
C393 C397 1.308 . S
C394 C393 1.373 . S
C394 C395 1.429 . S
C394 H404 0.932 . S
C395 C392 1.358 . S
C395 C394 1.429 . S
C395 H405 0.930 . S
C396 C392 1.332 . S
C396 C397 1.394 . S
C396 H406 0.932 . S
C397 C393 1.308 . S
C397 C396 1.394 . S
C397 H407 0.929 . S
C398 Tb369 2.764 . S
C398 O382 1.239 . S
C398 O383 1.263 . S
C398 C392 1.504 . S
C399 O384 1.236 . S
C399 O385 1.257 . S
H400 C373 0.932 . S
H401 C374 0.930 . S
H402 C375 0.932 . S
H403 C376 0.929 . S
H404 C394 0.932 . S
H405 C395 0.930 . S
H406 C396 0.932 . S
H407 C397 0.929 . S
Tb408 C417 2.764 . S
Tb408 O418 2.325 . S
Tb408 O421 2.303 . S
Tb408 O425 2.322 1_455 S
Tb408 O426 2.349 . S
Tb408 O429 2.415 . S
Tb408 O430 2.399 . S
Tb409 O419 2.322 1_655 S
Tb409 O420 2.349 . S
Tb409 O422 2.415 . S
Tb409 O423 2.399 . S
Tb409 O424 2.325 . S
Tb409 O427 2.303 . S
Tb409 C438 2.764 . S
C410 O426 1.261 . S
C410 O427 1.257 1_455 S
C411 C414 1.358 . S
C411 C415 1.332 . S
C411 C417 1.504 . S
C412 C413 1.373 . S
C412 C416 1.308 . S
C413 C412 1.373 . S
C413 C414 1.429 . S
C413 H440 0.932 . S
C414 C411 1.358 . S
C414 C413 1.429 . S
C414 H441 0.930 . S
C415 C411 1.332 . S
C415 C416 1.394 . S
C415 H442 0.932 . S
C416 C412 1.308 . S
C416 C415 1.394 . S
C416 H443 0.929 . S
C417 Tb408 2.764 . S
C417 C411 1.504 . S
C417 O429 1.239 . S
C417 O430 1.263 . S
O418 Tb408 2.325 . S
O418 C428 1.236 . S
O419 Tb409 2.322 1_455 S
O419 C428 1.257 . S
O420 Tb409 2.349 . S
O420 C431 1.261 . S
O421 Tb408 2.303 . S
O421 C431 1.257 1_455 S
O422 Tb409 2.415 . S
O422 C438 1.239 . S
O423 Tb409 2.399 . S
O423 C438 1.263 . S
O424 Tb409 2.325 . S
O424 C439 1.236 . S
O425 Tb408 2.322 1_655 S
O425 C439 1.257 . S
O426 Tb408 2.349 . S
O426 C410 1.261 . S
O427 Tb409 2.303 . S
O427 C410 1.257 1_655 S
C428 O418 1.236 . S
C428 O419 1.257 . S
O429 Tb408 2.415 . S
O429 C417 1.239 . S
O430 Tb408 2.399 . S
O430 C417 1.263 . S
C431 O420 1.261 . S
C431 O421 1.257 1_655 S
C432 C435 1.358 . S
C432 C436 1.332 . S
C432 C438 1.504 1_554 S
C433 C434 1.373 . S
C433 C437 1.308 . S
C434 C433 1.373 . S
C434 C435 1.429 . S
C434 H444 0.932 . S
C435 C432 1.358 . S
C435 C434 1.429 . S
C435 H445 0.934 . S
C436 C432 1.332 . S
C436 C437 1.394 . S
C436 H446 0.932 . S
C437 C433 1.308 . S
C437 C436 1.394 . S
C437 H447 0.929 . S
C438 Tb409 2.764 . S
C438 O422 1.239 . S
C438 O423 1.263 . S
C438 C432 1.504 1_556 S
C439 O424 1.236 . S
C439 O425 1.257 . S
H440 C413 0.932 . S
H441 C414 0.930 . S
H442 C415 0.932 . S
H443 C416 0.929 . S
H444 C434 0.932 . S
H445 C435 0.934 . S
H446 C436 0.932 . S
H447 C437 0.929 . S
C448 C449 1.387 1_565 S
C448 H452 0.950 . S
C448 C457 1.390 . S
C449 C448 1.387 1_545 S
C449 C451 1.387 . S
H450 C457 0.950 . S
C451 C449 1.387 . S
C451 C453 1.390 . S
C451 H455 0.950 . S
H452 C448 0.950 . S
C453 C451 1.390 . S
C453 C454 1.387 . S
C453 H456 0.950 . S
C454 C453 1.387 . S
C454 C457 1.387 1_545 S
H455 C451 0.950 . S
H456 C453 0.950 . S
C457 C448 1.390 . S
C457 H450 0.950 . S
C457 C454 1.387 1_565 S
C458 C459 1.387 . S
C458 H462 0.950 . S
C458 C467 1.390 . S
C459 C458 1.387 . S
C459 C461 1.387 . S
H460 C467 0.950 . S
C461 C459 1.387 . S
C461 C463 1.390 . S
C461 H465 0.950 . S
H462 C458 0.950 . S
C463 C461 1.390 . S
C463 C464 1.387 . S
C463 H466 0.950 . S
C464 C463 1.387 . S
C464 C467 1.387 . S
H465 C461 0.950 . S
H466 C463 0.950 . S
C467 C458 1.390 . S
C467 H460 0.950 . S
C467 C464 1.387 . S
C468 C469 1.387 . S
C468 H472 0.950 . S
C468 C477 1.390 . S
C469 C468 1.387 . S
C469 C471 1.387 . S
H470 C477 0.950 . S
C471 C469 1.387 . S
C471 C473 1.390 . S
C471 H475 0.950 . S
H472 C468 0.950 . S
C473 C471 1.390 . S
C473 C474 1.387 . S
C473 H476 0.950 . S
C474 C473 1.387 . S
C474 C477 1.387 . S
H475 C471 0.950 . S
H476 C473 0.950 . S
C477 C468 1.390 . S
C477 H470 0.950 . S
C477 C474 1.387 . S
C478 C479 1.368 1_655 S
C478 H482 0.950 . S
C478 C487 1.390 . S
C479 C478 1.368 1_455 S
C479 C481 1.407 . S
H480 C487 0.950 . S
C481 C479 1.407 . S
C481 C483 1.390 . S
C481 H485 0.950 . S
H482 C478 0.950 . S
C483 C481 1.390 . S
C483 C484 1.387 . S
C483 H486 0.950 . S
C484 C483 1.387 . S
C484 C487 1.387 1_455 S
H485 C481 0.950 . S
H486 C483 0.950 . S
C487 C478 1.390 . S
C487 H480 0.950 . S
C487 C484 1.387 1_655 S
C488 C489 1.358 1_545 S
C488 H492 0.950 . S
C488 C497 1.390 . S
C489 C488 1.358 1_565 S
C489 C491 1.412 . S
H490 C497 0.950 . S
C491 C489 1.412 . S
C491 C493 1.390 . S
C491 H495 0.950 . S
H492 C488 0.950 . S
C493 C491 1.390 . S
C493 C494 1.387 . S
C493 H496 0.950 . S
C494 C493 1.387 . S
C494 C497 1.387 1_565 S
H495 C491 0.950 . S
H496 C493 0.950 . S
C497 C488 1.390 . S
C497 H490 0.950 . S
C497 C494 1.387 1_545 S
C498 C499 1.387 . S
C498 H502 0.950 . S
C498 C507 1.390 . S
C499 C498 1.387 . S
C499 C501 1.387 . S
H500 C507 0.950 . S
C501 C499 1.387 . S
C501 C503 1.390 . S
C501 H505 0.950 . S
H502 C498 0.950 . S
C503 C501 1.390 . S
C503 C504 1.387 . S
C503 H506 0.950 . S
C504 C503 1.387 . S
C504 C507 1.387 . S
H505 C501 0.950 . S
H506 C503 0.950 . S
C507 C498 1.390 . S
C507 H500 0.950 . S
C507 C504 1.387 . S
C508 C509 1.387 . S
C508 H512 0.950 . S
C508 C517 1.390 . S
C509 C508 1.387 . S
C509 C511 1.387 . S
H510 C517 0.950 . S
C511 C509 1.387 . S
C511 C513 1.390 . S
C511 H515 0.950 . S
H512 C508 0.950 . S
C513 C511 1.390 . S
C513 C514 1.387 . S
C513 H516 0.950 . S
C514 C513 1.387 . S
C514 C517 1.387 . S
H515 C511 0.950 . S
H516 C513 0.950 . S
C517 C508 1.390 . S
C517 H510 0.950 . S
C517 C514 1.387 . S
C518 C519 1.389 . S
C518 H522 0.950 . S
C518 C527 1.390 . S
C519 C518 1.389 . S
C519 C521 1.387 1_655 S
H520 C527 0.950 . S
C521 C519 1.387 1_455 S
C521 C523 1.390 . S
C521 H525 0.951 . S
H522 C518 0.950 . S
C523 C521 1.390 . S
C523 C524 1.387 1_455 S
C523 H526 0.950 . S
C524 C523 1.387 1_655 S
C524 C527 1.387 . S
H525 C521 0.951 . S
H526 C523 0.950 . S
C527 C518 1.390 . S
C527 H520 0.950 . S
C527 C524 1.387 . S
C528 C529 1.387 . S
C528 H532 0.950 . S
C528 C537 1.390 . S
C529 C528 1.387 . S
C529 C531 1.387 . S
H530 C537 0.950 . S
C531 C529 1.387 . S
C531 C533 1.390 . S
C531 H535 0.950 . S
H532 C528 0.950 . S
C533 C531 1.390 . S
C533 C534 1.387 . S
C533 H536 0.950 . S
C534 C533 1.387 . S
C534 C537 1.387 . S
H535 C531 0.950 . S
H536 C533 0.950 . S
C537 C528 1.390 . S
C537 H530 0.950 . S
C537 C534 1.387 . S
C538 C539 1.387 1_565 S
C538 H542 0.950 . S
C538 C547 1.390 . S
C539 C538 1.387 1_545 S
C539 C541 1.387 . S
H540 C547 0.950 . S
C541 C539 1.387 . S
C541 C543 1.390 1_545 S
C541 H545 0.950 . S
H542 C538 0.950 . S
C543 C541 1.390 1_565 S
C543 C544 1.387 . S
C543 H546 0.950 . S
C544 C543 1.387 . S
C544 C547 1.387 . S
H545 C541 0.950 . S
H546 C543 0.950 . S
C547 C538 1.390 . S
C547 H540 0.950 . S
C547 C544 1.387 . S
C548 C549 1.387 . S
C548 H552 0.950 . S
C548 C557 1.390 . S
C549 C548 1.387 . S
C549 C551 1.387 . S
H550 C557 0.950 . S
C551 C549 1.387 . S
C551 C553 1.390 . S
C551 H555 0.950 . S
H552 C548 0.950 . S
C553 C551 1.390 . S
C553 C554 1.387 . S
C553 H556 0.950 . S
C554 C553 1.387 . S
C554 C557 1.387 . S
H555 C551 0.950 . S
H556 C553 0.950 . S
C557 C548 1.390 . S
C557 H550 0.950 . S
C557 C554 1.387 . S
C558 C559 1.387 . S
C558 H562 0.950 . S
C558 C567 1.390 . S
C559 C558 1.387 . S
C559 C561 1.387 . S
H560 C567 0.950 . S
C561 C559 1.387 . S
C561 C563 1.390 . S
C561 H565 0.950 . S
H562 C558 0.950 . S
C563 C561 1.390 . S
C563 C564 1.387 . S
C563 H566 0.950 . S
C564 C563 1.387 . S
C564 C567 1.387 . S
H565 C561 0.950 . S
H566 C563 0.950 . S
C567 C558 1.390 . S
C567 H560 0.950 . S
C567 C564 1.387 . S
C568 C569 1.387 . S
C568 H572 0.950 1_455 S
C568 C577 1.390 . S
C569 C568 1.387 . S
C569 C571 1.387 . S
H570 C577 0.950 . S
C571 C569 1.387 . S
C571 C573 1.390 . S
C571 H575 0.950 . S
H572 C568 0.950 1_655 S
C573 C571 1.390 . S
C573 C574 1.387 . S
C573 H576 0.950 . S
C574 C573 1.387 . S
C574 C577 1.387 . S
H575 C571 0.950 . S
H576 C573 0.950 . S
C577 C568 1.390 . S
C577 H570 0.950 . S
C577 C574 1.387 . S
C578 C579 1.387 . S
C578 H582 0.950 . S
C578 C587 1.390 1_565 S
C579 C578 1.387 . S
C579 C581 1.387 1_565 S
H580 C587 0.950 . S
C581 C579 1.387 1_545 S
C581 C583 1.390 . S
C581 H585 0.950 . S
H582 C578 0.950 . S
C583 C581 1.390 . S
C583 C584 1.387 . S
C583 H586 0.950 . S
C584 C583 1.387 . S
C584 C587 1.387 . S
H585 C581 0.950 . S
H586 C583 0.950 . S
C587 C578 1.390 1_545 S
C587 H580 0.950 . S
C587 C584 1.387 . S
C588 C589 1.387 . S
C588 H592 0.950 . S
C588 C597 1.390 . S
C589 C588 1.387 . S
C589 C591 1.387 . S
H590 C597 0.950 . S
C591 C589 1.387 . S
C591 C593 1.390 . S
C591 H595 0.950 . S
H592 C588 0.950 . S
C593 C591 1.390 . S
C593 C594 1.387 . S
C593 H596 0.950 . S
C594 C593 1.387 . S
C594 C597 1.387 . S
H595 C591 0.950 . S
H596 C593 0.950 . S
C597 C588 1.390 . S
C597 H590 0.950 . S
C597 C594 1.387 . S
C598 C599 1.387 . S
C598 H602 0.950 . S
C598 C607 1.390 . S
C599 C598 1.387 . S
C599 C601 1.387 . S
H600 C607 0.950 . S
C601 C599 1.387 . S
C601 C603 1.390 . S
C601 H605 0.950 . S
H602 C598 0.950 . S
C603 C601 1.390 . S
C603 C604 1.387 . S
C603 H606 0.950 . S
C604 C603 1.387 . S
C604 C607 1.387 . S
H605 C601 0.950 . S
H606 C603 0.950 . S
C607 C598 1.390 . S
C607 H600 0.950 . S
C607 C604 1.387 . S
C608 C609 1.387 . S
C608 H612 0.950 1_455 S
C608 C617 1.390 . S
C609 C608 1.387 . S
C609 C611 1.387 . S
H610 C617 0.950 1_554 S
C611 C609 1.387 . S
C611 C613 1.390 . S
C611 H615 0.950 . S
H612 C608 0.950 1_655 S
C613 C611 1.390 . S
C613 C614 1.387 . S
C613 H616 0.950 . S
C614 C613 1.387 . S
C614 C617 1.387 . S
H615 C611 0.950 . S
H616 C613 0.950 . S
C617 C608 1.390 . S
C617 H610 0.950 1_556 S
C617 C614 1.387 . S
C618 C619 1.387 1_565 S
C618 H622 0.950 . S
C618 C627 1.390 . S
C619 C618 1.387 1_545 S
C619 C621 1.387 . S
H620 C627 0.950 . S
C621 C619 1.387 . S
C621 C623 1.390 . S
C621 H625 0.950 . S
H622 C618 0.950 . S
C623 C621 1.390 . S
C623 C624 1.387 . S
C623 H626 0.950 . S
C624 C623 1.387 . S
C624 C627 1.387 1_545 S
H625 C621 0.950 . S
H626 C623 0.950 . S
C627 C618 1.390 . S
C627 H620 0.950 . S
C627 C624 1.387 1_565 S
C628 C629 1.387 . S
C628 H632 0.950 . S
C628 C637 1.390 . S
C629 C628 1.387 . S
C629 C631 1.387 . S
H630 C637 0.950 . S
C631 C629 1.387 . S
C631 C633 1.390 . S
C631 H635 0.950 . S
H632 C628 0.950 . S
C633 C631 1.390 . S
C633 C634 1.387 . S
C633 H636 0.950 . S
C634 C633 1.387 . S
C634 C637 1.387 . S
H635 C631 0.950 . S
H636 C633 0.950 . S
C637 C628 1.390 . S
C637 H630 0.950 . S
C637 C634 1.387 . S
C638 C639 1.387 . S
C638 H642 0.950 . S
C638 C647 1.390 . S
C639 C638 1.387 . S
C639 C641 1.387 . S
H640 C647 0.950 . S
C641 C639 1.387 . S
C641 C643 1.390 . S
C641 H645 0.950 . S
H642 C638 0.950 . S
C643 C641 1.390 . S
C643 C644 1.387 . S
C643 H646 0.950 . S
C644 C643 1.387 . S
C644 C647 1.387 . S
H645 C641 0.950 . S
H646 C643 0.950 . S
C647 C638 1.390 . S
C647 H640 0.950 . S
C647 C644 1.387 . S
C648 C649 1.387 1_455 S
C648 H652 0.950 . S
C648 C657 1.390 . S
C649 C648 1.387 1_655 S
C649 C651 1.387 . S
H650 C657 0.950 . S
C651 C649 1.387 . S
C651 C653 1.390 . S
C651 H655 0.950 . S
H652 C648 0.950 . S
C653 C651 1.390 . S
C653 C654 1.387 . S
C653 H656 0.950 . S
C654 C653 1.387 . S
C654 C657 1.387 1_655 S
H655 C651 0.950 . S
H656 C653 0.950 . S
C657 C648 1.390 . S
C657 H650 0.950 . S
C657 C654 1.387 1_455 S
C658 C659 1.387 . S
C658 H662 0.950 . S
C658 C667 1.390 . S
C659 C658 1.387 . S
C659 C661 1.387 1_565 S
H660 C667 0.950 . S
C661 C659 1.387 1_545 S
C661 C663 1.390 . S
C661 H665 0.950 . S
H662 C658 0.950 . S
C663 C661 1.390 . S
C663 C664 1.387 1_545 S
C663 H666 0.950 . S
C664 C663 1.387 1_565 S
C664 C667 1.387 . S
H665 C661 0.950 . S
H666 C663 0.950 . S
C667 C658 1.390 . S
C667 H660 0.950 . S
C667 C664 1.387 . S
C668 C669 1.387 . S
C668 H672 0.950 . S
C668 C677 1.390 . S
C669 C668 1.387 . S
C669 C671 1.387 . S
H670 C677 0.950 . S
C671 C669 1.387 . S
C671 C673 1.390 . S
C671 H675 0.950 . S
H672 C668 0.950 . S
C673 C671 1.390 . S
C673 C674 1.387 . S
C673 H676 0.950 . S
C674 C673 1.387 . S
C674 C677 1.387 . S
H675 C671 0.950 . S
H676 C673 0.950 . S
C677 C668 1.390 . S
C677 H670 0.950 . S
C677 C674 1.387 . S
C678 C679 1.387 . S
C678 H682 0.950 . S
C678 C687 1.390 . S
C679 C678 1.387 . S
C679 C681 1.387 . S
H680 C687 0.950 . S
C681 C679 1.387 . S
C681 C683 1.390 . S
C681 H685 0.950 . S
H682 C678 0.950 . S
C683 C681 1.390 . S
C683 C684 1.387 . S
C683 H686 0.950 . S
C684 C683 1.387 . S
C684 C687 1.387 . S
H685 C681 0.950 . S
H686 C683 0.950 . S
C687 C678 1.390 . S
C687 H680 0.950 . S
C687 C684 1.387 . S
C449 C241 2.546 . S
C454 C311 2.910 1_545 S
C464 C351 1.751 . S
C459 C277 1.659 . S
C474 C370 2.968 . S
C469 C169 2.627 . S
C484 C431 2.205 1_455 S
C479 C205 1.903 . S
C494 C290 2.909 1_564 S
C489 C97 2.553 1_565 S
C499 C133 1.721 . S
C504 C330 1.755 . S
C509 C25 2.583 . S
C514 C391 2.969 1_554 S
C519 C61 1.902 1_655 S
C524 C410 2.206 1_654 S
C534 C292 1.025 . S
C529 C211 1.111 1_655 S
C544 C332 0.615 . S
C539 C247 0.568 . S
C554 C388 1.664 . S
C549 C253 1.387 . S
C559 C175 0.786 . S
C564 C412 0.770 . S
C569 C67 1.063 . S
C574 C313 1.037 . S
C584 C353 0.615 . S
C579 C103 0.631 1_565 S
C594 C399 1.669 . S
C589 C109 1.466 . S
C599 C31 0.772 . S
C604 C433 0.776 . S
C609 C181 2.532 . S
C614 C308 2.924 . S
C619 C217 3.170 . S
C624 C348 3.580 . S
C634 C372 2.113 . S
C629 C283 2.049 . S
C644 C428 3.567 . S
C639 C145 3.166 . S
C649 C37 2.550 1_655 S
C654 C319 2.935 . S
C664 C359 3.580 . S
C659 C73 3.174 1_565 S
C674 C393 2.112 . S
C669 C139 2.022 . S
C679 C1 3.160 . S
C684 C439 3.571 . S
