# Generated by pormake.
# Topology anh, (6,3)-cn, num edge types: 1
# Building blocks:
#     Node 0, Type 0, BuildingBlock: BETDEL_clean_sbu_0, # of connection points: 6
#     Node 1, Type 0, BuildingBlock: BETDEL_clean_sbu_0, # of connection points: 6
#     Node 2, Type 0, BuildingBlock: BETDEL_clean_sbu_0, # of connection points: 6
#     Node 3, Type 1, BuildingBlock: BELTOD_clean_linker_0, # of connection points: 3
#     Node 4, Type 1, BuildingBlock: BELTOD_clean_linker_0, # of connection points: 3
#     Node 5, Type 1, BuildingBlock: BELTOD_clean_linker_0, # of connection points: 3
#     Node 6, Type 1, BuildingBlock: BELTOD_clean_linker_0, # of connection points: 3
#     Node 7, Type 1, BuildingBlock: BELTOD_clean_linker_0, # of connection points: 3
#     Node 8, Type 1, BuildingBlock: BELTOD_clean_linker_0, # of connection points: 3
#     Edge 9, Type (0, 1), BuildingBlock: CIFDUS_clean_linker_0, # of connection points: 2
#     Edge 10, Type (0, 1), BuildingBlock: CIFDUS_clean_linker_0, # of connection points: 2
#     Edge 11, Type (0, 1), BuildingBlock: CIFDUS_clean_linker_0, # of connection points: 2
#     Edge 12, Type (0, 1), BuildingBlock: CIFDUS_clean_linker_0, # of connection points: 2
#     Edge 13, Type (0, 1), BuildingBlock: CIFDUS_clean_linker_0, # of connection points: 2
#     Edge 14, Type (0, 1), BuildingBlock: CIFDUS_clean_linker_0, # of connection points: 2
#     Edge 15, Type (0, 1), BuildingBlock: CIFDUS_clean_linker_0, # of connection points: 2
#     Edge 16, Type (0, 1), BuildingBlock: CIFDUS_clean_linker_0, # of connection points: 2
#     Edge 17, Type (0, 1), BuildingBlock: CIFDUS_clean_linker_0, # of connection points: 2
#     Edge 18, Type (0, 1), BuildingBlock: CIFDUS_clean_linker_0, # of connection points: 2
#     Edge 19, Type (0, 1), BuildingBlock: CIFDUS_clean_linker_0, # of connection points: 2
#     Edge 20, Type (0, 1), BuildingBlock: CIFDUS_clean_linker_0, # of connection points: 2
#     Edge 21, Type (0, 1), BuildingBlock: CIFDUS_clean_linker_0, # of connection points: 2
#     Edge 22, Type (0, 1), BuildingBlock: CIFDUS_clean_linker_0, # of connection points: 2
#     Edge 23, Type (0, 1), BuildingBlock: CIFDUS_clean_linker_0, # of connection points: 2
#     Edge 24, Type (0, 1), BuildingBlock: CIFDUS_clean_linker_0, # of connection points: 2
#     Edge 25, Type (0, 1), BuildingBlock: CIFDUS_clean_linker_0, # of connection points: 2
#     Edge 26, Type (0, 1), BuildingBlock: CIFDUS_clean_linker_0, # of connection points: 2
# Relax obj value: 0.135
# Max RMSD: 0.160
# Mean RMSD: 0.126
data_MOF--net-anh--node1-BETDEL_clean_sbu_0--node2-BELTOD_clean_linker_0--edge1-CIFDUS_clean_linker_0
_symmetry_space_group_name_H-M    P1
_symmetry_Int_Tables_number       1
_symmetry_cell_setting            triclinic
loop_
_symmetry_equiv_pos_as_xyz
'x, y, z'
_cell_length_a     30.141059
_cell_length_b     30.182264
_cell_length_c     52.326151
_cell_angle_alpha  90.236875
_cell_angle_beta   90.150617
_cell_angle_gamma 120.1381
loop_
_atom_site_label
_atom_site_type_symbol
_atom_site_fract_x
_atom_site_fract_y
_atom_site_fract_z
_atom_type_partial_charge
Dy0 Dy 0.04455 0.48952 0.16294 0.0
C1 C 0.92995 0.58574 0.18172 0.0
C2 C 0.10638 0.45142 0.14896 0.0
Dy3 Dy 0.99547 0.55035 0.17024 0.0
O4 O 0.07715 0.43771 0.16887 0.0
O5 O 0.10098 0.48523 0.13622 0.0
O6 O 0.01948 0.45522 0.20141 0.0
O7 O 0.04045 0.53215 0.19641 0.0
C8 C 0.02306 0.49563 0.21211 0.0
C9 C 0.01815 0.54378 0.12123 0.0
O10 O 0.07476 0.61289 0.18097 0.0
O11 O 0.11187 0.5711 0.16134 0.0
O12 O 0.96298 0.60197 0.16331 0.0
O13 O 0.9346 0.55172 0.19468 0.0
O14 O 0.0223 0.58461 0.13167 0.0
O15 O 0.99947 0.50726 0.13689 0.0
O16 O 0.96413 0.42554 0.15531 0.0
O17 O 0.92857 0.46954 0.17402 0.0
C18 C 0.11578 0.61326 0.17164 0.0
C19 C 0.92396 0.42626 0.16507 0.0
Dy20 Dy 0.47768 0.03588 0.50312 0.0
C21 C 0.69817 0.16745 0.52018 0.0
C22 C 0.3783 0.96224 0.49339 0.0
Dy23 Dy 0.59995 0.10251 0.50449 0.0
O24 O 0.39879 0.97697 0.51589 0.0
O25 O 0.41187 0.9892 0.47604 0.0
O26 O 0.47643 0.06041 0.5436 0.0
O27 O 0.53904 0.05425 0.53057 0.0
C28 C 0.52199 0.06819 0.54897 0.0
C29 C 0.56473 0.09013 0.45593 0.0
O30 O 0.58929 0.02392 0.50963 0.0
O31 O 0.5016 0.97553 0.50037 0.0
O32 O 0.68364 0.12661 0.50618 0.0
O33 O 0.65872 0.17186 0.52609 0.0
O34 O 0.61307 0.11581 0.46196 0.0
O35 O 0.53962 0.07405 0.47625 0.0
O36 O 0.48796 0.11504 0.49857 0.0
O37 O 0.57295 0.15805 0.5129 0.0
C38 C 0.54688 0.97924 0.50508 0.0
C39 C 0.52963 0.15725 0.50698 0.0
Dy40 Dy 0.57769 0.60063 0.83285 0.0
C41 C 0.48311 0.38467 0.84175 0.0
C42 C 0.61452 0.70096 0.82114 0.0
Dy43 Dy 0.51697 0.48587 0.83302 0.0
O44 O 0.6318 0.68487 0.83948 0.0
O45 O 0.57759 0.66234 0.8091 0.0
O46 O 0.60423 0.60246 0.87324 0.0
O47 O 0.53166 0.54383 0.86149 0.0
C48 C 0.56417 0.55928 0.87931 0.0
C49 C 0.5296 0.52811 0.78669 0.0
O50 O 0.45167 0.49908 0.84261 0.0
O51 O 0.49574 0.58413 0.83029 0.0
O52 O 0.47108 0.40266 0.8221 0.0
O53 O 0.51226 0.42209 0.85709 0.0
O54 O 0.48839 0.48675 0.79359 0.0
O55 O 0.56329 0.54269 0.80402 0.0
O56 O 0.64193 0.58648 0.82367 0.0
O57 O 0.59914 0.50221 0.83684 0.0
C58 C 0.45234 0.5422 0.83672 0.0
C59 C 0.64224 0.54436 0.83038 0.0
P60 P 0.54669 0.99715 0.22339 0.0
H61 H 0.50619 0.90256 0.1935 0.0
H62 H 0.41953 0.83528 0.18385 0.0
H63 H 0.36203 0.93339 0.20961 0.0
H64 H 0.44957 0.99957 0.22093 0.0
H65 H 0.65546 0.03335 0.21693 0.0
H66 H 0.72693 0.11066 0.20003 0.0
H67 H 0.62372 0.1632 0.17664 0.0
H68 H 0.55088 0.08408 0.19388 0.0
H69 H 0.5084 0.94145 0.27099 0.0
H70 H 0.56306 0.09549 0.24473 0.0
O71 O 0.57027 0.95852 0.2292 0.0
H72 H 0.50717 0.96878 0.31484 0.0
H73 H 0.56077 0.12287 0.28838 0.0
C74 C 0.48474 0.95623 0.20822 0.0
C75 C 0.47513 0.91016 0.19667 0.0
C76 C 0.42492 0.87134 0.191 0.0
C77 C 0.38255 0.8777 0.19623 0.0
C78 C 0.39293 0.92583 0.20595 0.0
C79 C 0.44334 0.96442 0.21203 0.0
C80 C 0.5971 0.05183 0.20629 0.0
C81 C 0.64742 0.06054 0.20764 0.0
C82 C 0.68877 0.10526 0.1979 0.0
C83 C 0.68151 0.14345 0.1867 0.0
C84 C 0.63093 0.13476 0.18515 0.0
C85 C 0.5891 0.08926 0.19475 0.0
C86 C 0.53722 0.01664 0.25464 0.0
C87 C 0.51937 0.98102 0.2746 0.0
C88 C 0.51823 0.99664 0.29968 0.0
C89 C 0.53462 0.04825 0.30526 0.0
C90 C 0.54899 0.08306 0.28486 0.0
C91 C 0.55023 0.06739 0.25979 0.0
P92 P 0.55555 0.57842 0.55005 0.0
H93 H 0.52027 0.5225 0.50014 0.0
H94 H 0.50282 0.43656 0.48687 0.0
H95 H 0.5216 0.40403 0.56516 0.0
H96 H 0.54164 0.48904 0.57771 0.0
H97 H 0.60377 0.65649 0.5103 0.0
H98 H 0.59028 0.72636 0.49712 0.0
H99 H 0.45196 0.66222 0.5421 0.0
H100 H 0.46529 0.59189 0.55484 0.0
H101 H 0.61677 0.64656 0.59214 0.0
H102 H 0.46586 0.51515 0.58189 0.0
O103 O 0.61906 0.60615 0.54691 0.0
H104 H 0.60277 0.64442 0.63816 0.0
H105 H 0.45259 0.51028 0.62784 0.0
C106 C 0.53049 0.51209 0.54014 0.0
C107 C 0.51937 0.49628 0.51446 0.0
C108 C 0.50947 0.44709 0.5069 0.0
C109 C 0.51126 0.41324 0.52489 0.0
C110 C 0.52066 0.42897 0.55061 0.0
C111 C 0.5311 0.47775 0.55797 0.0
C112 C 0.53584 0.61889 0.53379 0.0
C113 C 0.56976 0.65656 0.51682 0.0
C114 C 0.56234 0.69707 0.50954 0.0
C115 C 0.52065 0.70088 0.51897 0.0
C116 C 0.48454 0.66082 0.5344 0.0
C117 C 0.49207 0.62028 0.5417 0.0
C118 C 0.54297 0.58003 0.5837 0.0
C119 C 0.58066 0.61703 0.59983 0.0
C120 C 0.57269 0.61546 0.62624 0.0
C121 C 0.52689 0.57656 0.63705 0.0
C122 C 0.48823 0.54115 0.62047 0.0
C123 C 0.49593 0.54345 0.59408 0.0
P124 P 0.05747 0.57361 0.88128 0.0
H125 H 0.16772 0.6349 0.87831 0.0
H126 H 0.23565 0.61666 0.8691 0.0
H127 H 0.12274 0.45858 0.85338 0.0
H128 H 0.05387 0.47747 0.86329 0.0
H129 H 0.01674 0.58536 0.8325 0.0
H130 H 0.93007 0.5639 0.81968 0.0
H131 H 0.86988 0.47344 0.88799 0.0
H132 H 0.95621 0.49384 0.90021 0.0
H133 H 0.08029 0.51648 0.92018 0.0
H134 H 0.02246 0.62128 0.91799 0.0
O135 O 0.08145 0.63543 0.87435 0.0
H136 H 0.07726 0.51637 0.967 0.0
H137 H 0.01831 0.62055 0.96454 0.0
C138 C 0.10543 0.55798 0.87075 0.0
C139 C 0.15718 0.59643 0.87233 0.0
C140 C 0.19633 0.58589 0.867 0.0
C141 C 0.18513 0.53625 0.86004 0.0
C142 C 0.133 0.49732 0.85863 0.0
C143 C 0.09348 0.50809 0.86402 0.0
C144 C 0.9934 0.5416 0.86742 0.0
C145 C 0.98469 0.55941 0.84427 0.0
C146 C 0.935 0.54777 0.83717 0.0
C147 C 0.89269 0.5179 0.85306 0.0
C148 C 0.90116 0.49654 0.87517 0.0
C149 C 0.95087 0.50818 0.88222 0.0
C150 C 0.05279 0.56994 0.91565 0.0
C151 C 0.06686 0.53938 0.92973 0.0
C152 C 0.06473 0.53902 0.9565 0.0
C153 C 0.04829 0.56908 0.96953 0.0
C154 C 0.03235 0.59795 0.95516 0.0
C155 C 0.03454 0.59829 0.92853 0.0
P156 P 0.12201 0.49948 0.44468 0.0
H157 H 0.22639 0.58153 0.44122 0.0
H158 H 0.26653 0.67407 0.44554 0.0
H159 H 0.12305 0.65757 0.47123 0.0
H160 H 0.0823 0.56379 0.46651 0.0
H161 H 0.04052 0.40002 0.42877 0.0
H162 H 0.96743 0.33157 0.45023 0.0
H163 H 1.00558 0.42407 0.51878 0.0
H164 H 0.08013 0.4939 0.49679 0.0
H165 H 0.0659 0.53968 0.41666 0.0
H166 H 0.14017 0.4525 0.39988 0.0
O167 O 0.16537 0.48091 0.44787 0.0
H168 H 0.03836 0.53174 0.37198 0.0
H169 H 0.11237 0.44407 0.35534 0.0
C170 C 0.15172 0.56567 0.45417 0.0
C171 C 0.20366 0.59748 0.4484 0.0
C172 C 0.22645 0.65046 0.45052 0.0
C173 C 0.19769 0.67288 0.45841 0.0
C174 C 0.14597 0.64106 0.46514 0.0
C175 C 0.12287 0.58763 0.46269 0.0
C176 C 0.06503 0.45282 0.46088 0.0
C177 C 0.03307 0.40637 0.44827 0.0
C178 C 0.99154 0.36673 0.46072 0.0
C179 C 0.98111 0.37218 0.48629 0.0
C180 C 0.01278 0.41894 0.49903 0.0
C181 C 0.05505 0.45887 0.48646 0.0
C182 C 0.10584 0.49744 0.41144 0.0
C183 C 0.07698 0.51955 0.40329 0.0
C184 C 0.06116 0.51493 0.37781 0.0
C185 C 0.07316 0.48721 0.36028 0.0
C186 C 0.10226 0.4653 0.36854 0.0
C187 C 0.11853 0.47044 0.39392 0.0
P188 P 0.66974 0.13376 0.77684 0.0
H189 H 0.70517 0.21668 0.81454 0.0
H190 H 0.66104 0.25231 0.83839 0.0
H191 H 0.51544 0.13113 0.80953 0.0
H192 H 0.56019 0.09814 0.78436 0.0
H193 H 0.73456 0.08878 0.76992 0.0
H194 H 0.72 1.00223 0.77692 0.0
H195 H 0.57179 0.95736 0.80918 0.0
H196 H 0.58682 0.04372 0.80288 0.0
H197 H 0.70855 0.20032 0.73199 0.0
H198 H 0.57751 0.0541 0.75109 0.0
O199 O 0.73223 0.17722 0.77731 0.0
H200 H 0.67446 0.19244 0.68849 0.0
H201 H 0.54277 0.04711 0.70812 0.0
C202 C 0.63617 0.155 0.79743 0.0
C203 C 0.66373 0.19755 0.81347 0.0
C204 C 0.63823 0.21755 0.82741 0.0
C205 C 0.58448 0.19484 0.82584 0.0
C206 C 0.55687 0.15033 0.81084 0.0
C207 C 0.58252 0.13107 0.79653 0.0
C208 C 0.66207 0.07301 0.7861 0.0
C209 C 0.69947 0.06068 0.77908 0.0
C210 C 0.69113 0.01131 0.78299 0.0
C211 C 0.6447 0.97336 0.79344 0.0
C212 C 0.60775 0.98603 0.80092 0.0
C213 C 0.61648 0.03555 0.7974 0.0
C214 C 0.6457 0.12769 0.74474 0.0
C215 C 0.67257 0.16658 0.72687 0.0
C216 C 0.65312 0.16215 0.7021 0.0
C217 C 0.60595 0.11932 0.69514 0.0
C218 C 0.57898 0.08071 0.71315 0.0
C219 C 0.59891 0.08469 0.73768 0.0
P220 P 0.49732 0.41548 0.10749 0.0
H221 H 0.5404 0.37574 0.14486 0.0
H222 H 0.61853 0.41608 0.17028 0.0
H223 H 0.64934 0.56507 0.14477 0.0
H224 H 0.57257 0.52372 0.11793 0.0
H225 H 0.38975 0.34283 0.11922 0.0
H226 H 0.3154 0.35381 0.12431 0.0
H227 H 0.41442 0.51811 0.12086 0.0
H228 H 0.4883 0.50672 0.11501 0.0
H229 H 0.59453 0.45792 0.07942 0.0
H230 H 0.4397 0.42446 0.06483 0.0
O231 O 0.47767 0.35302 0.10629 0.0
H232 H 0.61834 0.48986 0.03575 0.0
H233 H 0.46343 0.45758 0.02177 0.0
C234 C 0.55075 0.44663 0.12935 0.0
C235 C 0.56366 0.41712 0.1449 0.0
C236 C 0.6083 0.44048 0.15975 0.0
C237 C 0.64072 0.49409 0.15965 0.0
C238 C 0.62593 0.52371 0.14507 0.0
C239 C 0.58156 0.50014 0.12991 0.0
C240 C 0.44475 0.424 0.11706 0.0
C241 C 0.39567 0.38126 0.1201 0.0
C242 C 0.3531 0.38759 0.123 0.0
C243 C 0.35893 0.43684 0.12278 0.0
C244 C 0.40852 0.47964 0.12072 0.0
C245 C 0.451 0.47322 0.11781 0.0
C246 C 0.51574 0.44022 0.07565 0.0
C247 C 0.56586 0.4581 0.06698 0.0
C248 C 0.57943 0.4764 0.04203 0.0
C249 C 0.54284 0.47646 0.02528 0.0
C250 C 0.49246 0.45761 0.03402 0.0
C251 C 0.47898 0.43922 0.05885 0.0
H252 H 0.18458 0.49441 0.11515 0.0
H253 H 0.11794 0.37867 0.17338 0.0
H254 H 0.18974 0.36292 0.17004 0.0
H255 H 0.27404 0.38592 0.15252 0.0
H256 H 0.34122 0.50239 0.09456 0.0
H257 H 0.26715 0.51461 0.09616 0.0
C258 C 0.1855 0.46523 0.1268 0.0
C259 C 0.14616 0.43765 0.14443 0.0
C260 C 0.2274 0.45715 0.12516 0.0
C261 C 0.14786 0.40028 0.15962 0.0
C262 C 0.18899 0.39144 0.15781 0.0
C263 C 0.27222 0.41357 0.14004 0.0
C264 C 0.31335 0.44349 0.12363 0.0
C265 C 0.2294 0.42026 0.14096 0.0
C266 C 0.31058 0.47956 0.10776 0.0
C267 C 0.26803 0.48629 0.10849 0.0
H268 H 0.78369 0.16327 0.50937 0.0
H269 H 0.73267 0.26472 0.53732 0.0
H270 H 0.81935 0.33802 0.53282 0.0
H271 H 0.90594 0.37436 0.51424 0.0
H272 H 0.95597 0.2722 0.48606 0.0
H273 H 0.87386 0.19822 0.49763 0.0
C274 C 0.79191 0.20128 0.51504 0.0
C275 C 0.75191 0.20881 0.52326 0.0
C276 C 0.84158 0.24327 0.51204 0.0
C277 C 0.76294 0.25808 0.53079 0.0
C278 C 0.81243 0.30007 0.52807 0.0
C279 C 0.8993 0.33589 0.51133 0.0
C280 C 0.93644 0.3287 0.49881 0.0
C281 C 0.85158 0.29337 0.51773 0.0
C282 C 0.92743 0.27863 0.49517 0.0
C283 C 0.88052 0.23631 0.50177 0.0
H284 H 0.5629 0.73621 0.79398 0.0
H285 H 0.70076 0.78587 0.83842 0.0
H286 H 0.7239 0.87551 0.83273 0.0
H287 H 0.70267 0.93938 0.81649 0.0
H288 H 0.56168 0.88836 0.7746 0.0
H289 H 0.54167 0.79944 0.77796 0.0
C290 C 0.59824 0.76675 0.8022 0.0
C291 C 0.6303 0.75484 0.81646 0.0
C292 C 0.61039 0.81777 0.79947 0.0
C293 C 0.67563 0.79445 0.82732 0.0
C294 C 0.68877 0.84555 0.82412 0.0
C295 C 0.66779 0.90865 0.80802 0.0
C296 C 0.63357 0.92 0.79539 0.0
C297 C 0.65613 0.85762 0.81046 0.0
C298 C 0.58824 0.88016 0.78462 0.0
C299 C 0.57692 0.82948 0.78645 0.0
H300 H 0.84572 0.53521 0.21163 0.0
H301 H 0.90881 0.64397 0.15012 0.0
H302 H 0.82374 0.63022 0.13996 0.0
H303 H 0.73082 0.57503 0.14316 0.0
H304 H 0.66681 0.46656 0.20492 0.0
H305 H 0.75297 0.49225 0.2202 0.0
C306 C 0.84104 0.55713 0.19656 0.0
C307 C 0.88321 0.58986 0.18135 0.0
C308 C 0.79173 0.54803 0.19038 0.0
C309 C 0.87678 0.61823 0.16196 0.0
C310 C 0.82805 0.61004 0.15599 0.0
C311 C 0.73531 0.55809 0.16049 0.0
C312 C 0.69205 0.51779 0.17239 0.0
C313 C 0.78499 0.57311 0.16924 0.0
C314 C 0.69929 0.49641 0.19478 0.0
C315 C 0.74862 0.5113 0.20367 0.0
H316 H 0.3471 0.9093 0.44882 0.0
H317 H 0.30443 0.90429 0.52777 0.0
H318 H 0.23813 0.81428 0.52288 0.0
H319 H 0.20215 0.7338 0.49798 0.0
H320 H 0.24946 0.73835 0.41992 0.0
H321 H 0.30363 0.83143 0.42248 0.0
C322 C 0.32228 0.88886 0.46472 0.0
C323 C 0.33075 0.91312 0.48863 0.0
C324 C 0.28562 0.83665 0.46203 0.0
C325 C 0.29863 0.88622 0.50917 0.0
C326 C 0.26096 0.83467 0.50644 0.0
C327 C 0.2234 0.75547 0.48141 0.0
C328 C 0.22246 0.72945 0.45892 0.0
C329 C 0.25557 0.80892 0.48325 0.0
C330 C 0.25027 0.75772 0.43755 0.0
C331 C 0.28121 0.81087 0.439 0.0
H332 H 0.53072 0.35215 0.87429 0.0
H333 H 0.43088 0.30606 0.80833 0.0
H334 H 0.44809 0.23659 0.79972 0.0
H335 H 0.50456 0.20148 0.80587 0.0
H336 H 0.60589 0.24776 0.87141 0.0
H337 H 0.57544 0.30527 0.88506 0.0
C338 C 0.51147 0.32583 0.85853 0.0
C339 C 0.4803 0.33458 0.84169 0.0
C340 C 0.52296 0.28708 0.85319 0.0
C341 C 0.45537 0.30022 0.82141 0.0
C342 C 0.46557 0.2608 0.81635 0.0
C343 C 0.51885 0.2226 0.82365 0.0
C344 C 0.5584 0.22097 0.83725 0.0
C345 C 0.50135 0.25566 0.83134 0.0
C346 C 0.57656 0.24932 0.86012 0.0
C347 C 0.55895 0.28204 0.86804 0.0
H348 H 0.46846 0.87875 0.502 0.0
H349 H 0.63266 0.97138 0.5119 0.0
H350 H 0.63889 0.8944 0.51618 0.0
H351 H 0.59812 0.80085 0.51865 0.0
H352 H 0.4342 0.70723 0.50889 0.0
H353 H 0.42769 0.78422 0.50328 0.0
C354 C 0.50569 0.88221 0.50497 0.0
C355 C 0.54999 0.93133 0.50665 0.0
C356 C 0.50915 0.8374 0.50759 0.0
C357 C 0.59777 0.93452 0.51056 0.0
C358 C 0.60146 0.89033 0.51303 0.0
C359 C 0.56096 0.79704 0.51489 0.0
C360 C 0.51675 0.74787 0.51415 0.0
C361 C 0.55745 0.84158 0.51174 0.0
C362 C 0.46891 0.7443 0.50982 0.0
C363 C 0.46517 0.78844 0.5065 0.0
H364 H 0.66088 0.46727 0.84455 0.0
H365 H 0.73712 0.62369 0.81816 0.0
H366 H 0.8199 0.62831 0.82174 0.0
H367 H 0.87171 0.5901 0.83435 0.0
H368 H 0.79667 0.43357 0.86032 0.0
H369 H 0.71305 0.42725 0.85508 0.0
C370 C 0.69552 0.50228 0.83939 0.0
C371 C 0.69227 0.54511 0.83115 0.0
C372 C 0.7436 0.50491 0.84159 0.0
C373 C 0.73794 0.59005 0.8246 0.0
C374 C 0.78557 0.59283 0.82667 0.0
C375 C 0.83716 0.55417 0.83843 0.0
C376 C 0.84106 0.51242 0.84778 0.0
C377 C 0.789 0.55073 0.83537 0.0
C378 C 0.79536 0.46666 0.85341 0.0
C379 C 0.74731 0.46292 0.85033 0.0
H380 H 0.14837 0.69858 0.2024 0.0
H381 H 0.19956 0.63563 0.14286 0.0
H382 H 0.28433 0.71226 0.1439 0.0
H383 H 0.34473 0.7967 0.16185 0.0
H384 H 0.29649 0.8569 0.22417 0.0
H385 H 0.21024 0.78322 0.22117 0.0
C386 C 0.17802 0.70171 0.18959 0.0
C387 C 0.16723 0.66102 0.17258 0.0
C388 C 0.2275 0.74589 0.19057 0.0
C389 C 0.2065 0.6659 0.15628 0.0
C390 C 0.25516 0.70994 0.15679 0.0
C391 C 0.31585 0.79385 0.17509 0.0
C392 C 0.32827 0.83336 0.19322 0.0
C393 C 0.2663 0.75009 0.17397 0.0
C394 C 0.28887 0.82842 0.20958 0.0
C395 C 0.23922 0.78565 0.20812 0.0
H396 H 0.46757 0.19298 0.48643 0.0
H397 H 0.59097 0.23141 0.54025 0.0
H398 H 0.59668 0.31257 0.54943 0.0
H399 H 0.56904 0.37412 0.54242 0.0
H400 H 0.44553 0.34004 0.48983 0.0
H401 H 0.43854 0.25712 0.47958 0.0
C402 C 0.49544 0.21906 0.50023 0.0
C403 C 0.52899 0.20565 0.51241 0.0
C404 C 0.49903 0.26702 0.50556 0.0
C405 C 0.56498 0.24035 0.53021 0.0
C406 C 0.56837 0.28711 0.53561 0.0
C407 C 0.53997 0.34845 0.52893 0.0
C408 C 0.50737 0.36334 0.51727 0.0
C409 C 0.5359 0.30098 0.52339 0.0
C410 C 0.47125 0.32987 0.49916 0.0
C411 C 0.46704 0.28219 0.49342 0.0
H412 H 0.35706 0.47218 0.85608 0.0
H413 H 0.43935 0.61994 0.81963 0.0
H414 H 0.36396 0.62916 0.82215 0.0
H415 H 0.27564 0.5975 0.83562 0.0
H416 H 0.19245 0.45177 0.87358 0.0
H417 H 0.26623 0.43918 0.86889 0.0
C418 C 0.35842 0.50628 0.84859 0.0
C419 C 0.40441 0.54541 0.83784 0.0
C420 C 0.31448 0.51175 0.85023 0.0
C421 C 0.40505 0.58925 0.82823 0.0
C422 C 0.36172 0.59463 0.82959 0.0
C423 C 0.2735 0.563 0.84305 0.0
C424 C 0.22829 0.52594 0.85518 0.0
C425 C 0.31644 0.55648 0.84077 0.0
C426 C 0.2263 0.48093 0.86398 0.0
C427 C 0.2688 0.47387 0.8615 0.0
H428 H 0.89843 0.32738 0.15243 0.0
H429 H 0.83449 0.41563 0.18377 0.0
H430 H 0.75355 0.33728 0.19164 0.0
H431 H 0.7018 0.24274 0.19233 0.0
H432 H 0.76531 0.15442 0.16075 0.0
H433 H 0.8445 0.23303 0.15039 0.0
C434 C 0.86669 0.3296 0.16075 0.0
C435 C 0.87322 0.37783 0.16756 0.0
C436 C 0.81976 0.28398 0.16542 0.0
C437 C 0.83121 0.37942 0.17834 0.0
C438 C 0.7846 0.33441 0.18292 0.0
C439 C 0.73255 0.24061 0.18278 0.0
C440 C 0.72731 0.19225 0.17765 0.0
C441 C 0.77853 0.28633 0.17689 0.0
C442 C 0.7682 0.19077 0.16542 0.0
C443 C 0.81367 0.23589 0.15939 0.0
H444 H 0.05637 0.62014 0.08702 0.0
H445 H 0.99348 0.45704 0.09333 0.0
H446 H 0.99899 0.4503 0.04679 0.0
H447 H 0.01795 0.49093 0.00405 0.0
H448 H 0.08145 0.65454 0.99892 0.0
H449 H 0.0791 0.66083 0.04523 0.0
C450 C 0.04401 0.58309 0.07824 0.0
C451 C 0.02411 0.53909 0.09349 0.0
C452 C 0.04706 0.57959 0.05165 0.0
C453 C 0.00872 0.49143 0.08191 0.0
C454 C 0.0118 0.4876 0.05533 0.0
C455 C 0.03175 0.52798 0.01312 0.0
C456 C 0.04916 0.5721 0.99795 0.0
C457 C 0.03037 0.53142 0.03995 0.0
C458 C 0.06678 0.61981 0.01003 0.0
C459 C 0.06575 0.62354 0.03655 0.0
H460 H 0.61381 0.14425 0.41462 0.0
H461 H 0.47382 0.01028 0.43763 0.0
H462 H 0.44954 0.98718 0.39263 0.0
H463 H 0.47241 1.00194 0.34668 0.0
H464 H 0.61471 0.1356 0.32486 0.0
H465 H 0.63336 0.16233 0.36934 0.0
C466 C 0.57761 0.11033 0.40977 0.0
C467 C 0.54553 0.079 0.42933 0.0
C468 C 0.56449 0.09719 0.38401 0.0
C469 C 0.49873 0.03531 0.42287 0.0
C470 C 0.48517 0.02191 0.39714 0.0
C471 C 0.50733 0.03705 0.35166 0.0
C472 C 0.54207 0.06661 0.3323 0.0
C473 C 0.51836 0.05203 0.37753 0.0
C474 C 0.58683 0.11238 0.33916 0.0
C475 C 0.59785 0.12755 0.36468 0.0
H476 H 0.45894 0.51839 0.75205 0.0
H477 H 0.6215 0.58006 0.76214 0.0
H478 H 0.63551 0.60258 0.71676 0.0
H479 H 0.60033 0.59813 0.67378 0.0
H480 H 0.4382 0.54291 0.66465 0.0
H481 H 0.42527 0.52395 0.71007 0.0
C482 C 0.49745 0.53719 0.74429 0.0
C483 C 0.53906 0.547 0.76019 0.0
C484 C 0.50521 0.5506 0.71835 0.0
C485 C 0.5889 0.57204 0.75016 0.0
C486 C 0.59685 0.58471 0.72423 0.0
C487 C 0.56226 0.5831 0.68167 0.0
C488 C 0.52021 0.57111 0.66541 0.0
C489 C 0.55513 0.57336 0.70805 0.0
C490 C 0.47119 0.5511 0.67632 0.0
C491 C 0.46372 0.54058 0.70242 0.0
H492 H 0.4803 0.07797 0.59278 0.0
H493 H 0.6192 0.09227 0.56165 0.0
H494 H 0.65926 0.11381 0.60402 0.0
H495 H 0.65281 0.12354 0.65043 0.0
H496 H 0.5116 0.10267 0.68186 0.0
H497 H 0.47418 0.08861 0.63895 0.0
C498 C 0.51947 0.08622 0.59529 0.0
C499 C 0.54693 0.08383 0.57422 0.0
C500 C 0.54162 0.09704 0.61979 0.0
C501 C 0.59747 0.09416 0.57765 0.0
C502 C 0.6203 0.1063 0.60186 0.0
C503 C 0.61409 0.11651 0.64774 0.0
C504 C 0.5849 0.11421 0.66908 0.0
C505 C 0.5925 0.1072 0.62312 0.0
C506 C 0.53454 0.10438 0.66559 0.0
C507 C 0.51323 0.0964 0.64112 0.0
H508 H 0.62612 0.59448 0.92107 0.0
H509 H 0.48015 0.47127 0.89451 0.0
H510 H 0.46208 0.43318 0.93702 0.0
H511 H 0.48649 0.43632 0.98192 0.0
H512 H 0.63067 0.56144 0.00921 0.0
H513 H 0.65121 0.5968 0.96612 0.0
C514 C 0.59046 0.55923 0.92463 0.0
C515 C 0.5544 0.53578 0.9048 0.0
C516 C 0.5801 0.53784 0.94919 0.0
C517 C 0.50841 0.49006 0.90954 0.0
C518 C 0.49806 0.46828 0.93383 0.0
C519 C 0.52228 0.47153 0.97851 0.0
C520 C 0.55679 0.49635 0.99883 0.0
C521 C 0.53338 0.49213 0.95384 0.0
C522 C 0.60357 0.54127 0.9939 0.0
C523 C 0.61519 0.56174 0.9693 0.0
H524 H 0.99904 0.42202 0.24694 0.0
H525 H 0.05585 0.58407 0.23985 0.0
H526 H 0.07296 0.59538 0.28597 0.0
H527 H 0.07905 0.55984 0.32752 0.0
H528 H 0.02541 0.39815 0.33333 0.0
H529 H 1.00003 0.38599 0.28838 0.0
C530 C 0.01468 0.45978 0.25552 0.0
C531 C 0.0267 0.50224 0.24009 0.0
C532 C 0.02555 0.46605 0.28173 0.0
C533 C 0.04648 0.55084 0.25142 0.0
C534 C 0.05649 0.55732 0.27773 0.0
C535 C 0.0612 0.52193 0.31894 0.0
C536 C 0.0546 0.48001 0.33355 0.0
C537 C 0.04733 0.51535 0.29296 0.0
C538 C 0.03165 0.43107 0.32229 0.0
C539 C 0.01694 0.42407 0.29667 0.0
loop_
_geom_bond_atom_site_label_1
_geom_bond_atom_site_label_2
_geom_bond_distance
_geom_bond_site_symmetry_2
_ccdc_geom_bond_type
Dy0 O4 2.398 . S
Dy0 O5 2.491 . S
Dy0 O6 2.403 . S
Dy0 O7 2.664 . S
Dy0 O11 2.326 . S
Dy0 O15 2.310 . S
Dy0 O16 2.351 1_455 S
C1 O12 1.185 . S
C1 O13 1.355 . S
C2 O4 1.185 . S
C2 O5 1.355 . S
Dy3 O7 2.310 1_655 S
Dy3 O10 2.351 1_655 S
Dy3 O12 2.398 . S
Dy3 O13 2.491 . S
Dy3 O14 2.403 1_655 S
Dy3 O15 2.664 1_655 S
Dy3 O17 2.326 . S
O4 Dy0 2.398 . S
O4 C2 1.185 . S
O5 Dy0 2.491 . S
O5 C2 1.355 . S
O6 Dy0 2.403 . S
O6 C8 1.254 . S
O7 Dy0 2.664 . S
O7 Dy3 2.310 1_455 S
O7 C8 1.268 . S
C8 O6 1.254 . S
C8 O7 1.268 . S
C9 O14 1.254 . S
C9 O15 1.268 . S
O10 Dy3 2.351 1_455 S
O10 C18 1.249 . S
O11 Dy0 2.326 . S
O11 C18 1.267 . S
O12 C1 1.185 . S
O12 Dy3 2.398 . S
O13 C1 1.355 . S
O13 Dy3 2.491 . S
O14 Dy3 2.403 1_455 S
O14 C9 1.254 . S
O15 Dy0 2.310 . S
O15 Dy3 2.664 1_455 S
O15 C9 1.268 . S
O16 Dy0 2.351 1_655 S
O16 C19 1.249 . S
O17 Dy3 2.326 . S
O17 C19 1.267 . S
C18 O10 1.249 . S
C18 O11 1.267 . S
C19 O16 1.249 . S
C19 O17 1.267 . S
Dy20 O24 2.398 . S
Dy20 O25 2.491 . S
Dy20 O26 2.403 1_565 S
Dy20 O27 2.664 1_565 S
Dy20 O31 2.326 . S
Dy20 O35 2.310 1_565 S
Dy20 O36 2.351 1_565 S
C21 O32 1.185 . S
C21 O33 1.355 . S
C22 O24 1.185 . S
C22 O25 1.355 . S
Dy23 O27 2.310 . S
Dy23 O30 2.351 1_545 S
Dy23 O32 2.398 . S
Dy23 O33 2.491 . S
Dy23 O34 2.403 . S
Dy23 O35 2.664 . S
Dy23 O37 2.326 . S
O24 Dy20 2.398 . S
O24 C22 1.185 . S
O25 Dy20 2.491 . S
O25 C22 1.355 . S
O26 Dy20 2.403 1_545 S
O26 C28 1.254 . S
O27 Dy20 2.664 1_545 S
O27 Dy23 2.310 . S
O27 C28 1.268 . S
C28 O26 1.254 . S
C28 O27 1.268 . S
C29 O34 1.254 . S
C29 O35 1.268 . S
O30 Dy23 2.351 1_565 S
O30 C38 1.249 . S
O31 Dy20 2.326 . S
O31 C38 1.267 . S
O32 C21 1.185 . S
O32 Dy23 2.398 . S
O33 C21 1.355 . S
O33 Dy23 2.491 . S
O34 Dy23 2.403 . S
O34 C29 1.254 . S
O35 Dy20 2.310 1_545 S
O35 Dy23 2.664 . S
O35 C29 1.268 . S
O36 Dy20 2.351 1_545 S
O36 C39 1.249 . S
O37 Dy23 2.326 . S
O37 C39 1.267 . S
C38 O30 1.249 . S
C38 O31 1.267 . S
C39 O36 1.249 . S
C39 O37 1.267 . S
Dy40 O44 2.398 . S
Dy40 O45 2.491 . S
Dy40 O46 2.403 . S
Dy40 O47 2.664 . S
Dy40 O51 2.326 . S
Dy40 O55 2.310 . S
Dy40 O56 2.351 . S
C41 O52 1.185 . S
C41 O53 1.355 . S
C42 O44 1.185 . S
C42 O45 1.355 . S
Dy43 O47 2.310 . S
Dy43 O50 2.351 . S
Dy43 O52 2.398 . S
Dy43 O53 2.491 . S
Dy43 O54 2.403 . S
Dy43 O55 2.664 . S
Dy43 O57 2.326 . S
O44 Dy40 2.398 . S
O44 C42 1.185 . S
O45 Dy40 2.491 . S
O45 C42 1.355 . S
O46 Dy40 2.403 . S
O46 C48 1.254 . S
O47 Dy40 2.664 . S
O47 Dy43 2.310 . S
O47 C48 1.268 . S
C48 O46 1.254 . S
C48 O47 1.268 . S
C49 O54 1.254 . S
C49 O55 1.268 . S
O50 Dy43 2.351 . S
O50 C58 1.249 . S
O51 Dy40 2.326 . S
O51 C58 1.267 . S
O52 C41 1.185 . S
O52 Dy43 2.398 . S
O53 C41 1.355 . S
O53 Dy43 2.491 . S
O54 Dy43 2.403 . S
O54 C49 1.254 . S
O55 Dy40 2.310 . S
O55 Dy43 2.664 . S
O55 C49 1.268 . S
O56 Dy40 2.351 . S
O56 C59 1.249 . S
O57 Dy43 2.326 . S
O57 C59 1.267 . S
C58 O50 1.249 . S
C58 O51 1.267 . S
C59 O56 1.249 . S
C59 O57 1.267 . S
P60 O71 1.490 . S
P60 C74 1.812 . S
P60 C80 1.803 1_565 S
P60 C86 1.819 . S
H61 C75 0.941 . S
H62 C76 0.939 . S
H63 C78 0.940 . S
H64 C79 0.940 . S
H65 C81 0.939 . S
H66 C82 0.942 . S
H67 C84 0.940 . S
H68 C85 0.939 . S
H69 C87 0.941 . S
H70 C91 0.939 . S
O71 P60 1.490 . S
H72 C88 0.939 . S
H73 C90 0.940 . S
C74 P60 1.812 . S
C74 C75 1.389 . S
C74 C79 1.391 . S
C75 H61 0.941 . S
C75 C74 1.389 . S
C75 C76 1.397 . S
C76 H62 0.939 . S
C76 C75 1.397 . S
C76 C77 1.378 . S
C77 C76 1.378 . S
C77 C78 1.378 . S
C78 H63 0.940 . S
C78 C77 1.378 . S
C78 C79 1.396 . S
C79 H64 0.940 . S
C79 C74 1.391 . S
C79 C78 1.396 . S
C80 P60 1.803 1_545 S
C80 C81 1.378 . S
C80 C85 1.400 . S
C81 H65 0.939 . S
C81 C80 1.378 . S
C81 C82 1.361 . S
C82 H66 0.942 . S
C82 C81 1.361 . S
C82 C83 1.369 . S
C83 C82 1.369 . S
C83 C84 1.404 . S
C84 H67 0.940 . S
C84 C83 1.404 . S
C84 C85 1.389 . S
C85 H68 0.939 . S
C85 C80 1.400 . S
C85 C84 1.389 . S
C86 P60 1.819 . S
C86 C87 1.391 . S
C86 C91 1.391 1_565 S
C87 H69 0.941 . S
C87 C86 1.391 . S
C87 C88 1.396 . S
C88 H72 0.939 . S
C88 C87 1.396 . S
C88 C89 1.397 1_565 S
C89 C88 1.397 1_545 S
C89 C90 1.385 . S
C90 H73 0.940 . S
C90 C89 1.385 . S
C90 C91 1.388 . S
C91 H70 0.939 . S
C91 C86 1.391 1_545 S
C91 C90 1.388 . S
P92 O103 1.490 . S
P92 C106 1.812 . S
P92 C112 1.803 . S
P92 C118 1.819 . S
H93 C107 0.941 . S
H94 C108 0.939 . S
H95 C110 0.940 . S
H96 C111 0.940 . S
H97 C113 0.939 . S
H98 C114 0.942 . S
H99 C116 0.940 . S
H100 C117 0.939 . S
H101 C119 0.941 . S
H102 C123 0.939 . S
O103 P92 1.490 . S
H104 C120 0.939 . S
H105 C122 0.940 . S
C106 P92 1.812 . S
C106 C107 1.389 . S
C106 C111 1.391 . S
C107 H93 0.941 . S
C107 C106 1.389 . S
C107 C108 1.397 . S
C108 H94 0.939 . S
C108 C107 1.397 . S
C108 C109 1.378 . S
C109 C108 1.378 . S
C109 C110 1.378 . S
C110 H95 0.940 . S
C110 C109 1.378 . S
C110 C111 1.396 . S
C111 H96 0.940 . S
C111 C106 1.391 . S
C111 C110 1.396 . S
C112 P92 1.803 . S
C112 C113 1.378 . S
C112 C117 1.400 . S
C113 H97 0.939 . S
C113 C112 1.378 . S
C113 C114 1.361 . S
C114 H98 0.942 . S
C114 C113 1.361 . S
C114 C115 1.369 . S
C115 C114 1.369 . S
C115 C116 1.404 . S
C116 H99 0.940 . S
C116 C115 1.404 . S
C116 C117 1.389 . S
C117 H100 0.939 . S
C117 C112 1.400 . S
C117 C116 1.389 . S
C118 P92 1.819 . S
C118 C119 1.391 . S
C118 C123 1.391 . S
C119 H101 0.941 . S
C119 C118 1.391 . S
C119 C120 1.396 . S
C120 H104 0.939 . S
C120 C119 1.396 . S
C120 C121 1.397 . S
C121 C120 1.397 . S
C121 C122 1.385 . S
C122 H105 0.940 . S
C122 C121 1.385 . S
C122 C123 1.388 . S
C123 H102 0.939 . S
C123 C118 1.391 . S
C123 C122 1.388 . S
P124 O135 1.490 . S
P124 C138 1.812 . S
P124 C144 1.803 . S
P124 C150 1.819 . S
H125 C139 0.941 . S
H126 C140 0.939 . S
H127 C142 0.940 . S
H128 C143 0.940 . S
H129 C145 0.939 . S
H130 C146 0.942 . S
H131 C148 0.940 . S
H132 C149 0.939 . S
H133 C151 0.941 . S
H134 C155 0.935 1_655 S
O135 P124 1.490 . S
H136 C152 0.939 . S
H137 C154 0.940 1_655 S
C138 P124 1.812 . S
C138 C139 1.389 . S
C138 C143 1.391 . S
C139 H125 0.941 . S
C139 C138 1.389 . S
C139 C140 1.397 . S
C140 H126 0.939 . S
C140 C139 1.397 . S
C140 C141 1.378 . S
C141 C140 1.378 . S
C141 C142 1.378 . S
C142 H127 0.940 . S
C142 C141 1.378 . S
C142 C143 1.396 . S
C143 H128 0.940 . S
C143 C138 1.391 . S
C143 C142 1.396 . S
C144 P124 1.803 . S
C144 C145 1.378 . S
C144 C149 1.400 . S
C145 H129 0.939 . S
C145 C144 1.378 . S
C145 C146 1.361 1_455 S
C146 H130 0.942 . S
C146 C145 1.361 1_655 S
C146 C147 1.369 . S
C147 C146 1.369 . S
C147 C148 1.404 . S
C148 H131 0.940 . S
C148 C147 1.404 . S
C148 C149 1.389 1_655 S
C149 H132 0.939 . S
C149 C144 1.400 . S
C149 C148 1.389 1_455 S
C150 P124 1.819 . S
C150 C151 1.391 . S
C150 C155 1.391 . S
C151 H133 0.941 . S
C151 C150 1.391 . S
C151 C152 1.396 . S
C152 H136 0.939 . S
C152 C151 1.396 . S
C152 C153 1.397 . S
C153 C152 1.397 . S
C153 C154 1.385 . S
C154 H137 0.940 1_455 S
C154 C153 1.385 . S
C154 C155 1.388 . S
C155 H134 0.935 1_455 S
C155 C150 1.391 . S
C155 C154 1.388 . S
P156 O167 1.490 . S
P156 C170 1.812 . S
P156 C176 1.803 1_455 S
P156 C182 1.819 . S
H157 C171 0.941 . S
H158 C172 0.939 . S
H159 C174 0.940 . S
H160 C175 0.940 . S
H161 C177 0.939 . S
H162 C178 0.942 . S
H163 C180 0.940 . S
H164 C181 0.939 . S
H165 C183 0.941 . S
H166 C187 0.939 . S
O167 P156 1.490 . S
H168 C184 0.939 . S
H169 C186 0.940 . S
C170 P156 1.812 . S
C170 C171 1.389 . S
C170 C175 1.391 . S
C171 H157 0.941 . S
C171 C170 1.389 . S
C171 C172 1.397 . S
C172 H158 0.939 . S
C172 C171 1.397 . S
C172 C173 1.378 . S
C173 C172 1.378 . S
C173 C174 1.378 . S
C174 H159 0.940 . S
C174 C173 1.378 . S
C174 C175 1.396 . S
C175 H160 0.940 . S
C175 C170 1.391 . S
C175 C174 1.396 . S
C176 P156 1.803 1_655 S
C176 C177 1.378 . S
C176 C181 1.400 . S
C177 H161 0.939 . S
C177 C176 1.378 . S
C177 C178 1.361 . S
C178 H162 0.942 . S
C178 C177 1.361 . S
C178 C179 1.369 . S
C179 C178 1.369 . S
C179 C180 1.404 . S
C180 H163 0.940 . S
C180 C179 1.404 . S
C180 C181 1.389 . S
C181 H164 0.939 . S
C181 C176 1.400 . S
C181 C180 1.389 . S
C182 P156 1.819 . S
C182 C183 1.391 . S
C182 C187 1.391 1_455 S
C183 H165 0.941 . S
C183 C182 1.391 . S
C183 C184 1.396 . S
C184 H168 0.939 . S
C184 C183 1.396 . S
C184 C185 1.397 . S
C185 C184 1.397 . S
C185 C186 1.385 1_455 S
C186 H169 0.940 . S
C186 C185 1.385 1_655 S
C186 C187 1.388 . S
C187 H166 0.939 . S
C187 C182 1.391 1_655 S
C187 C186 1.388 . S
P188 O199 1.490 . S
P188 C202 1.812 . S
P188 C208 1.803 . S
P188 C214 1.819 . S
H189 C203 0.941 . S
H190 C204 0.939 . S
H191 C206 0.940 . S
H192 C207 0.940 . S
H193 C209 0.939 . S
H194 C210 0.942 . S
H195 C212 0.940 . S
H196 C213 0.939 . S
H197 C215 0.941 . S
H198 C219 0.941 1_565 S
O199 P188 1.490 . S
H200 C216 0.939 . S
H201 C218 0.940 1_565 S
C202 P188 1.812 . S
C202 C203 1.389 . S
C202 C207 1.391 . S
C203 H189 0.941 . S
C203 C202 1.389 . S
C203 C204 1.397 . S
C204 H190 0.939 . S
C204 C203 1.397 . S
C204 C205 1.378 . S
C205 C204 1.378 . S
C205 C206 1.378 . S
C206 H191 0.940 . S
C206 C205 1.378 . S
C206 C207 1.396 . S
C207 H192 0.940 . S
C207 C202 1.391 . S
C207 C206 1.396 . S
C208 P188 1.803 . S
C208 C209 1.378 . S
C208 C213 1.400 . S
C209 H193 0.939 . S
C209 C208 1.378 . S
C209 C210 1.361 1_545 S
C210 H194 0.942 . S
C210 C209 1.361 1_565 S
C210 C211 1.369 . S
C211 C210 1.369 . S
C211 C212 1.404 . S
C212 H195 0.940 . S
C212 C211 1.404 . S
C212 C213 1.389 1_565 S
C213 H196 0.939 . S
C213 C208 1.400 . S
C213 C212 1.389 1_545 S
C214 P188 1.819 . S
C214 C215 1.391 . S
C214 C219 1.391 . S
C215 H197 0.941 . S
C215 C214 1.391 . S
C215 C216 1.396 . S
C216 H200 0.939 . S
C216 C215 1.396 . S
C216 C217 1.397 . S
C217 C216 1.397 . S
C217 C218 1.385 . S
C218 H201 0.940 1_545 S
C218 C217 1.385 . S
C218 C219 1.388 . S
C219 H198 0.941 1_545 S
C219 C214 1.391 . S
C219 C218 1.388 . S
P220 O231 1.490 . S
P220 C234 1.812 . S
P220 C240 1.803 . S
P220 C246 1.819 . S
H221 C235 0.941 . S
H222 C236 0.939 . S
H223 C238 0.940 . S
H224 C239 0.940 . S
H225 C241 0.939 . S
H226 C242 0.942 . S
H227 C244 0.940 . S
H228 C245 0.939 . S
H229 C247 0.941 . S
H230 C251 0.939 . S
O231 P220 1.490 . S
H232 C248 0.939 . S
H233 C250 0.940 . S
C234 P220 1.812 . S
C234 C235 1.389 . S
C234 C239 1.391 . S
C235 H221 0.941 . S
C235 C234 1.389 . S
C235 C236 1.397 . S
C236 H222 0.939 . S
C236 C235 1.397 . S
C236 C237 1.378 . S
C237 C236 1.378 . S
C237 C238 1.378 . S
C238 H223 0.940 . S
C238 C237 1.378 . S
C238 C239 1.396 . S
C239 H224 0.940 . S
C239 C234 1.391 . S
C239 C238 1.396 . S
C240 P220 1.803 . S
C240 C241 1.378 . S
C240 C245 1.400 . S
C241 H225 0.939 . S
C241 C240 1.378 . S
C241 C242 1.361 . S
C242 H226 0.942 . S
C242 C241 1.361 . S
C242 C243 1.369 . S
C243 C242 1.369 . S
C243 C244 1.404 . S
C244 H227 0.940 . S
C244 C243 1.404 . S
C244 C245 1.389 . S
C245 H228 0.939 . S
C245 C240 1.400 . S
C245 C244 1.389 . S
C246 P220 1.819 . S
C246 C247 1.391 . S
C246 C251 1.391 . S
C247 H229 0.941 . S
C247 C246 1.391 . S
C247 C248 1.396 . S
C248 H232 0.939 . S
C248 C247 1.396 . S
C248 C249 1.397 . S
C249 C248 1.397 . S
C249 C250 1.385 . S
C250 H233 0.940 . S
C250 C249 1.385 . S
C250 C251 1.388 . S
C251 H230 0.939 . S
C251 C246 1.391 . S
C251 C250 1.388 . S
H252 C258 0.930 . S
H253 C261 0.930 . S
H254 C262 0.930 . S
H255 C263 0.930 . S
H256 C266 0.930 . S
H257 C267 0.930 . S
C258 H252 0.930 . S
C258 C259 1.355 . S
C258 C260 1.415 . S
C259 C258 1.355 . S
C259 C261 1.419 . S
C260 C258 1.415 . S
C260 C265 1.425 . S
C260 C267 1.409 . S
C261 H253 0.930 . S
C261 C259 1.419 . S
C261 C262 1.362 . S
C262 H254 0.930 . S
C262 C261 1.362 . S
C262 C265 1.409 . S
C263 H255 0.930 . S
C263 C264 1.355 . S
C263 C265 1.415 . S
C264 C263 1.355 . S
C264 C266 1.419 . S
C265 C260 1.425 . S
C265 C262 1.409 . S
C265 C263 1.415 . S
C266 H256 0.930 . S
C266 C264 1.419 . S
C266 C267 1.362 . S
C267 H257 0.930 . S
C267 C260 1.409 . S
C267 C266 1.362 . S
H268 C274 0.930 . S
H269 C277 0.930 . S
H270 C278 0.930 . S
H271 C279 0.930 . S
H272 C282 0.930 . S
H273 C283 0.930 . S
C274 H268 0.930 . S
C274 C275 1.355 . S
C274 C276 1.415 . S
C275 C274 1.355 . S
C275 C277 1.419 . S
C276 C274 1.415 . S
C276 C281 1.425 . S
C276 C283 1.409 . S
C277 H269 0.930 . S
C277 C275 1.419 . S
C277 C278 1.362 . S
C278 H270 0.930 . S
C278 C277 1.362 . S
C278 C281 1.409 . S
C279 H271 0.930 . S
C279 C280 1.355 . S
C279 C281 1.415 . S
C280 C279 1.355 . S
C280 C282 1.419 . S
C281 C276 1.425 . S
C281 C278 1.409 . S
C281 C279 1.415 . S
C282 H272 0.930 . S
C282 C280 1.419 . S
C282 C283 1.362 . S
C283 H273 0.930 . S
C283 C276 1.409 . S
C283 C282 1.362 . S
H284 C290 0.930 . S
H285 C293 0.930 . S
H286 C294 0.930 . S
H287 C295 0.930 . S
H288 C298 0.930 . S
H289 C299 0.930 . S
C290 H284 0.930 . S
C290 C291 1.355 . S
C290 C292 1.415 . S
C291 C290 1.355 . S
C291 C293 1.419 . S
C292 C290 1.415 . S
C292 C297 1.425 . S
C292 C299 1.409 . S
C293 H285 0.930 . S
C293 C291 1.419 . S
C293 C294 1.362 . S
C294 H286 0.930 . S
C294 C293 1.362 . S
C294 C297 1.409 . S
C295 H287 0.930 . S
C295 C296 1.355 . S
C295 C297 1.415 . S
C296 C295 1.355 . S
C296 C298 1.419 . S
C297 C292 1.425 . S
C297 C294 1.409 . S
C297 C295 1.415 . S
C298 H288 0.930 . S
C298 C296 1.419 . S
C298 C299 1.362 . S
C299 H289 0.930 . S
C299 C292 1.409 . S
C299 C298 1.362 . S
H300 C306 0.930 . S
H301 C309 0.930 . S
H302 C310 0.930 . S
H303 C311 0.930 . S
H304 C314 0.930 . S
H305 C315 0.930 . S
C306 H300 0.930 . S
C306 C307 1.355 . S
C306 C308 1.415 . S
C307 C306 1.355 . S
C307 C309 1.419 . S
C308 C306 1.415 . S
C308 C313 1.425 . S
C308 C315 1.409 . S
C309 H301 0.930 . S
C309 C307 1.419 . S
C309 C310 1.362 . S
C310 H302 0.930 . S
C310 C309 1.362 . S
C310 C313 1.409 . S
C311 H303 0.930 . S
C311 C312 1.355 . S
C311 C313 1.415 . S
C312 C311 1.355 . S
C312 C314 1.419 . S
C313 C308 1.425 . S
C313 C310 1.409 . S
C313 C311 1.415 . S
C314 H304 0.930 . S
C314 C312 1.419 . S
C314 C315 1.362 . S
C315 H305 0.930 . S
C315 C308 1.409 . S
C315 C314 1.362 . S
H316 C322 0.930 . S
H317 C325 0.930 . S
H318 C326 0.930 . S
H319 C327 0.930 . S
H320 C330 0.930 . S
H321 C331 0.930 . S
C322 H316 0.930 . S
C322 C323 1.355 . S
C322 C324 1.415 . S
C323 C322 1.355 . S
C323 C325 1.419 . S
C324 C322 1.415 . S
C324 C329 1.425 . S
C324 C331 1.409 . S
C325 H317 0.930 . S
C325 C323 1.419 . S
C325 C326 1.362 . S
C326 H318 0.930 . S
C326 C325 1.362 . S
C326 C329 1.409 . S
C327 H319 0.930 . S
C327 C328 1.355 . S
C327 C329 1.415 . S
C328 C327 1.355 . S
C328 C330 1.419 . S
C329 C324 1.425 . S
C329 C326 1.409 . S
C329 C327 1.415 . S
C330 H320 0.930 . S
C330 C328 1.419 . S
C330 C331 1.362 . S
C331 H321 0.930 . S
C331 C324 1.409 . S
C331 C330 1.362 . S
H332 C338 0.930 . S
H333 C341 0.930 . S
H334 C342 0.930 . S
H335 C343 0.930 . S
H336 C346 0.930 . S
H337 C347 0.930 . S
C338 H332 0.930 . S
C338 C339 1.355 . S
C338 C340 1.415 . S
C339 C338 1.355 . S
C339 C341 1.419 . S
C340 C338 1.415 . S
C340 C345 1.425 . S
C340 C347 1.409 . S
C341 H333 0.930 . S
C341 C339 1.419 . S
C341 C342 1.362 . S
C342 H334 0.930 . S
C342 C341 1.362 . S
C342 C345 1.409 . S
C343 H335 0.930 . S
C343 C344 1.355 . S
C343 C345 1.415 . S
C344 C343 1.355 . S
C344 C346 1.419 . S
C345 C340 1.425 . S
C345 C342 1.409 . S
C345 C343 1.415 . S
C346 H336 0.930 . S
C346 C344 1.419 . S
C346 C347 1.362 . S
C347 H337 0.930 . S
C347 C340 1.409 . S
C347 C346 1.362 . S
H348 C354 0.930 . S
H349 C357 0.930 . S
H350 C358 0.930 . S
H351 C359 0.930 . S
H352 C362 0.930 . S
H353 C363 0.930 . S
C354 H348 0.930 . S
C354 C355 1.355 . S
C354 C356 1.415 . S
C355 C354 1.355 . S
C355 C357 1.419 . S
C356 C354 1.415 . S
C356 C361 1.425 . S
C356 C363 1.409 . S
C357 H349 0.930 . S
C357 C355 1.419 . S
C357 C358 1.362 . S
C358 H350 0.930 . S
C358 C357 1.362 . S
C358 C361 1.409 . S
C359 H351 0.930 . S
C359 C360 1.355 . S
C359 C361 1.415 . S
C360 C359 1.355 . S
C360 C362 1.419 . S
C361 C356 1.425 . S
C361 C358 1.409 . S
C361 C359 1.415 . S
C362 H352 0.930 . S
C362 C360 1.419 . S
C362 C363 1.362 . S
C363 H353 0.930 . S
C363 C356 1.409 . S
C363 C362 1.362 . S
H364 C370 0.930 . S
H365 C373 0.930 . S
H366 C374 0.930 . S
H367 C375 0.930 . S
H368 C378 0.930 . S
H369 C379 0.930 . S
C370 H364 0.930 . S
C370 C371 1.355 . S
C370 C372 1.415 . S
C371 C370 1.355 . S
C371 C373 1.419 . S
C372 C370 1.415 . S
C372 C377 1.425 . S
C372 C379 1.409 . S
C373 H365 0.930 . S
C373 C371 1.419 . S
C373 C374 1.362 . S
C374 H366 0.930 . S
C374 C373 1.362 . S
C374 C377 1.409 . S
C375 H367 0.930 . S
C375 C376 1.355 . S
C375 C377 1.415 . S
C376 C375 1.355 . S
C376 C378 1.419 . S
C377 C372 1.425 . S
C377 C374 1.409 . S
C377 C375 1.415 . S
C378 H368 0.930 . S
C378 C376 1.419 . S
C378 C379 1.362 . S
C379 H369 0.930 . S
C379 C372 1.409 . S
C379 C378 1.362 . S
H380 C386 0.930 . S
H381 C389 0.930 . S
H382 C390 0.930 . S
H383 C391 0.930 . S
H384 C394 0.930 . S
H385 C395 0.930 . S
C386 H380 0.930 . S
C386 C387 1.355 . S
C386 C388 1.415 . S
C387 C386 1.355 . S
C387 C389 1.419 . S
C388 C386 1.415 . S
C388 C393 1.425 . S
C388 C395 1.409 . S
C389 H381 0.930 . S
C389 C387 1.419 . S
C389 C390 1.362 . S
C390 H382 0.930 . S
C390 C389 1.362 . S
C390 C393 1.409 . S
C391 H383 0.930 . S
C391 C392 1.355 . S
C391 C393 1.415 . S
C392 C391 1.355 . S
C392 C394 1.419 . S
C393 C388 1.425 . S
C393 C390 1.409 . S
C393 C391 1.415 . S
C394 H384 0.930 . S
C394 C392 1.419 . S
C394 C395 1.362 . S
C395 H385 0.930 . S
C395 C388 1.409 . S
C395 C394 1.362 . S
H396 C402 0.930 . S
H397 C405 0.930 . S
H398 C406 0.930 . S
H399 C407 0.930 . S
H400 C410 0.930 . S
H401 C411 0.930 . S
C402 H396 0.930 . S
C402 C403 1.355 . S
C402 C404 1.415 . S
C403 C402 1.355 . S
C403 C405 1.419 . S
C404 C402 1.415 . S
C404 C409 1.425 . S
C404 C411 1.409 . S
C405 H397 0.930 . S
C405 C403 1.419 . S
C405 C406 1.362 . S
C406 H398 0.930 . S
C406 C405 1.362 . S
C406 C409 1.409 . S
C407 H399 0.930 . S
C407 C408 1.355 . S
C407 C409 1.415 . S
C408 C407 1.355 . S
C408 C410 1.419 . S
C409 C404 1.425 . S
C409 C406 1.409 . S
C409 C407 1.415 . S
C410 H400 0.930 . S
C410 C408 1.419 . S
C410 C411 1.362 . S
C411 H401 0.930 . S
C411 C404 1.409 . S
C411 C410 1.362 . S
H412 C418 0.930 . S
H413 C421 0.930 . S
H414 C422 0.930 . S
H415 C423 0.930 . S
H416 C426 0.930 . S
H417 C427 0.930 . S
C418 H412 0.930 . S
C418 C419 1.355 . S
C418 C420 1.415 . S
C419 C418 1.355 . S
C419 C421 1.419 . S
C420 C418 1.415 . S
C420 C425 1.425 . S
C420 C427 1.409 . S
C421 H413 0.930 . S
C421 C419 1.419 . S
C421 C422 1.362 . S
C422 H414 0.930 . S
C422 C421 1.362 . S
C422 C425 1.409 . S
C423 H415 0.930 . S
C423 C424 1.355 . S
C423 C425 1.415 . S
C424 C423 1.355 . S
C424 C426 1.419 . S
C425 C420 1.425 . S
C425 C422 1.409 . S
C425 C423 1.415 . S
C426 H416 0.930 . S
C426 C424 1.419 . S
C426 C427 1.362 . S
C427 H417 0.930 . S
C427 C420 1.409 . S
C427 C426 1.362 . S
H428 C434 0.930 . S
H429 C437 0.930 . S
H430 C438 0.930 . S
H431 C439 0.930 . S
H432 C442 0.930 . S
H433 C443 0.930 . S
C434 H428 0.930 . S
C434 C435 1.355 . S
C434 C436 1.415 . S
C435 C434 1.355 . S
C435 C437 1.419 . S
C436 C434 1.415 . S
C436 C441 1.425 . S
C436 C443 1.409 . S
C437 H429 0.930 . S
C437 C435 1.419 . S
C437 C438 1.362 . S
C438 H430 0.930 . S
C438 C437 1.362 . S
C438 C441 1.409 . S
C439 H431 0.930 . S
C439 C440 1.355 . S
C439 C441 1.415 . S
C440 C439 1.355 . S
C440 C442 1.419 . S
C441 C436 1.425 . S
C441 C438 1.409 . S
C441 C439 1.415 . S
C442 H432 0.930 . S
C442 C440 1.419 . S
C442 C443 1.362 . S
C443 H433 0.930 . S
C443 C436 1.409 . S
C443 C442 1.362 . S
H444 C450 0.930 . S
H445 C453 0.930 . S
H446 C454 0.930 . S
H447 C455 0.930 1_655 S
H448 C458 0.930 1_556 S
H449 C459 0.930 . S
C450 H444 0.930 . S
C450 C451 1.355 . S
C450 C452 1.415 . S
C451 C450 1.355 . S
C451 C453 1.419 1_455 S
C452 C450 1.415 . S
C452 C457 1.425 . S
C452 C459 1.409 . S
C453 H445 0.930 . S
C453 C451 1.419 1_655 S
C453 C454 1.362 . S
C454 H446 0.930 . S
C454 C453 1.362 . S
C454 C457 1.409 1_655 S
C455 H447 0.930 1_455 S
C455 C456 1.355 1_554 S
C455 C457 1.415 . S
C456 C455 1.355 1_556 S
C456 C458 1.419 1_556 S
C457 C452 1.425 . S
C457 C454 1.409 1_455 S
C457 C455 1.415 . S
C458 H448 0.930 1_554 S
C458 C456 1.419 1_554 S
C458 C459 1.362 . S
C459 H449 0.930 . S
C459 C452 1.409 . S
C459 C458 1.362 . S
H460 C466 0.930 . S
H461 C469 0.930 . S
H462 C470 0.930 . S
H463 C471 0.930 . S
H464 C474 0.930 . S
H465 C475 0.930 . S
C466 H460 0.930 . S
C466 C467 1.355 . S
C466 C468 1.415 . S
C467 C466 1.355 . S
C467 C469 1.419 1_545 S
C468 C466 1.415 . S
C468 C473 1.425 1_545 S
C468 C475 1.409 . S
C469 H461 0.930 . S
C469 C467 1.419 1_565 S
C469 C470 1.362 . S
C470 H462 0.930 . S
C470 C469 1.362 . S
C470 C473 1.409 . S
C471 H463 0.930 . S
C471 C472 1.355 1_565 S
C471 C473 1.415 . S
C472 C471 1.355 1_545 S
C472 C474 1.419 . S
C473 C468 1.425 1_565 S
C473 C470 1.409 . S
C473 C471 1.415 . S
C474 H464 0.930 . S
C474 C472 1.419 . S
C474 C475 1.362 . S
C475 H465 0.930 . S
C475 C468 1.409 . S
C475 C474 1.362 . S
H476 C482 0.930 . S
H477 C485 0.930 . S
H478 C486 0.930 . S
H479 C487 0.930 . S
H480 C490 0.930 . S
H481 C491 0.930 . S
C482 H476 0.930 . S
C482 C483 1.355 . S
C482 C484 1.415 . S
C483 C482 1.355 . S
C483 C485 1.419 . S
C484 C482 1.415 . S
C484 C489 1.425 . S
C484 C491 1.409 . S
C485 H477 0.930 . S
C485 C483 1.419 . S
C485 C486 1.362 . S
C486 H478 0.930 . S
C486 C485 1.362 . S
C486 C489 1.409 . S
C487 H479 0.930 . S
C487 C488 1.355 . S
C487 C489 1.415 . S
C488 C487 1.355 . S
C488 C490 1.419 . S
C489 C484 1.425 . S
C489 C486 1.409 . S
C489 C487 1.415 . S
C490 H480 0.930 . S
C490 C488 1.419 . S
C490 C491 1.362 . S
C491 H481 0.930 . S
C491 C484 1.409 . S
C491 C490 1.362 . S
H492 C498 0.930 . S
H493 C501 0.930 . S
H494 C502 0.930 . S
H495 C503 0.930 . S
H496 C506 0.930 . S
H497 C507 0.930 1_565 S
C498 H492 0.930 . S
C498 C499 1.355 . S
C498 C500 1.415 . S
C499 C498 1.355 . S
C499 C501 1.419 . S
C500 C498 1.415 . S
C500 C505 1.425 . S
C500 C507 1.409 . S
C501 H493 0.930 . S
C501 C499 1.419 . S
C501 C502 1.362 . S
C502 H494 0.930 . S
C502 C501 1.362 . S
C502 C505 1.409 . S
C503 H495 0.930 . S
C503 C504 1.355 . S
C503 C505 1.415 . S
C504 C503 1.355 . S
C504 C506 1.419 . S
C505 C500 1.425 . S
C505 C502 1.409 . S
C505 C503 1.415 . S
C506 H496 0.930 . S
C506 C504 1.419 . S
C506 C507 1.362 . S
C507 H497 0.930 1_545 S
C507 C500 1.409 . S
C507 C506 1.362 . S
H508 C514 0.930 . S
H509 C517 0.930 . S
H510 C518 0.930 . S
H511 C519 0.930 . S
H512 C522 0.930 1_554 S
H513 C523 0.930 . S
C514 H508 0.930 . S
C514 C515 1.355 . S
C514 C516 1.415 . S
C515 C514 1.355 . S
C515 C517 1.419 . S
C516 C514 1.415 . S
C516 C521 1.425 . S
C516 C523 1.409 . S
C517 H509 0.930 . S
C517 C515 1.419 . S
C517 C518 1.362 . S
C518 H510 0.930 . S
C518 C517 1.362 . S
C518 C521 1.409 . S
C519 H511 0.930 . S
C519 C520 1.355 1_556 S
C519 C521 1.415 . S
C520 C519 1.355 1_554 S
C520 C522 1.419 1_554 S
C521 C516 1.425 . S
C521 C518 1.409 . S
C521 C519 1.415 . S
C522 H512 0.930 1_556 S
C522 C520 1.419 1_556 S
C522 C523 1.362 . S
C523 H513 0.930 . S
C523 C516 1.409 . S
C523 C522 1.362 . S
H524 C530 0.930 . S
H525 C533 0.930 . S
H526 C534 0.930 . S
H527 C535 0.930 . S
H528 C538 0.930 . S
H529 C539 0.930 . S
C530 H524 0.930 . S
C530 C531 1.355 1_655 S
C530 C532 1.415 . S
C531 C530 1.355 1_455 S
C531 C533 1.419 . S
C532 C530 1.415 . S
C532 C537 1.425 1_655 S
C532 C539 1.409 . S
C533 H525 0.930 . S
C533 C531 1.419 . S
C533 C534 1.362 . S
C534 H526 0.930 . S
C534 C533 1.362 . S
C534 C537 1.409 . S
C535 H527 0.930 . S
C535 C536 1.355 . S
C535 C537 1.415 . S
C536 C535 1.355 . S
C536 C538 1.419 1_455 S
C537 C532 1.425 1_455 S
C537 C534 1.409 . S
C537 C535 1.415 . S
C538 H528 0.930 . S
C538 C536 1.419 1_655 S
C538 C539 1.362 . S
C539 H529 0.930 . S
C539 C532 1.409 . S
C539 C538 1.362 . S
C259 C2 1.051 . S
C264 C243 1.047 . S
C275 C21 1.070 . S
C280 C179 0.983 . S
C291 C42 1.061 . S
C296 C211 1.115 . S
C307 C1 1.016 . S
C312 C237 1.061 . S
C328 C173 1.039 . S
C323 C22 1.041 . S
C344 C205 1.035 . S
C339 C41 0.989 . S
C355 C38 1.889 . S
C360 C115 1.874 . S
C371 C59 1.947 . S
C376 C147 1.899 . S
C387 C18 1.895 . S
C392 C77 1.827 . S
C408 C109 1.907 . S
C403 C39 1.948 . S
C424 C141 1.844 . S
C419 C58 1.914 . S
C435 C19 1.963 . S
C440 C83 1.879 . S
C456 C153 1.523 . S
C451 C9 1.500 . S
C467 C29 1.528 . S
C472 C89 1.544 . S
C483 C49 1.467 . S
C488 C121 1.511 . S
C504 C217 1.392 . S
C499 C28 1.393 . S
C520 C249 1.389 . S
C515 C48 1.385 . S
C531 C8 1.342 . S
C536 C185 1.359 . S
