# Generated by pormake.
# Topology zzz, (3,6)-cn, num edge types: 1
# Building blocks:
#     Node 0, Type 0, BuildingBlock: BETDIP_clean_linker_0, # of connection points: 3
#     Node 1, Type 0, BuildingBlock: BETDIP_clean_linker_0, # of connection points: 3
#     Node 2, Type 0, BuildingBlock: BETDIP_clean_linker_0, # of connection points: 3
#     Node 3, Type 0, BuildingBlock: BETDIP_clean_linker_0, # of connection points: 3
#     Node 4, Type 0, BuildingBlock: BETDIP_clean_linker_0, # of connection points: 3
#     Node 5, Type 0, BuildingBlock: BETDIP_clean_linker_0, # of connection points: 3
#     Node 6, Type 0, BuildingBlock: BETDIP_clean_linker_0, # of connection points: 3
#     Node 7, Type 0, BuildingBlock: BETDIP_clean_linker_0, # of connection points: 3
#     Node 8, Type 1, BuildingBlock: BETGAK_clean_sbu_0, # of connection points: 6
#     Node 9, Type 1, BuildingBlock: BETGAK_clean_sbu_0, # of connection points: 6
#     Node 10, Type 1, BuildingBlock: BETGAK_clean_sbu_0, # of connection points: 6
#     Node 11, Type 1, BuildingBlock: BETGAK_clean_sbu_0, # of connection points: 6
#     Edge 12, Type (0, 1), BuildingBlock: KIFKEQ_clean_linker_1, # of connection points: 2
#     Edge 13, Type (0, 1), BuildingBlock: KIFKEQ_clean_linker_1, # of connection points: 2
#     Edge 14, Type (0, 1), BuildingBlock: KIFKEQ_clean_linker_1, # of connection points: 2
#     Edge 15, Type (0, 1), BuildingBlock: KIFKEQ_clean_linker_1, # of connection points: 2
#     Edge 16, Type (0, 1), BuildingBlock: KIFKEQ_clean_linker_1, # of connection points: 2
#     Edge 17, Type (0, 1), BuildingBlock: KIFKEQ_clean_linker_1, # of connection points: 2
#     Edge 18, Type (0, 1), BuildingBlock: KIFKEQ_clean_linker_1, # of connection points: 2
#     Edge 19, Type (0, 1), BuildingBlock: KIFKEQ_clean_linker_1, # of connection points: 2
#     Edge 20, Type (0, 1), BuildingBlock: KIFKEQ_clean_linker_1, # of connection points: 2
#     Edge 21, Type (0, 1), BuildingBlock: KIFKEQ_clean_linker_1, # of connection points: 2
#     Edge 22, Type (0, 1), BuildingBlock: KIFKEQ_clean_linker_1, # of connection points: 2
#     Edge 23, Type (0, 1), BuildingBlock: KIFKEQ_clean_linker_1, # of connection points: 2
#     Edge 24, Type (0, 1), BuildingBlock: KIFKEQ_clean_linker_1, # of connection points: 2
#     Edge 25, Type (0, 1), BuildingBlock: KIFKEQ_clean_linker_1, # of connection points: 2
#     Edge 26, Type (0, 1), BuildingBlock: KIFKEQ_clean_linker_1, # of connection points: 2
#     Edge 27, Type (0, 1), BuildingBlock: KIFKEQ_clean_linker_1, # of connection points: 2
#     Edge 28, Type (0, 1), BuildingBlock: KIFKEQ_clean_linker_1, # of connection points: 2
#     Edge 29, Type (0, 1), BuildingBlock: KIFKEQ_clean_linker_1, # of connection points: 2
#     Edge 30, Type (0, 1), BuildingBlock: KIFKEQ_clean_linker_1, # of connection points: 2
#     Edge 31, Type (0, 1), BuildingBlock: KIFKEQ_clean_linker_1, # of connection points: 2
#     Edge 32, Type (0, 1), BuildingBlock: KIFKEQ_clean_linker_1, # of connection points: 2
#     Edge 33, Type (0, 1), BuildingBlock: KIFKEQ_clean_linker_1, # of connection points: 2
#     Edge 34, Type (0, 1), BuildingBlock: KIFKEQ_clean_linker_1, # of connection points: 2
#     Edge 35, Type (0, 1), BuildingBlock: KIFKEQ_clean_linker_1, # of connection points: 2
# Relax obj value: 0.278
# Max RMSD: 0.192
# Mean RMSD: 0.160
data_MOF--net-zzz--node1-BETGAK_clean_sbu_0--node2-BETDIP_clean_linker_0--edge1-KIFKEQ_clean_linker_1
_symmetry_space_group_name_H-M    P1
_symmetry_Int_Tables_number       1
_symmetry_cell_setting            triclinic
loop_
_symmetry_equiv_pos_as_xyz
'x, y, z'
_cell_length_a     53.749148
_cell_length_b     53.702878
_cell_length_c     13.60232
_cell_angle_alpha  89.709131
_cell_angle_beta   90.030043
_cell_angle_gamma 89.721218
loop_
_atom_site_label
_atom_site_type_symbol
_atom_site_fract_x
_atom_site_fract_y
_atom_site_fract_z
_atom_type_partial_charge
H0 H 0.75673 0.53089 0.52161 0.0
H1 H 0.7399 0.51332 0.21885 0.0
H2 H 0.81498 0.50879 0.3208 0.0
H3 H 0.71656 0.55817 0.27606 0.0
C4 C 0.70605 0.54295 0.30847 0.0
C5 C 0.76277 0.52523 0.44917 0.0
C6 C 0.78865 0.52026 0.43112 0.0
C7 C 0.74491 0.52318 0.37076 0.0
C8 C 0.75313 0.51575 0.27824 0.0
C9 C 0.778 0.51079 0.26137 0.0
C10 C 0.79561 0.51307 0.33635 0.0
N11 N 0.71872 0.52802 0.38121 0.0
H12 H 1.00404 0.75811 0.49997 0.0
H13 H 0.01766 0.74259 0.19316 0.0
H14 H 0.01915 0.81778 0.2951 0.0
H15 H 0.97486 0.71447 0.26839 0.0
C16 C 0.99225 0.70619 0.29347 0.0
C17 C 1.00776 0.76457 0.42596 0.0
C18 C 1.01075 0.79067 0.40692 0.0
C19 C 1.0095 0.747 0.34699 0.0
C20 C 1.01504 0.7557 0.25273 0.0
C21 C 0.01856 0.78088 0.23504 0.0
C22 C 0.01595 0.7982 0.31066 0.0
N23 N 1.00721 0.72056 0.35984 0.0
H24 H 0.77204 1.00705 0.5008 0.0
H25 H 0.78454 1.00967 0.18706 0.0
H26 H 0.71027 1.01085 0.29819 0.0
H27 H 0.81364 0.97203 0.27266 0.0
C28 C 0.82249 0.98945 0.29283 0.0
C29 C 0.76485 1.0073 0.42647 0.0
C30 C 0.73853 1.00847 0.40997 0.0
C31 C 0.7817 1.00679 0.34462 0.0
C32 C 0.77204 1.00836 0.24944 0.0
C33 C 0.7466 1.00976 0.23344 0.0
C34 C 0.73008 1.00908 0.3126 0.0
N35 N 0.80831 1.00594 0.35428 0.0
H36 H 0.52384 0.77407 0.52293 0.0
H37 H 0.5167 0.78869 0.21135 0.0
H38 H 0.51382 0.71375 0.31833 0.0
H39 H 0.5575 0.81733 0.29914 0.0
C40 C 0.53944 0.8254 0.31635 0.0
C41 C 0.52166 0.7674 0.44851 0.0
C42 C 0.51933 0.74123 0.43065 0.0
C43 C 0.52139 0.78474 0.36783 0.0
C44 C 0.51805 0.77578 0.27276 0.0
C45 C 0.51538 0.75055 0.25598 0.0
C46 C 0.51631 0.73342 0.33359 0.0
N47 N 0.52326 0.81121 0.37909 0.0
H48 H 0.26916 0.49147 0.06628 0.0
H49 H 0.29417 0.54789 0.26855 0.0
H50 H 0.22246 0.55443 0.13401 0.0
H51 H 0.33205 0.53749 0.15239 0.0
C52 C 0.33108 0.52008 0.19341 0.0
C53 C 0.26622 0.50899 0.10364 0.0
C54 C 0.24362 0.52265 0.08831 0.0
C55 C 0.28522 0.51872 0.16648 0.0
C56 C 0.28067 0.54107 0.21606 0.0
C57 C 0.25822 0.55381 0.20505 0.0
C58 C 0.24026 0.54489 0.13972 0.0
N59 N 0.30841 0.50609 0.18536 0.0
H60 H 0.03187 0.27175 0.02023 0.0
H61 H 1.01075 0.28903 0.31924 0.0
H62 H 1.00695 0.21401 0.21919 0.0
H63 H 0.98992 0.3229 0.18787 0.0
C64 C 1.00946 0.32786 0.19363 0.0
C65 C 0.02563 0.26578 0.09218 0.0
C66 C 0.01944 0.24016 0.10915 0.0
C67 C 0.02229 0.28377 0.16898 0.0
C68 C 1.01347 0.27577 0.26028 0.0
C69 C 1.00839 0.2509 0.27749 0.0
C70 C 1.01153 0.2333 0.20352 0.0
N71 N 0.02715 0.30991 0.15756 0.0
H72 H 0.26133 0.04161 0.04793 0.0
H73 H 0.23852 0.99074 0.27763 0.0
H74 H 0.31121 0.98429 0.15243 0.0
H75 H 0.2014 0.99429 0.1526 0.0
C76 C 0.20065 1.01276 0.18504 0.0
C77 C 0.26508 0.02568 0.09478 0.0
C78 C 0.28858 1.01311 0.08885 0.0
C79 C 0.24631 0.01686 0.16108 0.0
C80 C 0.25189 0.99667 0.22273 0.0
C81 C 0.27502 0.98508 0.22003 0.0
C82 C 0.29289 0.99291 0.15185 0.0
N83 N 0.22216 0.02822 0.17097 0.0
H84 H 0.49283 0.25867 0.03715 0.0
H85 H 0.53585 0.23888 0.29479 0.0
H86 H 0.54352 0.31122 0.16628 0.0
H87 H 0.5392 0.2015 0.15695 0.0
C88 C 0.52052 0.1997 0.18693 0.0
C89 C 0.50666 0.26329 0.09186 0.0
C90 C 0.51814 0.28733 0.09031 0.0
C91 C 0.51393 0.24513 0.16435 0.0
C92 C 0.5313 0.25179 0.23582 0.0
C93 C 0.54186 0.27527 0.23609 0.0
C94 C 0.53572 0.29262 0.16289 0.0
N95 N 0.50394 0.22038 0.16999 0.0
La96 La 0.02994 1.01159 0.8335 0.0
La97 La 0.99877 0.02145 0.68168 0.0
C98 C 0.05072 0.99358 0.98291 0.0
C99 C 0.06148 0.96886 0.99933 0.0
C100 C 0.0824 0.96087 0.94554 0.0
C101 C 0.08845 0.93567 0.94193 0.0
C102 C 0.07375 0.91851 0.99247 0.0
C103 C 0.05407 0.92656 0.05194 0.0
C104 C 0.04806 0.95167 0.05596 0.0
C105 C 0.0557 0.02487 0.67412 0.0
C106 C 1.01296 0.96597 0.6939 0.0
C107 C 0.97586 0.04044 0.5395 0.0
C108 C 0.97002 0.06678 0.52541 0.0
C109 C 0.94507 0.0746 0.5281 0.0
C110 C 0.93931 0.09966 0.54208 0.0
C111 C 0.95851 0.11686 0.55447 0.0
C112 C 0.98337 0.1093 0.54508 0.0
C113 C 0.98913 0.08445 0.53075 0.0
C114 C 0.97371 1.0079 0.84231 0.0
C115 C 0.01661 0.06686 0.81621 0.0
O116 O 0.06212 1.00783 0.91945 0.0
O117 O 0.02664 0.99366 0.96938 0.0
O118 O 0.05972 0.03261 0.76247 0.0
O119 O 0.0372 1.01029 0.67644 0.0
O120 O 0.02333 0.97286 0.77824 0.0
O121 O 1.00331 0.98306 0.63575 0.0
O122 O 0.96478 0.0305 0.61518 0.0
O123 O 0.99941 0.03432 0.53589 0.0
O124 O 0.97042 0.99909 0.75516 0.0
O125 O 0.99165 0.02311 0.83862 0.0
O126 O 1.00952 0.05997 0.72714 0.0
O127 O 0.02254 0.04951 0.88034 0.0
H128 H 0.09307 0.97375 0.90108 0.0
H129 H 0.10356 0.92945 0.89532 0.0
H130 H 0.04242 0.91325 0.0902 0.0
H131 H 0.03179 0.95741 0.09729 0.0
H132 H 0.93012 0.06117 0.52513 0.0
H133 H 0.92002 0.10546 0.54676 0.0
H134 H 0.9984 0.12262 0.55047 0.0
H135 H 1.00857 0.07903 0.52937 0.0
La136 La 0.52302 0.03101 0.85544 0.0
La137 La 0.5097 1.00098 0.6824 0.0
C138 C 0.53225 0.05104 0.0161 0.0
C139 C 0.55511 0.06443 0.03918 0.0
C140 C 0.56466 0.0815 0.97004 0.0
C141 C 0.59001 0.08622 0.96671 0.0
C142 C 0.60586 0.07433 0.03343 0.0
C143 C 0.5961 0.05966 0.1097 0.0
C144 C 0.57073 0.05474 0.11264 0.0
C145 C 0.52165 0.0567 0.68785 0.0
C146 C 0.56704 1.0118 0.72263 0.0
C147 C 0.49776 0.98958 0.51101 0.0
C148 C 0.47308 0.99094 0.46847 0.0
C149 C 0.46445 0.9705 0.41543 0.0
C150 C 0.43902 0.9664 0.40763 0.0
C151 C 0.42216 0.98258 0.45412 0.0
C152 C 0.43089 1.00426 0.49938 0.0
C153 C 0.45622 1.00849 0.50596 0.0
C154 C 0.51752 0.9692 0.83282 0.0
C155 C 0.46554 0.01775 0.82123 0.0
O156 O 0.51783 0.06139 0.94967 0.0
O157 O 0.53588 0.02726 0.99978 0.0
O158 O 0.53824 0.05902 0.75601 0.0
O159 O 0.50625 0.04013 0.71498 0.0
O160 O 0.56088 0.01926 0.81225 0.0
O161 O 0.54973 1.00591 0.65788 0.0
O162 O 0.49903 0.97356 0.5833 0.0
O163 O 0.50813 1.01085 0.53289 0.0
O164 O 0.51138 0.96303 0.74458 0.0
O165 O 0.51927 0.99265 0.83252 0.0
O166 O 0.47164 1.00828 0.7346 0.0
O167 O 0.48287 0.02616 0.8818 0.0
H168 H 0.55311 0.08918 0.91201 0.0
H169 H 0.59748 0.09742 0.90726 0.0
H170 H 0.60835 0.05003 0.16075 0.0
H171 H 0.56382 0.04119 0.16518 0.0
H172 H 0.47731 0.95661 0.38773 0.0
H173 H 0.43264 0.94992 0.36986 0.0
H174 H 0.41834 0.01701 0.53614 0.0
H175 H 0.46256 0.02422 0.54862 0.0
La176 La 0.49648 0.52031 0.86131 0.0
La177 La 0.53323 0.51047 0.68544 0.0
C178 C 0.48081 0.53135 0.02816 0.0
C179 C 0.47841 0.55654 0.06741 0.0
C180 C 0.45467 0.56763 0.06957 0.0
C181 C 0.45231 0.59338 0.06224 0.0
C182 C 0.47369 0.60802 0.05426 0.0
C183 C 0.49727 0.5972 0.0666 0.0
C184 C 0.49966 0.57157 0.07326 0.0
C185 C 0.47126 0.51019 0.69638 0.0
C186 C 0.51562 0.56642 0.72738 0.0
C187 C 0.54783 0.50147 0.51555 0.0
C188 C 0.54464 0.47864 0.46119 0.0
C189 C 0.56542 0.46847 0.41411 0.0
C190 C 0.56698 0.44288 0.40095 0.0
C191 C 0.54779 0.4275 0.43548 0.0
C192 C 0.5258 0.43809 0.47199 0.0
C193 C 0.52419 0.4636 0.48448 0.0
C194 C 0.5589 0.52046 0.84921 0.0
C195 C 0.51334 0.46434 0.81685 0.0
O196 O 0.46618 0.52718 0.95318 0.0
O197 O 0.50356 0.52334 0.01238 0.0
O198 O 0.46115 0.51465 0.78075 0.0
O199 O 0.49451 0.51109 0.71069 0.0
O200 O 0.50288 0.55896 0.80671 0.0
O201 O 0.52815 0.55066 0.67105 0.0
O202 O 0.56171 0.49823 0.59385 0.0
O203 O 0.52744 0.5142 0.53366 0.0
O204 O 0.56858 0.51672 0.76345 0.0
O205 O 0.53552 0.51932 0.83708 0.0
O206 O 0.5247 0.4718 0.7343 0.0
O207 O 0.50263 0.48028 0.87818 0.0
H208 H 0.43805 0.55634 0.06543 0.0
H209 H 0.43396 0.6016 0.05458 0.0
H210 H 0.51395 0.60846 0.06422 0.0
H211 H 0.51823 0.56364 0.0728 0.0
H212 H 0.58147 0.47988 0.39742 0.0
H213 H 0.58388 0.435 0.37059 0.0
H214 H 0.5108 0.42661 0.49958 0.0
H215 H 0.50815 0.4711 0.52277 0.0
La216 La 1.01231 0.49646 0.83471 0.0
La217 La 0.02167 0.53035 0.67699 0.0
C218 C 0.99798 0.47196 0.98102 0.0
C219 C 0.97301 0.46701 0.01767 0.0
C220 C 0.96068 0.44536 0.98738 0.0
C221 C 0.93516 0.44342 0.99926 0.0
C222 C 0.92201 0.46282 0.04353 0.0
C223 C 0.93453 0.48345 0.08173 0.0
C224 C 0.95998 0.48554 0.06901 0.0
C225 C 0.02608 0.47411 0.66951 0.0
C226 C 0.96531 0.51795 0.71186 0.0
C227 C 0.03691 0.54396 0.51219 0.0
C228 C 0.06244 0.55065 0.48711 0.0
C229 C 0.06773 0.57402 0.44617 0.0
C230 C 0.0924 0.58141 0.43405 0.0
C231 C 0.11189 0.56555 0.46397 0.0
C232 C 0.1064 0.54225 0.50521 0.0
C233 C 0.08201 0.53477 0.51564 0.0
C234 C 0.01748 0.55963 0.8335 0.0
C235 C 0.06717 0.51344 0.81556 0.0
O236 O 1.00293 0.46208 0.89574 0.0
O237 O 1.00535 0.49509 0.9858 0.0
O238 O 0.03542 0.46956 0.75531 0.0
O239 O 1.0107 0.49195 0.67833 0.0
O240 O 0.97317 0.50441 0.78828 0.0
O241 O 0.98145 0.5299 0.65589 0.0
O242 O 0.02567 0.5591 0.57284 0.0
O243 O 0.03375 0.5206 0.53649 0.0
O244 O 0.02155 0.56695 0.74454 0.0
O245 O 1.01554 0.53598 0.83403 0.0
O246 O 0.06025 0.52217 0.72828 0.0
O247 O 0.05037 0.5046 0.87631 0.0
H248 H 0.97045 0.43071 0.94854 0.0
H249 H 0.92556 0.42732 0.97048 0.0
H250 H 0.92443 0.49863 0.11589 0.0
H251 H 0.96905 0.50236 0.09373 0.0
H252 H 0.05283 0.58664 0.42529 0.0
H253 H 0.09621 0.59938 0.40107 0.0
H254 H 0.12096 0.52983 0.53106 0.0
H255 H 0.07863 0.51672 0.54879 0.0
H256 H 0.16227 0.98216 0.21877 0.0
H257 H 0.19004 0.05374 0.30743 0.0
H258 H 0.12753 0.98622 0.33032 0.0
H259 H 0.15419 0.0586 0.41819 0.0
H260 H 0.1006 0.0484 0.68104 0.0
H261 H 0.13462 0.04737 0.56329 0.0
H262 H 0.08973 1.00262 0.36913 0.0
H263 H 0.05613 1.0028 0.49019 0.0
C264 C 0.16074 0.99909 0.26143 0.0
C265 C 0.17903 0.01765 0.253 0.0
C266 C 0.14046 1.00156 0.32553 0.0
C267 C 0.13734 0.02288 0.38424 0.0
C268 C 0.15571 0.04169 0.37564 0.0
C269 C 0.1763 0.03909 0.31121 0.0
C270 C 0.09793 0.03834 0.61306 0.0
C271 C 0.07553 0.02552 0.59602 0.0
C272 C 0.11755 0.03791 0.54447 0.0
C273 C 0.11553 0.02475 0.45536 0.0
C274 C 0.09267 1.01252 0.43718 0.0
C275 C 0.07309 1.01278 0.50646 0.0
H276 H 0.55189 0.16149 0.21377 0.0
H277 H 0.48058 0.18794 0.31518 0.0
H278 H 0.54982 0.12648 0.32616 0.0
H279 H 0.47852 0.15227 0.43112 0.0
H280 H 0.47971 0.06997 0.57537 0.0
H281 H 0.47648 0.10416 0.45324 0.0
H282 H 0.55395 0.12115 0.50005 0.0
H283 H 0.55708 0.08754 0.61908 0.0
C284 C 0.53556 0.15976 0.25997 0.0
C285 C 0.51644 0.17772 0.2546 0.0
C286 C 0.53445 0.1396 0.32546 0.0
C287 C 0.51417 0.13639 0.3896 0.0
C288 C 0.49445 0.15394 0.38287 0.0
C289 C 0.49562 0.17446 0.31647 0.0
C290 C 0.49605 0.08089 0.55846 0.0
C291 C 0.51874 0.07578 0.60707 0.0
C292 C 0.49415 0.1007 0.48915 0.0
C293 C 0.51498 0.11561 0.4656 0.0
C294 C 0.53752 0.11011 0.5142 0.0
C295 C 0.53933 0.09071 0.58326 0.0
H296 H 0.37677 0.53972 0.17967 0.0
H297 H 0.33509 0.48804 0.35701 0.0
H298 H 0.4125 0.53479 0.2861 0.0
H299 H 0.37062 0.48397 0.46928 0.0
H300 H 0.44143 0.47168 0.64493 0.0
H301 H 0.40898 0.47128 0.51943 0.0
H302 H 0.43167 0.54484 0.4256 0.0
H303 H 0.46492 0.54408 0.54717 0.0
C304 C 0.37528 0.52714 0.24192 0.0
C305 C 0.353 0.51415 0.25867 0.0
C306 C 0.39588 0.52455 0.30471 0.0
C307 C 0.39502 0.50923 0.3892 0.0
C308 C 0.37265 0.49578 0.4052 0.0
C309 C 0.35202 0.4981 0.34067 0.0
C310 C 0.44006 0.48728 0.59437 0.0
C311 C 0.45649 0.50745 0.6038 0.0
C312 C 0.42093 0.48738 0.52329 0.0
C313 C 0.41696 0.50808 0.46056 0.0
C314 C 0.43394 0.52811 0.4693 0.0
C315 C 0.45336 0.52773 0.53926 0.0
H316 H 0.97664 0.36294 0.24836 0.0
H317 H 0.05448 0.34473 0.27609 0.0
H318 H 0.98195 0.39869 0.35398 0.0
H319 H 0.06024 0.38143 0.38145 0.0
H320 H 0.0548 0.43218 0.65708 0.0
H321 H 0.05288 0.39853 0.53791 0.0
H322 H 0.99598 0.43884 0.37779 0.0
H323 H 0.99748 0.47216 0.49977 0.0
C324 C 0.99512 0.36685 0.2759 0.0
C325 C 1.0151 0.3509 0.25247 0.0
C326 C 0.99824 0.38766 0.33658 0.0
C327 C 0.02158 0.39355 0.37719 0.0
C328 C 0.04184 0.37767 0.35293 0.0
C329 C 0.03866 0.35666 0.2914 0.0
C330 C 0.04197 0.43398 0.59602 0.0
C331 C 0.02622 0.45498 0.58889 0.0
C332 C 0.04097 0.4146 0.52671 0.0
C333 C 0.02415 0.41543 0.44713 0.0
C334 C 1.0089 0.43694 0.43844 0.0
C335 C 1.00988 0.45634 0.50814 0.0
H336 H 0.85303 0.95553 0.21485 0.0
H337 H 0.84763 0.03483 0.25704 0.0
H338 H 0.89046 0.96086 0.11864 0.0
H339 H 0.88549 0.04051 0.15602 0.0
H340 H 0.9663 0.03686 0.011 0.0
H341 H 0.93129 0.0344 0.12833 0.0
H342 H 0.90038 0.97393 0.96048 0.0
H343 H 0.935 0.97604 0.84732 0.0
C344 C 0.86 0.97425 0.2041 0.0
C345 C 0.84719 0.99465 0.24449 0.0
C346 C 0.88151 0.97738 0.14743 0.0
C347 C 0.8911 1.00119 0.12658 0.0
C348 C 0.87886 0.02182 0.17004 0.0
C349 C 0.85712 0.0186 0.22825 0.0
C350 C 0.9521 0.02289 1.00025 0.0
C351 C 0.95369 1.0065 0.9196 0.0
C352 C 0.93185 0.02162 0.06708 0.0
C353 C 0.91278 1.00378 0.05556 0.0
C354 C 0.91467 0.98759 0.97449 0.0
C355 C 0.93465 0.98889 0.90847 0.0
H356 H 0.57113 0.86226 0.26892 0.0
H357 H 0.49392 0.84241 0.24157 0.0
H358 H 0.56433 0.89876 0.16446 0.0
H359 H 0.48701 0.87898 0.13455 0.0
H360 H 0.49678 0.92351 0.83935 0.0
H361 H 0.4996 0.89145 0.96586 0.0
H362 H 0.54396 0.94038 0.14441 0.0
H363 H 0.54077 0.973 0.01649 0.0
C364 C 0.55249 0.86604 0.24225 0.0
C365 C 0.53304 0.84956 0.2655 0.0
C366 C 0.54857 0.88707 0.18209 0.0
C367 C 0.52511 0.89212 0.14043 0.0
C368 C 0.50539 0.87581 0.16493 0.0
C369 C 0.50924 0.85494 0.22732 0.0
C370 C 0.50696 0.92767 0.90599 0.0
C371 C 0.51855 0.95099 0.91714 0.0
C372 C 0.50841 0.9092 0.97927 0.0
C373 C 0.52192 0.91308 0.06639 0.0
C374 C 0.53341 0.93656 0.0784 0.0
C375 C 0.53152 0.95538 1.00527 0.0
H376 H 0.67695 0.5775 0.22485 0.0
H377 H 0.67778 0.49887 0.28857 0.0
H378 H 0.63886 0.57304 0.1319 0.0
H379 H 0.63935 0.49395 0.19044 0.0
H380 H 0.56085 0.49712 0.03345 0.0
H381 H 0.59435 0.50127 0.15698 0.0
H382 H 0.62778 0.5588 0.97853 0.0
H383 H 0.59466 0.55484 0.85921 0.0
C384 C 0.66876 0.55915 0.21988 0.0
C385 C 0.68052 0.53869 0.26539 0.0
C386 C 0.64688 0.55647 0.16494 0.0
C387 C 0.63584 0.53302 0.1506 0.0
C388 C 0.64701 0.5124 0.19944 0.0
C389 C 0.66909 0.51519 0.25618 0.0
C390 C 0.57488 0.5113 0.02316 0.0
C391 C 0.5745 0.5263 0.93767 0.0
C392 C 0.59445 0.51336 0.09306 0.0
C393 C 0.61407 0.53057 0.07953 0.0
C394 C 0.61304 0.54574 0.99456 0.0
C395 C 0.59381 0.54356 0.92541 0.0
H396 H 0.0385 0.68774 0.23367 0.0
H397 H 0.96079 0.66899 0.24783 0.0
H398 H 0.04638 0.65017 0.13497 0.0
H399 H 0.96852 0.63149 0.15152 0.0
H400 H 0.99241 0.55645 0.01393 0.0
H401 H 0.98827 0.58949 0.13861 0.0
H402 H 0.03624 0.63684 0.96643 0.0
H403 H 0.03998 0.6044 0.84315 0.0
C404 C 0.02324 0.67524 0.21853 0.0
C405 C 0.99902 0.68128 0.25026 0.0
C406 C 0.02765 0.65377 0.16078 0.0
C407 C 1.00809 0.63749 0.13452 0.0
C408 C 0.98417 0.64313 0.17052 0.0
C409 C 0.97972 0.66475 0.22604 0.0
C410 C 1.00234 0.57378 1.00371 0.0
C411 C 0.01657 0.57762 0.9181 0.0
C412 C 0.99986 0.59286 0.0749 0.0
C413 C 1.01199 0.61609 0.06357 0.0
C414 C 0.02685 0.61934 0.97941 0.0
C415 C 0.02888 0.60062 0.90797 0.0
H416 H 0.03106 0.22299 0.41577 0.0
H417 H 0.96222 0.26057 0.34502 0.0
H418 H 1.01004 0.19897 0.54207 0.0
H419 H 0.94077 0.23643 0.47203 0.0
H420 H 0.93009 0.14696 0.44166 0.0
H421 H 0.93608 0.19146 0.42699 0.0
H422 H 0.98237 0.19039 0.68726 0.0
H423 H 0.97608 0.14556 0.70159 0.0
C424 C 1.01164 0.22688 0.43125 0.0
C425 C 0.99798 0.2431 0.37135 0.0
C426 C 0.99959 0.21341 0.50419 0.0
C427 C 0.97367 0.21578 0.5161 0.0
C428 C 0.96074 0.23441 0.46418 0.0
C429 C 0.9729 0.24804 0.39157 0.0
C430 C 0.94019 0.15653 0.49908 0.0
C431 C 0.95323 0.14316 0.57099 0.0
C432 C 0.94355 0.18208 0.49131 0.0
C433 C 0.96016 0.1942 0.55506 0.0
C434 C 0.96966 0.18136 0.637 0.0
C435 C 0.96625 0.1558 0.64472 0.0
H436 H 0.29936 0.94053 0.21025 0.0
H437 H 0.26962 0.99434 0.41426 0.0
H438 H 0.33213 0.93036 0.32612 0.0
H439 H 0.30193 0.9836 0.53121 0.0
H440 H 0.38269 1.01404 0.43818 0.0
H441 H 0.33917 1.00334 0.44003 0.0
H442 H 0.35809 0.92574 0.48446 0.0
H443 H 0.40215 0.93667 0.48712 0.0
C444 C 0.29874 0.94876 0.28279 0.0
C445 C 0.28293 0.96898 0.30188 0.0
C446 C 0.3174 0.94281 0.34976 0.0
C447 C 0.32 0.95715 0.43517 0.0
C448 C 0.3004 0.97274 0.46454 0.0
C449 C 0.2819 0.97889 0.3972 0.0
C450 C 0.37763 0.99483 0.45181 0.0
C451 C 0.39574 0.97615 0.46092 0.0
C452 C 0.35266 0.98868 0.45419 0.0
C453 C 0.34535 0.96368 0.46444 0.0
C454 C 0.36339 0.94512 0.47812 0.0
C455 C 0.38847 0.95134 0.47726 0.0
H456 H 0.52447 0.27537 0.4215 0.0
H457 H 0.58765 0.29625 0.24415 0.0
H458 H 0.53279 0.30971 0.53171 0.0
H459 H 0.59589 0.33067 0.35393 0.0
H460 H 0.58956 0.40371 0.49983 0.0
H461 H 0.59631 0.35874 0.51196 0.0
H462 H 0.52107 0.34662 0.41101 0.0
H463 H 0.51465 0.3911 0.39529 0.0
C464 C 0.5413 0.28607 0.41059 0.0
C465 C 0.55503 0.284 0.32326 0.0
C466 C 0.54607 0.30569 0.47389 0.0
C467 C 0.56431 0.32313 0.44846 0.0
C468 C 0.58153 0.31751 0.37423 0.0
C469 C 0.57677 0.29789 0.3109 0.0
C470 C 0.57453 0.39131 0.48025 0.0
C471 C 0.55173 0.40065 0.44477 0.0
C472 C 0.57824 0.36579 0.48964 0.0
C473 C 0.55905 0.34946 0.46533 0.0
C474 C 0.53591 0.35891 0.43384 0.0
C475 C 0.53233 0.38431 0.42322 0.0
H476 H 0.23548 0.59859 0.16988 0.0
H477 H 0.26271 0.55083 0.40304 0.0
H478 H 0.20269 0.61353 0.27777 0.0
H479 H 0.23047 0.56636 0.51081 0.0
H480 H 0.14943 0.53549 0.40485 0.0
H481 H 0.19279 0.54576 0.38711 0.0
H482 H 0.17728 0.62208 0.46564 0.0
H483 H 0.13325 0.61142 0.49039 0.0
C484 C 0.23566 0.59278 0.2463 0.0
C485 C 0.25073 0.57279 0.27703 0.0
C486 C 0.21705 0.60157 0.30847 0.0
C487 C 0.2138 0.59031 0.40069 0.0
C488 C 0.23271 0.57508 0.43929 0.0
C489 C 0.25113 0.56607 0.37698 0.0
C490 C 0.15522 0.55429 0.42184 0.0
C491 C 0.13804 0.57257 0.45067 0.0
C492 C 0.18007 0.56013 0.41212 0.0
C493 C 0.18826 0.58451 0.42883 0.0
C494 C 0.17124 0.60306 0.4555 0.0
C495 C 0.14618 0.59703 0.46771 0.0
H496 H 0.99618 0.8114 0.10449 0.0
H497 H 0.06373 0.77013 0.16058 0.0
H498 H 0.01739 0.83663 0.98496 0.0
H499 H 0.08591 0.79626 0.04177 0.0
H500 H 0.10092 0.88456 0.09296 0.0
H501 H 0.09281 0.84 0.09498 0.0
H502 H 0.04237 0.84919 0.84918 0.0
H503 H 0.04922 0.89389 0.85494 0.0
C504 C 1.01531 0.80688 0.08642 0.0
C505 C 0.02851 0.78919 0.14091 0.0
C506 C 0.0276 0.82117 0.01702 0.0
C507 C 0.05345 0.8186 1.00397 0.0
C508 C 0.06598 0.79862 0.04988 0.0
C509 C 0.05339 0.7838 0.11793 0.0
C510 C 0.08916 0.87664 0.03658 0.0
C511 C 0.07596 0.89208 0.97224 0.0
C512 C 0.08473 0.85112 0.0364 0.0
C513 C 0.067 0.84099 0.97176 0.0
C514 C 0.05636 0.85635 0.89891 0.0
C515 C 0.06031 0.88187 0.90128 0.0
H516 H 0.75767 0.052 0.13673 0.0
H517 H 0.71301 0.98559 0.12041 0.0
H518 H 0.72854 0.07363 0.02854 0.0
H519 H 0.68406 1.00704 0.01121 0.0
H520 H 0.62653 0.05128 0.87877 0.0
H521 H 0.66988 0.03734 0.86728 0.0
H522 H 0.68696 0.07831 0.13126 0.0
H523 H 0.64372 0.09172 0.1433 0.0
C524 C 0.74258 0.04154 0.10424 0.0
C525 C 0.73708 0.0174 0.13729 0.0
C526 C 0.72599 0.05391 0.04239 0.0
C527 C 0.70405 0.04205 0.01341 0.0
C528 C 0.70098 0.01651 0.03241 0.0
C529 C 0.71741 1.00423 0.0952 0.0
C530 C 0.63997 0.05819 0.93124 0.0
C531 C 0.6323 0.07256 0.01176 0.0
C532 C 0.66459 0.0503 0.9244 0.0
C533 C 0.68159 0.05701 0.99745 0.0
C534 C 0.67428 0.07343 0.07255 0.0
C535 C 0.64962 0.08094 0.08025 0.0
H536 H 0.54357 0.72284 0.13473 0.0
H537 H 0.47166 0.75793 0.16395 0.0
H538 H 0.52678 0.69437 0.01517 0.0
H539 H 0.45443 0.72943 0.04284 0.0
H540 H 0.44441 0.6436 0.1356 0.0
H541 H 0.44971 0.68813 0.11609 0.0
H542 H 0.50339 0.67548 0.88427 0.0
H543 H 0.49931 0.63092 0.91013 0.0
C544 C 0.52448 0.72529 0.11054 0.0
C545 C 0.50862 0.74184 0.15869 0.0
C546 C 0.51477 0.70918 0.04129 0.0
C547 C 0.48899 0.70925 0.02213 0.0
C548 C 0.47424 0.72885 0.05761 0.0
C549 C 0.48403 0.74506 0.12681 0.0
C550 C 0.45661 0.65046 0.07822 0.0
C551 C 0.47188 0.63418 0.02573 0.0
C552 C 0.45938 0.67597 0.06546 0.0
C553 C 0.47736 0.68526 0.99943 0.0
C554 C 0.48966 0.66878 0.93624 0.0
C555 C 0.48741 0.64335 0.9512 0.0
H556 H 0.77494 0.46337 0.2029 0.0
H557 H 0.79945 0.53638 0.11308 0.0
H558 H 0.80422 0.44448 0.08855 0.0
H559 H 0.82841 0.51744 0.99721 0.0
H560 H 0.89199 0.46892 0.19898 0.0
H561 H 0.84727 0.47619 0.19413 0.0
H562 H 0.84711 0.4661 0.87915 0.0
H563 H 0.89229 0.45845 0.88409 0.0
C564 C 0.78529 0.47528 0.15318 0.0
C565 C 0.78574 0.50107 0.16687 0.0
C566 C 0.80164 0.46451 0.08666 0.0
C567 C 0.81859 0.47965 0.03654 0.0
C568 C 0.81528 0.50557 0.03546 0.0
C569 C 0.79912 0.51638 0.10273 0.0
C570 C 0.88224 0.46751 0.12944 0.0
C571 C 0.89506 0.46292 0.04222 0.0
C572 C 0.85688 0.47153 0.12649 0.0
C573 C 0.84419 0.47113 0.03621 0.0
C574 C 0.85678 0.4659 0.94903 0.0
C575 C 0.88231 0.46153 0.95217 0.0
H576 H 0.97987 0.2121 0.05534 0.0
H577 H 0.05843 0.2196 1.00029 0.0
H578 H 0.98022 0.17117 0.97786 0.0
H579 H 0.05849 0.17858 0.91839 0.0
H580 H 0.02344 0.10896 0.70064 0.0
H581 H 0.02531 0.1528 0.75372 0.0
H582 H 1.01343 0.12961 0.05352 0.0
H583 H 1.01222 0.08604 1.00149 0.0
C584 C 0.99709 0.20549 0.023 0.0
C585 C 0.01907 0.21959 0.03338 0.0
C586 C 0.99728 0.18183 0.97927 0.0
C587 C 0.01934 0.17148 0.94193 0.0
C588 C 0.04111 0.18608 0.94583 0.0
C589 C 0.04103 0.20977 0.99172 0.0
C590 C 0.02119 0.11323 0.77779 0.0
C591 C 0.01749 0.09381 0.84637 0.0
C592 C 0.02253 0.13835 0.80836 0.0
C593 C 0.01966 0.14477 0.90808 0.0
C594 C 0.01582 0.12537 0.9763 0.0
C595 C 1.01509 0.10034 0.94623 0.0
H596 H 0.32098 0.05247 0.10666 0.0
H597 H 0.30723 0.98709 0.93412 0.0
H598 H 0.36279 0.0555 0.03634 0.0
H599 H 0.34903 0.98919 0.8665 0.0
H600 H 0.42378 1.00201 0.72082 0.0
H601 H 0.38028 1.00467 0.77007 0.0
H602 H 0.40231 0.03886 0.04338 0.0
H603 H 0.44559 0.03709 0.99174 0.0
C604 C 0.3265 0.03931 0.0506 0.0
C605 C 0.31017 0.0201 0.02358 0.0
C606 C 0.35089 0.04057 0.01179 0.0
C607 C 0.36002 0.02244 0.94542 0.0
C608 C 0.34314 1.00388 0.9155 0.0
C609 C 0.31881 1.00274 0.95388 0.0
C610 C 0.41937 1.01028 0.79115 0.0
C611 C 0.43854 0.01931 0.85176 0.0
C612 C 0.39419 1.01165 0.82026 0.0
C613 C 0.38709 0.02201 0.91162 0.0
C614 C 0.40642 0.03115 0.97185 0.0
C615 C 0.43156 0.02989 0.94244 0.0
H616 H 0.5485 0.30697 0.94973 0.0
H617 H 0.47689 0.31801 0.08389 0.0
H618 H 0.54656 0.3486 0.87813 0.0
H619 H 0.47423 0.35955 0.00964 0.0
H620 H 0.49001 0.44275 0.97546 0.0
H621 H 0.48897 0.39948 0.02592 0.0
H622 H 0.53261 0.37948 0.77139 0.0
H623 H 0.53423 0.42336 0.7223 0.0
C624 C 0.53169 0.31786 0.95988 0.0
C625 C 0.51247 0.30851 0.02013 0.0
C626 C 0.53063 0.34207 0.91927 0.0
C627 C 0.51032 0.35815 0.93766 0.0
C628 C 0.4905 0.34829 0.99422 0.0
C629 C 0.49164 0.32402 0.03512 0.0
C630 C 0.49942 0.42925 0.92957 0.0
C631 C 0.5123 0.437 0.84432 0.0
C632 C 0.49859 0.40404 0.95841 0.0
C633 C 0.51053 0.38527 0.90329 0.0
C634 C 0.52331 0.39302 0.81735 0.0
C635 C 0.52416 0.41837 0.78842 0.0
H636 H 0.22505 0.5469 0.92822 0.0
H637 H 0.2112 0.48331 0.11338 0.0
H638 H 0.18348 0.54396 0.85963 0.0
H639 H 0.16967 0.47924 0.04143 0.0
H640 H 0.08715 0.49546 0.98817 0.0
H641 H 0.13016 0.49483 0.04199 0.0
H642 H 0.15228 0.52834 0.7661 0.0
H643 H 0.10881 0.52999 0.71491 0.0
C644 C 0.21347 0.53145 0.9509 0.0
C645 C 0.22199 0.51493 0.0247 0.0
C646 C 0.18928 0.5298 0.91173 0.0
C647 C 0.17244 0.51145 0.94439 0.0
C648 C 0.1815 0.49404 0.01471 0.0
C649 C 0.20575 0.49588 0.05461 0.0
C650 C 0.10113 0.50278 0.93869 0.0
C651 C 0.09416 0.51284 0.84662 0.0
C652 C 0.12616 0.50215 0.96942 0.0
C653 C 0.14546 0.51137 0.90915 0.0
C654 C 0.1384 0.52128 0.81643 0.0
C655 C 0.11326 0.52208 0.78606 0.0
H656 H 0.9702 0.81779 0.46695 0.0
H657 H 0.04957 0.81286 0.50176 0.0
H658 H 0.97028 0.85903 0.54211 0.0
H659 H 0.05017 0.85435 0.57351 0.0
H660 H 0.0448 0.92754 0.74391 0.0
H661 H 0.04375 0.88401 0.68998 0.0
H662 H 0.97883 0.90035 0.51398 0.0
H663 H 0.97996 0.94345 0.56856 0.0
C664 C 0.9876 0.8251 0.49439 0.0
C665 C 1.00972 0.81131 0.48174 0.0
C666 C 0.98783 0.84925 0.53537 0.0
C667 C 1.01029 0.86084 0.56387 0.0
C668 C 0.03231 0.84649 0.55471 0.0
C669 C 0.03201 0.82232 0.51416 0.0
C670 C 0.03007 0.92164 0.69509 0.0
C671 C 1.01225 0.93906 0.6625 0.0
C672 C 0.02952 0.8966 0.66322 0.0
C673 C 1.01088 0.88787 0.59867 0.0
C674 C 0.99316 0.90558 0.56567 0.0
C675 C 0.99393 0.93063 0.59646 0.0
H676 H 0.72238 0.97468 0.55227 0.0
H677 H 0.7073 0.04778 0.4343 0.0
H678 H 0.68192 0.97557 0.63827 0.0
H679 H 0.66696 0.04831 0.51635 0.0
H680 H 0.58499 0.02071 0.53805 0.0
H681 H 0.62802 0.02087 0.48052 0.0
H682 H 0.65335 1.00138 0.7717 0.0
H683 H 0.60996 1.0023 0.8309 0.0
C684 C 0.71099 0.99133 0.54777 0.0
C685 C 0.71857 1.01138 0.48757 0.0
C686 C 0.68759 0.99173 0.5961 0.0
C687 C 0.67088 1.01192 0.58357 0.0
C688 C 0.67908 0.03237 0.52747 0.0
C689 C 0.70248 0.03219 0.48134 0.0
C690 C 0.59965 0.0165 0.59033 0.0
C691 C 0.5938 1.01152 0.6895 0.0
C692 C 0.62445 0.01668 0.5572 0.0
C693 C 0.64439 1.01124 0.62125 0.0
C694 C 0.63859 1.00571 0.72017 0.0
C695 C 0.61368 1.00629 0.7542 0.0
H696 H 0.47932 0.71865 0.51734 0.0
H697 H 0.55914 0.71492 0.50307 0.0
H698 H 0.47827 0.67751 0.59475 0.0
H699 H 0.55851 0.67409 0.58306 0.0
H700 H 0.54956 0.58987 0.60851 0.0
H701 H 0.55048 0.6328 0.55244 0.0
H702 H 0.48412 0.6484 0.72049 0.0
H703 H 0.48287 0.60476 0.77413 0.0
C704 C 0.49678 0.70956 0.53529 0.0
C705 C 0.51938 0.72079 0.50723 0.0
C706 C 0.49622 0.68564 0.57909 0.0
C707 C 0.51827 0.67176 0.59545 0.0
C708 C 0.54095 0.68356 0.57092 0.0
C709 C 0.54146 0.70746 0.52703 0.0
C710 C 0.53515 0.60239 0.63427 0.0
C711 C 0.5163 0.59359 0.69759 0.0
C712 C 0.53582 0.62739 0.60253 0.0
C713 C 0.51761 0.64485 0.6323 0.0
C714 C 0.49857 0.63592 0.69499 0.0
C715 C 0.49794 0.61078 0.72697 0.0
H716 H 0.81789 0.56062 0.47034 0.0
H717 H 0.80973 0.48317 0.54418 0.0
H718 H 0.85917 0.56073 0.54573 0.0
H719 H 0.85126 0.48283 0.61834 0.0
H720 H 0.92511 0.49178 0.78977 0.0
H721 H 0.88134 0.49336 0.73877 0.0
H722 H 0.89977 0.54794 0.51665 0.0
H723 H 0.94295 0.54666 0.56863 0.0
C724 C 0.82448 0.54381 0.50642 0.0
C725 C 0.80973 0.5222 0.50456 0.0
C726 C 0.84862 0.54363 0.54788 0.0
C727 C 0.85927 0.5217 0.58831 0.0
C728 C 0.84405 0.50028 0.58981 0.0
C729 C 0.8199 0.5005 0.54801 0.0
C730 C 0.91979 0.50429 0.73058 0.0
C731 C 0.93795 0.51918 0.68422 0.0
C732 C 0.89452 0.50509 0.7005 0.0
C733 C 0.88635 0.52094 0.62322 0.0
C734 C 0.90466 0.53583 0.57756 0.0
C735 C 0.9298 0.53495 0.60723 0.0
loop_
_geom_bond_atom_site_label_1
_geom_bond_atom_site_label_2
_geom_bond_distance
_geom_bond_site_symmetry_2
_ccdc_geom_bond_type
H0 C5 0.930 . S
H1 C8 0.930 . S
H2 C10 0.930 . S
H3 C4 1.016 . S
C4 H3 1.016 . S
C4 N11 1.286 . S
C5 H0 0.930 . S
C5 C6 1.397 . S
C5 C7 1.361 . S
C6 C5 1.397 . S
C6 C10 1.390 . S
C7 C5 1.361 . S
C7 C8 1.393 . S
C7 N11 1.413 . S
C8 H1 0.930 . S
C8 C7 1.393 . S
C8 C9 1.399 . S
C9 C8 1.399 . S
C9 C10 1.381 . S
C10 H2 0.930 . S
C10 C6 1.390 . S
C10 C9 1.381 . S
N11 C4 1.286 . S
N11 C7 1.413 . S
H12 C17 0.930 . S
H13 C20 0.930 . S
H14 C22 0.930 . S
H15 C16 1.029 . S
C16 H15 1.029 . S
C16 N23 1.268 1_655 S
C17 H12 0.930 . S
C17 C18 1.397 . S
C17 C19 1.361 . S
C18 C17 1.397 . S
C18 C22 1.390 1_455 S
C19 C17 1.361 . S
C19 C20 1.393 . S
C19 N23 1.413 . S
C20 H13 0.930 . S
C20 C19 1.393 . S
C20 C21 1.402 . S
C21 C20 1.402 . S
C21 C22 1.379 1_455 S
C22 H14 0.930 . S
C22 C18 1.390 1_655 S
C22 C21 1.379 1_655 S
N23 C16 1.268 1_455 S
N23 C19 1.413 . S
H24 C29 0.930 . S
H25 C32 0.930 . S
H26 C34 0.930 . S
H27 C28 1.030 . S
C28 H27 1.030 . S
C28 N35 1.268 1_565 S
C29 H24 0.930 . S
C29 C30 1.397 . S
C29 C31 1.361 . S
C30 C29 1.397 . S
C30 C34 1.390 1_545 S
C31 C29 1.361 . S
C31 C32 1.393 . S
C31 N35 1.413 . S
C32 H25 0.930 . S
C32 C31 1.393 . S
C32 C33 1.402 . S
C33 C32 1.402 . S
C33 C34 1.379 1_545 S
C34 H26 0.930 . S
C34 C30 1.390 1_565 S
C34 C33 1.379 1_565 S
N35 C28 1.268 1_545 S
N35 C31 1.413 . S
H36 C41 0.930 . S
H37 C44 0.930 . S
H38 C46 0.930 . S
H39 C40 1.016 . S
C40 H39 1.016 . S
C40 N47 1.286 . S
C41 H36 0.930 . S
C41 C42 1.397 . S
C41 C43 1.361 . S
C42 C41 1.397 . S
C42 C46 1.390 . S
C43 C41 1.361 . S
C43 C44 1.393 . S
C43 N47 1.413 . S
C44 H37 0.930 . S
C44 C43 1.393 . S
C44 C45 1.399 . S
C45 C44 1.399 . S
C45 C46 1.381 . S
C46 H38 0.930 . S
C46 C42 1.390 . S
C46 C45 1.381 . S
N47 C40 1.286 . S
N47 C43 1.413 . S
H48 C53 0.930 . S
H49 C56 0.930 . S
H50 C58 0.930 . S
H51 C52 1.016 . S
C52 H51 1.016 . S
C52 N59 1.286 . S
C53 H48 0.930 . S
C53 C54 1.397 . S
C53 C55 1.361 1_556 S
C54 C53 1.397 . S
C54 C58 1.390 1_556 S
C55 C53 1.361 1_554 S
C55 C56 1.393 . S
C55 N59 1.413 . S
C56 H49 0.930 . S
C56 C55 1.393 . S
C56 C57 1.399 . S
C57 C56 1.399 . S
C57 C58 1.381 . S
C58 H50 0.930 . S
C58 C54 1.390 1_554 S
C58 C57 1.381 . S
N59 C52 1.286 . S
N59 C55 1.413 . S
H60 C65 0.930 . S
H61 C68 0.930 . S
H62 C70 0.930 . S
H63 C64 1.026 . S
C64 H63 1.026 . S
C64 N71 1.273 1_655 S
C65 H60 0.930 . S
C65 C66 1.397 . S
C65 C67 1.361 1_556 S
C66 C65 1.397 . S
C66 C70 1.390 1_456 S
C67 C65 1.361 1_554 S
C67 C68 1.393 . S
C67 N71 1.413 . S
C68 H61 0.930 . S
C68 C67 1.393 . S
C68 C69 1.404 . S
C69 C68 1.404 . S
C69 C70 1.378 1_455 S
C70 H62 0.930 . S
C70 C66 1.390 1_654 S
C70 C69 1.378 1_655 S
N71 C64 1.273 1_455 S
N71 C67 1.413 . S
H72 C77 0.930 . S
H73 C80 0.930 . S
H74 C82 0.930 . S
H75 C76 1.026 . S
C76 H75 1.026 . S
C76 N83 1.273 1_565 S
C77 H72 0.930 . S
C77 C78 1.397 . S
C77 C79 1.361 1_556 S
C78 C77 1.397 . S
C78 C82 1.390 1_546 S
C79 C77 1.361 1_554 S
C79 C80 1.393 . S
C79 N83 1.413 . S
C80 H73 0.930 . S
C80 C79 1.393 . S
C80 C81 1.404 . S
C81 C80 1.404 . S
C81 C82 1.378 1_545 S
C82 H74 0.930 . S
C82 C78 1.390 1_564 S
C82 C81 1.378 1_565 S
N83 C76 1.273 1_545 S
N83 C79 1.413 . S
H84 C89 0.930 . S
H85 C92 0.930 . S
H86 C94 0.930 . S
H87 C88 1.016 . S
C88 H87 1.016 . S
C88 N95 1.286 . S
C89 H84 0.930 . S
C89 C90 1.397 . S
C89 C91 1.361 1_556 S
C90 C89 1.397 . S
C90 C94 1.390 1_556 S
C91 C89 1.361 1_554 S
C91 C92 1.393 . S
C91 N95 1.413 . S
C92 H85 0.930 . S
C92 C91 1.393 . S
C92 C93 1.399 . S
C93 C92 1.399 . S
C93 C94 1.381 . S
C94 H86 0.930 . S
C94 C90 1.390 1_554 S
C94 C93 1.381 . S
N95 C88 1.286 . S
N95 C91 1.413 . S
La96 C98 2.928 . S
La96 O116 2.521 . S
La96 O117 2.628 . S
La96 O118 2.554 . S
La96 O119 2.757 1_565 S
La96 O120 2.470 . S
La96 O125 2.482 1_455 S
La96 O127 2.503 1_565 S
La97 C107 2.928 . S
La97 O119 2.482 1_655 S
La97 O121 2.503 1_545 S
La97 O122 2.521 . S
La97 O123 2.628 . S
La97 O124 2.554 . S
La97 O125 2.757 1_545 S
La97 O126 2.470 . S
C98 La96 2.928 . S
C98 C99 1.503 1_556 S
C98 O116 1.261 . S
C98 O117 1.243 . S
C99 C98 1.503 1_554 S
C99 C100 1.394 . S
C99 C104 1.373 . S
C100 C99 1.394 . S
C100 C101 1.380 . S
C100 H128 0.930 . S
C101 C100 1.380 . S
C101 C102 1.376 . S
C101 H129 0.930 . S
C102 C101 1.376 . S
C102 C103 1.370 . S
C103 C102 1.370 . S
C103 C104 1.396 . S
C103 H130 0.929 1_455 S
C104 C99 1.373 . S
C104 C103 1.396 . S
C104 H131 0.929 1_455 S
C105 O118 1.240 . S
C105 O119 1.289 1_565 S
C106 O120 1.258 1_655 S
C106 O121 1.256 . S
C107 La97 2.928 . S
C107 C108 1.503 . S
C107 O122 1.261 . S
C107 O123 1.243 . S
C108 C107 1.503 . S
C108 C109 1.394 . S
C108 C113 1.373 . S
C109 C108 1.394 . S
C109 C110 1.380 . S
C109 H132 0.930 . S
C110 C109 1.380 . S
C110 C111 1.376 . S
C110 H133 0.930 . S
C111 C110 1.376 . S
C111 C112 1.370 . S
C112 C111 1.370 . S
C112 C113 1.396 . S
C112 H134 0.929 1_655 S
C113 C108 1.373 . S
C113 C112 1.396 . S
C113 H135 0.929 1_655 S
C114 O124 1.240 . S
C114 O125 1.289 1_545 S
C115 O126 1.258 1_455 S
C115 O127 1.256 . S
O116 La96 2.521 . S
O116 C98 1.261 . S
O117 La96 2.628 . S
O117 C98 1.243 . S
O118 La96 2.554 . S
O118 C105 1.240 . S
O119 La96 2.757 1_545 S
O119 La97 2.482 1_455 S
O119 C105 1.289 1_545 S
O120 La96 2.470 . S
O120 C106 1.258 1_455 S
O121 La97 2.503 1_565 S
O121 C106 1.256 . S
O122 La97 2.521 . S
O122 C107 1.261 . S
O123 La97 2.628 . S
O123 C107 1.243 . S
O124 La97 2.554 . S
O124 C114 1.240 . S
O125 La96 2.482 1_655 S
O125 La97 2.757 1_565 S
O125 C114 1.289 1_565 S
O126 La97 2.470 . S
O126 C115 1.258 1_655 S
O127 La96 2.503 1_545 S
O127 C115 1.256 . S
H128 C100 0.930 . S
H129 C101 0.930 . S
H130 C103 0.929 1_655 S
H131 C104 0.929 1_655 S
H132 C109 0.930 . S
H133 C110 0.930 . S
H134 C112 0.929 1_455 S
H135 C113 0.929 1_455 S
La136 C138 2.928 . S
La136 O156 2.521 . S
La136 O157 2.628 . S
La136 O158 2.554 . S
La136 O159 2.757 . S
La136 O160 2.470 . S
La136 O165 2.482 1_545 S
La136 O167 2.503 . S
La137 C147 2.928 . S
La137 O159 2.482 1_565 S
La137 O161 2.503 . S
La137 O162 2.521 . S
La137 O163 2.628 . S
La137 O164 2.554 . S
La137 O165 2.757 . S
La137 O166 2.470 . S
C138 La136 2.928 . S
C138 C139 1.503 1_556 S
C138 O156 1.261 . S
C138 O157 1.243 . S
C139 C138 1.503 1_554 S
C139 C140 1.394 . S
C139 C144 1.373 . S
C140 C139 1.394 . S
C140 C141 1.380 . S
C140 H168 0.930 . S
C141 C140 1.380 . S
C141 C142 1.376 . S
C141 H169 0.930 . S
C142 C141 1.376 . S
C142 C143 1.370 . S
C143 C142 1.370 . S
C143 C144 1.396 . S
C143 H170 0.929 1_545 S
C144 C139 1.373 . S
C144 C143 1.396 . S
C144 H171 0.929 1_545 S
C145 O158 1.240 . S
C145 O159 1.289 . S
C146 O160 1.258 1_565 S
C146 O161 1.256 . S
C147 La137 2.928 . S
C147 C148 1.503 . S
C147 O162 1.261 . S
C147 O163 1.243 . S
C148 C147 1.503 . S
C148 C149 1.394 . S
C148 C153 1.373 . S
C149 C148 1.394 . S
C149 C150 1.380 . S
C149 H172 0.930 . S
C150 C149 1.380 . S
C150 C151 1.376 . S
C150 H173 0.930 . S
C151 C150 1.376 . S
C151 C152 1.370 . S
C152 C151 1.370 . S
C152 C153 1.396 . S
C152 H174 0.929 1_565 S
C153 C148 1.373 . S
C153 C152 1.396 . S
C153 H175 0.929 1_565 S
C154 O164 1.240 . S
C154 O165 1.289 . S
C155 O166 1.258 1_545 S
C155 O167 1.256 . S
O156 La136 2.521 . S
O156 C138 1.261 . S
O157 La136 2.628 . S
O157 C138 1.243 . S
O158 La136 2.554 . S
O158 C145 1.240 . S
O159 La136 2.757 . S
O159 La137 2.482 1_545 S
O159 C145 1.289 . S
O160 La136 2.470 . S
O160 C146 1.258 1_545 S
O161 La137 2.503 . S
O161 C146 1.256 . S
O162 La137 2.521 . S
O162 C147 1.261 . S
O163 La137 2.628 . S
O163 C147 1.243 . S
O164 La137 2.554 . S
O164 C154 1.240 . S
O165 La136 2.482 1_565 S
O165 La137 2.757 . S
O165 C154 1.289 . S
O166 La137 2.470 . S
O166 C155 1.258 1_565 S
O167 La136 2.503 . S
O167 C155 1.256 . S
H168 C140 0.930 . S
H169 C141 0.930 . S
H170 C143 0.929 1_565 S
H171 C144 0.929 1_565 S
H172 C149 0.930 . S
H173 C150 0.930 . S
H174 C152 0.929 1_545 S
H175 C153 0.929 1_545 S
La176 C178 2.928 . S
La176 O196 2.521 . S
La176 O197 2.628 . S
La176 O198 2.554 . S
La176 O199 2.757 . S
La176 O200 2.470 . S
La176 O205 2.482 . S
La176 O207 2.503 . S
La177 C187 2.928 . S
La177 O199 2.482 . S
La177 O201 2.503 . S
La177 O202 2.521 . S
La177 O203 2.628 . S
La177 O204 2.554 . S
La177 O205 2.757 . S
La177 O206 2.470 . S
C178 La176 2.928 . S
C178 C179 1.503 1_556 S
C178 O196 1.261 . S
C178 O197 1.243 . S
C179 C178 1.503 1_554 S
C179 C180 1.394 . S
C179 C184 1.373 . S
C180 C179 1.394 . S
C180 C181 1.380 . S
C180 H208 0.930 . S
C181 C180 1.380 . S
C181 C182 1.376 . S
C181 H209 0.930 . S
C182 C181 1.376 . S
C182 C183 1.370 . S
C183 C182 1.370 . S
C183 C184 1.396 . S
C183 H210 0.929 . S
C184 C179 1.373 . S
C184 C183 1.396 . S
C184 H211 0.929 . S
C185 O198 1.240 . S
C185 O199 1.289 . S
C186 O200 1.258 . S
C186 O201 1.256 . S
C187 La177 2.928 . S
C187 C188 1.503 . S
C187 O202 1.261 . S
C187 O203 1.243 . S
C188 C187 1.503 . S
C188 C189 1.394 . S
C188 C193 1.373 . S
C189 C188 1.394 . S
C189 C190 1.380 . S
C189 H212 0.930 . S
C190 C189 1.380 . S
C190 C191 1.376 . S
C190 H213 0.930 . S
C191 C190 1.376 . S
C191 C192 1.370 . S
C192 C191 1.370 . S
C192 C193 1.396 . S
C192 H214 0.929 . S
C193 C188 1.373 . S
C193 C192 1.396 . S
C193 H215 0.929 . S
C194 O204 1.240 . S
C194 O205 1.289 . S
C195 O206 1.258 . S
C195 O207 1.256 . S
O196 La176 2.521 . S
O196 C178 1.261 . S
O197 La176 2.628 . S
O197 C178 1.243 . S
O198 La176 2.554 . S
O198 C185 1.240 . S
O199 La176 2.757 . S
O199 La177 2.482 . S
O199 C185 1.289 . S
O200 La176 2.470 . S
O200 C186 1.258 . S
O201 La177 2.503 . S
O201 C186 1.256 . S
O202 La177 2.521 . S
O202 C187 1.261 . S
O203 La177 2.628 . S
O203 C187 1.243 . S
O204 La177 2.554 . S
O204 C194 1.240 . S
O205 La176 2.482 . S
O205 La177 2.757 . S
O205 C194 1.289 . S
O206 La177 2.470 . S
O206 C195 1.258 . S
O207 La176 2.503 . S
O207 C195 1.256 . S
H208 C180 0.930 . S
H209 C181 0.930 . S
H210 C183 0.929 . S
H211 C184 0.929 . S
H212 C189 0.930 . S
H213 C190 0.930 . S
H214 C192 0.929 . S
H215 C193 0.929 . S
La216 C218 2.928 . S
La216 O236 2.521 . S
La216 O237 2.628 . S
La216 O238 2.554 . S
La216 O239 2.757 1_655 S
La216 O240 2.470 . S
La216 O245 2.482 . S
La216 O247 2.503 1_655 S
La217 C227 2.928 . S
La217 O239 2.482 . S
La217 O241 2.503 1_455 S
La217 O242 2.521 . S
La217 O243 2.628 . S
La217 O244 2.554 . S
La217 O245 2.757 1_455 S
La217 O246 2.470 . S
C218 La216 2.928 . S
C218 C219 1.503 1_556 S
C218 O236 1.261 . S
C218 O237 1.243 . S
C219 C218 1.503 1_554 S
C219 C220 1.394 . S
C219 C224 1.373 . S
C220 C219 1.394 . S
C220 C221 1.380 . S
C220 H248 0.930 . S
C221 C220 1.380 . S
C221 C222 1.376 . S
C221 H249 0.930 . S
C222 C221 1.376 . S
C222 C223 1.370 . S
C223 C222 1.370 . S
C223 C224 1.396 . S
C223 H250 0.929 . S
C224 C219 1.373 . S
C224 C223 1.396 . S
C224 H251 0.929 . S
C225 O238 1.257 . S
C225 O239 1.279 1_655 S
C226 O240 1.258 . S
C226 O241 1.256 . S
C227 La217 2.928 . S
C227 C228 1.503 . S
C227 O242 1.261 . S
C227 O243 1.243 . S
C228 C227 1.503 . S
C228 C229 1.394 . S
C228 C233 1.373 . S
C229 C228 1.394 . S
C229 C230 1.380 . S
C229 H252 0.930 . S
C230 C229 1.380 . S
C230 C231 1.376 . S
C230 H253 0.930 . S
C231 C230 1.376 . S
C231 C232 1.370 . S
C232 C231 1.370 . S
C232 C233 1.396 . S
C232 H254 0.929 . S
C233 C228 1.373 . S
C233 C232 1.396 . S
C233 H255 0.929 . S
C234 O244 1.263 . S
C234 O245 1.276 1_455 S
C235 O246 1.258 . S
C235 O247 1.256 . S
O236 La216 2.521 . S
O236 C218 1.261 . S
O237 La216 2.628 . S
O237 C218 1.243 . S
O238 La216 2.554 . S
O238 C225 1.257 . S
O239 La216 2.757 1_455 S
O239 La217 2.482 . S
O239 C225 1.279 1_455 S
O240 La216 2.470 . S
O240 C226 1.258 . S
O241 La217 2.503 1_655 S
O241 C226 1.256 . S
O242 La217 2.521 . S
O242 C227 1.261 . S
O243 La217 2.628 . S
O243 C227 1.243 . S
O244 La217 2.554 . S
O244 C234 1.263 . S
O245 La216 2.482 . S
O245 La217 2.757 1_655 S
O245 C234 1.276 1_655 S
O246 La217 2.470 . S
O246 C235 1.258 . S
O247 La216 2.503 1_455 S
O247 C235 1.256 . S
H248 C220 0.930 . S
H249 C221 0.930 . S
H250 C223 0.929 . S
H251 C224 0.929 . S
H252 C229 0.930 . S
H253 C230 0.930 . S
H254 C232 0.929 . S
H255 C233 0.929 . S
H256 C264 0.950 . S
H257 C269 0.950 . S
H258 C266 0.950 . S
H259 C268 0.950 . S
H260 C270 0.950 . S
H261 C272 0.950 . S
H262 C274 0.950 . S
H263 C275 0.950 . S
C264 H256 0.950 . S
C264 C265 1.392 . S
C264 C266 1.391 . S
C265 C264 1.392 . S
C265 C269 1.387 1_565 S
C266 H258 0.950 . S
C266 C264 1.391 . S
C266 C267 1.399 1_565 S
C267 C266 1.399 1_545 S
C267 C268 1.399 . S
C267 C273 1.491 . S
C268 H259 0.950 . S
C268 C267 1.399 . S
C268 C269 1.391 . S
C269 H257 0.950 . S
C269 C265 1.387 1_545 S
C269 C268 1.391 . S
C270 H260 0.950 . S
C270 C271 1.386 . S
C270 C272 1.391 . S
C271 C270 1.386 . S
C271 C275 1.393 1_545 S
C272 H261 0.950 . S
C272 C270 1.391 . S
C272 C273 1.400 . S
C273 C267 1.491 . S
C273 C272 1.400 . S
C273 C274 1.398 1_545 S
C274 H262 0.950 . S
C274 C273 1.398 1_565 S
C274 C275 1.391 . S
C275 H263 0.950 . S
C275 C271 1.393 1_565 S
C275 C274 1.391 . S
H276 C284 0.950 . S
H277 C289 0.950 . S
H278 C286 0.950 . S
H279 C288 0.950 . S
H280 C290 0.950 . S
H281 C292 0.950 . S
H282 C294 0.950 . S
H283 C295 0.950 . S
C284 H276 0.950 . S
C284 C285 1.386 . S
C284 C286 1.391 . S
C285 C284 1.386 . S
C285 C289 1.393 . S
C286 H278 0.950 . S
C286 C284 1.391 . S
C286 C287 1.400 . S
C287 C286 1.400 . S
C287 C288 1.398 . S
C287 C293 1.491 . S
C288 H279 0.950 . S
C288 C287 1.398 . S
C288 C289 1.391 . S
C289 H277 0.950 . S
C289 C285 1.393 . S
C289 C288 1.391 . S
C290 H280 0.950 . S
C290 C291 1.386 . S
C290 C292 1.391 . S
C291 C290 1.386 . S
C291 C295 1.393 . S
C292 H281 0.950 . S
C292 C290 1.391 . S
C292 C293 1.400 . S
C293 C287 1.491 . S
C293 C292 1.400 . S
C293 C294 1.398 . S
C294 H282 0.950 . S
C294 C293 1.398 . S
C294 C295 1.391 . S
C295 H283 0.950 . S
C295 C291 1.393 . S
C295 C294 1.391 . S
H296 C304 0.950 . S
H297 C309 0.950 . S
H298 C306 0.950 . S
H299 C308 0.950 . S
H300 C310 0.950 . S
H301 C312 0.950 . S
H302 C314 0.950 . S
H303 C315 0.950 . S
C304 H296 0.950 . S
C304 C305 1.386 . S
C304 C306 1.391 . S
C305 C304 1.386 . S
C305 C309 1.393 . S
C306 H298 0.950 . S
C306 C304 1.391 . S
C306 C307 1.400 . S
C307 C306 1.400 . S
C307 C308 1.398 . S
C307 C313 1.491 . S
C308 H299 0.950 . S
C308 C307 1.398 . S
C308 C309 1.391 . S
C309 H297 0.950 . S
C309 C305 1.393 . S
C309 C308 1.391 . S
C310 H300 0.950 . S
C310 C311 1.386 . S
C310 C312 1.391 . S
C311 C310 1.386 . S
C311 C315 1.393 . S
C312 H301 0.950 . S
C312 C310 1.391 . S
C312 C313 1.400 . S
C313 C307 1.491 . S
C313 C312 1.400 . S
C313 C314 1.398 . S
C314 H302 0.950 . S
C314 C313 1.398 . S
C314 C315 1.391 . S
C315 H303 0.950 . S
C315 C311 1.393 . S
C315 C314 1.391 . S
H316 C324 0.950 . S
H317 C329 0.950 . S
H318 C326 0.950 . S
H319 C328 0.950 . S
H320 C330 0.950 . S
H321 C332 0.950 . S
H322 C334 0.950 . S
H323 C335 0.950 . S
C324 H316 0.950 . S
C324 C325 1.392 . S
C324 C326 1.391 . S
C325 C324 1.392 . S
C325 C329 1.387 1_655 S
C326 H318 0.950 . S
C326 C324 1.391 . S
C326 C327 1.389 1_655 S
C327 C326 1.389 1_455 S
C327 C328 1.409 . S
C327 C333 1.491 . S
C328 H319 0.950 . S
C328 C327 1.409 . S
C328 C329 1.391 . S
C329 H317 0.950 . S
C329 C325 1.387 1_455 S
C329 C328 1.391 . S
C330 H320 0.950 . S
C330 C331 1.386 . S
C330 C332 1.391 . S
C331 C330 1.386 . S
C331 C335 1.393 1_455 S
C332 H321 0.950 . S
C332 C330 1.391 . S
C332 C333 1.400 . S
C333 C327 1.491 . S
C333 C332 1.400 . S
C333 C334 1.398 1_455 S
C334 H322 0.950 . S
C334 C333 1.398 1_655 S
C334 C335 1.391 . S
C335 H323 0.950 . S
C335 C331 1.393 1_655 S
C335 C334 1.391 . S
H336 C344 0.950 . S
H337 C349 0.950 . S
H338 C346 0.950 . S
H339 C348 0.950 . S
H340 C350 0.950 . S
H341 C352 0.950 . S
H342 C354 0.950 . S
H343 C355 0.950 . S
C344 H336 0.950 . S
C344 C345 1.369 1_565 S
C344 C346 1.391 . S
C345 C344 1.369 1_545 S
C345 C349 1.410 . S
C346 H338 0.950 . S
C346 C344 1.391 . S
C346 C347 1.401 . S
C347 C346 1.401 . S
C347 C348 1.398 1_565 S
C347 C353 1.490 . S
C348 H339 0.950 . S
C348 C347 1.398 1_545 S
C348 C349 1.391 . S
C349 H337 0.950 . S
C349 C345 1.410 . S
C349 C348 1.391 . S
C350 H340 0.950 . S
C350 C351 1.386 1_544 S
C350 C352 1.391 . S
C351 C350 1.386 1_566 S
C351 C355 1.393 . S
C352 H341 0.950 . S
C352 C350 1.391 . S
C352 C353 1.370 1_545 S
C353 C347 1.490 . S
C353 C352 1.370 1_565 S
C353 C354 1.431 . S
C354 H342 0.950 . S
C354 C353 1.431 . S
C354 C355 1.391 1_554 S
C355 H343 0.950 . S
C355 C351 1.393 . S
C355 C354 1.391 1_556 S
H356 C364 0.950 . S
H357 C369 0.950 . S
H358 C366 0.950 . S
H359 C368 0.950 . S
H360 C370 0.950 . S
H361 C372 0.950 . S
H362 C374 0.950 . S
H363 C375 0.950 . S
C364 H356 0.950 . S
C364 C365 1.386 . S
C364 C366 1.391 . S
C365 C364 1.386 . S
C365 C369 1.393 . S
C366 H358 0.950 . S
C366 C364 1.391 . S
C366 C367 1.400 . S
C367 C366 1.400 . S
C367 C368 1.398 . S
C367 C373 1.491 . S
C368 H359 0.950 . S
C368 C367 1.398 . S
C368 C369 1.391 . S
C369 H357 0.950 . S
C369 C365 1.393 . S
C369 C368 1.391 . S
C370 H360 0.950 . S
C370 C371 1.386 . S
C370 C372 1.391 . S
C371 C370 1.386 . S
C371 C375 1.393 1_556 S
C372 H361 0.950 . S
C372 C370 1.391 . S
C372 C373 1.400 1_556 S
C373 C367 1.491 . S
C373 C372 1.400 1_554 S
C373 C374 1.398 . S
C374 H362 0.950 . S
C374 C373 1.398 . S
C374 C375 1.391 . S
C375 H363 0.950 . S
C375 C371 1.393 1_554 S
C375 C374 1.391 . S
H376 C384 0.950 . S
H377 C389 0.950 . S
H378 C386 0.950 . S
H379 C388 0.950 . S
H380 C390 0.950 . S
H381 C392 0.950 . S
H382 C394 0.950 . S
H383 C395 0.950 . S
C384 H376 0.950 . S
C384 C385 1.386 . S
C384 C386 1.391 . S
C385 C384 1.386 . S
C385 C389 1.393 . S
C386 H378 0.950 . S
C386 C384 1.391 . S
C386 C387 1.400 . S
C387 C386 1.400 . S
C387 C388 1.398 . S
C387 C393 1.491 . S
C388 H379 0.950 . S
C388 C387 1.398 . S
C388 C389 1.391 . S
C389 H377 0.950 . S
C389 C385 1.393 . S
C389 C388 1.391 . S
C390 H380 0.950 . S
C390 C391 1.386 . S
C390 C392 1.391 1_556 S
C391 C390 1.386 . S
C391 C395 1.393 . S
C392 H381 0.950 . S
C392 C390 1.391 1_554 S
C392 C393 1.400 . S
C393 C387 1.491 . S
C393 C392 1.400 . S
C393 C394 1.398 . S
C394 H382 0.950 . S
C394 C393 1.398 . S
C394 C395 1.391 1_554 S
C395 H383 0.950 . S
C395 C391 1.393 . S
C395 C394 1.391 1_556 S
H396 C404 0.950 . S
H397 C409 0.950 . S
H398 C406 0.950 . S
H399 C408 0.950 . S
H400 C410 0.950 . S
H401 C412 0.950 . S
H402 C414 0.950 . S
H403 C415 0.950 . S
C404 H396 0.950 . S
C404 C405 1.393 . S
C404 C406 1.391 . S
C405 C404 1.393 . S
C405 C409 1.386 1_455 S
C406 H398 0.950 . S
C406 C404 1.391 . S
C406 C407 1.393 1_455 S
C407 C406 1.393 1_655 S
C407 C408 1.405 . S
C407 C413 1.491 . S
C408 H399 0.950 . S
C408 C407 1.405 . S
C408 C409 1.391 . S
C409 H397 0.950 . S
C409 C405 1.386 1_655 S
C409 C408 1.391 . S
C410 H400 0.950 . S
C410 C411 1.386 1_554 S
C410 C412 1.391 . S
C411 C410 1.386 1_556 S
C411 C415 1.393 1_655 S
C412 H401 0.950 . S
C412 C410 1.391 . S
C412 C413 1.400 . S
C413 C407 1.491 . S
C413 C412 1.400 . S
C413 C414 1.398 1_654 S
C414 H402 0.950 . S
C414 C413 1.398 1_456 S
C414 C415 1.391 . S
C415 H403 0.950 . S
C415 C411 1.393 1_455 S
C415 C414 1.391 . S
H416 C424 0.950 . S
H417 C429 0.950 . S
H418 C426 0.950 . S
H419 C428 0.950 . S
H420 C430 0.950 . S
H421 C432 0.950 . S
H422 C434 0.922 1_455 S
H423 C435 0.950 . S
C424 H416 0.950 . S
C424 C425 1.386 . S
C424 C426 1.391 . S
C425 C424 1.386 . S
C425 C429 1.393 1_455 S
C426 H418 0.950 . S
C426 C424 1.391 . S
C426 C427 1.400 1_455 S
C427 C426 1.400 1_655 S
C427 C428 1.398 . S
C427 C433 1.491 . S
C428 H419 0.950 . S
C428 C427 1.398 . S
C428 C429 1.391 . S
C429 H417 0.950 . S
C429 C425 1.393 1_655 S
C429 C428 1.391 . S
C430 H420 0.950 . S
C430 C431 1.386 . S
C430 C432 1.391 . S
C431 C430 1.386 . S
C431 C435 1.393 . S
C432 H421 0.950 . S
C432 C430 1.391 . S
C432 C433 1.400 . S
C433 C427 1.491 . S
C433 C432 1.400 . S
C433 C434 1.398 . S
C434 H422 0.922 1_655 S
C434 C433 1.398 . S
C434 C435 1.391 . S
C435 H423 0.950 . S
C435 C431 1.393 . S
C435 C434 1.391 . S
H436 C444 0.950 . S
H437 C449 0.950 . S
H438 C446 0.950 . S
H439 C448 0.950 . S
H440 C450 0.950 . S
H441 C452 0.950 1_545 S
H442 C454 0.950 . S
H443 C455 0.950 . S
C444 H436 0.950 . S
C444 C445 1.386 1_565 S
C444 C446 1.391 . S
C445 C444 1.386 1_545 S
C445 C449 1.393 . S
C446 H438 0.950 . S
C446 C444 1.391 . S
C446 C447 1.400 . S
C447 C446 1.400 . S
C447 C448 1.398 1_565 S
C447 C453 1.491 . S
C448 H439 0.950 . S
C448 C447 1.398 1_545 S
C448 C449 1.391 . S
C449 H437 0.950 . S
C449 C445 1.393 . S
C449 C448 1.391 . S
C450 H440 0.950 . S
C450 C451 1.386 . S
C450 C452 1.391 . S
C451 C450 1.386 . S
C451 C455 1.393 . S
C452 H441 0.950 1_565 S
C452 C450 1.391 . S
C452 C453 1.400 . S
C453 C447 1.491 . S
C453 C452 1.400 . S
C453 C454 1.398 . S
C454 H442 0.950 . S
C454 C453 1.398 . S
C454 C455 1.391 . S
C455 H443 0.950 . S
C455 C451 1.393 . S
C455 C454 1.391 . S
H456 C464 0.950 . S
H457 C469 0.950 . S
H458 C466 0.950 . S
H459 C468 0.950 . S
H460 C470 0.950 . S
H461 C472 0.950 . S
H462 C474 0.950 . S
H463 C475 0.950 . S
C464 H456 0.950 . S
C464 C465 1.386 . S
C464 C466 1.391 . S
C465 C464 1.386 . S
C465 C469 1.393 . S
C466 H458 0.950 . S
C466 C464 1.391 . S
C466 C467 1.400 . S
C467 C466 1.400 . S
C467 C468 1.398 . S
C467 C473 1.491 . S
C468 H459 0.950 . S
C468 C467 1.398 . S
C468 C469 1.391 . S
C469 H457 0.950 . S
C469 C465 1.393 . S
C469 C468 1.391 . S
C470 H460 0.950 . S
C470 C471 1.386 . S
C470 C472 1.391 . S
C471 C470 1.386 . S
C471 C475 1.393 . S
C472 H461 0.950 . S
C472 C470 1.391 . S
C472 C473 1.400 . S
C473 C467 1.491 . S
C473 C472 1.400 . S
C473 C474 1.398 . S
C474 H462 0.950 . S
C474 C473 1.398 . S
C474 C475 1.391 . S
C475 H463 0.950 . S
C475 C471 1.393 . S
C475 C474 1.391 . S
H476 C484 0.950 . S
H477 C489 0.950 . S
H478 C486 0.950 . S
H479 C488 0.950 . S
H480 C490 0.950 . S
H481 C492 0.950 . S
H482 C494 0.950 . S
H483 C495 0.950 . S
C484 H476 0.950 . S
C484 C485 1.386 . S
C484 C486 1.391 . S
C485 C484 1.386 . S
C485 C489 1.393 . S
C486 H478 0.950 . S
C486 C484 1.391 . S
C486 C487 1.400 . S
C487 C486 1.400 . S
C487 C488 1.398 . S
C487 C493 1.491 . S
C488 H479 0.950 . S
C488 C487 1.398 . S
C488 C489 1.391 . S
C489 H477 0.950 . S
C489 C485 1.393 . S
C489 C488 1.391 . S
C490 H480 0.950 . S
C490 C491 1.386 . S
C490 C492 1.391 . S
C491 C490 1.386 . S
C491 C495 1.393 . S
C492 H481 0.950 . S
C492 C490 1.391 . S
C492 C493 1.400 . S
C493 C487 1.491 . S
C493 C492 1.400 . S
C493 C494 1.398 . S
C494 H482 0.950 . S
C494 C493 1.398 . S
C494 C495 1.391 . S
C495 H483 0.950 . S
C495 C491 1.393 . S
C495 C494 1.391 . S
H496 C504 0.950 . S
H497 C509 0.950 . S
H498 C506 0.950 . S
H499 C508 0.950 . S
H500 C510 0.950 . S
H501 C512 0.950 . S
H502 C514 0.950 . S
H503 C515 0.950 1_556 S
C504 H496 0.950 . S
C504 C505 1.386 . S
C504 C506 1.391 1_655 S
C505 C504 1.386 . S
C505 C509 1.393 1_655 S
C506 H498 0.950 . S
C506 C504 1.391 1_455 S
C506 C507 1.400 . S
C507 C506 1.400 . S
C507 C508 1.398 . S
C507 C513 1.491 . S
C508 H499 0.950 . S
C508 C507 1.398 . S
C508 C509 1.391 . S
C509 H497 0.950 . S
C509 C505 1.393 1_455 S
C509 C508 1.391 . S
C510 H500 0.950 . S
C510 C511 1.386 . S
C510 C512 1.391 . S
C511 C510 1.386 . S
C511 C515 1.393 . S
C512 H501 0.950 . S
C512 C510 1.391 . S
C512 C513 1.400 . S
C513 C507 1.491 . S
C513 C512 1.400 . S
C513 C514 1.398 . S
C514 H502 0.950 . S
C514 C513 1.398 . S
C514 C515 1.391 . S
C515 H503 0.950 1_554 S
C515 C511 1.393 . S
C515 C514 1.391 . S
H516 C524 0.950 . S
H517 C529 0.950 . S
H518 C526 0.950 . S
H519 C528 0.950 . S
H520 C530 0.950 . S
H521 C532 0.950 . S
H522 C534 0.950 . S
H523 C535 0.950 . S
C524 H516 0.950 . S
C524 C525 1.355 1_545 S
C524 C526 1.391 . S
C525 C524 1.355 1_565 S
C525 C529 1.409 . S
C526 H518 0.950 . S
C526 C524 1.391 . S
C526 C527 1.400 . S
C527 C526 1.400 . S
C527 C528 1.398 1_545 S
C527 C533 1.491 . S
C528 H519 0.950 . S
C528 C527 1.398 1_565 S
C528 C529 1.391 . S
C529 H517 0.950 . S
C529 C525 1.409 . S
C529 C528 1.391 . S
C530 H520 0.950 . S
C530 C531 1.386 . S
C530 C532 1.391 . S
C531 C530 1.386 . S
C531 C535 1.393 . S
C532 H521 0.950 . S
C532 C530 1.391 . S
C532 C533 1.400 . S
C533 C527 1.491 . S
C533 C532 1.400 . S
C533 C534 1.398 . S
C534 H522 0.950 . S
C534 C533 1.398 . S
C534 C535 1.391 . S
C535 H523 0.950 . S
C535 C531 1.393 . S
C535 C534 1.391 . S
H536 C544 0.950 . S
H537 C549 0.950 . S
H538 C546 0.950 . S
H539 C548 0.950 . S
H540 C550 0.950 . S
H541 C552 0.950 . S
H542 C554 0.950 . S
H543 C555 0.950 . S
C544 H536 0.950 . S
C544 C545 1.386 . S
C544 C546 1.391 . S
C545 C544 1.386 . S
C545 C549 1.393 . S
C546 H538 0.950 . S
C546 C544 1.391 . S
C546 C547 1.400 . S
C547 C546 1.400 . S
C547 C548 1.398 . S
C547 C553 1.491 . S
C548 H539 0.950 . S
C548 C547 1.398 . S
C548 C549 1.391 . S
C549 H537 0.950 . S
C549 C545 1.393 . S
C549 C548 1.391 . S
C550 H540 0.950 . S
C550 C551 1.386 . S
C550 C552 1.391 . S
C551 C550 1.386 . S
C551 C555 1.393 . S
C552 H541 0.950 . S
C552 C550 1.391 . S
C552 C553 1.400 . S
C553 C547 1.491 . S
C553 C552 1.400 . S
C553 C554 1.398 . S
C554 H542 0.950 . S
C554 C553 1.398 . S
C554 C555 1.391 . S
C555 H543 0.950 . S
C555 C551 1.393 . S
C555 C554 1.391 . S
H556 C564 0.950 . S
H557 C569 0.950 . S
H558 C566 0.950 . S
H559 C568 0.950 . S
H560 C570 0.950 . S
H561 C572 0.950 . S
H562 C574 0.950 . S
H563 C575 0.950 . S
C564 H556 0.950 . S
C564 C565 1.386 . S
C564 C566 1.391 . S
C565 C564 1.386 . S
C565 C569 1.393 . S
C566 H558 0.950 . S
C566 C564 1.391 . S
C566 C567 1.400 . S
C567 C566 1.400 . S
C567 C568 1.398 . S
C567 C573 1.491 . S
C568 H559 0.950 . S
C568 C567 1.398 . S
C568 C569 1.391 . S
C569 H557 0.950 . S
C569 C565 1.393 . S
C569 C568 1.391 . S
C570 H560 0.950 . S
C570 C571 1.386 . S
C570 C572 1.391 . S
C571 C570 1.386 . S
C571 C575 1.393 . S
C572 H561 0.950 . S
C572 C570 1.391 . S
C572 C573 1.400 . S
C573 C567 1.491 . S
C573 C572 1.400 . S
C573 C574 1.398 . S
C574 H562 0.950 . S
C574 C573 1.398 . S
C574 C575 1.391 . S
C575 H563 0.950 . S
C575 C571 1.393 . S
C575 C574 1.391 . S
H576 C584 0.950 . S
H577 C589 0.950 . S
H578 C586 0.950 . S
H579 C588 0.950 . S
H580 C590 0.950 . S
H581 C592 0.950 . S
H582 C594 0.965 . S
H583 C595 0.938 1_655 S
C584 H576 0.950 . S
C584 C585 1.386 1_655 S
C584 C586 1.391 . S
C585 C584 1.386 1_455 S
C585 C589 1.393 . S
C586 H578 0.950 . S
C586 C584 1.391 . S
C586 C587 1.400 1_655 S
C587 C586 1.400 1_455 S
C587 C588 1.398 . S
C587 C593 1.491 . S
C588 H579 0.950 . S
C588 C587 1.398 . S
C588 C589 1.391 . S
C589 H577 0.950 . S
C589 C585 1.393 . S
C589 C588 1.391 . S
C590 H580 0.950 . S
C590 C591 1.386 . S
C590 C592 1.391 . S
C591 C590 1.386 . S
C591 C595 1.407 . S
C592 H581 0.950 . S
C592 C590 1.391 . S
C592 C593 1.400 . S
C593 C587 1.491 . S
C593 C592 1.400 . S
C593 C594 1.387 1_455 S
C594 H582 0.965 . S
C594 C593 1.387 1_655 S
C594 C595 1.388 1_655 S
C595 H583 0.938 1_455 S
C595 C591 1.407 . S
C595 C594 1.388 1_455 S
H596 C604 0.950 . S
H597 C609 0.950 . S
H598 C606 0.950 . S
H599 C608 0.950 . S
H600 C610 0.950 . S
H601 C612 0.950 . S
H602 C614 0.950 . S
H603 C615 0.950 . S
C604 H596 0.950 . S
C604 C605 1.386 . S
C604 C606 1.391 . S
C605 C604 1.386 . S
C605 C609 1.393 1_545 S
C606 H598 0.950 . S
C606 C604 1.391 . S
C606 C607 1.400 . S
C607 C606 1.400 . S
C607 C608 1.398 1_545 S
C607 C613 1.491 . S
C608 H599 0.950 . S
C608 C607 1.398 1_565 S
C608 C609 1.391 . S
C609 H597 0.950 . S
C609 C605 1.393 1_565 S
C609 C608 1.391 . S
C610 H600 0.950 . S
C610 C611 1.386 1_565 S
C610 C612 1.391 . S
C611 C610 1.386 1_545 S
C611 C615 1.393 . S
C612 H601 0.950 . S
C612 C610 1.391 . S
C612 C613 1.400 1_565 S
C613 C607 1.491 . S
C613 C612 1.400 1_545 S
C613 C614 1.398 . S
C614 H602 0.950 . S
C614 C613 1.398 . S
C614 C615 1.391 . S
C615 H603 0.950 . S
C615 C611 1.393 . S
C615 C614 1.391 . S
H616 C624 0.950 . S
H617 C629 0.950 . S
H618 C626 0.950 . S
H619 C628 0.950 . S
H620 C630 0.950 . S
H621 C632 0.950 . S
H622 C634 0.950 . S
H623 C635 0.950 . S
C624 H616 0.950 . S
C624 C625 1.386 . S
C624 C626 1.391 . S
C625 C624 1.386 . S
C625 C629 1.393 . S
C626 H618 0.950 . S
C626 C624 1.391 . S
C626 C627 1.400 . S
C627 C626 1.400 . S
C627 C628 1.398 . S
C627 C633 1.491 . S
C628 H619 0.950 . S
C628 C627 1.398 . S
C628 C629 1.391 . S
C629 H617 0.950 . S
C629 C625 1.393 . S
C629 C628 1.391 . S
C630 H620 0.950 . S
C630 C631 1.386 . S
C630 C632 1.391 . S
C631 C630 1.386 . S
C631 C635 1.393 . S
C632 H621 0.950 . S
C632 C630 1.391 . S
C632 C633 1.400 . S
C633 C627 1.491 . S
C633 C632 1.400 . S
C633 C634 1.398 . S
C634 H622 0.950 . S
C634 C633 1.398 . S
C634 C635 1.391 . S
C635 H623 0.950 . S
C635 C631 1.393 . S
C635 C634 1.391 . S
H636 C644 0.950 . S
H637 C649 0.950 . S
H638 C646 0.950 . S
H639 C648 0.950 . S
H640 C650 0.950 . S
H641 C652 0.950 . S
H642 C654 0.950 . S
H643 C655 0.950 . S
C644 H636 0.950 . S
C644 C645 1.386 . S
C644 C646 1.391 . S
C645 C644 1.386 . S
C645 C649 1.393 . S
C646 H638 0.950 . S
C646 C644 1.391 . S
C646 C647 1.400 . S
C647 C646 1.400 . S
C647 C648 1.398 . S
C647 C653 1.491 . S
C648 H639 0.950 . S
C648 C647 1.398 . S
C648 C649 1.391 . S
C649 H637 0.950 . S
C649 C645 1.393 . S
C649 C648 1.391 . S
C650 H640 0.950 . S
C650 C651 1.386 . S
C650 C652 1.391 . S
C651 C650 1.386 . S
C651 C655 1.393 . S
C652 H641 0.950 . S
C652 C650 1.391 . S
C652 C653 1.400 . S
C653 C647 1.491 . S
C653 C652 1.400 . S
C653 C654 1.398 . S
C654 H642 0.950 . S
C654 C653 1.398 . S
C654 C655 1.391 . S
C655 H643 0.950 . S
C655 C651 1.393 . S
C655 C654 1.391 . S
H656 C664 0.950 . S
H657 C669 0.950 . S
H658 C666 0.950 . S
H659 C668 0.950 . S
H660 C670 0.950 . S
H661 C672 0.950 . S
H662 C674 0.950 . S
H663 C675 0.950 . S
C664 H656 0.950 . S
C664 C665 1.386 . S
C664 C666 1.391 . S
C665 C664 1.386 . S
C665 C669 1.393 1_655 S
C666 H658 0.950 . S
C666 C664 1.391 . S
C666 C667 1.400 . S
C667 C666 1.400 . S
C667 C668 1.398 1_655 S
C667 C673 1.491 . S
C668 H659 0.950 . S
C668 C667 1.398 1_455 S
C668 C669 1.391 . S
C669 H657 0.950 . S
C669 C665 1.393 1_455 S
C669 C668 1.391 . S
C670 H660 0.950 . S
C670 C671 1.386 1_455 S
C670 C672 1.391 . S
C671 C670 1.386 1_655 S
C671 C675 1.393 . S
C672 H661 0.950 . S
C672 C670 1.391 . S
C672 C673 1.400 1_455 S
C673 C667 1.491 . S
C673 C672 1.400 1_655 S
C673 C674 1.398 . S
C674 H662 0.950 . S
C674 C673 1.398 . S
C674 C675 1.391 . S
C675 H663 0.950 . S
C675 C671 1.393 . S
C675 C674 1.391 . S
H676 C684 0.950 . S
H677 C689 0.953 . S
H678 C686 0.950 . S
H679 C688 0.948 1_545 S
H680 C690 0.950 . S
H681 C692 0.950 . S
H682 C694 0.950 . S
H683 C695 0.950 . S
C684 H676 0.950 . S
C684 C685 1.392 . S
C684 C686 1.391 . S
C685 C684 1.392 . S
C685 C689 1.391 1_565 S
C686 H678 0.950 . S
C686 C684 1.391 . S
C686 C687 1.400 . S
C687 C686 1.400 . S
C687 C688 1.398 . S
C687 C693 1.491 . S
C688 H679 0.948 1_565 S
C688 C687 1.398 . S
C688 C689 1.389 1_565 S
C689 H677 0.953 . S
C689 C685 1.391 1_545 S
C689 C688 1.389 1_545 S
C690 H680 0.950 . S
C690 C691 1.386 . S
C690 C692 1.391 . S
C691 C690 1.386 . S
C691 C695 1.393 . S
C692 H681 0.950 . S
C692 C690 1.391 . S
C692 C693 1.400 . S
C693 C687 1.491 . S
C693 C692 1.400 . S
C693 C694 1.398 . S
C694 H682 0.950 . S
C694 C693 1.398 . S
C694 C695 1.391 . S
C695 H683 0.950 . S
C695 C691 1.393 . S
C695 C694 1.391 . S
H696 C704 0.950 . S
H697 C709 0.950 . S
H698 C706 0.950 . S
H699 C708 0.950 . S
H700 C710 0.950 . S
H701 C712 0.950 . S
H702 C714 0.950 . S
H703 C715 0.950 . S
C704 H696 0.950 . S
C704 C705 1.386 . S
C704 C706 1.391 . S
C705 C704 1.386 . S
C705 C709 1.393 . S
C706 H698 0.950 . S
C706 C704 1.391 . S
C706 C707 1.400 . S
C707 C706 1.400 . S
C707 C708 1.398 . S
C707 C713 1.491 . S
C708 H699 0.950 . S
C708 C707 1.398 . S
C708 C709 1.391 . S
C709 H697 0.950 . S
C709 C705 1.393 . S
C709 C708 1.391 . S
C710 H700 0.950 . S
C710 C711 1.386 . S
C710 C712 1.391 . S
C711 C710 1.386 . S
C711 C715 1.393 . S
C712 H701 0.950 . S
C712 C710 1.391 . S
C712 C713 1.400 . S
C713 C707 1.491 . S
C713 C712 1.400 . S
C713 C714 1.398 . S
C714 H702 0.950 . S
C714 C713 1.398 . S
C714 C715 1.391 . S
C715 H703 0.950 . S
C715 C711 1.393 . S
C715 C714 1.391 . S
H716 C724 0.950 . S
H717 C729 0.950 . S
H718 C726 0.950 . S
H719 C728 0.950 . S
H720 C730 0.950 . S
H721 C732 0.950 . S
H722 C734 0.950 . S
H723 C735 0.950 . S
C724 H716 0.950 . S
C724 C725 1.386 . S
C724 C726 1.391 . S
C725 C724 1.386 . S
C725 C729 1.393 . S
C726 H718 0.950 . S
C726 C724 1.391 . S
C726 C727 1.400 . S
C727 C726 1.400 . S
C727 C728 1.398 . S
C727 C733 1.491 . S
C728 H719 0.950 . S
C728 C727 1.398 . S
C728 C729 1.391 . S
C729 H717 0.950 . S
C729 C725 1.393 . S
C729 C728 1.391 . S
C730 H720 0.950 . S
C730 C731 1.386 . S
C730 C732 1.391 . S
C731 C730 1.386 . S
C731 C735 1.393 . S
C732 H721 0.950 . S
C732 C730 1.391 . S
C732 C733 1.400 . S
C733 C727 1.491 . S
C733 C732 1.400 . S
C733 C734 1.398 . S
C734 H722 0.950 . S
C734 C733 1.398 . S
C734 C735 1.391 . S
C735 H723 0.950 . S
C735 C731 1.393 . S
C735 C734 1.391 . S
C265 C76 1.809 . S
C271 C105 1.969 1_545 S
C291 C145 1.977 . S
C285 C88 1.807 . S
C311 C185 1.982 . S
C305 C52 1.815 . S
C331 C225 1.973 1_455 S
C325 C64 1.809 . S
C351 C114 1.971 1_565 S
C345 C28 1.808 1_545 S
C365 C40 1.812 . S
C371 C154 1.973 . S
C385 C4 1.813 . S
C391 C194 1.982 . S
C405 C16 1.830 1_455 S
C411 C234 1.972 1_655 S
C431 C111 0.460 . S
C425 C69 0.497 . S
C451 C151 0.470 . S
C445 C81 0.465 . S
C471 C191 0.503 . S
C465 C93 0.533 . S
C485 C57 0.459 . S
C491 C231 0.471 . S
C505 C21 0.514 1_655 S
C511 C102 0.519 . S
C531 C142 0.470 . S
C525 C33 0.507 1_565 S
C551 C182 0.510 . S
C545 C45 0.498 . S
C565 C9 0.539 . S
C571 C222 0.524 . S
C585 C66 2.067 . S
C591 C115 2.284 . S
C605 C78 2.029 . S
C611 C155 2.270 . S
C631 C195 2.257 . S
C625 C90 2.044 . S
C651 C235 2.269 . S
C645 C54 2.053 . S
C665 C18 2.078 1_655 S
C671 C106 2.293 . S
C691 C146 2.271 . S
C685 C30 2.041 1_565 S
C711 C186 2.255 . S
C705 C42 2.019 . S
C725 C6 2.063 . S
C731 C226 2.273 . S
