# Generated by pormake.
# Topology sqc, (4,8)-cn, num edge types: 1
# Building blocks:
#     Node 0, Type 0, BuildingBlock: MIFKUJ_clean_linker_1, # of connection points: 4
#     Node 1, Type 0, BuildingBlock: MIFKUJ_clean_linker_1, # of connection points: 4
#     Node 2, Type 0, BuildingBlock: MIFKUJ_clean_linker_1, # of connection points: 4
#     Node 3, Type 0, BuildingBlock: MIFKUJ_clean_linker_1, # of connection points: 4
#     Node 4, Type 0, BuildingBlock: MIFKUJ_clean_linker_1, # of connection points: 4
#     Node 5, Type 0, BuildingBlock: MIFKUJ_clean_linker_1, # of connection points: 4
#     Node 6, Type 0, BuildingBlock: MIFKUJ_clean_linker_1, # of connection points: 4
#     Node 7, Type 0, BuildingBlock: MIFKUJ_clean_linker_1, # of connection points: 4
#     Node 8, Type 1, BuildingBlock: TAGTUT_clean_sbu_3, # of connection points: 8
#     Node 9, Type 1, BuildingBlock: TAGTUT_clean_sbu_3, # of connection points: 8
#     Node 10, Type 1, BuildingBlock: TAGTUT_clean_sbu_3, # of connection points: 8
#     Node 11, Type 1, BuildingBlock: TAGTUT_clean_sbu_3, # of connection points: 8
#     Edge 12, Type (0, 1), BuildingBlock: MIFKUJ_clean_linker_0, # of connection points: 2
#     Edge 13, Type (0, 1), BuildingBlock: MIFKUJ_clean_linker_0, # of connection points: 2
#     Edge 14, Type (0, 1), BuildingBlock: MIFKUJ_clean_linker_0, # of connection points: 2
#     Edge 15, Type (0, 1), BuildingBlock: MIFKUJ_clean_linker_0, # of connection points: 2
#     Edge 16, Type (0, 1), BuildingBlock: MIFKUJ_clean_linker_0, # of connection points: 2
#     Edge 17, Type (0, 1), BuildingBlock: MIFKUJ_clean_linker_0, # of connection points: 2
#     Edge 18, Type (0, 1), BuildingBlock: MIFKUJ_clean_linker_0, # of connection points: 2
#     Edge 19, Type (0, 1), BuildingBlock: MIFKUJ_clean_linker_0, # of connection points: 2
#     Edge 20, Type (0, 1), BuildingBlock: MIFKUJ_clean_linker_0, # of connection points: 2
#     Edge 21, Type (0, 1), BuildingBlock: MIFKUJ_clean_linker_0, # of connection points: 2
#     Edge 22, Type (0, 1), BuildingBlock: MIFKUJ_clean_linker_0, # of connection points: 2
#     Edge 23, Type (0, 1), BuildingBlock: MIFKUJ_clean_linker_0, # of connection points: 2
#     Edge 24, Type (0, 1), BuildingBlock: MIFKUJ_clean_linker_0, # of connection points: 2
#     Edge 25, Type (0, 1), BuildingBlock: MIFKUJ_clean_linker_0, # of connection points: 2
#     Edge 26, Type (0, 1), BuildingBlock: MIFKUJ_clean_linker_0, # of connection points: 2
#     Edge 27, Type (0, 1), BuildingBlock: MIFKUJ_clean_linker_0, # of connection points: 2
#     Edge 28, Type (0, 1), BuildingBlock: MIFKUJ_clean_linker_0, # of connection points: 2
#     Edge 29, Type (0, 1), BuildingBlock: MIFKUJ_clean_linker_0, # of connection points: 2
#     Edge 30, Type (0, 1), BuildingBlock: MIFKUJ_clean_linker_0, # of connection points: 2
#     Edge 31, Type (0, 1), BuildingBlock: MIFKUJ_clean_linker_0, # of connection points: 2
#     Edge 32, Type (0, 1), BuildingBlock: MIFKUJ_clean_linker_0, # of connection points: 2
#     Edge 33, Type (0, 1), BuildingBlock: MIFKUJ_clean_linker_0, # of connection points: 2
#     Edge 34, Type (0, 1), BuildingBlock: MIFKUJ_clean_linker_0, # of connection points: 2
#     Edge 35, Type (0, 1), BuildingBlock: MIFKUJ_clean_linker_0, # of connection points: 2
#     Edge 36, Type (0, 1), BuildingBlock: MIFKUJ_clean_linker_0, # of connection points: 2
#     Edge 37, Type (0, 1), BuildingBlock: MIFKUJ_clean_linker_0, # of connection points: 2
#     Edge 38, Type (0, 1), BuildingBlock: MIFKUJ_clean_linker_0, # of connection points: 2
#     Edge 39, Type (0, 1), BuildingBlock: MIFKUJ_clean_linker_0, # of connection points: 2
#     Edge 40, Type (0, 1), BuildingBlock: MIFKUJ_clean_linker_0, # of connection points: 2
#     Edge 41, Type (0, 1), BuildingBlock: MIFKUJ_clean_linker_0, # of connection points: 2
#     Edge 42, Type (0, 1), BuildingBlock: MIFKUJ_clean_linker_0, # of connection points: 2
#     Edge 43, Type (0, 1), BuildingBlock: MIFKUJ_clean_linker_0, # of connection points: 2
# Relax obj value: 0.151
# Max RMSD: 0.263
# Mean RMSD: 0.182
data_MOF--net-sqc--node1-TAGTUT_clean_sbu_3--node2-MIFKUJ_clean_linker_1--edge1-MIFKUJ_clean_linker_0
_symmetry_space_group_name_H-M    P1
_symmetry_Int_Tables_number       1
_symmetry_cell_setting            triclinic
loop_
_symmetry_equiv_pos_as_xyz
'x, y, z'
_cell_length_a     34.962396
_cell_length_b     34.963547
_cell_length_c     104.16859
_cell_angle_alpha  90.867692
_cell_angle_beta   89.961829
_cell_angle_gamma 89.988132
loop_
_atom_site_label
_atom_site_type_symbol
_atom_site_fract_x
_atom_site_fract_y
_atom_site_fract_z
_atom_type_partial_charge
H0 H 0.95447 0.95796 0.50325 0.0
H1 H 0.8942 0.94003 0.49285 0.0
H2 H 0.93211 0.99361 0.45795 0.0
H3 H 0.99164 0.01251 0.46855 0.0
H4 H 0.04746 0.9652 0.47922 0.0
H5 H 0.99135 0.99807 0.52702 0.0
H6 H 0.9333 0.01619 0.53852 0.0
H7 H 0.90344 0.09281 0.50784 0.0
H8 H 0.9609 0.07256 0.49608 0.0
H9 H 0.10938 0.09413 0.50509 0.0
H10 H 0.16998 0.11829 0.51363 0.0
H11 H 0.2039 0.00285 0.52261 0.0
H12 H 0.14327 0.9789 0.51394 0.0
H13 H 0.05183 0.05231 0.51724 0.0
H14 H 0.14454 0.03156 0.48168 0.0
H15 H 0.20354 0.00286 0.47333 0.0
H16 H 0.16144 0.89073 0.4831 0.0
H17 H 0.10242 0.91964 0.49126 0.0
C18 C 0.97739 0.98691 0.48671 0.0
C19 C 0.94954 0.96629 0.49342 0.0
C20 C 0.91524 0.95577 0.48742 0.0
C21 C 0.90824 0.96551 0.47457 0.0
C22 C 0.93625 0.98622 0.46791 0.0
C23 C 0.97047 0.99671 0.47391 0.0
C24 C 0.01408 0.99797 0.49287 0.0
C25 C 0.04843 0.98435 0.48751 0.0
C26 C 0.01542 0.0219 0.50391 0.0
C27 C 0.98035 0.03409 0.51076 0.0
C28 C 0.97224 0.01879 0.5228 0.0
C29 C 0.93909 0.02945 0.52939 0.0
C30 C 0.91365 0.05638 0.52422 0.0
C31 C 0.922 0.07169 0.51209 0.0
C32 C 0.95497 0.06044 0.50539 0.0
C33 C 0.12193 0.03473 0.5088 0.0
C34 C 0.12986 0.07406 0.50894 0.0
C35 C 0.16449 0.08782 0.51384 0.0
C36 C 0.19187 0.06251 0.51878 0.0
C37 C 0.18374 0.02307 0.51868 0.0
C38 C 0.14903 0.00933 0.51379 0.0
C39 C 0.0853 0.0206 0.50333 0.0
C40 C 0.05094 0.03343 0.50888 0.0
C41 C 0.08402 0.99483 0.49273 0.0
C42 C 0.1192 0.97773 0.48714 0.0
C43 C 0.14809 0.00081 0.48202 0.0
C44 C 0.18188 0.98436 0.47733 0.0
C45 C 0.18733 0.94448 0.47762 0.0
C46 C 0.15805 0.92146 0.48261 0.0
C47 C 0.1243 0.93794 0.48728 0.0
H48 H 0.33117 0.77574 0.78759 0.0
H49 H 0.30623 0.83523 0.79697 0.0
H50 H 0.24506 0.85699 0.76175 0.0
H51 H 0.26801 0.7965 0.75283 0.0
H52 H 0.29905 0.71123 0.77942 0.0
H53 H 0.38576 0.80176 0.75803 0.0
H54 H 0.40561 0.85596 0.74481 0.0
H55 H 0.32346 0.82213 0.71586 0.0
H56 H 0.30443 0.76763 0.72893 0.0
H57 H 0.32604 0.65205 0.72799 0.0
H58 H 0.35428 0.59826 0.71612 0.0
H59 H 0.41803 0.56655 0.74977 0.0
H60 H 0.39097 0.62157 0.76158 0.0
H61 H 0.36147 0.71126 0.73665 0.0
H62 H 0.28184 0.61564 0.75657 0.0
H63 H 0.27044 0.55601 0.7679 0.0
H64 H 0.34157 0.5967 0.79919 0.0
H65 H 0.35184 0.65666 0.78793 0.0
C66 C 0.30206 0.7819 0.76942 0.0
C67 C 0.31215 0.79322 0.78195 0.0
C68 C 0.29817 0.8275 0.78723 0.0
C69 C 0.27384 0.85122 0.78009 0.0
C70 C 0.26341 0.83943 0.7676 0.0
C71 C 0.27704 0.80502 0.76239 0.0
C72 C 0.31753 0.74599 0.76364 0.0
C73 C 0.31308 0.71129 0.77013 0.0
C74 C 0.33533 0.74564 0.75147 0.0
C75 C 0.34363 0.78096 0.74442 0.0
C76 C 0.37168 0.80648 0.74893 0.0
C77 C 0.38304 0.83719 0.74139 0.0
C78 C 0.36594 0.84303 0.72938 0.0
C79 C 0.33675 0.81835 0.72515 0.0
C80 C 0.32598 0.78726 0.73256 0.0
C81 C 0.35623 0.64089 0.7457 0.0
C82 C 0.34597 0.63352 0.73287 0.0
C83 C 0.36208 0.60286 0.72609 0.0
C84 C 0.3884 0.57863 0.73206 0.0
C85 C 0.39763 0.58488 0.74503 0.0
C86 C 0.382 0.61611 0.75177 0.0
C87 C 0.34224 0.67628 0.75222 0.0
C88 C 0.34727 0.71101 0.74592 0.0
C89 C 0.32497 0.6764 0.76451 0.0
C90 C 0.31772 0.64047 0.77142 0.0
C91 C 0.29498 0.61161 0.76587 0.0
C92 C 0.28875 0.57743 0.77232 0.0
C93 C 0.30522 0.57144 0.78444 0.0
C94 C 0.32803 0.60052 0.78995 0.0
C95 C 0.334 0.63479 0.78354 0.0
H96 H 0.55205 0.99352 0.02757 0.0
H97 H 0.50054 0.96281 0.03938 0.0
H98 H 0.47155 0.89537 0.00575 0.0
H99 H 0.52469 0.9249 0.99397 0.0
H100 H 0.61378 0.963 0.01812 0.0
H101 H 0.50044 0.02526 0.99819 0.0
H102 H 0.44407 0.03019 0.98427 0.0
H103 H 0.50701 0.97591 0.9533 0.0
H104 H 0.56297 0.97088 0.96719 0.0
H105 H 0.66289 0.02152 0.96811 0.0
H106 H 0.7121 0.06311 0.9592 0.0
H107 H 0.73369 0.11129 0.99685 0.0
H108 H 0.68283 0.07119 0.00577 0.0
H109 H 0.59938 0.03407 0.97765 0.0
H110 H 0.70926 0.97338 0.99331 0.0
H111 H 0.76888 0.95775 0.00426 0.0
H112 H 0.71799 0.99178 0.04053 0.0
H113 H 0.65939 0.00924 0.02945 0.0
C114 C 0.54215 0.96171 0.00986 0.0
C115 C 0.53488 0.97195 0.02271 0.0
C116 C 0.50555 0.95445 0.02945 0.0
C117 C 0.48258 0.92673 0.02343 0.0
C118 C 0.48913 0.91676 0.01052 0.0
C119 C 0.51917 0.9338 0.0038 0.0
C120 C 0.57487 0.97967 0.00324 0.0
C121 C 0.61057 0.97906 0.00935 0.0
C122 C 0.57137 0.99824 0.99135 0.0
C123 C 0.53581 0.99774 0.98369 0.0
C124 C 0.50175 0.01372 0.98849 0.0
C125 C 0.46962 0.01642 0.98056 0.0
C126 C 0.47137 0.00359 0.96771 0.0
C127 C 0.50506 0.98635 0.96312 0.0
C128 C 0.53697 0.98347 0.97104 0.0
C129 C 0.66926 0.04293 0.98764 0.0
C130 C 0.67785 0.04122 0.97447 0.0
C131 C 0.70589 0.06488 0.96939 0.0
C132 C 0.72617 0.09023 0.9774 0.0
C133 C 0.71818 0.09181 0.99057 0.0
C134 C 0.68948 0.06868 0.99564 0.0
C135 C 0.63809 0.01895 0.99285 0.0
C136 C 0.60281 0.01818 0.98645 0.0
C137 C 0.64238 0.99782 0.00422 0.0
C138 C 0.67988 0.99256 0.01056 0.0
C139 C 0.71135 0.97849 0.00357 0.0
C140 C 0.74527 0.96914 0.00986 0.0
C141 C 0.74814 0.97325 0.02328 0.0
C142 C 0.71703 0.98873 0.03017 0.0
C143 C 0.6833 0.99836 0.02387 0.0
H144 H 0.27241 0.20335 0.26575 0.0
H145 H 0.29314 0.14775 0.27786 0.0
H146 H 0.40818 0.16237 0.26343 0.0
H147 H 0.38732 0.21869 0.2517 0.0
H148 H 0.35394 0.28368 0.26464 0.0
H149 H 0.21498 0.23085 0.24282 0.0
H150 H 0.18832 0.16883 0.23614 0.0
H151 H 0.29998 0.13357 0.22256 0.0
H152 H 0.32636 0.19507 0.22953 0.0
H153 H 0.29869 0.34401 0.21729 0.0
H154 H 0.28199 0.4059 0.20834 0.0
H155 H 0.25024 0.44725 0.24621 0.0
H156 H 0.26492 0.38453 0.25494 0.0
H157 H 0.25801 0.28991 0.22962 0.0
H158 H 0.37095 0.37164 0.24094 0.0
H159 H 0.40191 0.42739 0.25121 0.0
H160 H 0.3446 0.40197 0.28681 0.0
H161 H 0.31418 0.34637 0.27659 0.0
C162 C 0.32844 0.21502 0.25792 0.0
C163 C 0.30193 0.1941 0.26506 0.0
C164 C 0.31381 0.16225 0.27191 0.0
C165 C 0.35241 0.15085 0.27169 0.0
C166 C 0.37843 0.17088 0.26399 0.0
C167 C 0.36658 0.20289 0.25724 0.0
C168 C 0.31709 0.25134 0.25202 0.0
C169 C 0.33315 0.2851 0.25693 0.0
C170 C 0.28968 0.25292 0.24211 0.0
C171 C 0.27262 0.2174 0.23672 0.0
C172 C 0.2335 0.20984 0.23826 0.0
C173 C 0.21836 0.17437 0.23446 0.0
C174 C 0.24211 0.14597 0.22899 0.0
C175 C 0.28105 0.15434 0.22705 0.0
C176 C 0.29612 0.18964 0.2309 0.0
C177 C 0.28348 0.35979 0.23679 0.0
C178 C 0.28778 0.36631 0.22363 0.0
C179 C 0.27872 0.40192 0.21857 0.0
C180 C 0.26528 0.43179 0.22658 0.0
C181 C 0.26037 0.4249 0.23975 0.0
C182 C 0.26909 0.38915 0.24478 0.0
C183 C 0.29521 0.32265 0.24219 0.0
C184 C 0.27901 0.28862 0.23725 0.0
C185 C 0.32252 0.3207 0.25217 0.0
C186 C 0.34024 0.35513 0.25803 0.0
C187 C 0.36502 0.37829 0.25094 0.0
C188 C 0.38275 0.40989 0.2568 0.0
C189 C 0.37549 0.41892 0.26977 0.0
C190 C 0.35037 0.39583 0.27677 0.0
C191 C 0.33314 0.36404 0.27098 0.0
H192 H 0.81482 0.30537 0.24189 0.0
H193 H 0.83009 0.35716 0.22723 0.0
H194 H 0.9504 0.34223 0.23529 0.0
H195 H 0.93488 0.2902 0.24982 0.0
H196 H 0.8977 0.22452 0.24097 0.0
H197 H 0.76491 0.27423 0.26688 0.0
H198 H 0.73419 0.33469 0.27285 0.0
H199 H 0.84526 0.38487 0.28015 0.0
H200 H 0.87571 0.32453 0.27381 0.0
H201 H 0.86627 0.16695 0.29032 0.0
H202 H 0.85196 0.10562 0.30028 0.0
H203 H 0.79015 0.07004 0.2662 0.0
H204 H 0.80531 0.13104 0.25626 0.0
H205 H 0.8143 0.22428 0.27953 0.0
H206 H 0.9195 0.13531 0.26447 0.0
H207 H 0.94192 0.07728 0.25311 0.0
H208 H 0.87397 0.10763 0.22016 0.0
H209 H 0.8517 0.16501 0.2315 0.0
C210 C 0.87373 0.29414 0.24697 0.0
C211 C 0.84438 0.31391 0.24073 0.0
C212 C 0.85318 0.34347 0.23235 0.0
C213 C 0.89149 0.35353 0.23002 0.0
C214 C 0.92067 0.33469 0.23672 0.0
C215 C 0.91186 0.30518 0.24508 0.0
C216 C 0.86519 0.25921 0.25427 0.0
C217 C 0.87994 0.2246 0.24952 0.0
C218 C 0.84088 0.25923 0.26512 0.0
C219 C 0.82256 0.29493 0.26988 0.0
C220 C 0.78257 0.29818 0.2699 0.0
C221 C 0.76507 0.33281 0.27332 0.0
C222 C 0.78722 0.36483 0.27691 0.0
C223 C 0.82732 0.36111 0.27717 0.0
C224 C 0.84479 0.32654 0.27367 0.0
C225 C 0.83698 0.1534 0.27255 0.0
C226 C 0.8495 0.14593 0.28505 0.0
C227 C 0.84127 0.11087 0.29072 0.0
C228 C 0.82008 0.08274 0.28402 0.0
C229 C 0.8072 0.09066 0.27154 0.0
C230 C 0.81555 0.12564 0.26588 0.0
C231 C 0.8475 0.18966 0.26631 0.0
C232 C 0.83284 0.22442 0.27118 0.0
C233 C 0.8708 0.18985 0.25523 0.0
C234 C 0.88392 0.15425 0.2488 0.0
C235 C 0.90935 0.12919 0.25483 0.0
C236 C 0.92224 0.0963 0.24833 0.0
C237 C 0.90951 0.08797 0.23579 0.0
C238 C 0.88385 0.11307 0.22987 0.0
C239 C 0.87131 0.14595 0.2363 0.0
H240 H 0.74983 0.84975 0.7374 0.0
H241 H 0.7341 0.91192 0.72812 0.0
H242 H 0.85293 0.92839 0.71833 0.0
H243 H 0.86862 0.86648 0.72778 0.0
H244 H 0.78694 0.78302 0.7269 0.0
H245 H 0.80281 0.88036 0.75863 0.0
H246 H 0.82572 0.9381 0.7694 0.0
H247 H 0.9408 0.89247 0.76881 0.0
H248 H 0.91809 0.83644 0.75694 0.0
H249 H 0.91291 0.72701 0.75761 0.0
H250 H 0.93248 0.67619 0.77169 0.0
H251 H 0.81482 0.63845 0.77442 0.0
H252 H 0.79509 0.69213 0.76132 0.0
H253 H 0.87279 0.78405 0.76476 0.0
H254 H 0.85417 0.68382 0.73286 0.0
H255 H 0.8269 0.62411 0.72454 0.0
H256 H 0.71361 0.67319 0.72742 0.0
H257 H 0.7409 0.73186 0.73641 0.0
C258 C 0.81034 0.85368 0.73327 0.0
C259 C 0.77238 0.86664 0.73315 0.0
C260 C 0.76353 0.9022 0.728 0.0
C261 C 0.79243 0.92491 0.72265 0.0
C262 C 0.83023 0.91136 0.72242 0.0
C263 C 0.83916 0.87609 0.72777 0.0
C264 C 0.82027 0.81795 0.73988 0.0
C265 C 0.80565 0.78306 0.73521 0.0
C266 C 0.8447 0.81828 0.75067 0.0
C267 C 0.8588 0.85427 0.75674 0.0
C268 C 0.83316 0.88332 0.76044 0.0
C269 C 0.84627 0.91609 0.76685 0.0
C270 C 0.88516 0.92002 0.7701 0.0
C271 C 0.9108 0.89092 0.76631 0.0
C272 C 0.89777 0.85856 0.75964 0.0
C273 C 0.85253 0.71352 0.75838 0.0
C274 C 0.89131 0.70769 0.7612 0.0
C275 C 0.90253 0.6781 0.76916 0.0
C276 C 0.87531 0.65293 0.7743 0.0
C277 C 0.8366 0.65763 0.7709 0.0
C278 C 0.82526 0.68798 0.76318 0.0
C279 C 0.84089 0.74854 0.75152 0.0
C280 C 0.85478 0.78362 0.75627 0.0
C281 C 0.81568 0.74819 0.74088 0.0
C282 C 0.79956 0.7122 0.73542 0.0
C283 C 0.82342 0.68151 0.73185 0.0
C284 C 0.80778 0.64749 0.72697 0.0
C285 C 0.76798 0.64368 0.72537 0.0
C286 C 0.74428 0.67473 0.72878 0.0
C287 C 0.75989 0.70855 0.73377 0.0
H288 H 0.47495 0.41599 0.98904 0.0
H289 H 0.41585 0.40229 0.97729 0.0
H290 H 0.38841 0.52287 0.97769 0.0
H291 H 0.44727 0.53624 0.98955 0.0
H292 H 0.53666 0.45802 0.98306 0.0
H293 H 0.44635 0.45565 0.01662 0.0
H294 H 0.38691 0.46905 0.02821 0.0
H295 H 0.41412 0.58967 0.02857 0.0
H296 H 0.47374 0.57595 0.01714 0.0
H297 H 0.58875 0.58302 0.01329 0.0
H298 H 0.64732 0.60915 0.02265 0.0
H299 H 0.69074 0.49455 0.02753 0.0
H300 H 0.63184 0.4685 0.0181 0.0
H301 H 0.535 0.53516 0.02342 0.0
H302 H 0.63085 0.52968 0.98918 0.0
H303 H 0.69131 0.50774 0.9799 0.0
H304 H 0.65196 0.39072 0.98195 0.0
H305 H 0.59269 0.41277 0.99194 0.0
C306 C 0.46539 0.47706 0.99024 0.0
C307 C 0.45619 0.43943 0.98658 0.0
C308 C 0.42244 0.4317 0.97985 0.0
C309 C 0.39739 0.46153 0.97655 0.0
C310 C 0.40672 0.4992 0.98025 0.0
C311 C 0.44043 0.50688 0.98699 0.0
C312 C 0.50118 0.48551 0.99737 0.0
C313 C 0.53635 0.47441 0.99198 0.0
C314 C 0.5007 0.5065 0.00907 0.0
C315 C 0.46443 0.51483 0.01598 0.0
C316 C 0.43935 0.48501 0.01913 0.0
C317 C 0.4053 0.49272 0.02571 0.0
C318 C 0.39575 0.53042 0.02934 0.0
C319 C 0.42088 0.56024 0.0261 0.0
C320 C 0.45495 0.55249 0.01954 0.0
C321 C 0.60603 0.52386 0.01493 0.0
C322 C 0.61078 0.5635 0.01645 0.0
C323 C 0.64425 0.57839 0.02182 0.0
C324 C 0.67367 0.55391 0.02583 0.0
C325 C 0.66879 0.51414 0.02438 0.0
C326 C 0.63514 0.49922 0.01904 0.0
C327 C 0.5706 0.50881 0.0089 0.0
C328 C 0.53537 0.51859 0.01453 0.0
C329 C 0.57118 0.4856 0.99763 0.0
C330 C 0.60744 0.47284 0.99146 0.0
C331 C 0.6355 0.49927 0.98779 0.0
C332 C 0.66994 0.48666 0.98235 0.0
C333 C 0.67677 0.44737 0.98023 0.0
C334 C 0.64819 0.4211 0.98369 0.0
C335 C 0.614 0.4337 0.98926 0.0
H336 H 0.05229 0.45047 0.46615 0.0
H337 H 0.99707 0.46666 0.45297 0.0
H338 H 0.96179 0.55035 0.48161 0.0
H339 H 0.01641 0.53279 0.49495 0.0
H340 H 0.10766 0.5077 0.47326 0.0
H341 H 0.01718 0.42099 0.49261 0.0
H342 H 0.96247 0.39797 0.50511 0.0
H343 H 0.00042 0.46507 0.53777 0.0
H344 H 0.05385 0.48952 0.52519 0.0
H345 H 0.16302 0.49476 0.5259 0.0
H346 H 0.21666 0.47046 0.53842 0.0
H347 H 0.26007 0.41153 0.50473 0.0
H348 H 0.20588 0.43512 0.49225 0.0
H349 H 0.11063 0.45101 0.51654 0.0
H350 H 0.19187 0.54546 0.49879 0.0
H351 H 0.24625 0.5752 0.48798 0.0
H352 H 0.22608 0.5034 0.45454 0.0
H353 H 0.17209 0.47347 0.46545 0.0
C354 C 0.03826 0.49052 0.48146 0.0
C355 C 0.03221 0.47182 0.46965 0.0
C356 C 0.00083 0.48131 0.46211 0.0
C357 C 0.97535 0.5102 0.46615 0.0
C358 C 0.98066 0.52774 0.47827 0.0
C359 C 0.01189 0.51789 0.48589 0.0
C360 C 0.07407 0.48391 0.48852 0.0
C361 C 0.10843 0.49489 0.48268 0.0
C362 C 0.07465 0.46891 0.50101 0.0
C363 C 0.03954 0.45726 0.50792 0.0
C364 C 0.01316 0.43164 0.50233 0.0
C365 C 0.98216 0.41824 0.50948 0.0
C366 C 0.97778 0.42961 0.52236 0.0
C367 C 0.00362 0.45571 0.52786 0.0
C368 C 0.03405 0.46964 0.52068 0.0
C369 C 0.18039 0.46666 0.50816 0.0
C370 C 0.1844 0.47711 0.52115 0.0
C371 C 0.2149 0.46319 0.52829 0.0
C372 C 0.24204 0.43886 0.52253 0.0
C373 C 0.2395 0.43041 0.50934 0.0
C374 C 0.20869 0.44402 0.50221 0.0
C375 C 0.14431 0.47514 0.50137 0.0
C376 C 0.1099 0.46422 0.50718 0.0
C377 C 0.1435 0.49135 0.48906 0.0
C378 C 0.17815 0.5071 0.48294 0.0
C379 C 0.19957 0.53573 0.48921 0.0
C380 C 0.23036 0.55292 0.48299 0.0
C381 C 0.2403 0.54163 0.47042 0.0
C382 C 0.21929 0.51239 0.46428 0.0
C383 C 0.18837 0.49542 0.47046 0.0
C384 C 0.11873 0.6895 0.14032 0.0
C385 C 0.98332 0.63321 0.13633 0.0
C386 C 0.97652 0.69853 0.10139 0.0
Mg387 Mg 0.15529 0.76786 0.13052 0.0
Mg388 Mg 0.10578 0.84403 0.12245 0.0
O389 O 0.11149 0.79117 0.12105 0.0
Mg390 Mg 0.07063 0.75362 0.12527 0.0
O391 O 0.03363 0.71247 0.1295 0.0
Mg392 Mg 0.05443 0.67012 0.11831 0.0
Mg393 Mg 0.98075 0.71974 0.1301 0.0
C394 C 0.02862 0.82179 0.10812 0.0
O395 O 0.0431 0.78963 0.14146 0.0
O396 O 0.19442 0.81056 0.11997 0.0
O397 O 0.98108 0.77151 0.14212 0.0
O398 O 0.14932 0.81089 0.14784 0.0
O399 O 0.15822 0.85923 0.11309 0.0
O400 O 0.10927 0.85777 0.14239 0.0
O401 O 0.09517 0.71462 0.10941 0.0
O402 O 0.15706 0.72694 0.11327 0.0
C403 C 0.13077 0.70954 0.10688 0.0
C404 C 0.19029 0.84164 0.11371 0.0
O405 O 0.03084 0.78632 0.11126 0.0
O406 O 0.01328 0.6297 0.12924 0.0
O407 O 0.05243 0.84726 0.11212 0.0
O408 O 0.00768 0.6797 0.10277 0.0
O409 O 0.9667 0.66547 0.13826 0.0
O410 O 0.9621 0.71845 0.11056 0.0
O411 O 0.11213 0.72534 0.13911 0.0
O412 O 0.09997 0.66426 0.13385 0.0
C413 C 0.13067 0.84155 0.15059 0.0
C414 C 0.00895 0.7928 0.14595 0.0
C415 C 0.63535 0.80516 0.38979 0.0
C416 C 0.69205 0.66874 0.38309 0.0
C417 C 0.63426 0.67094 0.34676 0.0
Mg418 Mg 0.5575 0.84215 0.37845 0.0
Mg419 Mg 0.48437 0.78931 0.36866 0.0
O420 O 0.53688 0.79893 0.36765 0.0
Mg421 Mg 0.57471 0.75879 0.37207 0.0
O422 O 0.61546 0.72171 0.37656 0.0
Mg423 Mg 0.65929 0.74462 0.36688 0.0
Mg424 Mg 0.60733 0.6691 0.37455 0.0
C425 C 0.51133 0.7159 0.35282 0.0
O426 O 0.53553 0.72781 0.3865 0.0
O427 O 0.51386 0.88032 0.36772 0.0
O428 O 0.55371 0.66592 0.38507 0.0
O429 O 0.51287 0.83326 0.39469 0.0
O430 O 0.46627 0.84224 0.36057 0.0
O431 O 0.46884 0.79061 0.38849 0.0
O432 O 0.61606 0.78647 0.35785 0.0
O433 O 0.60108 0.84754 0.36225 0.0
C434 C 0.62068 0.82241 0.35602 0.0
C435 C 0.48237 0.87507 0.36156 0.0
O436 O 0.54629 0.72042 0.35642 0.0
O437 O 0.69704 0.70127 0.37775 0.0
O438 O 0.48386 0.73688 0.35715 0.0
O439 O 0.65361 0.70086 0.34982 0.0
O440 O 0.65993 0.65114 0.38308 0.0
O441 O 0.61095 0.65573 0.35459 0.0
O442 O 0.5998 0.79905 0.38746 0.0
O443 O 0.66185 0.78712 0.38373 0.0
C444 C 0.48312 0.81308 0.39697 0.0
C445 C 0.53152 0.69241 0.38943 0.0
C446 C 0.62319 0.18499 0.64355 0.0
C447 C 0.49092 0.11918 0.63864 0.0
C448 C 0.48664 0.17967 0.60251 0.0
Mg449 Mg 0.65616 0.26268 0.63215 0.0
Mg450 Mg 0.60286 0.33255 0.62061 0.0
O451 O 0.61251 0.28023 0.6212 0.0
Mg452 Mg 0.57356 0.24181 0.62621 0.0
O453 O 0.53876 0.19974 0.63137 0.0
Mg454 Mg 0.56294 0.15686 0.62122 0.0
Mg455 Mg 0.48562 0.20418 0.63087 0.0
C456 C 0.52952 0.30026 0.60621 0.0
O457 O 0.54143 0.28129 0.64051 0.0
O458 O 0.69408 0.30461 0.62059 0.0
O459 O 0.48138 0.25756 0.64171 0.0
O460 O 0.64428 0.31 0.64783 0.0
O461 O 0.65561 0.34836 0.61169 0.0
O462 O 0.60244 0.35211 0.64011 0.0
O463 O 0.60277 0.20107 0.61187 0.0
O464 O 0.66348 0.21646 0.61664 0.0
C465 C 0.63893 0.19636 0.61036 0.0
C466 C 0.68865 0.33331 0.61324 0.0
O467 O 0.5336 0.2667 0.61089 0.0
O468 O 0.52248 0.11631 0.63236 0.0
O469 O 0.55118 0.32869 0.60919 0.0
O470 O 0.51778 0.16147 0.6047 0.0
O471 O 0.47215 0.15058 0.63952 0.0
O472 O 0.47075 0.20067 0.61109 0.0
O473 O 0.61456 0.22 0.64144 0.0
O474 O 0.60703 0.15713 0.63749 0.0
C475 C 0.62312 0.33977 0.64924 0.0
C476 C 0.50681 0.28269 0.64467 0.0
C477 C 0.13305 0.28871 0.89625 0.0
C478 C 0.17725 0.14866 0.88714 0.0
C479 C 0.12494 0.16375 0.85041 0.0
Mg480 Mg 0.0623 0.3374 0.8847 0.0
Mg481 Mg 0.98625 0.29573 0.87191 0.0
O482 O 0.03951 0.29937 0.87217 0.0
Mg483 Mg 0.07128 0.2539 0.87628 0.0
O484 O 0.10663 0.21125 0.88066 0.0
Mg485 Mg 0.15418 0.23061 0.87224 0.0
Mg486 Mg 0.09402 0.15988 0.87788 0.0
C487 C 0.00715 0.2218 0.85534 0.0
O488 O 0.02608 0.22496 0.88883 0.0
O489 O 0.02596 0.38295 0.87409 0.0
O490 O 0.03914 0.16158 0.88766 0.0
O491 O 0.01289 0.33028 0.89985 0.0
O492 O 0.97549 0.35239 0.86521 0.0
O493 O 0.96719 0.29359 0.89123 0.0
O494 O 0.11788 0.27941 0.86377 0.0
O495 O 0.11058 0.34076 0.8699 0.0
C496 C 0.12814 0.31464 0.8634 0.0
C497 C 0.99514 0.38275 0.86735 0.0
O498 O 0.04186 0.22198 0.85945 0.0
O499 O 0.18593 0.18088 0.88213 0.0
O500 O 0.98165 0.24539 0.85951 0.0
O501 O 0.14635 0.19138 0.85423 0.0
O502 O 0.14311 0.13536 0.88702 0.0
O503 O 0.09956 0.14927 0.85769 0.0
O504 O 0.09758 0.2878 0.89305 0.0
O505 O 0.15817 0.26873 0.89016 0.0
C506 C 0.981 0.31235 0.90073 0.0
C507 C 0.01845 0.18997 0.89144 0.0
H508 H 0.26086 0.97035 0.4806 0.0
H509 H 0.31909 0.94379 0.47095 0.0
H510 H 0.25333 0.85221 0.45371 0.0
H511 H 0.19495 0.87877 0.46318 0.0
H512 H 0.324 0.82725 0.46293 0.0
H513 H 0.27322 0.92861 0.43657 0.0
H514 H 0.25088 0.99429 0.43258 0.0
H515 H 0.36035 0.03874 0.44404 0.0
H516 H 0.38315 0.97329 0.44827 0.0
H517 H 0.41847 0.77647 0.40505 0.0
H518 H 0.37752 0.79451 0.42306 0.0
H519 H 0.45797 0.88216 0.43445 0.0
H520 H 0.49932 0.86429 0.4164 0.0
H521 H 0.38749 0.91061 0.43122 0.0
H522 H 0.44259 0.80679 0.45281 0.0
H523 H 0.46501 0.74074 0.45578 0.0
H524 H 0.34951 0.69996 0.45356 0.0
H525 H 0.32634 0.76545 0.45003 0.0
C526 C 0.25878 0.94455 0.47476 0.0
C527 C 0.22315 0.92694 0.47254 0.0
C528 C 0.29212 0.92925 0.46934 0.0
C529 C 0.29047 0.89617 0.46155 0.0
C530 C 0.25527 0.87762 0.45976 0.0
C531 C 0.2219 0.8929 0.46517 0.0
C532 C 0.32462 0.88283 0.45431 0.0
C533 C 0.33791 0.84528 0.45595 0.0
C534 C 0.34333 0.90684 0.44548 0.0
C535 C 0.32972 0.94615 0.44288 0.0
C536 C 0.29241 0.95243 0.43833 0.0
C537 C 0.27969 0.98959 0.43602 0.0
C538 C 0.30414 0.02068 0.4381 0.0
C539 C 0.34141 0.01464 0.44246 0.0
C540 C 0.35426 0.97752 0.44482 0.0
C541 C 0.42799 0.79902 0.41153 0.0
C542 C 0.46207 0.81916 0.40919 0.0
C543 C 0.40455 0.8092 0.42188 0.0
C544 C 0.41467 0.83973 0.43009 0.0
C545 C 0.44963 0.85855 0.4282 0.0
C546 C 0.47326 0.84822 0.41789 0.0
C547 C 0.38669 0.85466 0.43962 0.0
C548 C 0.37433 0.8926 0.43838 0.0
C549 C 0.36901 0.83088 0.44877 0.0
C550 C 0.38271 0.79123 0.45102 0.0
C551 C 0.42193 0.78372 0.45278 0.0
C552 C 0.43479 0.74631 0.45455 0.0
C553 C 0.40869 0.71612 0.4548 0.0
C554 C 0.36969 0.72331 0.45329 0.0
C555 C 0.35666 0.76061 0.45138 0.0
H556 H 0.41867 0.6872 0.45623 0.0
H557 H 0.29424 0.04943 0.4363 0.0
H558 H 0.32487 0.89866 0.71766 0.0
H559 H 0.34788 0.94396 0.70171 0.0
H560 H 0.46194 0.89784 0.70518 0.0
H561 H 0.4392 0.85376 0.72156 0.0
H562 H 0.4672 0.97049 0.70253 0.0
H563 H 0.40016 0.87184 0.67998 0.0
H564 H 0.34655 0.82845 0.67485 0.0
H565 H 0.2751 0.92473 0.66638 0.0
H566 H 0.32814 0.96876 0.67166 0.0
H567 H 0.53022 0.05396 0.64445 0.0
H568 H 0.50994 0.00336 0.65892 0.0
H569 H 0.40083 0.05907 0.66404 0.0
H570 H 0.42066 0.10973 0.6496 0.0
H571 H 0.39661 0.97791 0.66129 0.0
H572 H 0.46548 0.07515 0.68696 0.0
H573 H 0.5221 0.11601 0.69072 0.0
H574 H 0.59412 0.01658 0.69084 0.0
H575 H 0.53784 0.97512 0.68735 0.0
C576 C 0.35491 0.89864 0.7151 0.0
C577 C 0.38032 0.87285 0.72076 0.0
C578 C 0.368 0.92424 0.70594 0.0
C579 C 0.40647 0.92363 0.702 0.0
C580 C 0.43213 0.89874 0.70802 0.0
C581 C 0.41918 0.87365 0.71737 0.0
C582 C 0.4197 0.94839 0.69145 0.0
C583 C 0.45199 0.97161 0.69346 0.0
C584 C 0.4 0.94999 0.67957 0.0
C585 C 0.36805 0.92361 0.67633 0.0
C586 C 0.37294 0.88378 0.67711 0.0
C587 C 0.34266 0.85907 0.67417 0.0
C588 C 0.30742 0.87383 0.67032 0.0
C589 C 0.30241 0.91334 0.66938 0.0
C590 C 0.33258 0.93819 0.67233 0.0
C591 C 0.50167 0.05515 0.64848 0.0
C592 C 0.47717 0.08607 0.64598 0.0
C593 C 0.49023 0.02631 0.65678 0.0
C594 C 0.45412 0.02788 0.66263 0.0
C595 C 0.42886 0.05752 0.65962 0.0
C596 C 0.44032 0.08648 0.65141 0.0
C597 C 0.44341 8e-05 0.67253 0.0
C598 C 0.41173 0.97637 0.67036 0.0
C599 C 0.46404 0.99743 0.68414 0.0
C600 C 0.49755 0.02212 0.68688 0.0
C601 C 0.4934 0.06204 0.68788 0.0
C602 C 0.5254 0.08527 0.69 0.0
C603 C 0.56169 0.06887 0.69111 0.0
C604 C 0.56599 0.0292 0.69015 0.0
C605 C 0.53404 0.00581 0.68816 0.0
H606 H 0.58646 0.08689 0.69268 0.0
H607 H 0.28401 0.85465 0.66804 0.0
H608 H 0.47669 0.0347 0.94409 0.0
H609 H 0.42458 0.05239 0.92976 0.0
H610 H 0.34237 0.00861 0.95668 0.0
H611 H 0.3947 0.99083 0.97122 0.0
H612 H 0.33067 0.99063 0.92793 0.0
H613 H 0.34948 0.09392 0.95886 0.0
H614 H 0.38874 0.14028 0.9711 0.0
H615 H 0.4278 0.1896 0.93594 0.0
H616 H 0.38923 0.14307 0.92348 0.0
H617 H 0.16802 0.08964 0.90378 0.0
H618 H 0.21731 0.05886 0.91658 0.0
H619 H 0.30374 0.12772 0.89844 0.0
H620 H 0.2545 0.15944 0.88587 0.0
H621 H 0.31216 0.13051 0.92329 0.0
H622 H 0.29337 0.03107 0.89203 0.0
H623 H 0.25587 0.98523 0.87897 0.0
H624 H 0.21963 0.92829 0.91313 0.0
H625 H 0.25629 0.9743 0.92643 0.0
C626 C 0.44757 0.02817 0.94687 0.0
C627 C 0.43964 0.01138 0.95875 0.0
C628 C 0.41791 0.03835 0.93869 0.0
C629 C 0.37984 0.03172 0.9422 0.0
C630 C 0.37171 0.0137 0.95383 0.0
C631 C 0.40147 0.00389 0.96213 0.0
C632 C 0.34879 0.04674 0.93415 0.0
C633 C 0.32605 0.02115 0.92702 0.0
C634 C 0.34383 0.08655 0.93276 0.0
C635 C 0.36678 0.11476 0.94024 0.0
C636 C 0.36672 0.11441 0.95374 0.0
C637 C 0.38879 0.14077 0.96072 0.0
C638 C 0.41083 0.16781 0.95431 0.0
C639 C 0.41076 0.16861 0.9409 0.0
C640 C 0.38878 0.14227 0.93387 0.0
C641 C 0.19757 0.09793 0.9024 0.0
C642 C 0.20734 0.12721 0.89389 0.0
C643 C 0.22573 0.08018 0.90969 0.0
C644 C 0.26422 0.09088 0.90843 0.0
C645 C 0.27417 0.11916 0.89961 0.0
C646 C 0.246 0.13722 0.89242 0.0
C647 C 0.29383 0.0745 0.91688 0.0
C648 C 0.31645 0.09991 0.92415 0.0
C649 C 0.29885 0.03455 0.91823 0.0
C650 C 0.27731 0.00639 0.91025 0.0
C651 C 0.27718 0.00895 0.89677 0.0
C652 C 0.25609 0.98292 0.88932 0.0
C653 C 0.23532 0.95392 0.89522 0.0
C654 C 0.2357 0.95081 0.90858 0.0
C655 C 0.25664 0.97686 0.91608 0.0
H656 H 0.21899 0.9338 0.88943 0.0
H657 H 0.42789 0.1882 0.95973 0.0
H658 H 0.27606 0.07607 0.23192 0.0
H659 H 0.25422 0.01422 0.22351 0.0
H660 H 0.15107 0.06682 0.20956 0.0
H661 H 0.17309 0.12911 0.21765 0.0
H662 H 0.14157 0.98976 0.22034 0.0
H663 H 0.21946 0.06007 0.18964 0.0
H664 H 0.27797 0.09428 0.18323 0.0
H665 H 0.34536 0.99474 0.19123 0.0
H666 H 0.28723 0.96015 0.19788 0.0
H667 H 0.08995 0.90142 0.16072 0.0
H668 H 0.10591 0.94055 0.1795 0.0
H669 H 0.20246 0.86774 0.18721 0.0
H670 H 0.18596 0.82736 0.16859 0.0
H671 H 0.21986 0.94556 0.18324 0.0
H672 H 0.13717 0.86916 0.20643 0.0
H673 H 0.07946 0.83408 0.21267 0.0
H674 H 0.02193 0.93973 0.22108 0.0
H675 H 0.07808 0.97593 0.21397 0.0
C676 C 0.24866 0.07454 0.2271 0.0
C677 C 0.22667 0.10773 0.22524 0.0
C678 C 0.23604 0.03908 0.22244 0.0
C679 C 0.20114 0.03605 0.21588 0.0
C680 C 0.17798 0.06857 0.21469 0.0
C681 C 0.19067 0.10417 0.21929 0.0
C682 C 0.19125 0.00038 0.2088 0.0
C683 C 0.15816 0.98001 0.21212 0.0
C684 C 0.21428 0.98707 0.19852 0.0
C685 C 0.24912 0.00772 0.1944 0.0
C686 C 0.2468 0.04561 0.19013 0.0
C687 C 0.27987 0.06504 0.18644 0.0
C688 C 0.31538 0.04674 0.18686 0.0
C689 C 0.31785 0.00891 0.19094 0.0
C690 C 0.28486 0.98938 0.19466 0.0
C691 C 0.11401 0.893 0.16659 0.0
C692 C 0.13675 0.86125 0.16312 0.0
C693 C 0.12294 0.91537 0.17737 0.0
C694 C 0.15526 0.90696 0.18474 0.0
C695 C 0.17722 0.87447 0.18165 0.0
C696 C 0.16775 0.85147 0.17102 0.0
C697 C 0.16899 0.93531 0.19436 0.0
C698 C 0.20306 0.95456 0.19152 0.0
C699 C 0.14667 0.9472 0.20508 0.0
C700 C 0.11198 0.92556 0.20919 0.0
C701 C 0.11191 0.88522 0.20915 0.0
C702 C 0.07931 0.86504 0.21287 0.0
C703 C 0.04678 0.88472 0.21705 0.0
C704 C 0.04686 0.92461 0.21756 0.0
C705 C 0.07907 0.94499 0.21361 0.0
H706 H 0.02167 0.86908 0.22003 0.0
H707 H 0.34095 0.06182 0.184 0.0
H708 H 0.20233 0.12598 0.53406 0.0
H709 H 0.26154 0.14869 0.54392 0.0
H710 H 0.32321 0.05517 0.52605 0.0
H711 H 0.26392 0.03235 0.51606 0.0
H712 H 0.33906 0.06008 0.55079 0.0
H713 H 0.33518 0.14809 0.51651 0.0
H714 H 0.30922 0.19705 0.50215 0.0
H715 H 0.29662 0.27509 0.5341 0.0
H716 H 0.32163 0.22634 0.54872 0.0
H717 H 0.50521 0.13077 0.58249 0.0
H718 H 0.46468 0.11325 0.56414 0.0
H719 H 0.38016 0.19548 0.57677 0.0
H720 H 0.42033 0.2135 0.59487 0.0
H721 H 0.38575 0.19403 0.55102 0.0
H722 H 0.37424 0.10197 0.58531 0.0
H723 H 0.39945 0.05425 0.60032 0.0
H724 H 0.43996 0.98568 0.56858 0.0
H725 H 0.4154 0.03332 0.55338 0.0
C726 C 0.22859 0.11062 0.53201 0.0
C727 C 0.22835 0.0773 0.52427 0.0
C728 C 0.26249 0.12371 0.53764 0.0
C729 C 0.29698 0.10394 0.5356 0.0
C730 C 0.29697 0.07096 0.52773 0.0
C731 C 0.26302 0.05781 0.5221 0.0
C732 C 0.33214 0.1159 0.54258 0.0
C733 C 0.3498 0.08918 0.55058 0.0
C734 C 0.34582 0.15406 0.54251 0.0
C735 C 0.32997 0.18329 0.53376 0.0
C736 C 0.32642 0.17549 0.52052 0.0
C737 C 0.31193 0.20327 0.51232 0.0
C738 C 0.30116 0.23911 0.51721 0.0
C739 C 0.30487 0.24727 0.53032 0.0
C740 C 0.31919 0.21956 0.53857 0.0
C741 C 0.47836 0.14567 0.58121 0.0
C742 C 0.46589 0.17326 0.59026 0.0
C743 C 0.45515 0.13548 0.57075 0.0
C744 C 0.41913 0.15265 0.56922 0.0
C745 C 0.40778 0.18177 0.57778 0.0
C746 C 0.43088 0.19203 0.58816 0.0
C747 C 0.39159 0.13853 0.55942 0.0
C748 C 0.37541 0.16478 0.55094 0.0
C749 C 0.37892 0.10011 0.55912 0.0
C750 C 0.39344 0.07139 0.56823 0.0
C751 C 0.38877 0.07684 0.58155 0.0
C752 C 0.4029 0.04981 0.59008 0.0
C753 C 0.42141 0.01701 0.58541 0.0
C754 C 0.42571 0.01114 0.57218 0.0
C755 C 0.41169 0.03814 0.56361 0.0
H756 H 0.43233 0.99611 0.59203 0.0
H757 H 0.29003 0.2606 0.51084 0.0
H758 H 0.2028 0.88347 0.77707 0.0
H759 H 0.1794 0.94409 0.78598 0.0
H760 H 0.28764 0.96262 0.80486 0.0
H761 H 0.31192 0.90267 0.79563 0.0
H762 H 0.2246 0.973 0.82102 0.0
H763 H 0.26795 0.01387 0.77969 0.0
H764 H 0.27222 0.0116 0.75606 0.0
H765 H 0.15142 0.03204 0.75329 0.0
H766 H 0.14632 0.03386 0.77692 0.0
H767 H 0.18542 0.17656 0.83419 0.0
H768 H 0.21112 0.13087 0.81839 0.0
H769 H 0.11274 0.05881 0.82334 0.0
H770 H 0.08666 0.10378 0.83925 0.0
H771 H 0.17656 0.08013 0.7947 0.0
H772 H 0.15743 0.98076 0.83646 0.0
H773 H 0.15096 0.98379 0.86007 0.0
H774 H 0.22549 0.08135 0.86165 0.0
H775 H 0.23271 0.07856 0.83807 0.0
C776 C 0.22195 0.90065 0.78293 0.0
C777 C 0.25935 0.88806 0.7856 0.0
C778 C 0.20843 0.93527 0.78805 0.0
C779 C 0.2319 0.95793 0.79599 0.0
C780 C 0.26909 0.94548 0.79875 0.0
C781 C 0.2828 0.91104 0.79354 0.0
C782 C 0.21706 0.99389 0.80182 0.0
C783 C 0.2145 0.99649 0.81524 0.0
C784 C 0.20371 0.02455 0.79429 0.0
C785 C 0.20672 0.02369 0.78008 0.0
C786 C 0.24224 0.01758 0.77404 0.0
C787 C 0.24482 0.01643 0.76065 0.0
C788 C 0.2121 0.02159 0.75318 0.0
C789 C 0.17674 0.02801 0.75909 0.0
C790 C 0.174 0.02915 0.77248 0.0
C791 C 0.16846 0.1517 0.83161 0.0
C792 C 0.13437 0.14338 0.83823 0.0
C793 C 0.1832 0.12571 0.82253 0.0
C794 C 0.16395 0.0913 0.81996 0.0
C795 C 0.12792 0.08513 0.82539 0.0
C796 C 0.11318 0.1109 0.83447 0.0
C797 C 0.18414 0.05882 0.81379 0.0
C798 C 0.18728 0.05673 0.80039 0.0
C799 C 0.19826 0.0286 0.82131 0.0
C800 C 0.19534 0.02961 0.83552 0.0
C801 C 0.1726 0.00269 0.84187 0.0
C802 C 0.16877 0.0044 0.85523 0.0
C803 C 0.18776 0.03278 0.86235 0.0
C804 C 0.21072 0.05944 0.85612 0.0
C805 C 0.21464 0.05784 0.84276 0.0
H806 H 0.18475 0.03408 0.87269 0.0
H807 H 0.21416 0.02069 0.74281 0.0
H808 H 0.40625 0.93084 0.01887 0.0
H809 H 0.35486 0.9127 0.0337 0.0
H810 H 0.43853 0.86597 0.05954 0.0
H811 H 0.48983 0.8846 0.04485 0.0
H812 H 0.36785 0.8222 0.05693 0.0
H813 H 0.41484 0.95085 0.06523 0.0
H814 H 0.431 0.0165 0.05884 0.0
H815 H 0.31437 0.03567 0.04774 0.0
H816 H 0.29768 0.96982 0.05386 0.0
H817 H 0.26543 0.8201 0.11487 0.0
H818 H 0.3154 0.83332 0.09916 0.0
H819 H 0.23672 0.90349 0.07797 0.0
H820 H 0.18709 0.89156 0.09385 0.0
H821 H 0.30406 0.93434 0.07746 0.0
H822 H 0.25514 0.80827 0.0691 0.0
H823 H 0.23719 0.74212 0.0742 0.0
H824 H 0.35361 0.71716 0.0842 0.0
H825 H 0.37223 0.78338 0.07919 0.0
C826 C 0.41337 0.91574 0.02755 0.0
C827 C 0.45166 0.90906 0.03082 0.0
C828 C 0.38419 0.90557 0.036 0.0
C829 C 0.39314 0.88833 0.04771 0.0
C830 C 0.43121 0.87919 0.05053 0.0
C831 C 0.46036 0.88985 0.04219 0.0
C832 C 0.36355 0.88357 0.05763 0.0
C833 C 0.35402 0.84661 0.06151 0.0
C834 C 0.34522 0.91555 0.06338 0.0
C835 C 0.35511 0.9553 0.05987 0.0
C836 C 0.39272 0.96896 0.06133 0.0
C837 C 0.40196 0.00622 0.05776 0.0
C838 C 0.37375 0.03022 0.05285 0.0
C839 C 0.33621 0.01703 0.05152 0.0
C840 C 0.32684 0.97975 0.05504 0.0
C841 C 0.25896 0.83887 0.10699 0.0
C842 C 0.22219 0.8545 0.10554 0.0
C843 C 0.28745 0.84614 0.09796 0.0
C844 C 0.27944 0.8685 0.0872 0.0
C845 C 0.24345 0.8859 0.08614 0.0
C846 C 0.21511 0.8791 0.09526 0.0
C847 C 0.30804 0.87279 0.07683 0.0
C848 C 0.31758 0.90976 0.07288 0.0
C849 C 0.326 0.84073 0.07091 0.0
C850 C 0.31498 0.80088 0.0739 0.0
C851 C 0.27686 0.78875 0.07247 0.0
C852 C 0.26658 0.7512 0.07534 0.0
C853 C 0.29421 0.72545 0.0796 0.0
C854 C 0.33223 0.73716 0.08093 0.0
C855 C 0.34267 0.77467 0.07805 0.0
H856 H 0.28624 0.69639 0.08184 0.0
H857 H 0.38096 0.05906 0.0501 0.0
H858 H 0.41829 0.15008 0.28569 0.0
H859 H 0.43904 0.10225 0.30094 0.0
H860 H 0.33769 0.03568 0.29302 0.0
H861 H 0.31698 0.08314 0.27741 0.0
H862 H 0.35079 0.04723 0.319 0.0
H863 H 0.42012 0.00428 0.282 0.0
H864 H 0.46272 0.00972 0.26326 0.0
H865 H 0.55509 0.04474 0.2879 0.0
H866 H 0.51285 0.0401 0.30679 0.0
H867 H 0.41237 0.87774 0.35001 0.0
H868 H 0.38866 0.92656 0.33558 0.0
H869 H 0.49059 0.99348 0.34222 0.0
H870 H 0.51486 0.94454 0.35662 0.0
H871 H 0.47629 0.98117 0.31677 0.0
H872 H 0.40634 0.02406 0.35384 0.0
H873 H 0.36351 0.01766 0.3725 0.0
H874 H 0.27211 0.98159 0.34761 0.0
H875 H 0.31456 0.98725 0.32881 0.0
C876 C 0.40077 0.12487 0.28693 0.0
C877 C 0.36605 0.12031 0.28027 0.0
C878 C 0.4126 0.09768 0.29572 0.0
C879 C 0.38996 0.06545 0.29803 0.0
C880 C 0.35546 0.0605 0.29135 0.0
C881 C 0.34367 0.08763 0.28248 0.0
C882 C 0.40185 0.03777 0.30781 0.0
C883 C 0.37796 0.03228 0.31844 0.0
C884 C 0.43772 0.01917 0.30716 0.0
C885 C 0.46317 0.02223 0.29581 0.0
C886 C 0.4494 0.01352 0.28342 0.0
C887 C 0.47351 0.01638 0.27277 0.0
C888 C 0.51156 0.02767 0.27438 0.0
C889 C 0.52559 0.03606 0.28666 0.0
C890 C 0.50158 0.0333 0.29735 0.0
C891 C 0.42956 0.90308 0.34857 0.0
C892 C 0.46566 0.90712 0.35439 0.0
C893 C 0.41585 0.93103 0.34036 0.0
C894 C 0.43789 0.96356 0.33787 0.0
C895 C 0.47323 0.96847 0.34404 0.0
C896 C 0.48694 0.94057 0.3523 0.0
C897 C 0.42539 0.99083 0.32803 0.0
C898 C 0.44915 0.99616 0.31735 0.0
C899 C 0.38938 0.00917 0.32863 0.0
C900 C 0.36376 0.00573 0.33993 0.0
C901 C 0.37721 0.01443 0.35235 0.0
C902 C 0.35297 0.01101 0.36295 0.0
C903 C 0.31514 -0.00087 0.36125 0.0
C904 C 0.30144 0.99074 0.34892 0.0
C905 C 0.32556 0.99409 0.33829 0.0
H906 H 0.29642 0.99651 0.36946 0.0
H907 H 0.53019 0.02983 0.26612 0.0
H908 H 0.84218 0.07468 0.51488 0.0
H909 H 0.78527 0.09317 0.52723 0.0
H910 H 0.84873 0.08213 0.56242 0.0
H911 H 0.90612 0.06586 0.55028 0.0
H912 H 0.77623 0.04257 0.56169 0.0
H913 H 0.83367 0.1648 0.55407 0.0
H914 H 0.85915 0.21892 0.54184 0.0
H915 H 0.75095 0.2317 0.52291 0.0
H916 H 0.72488 0.17735 0.53498 0.0
H917 H 0.70172 0.15202 0.61247 0.0
H918 H 0.73544 0.11866 0.59513 0.0
H919 H 0.64532 0.14797 0.56877 0.0
H920 H 0.61094 0.18122 0.5863 0.0
H921 H 0.71871 0.17222 0.56133 0.0
H922 H 0.65929 0.05679 0.57376 0.0
H923 H 0.63604 0.008 0.58871 0.0
H924 H 0.75121 0.98597 0.60082 0.0
H925 H 0.77515 0.03503 0.58609 0.0
C926 C 0.8443 0.0768 0.52523 0.0
C927 C 0.87889 0.06841 0.53155 0.0
C928 C 0.81163 0.08708 0.53226 0.0
C929 C 0.81284 0.08866 0.54572 0.0
C930 C 0.84718 0.08059 0.55204 0.0
C931 C 0.87992 0.07102 0.54505 0.0
C932 C 0.77843 0.09849 0.55335 0.0
C933 C 0.76356 0.07089 0.56163 0.0
C934 C 0.76141 0.13513 0.55298 0.0
C935 C 0.77758 0.16645 0.54522 0.0
C936 C 0.81553 0.17861 0.5471 0.0
C937 C 0.83 0.20953 0.54027 0.0
C938 C 0.80676 0.22859 0.53154 0.0
C939 C 0.76897 0.2168 0.52964 0.0
C940 C 0.75432 0.18596 0.53648 0.0
C941 C 0.68852 0.15034 0.60306 0.0
C942 C 0.65383 0.16914 0.60068 0.0
C943 C 0.70774 0.13119 0.59318 0.0
C944 C 0.69281 0.13076 0.58068 0.0
C945 C 0.65714 0.14783 0.57838 0.0
C946 C 0.63746 0.16654 0.58838 0.0
C947 C 0.71724 0.11672 0.56999 0.0
C948 C 0.73042 0.14348 0.56112 0.0
C949 C 0.73318 0.07956 0.57 0.0
C950 C 0.71901 0.04974 0.57883 0.0
C951 C 0.67966 0.04173 0.57967 0.0
C952 C 0.66635 0.01398 0.5881 0.0
C953 C 0.69213 0.99392 0.59572 0.0
C954 C 0.73128 0.00151 0.59491 0.0
C955 C 0.74474 0.02924 0.58649 0.0
H956 H 0.68177 0.97246 0.60224 0.0
H957 H 0.81798 0.2526 0.52629 0.0
H958 H 0.79925 0.0706 0.30896 0.0
H959 H 0.77931 0.01078 0.31861 0.0
H960 H 0.798 0.95118 0.2826 0.0
H961 H 0.81873 0.01103 0.27287 0.0
H962 H 0.72903 0.93578 0.29198 0.0
H963 H 0.85497 0.93126 0.30794 0.0
H964 H 0.91432 0.95508 0.318 0.0
H965 H 0.85412 0.97648 0.35332 0.0
H966 H 0.79425 0.95335 0.34343 0.0
H967 H 0.68717 0.78867 0.34704 0.0
H968 H 0.73306 0.81632 0.33172 0.0
H969 H 0.65978 0.91465 0.32767 0.0
H970 H 0.61474 0.8879 0.34284 0.0
H971 H 0.77044 0.88979 0.33462 0.0
H972 H 0.65822 0.93912 0.29691 0.0
H973 H 0.59936 0.91417 0.28683 0.0
H974 H 0.63533 0.79915 0.29419 0.0
H975 H 0.6947 0.82334 0.30415 0.0
C976 C 0.80004 0.04468 0.30314 0.0
C977 C 0.8105 0.04572 0.29012 0.0
C978 C 0.78864 0.01041 0.30869 0.0
C979 C 0.78755 0.97638 0.30137 0.0
C980 C 0.79872 0.97708 0.28844 0.0
C981 C 0.81028 0.01137 0.28288 0.0
C982 C 0.77111 0.94124 0.30699 0.0
C983 C 0.73848 0.92527 0.3012 0.0
C984 C 0.78407 0.92676 0.31884 0.0
C985 C 0.82004 0.94063 0.32491 0.0
C986 C 0.85431 0.94126 0.31783 0.0
C987 C 0.88806 0.95462 0.32351 0.0
C988 C 0.88799 0.9673 0.33629 0.0
C989 C 0.85415 0.96661 0.34342 0.0
C990 C 0.82029 0.9533 0.33779 0.0
C991 C 0.68085 0.81597 0.34275 0.0
C992 C 0.64757 0.83628 0.34619 0.0
C993 C 0.70703 0.83172 0.33406 0.0
C994 C 0.69957 0.86736 0.32851 0.0
C995 C 0.66588 0.88695 0.33173 0.0
C996 C 0.64028 0.87169 0.34048 0.0
C997 C 0.7273 0.8862 0.31993 0.0
C998 C 0.76187 0.89935 0.32519 0.0
C999 C 0.71637 0.89787 0.30752 0.0
C1000 C 0.68096 0.8831 0.30131 0.0
C1001 C 0.65377 0.90849 0.29629 0.0
C1002 C 0.62025 0.89448 0.29062 0.0
C1003 C 0.6136 0.8551 0.28988 0.0
C1004 C 0.64049 0.82965 0.29479 0.0
C1005 C 0.67406 0.8435 0.30047 0.0
H1006 H 0.58762 0.84432 0.28549 0.0
H1007 H 0.91415 0.97764 0.34067 0.0
H1008 H 0.7883 0.90757 0.01821 0.0
H1009 H 0.83826 0.87901 0.03133 0.0
H1010 H 0.83313 0.97547 0.05756 0.0
H1011 H 0.78399 0.005 0.04428 0.0
H1012 H 0.91082 0.90402 0.04043 0.0
H1013 H 0.83076 0.93447 0.0881 0.0
H1014 H 0.76481 0.946 0.09566 0.0
H1015 H 0.72079 0.88191 0.06344 0.0
H1016 H 0.78641 0.86957 0.05579 0.0
H1017 H 0.02697 0.88813 0.09481 0.0
H1018 H 0.98005 0.90831 0.07909 0.0
H1019 H 0.91645 0.80412 0.08453 0.0
H1020 H 0.96356 0.78364 0.10046 0.0
H1021 H 0.87099 0.8705 0.08463 0.0
H1022 H 0.96526 0.81007 0.05892 0.0
H1023 H 0.02978 0.79482 0.05085 0.0
H1024 H 0.04339 0.91043 0.03828 0.0
H1025 H 0.97906 0.92656 0.04644 0.0
C1026 C 0.79853 0.92332 0.02656 0.0
C1027 C 0.78191 0.95847 0.03025 0.0
C1028 C 0.82696 0.90682 0.03407 0.0
C1029 C 0.83889 0.92498 0.04545 0.0
C1030 C 0.82384 0.96089 0.04885 0.0
C1031 C 0.79566 0.97758 0.0413 0.0
C1032 C 0.86503 0.90517 0.05425 0.0
C1033 C 0.90229 0.89682 0.05011 0.0
C1034 C 0.85319 0.89468 0.0667 0.0
C1035 C 0.81355 0.90135 0.07133 0.0
C1036 C 0.80701 0.92267 0.08267 0.0
C1037 C 0.76967 0.92938 0.08696 0.0
C1038 C 0.73863 0.91478 0.08002 0.0
C1039 C 0.74485 0.8933 0.06879 0.0
C1040 C 0.78213 0.88646 0.06447 0.0
C1041 C 0.00298 0.86942 0.09276 0.0
C1042 C 0.99906 0.83406 0.0989 0.0
C1043 C 0.97632 0.88097 0.08369 0.0
C1044 C 0.94513 0.85752 0.08059 0.0
C1045 C 0.94055 0.8225 0.0868 0.0
C1046 C 0.9675 0.81075 0.09585 0.0
C1047 C 0.9172 0.87039 0.07096 0.0
C1048 C 0.87958 0.87759 0.07494 0.0
C1049 C 0.92852 0.87912 0.05829 0.0
C1050 C 0.96732 0.86959 0.05337 0.0
C1051 C 0.98206 0.83235 0.05452 0.0
C1052 C 0.01861 0.82352 0.04991 0.0
C1053 C 0.0407 0.85165 0.04407 0.0
C1054 C 0.02624 0.88866 0.04281 0.0
C1055 C 0.98969 0.89765 0.04741 0.0
H1056 H 0.069 0.84476 0.04051 0.0
H1057 H 0.70974 0.92005 0.08335 0.0
H1058 H 0.84694 0.95794 0.78948 0.0
H1059 H 0.86954 0.01163 0.8026 0.0
H1060 H 0.9772 0.00988 0.78245 0.0
H1061 H 0.95416 0.95762 0.76864 0.0
H1062 H 0.97555 0.00845 0.8123 0.0
H1063 H 0.93163 0.07662 0.77483 0.0
H1064 H 0.8839 0.09251 0.75833 0.0
H1065 H 0.80528 0.12936 0.78769 0.0
H1066 H 0.85237 0.1131 0.80438 0.0
H1067 H 0.05315 0.18043 0.83906 0.0
H1068 H 0.03391 0.12976 0.82392 0.0
H1069 H 0.91584 0.1474 0.83447 0.0
H1070 H 0.93484 0.19769 0.84967 0.0
H1071 H 0.92427 0.14025 0.80889 0.0
H1072 H 0.96564 0.07762 0.84634 0.0
H1073 H 0.00798 0.05834 0.86395 0.0
H1074 H 0.08438 0.00486 0.83688 0.0
H1075 H 0.04357 0.02556 0.819 0.0
C1076 C 0.8751 0.96939 0.78757 0.0
C1077 C 0.89862 0.95336 0.77791 0.0
C1078 C 0.88806 -0.00016 0.79519 0.0
C1079 C 0.92494 0.01444 0.79346 0.0
C1080 C 0.94866 0.99867 0.78392 0.0
C1081 C 0.93547 0.96868 0.77611 0.0
C1082 C 0.93874 0.04593 0.80178 0.0
C1083 C 0.96514 0.03754 0.81145 0.0
C1084 C 0.92359 0.08319 0.80088 0.0
C1085 C 0.89538 0.09326 0.79086 0.0
C1086 C 0.90403 0.08775 0.77777 0.0
C1087 C 0.87712 0.09691 0.76838 0.0
C1088 C 0.84153 0.11183 0.77196 0.0
C1089 C 0.83283 0.11775 0.78494 0.0
C1090 C 0.85964 0.1086 0.79436 0.0
C1091 C 0.0232 0.17315 0.83826 0.0
C1092 C 0.99564 0.19254 0.84573 0.0
C1093 C 0.01224 0.14438 0.82958 0.0
C1094 C 0.97355 0.13452 0.82824 0.0
C1095 C 0.94587 0.15456 0.8354 0.0
C1096 C 0.9568 0.18328 0.84408 0.0
C1097 C 0.9618 0.10316 0.81942 0.0
C1098 C 0.9354 0.11142 0.8097 0.0
C1099 C 0.9765 0.06553 0.82047 0.0
C1100 C 0.00182 0.05398 0.83124 0.0
C1101 C 0.9919 0.06256 0.84407 0.0
C1102 C 0.01565 0.05131 0.85412 0.0
C1103 C 0.04903 0.03065 0.85153 0.0
C1104 C 0.05864 0.0211 0.83887 0.0
C1105 C 0.03532 0.03281 0.82876 0.0
H1106 H 0.06733 0.02185 0.85932 0.0
H1107 H 0.82074 0.1189 0.76468 0.0
H1108 H 0.86373 0.00596 0.45786 0.0
H1109 H 0.8089 0.98274 0.44543 0.0
H1110 H 0.81698 0.87351 0.46395 0.0
H1111 H 0.87253 0.89609 0.47608 0.0
H1112 H 0.81342 0.86504 0.43861 0.0
H1113 H 0.74329 0.93594 0.47052 0.0
H1114 H 0.7262 0.99255 0.48371 0.0
H1115 H 0.69785 0.05427 0.44968 0.0
H1116 H 0.7153 0.99818 0.43627 0.0
H1117 H 0.649 0.77979 0.41352 0.0
H1118 H 0.68775 0.81207 0.43 0.0
H1119 H 0.69074 0.91376 0.40709 0.0
H1120 H 0.6522 0.88111 0.39047 0.0
H1121 H 0.68656 0.92757 0.43488 0.0
H1122 H 0.7583 0.85766 0.40307 0.0
H1123 H 0.77869 0.80255 0.38971 0.0
H1124 H 0.80698 0.74015 0.42359 0.0
H1125 H 0.7856 0.79443 0.43717 0.0
C1126 C 0.85377 0.97702 0.45931 0.0
C1127 C 0.87267 0.95282 0.46792 0.0
C1128 C 0.82213 0.96393 0.4523 0.0
C1129 C 0.80863 0.92645 0.45382 0.0
C1130 C 0.82683 0.90258 0.46265 0.0
C1131 C 0.85843 0.91563 0.46965 0.0
C1132 C 0.77759 0.91106 0.44548 0.0
C1133 C 0.78543 0.87832 0.438 0.0
C1134 C 0.74153 0.92919 0.44434 0.0
C1135 C 0.73097 0.96295 0.45238 0.0
C1136 C 0.73373 0.96168 0.46584 0.0
C1137 C 0.72391 0.99366 0.47336 0.0
C1138 C 0.71104 0.02702 0.46754 0.0
C1139 C 0.70787 0.02843 0.45418 0.0
C1140 C 0.71768 0.99654 0.44662 0.0
C1141 C 0.6566 0.80956 0.41229 0.0
C1142 C 0.64723 0.82835 0.40091 0.0
C1143 C 0.67896 0.82784 0.42163 0.0
C1144 C 0.69237 0.86513 0.41969 0.0
C1145 C 0.6805 0.88503 0.40877 0.0
C1146 C 0.65836 0.86654 0.39934 0.0
C1147 C 0.72236 0.88126 0.42823 0.0
C1148 C 0.71444 0.91417 0.43564 0.0
C1149 C 0.75852 0.86336 0.42932 0.0
C1150 C 0.76978 0.82997 0.42116 0.0
C1151 C 0.76816 0.83194 0.40769 0.0
C1152 C 0.78002 0.80087 0.40007 0.0
C1153 C 0.79405 0.76784 0.4058 0.0
C1154 C 0.79597 0.76568 0.41916 0.0
C1155 C 0.78389 0.79656 0.42683 0.0
H1156 H 0.80353 0.74397 0.39987 0.0
H1157 H 0.70345 0.05175 0.47337 0.0
H1158 H 0.98308 0.0623 0.23319 0.0
H1159 H 0.00568 0.00897 0.21964 0.0
H1160 H 0.88926 0.98394 0.20859 0.0
H1161 H 0.86664 0.0367 0.22221 0.0
H1162 H 0.92769 0.9198 0.21345 0.0
H1163 H 0.95026 0.03661 0.19068 0.0
H1164 H 0.97826 0.10022 0.18713 0.0
H1165 H 0.09107 0.05166 0.18753 0.0
H1166 H 0.06376 0.98784 0.19113 0.0
H1167 H 0.941 0.82604 0.15278 0.0
H1168 H 0.9297 0.87233 0.17027 0.0
H1169 H 0.04894 0.86805 0.18055 0.0
H1170 H 0.06058 0.82175 0.16306 0.0
H1171 H 0.01756 0.94414 0.17761 0.0
H1172 H 0.99556 0.82796 0.19956 0.0
H1173 H 0.96825 0.76391 0.20292 0.0
H1174 H 0.85501 0.81149 0.20317 0.0
H1175 H 0.88162 0.87582 0.19963 0.0
C1176 C 0.96236 0.04495 0.22802 0.0
C1177 C 0.92316 0.05369 0.22866 0.0
C1178 C 0.97529 0.0147 0.22023 0.0
C1179 C 0.94916 0.99275 0.213 0.0
C1180 C 0.90992 0.00059 0.21405 0.0
C1181 C 0.89705 0.03083 0.22177 0.0
C1182 C 0.96223 0.96212 0.20406 0.0
C1183 C 0.94707 0.92526 0.20555 0.0
C1184 C 0.98861 0.96899 0.194 0.0
C1185 C 0.00496 0.00748 0.19161 0.0
C1186 C 0.98106 0.03952 0.19021 0.0
C1187 C 0.99681 0.07564 0.18811 0.0
C1188 C 0.03644 0.08006 0.18722 0.0
C1189 C 0.06038 0.04829 0.18831 0.0
C1190 C 0.04476 0.01212 0.1904 0.0
C1191 C 0.96485 0.83505 0.15873 0.0
C1192 C 0.00188 0.82099 0.15638 0.0
C1193 C 0.95835 0.86137 0.16871 0.0
C1194 C 0.98869 0.87378 0.17654 0.0
C1195 C 0.02549 0.85934 0.17438 0.0
C1196 C 0.03205 0.83312 0.16438 0.0
C1197 C 0.98193 0.90253 0.1868 0.0
C1198 C 0.99842 0.93883 0.18559 0.0
C1199 C 0.95676 0.89531 0.19708 0.0
C1200 C 0.94059 0.85669 0.19922 0.0
C1201 C 0.96481 0.82474 0.20022 0.0
C1202 C 0.94946 0.78839 0.20218 0.0
C1203 C 0.90991 0.78361 0.20323 0.0
C1204 C 0.88564 0.81522 0.20235 0.0
C1205 C 0.90085 0.85165 0.20038 0.0
H1206 H 0.89808 0.75544 0.20474 0.0
H1207 H 0.04857 0.10805 0.18559 0.0
H1208 H 0.71685 0.14892 0.96107 0.0
H1209 H 0.76677 0.1786 0.94804 0.0
H1210 H 0.8525 0.11211 0.96749 0.0
H1211 H 0.80261 0.08366 0.98088 0.0
H1212 H 0.88151 0.18046 0.96005 0.0
H1213 H 0.80876 0.07644 0.94113 0.0
H1214 H 0.74938 0.04375 0.93443 0.0
H1215 H 0.72246 0.13661 0.90947 0.0
H1216 H 0.78143 0.17016 0.9162 0.0
H1217 H 0.01745 0.14182 0.9115 0.0
H1218 H 0.96602 0.13386 0.92722 0.0
H1219 H 0.89533 0.21228 0.90621 0.0
H1220 H 0.94712 0.22084 0.89054 0.0
H1221 H 0.85734 0.14602 0.91433 0.0
H1222 H 0.93703 0.24526 0.93169 0.0
H1223 H 0.999 0.27363 0.93785 0.0
H1224 H 0.01583 0.18501 0.96538 0.0
H1225 H 0.95409 0.15588 0.95922 0.0
C1226 C 0.74654 0.1418 0.96282 0.0
C1227 C 0.75624 0.11403 0.97181 0.0
C1228 C 0.77494 0.1586 0.95539 0.0
C1229 C 0.81315 0.14683 0.95661 0.0
C1230 C 0.82317 0.1215 0.96639 0.0
C1231 C 0.79478 0.1052 0.97399 0.0
C1232 C 0.84136 0.15603 0.94655 0.0
C1233 C 0.8763 0.17289 0.95007 0.0
C1234 C 0.83436 0.14638 0.93349 0.0
C1235 C 0.79925 0.12598 0.92927 0.0
C1236 C 0.79005 0.08998 0.93427 0.0
C1237 C 0.75649 0.0713 0.93047 0.0
C1238 C 0.73211 0.08814 0.92155 0.0
C1239 C 0.74133 0.12364 0.91639 0.0
C1240 C 0.77481 0.1425 0.9202 0.0
C1241 C 0.9908 0.1571 0.91021 0.0
C1242 C 0.98617 0.18237 0.89999 0.0
C1243 C 0.96167 0.15277 0.9192 0.0
C1244 C 0.92742 0.17326 0.91798 0.0
C1245 C 0.92197 0.19692 0.90739 0.0
C1246 C 0.95143 0.20186 0.89852 0.0
C1247 C 0.89745 0.17013 0.92785 0.0
C1248 C 0.86226 0.15423 0.92428 0.0
C1249 C 0.90449 0.1802 0.94084 0.0
C1250 C 0.94103 0.1983 0.94492 0.0
C1251 C 0.95405 0.23175 0.93899 0.0
C1252 C 0.98916 0.24792 0.94247 0.0
C1253 C 0.01146 0.23102 0.95196 0.0
C1254 C 0.99857 0.19801 0.95801 0.0
C1255 C 0.96346 0.18171 0.95454 0.0
H1256 H 0.03861 0.24361 0.95467 0.0
H1257 H 0.70613 0.07364 0.91862 0.0
H1258 H 0.75306 0.98372 0.73396 0.0
H1259 H 0.7336 0.04399 0.72414 0.0
H1260 H 0.78988 0.00955 0.6889 0.0
H1261 H 0.81057 0.95019 0.69888 0.0
H1262 H 0.79877 0.08292 0.69238 0.0
H1263 H 0.69285 0.9944 0.69548 0.0
H1264 H 0.64673 0.95367 0.70684 0.0
H1265 H 0.60341 0.052 0.72732 0.0
H1266 H 0.65001 0.09318 0.71632 0.0
H1267 H 0.68041 0.13379 0.64091 0.0
H1268 H 0.71951 0.10728 0.65806 0.0
H1269 H 0.66803 0.18595 0.6853 0.0
H1270 H 0.62945 0.2135 0.66796 0.0
H1271 H 0.65882 0.10523 0.69029 0.0
H1272 H 0.75785 0.19463 0.68239 0.0
H1273 H 0.80221 0.23231 0.66923 0.0
H1274 H 0.85552 0.129 0.65539 0.0
H1275 H 0.81111 0.09062 0.66832 0.0
C1276 C 0.76151 0.98936 0.72416 0.0
C1277 C 0.78291 0.96233 0.71709 0.0
C1278 C 0.75045 0.02372 0.71857 0.0
C1279 C 0.75971 0.03103 0.70571 0.0
C1280 C 0.78243 0.00462 0.69884 0.0
C1281 C 0.7941 0.97066 0.70451 0.0
C1282 C 0.74345 0.06442 0.69898 0.0
C1283 C 0.76817 0.08786 0.69194 0.0
C1284 C 0.70353 0.07155 0.69868 0.0
C1285 C 0.67541 0.04677 0.70525 0.0
C1286 C 0.67382 0.00727 0.70252 0.0
C1287 C 0.64762 0.98409 0.70891 0.0
C1288 C 0.62233 0.0002 0.71787 0.0
C1289 C 0.62317 0.03953 0.72044 0.0
C1290 C 0.64954 0.06278 0.71416 0.0
C1291 C 0.67841 0.14623 0.65049 0.0
C1292 C 0.65206 0.1755 0.6532 0.0
C1293 C 0.70078 0.1312 0.66025 0.0
C1294 C 0.69664 0.14475 0.67291 0.0
C1295 C 0.67175 0.1754 0.67555 0.0
C1296 C 0.64992 0.19113 0.66567 0.0
C1297 C 0.71404 0.12268 0.68338 0.0
C1298 C 0.68949 0.10116 0.69108 0.0
C1299 C 0.75394 0.11678 0.68406 0.0
C1300 C 0.781 0.13971 0.67632 0.0
C1301 C 0.77886 0.1799 0.67648 0.0
C1302 C 0.80405 0.2014 0.66907 0.0
C1303 C 0.83165 0.18306 0.66147 0.0
C1304 C 0.83415 0.14317 0.66129 0.0
C1305 C 0.80901 0.12153 0.66868 0.0
H1306 H 0.85112 0.19975 0.65574 0.0
H1307 H 0.60192 0.98224 0.72275 0.0
H1308 H 0.71778 0.48091 0.96092 0.0
H1309 H 0.77481 0.45642 0.95011 0.0
H1310 H 0.77393 0.35749 0.97436 0.0
H1311 H 0.71821 0.38291 0.98576 0.0
H1312 H 0.84525 0.37792 0.97012 0.0
H1313 H 0.73473 0.35444 0.94401 0.0
H1314 H 0.67589 0.37104 0.9323 0.0
H1315 H 0.73983 0.44684 0.90835 0.0
H1316 H 0.799 0.43106 0.92005 0.0
H1317 H 0.91158 0.27986 0.90513 0.0
H1318 H 0.86546 0.29679 0.92164 0.0
H1319 H 0.94622 0.37605 0.93852 0.0
H1320 H 0.99358 0.35783 0.9222 0.0
H1321 H 0.83509 0.36357 0.92281 0.0
H1322 H 0.92614 0.3974 0.96689 0.0
H1323 H 0.97915 0.37056 0.97959 0.0
H1324 H 0.94484 0.2569 0.96851 0.0
H1325 H 0.89276 0.28313 0.95531 0.0
C1326 C 0.73013 0.45437 0.96418 0.0
C1327 C 0.71299 0.43372 0.97415 0.0
C1328 C 0.76259 0.44019 0.95788 0.0
C1329 C 0.77826 0.40472 0.96125 0.0
C1330 C 0.76225 0.38481 0.97153 0.0
C1331 C 0.73003 0.39917 0.97794 0.0
C1332 C 0.80975 0.38733 0.95354 0.0
C1333 C 0.84306 0.3749 0.95977 0.0
C1334 C 0.80669 0.38239 0.94007 0.0
C1335 C 0.7712 0.39187 0.93299 0.0
C1336 C 0.73618 0.37485 0.93631 0.0
C1337 C 0.70279 0.38408 0.92967 0.0
C1338 C 0.7041 0.41006 0.91961 0.0
C1339 C 0.73885 0.42678 0.91616 0.0
C1340 C 0.77233 0.41768 0.92278 0.0
C1341 C 0.92025 0.29988 0.91258 0.0
C1342 C 0.95642 0.31748 0.91227 0.0
C1343 C 0.89358 0.30979 0.922 0.0
C1344 C 0.9021 0.33796 0.93129 0.0
C1345 C 0.93903 0.35391 0.93156 0.0
C1346 C 0.96606 0.34362 0.92216 0.0
C1347 C 0.87073 0.35412 0.93936 0.0
C1348 C 0.83742 0.36663 0.93316 0.0
C1349 C 0.87331 0.35791 0.95285 0.0
C1350 C 0.90594 0.34221 0.96006 0.0
C1351 C 0.93029 0.3667 0.96706 0.0
C1352 C 0.96028 0.3516 0.97427 0.0
C1353 C 0.96564 0.31203 0.97474 0.0
C1354 C 0.94112 0.28752 0.96795 0.0
C1355 C 0.9116 0.30249 0.96051 0.0
H1356 H 0.98864 0.30034 0.98042 0.0
H1357 H 0.67821 0.41716 0.91448 0.0
H1358 H 0.94802 0.34831 0.21201 0.0
H1359 H 0.96261 0.39322 0.19498 0.0
H1360 H 0.87096 0.46671 0.20808 0.0
H1361 H 0.85628 0.42189 0.22523 0.0
H1362 H 0.86913 0.4566 0.18244 0.0
H1363 H 0.96377 0.48791 0.21413 0.0
H1364 H 0.01731 0.47753 0.22906 0.0
H1365 H 0.08881 0.44125 0.19763 0.0
H1366 H 0.03545 0.45065 0.18254 0.0
H1367 H 0.92126 0.62938 0.15223 0.0
H1368 H 0.90367 0.57715 0.16625 0.0
H1369 H 0.99594 0.50872 0.15076 0.0
H1370 H 0.01425 0.56114 0.13677 0.0
H1371 H 0.99792 0.51299 0.17655 0.0
H1372 H 0.90371 0.4843 0.14474 0.0
H1373 H 0.85086 0.49779 0.12982 0.0
H1374 H 0.77944 0.53225 0.16149 0.0
H1375 H 0.83205 0.51949 0.1766 0.0
C1376 C 0.93135 0.37433 0.21141 0.0
C1377 C 0.90115 0.38171 0.22003 0.0
C1378 C 0.93964 0.39989 0.20164 0.0
C1379 C 0.91808 0.43343 0.20034 0.0
C1380 C 0.88791 0.44092 0.20891 0.0
C1381 C 0.87954 0.41531 0.21869 0.0
C1382 C 0.92654 0.46032 0.18987 0.0
C1383 C 0.89718 0.46932 0.18123 0.0
C1384 C 0.96348 0.47597 0.18809 0.0
C1385 C 0.99535 0.4694 0.19722 0.0
C1386 C 0.99072 0.47718 0.21042 0.0
C1387 C 0.02109 0.47158 0.21891 0.0
C1388 C 0.05639 0.45857 0.21431 0.0
C1389 C 0.06141 0.45118 0.20119 0.0
C1390 C 0.03109 0.4566 0.19267 0.0
C1391 C 0.9375 0.60304 0.15161 0.0
C1392 C 0.96938 0.59961 0.14342 0.0
C1393 C 0.92723 0.57309 0.1596 0.0
C1394 C 0.94838 0.53901 0.15949 0.0
C1395 C 0.97919 0.5348 0.15095 0.0
C1396 C 0.98956 0.56479 0.14295 0.0
C1397 C 0.94055 0.50949 0.16917 0.0
C1398 C 0.97 0.50003 0.17768 0.0
C1399 C 0.90374 0.49359 0.17085 0.0
C1400 C 0.87197 0.50122 0.1618 0.0
C1401 C 0.87684 0.49505 0.14852 0.0
C1402 C 0.8469 0.50251 0.14003 0.0
C1403 C 0.81184 0.51594 0.1447 0.0
C1404 C 0.80662 0.52186 0.15788 0.0
C1405 C 0.83648 0.51447 0.16641 0.0
H1406 H 0.78869 0.5217 0.13811 0.0
H1407 H 0.0799 0.45436 0.22089 0.0
H1408 H 0.90179 0.53182 0.47202 0.0
H1409 H 0.85406 0.55824 0.45745 0.0
H1410 H 0.93294 0.54512 0.42581 0.0
H1411 H 0.98129 0.52068 0.44035 0.0
H1412 H 0.90069 0.61258 0.42518 0.0
H1413 H 0.85731 0.48317 0.42998 0.0
H1414 H 0.83687 0.42635 0.44194 0.0
H1415 H 0.74288 0.48974 0.45815 0.0
H1416 H 0.76307 0.54711 0.44642 0.0
H1417 H 0.71398 0.59429 0.38353 0.0
H1418 H 0.76393 0.56627 0.39694 0.0
H1419 H 0.78735 0.6777 0.41356 0.0
H1420 H 0.73913 0.70594 0.39958 0.0
H1421 H 0.76953 0.55967 0.42116 0.0
H1422 H 0.87581 0.68561 0.42406 0.0
H1423 H 0.897 0.73972 0.4109 0.0
H1424 H 0.8685 0.67664 0.37653 0.0
H1425 H 0.8475 0.62201 0.38949 0.0
C1426 C 0.90899 0.53472 0.46197 0.0
C1427 C 0.94526 0.52393 0.45734 0.0
C1428 C 0.8816 0.54949 0.45364 0.0
C1429 C 0.8899 0.55329 0.44054 0.0
C1430 C 0.92595 0.54235 0.43589 0.0
C1431 C 0.95339 0.52791 0.4442 0.0
C1432 C 0.86141 0.5694 0.43164 0.0
C1433 C 0.87202 0.60097 0.42427 0.0
C1434 C 0.82419 0.55401 0.43038 0.0
C1435 C 0.81191 0.51952 0.43742 0.0
C1436 C 0.83245 0.48507 0.43617 0.0
C1437 C 0.82088 0.45275 0.4429 0.0
C1438 C 0.78866 0.45446 0.45083 0.0
C1439 C 0.76787 0.48847 0.45202 0.0
C1440 C 0.77934 0.52088 0.44533 0.0
C1441 C 0.73044 0.61274 0.38989 0.0
C1442 C 0.72354 0.65224 0.39042 0.0
C1443 C 0.7587 0.59678 0.39759 0.0
C1444 C 0.77982 0.61999 0.40612 0.0
C1445 C 0.77235 0.65944 0.40676 0.0
C1446 C 0.74487 0.67555 0.3988 0.0
C1447 C 0.80884 0.60273 0.41461 0.0
C1448 C 0.79825 0.57116 0.42199 0.0
C1449 C 0.84639 0.61759 0.41567 0.0
C1450 C 0.85991 0.64983 0.40776 0.0
C1451 C 0.87435 0.68319 0.41369 0.0
C1452 C 0.88627 0.71397 0.40627 0.0
C1453 C 0.88409 0.71162 0.39289 0.0
C1454 C 0.87011 0.67844 0.3869 0.0
C1455 C 0.85817 0.64758 0.39428 0.0
H1456 H 0.89321 0.73553 0.38716 0.0
H1457 H 0.77975 0.42942 0.45603 0.0
H1458 H 0.79672 0.59812 0.70598 0.0
H1459 H 0.76721 0.54184 0.69606 0.0
H1460 H 0.67083 0.55301 0.72172 0.0
H1461 H 0.70118 0.6081 0.73221 0.0
H1462 H 0.6868 0.4797 0.71801 0.0
H1463 H 0.66722 0.58798 0.69115 0.0
H1464 H 0.68614 0.64417 0.6786 0.0
H1465 H 0.7555 0.57267 0.6541 0.0
H1466 H 0.73739 0.51612 0.66662 0.0
H1467 H 0.58364 0.40509 0.65516 0.0
H1468 H 0.59912 0.45226 0.67174 0.0
H1469 H 0.68612 0.37749 0.68655 0.0
H1470 H 0.6705 0.32962 0.67 0.0
H1471 H 0.66913 0.48399 0.67081 0.0
H1472 H 0.70295 0.39401 0.7137 0.0
H1473 H 0.67525 0.34435 0.72756 0.0
H1474 H 0.56273 0.38918 0.72092 0.0
H1475 H 0.58967 0.43789 0.70659 0.0
C1476 C 0.76965 0.58821 0.70972 0.0
C1477 C 0.75118 0.60798 0.71982 0.0
C1478 C 0.75261 0.5562 0.70394 0.0
C1479 C 0.71646 0.54366 0.70798 0.0
C1480 C 0.69863 0.56232 0.71839 0.0
C1481 C 0.71583 0.59412 0.72427 0.0
C1482 C 0.69642 0.51242 0.70091 0.0
C1483 C 0.68302 0.48066 0.70768 0.0
C1484 C 0.69044 0.51398 0.68749 0.0
C1485 C 0.70122 0.54789 0.67989 0.0
C1486 C 0.6867 0.58429 0.68314 0.0
C1487 C 0.69726 0.61619 0.67602 0.0
C1488 C 0.72208 0.61201 0.66558 0.0
C1489 C 0.73632 0.57588 0.6622 0.0
C1490 C 0.72589 0.54389 0.6693 0.0
C1491 C 0.60529 0.39799 0.66215 0.0
C1492 C 0.6263 0.36375 0.66108 0.0
C1493 C 0.61409 0.42511 0.67166 0.0
C1494 C 0.64395 0.41856 0.68032 0.0
C1495 C 0.66271 0.38303 0.68003 0.0
C1496 C 0.6539 0.35576 0.67049 0.0
C1497 C 0.66001 0.45105 0.68787 0.0
C1498 C 0.67289 0.48306 0.68114 0.0
C1499 C 0.66457 0.45019 0.70131 0.0
C1500 C 0.64823 0.41919 0.70904 0.0
C1501 C 0.67227 0.39283 0.71508 0.0
C1502 C 0.65669 0.36479 0.72297 0.0
C1503 C 0.61721 0.36345 0.72505 0.0
C1504 C 0.59323 0.38997 0.71919 0.0
C1505 C 0.60858 0.41749 0.71107 0.0
H1506 H 0.60521 0.34194 0.73124 0.0
H1507 H 0.73021 0.63674 0.66008 0.0
H1508 H 0.74785 0.53209 0.02128 0.0
H1509 H 0.80605 0.55965 0.0307 0.0
H1510 H 0.73759 0.6397 0.05271 0.0
H1511 H 0.67952 0.61235 0.04339 0.0
H1512 H 0.79794 0.67471 0.04195 0.0
H1513 H 0.77581 0.55967 0.06627 0.0
H1514 H 0.76653 0.49028 0.06887 0.0
H1515 H 0.87608 0.46849 0.05158 0.0
H1516 H 0.88578 0.53778 0.04874 0.0
H1517 H 0.9073 0.73034 0.0956 0.0
H1518 H 0.86354 0.70995 0.07876 0.0
H1519 H 0.94961 0.63376 0.06324 0.0
H1520 H 0.99345 0.65327 0.08038 0.0
H1521 H 0.88734 0.59579 0.0673 0.0
H1522 H 0.91299 0.71169 0.04535 0.0
H1523 H 0.92126 0.78086 0.04197 0.0
H1524 H 0.80624 0.80141 0.05475 0.0
H1525 H 0.79717 0.73241 0.05816 0.0
C1526 C 0.74525 0.55537 0.02821 0.0
C1527 C 0.7091 0.57005 0.0316 0.0
C1528 C 0.7785 0.57116 0.03354 0.0
C1529 C 0.77614 0.60164 0.04245 0.0
C1530 C 0.7401 0.61638 0.04579 0.0
C1531 C 0.70694 0.60073 0.04045 0.0
C1532 C 0.81097 0.61808 0.04849 0.0
C1533 C 0.81745 0.65755 0.04756 0.0
C1534 C 0.83712 0.59544 0.05541 0.0
C1535 C 0.83131 0.55383 0.05715 0.0
C1536 C 0.79777 0.54005 0.06293 0.0
C1537 C 0.79246 0.50075 0.06446 0.0
C1538 C 0.82064 0.47499 0.06036 0.0
C1539 C 0.85424 0.48848 0.05474 0.0
C1540 C 0.85967 0.52775 0.05316 0.0
C1541 C 0.91739 0.7099 0.08845 0.0
C1542 C 0.95374 0.69297 0.0895 0.0
C1543 C 0.8923 0.69844 0.07872 0.0
C1544 C 0.90318 0.67025 0.06969 0.0
C1545 C 0.94049 0.65542 0.07013 0.0
C1546 C 0.96559 0.66672 0.07993 0.0
C1547 C 0.87402 0.6528 0.06103 0.0
C1548 C 0.86845 0.61303 0.06149 0.0
C1549 C 0.84872 0.67519 0.05367 0.0
C1550 C 0.85446 0.71687 0.05204 0.0
C1551 C 0.88958 0.731 0.04755 0.0
C1552 C 0.89438 0.77017 0.0456 0.0
C1553 C 0.86432 0.79547 0.04817 0.0
C1554 C 0.82947 0.78176 0.05275 0.0
C1555 C 0.82442 0.74261 0.05464 0.0
H1556 H 0.86788 0.82562 0.04648 0.0
H1557 H 0.81648 0.44458 0.06156 0.0
H1558 H 0.81123 0.43746 0.27127 0.0
H1559 H 0.7826 0.49816 0.27824 0.0
H1560 H 0.69202 0.43704 0.29713 0.0
H1561 H 0.7209 0.37627 0.29054 0.0
H1562 H 0.66632 0.50255 0.28379 0.0
H1563 H 0.76506 0.46601 0.31426 0.0
H1564 H 0.83091 0.4484 0.32027 0.0
H1565 H 0.87256 0.55449 0.30543 0.0
H1566 H 0.80695 0.57247 0.29917 0.0
H1567 H 0.60031 0.60575 0.3375 0.0
H1568 H 0.62341 0.56422 0.32027 0.0
H1569 H 0.71084 0.64643 0.31114 0.0
H1570 H 0.68823 0.68828 0.32858 0.0
H1571 H 0.74148 0.57947 0.31521 0.0
H1572 H 0.63866 0.623 0.29031 0.0
H1573 H 0.57234 0.64077 0.28512 0.0
H1574 H 0.53738 0.52385 0.28879 0.0
H1575 H 0.60299 0.50546 0.29446 0.0
C1576 C 0.7853 0.43687 0.27695 0.0
C1577 C 0.76862 0.40187 0.28045 0.0
C1578 C 0.76879 0.47161 0.28081 0.0
C1579 C 0.73525 0.47205 0.28821 0.0
C1580 C 0.71775 0.43731 0.29132 0.0
C1581 C 0.73434 0.40256 0.28754 0.0
C1582 C 0.72002 0.50837 0.29367 0.0
C1583 C 0.68252 0.51949 0.29069 0.0
C1584 C 0.74187 0.53108 0.30228 0.0
C1585 C 0.78123 0.52035 0.3061 0.0
C1586 C 0.78832 0.48542 0.31218 0.0
C1587 C 0.82558 0.4754 0.31565 0.0
C1588 C 0.85592 0.50025 0.31319 0.0
C1589 C 0.84905 0.53523 0.3073 0.0
C1590 C 0.81184 0.54535 0.30379 0.0
C1591 C 0.62386 0.61561 0.33165 0.0
C1592 C 0.64272 0.65023 0.33456 0.0
C1593 C 0.6369 0.5918 0.32172 0.0
C1594 C 0.66887 0.60213 0.31439 0.0
C1595 C 0.68616 0.63784 0.31669 0.0
C1596 C 0.67311 0.66178 0.32665 0.0
C1597 C 0.68701 0.57338 0.30569 0.0
C1598 C 0.72524 0.56345 0.30807 0.0
C1599 C 0.6657 0.55197 0.29651 0.0
C1600 C 0.62597 0.56284 0.29292 0.0
C1601 C 0.61679 0.60106 0.29016 0.0
C1602 C 0.57922 0.61128 0.28713 0.0
C1603 C 0.55057 0.58347 0.28665 0.0
C1604 C 0.55951 0.54538 0.28915 0.0
C1605 C 0.59693 0.53504 0.29229 0.0
H1606 H 0.5215 0.5914 0.28431 0.0
H1607 H 0.88475 0.49245 0.31589 0.0
H1608 H 0.90091 0.43618 0.51895 0.0
H1609 H 0.85052 0.4164 0.53395 0.0
H1610 H 0.93599 0.36732 0.55861 0.0
H1611 H 0.98632 0.38781 0.54381 0.0
H1612 H 0.86403 0.32228 0.55471 0.0
H1613 H 0.91243 0.44845 0.56667 0.0
H1614 H 0.9288 0.51551 0.56216 0.0
H1615 H 0.81223 0.53779 0.55167 0.0
H1616 H 0.79533 0.47061 0.55593 0.0
H1617 H 0.76338 0.30921 0.61329 0.0
H1618 H 0.81267 0.32379 0.59745 0.0
H1619 H 0.7345 0.39942 0.57826 0.0
H1620 H 0.6856 0.38604 0.59419 0.0
H1621 H 0.80213 0.4296 0.57859 0.0
H1622 H 0.75115 0.30631 0.5674 0.0
H1623 H 0.73265 0.23942 0.57131 0.0
H1624 H 0.84974 0.21076 0.57898 0.0
H1625 H 0.86889 0.27763 0.57531 0.0
C1626 C 0.90867 0.42058 0.52747 0.0
C1627 C 0.94719 0.41358 0.53035 0.0
C1628 C 0.88006 0.40934 0.53599 0.0
C1629 C 0.88976 0.39052 0.54735 0.0
C1630 C 0.92808 0.38167 0.54985 0.0
C1631 C 0.95668 0.3935 0.54147 0.0
C1632 C 0.86052 0.38338 0.55723 0.0
C1633 C 0.8506 0.34559 0.56003 0.0
C1634 C 0.84267 0.41399 0.5639 0.0
C1635 C 0.85273 0.45443 0.56147 0.0
C1636 C 0.89038 0.46756 0.56329 0.0
C1637 C 0.89974 0.5056 0.5608 0.0
C1638 C 0.8716 0.53087 0.55659 0.0
C1639 C 0.83401 0.51817 0.5549 0.0
C1640 C 0.82453 0.48012 0.55736 0.0
C1641 C 0.75686 0.32942 0.60582 0.0
C1642 C 0.7204 0.34621 0.60497 0.0
C1643 C 0.78495 0.33743 0.5967 0.0
C1644 C 0.77691 0.36194 0.58649 0.0
C1645 C 0.74124 0.38019 0.586 0.0
C1646 C 0.7133 0.37251 0.59516 0.0
C1647 C 0.80533 0.3683 0.57619 0.0
C1648 C 0.81524 0.40607 0.57328 0.0
C1649 C 0.8227 0.33759 0.56931 0.0
C1650 C 0.81138 0.29714 0.57126 0.0
C1651 C 0.77292 0.28581 0.57001 0.0
C1652 C 0.76232 0.24789 0.57218 0.0
C1653 C 0.78996 0.22095 0.57551 0.0
C1654 C 0.82833 0.23175 0.5765 0.0
C1655 C 0.83908 0.26964 0.57436 0.0
H1656 H 0.78172 0.19165 0.57725 0.0
H1657 H 0.87889 0.56032 0.55467 0.0
H1658 H 0.83444 0.62643 0.79494 0.0
H1659 H 0.85571 0.58278 0.81136 0.0
H1660 H 0.96575 0.57314 0.79278 0.0
H1661 H 0.94323 0.61319 0.77549 0.0
H1662 H 0.9511 0.50945 0.80132 0.0
H1663 H 0.94645 0.63327 0.82071 0.0
H1664 H 0.91888 0.69559 0.82714 0.0
H1665 H 0.83341 0.63881 0.84952 0.0
H1666 H 0.86015 0.57609 0.84307 0.0
H1667 H 0.04136 0.43796 0.85766 0.0
H1668 H 0.02242 0.48905 0.84307 0.0
H1669 H 0.90404 0.45736 0.84753 0.0
H1670 H 0.92278 0.40556 0.8618 0.0
H1671 H 0.92774 0.54455 0.84701 0.0
H1672 H 0.93573 0.41919 0.82445 0.0
H1673 H 0.9713 0.36044 0.81869 0.0
H1674 H 0.06216 0.42793 0.803 0.0
H1675 H 0.0273 0.4871 0.80885 0.0
C1676 C 0.86281 0.61429 0.79408 0.0
C1677 C 0.88717 0.62393 0.78386 0.0
C1678 C 0.87527 0.58988 0.80369 0.0
C1679 C 0.91284 0.57567 0.8036 0.0
C1680 C 0.93678 0.58409 0.7932 0.0
C1681 C 0.92395 0.60753 0.78337 0.0
C1682 C 0.92714 0.5519 0.81429 0.0
C1683 C 0.94638 0.51764 0.81128 0.0
C1684 C 0.92126 0.56231 0.82737 0.0
C1685 C 0.90511 0.59997 0.83131 0.0
C1686 C 0.92162 0.63406 0.82693 0.0
C1687 C 0.90616 0.66946 0.83059 0.0
C1688 C 0.87436 0.67116 0.83871 0.0
C1689 C 0.85801 0.63745 0.84322 0.0
C1690 C 0.87333 0.60197 0.83957 0.0
C1691 C 0.01125 0.44256 0.85578 0.0
C1692 C 0.98349 0.4178 0.86076 0.0
C1693 C 0.00054 0.47161 0.84746 0.0
C1694 C 0.96193 0.47666 0.84426 0.0
C1695 C 0.93395 0.45381 0.84996 0.0
C1696 C 0.94469 0.42424 0.85804 0.0
C1697 C 0.951 0.50261 0.83389 0.0
C1698 C 0.9325 0.53701 0.837 0.0
C1699 C 0.95862 0.49307 0.82093 0.0
C1700 C 0.97913 0.4575 0.81721 0.0
C1701 C 0.96343 0.42148 0.81987 0.0
C1702 C 0.98343 0.38811 0.81657 0.0
C1703 C 0.01902 0.39044 0.81052 0.0
C1704 C 0.03462 0.42616 0.8077 0.0
C1705 C 0.01474 0.4596 0.811 0.0
H1706 H 0.03447 0.36459 0.80798 0.0
H1707 H 0.86243 0.69859 0.84153 0.0
H1708 H 0.3243 0.49872 0.02611 0.0
H1709 H 0.26611 0.51319 0.0384 0.0
H1710 H 0.32871 0.59579 0.0613 0.0
H1711 H 0.38696 0.58042 0.04949 0.0
H1712 H 0.28325 0.55493 0.07613 0.0
H1713 H 0.27155 0.62146 0.03528 0.0
H1714 H 0.26755 0.62344 0.01165 0.0
H1715 H 0.16922 0.5499 0.01228 0.0
H1716 H 0.17292 0.54722 0.03592 0.0
H1717 H 0.19284 0.71834 0.09203 0.0
H1718 H 0.22083 0.67212 0.07708 0.0
H1719 H 0.12619 0.59554 0.08306 0.0
H1720 H 0.09719 0.64249 0.09815 0.0
H1721 H 0.17206 0.61251 0.05399 0.0
H1722 H 0.17984 0.55824 0.09681 0.0
H1723 H 0.18529 0.56672 0.1203 0.0
H1724 H 0.29304 0.62376 0.11561 0.0
H1725 H 0.28786 0.61622 0.09208 0.0
C1726 C 0.32573 0.51961 0.03388 0.0
C1727 C 0.36025 0.53864 0.03676 0.0
C1728 C 0.29239 0.52801 0.04083 0.0
C1729 C 0.29298 0.55574 0.05072 0.0
C1730 C 0.32754 0.57422 0.05373 0.0
C1731 C 0.36077 0.56576 0.04685 0.0
C1732 C 0.25776 0.56701 0.05779 0.0
C1733 C 0.2586 0.56675 0.07126 0.0
C1734 C 0.22516 0.58183 0.05149 0.0
C1735 C 0.22279 0.58375 0.03732 0.0
C1736 C 0.24924 0.60554 0.03036 0.0
C1737 C 0.247 0.60682 0.01698 0.0
C1738 C 0.21823 0.58671 0.01046 0.0
C1739 C 0.19154 0.56539 0.01733 0.0
C1740 C 0.19368 0.564 0.03072 0.0
C1741 C 0.17748 0.69202 0.09001 0.0
C1742 C 0.14316 0.68368 0.09638 0.0
C1743 C 0.19342 0.66582 0.08141 0.0
C1744 C 0.17569 0.63056 0.07908 0.0
C1745 C 0.1401 0.62283 0.08474 0.0
C1746 C 0.1237 0.64951 0.09334 0.0
C1747 C 0.19819 0.60098 0.07221 0.0
C1748 C 0.19554 0.5984 0.05881 0.0
C1749 C 0.22928 0.58365 0.07854 0.0
C1750 C 0.23344 0.58662 0.0927 0.0
C1751 C 0.20466 0.57263 0.1008 0.0
C1752 C 0.20767 0.57731 0.11412 0.0
C1753 C 0.2395 0.59576 0.11945 0.0
C1754 C 0.26844 0.60942 0.11147 0.0
C1755 C 0.26551 0.60488 0.09814 0.0
H1756 H 0.24171 0.59947 0.12976 0.0
H1757 H 0.21656 0.58771 0.0001 0.0
H1758 H 0.30045 0.49805 0.77472 0.0
H1759 H 0.28354 0.43998 0.78631 0.0
H1760 H 0.27653 0.50551 0.82164 0.0
H1761 H 0.29235 0.56361 0.81017 0.0
H1762 H 0.31312 0.43568 0.8247 0.0
H1763 H 0.19729 0.48625 0.805 0.0
H1764 H 0.15762 0.50605 0.78669 0.0
H1765 H 0.16837 0.39389 0.76968 0.0
H1766 H 0.20851 0.37359 0.78785 0.0
H1767 H 0.17387 0.37625 0.86703 0.0
H1768 H 0.219 0.40314 0.85189 0.0
H1769 H 0.20022 0.30759 0.82595 0.0
H1770 H 0.15444 0.2803 0.84123 0.0
H1771 H 0.18791 0.3757 0.81461 0.0
H1772 H 0.28846 0.32144 0.83808 0.0
H1773 H 0.32591 0.30226 0.85695 0.0
H1774 H 0.34355 0.42022 0.86735 0.0
H1775 H 0.30562 0.44019 0.84868 0.0
C1776 C 0.29522 0.50011 0.78496 0.0
C1777 C 0.29757 0.53559 0.7915 0.0
C1778 C 0.28585 0.46686 0.79156 0.0
C1779 C 0.27874 0.46852 0.80482 0.0
C1780 C 0.28225 0.50358 0.81143 0.0
C1781 C 0.29138 0.53679 0.80484 0.0
C1782 C 0.26508 0.43459 0.8118 0.0
C1783 C 0.28582 0.42237 0.82251 0.0
C1784 C 0.2302 0.41631 0.8086 0.0
C1785 C 0.20634 0.42859 0.79766 0.0
C1786 C 0.1915 0.46594 0.79729 0.0
C1787 C 0.16886 0.47722 0.78696 0.0
C1788 C 0.16061 0.45129 0.777 0.0
C1789 C 0.17488 0.41398 0.77738 0.0
C1790 C 0.19757 0.40258 0.78769 0.0
C1791 C 0.17991 0.36049 0.85823 0.0
C1792 C 0.16034 0.32645 0.85522 0.0
C1793 C 0.20603 0.37572 0.84962 0.0
C1794 C 0.21319 0.35725 0.83782 0.0
C1795 C 0.19522 0.32214 0.83505 0.0
C1796 C 0.1692 0.30658 0.84377 0.0
C1797 C 0.23511 0.37785 0.8279 0.0
C1798 C 0.21591 0.38778 0.8166 0.0
C1799 C 0.27136 0.39405 0.8306 0.0
C1800 C 0.29411 0.38232 0.84194 0.0
C1801 C 0.30008 0.34333 0.84443 0.0
C1802 C 0.32145 0.33231 0.85509 0.0
C1803 C 0.3372 0.36 0.86331 0.0
C1804 C 0.33151 0.3988 0.86092 0.0
C1805 C 0.31008 0.40999 0.85029 0.0
H1806 H 0.35376 0.3514 0.87156 0.0
H1807 H 0.14305 0.46006 0.76901 0.0
H1808 H 0.22941 0.39959 0.54432 0.0
H1809 H 0.27659 0.36804 0.55782 0.0
H1810 H 0.36667 0.40367 0.53228 0.0
H1811 H 0.31914 0.43438 0.5185 0.0
H1812 H 0.37882 0.33278 0.53978 0.0
H1813 H 0.34808 0.45199 0.56063 0.0
H1814 H 0.30618 0.50164 0.57012 0.0
H1815 H 0.26565 0.42179 0.59793 0.0
H1816 H 0.30694 0.37148 0.58849 0.0
H1817 H 0.53466 0.341 0.58442 0.0
H1818 H 0.48337 0.35472 0.56915 0.0
H1819 H 0.40461 0.28871 0.59174 0.0
H1820 H 0.45615 0.27436 0.60696 0.0
H1821 H 0.38407 0.36882 0.58602 0.0
H1822 H 0.42472 0.25221 0.56573 0.0
H1823 H 0.47107 0.20683 0.55616 0.0
H1824 H 0.49839 0.28778 0.52699 0.0
H1825 H 0.45288 0.33397 0.53656 0.0
C1826 C 0.25933 0.40077 0.54163 0.0
C1827 C 0.27089 0.41983 0.53052 0.0
C1828 C 0.28619 0.38272 0.54932 0.0
C1829 C 0.32517 0.38413 0.54617 0.0
C1830 C 0.3367 0.40235 0.53488 0.0
C1831 C 0.30969 0.41997 0.52707 0.0
C1832 C 0.35393 0.36756 0.55487 0.0
C1833 C 0.38024 0.34092 0.54986 0.0
C1834 C 0.3552 0.37768 0.56808 0.0
C1835 C 0.33027 0.40785 0.57376 0.0
C1836 C 0.32998 0.44492 0.5687 0.0
C1837 C 0.30639 0.4732 0.57408 0.0
C1838 C 0.28318 0.46484 0.5846 0.0
C1839 C 0.28358 0.4282 0.58977 0.0
C1840 C 0.30709 0.3998 0.58441 0.0
C1841 C 0.50648 0.32909 0.58602 0.0
C1842 C 0.49914 0.30655 0.59678 0.0
C1843 C 0.4774 0.33669 0.57728 0.0
C1844 C 0.4405 0.32239 0.57932 0.0
C1845 C 0.43313 0.29959 0.59 0.0
C1846 C 0.46246 0.29131 0.59862 0.0
C1847 C 0.40908 0.33445 0.5709 0.0
C1848 C 0.38233 0.36038 0.57596 0.0
C1849 C 0.40807 0.32435 0.55772 0.0
C1850 C 0.4356 0.29667 0.55195 0.0
C1851 C 0.44092 0.26046 0.55736 0.0
C1852 C 0.46696 0.23456 0.55192 0.0
C1853 C 0.48765 0.2444 0.54099 0.0
C1854 C 0.48235 0.28018 0.53547 0.0
C1855 C 0.45642 0.30624 0.5409 0.0
H1856 H 0.50776 0.22428 0.53678 0.0
H1857 H 0.26495 0.48678 0.58875 0.0
H1858 H 0.34182 0.47487 0.28424 0.0
H1859 H 0.37311 0.52724 0.296 0.0
H1860 H 0.4828 0.48944 0.28169 0.0
H1861 H 0.45152 0.43693 0.26985 0.0
H1862 H 0.48069 0.50399 0.30876 0.0
H1863 H 0.45146 0.56732 0.26995 0.0
H1864 H 0.41156 0.58669 0.25164 0.0
H1865 H 0.33361 0.6436 0.27744 0.0
H1866 H 0.37273 0.62409 0.29592 0.0
H1867 H 0.56057 0.67751 0.33671 0.0
H1868 H 0.54489 0.62807 0.32061 0.0
H1869 H 0.42533 0.63981 0.33 0.0
H1870 H 0.44082 0.6881 0.34635 0.0
H1871 H 0.44294 0.63951 0.30302 0.0
H1872 H 0.47059 0.57098 0.34189 0.0
H1873 H 0.51154 0.5526 0.36001 0.0
H1874 H 0.594 0.50487 0.33375 0.0
H1875 H 0.55385 0.52363 0.31547 0.0
C1876 C 0.3726 0.47789 0.28357 0.0
C1877 C 0.39431 0.45196 0.27616 0.0
C1878 C 0.39041 0.50783 0.29023 0.0
C1879 C 0.43026 0.51227 0.28967 0.0
C1880 C 0.45205 0.48654 0.28223 0.0
C1881 C 0.43415 0.45678 0.27541 0.0
C1882 C 0.4487 0.54337 0.29721 0.0
C1883 C 0.47316 0.53374 0.30735 0.0
C1884 C 0.43853 0.58205 0.29541 0.0
C1885 C 0.41491 0.594 0.28433 0.0
C1886 C 0.42564 0.5837 0.27173 0.0
C1887 C 0.40319 0.59476 0.26132 0.0
C1888 C 0.37004 0.6163 0.26338 0.0
C1889 C 0.3593 0.6269 0.27586 0.0
C1890 C 0.38163 0.61589 0.2863 0.0
C1891 C 0.53111 0.66892 0.33555 0.0
C1892 C 0.50214 0.68608 0.34304 0.0
C1893 C 0.52217 0.64105 0.32626 0.0
C1894 C 0.48402 0.63025 0.32422 0.0
C1895 C 0.45496 0.64788 0.33145 0.0
C1896 C 0.46391 0.67537 0.34082 0.0
C1897 C 0.47405 0.60003 0.31474 0.0
C1898 C 0.45109 0.60986 0.30427 0.0
C1899 C 0.48583 0.56162 0.31621 0.0
C1900 C 0.50959 0.54956 0.32726 0.0
C1901 C 0.49769 0.55705 0.33995 0.0
C1902 C 0.52072 0.54645 0.35027 0.0
C1903 C 0.55548 0.52781 0.34804 0.0
C1904 C 0.56714 0.51948 0.33548 0.0
C1905 C 0.54429 0.53018 0.32512 0.0
H1906 H 0.57329 0.51965 0.35604 0.0
H1907 H 0.35271 0.62486 0.25531 0.0
H1908 H 0.32576 0.49297 0.97955 0.0
H1909 H 0.2684 0.4794 0.96674 0.0
H1910 H 0.33234 0.39777 0.94383 0.0
H1911 H 0.38976 0.41218 0.95619 0.0
H1912 H 0.2887 0.44088 0.92894 0.0
H1913 H 0.27277 0.37097 0.96903 0.0
H1914 H 0.26623 0.36717 0.99256 0.0
H1915 H 0.16812 0.44095 0.99144 0.0
H1916 H 0.17436 0.44547 0.96789 0.0
H1917 H 0.19772 0.27968 0.90992 0.0
H1918 H 0.22719 0.32474 0.92483 0.0
H1919 H 0.13041 0.40034 0.92146 0.0
H1920 H 0.10015 0.35476 0.90625 0.0
H1921 H 0.17518 0.3818 0.94929 0.0
H1922 H 0.18597 0.43719 0.90713 0.0
H1923 H 0.19433 0.43212 0.88365 0.0
H1924 H 0.3043 0.37995 0.88887 0.0
H1925 H 0.29636 0.38418 0.91234 0.0
C1926 C 0.32763 0.47244 0.97169 0.0
C1927 C 0.3623 0.45345 0.96894 0.0
C1928 C 0.29478 0.46456 0.96443 0.0
C1929 C 0.29603 0.43745 0.95436 0.0
C1930 C 0.3307 0.41889 0.95154 0.0
C1931 C 0.36344 0.42679 0.95872 0.0
C1932 C 0.26143 0.42708 0.94684 0.0
C1933 C 0.26359 0.42858 0.93341 0.0
C1934 C 0.22817 0.41193 0.95265 0.0
C1935 C 0.22431 0.40895 0.96675 0.0
C1936 C 0.24997 0.38657 0.97382 0.0
C1937 C 0.24629 0.38425 0.98715 0.0
C1938 C 0.21686 0.40392 0.9935 0.0
C1939 C 0.19095 0.42582 0.98651 0.0
C1940 C 0.19453 0.42825 0.97318 0.0
C1941 C 0.18229 0.30562 0.91242 0.0
C1942 C 0.1469 0.31401 0.90673 0.0
C1943 C 0.19913 0.33122 0.92101 0.0
C1944 C 0.1811 0.36585 0.92411 0.0
C1945 C 0.14463 0.3736 0.91914 0.0
C1946 C 0.12749 0.34766 0.91047 0.0
C1947 C 0.2033 0.39455 0.93148 0.0
C1948 C 0.19924 0.39612 0.94486 0.0
C1949 C 0.23502 0.41236 0.92565 0.0
C1950 C 0.2405 0.41096 0.91151 0.0
C1951 C 0.21187 0.42451 0.90326 0.0
C1952 C 0.21654 0.42178 0.88995 0.0
C1953 C 0.24982 0.40569 0.88475 0.0
C1954 C 0.27856 0.39246 0.89288 0.0
C1955 C 0.27402 0.39509 0.90619 0.0
H1956 H 0.25333 0.40349 0.87445 0.0
H1957 H 0.21407 0.4021 0.00382 0.0
H1958 H 0.42927 0.58684 0.71022 0.0
H1959 H 0.45494 0.53631 0.69621 0.0
H1960 H 0.41418 0.45104 0.72245 0.0
H1961 H 0.38968 0.50197 0.73678 0.0
H1962 H 0.48104 0.42902 0.7121 0.0
H1963 H 0.36159 0.47557 0.69624 0.0
H1964 H 0.31519 0.52417 0.68929 0.0
H1965 H 0.39097 0.55734 0.65897 0.0
H1966 H 0.43811 0.50931 0.66587 0.0
H1967 H 0.46101 0.2777 0.6656 0.0
H1968 H 0.44495 0.32882 0.68105 0.0
H1969 H 0.51129 0.40879 0.65915 0.0
H1970 H 0.52798 0.35753 0.64375 0.0
H1971 H 0.433 0.43264 0.66727 0.0
H1972 H 0.55137 0.38182 0.68346 0.0
H1973 H 0.5927 0.32809 0.6897 0.0
H1974 H 0.51296 0.29816 0.71926 0.0
H1975 H 0.47079 0.35135 0.713 0.0
C1976 C 0.42627 0.55729 0.71305 0.0
C1977 C 0.40716 0.54806 0.72444 0.0
C1978 C 0.44084 0.52849 0.70506 0.0
C1979 C 0.43565 0.48988 0.70814 0.0
C1980 C 0.41833 0.48064 0.71987 0.0
C1981 C 0.40428 0.50962 0.72801 0.0
C1982 C 0.44582 0.45947 0.69866 0.0
C1983 C 0.47025 0.42967 0.70235 0.0
C1984 C 0.43194 0.46036 0.68588 0.0
C1985 C 0.40353 0.4891 0.68165 0.0
C1986 C 0.36848 0.49342 0.68814 0.0
C1987 C 0.34203 0.52084 0.68421 0.0
C1988 C 0.35017 0.5439 0.67372 0.0
C1989 C 0.38473 0.5395 0.66711 0.0
C1990 C 0.41132 0.51217 0.67102 0.0
C1991 C 0.47206 0.30623 0.66408 0.0
C1992 C 0.49606 0.31378 0.65361 0.0
C1993 C 0.46299 0.33525 0.6729 0.0
C1994 C 0.47727 0.3723 0.67123 0.0
C1995 C 0.50033 0.3802 0.66059 0.0
C1996 C 0.51004 0.35098 0.65189 0.0
C1997 C 0.46827 0.40272 0.68071 0.0
C1998 C 0.44392 0.43232 0.67702 0.0
C1999 C 0.4817 0.40125 0.69349 0.0
C2000 C 0.50779 0.37036 0.69768 0.0
C2001 C 0.54254 0.3636 0.69122 0.0
C2002 C 0.56606 0.33319 0.69473 0.0
C2003 C 0.55533 0.30954 0.70481 0.0
C2004 C 0.52115 0.31641 0.71143 0.0
C2005 C 0.49744 0.34672 0.7079 0.0
H2006 H 0.57364 0.28609 0.70756 0.0
H2007 H 0.32966 0.56511 0.67068 0.0
H2008 H 0.2538 0.6184 0.46908 0.0
H2009 H 0.30373 0.65052 0.45682 0.0
H2010 H 0.34677 0.54096 0.44377 0.0
H2011 H 0.29718 0.50871 0.45614 0.0
H2012 H 0.40407 0.58844 0.45118 0.0
H2013 H 0.28941 0.59519 0.42556 0.0
H2014 H 0.22269 0.61296 0.42091 0.0
H2015 H 0.25099 0.73184 0.42566 0.0
H2016 H 0.3178 0.71476 0.43046 0.0
H2017 H 0.50312 0.62098 0.39366 0.0
H2018 H 0.45461 0.60257 0.40926 0.0
H2019 H 0.44234 0.72024 0.4215 0.0
H2020 H 0.49194 0.73884 0.40614 0.0
H2021 H 0.37077 0.67799 0.4164 0.0
H2022 H 0.48528 0.67189 0.44101 0.0
H2023 H 0.55239 0.65474 0.44535 0.0
H2024 H 0.52423 0.53547 0.44198 0.0
H2025 H 0.45702 0.55194 0.43742 0.0
C2026 C 0.27425 0.6012 0.46373 0.0
C2027 C 0.27163 0.56107 0.46354 0.0
C2028 C 0.3026 0.61959 0.45666 0.0
C2029 C 0.32882 0.59814 0.44932 0.0
C2030 C 0.32678 0.55805 0.44936 0.0
C2031 C 0.29833 0.53967 0.45636 0.0
C2032 C 0.35823 0.6171 0.44141 0.0
C2033 C 0.39672 0.60781 0.44353 0.0
C2034 C 0.34868 0.64337 0.43168 0.0
C2035 C 0.30848 0.65362 0.42869 0.0
C2036 C 0.28133 0.6251 0.42579 0.0
C2037 C 0.2435 0.63506 0.42307 0.0
C2038 C 0.23254 0.67349 0.42307 0.0
C2039 C 0.25945 0.70206 0.42573 0.0
C2040 C 0.29731 0.69225 0.42846 0.0
C2041 C 0.49012 0.64304 0.39963 0.0
C2042 C 0.50095 0.68157 0.39851 0.0
C2043 C 0.46242 0.63245 0.40853 0.0
C2044 C 0.44496 0.66014 0.41645 0.0
C2045 C 0.45528 0.69864 0.41532 0.0
C2046 C 0.48333 0.70922 0.40648 0.0
C2047 C 0.4162 0.64831 0.42598 0.0
C2048 C 0.37797 0.65898 0.42417 0.0
C2049 C 0.42586 0.62327 0.43598 0.0
C2050 C 0.46619 0.61317 0.43876 0.0
C2051 C 0.49346 0.64201 0.44108 0.0
C2052 C 0.53151 0.63242 0.44361 0.0
C2053 C 0.54259 0.59404 0.44391 0.0
C2054 C 0.51561 0.56518 0.44173 0.0
C2055 C 0.47753 0.57463 0.43919 0.0
H2056 H 0.57206 0.58666 0.44587 0.0
H2057 H 0.20324 0.68114 0.42096 0.0
H2058 H 0.30365 0.47046 0.20789 0.0
H2059 H 0.28369 0.52855 0.19717 0.0
H2060 H 0.18656 0.53826 0.22261 0.0
H2061 H 0.20509 0.47879 0.23288 0.0
H2062 H 0.16323 0.54428 0.19979 0.0
H2063 H 0.26131 0.60532 0.22304 0.0
H2064 H 0.32526 0.61545 0.23242 0.0
H2065 H 0.37385 0.62282 0.19468 0.0
H2066 H 0.31029 0.61207 0.18504 0.0
H2067 H 0.14324 0.72688 0.1622 0.0
H2068 H 0.17522 0.6972 0.18057 0.0
H2069 H 0.18618 0.59179 0.15886 0.0
H2070 H 0.15471 0.6209 0.1406 0.0
H2071 H 0.24754 0.64859 0.18463 0.0
H2072 H 0.13437 0.52871 0.17717 0.0
H2073 H 0.06828 0.52227 0.16912 0.0
H2074 H 0.04616 0.63992 0.17892 0.0
H2075 H 0.11178 0.64685 0.18726 0.0
C2076 C 0.27804 0.48494 0.21122 0.0
C2077 C 0.25569 0.46962 0.22113 0.0
C2078 C 0.26703 0.51862 0.20523 0.0
C2079 C 0.2338 0.5381 0.20916 0.0
C2080 C 0.21239 0.52382 0.21944 0.0
C2081 C 0.22316 0.48989 0.22535 0.0
C2082 C 0.21901 0.57028 0.20147 0.0
C2083 C 0.18159 0.56739 0.19669 0.0
C2084 C 0.24254 0.60108 0.1976 0.0
C2085 C 0.28096 0.60769 0.20331 0.0
C2086 C 0.28565 0.60882 0.21673 0.0
C2087 C 0.32185 0.61472 0.22209 0.0
C2088 C 0.3536 0.61974 0.21415 0.0
C2089 C 0.34921 0.61894 0.20082 0.0
C2090 C 0.31308 0.613 0.1954 0.0
C2091 C 0.1536 0.69778 0.16123 0.0
C2092 C 0.14578 0.67589 0.1501 0.0
C2093 C 0.17185 0.68094 0.17171 0.0
C2094 C 0.18234 0.64222 0.17107 0.0
C2095 C 0.17784 0.62161 0.15954 0.0
C2096 C 0.15972 0.63826 0.14914 0.0
C2097 C 0.19278 0.62114 0.18272 0.0
C2098 C 0.22919 0.62598 0.18811 0.0
C2099 C 0.16802 0.59272 0.18749 0.0
C2100 C 0.12818 0.5884 0.18271 0.0
C2101 C 0.11535 0.55314 0.17767 0.0
C2102 C 0.07795 0.54941 0.17305 0.0
C2103 C 0.0531 0.58072 0.17347 0.0
C2104 C 0.0655 0.61575 0.17855 0.0
C2105 C 0.1028 0.6196 0.18321 0.0
H2106 H 0.02418 0.57788 0.16991 0.0
H2107 H 0.3816 0.6243 0.21833 0.0
loop_
_geom_bond_atom_site_label_1
_geom_bond_atom_site_label_2
_geom_bond_distance
_geom_bond_site_symmetry_2
_ccdc_geom_bond_type
H0 C19 0.949 . S
H1 C20 0.950 . S
H2 C22 0.950 1_545 S
H3 C23 0.978 . S
H4 C25 0.950 . S
H5 C28 0.950 1_565 S
H6 C29 0.950 . S
H7 C31 0.951 . S
H8 C32 0.949 . S
H9 C34 0.949 . S
H10 C35 0.950 . S
H11 C37 0.950 1_565 S
H12 C38 0.953 1_565 S
H13 C40 0.950 . S
H14 C43 0.950 1_545 S
H15 C44 0.952 . S
H16 C46 0.951 . S
H17 C47 0.949 . S
C18 C19 1.376 . S
C18 C23 1.367 1_565 S
C18 C24 1.483 . S
C19 H0 0.949 . S
C19 C18 1.376 . S
C19 C20 1.397 . S
C20 H1 0.950 . S
C20 C19 1.397 . S
C20 C21 1.391 . S
C21 C20 1.391 . S
C21 C22 1.405 . S
C22 H2 0.950 1_565 S
C22 C21 1.405 . S
C22 C23 1.359 1_565 S
C23 H3 0.978 . S
C23 C18 1.367 1_545 S
C23 C22 1.359 1_545 S
C24 C18 1.483 . S
C24 C25 1.382 1_655 S
C24 C26 1.403 1_565 S
C25 H4 0.950 . S
C25 C24 1.382 1_455 S
C25 C41 1.411 . S
C26 C24 1.403 1_545 S
C26 C27 1.489 . S
C26 C40 1.411 1_655 S
C27 C26 1.489 . S
C27 C28 1.383 . S
C27 C32 1.382 . S
C28 H5 0.950 1_545 S
C28 C27 1.383 . S
C28 C29 1.395 . S
C29 H6 0.950 . S
C29 C28 1.395 . S
C29 C30 1.288 . S
C30 C29 1.288 . S
C30 C31 1.392 . S
C31 H7 0.951 . S
C31 C30 1.392 . S
C31 C32 1.392 . S
C32 H8 0.949 . S
C32 C27 1.382 . S
C32 C31 1.392 . S
C33 C34 1.376 . S
C33 C38 1.384 . S
C33 C39 1.483 . S
C34 H9 0.949 . S
C34 C33 1.376 . S
C34 C35 1.397 . S
C35 H10 0.950 . S
C35 C34 1.397 . S
C35 C36 1.391 . S
C36 C35 1.391 . S
C36 C37 1.405 . S
C37 H11 0.950 1_545 S
C37 C36 1.405 . S
C37 C38 1.366 . S
C38 H12 0.953 1_545 S
C38 C33 1.384 . S
C38 C37 1.366 . S
C39 C33 1.483 . S
C39 C40 1.382 . S
C39 C41 1.403 1_545 S
C40 H13 0.950 . S
C40 C26 1.411 1_455 S
C40 C39 1.382 . S
C41 C25 1.411 . S
C41 C39 1.403 1_565 S
C41 C42 1.489 . S
C42 C41 1.489 . S
C42 C43 1.383 . S
C42 C47 1.382 . S
C43 H14 0.950 1_565 S
C43 C42 1.383 . S
C43 C44 1.395 . S
C44 H15 0.952 . S
C44 C43 1.395 . S
C44 C45 1.288 . S
C45 C44 1.288 . S
C45 C46 1.392 . S
C46 H16 0.951 . S
C46 C45 1.392 . S
C46 C47 1.392 . S
C47 H17 0.949 . S
C47 C42 1.382 . S
C47 C46 1.392 . S
H48 C67 0.949 . S
H49 C68 0.950 . S
H50 C70 0.950 . S
H51 C71 0.950 . S
H52 C73 0.950 . S
H53 C76 0.950 . S
H54 C77 0.950 . S
H55 C79 0.951 . S
H56 C80 0.949 . S
H57 C82 0.949 . S
H58 C83 0.950 . S
H59 C85 0.950 . S
H60 C86 0.950 . S
H61 C88 0.950 . S
H62 C91 0.950 . S
H63 C92 0.950 . S
H64 C94 0.951 . S
H65 C95 0.949 . S
C66 C67 1.376 . S
C66 C71 1.386 . S
C66 C72 1.483 . S
C67 H48 0.949 . S
C67 C66 1.376 . S
C67 C68 1.397 . S
C68 H49 0.950 . S
C68 C67 1.397 . S
C68 C69 1.391 . S
C69 C68 1.391 . S
C69 C70 1.405 . S
C70 H50 0.950 . S
C70 C69 1.405 . S
C70 C71 1.367 . S
C71 H51 0.950 . S
C71 C66 1.386 . S
C71 C70 1.367 . S
C72 C66 1.483 . S
C72 C73 1.382 . S
C72 C74 1.403 . S
C73 H52 0.950 . S
C73 C72 1.382 . S
C73 C89 1.411 . S
C74 C72 1.403 . S
C74 C75 1.489 . S
C74 C88 1.411 . S
C75 C74 1.489 . S
C75 C76 1.383 . S
C75 C80 1.382 . S
C76 H53 0.950 . S
C76 C75 1.383 . S
C76 C77 1.395 . S
C77 H54 0.950 . S
C77 C76 1.395 . S
C77 C78 1.288 . S
C78 C77 1.288 . S
C78 C79 1.392 . S
C79 H55 0.951 . S
C79 C78 1.392 . S
C79 C80 1.392 . S
C80 H56 0.949 . S
C80 C75 1.382 . S
C80 C79 1.392 . S
C81 C82 1.376 . S
C81 C86 1.386 . S
C81 C87 1.483 . S
C82 H57 0.949 . S
C82 C81 1.376 . S
C82 C83 1.397 . S
C83 H58 0.950 . S
C83 C82 1.397 . S
C83 C84 1.391 . S
C84 C83 1.391 . S
C84 C85 1.405 . S
C85 H59 0.950 . S
C85 C84 1.405 . S
C85 C86 1.367 . S
C86 H60 0.950 . S
C86 C81 1.386 . S
C86 C85 1.367 . S
C87 C81 1.483 . S
C87 C88 1.382 . S
C87 C89 1.403 . S
C88 H61 0.950 . S
C88 C74 1.411 . S
C88 C87 1.382 . S
C89 C73 1.411 . S
C89 C87 1.403 . S
C89 C90 1.489 . S
C90 C89 1.489 . S
C90 C91 1.383 . S
C90 C95 1.382 . S
C91 H62 0.950 . S
C91 C90 1.383 . S
C91 C92 1.395 . S
C92 H63 0.950 . S
C92 C91 1.395 . S
C92 C93 1.288 . S
C93 C92 1.288 . S
C93 C94 1.392 . S
C94 H64 0.951 . S
C94 C93 1.392 . S
C94 C95 1.392 . S
C95 H65 0.949 . S
C95 C90 1.382 . S
C95 C94 1.392 . S
H96 C115 0.949 1_545 S
H97 C116 0.950 . S
H98 C118 0.950 . S
H99 C119 0.950 1_556 S
H100 C121 0.950 . S
H101 C124 0.950 1_554 S
H102 C125 0.950 . S
H103 C127 0.951 . S
H104 C128 0.949 1_565 S
H105 C130 0.949 1_565 S
H106 C131 0.950 . S
H107 C133 0.950 . S
H108 C134 0.950 1_554 S
H109 C136 0.950 . S
H110 C139 0.904 1_556 S
H111 C140 0.950 . S
H112 C142 0.951 . S
H113 C143 0.949 1_545 S
C114 C115 1.376 . S
C114 C119 1.386 . S
C114 C120 1.483 . S
C115 H96 0.949 1_565 S
C115 C114 1.376 . S
C115 C116 1.397 . S
C116 H97 0.950 . S
C116 C115 1.397 . S
C116 C117 1.391 . S
C117 C116 1.391 . S
C117 C118 1.405 . S
C118 H98 0.950 . S
C118 C117 1.405 . S
C118 C119 1.367 . S
C119 H99 0.950 1_554 S
C119 C114 1.386 . S
C119 C118 1.367 . S
C120 C114 1.483 . S
C120 C121 1.382 . S
C120 C122 1.403 1_564 S
C121 H100 0.950 . S
C121 C120 1.382 . S
C121 C137 1.411 . S
C122 C120 1.403 1_546 S
C122 C123 1.489 . S
C122 C136 1.411 . S
C123 C122 1.489 . S
C123 C124 1.383 . S
C123 C128 1.382 . S
C124 H101 0.950 1_556 S
C124 C123 1.383 . S
C124 C125 1.395 . S
C125 H102 0.950 . S
C125 C124 1.395 . S
C125 C126 1.288 . S
C126 C125 1.288 . S
C126 C127 1.392 . S
C127 H103 0.951 . S
C127 C126 1.392 . S
C127 C128 1.392 . S
C128 H104 0.949 1_545 S
C128 C123 1.382 . S
C128 C127 1.392 . S
C129 C130 1.376 . S
C129 C134 1.386 . S
C129 C135 1.483 . S
C130 H105 0.949 1_545 S
C130 C129 1.376 . S
C130 C131 1.397 . S
C131 H106 0.950 . S
C131 C130 1.397 . S
C131 C132 1.391 . S
C132 C131 1.391 . S
C132 C133 1.405 . S
C133 H107 0.950 . S
C133 C132 1.405 . S
C133 C134 1.367 . S
C134 H108 0.950 1_556 S
C134 C129 1.386 . S
C134 C133 1.367 . S
C135 C129 1.483 . S
C135 C136 1.382 . S
C135 C137 1.403 1_546 S
C136 H109 0.950 . S
C136 C122 1.411 . S
C136 C135 1.382 . S
C137 C121 1.411 . S
C137 C135 1.403 1_564 S
C137 C138 1.489 . S
C138 C137 1.489 . S
C138 C139 1.383 . S
C138 C143 1.382 . S
C139 H110 0.904 1_554 S
C139 C138 1.383 . S
C139 C140 1.395 . S
C140 H111 0.950 . S
C140 C139 1.395 . S
C140 C141 1.288 . S
C141 C140 1.288 . S
C141 C142 1.392 . S
C142 H112 0.951 . S
C142 C141 1.392 . S
C142 C143 1.392 . S
C143 H113 0.949 1_565 S
C143 C138 1.382 . S
C143 C142 1.392 . S
H144 C163 0.949 . S
H145 C164 0.950 . S
H146 C166 0.950 . S
H147 C167 0.950 . S
H148 C169 0.950 . S
H149 C172 0.950 . S
H150 C173 0.950 . S
H151 C175 0.951 . S
H152 C176 0.949 . S
H153 C178 0.949 . S
H154 C179 0.950 . S
H155 C181 0.950 . S
H156 C182 0.950 . S
H157 C184 0.950 . S
H158 C187 0.950 . S
H159 C188 0.950 . S
H160 C190 0.951 . S
H161 C191 0.949 . S
C162 C163 1.376 . S
C162 C167 1.386 . S
C162 C168 1.483 . S
C163 H144 0.949 . S
C163 C162 1.376 . S
C163 C164 1.397 . S
C164 H145 0.950 . S
C164 C163 1.397 . S
C164 C165 1.391 . S
C165 C164 1.391 . S
C165 C166 1.405 . S
C166 H146 0.950 . S
C166 C165 1.405 . S
C166 C167 1.367 . S
C167 H147 0.950 . S
C167 C162 1.386 . S
C167 C166 1.367 . S
C168 C162 1.483 . S
C168 C169 1.382 . S
C168 C170 1.403 . S
C169 H148 0.950 . S
C169 C168 1.382 . S
C169 C185 1.411 . S
C170 C168 1.403 . S
C170 C171 1.489 . S
C170 C184 1.411 . S
C171 C170 1.489 . S
C171 C172 1.383 . S
C171 C176 1.382 . S
C172 H149 0.950 . S
C172 C171 1.383 . S
C172 C173 1.395 . S
C173 H150 0.950 . S
C173 C172 1.395 . S
C173 C174 1.288 . S
C174 C173 1.288 . S
C174 C175 1.392 . S
C175 H151 0.951 . S
C175 C174 1.392 . S
C175 C176 1.392 . S
C176 H152 0.949 . S
C176 C171 1.382 . S
C176 C175 1.392 . S
C177 C178 1.376 . S
C177 C182 1.386 . S
C177 C183 1.483 . S
C178 H153 0.949 . S
C178 C177 1.376 . S
C178 C179 1.397 . S
C179 H154 0.950 . S
C179 C178 1.397 . S
C179 C180 1.391 . S
C180 C179 1.391 . S
C180 C181 1.405 . S
C181 H155 0.950 . S
C181 C180 1.405 . S
C181 C182 1.367 . S
C182 H156 0.950 . S
C182 C177 1.386 . S
C182 C181 1.367 . S
C183 C177 1.483 . S
C183 C184 1.382 . S
C183 C185 1.403 . S
C184 H157 0.950 . S
C184 C170 1.411 . S
C184 C183 1.382 . S
C185 C169 1.411 . S
C185 C183 1.403 . S
C185 C186 1.489 . S
C186 C185 1.489 . S
C186 C187 1.383 . S
C186 C191 1.382 . S
C187 H158 0.950 . S
C187 C186 1.383 . S
C187 C188 1.395 . S
C188 H159 0.950 . S
C188 C187 1.395 . S
C188 C189 1.288 . S
C189 C188 1.288 . S
C189 C190 1.392 . S
C190 H160 0.951 . S
C190 C189 1.392 . S
C190 C191 1.392 . S
C191 H161 0.949 . S
C191 C186 1.382 . S
C191 C190 1.392 . S
H192 C211 0.949 . S
H193 C212 0.950 . S
H194 C214 0.950 . S
H195 C215 0.950 . S
H196 C217 0.950 . S
H197 C220 0.950 . S
H198 C221 0.950 . S
H199 C223 0.951 . S
H200 C224 0.949 . S
H201 C226 0.949 . S
H202 C227 0.950 . S
H203 C229 0.950 . S
H204 C230 0.950 . S
H205 C232 0.950 . S
H206 C235 0.950 . S
H207 C236 0.950 . S
H208 C238 0.951 . S
H209 C239 0.949 . S
C210 C211 1.376 . S
C210 C215 1.386 . S
C210 C216 1.483 . S
C211 H192 0.949 . S
C211 C210 1.376 . S
C211 C212 1.397 . S
C212 H193 0.950 . S
C212 C211 1.397 . S
C212 C213 1.391 . S
C213 C212 1.391 . S
C213 C214 1.405 . S
C214 H194 0.950 . S
C214 C213 1.405 . S
C214 C215 1.367 . S
C215 H195 0.950 . S
C215 C210 1.386 . S
C215 C214 1.367 . S
C216 C210 1.483 . S
C216 C217 1.382 . S
C216 C218 1.403 . S
C217 H196 0.950 . S
C217 C216 1.382 . S
C217 C233 1.411 . S
C218 C216 1.403 . S
C218 C219 1.489 . S
C218 C232 1.411 . S
C219 C218 1.489 . S
C219 C220 1.383 . S
C219 C224 1.382 . S
C220 H197 0.950 . S
C220 C219 1.383 . S
C220 C221 1.395 . S
C221 H198 0.950 . S
C221 C220 1.395 . S
C221 C222 1.288 . S
C222 C221 1.288 . S
C222 C223 1.392 . S
C223 H199 0.951 . S
C223 C222 1.392 . S
C223 C224 1.392 . S
C224 H200 0.949 . S
C224 C219 1.382 . S
C224 C223 1.392 . S
C225 C226 1.376 . S
C225 C230 1.386 . S
C225 C231 1.483 . S
C226 H201 0.949 . S
C226 C225 1.376 . S
C226 C227 1.397 . S
C227 H202 0.950 . S
C227 C226 1.397 . S
C227 C228 1.391 . S
C228 C227 1.391 . S
C228 C229 1.405 . S
C229 H203 0.950 . S
C229 C228 1.405 . S
C229 C230 1.367 . S
C230 H204 0.950 . S
C230 C225 1.386 . S
C230 C229 1.367 . S
C231 C225 1.483 . S
C231 C232 1.382 . S
C231 C233 1.403 . S
C232 H205 0.950 . S
C232 C218 1.411 . S
C232 C231 1.382 . S
C233 C217 1.411 . S
C233 C231 1.403 . S
C233 C234 1.489 . S
C234 C233 1.489 . S
C234 C235 1.383 . S
C234 C239 1.382 . S
C235 H206 0.950 . S
C235 C234 1.383 . S
C235 C236 1.395 . S
C236 H207 0.950 . S
C236 C235 1.395 . S
C236 C237 1.288 . S
C237 C236 1.288 . S
C237 C238 1.392 . S
C238 H208 0.951 . S
C238 C237 1.392 . S
C238 C239 1.392 . S
C239 H209 0.949 . S
C239 C234 1.382 . S
C239 C238 1.392 . S
H240 C259 0.949 . S
H241 C260 0.950 . S
H242 C262 0.950 . S
H243 C263 0.950 . S
H244 C265 0.950 . S
H245 C268 0.950 . S
H246 C269 0.950 . S
H247 C271 0.951 . S
H248 C272 0.949 . S
H249 C274 0.949 . S
H250 C275 0.950 . S
H251 C277 0.950 . S
H252 C278 0.950 . S
H253 C280 0.950 . S
H254 C283 0.950 . S
H255 C284 0.950 . S
H256 C286 0.951 . S
H257 C287 0.949 . S
C258 C259 1.376 . S
C258 C263 1.386 . S
C258 C264 1.483 . S
C259 H240 0.949 . S
C259 C258 1.376 . S
C259 C260 1.397 . S
C260 H241 0.950 . S
C260 C259 1.397 . S
C260 C261 1.391 . S
C261 C260 1.391 . S
C261 C262 1.405 . S
C262 H242 0.950 . S
C262 C261 1.405 . S
C262 C263 1.367 . S
C263 H243 0.950 . S
C263 C258 1.386 . S
C263 C262 1.367 . S
C264 C258 1.483 . S
C264 C265 1.382 . S
C264 C266 1.403 . S
C265 H244 0.950 . S
C265 C264 1.382 . S
C265 C281 1.411 . S
C266 C264 1.403 . S
C266 C267 1.489 . S
C266 C280 1.411 . S
C267 C266 1.489 . S
C267 C268 1.383 . S
C267 C272 1.382 . S
C268 H245 0.950 . S
C268 C267 1.383 . S
C268 C269 1.395 . S
C269 H246 0.950 . S
C269 C268 1.395 . S
C269 C270 1.288 . S
C270 C269 1.288 . S
C270 C271 1.392 . S
C271 H247 0.951 . S
C271 C270 1.392 . S
C271 C272 1.392 . S
C272 H248 0.949 . S
C272 C267 1.382 . S
C272 C271 1.392 . S
C273 C274 1.376 . S
C273 C278 1.386 . S
C273 C279 1.483 . S
C274 H249 0.949 . S
C274 C273 1.376 . S
C274 C275 1.397 . S
C275 H250 0.950 . S
C275 C274 1.397 . S
C275 C276 1.391 . S
C276 C275 1.391 . S
C276 C277 1.405 . S
C277 H251 0.950 . S
C277 C276 1.405 . S
C277 C278 1.367 . S
C278 H252 0.950 . S
C278 C273 1.386 . S
C278 C277 1.367 . S
C279 C273 1.483 . S
C279 C280 1.382 . S
C279 C281 1.403 . S
C280 H253 0.950 . S
C280 C266 1.411 . S
C280 C279 1.382 . S
C281 C265 1.411 . S
C281 C279 1.403 . S
C281 C282 1.489 . S
C282 C281 1.489 . S
C282 C283 1.383 . S
C282 C287 1.382 . S
C283 H254 0.950 . S
C283 C282 1.383 . S
C283 C284 1.395 . S
C284 H255 0.950 . S
C284 C283 1.395 . S
C284 C285 1.288 . S
C285 C284 1.288 . S
C285 C286 1.392 . S
C286 H256 0.951 . S
C286 C285 1.392 . S
C286 C287 1.392 . S
C287 H257 0.949 . S
C287 C282 1.382 . S
C287 C286 1.392 . S
H288 C307 0.949 . S
H289 C308 0.950 . S
H290 C310 0.950 . S
H291 C311 0.950 . S
H292 C313 0.950 . S
H293 C316 0.950 . S
H294 C317 0.950 . S
H295 C319 0.951 . S
H296 C320 0.949 . S
H297 C322 0.949 . S
H298 C323 0.950 . S
H299 C325 0.950 . S
H300 C326 0.950 . S
H301 C328 0.950 . S
H302 C331 0.950 . S
H303 C332 0.950 . S
H304 C334 0.951 . S
H305 C335 0.949 . S
C306 C307 1.376 . S
C306 C311 1.386 . S
C306 C312 1.483 . S
C307 H288 0.949 . S
C307 C306 1.376 . S
C307 C308 1.397 . S
C308 H289 0.950 . S
C308 C307 1.397 . S
C308 C309 1.391 . S
C309 C308 1.391 . S
C309 C310 1.405 . S
C310 H290 0.950 . S
C310 C309 1.405 . S
C310 C311 1.367 . S
C311 H291 0.950 . S
C311 C306 1.386 . S
C311 C310 1.367 . S
C312 C306 1.483 . S
C312 C313 1.382 . S
C312 C314 1.403 1_556 S
C313 H292 0.950 . S
C313 C312 1.382 . S
C313 C329 1.411 . S
C314 C312 1.403 1_554 S
C314 C315 1.489 . S
C314 C328 1.411 . S
C315 C314 1.489 . S
C315 C316 1.383 . S
C315 C320 1.382 . S
C316 H293 0.950 . S
C316 C315 1.383 . S
C316 C317 1.395 . S
C317 H294 0.950 . S
C317 C316 1.395 . S
C317 C318 1.288 . S
C318 C317 1.288 . S
C318 C319 1.392 . S
C319 H295 0.951 . S
C319 C318 1.392 . S
C319 C320 1.392 . S
C320 H296 0.949 . S
C320 C315 1.382 . S
C320 C319 1.392 . S
C321 C322 1.376 . S
C321 C326 1.386 . S
C321 C327 1.483 . S
C322 H297 0.949 . S
C322 C321 1.376 . S
C322 C323 1.397 . S
C323 H298 0.950 . S
C323 C322 1.397 . S
C323 C324 1.391 . S
C324 C323 1.391 . S
C324 C325 1.405 . S
C325 H299 0.950 . S
C325 C324 1.405 . S
C325 C326 1.367 . S
C326 H300 0.950 . S
C326 C321 1.386 . S
C326 C325 1.367 . S
C327 C321 1.483 . S
C327 C328 1.382 . S
C327 C329 1.403 1_554 S
C328 H301 0.950 . S
C328 C314 1.411 . S
C328 C327 1.382 . S
C329 C313 1.411 . S
C329 C327 1.403 1_556 S
C329 C330 1.489 . S
C330 C329 1.489 . S
C330 C331 1.383 . S
C330 C335 1.382 . S
C331 H302 0.950 . S
C331 C330 1.383 . S
C331 C332 1.395 . S
C332 H303 0.950 . S
C332 C331 1.395 . S
C332 C333 1.288 . S
C333 C332 1.288 . S
C333 C334 1.392 . S
C334 H304 0.951 . S
C334 C333 1.392 . S
C334 C335 1.392 . S
C335 H305 0.949 . S
C335 C330 1.382 . S
C335 C334 1.392 . S
H336 C355 0.949 . S
H337 C356 0.950 . S
H338 C358 0.950 1_655 S
H339 C359 0.950 . S
H340 C361 0.950 . S
H341 C364 0.950 . S
H342 C365 0.950 1_655 S
H343 C367 0.951 . S
H344 C368 0.949 . S
H345 C370 0.949 . S
H346 C371 0.950 . S
H347 C373 0.950 . S
H348 C374 0.950 . S
H349 C376 0.950 . S
H350 C379 0.950 . S
H351 C380 0.950 . S
H352 C382 0.951 . S
H353 C383 0.949 . S
C354 C355 1.376 . S
C354 C359 1.386 . S
C354 C360 1.483 . S
C355 H336 0.949 . S
C355 C354 1.376 . S
C355 C356 1.397 . S
C356 H337 0.950 . S
C356 C355 1.397 . S
C356 C357 1.391 . S
C357 C356 1.391 . S
C357 C358 1.405 . S
C358 H338 0.950 1_455 S
C358 C357 1.405 . S
C358 C359 1.367 . S
C359 H339 0.950 . S
C359 C354 1.386 . S
C359 C358 1.367 . S
C360 C354 1.483 . S
C360 C361 1.382 . S
C360 C362 1.403 . S
C361 H340 0.950 . S
C361 C360 1.382 . S
C361 C377 1.411 . S
C362 C360 1.403 . S
C362 C363 1.489 . S
C362 C376 1.411 . S
C363 C362 1.489 . S
C363 C364 1.383 . S
C363 C368 1.382 . S
C364 H341 0.950 . S
C364 C363 1.383 . S
C364 C365 1.395 . S
C365 H342 0.950 1_455 S
C365 C364 1.395 . S
C365 C366 1.288 . S
C366 C365 1.288 . S
C366 C367 1.392 . S
C367 H343 0.951 . S
C367 C366 1.392 . S
C367 C368 1.392 . S
C368 H344 0.949 . S
C368 C363 1.382 . S
C368 C367 1.392 . S
C369 C370 1.376 . S
C369 C374 1.386 . S
C369 C375 1.483 . S
C370 H345 0.949 . S
C370 C369 1.376 . S
C370 C371 1.397 . S
C371 H346 0.950 . S
C371 C370 1.397 . S
C371 C372 1.391 . S
C372 C371 1.391 . S
C372 C373 1.405 . S
C373 H347 0.950 . S
C373 C372 1.405 . S
C373 C374 1.367 . S
C374 H348 0.950 . S
C374 C369 1.386 . S
C374 C373 1.367 . S
C375 C369 1.483 . S
C375 C376 1.382 . S
C375 C377 1.403 . S
C376 H349 0.950 . S
C376 C362 1.411 . S
C376 C375 1.382 . S
C377 C361 1.411 . S
C377 C375 1.403 . S
C377 C378 1.489 . S
C378 C377 1.489 . S
C378 C379 1.383 . S
C378 C383 1.382 . S
C379 H350 0.950 . S
C379 C378 1.383 . S
C379 C380 1.395 . S
C380 H351 0.950 . S
C380 C379 1.395 . S
C380 C381 1.288 . S
C381 C380 1.288 . S
C381 C382 1.392 . S
C382 H352 0.951 . S
C382 C381 1.392 . S
C382 C383 1.392 . S
C383 H353 0.949 . S
C383 C378 1.382 . S
C383 C382 1.392 . S
C384 O411 1.312 . S
C384 O412 1.208 . S
C385 O406 1.331 1_655 S
C385 O409 1.244 . S
C386 O408 1.264 1_655 S
C386 O410 1.273 . S
Mg387 O389 1.936 . S
Mg387 O396 2.081 . S
Mg387 O398 2.023 . S
Mg387 O402 2.031 . S
Mg387 O411 2.291 . S
Mg388 O389 1.963 . S
Mg388 O399 1.942 . S
Mg388 O400 1.955 . S
Mg388 O407 1.986 . S
O389 Mg387 1.936 . S
O389 Mg388 1.963 . S
O389 Mg390 1.915 . S
Mg390 O389 1.915 . S
Mg390 O391 1.915 . S
Mg390 O395 2.013 . S
Mg390 O401 2.114 . S
Mg390 O405 2.013 . S
Mg390 O411 2.114 . S
O391 Mg390 1.915 . S
O391 Mg392 1.936 . S
O391 Mg393 1.963 1_455 S
Mg392 O391 1.936 . S
Mg392 O401 2.291 . S
Mg392 O406 2.081 . S
Mg392 O408 2.023 . S
Mg392 O412 2.031 . S
Mg393 O391 1.963 1_655 S
Mg393 O397 1.986 . S
Mg393 O409 1.942 . S
Mg393 O410 1.955 . S
C394 O405 1.191 . S
C394 O407 1.307 . S
O395 Mg390 2.013 . S
O395 C414 1.191 . S
O396 Mg387 2.081 . S
O396 C404 1.331 . S
O397 Mg393 1.986 . S
O397 C414 1.307 1_655 S
O398 Mg387 2.023 . S
O398 C413 1.264 . S
O399 Mg388 1.942 . S
O399 C404 1.244 . S
O400 Mg388 1.955 . S
O400 C413 1.273 . S
O401 Mg390 2.114 . S
O401 Mg392 2.291 . S
O401 C403 1.312 . S
O402 Mg387 2.031 . S
O402 C403 1.208 . S
C403 O401 1.312 . S
C403 O402 1.208 . S
C404 O396 1.331 . S
C404 O399 1.244 . S
O405 Mg390 2.013 . S
O405 C394 1.191 . S
O406 C385 1.331 1_455 S
O406 Mg392 2.081 . S
O407 Mg388 1.986 . S
O407 C394 1.307 . S
O408 C386 1.264 1_455 S
O408 Mg392 2.023 . S
O409 C385 1.244 . S
O409 Mg393 1.942 . S
O410 C386 1.273 . S
O410 Mg393 1.955 . S
O411 C384 1.312 . S
O411 Mg387 2.291 . S
O411 Mg390 2.114 . S
O412 C384 1.208 . S
O412 Mg392 2.031 . S
C413 O398 1.264 . S
C413 O400 1.273 . S
C414 O395 1.191 . S
C414 O397 1.307 1_455 S
C415 O442 1.312 . S
C415 O443 1.208 . S
C416 O437 1.331 . S
C416 O440 1.244 . S
C417 O439 1.264 . S
C417 O441 1.273 . S
Mg418 O420 1.936 . S
Mg418 O427 2.081 . S
Mg418 O429 2.023 . S
Mg418 O433 2.031 . S
Mg418 O442 2.291 . S
Mg419 O420 1.963 . S
Mg419 O430 1.942 . S
Mg419 O431 1.955 . S
Mg419 O438 1.986 . S
O420 Mg418 1.936 . S
O420 Mg419 1.963 . S
O420 Mg421 1.915 . S
Mg421 O420 1.915 . S
Mg421 O422 1.915 . S
Mg421 O426 2.013 . S
Mg421 O432 2.114 . S
Mg421 O436 2.013 . S
Mg421 O442 2.114 . S
O422 Mg421 1.915 . S
O422 Mg423 1.936 . S
O422 Mg424 1.963 . S
Mg423 O422 1.936 . S
Mg423 O432 2.291 . S
Mg423 O437 2.081 . S
Mg423 O439 2.023 . S
Mg423 O443 2.031 . S
Mg424 O422 1.963 . S
Mg424 O428 1.986 . S
Mg424 O440 1.942 . S
Mg424 O441 1.955 . S
C425 O436 1.191 . S
C425 O438 1.307 . S
O426 Mg421 2.013 . S
O426 C445 1.191 . S
O427 Mg418 2.081 . S
O427 C435 1.331 . S
O428 Mg424 1.986 . S
O428 C445 1.307 . S
O429 Mg418 2.023 . S
O429 C444 1.264 . S
O430 Mg419 1.942 . S
O430 C435 1.244 . S
O431 Mg419 1.955 . S
O431 C444 1.273 . S
O432 Mg421 2.114 . S
O432 Mg423 2.291 . S
O432 C434 1.312 . S
O433 Mg418 2.031 . S
O433 C434 1.208 . S
C434 O432 1.312 . S
C434 O433 1.208 . S
C435 O427 1.331 . S
C435 O430 1.244 . S
O436 Mg421 2.013 . S
O436 C425 1.191 . S
O437 C416 1.331 . S
O437 Mg423 2.081 . S
O438 Mg419 1.986 . S
O438 C425 1.307 . S
O439 C417 1.264 . S
O439 Mg423 2.023 . S
O440 C416 1.244 . S
O440 Mg424 1.942 . S
O441 C417 1.273 . S
O441 Mg424 1.955 . S
O442 C415 1.312 . S
O442 Mg418 2.291 . S
O442 Mg421 2.114 . S
O443 C415 1.208 . S
O443 Mg423 2.031 . S
C444 O429 1.264 . S
C444 O431 1.273 . S
C445 O426 1.191 . S
C445 O428 1.307 . S
C446 O473 1.312 . S
C446 O474 1.208 . S
C447 O468 1.331 . S
C447 O471 1.244 . S
C448 O470 1.264 . S
C448 O472 1.273 . S
Mg449 O451 1.936 . S
Mg449 O458 2.081 . S
Mg449 O460 2.023 . S
Mg449 O464 2.031 . S
Mg449 O473 2.291 . S
Mg450 O451 1.963 . S
Mg450 O461 1.942 . S
Mg450 O462 1.955 . S
Mg450 O469 1.986 . S
O451 Mg449 1.936 . S
O451 Mg450 1.963 . S
O451 Mg452 1.915 . S
Mg452 O451 1.915 . S
Mg452 O453 1.915 . S
Mg452 O457 2.013 . S
Mg452 O463 2.114 . S
Mg452 O467 2.013 . S
Mg452 O473 2.114 . S
O453 Mg452 1.915 . S
O453 Mg454 1.936 . S
O453 Mg455 1.963 . S
Mg454 O453 1.936 . S
Mg454 O463 2.291 . S
Mg454 O468 2.081 . S
Mg454 O470 2.023 . S
Mg454 O474 2.031 . S
Mg455 O453 1.963 . S
Mg455 O459 1.986 . S
Mg455 O471 1.942 . S
Mg455 O472 1.955 . S
C456 O467 1.191 . S
C456 O469 1.307 . S
O457 Mg452 2.013 . S
O457 C476 1.191 . S
O458 Mg449 2.081 . S
O458 C466 1.331 . S
O459 Mg455 1.986 . S
O459 C476 1.307 . S
O460 Mg449 2.023 . S
O460 C475 1.264 . S
O461 Mg450 1.942 . S
O461 C466 1.244 . S
O462 Mg450 1.955 . S
O462 C475 1.273 . S
O463 Mg452 2.114 . S
O463 Mg454 2.291 . S
O463 C465 1.312 . S
O464 Mg449 2.031 . S
O464 C465 1.208 . S
C465 O463 1.312 . S
C465 O464 1.208 . S
C466 O458 1.331 . S
C466 O461 1.244 . S
O467 Mg452 2.013 . S
O467 C456 1.191 . S
O468 C447 1.331 . S
O468 Mg454 2.081 . S
O469 Mg450 1.986 . S
O469 C456 1.307 . S
O470 C448 1.264 . S
O470 Mg454 2.023 . S
O471 C447 1.244 . S
O471 Mg455 1.942 . S
O472 C448 1.273 . S
O472 Mg455 1.955 . S
O473 C446 1.312 . S
O473 Mg449 2.291 . S
O473 Mg452 2.114 . S
O474 C446 1.208 . S
O474 Mg454 2.031 . S
C475 O460 1.264 . S
C475 O462 1.273 . S
C476 O457 1.191 . S
C476 O459 1.307 . S
C477 O504 1.312 . S
C477 O505 1.208 . S
C478 O499 1.331 . S
C478 O502 1.244 . S
C479 O501 1.264 . S
C479 O503 1.273 . S
Mg480 O482 1.936 . S
Mg480 O489 2.081 . S
Mg480 O491 2.023 . S
Mg480 O495 2.031 . S
Mg480 O504 2.291 . S
Mg481 O482 1.963 1_655 S
Mg481 O492 1.942 . S
Mg481 O493 1.955 . S
Mg481 O500 1.986 . S
O482 Mg480 1.936 . S
O482 Mg481 1.963 1_455 S
O482 Mg483 1.915 . S
Mg483 O482 1.915 . S
Mg483 O484 1.915 . S
Mg483 O488 2.013 . S
Mg483 O494 2.114 . S
Mg483 O498 2.013 . S
Mg483 O504 2.114 . S
O484 Mg483 1.915 . S
O484 Mg485 1.936 . S
O484 Mg486 1.963 . S
Mg485 O484 1.936 . S
Mg485 O494 2.291 . S
Mg485 O499 2.081 . S
Mg485 O501 2.023 . S
Mg485 O505 2.031 . S
Mg486 O484 1.963 . S
Mg486 O490 1.986 . S
Mg486 O502 1.942 . S
Mg486 O503 1.955 . S
C487 O498 1.191 . S
C487 O500 1.307 1_455 S
O488 Mg483 2.013 . S
O488 C507 1.191 . S
O489 Mg480 2.081 . S
O489 C497 1.331 1_455 S
O490 Mg486 1.986 . S
O490 C507 1.307 . S
O491 Mg480 2.023 . S
O491 C506 1.264 1_455 S
O492 Mg481 1.942 . S
O492 C497 1.244 . S
O493 Mg481 1.955 . S
O493 C506 1.273 . S
O494 Mg483 2.114 . S
O494 Mg485 2.291 . S
O494 C496 1.312 . S
O495 Mg480 2.031 . S
O495 C496 1.208 . S
C496 O494 1.312 . S
C496 O495 1.208 . S
C497 O489 1.331 1_655 S
C497 O492 1.244 . S
O498 Mg483 2.013 . S
O498 C487 1.191 . S
O499 C478 1.331 . S
O499 Mg485 2.081 . S
O500 Mg481 1.986 . S
O500 C487 1.307 1_655 S
O501 C479 1.264 . S
O501 Mg485 2.023 . S
O502 C478 1.244 . S
O502 Mg486 1.942 . S
O503 C479 1.273 . S
O503 Mg486 1.955 . S
O504 C477 1.312 . S
O504 Mg480 2.291 . S
O504 Mg483 2.114 . S
O505 C477 1.208 . S
O505 Mg485 2.031 . S
C506 O491 1.264 1_655 S
C506 O493 1.273 . S
C507 O488 1.191 . S
C507 O490 1.307 . S
H508 C526 0.951 . S
H509 C528 0.951 . S
H510 C530 0.950 . S
H511 C531 0.950 . S
H512 C533 0.950 . S
H513 C536 0.950 . S
H514 C537 0.950 . S
H515 C539 0.950 . S
H516 C540 0.950 . S
H517 C541 0.951 . S
H518 C543 0.951 . S
H519 C545 0.950 . S
H520 C546 0.950 . S
H521 C548 0.950 . S
H522 C551 0.950 . S
H523 C552 0.950 . S
H524 C554 0.950 . S
H525 C555 0.950 . S
C526 H508 0.951 . S
C526 C527 1.366 . S
C526 C528 1.388 . S
C527 C526 1.366 . S
C527 C531 1.385 . S
C528 H509 0.951 . S
C528 C526 1.388 . S
C528 C529 1.366 . S
C529 C528 1.366 . S
C529 C530 1.414 . S
C529 C532 1.499 . S
C530 H510 0.950 . S
C530 C529 1.414 . S
C530 C531 1.374 . S
C531 H511 0.950 . S
C531 C527 1.385 . S
C531 C530 1.374 . S
C532 C529 1.499 . S
C532 C533 1.373 . S
C532 C534 1.389 . S
C533 H512 0.950 . S
C533 C532 1.373 . S
C533 C549 1.377 . S
C534 C532 1.389 . S
C534 C535 1.524 . S
C534 C548 1.377 . S
C535 C534 1.524 . S
C535 C536 1.397 . S
C535 C540 1.363 . S
C536 H513 0.950 . S
C536 C535 1.397 . S
C536 C537 1.334 1_565 S
C537 H514 0.950 . S
C537 C536 1.334 1_545 S
C537 C538 1.287 . S
C538 C537 1.287 . S
C538 C539 1.524 . S
C538 H557 0.913 . S
C539 H515 0.950 . S
C539 C538 1.524 . S
C539 C540 1.415 1_545 S
C540 H516 0.950 . S
C540 C535 1.363 . S
C540 C539 1.415 1_565 S
C541 H517 0.951 . S
C541 C542 1.366 . S
C541 C543 1.388 . S
C542 C541 1.366 . S
C542 C546 1.385 . S
C543 H518 0.951 . S
C543 C541 1.388 . S
C543 C544 1.366 . S
C544 C543 1.366 . S
C544 C545 1.414 . S
C544 C547 1.499 . S
C545 H519 0.950 . S
C545 C544 1.414 . S
C545 C546 1.374 . S
C546 H520 0.950 . S
C546 C542 1.385 . S
C546 C545 1.374 . S
C547 C544 1.499 . S
C547 C548 1.373 . S
C547 C549 1.389 . S
C548 H521 0.950 . S
C548 C534 1.377 . S
C548 C547 1.373 . S
C549 C533 1.377 . S
C549 C547 1.389 . S
C549 C550 1.524 . S
C550 C549 1.524 . S
C550 C551 1.397 . S
C550 C555 1.363 . S
C551 H522 0.950 . S
C551 C550 1.397 . S
C551 C552 1.334 . S
C552 H523 0.950 . S
C552 C551 1.334 . S
C552 C553 1.287 . S
C553 C552 1.287 . S
C553 C554 1.524 . S
C553 H556 0.999 . S
C554 H524 0.950 . S
C554 C553 1.524 . S
C554 C555 1.415 . S
C555 H525 0.950 . S
C555 C550 1.363 . S
C555 C554 1.415 . S
H556 C553 0.999 . S
H557 C538 0.913 . S
H558 C576 0.951 . S
H559 C578 0.951 . S
H560 C580 0.950 . S
H561 C581 0.950 . S
H562 C583 0.950 . S
H563 C586 0.950 . S
H564 C587 0.950 . S
H565 C589 0.950 . S
H566 C590 0.950 . S
H567 C591 0.951 . S
H568 C593 0.951 . S
H569 C595 0.950 . S
H570 C596 0.950 . S
H571 C598 0.950 . S
H572 C601 0.950 . S
H573 C602 0.950 . S
H574 C604 0.950 . S
H575 C605 0.950 . S
C576 H558 0.951 . S
C576 C577 1.366 . S
C576 C578 1.388 . S
C577 C576 1.366 . S
C577 C581 1.385 . S
C578 H559 0.951 . S
C578 C576 1.388 . S
C578 C579 1.366 . S
C579 C578 1.366 . S
C579 C580 1.414 . S
C579 C582 1.499 . S
C580 H560 0.950 . S
C580 C579 1.414 . S
C580 C581 1.374 . S
C581 H561 0.950 . S
C581 C577 1.385 . S
C581 C580 1.374 . S
C582 C579 1.499 . S
C582 C583 1.373 . S
C582 C584 1.389 . S
C583 H562 0.950 . S
C583 C582 1.373 . S
C583 C599 1.377 1_565 S
C584 C582 1.389 . S
C584 C585 1.524 . S
C584 C598 1.377 . S
C585 C584 1.524 . S
C585 C586 1.397 . S
C585 C590 1.363 . S
C586 H563 0.950 . S
C586 C585 1.397 . S
C586 C587 1.334 . S
C587 H564 0.950 . S
C587 C586 1.334 . S
C587 C588 1.287 . S
C588 C587 1.287 . S
C588 C589 1.524 . S
C588 H607 0.913 . S
C589 H565 0.950 . S
C589 C588 1.524 . S
C589 C590 1.415 . S
C590 H566 0.950 . S
C590 C585 1.363 . S
C590 C589 1.415 . S
C591 H567 0.951 . S
C591 C592 1.366 . S
C591 C593 1.388 . S
C592 C591 1.366 . S
C592 C596 1.385 . S
C593 H568 0.951 . S
C593 C591 1.388 . S
C593 C594 1.366 . S
C594 C593 1.366 . S
C594 C595 1.414 . S
C594 C597 1.499 . S
C595 H569 0.950 . S
C595 C594 1.414 . S
C595 C596 1.374 . S
C596 H570 0.950 . S
C596 C592 1.385 . S
C596 C595 1.374 . S
C597 C594 1.499 . S
C597 C598 1.373 1_545 S
C597 C599 1.389 . S
C598 H571 0.950 . S
C598 C584 1.377 . S
C598 C597 1.373 1_565 S
C599 C583 1.377 1_545 S
C599 C597 1.389 . S
C599 C600 1.524 . S
C600 C599 1.524 . S
C600 C601 1.397 . S
C600 C605 1.363 . S
C601 H572 0.950 . S
C601 C600 1.397 . S
C601 C602 1.334 . S
C602 H573 0.950 . S
C602 C601 1.334 . S
C602 C603 1.287 . S
C603 C602 1.287 . S
C603 C604 1.524 . S
C603 H606 0.999 . S
C604 H574 0.950 . S
C604 C603 1.524 . S
C604 C605 1.415 . S
C605 H575 0.950 . S
C605 C600 1.363 . S
C605 C604 1.415 . S
H606 C603 0.999 . S
H607 C588 0.913 . S
H608 C626 0.951 . S
H609 C628 0.951 . S
H610 C630 0.950 . S
H611 C631 0.950 . S
H612 C633 0.950 . S
H613 C636 0.950 . S
H614 C637 0.950 . S
H615 C639 0.950 . S
H616 C640 0.950 . S
H617 C641 0.951 . S
H618 C643 0.951 . S
H619 C645 0.950 . S
H620 C646 0.950 . S
H621 C648 0.950 . S
H622 C651 0.950 . S
H623 C652 0.950 . S
H624 C654 0.950 . S
H625 C655 0.950 . S
C626 H608 0.951 . S
C626 C627 1.366 . S
C626 C628 1.388 . S
C627 C626 1.366 . S
C627 C631 1.385 . S
C628 H609 0.951 . S
C628 C626 1.388 . S
C628 C629 1.366 . S
C629 C628 1.366 . S
C629 C630 1.414 . S
C629 C632 1.499 . S
C630 H610 0.950 . S
C630 C629 1.414 . S
C630 C631 1.374 . S
C631 H611 0.950 . S
C631 C627 1.385 . S
C631 C630 1.374 . S
C632 C629 1.499 . S
C632 C633 1.373 . S
C632 C634 1.389 . S
C633 H612 0.950 . S
C633 C632 1.373 . S
C633 C649 1.377 . S
C634 C632 1.389 . S
C634 C635 1.524 . S
C634 C648 1.377 . S
C635 C634 1.524 . S
C635 C636 1.397 . S
C635 C640 1.363 . S
C636 H613 0.950 . S
C636 C635 1.397 . S
C636 C637 1.334 . S
C637 H614 0.950 . S
C637 C636 1.334 . S
C637 C638 1.287 . S
C638 C637 1.287 . S
C638 C639 1.524 . S
C638 H657 0.913 . S
C639 H615 0.950 . S
C639 C638 1.524 . S
C639 C640 1.415 . S
C640 H616 0.950 . S
C640 C635 1.363 . S
C640 C639 1.415 . S
C641 H617 0.951 . S
C641 C642 1.366 . S
C641 C643 1.388 . S
C642 C641 1.366 . S
C642 C646 1.385 . S
C643 H618 0.951 . S
C643 C641 1.388 . S
C643 C644 1.366 . S
C644 C643 1.366 . S
C644 C645 1.414 . S
C644 C647 1.499 . S
C645 H619 0.950 . S
C645 C644 1.414 . S
C645 C646 1.374 . S
C646 H620 0.950 . S
C646 C642 1.385 . S
C646 C645 1.374 . S
C647 C644 1.499 . S
C647 C648 1.373 . S
C647 C649 1.389 . S
C648 H621 0.950 . S
C648 C634 1.377 . S
C648 C647 1.373 . S
C649 C633 1.377 . S
C649 C647 1.389 . S
C649 C650 1.524 . S
C650 C649 1.524 . S
C650 C651 1.397 . S
C650 C655 1.363 . S
C651 H622 0.950 . S
C651 C650 1.397 . S
C651 C652 1.334 . S
C652 H623 0.950 . S
C652 C651 1.334 . S
C652 C653 1.287 . S
C653 C652 1.287 . S
C653 C654 1.524 . S
C653 H656 0.999 1_545 S
C654 H624 0.950 . S
C654 C653 1.524 . S
C654 C655 1.415 . S
C655 H625 0.950 . S
C655 C650 1.363 . S
C655 C654 1.415 . S
H656 C653 0.999 1_565 S
H657 C638 0.913 . S
H658 C676 0.951 . S
H659 C678 0.951 . S
H660 C680 0.950 . S
H661 C681 0.950 . S
H662 C683 0.950 . S
H663 C686 0.950 . S
H664 C687 0.950 . S
H665 C689 0.950 . S
H666 C690 0.950 . S
H667 C691 0.951 . S
H668 C693 0.951 . S
H669 C695 0.950 . S
H670 C696 0.950 . S
H671 C698 0.950 . S
H672 C701 0.950 . S
H673 C702 0.950 . S
H674 C704 0.950 . S
H675 C705 0.950 . S
C676 H658 0.951 . S
C676 C677 1.366 . S
C676 C678 1.388 . S
C677 C676 1.366 . S
C677 C681 1.385 . S
C678 H659 0.951 . S
C678 C676 1.388 . S
C678 C679 1.366 . S
C679 C678 1.366 . S
C679 C680 1.414 . S
C679 C682 1.499 . S
C680 H660 0.950 . S
C680 C679 1.414 . S
C680 C681 1.374 . S
C681 H661 0.950 . S
C681 C677 1.385 . S
C681 C680 1.374 . S
C682 C679 1.499 . S
C682 C683 1.373 . S
C682 C684 1.389 . S
C683 H662 0.950 . S
C683 C682 1.373 . S
C683 C699 1.377 1_545 S
C684 C682 1.389 . S
C684 C685 1.524 . S
C684 C698 1.377 1_545 S
C685 C684 1.524 . S
C685 C686 1.397 . S
C685 C690 1.363 . S
C686 H663 0.950 . S
C686 C685 1.397 . S
C686 C687 1.334 . S
C687 H664 0.950 . S
C687 C686 1.334 . S
C687 C688 1.287 . S
C688 C687 1.287 . S
C688 C689 1.524 . S
C688 H707 0.913 . S
C689 H665 0.950 . S
C689 C688 1.524 . S
C689 C690 1.415 . S
C690 H666 0.950 . S
C690 C685 1.363 . S
C690 C689 1.415 . S
C691 H667 0.951 . S
C691 C692 1.366 . S
C691 C693 1.388 . S
C692 C691 1.366 . S
C692 C696 1.385 . S
C693 H668 0.951 . S
C693 C691 1.388 . S
C693 C694 1.366 . S
C694 C693 1.366 . S
C694 C695 1.414 . S
C694 C697 1.499 . S
C695 H669 0.950 . S
C695 C694 1.414 . S
C695 C696 1.374 . S
C696 H670 0.950 . S
C696 C692 1.385 . S
C696 C695 1.374 . S
C697 C694 1.499 . S
C697 C698 1.373 . S
C697 C699 1.389 . S
C698 H671 0.950 . S
C698 C684 1.377 1_565 S
C698 C697 1.373 . S
C699 C683 1.377 1_565 S
C699 C697 1.389 . S
C699 C700 1.524 . S
C700 C699 1.524 . S
C700 C701 1.397 . S
C700 C705 1.363 . S
C701 H672 0.950 . S
C701 C700 1.397 . S
C701 C702 1.334 . S
C702 H673 0.950 . S
C702 C701 1.334 . S
C702 C703 1.287 . S
C703 C702 1.287 . S
C703 C704 1.524 . S
C703 H706 0.999 . S
C704 H674 0.950 . S
C704 C703 1.524 . S
C704 C705 1.415 . S
C705 H675 0.950 . S
C705 C700 1.363 . S
C705 C704 1.415 . S
H706 C703 0.999 . S
H707 C688 0.913 . S
H708 C726 0.951 . S
H709 C728 0.951 . S
H710 C730 0.950 . S
H711 C731 0.950 . S
H712 C733 0.950 . S
H713 C736 0.950 . S
H714 C737 0.950 . S
H715 C739 0.950 . S
H716 C740 0.950 . S
H717 C741 0.951 . S
H718 C743 0.951 . S
H719 C745 0.950 . S
H720 C746 0.950 . S
H721 C748 0.950 . S
H722 C751 0.950 . S
H723 C752 0.950 . S
H724 C754 0.950 1_565 S
H725 C755 0.950 . S
C726 H708 0.951 . S
C726 C727 1.366 . S
C726 C728 1.388 . S
C727 C726 1.366 . S
C727 C731 1.385 . S
C728 H709 0.951 . S
C728 C726 1.388 . S
C728 C729 1.366 . S
C729 C728 1.366 . S
C729 C730 1.414 . S
C729 C732 1.499 . S
C730 H710 0.950 . S
C730 C729 1.414 . S
C730 C731 1.374 . S
C731 H711 0.950 . S
C731 C727 1.385 . S
C731 C730 1.374 . S
C732 C729 1.499 . S
C732 C733 1.373 . S
C732 C734 1.389 . S
C733 H712 0.950 . S
C733 C732 1.373 . S
C733 C749 1.377 . S
C734 C732 1.389 . S
C734 C735 1.524 . S
C734 C748 1.377 . S
C735 C734 1.524 . S
C735 C736 1.397 . S
C735 C740 1.363 . S
C736 H713 0.950 . S
C736 C735 1.397 . S
C736 C737 1.334 . S
C737 H714 0.950 . S
C737 C736 1.334 . S
C737 C738 1.287 . S
C738 C737 1.287 . S
C738 C739 1.524 . S
C738 H757 0.913 . S
C739 H715 0.950 . S
C739 C738 1.524 . S
C739 C740 1.415 . S
C740 H716 0.950 . S
C740 C735 1.363 . S
C740 C739 1.415 . S
C741 H717 0.951 . S
C741 C742 1.366 . S
C741 C743 1.388 . S
C742 C741 1.366 . S
C742 C746 1.385 . S
C743 H718 0.951 . S
C743 C741 1.388 . S
C743 C744 1.366 . S
C744 C743 1.366 . S
C744 C745 1.414 . S
C744 C747 1.499 . S
C745 H719 0.950 . S
C745 C744 1.414 . S
C745 C746 1.374 . S
C746 H720 0.950 . S
C746 C742 1.385 . S
C746 C745 1.374 . S
C747 C744 1.499 . S
C747 C748 1.373 . S
C747 C749 1.389 . S
C748 H721 0.950 . S
C748 C734 1.377 . S
C748 C747 1.373 . S
C749 C733 1.377 . S
C749 C747 1.389 . S
C749 C750 1.524 . S
C750 C749 1.524 . S
C750 C751 1.397 . S
C750 C755 1.363 . S
C751 H722 0.950 . S
C751 C750 1.397 . S
C751 C752 1.334 . S
C752 H723 0.950 . S
C752 C751 1.334 . S
C752 C753 1.275 1_545 S
C753 C752 1.275 1_565 S
C753 C754 1.519 1_565 S
C753 H756 1.018 . S
C754 H724 0.950 1_545 S
C754 C753 1.519 1_545 S
C754 C755 1.415 . S
C755 H725 0.950 . S
C755 C750 1.363 . S
C755 C754 1.415 . S
H756 C753 1.018 . S
H757 C738 0.913 . S
H758 C776 0.951 . S
H759 C778 0.951 . S
H760 C780 0.950 . S
H761 C781 0.950 . S
H762 C783 0.950 . S
H763 C786 0.950 1_565 S
H764 C787 0.950 . S
H765 C789 0.950 . S
H766 C790 0.950 . S
H767 C791 0.951 . S
H768 C793 0.951 . S
H769 C795 0.950 . S
H770 C796 0.950 . S
H771 C798 0.950 . S
H772 C801 0.950 1_545 S
H773 C802 0.950 . S
H774 C804 0.950 . S
H775 C805 0.950 . S
C776 H758 0.951 . S
C776 C777 1.366 . S
C776 C778 1.388 . S
C777 C776 1.366 . S
C777 C781 1.385 . S
C778 H759 0.951 . S
C778 C776 1.388 . S
C778 C779 1.366 . S
C779 C778 1.366 . S
C779 C780 1.414 . S
C779 C782 1.499 . S
C780 H760 0.950 . S
C780 C779 1.414 . S
C780 C781 1.374 . S
C781 H761 0.950 . S
C781 C777 1.385 . S
C781 C780 1.374 . S
C782 C779 1.499 . S
C782 C783 1.373 . S
C782 C784 1.389 1_565 S
C783 H762 0.950 . S
C783 C782 1.373 . S
C783 C799 1.377 . S
C784 C782 1.389 1_545 S
C784 C785 1.524 . S
C784 C798 1.377 . S
C785 C784 1.524 . S
C785 C786 1.397 . S
C785 C790 1.363 . S
C786 H763 0.950 1_545 S
C786 C785 1.397 . S
C786 C787 1.334 . S
C787 H764 0.950 . S
C787 C786 1.334 . S
C787 C788 1.287 . S
C788 C787 1.287 . S
C788 C789 1.524 . S
C788 H807 0.913 . S
C789 H765 0.950 . S
C789 C788 1.524 . S
C789 C790 1.415 . S
C790 H766 0.950 . S
C790 C785 1.363 . S
C790 C789 1.415 . S
C791 H767 0.951 . S
C791 C792 1.366 . S
C791 C793 1.388 . S
C792 C791 1.366 . S
C792 C796 1.385 . S
C793 H768 0.951 . S
C793 C791 1.388 . S
C793 C794 1.366 . S
C794 C793 1.366 . S
C794 C795 1.414 . S
C794 C797 1.499 . S
C795 H769 0.950 . S
C795 C794 1.414 . S
C795 C796 1.374 . S
C796 H770 0.950 . S
C796 C792 1.385 . S
C796 C795 1.374 . S
C797 C794 1.499 . S
C797 C798 1.373 . S
C797 C799 1.389 1_545 S
C798 H771 0.950 . S
C798 C784 1.377 . S
C798 C797 1.373 . S
C799 C783 1.377 . S
C799 C797 1.389 1_565 S
C799 C800 1.524 . S
C800 C799 1.524 . S
C800 C801 1.397 . S
C800 C805 1.363 . S
C801 H772 0.950 1_565 S
C801 C800 1.397 . S
C801 C802 1.334 . S
C802 H773 0.950 . S
C802 C801 1.334 . S
C802 C803 1.287 . S
C803 C802 1.287 . S
C803 C804 1.524 . S
C803 H806 0.999 . S
C804 H774 0.950 . S
C804 C803 1.524 . S
C804 C805 1.415 . S
C805 H775 0.950 . S
C805 C800 1.363 . S
C805 C804 1.415 . S
H806 C803 0.999 . S
H807 C788 0.913 . S
H808 C826 0.951 . S
H809 C828 0.951 . S
H810 C830 0.950 . S
H811 C831 0.950 . S
H812 C833 0.950 . S
H813 C836 0.950 . S
H814 C837 0.950 . S
H815 C839 0.950 . S
H816 C840 0.950 . S
H817 C841 0.951 . S
H818 C843 0.951 . S
H819 C845 0.950 . S
H820 C846 0.950 . S
H821 C848 0.950 . S
H822 C851 0.950 . S
H823 C852 0.950 . S
H824 C854 0.950 . S
H825 C855 0.950 . S
C826 H808 0.951 . S
C826 C827 1.366 . S
C826 C828 1.388 . S
C827 C826 1.366 . S
C827 C831 1.385 . S
C828 H809 0.951 . S
C828 C826 1.388 . S
C828 C829 1.366 . S
C829 C828 1.366 . S
C829 C830 1.414 . S
C829 C832 1.499 . S
C830 H810 0.950 . S
C830 C829 1.414 . S
C830 C831 1.374 . S
C831 H811 0.950 . S
C831 C827 1.385 . S
C831 C830 1.374 . S
C832 C829 1.499 . S
C832 C833 1.373 . S
C832 C834 1.389 . S
C833 H812 0.950 . S
C833 C832 1.373 . S
C833 C849 1.377 . S
C834 C832 1.389 . S
C834 C835 1.524 . S
C834 C848 1.377 . S
C835 C834 1.524 . S
C835 C836 1.397 . S
C835 C840 1.363 . S
C836 H813 0.950 . S
C836 C835 1.397 . S
C836 C837 1.334 1_565 S
C837 H814 0.950 . S
C837 C836 1.334 1_545 S
C837 C838 1.287 . S
C838 C837 1.287 . S
C838 C839 1.524 . S
C838 H857 0.913 . S
C839 H815 0.950 . S
C839 C838 1.524 . S
C839 C840 1.415 1_545 S
C840 H816 0.950 . S
C840 C835 1.363 . S
C840 C839 1.415 1_565 S
C841 H817 0.951 . S
C841 C842 1.366 . S
C841 C843 1.388 . S
C842 C841 1.366 . S
C842 C846 1.385 . S
C843 H818 0.951 . S
C843 C841 1.388 . S
C843 C844 1.366 . S
C844 C843 1.366 . S
C844 C845 1.414 . S
C844 C847 1.499 . S
C845 H819 0.950 . S
C845 C844 1.414 . S
C845 C846 1.374 . S
C846 H820 0.950 . S
C846 C842 1.385 . S
C846 C845 1.374 . S
C847 C844 1.499 . S
C847 C848 1.373 . S
C847 C849 1.389 . S
C848 H821 0.950 . S
C848 C834 1.377 . S
C848 C847 1.373 . S
C849 C833 1.377 . S
C849 C847 1.389 . S
C849 C850 1.524 . S
C850 C849 1.524 . S
C850 C851 1.397 . S
C850 C855 1.363 . S
C851 H822 0.950 . S
C851 C850 1.397 . S
C851 C852 1.334 . S
C852 H823 0.950 . S
C852 C851 1.334 . S
C852 C853 1.287 . S
C853 C852 1.287 . S
C853 C854 1.524 . S
C853 H856 0.999 . S
C854 H824 0.950 . S
C854 C853 1.524 . S
C854 C855 1.415 . S
C855 H825 0.950 . S
C855 C850 1.363 . S
C855 C854 1.415 . S
H856 C853 0.999 . S
H857 C838 0.913 . S
H858 C876 0.951 . S
H859 C878 0.951 . S
H860 C880 0.950 . S
H861 C881 0.950 . S
H862 C883 0.950 . S
H863 C886 0.950 . S
H864 C887 0.950 . S
H865 C889 0.950 . S
H866 C890 0.950 . S
H867 C891 0.951 . S
H868 C893 0.951 . S
H869 C895 0.950 . S
H870 C896 0.950 . S
H871 C898 0.950 . S
H872 C901 0.949 1_545 S
H873 C902 0.950 . S
H874 C904 0.950 . S
H875 C905 0.950 . S
C876 H858 0.951 . S
C876 C877 1.366 . S
C876 C878 1.388 . S
C877 C876 1.366 . S
C877 C881 1.385 . S
C878 H859 0.951 . S
C878 C876 1.388 . S
C878 C879 1.366 . S
C879 C878 1.366 . S
C879 C880 1.414 . S
C879 C882 1.499 . S
C880 H860 0.950 . S
C880 C879 1.414 . S
C880 C881 1.374 . S
C881 H861 0.950 . S
C881 C877 1.385 . S
C881 C880 1.374 . S
C882 C879 1.499 . S
C882 C883 1.373 . S
C882 C884 1.389 . S
C883 H862 0.950 . S
C883 C882 1.373 . S
C883 C899 1.377 1_545 S
C884 C882 1.389 . S
C884 C885 1.524 . S
C884 C898 1.377 1_545 S
C885 C884 1.524 . S
C885 C886 1.397 . S
C885 C890 1.363 . S
C886 H863 0.950 . S
C886 C885 1.397 . S
C886 C887 1.334 . S
C887 H864 0.950 . S
C887 C886 1.334 . S
C887 C888 1.287 . S
C888 C887 1.287 . S
C888 C889 1.524 . S
C888 H907 0.913 . S
C889 H865 0.950 . S
C889 C888 1.524 . S
C889 C890 1.415 . S
C890 H866 0.950 . S
C890 C885 1.363 . S
C890 C889 1.415 . S
C891 H867 0.951 . S
C891 C892 1.366 . S
C891 C893 1.388 . S
C892 C891 1.366 . S
C892 C896 1.385 . S
C893 H868 0.951 . S
C893 C891 1.388 . S
C893 C894 1.366 . S
C894 C893 1.366 . S
C894 C895 1.414 . S
C894 C897 1.499 . S
C895 H869 0.950 . S
C895 C894 1.414 . S
C895 C896 1.374 . S
C896 H870 0.950 . S
C896 C892 1.385 . S
C896 C895 1.374 . S
C897 C894 1.499 . S
C897 C898 1.373 . S
C897 C899 1.389 . S
C898 H871 0.950 . S
C898 C884 1.377 1_565 S
C898 C897 1.373 . S
C899 C883 1.377 1_565 S
C899 C897 1.389 . S
C899 C900 1.524 . S
C900 C899 1.524 . S
C900 C901 1.397 . S
C900 C905 1.363 . S
C901 H872 0.949 1_565 S
C901 C900 1.397 . S
C901 C902 1.334 . S
C902 H873 0.950 . S
C902 C901 1.334 . S
C902 C903 1.287 . S
C903 C902 1.287 . S
C903 C904 1.524 . S
C903 H906 0.999 . S
C904 H874 0.950 . S
C904 C903 1.524 . S
C904 C905 1.415 . S
C905 H875 0.950 . S
C905 C900 1.363 . S
C905 C904 1.415 . S
H906 C903 0.999 . S
H907 C888 0.913 . S
H908 C926 0.951 . S
H909 C928 0.951 . S
H910 C930 0.950 . S
H911 C931 0.950 . S
H912 C933 0.950 . S
H913 C936 0.950 . S
H914 C937 0.950 . S
H915 C939 0.950 . S
H916 C940 0.950 . S
H917 C941 0.951 . S
H918 C943 0.951 . S
H919 C945 0.950 . S
H920 C946 0.950 . S
H921 C948 0.950 . S
H922 C951 0.950 . S
H923 C952 0.950 . S
H924 C954 0.950 . S
H925 C955 0.950 . S
C926 H908 0.951 . S
C926 C927 1.366 . S
C926 C928 1.388 . S
C927 C926 1.366 . S
C927 C931 1.385 . S
C928 H909 0.951 . S
C928 C926 1.388 . S
C928 C929 1.366 . S
C929 C928 1.366 . S
C929 C930 1.414 . S
C929 C932 1.499 . S
C930 H910 0.950 . S
C930 C929 1.414 . S
C930 C931 1.374 . S
C931 H911 0.950 . S
C931 C927 1.385 . S
C931 C930 1.374 . S
C932 C929 1.499 . S
C932 C933 1.373 . S
C932 C934 1.389 . S
C933 H912 0.950 . S
C933 C932 1.373 . S
C933 C949 1.377 . S
C934 C932 1.389 . S
C934 C935 1.524 . S
C934 C948 1.377 . S
C935 C934 1.524 . S
C935 C936 1.397 . S
C935 C940 1.363 . S
C936 H913 0.950 . S
C936 C935 1.397 . S
C936 C937 1.334 . S
C937 H914 0.950 . S
C937 C936 1.334 . S
C937 C938 1.287 . S
C938 C937 1.287 . S
C938 C939 1.524 . S
C938 H957 0.913 . S
C939 H915 0.950 . S
C939 C938 1.524 . S
C939 C940 1.415 . S
C940 H916 0.950 . S
C940 C935 1.363 . S
C940 C939 1.415 . S
C941 H917 0.951 . S
C941 C942 1.366 . S
C941 C943 1.388 . S
C942 C941 1.366 . S
C942 C946 1.385 . S
C943 H918 0.951 . S
C943 C941 1.388 . S
C943 C944 1.366 . S
C944 C943 1.366 . S
C944 C945 1.414 . S
C944 C947 1.499 . S
C945 H919 0.950 . S
C945 C944 1.414 . S
C945 C946 1.374 . S
C946 H920 0.950 . S
C946 C942 1.385 . S
C946 C945 1.374 . S
C947 C944 1.499 . S
C947 C948 1.373 . S
C947 C949 1.389 . S
C948 H921 0.950 . S
C948 C934 1.377 . S
C948 C947 1.373 . S
C949 C933 1.377 . S
C949 C947 1.389 . S
C949 C950 1.524 . S
C950 C949 1.524 . S
C950 C951 1.397 . S
C950 C955 1.363 . S
C951 H922 0.950 . S
C951 C950 1.397 . S
C951 C952 1.334 . S
C952 H923 0.950 . S
C952 C951 1.334 . S
C952 C953 1.287 . S
C953 C952 1.287 . S
C953 C954 1.524 . S
C953 H956 0.999 . S
C954 H924 0.950 . S
C954 C953 1.524 . S
C954 C955 1.415 . S
C955 H925 0.950 . S
C955 C950 1.363 . S
C955 C954 1.415 . S
H956 C953 0.999 . S
H957 C938 0.913 . S
H958 C976 0.951 . S
H959 C978 0.951 . S
H960 C980 0.950 . S
H961 C981 0.950 . S
H962 C983 0.950 . S
H963 C986 0.950 . S
H964 C987 0.950 . S
H965 C989 0.950 . S
H966 C990 0.950 . S
H967 C991 0.951 . S
H968 C993 0.951 . S
H969 C995 0.950 . S
H970 C996 0.950 . S
H971 C998 0.950 . S
H972 C1001 0.950 . S
H973 C1002 0.950 . S
H974 C1004 0.950 . S
H975 C1005 0.950 . S
C976 H958 0.951 . S
C976 C977 1.366 . S
C976 C978 1.388 . S
C977 C976 1.366 . S
C977 C981 1.385 1_545 S
C978 H959 0.951 . S
C978 C976 1.388 . S
C978 C979 1.366 1_545 S
C979 C978 1.366 1_565 S
C979 C980 1.414 . S
C979 C982 1.499 . S
C980 H960 0.950 . S
C980 C979 1.414 . S
C980 C981 1.374 . S
C981 H961 0.950 . S
C981 C977 1.385 1_565 S
C981 C980 1.374 . S
C982 C979 1.499 . S
C982 C983 1.373 . S
C982 C984 1.389 . S
C983 H962 0.950 . S
C983 C982 1.373 . S
C983 C999 1.377 . S
C984 C982 1.389 . S
C984 C985 1.524 . S
C984 C998 1.377 . S
C985 C984 1.524 . S
C985 C986 1.397 . S
C985 C990 1.363 1_565 S
C986 H963 0.950 . S
C986 C985 1.397 . S
C986 C987 1.334 1_565 S
C987 H964 0.950 . S
C987 C986 1.334 1_545 S
C987 C988 1.287 . S
C988 C987 1.287 . S
C988 C989 1.524 . S
C988 H1007 0.913 . S
C989 H965 0.950 . S
C989 C988 1.524 . S
C989 C990 1.415 . S
C990 H966 0.950 . S
C990 C985 1.363 1_545 S
C990 C989 1.415 . S
C991 H967 0.951 . S
C991 C992 1.366 . S
C991 C993 1.388 . S
C992 C991 1.366 . S
C992 C996 1.385 . S
C993 H968 0.951 . S
C993 C991 1.388 . S
C993 C994 1.366 . S
C994 C993 1.366 . S
C994 C995 1.414 . S
C994 C997 1.499 . S
C995 H969 0.950 . S
C995 C994 1.414 . S
C995 C996 1.374 . S
C996 H970 0.950 . S
C996 C992 1.385 . S
C996 C995 1.374 . S
C997 C994 1.499 . S
C997 C998 1.373 . S
C997 C999 1.389 . S
C998 H971 0.950 . S
C998 C984 1.377 . S
C998 C997 1.373 . S
C999 C983 1.377 . S
C999 C997 1.389 . S
C999 C1000 1.524 . S
C1000 C999 1.524 . S
C1000 C1001 1.397 . S
C1000 C1005 1.363 . S
C1001 H972 0.950 . S
C1001 C1000 1.397 . S
C1001 C1002 1.334 . S
C1002 H973 0.950 . S
C1002 C1001 1.334 . S
C1002 C1003 1.287 . S
C1003 C1002 1.287 . S
C1003 C1004 1.524 . S
C1003 H1006 0.999 . S
C1004 H974 0.950 . S
C1004 C1003 1.524 . S
C1004 C1005 1.415 . S
C1005 H975 0.950 . S
C1005 C1000 1.363 . S
C1005 C1004 1.415 . S
H1006 C1003 0.999 . S
H1007 C988 0.913 . S
H1008 C1026 0.951 . S
H1009 C1028 0.951 . S
H1010 C1030 0.950 . S
H1011 C1031 0.950 . S
H1012 C1033 0.950 . S
H1013 C1036 0.950 . S
H1014 C1037 0.950 . S
H1015 C1039 0.950 . S
H1016 C1040 0.950 . S
H1017 C1041 0.951 . S
H1018 C1043 0.951 . S
H1019 C1045 0.950 . S
H1020 C1046 0.947 1_455 S
H1021 C1048 0.950 . S
H1022 C1051 0.950 . S
H1023 C1052 0.950 . S
H1024 C1054 0.950 . S
H1025 C1055 0.950 . S
C1026 H1008 0.951 . S
C1026 C1027 1.366 . S
C1026 C1028 1.388 . S
C1027 C1026 1.366 . S
C1027 C1031 1.385 . S
C1028 H1009 0.951 . S
C1028 C1026 1.388 . S
C1028 C1029 1.366 . S
C1029 C1028 1.366 . S
C1029 C1030 1.414 . S
C1029 C1032 1.499 . S
C1030 H1010 0.950 . S
C1030 C1029 1.414 . S
C1030 C1031 1.374 . S
C1031 H1011 0.950 . S
C1031 C1027 1.385 . S
C1031 C1030 1.374 . S
C1032 C1029 1.499 . S
C1032 C1033 1.373 . S
C1032 C1034 1.389 . S
C1033 H1012 0.950 . S
C1033 C1032 1.373 . S
C1033 C1049 1.377 . S
C1034 C1032 1.389 . S
C1034 C1035 1.524 . S
C1034 C1048 1.377 . S
C1035 C1034 1.524 . S
C1035 C1036 1.397 . S
C1035 C1040 1.363 . S
C1036 H1013 0.950 . S
C1036 C1035 1.397 . S
C1036 C1037 1.334 . S
C1037 H1014 0.950 . S
C1037 C1036 1.334 . S
C1037 C1038 1.287 . S
C1038 C1037 1.287 . S
C1038 C1039 1.524 . S
C1038 H1057 0.913 . S
C1039 H1015 0.950 . S
C1039 C1038 1.524 . S
C1039 C1040 1.415 . S
C1040 H1016 0.950 . S
C1040 C1035 1.363 . S
C1040 C1039 1.415 . S
C1041 H1017 0.951 . S
C1041 C1042 1.366 . S
C1041 C1043 1.388 1_455 S
C1042 C1041 1.366 . S
C1042 C1046 1.385 1_455 S
C1043 H1018 0.951 . S
C1043 C1041 1.388 1_655 S
C1043 C1044 1.366 . S
C1044 C1043 1.366 . S
C1044 C1045 1.414 . S
C1044 C1047 1.499 . S
C1045 H1019 0.950 . S
C1045 C1044 1.414 . S
C1045 C1046 1.374 . S
C1046 H1020 0.947 1_655 S
C1046 C1042 1.385 1_655 S
C1046 C1045 1.374 . S
C1047 C1044 1.499 . S
C1047 C1048 1.373 . S
C1047 C1049 1.389 . S
C1048 H1021 0.950 . S
C1048 C1034 1.377 . S
C1048 C1047 1.373 . S
C1049 C1033 1.377 . S
C1049 C1047 1.389 . S
C1049 C1050 1.524 . S
C1050 C1049 1.524 . S
C1050 C1051 1.397 1_655 S
C1050 C1055 1.363 . S
C1051 H1022 0.950 . S
C1051 C1050 1.397 1_455 S
C1051 C1052 1.334 . S
C1052 H1023 0.950 . S
C1052 C1051 1.334 . S
C1052 C1053 1.287 . S
C1053 C1052 1.287 . S
C1053 C1054 1.524 . S
C1053 H1056 0.999 . S
C1054 H1024 0.950 . S
C1054 C1053 1.524 . S
C1054 C1055 1.415 1_455 S
C1055 H1025 0.950 . S
C1055 C1050 1.363 . S
C1055 C1054 1.415 1_655 S
H1056 C1053 0.999 . S
H1057 C1038 0.913 . S
H1058 C1076 0.951 . S
H1059 C1078 0.951 . S
H1060 C1080 0.950 . S
H1061 C1081 0.950 . S
H1062 C1083 0.950 . S
H1063 C1086 0.950 . S
H1064 C1087 0.950 . S
H1065 C1089 0.950 . S
H1066 C1090 0.950 . S
H1067 C1091 0.951 . S
H1068 C1093 0.951 . S
H1069 C1095 0.950 . S
H1070 C1096 0.950 . S
H1071 C1098 0.950 . S
H1072 C1101 0.950 . S
H1073 C1102 0.950 1_655 S
H1074 C1104 0.950 1_565 S
H1075 C1105 0.950 . S
C1076 H1058 0.951 . S
C1076 C1077 1.366 . S
C1076 C1078 1.388 1_565 S
C1077 C1076 1.366 . S
C1077 C1081 1.385 . S
C1078 H1059 0.951 . S
C1078 C1076 1.388 1_545 S
C1078 C1079 1.366 . S
C1079 C1078 1.366 . S
C1079 C1080 1.414 1_545 S
C1079 C1082 1.499 . S
C1080 H1060 0.950 . S
C1080 C1079 1.414 1_565 S
C1080 C1081 1.374 . S
C1081 H1061 0.950 . S
C1081 C1077 1.385 . S
C1081 C1080 1.374 . S
C1082 C1079 1.499 . S
C1082 C1083 1.373 . S
C1082 C1084 1.389 . S
C1083 H1062 0.950 . S
C1083 C1082 1.373 . S
C1083 C1099 1.377 . S
C1084 C1082 1.389 . S
C1084 C1085 1.524 . S
C1084 C1098 1.377 . S
C1085 C1084 1.524 . S
C1085 C1086 1.397 . S
C1085 C1090 1.363 . S
C1086 H1063 0.950 . S
C1086 C1085 1.397 . S
C1086 C1087 1.334 . S
C1087 H1064 0.950 . S
C1087 C1086 1.334 . S
C1087 C1088 1.287 . S
C1088 C1087 1.287 . S
C1088 C1089 1.524 . S
C1088 H1107 0.913 . S
C1089 H1065 0.950 . S
C1089 C1088 1.524 . S
C1089 C1090 1.415 . S
C1090 H1066 0.950 . S
C1090 C1085 1.363 . S
C1090 C1089 1.415 . S
C1091 H1067 0.951 . S
C1091 C1092 1.366 . S
C1091 C1093 1.388 . S
C1092 C1091 1.366 . S
C1092 C1096 1.385 1_455 S
C1093 H1068 0.951 . S
C1093 C1091 1.388 . S
C1093 C1094 1.366 1_455 S
C1094 C1093 1.366 1_655 S
C1094 C1095 1.414 . S
C1094 C1097 1.499 . S
C1095 H1069 0.950 . S
C1095 C1094 1.414 . S
C1095 C1096 1.374 . S
C1096 H1070 0.950 . S
C1096 C1092 1.385 1_655 S
C1096 C1095 1.374 . S
C1097 C1094 1.499 . S
C1097 C1098 1.373 . S
C1097 C1099 1.389 . S
C1098 H1071 0.950 . S
C1098 C1084 1.377 . S
C1098 C1097 1.373 . S
C1099 C1083 1.377 . S
C1099 C1097 1.389 . S
C1099 C1100 1.524 . S
C1100 C1099 1.524 . S
C1100 C1101 1.397 . S
C1100 C1105 1.363 1_655 S
C1101 H1072 0.950 . S
C1101 C1100 1.397 . S
C1101 C1102 1.334 1_655 S
C1102 H1073 0.950 1_455 S
C1102 C1101 1.334 1_455 S
C1102 C1103 1.287 . S
C1103 C1102 1.287 . S
C1103 C1104 1.524 . S
C1103 H1106 0.999 . S
C1104 H1074 0.950 1_545 S
C1104 C1103 1.524 . S
C1104 C1105 1.415 . S
C1105 H1075 0.950 . S
C1105 C1100 1.363 1_455 S
C1105 C1104 1.415 . S
H1106 C1103 0.999 . S
H1107 C1088 0.913 . S
H1108 C1126 0.951 . S
H1109 C1128 0.951 . S
H1110 C1130 0.950 . S
H1111 C1131 0.950 . S
H1112 C1133 0.950 . S
H1113 C1136 0.950 . S
H1114 C1137 0.950 . S
H1115 C1139 0.950 . S
H1116 C1140 0.950 . S
H1117 C1141 0.951 . S
H1118 C1143 0.951 . S
H1119 C1145 0.950 . S
H1120 C1146 0.950 . S
H1121 C1148 0.950 . S
H1122 C1151 0.950 . S
H1123 C1152 0.950 . S
H1124 C1154 0.950 . S
H1125 C1155 0.950 . S
C1126 H1108 0.951 . S
C1126 C1127 1.366 . S
C1126 C1128 1.388 . S
C1127 C1126 1.366 . S
C1127 C1131 1.385 . S
C1128 H1109 0.951 . S
C1128 C1126 1.388 . S
C1128 C1129 1.366 . S
C1129 C1128 1.366 . S
C1129 C1130 1.414 . S
C1129 C1132 1.499 . S
C1130 H1110 0.950 . S
C1130 C1129 1.414 . S
C1130 C1131 1.374 . S
C1131 H1111 0.950 . S
C1131 C1127 1.385 . S
C1131 C1130 1.374 . S
C1132 C1129 1.499 . S
C1132 C1133 1.373 . S
C1132 C1134 1.389 . S
C1133 H1112 0.950 . S
C1133 C1132 1.373 . S
C1133 C1149 1.377 . S
C1134 C1132 1.389 . S
C1134 C1135 1.524 . S
C1134 C1148 1.377 . S
C1135 C1134 1.524 . S
C1135 C1136 1.397 . S
C1135 C1140 1.363 . S
C1136 H1113 0.950 . S
C1136 C1135 1.397 . S
C1136 C1137 1.334 . S
C1137 H1114 0.950 . S
C1137 C1136 1.334 . S
C1137 C1138 1.287 . S
C1138 C1137 1.287 . S
C1138 C1139 1.524 . S
C1138 H1157 0.913 . S
C1139 H1115 0.950 . S
C1139 C1138 1.524 . S
C1139 C1140 1.415 . S
C1140 H1116 0.950 . S
C1140 C1135 1.363 . S
C1140 C1139 1.415 . S
C1141 H1117 0.951 . S
C1141 C1142 1.366 . S
C1141 C1143 1.388 . S
C1142 C1141 1.366 . S
C1142 C1146 1.385 . S
C1143 H1118 0.951 . S
C1143 C1141 1.388 . S
C1143 C1144 1.366 . S
C1144 C1143 1.366 . S
C1144 C1145 1.414 . S
C1144 C1147 1.499 . S
C1145 H1119 0.950 . S
C1145 C1144 1.414 . S
C1145 C1146 1.374 . S
C1146 H1120 0.950 . S
C1146 C1142 1.385 . S
C1146 C1145 1.374 . S
C1147 C1144 1.499 . S
C1147 C1148 1.373 . S
C1147 C1149 1.389 . S
C1148 H1121 0.950 . S
C1148 C1134 1.377 . S
C1148 C1147 1.373 . S
C1149 C1133 1.377 . S
C1149 C1147 1.389 . S
C1149 C1150 1.524 . S
C1150 C1149 1.524 . S
C1150 C1151 1.397 . S
C1150 C1155 1.363 . S
C1151 H1122 0.950 . S
C1151 C1150 1.397 . S
C1151 C1152 1.334 . S
C1152 H1123 0.950 . S
C1152 C1151 1.334 . S
C1152 C1153 1.287 . S
C1153 C1152 1.287 . S
C1153 C1154 1.524 . S
C1153 H1156 0.999 . S
C1154 H1124 0.950 . S
C1154 C1153 1.524 . S
C1154 C1155 1.415 . S
C1155 H1125 0.950 . S
C1155 C1150 1.363 . S
C1155 C1154 1.415 . S
H1156 C1153 0.999 . S
H1157 C1138 0.913 . S
H1158 C1176 0.951 . S
H1159 C1178 0.951 . S
H1160 C1180 0.950 . S
H1161 C1181 0.950 . S
H1162 C1183 0.950 . S
H1163 C1186 0.950 . S
H1164 C1187 0.950 . S
H1165 C1189 0.950 . S
H1166 C1190 0.950 . S
H1167 C1191 0.951 . S
H1168 C1193 0.951 . S
H1169 C1195 0.950 . S
H1170 C1196 0.950 . S
H1171 C1198 0.950 1_455 S
H1172 C1201 0.950 . S
H1173 C1202 0.950 . S
H1174 C1204 0.950 . S
H1175 C1205 0.950 . S
C1176 H1158 0.951 . S
C1176 C1177 1.366 . S
C1176 C1178 1.388 1_545 S
C1177 C1176 1.366 . S
C1177 C1181 1.385 . S
C1178 H1159 0.951 . S
C1178 C1176 1.388 1_565 S
C1178 C1179 1.366 . S
C1179 C1178 1.366 . S
C1179 C1180 1.414 . S
C1179 C1182 1.499 . S
C1180 H1160 0.950 . S
C1180 C1179 1.414 . S
C1180 C1181 1.374 1_565 S
C1181 H1161 0.950 . S
C1181 C1177 1.385 . S
C1181 C1180 1.374 1_545 S
C1182 C1179 1.499 . S
C1182 C1183 1.373 . S
C1182 C1184 1.389 . S
C1183 H1162 0.950 . S
C1183 C1182 1.373 . S
C1183 C1199 1.377 . S
C1184 C1182 1.389 . S
C1184 C1185 1.524 1_655 S
C1184 C1198 1.377 . S
C1185 C1184 1.524 1_455 S
C1185 C1186 1.397 1_465 S
C1185 C1190 1.363 . S
C1186 H1163 0.950 . S
C1186 C1185 1.397 1_645 S
C1186 C1187 1.334 1_655 S
C1187 H1164 0.950 . S
C1187 C1186 1.334 1_455 S
C1187 C1188 1.287 . S
C1188 C1187 1.287 . S
C1188 C1189 1.524 . S
C1188 H1207 0.913 . S
C1189 H1165 0.950 . S
C1189 C1188 1.524 . S
C1189 C1190 1.415 1_545 S
C1190 H1166 0.950 . S
C1190 C1185 1.363 . S
C1190 C1189 1.415 1_565 S
C1191 H1167 0.951 . S
C1191 C1192 1.366 1_655 S
C1191 C1193 1.388 . S
C1192 C1191 1.366 1_455 S
C1192 C1196 1.385 . S
C1193 H1168 0.951 . S
C1193 C1191 1.388 . S
C1193 C1194 1.366 . S
C1194 C1193 1.366 . S
C1194 C1195 1.414 1_655 S
C1194 C1197 1.499 . S
C1195 H1169 0.950 . S
C1195 C1194 1.414 1_455 S
C1195 C1196 1.374 . S
C1196 H1170 0.950 . S
C1196 C1192 1.385 . S
C1196 C1195 1.374 . S
C1197 C1194 1.499 . S
C1197 C1198 1.373 . S
C1197 C1199 1.389 . S
C1198 H1171 0.950 1_655 S
C1198 C1184 1.377 . S
C1198 C1197 1.373 . S
C1199 C1183 1.377 . S
C1199 C1197 1.389 . S
C1199 C1200 1.524 . S
C1200 C1199 1.524 . S
C1200 C1201 1.397 . S
C1200 C1205 1.363 . S
C1201 H1172 0.950 . S
C1201 C1200 1.397 . S
C1201 C1202 1.334 . S
C1202 H1173 0.950 . S
C1202 C1201 1.334 . S
C1202 C1203 1.287 . S
C1203 C1202 1.287 . S
C1203 C1204 1.524 . S
C1203 H1206 0.999 . S
C1204 H1174 0.950 . S
C1204 C1203 1.524 . S
C1204 C1205 1.415 . S
C1205 H1175 0.950 . S
C1205 C1200 1.363 . S
C1205 C1204 1.415 . S
H1206 C1203 0.999 . S
H1207 C1188 0.913 . S
H1208 C1226 0.951 . S
H1209 C1228 0.951 . S
H1210 C1230 0.950 . S
H1211 C1231 0.950 . S
H1212 C1233 0.950 . S
H1213 C1236 0.950 . S
H1214 C1237 0.950 . S
H1215 C1239 0.950 . S
H1216 C1240 0.950 . S
H1217 C1241 0.951 . S
H1218 C1243 0.951 1_455 S
H1219 C1245 0.950 . S
H1220 C1246 0.950 . S
H1221 C1248 0.950 . S
H1222 C1251 0.950 . S
H1223 C1252 0.950 . S
H1224 C1254 0.950 . S
H1225 C1255 0.950 1_655 S
C1226 H1208 0.951 . S
C1226 C1227 1.366 . S
C1226 C1228 1.388 . S
C1227 C1226 1.366 . S
C1227 C1231 1.385 . S
C1228 H1209 0.951 . S
C1228 C1226 1.388 . S
C1228 C1229 1.366 . S
C1229 C1228 1.366 . S
C1229 C1230 1.414 . S
C1229 C1232 1.499 . S
C1230 H1210 0.950 . S
C1230 C1229 1.414 . S
C1230 C1231 1.374 . S
C1231 H1211 0.950 . S
C1231 C1227 1.385 . S
C1231 C1230 1.374 . S
C1232 C1229 1.499 . S
C1232 C1233 1.373 . S
C1232 C1234 1.389 . S
C1233 H1212 0.950 . S
C1233 C1232 1.373 . S
C1233 C1249 1.377 . S
C1234 C1232 1.389 . S
C1234 C1235 1.524 . S
C1234 C1248 1.377 . S
C1235 C1234 1.524 . S
C1235 C1236 1.397 . S
C1235 C1240 1.363 . S
C1236 H1213 0.950 . S
C1236 C1235 1.397 . S
C1236 C1237 1.334 . S
C1237 H1214 0.950 . S
C1237 C1236 1.334 . S
C1237 C1238 1.287 . S
C1238 C1237 1.287 . S
C1238 C1239 1.524 . S
C1238 H1257 0.913 . S
C1239 H1215 0.950 . S
C1239 C1238 1.524 . S
C1239 C1240 1.415 . S
C1240 H1216 0.950 . S
C1240 C1235 1.363 . S
C1240 C1239 1.415 . S
C1241 H1217 0.951 . S
C1241 C1242 1.366 . S
C1241 C1243 1.390 1_455 S
C1242 C1241 1.366 . S
C1242 C1246 1.385 1_455 S
C1243 H1218 0.951 1_655 S
C1243 C1241 1.390 1_655 S
C1243 C1244 1.363 . S
C1244 C1243 1.363 . S
C1244 C1245 1.414 . S
C1244 C1247 1.499 . S
C1245 H1219 0.950 . S
C1245 C1244 1.414 . S
C1245 C1246 1.374 . S
C1246 H1220 0.950 . S
C1246 C1242 1.385 1_655 S
C1246 C1245 1.374 . S
C1247 C1244 1.499 . S
C1247 C1248 1.373 . S
C1247 C1249 1.389 . S
C1248 H1221 0.950 . S
C1248 C1234 1.377 . S
C1248 C1247 1.373 . S
C1249 C1233 1.377 . S
C1249 C1247 1.389 . S
C1249 C1250 1.524 . S
C1250 C1249 1.524 . S
C1250 C1251 1.397 . S
C1250 C1255 1.363 1_655 S
C1251 H1222 0.950 . S
C1251 C1250 1.397 . S
C1251 C1252 1.334 1_655 S
C1252 H1223 0.950 . S
C1252 C1251 1.334 1_455 S
C1252 C1253 1.287 . S
C1253 C1252 1.287 . S
C1253 C1254 1.524 . S
C1253 H1256 0.999 . S
C1254 H1224 0.950 . S
C1254 C1253 1.524 . S
C1254 C1255 1.415 . S
C1255 H1225 0.950 1_455 S
C1255 C1250 1.363 1_455 S
C1255 C1254 1.415 . S
H1256 C1253 0.999 . S
H1257 C1238 0.913 . S
H1258 C1276 0.951 . S
H1259 C1278 0.951 . S
H1260 C1280 0.950 . S
H1261 C1281 0.950 . S
H1262 C1283 0.950 . S
H1263 C1286 0.950 . S
H1264 C1287 0.950 . S
H1265 C1289 0.950 . S
H1266 C1290 0.950 . S
H1267 C1291 0.951 . S
H1268 C1293 0.951 . S
H1269 C1295 0.950 . S
H1270 C1296 0.950 . S
H1271 C1298 0.950 . S
H1272 C1301 0.950 . S
H1273 C1302 0.950 . S
H1274 C1304 0.950 . S
H1275 C1305 0.950 . S
C1276 H1258 0.951 . S
C1276 C1277 1.366 . S
C1276 C1278 1.388 1_565 S
C1277 C1276 1.366 . S
C1277 C1281 1.385 . S
C1278 H1259 0.951 . S
C1278 C1276 1.388 1_545 S
C1278 C1279 1.366 . S
C1279 C1278 1.366 . S
C1279 C1280 1.414 1_545 S
C1279 C1282 1.499 . S
C1280 H1260 0.950 . S
C1280 C1279 1.414 1_565 S
C1280 C1281 1.374 . S
C1281 H1261 0.950 . S
C1281 C1277 1.385 . S
C1281 C1280 1.374 . S
C1282 C1279 1.499 . S
C1282 C1283 1.373 . S
C1282 C1284 1.389 . S
C1283 H1262 0.950 . S
C1283 C1282 1.373 . S
C1283 C1299 1.377 . S
C1284 C1282 1.389 . S
C1284 C1285 1.524 . S
C1284 C1298 1.377 . S
C1285 C1284 1.524 . S
C1285 C1286 1.397 1_545 S
C1285 C1290 1.363 . S
C1286 H1263 0.950 . S
C1286 C1285 1.397 1_565 S
C1286 C1287 1.334 . S
C1287 H1264 0.950 . S
C1287 C1286 1.334 . S
C1287 C1288 1.287 . S
C1288 C1287 1.287 . S
C1288 C1289 1.524 1_565 S
C1288 H1307 0.913 . S
C1289 H1265 0.950 . S
C1289 C1288 1.524 1_545 S
C1289 C1290 1.415 . S
C1290 H1266 0.950 . S
C1290 C1285 1.363 . S
C1290 C1289 1.415 . S
C1291 H1267 0.951 . S
C1291 C1292 1.366 . S
C1291 C1293 1.388 . S
C1292 C1291 1.366 . S
C1292 C1296 1.385 . S
C1293 H1268 0.951 . S
C1293 C1291 1.388 . S
C1293 C1294 1.366 . S
C1294 C1293 1.366 . S
C1294 C1295 1.414 . S
C1294 C1297 1.499 . S
C1295 H1269 0.950 . S
C1295 C1294 1.414 . S
C1295 C1296 1.374 . S
C1296 H1270 0.950 . S
C1296 C1292 1.385 . S
C1296 C1295 1.374 . S
C1297 C1294 1.499 . S
C1297 C1298 1.373 . S
C1297 C1299 1.389 . S
C1298 H1271 0.950 . S
C1298 C1284 1.377 . S
C1298 C1297 1.373 . S
C1299 C1283 1.377 . S
C1299 C1297 1.389 . S
C1299 C1300 1.524 . S
C1300 C1299 1.524 . S
C1300 C1301 1.397 . S
C1300 C1305 1.363 . S
C1301 H1272 0.950 . S
C1301 C1300 1.397 . S
C1301 C1302 1.334 . S
C1302 H1273 0.950 . S
C1302 C1301 1.334 . S
C1302 C1303 1.287 . S
C1303 C1302 1.287 . S
C1303 C1304 1.524 . S
C1303 H1306 0.999 . S
C1304 H1274 0.950 . S
C1304 C1303 1.524 . S
C1304 C1305 1.415 . S
C1305 H1275 0.950 . S
C1305 C1300 1.363 . S
C1305 C1304 1.415 . S
H1306 C1303 0.999 . S
H1307 C1288 0.913 . S
H1308 C1326 0.951 . S
H1309 C1328 0.951 . S
H1310 C1330 0.950 . S
H1311 C1331 0.950 . S
H1312 C1333 0.950 . S
H1313 C1336 0.950 . S
H1314 C1337 0.950 . S
H1315 C1339 0.950 . S
H1316 C1340 0.950 . S
H1317 C1341 0.951 . S
H1318 C1343 0.951 . S
H1319 C1345 0.950 . S
H1320 C1346 0.950 . S
H1321 C1348 0.950 . S
H1322 C1351 0.950 . S
H1323 C1352 0.950 . S
H1324 C1354 0.950 . S
H1325 C1355 0.950 . S
C1326 H1308 0.951 . S
C1326 C1327 1.366 . S
C1326 C1328 1.388 . S
C1327 C1326 1.366 . S
C1327 C1331 1.385 . S
C1328 H1309 0.951 . S
C1328 C1326 1.388 . S
C1328 C1329 1.366 . S
C1329 C1328 1.366 . S
C1329 C1330 1.414 . S
C1329 C1332 1.499 . S
C1330 H1310 0.950 . S
C1330 C1329 1.414 . S
C1330 C1331 1.374 . S
C1331 H1311 0.950 . S
C1331 C1327 1.385 . S
C1331 C1330 1.374 . S
C1332 C1329 1.499 . S
C1332 C1333 1.373 . S
C1332 C1334 1.389 . S
C1333 H1312 0.950 . S
C1333 C1332 1.373 . S
C1333 C1349 1.377 . S
C1334 C1332 1.389 . S
C1334 C1335 1.524 . S
C1334 C1348 1.377 . S
C1335 C1334 1.524 . S
C1335 C1336 1.397 . S
C1335 C1340 1.363 . S
C1336 H1313 0.950 . S
C1336 C1335 1.397 . S
C1336 C1337 1.334 . S
C1337 H1314 0.950 . S
C1337 C1336 1.334 . S
C1337 C1338 1.287 . S
C1338 C1337 1.287 . S
C1338 C1339 1.524 . S
C1338 H1357 0.913 . S
C1339 H1315 0.950 . S
C1339 C1338 1.524 . S
C1339 C1340 1.415 . S
C1340 H1316 0.950 . S
C1340 C1335 1.363 . S
C1340 C1339 1.415 . S
C1341 H1317 0.951 . S
C1341 C1342 1.366 . S
C1341 C1343 1.388 . S
C1342 C1341 1.366 . S
C1342 C1346 1.385 . S
C1343 H1318 0.951 . S
C1343 C1341 1.388 . S
C1343 C1344 1.366 . S
C1344 C1343 1.366 . S
C1344 C1345 1.414 . S
C1344 C1347 1.499 . S
C1345 H1319 0.950 . S
C1345 C1344 1.414 . S
C1345 C1346 1.374 . S
C1346 H1320 0.950 . S
C1346 C1342 1.385 . S
C1346 C1345 1.374 . S
C1347 C1344 1.499 . S
C1347 C1348 1.373 . S
C1347 C1349 1.389 . S
C1348 H1321 0.950 . S
C1348 C1334 1.377 . S
C1348 C1347 1.373 . S
C1349 C1333 1.377 . S
C1349 C1347 1.389 . S
C1349 C1350 1.524 . S
C1350 C1349 1.524 . S
C1350 C1351 1.397 . S
C1350 C1355 1.363 . S
C1351 H1322 0.950 . S
C1351 C1350 1.397 . S
C1351 C1352 1.334 . S
C1352 H1323 0.950 . S
C1352 C1351 1.334 . S
C1352 C1353 1.287 . S
C1353 C1352 1.287 . S
C1353 C1354 1.524 . S
C1353 H1356 0.999 . S
C1354 H1324 0.950 . S
C1354 C1353 1.524 . S
C1354 C1355 1.415 . S
C1355 H1325 0.950 . S
C1355 C1350 1.363 . S
C1355 C1354 1.415 . S
H1356 C1353 0.999 . S
H1357 C1338 0.913 . S
H1358 C1376 0.951 . S
H1359 C1378 0.951 . S
H1360 C1380 0.950 . S
H1361 C1381 0.950 . S
H1362 C1383 0.950 . S
H1363 C1386 0.950 . S
H1364 C1387 0.950 . S
H1365 C1389 0.950 . S
H1366 C1390 0.950 . S
H1367 C1391 0.951 . S
H1368 C1393 0.951 . S
H1369 C1395 0.950 1_455 S
H1370 C1396 0.950 . S
H1371 C1398 0.950 . S
H1372 C1401 0.950 . S
H1373 C1402 0.950 . S
H1374 C1404 0.950 . S
H1375 C1405 0.950 . S
C1376 H1358 0.951 . S
C1376 C1377 1.366 . S
C1376 C1378 1.388 . S
C1377 C1376 1.366 . S
C1377 C1381 1.385 . S
C1378 H1359 0.951 . S
C1378 C1376 1.388 . S
C1378 C1379 1.366 . S
C1379 C1378 1.366 . S
C1379 C1380 1.414 . S
C1379 C1382 1.499 . S
C1380 H1360 0.950 . S
C1380 C1379 1.414 . S
C1380 C1381 1.374 . S
C1381 H1361 0.950 . S
C1381 C1377 1.385 . S
C1381 C1380 1.374 . S
C1382 C1379 1.499 . S
C1382 C1383 1.373 . S
C1382 C1384 1.389 . S
C1383 H1362 0.950 . S
C1383 C1382 1.373 . S
C1383 C1399 1.377 . S
C1384 C1382 1.389 . S
C1384 C1385 1.524 . S
C1384 C1398 1.377 . S
C1385 C1384 1.524 . S
C1385 C1386 1.397 . S
C1385 C1390 1.363 1_655 S
C1386 H1363 0.950 . S
C1386 C1385 1.397 . S
C1386 C1387 1.334 . S
C1387 H1364 0.950 . S
C1387 C1386 1.334 . S
C1387 C1388 1.287 1_655 S
C1388 C1387 1.287 1_455 S
C1388 C1389 1.524 . S
C1388 H1407 0.913 . S
C1389 H1365 0.950 . S
C1389 C1388 1.524 . S
C1389 C1390 1.415 . S
C1390 H1366 0.950 . S
C1390 C1385 1.363 1_455 S
C1390 C1389 1.415 . S
C1391 H1367 0.951 . S
C1391 C1392 1.366 . S
C1391 C1393 1.388 . S
C1392 C1391 1.366 . S
C1392 C1396 1.385 1_655 S
C1393 H1368 0.951 . S
C1393 C1391 1.388 . S
C1393 C1394 1.366 . S
C1394 C1393 1.366 . S
C1394 C1395 1.414 . S
C1394 C1397 1.499 . S
C1395 H1369 0.950 1_655 S
C1395 C1394 1.414 . S
C1395 C1396 1.374 1_655 S
C1396 H1370 0.950 . S
C1396 C1392 1.385 1_455 S
C1396 C1395 1.374 1_455 S
C1397 C1394 1.499 . S
C1397 C1398 1.373 . S
C1397 C1399 1.389 . S
C1398 H1371 0.950 . S
C1398 C1384 1.377 . S
C1398 C1397 1.373 . S
C1399 C1383 1.377 . S
C1399 C1397 1.389 . S
C1399 C1400 1.524 . S
C1400 C1399 1.524 . S
C1400 C1401 1.397 . S
C1400 C1405 1.363 . S
C1401 H1372 0.950 . S
C1401 C1400 1.397 . S
C1401 C1402 1.334 . S
C1402 H1373 0.950 . S
C1402 C1401 1.334 . S
C1402 C1403 1.287 . S
C1403 C1402 1.287 . S
C1403 C1404 1.524 . S
C1403 H1406 0.999 . S
C1404 H1374 0.950 . S
C1404 C1403 1.524 . S
C1404 C1405 1.415 . S
C1405 H1375 0.950 . S
C1405 C1400 1.363 . S
C1405 C1404 1.415 . S
H1406 C1403 0.999 . S
H1407 C1388 0.913 . S
H1408 C1426 0.951 . S
H1409 C1428 0.951 . S
H1410 C1430 0.950 . S
H1411 C1431 0.950 . S
H1412 C1433 0.950 . S
H1413 C1436 0.950 . S
H1414 C1437 0.950 . S
H1415 C1439 0.950 . S
H1416 C1440 0.950 . S
H1417 C1441 0.951 . S
H1418 C1443 0.951 . S
H1419 C1445 0.950 . S
H1420 C1446 0.950 . S
H1421 C1448 0.950 . S
H1422 C1451 0.950 . S
H1423 C1452 0.950 . S
H1424 C1454 0.950 . S
H1425 C1455 0.950 . S
C1426 H1408 0.951 . S
C1426 C1427 1.366 . S
C1426 C1428 1.388 . S
C1427 C1426 1.366 . S
C1427 C1431 1.385 . S
C1428 H1409 0.951 . S
C1428 C1426 1.388 . S
C1428 C1429 1.366 . S
C1429 C1428 1.366 . S
C1429 C1430 1.414 . S
C1429 C1432 1.499 . S
C1430 H1410 0.950 . S
C1430 C1429 1.414 . S
C1430 C1431 1.374 . S
C1431 H1411 0.950 . S
C1431 C1427 1.385 . S
C1431 C1430 1.374 . S
C1432 C1429 1.499 . S
C1432 C1433 1.373 . S
C1432 C1434 1.389 . S
C1433 H1412 0.950 . S
C1433 C1432 1.373 . S
C1433 C1449 1.377 . S
C1434 C1432 1.389 . S
C1434 C1435 1.524 . S
C1434 C1448 1.377 . S
C1435 C1434 1.524 . S
C1435 C1436 1.397 . S
C1435 C1440 1.363 . S
C1436 H1413 0.950 . S
C1436 C1435 1.397 . S
C1436 C1437 1.334 . S
C1437 H1414 0.950 . S
C1437 C1436 1.334 . S
C1437 C1438 1.287 . S
C1438 C1437 1.287 . S
C1438 C1439 1.524 . S
C1438 H1457 0.913 . S
C1439 H1415 0.950 . S
C1439 C1438 1.524 . S
C1439 C1440 1.415 . S
C1440 H1416 0.950 . S
C1440 C1435 1.363 . S
C1440 C1439 1.415 . S
C1441 H1417 0.951 . S
C1441 C1442 1.366 . S
C1441 C1443 1.388 . S
C1442 C1441 1.366 . S
C1442 C1446 1.385 . S
C1443 H1418 0.951 . S
C1443 C1441 1.388 . S
C1443 C1444 1.366 . S
C1444 C1443 1.366 . S
C1444 C1445 1.414 . S
C1444 C1447 1.499 . S
C1445 H1419 0.950 . S
C1445 C1444 1.414 . S
C1445 C1446 1.374 . S
C1446 H1420 0.950 . S
C1446 C1442 1.385 . S
C1446 C1445 1.374 . S
C1447 C1444 1.499 . S
C1447 C1448 1.373 . S
C1447 C1449 1.389 . S
C1448 H1421 0.950 . S
C1448 C1434 1.377 . S
C1448 C1447 1.373 . S
C1449 C1433 1.377 . S
C1449 C1447 1.389 . S
C1449 C1450 1.524 . S
C1450 C1449 1.524 . S
C1450 C1451 1.397 . S
C1450 C1455 1.363 . S
C1451 H1422 0.950 . S
C1451 C1450 1.397 . S
C1451 C1452 1.334 . S
C1452 H1423 0.950 . S
C1452 C1451 1.334 . S
C1452 C1453 1.287 . S
C1453 C1452 1.287 . S
C1453 C1454 1.524 . S
C1453 H1456 0.999 . S
C1454 H1424 0.950 . S
C1454 C1453 1.524 . S
C1454 C1455 1.415 . S
C1455 H1425 0.950 . S
C1455 C1450 1.363 . S
C1455 C1454 1.415 . S
H1456 C1453 0.999 . S
H1457 C1438 0.913 . S
H1458 C1476 0.951 . S
H1459 C1478 0.951 . S
H1460 C1480 0.950 . S
H1461 C1481 0.950 . S
H1462 C1483 0.950 . S
H1463 C1486 0.950 . S
H1464 C1487 0.950 . S
H1465 C1489 0.950 . S
H1466 C1490 0.950 . S
H1467 C1491 0.951 . S
H1468 C1493 0.951 . S
H1469 C1495 0.950 . S
H1470 C1496 0.950 . S
H1471 C1498 0.950 . S
H1472 C1501 0.950 . S
H1473 C1502 0.950 . S
H1474 C1504 0.950 . S
H1475 C1505 0.950 . S
C1476 H1458 0.951 . S
C1476 C1477 1.366 . S
C1476 C1478 1.388 . S
C1477 C1476 1.366 . S
C1477 C1481 1.385 . S
C1478 H1459 0.951 . S
C1478 C1476 1.388 . S
C1478 C1479 1.366 . S
C1479 C1478 1.366 . S
C1479 C1480 1.414 . S
C1479 C1482 1.499 . S
C1480 H1460 0.950 . S
C1480 C1479 1.414 . S
C1480 C1481 1.374 . S
C1481 H1461 0.950 . S
C1481 C1477 1.385 . S
C1481 C1480 1.374 . S
C1482 C1479 1.499 . S
C1482 C1483 1.373 . S
C1482 C1484 1.389 . S
C1483 H1462 0.950 . S
C1483 C1482 1.373 . S
C1483 C1499 1.377 . S
C1484 C1482 1.389 . S
C1484 C1485 1.524 . S
C1484 C1498 1.377 . S
C1485 C1484 1.524 . S
C1485 C1486 1.397 . S
C1485 C1490 1.363 . S
C1486 H1463 0.950 . S
C1486 C1485 1.397 . S
C1486 C1487 1.334 . S
C1487 H1464 0.950 . S
C1487 C1486 1.334 . S
C1487 C1488 1.287 . S
C1488 C1487 1.287 . S
C1488 C1489 1.524 . S
C1488 H1507 0.913 . S
C1489 H1465 0.950 . S
C1489 C1488 1.524 . S
C1489 C1490 1.415 . S
C1490 H1466 0.950 . S
C1490 C1485 1.363 . S
C1490 C1489 1.415 . S
C1491 H1467 0.951 . S
C1491 C1492 1.366 . S
C1491 C1493 1.388 . S
C1492 C1491 1.366 . S
C1492 C1496 1.385 . S
C1493 H1468 0.951 . S
C1493 C1491 1.388 . S
C1493 C1494 1.366 . S
C1494 C1493 1.366 . S
C1494 C1495 1.414 . S
C1494 C1497 1.499 . S
C1495 H1469 0.950 . S
C1495 C1494 1.414 . S
C1495 C1496 1.374 . S
C1496 H1470 0.950 . S
C1496 C1492 1.385 . S
C1496 C1495 1.374 . S
C1497 C1494 1.499 . S
C1497 C1498 1.373 . S
C1497 C1499 1.389 . S
C1498 H1471 0.950 . S
C1498 C1484 1.377 . S
C1498 C1497 1.373 . S
C1499 C1483 1.377 . S
C1499 C1497 1.389 . S
C1499 C1500 1.524 . S
C1500 C1499 1.524 . S
C1500 C1501 1.397 . S
C1500 C1505 1.363 . S
C1501 H1472 0.950 . S
C1501 C1500 1.397 . S
C1501 C1502 1.334 . S
C1502 H1473 0.950 . S
C1502 C1501 1.334 . S
C1502 C1503 1.287 . S
C1503 C1502 1.287 . S
C1503 C1504 1.524 . S
C1503 H1506 0.999 . S
C1504 H1474 0.950 . S
C1504 C1503 1.524 . S
C1504 C1505 1.415 . S
C1505 H1475 0.950 . S
C1505 C1500 1.363 . S
C1505 C1504 1.415 . S
H1506 C1503 0.999 . S
H1507 C1488 0.913 . S
H1508 C1526 0.951 . S
H1509 C1528 0.951 . S
H1510 C1530 0.950 . S
H1511 C1531 0.950 . S
H1512 C1533 0.950 . S
H1513 C1536 0.950 . S
H1514 C1537 0.950 . S
H1515 C1539 0.950 . S
H1516 C1540 0.950 . S
H1517 C1541 0.951 . S
H1518 C1543 0.951 . S
H1519 C1545 0.950 . S
H1520 C1546 0.950 . S
H1521 C1548 0.950 . S
H1522 C1551 0.950 . S
H1523 C1552 0.950 . S
H1524 C1554 0.950 . S
H1525 C1555 0.950 . S
C1526 H1508 0.951 . S
C1526 C1527 1.366 . S
C1526 C1528 1.388 . S
C1527 C1526 1.366 . S
C1527 C1531 1.385 . S
C1528 H1509 0.951 . S
C1528 C1526 1.388 . S
C1528 C1529 1.366 . S
C1529 C1528 1.366 . S
C1529 C1530 1.414 . S
C1529 C1532 1.499 . S
C1530 H1510 0.950 . S
C1530 C1529 1.414 . S
C1530 C1531 1.374 . S
C1531 H1511 0.950 . S
C1531 C1527 1.385 . S
C1531 C1530 1.374 . S
C1532 C1529 1.499 . S
C1532 C1533 1.373 . S
C1532 C1534 1.389 . S
C1533 H1512 0.950 . S
C1533 C1532 1.373 . S
C1533 C1549 1.377 . S
C1534 C1532 1.389 . S
C1534 C1535 1.524 . S
C1534 C1548 1.377 . S
C1535 C1534 1.524 . S
C1535 C1536 1.397 . S
C1535 C1540 1.363 . S
C1536 H1513 0.950 . S
C1536 C1535 1.397 . S
C1536 C1537 1.334 . S
C1537 H1514 0.950 . S
C1537 C1536 1.334 . S
C1537 C1538 1.287 . S
C1538 C1537 1.287 . S
C1538 C1539 1.524 . S
C1538 H1557 0.913 . S
C1539 H1515 0.950 . S
C1539 C1538 1.524 . S
C1539 C1540 1.415 . S
C1540 H1516 0.950 . S
C1540 C1535 1.363 . S
C1540 C1539 1.415 . S
C1541 H1517 0.951 . S
C1541 C1542 1.366 . S
C1541 C1543 1.388 . S
C1542 C1541 1.366 . S
C1542 C1546 1.385 . S
C1543 H1518 0.951 . S
C1543 C1541 1.388 . S
C1543 C1544 1.366 . S
C1544 C1543 1.366 . S
C1544 C1545 1.414 . S
C1544 C1547 1.499 . S
C1545 H1519 0.950 . S
C1545 C1544 1.414 . S
C1545 C1546 1.374 . S
C1546 H1520 0.950 . S
C1546 C1542 1.385 . S
C1546 C1545 1.374 . S
C1547 C1544 1.499 . S
C1547 C1548 1.373 . S
C1547 C1549 1.389 . S
C1548 H1521 0.950 . S
C1548 C1534 1.377 . S
C1548 C1547 1.373 . S
C1549 C1533 1.377 . S
C1549 C1547 1.389 . S
C1549 C1550 1.524 . S
C1550 C1549 1.524 . S
C1550 C1551 1.397 . S
C1550 C1555 1.363 . S
C1551 H1522 0.950 . S
C1551 C1550 1.397 . S
C1551 C1552 1.334 . S
C1552 H1523 0.950 . S
C1552 C1551 1.334 . S
C1552 C1553 1.287 . S
C1553 C1552 1.287 . S
C1553 C1554 1.524 . S
C1553 H1556 0.999 . S
C1554 H1524 0.950 . S
C1554 C1553 1.524 . S
C1554 C1555 1.415 . S
C1555 H1525 0.950 . S
C1555 C1550 1.363 . S
C1555 C1554 1.415 . S
H1556 C1553 0.999 . S
H1557 C1538 0.913 . S
H1558 C1576 0.951 . S
H1559 C1578 0.951 . S
H1560 C1580 0.950 . S
H1561 C1581 0.950 . S
H1562 C1583 0.950 . S
H1563 C1586 0.950 . S
H1564 C1587 0.950 . S
H1565 C1589 0.950 . S
H1566 C1590 0.950 . S
H1567 C1591 0.951 . S
H1568 C1593 0.951 . S
H1569 C1595 0.950 . S
H1570 C1596 0.950 . S
H1571 C1598 0.950 . S
H1572 C1601 0.950 . S
H1573 C1602 0.950 . S
H1574 C1604 0.950 . S
H1575 C1605 0.950 . S
C1576 H1558 0.951 . S
C1576 C1577 1.366 . S
C1576 C1578 1.388 . S
C1577 C1576 1.366 . S
C1577 C1581 1.385 . S
C1578 H1559 0.951 . S
C1578 C1576 1.388 . S
C1578 C1579 1.366 . S
C1579 C1578 1.366 . S
C1579 C1580 1.414 . S
C1579 C1582 1.499 . S
C1580 H1560 0.950 . S
C1580 C1579 1.414 . S
C1580 C1581 1.374 . S
C1581 H1561 0.950 . S
C1581 C1577 1.385 . S
C1581 C1580 1.374 . S
C1582 C1579 1.499 . S
C1582 C1583 1.373 . S
C1582 C1584 1.389 . S
C1583 H1562 0.950 . S
C1583 C1582 1.373 . S
C1583 C1599 1.377 . S
C1584 C1582 1.389 . S
C1584 C1585 1.524 . S
C1584 C1598 1.377 . S
C1585 C1584 1.524 . S
C1585 C1586 1.397 . S
C1585 C1590 1.363 . S
C1586 H1563 0.950 . S
C1586 C1585 1.397 . S
C1586 C1587 1.334 . S
C1587 H1564 0.950 . S
C1587 C1586 1.334 . S
C1587 C1588 1.287 . S
C1588 C1587 1.287 . S
C1588 C1589 1.524 . S
C1588 H1607 0.913 . S
C1589 H1565 0.950 . S
C1589 C1588 1.524 . S
C1589 C1590 1.415 . S
C1590 H1566 0.950 . S
C1590 C1585 1.363 . S
C1590 C1589 1.415 . S
C1591 H1567 0.951 . S
C1591 C1592 1.366 . S
C1591 C1593 1.388 . S
C1592 C1591 1.366 . S
C1592 C1596 1.385 . S
C1593 H1568 0.951 . S
C1593 C1591 1.388 . S
C1593 C1594 1.366 . S
C1594 C1593 1.366 . S
C1594 C1595 1.414 . S
C1594 C1597 1.499 . S
C1595 H1569 0.950 . S
C1595 C1594 1.414 . S
C1595 C1596 1.374 . S
C1596 H1570 0.950 . S
C1596 C1592 1.385 . S
C1596 C1595 1.374 . S
C1597 C1594 1.499 . S
C1597 C1598 1.373 . S
C1597 C1599 1.389 . S
C1598 H1571 0.950 . S
C1598 C1584 1.377 . S
C1598 C1597 1.373 . S
C1599 C1583 1.377 . S
C1599 C1597 1.389 . S
C1599 C1600 1.524 . S
C1600 C1599 1.524 . S
C1600 C1601 1.397 . S
C1600 C1605 1.363 . S
C1601 H1572 0.950 . S
C1601 C1600 1.397 . S
C1601 C1602 1.334 . S
C1602 H1573 0.950 . S
C1602 C1601 1.334 . S
C1602 C1603 1.287 . S
C1603 C1602 1.287 . S
C1603 C1604 1.524 . S
C1603 H1606 0.999 . S
C1604 H1574 0.950 . S
C1604 C1603 1.524 . S
C1604 C1605 1.415 . S
C1605 H1575 0.950 . S
C1605 C1600 1.363 . S
C1605 C1604 1.415 . S
H1606 C1603 0.999 . S
H1607 C1588 0.913 . S
H1608 C1626 0.951 . S
H1609 C1628 0.951 . S
H1610 C1630 0.950 . S
H1611 C1631 0.950 . S
H1612 C1633 0.950 . S
H1613 C1636 0.950 . S
H1614 C1637 0.950 . S
H1615 C1639 0.950 . S
H1616 C1640 0.950 . S
H1617 C1641 0.951 . S
H1618 C1643 0.951 . S
H1619 C1645 0.950 . S
H1620 C1646 0.950 . S
H1621 C1648 0.950 . S
H1622 C1651 0.950 . S
H1623 C1652 0.950 . S
H1624 C1654 0.950 . S
H1625 C1655 0.950 . S
C1626 H1608 0.951 . S
C1626 C1627 1.366 . S
C1626 C1628 1.388 . S
C1627 C1626 1.366 . S
C1627 C1631 1.385 . S
C1628 H1609 0.951 . S
C1628 C1626 1.388 . S
C1628 C1629 1.366 . S
C1629 C1628 1.366 . S
C1629 C1630 1.414 . S
C1629 C1632 1.499 . S
C1630 H1610 0.950 . S
C1630 C1629 1.414 . S
C1630 C1631 1.374 . S
C1631 H1611 0.950 . S
C1631 C1627 1.385 . S
C1631 C1630 1.374 . S
C1632 C1629 1.499 . S
C1632 C1633 1.373 . S
C1632 C1634 1.389 . S
C1633 H1612 0.950 . S
C1633 C1632 1.373 . S
C1633 C1649 1.377 . S
C1634 C1632 1.389 . S
C1634 C1635 1.524 . S
C1634 C1648 1.377 . S
C1635 C1634 1.524 . S
C1635 C1636 1.397 . S
C1635 C1640 1.363 . S
C1636 H1613 0.950 . S
C1636 C1635 1.397 . S
C1636 C1637 1.334 . S
C1637 H1614 0.950 . S
C1637 C1636 1.334 . S
C1637 C1638 1.287 . S
C1638 C1637 1.287 . S
C1638 C1639 1.524 . S
C1638 H1657 0.913 . S
C1639 H1615 0.950 . S
C1639 C1638 1.524 . S
C1639 C1640 1.415 . S
C1640 H1616 0.950 . S
C1640 C1635 1.363 . S
C1640 C1639 1.415 . S
C1641 H1617 0.951 . S
C1641 C1642 1.366 . S
C1641 C1643 1.388 . S
C1642 C1641 1.366 . S
C1642 C1646 1.385 . S
C1643 H1618 0.951 . S
C1643 C1641 1.388 . S
C1643 C1644 1.366 . S
C1644 C1643 1.366 . S
C1644 C1645 1.414 . S
C1644 C1647 1.499 . S
C1645 H1619 0.950 . S
C1645 C1644 1.414 . S
C1645 C1646 1.374 . S
C1646 H1620 0.950 . S
C1646 C1642 1.385 . S
C1646 C1645 1.374 . S
C1647 C1644 1.499 . S
C1647 C1648 1.373 . S
C1647 C1649 1.389 . S
C1648 H1621 0.950 . S
C1648 C1634 1.377 . S
C1648 C1647 1.373 . S
C1649 C1633 1.377 . S
C1649 C1647 1.389 . S
C1649 C1650 1.524 . S
C1650 C1649 1.524 . S
C1650 C1651 1.397 . S
C1650 C1655 1.363 . S
C1651 H1622 0.950 . S
C1651 C1650 1.397 . S
C1651 C1652 1.334 . S
C1652 H1623 0.950 . S
C1652 C1651 1.334 . S
C1652 C1653 1.287 . S
C1653 C1652 1.287 . S
C1653 C1654 1.524 . S
C1653 H1656 0.999 . S
C1654 H1624 0.950 . S
C1654 C1653 1.524 . S
C1654 C1655 1.415 . S
C1655 H1625 0.950 . S
C1655 C1650 1.363 . S
C1655 C1654 1.415 . S
H1656 C1653 0.999 . S
H1657 C1638 0.913 . S
H1658 C1676 0.951 . S
H1659 C1678 0.951 . S
H1660 C1680 0.950 . S
H1661 C1681 0.950 . S
H1662 C1683 0.950 . S
H1663 C1686 0.950 . S
H1664 C1687 0.950 . S
H1665 C1689 0.950 . S
H1666 C1690 0.950 . S
H1667 C1691 0.951 . S
H1668 C1693 0.951 1_455 S
H1669 C1695 0.950 . S
H1670 C1696 0.950 . S
H1671 C1698 0.950 . S
H1672 C1701 0.950 . S
H1673 C1702 0.950 . S
H1674 C1704 0.950 1_455 S
H1675 C1705 0.956 . S
C1676 H1658 0.951 . S
C1676 C1677 1.366 . S
C1676 C1678 1.388 . S
C1677 C1676 1.366 . S
C1677 C1681 1.385 . S
C1678 H1659 0.951 . S
C1678 C1676 1.388 . S
C1678 C1679 1.366 . S
C1679 C1678 1.366 . S
C1679 C1680 1.414 . S
C1679 C1682 1.499 . S
C1680 H1660 0.950 . S
C1680 C1679 1.414 . S
C1680 C1681 1.374 . S
C1681 H1661 0.950 . S
C1681 C1677 1.385 . S
C1681 C1680 1.374 . S
C1682 C1679 1.499 . S
C1682 C1683 1.373 . S
C1682 C1684 1.389 . S
C1683 H1662 0.950 . S
C1683 C1682 1.373 . S
C1683 C1699 1.377 . S
C1684 C1682 1.389 . S
C1684 C1685 1.524 . S
C1684 C1698 1.377 . S
C1685 C1684 1.524 . S
C1685 C1686 1.397 . S
C1685 C1690 1.363 . S
C1686 H1663 0.950 . S
C1686 C1685 1.397 . S
C1686 C1687 1.334 . S
C1687 H1664 0.950 . S
C1687 C1686 1.334 . S
C1687 C1688 1.287 . S
C1688 C1687 1.287 . S
C1688 C1689 1.524 . S
C1688 H1707 0.913 . S
C1689 H1665 0.950 . S
C1689 C1688 1.524 . S
C1689 C1690 1.415 . S
C1690 H1666 0.950 . S
C1690 C1685 1.363 . S
C1690 C1689 1.415 . S
C1691 H1667 0.951 . S
C1691 C1692 1.366 1_455 S
C1691 C1693 1.388 1_455 S
C1692 C1691 1.366 1_655 S
C1692 C1696 1.385 . S
C1693 H1668 0.951 1_655 S
C1693 C1691 1.388 1_655 S
C1693 C1694 1.366 . S
C1694 C1693 1.366 . S
C1694 C1695 1.414 . S
C1694 C1697 1.499 . S
C1695 H1669 0.950 . S
C1695 C1694 1.414 . S
C1695 C1696 1.374 . S
C1696 H1670 0.950 . S
C1696 C1692 1.385 . S
C1696 C1695 1.374 . S
C1697 C1694 1.499 . S
C1697 C1698 1.373 . S
C1697 C1699 1.389 . S
C1698 H1671 0.950 . S
C1698 C1684 1.377 . S
C1698 C1697 1.373 . S
C1699 C1683 1.377 . S
C1699 C1697 1.389 . S
C1699 C1700 1.524 . S
C1700 C1699 1.524 . S
C1700 C1701 1.397 . S
C1700 C1705 1.363 . S
C1701 H1672 0.950 . S
C1701 C1700 1.397 . S
C1701 C1702 1.334 . S
C1702 H1673 0.950 . S
C1702 C1701 1.334 . S
C1702 C1703 1.287 . S
C1703 C1702 1.287 . S
C1703 C1704 1.524 . S
C1703 H1706 0.999 . S
C1704 H1674 0.950 1_655 S
C1704 C1703 1.524 . S
C1704 C1705 1.415 . S
C1705 H1675 0.956 . S
C1705 C1700 1.363 . S
C1705 C1704 1.415 . S
H1706 C1703 0.999 . S
H1707 C1688 0.913 . S
H1708 C1726 0.951 . S
H1709 C1728 0.951 . S
H1710 C1730 0.950 . S
H1711 C1731 0.950 . S
H1712 C1733 0.950 . S
H1713 C1736 0.950 . S
H1714 C1737 0.950 . S
H1715 C1739 0.950 . S
H1716 C1740 0.950 . S
H1717 C1741 0.951 . S
H1718 C1743 0.951 . S
H1719 C1745 0.950 . S
H1720 C1746 0.950 . S
H1721 C1748 0.950 . S
H1722 C1751 0.950 . S
H1723 C1752 0.950 . S
H1724 C1754 0.950 . S
H1725 C1755 0.950 . S
C1726 H1708 0.951 . S
C1726 C1727 1.366 . S
C1726 C1728 1.388 . S
C1727 C1726 1.366 . S
C1727 C1731 1.385 . S
C1728 H1709 0.951 . S
C1728 C1726 1.388 . S
C1728 C1729 1.366 . S
C1729 C1728 1.366 . S
C1729 C1730 1.414 . S
C1729 C1732 1.499 . S
C1730 H1710 0.950 . S
C1730 C1729 1.414 . S
C1730 C1731 1.374 . S
C1731 H1711 0.950 . S
C1731 C1727 1.385 . S
C1731 C1730 1.374 . S
C1732 C1729 1.499 . S
C1732 C1733 1.373 . S
C1732 C1734 1.389 . S
C1733 H1712 0.950 . S
C1733 C1732 1.373 . S
C1733 C1749 1.377 . S
C1734 C1732 1.389 . S
C1734 C1735 1.524 . S
C1734 C1748 1.377 . S
C1735 C1734 1.524 . S
C1735 C1736 1.397 . S
C1735 C1740 1.363 . S
C1736 H1713 0.950 . S
C1736 C1735 1.397 . S
C1736 C1737 1.334 . S
C1737 H1714 0.950 . S
C1737 C1736 1.334 . S
C1737 C1738 1.287 . S
C1738 C1737 1.287 . S
C1738 C1739 1.524 . S
C1738 H1757 0.913 . S
C1739 H1715 0.950 . S
C1739 C1738 1.524 . S
C1739 C1740 1.415 . S
C1740 H1716 0.950 . S
C1740 C1735 1.363 . S
C1740 C1739 1.415 . S
C1741 H1717 0.951 . S
C1741 C1742 1.366 . S
C1741 C1743 1.388 . S
C1742 C1741 1.366 . S
C1742 C1746 1.385 . S
C1743 H1718 0.951 . S
C1743 C1741 1.388 . S
C1743 C1744 1.366 . S
C1744 C1743 1.366 . S
C1744 C1745 1.414 . S
C1744 C1747 1.499 . S
C1745 H1719 0.950 . S
C1745 C1744 1.414 . S
C1745 C1746 1.374 . S
C1746 H1720 0.950 . S
C1746 C1742 1.385 . S
C1746 C1745 1.374 . S
C1747 C1744 1.499 . S
C1747 C1748 1.373 . S
C1747 C1749 1.389 . S
C1748 H1721 0.950 . S
C1748 C1734 1.377 . S
C1748 C1747 1.373 . S
C1749 C1733 1.377 . S
C1749 C1747 1.389 . S
C1749 C1750 1.524 . S
C1750 C1749 1.524 . S
C1750 C1751 1.397 . S
C1750 C1755 1.363 . S
C1751 H1722 0.950 . S
C1751 C1750 1.397 . S
C1751 C1752 1.334 . S
C1752 H1723 0.950 . S
C1752 C1751 1.334 . S
C1752 C1753 1.287 . S
C1753 C1752 1.287 . S
C1753 C1754 1.524 . S
C1753 H1756 0.999 . S
C1754 H1724 0.950 . S
C1754 C1753 1.524 . S
C1754 C1755 1.415 . S
C1755 H1725 0.950 . S
C1755 C1750 1.363 . S
C1755 C1754 1.415 . S
H1756 C1753 0.999 . S
H1757 C1738 0.913 . S
H1758 C1776 0.951 . S
H1759 C1778 0.951 . S
H1760 C1780 0.950 . S
H1761 C1781 0.950 . S
H1762 C1783 0.950 . S
H1763 C1786 0.950 . S
H1764 C1787 0.950 . S
H1765 C1789 0.950 . S
H1766 C1790 0.950 . S
H1767 C1791 0.951 . S
H1768 C1793 0.951 . S
H1769 C1795 0.950 . S
H1770 C1796 0.950 . S
H1771 C1798 0.950 . S
H1772 C1801 0.950 . S
H1773 C1802 0.950 . S
H1774 C1804 0.950 . S
H1775 C1805 0.950 . S
C1776 H1758 0.951 . S
C1776 C1777 1.366 . S
C1776 C1778 1.388 . S
C1777 C1776 1.366 . S
C1777 C1781 1.385 . S
C1778 H1759 0.951 . S
C1778 C1776 1.388 . S
C1778 C1779 1.366 . S
C1779 C1778 1.366 . S
C1779 C1780 1.414 . S
C1779 C1782 1.499 . S
C1780 H1760 0.950 . S
C1780 C1779 1.414 . S
C1780 C1781 1.374 . S
C1781 H1761 0.950 . S
C1781 C1777 1.385 . S
C1781 C1780 1.374 . S
C1782 C1779 1.499 . S
C1782 C1783 1.373 . S
C1782 C1784 1.389 . S
C1783 H1762 0.950 . S
C1783 C1782 1.373 . S
C1783 C1799 1.377 . S
C1784 C1782 1.389 . S
C1784 C1785 1.524 . S
C1784 C1798 1.377 . S
C1785 C1784 1.524 . S
C1785 C1786 1.397 . S
C1785 C1790 1.363 . S
C1786 H1763 0.950 . S
C1786 C1785 1.397 . S
C1786 C1787 1.334 . S
C1787 H1764 0.950 . S
C1787 C1786 1.334 . S
C1787 C1788 1.287 . S
C1788 C1787 1.287 . S
C1788 C1789 1.524 . S
C1788 H1807 0.913 . S
C1789 H1765 0.950 . S
C1789 C1788 1.524 . S
C1789 C1790 1.415 . S
C1790 H1766 0.950 . S
C1790 C1785 1.363 . S
C1790 C1789 1.415 . S
C1791 H1767 0.951 . S
C1791 C1792 1.366 . S
C1791 C1793 1.388 . S
C1792 C1791 1.366 . S
C1792 C1796 1.385 . S
C1793 H1768 0.951 . S
C1793 C1791 1.388 . S
C1793 C1794 1.366 . S
C1794 C1793 1.366 . S
C1794 C1795 1.414 . S
C1794 C1797 1.499 . S
C1795 H1769 0.950 . S
C1795 C1794 1.414 . S
C1795 C1796 1.374 . S
C1796 H1770 0.950 . S
C1796 C1792 1.385 . S
C1796 C1795 1.374 . S
C1797 C1794 1.499 . S
C1797 C1798 1.373 . S
C1797 C1799 1.389 . S
C1798 H1771 0.950 . S
C1798 C1784 1.377 . S
C1798 C1797 1.373 . S
C1799 C1783 1.377 . S
C1799 C1797 1.389 . S
C1799 C1800 1.524 . S
C1800 C1799 1.524 . S
C1800 C1801 1.397 . S
C1800 C1805 1.363 . S
C1801 H1772 0.950 . S
C1801 C1800 1.397 . S
C1801 C1802 1.334 . S
C1802 H1773 0.950 . S
C1802 C1801 1.334 . S
C1802 C1803 1.287 . S
C1803 C1802 1.287 . S
C1803 C1804 1.524 . S
C1803 H1806 0.999 . S
C1804 H1774 0.950 . S
C1804 C1803 1.524 . S
C1804 C1805 1.415 . S
C1805 H1775 0.950 . S
C1805 C1800 1.363 . S
C1805 C1804 1.415 . S
H1806 C1803 0.999 . S
H1807 C1788 0.913 . S
H1808 C1826 0.951 . S
H1809 C1828 0.951 . S
H1810 C1830 0.950 . S
H1811 C1831 0.950 . S
H1812 C1833 0.950 . S
H1813 C1836 0.950 . S
H1814 C1837 0.950 . S
H1815 C1839 0.950 . S
H1816 C1840 0.950 . S
H1817 C1841 0.951 . S
H1818 C1843 0.951 . S
H1819 C1845 0.950 . S
H1820 C1846 0.950 . S
H1821 C1848 0.950 . S
H1822 C1851 0.950 . S
H1823 C1852 0.950 . S
H1824 C1854 0.950 . S
H1825 C1855 0.950 . S
C1826 H1808 0.951 . S
C1826 C1827 1.366 . S
C1826 C1828 1.388 . S
C1827 C1826 1.366 . S
C1827 C1831 1.385 . S
C1828 H1809 0.951 . S
C1828 C1826 1.388 . S
C1828 C1829 1.366 . S
C1829 C1828 1.366 . S
C1829 C1830 1.414 . S
C1829 C1832 1.499 . S
C1830 H1810 0.950 . S
C1830 C1829 1.414 . S
C1830 C1831 1.374 . S
C1831 H1811 0.950 . S
C1831 C1827 1.385 . S
C1831 C1830 1.374 . S
C1832 C1829 1.499 . S
C1832 C1833 1.373 . S
C1832 C1834 1.389 . S
C1833 H1812 0.950 . S
C1833 C1832 1.373 . S
C1833 C1849 1.377 . S
C1834 C1832 1.389 . S
C1834 C1835 1.524 . S
C1834 C1848 1.377 . S
C1835 C1834 1.524 . S
C1835 C1836 1.397 . S
C1835 C1840 1.363 . S
C1836 H1813 0.950 . S
C1836 C1835 1.397 . S
C1836 C1837 1.334 . S
C1837 H1814 0.950 . S
C1837 C1836 1.334 . S
C1837 C1838 1.287 . S
C1838 C1837 1.287 . S
C1838 C1839 1.524 . S
C1838 H1857 0.913 . S
C1839 H1815 0.950 . S
C1839 C1838 1.524 . S
C1839 C1840 1.415 . S
C1840 H1816 0.950 . S
C1840 C1835 1.363 . S
C1840 C1839 1.415 . S
C1841 H1817 0.951 . S
C1841 C1842 1.366 . S
C1841 C1843 1.388 . S
C1842 C1841 1.366 . S
C1842 C1846 1.385 . S
C1843 H1818 0.951 . S
C1843 C1841 1.388 . S
C1843 C1844 1.366 . S
C1844 C1843 1.366 . S
C1844 C1845 1.414 . S
C1844 C1847 1.499 . S
C1845 H1819 0.950 . S
C1845 C1844 1.414 . S
C1845 C1846 1.374 . S
C1846 H1820 0.950 . S
C1846 C1842 1.385 . S
C1846 C1845 1.374 . S
C1847 C1844 1.499 . S
C1847 C1848 1.373 . S
C1847 C1849 1.389 . S
C1848 H1821 0.950 . S
C1848 C1834 1.377 . S
C1848 C1847 1.373 . S
C1849 C1833 1.377 . S
C1849 C1847 1.389 . S
C1849 C1850 1.524 . S
C1850 C1849 1.524 . S
C1850 C1851 1.397 . S
C1850 C1855 1.363 . S
C1851 H1822 0.950 . S
C1851 C1850 1.397 . S
C1851 C1852 1.334 . S
C1852 H1823 0.950 . S
C1852 C1851 1.334 . S
C1852 C1853 1.287 . S
C1853 C1852 1.287 . S
C1853 C1854 1.524 . S
C1853 H1856 0.999 . S
C1854 H1824 0.950 . S
C1854 C1853 1.524 . S
C1854 C1855 1.415 . S
C1855 H1825 0.950 . S
C1855 C1850 1.363 . S
C1855 C1854 1.415 . S
H1856 C1853 0.999 . S
H1857 C1838 0.913 . S
H1858 C1876 0.951 . S
H1859 C1878 0.951 . S
H1860 C1880 0.950 . S
H1861 C1881 0.950 . S
H1862 C1883 0.950 . S
H1863 C1886 0.950 . S
H1864 C1887 0.950 . S
H1865 C1889 0.950 . S
H1866 C1890 0.950 . S
H1867 C1891 0.951 . S
H1868 C1893 0.951 . S
H1869 C1895 0.950 . S
H1870 C1896 0.950 . S
H1871 C1898 0.950 . S
H1872 C1901 0.950 . S
H1873 C1902 0.950 . S
H1874 C1904 0.950 . S
H1875 C1905 0.950 . S
C1876 H1858 0.951 . S
C1876 C1877 1.366 . S
C1876 C1878 1.388 . S
C1877 C1876 1.366 . S
C1877 C1881 1.385 . S
C1878 H1859 0.951 . S
C1878 C1876 1.388 . S
C1878 C1879 1.366 . S
C1879 C1878 1.366 . S
C1879 C1880 1.414 . S
C1879 C1882 1.499 . S
C1880 H1860 0.950 . S
C1880 C1879 1.414 . S
C1880 C1881 1.374 . S
C1881 H1861 0.950 . S
C1881 C1877 1.385 . S
C1881 C1880 1.374 . S
C1882 C1879 1.499 . S
C1882 C1883 1.373 . S
C1882 C1884 1.389 . S
C1883 H1862 0.950 . S
C1883 C1882 1.373 . S
C1883 C1899 1.377 . S
C1884 C1882 1.389 . S
C1884 C1885 1.524 . S
C1884 C1898 1.377 . S
C1885 C1884 1.524 . S
C1885 C1886 1.397 . S
C1885 C1890 1.363 . S
C1886 H1863 0.950 . S
C1886 C1885 1.397 . S
C1886 C1887 1.334 . S
C1887 H1864 0.950 . S
C1887 C1886 1.334 . S
C1887 C1888 1.287 . S
C1888 C1887 1.287 . S
C1888 C1889 1.524 . S
C1888 H1907 0.913 . S
C1889 H1865 0.950 . S
C1889 C1888 1.524 . S
C1889 C1890 1.415 . S
C1890 H1866 0.950 . S
C1890 C1885 1.363 . S
C1890 C1889 1.415 . S
C1891 H1867 0.951 . S
C1891 C1892 1.366 . S
C1891 C1893 1.388 . S
C1892 C1891 1.366 . S
C1892 C1896 1.385 . S
C1893 H1868 0.951 . S
C1893 C1891 1.388 . S
C1893 C1894 1.366 . S
C1894 C1893 1.366 . S
C1894 C1895 1.414 . S
C1894 C1897 1.499 . S
C1895 H1869 0.950 . S
C1895 C1894 1.414 . S
C1895 C1896 1.374 . S
C1896 H1870 0.950 . S
C1896 C1892 1.385 . S
C1896 C1895 1.374 . S
C1897 C1894 1.499 . S
C1897 C1898 1.373 . S
C1897 C1899 1.389 . S
C1898 H1871 0.950 . S
C1898 C1884 1.377 . S
C1898 C1897 1.373 . S
C1899 C1883 1.377 . S
C1899 C1897 1.389 . S
C1899 C1900 1.524 . S
C1900 C1899 1.524 . S
C1900 C1901 1.397 . S
C1900 C1905 1.363 . S
C1901 H1872 0.950 . S
C1901 C1900 1.397 . S
C1901 C1902 1.334 . S
C1902 H1873 0.950 . S
C1902 C1901 1.334 . S
C1902 C1903 1.287 . S
C1903 C1902 1.287 . S
C1903 C1904 1.524 . S
C1903 H1906 0.999 . S
C1904 H1874 0.950 . S
C1904 C1903 1.524 . S
C1904 C1905 1.415 . S
C1905 H1875 0.950 . S
C1905 C1900 1.363 . S
C1905 C1904 1.415 . S
H1906 C1903 0.999 . S
H1907 C1888 0.913 . S
H1908 C1926 0.951 . S
H1909 C1928 0.951 . S
H1910 C1930 0.950 . S
H1911 C1931 0.950 . S
H1912 C1933 0.950 . S
H1913 C1936 0.950 . S
H1914 C1937 0.950 . S
H1915 C1939 0.950 . S
H1916 C1940 0.950 . S
H1917 C1941 0.951 . S
H1918 C1943 0.951 . S
H1919 C1945 0.950 . S
H1920 C1946 0.950 . S
H1921 C1948 0.950 . S
H1922 C1951 0.950 . S
H1923 C1952 0.950 . S
H1924 C1954 0.950 . S
H1925 C1955 0.950 . S
C1926 H1908 0.951 . S
C1926 C1927 1.366 . S
C1926 C1928 1.388 . S
C1927 C1926 1.366 . S
C1927 C1931 1.385 . S
C1928 H1909 0.951 . S
C1928 C1926 1.388 . S
C1928 C1929 1.366 . S
C1929 C1928 1.366 . S
C1929 C1930 1.414 . S
C1929 C1932 1.499 . S
C1930 H1910 0.950 . S
C1930 C1929 1.414 . S
C1930 C1931 1.374 . S
C1931 H1911 0.950 . S
C1931 C1927 1.385 . S
C1931 C1930 1.374 . S
C1932 C1929 1.499 . S
C1932 C1933 1.373 . S
C1932 C1934 1.389 . S
C1933 H1912 0.950 . S
C1933 C1932 1.373 . S
C1933 C1949 1.377 . S
C1934 C1932 1.389 . S
C1934 C1935 1.524 . S
C1934 C1948 1.377 . S
C1935 C1934 1.524 . S
C1935 C1936 1.397 . S
C1935 C1940 1.363 . S
C1936 H1913 0.950 . S
C1936 C1935 1.397 . S
C1936 C1937 1.334 . S
C1937 H1914 0.950 . S
C1937 C1936 1.334 . S
C1937 C1938 1.287 . S
C1938 C1937 1.287 . S
C1938 C1939 1.524 . S
C1938 H1957 0.913 . S
C1939 H1915 0.950 . S
C1939 C1938 1.524 . S
C1939 C1940 1.415 . S
C1940 H1916 0.950 . S
C1940 C1935 1.363 . S
C1940 C1939 1.415 . S
C1941 H1917 0.951 . S
C1941 C1942 1.366 . S
C1941 C1943 1.388 . S
C1942 C1941 1.366 . S
C1942 C1946 1.385 . S
C1943 H1918 0.951 . S
C1943 C1941 1.388 . S
C1943 C1944 1.366 . S
C1944 C1943 1.366 . S
C1944 C1945 1.414 . S
C1944 C1947 1.499 . S
C1945 H1919 0.950 . S
C1945 C1944 1.414 . S
C1945 C1946 1.374 . S
C1946 H1920 0.950 . S
C1946 C1942 1.385 . S
C1946 C1945 1.374 . S
C1947 C1944 1.499 . S
C1947 C1948 1.373 . S
C1947 C1949 1.389 . S
C1948 H1921 0.950 . S
C1948 C1934 1.377 . S
C1948 C1947 1.373 . S
C1949 C1933 1.377 . S
C1949 C1947 1.389 . S
C1949 C1950 1.524 . S
C1950 C1949 1.524 . S
C1950 C1951 1.397 . S
C1950 C1955 1.363 . S
C1951 H1922 0.950 . S
C1951 C1950 1.397 . S
C1951 C1952 1.334 . S
C1952 H1923 0.950 . S
C1952 C1951 1.334 . S
C1952 C1953 1.287 . S
C1953 C1952 1.287 . S
C1953 C1954 1.524 . S
C1953 H1956 0.999 . S
C1954 H1924 0.950 . S
C1954 C1953 1.524 . S
C1954 C1955 1.415 . S
C1955 H1925 0.950 . S
C1955 C1950 1.363 . S
C1955 C1954 1.415 . S
H1956 C1953 0.999 . S
H1957 C1938 0.913 . S
H1958 C1976 0.951 . S
H1959 C1978 0.951 . S
H1960 C1980 0.950 . S
H1961 C1981 0.950 . S
H1962 C1983 0.950 . S
H1963 C1986 0.950 . S
H1964 C1987 0.950 . S
H1965 C1989 0.950 . S
H1966 C1990 0.950 . S
H1967 C1991 0.951 . S
H1968 C1993 0.951 . S
H1969 C1995 0.950 . S
H1970 C1996 0.950 . S
H1971 C1998 0.950 . S
H1972 C2001 0.950 . S
H1973 C2002 0.950 . S
H1974 C2004 0.950 . S
H1975 C2005 0.950 . S
C1976 H1958 0.951 . S
C1976 C1977 1.366 . S
C1976 C1978 1.388 . S
C1977 C1976 1.366 . S
C1977 C1981 1.385 . S
C1978 H1959 0.951 . S
C1978 C1976 1.388 . S
C1978 C1979 1.366 . S
C1979 C1978 1.366 . S
C1979 C1980 1.414 . S
C1979 C1982 1.499 . S
C1980 H1960 0.950 . S
C1980 C1979 1.414 . S
C1980 C1981 1.374 . S
C1981 H1961 0.950 . S
C1981 C1977 1.385 . S
C1981 C1980 1.374 . S
C1982 C1979 1.499 . S
C1982 C1983 1.373 . S
C1982 C1984 1.389 . S
C1983 H1962 0.950 . S
C1983 C1982 1.373 . S
C1983 C1999 1.377 . S
C1984 C1982 1.389 . S
C1984 C1985 1.524 . S
C1984 C1998 1.377 . S
C1985 C1984 1.524 . S
C1985 C1986 1.397 . S
C1985 C1990 1.363 . S
C1986 H1963 0.950 . S
C1986 C1985 1.397 . S
C1986 C1987 1.334 . S
C1987 H1964 0.950 . S
C1987 C1986 1.334 . S
C1987 C1988 1.287 . S
C1988 C1987 1.287 . S
C1988 C1989 1.524 . S
C1988 H2007 0.913 . S
C1989 H1965 0.950 . S
C1989 C1988 1.524 . S
C1989 C1990 1.415 . S
C1990 H1966 0.950 . S
C1990 C1985 1.363 . S
C1990 C1989 1.415 . S
C1991 H1967 0.951 . S
C1991 C1992 1.366 . S
C1991 C1993 1.388 . S
C1992 C1991 1.366 . S
C1992 C1996 1.385 . S
C1993 H1968 0.951 . S
C1993 C1991 1.388 . S
C1993 C1994 1.366 . S
C1994 C1993 1.366 . S
C1994 C1995 1.414 . S
C1994 C1997 1.499 . S
C1995 H1969 0.950 . S
C1995 C1994 1.414 . S
C1995 C1996 1.374 . S
C1996 H1970 0.950 . S
C1996 C1992 1.385 . S
C1996 C1995 1.374 . S
C1997 C1994 1.499 . S
C1997 C1998 1.373 . S
C1997 C1999 1.389 . S
C1998 H1971 0.950 . S
C1998 C1984 1.377 . S
C1998 C1997 1.373 . S
C1999 C1983 1.377 . S
C1999 C1997 1.389 . S
C1999 C2000 1.524 . S
C2000 C1999 1.524 . S
C2000 C2001 1.397 . S
C2000 C2005 1.363 . S
C2001 H1972 0.950 . S
C2001 C2000 1.397 . S
C2001 C2002 1.334 . S
C2002 H1973 0.950 . S
C2002 C2001 1.334 . S
C2002 C2003 1.287 . S
C2003 C2002 1.287 . S
C2003 C2004 1.524 . S
C2003 H2006 0.999 . S
C2004 H1974 0.950 . S
C2004 C2003 1.524 . S
C2004 C2005 1.415 . S
C2005 H1975 0.950 . S
C2005 C2000 1.363 . S
C2005 C2004 1.415 . S
H2006 C2003 0.999 . S
H2007 C1988 0.913 . S
H2008 C2026 0.951 . S
H2009 C2028 0.951 . S
H2010 C2030 0.950 . S
H2011 C2031 0.950 . S
H2012 C2033 0.950 . S
H2013 C2036 0.950 . S
H2014 C2037 0.950 . S
H2015 C2039 0.950 . S
H2016 C2040 0.950 . S
H2017 C2041 0.951 . S
H2018 C2043 0.951 . S
H2019 C2045 0.950 . S
H2020 C2046 0.950 . S
H2021 C2048 0.950 . S
H2022 C2051 0.950 . S
H2023 C2052 0.950 . S
H2024 C2054 0.950 . S
H2025 C2055 0.950 . S
C2026 H2008 0.951 . S
C2026 C2027 1.366 . S
C2026 C2028 1.388 . S
C2027 C2026 1.366 . S
C2027 C2031 1.385 . S
C2028 H2009 0.951 . S
C2028 C2026 1.388 . S
C2028 C2029 1.366 . S
C2029 C2028 1.366 . S
C2029 C2030 1.414 . S
C2029 C2032 1.499 . S
C2030 H2010 0.950 . S
C2030 C2029 1.414 . S
C2030 C2031 1.374 . S
C2031 H2011 0.950 . S
C2031 C2027 1.385 . S
C2031 C2030 1.374 . S
C2032 C2029 1.499 . S
C2032 C2033 1.373 . S
C2032 C2034 1.389 . S
C2033 H2012 0.950 . S
C2033 C2032 1.373 . S
C2033 C2049 1.377 . S
C2034 C2032 1.389 . S
C2034 C2035 1.524 . S
C2034 C2048 1.377 . S
C2035 C2034 1.524 . S
C2035 C2036 1.397 . S
C2035 C2040 1.363 . S
C2036 H2013 0.950 . S
C2036 C2035 1.397 . S
C2036 C2037 1.334 . S
C2037 H2014 0.950 . S
C2037 C2036 1.334 . S
C2037 C2038 1.287 . S
C2038 C2037 1.287 . S
C2038 C2039 1.524 . S
C2038 H2057 0.913 . S
C2039 H2015 0.950 . S
C2039 C2038 1.524 . S
C2039 C2040 1.415 . S
C2040 H2016 0.950 . S
C2040 C2035 1.363 . S
C2040 C2039 1.415 . S
C2041 H2017 0.951 . S
C2041 C2042 1.366 . S
C2041 C2043 1.388 . S
C2042 C2041 1.366 . S
C2042 C2046 1.385 . S
C2043 H2018 0.951 . S
C2043 C2041 1.388 . S
C2043 C2044 1.366 . S
C2044 C2043 1.366 . S
C2044 C2045 1.414 . S
C2044 C2047 1.499 . S
C2045 H2019 0.950 . S
C2045 C2044 1.414 . S
C2045 C2046 1.374 . S
C2046 H2020 0.950 . S
C2046 C2042 1.385 . S
C2046 C2045 1.374 . S
C2047 C2044 1.499 . S
C2047 C2048 1.373 . S
C2047 C2049 1.389 . S
C2048 H2021 0.950 . S
C2048 C2034 1.377 . S
C2048 C2047 1.373 . S
C2049 C2033 1.377 . S
C2049 C2047 1.389 . S
C2049 C2050 1.524 . S
C2050 C2049 1.524 . S
C2050 C2051 1.397 . S
C2050 C2055 1.363 . S
C2051 H2022 0.950 . S
C2051 C2050 1.397 . S
C2051 C2052 1.334 . S
C2052 H2023 0.950 . S
C2052 C2051 1.334 . S
C2052 C2053 1.287 . S
C2053 C2052 1.287 . S
C2053 C2054 1.524 . S
C2053 H2056 0.999 . S
C2054 H2024 0.950 . S
C2054 C2053 1.524 . S
C2054 C2055 1.415 . S
C2055 H2025 0.950 . S
C2055 C2050 1.363 . S
C2055 C2054 1.415 . S
H2056 C2053 0.999 . S
H2057 C2038 0.913 . S
H2058 C2076 0.951 . S
H2059 C2078 0.951 . S
H2060 C2080 0.950 . S
H2061 C2081 0.950 . S
H2062 C2083 0.950 . S
H2063 C2086 0.950 . S
H2064 C2087 0.950 . S
H2065 C2089 0.950 . S
H2066 C2090 0.950 . S
H2067 C2091 0.951 . S
H2068 C2093 0.951 . S
H2069 C2095 0.950 . S
H2070 C2096 0.950 . S
H2071 C2098 0.950 . S
H2072 C2101 0.950 . S
H2073 C2102 0.950 . S
H2074 C2104 0.950 . S
H2075 C2105 0.950 . S
C2076 H2058 0.951 . S
C2076 C2077 1.366 . S
C2076 C2078 1.388 . S
C2077 C2076 1.366 . S
C2077 C2081 1.385 . S
C2078 H2059 0.951 . S
C2078 C2076 1.388 . S
C2078 C2079 1.366 . S
C2079 C2078 1.366 . S
C2079 C2080 1.414 . S
C2079 C2082 1.499 . S
C2080 H2060 0.950 . S
C2080 C2079 1.414 . S
C2080 C2081 1.374 . S
C2081 H2061 0.950 . S
C2081 C2077 1.385 . S
C2081 C2080 1.374 . S
C2082 C2079 1.499 . S
C2082 C2083 1.373 . S
C2082 C2084 1.389 . S
C2083 H2062 0.950 . S
C2083 C2082 1.373 . S
C2083 C2099 1.377 . S
C2084 C2082 1.389 . S
C2084 C2085 1.524 . S
C2084 C2098 1.377 . S
C2085 C2084 1.524 . S
C2085 C2086 1.397 . S
C2085 C2090 1.363 . S
C2086 H2063 0.950 . S
C2086 C2085 1.397 . S
C2086 C2087 1.334 . S
C2087 H2064 0.950 . S
C2087 C2086 1.334 . S
C2087 C2088 1.287 . S
C2088 C2087 1.287 . S
C2088 C2089 1.524 . S
C2088 H2107 0.913 . S
C2089 H2065 0.950 . S
C2089 C2088 1.524 . S
C2089 C2090 1.415 . S
C2090 H2066 0.950 . S
C2090 C2085 1.363 . S
C2090 C2089 1.415 . S
C2091 H2067 0.951 . S
C2091 C2092 1.366 . S
C2091 C2093 1.388 . S
C2092 C2091 1.366 . S
C2092 C2096 1.385 . S
C2093 H2068 0.951 . S
C2093 C2091 1.388 . S
C2093 C2094 1.366 . S
C2094 C2093 1.366 . S
C2094 C2095 1.414 . S
C2094 C2097 1.499 . S
C2095 H2069 0.950 . S
C2095 C2094 1.414 . S
C2095 C2096 1.374 . S
C2096 H2070 0.950 . S
C2096 C2092 1.385 . S
C2096 C2095 1.374 . S
C2097 C2094 1.499 . S
C2097 C2098 1.373 . S
C2097 C2099 1.389 . S
C2098 H2071 0.950 . S
C2098 C2084 1.377 . S
C2098 C2097 1.373 . S
C2099 C2083 1.377 . S
C2099 C2097 1.389 . S
C2099 C2100 1.524 . S
C2100 C2099 1.524 . S
C2100 C2101 1.397 . S
C2100 C2105 1.363 . S
C2101 H2072 0.950 . S
C2101 C2100 1.397 . S
C2101 C2102 1.334 . S
C2102 H2073 0.950 . S
C2102 C2101 1.334 . S
C2102 C2103 1.287 . S
C2103 C2102 1.287 . S
C2103 C2104 1.524 . S
C2103 H2106 0.999 . S
C2104 H2074 0.950 . S
C2104 C2103 1.524 . S
C2104 C2105 1.415 . S
C2105 H2075 0.950 . S
C2105 C2100 1.363 . S
C2105 C2104 1.415 . S
H2106 C2103 0.999 . S
H2107 C2088 0.913 . S
C542 C444 1.829 . S
C527 C45 1.882 . S
C577 C78 1.790 . S
C592 C447 1.764 . S
C627 C126 1.766 . S
C642 C478 1.739 . S
C692 C413 1.802 . S
C677 C174 1.847 . S
C742 C448 1.830 . S
C727 C36 1.888 . S
C792 C479 1.807 . S
C777 C69 1.861 . S
C842 C404 1.744 . S
C827 C117 1.782 . S
C892 C435 1.768 . S
C877 C165 1.804 . S
C927 C30 1.220 . S
C942 C465 1.154 . S
C977 C228 1.212 . S
C992 C434 1.139 . S
C1027 C141 1.123 . S
C1042 C394 1.119 . S
C1092 C487 1.136 . S
C1077 C270 1.139 . S
C1142 C415 1.155 . S
C1127 C21 1.228 . S
C1177 C237 1.142 . S
C1192 C414 1.139 . S
C1227 C132 1.136 . S
C1242 C507 1.124 . S
C1292 C446 1.141 . S
C1277 C261 1.215 . S
C1327 C333 1.880 . S
C1342 C506 1.827 . S
C1377 C213 1.804 . S
C1392 C385 1.768 . S
C1427 C357 1.780 1_655 S
C1442 C416 1.742 . S
C1477 C285 1.856 . S
C1492 C475 1.800 . S
C1542 C386 1.833 . S
C1527 C324 1.890 . S
C1577 C222 1.848 . S
C1592 C417 1.803 . S
C1627 C366 1.769 1_655 S
C1642 C466 1.741 . S
C1692 C497 1.770 . S
C1677 C276 1.810 . S
C1727 C318 1.216 . S
C1742 C403 1.152 . S
C1777 C93 1.199 . S
C1792 C496 1.137 . S
C1827 C372 1.134 . S
C1842 C456 1.122 . S
C1892 C425 1.139 . S
C1877 C189 1.141 . S
C1942 C477 1.157 . S
C1927 C309 1.231 . S
C1992 C476 1.141 . S
C1977 C84 1.153 . S
C2042 C445 1.121 . S
C2027 C381 1.125 . S
C2092 C384 1.140 . S
C2077 C180 1.211 . S
