# Generated by pormake.
# Topology sqc, (4,8)-cn, num edge types: 1
# Building blocks:
#     Node 0, Type 0, BuildingBlock: KUFVIS_clean_linker_0, # of connection points: 4
#     Node 1, Type 0, BuildingBlock: KUFVIS_clean_linker_0, # of connection points: 4
#     Node 2, Type 0, BuildingBlock: KUFVIS_clean_linker_0, # of connection points: 4
#     Node 3, Type 0, BuildingBlock: KUFVIS_clean_linker_0, # of connection points: 4
#     Node 4, Type 0, BuildingBlock: KUFVIS_clean_linker_0, # of connection points: 4
#     Node 5, Type 0, BuildingBlock: KUFVIS_clean_linker_0, # of connection points: 4
#     Node 6, Type 0, BuildingBlock: KUFVIS_clean_linker_0, # of connection points: 4
#     Node 7, Type 0, BuildingBlock: KUFVIS_clean_linker_0, # of connection points: 4
#     Node 8, Type 1, BuildingBlock: VETTIZ_charged_sbu_0, # of connection points: 8
#     Node 9, Type 1, BuildingBlock: VETTIZ_charged_sbu_0, # of connection points: 8
#     Node 10, Type 1, BuildingBlock: VETTIZ_charged_sbu_0, # of connection points: 8
#     Node 11, Type 1, BuildingBlock: VETTIZ_charged_sbu_0, # of connection points: 8
#     Edge 12, Type (0, 1), BuildingBlock: XIVTED_clean_linker_0, # of connection points: 2
#     Edge 13, Type (0, 1), BuildingBlock: XIVTED_clean_linker_0, # of connection points: 2
#     Edge 14, Type (0, 1), BuildingBlock: XIVTED_clean_linker_0, # of connection points: 2
#     Edge 15, Type (0, 1), BuildingBlock: XIVTED_clean_linker_0, # of connection points: 2
#     Edge 16, Type (0, 1), BuildingBlock: XIVTED_clean_linker_0, # of connection points: 2
#     Edge 17, Type (0, 1), BuildingBlock: XIVTED_clean_linker_0, # of connection points: 2
#     Edge 18, Type (0, 1), BuildingBlock: XIVTED_clean_linker_0, # of connection points: 2
#     Edge 19, Type (0, 1), BuildingBlock: XIVTED_clean_linker_0, # of connection points: 2
#     Edge 20, Type (0, 1), BuildingBlock: XIVTED_clean_linker_0, # of connection points: 2
#     Edge 21, Type (0, 1), BuildingBlock: XIVTED_clean_linker_0, # of connection points: 2
#     Edge 22, Type (0, 1), BuildingBlock: XIVTED_clean_linker_0, # of connection points: 2
#     Edge 23, Type (0, 1), BuildingBlock: XIVTED_clean_linker_0, # of connection points: 2
#     Edge 24, Type (0, 1), BuildingBlock: XIVTED_clean_linker_0, # of connection points: 2
#     Edge 25, Type (0, 1), BuildingBlock: XIVTED_clean_linker_0, # of connection points: 2
#     Edge 26, Type (0, 1), BuildingBlock: XIVTED_clean_linker_0, # of connection points: 2
#     Edge 27, Type (0, 1), BuildingBlock: XIVTED_clean_linker_0, # of connection points: 2
#     Edge 28, Type (0, 1), BuildingBlock: XIVTED_clean_linker_0, # of connection points: 2
#     Edge 29, Type (0, 1), BuildingBlock: XIVTED_clean_linker_0, # of connection points: 2
#     Edge 30, Type (0, 1), BuildingBlock: XIVTED_clean_linker_0, # of connection points: 2
#     Edge 31, Type (0, 1), BuildingBlock: XIVTED_clean_linker_0, # of connection points: 2
#     Edge 32, Type (0, 1), BuildingBlock: XIVTED_clean_linker_0, # of connection points: 2
#     Edge 33, Type (0, 1), BuildingBlock: XIVTED_clean_linker_0, # of connection points: 2
#     Edge 34, Type (0, 1), BuildingBlock: XIVTED_clean_linker_0, # of connection points: 2
#     Edge 35, Type (0, 1), BuildingBlock: XIVTED_clean_linker_0, # of connection points: 2
#     Edge 36, Type (0, 1), BuildingBlock: XIVTED_clean_linker_0, # of connection points: 2
#     Edge 37, Type (0, 1), BuildingBlock: XIVTED_clean_linker_0, # of connection points: 2
#     Edge 38, Type (0, 1), BuildingBlock: XIVTED_clean_linker_0, # of connection points: 2
#     Edge 39, Type (0, 1), BuildingBlock: XIVTED_clean_linker_0, # of connection points: 2
#     Edge 40, Type (0, 1), BuildingBlock: XIVTED_clean_linker_0, # of connection points: 2
#     Edge 41, Type (0, 1), BuildingBlock: XIVTED_clean_linker_0, # of connection points: 2
#     Edge 42, Type (0, 1), BuildingBlock: XIVTED_clean_linker_0, # of connection points: 2
#     Edge 43, Type (0, 1), BuildingBlock: XIVTED_clean_linker_0, # of connection points: 2
# Relax obj value: 0.164
# Max RMSD: 0.278
# Mean RMSD: 0.218
data_MOF--net-sqc--node1-VETTIZ_charged_sbu_0--node2-KUFVIS_clean_linker_0--edge1-XIVTED_clean_linker_0
_symmetry_space_group_name_H-M    P1
_symmetry_Int_Tables_number       1
_symmetry_cell_setting            triclinic
loop_
_symmetry_equiv_pos_as_xyz
'x, y, z'
_cell_length_a     24.675534
_cell_length_b     24.737391
_cell_length_c     68.051495
_cell_angle_alpha  90.162755
_cell_angle_beta   89.336091
_cell_angle_gamma 90.407172
loop_
_atom_site_label
_atom_site_type_symbol
_atom_site_fract_x
_atom_site_fract_y
_atom_site_fract_z
_atom_type_partial_charge
H0 H 0.84281 0.05016 0.50477 0.0
H1 H 0.9905 0.07814 0.53516 0.0
H2 H 0.98962 0.98587 0.48064 0.0
H3 H 0.07509 1.00649 0.47857 0.0
H4 H 0.21743 1.0069 0.51352 0.0
H5 H 0.065 0.03772 0.54149 0.0
C6 C 0.88645 0.04547 0.50543 0.0
C7 C 0.91358 0.01836 0.49027 0.0
C8 C 0.91385 0.06506 0.52183 0.0
C9 C 0.97036 0.06005 0.52274 0.0
C10 C 0.99967 0.03118 0.50806 0.0
C11 C 0.96987 1.00962 0.49194 0.0
C12 C 0.06049 0.02343 0.50974 0.0
C13 C 0.09274 0.01041 0.49296 0.0
C14 C 0.1491 1.00412 0.49444 0.0
C15 C 0.1738 0.0111 0.5126 0.0
C16 C 0.14399 0.02375 0.52952 0.0
C17 C 0.08737 0.02954 0.5281 0.0
H18 H 0.21474 0.9763 0.75247 0.0
H19 H 0.22411 0.83156 0.78659 0.0
H20 H 0.24057 0.82619 0.72294 0.0
H21 H 0.28688 0.75323 0.72856 0.0
H22 H 0.25805 0.60208 0.75711 0.0
H23 H 0.19387 0.74643 0.7831 0.0
C24 C 0.21871 0.93267 0.75314 0.0
C25 C 0.22817 0.90397 0.73582 0.0
C26 C 0.21784 0.90711 0.77143 0.0
C27 C 0.22361 0.85055 0.7723 0.0
C28 C 0.23156 0.81956 0.75488 0.0
C29 C 0.23409 0.84754 0.73664 0.0
C30 C 0.23925 0.75893 0.75574 0.0
C31 C 0.26831 0.73145 0.74066 0.0
C32 C 0.27358 0.67501 0.74091 0.0
C33 C 0.25324 0.64565 0.75688 0.0
C34 C 0.22591 0.67134 0.77236 0.0
C35 C 0.21748 0.72763 0.7715 0.0
H36 H 0.69419 0.04903 0.01129 0.0
H37 H 0.54904 0.96648 0.02887 0.0
H38 H 0.54724 0.0804 0.98053 0.0
H39 H 0.47276 0.0321 0.97209 0.0
H40 H 0.32199 0.99582 1.00151 0.0
H41 H 0.46764 0.99786 0.03454 0.0
C42 C 0.65103 0.04213 0.00957 0.0
C43 C 0.62396 0.06803 0.99436 0.0
C44 C 0.62398 1.00658 0.02229 0.0
C45 C 0.56887 0.99558 0.01933 0.0
C46 C 0.53946 0.02262 0.00459 0.0
C47 C 0.5681 0.0585 0.99188 0.0
C48 C 0.479 0.01474 0.00331 0.0
C49 C 0.45091 0.02179 0.98545 0.0
C50 C 0.39412 0.01497 0.98469 0.0
C51 C 0.36569 1.00051 1.00184 0.0
C52 C 0.39228 0.99353 0.01964 0.0
C53 C 0.44849 1.00106 0.02037 0.0
H54 H 0.30067 0.4383 0.23902 0.0
H55 H 0.30444 0.30124 0.2765 0.0
H56 H 0.26671 0.28235 0.21463 0.0
H57 H 0.2346 0.20304 0.22261 0.0
H58 H 0.26548 0.06714 0.25956 0.0
H59 H 0.33027 0.22037 0.27559 0.0
C60 C 0.29827 0.39478 0.24076 0.0
C61 C 0.28292 0.36278 0.22479 0.0
C62 C 0.30787 0.37244 0.25919 0.0
C63 C 0.29973 0.31678 0.26184 0.0
C64 C 0.28605 0.28219 0.2459 0.0
C65 C 0.27734 0.30644 0.22729 0.0
C66 C 0.28131 0.22165 0.24897 0.0
C67 C 0.25319 0.18717 0.23566 0.0
C68 C 0.24965 0.13096 0.23902 0.0
C69 C 0.27005 0.10997 0.25648 0.0
C70 C 0.29767 0.14259 0.2698 0.0
C71 C 0.30548 0.19739 0.26558 0.0
H72 H 0.73318 0.43586 0.26311 0.0
H73 H 0.7364 0.28584 0.29367 0.0
H74 H 0.77171 0.29188 0.23093 0.0
H75 H 0.81722 0.21783 0.2356 0.0
H76 H 0.79329 0.06307 0.26178 0.0
H77 H 0.71983 0.2008 0.289 0.0
C78 C 0.73919 0.39246 0.26269 0.0
C79 C 0.75359 0.36725 0.24501 0.0
C80 C 0.73201 0.36311 0.27997 0.0
C81 C 0.74086 0.30699 0.27988 0.0
C82 C 0.75627 0.27942 0.2623 0.0
C83 C 0.76199 0.31081 0.24484 0.0
C84 C 0.76636 0.21871 0.2622 0.0
C85 C 0.79837 0.19407 0.24712 0.0
C86 C 0.80778 0.13803 0.24711 0.0
C87 C 0.78647 0.10635 0.26224 0.0
C88 C 0.75652 0.12875 0.27775 0.0
C89 C 0.74506 0.1846 0.27736 0.0
H90 H 0.77231 0.96486 0.74883 0.0
H91 H 0.82204 0.81663 0.77507 0.0
H92 H 0.77022 0.82022 0.71441 0.0
H93 H 0.7551 0.73362 0.71863 0.0
H94 H 0.84021 0.59585 0.73908 0.0
H95 H 0.87024 0.749 0.76612 0.0
C96 C 0.77945 0.92174 0.74777 0.0
C97 C 0.76736 0.89476 0.73027 0.0
C98 C 0.80024 0.89375 0.76384 0.0
C99 C 0.80886 0.83786 0.76214 0.0
C100 C 0.79933 0.80988 0.74429 0.0
C101 C 0.77803 0.83938 0.7284 0.0
C102 C 0.81178 0.75053 0.74233 0.0
C103 C 0.7859 0.71752 0.7281 0.0
C104 C 0.79859 0.66241 0.72634 0.0
C105 C 0.83445 0.63927 0.73952 0.0
C106 C 0.85817 0.66999 0.75444 0.0
C107 C 0.84881 0.72576 0.75518 0.0
H108 H 0.68562 0.47732 0.01836 0.0
H109 H 0.54188 0.45496 0.98448 0.0
H110 H 0.53895 0.55395 0.03723 0.0
H111 H 0.453 0.5197 0.03972 0.0
H112 H 0.31656 0.53842 0.00217 0.0
H113 H 0.47267 0.50966 0.97631 0.0
C114 C 0.64255 0.48391 0.01646 0.0
C115 C 0.61476 0.51633 0.02999 0.0
C116 C 0.61704 0.4628 0.99985 0.0
C117 C 0.56149 0.4729 0.99708 0.0
C118 C 0.53153 0.50467 0.0108 0.0
C119 C 0.55957 0.52734 0.02699 0.0
C120 C 0.47153 0.51434 0.00833 0.0
C121 C 0.43701 0.52195 0.025 0.0
C122 C 0.38097 0.53017 0.02279 0.0
C123 C 0.35969 0.532 0.00388 0.0
C124 C 0.392 0.52417 0.98714 0.0
C125 C 0.44791 0.51511 0.98938 0.0
H126 H 0.17255 0.52382 0.50687 0.0
H127 H 0.02137 0.46348 0.52982 0.0
H128 H 0.02354 0.58099 0.48275 0.0
H129 H 0.94925 0.51792 0.47437 0.0
H130 H 0.79714 0.50247 0.50498 0.0
H131 H 0.94329 0.52007 0.53802 0.0
C132 C 0.12856 0.52364 0.50676 0.0
C133 C 0.1017 0.55669 0.49345 0.0
C134 C 0.1 0.4899 0.51975 0.0
C135 C 0.0432 0.49029 0.51989 0.0
C136 C 0.01466 0.52272 0.50653 0.0
C137 C 0.04452 0.55564 0.4931 0.0
C138 C 0.95401 0.51971 0.50621 0.0
C139 C 0.92666 0.5166 0.48811 0.0
C140 C 0.87019 0.50924 0.48772 0.0
C141 C 0.84086 0.50735 0.5054 0.0
C142 C 0.86632 0.51205 0.52358 0.0
C143 C 0.92324 0.51713 0.52398 0.0
Fe144 Fe 1.00558 0.71801 0.18094 0.0
O145 O 1.00538 0.71522 0.15206 0.0
Fe146 Fe 0.93946 0.74738 0.13683 0.0
Fe147 Fe 0.06573 0.74695 0.13599 0.0
O148 O 0.99991 0.71469 0.15202 0.0
O149 O 0.99999 0.78087 0.12108 0.0
O150 O 1.00575 0.78093 0.12102 0.0
Fe151 Fe 1.003 0.78018 0.09224 0.0
C152 C 0.07646 0.81584 0.17191 0.0
O153 O 0.06429 0.66111 0.17637 0.0
O154 O 0.12038 0.70306 0.15361 0.0
O155 O 0.94201 0.72368 0.08967 0.0
O156 O 0.93518 0.68112 0.1183 0.0
O157 O 0.88464 0.70465 0.15549 0.0
O158 O 0.94034 0.66612 0.17866 0.0
O159 O 0.06653 0.68049 0.11799 0.0
O160 O 0.06169 0.72084 0.08891 0.0
C161 C 0.89551 0.66883 0.16897 0.0
O162 O 0.93952 0.8338 0.09626 0.0
O163 O 0.88478 0.78819 0.11873 0.0
O164 O 0.068 0.77465 0.18272 0.0
O165 O 0.06788 0.81454 0.15359 0.0
C166 C 0.10819 0.66377 0.16572 0.0
C167 C 0.07827 0.6826 0.09979 0.0
C168 C 0.11383 0.82371 0.10404 0.0
O169 O 0.12158 0.78671 0.11731 0.0
O170 O 0.06792 0.83271 0.09546 0.0
C171 C 0.92215 0.68608 0.10032 0.0
O172 O 0.93904 0.81492 0.15459 0.0
O173 O 0.9512 0.78093 0.18451 0.0
C174 C 0.89331 0.82463 0.10518 0.0
C175 C 0.93844 0.8197 0.17319 0.0
Fe176 Fe 0.53935 0.74789 0.43234 0.0
O177 O 0.54391 0.74599 0.40353 0.0
Fe178 Fe 0.52442 0.81639 0.38816 0.0
Fe179 Fe 0.50483 0.69185 0.38693 0.0
O180 O 0.54583 0.75123 0.40341 0.0
O181 O 0.48359 0.76265 0.37186 0.0
O182 O 0.48206 0.75702 0.37188 0.0
Fe183 Fe 0.48715 0.76125 0.34306 0.0
C184 C 0.57331 0.63481 0.41827 0.0
O185 O 0.46995 0.70054 0.43415 0.0
O186 O 0.43515 0.69715 0.40408 0.0
O187 O 0.44307 0.83138 0.34689 0.0
O188 O 0.49365 0.87776 0.37007 0.0
O189 O 0.45607 0.8249 0.4052 0.0
O190 O 0.49063 0.81581 0.43499 0.0
O191 O 0.46019 0.64372 0.36731 0.0
O192 O 0.42528 0.70458 0.34525 0.0
C193 C 0.453 0.83102 0.42365 0.0
O194 O 0.55301 0.81323 0.34126 0.0
O195 O 0.59213 0.81131 0.37047 0.0
O196 O 0.58254 0.67746 0.42889 0.0
O197 O 0.53688 0.63059 0.40463 0.0
C198 C 0.42995 0.6937 0.42269 0.0
C199 C 0.42806 0.65664 0.35301 0.0
C200 C 0.57059 0.67128 0.35125 0.0
O201 O 0.57319 0.68239 0.36949 0.0
O202 O 0.53655 0.69437 0.34018 0.0
C203 C 0.4571 0.87505 0.35636 0.0
O204 O 0.57401 0.86318 0.40748 0.0
O205 O 0.60388 0.80017 0.42983 0.0
C206 C 0.59215 0.82528 0.3525 0.0
C207 C 0.60857 0.84559 0.42045 0.0
Fe208 Fe 0.50075 0.27937 0.68317 0.0
O209 O 0.50508 0.29062 0.65495 0.0
Fe210 Fe 0.43407 0.27547 0.63723 0.0
Fe211 Fe 0.56928 0.28453 0.63688 0.0
O212 O 0.49771 0.26996 0.65503 0.0
O213 O 0.49704 0.28974 0.61913 0.0
O214 O 0.50692 0.26894 0.61919 0.0
Fe215 Fe 0.50376 0.27589 0.59099 0.0
C216 C 0.61215 0.33759 0.67358 0.0
O217 O 0.55084 0.21291 0.68135 0.0
O218 O 0.57707 0.20674 0.64899 0.0
O219 O 0.45545 0.20695 0.59281 0.0
O220 O 0.43523 0.19695 0.62544 0.0
O221 O 0.37781 0.24688 0.65776 0.0
O222 O 0.43409 0.22889 0.68287 0.0
O223 O 0.6279 0.26592 0.61621 0.0
O224 O 0.57545 0.23178 0.59184 0.0
C225 C 0.38967 0.22137 0.6736 0.0
O226 O 0.43164 0.3189 0.59038 0.0
O227 O 0.3773 0.29331 0.61616 0.0
O228 O 0.56762 0.32969 0.68312 0.0
O229 O 0.62406 0.31373 0.65727 0.0
C230 C 0.57318 0.18796 0.6667 0.0
C231 C 0.62137 0.2381 0.60044 0.0
C232 C 0.57292 0.37375 0.60566 0.0
O233 O 0.56862 0.36178 0.62415 0.0
O234 O 0.55187 0.34532 0.59165 0.0
C235 C 0.43252 0.18165 0.60729 0.0
O236 O 0.42637 0.35418 0.64948 0.0
O237 O 0.451 0.34591 0.6818 0.0
C238 C 0.38501 0.31474 0.5991 0.0
C239 C 0.43031 0.37228 0.66737 0.0
Fe240 Fe 0.04371 0.29061 0.9301 0.0
O241 O 0.04519 0.28434 0.90129 0.0
Fe242 Fe 0.0115 0.34719 0.88482 0.0
Fe243 Fe 0.01377 0.2211 0.88691 0.0
O244 O 0.04549 0.28989 0.90114 0.0
O245 O 0.97848 0.28407 0.87073 0.0
O246 O 0.97857 0.27824 0.87081 0.0
Fe247 Fe 0.97869 0.27683 0.842 0.0
C248 C 0.09649 0.18385 0.9178 0.0
O249 O 0.98469 0.23134 0.9342 0.0
O250 O 0.94668 0.22016 0.90497 0.0
O251 O 0.9247 0.34024 0.84481 0.0
O252 O 0.97047 0.39826 0.86562 0.0
O253 O 0.94406 0.34894 0.90314 0.0
O254 O 0.98293 0.34747 0.93243 0.0
O255 O 0.97456 0.16219 0.86952 0.0
O256 O 0.92684 0.21223 0.84699 0.0
C257 C 0.94155 0.3542 0.92172 0.0
O258 O 0.03464 0.33757 0.83761 0.0
O259 O 0.07757 0.34997 0.86576 0.0
O260 O 0.09926 0.22966 0.92708 0.0
O261 O 0.05824 0.16992 0.90563 0.0
C262 C 0.94422 0.21862 0.9236 0.0
C263 C 0.93746 0.16752 0.85615 0.0
C264 C 0.07775 0.20494 0.8506 0.0
O265 O 0.08007 0.21865 0.86857 0.0
O266 O 0.03864 0.21886 0.8397 0.0
C267 C 0.93597 0.38825 0.85167 0.0
O268 O 0.05425 0.40515 0.90172 0.0
O269 O 0.09676 0.35388 0.92533 0.0
C270 C 0.07188 0.36018 0.84754 0.0
C271 C 0.09195 0.39699 0.9147 0.0
H272 H 0.24021 0.0556 0.48138 0.0
H273 H 0.34823 0.81996 0.41194 0.0
H274 H 0.14005 0.91564 0.47018 0.0
H275 H 0.44829 0.90383 0.45386 0.0
H276 H 0.26833 0.86719 0.4253 0.0
H277 H 0.3131 0.01503 0.4618 0.0
C278 C 0.23302 0.01702 0.47426 0.0
C279 C 0.18436 0.98853 0.47758 0.0
C280 C 0.30786 0.87525 0.43146 0.0
C281 C 0.26759 0.94194 0.45532 0.0
C282 C 0.3533 0.84853 0.42389 0.0
C283 C 0.40474 0.85813 0.43189 0.0
C284 C 0.31437 0.91292 0.44669 0.0
C285 C 0.40928 0.89511 0.44741 0.0
C286 C 0.27477 0.99373 0.4633 0.0
C287 C 0.17697 0.93883 0.46794 0.0
N288 N 0.36471 0.9216 0.45418 0.0
N289 N 0.21856 0.91663 0.45739 0.0
H290 H 0.16349 0.97667 0.71692 0.0
H291 H 0.40825 0.15736 0.70522 0.0
H292 H 0.32358 0.90841 0.71577 0.0
H293 H 0.2947 0.17714 0.65788 0.0
H294 H 0.36459 0.07289 0.71386 0.0
H295 H 0.19753 0.0536 0.69736 0.0
C296 C 0.20515 0.97661 0.71172 0.0
C297 C 0.24088 0.93613 0.71794 0.0
C298 C 0.34921 0.09571 0.70157 0.0
C299 C 0.28006 0.02452 0.6964 0.0
C300 C 0.37371 0.14453 0.69666 0.0
C301 C 0.35572 0.17485 0.68055 0.0
C302 C 0.30519 0.07681 0.69075 0.0
C303 C 0.31016 0.15529 0.67035 0.0
C304 C 0.22451 0.02061 0.7007 0.0
C305 C 0.29467 0.93846 0.71118 0.0
N306 N 0.28605 0.10742 0.67571 0.0
N307 N 0.31302 0.98279 0.70132 0.0
H308 H 0.40533 0.10208 0.96018 0.0
H309 H 0.10004 0.07341 0.92461 0.0
H310 H 0.30895 0.95786 0.96897 0.0
H311 H 0.20101 0.21481 0.9168 0.0
H312 H 0.18077 0.02248 0.93461 0.0
H313 H 0.33755 0.13507 0.93737 0.0
C314 C 0.3707 0.07662 0.95688 0.0
C315 C 0.36225 0.02775 0.96686 0.0
C316 C 0.1853 0.06441 0.93034 0.0
C317 C 0.2833 0.066 0.94122 0.0
C318 C 0.1393 0.09328 0.9246 0.0
C319 C 0.1439 0.1485 0.92031 0.0
C320 C 0.23584 0.09117 0.93162 0.0
C321 C 0.19562 0.17249 0.92044 0.0
C322 C 0.33154 0.09571 0.944 0.0
C323 C 0.31635 0.99653 0.96199 0.0
N324 N 0.23928 0.14396 0.92622 0.0
N325 N 0.27802 0.01667 0.94988 0.0
H326 H 0.29631 0.03901 0.22564 0.0
H327 H 0.05632 0.92098 0.16194 0.0
H328 H 0.15059 0.1327 0.22006 0.0
H329 H 0.14981 0.82386 0.20148 0.0
H330 H 0.09822 1.00303 0.176 0.0
H331 H 0.25279 0.96439 0.20829 0.0
C332 C 0.2553 0.04417 0.22047 0.0
C333 C 0.22666 0.09181 0.22463 0.0
C334 C 0.10933 0.96368 0.18154 0.0
C335 C 0.17676 1.00634 0.20458 0.0
C336 C 0.08577 0.91699 0.17352 0.0
C337 C 0.0999 0.86562 0.18054 0.0
C338 C 0.1484 0.95865 0.19622 0.0
C339 C 0.13773 0.86261 0.19569 0.0
C340 C 0.23048 1.00144 0.21067 0.0
C341 C 0.174 0.09661 0.21722 0.0
N342 N 0.16116 0.9084 0.20283 0.0
N343 N 0.1504 0.05407 0.20762 0.0
H344 H 0.13486 0.10848 0.55576 0.0
H345 H 0.4382 0.10109 0.5796 0.0
H346 H 0.22502 0.96246 0.54493 0.0
H347 H 0.32976 0.17453 0.62182 0.0
H348 H 0.36099 0.05159 0.56567 0.0
H349 H 0.20338 0.13614 0.57986 0.0
C350 C 0.16802 0.08147 0.55887 0.0
C351 C 0.17469 0.03357 0.54801 0.0
C352 C 0.35436 0.0775 0.57831 0.0
C353 C 0.25387 0.06578 0.57495 0.0
C354 C 0.39842 0.10548 0.5863 0.0
C355 C 0.3905 0.14124 0.60207 0.0
C356 C 0.30174 0.08706 0.58561 0.0
C357 C 0.33777 0.14648 0.60991 0.0
C358 C 0.20731 0.09745 0.5725 0.0
C359 C 0.2189 1.00037 0.5526 0.0
N360 N 0.29514 0.12078 0.6013 0.0
N361 N 0.25751 0.01774 0.56527 0.0
H362 H 0.27882 0.99547 0.78033 0.0
H363 H 0.09446 0.10738 0.86767 0.0
H364 H 0.14455 0.89992 0.80229 0.0
H365 H 0.13772 0.20204 0.81671 0.0
H366 H 0.13846 0.02828 0.85242 0.0
H367 H 0.25429 0.06778 0.80326 0.0
C368 C 0.24504 0.98912 0.7904 0.0
C369 C 0.21293 0.94209 0.78915 0.0
C370 C 0.13924 0.06674 0.84485 0.0
C371 C 0.18532 0.02442 0.81553 0.0
C372 C 0.11475 0.11185 0.85355 0.0
C373 C 0.11313 0.16123 0.84343 0.0
C374 C 0.16349 0.07177 0.82621 0.0
C375 C 0.13862 0.16476 0.825 0.0
C376 C 0.23105 0.03045 0.80337 0.0
C377 C 0.17013 0.93563 0.80273 0.0
N378 N 0.16302 0.12063 0.817 0.0
N379 N 0.15699 0.97683 0.81525 0.0
H380 H 0.30247 0.04333 0.0343 0.0
H381 H 0.22184 0.79687 0.10471 0.0
H382 H 0.40824 0.90877 0.04476 0.0
H383 H 0.11321 0.92325 0.08699 0.0
H384 H 0.29689 0.84549 0.08846 0.0
H385 H 0.23999 1.00878 0.0594 0.0
C386 C 0.3128 1.00681 0.04214 0.0
C387 C 0.36006 0.97837 0.03731 0.0
C388 C 0.25673 0.86285 0.08839 0.0
C389 C 0.28839 0.93798 0.06587 0.0
C390 C 0.21395 0.83527 0.09773 0.0
C391 C 0.16104 0.85569 0.09696 0.0
C392 C 0.24646 0.91128 0.07838 0.0
C393 C 0.15313 0.90552 0.08767 0.0
C394 C 0.27713 0.98701 0.05643 0.0
C395 C 0.37203 0.93171 0.04805 0.0
N396 N 0.1952 0.9313 0.07865 0.0
N397 N 0.33593 0.91239 0.06165 0.0
H398 H 0.24101 0.08287 0.29644 0.0
H399 H 0.50467 0.97428 0.35044 0.0
H400 H 0.4014 0.14527 0.28421 0.0
H401 H 0.35188 0.88935 0.34694 0.0
H402 H 0.46382 0.05182 0.33366 0.0
H403 H 0.27762 0.02782 0.32279 0.0
C404 C 0.28392 0.08548 0.29955 0.0
C405 C 0.31846 0.1178 0.28798 0.0
C406 C 0.4391 0.01655 0.33693 0.0
C407 C 0.36082 0.05453 0.31795 0.0
C408 C 0.46221 0.97259 0.34659 0.0
C409 C 0.43154 0.92543 0.34987 0.0
C410 C 0.38491 0.01324 0.33087 0.0
C411 C 0.37696 0.92485 0.34447 0.0
C412 C 0.30482 0.05406 0.31455 0.0
C413 C 0.37357 0.12054 0.29277 0.0
N414 N 0.3555 0.96792 0.33515 0.0
N415 N 0.39334 0.08849 0.30724 0.0
H416 H 0.92238 0.1654 0.53947 0.0
H417 H 0.62164 0.14391 0.57987 0.0
H418 H 0.83008 0.01684 0.54096 0.0
H419 H 0.72873 0.26907 0.60118 0.0
H420 H 0.69874 0.09951 0.56431 0.0
H421 H 0.85477 0.20668 0.5618 0.0
C422 C 0.88863 0.14124 0.54487 0.0
C423 C 0.88118 0.088 0.53821 0.0
C424 C 0.70566 0.13646 0.57251 0.0
C425 C 0.80388 0.13472 0.56321 0.0
C426 C 0.66152 0.16201 0.58129 0.0
C427 C 0.6688 0.2103 0.59176 0.0
C428 C 0.75757 0.15976 0.57383 0.0
C429 C 0.72153 0.23171 0.59327 0.0
C430 C 0.85004 0.16476 0.55749 0.0
C431 C 0.83675 0.05832 0.54552 0.0
N432 N 0.76399 0.20664 0.58416 0.0
N433 N 0.79946 0.08227 0.55736 0.0
H434 H 0.81415 0.04814 0.29506 0.0
H435 H 0.59738 0.92624 0.36809 0.0
H436 H 0.65715 0.124 0.29741 0.0
H437 H 0.66279 0.82788 0.32128 0.0
H438 H 0.63937 1.00666 0.35277 0.0
H439 H 0.779 0.97511 0.31575 0.0
C440 C 0.77239 0.04991 0.30009 0.0
C441 C 0.73809 0.09171 0.2939 0.0
C442 C 0.6453 0.96723 0.34615 0.0
C443 C 0.69868 1.00898 0.31836 0.0
C444 C 0.6221 0.92137 0.35495 0.0
C445 C 0.62756 0.87032 0.34606 0.0
C446 C 0.67542 0.96154 0.32871 0.0
C447 C 0.65851 0.86637 0.32873 0.0
C448 C 0.75264 1.00824 0.31195 0.0
C449 C 0.68498 0.09259 0.30163 0.0
N450 N 0.68175 0.91136 0.32069 0.0
N451 N 0.66668 0.05148 0.31338 0.0
H452 H 0.69451 0.0569 0.04697 0.0
H453 H 0.78924 0.78789 0.10105 0.0
H454 H 0.62228 0.9009 0.03521 0.0
H455 H 0.89097 0.92837 0.092 0.0
H456 H 0.71536 0.83404 0.0841 0.0
H457 H 0.75373 0.01503 0.07089 0.0
C458 C 0.69093 0.01379 0.0495 0.0
C459 C 0.65426 0.98211 0.03873 0.0
C460 C 0.75364 0.8549 0.08612 0.0
C461 C 0.72155 0.9341 0.06634 0.0
C462 C 0.79557 0.82887 0.09589 0.0
C463 C 0.84621 0.85445 0.09783 0.0
C464 C 0.76235 0.90707 0.0786 0.0
C465 C 0.85264 0.90717 0.09067 0.0
C466 C 0.72462 0.99001 0.0632 0.0
C467 C 0.65019 0.92675 0.04309 0.0
N468 N 0.81123 0.93171 0.08135 0.0
N469 N 0.68394 0.90429 0.05645 0.0
H470 H 0.89082 0.88355 0.78662 0.0
H471 H 0.8345 0.16023 0.84248 0.0
H472 H 0.74166 0.97262 0.78267 0.0
H473 H 0.97693 0.06454 0.85245 0.0
H474 H 0.795 0.08535 0.82406 0.0
H475 H 0.91846 0.94207 0.81387 0.0
C476 C 0.86345 0.91478 0.7917 0.0
C477 C 0.81421 0.92375 0.78211 0.0
C478 C 0.83452 0.08017 0.83052 0.0
C479 C 0.84587 0.99126 0.81315 0.0
C480 C 0.85703 0.12295 0.84109 0.0
C481 C 0.90918 0.11869 0.84887 0.0
C482 C 0.86477 0.03299 0.82733 0.0
C483 C 0.9365 0.06939 0.84672 0.0
C484 C 0.87937 0.94833 0.80722 0.0
C485 C 0.78054 0.96502 0.78929 0.0
N486 N 0.91438 0.02873 0.83583 0.0
N487 N 0.79724 0.99753 0.80418 0.0
H488 H 0.91345 0.91615 0.47412 0.0
H489 H 0.62542 0.95699 0.42278 0.0
H490 H 0.83648 0.07134 0.46917 0.0
H491 H 0.70694 0.80422 0.42827 0.0
H492 H 0.7075 1.00273 0.43521 0.0
H493 H 0.84459 0.87747 0.45247 0.0
C494 C 0.88291 0.94238 0.46809 0.0
C495 C 0.88044 0.99688 0.47369 0.0
C496 C 0.70749 0.95922 0.43344 0.0
C497 C 0.8003 0.95268 0.44924 0.0
C498 C 0.66072 0.93324 0.42627 0.0
C499 C 0.6589 0.87666 0.42483 0.0
C500 C 0.75264 0.9283 0.43903 0.0
C501 C 0.70598 0.84786 0.42954 0.0
C502 C 0.84312 0.92022 0.45587 0.0
C503 C 0.83941 0.02884 0.4655 0.0
N504 N 0.7504 0.87379 0.43654 0.0
N505 N 0.8006 1.00619 0.45397 0.0
H506 H 0.90711 0.09393 0.25126 0.0
H507 H 0.87901 0.9016 0.15687 0.0
H508 H 0.77902 0.11224 0.20944 0.0
H509 H 0.96558 0.85976 0.20935 0.0
H510 H 0.85559 0.98896 0.17189 0.0
H511 H 0.94494 0.02069 0.23123 0.0
C512 C 0.88828 0.08391 0.2374 0.0
C513 C 0.84031 0.10957 0.23185 0.0
C514 C 0.87984 0.96066 0.18005 0.0
C515 C 0.88206 0.02426 0.20921 0.0
C516 C 0.89318 0.91076 0.17152 0.0
C517 C 0.92363 0.87281 0.18198 0.0
C518 C 0.89798 0.97324 0.19902 0.0
C519 C 0.9412 0.88719 0.20086 0.0
C520 C 0.9093 0.0415 0.22614 0.0
C521 C 0.81658 0.09406 0.21403 0.0
N522 N 0.92821 0.93613 0.20873 0.0
N523 N 0.83731 0.05192 0.20344 0.0
H524 H 0.64043 0.06052 0.9545 0.0
H525 H 0.91382 0.23163 0.96217 0.0
H526 H 0.6843 0.15518 0.00519 0.0
H527 H 0.85565 0.16924 0.90693 0.0
H528 H 0.82781 0.20594 0.97765 0.0
H529 H 0.71462 0.10398 0.9358 0.0
C530 C 0.66453 0.09176 0.96146 0.0
C531 C 0.65647 0.10424 0.98139 0.0
C532 C 0.83368 0.19798 0.96212 0.0
C533 C 0.74221 0.15266 0.96044 0.0
C534 C 0.88307 0.2123 0.95329 0.0
C535 C 0.89235 0.20218 0.93324 0.0
C536 C 0.79327 0.17244 0.95094 0.0
C537 C 0.85048 0.17761 0.92246 0.0
C538 C 0.70724 0.11611 0.95089 0.0
C539 C 0.68939 0.14434 0.98985 0.0
N540 N 0.80302 0.16311 0.93148 0.0
N541 N 0.73124 0.16645 0.97945 0.0
H542 H 0.81147 0.97267 0.70668 0.0
H543 H 0.5334 0.10971 0.69098 0.0
H544 H 0.6622 0.88785 0.7194 0.0
H545 H 0.6681 0.14642 0.65222 0.0
H546 H 0.57976 0.0278 0.70149 0.0
H547 H 0.76145 0.03625 0.68611 0.0
C548 C 0.76836 0.96672 0.70463 0.0
C549 C 0.74069 0.92511 0.71453 0.0
C550 C 0.59879 0.05323 0.69043 0.0
C551 C 0.68323 0.9982 0.69178 0.0
C552 C 0.5725 0.10004 0.68451 0.0
C553 C 0.59726 0.13488 0.67085 0.0
C554 C 0.65089 0.04204 0.68306 0.0
C555 C 0.64775 0.12046 0.6628 0.0
C556 C 0.73986 1.00289 0.69297 0.0
C557 C 0.68479 0.9193 0.7118 0.0
N558 N 0.67355 0.07563 0.66935 0.0
N559 N 0.6576 0.95617 0.70098 0.0
H560 H 0.68064 0.37562 0.00668 0.0
H561 H 0.84853 0.39551 0.90538 0.0
H562 H 0.63431 0.48449 0.96062 0.0
H563 H 0.91326 0.3394 0.96026 0.0
H564 H 0.7616 0.41339 0.92224 0.0
H565 H 0.75559 0.34365 0.98605 0.0
C566 C 0.68545 0.39173 0.99197 0.0
C567 C 0.65135 0.43293 0.98538 0.0
C568 C 0.79492 0.39703 0.93051 0.0
C569 C 0.7381 0.39745 0.96179 0.0
C570 C 0.84455 0.38691 0.92093 0.0
C571 C 0.88864 0.36647 0.93145 0.0
C572 C 0.789 0.38552 0.95064 0.0
C573 C 0.88086 0.35581 0.95156 0.0
C574 C 0.7286 0.37392 0.98028 0.0
C575 C 0.6595 0.45248 0.9662 0.0
N576 N 0.83218 0.36524 0.96041 0.0
N577 N 0.70254 0.43508 0.95514 0.0
H578 H 0.68805 0.44852 0.23206 0.0
H579 H 0.914 0.56597 0.15843 0.0
H580 H 0.83729 0.36683 0.21781 0.0
H581 H 0.79693 0.66565 0.18845 0.0
H582 H 0.86999 0.48528 0.17215 0.0
H583 H 0.7121 0.51949 0.20851 0.0
C584 C 0.7255 0.44496 0.22371 0.0
C585 C 0.76131 0.40208 0.22726 0.0
C586 C 0.85301 0.52462 0.17537 0.0
C587 C 0.78872 0.48328 0.20008 0.0
C588 C 0.8777 0.57063 0.16738 0.0
C589 C 0.85864 0.62239 0.17219 0.0
C590 C 0.80895 0.5303 0.18839 0.0
C591 C 0.81228 0.62641 0.18416 0.0
C592 C 0.73914 0.4856 0.21029 0.0
C593 C 0.80856 0.39908 0.21565 0.0
N594 N 0.78929 0.58091 0.19205 0.0
N595 N 0.82124 0.43952 0.20277 0.0
H596 H 0.79902 0.43065 0.47647 0.0
H597 H 0.5695 0.54577 0.44185 0.0
H598 H 0.86877 0.58234 0.45765 0.0
H599 H 0.6706 0.63186 0.40036 0.0
H600 H 0.64891 0.49576 0.45271 0.0
H601 H 0.72616 0.44186 0.45275 0.0
C602 C 0.79977 0.46557 0.46688 0.0
C603 C 0.83919 0.50626 0.46925 0.0
C604 C 0.65356 0.52367 0.44058 0.0
C605 C 0.75524 0.5202 0.44267 0.0
C606 C 0.60806 0.55207 0.43439 0.0
C607 C 0.61377 0.59211 0.42006 0.0
C608 C 0.70505 0.5367 0.43266 0.0
C609 C 0.66481 0.60051 0.41128 0.0
C610 C 0.75783 0.47226 0.45357 0.0
C611 C 0.83886 0.55032 0.45637 0.0
N612 N 0.70882 0.57405 0.41806 0.0
N613 N 0.79677 0.55669 0.44386 0.0
H614 H 0.84151 0.59973 0.69707 0.0
H615 H 0.60063 0.39276 0.70806 0.0
H616 H 0.6912 0.63779 0.72663 0.0
H617 H 0.70122 0.38731 0.65568 0.0
H618 H 0.64356 0.47719 0.71729 0.0
H619 H 0.79804 0.51975 0.68234 0.0
C620 C 0.79882 0.59216 0.69988 0.0
C621 C 0.76956 0.62545 0.7129 0.0
C622 C 0.65629 0.45762 0.70376 0.0
C623 C 0.72074 0.53333 0.69695 0.0
C624 C 0.63221 0.40887 0.69851 0.0
C625 C 0.64665 0.3828 0.68083 0.0
C626 C 0.69606 0.48067 0.69151 0.0
C627 C 0.68851 0.40595 0.66936 0.0
C628 C 0.77429 0.54641 0.69163 0.0
C629 C 0.71483 0.61351 0.71646 0.0
N630 N 0.71185 0.45375 0.6749 0.0
N631 N 0.69245 0.56783 0.70883 0.0
H632 H 0.62583 0.6238 0.03843 0.0
H633 H 0.87498 0.58866 0.11209 0.0
H634 H 0.67841 0.46653 0.05709 0.0
H635 H 0.85586 0.72111 0.07161 0.0
H636 H 0.79131 0.54732 0.09891 0.0
H637 H 0.69634 0.66522 0.05877 0.0
C638 C 0.65109 0.59811 0.0473 0.0
C639 C 0.64651 0.54176 0.04603 0.0
C640 C 0.80577 0.58547 0.09303 0.0
C641 C 0.72788 0.58858 0.069 0.0
C642 C 0.85351 0.60886 0.10045 0.0
C643 C 0.87332 0.65779 0.09267 0.0
C644 C 0.77707 0.61216 0.07819 0.0
C645 C 0.84321 0.68272 0.07781 0.0
C646 C 0.69176 0.62164 0.05871 0.0
C647 C 0.68092 0.51022 0.05764 0.0
N648 N 0.79681 0.65983 0.07117 0.0
N649 N 0.72056 0.53399 0.0685 0.0
H650 H 0.62853 0.36658 0.29359 0.0
H651 H 0.66924 0.62781 0.36184 0.0
H652 H 0.78775 0.43211 0.30399 0.0
H653 H 0.53317 0.60163 0.32364 0.0
H654 H 0.71045 0.54399 0.34884 0.0
H655 H 0.58958 0.43851 0.31412 0.0
C656 C 0.6554 0.39476 0.30093 0.0
C657 C 0.71138 0.39306 0.29737 0.0
C658 C 0.67154 0.55685 0.34341 0.0
C659 C 0.66723 0.47628 0.32036 0.0
C660 C 0.64816 0.60459 0.35075 0.0
C661 C 0.59824 0.62233 0.34354 0.0
C662 C 0.64381 0.52596 0.32929 0.0
C663 C 0.57228 0.5903 0.32932 0.0
C664 C 0.63319 0.43627 0.31237 0.0
C665 C 0.74442 0.43167 0.30669 0.0
N666 N 0.59516 0.54374 0.32279 0.0
N667 N 0.72186 0.47206 0.31766 0.0
H668 H 0.77587 0.57119 0.53132 0.0
H669 H 0.67366 0.38694 0.62081 0.0
H670 H 0.87526 0.44697 0.5563 0.0
H671 H 0.56946 0.44707 0.57557 0.0
H672 H 0.75099 0.43298 0.60494 0.0
H673 H 0.70478 0.5505 0.55553 0.0
C674 C 0.7833 0.54044 0.54226 0.0
C675 C 0.83128 0.51012 0.54158 0.0
C676 C 0.71092 0.43729 0.59883 0.0
C677 C 0.74986 0.4864 0.56939 0.0
C678 C 0.6666 0.41176 0.60802 0.0
C679 C 0.61486 0.41374 0.59962 0.0
C680 C 0.70322 0.46586 0.58132 0.0
C681 C 0.60849 0.44489 0.58262 0.0
C682 C 0.74257 0.52854 0.55599 0.0
C683 C 0.83892 0.47122 0.55626 0.0
N684 N 0.65213 0.46958 0.57401 0.0
N685 N 0.79824 0.45989 0.56943 0.0
H686 H 0.84599 0.68776 0.79406 0.0
H687 H 0.89507 0.38582 0.81463 0.0
H688 H 0.92938 0.58567 0.75215 0.0
H689 H 0.93949 0.49684 0.86102 0.0
H690 H 0.8867 0.46182 0.79238 0.0
H691 H 0.86731 0.62307 0.82008 0.0
C692 C 0.87028 0.65276 0.79041 0.0
C693 C 0.88494 0.64144 0.7708 0.0
C694 C 0.8979 0.46942 0.80749 0.0
C695 C 0.90722 0.56708 0.80022 0.0
C696 C 0.90186 0.42618 0.82034 0.0
C697 C 0.91832 0.43477 0.83979 0.0
C698 C 0.90919 0.52184 0.81414 0.0
C699 C 0.92687 0.48835 0.84614 0.0
C700 C 0.88189 0.61576 0.80524 0.0
C701 C 0.91601 0.59523 0.76695 0.0
N702 N 0.92212 0.53016 0.83331 0.0
N703 N 0.92484 0.55897 0.78144 0.0
H704 H 0.28449 0.47819 0.02869 0.0
H705 H 0.17246 0.65459 0.11763 0.0
H706 H 0.38809 0.59909 0.05477 0.0
H707 H 0.08402 0.63292 0.06388 0.0
H708 H 0.25066 0.60854 0.10241 0.0
H709 H 0.21007 0.50744 0.05014 0.0
C710 C 0.292 0.51004 0.0393 0.0
C711 C 0.34235 0.53705 0.03964 0.0
C712 C 0.21373 0.61316 0.09415 0.0
C713 C 0.25737 0.56987 0.06446 0.0
C714 C 0.16901 0.63886 0.10282 0.0
C715 C 0.12159 0.64716 0.09199 0.0
C716 C 0.21025 0.59423 0.07477 0.0
C717 C 0.11967 0.62708 0.07273 0.0
C718 C 0.24943 0.52673 0.05144 0.0
C719 C 0.34995 0.57735 0.05396 0.0
N720 N 0.16325 0.60123 0.06477 0.0
N721 N 0.30759 0.59307 0.0657 0.0
H722 H 0.28299 0.60723 0.79718 0.0
H723 H 0.02978 0.42247 0.81888 0.0
H724 H 0.12023 0.65488 0.78347 0.0
H725 H 0.16943 0.41243 0.85632 0.0
H726 H 0.06585 0.50495 0.80472 0.0
H727 H 0.2463 0.53545 0.81854 0.0
C728 C 0.23949 0.6034 0.79911 0.0
C729 C 0.20448 0.63712 0.78864 0.0
C730 C 0.08879 0.48497 0.81603 0.0
C731 C 0.16241 0.55416 0.81247 0.0
C732 C 0.06852 0.43721 0.82405 0.0
C733 C 0.09699 0.40954 0.8387 0.0
C734 C 0.13883 0.50538 0.82223 0.0
C735 C 0.1464 0.43196 0.84495 0.0
C736 C 0.21865 0.56239 0.81123 0.0
C737 C 0.14855 0.63011 0.79142 0.0
N738 N 0.16625 0.47823 0.83645 0.0
N739 N 0.12926 0.58884 0.80277 0.0
H740 H 0.09532 0.47912 0.56002 0.0
H741 H 0.37676 0.32459 0.55958 0.0
H742 H 0.17617 0.41814 0.50812 0.0
H743 H 0.28522 0.34838 0.61333 0.0
H744 H 0.30102 0.35816 0.54102 0.0
H745 H 0.16003 0.42934 0.58043 0.0
C746 C 0.12596 0.45434 0.55298 0.0
C747 C 0.1311 0.45314 0.53242 0.0
C748 C 0.29705 0.35595 0.55686 0.0
C749 C 0.20505 0.39713 0.55543 0.0
C750 C 0.34064 0.3371 0.56753 0.0
C751 C 0.33766 0.33426 0.58809 0.0
C752 C 0.24989 0.37297 0.56673 0.0
C753 C 0.28926 0.35014 0.59748 0.0
C754 C 0.16294 0.42624 0.56458 0.0
C755 C 0.17143 0.42073 0.52394 0.0
N756 N 0.24733 0.36947 0.58673 0.0
N757 N 0.2071 0.39457 0.53545 0.0
H758 H 0.38111 0.45505 0.25656 0.0
H759 H 0.41536 0.54959 0.36395 0.0
H760 H 0.27827 0.37218 0.29873 0.0
H761 H 0.37653 0.66209 0.31779 0.0
H762 H 0.38304 0.4751 0.3429 0.0
H763 H 0.40313 0.52205 0.28153 0.0
C764 C 0.36309 0.45082 0.27107 0.0
C765 C 0.32651 0.40859 0.27535 0.0
C766 C 0.38088 0.51637 0.3377 0.0
C767 C 0.35329 0.4845 0.30415 0.0
C768 C 0.39923 0.55886 0.34963 0.0
C769 C 0.39929 0.61234 0.3426 0.0
C770 C 0.36388 0.52764 0.31858 0.0
C771 C 0.37778 0.62178 0.3239 0.0
C772 C 0.37591 0.48899 0.28529 0.0
C773 C 0.30639 0.40416 0.29474 0.0
N774 N 0.36209 0.5798 0.31242 0.0
N775 N 0.31996 0.44194 0.30852 0.0
H776 H 0.39797 0.44406 0.95927 0.0
H777 H 0.1883 0.39197 0.89581 0.0
H778 H 0.31928 0.59534 0.97202 0.0
H779 H 0.10014 0.48486 0.93898 0.0
H780 H 0.27306 0.43399 0.90685 0.0
H781 H 0.329 0.42462 0.93461 0.0
C782 C 0.36758 0.47424 0.95627 0.0
C783 C 0.36399 0.52102 0.96789 0.0
C784 C 0.23512 0.4461 0.91363 0.0
C785 C 0.2841 0.4987 0.94001 0.0
C786 C 0.1867 0.42292 0.9071 0.0
C787 C 0.1373 0.43561 0.91637 0.0
C788 C 0.234 0.48194 0.92966 0.0
C789 C 0.13736 0.47474 0.93128 0.0
C790 C 0.32788 0.46305 0.94224 0.0
C791 C 0.32305 0.55836 0.96357 0.0
N792 N 0.1851 0.49623 0.93759 0.0
N793 N 0.28381 0.54567 0.95045 0.0
H794 H 0.38125 0.66822 0.73154 0.0
H795 H 0.33626 0.42213 0.65611 0.0
H796 H 0.22373 0.61135 0.71394 0.0
H797 H 0.48082 0.44684 0.69005 0.0
H798 H 0.29962 0.50697 0.66973 0.0
H799 H 0.42318 0.60302 0.70875 0.0
C800 C 0.35564 0.64299 0.72244 0.0
C801 C 0.29918 0.64496 0.72448 0.0
C802 C 0.33975 0.49417 0.67389 0.0
C803 C 0.34636 0.57014 0.69869 0.0
C804 C 0.36071 0.44606 0.66604 0.0
C805 C 0.41126 0.42735 0.67216 0.0
C806 C 0.37006 0.52388 0.68767 0.0
C807 C 0.44131 0.45961 0.68516 0.0
C808 C 0.37941 0.60559 0.70957 0.0
C809 C 0.26751 0.61093 0.71265 0.0
N810 N 0.42018 0.50605 0.69255 0.0
N811 N 0.2915 0.57459 0.70035 0.0
H812 H 0.11763 0.54802 0.45347 0.0
H813 H 0.39583 0.71388 0.46027 0.0
H814 H 0.16733 0.63986 0.50406 0.0
H815 H 0.34006 0.64586 0.40561 0.0
H816 H 0.30915 0.69065 0.47558 0.0
H817 H 0.19352 0.58811 0.4345 0.0
C818 C 0.14335 0.57808 0.46035 0.0
C819 C 0.1359 0.59113 0.48029 0.0
C820 C 0.3155 0.68089 0.46021 0.0
C821 C 0.22379 0.63562 0.459 0.0
C822 C 0.36534 0.69392 0.45145 0.0
C823 C 0.3758 0.68123 0.43164 0.0
C824 C 0.27538 0.65419 0.44926 0.0
C825 C 0.33401 0.65618 0.42095 0.0
C826 C 0.18705 0.60046 0.44962 0.0
C827 C 0.17134 0.62912 0.48868 0.0
N828 N 0.28592 0.64291 0.42994 0.0
N829 N 0.21387 0.64944 0.4781 0.0
H830 H 0.18984 0.35203 0.20368 0.0
H831 H 0.22029 0.65546 0.16725 0.0
H832 H 0.34093 0.44041 0.20485 0.0
H833 H 0.07309 0.56076 0.16544 0.0
H834 H 0.27108 0.57208 0.17399 0.0
H835 H 0.15316 0.42045 0.18179 0.0
C836 C 0.21596 0.38478 0.19874 0.0
C837 C 0.26803 0.39117 0.20641 0.0
C838 C 0.22777 0.56954 0.17175 0.0
C839 C 0.22579 0.47101 0.18202 0.0
C840 C 0.19895 0.61709 0.16789 0.0
C841 C 0.14241 0.61501 0.16633 0.0
C842 C 0.19958 0.52001 0.17389 0.0
C843 C 0.11658 0.56428 0.16711 0.0
C844 C 0.19483 0.4244 0.18644 0.0
C845 C 0.30007 0.43466 0.19955 0.0
N846 N 0.14515 0.5191 0.17106 0.0
N847 N 0.27802 0.47371 0.18818 0.0
loop_
_geom_bond_atom_site_label_1
_geom_bond_atom_site_label_2
_geom_bond_distance
_geom_bond_site_symmetry_2
_ccdc_geom_bond_type
H0 C6 0.930 . S
H1 C9 0.931 . S
H2 C11 0.931 . S
H3 C13 0.930 . S
H4 C15 0.930 . S
H5 C17 0.931 . S
C6 H0 0.930 . S
C6 C7 1.380 1_545 S
C6 C8 1.394 . S
C7 C6 1.380 1_565 S
C7 C11 1.382 . S
C8 C6 1.394 . S
C8 C9 1.400 . S
C9 H1 0.931 . S
C9 C8 1.400 . S
C9 C10 1.375 . S
C10 C9 1.375 . S
C10 C11 1.415 1_545 S
C10 C12 1.501 1_655 S
C11 H2 0.931 . S
C11 C7 1.382 . S
C11 C10 1.415 1_565 S
C12 C10 1.501 1_455 S
C12 C13 1.384 1_545 S
C12 C17 1.408 . S
C13 H3 0.930 . S
C13 C12 1.384 1_565 S
C13 C14 1.389 . S
C14 C13 1.389 . S
C14 C15 1.405 1_565 S
C15 H4 0.930 . S
C15 C14 1.405 1_545 S
C15 C16 1.364 . S
C16 C15 1.364 . S
C16 C17 1.400 . S
C17 H5 0.931 . S
C17 C12 1.408 . S
C17 C16 1.400 . S
H18 C24 0.930 . S
H19 C27 0.931 . S
H20 C29 0.931 . S
H21 C31 0.930 . S
H22 C33 0.930 . S
H23 C35 0.931 . S
C24 H18 0.930 . S
C24 C25 1.380 . S
C24 C26 1.394 . S
C25 C24 1.380 . S
C25 C29 1.382 . S
C26 C24 1.394 . S
C26 C27 1.400 . S
C27 H19 0.931 . S
C27 C26 1.400 . S
C27 C28 1.375 . S
C28 C27 1.375 . S
C28 C29 1.415 . S
C28 C30 1.501 . S
C29 H20 0.931 . S
C29 C25 1.382 . S
C29 C28 1.415 . S
C30 C28 1.501 . S
C30 C31 1.384 . S
C30 C35 1.408 . S
C31 H21 0.930 . S
C31 C30 1.384 . S
C31 C32 1.389 . S
C32 C31 1.389 . S
C32 C33 1.405 . S
C33 H22 0.930 . S
C33 C32 1.405 . S
C33 C34 1.364 . S
C34 C33 1.364 . S
C34 C35 1.400 . S
C35 H23 0.931 . S
C35 C30 1.408 . S
C35 C34 1.400 . S
H36 C42 0.930 . S
H37 C45 0.931 . S
H38 C47 0.931 . S
H39 C49 0.930 . S
H40 C51 0.930 . S
H41 C53 0.931 . S
C42 H36 0.930 . S
C42 C43 1.375 1_564 S
C42 C44 1.399 . S
C43 C42 1.375 1_546 S
C43 C47 1.382 . S
C44 C42 1.399 . S
C44 C45 1.400 . S
C45 H37 0.931 . S
C45 C44 1.400 . S
C45 C46 1.375 1_565 S
C46 C45 1.375 1_545 S
C46 C47 1.415 1_554 S
C46 C48 1.501 . S
C47 H38 0.931 . S
C47 C43 1.382 . S
C47 C46 1.415 1_556 S
C48 C46 1.501 . S
C48 C49 1.384 1_554 S
C48 C53 1.408 1_545 S
C49 H39 0.930 . S
C49 C48 1.384 1_556 S
C49 C50 1.389 . S
C50 C49 1.389 . S
C50 C51 1.405 1_556 S
C51 H40 0.930 . S
C51 C50 1.405 1_554 S
C51 C52 1.364 1_545 S
C52 C51 1.364 1_565 S
C52 C53 1.400 . S
C53 H41 0.931 . S
C53 C48 1.408 1_565 S
C53 C52 1.400 . S
H54 C60 0.930 . S
H55 C63 0.931 . S
H56 C65 0.931 . S
H57 C67 0.930 . S
H58 C69 0.930 . S
H59 C71 0.931 . S
C60 H54 0.930 . S
C60 C61 1.380 . S
C60 C62 1.394 . S
C61 C60 1.380 . S
C61 C65 1.382 . S
C62 C60 1.394 . S
C62 C63 1.400 . S
C63 H55 0.931 . S
C63 C62 1.400 . S
C63 C64 1.375 . S
C64 C63 1.375 . S
C64 C65 1.415 . S
C64 C66 1.501 . S
C65 H56 0.931 . S
C65 C61 1.382 . S
C65 C64 1.415 . S
C66 C64 1.501 . S
C66 C67 1.384 . S
C66 C71 1.408 . S
C67 H57 0.930 . S
C67 C66 1.384 . S
C67 C68 1.389 . S
C68 C67 1.389 . S
C68 C69 1.405 . S
C69 H58 0.930 . S
C69 C68 1.405 . S
C69 C70 1.364 . S
C70 C69 1.364 . S
C70 C71 1.400 . S
C71 H59 0.931 . S
C71 C66 1.408 . S
C71 C70 1.400 . S
H72 C78 0.930 . S
H73 C81 0.931 . S
H74 C83 0.931 . S
H75 C85 0.930 . S
H76 C87 0.930 . S
H77 C89 0.931 . S
C78 H72 0.930 . S
C78 C79 1.380 . S
C78 C80 1.394 . S
C79 C78 1.380 . S
C79 C83 1.382 . S
C80 C78 1.394 . S
C80 C81 1.400 . S
C81 H73 0.931 . S
C81 C80 1.400 . S
C81 C82 1.375 . S
C82 C81 1.375 . S
C82 C83 1.415 . S
C82 C84 1.501 . S
C83 H74 0.931 . S
C83 C79 1.382 . S
C83 C82 1.415 . S
C84 C82 1.501 . S
C84 C85 1.384 . S
C84 C89 1.408 . S
C85 H75 0.930 . S
C85 C84 1.384 . S
C85 C86 1.389 . S
C86 C85 1.389 . S
C86 C87 1.405 . S
C87 H76 0.930 . S
C87 C86 1.405 . S
C87 C88 1.364 . S
C88 C87 1.364 . S
C88 C89 1.400 . S
C89 H77 0.931 . S
C89 C84 1.408 . S
C89 C88 1.400 . S
H90 C96 0.930 . S
H91 C99 0.931 . S
H92 C101 0.931 . S
H93 C103 0.930 . S
H94 C105 0.930 . S
H95 C107 0.931 . S
C96 H90 0.930 . S
C96 C97 1.380 . S
C96 C98 1.394 . S
C97 C96 1.380 . S
C97 C101 1.382 . S
C98 C96 1.394 . S
C98 C99 1.400 . S
C99 H91 0.931 . S
C99 C98 1.400 . S
C99 C100 1.375 . S
C100 C99 1.375 . S
C100 C101 1.415 . S
C100 C102 1.501 . S
C101 H92 0.931 . S
C101 C97 1.382 . S
C101 C100 1.415 . S
C102 C100 1.501 . S
C102 C103 1.384 . S
C102 C107 1.408 . S
C103 H93 0.930 . S
C103 C102 1.384 . S
C103 C104 1.389 . S
C104 C103 1.389 . S
C104 C105 1.405 . S
C105 H94 0.930 . S
C105 C104 1.405 . S
C105 C106 1.364 . S
C106 C105 1.364 . S
C106 C107 1.400 . S
C107 H95 0.931 . S
C107 C102 1.408 . S
C107 C106 1.400 . S
H108 C114 0.930 . S
H109 C117 0.931 . S
H110 C119 0.931 . S
H111 C121 0.930 . S
H112 C123 0.930 . S
H113 C125 0.931 . S
C114 H108 0.930 . S
C114 C115 1.380 . S
C114 C116 1.394 1_554 S
C115 C114 1.380 . S
C115 C119 1.382 . S
C116 C114 1.394 1_556 S
C116 C117 1.400 . S
C117 H109 0.931 . S
C117 C116 1.400 . S
C117 C118 1.375 1_556 S
C118 C117 1.375 1_554 S
C118 C119 1.415 . S
C118 C120 1.501 . S
C119 H110 0.931 . S
C119 C115 1.382 . S
C119 C118 1.415 . S
C120 C118 1.501 . S
C120 C121 1.384 . S
C120 C125 1.408 1_554 S
C121 H111 0.930 . S
C121 C120 1.384 . S
C121 C122 1.389 . S
C122 C121 1.389 . S
C122 C123 1.405 . S
C123 H112 0.930 . S
C123 C122 1.405 . S
C123 C124 1.364 1_554 S
C124 C123 1.364 1_556 S
C124 C125 1.400 . S
C125 H113 0.931 . S
C125 C120 1.408 1_556 S
C125 C124 1.400 . S
H126 C132 0.930 . S
H127 C135 0.931 . S
H128 C137 0.931 . S
H129 C139 0.930 . S
H130 C141 0.930 . S
H131 C143 0.931 . S
C132 H126 0.930 . S
C132 C133 1.380 . S
C132 C134 1.394 . S
C133 C132 1.380 . S
C133 C137 1.382 . S
C134 C132 1.394 . S
C134 C135 1.400 . S
C135 H127 0.931 . S
C135 C134 1.400 . S
C135 C136 1.375 . S
C136 C135 1.375 . S
C136 C137 1.415 . S
C136 C138 1.501 1_455 S
C137 H128 0.931 . S
C137 C133 1.382 . S
C137 C136 1.415 . S
C138 C136 1.501 1_655 S
C138 C139 1.384 . S
C138 C143 1.408 . S
C139 H129 0.930 . S
C139 C138 1.384 . S
C139 C140 1.389 . S
C140 C139 1.389 . S
C140 C141 1.405 . S
C141 H130 0.930 . S
C141 C140 1.405 . S
C141 C142 1.364 . S
C142 C141 1.364 . S
C142 C143 1.400 . S
C143 H131 0.931 . S
C143 C138 1.408 . S
C143 C142 1.400 . S
Fe144 O145 1.886 . S
Fe144 O148 1.715 1_455 S
Fe144 O153 2.077 . S
Fe144 O158 1.935 1_455 S
Fe144 O164 2.077 . S
Fe144 O173 1.935 1_455 S
O145 Fe144 1.886 . S
O145 Fe147 1.715 . S
Fe146 O148 1.886 . S
Fe146 O149 1.715 . S
Fe146 O156 1.935 . S
Fe146 O157 2.077 . S
Fe146 O163 1.935 . S
Fe146 O172 2.077 . S
Fe147 O145 1.715 . S
Fe147 O150 1.886 . S
Fe147 O154 1.935 . S
Fe147 O159 2.077 . S
Fe147 O165 1.935 . S
Fe147 O169 2.077 . S
O148 Fe144 1.715 1_655 S
O148 Fe146 1.886 . S
O149 Fe146 1.715 . S
O149 Fe151 1.886 . S
O150 Fe147 1.886 . S
O150 Fe151 1.715 1_455 S
Fe151 O149 1.886 . S
Fe151 O150 1.715 1_655 S
Fe151 O155 2.077 . S
Fe151 O160 1.935 1_655 S
Fe151 O162 2.077 . S
Fe151 O170 1.935 1_655 S
C152 O164 1.381 . S
C152 O165 1.421 . S
O153 Fe144 2.077 . S
O153 C166 1.381 . S
O154 Fe147 1.935 . S
O154 C166 1.421 . S
O155 Fe151 2.077 . S
O155 C171 1.381 . S
O156 Fe146 1.935 . S
O156 C171 1.421 . S
O157 Fe146 2.077 . S
O157 C161 1.381 . S
O158 Fe144 1.935 1_655 S
O158 C161 1.421 . S
O159 Fe147 2.077 . S
O159 C167 1.381 . S
O160 Fe151 1.935 1_455 S
O160 C167 1.421 . S
C161 O157 1.381 . S
C161 O158 1.421 . S
O162 Fe151 2.077 . S
O162 C174 1.381 . S
O163 Fe146 1.935 . S
O163 C174 1.421 . S
O164 Fe144 2.077 . S
O164 C152 1.381 . S
O165 Fe147 1.935 . S
O165 C152 1.421 . S
C166 O153 1.381 . S
C166 O154 1.421 . S
C167 O159 1.381 . S
C167 O160 1.421 . S
C168 O169 1.381 . S
C168 O170 1.421 . S
O169 Fe147 2.077 . S
O169 C168 1.381 . S
O170 Fe151 1.935 1_455 S
O170 C168 1.421 . S
C171 O155 1.381 . S
C171 O156 1.421 . S
O172 Fe146 2.077 . S
O172 C175 1.381 . S
O173 Fe144 1.935 1_655 S
O173 C175 1.421 . S
C174 O162 1.381 . S
C174 O163 1.421 . S
C175 O172 1.381 . S
C175 O173 1.421 . S
Fe176 O177 1.886 . S
Fe176 O180 1.715 . S
Fe176 O185 2.077 . S
Fe176 O190 1.935 . S
Fe176 O196 2.077 . S
Fe176 O205 1.935 . S
O177 Fe176 1.886 . S
O177 Fe179 1.715 . S
Fe178 O180 1.886 . S
Fe178 O181 1.715 . S
Fe178 O188 1.935 . S
Fe178 O189 2.077 . S
Fe178 O195 1.935 . S
Fe178 O204 2.077 . S
Fe179 O177 1.715 . S
Fe179 O182 1.886 . S
Fe179 O186 1.935 . S
Fe179 O191 2.077 . S
Fe179 O197 1.935 . S
Fe179 O201 2.077 . S
O180 Fe176 1.715 . S
O180 Fe178 1.886 . S
O181 Fe178 1.715 . S
O181 Fe183 1.886 . S
O182 Fe179 1.886 . S
O182 Fe183 1.715 . S
Fe183 O181 1.886 . S
Fe183 O182 1.715 . S
Fe183 O187 2.077 . S
Fe183 O192 1.935 . S
Fe183 O194 2.077 . S
Fe183 O202 1.935 . S
C184 O196 1.381 . S
C184 O197 1.421 . S
O185 Fe176 2.077 . S
O185 C198 1.381 . S
O186 Fe179 1.935 . S
O186 C198 1.421 . S
O187 Fe183 2.077 . S
O187 C203 1.381 . S
O188 Fe178 1.935 . S
O188 C203 1.421 . S
O189 Fe178 2.077 . S
O189 C193 1.381 . S
O190 Fe176 1.935 . S
O190 C193 1.421 . S
O191 Fe179 2.077 . S
O191 C199 1.381 . S
O192 Fe183 1.935 . S
O192 C199 1.421 . S
C193 O189 1.381 . S
C193 O190 1.421 . S
O194 Fe183 2.077 . S
O194 C206 1.381 . S
O195 Fe178 1.935 . S
O195 C206 1.421 . S
O196 Fe176 2.077 . S
O196 C184 1.381 . S
O197 Fe179 1.935 . S
O197 C184 1.421 . S
C198 O185 1.381 . S
C198 O186 1.421 . S
C199 O191 1.381 . S
C199 O192 1.421 . S
C200 O201 1.381 . S
C200 O202 1.421 . S
O201 Fe179 2.077 . S
O201 C200 1.381 . S
O202 Fe183 1.935 . S
O202 C200 1.421 . S
C203 O187 1.381 . S
C203 O188 1.421 . S
O204 Fe178 2.077 . S
O204 C207 1.381 . S
O205 Fe176 1.935 . S
O205 C207 1.421 . S
C206 O194 1.381 . S
C206 O195 1.421 . S
C207 O204 1.381 . S
C207 O205 1.421 . S
Fe208 O209 1.886 . S
Fe208 O212 1.715 . S
Fe208 O217 2.077 . S
Fe208 O222 1.935 . S
Fe208 O228 2.077 . S
Fe208 O237 1.935 . S
O209 Fe208 1.886 . S
O209 Fe211 1.715 . S
Fe210 O212 1.886 . S
Fe210 O213 1.715 . S
Fe210 O220 1.935 . S
Fe210 O221 2.077 . S
Fe210 O227 1.935 . S
Fe210 O236 2.077 . S
Fe211 O209 1.715 . S
Fe211 O214 1.886 . S
Fe211 O218 1.935 . S
Fe211 O223 2.077 . S
Fe211 O229 1.935 . S
Fe211 O233 2.077 . S
O212 Fe208 1.715 . S
O212 Fe210 1.886 . S
O213 Fe210 1.715 . S
O213 Fe215 1.886 . S
O214 Fe211 1.886 . S
O214 Fe215 1.715 . S
Fe215 O213 1.886 . S
Fe215 O214 1.715 . S
Fe215 O219 2.077 . S
Fe215 O224 1.935 . S
Fe215 O226 2.077 . S
Fe215 O234 1.935 . S
C216 O228 1.381 . S
C216 O229 1.421 . S
O217 Fe208 2.077 . S
O217 C230 1.381 . S
O218 Fe211 1.935 . S
O218 C230 1.421 . S
O219 Fe215 2.077 . S
O219 C235 1.381 . S
O220 Fe210 1.935 . S
O220 C235 1.421 . S
O221 Fe210 2.077 . S
O221 C225 1.381 . S
O222 Fe208 1.935 . S
O222 C225 1.421 . S
O223 Fe211 2.077 . S
O223 C231 1.381 . S
O224 Fe215 1.935 . S
O224 C231 1.421 . S
C225 O221 1.381 . S
C225 O222 1.421 . S
O226 Fe215 2.077 . S
O226 C238 1.381 . S
O227 Fe210 1.935 . S
O227 C238 1.421 . S
O228 Fe208 2.077 . S
O228 C216 1.381 . S
O229 Fe211 1.935 . S
O229 C216 1.421 . S
C230 O217 1.381 . S
C230 O218 1.421 . S
C231 O223 1.381 . S
C231 O224 1.421 . S
C232 O233 1.381 . S
C232 O234 1.421 . S
O233 Fe211 2.077 . S
O233 C232 1.381 . S
O234 Fe215 1.935 . S
O234 C232 1.421 . S
C235 O219 1.381 . S
C235 O220 1.421 . S
O236 Fe210 2.077 . S
O236 C239 1.381 . S
O237 Fe208 1.935 . S
O237 C239 1.421 . S
C238 O226 1.381 . S
C238 O227 1.421 . S
C239 O236 1.381 . S
C239 O237 1.421 . S
Fe240 O241 1.886 . S
Fe240 O244 1.715 . S
Fe240 O249 2.077 1_455 S
Fe240 O254 1.935 1_455 S
Fe240 O260 2.077 . S
Fe240 O269 1.935 . S
O241 Fe240 1.886 . S
O241 Fe243 1.715 . S
Fe242 O244 1.886 . S
Fe242 O245 1.715 . S
Fe242 O252 1.935 1_455 S
Fe242 O253 2.077 1_455 S
Fe242 O259 1.936 . S
Fe242 O268 2.078 . S
Fe243 O241 1.715 . S
Fe243 O246 1.886 . S
Fe243 O250 1.936 1_455 S
Fe243 O255 2.078 1_455 S
Fe243 O261 1.935 . S
Fe243 O265 2.077 . S
O244 Fe240 1.715 . S
O244 Fe242 1.886 . S
O245 Fe242 1.715 . S
O245 Fe247 1.886 . S
O246 Fe243 1.886 . S
O246 Fe247 1.715 . S
Fe247 O245 1.886 . S
Fe247 O246 1.715 . S
Fe247 O251 2.077 1_455 S
Fe247 O256 1.935 1_455 S
Fe247 O258 2.077 . S
Fe247 O266 1.935 . S
C248 O260 1.381 . S
C248 O261 1.421 . S
O249 Fe240 2.077 1_655 S
O249 C262 1.381 . S
O250 Fe243 1.936 1_655 S
O250 C262 1.421 . S
O251 Fe247 2.077 1_655 S
O251 C267 1.381 . S
O252 Fe242 1.935 1_655 S
O252 C267 1.421 . S
O253 Fe242 2.077 1_655 S
O253 C257 1.381 . S
O254 Fe240 1.935 1_655 S
O254 C257 1.421 . S
O255 Fe243 2.078 1_655 S
O255 C263 1.381 . S
O256 Fe247 1.935 1_655 S
O256 C263 1.421 . S
C257 O253 1.381 . S
C257 O254 1.421 . S
O258 Fe247 2.077 . S
O258 C270 1.381 . S
O259 Fe242 1.936 . S
O259 C270 1.421 . S
O260 Fe240 2.077 . S
O260 C248 1.381 . S
O261 Fe243 1.935 . S
O261 C248 1.421 . S
C262 O249 1.381 . S
C262 O250 1.421 . S
C263 O255 1.381 . S
C263 O256 1.421 . S
C264 O265 1.381 . S
C264 O266 1.421 . S
O265 Fe243 2.077 . S
O265 C264 1.381 . S
O266 Fe247 1.935 . S
O266 C264 1.421 . S
C267 O251 1.381 . S
C267 O252 1.421 . S
O268 Fe242 2.078 . S
O268 C271 1.381 . S
O269 Fe240 1.935 . S
O269 C271 1.421 . S
C270 O258 1.381 . S
C270 O259 1.421 . S
C271 O268 1.381 . S
C271 O269 1.421 . S
H272 C278 0.930 1_545 S
H273 C282 0.930 . S
H274 C287 0.929 . S
H275 C285 0.929 . S
H276 C280 0.929 . S
H277 C286 0.929 . S
C278 H272 0.930 1_565 S
C278 C279 1.367 . S
C278 C286 1.378 . S
C279 C278 1.367 . S
C279 C287 1.433 . S
C280 H276 0.929 . S
C280 C282 1.378 . S
C280 C284 1.350 . S
C281 C284 1.463 . S
C281 C286 1.350 . S
C281 N289 1.427 . S
C282 H273 0.930 . S
C282 C280 1.378 . S
C282 C283 1.367 . S
C283 C282 1.367 . S
C283 C285 1.433 . S
C284 C280 1.350 . S
C284 C281 1.463 . S
C284 N288 1.427 . S
C285 H275 0.929 . S
C285 C283 1.433 . S
C285 N288 1.384 . S
C286 H277 0.929 . S
C286 C278 1.378 . S
C286 C281 1.350 . S
C287 H274 0.929 . S
C287 C279 1.433 . S
C287 N289 1.384 . S
N288 C284 1.427 . S
N288 C285 1.384 . S
N289 C281 1.427 . S
N289 C287 1.384 . S
H290 C296 0.930 . S
H291 C300 0.930 . S
H292 C305 0.929 . S
H293 C303 0.929 . S
H294 C298 0.929 . S
H295 C304 0.929 . S
C296 H290 0.930 . S
C296 C297 1.367 . S
C296 C304 1.378 . S
C297 C296 1.367 . S
C297 C305 1.433 . S
C298 H294 0.929 . S
C298 C300 1.378 . S
C298 C302 1.350 . S
C299 C302 1.463 1_565 S
C299 C304 1.350 . S
C299 N307 1.427 . S
C300 H291 0.930 . S
C300 C298 1.378 . S
C300 C301 1.367 . S
C301 C300 1.367 . S
C301 C303 1.433 . S
C302 C298 1.350 . S
C302 C299 1.463 1_545 S
C302 N306 1.427 . S
C303 H293 0.929 . S
C303 C301 1.433 . S
C303 N306 1.384 . S
C304 H295 0.929 . S
C304 C296 1.378 . S
C304 C299 1.350 . S
C305 H292 0.929 . S
C305 C297 1.433 . S
C305 N307 1.384 . S
N306 C302 1.427 . S
N306 C303 1.384 . S
N307 C299 1.427 . S
N307 C305 1.384 . S
H308 C314 0.930 . S
H309 C318 0.930 . S
H310 C323 0.929 1_565 S
H311 C321 0.929 . S
H312 C316 0.929 . S
H313 C322 0.929 . S
C314 H308 0.930 . S
C314 C315 1.367 . S
C314 C322 1.378 . S
C315 C314 1.367 . S
C315 C323 1.433 . S
C316 H312 0.929 . S
C316 C318 1.378 . S
C316 C320 1.350 . S
C317 C320 1.463 . S
C317 C322 1.350 . S
C317 N325 1.427 . S
C318 H309 0.930 . S
C318 C316 1.378 . S
C318 C319 1.367 . S
C319 C318 1.367 . S
C319 C321 1.433 . S
C320 C316 1.350 . S
C320 C317 1.463 . S
C320 N324 1.427 . S
C321 H311 0.929 . S
C321 C319 1.433 . S
C321 N324 1.384 . S
C322 H313 0.929 . S
C322 C314 1.378 . S
C322 C317 1.350 . S
C323 H310 0.929 1_545 S
C323 C315 1.433 . S
C323 N325 1.384 . S
N324 C320 1.427 . S
N324 C321 1.384 . S
N325 C317 1.427 . S
N325 C323 1.384 . S
H326 C332 0.930 . S
H327 C336 0.930 . S
H328 C341 0.929 . S
H329 C339 0.929 . S
H330 C334 0.929 1_545 S
H331 C340 0.929 1_565 S
C332 H326 0.930 . S
C332 C333 1.367 . S
C332 C340 1.378 . S
C333 C332 1.367 . S
C333 C341 1.433 . S
C334 H330 0.929 1_565 S
C334 C336 1.378 . S
C334 C338 1.350 . S
C335 C338 1.463 1_545 S
C335 C340 1.350 . S
C335 N343 1.427 . S
C336 H327 0.930 . S
C336 C334 1.378 . S
C336 C337 1.367 . S
C337 C336 1.367 . S
C337 C339 1.433 . S
C338 C334 1.350 . S
C338 C335 1.463 1_565 S
C338 N342 1.427 . S
C339 H329 0.929 . S
C339 C337 1.433 . S
C339 N342 1.384 . S
C340 H331 0.929 1_545 S
C340 C332 1.378 . S
C340 C335 1.350 . S
C341 H328 0.929 . S
C341 C333 1.433 . S
C341 N343 1.384 . S
N342 C338 1.427 . S
N342 C339 1.384 . S
N343 C335 1.427 . S
N343 C341 1.384 . S
H344 C350 0.930 . S
H345 C354 0.930 . S
H346 C359 0.938 . S
H347 C357 0.929 . S
H348 C352 0.929 . S
H349 C358 0.929 . S
C350 H344 0.930 . S
C350 C351 1.367 . S
C350 C358 1.378 . S
C351 C350 1.367 . S
C351 C359 1.433 . S
C352 H348 0.929 . S
C352 C354 1.378 . S
C352 C356 1.350 . S
C353 C356 1.463 . S
C353 C358 1.350 . S
C353 N361 1.427 . S
C354 H345 0.930 . S
C354 C352 1.378 . S
C354 C355 1.367 . S
C355 C354 1.367 . S
C355 C357 1.433 . S
C356 C352 1.350 . S
C356 C353 1.463 . S
C356 N360 1.427 . S
C357 H347 0.929 . S
C357 C355 1.433 . S
C357 N360 1.384 . S
C358 H349 0.929 . S
C358 C350 1.378 . S
C358 C353 1.350 . S
C359 H346 0.938 . S
C359 C351 1.433 . S
C359 N361 1.384 . S
N360 C356 1.427 . S
N360 C357 1.384 . S
N361 C353 1.427 . S
N361 C359 1.384 . S
H362 C368 0.930 . S
H363 C372 0.930 . S
H364 C377 0.929 . S
H365 C375 0.929 . S
H366 C370 0.929 . S
H367 C376 0.929 . S
C368 H362 0.930 . S
C368 C369 1.367 . S
C368 C376 1.378 1_565 S
C369 C368 1.367 . S
C369 C377 1.433 . S
C370 H366 0.929 . S
C370 C372 1.378 . S
C370 C374 1.350 . S
C371 C374 1.463 1_565 S
C371 C376 1.350 1_565 S
C371 N379 1.427 . S
C372 H363 0.930 . S
C372 C370 1.378 . S
C372 C373 1.367 . S
C373 C372 1.367 . S
C373 C375 1.433 . S
C374 C370 1.350 . S
C374 C371 1.463 1_545 S
C374 N378 1.427 . S
C375 H365 0.929 . S
C375 C373 1.433 . S
C375 N378 1.384 . S
C376 H367 0.929 . S
C376 C368 1.378 1_545 S
C376 C371 1.350 1_545 S
C377 H364 0.929 . S
C377 C369 1.433 . S
C377 N379 1.384 . S
N378 C374 1.427 . S
N378 C375 1.384 . S
N379 C371 1.427 . S
N379 C377 1.384 . S
H380 C386 0.930 1_545 S
H381 C390 0.930 . S
H382 C395 0.929 . S
H383 C393 0.929 . S
H384 C388 0.929 . S
H385 C394 0.929 . S
C386 H380 0.930 1_565 S
C386 C387 1.367 . S
C386 C394 1.378 . S
C387 C386 1.367 . S
C387 C395 1.433 . S
C388 H384 0.929 . S
C388 C390 1.378 . S
C388 C392 1.350 . S
C389 C392 1.463 . S
C389 C394 1.350 . S
C389 N397 1.427 . S
C390 H381 0.930 . S
C390 C388 1.378 . S
C390 C391 1.367 . S
C391 C390 1.367 . S
C391 C393 1.433 . S
C392 C388 1.350 . S
C392 C389 1.463 . S
C392 N396 1.427 . S
C393 H383 0.929 . S
C393 C391 1.433 . S
C393 N396 1.384 . S
C394 H385 0.929 . S
C394 C386 1.378 . S
C394 C389 1.350 . S
C395 H382 0.929 . S
C395 C387 1.433 . S
C395 N397 1.384 . S
N396 C392 1.427 . S
N396 C393 1.384 . S
N397 C389 1.427 . S
N397 C395 1.384 . S
H398 C404 0.930 . S
H399 C408 0.930 . S
H400 C413 0.929 . S
H401 C411 0.929 . S
H402 C406 0.929 . S
H403 C412 0.929 . S
C404 H398 0.930 . S
C404 C405 1.367 . S
C404 C412 1.378 . S
C405 C404 1.367 . S
C405 C413 1.433 . S
C406 H402 0.929 . S
C406 C408 1.378 . S
C406 C410 1.350 . S
C407 C410 1.463 1_545 S
C407 C412 1.350 . S
C407 N415 1.427 . S
C408 H399 0.930 . S
C408 C406 1.378 . S
C408 C409 1.367 . S
C409 C408 1.367 . S
C409 C411 1.433 . S
C410 C406 1.350 . S
C410 C407 1.463 1_565 S
C410 N414 1.427 . S
C411 H401 0.929 . S
C411 C409 1.433 . S
C411 N414 1.384 . S
C412 H403 0.929 . S
C412 C404 1.378 . S
C412 C407 1.350 . S
C413 H400 0.929 . S
C413 C405 1.433 . S
C413 N415 1.384 . S
N414 C410 1.427 . S
N414 C411 1.384 . S
N415 C407 1.427 . S
N415 C413 1.384 . S
H416 C422 0.930 . S
H417 C426 0.930 . S
H418 C431 0.929 1_565 S
H419 C429 0.929 . S
H420 C424 0.929 . S
H421 C430 0.929 . S
C422 H416 0.930 . S
C422 C423 1.367 . S
C422 C430 1.378 . S
C423 C422 1.367 . S
C423 C431 1.433 . S
C424 H420 0.929 . S
C424 C426 1.378 . S
C424 C428 1.350 . S
C425 C428 1.463 . S
C425 C430 1.350 . S
C425 N433 1.427 . S
C426 H417 0.930 . S
C426 C424 1.378 . S
C426 C427 1.367 . S
C427 C426 1.367 . S
C427 C429 1.433 . S
C428 C424 1.350 . S
C428 C425 1.463 . S
C428 N432 1.427 . S
C429 H419 0.929 . S
C429 C427 1.433 . S
C429 N432 1.384 . S
C430 H421 0.929 . S
C430 C422 1.378 . S
C430 C425 1.350 . S
C431 H418 0.929 1_545 S
C431 C423 1.433 . S
C431 N433 1.384 . S
N432 C428 1.427 . S
N432 C429 1.384 . S
N433 C425 1.427 . S
N433 C431 1.384 . S
H434 C440 0.930 . S
H435 C444 0.930 . S
H436 C449 0.929 . S
H437 C447 0.929 . S
H438 C442 0.929 1_545 S
H439 C448 0.929 1_565 S
C440 H434 0.930 . S
C440 C441 1.367 . S
C440 C448 1.378 . S
C441 C440 1.367 . S
C441 C449 1.433 . S
C442 H438 0.929 1_565 S
C442 C444 1.378 . S
C442 C446 1.350 . S
C443 C446 1.463 1_545 S
C443 C448 1.350 . S
C443 N451 1.427 . S
C444 H435 0.930 . S
C444 C442 1.378 . S
C444 C445 1.367 . S
C445 C444 1.367 . S
C445 C447 1.433 . S
C446 C442 1.350 . S
C446 C443 1.463 1_565 S
C446 N450 1.427 . S
C447 H437 0.929 . S
C447 C445 1.433 . S
C447 N450 1.384 . S
C448 H439 0.929 1_545 S
C448 C440 1.378 . S
C448 C443 1.350 . S
C449 H436 0.929 . S
C449 C441 1.433 . S
C449 N451 1.384 . S
N450 C446 1.427 . S
N450 C447 1.384 . S
N451 C443 1.427 . S
N451 C449 1.384 . S
H452 C458 0.930 1_545 S
H453 C462 0.930 . S
H454 C467 0.929 . S
H455 C465 0.929 . S
H456 C460 0.929 . S
H457 C466 0.929 . S
C458 H452 0.930 1_565 S
C458 C459 1.367 . S
C458 C466 1.378 . S
C459 C458 1.367 . S
C459 C467 1.433 . S
C460 H456 0.929 . S
C460 C462 1.378 . S
C460 C464 1.350 . S
C461 C464 1.463 . S
C461 C466 1.350 . S
C461 N469 1.427 . S
C462 H453 0.930 . S
C462 C460 1.378 . S
C462 C463 1.367 . S
C463 C462 1.367 . S
C463 C465 1.433 . S
C464 C460 1.350 . S
C464 C461 1.463 . S
C464 N468 1.427 . S
C465 H455 0.929 . S
C465 C463 1.433 . S
C465 N468 1.384 . S
C466 H457 0.929 . S
C466 C458 1.378 . S
C466 C461 1.350 . S
C467 H454 0.929 . S
C467 C459 1.433 . S
C467 N469 1.384 . S
N468 C464 1.427 . S
N468 C465 1.384 . S
N469 C461 1.427 . S
N469 C467 1.384 . S
H470 C476 0.930 . S
H471 C480 0.930 . S
H472 C485 0.929 . S
H473 C483 0.929 . S
H474 C478 0.929 . S
H475 C484 0.929 . S
C476 H470 0.930 . S
C476 C477 1.367 . S
C476 C484 1.378 . S
C477 C476 1.367 . S
C477 C485 1.433 . S
C478 H474 0.929 . S
C478 C480 1.378 . S
C478 C482 1.350 . S
C479 C482 1.463 1_565 S
C479 C484 1.350 . S
C479 N487 1.427 1_565 S
C480 H471 0.930 . S
C480 C478 1.378 . S
C480 C481 1.367 . S
C481 C480 1.367 . S
C481 C483 1.433 . S
C482 C478 1.350 . S
C482 C479 1.463 1_545 S
C482 N486 1.427 . S
C483 H473 0.929 . S
C483 C481 1.433 . S
C483 N486 1.384 . S
C484 H475 0.929 . S
C484 C476 1.378 . S
C484 C479 1.350 . S
C485 H472 0.929 . S
C485 C477 1.433 . S
C485 N487 1.384 1_565 S
N486 C482 1.427 . S
N486 C483 1.384 . S
N487 C479 1.427 1_545 S
N487 C485 1.384 1_545 S
H488 C494 0.930 . S
H489 C498 0.930 . S
H490 C503 0.929 1_545 S
H491 C501 0.929 . S
H492 C496 0.929 . S
H493 C502 0.929 . S
C494 H488 0.930 . S
C494 C495 1.367 . S
C494 C502 1.378 . S
C495 C494 1.367 . S
C495 C503 1.433 . S
C496 H492 0.929 . S
C496 C498 1.378 . S
C496 C500 1.350 . S
C497 C500 1.463 . S
C497 C502 1.350 . S
C497 N505 1.427 . S
C498 H489 0.930 . S
C498 C496 1.378 . S
C498 C499 1.367 . S
C499 C498 1.367 . S
C499 C501 1.433 . S
C500 C496 1.350 . S
C500 C497 1.463 . S
C500 N504 1.427 . S
C501 H491 0.929 . S
C501 C499 1.433 . S
C501 N504 1.384 . S
C502 H493 0.929 . S
C502 C494 1.378 . S
C502 C497 1.350 . S
C503 H490 0.929 1_565 S
C503 C495 1.433 . S
C503 N505 1.384 . S
N504 C500 1.427 . S
N504 C501 1.384 . S
N505 C497 1.427 . S
N505 C503 1.384 . S
H506 C512 0.930 . S
H507 C516 0.930 . S
H508 C521 0.929 . S
H509 C519 0.929 . S
H510 C514 0.929 1_545 S
H511 C520 0.929 1_565 S
C512 H506 0.930 . S
C512 C513 1.367 . S
C512 C520 1.378 . S
C513 C512 1.367 . S
C513 C521 1.433 . S
C514 H510 0.929 1_565 S
C514 C516 1.378 . S
C514 C518 1.350 . S
C515 C518 1.463 1_545 S
C515 C520 1.350 . S
C515 N523 1.427 . S
C516 H507 0.930 . S
C516 C514 1.378 . S
C516 C517 1.367 . S
C517 C516 1.367 . S
C517 C519 1.433 . S
C518 C514 1.350 . S
C518 C515 1.463 1_565 S
C518 N522 1.427 . S
C519 H509 0.929 . S
C519 C517 1.433 . S
C519 N522 1.384 . S
C520 H511 0.929 1_545 S
C520 C512 1.378 . S
C520 C515 1.350 . S
C521 H508 0.929 . S
C521 C513 1.433 . S
C521 N523 1.384 . S
N522 C518 1.427 . S
N522 C519 1.384 . S
N523 C515 1.427 . S
N523 C521 1.384 . S
H524 C530 0.930 . S
H525 C534 0.930 . S
H526 C539 0.893 1_554 S
H527 C537 0.929 . S
H528 C532 0.929 . S
H529 C538 0.929 . S
C530 H524 0.930 . S
C530 C531 1.367 . S
C530 C538 1.378 . S
C531 C530 1.367 . S
C531 C539 1.433 . S
C532 H528 0.929 . S
C532 C534 1.378 . S
C532 C536 1.350 . S
C533 C536 1.463 . S
C533 C538 1.350 . S
C533 N541 1.427 . S
C534 H525 0.930 . S
C534 C532 1.378 . S
C534 C535 1.367 . S
C535 C534 1.367 . S
C535 C537 1.433 . S
C536 C532 1.350 . S
C536 C533 1.463 . S
C536 N540 1.427 . S
C537 H527 0.929 . S
C537 C535 1.433 . S
C537 N540 1.384 . S
C538 H529 0.929 . S
C538 C530 1.378 . S
C538 C533 1.350 . S
C539 H526 0.893 1_556 S
C539 C531 1.433 . S
C539 N541 1.384 . S
N540 C536 1.427 . S
N540 C537 1.384 . S
N541 C533 1.427 . S
N541 C539 1.384 . S
H542 C548 0.930 . S
H543 C552 0.930 . S
H544 C557 0.929 . S
H545 C555 0.929 . S
H546 C550 0.929 . S
H547 C556 0.929 . S
C548 H542 0.930 . S
C548 C549 1.367 . S
C548 C556 1.378 . S
C549 C548 1.367 . S
C549 C557 1.433 . S
C550 H546 0.929 . S
C550 C552 1.378 . S
C550 C554 1.350 . S
C551 C554 1.463 1_565 S
C551 C556 1.350 . S
C551 N559 1.427 1_565 S
C552 H543 0.930 . S
C552 C550 1.378 . S
C552 C553 1.367 . S
C553 C552 1.367 . S
C553 C555 1.433 . S
C554 C550 1.350 . S
C554 C551 1.463 1_545 S
C554 N558 1.427 . S
C555 H545 0.929 . S
C555 C553 1.433 . S
C555 N558 1.384 . S
C556 H547 0.929 . S
C556 C548 1.378 . S
C556 C551 1.350 . S
C557 H544 0.929 . S
C557 C549 1.433 . S
C557 N559 1.384 1_565 S
N558 C554 1.427 . S
N558 C555 1.384 . S
N559 C551 1.427 1_545 S
N559 C557 1.384 1_545 S
H560 C566 0.930 . S
H561 C570 0.930 . S
H562 C575 0.929 . S
H563 C573 0.929 . S
H564 C568 0.929 . S
H565 C574 0.929 . S
C566 H560 0.930 . S
C566 C567 1.367 . S
C566 C574 1.378 . S
C567 C566 1.367 . S
C567 C575 1.433 . S
C568 H564 0.929 . S
C568 C570 1.378 . S
C568 C572 1.350 . S
C569 C572 1.463 . S
C569 C574 1.350 . S
C569 N577 1.427 . S
C570 H561 0.930 . S
C570 C568 1.378 . S
C570 C571 1.367 . S
C571 C570 1.367 . S
C571 C573 1.433 . S
C572 C568 1.350 . S
C572 C569 1.463 . S
C572 N576 1.427 . S
C573 H563 0.929 . S
C573 C571 1.433 . S
C573 N576 1.384 . S
C574 H565 0.929 . S
C574 C566 1.378 . S
C574 C569 1.350 . S
C575 H562 0.929 . S
C575 C567 1.433 . S
C575 N577 1.384 . S
N576 C572 1.427 . S
N576 C573 1.384 . S
N577 C569 1.427 . S
N577 C575 1.384 . S
H578 C584 0.930 . S
H579 C588 0.930 . S
H580 C593 0.929 . S
H581 C591 0.929 . S
H582 C586 0.929 . S
H583 C592 0.929 . S
C584 H578 0.930 . S
C584 C585 1.367 . S
C584 C592 1.378 . S
C585 C584 1.367 . S
C585 C593 1.433 . S
C586 H582 0.929 . S
C586 C588 1.378 . S
C586 C590 1.350 . S
C587 C590 1.463 . S
C587 C592 1.350 . S
C587 N595 1.427 . S
C588 H579 0.930 . S
C588 C586 1.378 . S
C588 C589 1.367 . S
C589 C588 1.367 . S
C589 C591 1.433 . S
C590 C586 1.350 . S
C590 C587 1.463 . S
C590 N594 1.427 . S
C591 H581 0.929 . S
C591 C589 1.433 . S
C591 N594 1.384 . S
C592 H583 0.929 . S
C592 C584 1.378 . S
C592 C587 1.350 . S
C593 H580 0.929 . S
C593 C585 1.433 . S
C593 N595 1.384 . S
N594 C590 1.427 . S
N594 C591 1.384 . S
N595 C587 1.427 . S
N595 C593 1.384 . S
H596 C602 0.930 . S
H597 C606 0.930 . S
H598 C611 0.929 . S
H599 C609 0.929 . S
H600 C604 0.929 . S
H601 C610 0.929 . S
C602 H596 0.930 . S
C602 C603 1.367 . S
C602 C610 1.378 . S
C603 C602 1.367 . S
C603 C611 1.433 . S
C604 H600 0.929 . S
C604 C606 1.378 . S
C604 C608 1.350 . S
C605 C608 1.463 . S
C605 C610 1.350 . S
C605 N613 1.427 . S
C606 H597 0.930 . S
C606 C604 1.378 . S
C606 C607 1.367 . S
C607 C606 1.367 . S
C607 C609 1.433 . S
C608 C604 1.350 . S
C608 C605 1.463 . S
C608 N612 1.427 . S
C609 H599 0.929 . S
C609 C607 1.433 . S
C609 N612 1.384 . S
C610 H601 0.929 . S
C610 C602 1.378 . S
C610 C605 1.350 . S
C611 H598 0.929 . S
C611 C603 1.433 . S
C611 N613 1.384 . S
N612 C608 1.427 . S
N612 C609 1.384 . S
N613 C605 1.427 . S
N613 C611 1.384 . S
H614 C620 0.930 . S
H615 C624 0.930 . S
H616 C629 0.929 . S
H617 C627 0.929 . S
H618 C622 0.929 . S
H619 C628 0.929 . S
C620 H614 0.930 . S
C620 C621 1.367 . S
C620 C628 1.378 . S
C621 C620 1.367 . S
C621 C629 1.433 . S
C622 H618 0.929 . S
C622 C624 1.378 . S
C622 C626 1.350 . S
C623 C626 1.463 . S
C623 C628 1.350 . S
C623 N631 1.427 . S
C624 H615 0.930 . S
C624 C622 1.378 . S
C624 C625 1.367 . S
C625 C624 1.367 . S
C625 C627 1.433 . S
C626 C622 1.350 . S
C626 C623 1.463 . S
C626 N630 1.427 . S
C627 H617 0.929 . S
C627 C625 1.433 . S
C627 N630 1.384 . S
C628 H619 0.929 . S
C628 C620 1.378 . S
C628 C623 1.350 . S
C629 H616 0.929 . S
C629 C621 1.433 . S
C629 N631 1.384 . S
N630 C626 1.427 . S
N630 C627 1.384 . S
N631 C623 1.427 . S
N631 C629 1.384 . S
H632 C638 0.930 . S
H633 C642 0.930 . S
H634 C647 0.929 . S
H635 C645 0.929 . S
H636 C640 0.929 . S
H637 C646 0.929 . S
C638 H632 0.930 . S
C638 C639 1.367 . S
C638 C646 1.378 . S
C639 C638 1.367 . S
C639 C647 1.433 . S
C640 H636 0.929 . S
C640 C642 1.378 . S
C640 C644 1.350 . S
C641 C644 1.463 . S
C641 C646 1.350 . S
C641 N649 1.427 . S
C642 H633 0.930 . S
C642 C640 1.378 . S
C642 C643 1.367 . S
C643 C642 1.367 . S
C643 C645 1.433 . S
C644 C640 1.350 . S
C644 C641 1.463 . S
C644 N648 1.427 . S
C645 H635 0.929 . S
C645 C643 1.433 . S
C645 N648 1.384 . S
C646 H637 0.929 . S
C646 C638 1.378 . S
C646 C641 1.350 . S
C647 H634 0.929 . S
C647 C639 1.433 . S
C647 N649 1.384 . S
N648 C644 1.427 . S
N648 C645 1.384 . S
N649 C641 1.427 . S
N649 C647 1.384 . S
H650 C656 0.930 . S
H651 C660 0.930 . S
H652 C665 0.929 . S
H653 C663 0.929 . S
H654 C658 0.929 . S
H655 C664 0.929 . S
C656 H650 0.930 . S
C656 C657 1.367 . S
C656 C664 1.378 . S
C657 C656 1.367 . S
C657 C665 1.433 . S
C658 H654 0.929 . S
C658 C660 1.378 . S
C658 C662 1.350 . S
C659 C662 1.463 . S
C659 C664 1.350 . S
C659 N667 1.427 . S
C660 H651 0.930 . S
C660 C658 1.378 . S
C660 C661 1.367 . S
C661 C660 1.367 . S
C661 C663 1.433 . S
C662 C658 1.350 . S
C662 C659 1.463 . S
C662 N666 1.427 . S
C663 H653 0.929 . S
C663 C661 1.433 . S
C663 N666 1.384 . S
C664 H655 0.929 . S
C664 C656 1.378 . S
C664 C659 1.350 . S
C665 H652 0.929 . S
C665 C657 1.433 . S
C665 N667 1.384 . S
N666 C662 1.427 . S
N666 C663 1.384 . S
N667 C659 1.427 . S
N667 C665 1.384 . S
H668 C674 0.930 . S
H669 C678 0.930 . S
H670 C683 0.929 . S
H671 C681 0.929 . S
H672 C676 0.929 . S
H673 C682 0.929 . S
C674 H668 0.930 . S
C674 C675 1.367 . S
C674 C682 1.378 . S
C675 C674 1.367 . S
C675 C683 1.433 . S
C676 H672 0.929 . S
C676 C678 1.378 . S
C676 C680 1.350 . S
C677 C680 1.463 . S
C677 C682 1.350 . S
C677 N685 1.427 . S
C678 H669 0.930 . S
C678 C676 1.378 . S
C678 C679 1.367 . S
C679 C678 1.367 . S
C679 C681 1.433 . S
C680 C676 1.350 . S
C680 C677 1.463 . S
C680 N684 1.427 . S
C681 H671 0.929 . S
C681 C679 1.433 . S
C681 N684 1.384 . S
C682 H673 0.929 . S
C682 C674 1.378 . S
C682 C677 1.350 . S
C683 H670 0.929 . S
C683 C675 1.433 . S
C683 N685 1.384 . S
N684 C680 1.427 . S
N684 C681 1.384 . S
N685 C677 1.427 . S
N685 C683 1.384 . S
H686 C692 0.930 . S
H687 C696 0.930 . S
H688 C701 0.929 . S
H689 C699 0.929 . S
H690 C694 0.929 . S
H691 C700 0.929 . S
C692 H686 0.930 . S
C692 C693 1.367 . S
C692 C700 1.378 . S
C693 C692 1.367 . S
C693 C701 1.433 . S
C694 H690 0.929 . S
C694 C696 1.378 . S
C694 C698 1.350 . S
C695 C698 1.463 . S
C695 C700 1.350 . S
C695 N703 1.427 . S
C696 H687 0.930 . S
C696 C694 1.378 . S
C696 C697 1.367 . S
C697 C696 1.367 . S
C697 C699 1.433 . S
C698 C694 1.350 . S
C698 C695 1.463 . S
C698 N702 1.427 . S
C699 H689 0.929 . S
C699 C697 1.433 . S
C699 N702 1.384 . S
C700 H691 0.929 . S
C700 C692 1.378 . S
C700 C695 1.350 . S
C701 H688 0.929 . S
C701 C693 1.433 . S
C701 N703 1.384 . S
N702 C698 1.427 . S
N702 C699 1.384 . S
N703 C695 1.427 . S
N703 C701 1.384 . S
H704 C710 0.930 . S
H705 C714 0.930 . S
H706 C719 0.929 . S
H707 C717 0.929 . S
H708 C712 0.929 . S
H709 C718 0.929 . S
C710 H704 0.930 . S
C710 C711 1.367 . S
C710 C718 1.378 . S
C711 C710 1.367 . S
C711 C719 1.433 . S
C712 H708 0.929 . S
C712 C714 1.378 . S
C712 C716 1.350 . S
C713 C716 1.463 . S
C713 C718 1.350 . S
C713 N721 1.427 . S
C714 H705 0.930 . S
C714 C712 1.378 . S
C714 C715 1.367 . S
C715 C714 1.367 . S
C715 C717 1.433 . S
C716 C712 1.350 . S
C716 C713 1.463 . S
C716 N720 1.427 . S
C717 H707 0.929 . S
C717 C715 1.433 . S
C717 N720 1.384 . S
C718 H709 0.929 . S
C718 C710 1.378 . S
C718 C713 1.350 . S
C719 H706 0.929 . S
C719 C711 1.433 . S
C719 N721 1.384 . S
N720 C716 1.427 . S
N720 C717 1.384 . S
N721 C713 1.427 . S
N721 C719 1.384 . S
H722 C728 0.930 . S
H723 C732 0.930 . S
H724 C737 0.929 . S
H725 C735 0.929 . S
H726 C730 0.929 . S
H727 C736 0.929 . S
C728 H722 0.930 . S
C728 C729 1.367 . S
C728 C736 1.378 . S
C729 C728 1.367 . S
C729 C737 1.433 . S
C730 H726 0.929 . S
C730 C732 1.378 . S
C730 C734 1.350 . S
C731 C734 1.463 . S
C731 C736 1.350 . S
C731 N739 1.427 . S
C732 H723 0.930 . S
C732 C730 1.378 . S
C732 C733 1.367 . S
C733 C732 1.367 . S
C733 C735 1.433 . S
C734 C730 1.350 . S
C734 C731 1.463 . S
C734 N738 1.427 . S
C735 H725 0.929 . S
C735 C733 1.433 . S
C735 N738 1.384 . S
C736 H727 0.929 . S
C736 C728 1.378 . S
C736 C731 1.350 . S
C737 H724 0.929 . S
C737 C729 1.433 . S
C737 N739 1.384 . S
N738 C734 1.427 . S
N738 C735 1.384 . S
N739 C731 1.427 . S
N739 C737 1.384 . S
H740 C746 0.930 . S
H741 C750 0.930 . S
H742 C755 0.929 . S
H743 C753 0.929 . S
H744 C748 0.929 . S
H745 C754 0.929 . S
C746 H740 0.930 . S
C746 C747 1.367 . S
C746 C754 1.378 . S
C747 C746 1.367 . S
C747 C755 1.433 . S
C748 H744 0.929 . S
C748 C750 1.378 . S
C748 C752 1.350 . S
C749 C752 1.463 . S
C749 C754 1.350 . S
C749 N757 1.427 . S
C750 H741 0.930 . S
C750 C748 1.378 . S
C750 C751 1.367 . S
C751 C750 1.367 . S
C751 C753 1.433 . S
C752 C748 1.350 . S
C752 C749 1.463 . S
C752 N756 1.427 . S
C753 H743 0.929 . S
C753 C751 1.433 . S
C753 N756 1.384 . S
C754 H745 0.929 . S
C754 C746 1.378 . S
C754 C749 1.350 . S
C755 H742 0.929 . S
C755 C747 1.433 . S
C755 N757 1.384 . S
N756 C752 1.427 . S
N756 C753 1.384 . S
N757 C749 1.427 . S
N757 C755 1.384 . S
H758 C764 0.930 . S
H759 C768 0.930 . S
H760 C773 0.929 . S
H761 C771 0.929 . S
H762 C766 0.929 . S
H763 C772 0.929 . S
C764 H758 0.930 . S
C764 C765 1.367 . S
C764 C772 1.378 . S
C765 C764 1.367 . S
C765 C773 1.433 . S
C766 H762 0.929 . S
C766 C768 1.378 . S
C766 C770 1.350 . S
C767 C770 1.463 . S
C767 C772 1.350 . S
C767 N775 1.427 . S
C768 H759 0.930 . S
C768 C766 1.378 . S
C768 C769 1.367 . S
C769 C768 1.367 . S
C769 C771 1.433 . S
C770 C766 1.350 . S
C770 C767 1.463 . S
C770 N774 1.427 . S
C771 H761 0.929 . S
C771 C769 1.433 . S
C771 N774 1.384 . S
C772 H763 0.929 . S
C772 C764 1.378 . S
C772 C767 1.350 . S
C773 H760 0.929 . S
C773 C765 1.433 . S
C773 N775 1.384 . S
N774 C770 1.427 . S
N774 C771 1.384 . S
N775 C767 1.427 . S
N775 C773 1.384 . S
H776 C782 0.918 1_554 S
H777 C786 0.930 . S
H778 C791 0.929 . S
H779 C789 0.929 . S
H780 C784 0.929 . S
H781 C790 0.929 . S
C782 H776 0.918 1_556 S
C782 C783 1.367 . S
C782 C790 1.378 . S
C783 C782 1.367 . S
C783 C791 1.433 . S
C784 H780 0.929 . S
C784 C786 1.378 . S
C784 C788 1.350 . S
C785 C788 1.463 . S
C785 C790 1.350 . S
C785 N793 1.427 . S
C786 H777 0.930 . S
C786 C784 1.378 . S
C786 C787 1.367 . S
C787 C786 1.367 . S
C787 C789 1.433 . S
C788 C784 1.350 . S
C788 C785 1.463 . S
C788 N792 1.427 . S
C789 H779 0.929 . S
C789 C787 1.433 . S
C789 N792 1.384 . S
C790 H781 0.929 . S
C790 C782 1.378 . S
C790 C785 1.350 . S
C791 H778 0.929 . S
C791 C783 1.433 . S
C791 N793 1.384 . S
N792 C788 1.427 . S
N792 C789 1.384 . S
N793 C785 1.427 . S
N793 C791 1.384 . S
H794 C800 0.930 . S
H795 C804 0.930 . S
H796 C809 0.929 . S
H797 C807 0.929 . S
H798 C802 0.929 . S
H799 C808 0.929 . S
C800 H794 0.930 . S
C800 C801 1.367 . S
C800 C808 1.378 . S
C801 C800 1.367 . S
C801 C809 1.433 . S
C802 H798 0.929 . S
C802 C804 1.378 . S
C802 C806 1.350 . S
C803 C806 1.463 . S
C803 C808 1.350 . S
C803 N811 1.427 . S
C804 H795 0.930 . S
C804 C802 1.378 . S
C804 C805 1.367 . S
C805 C804 1.367 . S
C805 C807 1.433 . S
C806 C802 1.350 . S
C806 C803 1.463 . S
C806 N810 1.427 . S
C807 H797 0.929 . S
C807 C805 1.433 . S
C807 N810 1.384 . S
C808 H799 0.929 . S
C808 C800 1.378 . S
C808 C803 1.350 . S
C809 H796 0.929 . S
C809 C801 1.433 . S
C809 N811 1.384 . S
N810 C806 1.427 . S
N810 C807 1.384 . S
N811 C803 1.427 . S
N811 C809 1.384 . S
H812 C818 0.930 . S
H813 C822 0.930 . S
H814 C827 0.929 . S
H815 C825 0.929 . S
H816 C820 0.929 . S
H817 C826 0.929 . S
C818 H812 0.930 . S
C818 C819 1.367 . S
C818 C826 1.378 . S
C819 C818 1.367 . S
C819 C827 1.433 . S
C820 H816 0.929 . S
C820 C822 1.378 . S
C820 C824 1.350 . S
C821 C824 1.463 . S
C821 C826 1.350 . S
C821 N829 1.427 . S
C822 H813 0.930 . S
C822 C820 1.378 . S
C822 C823 1.367 . S
C823 C822 1.367 . S
C823 C825 1.433 . S
C824 C820 1.350 . S
C824 C821 1.463 . S
C824 N828 1.427 . S
C825 H815 0.929 . S
C825 C823 1.433 . S
C825 N828 1.384 . S
C826 H817 0.929 . S
C826 C818 1.378 . S
C826 C821 1.350 . S
C827 H814 0.929 . S
C827 C819 1.433 . S
C827 N829 1.384 . S
N828 C824 1.427 . S
N828 C825 1.384 . S
N829 C821 1.427 . S
N829 C827 1.384 . S
H830 C836 0.930 . S
H831 C840 0.930 . S
H832 C845 0.929 . S
H833 C843 0.929 . S
H834 C838 0.929 . S
H835 C844 0.929 . S
C836 H830 0.930 . S
C836 C837 1.367 . S
C836 C844 1.378 . S
C837 C836 1.367 . S
C837 C845 1.433 . S
C838 H834 0.929 . S
C838 C840 1.378 . S
C838 C842 1.350 . S
C839 C842 1.463 . S
C839 C844 1.350 . S
C839 N847 1.427 . S
C840 H831 0.930 . S
C840 C838 1.378 . S
C840 C841 1.367 . S
C841 C840 1.367 . S
C841 C843 1.433 . S
C842 C838 1.350 . S
C842 C839 1.463 . S
C842 N846 1.427 . S
C843 H833 0.929 . S
C843 C841 1.433 . S
C843 N846 1.384 . S
C844 H835 0.929 . S
C844 C836 1.378 . S
C844 C839 1.350 . S
C845 H832 0.929 . S
C845 C837 1.433 . S
C845 N847 1.384 . S
N846 C842 1.427 . S
N846 C843 1.384 . S
N847 C839 1.427 . S
N847 C845 1.384 . S
C283 C193 1.557 . S
C279 C14 1.533 . S
C297 C25 1.531 . S
C301 C225 1.551 . S
C315 C50 1.542 . S
C319 C248 1.563 . S
C337 C152 1.569 . S
C333 C68 1.533 . S
C355 C235 1.410 . S
C351 C16 1.504 . S
C373 C264 1.402 . S
C369 C26 1.499 . S
C391 C168 1.401 . S
C387 C52 1.492 . S
C409 C203 1.395 . S
C405 C70 1.498 . S
C423 C8 1.492 . S
C427 C231 1.415 . S
C441 C88 1.487 . S
C445 C206 1.382 . S
C459 C44 1.488 . S
C463 C174 1.379 . S
C481 C263 1.408 . S
C477 C98 1.497 . S
C499 C207 1.556 . S
C495 C7 1.531 . S
C513 C86 1.529 . S
C517 C175 1.556 . S
C531 C43 1.536 . S
C535 C262 1.560 . S
C553 C230 1.558 . S
C549 C97 1.536 . S
C567 C116 1.536 . S
C571 C257 1.551 . S
C585 C79 1.527 . S
C589 C161 1.554 . S
C603 C140 1.543 . S
C607 C184 1.564 . S
C621 C104 1.541 . S
C625 C216 1.566 . S
C643 C171 1.410 . S
C639 C115 1.508 . S
C657 C80 1.499 . S
C661 C200 1.404 . S
C675 C142 1.492 . S
C679 C232 1.404 . S
C697 C267 1.393 . S
C693 C106 1.498 . S
C711 C122 1.490 . S
C715 C167 1.401 . S
C729 C34 1.488 . S
C733 C270 1.380 . S
C747 C134 1.495 . S
C751 C238 1.392 . S
C769 C199 1.403 . S
C765 C62 1.486 . S
C787 C271 1.554 . S
C783 C124 1.524 . S
C805 C239 1.552 . S
C801 C32 1.540 . S
C823 C198 1.561 . S
C819 C133 1.531 . S
C841 C166 1.558 . S
C837 C61 1.534 . S
