# Generated by pormake.
# Topology ctn, (3,4)-cn, num edge types: 1
# Building blocks:
#     Node 0, Type 0, BuildingBlock: MIDCAF_clean_linker_0, # of connection points: 3
#     Node 1, Type 0, BuildingBlock: MIDCAF_clean_linker_0, # of connection points: 3
#     Node 2, Type 0, BuildingBlock: MIDCAF_clean_linker_0, # of connection points: 3
#     Node 3, Type 0, BuildingBlock: MIDCAF_clean_linker_0, # of connection points: 3
#     Node 4, Type 0, BuildingBlock: MIDCAF_clean_linker_0, # of connection points: 3
#     Node 5, Type 0, BuildingBlock: MIDCAF_clean_linker_0, # of connection points: 3
#     Node 6, Type 0, BuildingBlock: MIDCAF_clean_linker_0, # of connection points: 3
#     Node 7, Type 0, BuildingBlock: MIDCAF_clean_linker_0, # of connection points: 3
#     Node 8, Type 0, BuildingBlock: MIDCAF_clean_linker_0, # of connection points: 3
#     Node 9, Type 0, BuildingBlock: MIDCAF_clean_linker_0, # of connection points: 3
#     Node 10, Type 0, BuildingBlock: MIDCAF_clean_linker_0, # of connection points: 3
#     Node 11, Type 0, BuildingBlock: MIDCAF_clean_linker_0, # of connection points: 3
#     Node 12, Type 0, BuildingBlock: MIDCAF_clean_linker_0, # of connection points: 3
#     Node 13, Type 0, BuildingBlock: MIDCAF_clean_linker_0, # of connection points: 3
#     Node 14, Type 0, BuildingBlock: MIDCAF_clean_linker_0, # of connection points: 3
#     Node 15, Type 0, BuildingBlock: MIDCAF_clean_linker_0, # of connection points: 3
#     Node 16, Type 1, BuildingBlock: AZAVOO_clean_sbu_0, # of connection points: 4
#     Node 17, Type 1, BuildingBlock: AZAVOO_clean_sbu_0, # of connection points: 4
#     Node 18, Type 1, BuildingBlock: AZAVOO_clean_sbu_0, # of connection points: 4
#     Node 19, Type 1, BuildingBlock: AZAVOO_clean_sbu_0, # of connection points: 4
#     Node 20, Type 1, BuildingBlock: AZAVOO_clean_sbu_0, # of connection points: 4
#     Node 21, Type 1, BuildingBlock: AZAVOO_clean_sbu_0, # of connection points: 4
#     Node 22, Type 1, BuildingBlock: AZAVOO_clean_sbu_0, # of connection points: 4
#     Node 23, Type 1, BuildingBlock: AZAVOO_clean_sbu_0, # of connection points: 4
#     Node 24, Type 1, BuildingBlock: AZAVOO_clean_sbu_0, # of connection points: 4
#     Node 25, Type 1, BuildingBlock: AZAVOO_clean_sbu_0, # of connection points: 4
#     Node 26, Type 1, BuildingBlock: AZAVOO_clean_sbu_0, # of connection points: 4
#     Node 27, Type 1, BuildingBlock: AZAVOO_clean_sbu_0, # of connection points: 4
#     Edge 28, Type (0, 1), BuildingBlock: KIFKEQ_clean_linker_1, # of connection points: 2
#     Edge 29, Type (0, 1), BuildingBlock: KIFKEQ_clean_linker_1, # of connection points: 2
#     Edge 30, Type (0, 1), BuildingBlock: KIFKEQ_clean_linker_1, # of connection points: 2
#     Edge 31, Type (0, 1), BuildingBlock: KIFKEQ_clean_linker_1, # of connection points: 2
#     Edge 32, Type (0, 1), BuildingBlock: KIFKEQ_clean_linker_1, # of connection points: 2
#     Edge 33, Type (0, 1), BuildingBlock: KIFKEQ_clean_linker_1, # of connection points: 2
#     Edge 34, Type (0, 1), BuildingBlock: KIFKEQ_clean_linker_1, # of connection points: 2
#     Edge 35, Type (0, 1), BuildingBlock: KIFKEQ_clean_linker_1, # of connection points: 2
#     Edge 36, Type (0, 1), BuildingBlock: KIFKEQ_clean_linker_1, # of connection points: 2
#     Edge 37, Type (0, 1), BuildingBlock: KIFKEQ_clean_linker_1, # of connection points: 2
#     Edge 38, Type (0, 1), BuildingBlock: KIFKEQ_clean_linker_1, # of connection points: 2
#     Edge 39, Type (0, 1), BuildingBlock: KIFKEQ_clean_linker_1, # of connection points: 2
#     Edge 40, Type (0, 1), BuildingBlock: KIFKEQ_clean_linker_1, # of connection points: 2
#     Edge 41, Type (0, 1), BuildingBlock: KIFKEQ_clean_linker_1, # of connection points: 2
#     Edge 42, Type (0, 1), BuildingBlock: KIFKEQ_clean_linker_1, # of connection points: 2
#     Edge 43, Type (0, 1), BuildingBlock: KIFKEQ_clean_linker_1, # of connection points: 2
#     Edge 44, Type (0, 1), BuildingBlock: KIFKEQ_clean_linker_1, # of connection points: 2
#     Edge 45, Type (0, 1), BuildingBlock: KIFKEQ_clean_linker_1, # of connection points: 2
#     Edge 46, Type (0, 1), BuildingBlock: KIFKEQ_clean_linker_1, # of connection points: 2
#     Edge 47, Type (0, 1), BuildingBlock: KIFKEQ_clean_linker_1, # of connection points: 2
#     Edge 48, Type (0, 1), BuildingBlock: KIFKEQ_clean_linker_1, # of connection points: 2
#     Edge 49, Type (0, 1), BuildingBlock: KIFKEQ_clean_linker_1, # of connection points: 2
#     Edge 50, Type (0, 1), BuildingBlock: KIFKEQ_clean_linker_1, # of connection points: 2
#     Edge 51, Type (0, 1), BuildingBlock: KIFKEQ_clean_linker_1, # of connection points: 2
#     Edge 52, Type (0, 1), BuildingBlock: KIFKEQ_clean_linker_1, # of connection points: 2
#     Edge 53, Type (0, 1), BuildingBlock: KIFKEQ_clean_linker_1, # of connection points: 2
#     Edge 54, Type (0, 1), BuildingBlock: KIFKEQ_clean_linker_1, # of connection points: 2
#     Edge 55, Type (0, 1), BuildingBlock: KIFKEQ_clean_linker_1, # of connection points: 2
#     Edge 56, Type (0, 1), BuildingBlock: KIFKEQ_clean_linker_1, # of connection points: 2
#     Edge 57, Type (0, 1), BuildingBlock: KIFKEQ_clean_linker_1, # of connection points: 2
#     Edge 58, Type (0, 1), BuildingBlock: KIFKEQ_clean_linker_1, # of connection points: 2
#     Edge 59, Type (0, 1), BuildingBlock: KIFKEQ_clean_linker_1, # of connection points: 2
#     Edge 60, Type (0, 1), BuildingBlock: KIFKEQ_clean_linker_1, # of connection points: 2
#     Edge 61, Type (0, 1), BuildingBlock: KIFKEQ_clean_linker_1, # of connection points: 2
#     Edge 62, Type (0, 1), BuildingBlock: KIFKEQ_clean_linker_1, # of connection points: 2
#     Edge 63, Type (0, 1), BuildingBlock: KIFKEQ_clean_linker_1, # of connection points: 2
#     Edge 64, Type (0, 1), BuildingBlock: KIFKEQ_clean_linker_1, # of connection points: 2
#     Edge 65, Type (0, 1), BuildingBlock: KIFKEQ_clean_linker_1, # of connection points: 2
#     Edge 66, Type (0, 1), BuildingBlock: KIFKEQ_clean_linker_1, # of connection points: 2
#     Edge 67, Type (0, 1), BuildingBlock: KIFKEQ_clean_linker_1, # of connection points: 2
#     Edge 68, Type (0, 1), BuildingBlock: KIFKEQ_clean_linker_1, # of connection points: 2
#     Edge 69, Type (0, 1), BuildingBlock: KIFKEQ_clean_linker_1, # of connection points: 2
#     Edge 70, Type (0, 1), BuildingBlock: KIFKEQ_clean_linker_1, # of connection points: 2
#     Edge 71, Type (0, 1), BuildingBlock: KIFKEQ_clean_linker_1, # of connection points: 2
#     Edge 72, Type (0, 1), BuildingBlock: KIFKEQ_clean_linker_1, # of connection points: 2
#     Edge 73, Type (0, 1), BuildingBlock: KIFKEQ_clean_linker_1, # of connection points: 2
#     Edge 74, Type (0, 1), BuildingBlock: KIFKEQ_clean_linker_1, # of connection points: 2
#     Edge 75, Type (0, 1), BuildingBlock: KIFKEQ_clean_linker_1, # of connection points: 2
# Relax obj value: 0.002
# Max RMSD: 0.043
# Mean RMSD: 0.023
data_MOF--net-ctn--node1-AZAVOO_clean_sbu_0--node2-MIDCAF_clean_linker_0--edge1-KIFKEQ_clean_linker_1
_symmetry_space_group_name_H-M    P1
_symmetry_Int_Tables_number       1
_symmetry_cell_setting            triclinic
loop_
_symmetry_equiv_pos_as_xyz
'x, y, z'
_cell_length_a     67.229728
_cell_length_b     68.27147
_cell_length_c     68.226057
_cell_angle_alpha  90.142502
_cell_angle_beta   92.658531
_cell_angle_gamma 92.977721
loop_
_atom_site_label
_atom_site_type_symbol
_atom_site_fract_x
_atom_site_fract_y
_atom_site_fract_z
_atom_type_partial_charge
C0 C 0.98006 0.0239 0.06226 0.0
C1 C 0.98654 0.0132 0.07872 0.0
C2 C 0.00382 0.00254 0.07752 0.0
C3 C 0.01472 0.00316 0.06052 0.0
H4 H 0.0578 0.97519 0.02976 0.0
H5 H 0.08435 0.95327 0.02405 0.0
H6 H 0.09949 0.98602 0.97225 0.0
H7 H 0.07321 0.00823 0.97812 0.0
H8 H 0.05099 0.0467 0.96714 0.0
H9 H 0.04994 0.07781 0.94956 0.0
H10 H 0.00538 0.09687 0.98791 0.0
H11 H 0.00635 0.06604 0.00551 0.0
H12 H 0.98578 0.03341 0.03316 0.0
H13 H 0.96656 0.03188 0.06244 0.0
H14 H 0.00936 0.99428 0.08997 0.0
H15 H 0.02827 0.99526 0.06028 0.0
N16 N 0.03553 0.00438 0.02361 0.0
N17 N 0.04493 0.02305 0.99637 0.0
N18 N 0.01891 0.03272 0.01524 0.0
C19 C 0.04741 0.00721 0.00813 0.0
C20 C 0.03071 0.03588 0.99984 0.0
C21 C 0.02115 0.01704 0.02716 0.0
C22 C 0.06331 0.99354 0.00443 0.0
C23 C 0.06673 0.97774 0.01712 0.0
C24 C 0.08192 0.96508 0.01379 0.0
C25 C 0.09405 0.96786 0.99767 0.0
C26 C 0.09059 0.9836 0.98494 0.0
C27 C 0.07541 0.99628 0.98827 0.0
C28 C 0.02892 0.05389 0.9879 0.0
C29 C 0.04083 0.05744 0.97173 0.0
C30 C 0.04018 0.07521 0.96159 0.0
C31 C 0.02773 0.0898 0.96752 0.0
C32 C 0.01534 0.08599 0.98322 0.0
C33 C 0.01587 0.06824 0.99325 0.0
C34 C 0.00868 0.0146 0.04443 0.0
C35 C 0.99104 0.02468 0.04539 0.0
C36 C 0.25857 0.66829 0.25634 0.0
C37 C 0.24325 0.66422 0.24197 0.0
C38 C 0.24212 0.67615 0.22525 0.0
C39 C 0.25621 0.69161 0.22278 0.0
H40 H 0.26593 0.74291 0.19236 0.0
H41 H 0.26173 0.76443 0.16433 0.0
H42 H 0.32351 0.7849 0.17142 0.0
H43 H 0.32788 0.7632 0.19957 0.0
H44 H 0.35325 0.74913 0.23748 0.0
H45 H 0.38314 0.75152 0.25912 0.0
H46 H 0.35501 0.7112 0.29938 0.0
H47 H 0.32543 0.70835 0.27756 0.0
H48 H 0.28455 0.68618 0.26505 0.0
H49 H 0.25993 0.65923 0.26929 0.0
H50 H 0.23036 0.67347 0.21402 0.0
H51 H 0.25498 0.70035 0.2096 0.0
N52 N 0.28539 0.72366 0.21846 0.0
N53 N 0.31648 0.73923 0.2271 0.0
N54 N 0.3041 0.71289 0.24577 0.0
C55 C 0.29979 0.73777 0.21504 0.0
C56 C 0.31871 0.72687 0.24255 0.0
C57 C 0.28741 0.71114 0.23376 0.0
C58 C 0.29727 0.75127 0.19824 0.0
C59 C 0.27866 0.75199 0.18803 0.0
C60 C 0.27619 0.76445 0.17204 0.0
C61 C 0.29227 0.7764 0.16575 0.0
C62 C 0.31088 0.77576 0.17591 0.0
C63 C 0.31334 0.76339 0.19207 0.0
C64 C 0.3369 0.72852 0.25573 0.0
C65 C 0.35343 0.74075 0.25094 0.0
C66 C 0.37057 0.74219 0.2634 0.0
C67 C 0.37153 0.73152 0.28099 0.0
C68 C 0.35496 0.71935 0.28578 0.0
C69 C 0.3379 0.71781 0.27329 0.0
C70 C 0.27186 0.69541 0.23692 0.0
C71 C 0.27276 0.68366 0.25382 0.0
C72 C 1.00037 0.42387 0.00468 0.0
C73 C 0.9839 0.41501 0.99407 0.0
C74 C 0.9649 0.42207 0.99638 0.0
C75 C 0.9624 0.43771 0.00914 0.0
H76 H 0.9287 0.48678 0.01495 0.0
H77 H 0.90185 0.50884 0.00885 0.0
H78 H 0.92132 0.54216 0.06077 0.0
H79 H 0.94846 0.52035 0.06675 0.0
H80 H 0.98876 0.51001 0.09006 0.0
H81 H 0.01266 0.51503 0.11783 0.0
H82 H 0.04 0.46137 0.10308 0.0
H83 H 0.01658 0.45659 0.07511 0.0
H84 H 0.01076 0.44562 0.02595 0.0
H85 H 0.01514 0.41856 0.00321 0.0
H86 H 0.95199 0.41545 0.98832 0.0
H87 H 0.94755 0.44278 0.0107 0.0
N88 N 0.96038 0.47399 0.03173 0.0
N89 N 0.9709 0.49166 0.0602 0.0
N90 N 0.98905 0.4654 0.04988 0.0
C91 C 0.95774 0.48877 0.04457 0.0
C92 C 0.98656 0.47997 0.06301 0.0
C93 C 0.97603 0.46231 0.03424 0.0
C94 C 0.94088 0.50179 0.04131 0.0
C95 C 0.92729 0.49877 0.02513 0.0
C96 C 0.91177 0.51136 0.02168 0.0
C97 C 0.90946 0.5273 0.03429 0.0
C98 C 0.92286 0.53018 0.05061 0.0
C99 C 0.93837 0.51758 0.05409 0.0
C100 C 0.00077 0.48296 0.08021 0.0
C101 C 0.99986 0.49926 0.09273 0.0
C102 C 0.0135 0.50209 0.10876 0.0
C103 C 0.02833 0.48865 0.11267 0.0
C104 C 0.02903 0.47222 0.10031 0.0
C105 C 0.01549 0.46943 0.08428 0.0
C106 C 0.9788 0.44629 0.02015 0.0
C107 C 0.99782 0.43923 0.01776 0.0
C108 C 0.74305 0.77158 0.16826 0.0
C109 C 0.72708 0.75794 0.1639 0.0
C110 C 0.709 0.75997 0.17307 0.0
C111 C 0.70695 0.77535 0.1863 0.0
H112 H 0.67001 0.79554 0.22777 0.0
H113 H 0.64289 0.79445 0.25025 0.0
H114 H 0.66881 0.84638 0.27973 0.0
H115 H 0.69611 0.84743 0.25744 0.0
H116 H 0.73185 0.87158 0.23643 0.0
H117 H 0.75761 0.89805 0.23834 0.0
H118 H 0.7961 0.86284 0.20541 0.0
H119 H 0.7702 0.8367 0.20294 0.0
H120 H 0.75358 0.7973 0.1842 0.0
H121 H 0.75709 0.77055 0.16123 0.0
H122 H 0.69648 0.7496 0.17008 0.0
H123 H 0.6928 0.77651 0.19306 0.0
N124 N 0.70456 0.80627 0.21539 0.0
N125 N 0.71699 0.8362 0.22923 0.0
N126 N 0.73494 0.82059 0.20563 0.0
C127 C 0.70262 0.82143 0.22801 0.0
C128 C 0.73319 0.83591 0.21806 0.0
C129 C 0.7207 0.80574 0.20415 0.0
C130 C 0.68538 0.82149 0.24084 0.0
C131 C 0.66992 0.80682 0.23895 0.0
C132 C 0.65426 0.80626 0.25175 0.0
C133 C 0.65375 0.82029 0.2668 0.0
C134 C 0.66893 0.83522 0.26842 0.0
C135 C 0.68453 0.83586 0.25556 0.0
C136 C 0.74889 0.852 0.21948 0.0
C137 C 0.7458 0.86948 0.22958 0.0
C138 C 0.76063 0.88465 0.23076 0.0
C139 C 0.77895 0.88264 0.222 0.0
C140 C 0.78205 0.86509 0.21202 0.0
C141 C 0.7672 0.85001 0.2107 0.0
C142 C 0.72288 0.78914 0.19048 0.0
C143 C 0.74097 0.78701 0.18133 0.0
C144 C 0.05486 0.92419 0.52144 0.0
C145 C 0.03534 0.91701 0.52503 0.0
C146 C 0.01924 0.92756 0.51752 0.0
C147 C 0.02253 0.94435 0.50621 0.0
H148 H 0.99848 0.96932 0.45479 0.0
H149 H 0.97601 0.97397 0.42634 0.0
H150 H 0.01577 0.02066 0.40624 0.0
H151 H 0.03799 0.0164 0.43485 0.0
H152 H 0.07321 0.0324 0.46518 0.0
H153 H 0.10297 0.05379 0.47008 0.0
H154 H 0.13027 0.00977 0.50627 0.0
H155 H 0.10006 0.98856 0.50194 0.0
H156 H 0.07333 0.94619 0.50774 0.0
H157 H 0.06768 0.91638 0.52659 0.0
H158 H 0.00401 0.92289 0.52034 0.0
H159 H 0.00979 0.95195 0.50045 0.0
N160 N 0.03158 0.97295 0.47559 0.0
N161 N 0.05178 -2e-05 0.46616 0.0
N162 N 0.06251 0.98011 0.49216 0.0
C163 C 0.0347 0.98854 0.46356 0.0
C164 C 0.06572 0.99594 0.48045 0.0
C165 C 0.0454 0.96865 0.48989 0.0
C166 C 0.02019 0.99237 0.4471 0.0
C167 C 0.00237 0.98072 0.44442 0.0
C168 C 0.9895 0.98332 0.42804 0.0
C169 C 0.99412 0.9976 0.41391 0.0
C170 C 0.01159 0.00968 0.41693 0.0
C171 C 0.02444 0.00712 0.43332 0.0
C172 C 0.08418 0.00873 0.48317 0.0
C173 C 0.08555 0.0272 0.47415 0.0
C174 C 0.10275 0.03946 0.47685 0.0
C175 C 0.11917 0.03351 0.48848 0.0
C176 C 0.11786 0.01496 0.49742 0.0
C177 C 0.10054 0.00275 0.49486 0.0
C178 C 0.042 0.95131 0.50249 0.0
C179 C 0.05814 0.94125 0.51048 0.0
C180 C 0.21799 0.73231 0.84533 0.0
C181 C 0.21321 0.75203 0.8439 0.0
C182 C 0.2054 0.75911 0.82602 0.0
C183 C 0.20223 0.74656 0.80981 0.0
H184 H 0.15527 0.72729 0.76729 0.0
H185 H 0.12819 0.73192 0.74318 0.0
H186 H 0.15572 0.69412 0.70259 0.0
H187 H 0.18243 0.68889 0.72702 0.0
H188 H 0.21386 0.65892 0.74652 0.0
H189 H 0.23688 0.63294 0.74259 0.0
H190 H 0.26942 0.65179 0.796 0.0
H191 H 0.24622 0.67743 0.80022 0.0
H192 H 0.21926 0.70477 0.83049 0.0
H193 H 0.22412 0.72661 0.85901 0.0
H194 H 0.20163 0.7743 0.82466 0.0
H195 H 0.19615 0.75236 0.79617 0.0
N196 N 0.18994 0.71663 0.77995 0.0
N197 N 0.19971 0.68961 0.76209 0.0
N198 N 0.21664 0.69859 0.79184 0.0
C199 C 0.18735 0.70459 0.76405 0.0
C200 C 0.21442 0.68652 0.77594 0.0
C201 C 0.20453 0.7137 0.7939 0.0
C202 C 0.17105 0.70769 0.74913 0.0
C203 C 0.15559 0.71996 0.75322 0.0
C204 C 0.14006 0.72271 0.73932 0.0
C205 C 0.13969 0.71341 0.72088 0.0
C206 C 0.15527 0.70124 0.71675 0.0
C207 C 0.17069 0.69833 0.73074 0.0
C208 C 0.22814 0.67036 0.77367 0.0
C209 C 0.22586 0.65751 0.75749 0.0
C210 C 0.23914 0.64265 0.75517 0.0
C211 C 0.25505 0.64028 0.76895 0.0
C212 C 0.25719 0.65299 0.78524 0.0
C213 C 0.24392 0.66782 0.78758 0.0
C214 C 0.20731 0.72687 0.81113 0.0
C215 C 0.21529 0.71989 0.82903 0.0
C216 C 0.98896 0.5845 0.49049 0.0
C217 C 0.97851 0.587 0.50761 0.0
C218 C 0.96453 0.57221 0.513 0.0
C219 C 0.96082 0.55543 0.50135 0.0
H220 H 0.91448 0.51432 0.48419 0.0
H221 H 0.8854 0.49264 0.48953 0.0
H222 H 0.91099 0.44709 0.45614 0.0
H223 H 0.93962 0.4691 0.45009 0.0
H224 H 0.97121 0.48557 0.41772 0.0
H225 H 0.99134 0.48088 0.38939 0.0
H226 H 0.02744 0.53317 0.40531 0.0
H227 H 0.00726 0.53811 0.43335 0.0
H228 H 0.99365 0.56629 0.46577 0.0
H229 H 0.99996 0.59558 0.48607 0.0
H230 H 0.95611 0.57381 0.52601 0.0
H231 H 0.94979 0.54443 0.50585 0.0
N232 N 0.95103 0.52287 0.47474 0.0
N233 N 0.9589 0.50334 0.44813 0.0
N234 N 0.97864 0.53175 0.45636 0.0
C235 C 0.94693 0.50682 0.46315 0.0
C236 C 0.97479 0.51577 0.44461 0.0
C237 C 0.9669 0.53538 0.47149 0.0
C238 C 0.92939 0.49346 0.46668 0.0
C239 C 0.9139 0.49967 0.47798 0.0
C240 C 0.89723 0.48717 0.48113 0.0
C241 C 0.89574 0.46805 0.47328 0.0
C242 C 0.91135 0.46183 0.4621 0.0
C243 C 0.92789 0.47442 0.45872 0.0
C244 C 0.98749 0.5123 0.42782 0.0
C245 C 0.98346 0.49606 0.41523 0.0
C246 C 0.99506 0.4933 0.39902 0.0
C247 C 0.0109 0.50673 0.395 0.0
C248 C 0.01512 0.52274 0.40778 0.0
C249 C 0.00359 0.5255 0.42396 0.0
C250 C 0.97114 0.55298 0.4841 0.0
C251 C 0.98539 0.56766 0.47891 0.0
C252 C 0.86107 0.75681 0.75359 0.0
C253 C 0.86491 0.77086 0.73902 0.0
C254 C 0.85218 0.78647 0.73676 0.0
C255 C 0.83588 0.78788 0.74858 0.0
H256 H 0.78322 0.81559 0.75157 0.0
H257 H 0.76134 0.84245 0.7461 0.0
H258 H 0.73444 0.8301 0.80133 0.0
H259 H 0.75595 0.80276 0.80656 0.0
H260 H 0.76249 0.75977 0.82387 0.0
H261 H 0.75717 0.73803 0.85142 0.0
H262 H 0.81443 0.71383 0.84389 0.0
H263 H 0.81998 0.73586 0.81627 0.0
H264 H 0.8422 0.74703 0.77641 0.0
H265 H 0.87042 0.74445 0.75558 0.0
H266 H 0.85486 0.79773 0.7259 0.0
H267 H 0.82642 0.80012 0.74633 0.0
N268 N 0.80138 0.78949 0.77198 0.0
N269 N 0.78237 0.77809 0.79791 0.0
N270 N 0.81118 0.76225 0.79021 0.0
C271 C 0.78534 0.79108 0.78317 0.0
C272 C 0.79516 0.76361 0.80152 0.0
C273 C 0.81439 0.77516 0.77538 0.0
C274 C 0.77148 0.80705 0.77957 0.0
C275 C 0.77262 0.81852 0.76255 0.0
C276 C 0.76011 0.83402 0.75945 0.0
C277 C 0.74624 0.83861 0.77338 0.0
C278 C 0.7448 0.82689 0.79022 0.0
C279 C 0.75724 0.81126 0.79326 0.0
C280 C 0.79172 0.74968 0.81783 0.0
C281 C 0.77397 0.7498 0.82796 0.0
C282 C 0.77082 0.73718 0.84369 0.0
C283 C 0.78534 0.72413 0.84979 0.0
C284 C 0.80302 0.72381 0.8396 0.0
C285 C 0.80614 0.73639 0.82372 0.0
C286 C 0.8319 0.77373 0.76304 0.0
C287 C 0.84478 0.75823 0.76547 0.0
C288 C 0.35851 0.26549 0.24578 0.0
C289 C 0.35967 0.27766 0.22922 0.0
C290 C 0.34478 0.29104 0.22559 0.0
C291 C 0.32897 0.29211 0.23802 0.0
H292 H 0.27773 0.31976 0.24307 0.0
H293 H 0.2553 0.34617 0.23746 0.0
H294 H 0.22924 0.33415 0.29315 0.0
H295 H 0.25136 0.30733 0.29861 0.0
H296 H 0.26168 0.26773 0.31912 0.0
H297 H 0.25863 0.24882 0.3489 0.0
H298 H 0.3165 0.22597 0.34138 0.0
H299 H 0.31957 0.24483 0.31109 0.0
H300 H 0.34208 0.25685 0.2708 0.0
H301 H 0.36969 0.25492 0.24889 0.0
H302 H 0.34539 0.30085 0.21315 0.0
H303 H 0.31781 0.30263 0.23461 0.0
N304 N 0.29668 0.29451 0.26364 0.0
N305 N 0.27941 0.28422 0.29105 0.0
N306 N 0.3087 0.26916 0.28332 0.0
C307 C 0.28108 0.2962 0.27533 0.0
C308 C 0.29306 0.27062 0.29515 0.0
C309 C 0.31056 0.28108 0.26747 0.0
C310 C 0.26653 0.31149 0.27139 0.0
C311 C 0.26716 0.32263 0.25411 0.0
C312 C 0.25434 0.33786 0.25091 0.0
C313 C 0.24061 0.34244 0.26495 0.0
C314 C 0.23952 0.33093 0.28196 0.0
C315 C 0.25231 0.3156 0.28513 0.0
C316 C 0.291 0.25803 0.31274 0.0
C317 C 0.27382 0.25869 0.32367 0.0
C318 C 0.27207 0.24788 0.34085 0.0
C319 C 0.28745 0.23613 0.34767 0.0
C320 C 0.30438 0.23487 0.33647 0.0
C321 C 0.30615 0.24574 0.31916 0.0
C322 C 0.32759 0.27982 0.25447 0.0
C323 C 0.34261 0.26653 0.25826 0.0
C324 C 0.50529 0.92155 0.50379 0.0
C325 C 0.49212 0.91852 0.48733 0.0
C326 C 0.4768 0.93153 0.48401 0.0
C327 C 0.47449 0.94701 0.49705 0.0
H328 H 0.43987 0.9931 0.50697 0.0
H329 H 0.41363 0.01582 0.50079 0.0
H330 H 0.42897 0.04431 0.55645 0.0
H331 H 0.45553 0.02186 0.56253 0.0
H332 H 0.48801 0.00111 0.59255 0.0
H333 H 0.51012 0.00323 0.62197 0.0
H334 H 0.55281 0.96953 0.59277 0.0
H335 H 0.53049 0.96676 0.56387 0.0
H336 H 0.51327 0.93862 0.52949 0.0
H337 H 0.51708 0.91163 0.50695 0.0
H338 H 0.46654 0.92973 0.47135 0.0
H339 H 0.46239 0.95662 0.49412 0.0
N340 N 0.46937 0.9779 0.52534 0.0
N341 N 0.47863 0.99392 0.55512 0.0
N342 N 0.49666 0.96769 0.54452 0.0
C343 C 0.46635 0.99212 0.53871 0.0
C344 C 0.49387 0.98176 0.55809 0.0
C345 C 0.48448 0.9656 0.52814 0.0
C346 C 0.44994 0.00564 0.53524 0.0
C347 C 0.43768 0.00417 0.51795 0.0
C348 C 0.42251 0.01714 0.51443 0.0
C349 C 0.4192 0.03191 0.5281 0.0
C350 C 0.4313 0.03328 0.54547 0.0
C351 C 0.44649 0.02031 0.54901 0.0
C352 C 0.5074 0.98367 0.57587 0.0
C353 C 0.50212 0.99415 0.59245 0.0
C354 C 0.51486 0.99543 0.60931 0.0
C355 C 0.53325 0.98643 0.60989 0.0
C356 C 0.53858 0.97623 0.59314 0.0
C357 C 0.5258 0.97476 0.57643 0.0
C358 C 0.48743 0.94979 0.51375 0.0
C359 C 0.50299 0.93698 0.51682 0.0
C360 C 0.24548 0.26672 0.66876 0.0
C361 C 0.22882 0.25714 0.65914 0.0
C362 C 0.20964 0.26274 0.66322 0.0
C363 C 0.20717 0.2777 0.6768 0.0
H364 H 0.17484 0.28903 0.72826 0.0
H365 H 0.14872 0.28694 0.75168 0.0
H366 H 0.1643 0.3465 0.77044 0.0
H367 H 0.19093 0.34841 0.7474 0.0
H368 H 0.23145 0.36938 0.73313 0.0
H369 H 0.25756 0.3955 0.73697 0.0
H370 H 0.29708 0.36095 0.70471 0.0
H371 H 0.27115 0.3348 0.70089 0.0
H372 H 0.25617 0.28933 0.689 0.0
H373 H 0.26041 0.26268 0.66571 0.0
H374 H 0.19661 0.25552 0.65589 0.0
H375 H 0.19222 0.28179 0.67965 0.0
N376 N 0.20483 0.30434 0.71055 0.0
N377 N 0.21686 0.33405 0.72514 0.0
N378 N 0.23564 0.31873 0.702 0.0
C379 C 0.20251 0.31928 0.72333 0.0
C380 C 0.23345 0.33391 0.7145 0.0
C381 C 0.22134 0.30399 0.69985 0.0
C382 C 0.18519 0.31882 0.73606 0.0
C383 C 0.17261 0.30179 0.73721 0.0
C384 C 0.15748 0.30063 0.75059 0.0
C385 C 0.15444 0.31651 0.76307 0.0
C386 C 0.16646 0.33385 0.76132 0.0
C387 C 0.18169 0.33497 0.74803 0.0
C388 C 0.24917 0.34993 0.71673 0.0
C389 C 0.2457 0.36732 0.72686 0.0
C390 C 0.26061 0.38235 0.72897 0.0
C391 C 0.27937 0.38024 0.72118 0.0
C392 C 0.28284 0.3629 0.71105 0.0
C393 C 0.2679 0.34796 0.70877 0.0
C394 C 0.22386 0.28764 0.6861 0.0
C395 C 0.24304 0.282 0.68196 0.0
C396 C 0.77472 0.15472 0.73674 0.0
C397 C 0.75444 0.15649 0.73159 0.0
C398 C 0.7478 0.17467 0.72529 0.0
C399 C 0.76135 0.19078 0.72377 0.0
H400 H 0.77099 0.241 0.6907 0.0
H401 H 0.76502 0.26421 0.6644 0.0
H402 H 0.826 0.28722 0.67144 0.0
H403 H 0.83214 0.26381 0.6978 0.0
H404 H 0.85927 0.24828 0.73428 0.0
H405 H 0.88794 0.25246 0.75756 0.0
H406 H 0.86308 0.20609 0.7933 0.0
H407 H 0.83449 0.20182 0.77022 0.0
H408 H 0.80376 0.16914 0.73972 0.0
H409 H 0.78011 0.14082 0.74174 0.0
H410 H 0.73221 0.1763 0.72124 0.0
H411 H 0.75589 0.20461 0.71866 0.0
N412 N 0.79254 0.22013 0.71371 0.0
N413 N 0.82286 0.23677 0.72325 0.0
N414 N 0.81304 0.20746 0.7388 0.0
C415 C 0.8059 0.2355 0.71155 0.0
C416 C 0.82646 0.22287 0.73701 0.0
C417 C 0.79606 0.20601 0.7272 0.0
C418 C 0.80209 0.25044 0.69632 0.0
C419 C 0.78315 0.25104 0.68676 0.0
C420 C 0.77966 0.26447 0.67177 0.0
C421 C 0.79504 0.27755 0.66589 0.0
C422 C 0.81391 0.27721 0.6756 0.0
C423 C 0.81738 0.26386 0.69075 0.0
C424 C 0.84447 0.22478 0.75041 0.0
C425 C 0.85994 0.2389 0.74705 0.0
C426 C 0.87642 0.24125 0.76031 0.0
C427 C 0.87763 0.2297 0.77728 0.0
C428 C 0.86239 0.21536 0.78044 0.0
C429 C 0.84606 0.21286 0.76713 0.0
C430 C 0.78167 0.18907 0.72901 0.0
C431 C 0.78819 0.17093 0.73568 0.0
C432 C 0.47896 0.52784 0.56584 0.0
C433 C 0.48552 0.51766 0.58261 0.0
C434 C 0.50325 0.50762 0.58195 0.0
C435 C 0.5144 0.50823 0.56512 0.0
H436 H 0.56058 0.48219 0.5375 0.0
H437 H 0.59005 0.46325 0.5347 0.0
H438 H 0.60543 0.49583 0.48286 0.0
H439 H 0.57582 0.51447 0.48533 0.0
H440 H 0.54635 0.54514 0.46747 0.0
H441 H 0.54357 0.57386 0.44662 0.0
H442 H 0.50306 0.59797 0.48656 0.0
H443 H 0.50526 0.56906 0.50698 0.0
H444 H 0.48476 0.53685 0.5366 0.0
H445 H 0.46517 0.53538 0.56564 0.0
H446 H 0.50888 0.4998 0.59465 0.0
H447 H 0.52821 0.50073 0.5653 0.0
N448 N 0.53632 0.50952 0.52918 0.0
N449 N 0.54456 0.52646 0.50055 0.0
N450 N 0.51731 0.53547 0.51806 0.0
C451 C 0.54827 0.51205 0.51372 0.0
C452 C 0.52913 0.53823 0.50261 0.0
C453 C 0.52072 0.52113 0.53137 0.0
C454 C 0.56578 0.49993 0.51169 0.0
C455 C 0.57017 0.48528 0.52544 0.0
C456 C 0.58715 0.47449 0.52391 0.0
C457 C 0.60016 0.47809 0.50861 0.0
C458 C 0.59562 0.49252 0.4947 0.0
C459 C 0.57865 0.5033 0.49621 0.0
C460 C 0.52615 0.55483 0.489 0.0
C461 C 0.53668 0.55648 0.4717 0.0
C462 C 0.53517 0.57301 0.45978 0.0
C463 C 0.52322 0.58834 0.46496 0.0
C464 C 0.51219 0.58637 0.48193 0.0
C465 C 0.51356 0.56978 0.49375 0.0
C466 C 0.50817 0.51903 0.54863 0.0
C467 C 0.49017 0.52859 0.54911 0.0
C468 C 0.54695 0.4259 0.03281 0.0
C469 C 0.53129 0.412 0.02806 0.0
C470 C 0.51774 0.41598 0.01243 0.0
C471 C 0.51996 0.43327 0.00165 0.0
H472 H 0.49356 0.46374 0.95654 0.0
H473 H 0.47187 0.46842 0.92753 0.0
H474 H 0.50938 0.5185 0.91126 0.0
H475 H 0.53076 0.5142 0.94046 0.0
H476 H 0.56182 0.53238 0.97492 0.0
H477 H 0.59024 0.55542 0.98169 0.0
H478 H 0.61988 0.51139 0.01572 0.0
H479 H 0.59136 0.48821 0.00908 0.0
H480 H 0.56151 0.45349 0.02606 0.0
H481 H 0.55751 0.42342 0.04491 0.0
H482 H 0.50567 0.40548 0.00817 0.0
H483 H 0.50935 0.43566 0.98957 0.0
N484 N 0.52544 0.46874 0.97909 0.0
N485 N 0.54373 0.49784 0.97213 0.0
N486 N 0.55431 0.47801 0.99821 0.0
C487 C 0.52793 0.48506 0.96792 0.0
C488 C 0.55698 0.49444 0.98723 0.0
C489 C 0.53852 0.46511 0.9943 0.0
C490 C 0.51403 0.48851 0.95085 0.0
C491 C 0.49713 0.47586 0.94687 0.0
C492 C 0.48471 0.47848 0.93017 0.0
C493 C 0.4889 0.49378 0.91697 0.0
C494 C 0.50552 0.50672 0.92121 0.0
C495 C 0.51789 0.50415 0.93794 0.0
C496 C 0.57427 0.50844 0.99148 0.0
C497 C 0.57437 0.52755 0.98385 0.0
C498 C 0.5906 0.5408 0.9878 0.0
C499 C 0.60723 0.53519 0.99926 0.0
C500 C 0.60728 0.51605 0.00676 0.0
C501 C 0.5909 0.50285 0.00304 0.0
C502 C 0.5358 0.44705 0.00619 0.0
C503 C 0.54919 0.4432 0.02202 0.0
C504 C 0.73447 0.24763 0.33745 0.0
C505 C 0.72033 0.26156 0.34079 0.0
C506 C 0.70312 0.26179 0.32831 0.0
C507 C 0.70014 0.24835 0.31278 0.0
H508 H 0.6724 0.24027 0.2566 0.0
H509 H 0.64555 0.24378 0.23181 0.0
H510 H 0.64982 0.18339 0.21435 0.0
H511 H 0.67688 0.1798 0.23911 0.0
H512 H 0.72527 0.16539 0.24705 0.0
H513 H 0.75116 0.14186 0.24406 0.0
H514 H 0.77564 0.15843 0.30173 0.0
H515 H 0.7502 0.18205 0.30463 0.0
H516 H 0.74268 0.22359 0.32008 0.0
H517 H 0.74773 0.24686 0.347 0.0
H518 H 0.692 0.27242 0.33049 0.0
H519 H 0.68671 0.24889 0.30344 0.0
N520 N 0.69599 0.2211 0.27971 0.0
N521 N 0.70598 0.19294 0.26372 0.0
N522 N 0.72365 0.20486 0.29206 0.0
C523 C 0.69327 0.20777 0.26484 0.0
C524 C 0.72124 0.19141 0.27735 0.0
C525 C 0.71114 0.21971 0.2934 0.0
C526 C 0.67683 0.20974 0.24984 0.0
C527 C 0.66763 0.22769 0.24753 0.0
C528 C 0.65231 0.22976 0.23327 0.0
C529 C 0.64564 0.21387 0.22117 0.0
C530 C 0.65462 0.19584 0.22358 0.0
C531 C 0.67018 0.19384 0.23767 0.0
C532 C 0.73574 0.17583 0.27597 0.0
C533 C 0.73607 0.1639 0.25915 0.0
C534 C 0.75086 0.15034 0.25747 0.0
C535 C 0.76561 0.14843 0.27257 0.0
C536 C 0.76478 0.15982 0.28966 0.0
C537 C 0.75008 0.17335 0.29132 0.0
C538 C 0.71425 0.23429 0.30956 0.0
C539 C 0.73146 0.23416 0.32207 0.0
C540 C 0.48943 0.07937 0.99303 0.0
C541 C 0.47927 0.08026 0.01055 0.0
C542 C 0.46589 0.06458 0.01511 0.0
C543 C 0.46245 0.04863 0.0023 0.0
H544 H 0.42453 0.00086 0.99148 0.0
H545 H 0.39606 0.97829 0.99611 0.0
H546 H 0.40363 0.95248 0.93922 0.0
H547 H 0.43258 0.97474 0.93476 0.0
H548 H 0.47417 0.9855 0.91353 0.0
H549 H 0.49645 0.98218 0.88651 0.0
H550 H 0.53152 0.03345 0.90743 0.0
H551 H 0.50932 0.03703 0.93399 0.0
H552 H 0.49401 0.06333 0.96682 0.0
H553 H 0.4996 0.09129 0.98886 0.0
H554 H 0.45807 0.06459 0.02863 0.0
H555 H 0.45196 0.03689 0.00626 0.0
N556 N 0.45256 0.0184 0.97302 0.0
N557 N 0.46052 0.00118 0.94485 0.0
N558 N 0.48021 0.02889 0.95548 0.0
C559 C 0.44847 0.00336 0.96012 0.0
C560 C 0.47649 0.01389 0.94248 0.0
C561 C 0.46837 0.03125 0.97079 0.0
C562 C 0.43095 0.98963 0.96275 0.0
C563 C 0.42016 0.99042 0.97989 0.0
C564 C 0.40369 0.97754 0.98251 0.0
C565 C 0.39746 0.96359 0.96802 0.0
C566 C 0.40816 0.96287 0.9508 0.0
C567 C 0.42473 0.9757 0.94822 0.0
C568 C 0.48984 0.01159 0.92596 0.0
C569 C 0.4866 0.99611 0.91232 0.0
C570 C 0.49941 0.99413 0.89688 0.0
C571 C 0.51567 0.00764 0.89471 0.0
C572 C 0.51892 0.02301 0.90841 0.0
C573 C 0.5062 0.02497 0.92378 0.0
C574 C 0.47244 0.04787 0.98468 0.0
C575 C 0.48611 0.06335 0.9803 0.0
Mg576 Mg 0.23892 0.85211 0.00696 0.0
O577 O 0.26866 0.86872 0.00019 0.0
O578 O 0.29212 0.84666 0.0024 0.0
Mg579 Mg 0.278 0.8167 0.00973 0.0
C580 C 0.28681 0.86412 0.99931 0.0
C581 C 0.2032 0.87316 0.98928 0.0
O582 O 0.19776 0.85455 0.98652 0.0
O583 O 0.23739 0.8381 0.9766 0.0
O584 O 0.26105 0.81628 0.97953 0.0
O585 O 0.24444 0.85779 0.03894 0.0
O586 O 0.25416 0.83169 0.02357 0.0
C587 C 0.24726 0.82447 0.96954 0.0
C588 C 0.25382 0.8417 0.03958 0.0
O589 O 0.22059 0.87759 0.99659 0.0
Mg590 Mg 0.14752 0.50476 0.27057 0.0
O591 O 0.12967 0.50477 0.24078 0.0
O592 O 0.15168 0.5101 0.21757 0.0
Mg593 Mg 0.18304 0.51285 0.23183 0.0
C594 C 0.1338 0.50708 0.2228 0.0
C595 C 0.10429 0.50274 0.2845 0.0
O596 O 0.10372 0.51722 0.27186 0.0
O597 O 0.15758 0.47392 0.26423 0.0
O598 O 0.17979 0.48067 0.24146 0.0
O599 O 0.14652 0.53738 0.2732 0.0
O600 O 0.17039 0.52239 0.25907 0.0
C601 C 0.17058 0.46852 0.25252 0.0
C602 C 0.16277 0.53857 0.26372 0.0
O603 O 0.12012 0.49339 0.28651 0.0
Mg604 Mg 0.76938 0.65026 0.02475 0.0
O605 O 0.73901 0.63287 0.0209 0.0
O606 O 0.71596 0.65525 0.01744 0.0
Mg607 Mg 0.73074 0.68603 0.02005 0.0
C608 C 0.72087 0.63744 0.01816 0.0
C609 C 0.8039 0.62583 0.01315 0.0
O610 O 0.80978 0.64374 0.00827 0.0
O611 O 0.76828 0.65795 0.99211 0.0
O612 O 0.74561 0.6808 0.99097 0.0
O613 O 0.76678 0.65137 0.05726 0.0
O614 O 0.7557 0.67379 0.03689 0.0
C615 C 0.75824 0.67056 0.98268 0.0
C616 C 0.75753 0.66738 0.05457 0.0
O617 O 0.78661 0.62293 0.01973 0.0
Mg618 Mg 0.90903 0.03161 0.24206 0.0
O619 O 0.88993 0.0029 0.23759 0.0
O620 O 0.91036 0.97922 0.23088 0.0
Mg621 Mg 0.94232 0.99243 0.23178 0.0
C622 C 0.89293 0.98506 0.23345 0.0
C623 C 0.88227 0.06494 0.24975 0.0
O624 O 0.89733 0.07312 0.2406 0.0
O625 O 0.91959 0.02157 0.27258 0.0
O626 O 0.94056 0.99869 0.26485 0.0
O627 O 0.90671 0.03746 0.20994 0.0
O628 O 0.93075 0.0211 0.22435 0.0
C629 C 0.93216 0.00887 0.27757 0.0
C630 C 0.92238 0.02742 0.20839 0.0
O631 O 0.88243 0.04675 0.25365 0.0
Mg632 Mg 0.27731 0.15311 0.52005 0.0
O633 O 0.24797 0.13407 0.51562 0.0
O634 O 0.22344 0.15502 0.51313 0.0
Mg635 Mg 0.23619 0.18642 0.51762 0.0
C636 C 0.22952 0.1376 0.51299 0.0
C637 C 0.31395 0.13114 0.50887 0.0
O638 O 0.31985 0.14957 0.50631 0.0
O639 O 0.27534 0.1624 0.48776 0.0
O640 O 0.25136 0.18387 0.48836 0.0
O641 O 0.27545 0.15265 0.55275 0.0
O642 O 0.26195 0.17474 0.53347 0.0
C643 C 0.26447 0.17498 0.47928 0.0
C644 C 0.26478 0.16782 0.55083 0.0
O645 O 0.29613 0.12721 0.51365 0.0
Mg646 Mg 0.40533 0.5321 0.74522 0.0
O647 O 0.3873 0.50287 0.73973 0.0
O648 O 0.40861 0.48015 0.73251 0.0
Mg649 Mg 0.44014 0.49444 0.73408 0.0
C650 C 0.39093 0.48531 0.73511 0.0
C651 C 0.3622 0.54567 0.74595 0.0
O652 O 0.36197 0.53639 0.72904 0.0
O653 O 0.41593 0.52139 0.77553 0.0
O654 O 0.43775 0.49954 0.76724 0.0
O655 O 0.40334 0.53889 0.7132 0.0
O656 O 0.42768 0.52288 0.72748 0.0
C657 C 0.42889 0.50895 0.7802 0.0
C658 C 0.41936 0.52941 0.71159 0.0
O659 O 0.37798 0.54593 0.75702 0.0
Mg660 Mg 0.73769 0.35458 0.50887 0.0
O661 O 0.76713 0.37221 0.50337 0.0
O662 O 0.79106 0.35057 0.50454 0.0
Mg663 Mg 0.77772 0.32021 0.51179 0.0
C664 C 0.78535 0.36798 0.50208 0.0
C665 C 0.72018 0.39585 0.508 0.0
O666 O 0.73393 0.39838 0.52223 0.0
O667 O 0.7375 0.34152 0.47801 0.0
O668 O 0.76118 0.31983 0.48153 0.0
O669 O 0.74212 0.35948 0.54114 0.0
O670 O 0.7532 0.33429 0.52536 0.0
C671 C 0.74767 0.32801 0.47114 0.0
C672 C 0.75214 0.34379 0.54158 0.0
O673 O 0.71888 0.37972 0.49857 0.0
Mg674 Mg 0.65344 0.00197 0.7672 0.0
O675 O 0.63502 -0.0002 0.73784 0.0
O676 O 0.65677 0.0011 0.71399 0.0
Mg677 Mg 0.68844 0.00493 0.72755 0.0
C678 C 0.63893 0.99957 0.71968 0.0
C679 C 0.62609 0.00366 0.8002 0.0
O680 O 0.6414 0.01599 0.80427 0.0
O681 O 0.66258 0.97015 0.764 0.0
O682 O 0.68468 0.97417 0.74062 0.0
O683 O 0.65351 0.03482 0.76619 0.0
O684 O 0.67671 0.01734 0.75396 0.0
C685 C 0.6754 0.96335 0.75284 0.0
C686 C 0.66979 0.03425 0.75684 0.0
O687 O 0.626 0.99356 0.7845 0.0
Mg688 Mg 0.03426 0.26078 0.89794 0.0
O689 O 0.00512 0.25374 0.87942 0.0
O690 O 0.98272 0.24149 0.89996 0.0
Mg691 Mg 0.99651 0.24197 0.93105 0.0
C692 C 0.98771 0.24643 0.88276 0.0
C693 C 0.06686 0.27965 0.87418 0.0
O694 O 0.07605 0.27346 0.89024 0.0
O695 O 0.0215 0.28843 0.90998 0.0
O696 O 0.99892 0.27572 0.93013 0.0
O697 O 0.04337 0.2301 0.89414 0.0
O698 O 0.02588 0.23989 0.91861 0.0
C699 C 0.00801 0.29041 0.92231 0.0
C700 C 0.03369 0.22576 0.90965 0.0
O701 O 0.04799 0.27721 0.87244 0.0
Mg702 Mg 0.53259 0.75867 0.39554 0.0
O703 O 0.50258 0.7521 0.37862 0.0
O704 O 0.48086 0.74066 0.40022 0.0
Mg705 Mg 0.49645 0.74062 0.43064 0.0
C706 C 0.48518 0.7454 0.38277 0.0
C707 C 0.55668 0.78978 0.3713 0.0
O708 O 0.56043 0.79707 0.38901 0.0
O709 O 0.52078 0.78656 0.40804 0.0
O710 O 0.49986 0.77436 0.42998 0.0
O711 O 0.54083 0.72787 0.39109 0.0
O712 O 0.52493 0.73785 0.41659 0.0
C713 C 0.50851 0.78891 0.42148 0.0
C714 C 0.53181 0.7236 0.40701 0.0
O715 O 0.54496 0.77464 0.36912 0.0
Mg716 Mg 0.98686 0.74682 0.60102 0.0
O717 O 0.01585 0.74039 0.61877 0.0
O718 O 0.03846 0.73332 0.59714 0.0
Mg719 Mg 0.0247 0.73611 0.56616 0.0
C720 C 0.03331 0.73547 0.61477 0.0
C721 C 0.97091 0.74769 0.64312 0.0
O722 O 0.97839 0.73029 0.64302 0.0
O723 O 0.99993 0.77699 0.59276 0.0
O724 O 0.02222 0.76936 0.571 0.0
O725 O 0.97732 0.71507 0.60058 0.0
O726 O 0.99518 0.72945 0.57784 0.0
C727 C 0.0132 0.78199 0.58067 0.0
C728 C 0.98698 0.7136 0.58471 0.0
O729 O 0.97294 0.7587 0.62825 0.0
Mg730 Mg 0.4901 0.23986 0.10369 0.0
O731 O 0.51967 0.23404 0.12053 0.0
O732 O 0.54188 0.22807 0.09813 0.0
Mg733 Mg 0.5265 0.22873 0.06756 0.0
C734 C 0.53726 0.23013 0.11594 0.0
C735 C 0.46402 0.26466 0.12931 0.0
O736 O 0.46001 0.27175 0.11177 0.0
O737 O 0.50259 0.27003 0.09435 0.0
O738 O 0.52311 0.26194 0.07113 0.0
O739 O 0.48088 0.20811 0.10442 0.0
O740 O 0.49769 0.22198 0.08065 0.0
C741 C 0.51469 0.27481 0.08105 0.0
C742 C 0.48991 0.20627 0.08823 0.0
O743 O 0.47708 0.25191 0.13126 0.0
H744 H 0.19644 0.74855 0.87924 0.0
H745 H 0.23803 0.78472 0.84707 0.0
H746 H 0.20387 0.76907 0.90852 0.0
H747 H 0.24594 0.80493 0.87656 0.0
H748 H 0.27173 0.80817 0.94406 0.0
H749 H 0.26242 0.79312 0.91214 0.0
H750 H 0.20149 0.80823 0.91824 0.0
H751 H 0.21085 0.82384 0.94999 0.0
C752 C 0.20705 0.761 0.87847 0.0
C753 C 0.21669 0.76516 0.86105 0.0
C754 C 0.21121 0.77274 0.89511 0.0
C755 C 0.22542 0.78853 0.89467 0.0
C756 C 0.2349 0.79283 0.87717 0.0
C757 C 0.23038 0.78136 0.86038 0.0
C758 C 0.25641 0.80853 0.93846 0.0
C759 C 0.242 0.81711 0.9495 0.0
C760 C 0.25113 0.80002 0.92019 0.0
C761 C 0.23127 0.79954 0.91286 0.0
C762 C 0.2169 0.80845 0.92367 0.0
C763 C 0.22228 0.81741 0.94174 0.0
H764 H 0.02357 0.53519 0.36978 0.0
H765 H 0.02511 0.47292 0.38034 0.0
H766 H 0.04434 0.53189 0.34186 0.0
H767 H 0.04543 0.46948 0.35182 0.0
H768 H 0.10361 0.47912 0.31694 0.0
H769 H 0.07937 0.47844 0.34247 0.0
H770 H 0.04399 0.51872 0.30892 0.0
H771 H 0.0684 0.51973 0.28363 0.0
C772 C 0.02831 0.52077 0.3661 0.0
C773 C 0.02281 0.50435 0.3774 0.0
C774 C 0.04 0.51882 0.3499 0.0
C775 C 0.0465 0.5004 0.34452 0.0
C776 C 0.04078 0.48389 0.35565 0.0
C777 C 0.02901 0.48584 0.37188 0.0
C778 C 0.0905 0.48758 0.31486 0.0
C779 C 0.08809 0.49969 0.29836 0.0
C780 C 0.07655 0.48714 0.32948 0.0
C781 C 0.05988 0.49876 0.32789 0.0
C782 C 0.0569 0.50994 0.31082 0.0
C783 C 0.07084 0.51041 0.29624 0.0
H784 H 0.75137 0.70324 0.85925 0.0
H785 H 0.8122 0.71689 0.87998 0.0
H786 H 0.74482 0.6865 0.89 0.0
H787 H 0.80564 0.70015 0.91077 0.0
H788 H 0.78963 0.65965 0.96136 0.0
H789 H 0.79658 0.66884 0.92757 0.0
H790 H 0.74186 0.69934 0.92315 0.0
H791 H 0.73483 0.69009 0.95652 0.0
C792 C 0.76338 0.70253 0.87032 0.0
C793 C 0.78222 0.71163 0.86729 0.0
C794 C 0.75964 0.69292 0.88792 0.0
C795 C 0.77464 0.6922 0.90291 0.0
C796 C 0.79381 0.70031 0.89945 0.0
C797 C 0.79756 0.70992 0.88181 0.0
C798 C 0.77896 0.66807 0.95304 0.0
C799 C 0.76174 0.67425 0.96169 0.0
C800 C 0.783 0.67342 0.93375 0.0
C801 C 0.76978 0.68482 0.92269 0.0
C802 C 0.75223 0.69034 0.93114 0.0
C803 C 0.74829 0.68515 0.95038 0.0
H804 H 0.97622 0.9677 0.39163 0.0
H805 H 0.98363 0.03092 0.39432 0.0
H806 H 0.9581 0.9699 0.36007 0.0
H807 H 0.96621 0.03306 0.36228 0.0
H808 H 0.92232 0.03084 0.30924 0.0
H809 H 0.93441 0.02774 0.3434 0.0
H810 H 0.96791 0.97829 0.3274 0.0
H811 H 0.95566 0.9811 0.29359 0.0
C812 C 0.97376 0.9821 0.38564 0.0
C813 C 0.98151 0.99913 0.3955 0.0
C814 C 0.96356 0.98334 0.36741 0.0
C815 C 0.96088 0.00164 0.35853 0.0
C816 C 0.9679 0.01873 0.36874 0.0
C817 C 0.97811 0.01749 0.387 0.0
C818 C 0.93208 0.01917 0.31307 0.0
C819 C 0.93807 0.00628 0.29861 0.0
C820 C 0.9391 0.01748 0.33263 0.0
C821 C 0.95215 0.00279 0.33814 0.0
C822 C 0.95767 0.98961 0.32376 0.0
C823 C 0.95073 0.99133 0.30428 0.0
H824 H 0.21771 0.25796 0.6205 0.0
H825 H 0.24637 0.22238 0.66439 0.0
H826 H 0.22483 0.23451 0.59517 0.0
H827 H 0.25237 0.19797 0.63941 0.0
H828 H 0.28263 0.17211 0.58714 0.0
H829 H 0.27246 0.19224 0.61398 0.0
H830 H 0.21839 0.20457 0.58032 0.0
H831 H 0.22944 0.18545 0.5531 0.0
C832 C 0.22516 0.24481 0.6247 0.0
C833 C 0.23157 0.24192 0.64426 0.0
C834 C 0.22914 0.23122 0.61024 0.0
C835 C 0.23924 0.21417 0.61509 0.0
C836 C 0.24498 0.21105 0.63493 0.0
C837 C 0.24142 0.22492 0.64931 0.0
C838 C 0.26847 0.17898 0.58564 0.0
C839 C 0.25695 0.17749 0.56799 0.0
C840 C 0.26253 0.19049 0.60108 0.0
C841 C 0.24464 0.20037 0.59939 0.0
C842 C 0.23256 0.19779 0.58204 0.0
C843 C 0.23879 0.1867 0.56643 0.0
H844 H 0.47872 0.48795 0.60899 0.0
H845 H 0.46718 0.54873 0.59792 0.0
H846 H 0.46161 0.48955 0.63972 0.0
H847 H 0.44982 0.55014 0.62835 0.0
H848 H 0.45302 0.51049 0.70372 0.0
H849 H 0.46762 0.50642 0.67205 0.0
H850 H 0.41935 0.53675 0.64389 0.0
H851 H 0.40466 0.54082 0.67562 0.0
C852 C 0.47257 0.50164 0.61309 0.0
C853 C 0.47435 0.5182 0.60093 0.0
C854 C 0.46272 0.50253 0.63067 0.0
C855 C 0.45433 0.51995 0.63643 0.0
C856 C 0.45584 0.5364 0.62416 0.0
C857 C 0.46578 0.53557 0.60668 0.0
C858 C 0.44534 0.51606 0.69077 0.0
C859 C 0.42763 0.52594 0.69222 0.0
C860 C 0.45371 0.51368 0.6726 0.0
C861 C 0.44465 0.52128 0.65548 0.0
C862 C 0.42678 0.5309 0.65687 0.0
C863 C 0.41833 0.53316 0.67503 0.0
H864 H 0.76305 0.29992 0.65848 0.0
H865 H 0.81887 0.28475 0.63509 0.0
H866 H 0.75521 0.31836 0.62878 0.0
H867 H 0.81124 0.30359 0.60552 0.0
H868 H 0.77346 0.31109 0.54707 0.0
H869 H 0.78634 0.29794 0.57794 0.0
H870 H 0.76507 0.34735 0.60898 0.0
H871 H 0.75209 0.36057 0.578 0.0
C872 C 0.77375 0.30075 0.64708 0.0
C873 C 0.79148 0.29077 0.64902 0.0
C874 C 0.76936 0.31146 0.63016 0.0
C875 C 0.78258 0.31234 0.61478 0.0
C876 C 0.80069 0.30301 0.61706 0.0
C877 C 0.80513 0.29238 0.63405 0.0
C878 C 0.77183 0.31936 0.56039 0.0
C879 C 0.76171 0.33687 0.56006 0.0
C880 C 0.77929 0.31185 0.5781 0.0
C881 C 0.77669 0.3216 0.59589 0.0
C882 C 0.76713 0.33942 0.59551 0.0
C883 C 0.75976 0.34702 0.57776 0.0
H884 H 0.55698 0.95811 0.62497 0.0
H885 H 0.54072 0.01759 0.63537 0.0
H886 H 0.58163 0.96107 0.65226 0.0
H887 H 0.56493 0.02012 0.66324 0.0
H888 H 0.59952 0.00716 0.7231 0.0
H889 H 0.57258 0.00366 0.69761 0.0
H890 H 0.61415 0.98298 0.6569 0.0
H891 H 0.641 0.98667 0.68207 0.0
C892 C 0.55862 0.97182 0.63303 0.0
C893 C 0.54701 0.98772 0.62769 0.0
C894 C 0.57266 0.97344 0.64875 0.0
C895 C 0.57524 0.99085 0.65975 0.0
C896 C 0.56312 0.00648 0.65505 0.0
C897 C 0.54923 0.00498 0.63911 0.0
C898 C 0.60286 0.00183 0.70872 0.0
C899 C 0.6224 0.99722 0.7046 0.0
C900 C 0.58749 -8e-05 0.69415 0.0
C901 C 0.59131 0.99299 0.67535 0.0
C902 C 0.61076 0.9882 0.67133 0.0
C903 C 0.62615 0.99043 0.68572 0.0
H904 H 0.87519 0.23333 0.81674 0.0
H905 H 0.91766 0.2336 0.77119 0.0
H906 H 0.9023 0.23777 0.84145 0.0
H907 H 0.94506 0.23751 0.79603 0.0
H908 H 0.98776 0.26296 0.84606 0.0
H909 H 0.96154 0.25953 0.82003 0.0
H910 H 0.92776 0.21946 0.85633 0.0
H911 H 0.95343 0.2234 0.88237 0.0
C912 C 0.89039 0.23416 0.81205 0.0
C913 C 0.89434 0.23293 0.79208 0.0
C914 C 0.90596 0.23664 0.82621 0.0
C915 C 0.92592 0.23773 0.82079 0.0
C916 C 0.92987 0.23687 0.80073 0.0
C917 C 0.91421 0.23458 0.7865 0.0
C918 C 0.97474 0.25339 0.84841 0.0
C919 C 0.97259 0.24363 0.86637 0.0
C920 C 0.95974 0.25135 0.83347 0.0
C921 C 0.94239 0.2394 0.83615 0.0
C922 C 0.94063 0.2292 0.85391 0.0
C923 C 0.95545 0.23138 0.86884 0.0
H924 H 0.46202 0.89414 0.4714 0.0
H925 H 0.52613 0.90372 0.47393 0.0
H926 H 0.46496 0.8642 0.45247 0.0
H927 H 0.52909 0.87335 0.45564 0.0
H928 H 0.52726 0.82378 0.41093 0.0
H929 H 0.52241 0.85645 0.42404 0.0
H930 H 0.47665 0.832 0.46056 0.0
H931 H 0.48117 0.79959 0.44734 0.0
C932 C 0.47673 0.89001 0.4677 0.0
C933 C 0.49385 0.90126 0.4743 0.0
C934 C 0.47842 0.87273 0.45702 0.0
C935 C 0.49727 0.86629 0.4527 0.0
C936 C 0.51435 0.87795 0.4586 0.0
C937 C 0.51266 0.89524 0.46929 0.0
C938 C 0.51601 0.82542 0.42159 0.0
C939 C 0.50469 0.80901 0.42815 0.0
C940 C 0.51331 0.84412 0.42917 0.0
C941 C 0.49918 0.84682 0.44337 0.0
C942 C 0.48748 0.8305 0.44946 0.0
C943 C 0.49021 0.81185 0.44196 0.0
H944 H 0.15846 0.33048 0.80076 0.0
H945 H 0.11724 0.29768 0.76099 0.0
H946 H 0.13597 0.32465 0.82724 0.0
H947 H 0.09522 0.29092 0.78783 0.0
H948 H 0.05311 0.29236 0.8381 0.0
H949 H 0.07298 0.30411 0.81095 0.0
H950 H 0.1269 0.29668 0.84656 0.0
H951 H 0.10718 0.2855 0.87364 0.0
C952 C 0.14448 0.32224 0.79756 0.0
C953 C 0.13976 0.31445 0.77872 0.0
C954 C 0.13169 0.31866 0.81285 0.0
C955 C 0.1139 0.30709 0.80975 0.0
C956 C 0.10875 0.29998 0.79073 0.0
C957 C 0.12151 0.30364 0.77539 0.0
C958 C 0.0692 0.29345 0.84016 0.0
C959 C 0.07856 0.28795 0.85802 0.0
C960 C 0.08059 0.30007 0.82457 0.0
C961 C 0.10155 0.30135 0.82656 0.0
C962 C 0.1108 0.29621 0.84458 0.0
C963 C 0.09947 0.28965 0.86011 0.0
H964 H 0.49168 0.61134 0.45625 0.0
H965 H 0.55472 0.60748 0.44784 0.0
H966 H 0.49259 0.64344 0.44055 0.0
H967 H 0.55538 0.63925 0.4317 0.0
H968 H 0.51254 0.70999 0.4391 0.0
H969 H 0.50904 0.67635 0.45061 0.0
H970 H 0.54173 0.65694 0.4018 0.0
H971 H 0.54508 0.69069 0.39004 0.0
C972 C 0.5057 0.61725 0.45099 0.0
C973 C 0.52316 0.60685 0.45348 0.0
C974 C 0.50618 0.6356 0.44194 0.0
C975 C 0.52407 0.64384 0.43499 0.0
C976 C 0.54134 0.63314 0.43672 0.0
C977 C 0.54091 0.61489 0.44594 0.0
C978 C 0.51872 0.69858 0.43061 0.0
C979 C 0.529 0.70305 0.41358 0.0
C980 C 0.51667 0.67927 0.43721 0.0
C981 C 0.52506 0.66404 0.42706 0.0
C982 C 0.5352 0.66844 0.40994 0.0
C983 C 0.53706 0.68774 0.40321 0.0
H984 H 0.90274 0.75967 0.74876 0.0
H985 H 0.8654 0.77782 0.69956 0.0
H986 H 0.93008 0.75579 0.72695 0.0
H987 H 0.89268 0.77407 0.67787 0.0
H988 H 0.94986 0.7808 0.64602 0.0
H989 H 0.92568 0.78792 0.6703 0.0
H990 H 0.93814 0.73395 0.70027 0.0
H991 H 0.96253 0.72697 0.67622 0.0
C992 C 0.90034 0.76278 0.7333 0.0
C993 C 0.88185 0.76904 0.72593 0.0
C994 C 0.91602 0.7606 0.72082 0.0
C995 C 0.9136 0.76468 0.70068 0.0
C996 C 0.89519 0.77116 0.69337 0.0
C997 C 0.87952 0.77329 0.70582 0.0
C998 C 0.94765 0.77058 0.65794 0.0
C999 C 0.95802 0.75323 0.65908 0.0
C1000 C 0.93368 0.7746 0.67178 0.0
C1001 C 0.92982 0.76141 0.68711 0.0
C1002 C 0.94084 0.7445 0.68873 0.0
C1003 C 0.95477 0.74045 0.67487 0.0
H1004 H 0.00445 0.88927 0.51922 0.0
H1005 H 0.05818 0.90184 0.55548 0.0
H1006 H 0.99922 0.85822 0.53607 0.0
H1007 H 0.05337 0.87006 0.5714 0.0
H1008 H 0.04738 0.79944 0.56731 0.0
H1009 H 0.05273 0.83338 0.55653 0.0
H1010 H 0.99341 0.84578 0.57281 0.0
H1011 H 0.98813 0.81194 0.58404 0.0
C1012 C 0.01503 0.88566 0.53093 0.0
C1013 C 0.03178 0.89826 0.5359 0.0
C1014 C 0.01203 0.86776 0.54051 0.0
C1015 C 0.02588 0.86182 0.55501 0.0
C1016 C 0.04253 0.87432 0.56017 0.0
C1017 C 0.04534 0.89244 0.55089 0.0
C1018 C 0.0356 0.8095 0.5689 0.0
C1019 C 0.01731 0.80302 0.57645 0.0
C1020 C 0.03871 0.82891 0.56281 0.0
C1021 C 0.02344 0.84209 0.56379 0.0
C1022 C 0.00537 0.83583 0.57187 0.0
C1023 C 0.00241 0.81652 0.57837 0.0
H1024 H 0.12155 0.68644 0.69505 0.0
H1025 H 0.12023 0.74714 0.71296 0.0
H1026 H 0.09534 0.6916 0.67 0.0
H1027 H 0.09354 0.75202 0.68826 0.0
H1028 H 0.03219 0.74596 0.6536 0.0
H1029 H 0.05725 0.74041 0.67993 0.0
H1030 H 0.09297 0.71146 0.63881 0.0
H1031 H 0.06816 0.71699 0.61257 0.0
C1032 C 0.11577 0.7009 0.69364 0.0
C1033 C 0.12317 0.71639 0.70601 0.0
C1034 C 0.10067 0.70381 0.67934 0.0
C1035 C 0.09242 0.72222 0.67718 0.0
C1036 C 0.09947 0.73762 0.68975 0.0
C1037 C 0.11474 0.73478 0.70393 0.0
C1038 C 0.04537 0.73837 0.6502 0.0
C1039 C 0.04817 0.73196 0.63096 0.0
C1040 C 0.05974 0.73529 0.66525 0.0
C1041 C 0.07702 0.72547 0.6614 0.0
C1042 C 0.07971 0.71889 0.64224 0.0
C1043 C 0.06552 0.72219 0.62719 0.0
H1044 H 0.9831 0.59046 0.54756 0.0
H1045 H 0.98103 0.62469 0.49445 0.0
H1046 H 0.98732 0.62056 0.56704 0.0
H1047 H 0.98478 0.65475 0.51382 0.0
H1048 H 0.00718 0.70559 0.55193 0.0
H1049 H 0.00727 0.67462 0.53424 0.0
H1050 H 0.96868 0.64755 0.57651 0.0
H1051 H 0.9693 0.67834 0.59464 0.0
C1052 C 0.98347 0.60444 0.54007 0.0
C1053 C 0.98174 0.60523 0.51949 0.0
C1054 C 0.98585 0.62169 0.55122 0.0
C1055 C 0.98638 0.64013 0.54203 0.0
C1056 C 0.98483 0.64085 0.52141 0.0
C1057 C 0.98261 0.62361 0.51028 0.0
C1058 C 0.99897 0.69297 0.55764 0.0
C1059 C 0.98825 0.69446 0.57472 0.0
C1060 C 0.99885 0.67523 0.54737 0.0
C1061 C 0.98784 0.65858 0.55383 0.0
C1062 C 0.97753 0.65997 0.57121 0.0
C1063 C 0.97778 0.67768 0.58156 0.0
H1064 H 0.80428 0.89482 0.1936 0.0
H1065 H 0.78968 0.90685 0.25335 0.0
H1066 H 0.83136 0.91996 0.19623 0.0
H1067 H 0.81651 0.93236 0.25572 0.0
H1068 H 0.85459 0.98942 0.24423 0.0
H1069 H 0.8264 0.96533 0.24116 0.0
H1070 H 0.86413 0.924 0.21531 0.0
H1071 H 0.89225 0.94794 0.21829 0.0
C1072 C 0.80686 0.90275 0.20732 0.0
C1073 C 0.79485 0.89867 0.22331 0.0
C1074 C 0.82234 0.91721 0.20878 0.0
C1075 C 0.82608 0.92806 0.2262 0.0
C1076 C 0.81384 0.92435 0.24204 0.0
C1077 C 0.79844 0.90976 0.24065 0.0
C1078 C 0.85686 0.97521 0.23785 0.0
C1079 C 0.8757 0.97062 0.23152 0.0
C1080 C 0.84075 0.9614 0.2362 0.0
C1081 C 0.84307 0.94282 0.22796 0.0
C1082 C 0.86184 0.93828 0.22152 0.0
C1083 C 0.87798 0.95198 0.22335 0.0
H1084 H 0.80494 0.15629 0.28275 0.0
H1085 H 0.76438 0.11116 0.257 0.0
H1086 H 0.83273 0.13546 0.27868 0.0
H1087 H 0.79246 0.09047 0.25233 0.0
H1088 H 0.84655 0.05218 0.26454 0.0
H1089 H 0.81802 0.07178 0.27086 0.0
H1090 H 0.8507 0.12364 0.25118 0.0
H1091 H 0.87912 0.10427 0.24514 0.0
C1092 C 0.80192 0.14184 0.27634 0.0
C1093 C 0.7824 0.13538 0.27025 0.0
C1094 C 0.8179 0.12999 0.27381 0.0
C1095 C 0.81483 0.11135 0.26509 0.0
C1096 C 0.79529 0.1047 0.25923 0.0
C1097 C 0.77925 0.11663 0.26171 0.0
C1098 C 0.84765 0.06779 0.26169 0.0
C1099 C 0.86513 0.07666 0.25438 0.0
C1100 C 0.83127 0.07898 0.26518 0.0
C1101 C 0.83211 0.09927 0.26156 0.0
C1102 C 0.84965 0.1081 0.25439 0.0
C1103 C 0.86593 0.09695 0.25083 0.0
H1104 H 0.36227 0.97068 0.98498 0.0
H1105 H 0.39359 0.9246 0.95824 0.0
H1106 H 0.33519 0.94708 0.99227 0.0
H1107 H 0.36609 0.90128 0.96457 0.0
H1108 H 0.32708 0.86064 0.00067 0.0
H1109 H 0.35285 0.88496 0.99241 0.0
H1110 H 0.30793 0.92633 0.97811 0.0
H1111 H 0.28196 0.90199 0.98693 0.0
C1112 C 0.36335 0.95554 0.98056 0.0
C1113 C 0.38022 0.94954 0.97116 0.0
C1114 C 0.34769 0.94206 0.98453 0.0
C1115 C 0.3485 0.92224 0.97913 0.0
C1116 C 0.36511 0.91636 0.96923 0.0
C1117 C 0.38079 0.92981 0.96535 0.0
C1118 C 0.32261 0.8749 0.99576 0.0
C1119 C 0.30238 0.8793 0.99442 0.0
C1120 C 0.33744 0.88884 0.99088 0.0
C1121 C 0.33249 0.90756 0.98439 0.0
C1122 C 0.31228 0.91209 0.98319 0.0
C1123 C 0.29738 0.89811 0.98818 0.0
H1124 H 0.2522 0.37837 0.25089 0.0
H1125 H 0.20126 0.34597 0.2733 0.0
H1126 H 0.23262 0.40705 0.24674 0.0
H1127 H 0.18154 0.37499 0.26922 0.0
H1128 H 0.16478 0.44045 0.28082 0.0
H1129 H 0.17986 0.40861 0.28302 0.0
H1130 H 0.20486 0.41833 0.22645 0.0
H1131 H 0.19023 0.4501 0.22442 0.0
C1132 C 0.23671 0.37726 0.25466 0.0
C1133 C 0.22827 0.35978 0.26225 0.0
C1134 C 0.22546 0.39374 0.25228 0.0
C1135 C 0.20544 0.39325 0.25745 0.0
C1136 C 0.19696 0.37585 0.26519 0.0
C1137 C 0.20825 0.35926 0.26754 0.0
C1138 C 0.17319 0.43561 0.26871 0.0
C1139 C 0.17658 0.44794 0.2526 0.0
C1140 C 0.18181 0.41736 0.26996 0.0
C1141 C 0.19388 0.41113 0.25507 0.0
C1142 C 0.19607 0.42293 0.23839 0.0
C1143 C 0.1876 0.44111 0.2372 0.0
H1144 H 0.14321 0.03917 0.522 0.0
H1145 H 0.13648 0.05816 0.46174 0.0
H1146 H 0.17145 0.06287 0.52736 0.0
H1147 H 0.16418 0.08223 0.46743 0.0
H1148 H 0.19241 0.13962 0.4957 0.0
H1149 H 0.1674 0.11306 0.4893 0.0
H1150 H 0.2073 0.07175 0.51514 0.0
H1151 H 0.23269 0.09847 0.52144 0.0
C1152 C 0.14787 0.04815 0.50982 0.0
C1153 C 0.13734 0.04686 0.49148 0.0
C1154 C 0.16403 0.06175 0.51293 0.0
C1155 C 0.16985 0.07448 0.49786 0.0
C1156 C 0.1598 0.07278 0.47939 0.0
C1157 C 0.14384 0.05906 0.47619 0.0
C1158 C 0.19594 0.1249 0.50004 0.0
C1159 C 0.21455 0.12118 0.50912 0.0
C1160 C 0.18163 0.10967 0.49623 0.0
C1161 C 0.18546 0.09036 0.50165 0.0
C1162 C 0.20399 0.08655 0.51086 0.0
C1163 C 0.21851 0.1018 0.51439 0.0
H1164 H 0.75595 0.12148 0.71295 0.0
H1165 H 0.7213 0.15293 0.753 0.0
H1166 H 0.73368 0.09243 0.71604 0.0
H1167 H 0.69961 0.12359 0.75723 0.0
H1168 H 0.65599 0.07123 0.7533 0.0
H1169 H 0.67488 0.10121 0.74455 0.0
H1170 H 0.7272 0.06781 0.73827 0.0
H1171 H 0.70806 0.038 0.74586 0.0
C1172 C 0.74355 0.12206 0.72249 0.0
C1173 C 0.74032 0.13929 0.73283 0.0
C1174 C 0.73084 0.10541 0.72441 0.0
C1175 C 0.7149 0.10546 0.7371 0.0
C1176 C 0.71149 0.12297 0.7471 0.0
C1177 C 0.72398 0.13977 0.74483 0.0
C1178 C 0.67146 0.07035 0.74976 0.0
C1179 C 0.68053 0.05228 0.75022 0.0
C1180 C 0.68236 0.08755 0.7449 0.0
C1181 C 0.70267 0.08707 0.74074 0.0
C1182 C 0.71154 0.06884 0.74093 0.0
C1183 C 0.70057 0.05168 0.74543 0.0
H1184 H 0.42126 0.07145 0.53507 0.0
H1185 H 0.38141 0.02441 0.51197 0.0
H1186 H 0.39541 0.09462 0.52887 0.0
H1187 H 0.35575 0.04778 0.50502 0.0
H1188 H 0.30829 0.09242 0.51877 0.0
H1189 H 0.33352 0.06809 0.52232 0.0
H1190 H 0.37788 0.1104 0.50203 0.0
H1191 H 0.35281 0.13482 0.49889 0.0
C1192 C 0.40697 0.06604 0.52869 0.0
C1193 C 0.4034 0.04605 0.52409 0.0
C1194 C 0.39222 0.07938 0.52487 0.0
C1195 C 0.37352 0.07309 0.51634 0.0
C1196 C 0.36994 0.05309 0.51173 0.0
C1197 C 0.38471 0.03973 0.51554 0.0
C1198 C 0.32338 0.09646 0.51486 0.0
C1199 C 0.32856 0.11563 0.50872 0.0
C1200 C 0.33784 0.08249 0.51683 0.0
C1201 C 0.35778 0.08736 0.51268 0.0
C1202 C 0.36275 0.10628 0.50575 0.0
C1203 C 0.34833 0.12025 0.50381 0.0
H1204 H 0.61612 0.46332 0.47573 0.0
H1205 H 0.62599 0.46807 0.53863 0.0
H1206 H 0.64655 0.44557 0.47375 0.0
H1207 H 0.65589 0.44965 0.53675 0.0
H1208 H 0.71762 0.43102 0.52671 0.0
H1209 H 0.68954 0.45223 0.52552 0.0
H1210 H 0.65863 0.41377 0.48248 0.0
H1211 H 0.68687 0.3928 0.48332 0.0
C1212 C 0.6248 0.46063 0.48913 0.0
C1213 C 0.61859 0.46709 0.50735 0.0
C1214 C 0.64215 0.4503 0.48801 0.0
C1215 C 0.65369 0.44622 0.50508 0.0
C1216 C 0.64752 0.45278 0.52327 0.0
C1217 C 0.6302 0.4631 0.52439 0.0
C1218 C 0.70497 0.42723 0.51677 0.0
C1219 C 0.70443 0.41011 0.50524 0.0
C1220 C 0.6888 0.43932 0.51621 0.0
C1221 C 0.67171 0.43456 0.50412 0.0
C1222 C 0.67159 0.41795 0.49188 0.0
C1223 C 0.68777 0.40587 0.49241 0.0
H1224 H 0.69311 0.27175 0.36716 0.0
H1225 H 0.75462 0.28221 0.35272 0.0
H1226 H 0.69953 0.29075 0.3974 0.0
H1227 H 0.76102 0.3012 0.38287 0.0
H1228 H 0.76999 0.30409 0.4501 0.0
H1229 H 0.76282 0.29111 0.41728 0.0
H1230 H 0.70924 0.32339 0.41247 0.0
H1231 H 0.71631 0.33636 0.44571 0.0
C1232 C 0.70788 0.27847 0.37023 0.0
C1233 C 0.72344 0.27525 0.35772 0.0
C1234 C 0.71155 0.28936 0.38754 0.0
C1235 C 0.73084 0.29725 0.39263 0.0
C1236 C 0.74609 0.29496 0.37954 0.0
C1237 C 0.74244 0.28408 0.36229 0.0
C1238 C 0.75671 0.30856 0.44208 0.0
C1239 C 0.74367 0.3212 0.45062 0.0
C1240 C 0.7527 0.30123 0.42315 0.0
C1241 C 0.7355 0.30628 0.41224 0.0
C1242 C 0.72256 0.31916 0.42059 0.0
C1243 C 0.72666 0.32664 0.43957 0.0
H1244 H 0.53146 0.03699 0.87222 0.0
H1245 H 0.5311 0.97423 0.88035 0.0
H1246 H 0.55705 0.03488 0.84832 0.0
H1247 H 0.55667 0.97214 0.85606 0.0
H1248 H 0.59261 0.97845 0.79827 0.0
H1249 H 0.56419 0.97837 0.81966 0.0
H1250 H 0.59291 0.02674 0.85279 0.0
H1251 H 0.62101 0.02687 0.83174 0.0
C1252 C 0.5368 0.02272 0.86886 0.0
C1253 C 0.52949 0.00583 0.87846 0.0
C1254 C 0.55142 0.02152 0.85513 0.0
C1255 C 0.55904 0.00338 0.85054 0.0
C1256 C 0.55101 0.9863 0.85929 0.0
C1257 C 0.53638 0.98752 0.87317 0.0
C1258 C 0.59283 0.98901 0.81017 0.0
C1259 C 0.60904 0.00271 0.81324 0.0
C1260 C 0.57661 0.98892 0.82241 0.0
C1261 C 0.57626 0.0027 0.83774 0.0
C1262 C 0.59259 0.01617 0.84089 0.0
C1263 C 0.60878 0.01614 0.82887 0.0
H1264 H 0.2748 0.25099 0.38162 0.0
H1265 H 0.29675 0.19834 0.35706 0.0
H1266 H 0.26959 0.23413 0.41239 0.0
H1267 H 0.29156 0.18131 0.38823 0.0
H1268 H 0.29649 0.168 0.45688 0.0
H1269 H 0.30307 0.18149 0.42437 0.0
H1270 H 0.24596 0.20776 0.42263 0.0
H1271 H 0.2395 0.19466 0.45486 0.0
C1272 C 0.27842 0.23575 0.38277 0.0
C1273 C 0.28584 0.2259 0.36678 0.0
C1274 C 0.27543 0.22608 0.40042 0.0
C1275 C 0.27981 0.20628 0.40261 0.0
C1276 C 0.28803 0.19657 0.38694 0.0
C1277 C 0.29101 0.20631 0.36914 0.0
C1278 C 0.28525 0.17642 0.4494 0.0
C1279 C 0.26761 0.18052 0.45861 0.0
C1280 C 0.28901 0.18412 0.4308 0.0
C1281 C 0.2752 0.19601 0.42115 0.0
C1282 C 0.25712 0.19908 0.42991 0.0
C1283 C 0.25339 0.19148 0.44838 0.0
H1284 H 0.47323 0.46433 0.89271 0.0
H1285 H 0.47706 0.52744 0.89887 0.0
H1286 H 0.45564 0.46732 0.86098 0.0
H1287 H 0.46025 0.53044 0.86664 0.0
H1288 H 0.41752 0.52887 0.81266 0.0
H1289 H 0.42922 0.52465 0.84681 0.0
H1290 H 0.46548 0.47789 0.82908 0.0
H1291 H 0.45361 0.48175 0.79531 0.0
C1292 C 0.47011 0.47885 0.88743 0.0
C1293 C 0.4767 0.49565 0.89834 0.0
C1294 C 0.46022 0.48057 0.8691 0.0
C1295 C 0.45671 0.49912 0.86115 0.0
C1296 C 0.46259 0.51592 0.87237 0.0
C1297 C 0.47247 0.5142 0.89074 0.0
C1298 C 0.42781 0.51755 0.81611 0.0
C1299 C 0.43466 0.50572 0.80118 0.0
C1300 C 0.43461 0.51521 0.83566 0.0
C1301 C 0.4483 0.50094 0.8407 0.0
C1302 C 0.45472 0.48883 0.82581 0.0
C1303 C 0.448 0.49117 0.80636 0.0
H1304 H 0.70074 0.74586 0.13403 0.0
H1305 H 0.75836 0.73429 0.16087 0.0
H1306 H 0.70555 0.72162 0.10848 0.0
H1307 H 0.76335 0.71039 0.13514 0.0
H1308 H 0.73755 0.70124 0.05325 0.0
H1309 H 0.72802 0.72088 0.08072 0.0
H1310 H 0.75103 0.67813 0.12119 0.0
H1311 H 0.76063 0.65835 0.0936 0.0
C1312 C 0.7143 0.73794 0.13462 0.0
C1313 C 0.72923 0.74205 0.14938 0.0
C1314 C 0.71713 0.72419 0.11991 0.0
C1315 C 0.73486 0.71417 0.11976 0.0
C1316 C 0.74945 0.71775 0.13495 0.0
C1317 C 0.74669 0.73158 0.14956 0.0
C1318 C 0.74026 0.6958 0.06796 0.0
C1319 C 0.74986 0.67821 0.07121 0.0
C1320 C 0.73474 0.70706 0.08373 0.0
C1321 C 0.73882 0.70108 0.10313 0.0
C1322 C 0.74787 0.6832 0.1064 0.0
C1323 C 0.75328 0.67184 0.09059 0.0
H1324 H 0.96976 0.04483 0.09471 0.0
H1325 H 0.97924 0.9835 0.10507 0.0
H1326 H 0.95286 0.04661 0.12533 0.0
H1327 H 0.96261 0.98548 0.13607 0.0
H1328 H 0.9077 0.03875 0.17242 0.0
H1329 H 0.92196 0.03391 0.14064 0.0
H1330 H 0.9693 0.00218 0.16865 0.0
H1331 H 0.9551 0.00701 0.20043 0.0
C1332 C 0.968 0.03163 0.10335 0.0
C1333 C 0.9758 0.01398 0.0973 0.0
C1334 C 0.95833 0.03268 0.12095 0.0
C1335 C 0.95634 0.01617 0.13307 0.0
C1336 C 0.96408 0.99849 0.1271 0.0
C1337 C 0.97365 0.99738 0.10937 0.0
C1338 C 0.92106 0.0306 0.1718 0.0
C1339 C 0.93026 0.02327 0.18899 0.0
C1340 C 0.92926 0.0279 0.1536 0.0
C1341 C 0.94679 0.01772 0.15217 0.0
C1342 C 0.95567 0.0099 0.16926 0.0
C1343 C 0.94754 0.01272 0.18749 0.0
H1344 H 0.26169 0.80014 0.15711 0.0
H1345 H 0.31663 0.78102 0.13492 0.0
H1346 H 0.25528 0.81814 0.12686 0.0
H1347 H 0.31043 0.79941 0.10472 0.0
H1348 H 0.25496 0.8594 0.0756 0.0
H1349 H 0.26713 0.84611 0.10684 0.0
H1350 H 0.2857 0.79488 0.07678 0.0
H1351 H 0.27366 0.80813 0.04562 0.0
C1352 C 0.2725 0.79997 0.14583 0.0
C1353 C 0.28957 0.78904 0.14829 0.0
C1354 C 0.26894 0.81044 0.12859 0.0
C1355 C 0.28233 0.81015 0.11339 0.0
C1356 C 0.29977 0.79977 0.11612 0.0
C1357 C 0.30339 0.78938 0.13345 0.0
C1358 C 0.2619 0.84543 0.07563 0.0
C1359 C 0.26327 0.83478 0.05812 0.0
C1360 C 0.26879 0.8378 0.09353 0.0
C1361 C 0.27727 0.81941 0.09428 0.0
C1362 C 0.27944 0.80919 0.07667 0.0
C1363 C 0.27247 0.81676 0.05879 0.0
H1364 H 0.06816 0.48228 0.11318 0.0
H1365 H 0.02253 0.50241 0.1498 0.0
H1366 H 0.0927 0.48696 0.14023 0.0
H1367 H 0.04744 0.50804 0.17672 0.0
H1368 H 0.09449 0.49483 0.22628 0.0
H1369 H 0.06858 0.49079 0.20004 0.0
H1370 H 0.11039 0.51295 0.15818 0.0
H1371 H 0.13627 0.51647 0.18411 0.0
C1372 C 0.06333 0.48768 0.12702 0.0
C1373 C 0.04332 0.49189 0.12929 0.0
C1374 C 0.0775 0.49064 0.14249 0.0
C1375 C 0.0721 0.49802 0.16065 0.0
C1376 C 0.05208 0.5022 0.16298 0.0
C1377 C 0.03785 0.49919 0.14747 0.0
C1378 C 0.09811 0.49891 0.21149 0.0
C1379 C 0.11754 0.50578 0.2073 0.0
C1380 C 0.08323 0.49668 0.19645 0.0
C1381 C 0.08745 0.50135 0.17694 0.0
C1382 C 0.10671 0.50878 0.17293 0.0
C1383 C 0.12156 0.5109 0.18788 0.0
H1384 H 0.38886 0.70232 0.30208 0.0
H1385 H 0.39516 0.7645 0.29045 0.0
H1386 H 0.41708 0.7054 0.32581 0.0
H1387 H 0.42369 0.76741 0.31393 0.0
H1388 H 0.4854 0.76006 0.34534 0.0
H1389 H 0.4589 0.75635 0.3196 0.0
H1390 H 0.42283 0.72164 0.35869 0.0
H1391 H 0.44915 0.72525 0.38434 0.0
C1392 C 0.39622 0.71665 0.30459 0.0
C1393 C 0.38958 0.73319 0.29447 0.0
C1394 C 0.41243 0.71838 0.31814 0.0
C1395 C 0.42251 0.73666 0.32179 0.0
C1396 C 0.41632 0.7531 0.31127 0.0
C1397 C 0.39999 0.75141 0.2978 0.0
C1398 C 0.47185 0.75158 0.34841 0.0
C1399 C 0.4694 0.74298 0.36692 0.0
C1400 C 0.45666 0.74954 0.3337 0.0
C1401 C 0.43884 0.73867 0.33714 0.0
C1402 C 0.43649 0.72992 0.35555 0.0
C1403 C 0.45155 0.73211 0.37029 0.0
H1404 H 0.00882 0.41224 0.96384 0.0
H1405 H 0.96476 0.37919 0.9959 0.0
H1406 H 0.01341 0.38354 0.94338 0.0
H1407 H 0.97006 0.35016 0.97653 0.0
H1408 H 0.97215 0.30287 0.9324 0.0
H1409 H 0.96522 0.33422 0.94694 0.0
H1410 H 0.02735 0.3533 0.94332 0.0
H1411 H 0.03377 0.32239 0.92749 0.0
C1412 C 1.0002 0.39874 0.96651 0.0
C1413 C 0.9864 0.39786 0.98133 0.0
C1414 C 0.00289 0.38224 0.95491 0.0
C1415 C 0.99212 0.36437 0.95818 0.0
C1416 C 0.97828 0.36367 0.9731 0.0
C1417 C 0.97532 0.38027 0.98437 0.0
C1418 C 0.98421 0.31395 0.93444 0.0
C1419 C 0.0035 0.31021 0.92893 0.0
C1420 C 0.98032 0.33188 0.94298 0.0
C1421 C 0.99577 0.34631 0.94676 0.0
C1422 C 0.01496 0.34276 0.94051 0.0
C1423 C 0.01872 0.32498 0.93149 0.0
H1424 H 0.65829 0.82455 0.30653 0.0
H1425 H 0.61365 0.81231 0.25995 0.0
H1426 H 0.63307 0.81968 0.33072 0.0
H1427 H 0.58821 0.80771 0.28419 0.0
H1428 H 0.55701 0.77433 0.33432 0.0
H1429 H 0.57914 0.78398 0.30844 0.0
H1430 H 0.60411 0.83221 0.34439 0.0
H1431 H 0.58235 0.82216 0.37056 0.0
C1432 C 0.64299 0.8212 0.30144 0.0
C1433 C 0.63797 0.81876 0.28134 0.0
C1434 C 0.62848 0.81845 0.31532 0.0
C1435 C 0.60857 0.81329 0.30943 0.0
C1436 C 0.60345 0.81138 0.28926 0.0
C1437 C 0.61801 0.81403 0.27537 0.0
C1438 C 0.56703 0.78715 0.33663 0.0
C1439 C 0.56807 0.79734 0.35461 0.0
C1440 C 0.57967 0.79276 0.32171 0.0
C1441 C 0.59357 0.80877 0.32438 0.0
C1442 C 0.59388 0.81956 0.342 0.0
C1443 C 0.58131 0.81388 0.35696 0.0
H1444 H 0.02673 0.09841 0.92825 0.0
H1445 H 0.03036 0.12531 0.98571 0.0
H1446 H 0.02712 0.13092 0.91317 0.0
H1447 H 0.03128 0.15762 0.97085 0.0
H1448 H 0.01291 0.21215 0.94073 0.0
H1449 H 0.01042 0.17901 0.95334 0.0
H1450 H 0.04809 0.15994 0.90809 0.0
H1451 H 0.04977 0.19312 0.89483 0.0
C1452 C 0.02775 0.11129 0.93762 0.0
C1453 C 0.0283 0.10936 0.95813 0.0
C1454 C 0.02803 0.12989 0.92902 0.0
C1455 C 0.02904 0.14692 0.94078 0.0
C1456 C 0.02995 0.14487 0.96131 0.0
C1457 C 0.0295 0.12635 0.96986 0.0
C1458 C 0.02042 0.20089 0.93324 0.0
C1459 C 0.03148 0.20532 0.91672 0.0
C1460 C 0.01919 0.18187 0.94064 0.0
C1461 C 0.02924 0.1668 0.93189 0.0
C1462 C 0.04 0.17113 0.9151 0.0
C1463 C 0.04106 0.19018 0.90756 0.0
H1464 H 0.35683 0.27804 0.18922 0.0
H1465 H 0.3996 0.27413 0.2381 0.0
H1466 H 0.38349 0.27666 0.16648 0.0
H1467 H 0.42648 0.27283 0.21522 0.0
H1468 H 0.46344 0.24742 0.16555 0.0
H1469 H 0.43917 0.25142 0.19055 0.0
H1470 H 0.41175 0.29612 0.15543 0.0
H1471 H 0.43567 0.2918 0.13025 0.0
C1472 C 0.37198 0.27709 0.19512 0.0
C1473 C 0.3761 0.27632 0.21548 0.0
C1474 C 0.38731 0.27636 0.18208 0.0
C1475 C 0.40719 0.27486 0.18901 0.0
C1476 C 0.41132 0.27386 0.20938 0.0
C1477 C 0.39593 0.27457 0.22249 0.0
C1478 C 0.4524 0.25829 0.16328 0.0
C1479 C 0.45135 0.26912 0.14578 0.0
C1480 C 0.43851 0.26063 0.17766 0.0
C1481 C 0.42331 0.27388 0.17487 0.0
C1482 C 0.42297 0.28545 0.15784 0.0
C1483 C 0.43679 0.28307 0.14346 0.0
H1484 H 0.56123 0.38866 0.04047 0.0
H1485 H 0.49726 0.39243 0.03988 0.0
H1486 H 0.5582 0.35669 0.05615 0.0
H1487 H 0.49417 0.36007 0.05485 0.0
H1488 H 0.49625 0.30682 0.09479 0.0
H1489 H 0.50105 0.34095 0.0845 0.0
H1490 H 0.54613 0.32423 0.04551 0.0
H1491 H 0.54168 0.29041 0.05596 0.0
C1492 C 0.54653 0.38278 0.04387 0.0
C1493 C 0.52948 0.39309 0.03881 0.0
C1494 C 0.54477 0.36434 0.05267 0.0
C1495 C 0.52593 0.35574 0.05662 0.0
C1496 C 0.50892 0.36632 0.05215 0.0
C1497 C 0.51067 0.38477 0.04334 0.0
C1498 C 0.50735 0.31047 0.0842 0.0
C1499 C 0.51851 0.29581 0.07615 0.0
C1500 C 0.51 0.33002 0.07821 0.0
C1501 C 0.52394 0.33532 0.06415 0.0
C1502 C 0.53545 0.32073 0.05655 0.0
C1503 C 0.53278 0.30126 0.06246 0.0
H1504 H 0.64277 0.24308 0.19421 0.0
H1505 H 0.61217 0.19004 0.21382 0.0
H1506 H 0.61622 0.24715 0.16904 0.0
H1507 H 0.58552 0.19416 0.18863 0.0
H1508 H 0.5324 0.22322 0.15505 0.0
H1509 H 0.55848 0.21916 0.18077 0.0
H1510 H 0.60349 0.22808 0.13812 0.0
H1511 H 0.57758 0.23196 0.11241 0.0
C1512 C 0.63031 0.23235 0.19317 0.0
C1513 C 0.62951 0.21624 0.20593 0.0
C1514 C 0.6152 0.23462 0.17872 0.0
C1515 C 0.59884 0.22097 0.17692 0.0
C1516 C 0.59791 0.20496 0.1898 0.0
C1517 C 0.6132 0.20252 0.20408 0.0
C1518 C 0.54786 0.22434 0.15117 0.0
C1519 C 0.55291 0.2279 0.13168 0.0
C1520 C 0.56275 0.22191 0.16587 0.0
C1521 C 0.58297 0.22332 0.16141 0.0
C1522 C 0.58802 0.22705 0.14198 0.0
C1523 C 0.57316 0.22918 0.12726 0.0
H1524 H 0.45107 0.09827 0.03085 0.0
H1525 H 0.51397 0.10203 0.01986 0.0
H1526 H 0.45541 0.12765 0.05118 0.0
H1527 H 0.51815 0.13177 0.0399 0.0
H1528 H 0.50814 0.19757 0.05443 0.0
H1529 H 0.50692 0.16621 0.03714 0.0
H1530 H 0.47214 0.13982 0.0827 0.0
H1531 H 0.47336 0.17117 0.10007 0.0
C1532 C 0.46588 0.10517 0.03298 0.0
C1533 C 0.48216 0.09774 0.02366 0.0
C1534 C 0.46835 0.12205 0.04462 0.0
C1535 C 0.48712 0.13201 0.04712 0.0
C1536 C 0.50346 0.12451 0.03804 0.0
C1537 C 0.50103 0.10752 0.02652 0.0
C1538 C 0.5005 0.18504 0.06094 0.0
C1539 C 0.49083 0.1869 0.07862 0.0
C1540 C 0.49984 0.16705 0.05104 0.0
C1541 C 0.48935 0.15059 0.05853 0.0
C1542 C 0.48014 0.15231 0.07647 0.0
C1543 C 0.48093 0.17026 0.08645 0.0
H1544 H 0.27638 0.41972 0.71589 0.0
H1545 H 0.31845 0.37626 0.73219 0.0
H1546 H 0.30302 0.44541 0.71904 0.0
H1547 H 0.34497 0.40186 0.73581 0.0
H1548 H 0.39181 0.4483 0.71996 0.0
H1549 H 0.36464 0.42349 0.71651 0.0
H1550 H 0.325 0.46323 0.74213 0.0
H1551 H 0.35211 0.48837 0.74499 0.0
C1552 C 0.29129 0.41571 0.72036 0.0
C1553 C 0.29537 0.39598 0.72368 0.0
C1554 C 0.30656 0.43042 0.72221 0.0
C1555 C 0.32621 0.42573 0.72758 0.0
C1556 C 0.33014 0.406 0.73123 0.0
C1557 C 0.31493 0.3913 0.72922 0.0
C1558 C 0.37731 0.45179 0.72485 0.0
C1559 C 0.37419 0.47033 0.73282 0.0
C1560 C 0.36172 0.43748 0.72299 0.0
C1561 C 0.34262 0.44125 0.72919 0.0
C1562 C 0.33944 0.45987 0.737 0.0
C1563 C 0.35503 0.47426 0.73874 0.0
H1564 H 0.27117 0.62932 0.73475 0.0
H1565 H 0.27218 0.61665 0.7968 0.0
H1566 H 0.29587 0.60508 0.73019 0.0
H1567 H 0.29704 0.59243 0.79222 0.0
H1568 H 0.35889 0.56957 0.77791 0.0
H1569 H 0.33212 0.59133 0.78399 0.0
H1570 H 0.30004 0.56986 0.73128 0.0
H1571 H 0.32686 0.54839 0.72503 0.0
C1572 C 0.27645 0.62117 0.74739 0.0
C1573 C 0.26965 0.62495 0.76614 0.0
C1574 C 0.29064 0.60726 0.74478 0.0
C1575 C 0.29842 0.59678 0.76084 0.0
C1576 C 0.29153 0.60042 0.77958 0.0
C1577 C 0.27729 0.61433 0.78219 0.0
C1578 C 0.34603 0.56935 0.76773 0.0
C1579 C 0.34511 0.55735 0.7509 0.0
C1580 C 0.33065 0.58177 0.77125 0.0
C1581 C 0.31402 0.58247 0.75801 0.0
C1582 C 0.3128 0.56995 0.74157 0.0
C1583 C 0.32815 0.55753 0.73806 0.0
H1584 H 0.87434 0.4646 0.50663 0.0
H1585 H 0.87698 0.44089 0.44801 0.0
H1586 H 0.84626 0.44168 0.51272 0.0
H1587 H 0.84949 0.4175 0.45455 0.0
H1588 H 0.82125 0.36326 0.48636 0.0
H1589 H 0.84664 0.38848 0.47875 0.0
H1590 H 0.80945 0.43315 0.49935 0.0
H1591 H 0.78369 0.40782 0.50683 0.0
C1592 C 0.86885 0.45471 0.49495 0.0
C1593 C 0.87811 0.45457 0.47685 0.0
C1594 C 0.85279 0.44155 0.4985 0.0
C1595 C 0.84581 0.4278 0.48413 0.0
C1596 C 0.85476 0.42783 0.46595 0.0
C1597 C 0.87061 0.44115 0.46229 0.0
C1598 C 0.81841 0.37845 0.48926 0.0
C1599 C 0.80046 0.38354 0.49724 0.0
C1600 C 0.83292 0.39288 0.48477 0.0
C1601 C 0.82997 0.41273 0.48843 0.0
C1602 C 0.81208 0.41792 0.49646 0.0
C1603 C 0.79735 0.40345 0.50065 0.0
H1604 H 0.70688 0.84234 0.78182 0.0
H1605 H 0.75776 0.87442 0.75887 0.0
H1606 H 0.68692 0.87108 0.77664 0.0
H1607 H 0.73782 0.9027 0.7534 0.0
H1608 H 0.69407 0.94207 0.72622 0.0
H1609 H 0.70908 0.91078 0.73114 0.0
H1610 H 0.68551 0.90657 0.78886 0.0
H1611 H 0.67018 0.93814 0.7839 0.0
C1612 C 0.71384 0.85549 0.77576 0.0
C1613 C 0.73389 0.85596 0.77054 0.0
C1614 C 0.70239 0.8719 0.77276 0.0
C1615 C 0.71073 0.88902 0.76436 0.0
C1616 C 0.73082 0.88956 0.75947 0.0
C1617 C 0.74225 0.8733 0.76256 0.0
C1618 C 0.69181 0.93441 0.7399 0.0
C1619 C 0.6812 0.94277 0.75481 0.0
C1620 C 0.70049 0.9165 0.74272 0.0
C1621 C 0.69884 0.90645 0.76054 0.0
C1622 C 0.68706 0.91404 0.77498 0.0
C1623 C 0.67828 0.93209 0.77214 0.0
H1624 H 0.60618 0.5729 0.01202 0.0
H1625 H 0.64691 0.52949 0.99578 0.0
H1626 H 0.63399 0.59685 0.01749 0.0
H1627 H 0.67486 0.55365 0.00057 0.0
H1628 H 0.72239 0.59824 0.02704 0.0
H1629 H 0.69528 0.57301 0.02363 0.0
H1630 H 0.65634 0.61603 0.99913 0.0
H1631 H 0.68301 0.64116 0.00323 0.0
C1632 C 0.62113 0.56855 0.0095 0.0
C1633 C 0.62438 0.5494 0.00335 0.0
C1634 C 0.63709 0.58229 0.01254 0.0
C1635 C 0.65673 0.57732 0.00923 0.0
C1636 C 0.66001 0.55798 0.00346 0.0
C1637 C 0.644 0.54414 0.00064 0.0
C1638 C 0.70802 0.60226 0.02094 0.0
C1639 C 0.70484 0.62176 0.01557 0.0
C1640 C 0.69249 0.58778 0.0189 0.0
C1641 C 0.6735 0.59247 0.01127 0.0
C1642 C 0.67055 0.61191 0.00555 0.0
C1643 C 0.68594 0.62636 0.00778 0.0
H1644 H 0.22366 0.65255 0.27459 0.0
H1645 H 0.23095 0.63704 0.21402 0.0
H1646 H 0.20226 0.62288 0.2785 0.0
H1647 H 0.20933 0.60758 0.21785 0.0
H1648 H 0.15147 0.57522 0.27328 0.0
H1649 H 0.16906 0.60669 0.26695 0.0
H1650 H 0.21361 0.5766 0.2367 0.0
H1651 H 0.1963 0.54533 0.24311 0.0
C1652 C 0.22057 0.64287 0.26209 0.0
C1653 C 0.22904 0.64706 0.24403 0.0
C1654 C 0.20817 0.62601 0.26427 0.0
C1655 C 0.20418 0.61291 0.24849 0.0
C1656 C 0.21228 0.61735 0.23031 0.0
C1657 C 0.22451 0.63428 0.22808 0.0
C1658 C 0.16491 0.57536 0.2651 0.0
C1659 C 0.17241 0.55774 0.25861 0.0
C1660 C 0.17501 0.59336 0.26157 0.0
C1661 C 0.19267 0.59409 0.2513 0.0
C1662 C 0.19988 0.57653 0.24441 0.0
C1663 C 0.18993 0.55857 0.24811 0.0
H1664 H 0.91206 0.56727 0.03737 0.0
H1665 H 0.87059 0.51865 0.02181 0.0
H1666 H 0.88591 0.59004 0.03081 0.0
H1667 H 0.84453 0.54156 0.01454 0.0
H1668 H 0.79877 0.58848 0.02747 0.0
H1669 H 0.82393 0.56409 0.03155 0.0
H1670 H 0.86646 0.60301 0.00342 0.0
H1671 H 0.84151 0.62748 0.99968 0.0
C1672 C 0.89734 0.56143 0.03258 0.0
C1673 C 0.89341 0.54113 0.03018 0.0
C1674 C 0.88241 0.57451 0.02855 0.0
C1675 C 0.86315 0.56764 0.02202 0.0
C1676 C 0.85917 0.54733 0.01965 0.0
C1677 C 0.87415 0.53422 0.02365 0.0
C1678 C 0.81342 0.59173 0.02195 0.0
C1679 C 0.81819 0.61001 0.01342 0.0
C1680 C 0.82783 0.57772 0.02424 0.0
C1681 C 0.84729 0.5817 0.01804 0.0
C1682 C 0.85175 0.59964 0.00874 0.0
C1683 C 0.83738 0.61362 0.00647 0.0
H1684 H 0.09297 0.92796 0.00152 0.0
H1685 H 0.13185 0.97733 0.98605 0.0
H1686 H 0.11985 0.90604 0.99727 0.0
H1687 H 0.15857 0.95524 0.98098 0.0
H1688 H 0.207 0.91187 0.00026 0.0
H1689 H 0.18076 0.93521 0.00042 0.0
H1690 H 0.1394 0.89202 0.97256 0.0
H1691 H 0.16547 0.86855 0.97283 0.0
C1692 C 0.10724 0.93414 0.99716 0.0
C1693 C 0.11027 0.95442 0.99423 0.0
C1694 C 0.1226 0.92153 0.99444 0.0
C1695 C 0.14137 0.92886 0.9887 0.0
C1696 C 0.14435 0.94913 0.98555 0.0
C1697 C 0.12896 0.96176 0.98827 0.0
C1698 C 0.19238 0.90745 0.99391 0.0
C1699 C 0.18827 0.88827 0.98673 0.0
C1700 C 0.17734 0.92086 0.99395 0.0
C1701 C 0.15789 0.91541 0.98673 0.0
C1702 C 0.1541 0.89656 0.97862 0.0
C1703 C 0.1691 0.88314 0.97865 0.0
loop_
_geom_bond_atom_site_label_1
_geom_bond_atom_site_label_2
_geom_bond_distance
_geom_bond_site_symmetry_2
_ccdc_geom_bond_type
C0 C1 1.384 . S
C0 H13 0.947 . S
C0 C35 1.382 . S
C1 C0 1.384 . S
C1 C2 1.378 1_655 S
C2 C1 1.378 1_455 S
C2 C3 1.378 . S
C2 H14 0.952 . S
C3 C2 1.378 . S
C3 H15 0.950 . S
C3 C34 1.383 . S
H4 C23 0.947 . S
H5 C24 0.946 . S
H6 C26 0.953 1_556 S
H7 C27 0.945 . S
H8 C29 0.952 . S
H9 C30 0.949 . S
H10 C32 0.961 . S
H11 C33 0.948 . S
H12 C35 0.951 . S
H13 C0 0.947 . S
H14 C2 0.952 . S
H15 C3 0.950 . S
N16 C19 1.382 . S
N16 C21 1.363 . S
N17 C19 1.371 . S
N17 C20 1.372 . S
N18 C20 1.361 . S
N18 C21 1.377 . S
C19 N16 1.382 . S
C19 N17 1.371 . S
C19 C22 1.480 . S
C20 N17 1.372 . S
C20 N18 1.361 . S
C20 C28 1.457 . S
C21 N16 1.363 . S
C21 N18 1.377 . S
C21 C34 1.479 . S
C22 C19 1.480 . S
C22 C23 1.383 1_545 S
C22 C27 1.385 . S
C23 H4 0.947 . S
C23 C22 1.383 1_565 S
C23 C24 1.388 . S
C24 H5 0.946 . S
C24 C23 1.388 . S
C24 C25 1.384 . S
C25 C24 1.384 . S
C25 C26 1.377 1_565 S
C26 H6 0.953 1_554 S
C26 C25 1.377 1_545 S
C26 C27 1.369 . S
C27 H7 0.945 . S
C27 C22 1.385 . S
C27 C26 1.369 . S
C28 C20 1.457 . S
C28 C29 1.372 1_554 S
C28 C33 1.364 . S
C29 H8 0.952 . S
C29 C28 1.372 1_556 S
C29 C30 1.389 . S
C30 H9 0.949 . S
C30 C29 1.389 . S
C30 C31 1.387 . S
C31 C30 1.387 . S
C31 C32 1.372 . S
C32 H10 0.961 . S
C32 C31 1.372 . S
C32 C33 1.379 1_556 S
C33 H11 0.948 . S
C33 C28 1.364 . S
C33 C32 1.379 1_554 S
C34 C3 1.383 . S
C34 C21 1.479 . S
C34 C35 1.398 1_455 S
C35 C0 1.382 . S
C35 H12 0.951 . S
C35 C34 1.398 1_655 S
C36 C37 1.384 . S
C36 H49 0.947 . S
C36 C71 1.382 . S
C37 C36 1.384 . S
C37 C38 1.378 . S
C38 C37 1.378 . S
C38 C39 1.378 . S
C38 H50 0.952 . S
C39 C38 1.378 . S
C39 H51 0.950 . S
C39 C70 1.383 . S
H40 C59 0.947 . S
H41 C60 0.946 . S
H42 C62 0.953 . S
H43 C63 0.945 . S
H44 C65 0.952 . S
H45 C66 0.949 . S
H46 C68 0.950 . S
H47 C69 0.948 . S
H48 C71 0.951 . S
H49 C36 0.947 . S
H50 C38 0.952 . S
H51 C39 0.950 . S
N52 C55 1.382 . S
N52 C57 1.363 . S
N53 C55 1.371 . S
N53 C56 1.372 . S
N54 C56 1.361 . S
N54 C57 1.377 . S
C55 N52 1.382 . S
C55 N53 1.371 . S
C55 C58 1.480 . S
C56 N53 1.372 . S
C56 N54 1.361 . S
C56 C64 1.457 . S
C57 N52 1.363 . S
C57 N54 1.377 . S
C57 C70 1.479 . S
C58 C55 1.480 . S
C58 C59 1.383 . S
C58 C63 1.385 . S
C59 H40 0.947 . S
C59 C58 1.383 . S
C59 C60 1.388 . S
C60 H41 0.946 . S
C60 C59 1.388 . S
C60 C61 1.384 . S
C61 C60 1.384 . S
C61 C62 1.377 . S
C62 H42 0.953 . S
C62 C61 1.377 . S
C62 C63 1.369 . S
C63 H43 0.945 . S
C63 C58 1.385 . S
C63 C62 1.369 . S
C64 C56 1.457 . S
C64 C65 1.372 . S
C64 C69 1.364 . S
C65 H44 0.952 . S
C65 C64 1.372 . S
C65 C66 1.389 . S
C66 H45 0.949 . S
C66 C65 1.389 . S
C66 C67 1.387 . S
C67 C66 1.387 . S
C67 C68 1.372 . S
C68 H46 0.950 . S
C68 C67 1.372 . S
C68 C69 1.379 . S
C69 H47 0.948 . S
C69 C64 1.364 . S
C69 C68 1.379 . S
C70 C39 1.383 . S
C70 C57 1.479 . S
C70 C71 1.398 . S
C71 C36 1.382 . S
C71 H48 0.951 . S
C71 C70 1.398 . S
C72 C73 1.384 1_454 S
C72 H85 0.947 . S
C72 C107 1.373 1_455 S
C73 C72 1.384 1_656 S
C73 C74 1.378 . S
C74 C73 1.378 . S
C74 C75 1.344 1_556 S
C74 H86 0.952 . S
C75 C74 1.344 1_554 S
C75 H87 0.936 1_554 S
C75 C106 1.433 . S
H76 C95 0.947 . S
H77 C96 0.946 . S
H78 C98 0.953 . S
H79 C99 0.945 . S
H80 C101 0.952 1_655 S
H81 C102 0.949 . S
H82 C104 0.950 . S
H83 C105 0.948 . S
H84 C107 0.932 1_455 S
H85 C72 0.947 . S
H86 C74 0.952 . S
H87 C75 0.936 1_556 S
N88 C91 1.382 . S
N88 C93 1.363 . S
N89 C91 1.371 . S
N89 C92 1.372 . S
N90 C92 1.361 . S
N90 C93 1.377 . S
C91 N88 1.382 . S
C91 N89 1.371 . S
C91 C94 1.480 . S
C92 N89 1.372 . S
C92 N90 1.361 . S
C92 C100 1.457 1_655 S
C93 N88 1.363 . S
C93 N90 1.377 . S
C93 C106 1.479 . S
C94 C91 1.480 . S
C94 C95 1.383 . S
C94 C99 1.385 . S
C95 H76 0.947 . S
C95 C94 1.383 . S
C95 C96 1.388 . S
C96 H77 0.946 . S
C96 C95 1.388 . S
C96 C97 1.384 . S
C97 C96 1.384 . S
C97 C98 1.377 . S
C98 H78 0.953 . S
C98 C97 1.377 . S
C98 C99 1.369 . S
C99 H79 0.945 . S
C99 C94 1.385 . S
C99 C98 1.369 . S
C100 C92 1.457 1_455 S
C100 C101 1.372 . S
C100 C105 1.364 . S
C101 H80 0.952 1_455 S
C101 C100 1.372 . S
C101 C102 1.389 . S
C102 H81 0.949 . S
C102 C101 1.389 . S
C102 C103 1.387 . S
C103 C102 1.387 . S
C103 C104 1.372 . S
C104 H82 0.950 . S
C104 C103 1.372 . S
C104 C105 1.379 . S
C105 H83 0.948 . S
C105 C100 1.364 . S
C105 C104 1.379 . S
C106 C75 1.433 . S
C106 C93 1.479 . S
C106 C107 1.427 . S
C107 C72 1.373 1_655 S
C107 H84 0.932 1_655 S
C107 C106 1.427 . S
C108 C109 1.384 . S
C108 H121 0.947 . S
C108 C143 1.382 . S
C109 C108 1.384 . S
C109 C110 1.378 . S
C110 C109 1.378 . S
C110 C111 1.378 . S
C110 H122 0.952 . S
C111 C110 1.378 . S
C111 H123 0.950 . S
C111 C142 1.383 . S
H112 C131 0.947 . S
H113 C132 0.946 . S
H114 C134 0.953 . S
H115 C135 0.945 . S
H116 C137 0.952 . S
H117 C138 0.949 . S
H118 C140 0.950 . S
H119 C141 0.948 . S
H120 C143 0.951 . S
H121 C108 0.947 . S
H122 C110 0.952 . S
H123 C111 0.950 . S
N124 C127 1.382 . S
N124 C129 1.363 . S
N125 C127 1.371 . S
N125 C128 1.372 . S
N126 C128 1.361 . S
N126 C129 1.377 . S
C127 N124 1.382 . S
C127 N125 1.371 . S
C127 C130 1.480 . S
C128 N125 1.372 . S
C128 N126 1.361 . S
C128 C136 1.457 . S
C129 N124 1.363 . S
C129 N126 1.377 . S
C129 C142 1.479 . S
C130 C127 1.480 . S
C130 C131 1.383 . S
C130 C135 1.385 . S
C131 H112 0.947 . S
C131 C130 1.383 . S
C131 C132 1.388 . S
C132 H113 0.946 . S
C132 C131 1.388 . S
C132 C133 1.384 . S
C133 C132 1.384 . S
C133 C134 1.377 . S
C134 H114 0.953 . S
C134 C133 1.377 . S
C134 C135 1.369 . S
C135 H115 0.945 . S
C135 C130 1.385 . S
C135 C134 1.369 . S
C136 C128 1.457 . S
C136 C137 1.372 . S
C136 C141 1.364 . S
C137 H116 0.952 . S
C137 C136 1.372 . S
C137 C138 1.389 . S
C138 H117 0.949 . S
C138 C137 1.389 . S
C138 C139 1.387 . S
C139 C138 1.387 . S
C139 C140 1.372 . S
C140 H118 0.950 . S
C140 C139 1.372 . S
C140 C141 1.379 . S
C141 H119 0.948 . S
C141 C136 1.364 . S
C141 C140 1.379 . S
C142 C111 1.383 . S
C142 C129 1.479 . S
C142 C143 1.398 . S
C143 C108 1.382 . S
C143 H120 0.951 . S
C143 C142 1.398 . S
C144 C145 1.384 . S
C144 H157 0.947 . S
C144 C179 1.382 . S
C145 C144 1.384 . S
C145 C146 1.378 . S
C146 C145 1.378 . S
C146 C147 1.378 . S
C146 H158 0.952 . S
C147 C146 1.378 . S
C147 H159 0.950 . S
C147 C178 1.383 . S
H148 C167 0.947 . S
H149 C168 0.946 . S
H150 C170 0.953 1_545 S
H151 C171 0.943 1_545 S
H152 C173 0.952 . S
H153 C174 0.949 . S
H154 C176 0.957 . S
H155 C177 0.948 . S
H156 C179 0.951 . S
H157 C144 0.947 . S
H158 C146 0.952 . S
H159 C147 0.950 . S
N160 C163 1.382 . S
N160 C165 1.363 . S
N161 C163 1.371 . S
N161 C164 1.372 . S
N162 C164 1.361 . S
N162 C165 1.377 . S
C163 N160 1.382 . S
C163 N161 1.371 . S
C163 C166 1.480 . S
C164 N161 1.372 . S
C164 N162 1.361 . S
C164 C172 1.457 . S
C165 N160 1.363 . S
C165 N162 1.377 . S
C165 C178 1.479 . S
C166 C163 1.480 . S
C166 C167 1.383 . S
C166 C171 1.385 . S
C167 H148 0.947 . S
C167 C166 1.383 . S
C167 C168 1.388 1_455 S
C168 H149 0.946 . S
C168 C167 1.388 1_655 S
C168 C169 1.384 1_655 S
C169 C168 1.384 1_455 S
C169 C170 1.377 . S
C170 H150 0.953 1_565 S
C170 C169 1.377 . S
C170 C171 1.369 . S
C171 H151 0.943 1_565 S
C171 C166 1.385 . S
C171 C170 1.369 . S
C172 C164 1.457 . S
C172 C173 1.372 1_565 S
C172 C177 1.364 . S
C173 H152 0.952 . S
C173 C172 1.372 1_545 S
C173 C174 1.389 . S
C174 H153 0.949 . S
C174 C173 1.389 . S
C174 C175 1.387 . S
C175 C174 1.387 . S
C175 C176 1.372 . S
C176 H154 0.957 . S
C176 C175 1.372 . S
C176 C177 1.379 1_545 S
C177 H155 0.948 . S
C177 C172 1.364 . S
C177 C176 1.379 1_565 S
C178 C147 1.383 . S
C178 C165 1.479 . S
C178 C179 1.398 . S
C179 C144 1.382 . S
C179 H156 0.951 . S
C179 C178 1.398 . S
C180 C181 1.384 . S
C180 H193 0.947 . S
C180 C215 1.382 . S
C181 C180 1.384 . S
C181 C182 1.378 . S
C182 C181 1.378 . S
C182 C183 1.378 . S
C182 H194 0.952 . S
C183 C182 1.378 . S
C183 H195 0.950 . S
C183 C214 1.383 . S
H184 C203 0.947 . S
H185 C204 0.946 . S
H186 C206 0.953 . S
H187 C207 0.945 . S
H188 C209 0.952 . S
H189 C210 0.949 . S
H190 C212 0.950 . S
H191 C213 0.948 . S
H192 C215 0.951 . S
H193 C180 0.947 . S
H194 C182 0.952 . S
H195 C183 0.950 . S
N196 C199 1.382 . S
N196 C201 1.363 . S
N197 C199 1.371 . S
N197 C200 1.372 . S
N198 C200 1.361 . S
N198 C201 1.377 . S
C199 N196 1.382 . S
C199 N197 1.371 . S
C199 C202 1.480 . S
C200 N197 1.372 . S
C200 N198 1.361 . S
C200 C208 1.457 . S
C201 N196 1.363 . S
C201 N198 1.377 . S
C201 C214 1.479 . S
C202 C199 1.480 . S
C202 C203 1.383 . S
C202 C207 1.385 . S
C203 H184 0.947 . S
C203 C202 1.383 . S
C203 C204 1.388 . S
C204 H185 0.946 . S
C204 C203 1.388 . S
C204 C205 1.384 . S
C205 C204 1.384 . S
C205 C206 1.377 . S
C206 H186 0.953 . S
C206 C205 1.377 . S
C206 C207 1.369 . S
C207 H187 0.945 . S
C207 C202 1.385 . S
C207 C206 1.369 . S
C208 C200 1.457 . S
C208 C209 1.372 . S
C208 C213 1.364 . S
C209 H188 0.952 . S
C209 C208 1.372 . S
C209 C210 1.389 . S
C210 H189 0.949 . S
C210 C209 1.389 . S
C210 C211 1.387 . S
C211 C210 1.387 . S
C211 C212 1.372 . S
C212 H190 0.950 . S
C212 C211 1.372 . S
C212 C213 1.379 . S
C213 H191 0.948 . S
C213 C208 1.364 . S
C213 C212 1.379 . S
C214 C183 1.383 . S
C214 C201 1.479 . S
C214 C215 1.398 . S
C215 C180 1.382 . S
C215 H192 0.951 . S
C215 C214 1.398 . S
C216 C217 1.384 . S
C216 H229 0.947 1_655 S
C216 C251 1.382 . S
C217 C216 1.384 . S
C217 C218 1.378 . S
C218 C217 1.378 . S
C218 C219 1.378 . S
C218 H230 0.952 . S
C219 C218 1.378 . S
C219 H231 0.950 . S
C219 C250 1.383 . S
H220 C239 0.947 . S
H221 C240 0.946 . S
H222 C242 0.953 . S
H223 C243 0.945 . S
H224 C245 0.952 . S
H225 C246 0.949 1_655 S
H226 C248 0.950 . S
H227 C249 0.948 . S
H228 C251 0.951 . S
H229 C216 0.947 1_455 S
H230 C218 0.952 . S
H231 C219 0.950 . S
N232 C235 1.382 . S
N232 C237 1.363 . S
N233 C235 1.371 . S
N233 C236 1.372 . S
N234 C236 1.361 . S
N234 C237 1.377 . S
C235 N232 1.382 . S
C235 N233 1.371 . S
C235 C238 1.480 . S
C236 N233 1.372 . S
C236 N234 1.361 . S
C236 C244 1.457 . S
C237 N232 1.363 . S
C237 N234 1.377 . S
C237 C250 1.479 . S
C238 C235 1.480 . S
C238 C239 1.383 . S
C238 C243 1.385 . S
C239 H220 0.947 . S
C239 C238 1.383 . S
C239 C240 1.388 . S
C240 H221 0.946 . S
C240 C239 1.388 . S
C240 C241 1.384 . S
C241 C240 1.384 . S
C241 C242 1.377 . S
C242 H222 0.953 . S
C242 C241 1.377 . S
C242 C243 1.369 . S
C243 H223 0.945 . S
C243 C238 1.385 . S
C243 C242 1.369 . S
C244 C236 1.457 . S
C244 C245 1.372 . S
C244 C249 1.364 1_655 S
C245 H224 0.952 . S
C245 C244 1.372 . S
C245 C246 1.389 1_655 S
C246 H225 0.949 1_455 S
C246 C245 1.389 1_455 S
C246 C247 1.387 . S
C247 C246 1.387 . S
C247 C248 1.372 . S
C248 H226 0.950 . S
C248 C247 1.372 . S
C248 C249 1.379 . S
C249 H227 0.948 . S
C249 C244 1.364 1_455 S
C249 C248 1.379 . S
C250 C219 1.383 . S
C250 C237 1.479 . S
C250 C251 1.398 . S
C251 C216 1.382 . S
C251 H228 0.951 . S
C251 C250 1.398 . S
C252 C253 1.384 . S
C252 H265 0.947 . S
C252 C287 1.382 . S
C253 C252 1.384 . S
C253 C254 1.378 . S
C254 C253 1.378 . S
C254 C255 1.378 . S
C254 H266 0.952 . S
C255 C254 1.378 . S
C255 H267 0.950 . S
C255 C286 1.383 . S
H256 C275 0.947 . S
H257 C276 0.946 . S
H258 C278 0.953 . S
H259 C279 0.945 . S
H260 C281 0.952 . S
H261 C282 0.949 . S
H262 C284 0.950 . S
H263 C285 0.948 . S
H264 C287 0.951 . S
H265 C252 0.947 . S
H266 C254 0.952 . S
H267 C255 0.950 . S
N268 C271 1.382 . S
N268 C273 1.363 . S
N269 C271 1.371 . S
N269 C272 1.372 . S
N270 C272 1.361 . S
N270 C273 1.377 . S
C271 N268 1.382 . S
C271 N269 1.371 . S
C271 C274 1.480 . S
C272 N269 1.372 . S
C272 N270 1.361 . S
C272 C280 1.457 . S
C273 N268 1.363 . S
C273 N270 1.377 . S
C273 C286 1.479 . S
C274 C271 1.480 . S
C274 C275 1.383 . S
C274 C279 1.385 . S
C275 H256 0.947 . S
C275 C274 1.383 . S
C275 C276 1.388 . S
C276 H257 0.946 . S
C276 C275 1.388 . S
C276 C277 1.384 . S
C277 C276 1.384 . S
C277 C278 1.377 . S
C278 H258 0.953 . S
C278 C277 1.377 . S
C278 C279 1.369 . S
C279 H259 0.945 . S
C279 C274 1.385 . S
C279 C278 1.369 . S
C280 C272 1.457 . S
C280 C281 1.372 . S
C280 C285 1.364 . S
C281 H260 0.952 . S
C281 C280 1.372 . S
C281 C282 1.389 . S
C282 H261 0.949 . S
C282 C281 1.389 . S
C282 C283 1.387 . S
C283 C282 1.387 . S
C283 C284 1.372 . S
C284 H262 0.950 . S
C284 C283 1.372 . S
C284 C285 1.379 . S
C285 H263 0.948 . S
C285 C280 1.364 . S
C285 C284 1.379 . S
C286 C255 1.383 . S
C286 C273 1.479 . S
C286 C287 1.398 . S
C287 C252 1.382 . S
C287 H264 0.951 . S
C287 C286 1.398 . S
C288 C289 1.384 . S
C288 H301 0.947 . S
C288 C323 1.382 . S
C289 C288 1.384 . S
C289 C290 1.378 . S
C290 C289 1.378 . S
C290 C291 1.378 . S
C290 H302 0.952 . S
C291 C290 1.378 . S
C291 H303 0.950 . S
C291 C322 1.383 . S
H292 C311 0.947 . S
H293 C312 0.946 . S
H294 C314 0.953 . S
H295 C315 0.945 . S
H296 C317 0.952 . S
H297 C318 0.949 . S
H298 C320 0.950 . S
H299 C321 0.948 . S
H300 C323 0.951 . S
H301 C288 0.947 . S
H302 C290 0.952 . S
H303 C291 0.950 . S
N304 C307 1.382 . S
N304 C309 1.363 . S
N305 C307 1.371 . S
N305 C308 1.372 . S
N306 C308 1.361 . S
N306 C309 1.377 . S
C307 N304 1.382 . S
C307 N305 1.371 . S
C307 C310 1.480 . S
C308 N305 1.372 . S
C308 N306 1.361 . S
C308 C316 1.457 . S
C309 N304 1.363 . S
C309 N306 1.377 . S
C309 C322 1.479 . S
C310 C307 1.480 . S
C310 C311 1.383 . S
C310 C315 1.385 . S
C311 H292 0.947 . S
C311 C310 1.383 . S
C311 C312 1.388 . S
C312 H293 0.946 . S
C312 C311 1.388 . S
C312 C313 1.384 . S
C313 C312 1.384 . S
C313 C314 1.377 . S
C314 H294 0.953 . S
C314 C313 1.377 . S
C314 C315 1.369 . S
C315 H295 0.945 . S
C315 C310 1.385 . S
C315 C314 1.369 . S
C316 C308 1.457 . S
C316 C317 1.372 . S
C316 C321 1.364 . S
C317 H296 0.952 . S
C317 C316 1.372 . S
C317 C318 1.389 . S
C318 H297 0.949 . S
C318 C317 1.389 . S
C318 C319 1.387 . S
C319 C318 1.387 . S
C319 C320 1.372 . S
C320 H298 0.950 . S
C320 C319 1.372 . S
C320 C321 1.379 . S
C321 H299 0.948 . S
C321 C316 1.364 . S
C321 C320 1.379 . S
C322 C291 1.383 . S
C322 C309 1.479 . S
C322 C323 1.398 . S
C323 C288 1.382 . S
C323 H300 0.951 . S
C323 C322 1.398 . S
C324 C325 1.384 . S
C324 H337 0.947 . S
C324 C359 1.382 . S
C325 C324 1.384 . S
C325 C326 1.378 . S
C326 C325 1.378 . S
C326 C327 1.378 . S
C326 H338 0.952 . S
C327 C326 1.378 . S
C327 H339 0.950 . S
C327 C358 1.383 . S
H328 C347 0.947 . S
H329 C348 0.946 1_565 S
H330 C350 0.953 . S
H331 C351 0.945 . S
H332 C353 0.952 . S
H333 C354 0.949 . S
H334 C356 0.950 . S
H335 C357 0.948 . S
H336 C359 0.951 . S
H337 C324 0.947 . S
H338 C326 0.952 . S
H339 C327 0.950 . S
N340 C343 1.382 . S
N340 C345 1.363 . S
N341 C343 1.371 . S
N341 C344 1.372 . S
N342 C344 1.361 . S
N342 C345 1.377 . S
C343 N340 1.382 . S
C343 N341 1.371 . S
C343 C346 1.480 . S
C344 N341 1.372 . S
C344 N342 1.361 . S
C344 C352 1.457 . S
C345 N340 1.363 . S
C345 N342 1.377 . S
C345 C358 1.479 . S
C346 C343 1.480 . S
C346 C347 1.383 . S
C346 C351 1.385 1_565 S
C347 H328 0.947 . S
C347 C346 1.383 . S
C347 C348 1.388 1_565 S
C348 H329 0.946 1_545 S
C348 C347 1.388 1_545 S
C348 C349 1.384 . S
C349 C348 1.384 . S
C349 C350 1.377 . S
C350 H330 0.953 . S
C350 C349 1.377 . S
C350 C351 1.369 . S
C351 H331 0.945 . S
C351 C346 1.385 1_545 S
C351 C350 1.369 . S
C352 C344 1.457 . S
C352 C353 1.372 . S
C352 C357 1.364 . S
C353 H332 0.952 . S
C353 C352 1.372 . S
C353 C354 1.389 . S
C354 H333 0.949 . S
C354 C353 1.389 . S
C354 C355 1.387 . S
C355 C354 1.387 . S
C355 C356 1.372 . S
C356 H334 0.950 . S
C356 C355 1.372 . S
C356 C357 1.379 . S
C357 H335 0.948 . S
C357 C352 1.364 . S
C357 C356 1.379 . S
C358 C327 1.383 . S
C358 C345 1.479 . S
C358 C359 1.398 . S
C359 C324 1.382 . S
C359 H336 0.951 . S
C359 C358 1.398 . S
C360 C361 1.384 . S
C360 H373 0.947 . S
C360 C395 1.382 . S
C361 C360 1.384 . S
C361 C362 1.378 . S
C362 C361 1.378 . S
C362 C363 1.378 . S
C362 H374 0.952 . S
C363 C362 1.378 . S
C363 H375 0.950 . S
C363 C394 1.383 . S
H364 C383 0.947 . S
H365 C384 0.946 . S
H366 C386 0.953 . S
H367 C387 0.945 . S
H368 C389 0.952 . S
H369 C390 0.949 . S
H370 C392 0.950 . S
H371 C393 0.948 . S
H372 C395 0.951 . S
H373 C360 0.947 . S
H374 C362 0.952 . S
H375 C363 0.950 . S
N376 C379 1.382 . S
N376 C381 1.363 . S
N377 C379 1.371 . S
N377 C380 1.372 . S
N378 C380 1.361 . S
N378 C381 1.377 . S
C379 N376 1.382 . S
C379 N377 1.371 . S
C379 C382 1.480 . S
C380 N377 1.372 . S
C380 N378 1.361 . S
C380 C388 1.457 . S
C381 N376 1.363 . S
C381 N378 1.377 . S
C381 C394 1.479 . S
C382 C379 1.480 . S
C382 C383 1.383 . S
C382 C387 1.385 . S
C383 H364 0.947 . S
C383 C382 1.383 . S
C383 C384 1.388 . S
C384 H365 0.946 . S
C384 C383 1.388 . S
C384 C385 1.384 . S
C385 C384 1.384 . S
C385 C386 1.377 . S
C386 H366 0.953 . S
C386 C385 1.377 . S
C386 C387 1.369 . S
C387 H367 0.945 . S
C387 C382 1.385 . S
C387 C386 1.369 . S
C388 C380 1.457 . S
C388 C389 1.372 . S
C388 C393 1.364 . S
C389 H368 0.952 . S
C389 C388 1.372 . S
C389 C390 1.389 . S
C390 H369 0.949 . S
C390 C389 1.389 . S
C390 C391 1.387 . S
C391 C390 1.387 . S
C391 C392 1.372 . S
C392 H370 0.950 . S
C392 C391 1.372 . S
C392 C393 1.379 . S
C393 H371 0.948 . S
C393 C388 1.364 . S
C393 C392 1.379 . S
C394 C363 1.383 . S
C394 C381 1.479 . S
C394 C395 1.398 . S
C395 C360 1.382 . S
C395 H372 0.951 . S
C395 C394 1.398 . S
C396 C397 1.384 . S
C396 H409 0.947 . S
C396 C431 1.382 . S
C397 C396 1.384 . S
C397 C398 1.378 . S
C398 C397 1.378 . S
C398 C399 1.378 . S
C398 H410 0.952 . S
C399 C398 1.378 . S
C399 H411 0.950 . S
C399 C430 1.383 . S
H400 C419 0.947 . S
H401 C420 0.946 . S
H402 C422 0.953 . S
H403 C423 0.945 . S
H404 C425 0.952 . S
H405 C426 0.949 . S
H406 C428 0.950 . S
H407 C429 0.948 . S
H408 C431 0.951 . S
H409 C396 0.947 . S
H410 C398 0.952 . S
H411 C399 0.950 . S
N412 C415 1.382 . S
N412 C417 1.363 . S
N413 C415 1.371 . S
N413 C416 1.372 . S
N414 C416 1.361 . S
N414 C417 1.377 . S
C415 N412 1.382 . S
C415 N413 1.371 . S
C415 C418 1.480 . S
C416 N413 1.372 . S
C416 N414 1.361 . S
C416 C424 1.457 . S
C417 N412 1.363 . S
C417 N414 1.377 . S
C417 C430 1.479 . S
C418 C415 1.480 . S
C418 C419 1.383 . S
C418 C423 1.385 . S
C419 H400 0.947 . S
C419 C418 1.383 . S
C419 C420 1.388 . S
C420 H401 0.946 . S
C420 C419 1.388 . S
C420 C421 1.384 . S
C421 C420 1.384 . S
C421 C422 1.377 . S
C422 H402 0.953 . S
C422 C421 1.377 . S
C422 C423 1.369 . S
C423 H403 0.945 . S
C423 C418 1.385 . S
C423 C422 1.369 . S
C424 C416 1.457 . S
C424 C425 1.372 . S
C424 C429 1.364 . S
C425 H404 0.952 . S
C425 C424 1.372 . S
C425 C426 1.389 . S
C426 H405 0.949 . S
C426 C425 1.389 . S
C426 C427 1.387 . S
C427 C426 1.387 . S
C427 C428 1.372 . S
C428 H406 0.950 . S
C428 C427 1.372 . S
C428 C429 1.379 . S
C429 H407 0.948 . S
C429 C424 1.364 . S
C429 C428 1.379 . S
C430 C399 1.383 . S
C430 C417 1.479 . S
C430 C431 1.398 . S
C431 C396 1.382 . S
C431 H408 0.951 . S
C431 C430 1.398 . S
C432 C433 1.384 . S
C432 H445 0.947 . S
C432 C467 1.382 . S
C433 C432 1.384 . S
C433 C434 1.378 . S
C434 C433 1.378 . S
C434 C435 1.378 . S
C434 H446 0.952 . S
C435 C434 1.378 . S
C435 H447 0.950 . S
C435 C466 1.383 . S
H436 C455 0.947 . S
H437 C456 0.946 . S
H438 C458 0.953 . S
H439 C459 0.945 . S
H440 C461 0.952 . S
H441 C462 0.949 . S
H442 C464 0.950 . S
H443 C465 0.948 . S
H444 C467 0.951 . S
H445 C432 0.947 . S
H446 C434 0.952 . S
H447 C435 0.950 . S
N448 C451 1.382 . S
N448 C453 1.363 . S
N449 C451 1.371 . S
N449 C452 1.372 . S
N450 C452 1.361 . S
N450 C453 1.377 . S
C451 N448 1.382 . S
C451 N449 1.371 . S
C451 C454 1.480 . S
C452 N449 1.372 . S
C452 N450 1.361 . S
C452 C460 1.457 . S
C453 N448 1.363 . S
C453 N450 1.377 . S
C453 C466 1.479 . S
C454 C451 1.480 . S
C454 C455 1.383 . S
C454 C459 1.385 . S
C455 H436 0.947 . S
C455 C454 1.383 . S
C455 C456 1.388 . S
C456 H437 0.946 . S
C456 C455 1.388 . S
C456 C457 1.384 . S
C457 C456 1.384 . S
C457 C458 1.377 . S
C458 H438 0.953 . S
C458 C457 1.377 . S
C458 C459 1.369 . S
C459 H439 0.945 . S
C459 C454 1.385 . S
C459 C458 1.369 . S
C460 C452 1.457 . S
C460 C461 1.372 . S
C460 C465 1.364 . S
C461 H440 0.952 . S
C461 C460 1.372 . S
C461 C462 1.389 . S
C462 H441 0.949 . S
C462 C461 1.389 . S
C462 C463 1.387 . S
C463 C462 1.387 . S
C463 C464 1.372 . S
C464 H442 0.950 . S
C464 C463 1.372 . S
C464 C465 1.379 . S
C465 H443 0.948 . S
C465 C460 1.364 . S
C465 C464 1.379 . S
C466 C435 1.383 . S
C466 C453 1.479 . S
C466 C467 1.398 . S
C467 C432 1.382 . S
C467 H444 0.951 . S
C467 C466 1.398 . S
C468 C469 1.384 . S
C468 H481 0.947 . S
C468 C503 1.382 . S
C469 C468 1.384 . S
C469 C470 1.378 1_554 S
C470 C469 1.378 1_556 S
C470 C471 1.378 . S
C470 H482 0.952 . S
C471 C470 1.378 . S
C471 H483 0.950 . S
C471 C502 1.383 . S
H472 C491 0.947 . S
H473 C492 0.946 . S
H474 C494 0.953 . S
H475 C495 0.945 . S
H476 C497 0.952 . S
H477 C498 0.949 . S
H478 C500 0.950 . S
H479 C501 0.948 . S
H480 C503 0.951 . S
H481 C468 0.947 . S
H482 C470 0.952 . S
H483 C471 0.950 . S
N484 C487 1.382 . S
N484 C489 1.363 . S
N485 C487 1.371 . S
N485 C488 1.372 . S
N486 C488 1.361 . S
N486 C489 1.377 . S
C487 N484 1.382 . S
C487 N485 1.371 . S
C487 C490 1.480 . S
C488 N485 1.372 . S
C488 N486 1.361 . S
C488 C496 1.457 . S
C489 N484 1.363 . S
C489 N486 1.377 . S
C489 C502 1.479 . S
C490 C487 1.480 . S
C490 C491 1.383 . S
C490 C495 1.385 . S
C491 H472 0.947 . S
C491 C490 1.383 . S
C491 C492 1.388 . S
C492 H473 0.946 . S
C492 C491 1.388 . S
C492 C493 1.384 . S
C493 C492 1.384 . S
C493 C494 1.377 . S
C494 H474 0.953 . S
C494 C493 1.377 . S
C494 C495 1.369 . S
C495 H475 0.945 . S
C495 C490 1.385 . S
C495 C494 1.369 . S
C496 C488 1.457 . S
C496 C497 1.372 . S
C496 C501 1.364 . S
C497 H476 0.952 . S
C497 C496 1.372 . S
C497 C498 1.389 . S
C498 H477 0.949 . S
C498 C497 1.389 . S
C498 C499 1.387 . S
C499 C498 1.387 . S
C499 C500 1.372 . S
C500 H478 0.950 . S
C500 C499 1.372 . S
C500 C501 1.379 . S
C501 H479 0.948 . S
C501 C496 1.364 . S
C501 C500 1.379 . S
C502 C471 1.383 . S
C502 C489 1.479 . S
C502 C503 1.398 1_556 S
C503 C468 1.382 . S
C503 H480 0.951 . S
C503 C502 1.398 1_554 S
C504 C505 1.384 . S
C504 H517 0.947 . S
C504 C539 1.382 . S
C505 C504 1.384 . S
C505 C506 1.378 . S
C506 C505 1.378 . S
C506 C507 1.378 . S
C506 H518 0.952 . S
C507 C506 1.378 . S
C507 H519 0.950 . S
C507 C538 1.383 . S
H508 C527 0.947 . S
H509 C528 0.946 . S
H510 C530 0.953 . S
H511 C531 0.945 . S
H512 C533 0.952 . S
H513 C534 0.949 . S
H514 C536 0.950 . S
H515 C537 0.948 . S
H516 C539 0.951 . S
H517 C504 0.947 . S
H518 C506 0.952 . S
H519 C507 0.950 . S
N520 C523 1.382 . S
N520 C525 1.363 . S
N521 C523 1.371 . S
N521 C524 1.372 . S
N522 C524 1.361 . S
N522 C525 1.377 . S
C523 N520 1.382 . S
C523 N521 1.371 . S
C523 C526 1.480 . S
C524 N521 1.372 . S
C524 N522 1.361 . S
C524 C532 1.457 . S
C525 N520 1.363 . S
C525 N522 1.377 . S
C525 C538 1.479 . S
C526 C523 1.480 . S
C526 C527 1.383 . S
C526 C531 1.385 . S
C527 H508 0.947 . S
C527 C526 1.383 . S
C527 C528 1.388 . S
C528 H509 0.946 . S
C528 C527 1.388 . S
C528 C529 1.384 . S
C529 C528 1.384 . S
C529 C530 1.377 . S
C530 H510 0.953 . S
C530 C529 1.377 . S
C530 C531 1.369 . S
C531 H511 0.945 . S
C531 C526 1.385 . S
C531 C530 1.369 . S
C532 C524 1.457 . S
C532 C533 1.372 . S
C532 C537 1.364 . S
C533 H512 0.952 . S
C533 C532 1.372 . S
C533 C534 1.389 . S
C534 H513 0.949 . S
C534 C533 1.389 . S
C534 C535 1.387 . S
C535 C534 1.387 . S
C535 C536 1.372 . S
C536 H514 0.950 . S
C536 C535 1.372 . S
C536 C537 1.379 . S
C537 H515 0.948 . S
C537 C532 1.364 . S
C537 C536 1.379 . S
C538 C507 1.383 . S
C538 C525 1.479 . S
C538 C539 1.398 . S
C539 C504 1.382 . S
C539 H516 0.951 . S
C539 C538 1.398 . S
C540 C541 1.384 . S
C540 H553 0.947 . S
C540 C575 1.382 1_554 S
C541 C540 1.384 . S
C541 C542 1.378 . S
C542 C541 1.378 . S
C542 C543 1.378 . S
C542 H554 0.952 . S
C543 C542 1.378 . S
C543 H555 0.950 . S
C543 C574 1.383 1_554 S
H544 C563 0.915 1_554 S
H545 C564 0.956 1_554 S
H546 C566 0.953 . S
H547 C567 0.945 . S
H548 C569 0.952 . S
H549 C570 0.949 1_565 S
H550 C572 0.950 . S
H551 C573 0.948 . S
H552 C575 0.951 . S
H553 C540 0.947 . S
H554 C542 0.952 . S
H555 C543 0.950 . S
N556 C559 1.382 . S
N556 C561 1.363 . S
N557 C559 1.371 . S
N557 C560 1.372 . S
N558 C560 1.361 . S
N558 C561 1.377 . S
C559 N556 1.382 . S
C559 N557 1.371 . S
C559 C562 1.480 . S
C560 N557 1.372 . S
C560 N558 1.361 . S
C560 C568 1.457 . S
C561 N556 1.363 . S
C561 N558 1.377 . S
C561 C574 1.479 . S
C562 C559 1.480 . S
C562 C563 1.383 . S
C562 C567 1.385 1_545 S
C563 H544 0.915 1_556 S
C563 C562 1.383 . S
C563 C564 1.388 1_545 S
C564 H545 0.956 1_556 S
C564 C563 1.388 1_565 S
C564 C565 1.384 . S
C565 C564 1.384 . S
C565 C566 1.377 . S
C566 H546 0.953 . S
C566 C565 1.377 . S
C566 C567 1.369 . S
C567 H547 0.945 . S
C567 C562 1.385 1_565 S
C567 C566 1.369 . S
C568 C560 1.457 . S
C568 C569 1.372 . S
C568 C573 1.364 . S
C569 H548 0.952 . S
C569 C568 1.372 . S
C569 C570 1.389 . S
C570 H549 0.949 1_545 S
C570 C569 1.389 . S
C570 C571 1.387 . S
C571 C570 1.387 . S
C571 C572 1.372 . S
C572 H550 0.950 . S
C572 C571 1.372 . S
C572 C573 1.379 . S
C573 H551 0.948 . S
C573 C568 1.364 . S
C573 C572 1.379 . S
C574 C543 1.383 1_556 S
C574 C561 1.479 . S
C574 C575 1.398 . S
C575 C540 1.382 1_556 S
C575 H552 0.951 . S
C575 C574 1.398 . S
Mg576 O577 2.034 . S
Mg576 O583 1.986 1_554 S
Mg576 O585 2.114 . S
Mg576 O586 2.251 . S
Mg576 O589 2.010 . S
O577 Mg576 2.034 . S
O577 C580 1.245 1_554 S
O578 Mg579 2.028 . S
O578 C580 1.248 . S
Mg579 O578 2.028 . S
Mg579 O584 2.032 . S
Mg579 O586 2.079 1_556 S
C580 O577 1.245 1_556 S
C580 O578 1.248 . S
C581 O582 1.264 . S
C581 O589 1.249 . S
O582 C581 1.264 . S
O583 Mg576 1.986 1_556 S
O583 C587 1.246 . S
O584 Mg579 2.032 . S
O584 C587 1.259 . S
O585 Mg576 2.114 . S
O585 C588 1.252 . S
O586 Mg576 2.251 . S
O586 Mg579 2.079 1_554 S
O586 C588 1.273 . S
C587 O583 1.246 . S
C587 O584 1.259 . S
C588 O585 1.252 . S
C588 O586 1.273 . S
O589 Mg576 2.010 . S
O589 C581 1.249 . S
Mg590 O591 2.028 . S
Mg590 O597 1.986 . S
Mg590 O599 2.114 . S
Mg590 O600 2.251 . S
Mg590 O603 2.010 . S
O591 Mg590 2.028 . S
O591 C594 1.250 . S
O592 Mg593 2.028 . S
O592 C594 1.248 . S
Mg593 O592 2.028 . S
Mg593 O598 2.032 . S
Mg593 O600 2.079 . S
C594 O591 1.250 . S
C594 O592 1.248 . S
C595 O596 1.264 . S
C595 O603 1.249 . S
O596 C595 1.264 . S
O597 Mg590 1.986 . S
O597 C601 1.246 . S
O598 Mg593 2.032 . S
O598 C601 1.259 . S
O599 Mg590 2.114 . S
O599 C602 1.252 . S
O600 Mg590 2.251 . S
O600 Mg593 2.079 . S
O600 C602 1.273 . S
C601 O597 1.246 . S
C601 O598 1.259 . S
C602 O599 1.252 . S
C602 O600 1.273 . S
O603 Mg590 2.010 . S
O603 C595 1.249 . S
Mg604 O605 2.028 . S
Mg604 O611 1.986 1_554 S
Mg604 O613 2.114 . S
Mg604 O614 2.251 . S
Mg604 O617 2.010 . S
O605 Mg604 2.028 . S
O605 C608 1.252 . S
O606 Mg607 2.028 . S
O606 C608 1.247 1_556 S
Mg607 O606 2.028 . S
Mg607 O612 2.032 . S
Mg607 O614 2.079 1_556 S
C608 O605 1.252 . S
C608 O606 1.247 1_554 S
C609 O610 1.264 . S
C609 O617 1.249 . S
O610 C609 1.264 . S
O611 Mg604 1.986 1_556 S
O611 C615 1.246 . S
O612 Mg607 2.032 . S
O612 C615 1.259 . S
O613 Mg604 2.114 . S
O613 C616 1.252 . S
O614 Mg604 2.251 . S
O614 Mg607 2.079 1_554 S
O614 C616 1.273 . S
C615 O611 1.246 . S
C615 O612 1.259 . S
C616 O613 1.252 . S
C616 O614 1.273 . S
O617 Mg604 2.010 . S
O617 C609 1.249 . S
Mg618 O619 2.028 . S
Mg618 O625 1.986 . S
Mg618 O627 2.114 . S
Mg618 O628 2.251 . S
Mg618 O631 2.010 . S
O619 Mg618 2.028 . S
O619 C622 1.250 1_545 S
O620 Mg621 2.028 . S
O620 C622 1.248 . S
Mg621 O620 2.028 . S
Mg621 O626 2.032 . S
Mg621 O628 2.079 1_565 S
C622 O619 1.250 1_565 S
C622 O620 1.248 . S
C623 O624 1.264 . S
C623 O631 1.249 . S
O624 C623 1.264 . S
O625 Mg618 1.986 . S
O625 C629 1.246 . S
O626 Mg621 2.032 . S
O626 C629 1.259 1_565 S
O627 Mg618 2.114 . S
O627 C630 1.252 . S
O628 Mg618 2.251 . S
O628 Mg621 2.079 1_545 S
O628 C630 1.273 . S
C629 O625 1.246 . S
C629 O626 1.259 1_545 S
C630 O627 1.252 . S
C630 O628 1.273 . S
O631 Mg618 2.010 . S
O631 C623 1.249 . S
Mg632 O633 2.028 . S
Mg632 O639 1.986 . S
Mg632 O641 2.114 . S
Mg632 O642 2.251 . S
Mg632 O645 2.010 . S
O633 Mg632 2.028 . S
O633 C636 1.250 . S
O634 Mg635 2.028 . S
O634 C636 1.248 . S
Mg635 O634 2.028 . S
Mg635 O640 2.032 . S
Mg635 O642 2.079 . S
C636 O633 1.250 . S
C636 O634 1.248 . S
C637 O638 1.264 . S
C637 O645 1.249 . S
O638 C637 1.264 . S
O639 Mg632 1.986 . S
O639 C643 1.246 . S
O640 Mg635 2.032 . S
O640 C643 1.259 . S
O641 Mg632 2.114 . S
O641 C644 1.252 . S
O642 Mg632 2.251 . S
O642 Mg635 2.079 . S
O642 C644 1.273 . S
C643 O639 1.246 . S
C643 O640 1.259 . S
C644 O641 1.252 . S
C644 O642 1.273 . S
O645 Mg632 2.010 . S
O645 C637 1.249 . S
Mg646 O647 2.028 . S
Mg646 O653 1.986 . S
Mg646 O655 2.114 . S
Mg646 O656 2.251 . S
Mg646 O659 2.010 . S
O647 Mg646 2.028 . S
O647 C650 1.250 . S
O648 Mg649 2.028 . S
O648 C650 1.248 . S
Mg649 O648 2.028 . S
Mg649 O654 2.032 . S
Mg649 O656 2.079 . S
C650 O647 1.250 . S
C650 O648 1.248 . S
C651 O652 1.264 . S
C651 O659 1.249 . S
O652 C651 1.264 . S
O653 Mg646 1.986 . S
O653 C657 1.246 . S
O654 Mg649 2.032 . S
O654 C657 1.259 . S
O655 Mg646 2.114 . S
O655 C658 1.252 . S
O656 Mg646 2.251 . S
O656 Mg649 2.079 . S
O656 C658 1.273 . S
C657 O653 1.246 . S
C657 O654 1.259 . S
C658 O655 1.252 . S
C658 O656 1.273 . S
O659 Mg646 2.010 . S
O659 C651 1.249 . S
Mg660 O661 2.028 . S
Mg660 O667 1.986 . S
Mg660 O669 2.114 . S
Mg660 O670 2.251 . S
Mg660 O673 2.010 . S
O661 Mg660 2.028 . S
O661 C664 1.250 . S
O662 Mg663 2.028 . S
O662 C664 1.248 . S
Mg663 O662 2.028 . S
Mg663 O668 2.032 . S
Mg663 O670 2.079 . S
C664 O661 1.250 . S
C664 O662 1.248 . S
C665 O666 1.264 . S
C665 O673 1.249 . S
O666 C665 1.264 . S
O667 Mg660 1.986 . S
O667 C671 1.246 . S
O668 Mg663 2.032 . S
O668 C671 1.259 . S
O669 Mg660 2.114 . S
O669 C672 1.252 . S
O670 Mg660 2.251 . S
O670 Mg663 2.079 . S
O670 C672 1.273 . S
C671 O667 1.246 . S
C671 O668 1.259 . S
C672 O669 1.252 . S
C672 O670 1.273 . S
O673 Mg660 2.010 . S
O673 C665 1.249 . S
Mg674 O675 2.028 1_545 S
Mg674 O681 1.986 1_545 S
Mg674 O683 2.114 . S
Mg674 O684 2.251 . S
Mg674 O687 2.010 . S
O675 Mg674 2.028 1_565 S
O675 C678 1.250 . S
O676 Mg677 2.028 . S
O676 C678 1.248 . S
Mg677 O676 2.028 . S
Mg677 O682 2.032 . S
Mg677 O684 2.079 1_565 S
C678 O675 1.250 . S
C678 O676 1.248 . S
C679 O680 1.264 . S
C679 O687 1.249 . S
O680 C679 1.264 . S
O681 Mg674 1.986 1_565 S
O681 C685 1.246 . S
O682 Mg677 2.032 . S
O682 C685 1.259 . S
O683 Mg674 2.114 . S
O683 C686 1.252 . S
O684 Mg674 2.251 . S
O684 Mg677 2.079 1_545 S
O684 C686 1.273 . S
C685 O681 1.246 . S
C685 O682 1.259 . S
C686 O683 1.252 . S
C686 O684 1.273 . S
O687 Mg674 2.010 . S
O687 C679 1.249 . S
Mg688 O689 2.028 . S
Mg688 O695 1.986 . S
Mg688 O697 2.114 . S
Mg688 O698 2.251 . S
Mg688 O701 2.010 . S
O689 Mg688 2.028 . S
O689 C692 1.250 1_455 S
O690 Mg691 2.028 . S
O690 C692 1.248 . S
Mg691 O690 2.028 . S
Mg691 O696 2.032 . S
Mg691 O698 2.079 1_655 S
C692 O689 1.250 1_655 S
C692 O690 1.248 . S
C693 O694 1.264 . S
C693 O701 1.249 . S
O694 C693 1.264 . S
O695 Mg688 1.986 . S
O695 C699 1.246 . S
O696 Mg691 2.032 . S
O696 C699 1.259 1_655 S
O697 Mg688 2.114 . S
O697 C700 1.252 . S
O698 Mg688 2.251 . S
O698 Mg691 2.079 1_455 S
O698 C700 1.273 . S
C699 O695 1.246 . S
C699 O696 1.259 1_455 S
C700 O697 1.252 . S
C700 O698 1.273 . S
O701 Mg688 2.010 . S
O701 C693 1.249 . S
Mg702 O703 2.028 . S
Mg702 O709 1.986 . S
Mg702 O711 2.114 . S
Mg702 O712 2.251 . S
Mg702 O715 2.010 . S
O703 Mg702 2.028 . S
O703 C706 1.250 . S
O704 Mg705 2.028 . S
O704 C706 1.248 . S
Mg705 O704 2.028 . S
Mg705 O710 2.032 . S
Mg705 O712 2.079 . S
C706 O703 1.250 . S
C706 O704 1.248 . S
C707 O708 1.264 . S
C707 O715 1.249 . S
O708 C707 1.264 . S
O709 Mg702 1.986 . S
O709 C713 1.246 . S
O710 Mg705 2.032 . S
O710 C713 1.259 . S
O711 Mg702 2.114 . S
O711 C714 1.252 . S
O712 Mg702 2.251 . S
O712 Mg705 2.079 . S
O712 C714 1.273 . S
C713 O709 1.246 . S
C713 O710 1.259 . S
C714 O711 1.252 . S
C714 O712 1.273 . S
O715 Mg702 2.010 . S
O715 C707 1.249 . S
Mg716 O717 2.028 1_655 S
Mg716 O723 2.000 . S
Mg716 O725 2.114 . S
Mg716 O726 2.251 1_655 S
Mg716 O729 2.010 . S
O717 Mg716 2.028 1_455 S
O717 C720 1.250 . S
O718 Mg719 2.028 . S
O718 C720 1.248 . S
Mg719 O718 2.028 . S
Mg719 O724 2.032 . S
Mg719 O726 2.079 . S
C720 O717 1.250 . S
C720 O718 1.248 . S
C721 O722 1.264 . S
C721 O729 1.249 . S
O722 C721 1.264 . S
O723 Mg716 2.000 . S
O723 C727 1.207 1_655 S
O724 Mg719 2.032 . S
O724 C727 1.259 . S
O725 Mg716 2.114 . S
O725 C728 1.252 . S
O726 Mg716 2.251 1_455 S
O726 Mg719 2.079 . S
O726 C728 1.273 1_455 S
C727 O723 1.207 1_455 S
C727 O724 1.259 . S
C728 O725 1.252 . S
C728 O726 1.273 1_655 S
O729 Mg716 2.010 . S
O729 C721 1.249 . S
Mg730 O731 2.028 . S
Mg730 O737 1.986 . S
Mg730 O739 2.114 . S
Mg730 O740 2.251 . S
Mg730 O743 2.010 . S
O731 Mg730 2.028 . S
O731 C734 1.250 . S
O732 Mg733 2.028 . S
O732 C734 1.248 . S
Mg733 O732 2.028 . S
Mg733 O738 2.032 . S
Mg733 O740 2.079 . S
C734 O731 1.250 . S
C734 O732 1.248 . S
C735 O736 1.264 . S
C735 O743 1.249 . S
O736 C735 1.264 . S
O737 Mg730 1.986 . S
O737 C741 1.246 . S
O738 Mg733 2.032 . S
O738 C741 1.259 . S
O739 Mg730 2.114 . S
O739 C742 1.252 . S
O740 Mg730 2.251 . S
O740 Mg733 2.079 . S
O740 C742 1.273 . S
C741 O737 1.246 . S
C741 O738 1.259 . S
C742 O739 1.252 . S
C742 O740 1.273 . S
O743 Mg730 2.010 . S
O743 C735 1.249 . S
H744 C752 0.950 . S
H745 C757 0.950 . S
H746 C754 0.950 . S
H747 C756 0.950 . S
H748 C758 0.950 . S
H749 C760 0.950 . S
H750 C762 0.950 . S
H751 C763 0.950 . S
C752 H744 0.950 . S
C752 C753 1.386 . S
C752 C754 1.391 . S
C753 C752 1.386 . S
C753 C757 1.393 . S
C754 H746 0.950 . S
C754 C752 1.391 . S
C754 C755 1.400 . S
C755 C754 1.400 . S
C755 C756 1.398 . S
C755 C761 1.491 . S
C756 H747 0.950 . S
C756 C755 1.398 . S
C756 C757 1.391 . S
C757 H745 0.950 . S
C757 C753 1.393 . S
C757 C756 1.391 . S
C758 H748 0.950 . S
C758 C759 1.386 . S
C758 C760 1.391 . S
C759 C758 1.386 . S
C759 C763 1.393 . S
C760 H749 0.950 . S
C760 C758 1.391 . S
C760 C761 1.400 . S
C761 C755 1.491 . S
C761 C760 1.400 . S
C761 C762 1.398 . S
C762 H750 0.950 . S
C762 C761 1.398 . S
C762 C763 1.391 . S
C763 H751 0.950 . S
C763 C759 1.393 . S
C763 C762 1.391 . S
H764 C772 0.950 . S
H765 C777 0.950 . S
H766 C774 0.950 . S
H767 C776 0.950 . S
H768 C778 0.950 . S
H769 C780 0.950 . S
H770 C782 0.950 . S
H771 C783 0.950 . S
C772 H764 0.950 . S
C772 C773 1.386 . S
C772 C774 1.391 . S
C773 C772 1.386 . S
C773 C777 1.393 . S
C774 H766 0.950 . S
C774 C772 1.391 . S
C774 C775 1.400 . S
C775 C774 1.400 . S
C775 C776 1.398 . S
C775 C781 1.491 . S
C776 H767 0.950 . S
C776 C775 1.398 . S
C776 C777 1.391 . S
C777 H765 0.950 . S
C777 C773 1.393 . S
C777 C776 1.391 . S
C778 H768 0.950 . S
C778 C779 1.386 . S
C778 C780 1.391 . S
C779 C778 1.386 . S
C779 C783 1.393 . S
C780 H769 0.950 . S
C780 C778 1.391 . S
C780 C781 1.400 . S
C781 C775 1.491 . S
C781 C780 1.400 . S
C781 C782 1.398 . S
C782 H770 0.950 . S
C782 C781 1.398 . S
C782 C783 1.391 . S
C783 H771 0.950 . S
C783 C779 1.393 . S
C783 C782 1.391 . S
H784 C792 0.950 . S
H785 C797 0.950 . S
H786 C794 0.950 . S
H787 C796 0.950 . S
H788 C798 0.950 . S
H789 C800 0.950 . S
H790 C802 0.950 . S
H791 C803 0.950 . S
C792 H784 0.950 . S
C792 C793 1.386 . S
C792 C794 1.391 . S
C793 C792 1.386 . S
C793 C797 1.393 . S
C794 H786 0.950 . S
C794 C792 1.391 . S
C794 C795 1.400 . S
C795 C794 1.400 . S
C795 C796 1.398 . S
C795 C801 1.491 . S
C796 H787 0.950 . S
C796 C795 1.398 . S
C796 C797 1.391 . S
C797 H785 0.950 . S
C797 C793 1.393 . S
C797 C796 1.391 . S
C798 H788 0.950 . S
C798 C799 1.386 . S
C798 C800 1.391 . S
C799 C798 1.386 . S
C799 C803 1.393 . S
C800 H789 0.950 . S
C800 C798 1.391 . S
C800 C801 1.400 . S
C801 C795 1.491 . S
C801 C800 1.400 . S
C801 C802 1.398 . S
C802 H790 0.950 . S
C802 C801 1.398 . S
C802 C803 1.391 . S
C803 H791 0.950 . S
C803 C799 1.393 . S
C803 C802 1.391 . S
H804 C812 0.950 1_455 S
H805 C817 0.950 . S
H806 C814 0.950 . S
H807 C816 0.950 . S
H808 C818 0.950 . S
H809 C820 0.950 . S
H810 C822 0.940 1_565 S
H811 C823 0.950 . S
C812 H804 0.950 1_655 S
C812 C813 1.386 . S
C812 C814 1.391 . S
C813 C812 1.386 . S
C813 C817 1.393 . S
C814 H806 0.950 . S
C814 C812 1.391 . S
C814 C815 1.400 . S
C815 C814 1.400 . S
C815 C816 1.398 . S
C815 C821 1.489 1_565 S
C816 H807 0.950 . S
C816 C815 1.398 . S
C816 C817 1.391 . S
C817 H805 0.950 . S
C817 C813 1.393 . S
C817 C816 1.391 . S
C818 H808 0.950 . S
C818 C819 1.386 . S
C818 C820 1.391 . S
C819 C818 1.386 . S
C819 C823 1.393 . S
C820 H809 0.950 . S
C820 C818 1.391 . S
C820 C821 1.402 . S
C821 C815 1.489 1_545 S
C821 C820 1.402 . S
C821 C822 1.398 . S
C822 H810 0.940 1_545 S
C822 C821 1.398 . S
C822 C823 1.401 . S
C823 H811 0.950 . S
C823 C819 1.393 . S
C823 C822 1.401 . S
H824 C832 0.950 . S
H825 C837 0.950 . S
H826 C834 0.950 . S
H827 C836 0.950 . S
H828 C838 0.950 . S
H829 C840 0.950 . S
H830 C842 0.950 . S
H831 C843 0.950 . S
C832 H824 0.950 . S
C832 C833 1.386 . S
C832 C834 1.391 . S
C833 C832 1.386 . S
C833 C837 1.393 . S
C834 H826 0.950 . S
C834 C832 1.391 . S
C834 C835 1.400 . S
C835 C834 1.400 . S
C835 C836 1.398 . S
C835 C841 1.491 . S
C836 H827 0.950 . S
C836 C835 1.398 . S
C836 C837 1.391 . S
C837 H825 0.950 . S
C837 C833 1.393 . S
C837 C836 1.391 . S
C838 H828 0.950 . S
C838 C839 1.386 . S
C838 C840 1.391 . S
C839 C838 1.386 . S
C839 C843 1.393 . S
C840 H829 0.950 . S
C840 C838 1.391 . S
C840 C841 1.400 . S
C841 C835 1.491 . S
C841 C840 1.400 . S
C841 C842 1.398 . S
C842 H830 0.950 . S
C842 C841 1.398 . S
C842 C843 1.391 . S
C843 H831 0.950 . S
C843 C839 1.393 . S
C843 C842 1.391 . S
H844 C852 0.950 . S
H845 C857 0.950 . S
H846 C854 0.950 . S
H847 C856 0.950 . S
H848 C858 0.950 . S
H849 C860 0.950 . S
H850 C862 0.950 . S
H851 C863 0.950 . S
C852 H844 0.950 . S
C852 C853 1.386 . S
C852 C854 1.391 . S
C853 C852 1.386 . S
C853 C857 1.393 . S
C854 H846 0.950 . S
C854 C852 1.391 . S
C854 C855 1.400 . S
C855 C854 1.400 . S
C855 C856 1.398 . S
C855 C861 1.491 . S
C856 H847 0.950 . S
C856 C855 1.398 . S
C856 C857 1.391 . S
C857 H845 0.950 . S
C857 C853 1.393 . S
C857 C856 1.391 . S
C858 H848 0.950 . S
C858 C859 1.386 . S
C858 C860 1.391 . S
C859 C858 1.386 . S
C859 C863 1.393 . S
C860 H849 0.950 . S
C860 C858 1.391 . S
C860 C861 1.400 . S
C861 C855 1.491 . S
C861 C860 1.400 . S
C861 C862 1.398 . S
C862 H850 0.950 . S
C862 C861 1.398 . S
C862 C863 1.391 . S
C863 H851 0.950 . S
C863 C859 1.393 . S
C863 C862 1.391 . S
H864 C872 0.950 . S
H865 C877 0.950 . S
H866 C874 0.950 . S
H867 C876 0.950 . S
H868 C878 0.950 . S
H869 C880 0.950 . S
H870 C882 0.950 . S
H871 C883 0.950 . S
C872 H864 0.950 . S
C872 C873 1.386 . S
C872 C874 1.391 . S
C873 C872 1.386 . S
C873 C877 1.393 . S
C874 H866 0.950 . S
C874 C872 1.391 . S
C874 C875 1.400 . S
C875 C874 1.400 . S
C875 C876 1.398 . S
C875 C881 1.491 . S
C876 H867 0.950 . S
C876 C875 1.398 . S
C876 C877 1.391 . S
C877 H865 0.950 . S
C877 C873 1.393 . S
C877 C876 1.391 . S
C878 H868 0.950 . S
C878 C879 1.386 . S
C878 C880 1.391 . S
C879 C878 1.386 . S
C879 C883 1.393 . S
C880 H869 0.950 . S
C880 C878 1.391 . S
C880 C881 1.400 . S
C881 C875 1.491 . S
C881 C880 1.400 . S
C881 C882 1.398 . S
C882 H870 0.950 . S
C882 C881 1.398 . S
C882 C883 1.391 . S
C883 H871 0.950 . S
C883 C879 1.393 . S
C883 C882 1.391 . S
H884 C892 0.950 . S
H885 C897 0.950 1_545 S
H886 C894 0.950 . S
H887 C896 0.950 . S
H888 C898 0.950 . S
H889 C900 0.950 . S
H890 C902 0.950 . S
H891 C903 0.950 . S
C892 H884 0.950 . S
C892 C893 1.386 . S
C892 C894 1.391 . S
C893 C892 1.386 . S
C893 C897 1.393 . S
C894 H886 0.950 . S
C894 C892 1.391 . S
C894 C895 1.400 . S
C895 C894 1.400 . S
C895 C896 1.398 1_565 S
C895 C901 1.491 . S
C896 H887 0.950 . S
C896 C895 1.398 1_545 S
C896 C897 1.391 1_545 S
C897 H885 0.950 1_565 S
C897 C893 1.393 . S
C897 C896 1.391 1_565 S
C898 H888 0.950 . S
C898 C899 1.386 1_545 S
C898 C900 1.391 . S
C899 C898 1.386 1_565 S
C899 C903 1.393 . S
C900 H889 0.950 . S
C900 C898 1.391 . S
C900 C901 1.400 1_545 S
C901 C895 1.491 . S
C901 C900 1.400 1_565 S
C901 C902 1.398 . S
C902 H890 0.950 . S
C902 C901 1.398 . S
C902 C903 1.391 . S
C903 H891 0.950 . S
C903 C899 1.393 . S
C903 C902 1.391 . S
H904 C912 0.950 . S
H905 C917 0.950 . S
H906 C914 0.950 . S
H907 C916 0.950 . S
H908 C918 0.950 . S
H909 C920 0.950 . S
H910 C922 0.950 . S
H911 C923 0.950 . S
C912 H904 0.950 . S
C912 C913 1.386 . S
C912 C914 1.391 . S
C913 C912 1.386 . S
C913 C917 1.393 . S
C914 H906 0.950 . S
C914 C912 1.391 . S
C914 C915 1.400 . S
C915 C914 1.400 . S
C915 C916 1.398 . S
C915 C921 1.491 . S
C916 H907 0.950 . S
C916 C915 1.398 . S
C916 C917 1.391 . S
C917 H905 0.950 . S
C917 C913 1.393 . S
C917 C916 1.391 . S
C918 H908 0.950 . S
C918 C919 1.386 . S
C918 C920 1.391 . S
C919 C918 1.386 . S
C919 C923 1.393 . S
C920 H909 0.950 . S
C920 C918 1.391 . S
C920 C921 1.400 . S
C921 C915 1.491 . S
C921 C920 1.400 . S
C921 C922 1.398 . S
C922 H910 0.950 . S
C922 C921 1.398 . S
C922 C923 1.391 . S
C923 H911 0.950 . S
C923 C919 1.393 . S
C923 C922 1.391 . S
H924 C932 0.950 . S
H925 C937 0.950 . S
H926 C934 0.950 . S
H927 C936 0.950 . S
H928 C938 0.950 . S
H929 C940 0.950 . S
H930 C942 0.950 . S
H931 C943 0.950 . S
C932 H924 0.950 . S
C932 C933 1.386 . S
C932 C934 1.391 . S
C933 C932 1.386 . S
C933 C937 1.393 . S
C934 H926 0.950 . S
C934 C932 1.391 . S
C934 C935 1.400 . S
C935 C934 1.400 . S
C935 C936 1.398 . S
C935 C941 1.491 . S
C936 H927 0.950 . S
C936 C935 1.398 . S
C936 C937 1.391 . S
C937 H925 0.950 . S
C937 C933 1.393 . S
C937 C936 1.391 . S
C938 H928 0.950 . S
C938 C939 1.386 . S
C938 C940 1.391 . S
C939 C938 1.386 . S
C939 C943 1.393 . S
C940 H929 0.950 . S
C940 C938 1.391 . S
C940 C941 1.400 . S
C941 C935 1.491 . S
C941 C940 1.400 . S
C941 C942 1.398 . S
C942 H930 0.950 . S
C942 C941 1.398 . S
C942 C943 1.391 . S
C943 H931 0.950 . S
C943 C939 1.393 . S
C943 C942 1.391 . S
H944 C952 0.950 . S
H945 C957 0.950 . S
H946 C954 0.950 . S
H947 C956 0.950 . S
H948 C958 0.950 . S
H949 C960 0.950 . S
H950 C962 0.950 . S
H951 C963 0.950 . S
C952 H944 0.950 . S
C952 C953 1.386 . S
C952 C954 1.391 . S
C953 C952 1.386 . S
C953 C957 1.393 . S
C954 H946 0.950 . S
C954 C952 1.391 . S
C954 C955 1.400 . S
C955 C954 1.400 . S
C955 C956 1.398 . S
C955 C961 1.491 . S
C956 H947 0.950 . S
C956 C955 1.398 . S
C956 C957 1.391 . S
C957 H945 0.950 . S
C957 C953 1.393 . S
C957 C956 1.391 . S
C958 H948 0.950 . S
C958 C959 1.386 . S
C958 C960 1.391 . S
C959 C958 1.386 . S
C959 C963 1.393 . S
C960 H949 0.950 . S
C960 C958 1.391 . S
C960 C961 1.400 . S
C961 C955 1.491 . S
C961 C960 1.400 . S
C961 C962 1.398 . S
C962 H950 0.950 . S
C962 C961 1.398 . S
C962 C963 1.391 . S
C963 H951 0.950 . S
C963 C959 1.393 . S
C963 C962 1.391 . S
H964 C972 0.950 . S
H965 C977 0.950 . S
H966 C974 0.950 . S
H967 C976 0.950 . S
H968 C978 0.950 . S
H969 C980 0.950 . S
H970 C982 0.950 . S
H971 C983 0.950 . S
C972 H964 0.950 . S
C972 C973 1.386 . S
C972 C974 1.391 . S
C973 C972 1.386 . S
C973 C977 1.393 . S
C974 H966 0.950 . S
C974 C972 1.391 . S
C974 C975 1.400 . S
C975 C974 1.400 . S
C975 C976 1.398 . S
C975 C981 1.491 . S
C976 H967 0.950 . S
C976 C975 1.398 . S
C976 C977 1.391 . S
C977 H965 0.950 . S
C977 C973 1.393 . S
C977 C976 1.391 . S
C978 H968 0.950 . S
C978 C979 1.386 . S
C978 C980 1.391 . S
C979 C978 1.386 . S
C979 C983 1.393 . S
C980 H969 0.950 . S
C980 C978 1.391 . S
C980 C981 1.400 . S
C981 C975 1.491 . S
C981 C980 1.400 . S
C981 C982 1.398 . S
C982 H970 0.950 . S
C982 C981 1.398 . S
C982 C983 1.391 . S
C983 H971 0.950 . S
C983 C979 1.393 . S
C983 C982 1.391 . S
H984 C992 0.950 . S
H985 C997 0.950 . S
H986 C994 0.950 . S
H987 C996 0.950 . S
H988 C998 0.950 . S
H989 C1000 0.950 . S
H990 C1002 0.950 . S
H991 C1003 0.950 . S
C992 H984 0.950 . S
C992 C993 1.386 . S
C992 C994 1.391 . S
C993 C992 1.386 . S
C993 C997 1.393 . S
C994 H986 0.950 . S
C994 C992 1.391 . S
C994 C995 1.400 . S
C995 C994 1.400 . S
C995 C996 1.398 . S
C995 C1001 1.491 . S
C996 H987 0.950 . S
C996 C995 1.398 . S
C996 C997 1.391 . S
C997 H985 0.950 . S
C997 C993 1.393 . S
C997 C996 1.391 . S
C998 H988 0.950 . S
C998 C999 1.386 . S
C998 C1000 1.391 . S
C999 C998 1.386 . S
C999 C1003 1.393 . S
C1000 H989 0.950 . S
C1000 C998 1.391 . S
C1000 C1001 1.400 . S
C1001 C995 1.491 . S
C1001 C1000 1.400 . S
C1001 C1002 1.398 . S
C1002 H990 0.950 . S
C1002 C1001 1.398 . S
C1002 C1003 1.391 . S
C1003 H991 0.950 . S
C1003 C999 1.393 . S
C1003 C1002 1.391 . S
H1004 C1012 0.950 . S
H1005 C1017 0.950 . S
H1006 C1014 0.950 . S
H1007 C1016 0.950 . S
H1008 C1018 0.950 . S
H1009 C1020 0.950 . S
H1010 C1022 0.950 1_655 S
H1011 C1023 0.950 1_655 S
C1012 H1004 0.950 . S
C1012 C1013 1.386 . S
C1012 C1014 1.391 . S
C1013 C1012 1.386 . S
C1013 C1017 1.393 . S
C1014 H1006 0.950 . S
C1014 C1012 1.391 . S
C1014 C1015 1.400 . S
C1015 C1014 1.400 . S
C1015 C1016 1.398 . S
C1015 C1021 1.491 . S
C1016 H1007 0.950 . S
C1016 C1015 1.398 . S
C1016 C1017 1.391 . S
C1017 H1005 0.950 . S
C1017 C1013 1.393 . S
C1017 C1016 1.391 . S
C1018 H1008 0.950 . S
C1018 C1019 1.386 . S
C1018 C1020 1.391 . S
C1019 C1018 1.386 . S
C1019 C1023 1.393 . S
C1020 H1009 0.950 . S
C1020 C1018 1.391 . S
C1020 C1021 1.400 . S
C1021 C1015 1.491 . S
C1021 C1020 1.400 . S
C1021 C1022 1.398 . S
C1022 H1010 0.950 1_455 S
C1022 C1021 1.398 . S
C1022 C1023 1.391 . S
C1023 H1011 0.950 1_455 S
C1023 C1019 1.393 . S
C1023 C1022 1.391 . S
H1024 C1032 0.950 . S
H1025 C1037 0.950 . S
H1026 C1034 0.950 . S
H1027 C1036 0.950 . S
H1028 C1038 0.950 . S
H1029 C1040 0.950 . S
H1030 C1042 0.950 . S
H1031 C1043 0.950 . S
C1032 H1024 0.950 . S
C1032 C1033 1.386 . S
C1032 C1034 1.391 . S
C1033 C1032 1.386 . S
C1033 C1037 1.393 . S
C1034 H1026 0.950 . S
C1034 C1032 1.391 . S
C1034 C1035 1.400 . S
C1035 C1034 1.400 . S
C1035 C1036 1.398 . S
C1035 C1041 1.491 . S
C1036 H1027 0.950 . S
C1036 C1035 1.398 . S
C1036 C1037 1.391 . S
C1037 H1025 0.950 . S
C1037 C1033 1.393 . S
C1037 C1036 1.391 . S
C1038 H1028 0.950 . S
C1038 C1039 1.386 . S
C1038 C1040 1.391 . S
C1039 C1038 1.386 . S
C1039 C1043 1.393 . S
C1040 H1029 0.950 . S
C1040 C1038 1.391 . S
C1040 C1041 1.400 . S
C1041 C1035 1.491 . S
C1041 C1040 1.400 . S
C1041 C1042 1.398 . S
C1042 H1030 0.950 . S
C1042 C1041 1.398 . S
C1042 C1043 1.391 . S
C1043 H1031 0.950 . S
C1043 C1039 1.393 . S
C1043 C1042 1.391 . S
H1044 C1052 0.950 . S
H1045 C1057 0.950 1_455 S
H1046 C1054 0.950 . S
H1047 C1056 0.950 1_455 S
H1048 C1058 0.950 . S
H1049 C1060 0.950 . S
H1050 C1062 0.950 . S
H1051 C1063 0.950 . S
C1052 H1044 0.950 . S
C1052 C1053 1.386 . S
C1052 C1054 1.391 . S
C1053 C1052 1.386 . S
C1053 C1057 1.393 . S
C1054 H1046 0.950 . S
C1054 C1052 1.391 . S
C1054 C1055 1.400 . S
C1055 C1054 1.400 . S
C1055 C1056 1.398 . S
C1055 C1061 1.491 . S
C1056 H1047 0.950 1_655 S
C1056 C1055 1.398 . S
C1056 C1057 1.391 . S
C1057 H1045 0.950 1_655 S
C1057 C1053 1.393 . S
C1057 C1056 1.391 . S
C1058 H1048 0.950 . S
C1058 C1059 1.386 1_455 S
C1058 C1060 1.391 . S
C1059 C1058 1.386 1_655 S
C1059 C1063 1.393 . S
C1060 H1049 0.950 . S
C1060 C1058 1.391 . S
C1060 C1061 1.400 1_455 S
C1061 C1055 1.491 . S
C1061 C1060 1.400 1_655 S
C1061 C1062 1.398 . S
C1062 H1050 0.950 . S
C1062 C1061 1.398 . S
C1062 C1063 1.391 . S
C1063 H1051 0.950 . S
C1063 C1059 1.393 . S
C1063 C1062 1.391 . S
H1064 C1072 0.950 . S
H1065 C1077 0.950 . S
H1066 C1074 0.950 . S
H1067 C1076 0.950 . S
H1068 C1078 0.950 . S
H1069 C1080 0.950 . S
H1070 C1082 0.950 . S
H1071 C1083 0.950 . S
C1072 H1064 0.950 . S
C1072 C1073 1.386 . S
C1072 C1074 1.391 . S
C1073 C1072 1.386 . S
C1073 C1077 1.393 . S
C1074 H1066 0.950 . S
C1074 C1072 1.391 . S
C1074 C1075 1.400 . S
C1075 C1074 1.400 . S
C1075 C1076 1.398 . S
C1075 C1081 1.491 . S
C1076 H1067 0.950 . S
C1076 C1075 1.398 . S
C1076 C1077 1.391 . S
C1077 H1065 0.950 . S
C1077 C1073 1.393 . S
C1077 C1076 1.391 . S
C1078 H1068 0.950 . S
C1078 C1079 1.386 . S
C1078 C1080 1.391 . S
C1079 C1078 1.386 . S
C1079 C1083 1.393 . S
C1080 H1069 0.950 . S
C1080 C1078 1.391 . S
C1080 C1081 1.400 . S
C1081 C1075 1.491 . S
C1081 C1080 1.400 . S
C1081 C1082 1.398 . S
C1082 H1070 0.950 . S
C1082 C1081 1.398 . S
C1082 C1083 1.391 . S
C1083 H1071 0.950 . S
C1083 C1079 1.393 . S
C1083 C1082 1.391 . S
H1084 C1092 0.950 . S
H1085 C1097 0.950 . S
H1086 C1094 0.950 . S
H1087 C1096 0.950 . S
H1088 C1098 0.950 . S
H1089 C1100 0.950 . S
H1090 C1102 0.950 . S
H1091 C1103 0.950 . S
C1092 H1084 0.950 . S
C1092 C1093 1.386 . S
C1092 C1094 1.391 . S
C1093 C1092 1.386 . S
C1093 C1097 1.393 . S
C1094 H1086 0.950 . S
C1094 C1092 1.391 . S
C1094 C1095 1.400 . S
C1095 C1094 1.400 . S
C1095 C1096 1.398 . S
C1095 C1101 1.491 . S
C1096 H1087 0.950 . S
C1096 C1095 1.398 . S
C1096 C1097 1.391 . S
C1097 H1085 0.950 . S
C1097 C1093 1.393 . S
C1097 C1096 1.391 . S
C1098 H1088 0.950 . S
C1098 C1099 1.386 . S
C1098 C1100 1.391 . S
C1099 C1098 1.386 . S
C1099 C1103 1.393 . S
C1100 H1089 0.950 . S
C1100 C1098 1.391 . S
C1100 C1101 1.400 . S
C1101 C1095 1.491 . S
C1101 C1100 1.400 . S
C1101 C1102 1.398 . S
C1102 H1090 0.950 . S
C1102 C1101 1.398 . S
C1102 C1103 1.391 . S
C1103 H1091 0.950 . S
C1103 C1099 1.393 . S
C1103 C1102 1.391 . S
H1104 C1112 0.950 . S
H1105 C1117 0.950 1_554 S
H1106 C1114 0.950 . S
H1107 C1116 0.917 1_554 S
H1108 C1118 0.950 . S
H1109 C1120 0.950 . S
H1110 C1122 0.950 . S
H1111 C1123 0.950 . S
C1112 H1104 0.950 . S
C1112 C1113 1.386 . S
C1112 C1114 1.391 . S
C1113 C1112 1.386 . S
C1113 C1117 1.393 . S
C1114 H1106 0.950 . S
C1114 C1112 1.391 . S
C1114 C1115 1.400 . S
C1115 C1114 1.400 . S
C1115 C1116 1.424 . S
C1115 C1121 1.491 . S
C1116 H1107 0.917 1_556 S
C1116 C1115 1.424 . S
C1116 C1117 1.400 . S
C1117 H1105 0.950 1_556 S
C1117 C1113 1.393 . S
C1117 C1116 1.400 . S
C1118 H1108 0.950 . S
C1118 C1119 1.386 1_554 S
C1118 C1120 1.391 . S
C1119 C1118 1.386 1_556 S
C1119 C1123 1.393 . S
C1120 H1109 0.950 . S
C1120 C1118 1.391 . S
C1120 C1121 1.400 1_554 S
C1121 C1115 1.491 . S
C1121 C1120 1.400 1_556 S
C1121 C1122 1.398 . S
C1122 H1110 0.950 . S
C1122 C1121 1.398 . S
C1122 C1123 1.391 . S
C1123 H1111 0.950 . S
C1123 C1119 1.393 . S
C1123 C1122 1.391 . S
H1124 C1132 0.950 . S
H1125 C1137 0.950 . S
H1126 C1134 0.950 . S
H1127 C1136 0.950 . S
H1128 C1138 0.950 . S
H1129 C1140 0.950 . S
H1130 C1142 0.950 . S
H1131 C1143 0.950 . S
C1132 H1124 0.950 . S
C1132 C1133 1.386 . S
C1132 C1134 1.391 . S
C1133 C1132 1.386 . S
C1133 C1137 1.393 . S
C1134 H1126 0.950 . S
C1134 C1132 1.391 . S
C1134 C1135 1.400 . S
C1135 C1134 1.400 . S
C1135 C1136 1.398 . S
C1135 C1141 1.491 . S
C1136 H1127 0.950 . S
C1136 C1135 1.398 . S
C1136 C1137 1.391 . S
C1137 H1125 0.950 . S
C1137 C1133 1.393 . S
C1137 C1136 1.391 . S
C1138 H1128 0.950 . S
C1138 C1139 1.386 . S
C1138 C1140 1.391 . S
C1139 C1138 1.386 . S
C1139 C1143 1.393 . S
C1140 H1129 0.950 . S
C1140 C1138 1.391 . S
C1140 C1141 1.400 . S
C1141 C1135 1.491 . S
C1141 C1140 1.400 . S
C1141 C1142 1.398 . S
C1142 H1130 0.950 . S
C1142 C1141 1.398 . S
C1142 C1143 1.391 . S
C1143 H1131 0.950 . S
C1143 C1139 1.393 . S
C1143 C1142 1.391 . S
H1144 C1152 0.950 . S
H1145 C1157 0.950 . S
H1146 C1154 0.950 . S
H1147 C1156 0.950 . S
H1148 C1158 0.950 . S
H1149 C1160 0.950 . S
H1150 C1162 0.950 . S
H1151 C1163 0.950 . S
C1152 H1144 0.950 . S
C1152 C1153 1.386 . S
C1152 C1154 1.391 . S
C1153 C1152 1.386 . S
C1153 C1157 1.393 . S
C1154 H1146 0.950 . S
C1154 C1152 1.391 . S
C1154 C1155 1.400 . S
C1155 C1154 1.400 . S
C1155 C1156 1.398 . S
C1155 C1161 1.491 . S
C1156 H1147 0.950 . S
C1156 C1155 1.398 . S
C1156 C1157 1.391 . S
C1157 H1145 0.950 . S
C1157 C1153 1.393 . S
C1157 C1156 1.391 . S
C1158 H1148 0.950 . S
C1158 C1159 1.386 . S
C1158 C1160 1.391 . S
C1159 C1158 1.386 . S
C1159 C1163 1.393 . S
C1160 H1149 0.950 . S
C1160 C1158 1.391 . S
C1160 C1161 1.400 . S
C1161 C1155 1.491 . S
C1161 C1160 1.400 . S
C1161 C1162 1.398 . S
C1162 H1150 0.950 . S
C1162 C1161 1.398 . S
C1162 C1163 1.391 . S
C1163 H1151 0.950 . S
C1163 C1159 1.393 . S
C1163 C1162 1.391 . S
H1164 C1172 0.950 . S
H1165 C1177 0.950 . S
H1166 C1174 0.950 . S
H1167 C1176 0.950 . S
H1168 C1178 0.950 . S
H1169 C1180 0.950 . S
H1170 C1182 0.950 . S
H1171 C1183 0.950 . S
C1172 H1164 0.950 . S
C1172 C1173 1.386 . S
C1172 C1174 1.391 . S
C1173 C1172 1.386 . S
C1173 C1177 1.393 . S
C1174 H1166 0.950 . S
C1174 C1172 1.391 . S
C1174 C1175 1.400 . S
C1175 C1174 1.400 . S
C1175 C1176 1.398 . S
C1175 C1181 1.491 . S
C1176 H1167 0.950 . S
C1176 C1175 1.398 . S
C1176 C1177 1.391 . S
C1177 H1165 0.950 . S
C1177 C1173 1.393 . S
C1177 C1176 1.391 . S
C1178 H1168 0.950 . S
C1178 C1179 1.386 . S
C1178 C1180 1.391 . S
C1179 C1178 1.386 . S
C1179 C1183 1.393 . S
C1180 H1169 0.950 . S
C1180 C1178 1.391 . S
C1180 C1181 1.400 . S
C1181 C1175 1.491 . S
C1181 C1180 1.400 . S
C1181 C1182 1.398 . S
C1182 H1170 0.950 . S
C1182 C1181 1.398 . S
C1182 C1183 1.391 . S
C1183 H1171 0.950 . S
C1183 C1179 1.393 . S
C1183 C1182 1.391 . S
H1184 C1192 0.950 . S
H1185 C1197 0.950 . S
H1186 C1194 0.950 . S
H1187 C1196 0.950 . S
H1188 C1198 0.950 . S
H1189 C1200 0.950 . S
H1190 C1202 0.950 . S
H1191 C1203 0.950 . S
C1192 H1184 0.950 . S
C1192 C1193 1.386 . S
C1192 C1194 1.391 . S
C1193 C1192 1.386 . S
C1193 C1197 1.393 . S
C1194 H1186 0.950 . S
C1194 C1192 1.391 . S
C1194 C1195 1.400 . S
C1195 C1194 1.400 . S
C1195 C1196 1.398 . S
C1195 C1201 1.491 . S
C1196 H1187 0.950 . S
C1196 C1195 1.398 . S
C1196 C1197 1.391 . S
C1197 H1185 0.950 . S
C1197 C1193 1.393 . S
C1197 C1196 1.391 . S
C1198 H1188 0.950 . S
C1198 C1199 1.386 . S
C1198 C1200 1.391 . S
C1199 C1198 1.386 . S
C1199 C1203 1.393 . S
C1200 H1189 0.950 . S
C1200 C1198 1.391 . S
C1200 C1201 1.400 . S
C1201 C1195 1.491 . S
C1201 C1200 1.400 . S
C1201 C1202 1.398 . S
C1202 H1190 0.950 . S
C1202 C1201 1.398 . S
C1202 C1203 1.391 . S
C1203 H1191 0.950 . S
C1203 C1199 1.393 . S
C1203 C1202 1.391 . S
H1204 C1212 0.950 . S
H1205 C1217 0.950 . S
H1206 C1214 0.950 . S
H1207 C1216 0.950 . S
H1208 C1218 0.950 . S
H1209 C1220 0.950 . S
H1210 C1222 0.950 . S
H1211 C1223 0.950 . S
C1212 H1204 0.950 . S
C1212 C1213 1.386 . S
C1212 C1214 1.391 . S
C1213 C1212 1.386 . S
C1213 C1217 1.393 . S
C1214 H1206 0.950 . S
C1214 C1212 1.391 . S
C1214 C1215 1.400 . S
C1215 C1214 1.400 . S
C1215 C1216 1.398 . S
C1215 C1221 1.491 . S
C1216 H1207 0.950 . S
C1216 C1215 1.398 . S
C1216 C1217 1.391 . S
C1217 H1205 0.950 . S
C1217 C1213 1.393 . S
C1217 C1216 1.391 . S
C1218 H1208 0.950 . S
C1218 C1219 1.386 . S
C1218 C1220 1.391 . S
C1219 C1218 1.386 . S
C1219 C1223 1.393 . S
C1220 H1209 0.950 . S
C1220 C1218 1.391 . S
C1220 C1221 1.400 . S
C1221 C1215 1.491 . S
C1221 C1220 1.400 . S
C1221 C1222 1.398 . S
C1222 H1210 0.950 . S
C1222 C1221 1.398 . S
C1222 C1223 1.391 . S
C1223 H1211 0.950 . S
C1223 C1219 1.393 . S
C1223 C1222 1.391 . S
H1224 C1232 0.950 . S
H1225 C1237 0.950 . S
H1226 C1234 0.950 . S
H1227 C1236 0.950 . S
H1228 C1238 0.950 . S
H1229 C1240 0.950 . S
H1230 C1242 0.950 . S
H1231 C1243 0.950 . S
C1232 H1224 0.950 . S
C1232 C1233 1.386 . S
C1232 C1234 1.391 . S
C1233 C1232 1.386 . S
C1233 C1237 1.393 . S
C1234 H1226 0.950 . S
C1234 C1232 1.391 . S
C1234 C1235 1.400 . S
C1235 C1234 1.400 . S
C1235 C1236 1.398 . S
C1235 C1241 1.491 . S
C1236 H1227 0.950 . S
C1236 C1235 1.398 . S
C1236 C1237 1.391 . S
C1237 H1225 0.950 . S
C1237 C1233 1.393 . S
C1237 C1236 1.391 . S
C1238 H1228 0.950 . S
C1238 C1239 1.386 . S
C1238 C1240 1.391 . S
C1239 C1238 1.386 . S
C1239 C1243 1.393 . S
C1240 H1229 0.950 . S
C1240 C1238 1.391 . S
C1240 C1241 1.400 . S
C1241 C1235 1.491 . S
C1241 C1240 1.400 . S
C1241 C1242 1.398 . S
C1242 H1230 0.950 . S
C1242 C1241 1.398 . S
C1242 C1243 1.391 . S
C1243 H1231 0.950 . S
C1243 C1239 1.393 . S
C1243 C1242 1.391 . S
H1244 C1252 0.950 . S
H1245 C1257 0.950 . S
H1246 C1254 0.950 . S
H1247 C1256 0.950 . S
H1248 C1258 0.950 . S
H1249 C1260 0.950 . S
H1250 C1262 0.950 . S
H1251 C1263 0.950 . S
C1252 H1244 0.950 . S
C1252 C1253 1.386 . S
C1252 C1254 1.391 . S
C1253 C1252 1.386 . S
C1253 C1257 1.393 1_545 S
C1254 H1246 0.950 . S
C1254 C1252 1.391 . S
C1254 C1255 1.400 . S
C1255 C1254 1.400 . S
C1255 C1256 1.398 1_545 S
C1255 C1261 1.491 . S
C1256 H1247 0.950 . S
C1256 C1255 1.398 1_565 S
C1256 C1257 1.391 . S
C1257 H1245 0.950 . S
C1257 C1253 1.393 1_565 S
C1257 C1256 1.391 . S
C1258 H1248 0.950 . S
C1258 C1259 1.386 1_565 S
C1258 C1260 1.391 . S
C1259 C1258 1.386 1_545 S
C1259 C1263 1.393 . S
C1260 H1249 0.950 . S
C1260 C1258 1.391 . S
C1260 C1261 1.400 1_565 S
C1261 C1255 1.491 . S
C1261 C1260 1.400 1_545 S
C1261 C1262 1.398 . S
C1262 H1250 0.950 . S
C1262 C1261 1.398 . S
C1262 C1263 1.391 . S
C1263 H1251 0.950 . S
C1263 C1259 1.393 . S
C1263 C1262 1.391 . S
H1264 C1272 0.950 . S
H1265 C1277 0.950 . S
H1266 C1274 0.950 . S
H1267 C1276 0.950 . S
H1268 C1278 0.950 . S
H1269 C1280 0.950 . S
H1270 C1282 0.950 . S
H1271 C1283 0.950 . S
C1272 H1264 0.950 . S
C1272 C1273 1.386 . S
C1272 C1274 1.391 . S
C1273 C1272 1.386 . S
C1273 C1277 1.393 . S
C1274 H1266 0.950 . S
C1274 C1272 1.391 . S
C1274 C1275 1.400 . S
C1275 C1274 1.400 . S
C1275 C1276 1.398 . S
C1275 C1281 1.491 . S
C1276 H1267 0.950 . S
C1276 C1275 1.398 . S
C1276 C1277 1.391 . S
C1277 H1265 0.950 . S
C1277 C1273 1.393 . S
C1277 C1276 1.391 . S
C1278 H1268 0.950 . S
C1278 C1279 1.386 . S
C1278 C1280 1.391 . S
C1279 C1278 1.386 . S
C1279 C1283 1.393 . S
C1280 H1269 0.950 . S
C1280 C1278 1.391 . S
C1280 C1281 1.400 . S
C1281 C1275 1.491 . S
C1281 C1280 1.400 . S
C1281 C1282 1.398 . S
C1282 H1270 0.950 . S
C1282 C1281 1.398 . S
C1282 C1283 1.391 . S
C1283 H1271 0.950 . S
C1283 C1279 1.393 . S
C1283 C1282 1.391 . S
H1284 C1292 0.950 . S
H1285 C1297 0.950 . S
H1286 C1294 0.950 . S
H1287 C1296 0.950 . S
H1288 C1298 0.950 . S
H1289 C1300 0.950 . S
H1290 C1302 0.950 . S
H1291 C1303 0.950 . S
C1292 H1284 0.950 . S
C1292 C1293 1.386 . S
C1292 C1294 1.391 . S
C1293 C1292 1.386 . S
C1293 C1297 1.393 . S
C1294 H1286 0.950 . S
C1294 C1292 1.391 . S
C1294 C1295 1.400 . S
C1295 C1294 1.400 . S
C1295 C1296 1.398 . S
C1295 C1301 1.491 . S
C1296 H1287 0.950 . S
C1296 C1295 1.398 . S
C1296 C1297 1.391 . S
C1297 H1285 0.950 . S
C1297 C1293 1.393 . S
C1297 C1296 1.391 . S
C1298 H1288 0.950 . S
C1298 C1299 1.386 . S
C1298 C1300 1.391 . S
C1299 C1298 1.386 . S
C1299 C1303 1.393 . S
C1300 H1289 0.950 . S
C1300 C1298 1.391 . S
C1300 C1301 1.400 . S
C1301 C1295 1.491 . S
C1301 C1300 1.400 . S
C1301 C1302 1.398 . S
C1302 H1290 0.950 . S
C1302 C1301 1.398 . S
C1302 C1303 1.391 . S
C1303 H1291 0.950 . S
C1303 C1299 1.393 . S
C1303 C1302 1.391 . S
H1304 C1312 0.950 . S
H1305 C1317 0.950 . S
H1306 C1314 0.950 . S
H1307 C1316 0.950 . S
H1308 C1318 0.950 . S
H1309 C1320 0.950 . S
H1310 C1322 0.950 . S
H1311 C1323 0.950 . S
C1312 H1304 0.950 . S
C1312 C1313 1.386 . S
C1312 C1314 1.391 . S
C1313 C1312 1.386 . S
C1313 C1317 1.393 . S
C1314 H1306 0.950 . S
C1314 C1312 1.391 . S
C1314 C1315 1.400 . S
C1315 C1314 1.400 . S
C1315 C1316 1.398 . S
C1315 C1321 1.491 . S
C1316 H1307 0.950 . S
C1316 C1315 1.398 . S
C1316 C1317 1.391 . S
C1317 H1305 0.950 . S
C1317 C1313 1.393 . S
C1317 C1316 1.391 . S
C1318 H1308 0.950 . S
C1318 C1319 1.386 . S
C1318 C1320 1.391 . S
C1319 C1318 1.386 . S
C1319 C1323 1.393 . S
C1320 H1309 0.950 . S
C1320 C1318 1.391 . S
C1320 C1321 1.400 . S
C1321 C1315 1.491 . S
C1321 C1320 1.400 . S
C1321 C1322 1.398 . S
C1322 H1310 0.950 . S
C1322 C1321 1.398 . S
C1322 C1323 1.391 . S
C1323 H1311 0.950 . S
C1323 C1319 1.393 . S
C1323 C1322 1.391 . S
H1324 C1332 0.950 . S
H1325 C1337 0.912 1_565 S
H1326 C1334 0.950 . S
H1327 C1336 0.950 1_565 S
H1328 C1338 0.950 1_565 S
H1329 C1340 0.950 1_565 S
H1330 C1342 0.950 . S
H1331 C1343 0.950 . S
C1332 H1324 0.950 . S
C1332 C1333 1.386 . S
C1332 C1334 1.391 . S
C1333 C1332 1.386 . S
C1333 C1337 1.393 . S
C1334 H1326 0.950 . S
C1334 C1332 1.391 . S
C1334 C1335 1.400 . S
C1335 C1334 1.400 . S
C1335 C1336 1.398 . S
C1335 C1341 1.491 . S
C1336 H1327 0.950 1_545 S
C1336 C1335 1.398 . S
C1336 C1337 1.391 . S
C1337 H1325 0.912 1_545 S
C1337 C1333 1.393 . S
C1337 C1336 1.391 . S
C1338 H1328 0.950 1_545 S
C1338 C1339 1.386 . S
C1338 C1340 1.391 . S
C1339 C1338 1.386 . S
C1339 C1343 1.393 . S
C1340 H1329 0.950 1_545 S
C1340 C1338 1.391 . S
C1340 C1341 1.400 . S
C1341 C1335 1.491 . S
C1341 C1340 1.400 . S
C1341 C1342 1.398 . S
C1342 H1330 0.950 . S
C1342 C1341 1.398 . S
C1342 C1343 1.391 . S
C1343 H1331 0.950 . S
C1343 C1339 1.393 . S
C1343 C1342 1.391 . S
H1344 C1352 0.950 . S
H1345 C1357 0.950 . S
H1346 C1354 0.950 . S
H1347 C1356 0.950 . S
H1348 C1358 0.950 . S
H1349 C1360 0.950 . S
H1350 C1362 0.950 . S
H1351 C1363 0.950 . S
C1352 H1344 0.950 . S
C1352 C1353 1.386 . S
C1352 C1354 1.391 . S
C1353 C1352 1.386 . S
C1353 C1357 1.393 . S
C1354 H1346 0.950 . S
C1354 C1352 1.391 . S
C1354 C1355 1.400 . S
C1355 C1354 1.400 . S
C1355 C1356 1.398 . S
C1355 C1361 1.491 . S
C1356 H1347 0.950 . S
C1356 C1355 1.398 . S
C1356 C1357 1.391 . S
C1357 H1345 0.950 . S
C1357 C1353 1.393 . S
C1357 C1356 1.391 . S
C1358 H1348 0.950 . S
C1358 C1359 1.386 . S
C1358 C1360 1.391 . S
C1359 C1358 1.386 . S
C1359 C1363 1.393 . S
C1360 H1349 0.950 . S
C1360 C1358 1.391 . S
C1360 C1361 1.400 . S
C1361 C1355 1.491 . S
C1361 C1360 1.400 . S
C1361 C1362 1.398 . S
C1362 H1350 0.950 . S
C1362 C1361 1.398 . S
C1362 C1363 1.391 . S
C1363 H1351 0.950 . S
C1363 C1359 1.393 . S
C1363 C1362 1.391 . S
H1364 C1372 0.950 . S
H1365 C1377 0.950 . S
H1366 C1374 0.950 . S
H1367 C1376 0.950 . S
H1368 C1378 0.950 . S
H1369 C1380 0.950 . S
H1370 C1382 0.950 . S
H1371 C1383 0.950 . S
C1372 H1364 0.950 . S
C1372 C1373 1.386 . S
C1372 C1374 1.391 . S
C1373 C1372 1.386 . S
C1373 C1377 1.393 . S
C1374 H1366 0.950 . S
C1374 C1372 1.391 . S
C1374 C1375 1.400 . S
C1375 C1374 1.400 . S
C1375 C1376 1.398 . S
C1375 C1381 1.491 . S
C1376 H1367 0.950 . S
C1376 C1375 1.398 . S
C1376 C1377 1.391 . S
C1377 H1365 0.950 . S
C1377 C1373 1.393 . S
C1377 C1376 1.391 . S
C1378 H1368 0.950 . S
C1378 C1379 1.386 . S
C1378 C1380 1.391 . S
C1379 C1378 1.386 . S
C1379 C1383 1.393 . S
C1380 H1369 0.950 . S
C1380 C1378 1.391 . S
C1380 C1381 1.400 . S
C1381 C1375 1.491 . S
C1381 C1380 1.400 . S
C1381 C1382 1.398 . S
C1382 H1370 0.950 . S
C1382 C1381 1.398 . S
C1382 C1383 1.391 . S
C1383 H1371 0.950 . S
C1383 C1379 1.393 . S
C1383 C1382 1.391 . S
H1384 C1392 0.950 . S
H1385 C1397 0.950 . S
H1386 C1394 0.950 . S
H1387 C1396 0.950 . S
H1388 C1398 0.950 . S
H1389 C1400 0.950 . S
H1390 C1402 0.950 . S
H1391 C1403 0.950 . S
C1392 H1384 0.950 . S
C1392 C1393 1.386 . S
C1392 C1394 1.391 . S
C1393 C1392 1.386 . S
C1393 C1397 1.393 . S
C1394 H1386 0.950 . S
C1394 C1392 1.391 . S
C1394 C1395 1.400 . S
C1395 C1394 1.400 . S
C1395 C1396 1.398 . S
C1395 C1401 1.491 . S
C1396 H1387 0.950 . S
C1396 C1395 1.398 . S
C1396 C1397 1.391 . S
C1397 H1385 0.950 . S
C1397 C1393 1.393 . S
C1397 C1396 1.391 . S
C1398 H1388 0.950 . S
C1398 C1399 1.386 . S
C1398 C1400 1.391 . S
C1399 C1398 1.386 . S
C1399 C1403 1.393 . S
C1400 H1389 0.950 . S
C1400 C1398 1.391 . S
C1400 C1401 1.400 . S
C1401 C1395 1.491 . S
C1401 C1400 1.400 . S
C1401 C1402 1.398 . S
C1402 H1390 0.950 . S
C1402 C1401 1.398 . S
C1402 C1403 1.391 . S
C1403 H1391 0.950 . S
C1403 C1399 1.393 . S
C1403 C1402 1.391 . S
H1404 C1412 0.950 . S
H1405 C1417 0.950 . S
H1406 C1414 0.950 . S
H1407 C1416 0.950 . S
H1408 C1418 0.950 . S
H1409 C1420 0.950 . S
H1410 C1422 0.950 . S
H1411 C1423 0.950 . S
C1412 H1404 0.950 . S
C1412 C1413 1.386 1_455 S
C1412 C1414 1.391 . S
C1413 C1412 1.386 1_655 S
C1413 C1417 1.393 . S
C1414 H1406 0.950 . S
C1414 C1412 1.391 . S
C1414 C1415 1.376 1_455 S
C1415 C1414 1.376 1_655 S
C1415 C1416 1.430 . S
C1415 C1421 1.484 1_655 S
C1416 H1407 0.950 . S
C1416 C1415 1.430 . S
C1416 C1417 1.391 . S
C1417 H1405 0.950 . S
C1417 C1413 1.393 . S
C1417 C1416 1.391 . S
C1418 H1408 0.950 . S
C1418 C1419 1.386 1_655 S
C1418 C1420 1.391 . S
C1419 C1418 1.386 1_455 S
C1419 C1423 1.393 . S
C1420 H1409 0.950 . S
C1420 C1418 1.391 . S
C1420 C1421 1.400 1_655 S
C1421 C1415 1.484 1_455 S
C1421 C1420 1.400 1_455 S
C1421 C1422 1.398 . S
C1422 H1410 0.950 . S
C1422 C1421 1.398 . S
C1422 C1423 1.391 . S
C1423 H1411 0.950 . S
C1423 C1419 1.393 . S
C1423 C1422 1.391 . S
H1424 C1432 0.950 . S
H1425 C1437 0.950 . S
H1426 C1434 0.950 . S
H1427 C1436 0.950 . S
H1428 C1438 0.950 . S
H1429 C1440 0.950 . S
H1430 C1442 0.950 . S
H1431 C1443 0.950 . S
C1432 H1424 0.950 . S
C1432 C1433 1.386 . S
C1432 C1434 1.391 . S
C1433 C1432 1.386 . S
C1433 C1437 1.393 . S
C1434 H1426 0.950 . S
C1434 C1432 1.391 . S
C1434 C1435 1.400 . S
C1435 C1434 1.400 . S
C1435 C1436 1.398 . S
C1435 C1441 1.491 . S
C1436 H1427 0.950 . S
C1436 C1435 1.398 . S
C1436 C1437 1.391 . S
C1437 H1425 0.950 . S
C1437 C1433 1.393 . S
C1437 C1436 1.391 . S
C1438 H1428 0.950 . S
C1438 C1439 1.386 . S
C1438 C1440 1.391 . S
C1439 C1438 1.386 . S
C1439 C1443 1.393 . S
C1440 H1429 0.950 . S
C1440 C1438 1.391 . S
C1440 C1441 1.400 . S
C1441 C1435 1.491 . S
C1441 C1440 1.400 . S
C1441 C1442 1.398 . S
C1442 H1430 0.950 . S
C1442 C1441 1.398 . S
C1442 C1443 1.391 . S
C1443 H1431 0.950 . S
C1443 C1439 1.393 . S
C1443 C1442 1.391 . S
H1444 C1452 0.950 . S
H1445 C1457 0.950 . S
H1446 C1454 0.950 . S
H1447 C1456 0.950 . S
H1448 C1458 0.950 . S
H1449 C1460 0.950 . S
H1450 C1462 0.950 . S
H1451 C1463 0.950 . S
C1452 H1444 0.950 . S
C1452 C1453 1.386 . S
C1452 C1454 1.391 . S
C1453 C1452 1.386 . S
C1453 C1457 1.393 . S
C1454 H1446 0.950 . S
C1454 C1452 1.391 . S
C1454 C1455 1.400 . S
C1455 C1454 1.400 . S
C1455 C1456 1.398 . S
C1455 C1461 1.491 . S
C1456 H1447 0.950 . S
C1456 C1455 1.398 . S
C1456 C1457 1.391 . S
C1457 H1445 0.950 . S
C1457 C1453 1.393 . S
C1457 C1456 1.391 . S
C1458 H1448 0.950 . S
C1458 C1459 1.386 . S
C1458 C1460 1.391 . S
C1459 C1458 1.386 . S
C1459 C1463 1.393 . S
C1460 H1449 0.950 . S
C1460 C1458 1.391 . S
C1460 C1461 1.400 . S
C1461 C1455 1.491 . S
C1461 C1460 1.400 . S
C1461 C1462 1.398 . S
C1462 H1450 0.950 . S
C1462 C1461 1.398 . S
C1462 C1463 1.391 . S
C1463 H1451 0.950 . S
C1463 C1459 1.393 . S
C1463 C1462 1.391 . S
H1464 C1472 0.950 . S
H1465 C1477 0.950 . S
H1466 C1474 0.950 . S
H1467 C1476 0.950 . S
H1468 C1478 0.950 . S
H1469 C1480 0.950 . S
H1470 C1482 0.950 . S
H1471 C1483 0.950 . S
C1472 H1464 0.950 . S
C1472 C1473 1.386 . S
C1472 C1474 1.391 . S
C1473 C1472 1.386 . S
C1473 C1477 1.393 . S
C1474 H1466 0.950 . S
C1474 C1472 1.391 . S
C1474 C1475 1.400 . S
C1475 C1474 1.400 . S
C1475 C1476 1.398 . S
C1475 C1481 1.491 . S
C1476 H1467 0.950 . S
C1476 C1475 1.398 . S
C1476 C1477 1.391 . S
C1477 H1465 0.950 . S
C1477 C1473 1.393 . S
C1477 C1476 1.391 . S
C1478 H1468 0.950 . S
C1478 C1479 1.386 . S
C1478 C1480 1.391 . S
C1479 C1478 1.386 . S
C1479 C1483 1.393 . S
C1480 H1469 0.950 . S
C1480 C1478 1.391 . S
C1480 C1481 1.400 . S
C1481 C1475 1.491 . S
C1481 C1480 1.400 . S
C1481 C1482 1.398 . S
C1482 H1470 0.950 . S
C1482 C1481 1.398 . S
C1482 C1483 1.391 . S
C1483 H1471 0.950 . S
C1483 C1479 1.393 . S
C1483 C1482 1.391 . S
H1484 C1492 0.950 . S
H1485 C1497 0.950 . S
H1486 C1494 0.950 . S
H1487 C1496 0.950 . S
H1488 C1498 0.950 . S
H1489 C1500 0.950 . S
H1490 C1502 0.950 . S
H1491 C1503 0.950 . S
C1492 H1484 0.950 . S
C1492 C1493 1.386 . S
C1492 C1494 1.391 . S
C1493 C1492 1.386 . S
C1493 C1497 1.393 . S
C1494 H1486 0.950 . S
C1494 C1492 1.391 . S
C1494 C1495 1.400 . S
C1495 C1494 1.400 . S
C1495 C1496 1.398 . S
C1495 C1501 1.491 . S
C1496 H1487 0.950 . S
C1496 C1495 1.398 . S
C1496 C1497 1.391 . S
C1497 H1485 0.950 . S
C1497 C1493 1.393 . S
C1497 C1496 1.391 . S
C1498 H1488 0.950 . S
C1498 C1499 1.386 . S
C1498 C1500 1.391 . S
C1499 C1498 1.386 . S
C1499 C1503 1.393 . S
C1500 H1489 0.950 . S
C1500 C1498 1.391 . S
C1500 C1501 1.400 . S
C1501 C1495 1.491 . S
C1501 C1500 1.400 . S
C1501 C1502 1.398 . S
C1502 H1490 0.950 . S
C1502 C1501 1.398 . S
C1502 C1503 1.391 . S
C1503 H1491 0.950 . S
C1503 C1499 1.393 . S
C1503 C1502 1.391 . S
H1504 C1512 0.950 . S
H1505 C1517 0.950 . S
H1506 C1514 0.950 . S
H1507 C1516 0.950 . S
H1508 C1518 0.950 . S
H1509 C1520 0.950 . S
H1510 C1522 0.950 . S
H1511 C1523 0.950 . S
C1512 H1504 0.950 . S
C1512 C1513 1.386 . S
C1512 C1514 1.391 . S
C1513 C1512 1.386 . S
C1513 C1517 1.393 . S
C1514 H1506 0.950 . S
C1514 C1512 1.391 . S
C1514 C1515 1.400 . S
C1515 C1514 1.400 . S
C1515 C1516 1.398 . S
C1515 C1521 1.491 . S
C1516 H1507 0.950 . S
C1516 C1515 1.398 . S
C1516 C1517 1.391 . S
C1517 H1505 0.950 . S
C1517 C1513 1.393 . S
C1517 C1516 1.391 . S
C1518 H1508 0.950 . S
C1518 C1519 1.386 . S
C1518 C1520 1.391 . S
C1519 C1518 1.386 . S
C1519 C1523 1.393 . S
C1520 H1509 0.950 . S
C1520 C1518 1.391 . S
C1520 C1521 1.400 . S
C1521 C1515 1.491 . S
C1521 C1520 1.400 . S
C1521 C1522 1.398 . S
C1522 H1510 0.950 . S
C1522 C1521 1.398 . S
C1522 C1523 1.391 . S
C1523 H1511 0.950 . S
C1523 C1519 1.393 . S
C1523 C1522 1.391 . S
H1524 C1532 0.950 . S
H1525 C1537 0.950 . S
H1526 C1534 0.950 . S
H1527 C1536 0.950 . S
H1528 C1538 0.950 . S
H1529 C1540 0.950 . S
H1530 C1542 0.950 . S
H1531 C1543 0.950 . S
C1532 H1524 0.950 . S
C1532 C1533 1.386 . S
C1532 C1534 1.391 . S
C1533 C1532 1.386 . S
C1533 C1537 1.393 . S
C1534 H1526 0.950 . S
C1534 C1532 1.391 . S
C1534 C1535 1.400 . S
C1535 C1534 1.400 . S
C1535 C1536 1.398 . S
C1535 C1541 1.491 . S
C1536 H1527 0.950 . S
C1536 C1535 1.398 . S
C1536 C1537 1.391 . S
C1537 H1525 0.950 . S
C1537 C1533 1.393 . S
C1537 C1536 1.391 . S
C1538 H1528 0.950 . S
C1538 C1539 1.386 . S
C1538 C1540 1.391 . S
C1539 C1538 1.386 . S
C1539 C1543 1.393 . S
C1540 H1529 0.950 . S
C1540 C1538 1.391 . S
C1540 C1541 1.400 . S
C1541 C1535 1.491 . S
C1541 C1540 1.400 . S
C1541 C1542 1.398 . S
C1542 H1530 0.950 . S
C1542 C1541 1.398 . S
C1542 C1543 1.391 . S
C1543 H1531 0.950 . S
C1543 C1539 1.393 . S
C1543 C1542 1.391 . S
H1544 C1552 0.950 . S
H1545 C1557 0.950 . S
H1546 C1554 0.950 . S
H1547 C1556 0.950 . S
H1548 C1558 0.950 . S
H1549 C1560 0.950 . S
H1550 C1562 0.950 . S
H1551 C1563 0.950 . S
C1552 H1544 0.950 . S
C1552 C1553 1.386 . S
C1552 C1554 1.391 . S
C1553 C1552 1.386 . S
C1553 C1557 1.393 . S
C1554 H1546 0.950 . S
C1554 C1552 1.391 . S
C1554 C1555 1.400 . S
C1555 C1554 1.400 . S
C1555 C1556 1.398 . S
C1555 C1561 1.491 . S
C1556 H1547 0.950 . S
C1556 C1555 1.398 . S
C1556 C1557 1.391 . S
C1557 H1545 0.950 . S
C1557 C1553 1.393 . S
C1557 C1556 1.391 . S
C1558 H1548 0.950 . S
C1558 C1559 1.386 . S
C1558 C1560 1.391 . S
C1559 C1558 1.386 . S
C1559 C1563 1.393 . S
C1560 H1549 0.950 . S
C1560 C1558 1.391 . S
C1560 C1561 1.400 . S
C1561 C1555 1.491 . S
C1561 C1560 1.400 . S
C1561 C1562 1.398 . S
C1562 H1550 0.950 . S
C1562 C1561 1.398 . S
C1562 C1563 1.391 . S
C1563 H1551 0.950 . S
C1563 C1559 1.393 . S
C1563 C1562 1.391 . S
H1564 C1572 0.950 . S
H1565 C1577 0.950 . S
H1566 C1574 0.950 . S
H1567 C1576 0.950 . S
H1568 C1578 0.950 . S
H1569 C1580 0.950 . S
H1570 C1582 0.950 . S
H1571 C1583 0.950 . S
C1572 H1564 0.950 . S
C1572 C1573 1.386 . S
C1572 C1574 1.391 . S
C1573 C1572 1.386 . S
C1573 C1577 1.393 . S
C1574 H1566 0.950 . S
C1574 C1572 1.391 . S
C1574 C1575 1.400 . S
C1575 C1574 1.400 . S
C1575 C1576 1.398 . S
C1575 C1581 1.491 . S
C1576 H1567 0.950 . S
C1576 C1575 1.398 . S
C1576 C1577 1.391 . S
C1577 H1565 0.950 . S
C1577 C1573 1.393 . S
C1577 C1576 1.391 . S
C1578 H1568 0.950 . S
C1578 C1579 1.386 . S
C1578 C1580 1.391 . S
C1579 C1578 1.386 . S
C1579 C1583 1.393 . S
C1580 H1569 0.950 . S
C1580 C1578 1.391 . S
C1580 C1581 1.400 . S
C1581 C1575 1.491 . S
C1581 C1580 1.400 . S
C1581 C1582 1.398 . S
C1582 H1570 0.950 . S
C1582 C1581 1.398 . S
C1582 C1583 1.391 . S
C1583 H1571 0.950 . S
C1583 C1579 1.393 . S
C1583 C1582 1.391 . S
H1584 C1592 0.950 . S
H1585 C1597 0.950 . S
H1586 C1594 0.950 . S
H1587 C1596 0.950 . S
H1588 C1598 0.950 . S
H1589 C1600 0.950 . S
H1590 C1602 0.950 . S
H1591 C1603 0.950 . S
C1592 H1584 0.950 . S
C1592 C1593 1.386 . S
C1592 C1594 1.391 . S
C1593 C1592 1.386 . S
C1593 C1597 1.393 . S
C1594 H1586 0.950 . S
C1594 C1592 1.391 . S
C1594 C1595 1.400 . S
C1595 C1594 1.400 . S
C1595 C1596 1.398 . S
C1595 C1601 1.491 . S
C1596 H1587 0.950 . S
C1596 C1595 1.398 . S
C1596 C1597 1.391 . S
C1597 H1585 0.950 . S
C1597 C1593 1.393 . S
C1597 C1596 1.391 . S
C1598 H1588 0.950 . S
C1598 C1599 1.386 . S
C1598 C1600 1.391 . S
C1599 C1598 1.386 . S
C1599 C1603 1.393 . S
C1600 H1589 0.950 . S
C1600 C1598 1.391 . S
C1600 C1601 1.400 . S
C1601 C1595 1.491 . S
C1601 C1600 1.400 . S
C1601 C1602 1.398 . S
C1602 H1590 0.950 . S
C1602 C1601 1.398 . S
C1602 C1603 1.391 . S
C1603 H1591 0.950 . S
C1603 C1599 1.393 . S
C1603 C1602 1.391 . S
H1604 C1612 0.950 . S
H1605 C1617 0.950 . S
H1606 C1614 0.950 . S
H1607 C1616 0.950 . S
H1608 C1618 0.950 . S
H1609 C1620 0.950 . S
H1610 C1622 0.950 . S
H1611 C1623 0.950 . S
C1612 H1604 0.950 . S
C1612 C1613 1.386 . S
C1612 C1614 1.391 . S
C1613 C1612 1.386 . S
C1613 C1617 1.393 . S
C1614 H1606 0.950 . S
C1614 C1612 1.391 . S
C1614 C1615 1.400 . S
C1615 C1614 1.400 . S
C1615 C1616 1.398 . S
C1615 C1621 1.491 . S
C1616 H1607 0.950 . S
C1616 C1615 1.398 . S
C1616 C1617 1.391 . S
C1617 H1605 0.950 . S
C1617 C1613 1.393 . S
C1617 C1616 1.391 . S
C1618 H1608 0.950 . S
C1618 C1619 1.386 . S
C1618 C1620 1.391 . S
C1619 C1618 1.386 . S
C1619 C1623 1.393 . S
C1620 H1609 0.950 . S
C1620 C1618 1.391 . S
C1620 C1621 1.400 . S
C1621 C1615 1.491 . S
C1621 C1620 1.400 . S
C1621 C1622 1.398 . S
C1622 H1610 0.950 . S
C1622 C1621 1.398 . S
C1622 C1623 1.391 . S
C1623 H1611 0.950 . S
C1623 C1619 1.393 . S
C1623 C1622 1.391 . S
H1624 C1632 0.950 . S
H1625 C1637 0.950 . S
H1626 C1634 0.950 . S
H1627 C1636 0.950 . S
H1628 C1638 0.950 . S
H1629 C1640 0.950 . S
H1630 C1642 0.950 . S
H1631 C1643 0.950 . S
C1632 H1624 0.950 . S
C1632 C1633 1.386 . S
C1632 C1634 1.391 . S
C1633 C1632 1.386 . S
C1633 C1637 1.393 . S
C1634 H1626 0.950 . S
C1634 C1632 1.391 . S
C1634 C1635 1.400 . S
C1635 C1634 1.400 . S
C1635 C1636 1.398 . S
C1635 C1641 1.491 . S
C1636 H1627 0.950 . S
C1636 C1635 1.398 . S
C1636 C1637 1.391 . S
C1637 H1625 0.950 . S
C1637 C1633 1.393 . S
C1637 C1636 1.391 . S
C1638 H1628 0.950 . S
C1638 C1639 1.386 . S
C1638 C1640 1.391 . S
C1639 C1638 1.386 . S
C1639 C1643 1.393 . S
C1640 H1629 0.950 . S
C1640 C1638 1.391 . S
C1640 C1641 1.400 . S
C1641 C1635 1.491 . S
C1641 C1640 1.400 . S
C1641 C1642 1.398 . S
C1642 H1630 0.950 . S
C1642 C1641 1.398 . S
C1642 C1643 1.391 . S
C1643 H1631 0.950 . S
C1643 C1639 1.393 . S
C1643 C1642 1.391 . S
H1644 C1652 0.950 . S
H1645 C1657 0.950 . S
H1646 C1654 0.950 . S
H1647 C1656 0.950 . S
H1648 C1658 0.950 . S
H1649 C1660 0.950 . S
H1650 C1662 0.950 . S
H1651 C1663 0.950 . S
C1652 H1644 0.950 . S
C1652 C1653 1.386 . S
C1652 C1654 1.391 . S
C1653 C1652 1.386 . S
C1653 C1657 1.393 . S
C1654 H1646 0.950 . S
C1654 C1652 1.391 . S
C1654 C1655 1.400 . S
C1655 C1654 1.400 . S
C1655 C1656 1.398 . S
C1655 C1661 1.491 . S
C1656 H1647 0.950 . S
C1656 C1655 1.398 . S
C1656 C1657 1.391 . S
C1657 H1645 0.950 . S
C1657 C1653 1.393 . S
C1657 C1656 1.391 . S
C1658 H1648 0.950 . S
C1658 C1659 1.386 . S
C1658 C1660 1.391 . S
C1659 C1658 1.386 . S
C1659 C1663 1.393 . S
C1660 H1649 0.950 . S
C1660 C1658 1.391 . S
C1660 C1661 1.400 . S
C1661 C1655 1.491 . S
C1661 C1660 1.400 . S
C1661 C1662 1.398 . S
C1662 H1650 0.950 . S
C1662 C1661 1.398 . S
C1662 C1663 1.391 . S
C1663 H1651 0.950 . S
C1663 C1659 1.393 . S
C1663 C1662 1.391 . S
H1664 C1672 0.950 . S
H1665 C1677 0.950 . S
H1666 C1674 0.950 . S
H1667 C1676 0.950 . S
H1668 C1678 0.950 . S
H1669 C1680 0.950 . S
H1670 C1682 0.950 . S
H1671 C1683 0.950 . S
C1672 H1664 0.950 . S
C1672 C1673 1.386 . S
C1672 C1674 1.391 . S
C1673 C1672 1.386 . S
C1673 C1677 1.393 . S
C1674 H1666 0.950 . S
C1674 C1672 1.391 . S
C1674 C1675 1.400 . S
C1675 C1674 1.400 . S
C1675 C1676 1.398 . S
C1675 C1681 1.491 . S
C1676 H1667 0.950 . S
C1676 C1675 1.398 . S
C1676 C1677 1.391 . S
C1677 H1665 0.950 . S
C1677 C1673 1.393 . S
C1677 C1676 1.391 . S
C1678 H1668 0.950 . S
C1678 C1679 1.386 . S
C1678 C1680 1.391 . S
C1679 C1678 1.386 . S
C1679 C1683 1.393 . S
C1680 H1669 0.950 . S
C1680 C1678 1.391 . S
C1680 C1681 1.400 . S
C1681 C1675 1.491 . S
C1681 C1680 1.400 . S
C1681 C1682 1.398 . S
C1682 H1670 0.950 . S
C1682 C1681 1.398 . S
C1682 C1683 1.391 . S
C1683 H1671 0.950 . S
C1683 C1679 1.393 . S
C1683 C1682 1.391 . S
H1684 C1692 0.950 . S
H1685 C1697 0.950 . S
H1686 C1694 0.950 . S
H1687 C1696 0.950 . S
H1688 C1698 0.950 . S
H1689 C1700 0.950 . S
H1690 C1702 0.950 . S
H1691 C1703 0.961 . S
C1692 H1684 0.950 . S
C1692 C1693 1.386 . S
C1692 C1694 1.391 . S
C1693 C1692 1.386 . S
C1693 C1697 1.393 . S
C1694 H1686 0.950 . S
C1694 C1692 1.391 . S
C1694 C1695 1.400 . S
C1695 C1694 1.400 . S
C1695 C1696 1.398 . S
C1695 C1701 1.491 . S
C1696 H1687 0.950 . S
C1696 C1695 1.398 . S
C1696 C1697 1.391 . S
C1697 H1685 0.950 . S
C1697 C1693 1.393 . S
C1697 C1696 1.391 . S
C1698 H1688 0.950 . S
C1698 C1699 1.386 . S
C1698 C1700 1.391 . S
C1699 C1698 1.386 . S
C1699 C1703 1.393 . S
C1700 H1689 0.950 . S
C1700 C1698 1.391 . S
C1700 C1701 1.400 . S
C1701 C1695 1.491 . S
C1701 C1700 1.400 . S
C1701 C1702 1.398 . S
C1702 H1690 0.950 . S
C1702 C1701 1.398 . S
C1702 C1703 1.391 . S
C1703 H1691 0.961 . S
C1703 C1699 1.393 . S
C1703 C1702 1.391 . S
C759 C587 1.443 . S
C753 C181 1.453 . S
C779 C595 1.298 . S
C773 C247 1.543 . S
C793 C283 1.437 . S
C799 C615 1.414 . S
C819 C629 1.505 . S
C813 C169 1.514 1_655 S
C839 C644 1.531 . S
C833 C361 1.526 . S
C859 C658 1.514 . S
C853 C433 1.499 . S
C873 C421 1.560 . S
C879 C672 1.564 . S
C899 C678 1.461 . S
C893 C355 1.489 . S
C913 C427 1.525 . S
C919 C692 1.492 . S
C939 C713 1.527 . S
C933 C325 1.552 . S
C953 C385 1.454 . S
C959 C693 1.230 . S
C979 C714 1.542 . S
C973 C463 1.524 . S
C993 C253 1.488 . S
C999 C721 1.251 . S
C1013 C145 1.506 . S
C1019 C727 1.503 . S
C1033 C205 1.480 . S
C1039 C720 1.437 . S
C1053 C217 1.473 . S
C1059 C728 1.473 . S
C1073 C139 1.500 . S
C1079 C622 1.456 . S
C1093 C535 1.481 . S
C1099 C623 1.251 . S
C1119 C580 1.505 . S
C1113 C565 1.542 . S
C1139 C601 1.438 . S
C1133 C313 1.458 . S
C1153 C175 1.494 . S
C1159 C636 1.455 . S
C1179 C686 1.526 . S
C1173 C397 1.525 . S
C1199 C637 1.206 . S
C1193 C349 1.449 . S
C1219 C665 1.260 . S
C1213 C457 1.542 . S
C1239 C671 1.440 . S
C1233 C505 1.449 . S
C1253 C571 1.542 . S
C1259 C679 1.306 . S
C1273 C319 1.441 . S
C1279 C643 1.422 . S
C1299 C657 1.501 . S
C1293 C493 1.517 . S
C1313 C109 1.525 . S
C1319 C616 1.531 . S
C1339 C630 1.515 . S
C1333 C1 1.507 . S
C1359 C588 1.565 . S
C1353 C61 1.561 . S
C1379 C594 1.443 . S
C1373 C103 1.492 . S
C1393 C67 1.527 . S
C1399 C706 1.488 . S
C1413 C73 1.557 . S
C1419 C699 1.535 . S
C1433 C133 1.454 . S
C1439 C707 1.217 . S
C1453 C31 1.531 . S
C1459 C700 1.542 . S
C1479 C735 1.218 . S
C1473 C289 1.477 . S
C1499 C741 1.501 . S
C1493 C469 1.509 . S
C1519 C734 1.460 . S
C1513 C529 1.487 . S
C1533 C541 1.472 . S
C1539 C742 1.474 . S
C1553 C391 1.507 . S
C1559 C650 1.470 . S
C1579 C651 1.276 . S
C1573 C211 1.488 . S
C1599 C664 1.484 . S
C1593 C241 1.544 . S
C1619 C685 1.437 . S
C1613 C277 1.446 . S
C1633 C499 1.500 . S
C1639 C608 1.460 1_556 S
C1659 C602 1.526 . S
C1653 C37 1.524 . S
C1673 C97 1.450 . S
C1679 C609 1.199 . S
C1699 C581 1.273 . S
C1693 C25 1.549 . S
