# Generated by pormake.
# Topology anh, (6,3)-cn, num edge types: 1
# Building blocks:
#     Node 0, Type 0, BuildingBlock: HISSIN_clean_sbu_0, # of connection points: 6
#     Node 1, Type 0, BuildingBlock: HISSIN_clean_sbu_0, # of connection points: 6
#     Node 2, Type 0, BuildingBlock: HISSIN_clean_sbu_0, # of connection points: 6
#     Node 3, Type 1, BuildingBlock: ESEHIV_clean_linker_0, # of connection points: 3
#     Node 4, Type 1, BuildingBlock: ESEHIV_clean_linker_0, # of connection points: 3
#     Node 5, Type 1, BuildingBlock: ESEHIV_clean_linker_0, # of connection points: 3
#     Node 6, Type 1, BuildingBlock: ESEHIV_clean_linker_0, # of connection points: 3
#     Node 7, Type 1, BuildingBlock: ESEHIV_clean_linker_0, # of connection points: 3
#     Node 8, Type 1, BuildingBlock: ESEHIV_clean_linker_0, # of connection points: 3
#     Edge 9, Type (0, 1), BuildingBlock: KIFKEQ_clean_linker_1, # of connection points: 2
#     Edge 10, Type (0, 1), BuildingBlock: KIFKEQ_clean_linker_1, # of connection points: 2
#     Edge 11, Type (0, 1), BuildingBlock: KIFKEQ_clean_linker_1, # of connection points: 2
#     Edge 12, Type (0, 1), BuildingBlock: KIFKEQ_clean_linker_1, # of connection points: 2
#     Edge 13, Type (0, 1), BuildingBlock: KIFKEQ_clean_linker_1, # of connection points: 2
#     Edge 14, Type (0, 1), BuildingBlock: KIFKEQ_clean_linker_1, # of connection points: 2
#     Edge 15, Type (0, 1), BuildingBlock: KIFKEQ_clean_linker_1, # of connection points: 2
#     Edge 16, Type (0, 1), BuildingBlock: KIFKEQ_clean_linker_1, # of connection points: 2
#     Edge 17, Type (0, 1), BuildingBlock: KIFKEQ_clean_linker_1, # of connection points: 2
#     Edge 18, Type (0, 1), BuildingBlock: KIFKEQ_clean_linker_1, # of connection points: 2
#     Edge 19, Type (0, 1), BuildingBlock: KIFKEQ_clean_linker_1, # of connection points: 2
#     Edge 20, Type (0, 1), BuildingBlock: KIFKEQ_clean_linker_1, # of connection points: 2
#     Edge 21, Type (0, 1), BuildingBlock: KIFKEQ_clean_linker_1, # of connection points: 2
#     Edge 22, Type (0, 1), BuildingBlock: KIFKEQ_clean_linker_1, # of connection points: 2
#     Edge 23, Type (0, 1), BuildingBlock: KIFKEQ_clean_linker_1, # of connection points: 2
#     Edge 24, Type (0, 1), BuildingBlock: KIFKEQ_clean_linker_1, # of connection points: 2
#     Edge 25, Type (0, 1), BuildingBlock: KIFKEQ_clean_linker_1, # of connection points: 2
#     Edge 26, Type (0, 1), BuildingBlock: KIFKEQ_clean_linker_1, # of connection points: 2
# Relax obj value: 0.297
# Max RMSD: 0.196
# Mean RMSD: 0.163
data_MOF--net-anh--node1-HISSIN_clean_sbu_0--node2-ESEHIV_clean_linker_0--edge1-KIFKEQ_clean_linker_1
_symmetry_space_group_name_H-M    P1
_symmetry_Int_Tables_number       1
_symmetry_cell_setting            triclinic
loop_
_symmetry_equiv_pos_as_xyz
'x, y, z'
_cell_length_a     29.969078
_cell_length_b     29.760541
_cell_length_c     54.611636
_cell_angle_alpha  92.536621
_cell_angle_beta   90.657859
_cell_angle_gamma 119.94849
loop_
_atom_site_label
_atom_site_type_symbol
_atom_site_fract_x
_atom_site_fract_y
_atom_site_fract_z
_atom_type_partial_charge
Eu0 Eu 1.05962 0.48547 0.15099 0.0
Eu1 Eu 0.12167 0.60648 0.1571 0.0
C2 C 0.08731 0.54331 0.20718 0.0
C3 C 0.94985 0.35727 0.13324 0.0
C4 C 0.91311 0.31531 0.14582 0.0
C5 C 0.88174 0.36872 0.11548 0.0
C6 C 0.86155 0.30273 0.1446 0.0
C7 C 0.93328 0.38139 0.11669 0.0
C8 C 0.84658 0.33208 0.13083 0.0
C9 C 1.0034 0.3854 0.14295 0.0
O10 O 0.19082 0.58942 0.15408 0.0
O11 O 0.14545 0.50137 0.14687 0.0
C12 C 0.19126 0.54533 0.14875 0.0
O13 O 1.0549 0.51565 0.11438 0.0
O14 O 0.17685 0.68253 0.17383 0.0
O15 O 0.13544 0.67675 0.13989 0.0
O16 O 0.13524 0.58247 0.12001 0.0
C17 C 0.09685 0.55157 0.10517 0.0
O18 O 0.99049 0.502 0.14717 0.0
O19 O 1.03573 0.59049 0.15103 0.0
O20 O 0.10982 0.58862 0.1973 0.0
O21 O 1.0383 0.41506 0.12799 0.0
O22 O 1.00895 0.40902 0.1644 0.0
O23 O 1.06674 0.49981 0.19313 0.0
C24 C 0.22293 0.73914 0.14353 0.0
C25 C 0.25149 0.71674 0.13442 0.0
C26 C 0.29285 0.82408 0.13508 0.0
C27 C 0.3017 0.74813 0.12706 0.0
C28 C 0.24298 0.79269 0.14294 0.0
C29 C 0.32328 0.80216 0.12811 0.0
C30 C 0.17399 0.70679 0.15503 0.0
C31 C 0.99021 0.54674 0.1472 0.0
H32 H 0.9251 0.29651 0.15879 0.0
H33 H 0.87047 0.39105 0.10447 0.0
H34 H 0.83481 0.27437 0.15667 0.0
H35 H 0.96084 0.41399 0.10677 0.0
H36 H 0.23601 0.67526 0.13421 0.0
H37 H 0.30911 0.86585 0.13644 0.0
H38 H 0.32465 0.73057 0.12195 0.0
H39 H 0.22118 0.81042 0.1497 0.0
Eu40 Eu 0.6133 1.02861 0.48497 0.0
Eu41 Eu 0.55484 0.09007 0.49066 0.0
C42 C 0.58875 1.05603 0.53998 0.0
C43 C 0.63994 0.92175 0.46644 0.0
C44 C 0.67437 0.90334 0.4636 0.0
C45 C 0.56844 0.83588 0.45477 0.0
C46 C 0.65574 0.85089 0.45736 0.0
C47 C 0.58726 0.88854 0.46067 0.0
C48 C 0.60233 0.81619 0.45427 0.0
C49 C 0.65797 0.9735 0.47797 0.0
O50 O 0.64171 0.15922 0.48835 0.0
O51 O 0.68255 0.11338 0.47987 0.0
C52 C 0.6851 0.15943 0.48232 0.0
O53 O 0.57933 1.02509 0.44729 0.0
O54 O 0.53869 0.14365 0.5118 0.0
O55 O 0.50161 0.11303 0.47578 0.0
O56 O 0.58622 0.10356 0.45324 0.0
C57 C 0.58278 0.06661 0.43835 0.0
O58 O 0.52693 0.95946 0.48352 0.0
O59 O 0.4847 1.00513 0.48061 0.0
O60 O 0.55355 0.06316 0.52922 0.0
O61 O 0.66263 1.00891 0.46337 0.0
O62 O 0.63546 0.97441 0.49816 0.0
O63 O 0.62227 1.05091 0.52644 0.0
C64 C 0.53992 0.20319 0.48546 0.0
C65 C 0.57436 0.21722 0.46615 0.0
C66 C 0.58156 0.29341 0.50024 0.0
C67 C 0.61415 0.26846 0.4649 0.0
C68 C 0.54184 0.24214 0.50155 0.0
C69 C 0.61957 0.30601 0.48284 0.0
C70 C 0.51476 0.14958 0.49316 0.0
C71 C 0.48248 0.95901 0.48008 0.0
H72 H 0.71517 0.92868 0.46781 0.0
H73 H 0.5272 0.80995 0.4525 0.0
H74 H 0.68276 0.83674 0.45742 0.0
H75 H 0.56031 0.90255 0.46235 0.0
H76 H 0.57393 0.1879 0.45354 0.0
H77 H 0.58549 0.32216 0.5143 0.0
H78 H 0.64309 0.27773 0.45131 0.0
H79 H 0.51616 0.23213 0.51672 0.0
Eu80 Eu 0.52415 0.52329 0.82069 0.0
Eu81 Eu 0.64302 0.58089 0.82402 0.0
C82 C 0.58339 0.55328 0.87458 0.0
C83 C 0.40003 0.51507 0.81056 0.0
C84 C 0.35838 0.51016 0.82396 0.0
C85 C 0.41516 0.59818 0.7971 0.0
C86 C 0.34686 0.55026 0.82487 0.0
C87 C 0.42641 0.55796 0.79601 0.0
C88 C 0.37712 0.59561 0.81251 0.0
C89 C 0.42522 0.48564 0.81734 0.0
O90 O 0.62364 0.49313 0.82291 0.0
O91 O 0.53781 0.4523 0.81231 0.0
C92 C 0.58047 0.44919 0.81571 0.0
O93 O 0.55111 0.55255 0.78316 0.0
O94 O 0.71698 0.59942 0.84071 0.0
O95 O 0.71439 0.63513 0.80729 0.0
O96 O 0.61896 0.54064 0.78682 0.0
C97 C 0.58682 0.5462 0.77291 0.0
O98 O 0.54323 0.61084 0.82115 0.0
O99 O 0.62864 0.6494 0.8139 0.0
O100 O 0.62351 0.58901 0.86368 0.0
O101 O 0.45049 0.47684 0.80025 0.0
O102 O 0.45194 0.50294 0.83805 0.0
O103 O 0.5438 0.51773 0.86095 0.0
C104 C 0.77427 0.6071 0.81023 0.0
C105 C 0.75226 0.55467 0.80203 0.0
C106 C 0.85805 0.62171 0.79921 0.0
C107 C 0.78348 0.53519 0.79375 0.0
C108 C 0.82687 0.64096 0.80784 0.0
C109 C 0.83693 0.56822 0.79318 0.0
C110 C 0.74254 0.62557 0.82218 0.0
C111 C 0.58634 0.65342 0.81541 0.0
H112 H 0.33817 0.47791 0.8356 0.0
H113 H 0.43885 0.63297 0.7875 0.0
H114 H 0.31758 0.54799 0.83704 0.0
H115 H 0.45913 0.56297 0.78573 0.0
H116 H 0.71137 0.52826 0.8032 0.0
H117 H 0.89932 0.64794 0.79934 0.0
H118 H 0.76642 0.49388 0.78934 0.0
H119 H 0.84421 0.68164 0.81378 0.0
H120 H 0.54964 1.04764 0.24541 0.0
H121 H 0.60846 0.21 0.26548 0.0
H122 H 0.5796 0.15492 0.1897 0.0
C123 C 0.56282 0.08699 0.2403 0.0
C124 C 0.56219 0.09686 0.21551 0.0
C125 C 0.57869 0.12744 0.25854 0.0
C126 C 0.5945 0.17821 0.25165 0.0
C127 C 0.59407 0.18828 0.22681 0.0
C128 C 0.57784 0.14728 0.209 0.0
H129 H 0.6378 0.63066 0.58437 0.0
H130 H 0.74412 0.57996 0.60513 0.0
H131 H 0.7234 0.60266 0.52961 0.0
C132 C 0.66632 0.61987 0.57953 0.0
C133 C 0.67955 0.61995 0.55501 0.0
C134 C 0.68984 0.60599 0.59781 0.0
C135 C 0.72724 0.59257 0.59129 0.0
C136 C 0.74007 0.59155 0.56669 0.0
C137 C 0.71629 0.60596 0.54884 0.0
H138 H 1.06915 0.5984 0.91572 0.0
H139 H 0.2259 0.70894 0.93893 0.0
H140 H 0.17745 0.68938 0.86293 0.0
C141 C 0.10742 0.62891 0.91159 0.0
C142 C 0.11866 0.64334 0.88737 0.0
C143 C 0.14601 0.6524 0.93029 0.0
C144 C 0.19585 0.69125 0.9246 0.0
C145 C 0.20783 0.70517 0.90031 0.0
C146 C 0.16853 0.68143 0.88198 0.0
H147 H 1.00719 0.47648 0.40033 0.0
H148 H 0.15173 0.62061 0.40143 0.0
H149 H 1.08214 0.55711 0.46977 0.0
C150 C 1.03846 0.50911 0.41068 0.0
C151 C 1.03667 0.50982 0.43674 0.0
C152 C 1.07968 0.54789 0.39761 0.0
C153 C 0.12127 0.59023 0.41129 0.0
C154 C 0.1249 0.59612 0.43725 0.0
C155 C 1.08133 0.5546 0.44993 0.0
H156 H 0.58663 0.11996 0.73293 0.0
H157 H 0.58865 0.97687 0.7315 0.0
H158 H 0.58365 1.04976 0.80141 0.0
C159 C 0.58652 0.08943 0.74309 0.0
C160 C 0.58433 0.09226 0.76904 0.0
C161 C 0.58797 1.04848 0.72957 0.0
C162 C 0.58779 1.00783 0.74232 0.0
C163 C 0.58697 1.00591 0.76834 0.0
C164 C 0.58485 1.04934 0.78161 0.0
H165 H 0.5199 0.55361 0.06779 0.0
H166 H 0.65829 0.54444 0.0664 0.0
H167 H 0.59127 0.54708 0.13622 0.0
C168 C 0.55011 0.55163 0.07794 0.0
C169 C 0.54765 0.54995 0.10387 0.0
C170 C 0.58897 0.54896 0.06442 0.0
C171 C 0.62873 0.54568 0.07716 0.0
C172 C 0.6329 0.5459 0.10316 0.0
C173 C 0.59069 0.54763 0.11643 0.0
H174 H 0.29326 0.62911 0.14251 0.0
H175 H 0.2148 0.46285 0.14321 0.0
H176 H 0.37429 0.63072 0.13417 0.0
H177 H 0.29616 0.46425 0.13515 0.0
H178 H 0.46175 0.47673 0.13126 0.0
H179 H 0.38093 0.47486 0.14178 0.0
H180 H 0.43645 0.62328 0.11109 0.0
H181 H 0.51614 0.62448 0.10047 0.0
C182 C 0.29246 0.59232 0.14106 0.0
C183 C 0.24442 0.54583 0.14392 0.0
C184 C 0.34038 0.59317 0.13598 0.0
C185 C 0.34529 0.54766 0.13361 0.0
C186 C 0.29721 0.50113 0.13675 0.0
C187 C 0.24903 0.50023 0.14145 0.0
C188 C 0.45793 0.50994 0.1272 0.0
C189 C 0.49926 0.55169 0.11538 0.0
C190 C 0.40986 0.50857 0.13304 0.0
C191 C 0.39875 0.54896 0.12775 0.0
C192 C 0.4406 0.59086 0.11626 0.0
C193 C 0.48798 0.59176 0.1101 0.0
H194 H 0.78952 0.18151 0.47894 0.0
H195 H 0.70443 0.26144 0.4736 0.0
H196 H 0.86946 0.26182 0.47065 0.0
H197 H 0.78387 0.34175 0.46499 0.0
H198 H 0.93119 0.47765 0.42958 0.0
H199 H 0.85249 0.39955 0.44057 0.0
H200 H 0.94427 0.34812 0.47812 0.0
H201 H 1.02334 0.42743 0.46738 0.0
C202 C 0.78698 0.21595 0.47612 0.0
C203 C 0.73757 0.21222 0.47745 0.0
C204 C 0.83425 0.26349 0.47128 0.0
C205 C 0.8365 0.31165 0.46677 0.0
C206 C 0.78686 0.30763 0.46794 0.0
C207 C 0.73985 0.26033 0.47321 0.0
C208 C 0.93545 0.45077 0.44076 0.0
C209 C 0.98649 0.46266 0.44787 0.0
C210 C 0.8889 0.40439 0.44715 0.0
C211 C 0.88864 0.36419 0.46067 0.0
C212 C 0.93982 0.37586 0.46774 0.0
C213 C 0.98657 0.42303 0.46174 0.0
H214 H 0.50966 0.68268 0.8204 0.0
H215 H 0.66504 0.74875 0.79758 0.0
H216 H 0.50974 0.76332 0.81169 0.0
H217 H 0.66585 0.82918 0.78873 0.0
H218 H 0.65165 0.96526 0.75676 0.0
H219 H 0.65117 0.88656 0.76768 0.0
H220 H 0.52551 0.85089 0.81508 0.0
H221 H 0.52619 0.93081 0.80388 0.0
C222 C 0.54426 0.71419 0.81359 0.0
C223 C 0.58713 0.70641 0.8101 0.0
C224 C 0.54457 0.76187 0.80849 0.0
C225 C 0.58781 0.80618 0.79906 0.0
C226 C 0.63074 0.79814 0.79555 0.0
C227 C 0.63047 0.75067 0.80091 0.0
C228 C 0.6239 0.94159 0.76985 0.0
C229 C 0.58953 0.95787 0.77927 0.0
C230 C 0.62364 0.89489 0.77634 0.0
C231 C 0.58833 0.85892 0.7927 0.0
C232 C 0.55385 0.87516 0.80237 0.0
C233 C 0.5546 0.92267 0.79605 0.0
H234 H 0.96314 0.62673 0.15511 0.0
H235 H 0.89305 0.46864 0.12707 0.0
H236 H 0.88161 0.62599 0.14714 0.0
H237 H 0.81166 0.46701 0.11923 0.0
H238 H 0.67027 0.47851 0.08957 0.0
H239 H 0.75015 0.47946 0.09982 0.0
H240 H 0.79516 0.61119 0.15032 0.0
H241 H 0.71402 0.60987 0.13988 0.0
C242 C 0.93066 0.59118 0.14729 0.0
C243 C 0.93742 0.54736 0.14224 0.0
C244 C 0.88235 0.59061 0.14265 0.0
C245 C 0.8364 0.54641 0.13216 0.0
C246 C 0.84368 0.50289 0.12701 0.0
C247 C 0.89169 0.50345 0.13186 0.0
C248 C 0.6962 0.50757 0.1033 0.0
C249 C 0.68191 0.54329 0.11387 0.0
C250 C 0.74372 0.50822 0.10935 0.0
C251 C 0.78277 0.54542 0.12632 0.0
C252 C 0.76858 0.5813 0.1371 0.0
C253 C 0.7203 0.58015 0.13123 0.0
H254 H 0.46193 0.85496 0.47182 0.0
H255 H 0.37741 0.93625 0.47695 0.0
H256 H 0.38121 0.7726 0.46408 0.0
H257 H 0.29614 0.85362 0.46935 0.0
H258 H 0.14179 0.68816 0.46549 0.0
H259 H 0.22234 0.77072 0.47556 0.0
H260 H 0.30909 0.70627 0.44248 0.0
H261 H 0.22905 0.62479 0.43246 0.0
C262 C 0.4264 0.85613 0.47139 0.0
C263 C 0.4292 0.90529 0.47528 0.0
C264 C 0.37856 0.80741 0.46669 0.0
C265 C 0.32868 0.80294 0.46572 0.0
C266 C 0.33152 0.85223 0.46985 0.0
C267 C 0.37953 0.90113 0.47425 0.0
C268 C 0.17787 0.69048 0.46086 0.0
C269 C 0.1762 0.64617 0.44862 0.0
C270 C 0.22544 0.73948 0.46641 0.0
C271 C 0.27568 0.74858 0.46027 0.0
C272 C 0.27363 0.70383 0.44832 0.0
C273 C 0.22629 0.65542 0.44253 0.0
H274 H 0.6597 0.42322 0.82217 0.0
H275 H 0.50133 0.34946 0.79693 0.0
H276 H 0.65985 0.34146 0.81362 0.0
H277 H 0.50117 0.2679 0.78834 0.0
H278 H 0.51546 0.12664 0.75695 0.0
H279 H 0.51478 0.20661 0.76787 0.0
H280 H 0.64641 0.25589 0.81683 0.0
H281 H 0.64682 0.17478 0.80561 0.0
C282 C 0.62435 0.38985 0.81488 0.0
C283 C 0.58041 0.39574 0.81062 0.0
C284 C 0.62436 0.3415 0.80988 0.0
C285 C 0.58057 0.29468 0.79988 0.0
C286 C 0.53671 0.30089 0.79563 0.0
C287 C 0.5366 0.34903 0.80084 0.0
C288 C 0.54405 0.15356 0.77051 0.0
C289 C 0.58036 0.14069 0.78044 0.0
C290 C 0.54377 0.20104 0.77694 0.0
C291 C 0.58048 0.24116 0.79367 0.0
C292 C 0.61689 0.22831 0.80383 0.0
C293 C 0.61676 0.18013 0.79755 0.0
H294 H 0.53289 0.75601 0.48665 0.0
H295 H 0.63018 0.7519 0.42997 0.0
H296 H 0.53612 0.68639 0.50616 0.0
H297 H 0.63175 0.68006 0.44903 0.0
H298 H 0.72585 0.68273 0.51798 0.0
H299 H 0.68639 0.70508 0.48547 0.0
H300 H 0.53608 0.60761 0.51436 0.0
H301 H 0.57646 0.5854 0.54741 0.0
C302 C 0.55226 0.73793 0.47745 0.0
C303 C 0.58298 0.76052 0.45736 0.0
C304 C 0.55416 0.69778 0.48871 0.0
C305 C 0.58635 0.67955 0.47978 0.0
C306 C 0.6083 0.69495 0.45684 0.0
C307 C 0.60711 0.73575 0.44579 0.0
C308 C 0.6843 0.6654 0.51719 0.0
C309 C 0.65427 0.63278 0.53531 0.0
C310 C 0.66143 0.67756 0.49831 0.0
C311 C 0.60781 0.65744 0.49702 0.0
C312 C 0.57745 0.62363 0.51483 0.0
C313 C 0.60054 0.61145 0.53387 0.0
H314 H 0.92187 0.59647 0.76566 0.0
H315 H 0.8318 0.49321 0.82106 0.0
H316 H 0.998 0.59556 0.78119 0.0
H317 H 0.90753 0.49434 0.83734 0.0
H318 H 1.05292 0.53895 0.87781 0.0
H319 H 0.98779 0.4975 0.84424 0.0
H320 H 1.03315 0.64909 0.81808 0.0
H321 H 0.09759 0.6895 0.85103 0.0
C322 C 0.91783 0.57148 0.78032 0.0
C323 C 0.87181 0.5467 0.79286 0.0
C324 C 0.96141 0.57122 0.78937 0.0
C325 C 0.95935 0.54757 0.81142 0.0
C326 C 0.9109 0.514 0.82067 0.0
C327 C 0.86716 0.51335 0.81129 0.0
C328 C 1.04879 0.56305 0.86471 0.0
C329 C 1.07963 0.6174 0.86713 0.0
C330 C 1.01208 0.53937 0.84536 0.0
C331 C 1.00551 0.56977 0.82824 0.0
C332 C 1.03791 0.62406 0.83035 0.0
C333 C 1.07443 0.64749 0.84952 0.0
H334 H 0.37853 0.88425 0.09967 0.0
H335 H 0.39374 0.79812 0.15747 0.0
H336 H 0.46096 0.95968 0.11306 0.0
H337 H 0.47341 0.87373 0.17205 0.0
H338 H 0.58872 1.02133 0.20886 0.0
H339 H 0.55373 0.94982 0.17728 0.0
H340 H 0.45854 1.00752 0.14755 0.0
H341 H 0.49426 0.07836 0.17824 0.0
C342 C 0.40071 0.88088 0.11455 0.0
C343 C 0.37948 0.83633 0.12806 0.0
C344 C 0.44759 0.92409 0.12243 0.0
C345 C 0.47213 0.92371 0.14452 0.0
C346 C 0.45533 0.87602 0.15524 0.0
C347 C 0.40933 0.8324 0.1469 0.0
C348 C 0.56068 1.01858 0.1953 0.0
C349 C 0.54363 1.05479 0.19607 0.0
C350 C 0.54098 0.97804 0.17713 0.0
C351 C 0.50339 0.97276 0.1597 0.0
C352 C 0.48838 1.01067 0.16006 0.0
C353 C 0.50829 1.0511 0.17796 0.0
H354 H 0.70221 0.31637 0.50777 0.0
H355 H 0.64617 0.40293 0.46939 0.0
H356 H 0.77247 0.397 0.52685 0.0
H357 H 0.71614 0.48372 0.48842 0.0
H358 H 0.80907 0.61717 0.52971 0.0
H359 H 0.81166 0.55079 0.50293 0.0
H360 H 0.74009 0.4398 0.55833 0.0
H361 H 0.73445 0.50429 0.58418 0.0
C362 C 0.70681 0.353 0.50238 0.0
C363 C 0.66923 0.35402 0.48722 0.0
C364 C 0.74698 0.39903 0.51328 0.0
C365 C 0.74959 0.44651 0.50927 0.0
C366 C 0.71555 0.44776 0.49164 0.0
C367 C 0.67515 0.40163 0.48089 0.0
C368 C 0.79599 0.57915 0.5366 0.0
C369 C 0.76849 0.56498 0.55834 0.0
C370 C 0.79791 0.54133 0.5213 0.0
C371 C 0.77411 0.48979 0.52817 0.0
C372 C 0.75803 0.47911 0.55235 0.0
C373 C 0.75481 0.51644 0.56733 0.0
H374 H 0.30611 0.62257 0.7993 0.0
H375 H 0.44366 0.67235 0.84425 0.0
H376 H 0.2923 0.68804 0.82081 0.0
H377 H 0.43131 0.73905 0.86522 0.0
H378 H 0.29009 0.6997 0.91857 0.0
H379 H 0.3585 0.7063 0.89368 0.0
H380 H 0.31655 0.77928 0.83837 0.0
H381 H 0.24888 0.77523 0.86419 0.0
C382 C 0.33471 0.64938 0.81291 0.0
C383 C 0.37611 0.64308 0.82003 0.0
C384 C 0.32732 0.68731 0.82507 0.0
C385 C 0.36082 0.71867 0.84478 0.0
C386 C 0.40515 0.71569 0.85006 0.0
C387 C 0.41238 0.67773 0.83795 0.0
C388 C 0.29729 0.72045 0.90196 0.0
C389 C 0.26207 0.73414 0.89267 0.0
C390 C 0.33685 0.72418 0.88751 0.0
C391 C 0.34115 0.74105 0.86355 0.0
C392 C 0.31297 0.76472 0.85651 0.0
C393 C 0.27408 0.76211 0.87127 0.0
H394 H 0.74547 0.25886 0.12217 0.0
H395 H 0.84634 0.4092 0.15799 0.0
H396 H 0.67396 0.25258 0.14568 0.0
H397 H 0.77508 0.40343 0.18143 0.0
H398 H 0.68719 0.2704 0.24172 0.0
H399 H 0.74354 0.3335 0.21374 0.0
H400 H 0.61453 0.28779 0.16306 0.0
H401 H 0.55741 0.22582 0.19174 0.0
C402 C 0.75149 0.29167 0.13408 0.0
C403 C 0.80087 0.33471 0.13812 0.0
C404 C 0.71064 0.28844 0.14743 0.0
C405 C 0.71912 0.32768 0.1654 0.0
C406 C 0.76746 0.37304 0.16754 0.0
C407 C 0.80809 0.37642 0.15402 0.0
C408 C 0.67007 0.27638 0.2255 0.0
C409 C 0.61852 0.24168 0.2183 0.0
C410 C 0.7025 0.3126 0.20932 0.0
C411 C 0.68351 0.31383 0.18582 0.0
C412 C 0.63013 0.28674 0.18088 0.0
C413 C 0.59753 0.25129 0.19731 0.0
H414 H 0.18302 0.61723 0.08217 0.0
H415 H 1.02124 0.50587 0.06849 0.0
H416 H 0.19149 0.63712 0.03944 0.0
H417 H 1.03019 0.52549 0.02501 0.0
H418 H 1.06292 0.63144 0.95809 0.0
H419 H 1.04769 0.6006 -0.00031 0.0
H420 H 0.18985 0.59661 -0.00045 0.0
H421 H 0.20516 0.62769 0.95833 0.0
C422 C 0.14925 0.59651 0.06995 0.0
C423 C 0.10139 0.55992 0.0787 0.0
C424 C 0.15426 0.60776 0.04537 0.0
C425 C 0.11159 0.58267 0.02884 0.0
C426 C 1.06365 0.54561 0.03743 0.0
C427 C 1.05861 0.53413 0.0622 0.0
C428 C 0.09065 0.62366 0.96699 0.0
C429 C 0.13571 0.63291 0.95523 0.0
C430 C 1.0818 0.60573 -0.00932 0.0
C431 C 0.1178 0.59663 0.00292 0.0
C432 C 0.16192 0.60427 -0.00924 0.0
C433 C 0.17082 0.6223 0.96722 0.0
H434 H 0.56038 0.99375 0.40036 0.0
H435 H 0.60769 0.15538 0.4162 0.0
H436 H 0.55833 1.00637 0.35637 0.0
H437 H 0.60677 0.16805 0.37278 0.0
H438 H 0.54347 0.16147 0.2967 0.0
H439 H 0.54361 0.14386 0.33982 0.0
H440 H 0.61445 1.05107 0.32264 0.0
H441 H 0.61367 0.06828 0.27935 0.0
C442 C 0.57063 1.0319 0.39446 0.0
C443 C 0.58359 0.07336 0.41172 0.0
C444 C 0.56964 1.03919 0.36933 0.0
C445 C 0.58175 0.08808 0.36113 0.0
C446 C 0.59597 0.12963 0.37848 0.0
C447 C 0.59673 0.12234 0.40342 0.0
C448 C 0.55934 0.13759 0.30217 0.0
C449 C 0.57883 0.11653 0.28472 0.0
C450 C 0.55943 0.12745 0.32685 0.0
C451 C 0.57938 0.09633 0.33467 0.0
C452 C 0.5983 0.07469 0.31716 0.0
C453 C 0.598 0.08468 0.29241 0.0
H454 H 0.65252 0.52625 0.74729 0.0
H455 H 0.54132 0.57722 0.7387 0.0
H456 H 0.67511 0.54283 0.70484 0.0
H457 H 0.56461 0.59436 0.69582 0.0
H458 H 0.59107 0.56362 0.61325 0.0
H459 H 0.56241 0.54887 0.65532 0.0
H460 H 0.72091 0.62254 0.68202 0.0
H461 H 0.7496 0.63756 0.64006 0.0
C462 C 0.63265 0.54078 0.73628 0.0
C463 C 0.59542 0.55087 0.74639 0.0
C464 C 0.64593 0.55064 0.71199 0.0
C465 C 0.62235 0.57082 0.69719 0.0
C466 C 0.58346 0.57887 0.70689 0.0
C467 C 0.57012 0.56903 0.73137 0.0
C468 C 0.61982 0.57755 0.62815 0.0
C469 C 0.67263 0.60145 0.62337 0.0
C470 C 0.60335 0.56899 0.6522 0.0
C471 C 0.63939 0.58397 0.67187 0.0
C472 C 0.69222 0.60962 0.66714 0.0
C473 C 0.70867 0.61825 0.64315 0.0
H474 H 0.67091 0.07854 0.57222 0.0
H475 H 0.50882 1.02819 0.57139 0.0
H476 H 0.67184 0.07693 0.61727 0.0
H477 H 0.5094 1.02477 0.61614 0.0
H478 H 0.52341 0.97142 0.69494 0.0
H479 H 0.52395 0.97269 0.64994 0.0
H480 H 0.65745 0.12611 0.65539 0.0
H481 H 0.65575 0.12552 0.70039 0.0
C482 C 0.63532 0.06671 0.58152 0.0
C483 C 0.5898 1.05358 0.56777 0.0
C484 C 0.63589 0.06599 0.6075 0.0
C485 C 0.59064 1.05059 0.62072 0.0
C486 C 0.54503 1.03656 0.60689 0.0
C487 C 0.54477 1.03873 0.58105 0.0
C488 C 0.55299 1.00545 0.6866 0.0
C489 C 0.5895 1.04836 0.70164 0.0
C490 C 0.55319 1.0063 0.66066 0.0
C491 C 0.59082 1.04949 0.64865 0.0
C492 C 0.62799 0.09196 0.6637 0.0
C493 C 0.62688 0.0917 0.68964 0.0
H494 H 0.63975 0.63416 0.90911 0.0
H495 H 0.52738 0.4708 0.90389 0.0
H496 H 0.64025 0.63321 0.95404 0.0
H497 H 0.52925 0.46952 0.94885 0.0
H498 H 0.59589 0.48166 0.02995 0.0
H499 H 0.59329 0.48205 -0.01505 0.0
H500 H 0.57879 0.61904 -0.01 0.0
H501 H 0.57975 0.61765 0.03497 0.0
C502 C 0.61518 0.59788 0.91745 0.0
C503 C 0.58341 0.55259 0.90245 0.0
C504 C 0.61535 0.59739 0.94339 0.0
C505 C 0.58487 0.55127 0.95548 0.0
C506 C 0.55355 0.50583 0.94048 0.0
C507 C 0.55229 0.50663 0.91453 0.0
C508 C 0.59207 0.51189 0.02152 0.0
C509 C 0.58798 0.54957 0.03646 0.0
C510 C 0.59031 0.51198 -0.00443 0.0
C511 C 0.58585 0.55061 -0.01656 0.0
C512 C 0.5825 0.58872 -0.0016 0.0
C513 C 0.58282 0.58779 0.02433 0.0
H514 H 1.0241 0.46199 0.23614 0.0
H515 H 0.14635 0.62174 0.24212 0.0
H516 H 1.02098 0.46156 0.2811 0.0
H517 H 0.14387 0.62101 0.28683 0.0
H518 H 0.16317 0.58477 0.3667 0.0
H519 H 0.16392 0.58334 0.32218 0.0
H520 H 0.998 0.49927 0.31817 0.0
H521 H 0.9967 0.50292 0.36294 0.0
C522 C 1.05055 0.49703 0.24692 0.0
C523 C 1.08552 0.54189 0.23504 0.0
C524 C 1.04855 0.49689 0.27289 0.0
C525 C 1.08222 0.54124 0.28808 0.0
C526 C 0.11749 0.58581 0.27612 0.0
C527 C 0.11876 0.58628 0.25024 0.0
C528 C 0.12643 0.56676 0.35668 0.0
C529 C 1.07981 0.54461 0.36937 0.0
C530 C 0.12701 0.56564 0.33076 0.0
C531 C 1.08107 0.54137 0.31607 0.0
C532 C 1.0344 0.51805 0.32854 0.0
C533 C 1.03375 0.51999 0.35455 0.0
loop_
_geom_bond_atom_site_label_1
_geom_bond_atom_site_label_2
_geom_bond_distance
_geom_bond_site_symmetry_2
_ccdc_geom_bond_type
Eu0 C9 2.828 . S
Eu0 O11 2.392 1_655 S
Eu0 O13 2.418 . S
Eu0 O18 2.373 . S
Eu0 O21 2.488 . S
Eu0 O22 2.471 . S
Eu0 O23 2.349 . S
Eu1 O10 2.373 . S
Eu1 O14 2.488 . S
Eu1 O15 2.471 . S
Eu1 O16 2.349 . S
Eu1 O19 2.392 1_455 S
Eu1 O20 2.418 . S
Eu1 C30 2.828 . S
C2 O20 1.244 . S
C2 O23 1.265 1_455 S
C3 C4 1.379 . S
C3 C7 1.373 . S
C3 C9 1.505 . S
C4 C3 1.379 . S
C4 C6 1.369 . S
C4 H32 0.930 . S
C5 C7 1.383 . S
C5 C8 1.382 . S
C5 H33 0.930 . S
C6 C4 1.369 . S
C6 C8 1.392 . S
C6 H34 0.930 . S
C7 C3 1.373 . S
C7 C5 1.383 . S
C7 H35 0.931 . S
C8 C5 1.382 . S
C8 C6 1.392 . S
C9 Eu0 2.828 . S
C9 C3 1.505 . S
C9 O21 1.249 . S
C9 O22 1.244 . S
O10 Eu1 2.373 . S
O10 C12 1.258 . S
O11 Eu0 2.392 1_455 S
O11 C12 1.242 . S
C12 O10 1.258 . S
C12 O11 1.242 . S
O13 Eu0 2.418 . S
O13 C17 1.244 . S
O14 Eu1 2.488 . S
O14 C30 1.249 . S
O15 Eu1 2.471 . S
O15 C30 1.244 . S
O16 Eu1 2.349 . S
O16 C17 1.265 1_455 S
C17 O13 1.244 . S
C17 O16 1.265 1_655 S
O18 Eu0 2.373 . S
O18 C31 1.258 . S
O19 Eu1 2.392 1_655 S
O19 C31 1.242 . S
O20 Eu1 2.418 . S
O20 C2 1.244 . S
O21 Eu0 2.488 . S
O21 C9 1.249 . S
O22 Eu0 2.471 . S
O22 C9 1.244 . S
O23 Eu0 2.349 . S
O23 C2 1.265 1_655 S
C24 C25 1.379 . S
C24 C28 1.373 . S
C24 C30 1.505 . S
C25 C24 1.379 . S
C25 C27 1.369 . S
C25 H36 0.930 . S
C26 C28 1.383 . S
C26 C29 1.382 . S
C26 H37 0.930 . S
C27 C25 1.369 . S
C27 C29 1.392 . S
C27 H38 0.930 . S
C28 C24 1.373 . S
C28 C26 1.383 . S
C28 H39 0.931 . S
C29 C26 1.382 . S
C29 C27 1.392 . S
C30 Eu1 2.828 . S
C30 O14 1.249 . S
C30 O15 1.244 . S
C30 C24 1.505 . S
C31 O18 1.258 . S
C31 O19 1.242 . S
H32 C4 0.930 . S
H33 C5 0.930 . S
H34 C6 0.930 . S
H35 C7 0.931 . S
H36 C25 0.930 . S
H37 C26 0.930 . S
H38 C27 0.930 . S
H39 C28 0.931 . S
Eu40 C49 2.828 . S
Eu40 O51 2.392 1_565 S
Eu40 O53 2.418 . S
Eu40 O58 2.373 . S
Eu40 O61 2.488 . S
Eu40 O62 2.471 . S
Eu40 O63 2.349 . S
Eu41 O50 2.373 . S
Eu41 O54 2.488 . S
Eu41 O55 2.471 . S
Eu41 O56 2.349 . S
Eu41 O59 2.392 1_545 S
Eu41 O60 2.418 . S
Eu41 C70 2.828 . S
C42 O60 1.244 . S
C42 O63 1.265 1_545 S
C43 C44 1.379 . S
C43 C47 1.373 . S
C43 C49 1.505 . S
C44 C43 1.379 . S
C44 C46 1.369 . S
C44 H72 0.930 . S
C45 C47 1.383 . S
C45 C48 1.382 . S
C45 H73 0.930 . S
C46 C44 1.369 . S
C46 C48 1.392 . S
C46 H74 0.930 . S
C47 C43 1.373 . S
C47 C45 1.383 . S
C47 H75 0.931 . S
C48 C45 1.382 . S
C48 C46 1.392 . S
C49 Eu40 2.828 . S
C49 C43 1.505 . S
C49 O61 1.249 . S
C49 O62 1.244 . S
O50 Eu41 2.373 . S
O50 C52 1.258 . S
O51 Eu40 2.392 1_545 S
O51 C52 1.242 . S
C52 O50 1.258 . S
C52 O51 1.242 . S
O53 Eu40 2.418 . S
O53 C57 1.244 1_565 S
O54 Eu41 2.488 . S
O54 C70 1.249 . S
O55 Eu41 2.471 . S
O55 C70 1.244 . S
O56 Eu41 2.349 . S
O56 C57 1.265 . S
C57 O53 1.244 1_545 S
C57 O56 1.265 . S
O58 Eu40 2.373 . S
O58 C71 1.258 . S
O59 Eu41 2.392 1_565 S
O59 C71 1.242 . S
O60 Eu41 2.418 . S
O60 C42 1.244 . S
O61 Eu40 2.488 . S
O61 C49 1.249 . S
O62 Eu40 2.471 . S
O62 C49 1.244 . S
O63 Eu40 2.349 . S
O63 C42 1.265 1_565 S
C64 C65 1.379 . S
C64 C68 1.373 . S
C64 C70 1.505 . S
C65 C64 1.379 . S
C65 C67 1.369 . S
C65 H76 0.930 . S
C66 C68 1.383 . S
C66 C69 1.382 . S
C66 H77 0.930 . S
C67 C65 1.369 . S
C67 C69 1.392 . S
C67 H78 0.930 . S
C68 C64 1.373 . S
C68 C66 1.383 . S
C68 H79 0.931 . S
C69 C66 1.382 . S
C69 C67 1.392 . S
C70 Eu41 2.828 . S
C70 O54 1.249 . S
C70 O55 1.244 . S
C70 C64 1.505 . S
C71 O58 1.258 . S
C71 O59 1.242 . S
H72 C44 0.930 . S
H73 C45 0.930 . S
H74 C46 0.930 . S
H75 C47 0.931 . S
H76 C65 0.930 . S
H77 C66 0.930 . S
H78 C67 0.930 . S
H79 C68 0.931 . S
Eu80 C89 2.828 . S
Eu80 O91 2.392 . S
Eu80 O93 2.418 . S
Eu80 O98 2.373 . S
Eu80 O101 2.488 . S
Eu80 O102 2.471 . S
Eu80 O103 2.349 . S
Eu81 O90 2.373 . S
Eu81 O94 2.488 . S
Eu81 O95 2.471 . S
Eu81 O96 2.349 . S
Eu81 O99 2.392 . S
Eu81 O100 2.418 . S
Eu81 C110 2.828 . S
C82 O100 1.244 . S
C82 O103 1.265 . S
C83 C84 1.379 . S
C83 C87 1.373 . S
C83 C89 1.505 . S
C84 C83 1.379 . S
C84 C86 1.369 . S
C84 H112 0.930 . S
C85 C87 1.383 . S
C85 C88 1.382 . S
C85 H113 0.930 . S
C86 C84 1.369 . S
C86 C88 1.392 . S
C86 H114 0.930 . S
C87 C83 1.373 . S
C87 C85 1.383 . S
C87 H115 0.931 . S
C88 C85 1.382 . S
C88 C86 1.392 . S
C89 Eu80 2.828 . S
C89 C83 1.505 . S
C89 O101 1.249 . S
C89 O102 1.244 . S
O90 Eu81 2.373 . S
O90 C92 1.258 . S
O91 Eu80 2.392 . S
O91 C92 1.242 . S
C92 O90 1.258 . S
C92 O91 1.242 . S
O93 Eu80 2.418 . S
O93 C97 1.244 . S
O94 Eu81 2.488 . S
O94 C110 1.249 . S
O95 Eu81 2.471 . S
O95 C110 1.244 . S
O96 Eu81 2.349 . S
O96 C97 1.265 . S
C97 O93 1.244 . S
C97 O96 1.265 . S
O98 Eu80 2.373 . S
O98 C111 1.258 . S
O99 Eu81 2.392 . S
O99 C111 1.242 . S
O100 Eu81 2.418 . S
O100 C82 1.244 . S
O101 Eu80 2.488 . S
O101 C89 1.249 . S
O102 Eu80 2.471 . S
O102 C89 1.244 . S
O103 Eu80 2.349 . S
O103 C82 1.265 . S
C104 C105 1.379 . S
C104 C108 1.373 . S
C104 C110 1.505 . S
C105 C104 1.379 . S
C105 C107 1.369 . S
C105 H116 0.930 . S
C106 C108 1.383 . S
C106 C109 1.382 . S
C106 H117 0.930 . S
C107 C105 1.369 . S
C107 C109 1.392 . S
C107 H118 0.930 . S
C108 C104 1.373 . S
C108 C106 1.383 . S
C108 H119 0.931 . S
C109 C106 1.382 . S
C109 C107 1.392 . S
C110 Eu81 2.828 . S
C110 O94 1.249 . S
C110 O95 1.244 . S
C110 C104 1.505 . S
C111 O98 1.258 . S
C111 O99 1.242 . S
H112 C84 0.930 . S
H113 C85 0.930 . S
H114 C86 0.930 . S
H115 C87 0.931 . S
H116 C105 0.930 . S
H117 C106 0.930 . S
H118 C107 0.930 . S
H119 C108 0.931 . S
H120 C123 0.931 . S
H121 C126 0.928 . S
H122 C128 0.930 . S
C123 H120 0.931 . S
C123 C124 1.413 . S
C123 C125 1.360 1_565 S
C124 C123 1.413 . S
C124 C128 1.429 1_565 S
C125 C123 1.360 1_545 S
C125 C126 1.372 . S
C126 H121 0.928 . S
C126 C125 1.372 . S
C126 C127 1.404 . S
C127 C126 1.404 . S
C127 C128 1.391 . S
C128 H122 0.930 . S
C128 C124 1.429 1_545 S
C128 C127 1.391 . S
H129 C132 0.931 . S
H130 C135 0.928 . S
H131 C137 0.930 . S
C132 H129 0.931 . S
C132 C133 1.413 . S
C132 C134 1.360 . S
C133 C132 1.413 . S
C133 C137 1.429 . S
C134 C132 1.360 . S
C134 C135 1.372 . S
C135 H130 0.928 . S
C135 C134 1.372 . S
C135 C136 1.404 . S
C136 C135 1.404 . S
C136 C137 1.391 . S
C137 H131 0.930 . S
C137 C133 1.429 . S
C137 C136 1.391 . S
H138 C141 0.931 1_655 S
H139 C144 0.928 . S
H140 C146 0.930 . S
C141 H138 0.931 1_455 S
C141 C142 1.413 . S
C141 C143 1.360 . S
C142 C141 1.413 . S
C142 C146 1.429 . S
C143 C141 1.360 . S
C143 C144 1.372 . S
C144 H139 0.928 . S
C144 C143 1.372 . S
C144 C145 1.404 . S
C145 C144 1.404 . S
C145 C146 1.391 . S
C146 H140 0.930 . S
C146 C142 1.429 . S
C146 C145 1.391 . S
H147 C150 0.931 . S
H148 C153 0.928 . S
H149 C155 0.930 . S
C150 H147 0.931 . S
C150 C151 1.413 . S
C150 C152 1.360 1_655 S
C151 C150 1.413 . S
C151 C155 1.429 1_655 S
C152 C150 1.360 1_455 S
C152 C153 1.372 . S
C153 H148 0.928 . S
C153 C152 1.372 . S
C153 C154 1.404 . S
C154 C153 1.404 . S
C154 C155 1.391 . S
C155 H149 0.930 . S
C155 C151 1.429 1_455 S
C155 C154 1.391 . S
H156 C159 0.931 . S
H157 C162 0.928 . S
H158 C164 0.930 . S
C159 H156 0.931 . S
C159 C160 1.413 . S
C159 C161 1.360 . S
C160 C159 1.413 . S
C160 C164 1.429 . S
C161 C159 1.360 . S
C161 C162 1.372 1_545 S
C162 H157 0.928 . S
C162 C161 1.372 1_565 S
C162 C163 1.404 . S
C163 C162 1.404 . S
C163 C164 1.391 1_565 S
C164 H158 0.930 . S
C164 C160 1.429 . S
C164 C163 1.391 1_545 S
H165 C168 0.931 . S
H166 C171 0.928 . S
H167 C173 0.930 . S
C168 H165 0.931 . S
C168 C169 1.413 . S
C168 C170 1.360 . S
C169 C168 1.413 . S
C169 C173 1.429 . S
C170 C168 1.360 . S
C170 C171 1.372 . S
C171 H166 0.928 . S
C171 C170 1.372 . S
C171 C172 1.404 . S
C172 C171 1.404 . S
C172 C173 1.391 . S
C173 H167 0.930 . S
C173 C169 1.429 . S
C173 C172 1.391 . S
H174 C182 0.950 . S
H175 C187 0.950 . S
H176 C184 0.950 . S
H177 C186 0.950 . S
H178 C188 0.950 . S
H179 C190 0.950 . S
H180 C192 0.950 . S
H181 C193 0.950 . S
C182 H174 0.950 . S
C182 C183 1.386 . S
C182 C184 1.391 . S
C183 C182 1.386 . S
C183 C187 1.393 . S
C184 H176 0.950 . S
C184 C182 1.391 . S
C184 C185 1.400 . S
C185 C184 1.400 . S
C185 C186 1.398 . S
C185 C191 1.491 . S
C186 H177 0.950 . S
C186 C185 1.398 . S
C186 C187 1.391 . S
C187 H175 0.950 . S
C187 C183 1.393 . S
C187 C186 1.391 . S
C188 H178 0.950 . S
C188 C189 1.386 . S
C188 C190 1.391 . S
C189 C188 1.386 . S
C189 C193 1.393 . S
C190 H179 0.950 . S
C190 C188 1.391 . S
C190 C191 1.400 . S
C191 C185 1.491 . S
C191 C190 1.400 . S
C191 C192 1.398 . S
C192 H180 0.950 . S
C192 C191 1.398 . S
C192 C193 1.391 . S
C193 H181 0.950 . S
C193 C189 1.393 . S
C193 C192 1.391 . S
H194 C202 0.950 . S
H195 C207 0.950 . S
H196 C204 0.950 . S
H197 C206 0.950 . S
H198 C208 0.950 . S
H199 C210 0.950 . S
H200 C212 0.950 . S
H201 C213 0.950 . S
C202 H194 0.950 . S
C202 C203 1.386 . S
C202 C204 1.391 . S
C203 C202 1.386 . S
C203 C207 1.393 . S
C204 H196 0.950 . S
C204 C202 1.391 . S
C204 C205 1.400 . S
C205 C204 1.400 . S
C205 C206 1.398 . S
C205 C211 1.491 . S
C206 H197 0.950 . S
C206 C205 1.398 . S
C206 C207 1.391 . S
C207 H195 0.950 . S
C207 C203 1.393 . S
C207 C206 1.391 . S
C208 H198 0.950 . S
C208 C209 1.386 . S
C208 C210 1.391 . S
C209 C208 1.386 . S
C209 C213 1.393 . S
C210 H199 0.950 . S
C210 C208 1.391 . S
C210 C211 1.400 . S
C211 C205 1.491 . S
C211 C210 1.400 . S
C211 C212 1.398 . S
C212 H200 0.950 . S
C212 C211 1.398 . S
C212 C213 1.391 . S
C213 H201 0.950 . S
C213 C209 1.393 . S
C213 C212 1.391 . S
H214 C222 0.950 . S
H215 C227 0.950 . S
H216 C224 0.950 . S
H217 C226 0.950 . S
H218 C228 0.950 . S
H219 C230 0.950 . S
H220 C232 0.950 . S
H221 C233 0.950 . S
C222 H214 0.950 . S
C222 C223 1.386 . S
C222 C224 1.391 . S
C223 C222 1.386 . S
C223 C227 1.393 . S
C224 H216 0.950 . S
C224 C222 1.391 . S
C224 C225 1.400 . S
C225 C224 1.400 . S
C225 C226 1.398 . S
C225 C231 1.491 . S
C226 H217 0.950 . S
C226 C225 1.398 . S
C226 C227 1.391 . S
C227 H215 0.950 . S
C227 C223 1.393 . S
C227 C226 1.391 . S
C228 H218 0.950 . S
C228 C229 1.386 . S
C228 C230 1.391 . S
C229 C228 1.386 . S
C229 C233 1.393 . S
C230 H219 0.950 . S
C230 C228 1.391 . S
C230 C231 1.400 . S
C231 C225 1.491 . S
C231 C230 1.400 . S
C231 C232 1.398 . S
C232 H220 0.950 . S
C232 C231 1.398 . S
C232 C233 1.391 . S
C233 H221 0.950 . S
C233 C229 1.393 . S
C233 C232 1.391 . S
H234 C242 0.950 . S
H235 C247 0.950 . S
H236 C244 0.950 . S
H237 C246 0.950 . S
H238 C248 0.950 . S
H239 C250 0.950 . S
H240 C252 0.950 . S
H241 C253 0.950 . S
C242 H234 0.950 . S
C242 C243 1.386 . S
C242 C244 1.391 . S
C243 C242 1.386 . S
C243 C247 1.393 . S
C244 H236 0.950 . S
C244 C242 1.391 . S
C244 C245 1.400 . S
C245 C244 1.400 . S
C245 C246 1.398 . S
C245 C251 1.491 . S
C246 H237 0.950 . S
C246 C245 1.398 . S
C246 C247 1.391 . S
C247 H235 0.950 . S
C247 C243 1.393 . S
C247 C246 1.391 . S
C248 H238 0.950 . S
C248 C249 1.386 . S
C248 C250 1.391 . S
C249 C248 1.386 . S
C249 C253 1.393 . S
C250 H239 0.950 . S
C250 C248 1.391 . S
C250 C251 1.400 . S
C251 C245 1.491 . S
C251 C250 1.400 . S
C251 C252 1.398 . S
C252 H240 0.950 . S
C252 C251 1.398 . S
C252 C253 1.391 . S
C253 H241 0.950 . S
C253 C249 1.393 . S
C253 C252 1.391 . S
H254 C262 0.950 . S
H255 C267 0.950 . S
H256 C264 0.950 . S
H257 C266 0.950 . S
H258 C268 0.950 . S
H259 C270 0.950 . S
H260 C272 0.950 . S
H261 C273 0.950 . S
C262 H254 0.950 . S
C262 C263 1.386 . S
C262 C264 1.391 . S
C263 C262 1.386 . S
C263 C267 1.393 . S
C264 H256 0.950 . S
C264 C262 1.391 . S
C264 C265 1.400 . S
C265 C264 1.400 . S
C265 C266 1.398 . S
C265 C271 1.491 . S
C266 H257 0.950 . S
C266 C265 1.398 . S
C266 C267 1.391 . S
C267 H255 0.950 . S
C267 C263 1.393 . S
C267 C266 1.391 . S
C268 H258 0.950 . S
C268 C269 1.386 . S
C268 C270 1.391 . S
C269 C268 1.386 . S
C269 C273 1.393 . S
C270 H259 0.950 . S
C270 C268 1.391 . S
C270 C271 1.400 . S
C271 C265 1.491 . S
C271 C270 1.400 . S
C271 C272 1.398 . S
C272 H260 0.950 . S
C272 C271 1.398 . S
C272 C273 1.391 . S
C273 H261 0.950 . S
C273 C269 1.393 . S
C273 C272 1.391 . S
H274 C282 0.950 . S
H275 C287 0.950 . S
H276 C284 0.950 . S
H277 C286 0.950 . S
H278 C288 0.950 . S
H279 C290 0.950 . S
H280 C292 0.950 . S
H281 C293 0.950 . S
C282 H274 0.950 . S
C282 C283 1.386 . S
C282 C284 1.391 . S
C283 C282 1.386 . S
C283 C287 1.393 . S
C284 H276 0.950 . S
C284 C282 1.391 . S
C284 C285 1.400 . S
C285 C284 1.400 . S
C285 C286 1.398 . S
C285 C291 1.491 . S
C286 H277 0.950 . S
C286 C285 1.398 . S
C286 C287 1.391 . S
C287 H275 0.950 . S
C287 C283 1.393 . S
C287 C286 1.391 . S
C288 H278 0.950 . S
C288 C289 1.386 . S
C288 C290 1.391 . S
C289 C288 1.386 . S
C289 C293 1.393 . S
C290 H279 0.950 . S
C290 C288 1.391 . S
C290 C291 1.400 . S
C291 C285 1.491 . S
C291 C290 1.400 . S
C291 C292 1.398 . S
C292 H280 0.950 . S
C292 C291 1.398 . S
C292 C293 1.391 . S
C293 H281 0.950 . S
C293 C289 1.393 . S
C293 C292 1.391 . S
H294 C302 0.950 . S
H295 C307 0.950 . S
H296 C304 0.950 . S
H297 C306 0.950 . S
H298 C308 0.950 . S
H299 C310 0.950 . S
H300 C312 0.950 . S
H301 C313 0.950 . S
C302 H294 0.950 . S
C302 C303 1.386 . S
C302 C304 1.391 . S
C303 C302 1.386 . S
C303 C307 1.393 . S
C304 H296 0.950 . S
C304 C302 1.391 . S
C304 C305 1.400 . S
C305 C304 1.400 . S
C305 C306 1.398 . S
C305 C311 1.491 . S
C306 H297 0.950 . S
C306 C305 1.398 . S
C306 C307 1.391 . S
C307 H295 0.950 . S
C307 C303 1.393 . S
C307 C306 1.391 . S
C308 H298 0.950 . S
C308 C309 1.386 . S
C308 C310 1.391 . S
C309 C308 1.386 . S
C309 C313 1.393 . S
C310 H299 0.950 . S
C310 C308 1.391 . S
C310 C311 1.400 . S
C311 C305 1.491 . S
C311 C310 1.400 . S
C311 C312 1.398 . S
C312 H300 0.950 . S
C312 C311 1.398 . S
C312 C313 1.391 . S
C313 H301 0.950 . S
C313 C309 1.393 . S
C313 C312 1.391 . S
H314 C322 0.950 . S
H315 C327 0.950 . S
H316 C324 0.950 . S
H317 C326 0.950 . S
H318 C328 0.950 . S
H319 C330 0.950 . S
H320 C332 0.950 . S
H321 C333 0.950 1_455 S
C322 H314 0.950 . S
C322 C323 1.386 . S
C322 C324 1.391 . S
C323 C322 1.386 . S
C323 C327 1.393 . S
C324 H316 0.950 . S
C324 C322 1.391 . S
C324 C325 1.400 . S
C325 C324 1.400 . S
C325 C326 1.398 . S
C325 C331 1.491 . S
C326 H317 0.950 . S
C326 C325 1.398 . S
C326 C327 1.391 . S
C327 H315 0.950 . S
C327 C323 1.393 . S
C327 C326 1.391 . S
C328 H318 0.950 . S
C328 C329 1.386 . S
C328 C330 1.391 . S
C329 C328 1.386 . S
C329 C333 1.393 . S
C330 H319 0.950 . S
C330 C328 1.391 . S
C330 C331 1.400 . S
C331 C325 1.491 . S
C331 C330 1.400 . S
C331 C332 1.398 . S
C332 H320 0.950 . S
C332 C331 1.398 . S
C332 C333 1.391 . S
C333 H321 0.950 1_655 S
C333 C329 1.393 . S
C333 C332 1.391 . S
H334 C342 0.950 . S
H335 C347 0.950 . S
H336 C344 0.950 . S
H337 C346 0.950 . S
H338 C348 0.950 . S
H339 C350 0.950 . S
H340 C352 0.950 . S
H341 C353 0.950 . S
C342 H334 0.950 . S
C342 C343 1.386 . S
C342 C344 1.391 . S
C343 C342 1.386 . S
C343 C347 1.393 . S
C344 H336 0.950 . S
C344 C342 1.391 . S
C344 C345 1.400 . S
C345 C344 1.400 . S
C345 C346 1.398 . S
C345 C351 1.491 . S
C346 H337 0.950 . S
C346 C345 1.398 . S
C346 C347 1.391 . S
C347 H335 0.950 . S
C347 C343 1.393 . S
C347 C346 1.391 . S
C348 H338 0.950 . S
C348 C349 1.386 . S
C348 C350 1.391 . S
C349 C348 1.386 . S
C349 C353 1.393 . S
C350 H339 0.950 . S
C350 C348 1.391 . S
C350 C351 1.400 . S
C351 C345 1.491 . S
C351 C350 1.400 . S
C351 C352 1.398 . S
C352 H340 0.950 . S
C352 C351 1.398 . S
C352 C353 1.391 . S
C353 H341 0.950 . S
C353 C349 1.393 . S
C353 C352 1.391 . S
H354 C362 0.950 . S
H355 C367 0.950 . S
H356 C364 0.950 . S
H357 C366 0.950 . S
H358 C368 0.950 . S
H359 C370 0.950 . S
H360 C372 0.950 . S
H361 C373 0.950 . S
C362 H354 0.950 . S
C362 C363 1.386 . S
C362 C364 1.391 . S
C363 C362 1.386 . S
C363 C367 1.393 . S
C364 H356 0.950 . S
C364 C362 1.391 . S
C364 C365 1.400 . S
C365 C364 1.400 . S
C365 C366 1.398 . S
C365 C371 1.491 . S
C366 H357 0.950 . S
C366 C365 1.398 . S
C366 C367 1.391 . S
C367 H355 0.950 . S
C367 C363 1.393 . S
C367 C366 1.391 . S
C368 H358 0.950 . S
C368 C369 1.386 . S
C368 C370 1.391 . S
C369 C368 1.386 . S
C369 C373 1.393 . S
C370 H359 0.950 . S
C370 C368 1.391 . S
C370 C371 1.400 . S
C371 C365 1.491 . S
C371 C370 1.400 . S
C371 C372 1.398 . S
C372 H360 0.950 . S
C372 C371 1.398 . S
C372 C373 1.391 . S
C373 H361 0.950 . S
C373 C369 1.393 . S
C373 C372 1.391 . S
H374 C382 0.950 . S
H375 C387 0.950 . S
H376 C384 0.950 . S
H377 C386 0.950 . S
H378 C388 0.950 . S
H379 C390 0.950 . S
H380 C392 0.950 . S
H381 C393 0.950 . S
C382 H374 0.950 . S
C382 C383 1.386 . S
C382 C384 1.391 . S
C383 C382 1.386 . S
C383 C387 1.393 . S
C384 H376 0.950 . S
C384 C382 1.391 . S
C384 C385 1.400 . S
C385 C384 1.400 . S
C385 C386 1.398 . S
C385 C391 1.491 . S
C386 H377 0.950 . S
C386 C385 1.398 . S
C386 C387 1.391 . S
C387 H375 0.950 . S
C387 C383 1.393 . S
C387 C386 1.391 . S
C388 H378 0.950 . S
C388 C389 1.386 . S
C388 C390 1.391 . S
C389 C388 1.386 . S
C389 C393 1.393 . S
C390 H379 0.950 . S
C390 C388 1.391 . S
C390 C391 1.400 . S
C391 C385 1.491 . S
C391 C390 1.400 . S
C391 C392 1.398 . S
C392 H380 0.950 . S
C392 C391 1.398 . S
C392 C393 1.391 . S
C393 H381 0.950 . S
C393 C389 1.393 . S
C393 C392 1.391 . S
H394 C402 0.950 . S
H395 C407 0.950 . S
H396 C404 0.950 . S
H397 C406 0.950 . S
H398 C408 0.950 . S
H399 C410 0.950 . S
H400 C412 0.950 . S
H401 C413 0.950 . S
C402 H394 0.950 . S
C402 C403 1.386 . S
C402 C404 1.391 . S
C403 C402 1.386 . S
C403 C407 1.393 . S
C404 H396 0.950 . S
C404 C402 1.391 . S
C404 C405 1.400 . S
C405 C404 1.400 . S
C405 C406 1.398 . S
C405 C411 1.491 . S
C406 H397 0.950 . S
C406 C405 1.398 . S
C406 C407 1.391 . S
C407 H395 0.950 . S
C407 C403 1.393 . S
C407 C406 1.391 . S
C408 H398 0.950 . S
C408 C409 1.386 . S
C408 C410 1.391 . S
C409 C408 1.386 . S
C409 C413 1.393 . S
C410 H399 0.950 . S
C410 C408 1.391 . S
C410 C411 1.400 . S
C411 C405 1.491 . S
C411 C410 1.400 . S
C411 C412 1.398 . S
C412 H400 0.950 . S
C412 C411 1.398 . S
C412 C413 1.391 . S
C413 H401 0.950 . S
C413 C409 1.393 . S
C413 C412 1.391 . S
H414 C422 0.950 . S
H415 C427 0.950 . S
H416 C424 0.950 . S
H417 C426 0.950 . S
H418 C428 0.950 1_655 S
H419 C430 0.950 . S
H420 C432 0.950 . S
H421 C433 0.950 . S
C422 H414 0.950 . S
C422 C423 1.386 . S
C422 C424 1.391 . S
C423 C422 1.386 . S
C423 C427 1.393 1_455 S
C424 H416 0.950 . S
C424 C422 1.391 . S
C424 C425 1.400 . S
C425 C424 1.400 . S
C425 C426 1.398 1_455 S
C425 C431 1.491 . S
C426 H417 0.950 . S
C426 C425 1.398 1_655 S
C426 C427 1.391 . S
C427 H415 0.950 . S
C427 C423 1.393 1_655 S
C427 C426 1.391 . S
C428 H418 0.950 1_455 S
C428 C429 1.386 . S
C428 C430 1.391 1_456 S
C429 C428 1.386 . S
C429 C433 1.393 . S
C430 H419 0.950 . S
C430 C428 1.391 1_654 S
C430 C431 1.400 1_655 S
C431 C425 1.491 . S
C431 C430 1.400 1_455 S
C431 C432 1.398 . S
C432 H420 0.950 . S
C432 C431 1.398 . S
C432 C433 1.391 1_554 S
C433 H421 0.950 . S
C433 C429 1.393 . S
C433 C432 1.391 1_556 S
H434 C442 0.950 . S
H435 C447 0.950 . S
H436 C444 0.950 . S
H437 C446 0.950 . S
H438 C448 0.950 . S
H439 C450 0.950 . S
H440 C452 0.975 . S
H441 C453 0.950 1_565 S
C442 H434 0.950 . S
C442 C443 1.386 1_565 S
C442 C444 1.391 . S
C443 C442 1.386 1_545 S
C443 C447 1.393 . S
C444 H436 0.950 . S
C444 C442 1.391 . S
C444 C445 1.400 1_565 S
C445 C444 1.400 1_545 S
C445 C446 1.398 . S
C445 C451 1.491 . S
C446 H437 0.950 . S
C446 C445 1.398 . S
C446 C447 1.391 . S
C447 H435 0.950 . S
C447 C443 1.393 . S
C447 C446 1.391 . S
C448 H438 0.950 . S
C448 C449 1.386 . S
C448 C450 1.391 . S
C449 C448 1.386 . S
C449 C453 1.393 . S
C450 H439 0.950 . S
C450 C448 1.391 . S
C450 C451 1.400 . S
C451 C445 1.491 . S
C451 C450 1.400 . S
C451 C452 1.380 1_545 S
C452 H440 0.975 . S
C452 C451 1.380 1_565 S
C452 C453 1.386 1_565 S
C453 H441 0.950 1_545 S
C453 C449 1.393 . S
C453 C452 1.386 1_545 S
H454 C462 0.950 . S
H455 C467 0.950 . S
H456 C464 0.950 . S
H457 C466 0.950 . S
H458 C468 0.950 . S
H459 C470 0.950 . S
H460 C472 0.950 . S
H461 C473 0.950 . S
C462 H454 0.950 . S
C462 C463 1.386 . S
C462 C464 1.391 . S
C463 C462 1.386 . S
C463 C467 1.393 . S
C464 H456 0.950 . S
C464 C462 1.391 . S
C464 C465 1.400 . S
C465 C464 1.400 . S
C465 C466 1.398 . S
C465 C471 1.491 . S
C466 H457 0.950 . S
C466 C465 1.398 . S
C466 C467 1.391 . S
C467 H455 0.950 . S
C467 C463 1.393 . S
C467 C466 1.391 . S
C468 H458 0.950 . S
C468 C469 1.386 . S
C468 C470 1.391 . S
C469 C468 1.386 . S
C469 C473 1.393 . S
C470 H459 0.950 . S
C470 C468 1.391 . S
C470 C471 1.400 . S
C471 C465 1.491 . S
C471 C470 1.400 . S
C471 C472 1.398 . S
C472 H460 0.950 . S
C472 C471 1.398 . S
C472 C473 1.391 . S
C473 H461 0.950 . S
C473 C469 1.393 . S
C473 C472 1.391 . S
H474 C482 0.950 . S
H475 C487 0.950 . S
H476 C484 0.950 . S
H477 C486 0.950 . S
H478 C488 0.950 . S
H479 C490 0.950 . S
H480 C492 0.950 . S
H481 C493 0.950 . S
C482 H474 0.950 . S
C482 C483 1.386 . S
C482 C484 1.391 . S
C483 C482 1.386 . S
C483 C487 1.393 1_545 S
C484 H476 0.950 . S
C484 C482 1.391 . S
C484 C485 1.400 . S
C485 C484 1.400 . S
C485 C486 1.398 1_545 S
C485 C491 1.491 . S
C486 H477 0.950 . S
C486 C485 1.398 1_565 S
C486 C487 1.391 . S
C487 H475 0.950 . S
C487 C483 1.393 1_565 S
C487 C486 1.391 . S
C488 H478 0.950 . S
C488 C489 1.386 1_565 S
C488 C490 1.391 . S
C489 C488 1.386 1_545 S
C489 C493 1.393 . S
C490 H479 0.950 . S
C490 C488 1.391 . S
C490 C491 1.400 1_565 S
C491 C485 1.491 . S
C491 C490 1.400 1_545 S
C491 C492 1.398 . S
C492 H480 0.950 . S
C492 C491 1.398 . S
C492 C493 1.391 . S
C493 H481 0.950 . S
C493 C489 1.393 . S
C493 C492 1.391 . S
H494 C502 0.950 . S
H495 C507 0.950 . S
H496 C504 0.950 . S
H497 C506 0.950 . S
H498 C508 0.950 . S
H499 C510 0.950 1_556 S
H500 C512 0.952 . S
H501 C513 0.950 . S
C502 H494 0.950 . S
C502 C503 1.386 . S
C502 C504 1.391 . S
C503 C502 1.386 . S
C503 C507 1.393 . S
C504 H496 0.950 . S
C504 C502 1.391 . S
C504 C505 1.400 . S
C505 C504 1.400 . S
C505 C506 1.398 . S
C505 C511 1.491 . S
C506 H497 0.950 . S
C506 C505 1.398 . S
C506 C507 1.391 . S
C507 H495 0.950 . S
C507 C503 1.393 . S
C507 C506 1.391 . S
C508 H498 0.950 . S
C508 C509 1.386 . S
C508 C510 1.391 . S
C509 C508 1.386 . S
C509 C513 1.393 . S
C510 H499 0.950 1_554 S
C510 C508 1.391 . S
C510 C511 1.400 1_554 S
C511 C505 1.491 . S
C511 C510 1.400 1_556 S
C511 C512 1.398 1_556 S
C512 H500 0.952 . S
C512 C511 1.398 1_554 S
C512 C513 1.391 . S
C513 H501 0.950 . S
C513 C509 1.393 . S
C513 C512 1.391 . S
H514 C522 0.950 . S
H515 C527 0.950 . S
H516 C524 0.950 . S
H517 C526 0.950 . S
H518 C528 0.950 . S
H519 C530 0.950 . S
H520 C532 0.950 . S
H521 C533 0.950 . S
C522 H514 0.950 . S
C522 C523 1.386 . S
C522 C524 1.391 . S
C523 C522 1.386 . S
C523 C527 1.392 1_655 S
C524 H516 0.950 . S
C524 C522 1.391 . S
C524 C525 1.400 1_655 S
C525 C524 1.400 1_455 S
C525 C526 1.398 . S
C525 C531 1.491 . S
C526 H517 0.950 . S
C526 C525 1.398 . S
C526 C527 1.391 . S
C527 H515 0.950 . S
C527 C523 1.392 1_455 S
C527 C526 1.391 . S
C528 H518 0.950 . S
C528 C529 1.386 . S
C528 C530 1.391 . S
C529 C528 1.386 . S
C529 C533 1.393 1_455 S
C530 H519 0.950 . S
C530 C528 1.391 . S
C530 C531 1.400 . S
C531 C525 1.491 . S
C531 C530 1.400 . S
C531 C532 1.398 1_455 S
C532 H520 0.950 . S
C532 C531 1.398 1_655 S
C532 C533 1.391 . S
C533 H521 0.950 . S
C533 C529 1.393 1_655 S
C533 C532 1.391 . S
C183 C12 2.863 . S
C189 C169 2.842 . S
C203 C52 2.868 . S
C209 C151 2.861 . S
C223 C111 2.887 . S
C229 C163 2.856 . S
C243 C31 2.979 . S
C249 C172 2.948 . S
C269 C154 2.930 . S
C263 C71 2.974 . S
C289 C160 2.921 . S
C283 C92 2.948 . S
C303 C48 0.617 . S
C309 C133 0.545 . S
C323 C109 0.624 . S
C329 C142 0.596 1_655 S
C343 C29 0.619 . S
C349 C124 0.572 . S
C369 C136 0.490 . S
C363 C69 0.594 . S
C389 C145 0.406 . S
C383 C88 0.427 . S
C403 C8 0.439 . S
C409 C127 0.403 . S
C429 C143 1.027 . S
C423 C17 0.999 1_455 S
C443 C57 1.012 . S
C449 C125 1.019 . S
C463 C97 1.012 . S
C469 C134 1.031 . S
C489 C161 1.807 . S
C483 C42 1.727 . S
C509 C170 1.802 . S
C503 C82 1.756 . S
C523 C2 1.758 1_655 S
C529 C152 1.807 . S
