# Generated by pormake.
# Topology dag, (6,3)-cn, num edge types: 1
# Building blocks:
#     Node 0, Type 0, BuildingBlock: MIDCAF_clean_sbu_0, # of connection points: 6
#     Node 1, Type 0, BuildingBlock: MIDCAF_clean_sbu_0, # of connection points: 6
#     Node 2, Type 0, BuildingBlock: MIDCAF_clean_sbu_0, # of connection points: 6
#     Node 3, Type 0, BuildingBlock: MIDCAF_clean_sbu_0, # of connection points: 6
#     Node 4, Type 1, BuildingBlock: VETTIZ_charged_linker_0, # of connection points: 3
#     Node 5, Type 1, BuildingBlock: VETTIZ_charged_linker_0, # of connection points: 3
#     Node 6, Type 1, BuildingBlock: VETTIZ_charged_linker_0, # of connection points: 3
#     Node 7, Type 1, BuildingBlock: VETTIZ_charged_linker_0, # of connection points: 3
#     Node 8, Type 1, BuildingBlock: VETTIZ_charged_linker_0, # of connection points: 3
#     Node 9, Type 1, BuildingBlock: VETTIZ_charged_linker_0, # of connection points: 3
#     Node 10, Type 1, BuildingBlock: VETTIZ_charged_linker_0, # of connection points: 3
#     Node 11, Type 1, BuildingBlock: VETTIZ_charged_linker_0, # of connection points: 3
#     Edge 12, Type (0, 1), BuildingBlock: ZUJKAS_clean_linker_0, # of connection points: 2
#     Edge 13, Type (0, 1), BuildingBlock: ZUJKAS_clean_linker_0, # of connection points: 2
#     Edge 14, Type (0, 1), BuildingBlock: ZUJKAS_clean_linker_0, # of connection points: 2
#     Edge 15, Type (0, 1), BuildingBlock: ZUJKAS_clean_linker_0, # of connection points: 2
#     Edge 16, Type (0, 1), BuildingBlock: ZUJKAS_clean_linker_0, # of connection points: 2
#     Edge 17, Type (0, 1), BuildingBlock: ZUJKAS_clean_linker_0, # of connection points: 2
#     Edge 18, Type (0, 1), BuildingBlock: ZUJKAS_clean_linker_0, # of connection points: 2
#     Edge 19, Type (0, 1), BuildingBlock: ZUJKAS_clean_linker_0, # of connection points: 2
#     Edge 20, Type (0, 1), BuildingBlock: ZUJKAS_clean_linker_0, # of connection points: 2
#     Edge 21, Type (0, 1), BuildingBlock: ZUJKAS_clean_linker_0, # of connection points: 2
#     Edge 22, Type (0, 1), BuildingBlock: ZUJKAS_clean_linker_0, # of connection points: 2
#     Edge 23, Type (0, 1), BuildingBlock: ZUJKAS_clean_linker_0, # of connection points: 2
#     Edge 24, Type (0, 1), BuildingBlock: ZUJKAS_clean_linker_0, # of connection points: 2
#     Edge 25, Type (0, 1), BuildingBlock: ZUJKAS_clean_linker_0, # of connection points: 2
#     Edge 26, Type (0, 1), BuildingBlock: ZUJKAS_clean_linker_0, # of connection points: 2
#     Edge 27, Type (0, 1), BuildingBlock: ZUJKAS_clean_linker_0, # of connection points: 2
#     Edge 28, Type (0, 1), BuildingBlock: ZUJKAS_clean_linker_0, # of connection points: 2
#     Edge 29, Type (0, 1), BuildingBlock: ZUJKAS_clean_linker_0, # of connection points: 2
#     Edge 30, Type (0, 1), BuildingBlock: ZUJKAS_clean_linker_0, # of connection points: 2
#     Edge 31, Type (0, 1), BuildingBlock: ZUJKAS_clean_linker_0, # of connection points: 2
#     Edge 32, Type (0, 1), BuildingBlock: ZUJKAS_clean_linker_0, # of connection points: 2
#     Edge 33, Type (0, 1), BuildingBlock: ZUJKAS_clean_linker_0, # of connection points: 2
#     Edge 34, Type (0, 1), BuildingBlock: ZUJKAS_clean_linker_0, # of connection points: 2
#     Edge 35, Type (0, 1), BuildingBlock: ZUJKAS_clean_linker_0, # of connection points: 2
# Relax obj value: 0.316
# Max RMSD: 0.190
# Mean RMSD: 0.179
data_MOF--net-dag--node1-MIDCAF_clean_sbu_0--node2-VETTIZ_charged_linker_0--edge1-ZUJKAS_clean_linker_0
_symmetry_space_group_name_H-M    P1
_symmetry_Int_Tables_number       1
_symmetry_cell_setting            triclinic
loop_
_symmetry_equiv_pos_as_xyz
'x, y, z'
_cell_length_a     61.348679
_cell_length_b     61.426157
_cell_length_c     47.435904
_cell_angle_alpha  89.798821
_cell_angle_beta   89.700591
_cell_angle_gamma 89.936682
loop_
_atom_site_label
_atom_site_type_symbol
_atom_site_fract_x
_atom_site_fract_y
_atom_site_fract_z
_atom_type_partial_charge
Zn0 Zn 0.1504 0.86089 0.02381 0.0
Zn1 Zn 0.16244 0.83508 0.93356 0.0
Zn2 Zn 0.15754 0.8423 0.98394 0.0
C3 C 0.15548 0.88052 0.94074 0.0
C4 C 0.12691 0.80944 0.9539 0.0
O5 O 0.18057 0.8274 0.01399 0.0
O6 O 0.15764 0.83405 0.0486 0.0
C7 C 0.19245 0.86933 0.00953 0.0
O8 O 0.15446 0.87437 0.96641 0.0
O9 O 0.15856 0.8665 0.9216 0.0
O10 O 0.13768 0.81344 0.93166 0.0
O11 O 0.13161 0.81911 0.97696 0.0
O12 O 0.17581 0.881 0.01451 0.0
O13 O 0.18969 0.84924 0.00274 0.0
O14 O 0.12582 0.83285 0.00256 0.0
O15 O 0.11853 0.86603 0.01716 0.0
C16 C 0.11214 0.84675 0.01266 0.0
O17 O 0.18968 0.82591 0.9846 0.0
O18 O 0.19256 0.82317 0.93818 0.0
C19 C 0.1735 0.82303 0.0391 0.0
C20 C 0.20038 0.81995 0.96245 0.0
Zn21 Zn 0.65177 0.65796 0.42908 0.0
Zn22 Zn 0.62551 0.64676 0.52041 0.0
Zn23 Zn 0.64442 0.65435 0.48051 0.0
C24 C 0.64102 0.60899 0.50933 0.0
C25 C 0.61583 0.68849 0.50508 0.0
O26 O 0.66044 0.68624 0.48082 0.0
O27 O 0.66432 0.6879 0.4344 0.0
C28 C 0.67743 0.62304 0.4511 0.0
O29 O 0.65447 0.62317 0.49936 0.0
O30 O 0.6215 0.61468 0.51413 0.0
O31 O 0.60481 0.67147 0.51031 0.0
O32 O 0.63614 0.68644 0.49851 0.0
O33 O 0.67267 0.63226 0.42803 0.0
O34 O 0.66834 0.62915 0.47412 0.0
O35 O 0.61275 0.65026 0.46302 0.0
O36 O 0.62007 0.65452 0.418 0.0
C37 C 0.60633 0.65118 0.43755 0.0
O38 O 0.6579 0.67805 0.5106 0.0
O39 O 0.65163 0.65523 0.54547 0.0
C40 C 0.66704 0.69627 0.45849 0.0
C41 C 0.66203 0.6715 0.53594 0.0
Zn42 Zn 0.86324 0.14865 0.97622 0.0
Zn43 Zn 0.83943 0.15306 0.06749 0.0
Zn44 Zn 0.84509 0.15372 0.01713 0.0
C45 C 0.88404 0.14527 0.05785 0.0
C46 C 0.81112 0.12179 0.0447 0.0
O47 O 0.83082 0.17942 0.99037 0.0
O48 O 0.83752 0.15984 0.95255 0.0
C49 C 0.87405 0.1888 0.99501 0.0
O50 O 0.87738 0.14792 0.03267 0.0
O51 O 0.87047 0.14601 0.07801 0.0
O52 O 0.81629 0.13002 0.06812 0.0
O53 O 0.82049 0.12833 0.02196 0.0
O54 O 0.88462 0.1719 0.98788 0.0
O55 O 0.85384 0.1868 0.00211 0.0
O56 O 0.83369 0.12444 0.99505 0.0
O57 O 0.86639 0.1162 0.97892 0.0
C58 C 0.84671 0.11079 0.98311 0.0
O59 O 0.83091 0.18664 0.02139 0.0
O60 O 0.82943 0.184 0.06781 0.0
C61 C 0.82675 0.17494 0.96431 0.0
C62 C 0.82625 0.19501 0.0456 0.0
Zn63 Zn 0.33756 0.33058 0.58481 0.0
Zn64 Zn 0.34491 0.36672 0.46699 0.0
Zn65 Zn 0.33825 0.34506 0.50382 0.0
C66 C 0.38324 0.35028 0.47404 0.0
C67 C 0.30399 0.37543 0.48643 0.0
O68 O 0.30669 0.32874 0.50612 0.0
O69 O 0.32325 0.32813 0.54601 0.0
C70 C 0.36315 0.31383 0.53028 0.0
O71 O 0.36917 0.33618 0.48249 0.0
O72 O 0.37742 0.37 0.47189 0.0
O73 O 0.32125 0.38652 0.48314 0.0
O74 O 0.30574 0.35468 0.48904 0.0
O75 O 0.349 0.32273 0.54596 0.0
O76 O 0.36247 0.31953 0.50449 0.0
O77 O 0.34142 0.36987 0.53753 0.0
O78 O 0.34186 0.36361 0.58456 0.0
C79 C 0.34272 0.37659 0.56329 0.0
O80 O 0.31268 0.33302 0.47556 0.0
O81 O 0.33495 0.34138 0.44076 0.0
C82 C 0.30624 0.32348 0.53222 0.0
C83 C 0.31913 0.33 0.44985 0.0
C84 C 0.23933 0.05479 0.15869 0.0
C85 C 0.23133 0.04053 0.13795 0.0
C86 C 0.21027 0.04399 0.1271 0.0
C87 C 0.2056 0.07559 0.15668 0.0
C88 C 0.22621 0.07233 0.16757 0.0
C89 C 0.23202 0.08967 0.18874 0.0
H90 H 0.20232 0.18124 0.25969 0.0
C91 C 0.19609 0.09512 0.1699 0.0
C92 C 0.21145 0.10363 0.18868 0.0
H93 H 0.26346 0.14643 0.26479 0.0
H94 H 0.2506 0.12027 0.23071 0.0
H95 H 0.19823 0.17904 0.19346 0.0
H96 H 0.1712 0.13811 0.25876 0.0
H97 H 0.15064 0.14322 0.2339 0.0
H98 H 0.16235 0.16563 0.25298 0.0
H99 H 0.17587 0.18773 0.21524 0.0
H100 H 0.17157 0.17239 0.18338 0.0
C101 C 0.25206 0.1023 0.17737 0.0
C102 C 0.23568 0.07848 0.2176 0.0
C103 C 0.11944 0.11798 0.14319 0.0
C104 C 0.10594 0.13538 0.15124 0.0
C105 C 0.11389 0.15076 0.17064 0.0
C106 C 0.13487 0.14865 0.18207 0.0
C107 C 0.14811 0.13101 0.17393 0.0
C108 C 0.14031 0.11616 0.15466 0.0
C109 C 0.15663 0.0987 0.14791 0.0
C110 C 0.17552 0.10535 0.1665 0.0
C111 C 0.17046 0.1242 0.18179 0.0
C112 C 0.16245 0.10041 0.11608 0.0
C113 C 0.14675 0.07654 0.15717 0.0
C114 C 0.21286 0.16785 0.25373 0.0
C115 C 0.2339 0.16587 0.26505 0.0
C116 C 0.24724 0.14842 0.25623 0.0
C117 C 0.23972 0.1332 0.23651 0.0
C118 C 0.21866 0.13548 0.22531 0.0
C119 C 0.20565 0.15262 0.23397 0.0
C120 C 0.1839 0.15281 0.21953 0.0
C121 C 0.18592 0.13293 0.20084 0.0
C122 C 0.2063 0.12274 0.2043 0.0
C123 C 0.18206 0.17411 0.20209 0.0
C124 C 0.16594 0.14994 0.24232 0.0
H125 H 0.1816 0.0629 0.12709 0.0
H126 H 0.25545 0.05253 0.16743 0.0
H127 H 0.22332 0.06552 0.22127 0.0
H128 H 0.23386 0.08972 0.23555 0.0
H129 H 0.25205 0.07077 0.21853 0.0
H130 H 0.25123 0.10417 0.15406 0.0
H131 H 0.26745 0.0936 0.18239 0.0
H132 H 0.25302 0.11908 0.1855 0.0
H133 H 0.11398 0.10608 0.12797 0.0
H134 H 0.10375 0.16426 0.17731 0.0
H135 H 0.13993 0.16079 0.19687 0.0
H136 H 0.16072 0.11742 0.10822 0.0
H137 H 0.15162 0.08999 0.10318 0.0
H138 H 0.17963 0.09617 0.11153 0.0
H139 H 0.13691 0.07834 0.17679 0.0
H140 H 0.15921 0.06422 0.16246 0.0
H141 H 0.13587 0.0699 0.14066 0.0
H142 H 0.20352 0.03301 0.1116 0.0
C143 C 0.19744 0.06134 0.13628 0.0
C144 C 0.36113 0.60823 0.67286 0.0
C145 C 0.37143 0.59908 0.64906 0.0
C146 C 0.38726 0.61136 0.63444 0.0
C147 C 0.38311 0.64093 0.66769 0.0
C148 C 0.36734 0.62909 0.6819 0.0
C149 C 0.35893 0.64101 0.70751 0.0
H150 H 0.36401 0.72952 0.79273 0.0
C151 C 0.38646 0.6616 0.68292 0.0
C152 C 0.37242 0.66179 0.70637 0.0
H153 H 0.3214 0.67374 0.80067 0.0
H154 H 0.33747 0.65793 0.75897 0.0
H155 H 0.40711 0.70289 0.77557 0.0
H156 H 0.35819 0.735 0.72543 0.0
H157 H 0.38384 0.74116 0.71077 0.0
H158 H 0.37756 0.74974 0.7462 0.0
H159 H 0.40513 0.732 0.77331 0.0
H160 H 0.42052 0.71648 0.74784 0.0
C161 C 0.36417 0.6271 0.73392 0.0
C162 C 0.33436 0.64562 0.70323 0.0
C163 C 0.44326 0.71483 0.6467 0.0
C164 C 0.45121 0.73485 0.65658 0.0
C165 C 0.44201 0.74379 0.68128 0.0
C166 C 0.4252 0.73291 0.69584 0.0
C167 C 0.4176 0.71278 0.68573 0.0
C168 C 0.42663 0.70417 0.66149 0.0
C169 C 0.41717 0.68239 0.65412 0.0
C170 C 0.40081 0.67932 0.67785 0.0
C171 C 0.40106 0.69713 0.69631 0.0
C172 C 0.43575 0.66523 0.65521 0.0
C173 C 0.40585 0.68455 0.6251 0.0
C174 C 0.35801 0.71396 0.78544 0.0
C175 C 0.34139 0.70291 0.8002 0.0
C176 C 0.33438 0.68251 0.79006 0.0
C177 C 0.34362 0.67341 0.76565 0.0
C178 C 0.36009 0.68476 0.75108 0.0
C179 C 0.36701 0.7047 0.76106 0.0
C180 C 0.38452 0.71459 0.74278 0.0
C181 C 0.38693 0.69736 0.72013 0.0
C182 C 0.37263 0.67985 0.7251 0.0
C183 C 0.40545 0.71682 0.76066 0.0
C184 C 0.37579 0.73635 0.73069 0.0
H185 H 0.40533 0.64055 0.63149 0.0
H186 H 0.34901 0.59911 0.68464 0.0
H187 H 0.33092 0.64967 0.6808 0.0
H188 H 0.32851 0.65983 0.71528 0.0
H189 H 0.32437 0.63118 0.70899 0.0
H190 H 0.3804 0.61916 0.73173 0.0
H191 H 0.35186 0.61405 0.73702 0.0
H192 H 0.36525 0.63681 0.75338 0.0
H193 H 0.4503 0.70718 0.62823 0.0
H194 H 0.44783 0.75919 0.68932 0.0
H195 H 0.4189 0.74051 0.71453 0.0
H196 H 0.44842 0.66983 0.67079 0.0
H197 H 0.44394 0.66358 0.63439 0.0
H198 H 0.43008 0.64904 0.66234 0.0
H199 H 0.39773 0.70069 0.62298 0.0
H200 H 0.39269 0.67255 0.62205 0.0
H201 H 0.41783 0.68305 0.60757 0.0
H202 H 0.39521 0.6048 0.61587 0.0
C203 C 0.39308 0.63218 0.64354 0.0
C204 C 0.78969 0.83304 0.27868 0.0
C205 C 0.80028 0.81776 0.29602 0.0
C206 C 0.82098 0.80995 0.2877 0.0
C207 C 0.81958 0.83176 0.24491 0.0
C208 C 0.79948 0.83965 0.25338 0.0
C209 C 0.78986 0.85525 0.23239 0.0
H210 H 0.80153 0.91411 0.11315 0.0
C211 C 0.82476 0.84149 0.21704 0.0
C212 C 0.80727 0.85518 0.20963 0.0
H213 H 0.74697 0.9144 0.17144 0.0
H214 H 0.76384 0.88565 0.19835 0.0
H215 H 0.8394 0.90917 0.15758 0.0
H216 H 0.80361 0.86351 0.10782 0.0
H217 H 0.82906 0.85109 0.11299 0.0
H218 H 0.82748 0.87669 0.09417 0.0
H219 H 0.84131 0.90697 0.1199 0.0
H220 H 0.8582 0.89079 0.14262 0.0
C221 C 0.78774 0.87776 0.24679 0.0
C222 C 0.76804 0.84567 0.22173 0.0
C223 C 0.89632 0.82392 0.16608 0.0
C224 C 0.90431 0.82988 0.13926 0.0
C225 C 0.89163 0.8434 0.12185 0.0
C226 C 0.87142 0.8512 0.13098 0.0
C227 C 0.8636 0.84533 0.1578 0.0
C228 C 0.87573 0.8316 0.17475 0.0
C229 C 0.86388 0.82617 0.20186 0.0
C230 C 0.84293 0.83926 0.19843 0.0
C231 C 0.84314 0.85064 0.17272 0.0
C232 C 0.87771 0.83449 0.22675 0.0
C233 C 0.85951 0.80136 0.20246 0.0
C234 C 0.79282 0.90777 0.13129 0.0
C235 C 0.77291 0.91693 0.1402 0.0
C236 C 0.76254 0.90811 0.16432 0.0
C237 C 0.77235 0.89134 0.17994 0.0
C238 C 0.79273 0.88313 0.17136 0.0
C239 C 0.80228 0.89095 0.14695 0.0
C240 C 0.82357 0.87993 0.1404 0.0
C241 C 0.82572 0.8648 0.16559 0.0
C242 C 0.80775 0.86686 0.18377 0.0
C243 C 0.84167 0.89752 0.13989 0.0
C244 C 0.82099 0.86723 0.11235 0.0
H245 H 0.84634 0.81021 0.257 0.0
H246 H 0.77397 0.83971 0.28456 0.0
H247 H 0.76867 0.82757 0.22115 0.0
H248 H 0.76428 0.85058 0.19985 0.0
H249 H 0.75425 0.85037 0.23571 0.0
H250 H 0.80209 0.88102 0.26038 0.0
H251 H 0.77294 0.87849 0.26035 0.0
H252 H 0.78732 0.89144 0.23169 0.0
H253 H 0.90573 0.81336 0.17972 0.0
H254 H 0.8976 0.84825 0.10122 0.0
H255 H 0.86277 0.86167 0.11682 0.0
H256 H 0.88447 0.85089 0.22194 0.0
H257 H 0.89163 0.82337 0.23093 0.0
H258 H 0.86818 0.83645 0.24636 0.0
H259 H 0.85599 0.79518 0.18094 0.0
H260 H 0.84503 0.79695 0.21515 0.0
H261 H 0.87388 0.7923 0.21055 0.0
H262 H 0.82946 0.79804 0.30047 0.0
C263 C 0.83068 0.81688 0.26229 0.0
C264 C 0.67345 0.28618 0.76027 0.0
C265 C 0.69234 0.29526 0.77211 0.0
C266 C 0.70054 0.31493 0.76091 0.0
C267 C 0.67203 0.31541 0.7257 0.0
C268 C 0.66362 0.29646 0.73718 0.0
C269 C 0.64364 0.2888 0.72184 0.0
H270 H 0.57445 0.30099 0.61206 0.0
C271 C 0.65885 0.32119 0.70078 0.0
C272 C 0.64225 0.30555 0.69831 0.0
H273 H 0.56875 0.25576 0.68158 0.0
H274 H 0.60254 0.26941 0.70124 0.0
H275 H 0.58629 0.34097 0.65059 0.0
H276 H 0.62541 0.29697 0.60155 0.0
H277 H 0.63865 0.32224 0.59942 0.0
H278 H 0.61136 0.31948 0.5857 0.0
H279 H 0.5868 0.34096 0.61275 0.0
H280 H 0.60592 0.35668 0.63282 0.0
C281 C 0.62388 0.29021 0.74229 0.0
C282 C 0.6481 0.26567 0.71034 0.0
C283 C 0.67677 0.38881 0.64239 0.0
C284 C 0.66846 0.39674 0.61673 0.0
C285 C 0.65273 0.38451 0.60226 0.0
C286 C 0.64471 0.36505 0.61359 0.0
C287 C 0.65254 0.35763 0.63968 0.0
C288 C 0.6688 0.36903 0.65323 0.0
C289 C 0.67627 0.35751 0.67961 0.0
C290 C 0.66091 0.33806 0.68034 0.0
C291 C 0.64688 0.3385 0.6571 0.0
C292 C 0.67242 0.37281 0.705 0.0
C293 C 0.70037 0.35056 0.67534 0.0
C294 C 0.58074 0.2937 0.6312 0.0
C295 C 0.56921 0.27708 0.6451 0.0
C296 C 0.57749 0.26851 0.67047 0.0
C297 C 0.59701 0.27652 0.68186 0.0
C298 C 0.60811 0.29353 0.66795 0.0
C299 C 0.59983 0.30184 0.6431 0.0
C300 C 0.61263 0.32094 0.63225 0.0
C301 C 0.63001 0.32285 0.6547 0.0
C302 C 0.62749 0.30663 0.67538 0.0
C303 C 0.59724 0.34101 0.63182 0.0
C304 C 0.62246 0.31481 0.60313 0.0
H305 H 0.69765 0.33983 0.73006 0.0
H306 H 0.66652 0.2713 0.76871 0.0
H307 H 0.66455 0.26485 0.70039 0.0
H308 H 0.63652 0.26074 0.69385 0.0
H309 H 0.64753 0.25339 0.72758 0.0
H310 H 0.62633 0.303 0.75852 0.0
H311 H 0.62123 0.27454 0.75354 0.0
H312 H 0.60868 0.29501 0.73148 0.0
H313 H 0.68913 0.39779 0.65366 0.0
H314 H 0.6461 0.3904 0.58252 0.0
H315 H 0.63243 0.35674 0.60178 0.0
H316 H 0.65616 0.38075 0.7035 0.0
H317 H 0.68494 0.38585 0.7056 0.0
H318 H 0.67242 0.36414 0.72542 0.0
H319 H 0.70426 0.34801 0.65264 0.0
H320 H 0.70414 0.33477 0.68545 0.0
H321 H 0.71172 0.36314 0.68337 0.0
H322 H 0.71513 0.32221 0.76951 0.0
C323 C 0.69051 0.32503 0.73781 0.0
C324 C 0.72005 0.41223 0.33706 0.0
C325 C 0.71643 0.41895 0.36499 0.0
C326 C 0.70142 0.40747 0.38195 0.0
C327 C 0.69169 0.38498 0.34216 0.0
C328 C 0.70771 0.39503 0.32623 0.0
C329 C 0.7092 0.38581 0.29694 0.0
H330 H 0.67244 0.31497 0.19912 0.0
C331 C 0.68012 0.36949 0.32384 0.0
C332 C 0.69059 0.36947 0.29753 0.0
H333 H 0.72829 0.35776 0.19448 0.0
H334 H 0.71968 0.37211 0.24027 0.0
H335 H 0.67678 0.30029 0.26512 0.0
H336 H 0.64046 0.35253 0.22626 0.0
H337 H 0.62464 0.34192 0.25398 0.0
H338 H 0.63153 0.32477 0.22441 0.0
H339 H 0.65453 0.29575 0.24136 0.0
H340 H 0.64975 0.30056 0.27825 0.0
C341 C 0.73174 0.37459 0.29366 0.0
C342 C 0.70493 0.40448 0.27561 0.0
C343 C 0.60787 0.33894 0.35693 0.0
C344 C 0.59142 0.32693 0.34366 0.0
C345 C 0.59567 0.31799 0.31681 0.0
C346 C 0.61559 0.32204 0.30287 0.0
C347 C 0.63135 0.33525 0.31585 0.0
C348 C 0.62743 0.34307 0.34269 0.0
C349 C 0.64548 0.3573 0.35321 0.0
C350 C 0.66064 0.35743 0.32789 0.0
C351 C 0.65242 0.34445 0.30602 0.0
C352 C 0.656 0.34609 0.37917 0.0
C353 C 0.63577 0.38016 0.35923 0.0
C354 C 0.68271 0.32747 0.20806 0.0
C355 C 0.7011 0.33523 0.1932 0.0
C356 C 0.71393 0.3517 0.20533 0.0
C357 C 0.70905 0.35984 0.23211 0.0
C358 C 0.69103 0.3516 0.24702 0.0
C359 C 0.6779 0.336 0.23484 0.0
C360 C 0.65889 0.33001 0.25365 0.0
C361 C 0.66375 0.34345 0.27977 0.0
C362 C 0.68259 0.35607 0.27559 0.0
C363 C 0.65984 0.30532 0.25992 0.0
C364 C 0.63767 0.33749 0.23892 0.0
H365 H 0.67733 0.38289 0.38433 0.0
H366 H 0.73174 0.42064 0.32374 0.0
H367 H 0.6916 0.41527 0.28328 0.0
H368 H 0.69947 0.39863 0.25484 0.0
H369 H 0.71971 0.41467 0.27259 0.0
H370 H 0.73816 0.36896 0.31434 0.0
H371 H 0.74398 0.38587 0.28439 0.0
H372 H 0.731 0.35965 0.28074 0.0
H373 H 0.60533 0.3456 0.37781 0.0
H374 H 0.58329 0.30858 0.30617 0.0
H375 H 0.61779 0.31515 0.28228 0.0
H376 H 0.65344 0.32816 0.37894 0.0
H377 H 0.64897 0.35235 0.39919 0.0
H378 H 0.67394 0.3481 0.37953 0.0
H379 H 0.62465 0.38523 0.34194 0.0
H380 H 0.6481 0.39311 0.36053 0.0
H381 H 0.62622 0.38012 0.37919 0.0
H382 H 0.69835 0.41245 0.4035 0.0
C383 C 0.68906 0.3905 0.37069 0.0
C384 C 0.14158 0.22503 0.73026 0.0
C385 C 0.15897 0.2146 0.71621 0.0
C386 C 0.16526 0.1936 0.72522 0.0
C387 C 0.13769 0.1941 0.762 0.0
C388 C 0.13123 0.21453 0.75297 0.0
C389 C 0.11247 0.22329 0.77014 0.0
H390 H 0.04019 0.20833 0.87701 0.0
C391 C 0.12402 0.18796 0.78653 0.0
C392 C 0.10925 0.20507 0.7915 0.0
H393 H 0.04229 0.2619 0.81778 0.0
H394 H 0.07501 0.2468 0.79643 0.0
H395 H 0.04836 0.17212 0.83226 0.0
H396 H 0.09112 0.20559 0.88883 0.0
H397 H 0.101 0.17881 0.88703 0.0
H398 H 0.07384 0.18379 0.90048 0.0
H399 H 0.04842 0.16745 0.86963 0.0
H400 H 0.06602 0.15244 0.84623 0.0
C401 C 0.09257 0.22586 0.75044 0.0
C402 C 0.11982 0.24468 0.78435 0.0
C403 C 0.13401 0.11411 0.83452 0.0
C404 C 0.12373 0.1043 0.858 0.0
C405 C 0.10846 0.11656 0.87363 0.0
C406 C 0.10282 0.13771 0.86546 0.0
C407 C 0.11249 0.14692 0.84134 0.0
C408 C 0.12819 0.13541 0.82667 0.0
C409 C 0.13726 0.14836 0.80222 0.0
C410 C 0.12388 0.1692 0.80423 0.0
C411 C 0.10929 0.16808 0.82703 0.0
C412 C 0.13251 0.13575 0.77472 0.0
C413 C 0.16178 0.15248 0.80776 0.0
C414 C 0.04763 0.21685 0.85939 0.0
C415 C 0.03843 0.23614 0.84878 0.0
C416 C 0.04901 0.24698 0.82631 0.0
C417 C 0.06787 0.23806 0.8138 0.0
C418 C 0.07617 0.21809 0.82384 0.0
C419 C 0.06615 0.20807 0.84655 0.0
C420 C 0.07648 0.1867 0.8541 0.0
C421 C 0.09422 0.18522 0.83188 0.0
C422 C 0.09412 0.20364 0.81424 0.0
C423 C 0.05903 0.16863 0.85064 0.0
C424 C 0.08602 0.1886 0.88422 0.0
H425 H 0.16041 0.16743 0.75377 0.0
H426 H 0.13637 0.2412 0.72412 0.0
H427 H 0.13675 0.24309 0.79241 0.0
H428 H 0.10976 0.24899 0.80286 0.0
H429 H 0.11953 0.25847 0.76914 0.0
H430 H 0.09234 0.21281 0.73423 0.0
H431 H 0.09298 0.24176 0.73921 0.0
H432 H 0.07685 0.22424 0.76166 0.0
H433 H 0.14587 0.10525 0.82205 0.0
H434 H 0.10075 0.10976 0.89226 0.0
H435 H 0.09088 0.14595 0.8781 0.0
H436 H 0.11599 0.12831 0.77556 0.0
H437 H 0.14452 0.12242 0.7715 0.0
H438 H 0.13243 0.14627 0.75582 0.0
H439 H 0.16497 0.15433 0.8307 0.0
H440 H 0.16772 0.16779 0.79818 0.0
H441 H 0.17192 0.13872 0.80003 0.0
H442 H 0.17826 0.18495 0.71453 0.0
C443 C 0.15479 0.18336 0.74799 0.0
C444 C 0.25936 0.65195 0.24274 0.0
C445 C 0.27091 0.66896 0.22941 0.0
C446 C 0.29251 0.67321 0.2378 0.0
C447 C 0.29062 0.64415 0.27236 0.0
C448 C 0.26951 0.63978 0.26407 0.0
C449 C 0.25969 0.62108 0.28042 0.0
H450 H 0.27077 0.54569 0.38438 0.0
C451 C 0.29627 0.629 0.29544 0.0
C452 C 0.27817 0.61544 0.3004 0.0
H453 H 0.2159 0.55377 0.32857 0.0
H454 H 0.23409 0.58425 0.30567 0.0
H455 H 0.30614 0.55022 0.33758 0.0
H456 H 0.27914 0.59604 0.39637 0.0
H457 H 0.30702 0.60212 0.39388 0.0
H458 H 0.29855 0.5757 0.40665 0.0
H459 H 0.3128 0.54998 0.37436 0.0
H460 H 0.328 0.56611 0.34927 0.0
C461 C 0.25495 0.60235 0.25958 0.0
C462 C 0.23934 0.62953 0.29638 0.0
C463 C 0.37147 0.63233 0.34038 0.0
C464 C 0.38109 0.62071 0.36278 0.0
C465 C 0.36843 0.60522 0.37754 0.0
C466 C 0.3469 0.60095 0.36976 0.0
C467 C 0.3377 0.6123 0.347 0.0
C468 C 0.34981 0.62792 0.33297 0.0
C469 C 0.33699 0.63878 0.30985 0.0
C470 C 0.3154 0.62671 0.31198 0.0
C471 C 0.31603 0.61118 0.33365 0.0
C472 C 0.34874 0.63434 0.28146 0.0
C473 C 0.33455 0.66324 0.31728 0.0
C474 C 0.2624 0.55427 0.36761 0.0
C475 C 0.24171 0.54756 0.3586 0.0
C476 C 0.23181 0.55871 0.33598 0.0
C477 C 0.24241 0.57636 0.32273 0.0
C478 C 0.26325 0.5827 0.33198 0.0
C479 C 0.27281 0.57159 0.35407 0.0
C480 C 0.29531 0.5796 0.36051 0.0
C481 C 0.29783 0.59747 0.3387 0.0
C482 C 0.27901 0.59942 0.32209 0.0
C483 C 0.31153 0.56058 0.35543 0.0
C484 C 0.29522 0.58873 0.39096 0.0
H485 H 0.31879 0.66511 0.26457 0.0
H486 H 0.24284 0.64809 0.23658 0.0
H487 H 0.24269 0.64566 0.30601 0.0
H488 H 0.23438 0.61885 0.314 0.0
H489 H 0.22532 0.63148 0.28186 0.0
H490 H 0.26754 0.6017 0.24263 0.0
H491 H 0.23886 0.60458 0.24933 0.0
H492 H 0.25552 0.58614 0.26966 0.0
H493 H 0.38066 0.64432 0.3285 0.0
H494 H 0.37514 0.59641 0.39531 0.0
H495 H 0.3383 0.58885 0.38178 0.0
H496 H 0.35521 0.61742 0.28087 0.0
H497 H 0.36271 0.6456 0.27835 0.0
H498 H 0.33783 0.6356 0.2631 0.0
H499 H 0.33406 0.66569 0.34051 0.0
H500 H 0.31911 0.67035 0.30967 0.0
H501 H 0.34843 0.67289 0.30881 0.0
H502 H 0.30168 0.68638 0.22822 0.0
C503 C 0.30238 0.66094 0.25913 0.0
C504 C 0.81868 0.89116 0.84727 0.0
C505 C 0.83152 0.90309 0.86623 0.0
C506 C 0.85043 0.89352 0.87749 0.0
C507 C 0.84414 0.8609 0.85032 0.0
C508 C 0.82542 0.87015 0.83944 0.0
C509 C 0.81459 0.85546 0.81834 0.0
H510 H 0.81559 0.76126 0.74411 0.0
C511 C 0.84704 0.83928 0.8374 0.0
C512 C 0.82984 0.83589 0.81862 0.0
H513 H 0.76901 0.81404 0.73969 0.0
H514 H 0.78833 0.83328 0.77597 0.0
H515 H 0.85842 0.79194 0.74864 0.0
H516 H 0.81932 0.76056 0.81289 0.0
H517 H 0.84696 0.75754 0.8218 0.0
H518 H 0.83693 0.74544 0.78978 0.0
H519 H 0.85768 0.76289 0.75301 0.0
H520 H 0.87582 0.77956 0.77335 0.0
C521 C 0.81464 0.86724 0.78937 0.0
C522 C 0.79163 0.84961 0.82972 0.0
C523 C 0.91403 0.7954 0.86202 0.0
C524 C 0.92233 0.77532 0.85298 0.0
C525 C 0.90977 0.76235 0.83481 0.0
C526 C 0.88956 0.76991 0.82475 0.0
C527 C 0.88192 0.79058 0.8331 0.0
C528 C 0.894 0.80266 0.8519 0.0
C529 C 0.8837 0.82413 0.85877 0.0
C530 C 0.86348 0.82325 0.84071 0.0
C531 C 0.86248 0.80369 0.82553 0.0
C532 C 0.89956 0.84244 0.84913 0.0
C533 C 0.87805 0.82419 0.8907 0.0
C534 C 0.80948 0.77688 0.75115 0.0
C535 C 0.79081 0.7862 0.73889 0.0
C536 C 0.78353 0.80667 0.74846 0.0
C537 C 0.79472 0.81778 0.76966 0.0
C538 C 0.81352 0.80844 0.7814 0.0
C539 C 0.82058 0.78827 0.77223 0.0
C540 C 0.84107 0.78105 0.78692 0.0
C541 C 0.84513 0.80023 0.80631 0.0
C542 C 0.82891 0.81623 0.80294 0.0
C543 C 0.85929 0.77855 0.76446 0.0
C544 C 0.83601 0.75995 0.80365 0.0
H545 H 0.87137 0.86628 0.87906 0.0
H546 H 0.80414 0.89824 0.83816 0.0
H547 H 0.79199 0.8471 0.85295 0.0
H548 H 0.78531 0.83419 0.82111 0.0
H549 H 0.77978 0.86285 0.82526 0.0
H550 H 0.82951 0.87744 0.78674 0.0
H551 H 0.80027 0.87812 0.78724 0.0
H552 H 0.81512 0.85591 0.77137 0.0
H553 H 0.92321 0.80555 0.87634 0.0
H554 H 0.91591 0.74676 0.82769 0.0
H555 H 0.88086 0.75959 0.81049 0.0
H556 H 0.90909 0.83742 0.83021 0.0
H557 H 0.91138 0.84647 0.86597 0.0
H558 H 0.89109 0.85746 0.84246 0.0
H559 H 0.87352 0.8076 0.89817 0.0
H560 H 0.86371 0.83438 0.8958 0.0
H561 H 0.89214 0.82969 0.90342 0.0
H562 H 0.86039 0.90237 0.89235 0.0
C563 C 0.85673 0.87251 0.86978 0.0
H564 H 0.20991 0.90676 0.99062 0.0
H565 H 0.23658 0.92859 0.01564 0.0
H566 H 0.24821 0.87518 0.07295 0.0
H567 H 0.22148 0.85307 0.04738 0.0
H568 H 0.23053 0.91068 0.09827 0.0
H569 H 0.30019 0.93844 0.03435 0.0
H570 H 0.27569 0.93987 0.01401 0.0
H571 H 0.28533 0.91381 0.02639 0.0
C572 C 0.21911 0.89927 0.00753 0.0
C573 C 0.21381 0.8783 0.01705 0.0
C574 C 0.23444 0.91173 0.02184 0.0
C575 C 0.24455 0.90354 0.04616 0.0
C576 C 0.24081 0.88175 0.05406 0.0
H577 H 0.25345 0.00969 0.16883 0.0
H578 H 0.26639 0.97422 0.15163 0.0
C579 C 0.22564 0.8691 0.03938 0.0
C580 C 0.25403 0.91931 0.06634 0.0
H581 H 0.2843 0.96584 0.06658 0.0
C582 C 0.24291 0.92234 0.09196 0.0
C583 C 0.27023 0.93443 0.05817 0.0
C584 C 0.28368 0.9313 0.03182 0.0
C585 C 0.2454 0.94149 0.10768 0.0
C586 C 0.25997 0.95779 0.09786 0.0
C587 C 0.273 0.95351 0.07402 0.0
C588 C 0.25823 0.98062 0.108 0.0
C589 C 0.23064 0.94502 0.13285 0.0
C590 C 0.25117 -0.00336 0.08895 0.0
C591 C 0.24426 0.01691 0.09861 0.0
C592 C 0.24407 0.02158 0.12759 0.0
C593 C 0.25325 0.00644 0.14641 0.0
C594 C 0.26041 0.9861 0.13663 0.0
H595 H 0.21837 0.93186 0.13534 0.0
H596 H 0.24055 0.94548 0.15232 0.0
H597 H 0.22185 0.96077 0.13091 0.0
H598 H 0.24949 0.99296 0.06674 0.0
H599 H 0.23771 0.02845 0.08354 0.0
H600 H 0.63337 0.72144 0.53627 0.0
H601 H 0.61186 0.7483 0.56286 0.0
H602 H 0.55405 0.72838 0.51847 0.0
H603 H 0.57539 0.70189 0.49201 0.0
H604 H 0.55316 0.77308 0.5359 0.0
H605 H 0.57542 0.71539 0.62239 0.0
H606 H 0.59686 0.72994 0.60456 0.0
H607 H 0.58183 0.7094 0.58612 0.0
C608 C 0.61631 0.72366 0.53124 0.0
C609 C 0.6059 0.70953 0.5124 0.0
C610 C 0.60399 0.73884 0.54661 0.0
C611 C 0.58126 0.73993 0.54311 0.0
C612 C 0.57153 0.72778 0.52161 0.0
H613 H 0.4574 0.7394 0.59984 0.0
H614 H 0.491 0.74919 0.57556 0.0
C615 C 0.58373 0.71262 0.50648 0.0
C616 C 0.56678 0.74969 0.5648 0.0
H617 H 0.54411 0.73599 0.62821 0.0
C618 C 0.55154 0.7655 0.55649 0.0
C619 C 0.56474 0.73991 0.59178 0.0
C620 C 0.58047 0.72266 0.60189 0.0
C621 C 0.53334 0.77043 0.57343 0.0
C622 C 0.53007 0.75887 0.59897 0.0
C623 C 0.54648 0.74476 0.60855 0.0
C624 C 0.50852 0.75788 0.61343 0.0
C625 C 0.51733 0.78728 0.56316 0.0
C626 C 0.50693 0.75956 0.64293 0.0
C627 C 0.48774 0.75344 0.65699 0.0
C628 C 0.46986 0.74541 0.64179 0.0
C629 C 0.47099 0.74523 0.61218 0.0
C630 C 0.49014 0.75122 0.5982 0.0
H631 H 0.52591 0.80054 0.55164 0.0
H632 H 0.50587 0.77958 0.54816 0.0
H633 H 0.50782 0.79448 0.5808 0.0
H634 H 0.52093 0.76446 0.65518 0.0
H635 H 0.48744 0.75365 0.67982 0.0
H636 H 0.77133 0.118 0.0696 0.0
H637 H 0.75222 0.08382 0.08046 0.0
H638 H 0.80079 0.04815 0.0336 0.0
H639 H 0.82018 0.082 0.02376 0.0
H640 H 0.74994 0.0332 0.03292 0.0
H641 H 0.79298 0.04398 0.1353 0.0
H642 H 0.77781 0.06647 0.12082 0.0
H643 H 0.80224 0.05744 0.10357 0.0
C644 C 0.77735 0.10292 0.06068 0.0
C645 C 0.79679 0.10264 0.04491 0.0
C646 C 0.76643 0.08348 0.06681 0.0
C647 C 0.77498 0.06357 0.05747 0.0
C648 C 0.79364 0.06342 0.0403 0.0
H649 H 0.77521 0.92784 0.08386 0.0
H650 H 0.76986 0.96374 0.06344 0.0
C651 C 0.80457 0.08282 0.03429 0.0
C652 C 0.76739 0.0429 0.07004 0.0
H653 H 0.77551 0.01094 0.12778 0.0
C654 C 0.75513 0.02836 0.05385 0.0
C655 C 0.77419 0.03679 0.09733 0.0
C656 C 0.7876 0.05186 0.11539 0.0
C657 C 0.74988 0.0075 0.06416 0.0
C658 C 0.75776 0.00091 0.09091 0.0
C659 C 0.76931 0.01591 0.10738 0.0
C660 C 0.75644 0.9781 0.10141 0.0
C661 C 0.73605 0.99282 0.04621 0.0
C662 C 0.75053 0.97392 0.12957 0.0
C663 C 0.75457 0.95359 0.14176 0.0
C664 C 0.76433 0.93684 0.12591 0.0
C665 C 0.76827 0.94048 0.097 0.0
C666 C 0.76473 0.96097 0.08502 0.0
H667 H 0.72439 0.00247 0.03338 0.0
H668 H 0.74673 0.98376 0.03136 0.0
H669 H 0.72672 0.98094 0.05918 0.0
H670 H 0.7441 0.98685 0.14269 0.0
H671 H 0.7514 0.95161 0.16408 0.0
H672 H 0.37507 0.30993 0.58546 0.0
H673 H 0.40922 0.29493 0.60361 0.0
H674 H 0.42763 0.27519 0.51964 0.0
H675 H 0.39351 0.2902 0.50134 0.0
H676 H 0.43095 0.25307 0.60032 0.0
H677 H 0.47515 0.31902 0.54306 0.0
H678 H 0.44602 0.31957 0.54835 0.0
H679 H 0.45776 0.30211 0.52206 0.0
C680 C 0.38621 0.30206 0.57092 0.0
C681 C 0.38188 0.30167 0.54185 0.0
C682 C 0.40569 0.29347 0.58134 0.0
C683 C 0.42109 0.28434 0.56288 0.0
C684 C 0.41612 0.28255 0.53414 0.0
H685 H 0.55943 0.2648 0.59153 0.0
H686 H 0.52306 0.26138 0.57104 0.0
C687 C 0.39668 0.29119 0.52371 0.0
C688 C 0.44307 0.27863 0.57333 0.0
H689 H 0.49612 0.29494 0.57002 0.0
C690 C 0.44527 0.26206 0.59359 0.0
C691 C 0.46167 0.29044 0.56449 0.0
C692 C 0.46015 0.3089 0.54347 0.0
C693 C 0.46568 0.25702 0.60532 0.0
C694 C 0.48419 0.26922 0.59697 0.0
C695 C 0.48197 0.28548 0.5763 0.0
C696 C 0.50585 0.26661 0.6104 0.0
C697 C 0.4672 0.23865 0.62639 0.0
C698 C 0.5083 0.26995 0.63951 0.0
C699 C 0.52909 0.27164 0.65129 0.0
C700 C 0.54772 0.2704 0.63405 0.0
C701 C 0.54528 0.26586 0.60524 0.0
C702 C 0.52454 0.26391 0.59354 0.0
H703 H 0.45396 0.22658 0.62328 0.0
H704 H 0.48314 0.23016 0.62489 0.0
H705 H 0.46542 0.24533 0.64799 0.0
H706 H 0.49419 0.27263 0.65286 0.0
H707 H 0.53054 0.27546 0.67348 0.0
H708 H 0.66099 0.58271 0.45221 0.0
H709 H 0.68051 0.54846 0.44604 0.0
H710 H 0.74153 0.58336 0.44183 0.0
H711 H 0.72158 0.61797 0.44712 0.0
H712 H 0.73976 0.55604 0.40065 0.0
H713 H 0.71532 0.50949 0.49484 0.0
H714 H 0.6918 0.5223 0.47999 0.0
H715 H 0.71381 0.53882 0.49307 0.0
C716 C 0.67861 0.58296 0.45055 0.0
C717 C 0.68992 0.60272 0.45047 0.0
C718 C 0.68982 0.56338 0.44735 0.0
C719 C 0.71262 0.56319 0.44429 0.0
C720 C 0.724 0.58306 0.44458 0.0
H721 H 0.73883 0.42609 0.41388 0.0
H722 H 0.74746 0.46154 0.43468 0.0
C723 C 0.71268 0.60276 0.44757 0.0
C724 C 0.72381 0.54242 0.43731 0.0
H725 H 0.7204 0.48824 0.45188 0.0
C726 C 0.73608 0.54126 0.41229 0.0
C727 C 0.71998 0.52315 0.45295 0.0
C728 C 0.70975 0.52353 0.4819 0.0
C729 C 0.74237 0.52112 0.40095 0.0
C730 C 0.73533 0.50169 0.41431 0.0
C731 C 0.72531 0.503 0.44097 0.0
C732 C 0.73508 0.48038 0.39949 0.0
C733 C 0.75594 0.521 0.37434 0.0
C734 C 0.72595 0.47903 0.37243 0.0
C735 C 0.72161 0.45887 0.36032 0.0
C736 C 0.72568 0.4396 0.37535 0.0
C737 C 0.73563 0.44078 0.40189 0.0
C738 C 0.7405 0.46101 0.41376 0.0
H739 H 0.76799 0.53449 0.37463 0.0
H740 H 0.76482 0.50539 0.37154 0.0
H741 H 0.74521 0.52378 0.3559 0.0
H742 H 0.72075 0.49354 0.36132 0.0
H743 H 0.71352 0.45839 0.34007 0.0
H744 H 0.85627 0.22646 0.97333 0.0
H745 H 0.87739 0.25551 0.95002 0.0
H746 H 0.93692 0.22622 0.98025 0.0
H747 H 0.91603 0.19834 0.00437 0.0
H748 H 0.94315 0.26805 0.97307 0.0
H749 H 0.90214 0.23597 0.87697 0.0
H750 H 0.88595 0.25028 0.90248 0.0
H751 H 0.89703 0.22394 0.91098 0.0
C752 C 0.87379 0.22696 0.97602 0.0
C753 C 0.88465 0.20998 0.99008 0.0
C754 C 0.88589 0.24334 0.96232 0.0
C755 C 0.90885 0.24256 0.96228 0.0
C756 C 0.91929 0.22718 0.97954 0.0
H757 H 0.00301 0.21141 0.86081 0.0
H758 H 0.96969 0.22211 0.8847 0.0
C759 C 0.90732 0.21112 0.99334 0.0
C760 C 0.9225 0.25443 0.94117 0.0
H761 H 0.93691 0.2498 0.87182 0.0
C762 C 0.94154 0.26471 0.95074 0.0
C763 C 0.92024 0.25042 0.91189 0.0
C764 C 0.90032 0.23951 0.89981 0.0
C765 C 0.9596 0.26787 0.93281 0.0
C766 C 0.95818 0.26138 0.90429 0.0
C767 C 0.93801 0.2544 0.89382 0.0
C768 C 0.97798 0.25632 0.8873 0.0
C769 C 0.98073 0.27579 0.94528 0.0
C770 C 0.99375 0.27204 0.88017 0.0
C771 C 0.01326 0.26579 0.86678 0.0
C772 C 0.01718 0.24376 0.86033 0.0
C773 C 0.0008 0.22841 0.86615 0.0
C774 C 0.98157 0.23458 0.87956 0.0
H775 H 0.97948 0.27839 0.9684 0.0
H776 H 0.99397 0.26386 0.94116 0.0
H777 H 0.9854 0.29145 0.93526 0.0
H778 H 0.99118 0.28899 0.8854 0.0
H779 H 0.02554 0.27801 0.86236 0.0
H780 H 0.26901 0.35977 0.45723 0.0
H781 H 0.24038 0.38229 0.43562 0.0
H782 H 0.26395 0.43826 0.48081 0.0
H783 H 0.2924 0.41601 0.50217 0.0
H784 H 0.21621 0.43724 0.47074 0.0
H785 H 0.26798 0.42387 0.37517 0.0
H786 H 0.25658 0.40071 0.39326 0.0
H787 H 0.27754 0.41644 0.40978 0.0
C788 C 0.26741 0.37665 0.46344 0.0
C789 C 0.28298 0.38628 0.48108 0.0
C790 C 0.25116 0.38952 0.45097 0.0
C791 C 0.2503 0.412 0.45629 0.0
C792 C 0.26433 0.42096 0.47639 0.0
H793 H 0.23882 0.53825 0.41463 0.0
H794 H 0.2319 0.50287 0.43583 0.0
C795 C 0.28061 0.40825 0.48856 0.0
C796 C 0.23815 0.42715 0.43771 0.0
H797 H 0.24548 0.45426 0.37558 0.0
C798 C 0.22207 0.44061 0.44956 0.0
C799 C 0.24563 0.4314 0.40996 0.0
C800 C 0.26292 0.41746 0.39613 0.0
C801 C 0.21456 0.45922 0.43524 0.0
C802 C 0.22392 0.46483 0.40884 0.0
C803 C 0.23836 0.45014 0.39588 0.0
C804 C 0.22252 0.48722 0.39684 0.0
C805 C 0.19734 0.47311 0.44912 0.0
C806 C 0.2193 0.49058 0.3678 0.0
C807 C 0.22378 0.51087 0.35546 0.0
C808 C 0.23165 0.52808 0.37198 0.0
C809 C 0.23301 0.52521 0.40132 0.0
C810 C 0.2287 0.50499 0.41356 0.0
H811 H 0.18541 0.46276 0.46067 0.0
H812 H 0.20513 0.48392 0.46482 0.0
H813 H 0.18844 0.48328 0.43355 0.0
H814 H 0.21467 0.47713 0.35439 0.0
H815 H 0.22268 0.51256 0.33277 0.0
H816 H 0.12385 0.76788 0.93471 0.0
H817 H 0.09022 0.7486 0.9221 0.0
H818 H 0.05224 0.80285 0.95278 0.0
H819 H 0.08568 0.8217 0.96587 0.0
H820 H 0.03151 0.76446 0.96252 0.0
H821 H 0.06086 0.76885 0.85125 0.0
H822 H 0.07732 0.75316 0.87499 0.0
H823 H 0.07502 0.78213 0.87954 0.0
C824 C 0.10823 0.77528 0.93949 0.0
C825 C 0.10719 0.79604 0.95168 0.0
C826 C 0.08908 0.76438 0.93211 0.0
C827 C 0.06872 0.77447 0.93595 0.0
C828 C 0.06772 0.79468 0.9497 0.0
H829 H 0.95868 0.79965 0.84759 0.0
H830 H 0.99456 0.79254 0.86733 0.0
C831 C 0.08682 0.80539 0.95742 0.0
C832 C 0.04867 0.76566 0.92286 0.0
H833 H 0.02471 0.75888 0.85867 0.0
C834 C 0.03008 0.76273 0.93985 0.0
C835 C 0.04686 0.76348 0.89322 0.0
C836 C 0.06598 0.7672 0.87359 0.0
C837 C 0.00945 0.7593 0.92792 0.0
C838 C 0.00752 0.75835 0.89825 0.0
C839 C 0.02634 0.75951 0.88142 0.0
C840 C 0.98616 0.76083 0.88418 0.0
C841 C 0.98969 0.75848 0.94695 0.0
C842 C 0.96965 0.74505 0.88641 0.0
C843 C 0.94896 0.74914 0.87504 0.0
C844 C 0.94464 0.76908 0.86153 0.0
C845 C 0.96154 0.78427 0.8582 0.0
C846 C 0.98205 0.78018 0.86938 0.0
H847 H 0.99384 0.76152 0.96937 0.0
H848 H 0.97749 0.77078 0.94017 0.0
H849 H 0.98198 0.7422 0.94549 0.0
H850 H 0.97261 0.72988 0.89744 0.0
H851 H 0.93614 0.7372 0.87783 0.0
H852 H 0.80545 0.10002 0.96676 0.0
H853 H 0.79328 0.06517 0.94688 0.0
H854 H 0.85805 0.03906 0.95674 0.0
H855 H 0.87037 0.07375 0.97623 0.0
H856 H 0.82021 0.04364 0.89536 0.0
H857 H 0.80894 0.99418 0.9929 0.0
H858 H 0.80392 0.02319 0.99172 0.0
H859 H 0.83137 0.01313 0.99205 0.0
C860 C 0.817 0.08674 0.96491 0.0
C861 C 0.83885 0.08952 0.97302 0.0
C862 C 0.81004 0.06693 0.9536 0.0
C863 C 0.82478 0.04963 0.95059 0.0
C864 C 0.84644 0.05224 0.95916 0.0
H865 H 0.85775 0.93843 0.86298 0.0
H866 H 0.85056 0.97494 0.88108 0.0
C867 C 0.85346 0.07205 0.97015 0.0
C868 C 0.81831 0.02919 0.93671 0.0
H869 H 0.81219 0.9749 0.94969 0.0
C870 C 0.81793 0.02865 0.90718 0.0
C871 C 0.81518 0.00981 0.95225 0.0
C872 C 0.81471 0.00993 0.98403 0.0
C873 C 0.81601 0.00887 0.89272 0.0
C874 C 0.81462 0.98924 0.90828 0.0
C875 C 0.81336 0.98998 0.93782 0.0
C876 C 0.81758 0.96782 0.89461 0.0
C877 C 0.81638 0.00901 0.86093 0.0
C878 C 0.80136 0.95174 0.89618 0.0
C879 C 0.80542 0.93082 0.88566 0.0
C880 C 0.8259 0.9257 0.87404 0.0
C881 C 0.84185 0.942 0.87192 0.0
C882 C 0.83772 0.96286 0.88207 0.0
H883 H 0.81082 0.02493 0.85237 0.0
H884 H 0.83332 0.00622 0.85346 0.0
H885 H 0.8059 0.99591 0.85232 0.0
H886 H 0.78579 0.95525 0.90604 0.0
H887 H 0.79296 0.91843 0.88769 0.0
H888 H 0.39714 0.30984 0.45796 0.0
H889 H 0.43321 0.29973 0.43964 0.0
H890 H 0.45499 0.36591 0.45017 0.0
H891 H 0.41924 0.37598 0.46898 0.0
H892 H 0.45284 0.31765 0.39132 0.0
H893 H 0.50444 0.33007 0.48504 0.0
H894 H 0.47509 0.32848 0.48721 0.0
H895 H 0.48814 0.35359 0.47727 0.0
C896 C 0.40982 0.32207 0.45712 0.0
C897 C 0.40545 0.34364 0.46527 0.0
C898 C 0.43034 0.31632 0.44641 0.0
C899 C 0.44687 0.332 0.44388 0.0
C900 C 0.44262 0.35345 0.45244 0.0
H901 H 0.56862 0.35929 0.36936 0.0
H902 H 0.53364 0.35694 0.39369 0.0
C903 C 0.42213 0.35921 0.46303 0.0
C904 C 0.46806 0.32657 0.4304 0.0
H905 H 0.52301 0.33038 0.44 0.0
C906 C 0.46822 0.32001 0.40206 0.0
C907 C 0.48807 0.3296 0.4445 0.0
C908 C 0.48896 0.33561 0.47528 0.0
C909 C 0.48787 0.31777 0.38694 0.0
C910 C 0.50784 0.32185 0.40071 0.0
C911 C 0.50767 0.32735 0.42943 0.0
C912 C 0.52891 0.3227 0.38522 0.0
C913 C 0.48706 0.31226 0.35599 0.0
C914 C 0.53787 0.3042 0.37218 0.0
C915 C 0.55803 0.30549 0.35816 0.0
C916 C 0.5696 0.32525 0.35727 0.0
C917 C 0.56036 0.34372 0.3701 0.0
C918 C 0.54031 0.34243 0.38396 0.0
H919 H 0.47026 0.3133 0.34747 0.0
H920 H 0.49775 0.32337 0.34364 0.0
H921 H 0.49308 0.2954 0.35286 0.0
H922 H 0.52946 0.28872 0.37321 0.0
H923 H 0.5648 0.29097 0.34862 0.0
H924 H 0.16223 0.89889 0.88903 0.0
H925 H 0.15895 0.93708 0.87568 0.0
H926 H 0.14035 0.95327 0.96089 0.0
H927 H 0.14421 0.91496 0.97471 0.0
H928 H 0.12383 0.96241 0.87624 0.0
H929 H 0.1868 -0.00164 0.94531 0.0
H930 H 0.18445 0.96939 0.93984 0.0
H931 H 0.1666 0.98301 0.96431 0.0
C932 C 0.15755 0.91054 0.90505 0.0
C933 C 0.15348 0.90384 0.93298 0.0
C934 C 0.1557 0.93241 0.89734 0.0
C935 C 0.14969 0.94813 0.91732 0.0
C936 C 0.14552 0.94153 0.94524 0.0
H937 H 0.09454 0.07376 0.87648 0.0
H938 H 0.10164 0.03633 0.89084 0.0
C939 C 0.14755 0.9196 0.95306 0.0
C940 C 0.14688 0.97118 0.90837 0.0
H941 H 0.16333 0.02328 0.92155 0.0
C942 C 0.13256 0.9757 0.8861 0.0
C943 C 0.15852 0.9885 0.92089 0.0
C944 C 0.17512 0.9846 0.94371 0.0
C945 C 0.12927 -0.00298 0.8763 0.0
C946 C 0.14017 0.01444 0.88962 0.0
C947 C 0.15483 0.00993 0.91153 0.0
C948 C 0.13617 0.03746 0.88147 0.0
C949 C 0.11439 0.00061 0.85147 0.0
C950 C 0.15335 0.05084 0.87221 0.0
C951 C 0.14941 0.07251 0.86442 0.0
C952 C 0.12821 0.08123 0.86594 0.0
C953 C 0.11111 0.06774 0.87538 0.0
C954 C 0.11509 0.0462 0.88326 0.0
H955 H 0.11281 0.98564 0.83855 0.0
H956 H 0.09789 0.00502 0.85927 0.0
H957 H 0.12041 0.014 0.83772 0.0
H958 H 0.1698 0.04446 0.87084 0.0
H959 H 0.163 0.08249 0.85758 0.0
H960 H 0.57295 0.63895 0.47286 0.0
H961 H 0.53455 0.63373 0.46068 0.0
H962 H 0.54843 0.65293 0.3749 0.0
H963 H 0.58679 0.65761 0.38663 0.0
H964 H 0.50412 0.66183 0.44038 0.0
H965 H 0.51797 0.59546 0.36354 0.0
H966 H 0.53895 0.60477 0.3871 0.0
H967 H 0.53319 0.61956 0.35517 0.0
C968 C 0.56783 0.64197 0.45137 0.0
C969 C 0.58298 0.64845 0.43064 0.0
C970 C 0.54588 0.63902 0.44446 0.0
C971 C 0.53871 0.64252 0.41674 0.0
C972 C 0.55369 0.64955 0.39623 0.0
H973 H 0.40372 0.65935 0.364 0.0
H974 H 0.44182 0.66493 0.37701 0.0
C975 C 0.57562 0.65233 0.40304 0.0
C976 C 0.51553 0.639 0.40925 0.0
H977 H 0.48254 0.61131 0.36411 0.0
C978 C 0.49936 0.6507 0.42381 0.0
C979 C 0.50933 0.62425 0.38789 0.0
C980 C 0.52575 0.61013 0.37272 0.0
C981 C 0.47719 0.64831 0.41727 0.0
C982 C 0.47109 0.63423 0.3951 0.0
C983 C 0.48724 0.62231 0.38086 0.0
C984 C 0.448 0.63104 0.38685 0.0
C985 C 0.46052 0.66054 0.43457 0.0
C986 C 0.43902 0.61005 0.38704 0.0
C987 C 0.41743 0.60674 0.37901 0.0
C988 C 0.40425 0.62438 0.37069 0.0
C989 C 0.41339 0.64538 0.37015 0.0
C990 C 0.43509 0.64865 0.37799 0.0
H991 H 0.46719 0.6655 0.45531 0.0
H992 H 0.45566 0.67552 0.42308 0.0
H993 H 0.4457 0.65053 0.43826 0.0
H994 H 0.44873 0.59618 0.39352 0.0
H995 H 0.41115 0.59028 0.37908 0.0
H996 H 0.33221 0.41132 0.52909 0.0
H997 H 0.33417 0.45013 0.54079 0.0
H998 H 0.3608 0.43385 0.62219 0.0
H999 H 0.35825 0.39529 0.61105 0.0
H1000 H 0.3293 0.46335 0.62727 0.0
H1001 H 0.38664 0.48935 0.54268 0.0
H1002 H 0.36221 0.47664 0.53017 0.0
H1003 H 0.38141 0.46107 0.55051 0.0
C1004 C 0.33867 0.41605 0.54935 0.0
C1005 C 0.34509 0.40019 0.5691 0.0
C1006 C 0.33985 0.43826 0.556 0.0
C1007 C 0.34787 0.44498 0.58229 0.0
C1008 C 0.3545 0.42912 0.60181 0.0
H1009 H 0.40033 0.56706 0.63575 0.0
H1010 H 0.3926 0.53035 0.61897 0.0
C1011 C 0.35307 0.40703 0.59536 0.0
C1012 C 0.34902 0.46839 0.59014 0.0
H1013 H 0.37267 0.51687 0.57231 0.0
C1014 C 0.33872 0.47509 0.61519 0.0
C1015 C 0.36143 0.48367 0.57447 0.0
C1016 C 0.37373 0.47735 0.5481 0.0
C1017 C 0.34093 0.49641 0.62541 0.0
C1018 C 0.35327 0.51171 0.60971 0.0
C1019 C 0.36312 0.50517 0.58428 0.0
C1020 C 0.35752 0.53412 0.62016 0.0
C1021 C 0.33081 0.502 0.65355 0.0
C1022 C 0.34038 0.54855 0.6265 0.0
C1023 C 0.34479 0.56954 0.63648 0.0
C1024 C 0.36643 0.57659 0.63973 0.0
C1025 C 0.3835 0.56215 0.63322 0.0
C1026 C 0.3791 0.54117 0.6236 0.0
H1027 H 0.32685 0.48718 0.66606 0.0
H1028 H 0.34185 0.5124 0.66615 0.0
H1029 H 0.31541 0.51107 0.65004 0.0
H1030 H 0.3236 0.5437 0.62343 0.0
H1031 H 0.33133 0.58043 0.64101 0.0
H1032 H 0.09663 0.80556 0.02265 0.0
H1033 H 0.0607 0.79549 0.04164 0.0
H1034 H 0.04207 0.8632 0.0428 0.0
H1035 H 0.07757 0.8733 0.02348 0.0
H1036 H 0.04282 0.80856 0.09306 0.0
H1037 H 0.99006 0.83444 0.00496 0.0
H1038 H 0.01907 0.8305 0.00087 0.0
H1039 H 0.00858 0.85552 0.01525 0.0
C1040 C 0.08469 0.81824 0.02645 0.0
C1041 C 0.08987 0.84022 0.02136 0.0
C1042 C 0.06424 0.81247 0.03743 0.0
C1043 C 0.04862 0.82857 0.04334 0.0
C1044 C 0.05369 0.85046 0.03789 0.0
H1045 H 0.94383 0.83956 0.16168 0.0
H1046 H 0.97947 0.83499 0.13889 0.0
C1047 C 0.07406 0.85622 0.02698 0.0
C1048 C 0.02744 0.82293 0.05675 0.0
H1049 H 0.97275 0.83127 0.05036 0.0
C1050 C 0.02743 0.81318 0.08357 0.0
C1051 C 0.00738 0.82857 0.04417 0.0
C1052 C 0.00621 0.83762 0.01459 0.0
C1053 C 0.00794 0.81 0.09877 0.0
C1054 C 0.98801 0.81723 0.08706 0.0
C1055 C 0.98799 0.82593 0.0596 0.0
C1056 C 0.96708 0.81703 0.10312 0.0
C1057 C 0.00899 0.799 0.12721 0.0
C1058 C 0.94818 0.80848 0.09078 0.0
C1059 C 0.92782 0.81149 0.10352 0.0
C1060 C 0.92599 0.82287 0.12905 0.0
C1061 C 0.94494 0.83037 0.14226 0.0
C1062 C 0.96531 0.82768 0.12926 0.0
H1063 H 0.02316 0.78775 0.12845 0.0
H1064 H 0.01109 0.81154 0.14376 0.0
H1065 H 0.9939 0.78967 0.13185 0.0
H1066 H 0.94906 0.80025 0.07064 0.0
H1067 H 0.91336 0.80571 0.09288 0.0
H1068 H 0.68285 0.59412 0.51493 0.0
H1069 H 0.69459 0.55765 0.52911 0.0
H1070 H 0.6274 0.53749 0.53552 0.0
H1071 H 0.61561 0.57368 0.5209 0.0
H1072 H 0.68892 0.53554 0.57526 0.0
H1073 H 0.65117 0.48883 0.48974 0.0
H1074 H 0.65196 0.51816 0.48913 0.0
H1075 H 0.63044 0.50405 0.50767 0.0
C1076 C 0.6706 0.58176 0.5188 0.0
C1077 C 0.6483 0.58667 0.51633 0.0
C1078 C 0.67734 0.56092 0.52692 0.0
C1079 C 0.66193 0.54455 0.53249 0.0
C1080 C 0.63966 0.54956 0.53037 0.0
H1081 H 0.66496 0.43573 0.6431 0.0
H1082 H 0.66812 0.4718 0.62156 0.0
C1083 C 0.63291 0.57035 0.52223 0.0
C1084 C 0.66887 0.52258 0.54212 0.0
H1085 H 0.65828 0.46861 0.53298 0.0
C1086 C 0.68254 0.52087 0.5657 0.0
C1087 C 0.6611 0.50335 0.52928 0.0
C1088 C 0.64808 0.50373 0.50236 0.0
C1089 C 0.68747 0.50057 0.57784 0.0
C1090 C 0.67791 0.48152 0.56663 0.0
C1091 C 0.66539 0.48316 0.54198 0.0
C1092 C 0.67927 0.45996 0.58094 0.0
C1093 C 0.70279 0.49985 0.60259 0.0
C1094 C 0.68435 0.44117 0.5654 0.0
C1095 C 0.68198 0.42053 0.57754 0.0
C1096 C 0.67481 0.41832 0.60556 0.0
C1097 C 0.67089 0.43707 0.62161 0.0
C1098 C 0.67283 0.45771 0.60931 0.0
H1099 H 0.71486 0.51329 0.60135 0.0
H1100 H 0.69331 0.50202 0.62237 0.0
H1101 H 0.71172 0.48414 0.60373 0.0
H1102 H 0.68929 0.44242 0.5435 0.0
H1103 H 0.68502 0.40625 0.56475 0.0
H1104 H 0.90245 0.133 0.10756 0.0
H1105 H 0.94106 0.13231 0.11948 0.0
H1106 H 0.95763 0.15187 0.03465 0.0
H1107 H 0.91884 0.15224 0.02229 0.0
H1108 H 0.98493 0.11956 0.05563 0.0
H1109 H 0.97699 0.18718 0.13188 0.0
H1110 H 0.95851 0.16525 0.13931 0.0
H1111 H 0.95584 0.18052 0.10705 0.0
C1112 C 0.91428 0.13704 0.09134 0.0
C1113 C 0.90755 0.14286 0.06403 0.0
C1114 C 0.93634 0.13677 0.09826 0.0
C1115 C 0.95216 0.14258 0.07816 0.0
C1116 C 0.94564 0.14754 0.05054 0.0
H1117 H 0.08552 0.17193 0.13115 0.0
H1118 H 0.04896 0.17455 0.11077 0.0
C1119 C 0.92349 0.14769 0.04351 0.0
C1120 C 0.97545 0.14358 0.0863 0.0
H1121 H 0.00986 0.1663 0.13423 0.0
C1122 C 0.99046 0.12993 0.07262 0.0
C1123 C 0.98272 0.15745 0.10807 0.0
C1124 C 0.96772 0.1736 0.12223 0.0
C1125 C 0.01238 0.12909 0.08098 0.0
C1126 C 0.01931 0.14192 0.104 0.0
C1127 C 0.00449 0.15625 0.11684 0.0
C1128 C 0.04164 0.14028 0.11571 0.0
C1129 C 0.02789 0.11452 0.065 0.0
C1130 C 0.0495 0.12025 0.12573 0.0
C1131 C 0.07033 0.11872 0.13732 0.0
C1132 C 0.08363 0.13725 0.13947 0.0
C1133 C 0.07559 0.1574 0.12994 0.0
C1134 C 0.05478 0.15889 0.11816 0.0
H1135 H 0.02208 0.11148 0.04322 0.0
H1136 H 0.04448 0.1217 0.06384 0.0
H1137 H 0.02899 0.09856 0.07594 0.0
H1138 H 0.03942 0.1058 0.12491 0.0
H1139 H 0.07591 0.10305 0.14497 0.0
H1140 H 0.15807 0.80515 0.08784 0.0
H1141 H 0.17567 0.77794 0.11777 0.0
H1142 H 0.23101 0.7766 0.06135 0.0
H1143 H 0.21367 0.8043 0.0316 0.0
H1144 H 0.18944 0.73553 0.10263 0.0
H1145 H 0.25832 0.78667 0.13947 0.0
H1146 H 0.23442 0.79811 0.12301 0.0
H1147 H 0.25504 0.78516 0.1019 0.0
C1148 C 0.17405 0.79919 0.08187 0.0
C1149 C 0.18446 0.80679 0.05727 0.0
C1150 C 0.18404 0.78357 0.09894 0.0
C1151 C 0.20469 0.77536 0.0919 0.0
C1152 C 0.21517 0.7829 0.06735 0.0
H1153 H 0.28892 0.68348 0.17988 0.0
H1154 H 0.27268 0.70809 0.14516 0.0
C1155 C 0.20515 0.79855 0.05021 0.0
C1156 C 0.215 0.75873 0.11023 0.0
H1157 H 0.25805 0.74991 0.15416 0.0
C1158 C 0.20446 0.73863 0.11388 0.0
C1159 C 0.23461 0.76284 0.12481 0.0
C1160 C 0.24624 0.7844 0.12237 0.0
C1161 C 0.21304 0.72248 0.13168 0.0
C1162 C 0.23245 0.72671 0.14664 0.0
C1163 C 0.24316 0.7467 0.14267 0.0
C1164 C 0.24175 0.71085 0.16698 0.0
C1165 C 0.20137 0.70093 0.13402 0.0
C1166 C 0.22976 0.70422 0.1908 0.0
C1167 C 0.239 0.69017 0.2107 0.0
C1168 C 0.26052 0.68265 0.20732 0.0
C1169 C 0.27239 0.68916 0.18327 0.0
C1170 C 0.26312 0.70316 0.16336 0.0
H1171 H 0.1907 0.698 0.11556 0.0
H1172 H 0.21313 0.68724 0.1358 0.0
H1173 H 0.19093 0.70095 0.15319 0.0
H1174 H 0.21342 0.71035 0.19437 0.0
H1175 H 0.22955 0.68575 0.2292 0.0
H1176 H 0.67646 0.71341 0.52952 0.0
H1177 H 0.70044 0.73371 0.56122 0.0
H1178 H 0.70405 0.67795 0.61649 0.0
H1179 H 0.6804 0.65752 0.58484 0.0
H1180 H 0.69207 0.74209 0.62023 0.0
H1181 H 0.76862 0.69553 0.6033 0.0
H1182 H 0.74614 0.69475 0.57887 0.0
H1183 H 0.74507 0.67912 0.61094 0.0
C1184 C 0.68266 0.70539 0.5482 0.0
C1185 C 0.67675 0.68381 0.55456 0.0
C1186 C 0.69623 0.71703 0.56634 0.0
C1187 C 0.70425 0.70719 0.59095 0.0
C1188 C 0.69834 0.68568 0.59734 0.0
H1189 H 0.78006 0.74301 0.73618 0.0
H1190 H 0.7594 0.72457 0.69923 0.0
C1191 C 0.68472 0.6741 0.57933 0.0
C1192 C 0.71799 0.71962 0.61075 0.0
H1193 H 0.76792 0.71989 0.64218 0.0
C1194 C 0.70873 0.73742 0.62486 0.0
C1195 C 0.73965 0.71334 0.61679 0.0
C1196 C 0.75058 0.69476 0.60154 0.0
C1197 C 0.72035 0.74874 0.64558 0.0
C1198 C 0.74198 0.74235 0.65184 0.0
C1199 C 0.75133 0.72473 0.63739 0.0
C1200 C 0.75503 0.7535 0.67369 0.0
C1201 C 0.70908 0.76693 0.66127 0.0
C1202 C 0.75978 0.77577 0.6713 0.0
C1203 C 0.77151 0.78633 0.69238 0.0
C1204 C 0.77893 0.77477 0.71612 0.0
C1205 C 0.77466 0.75233 0.71808 0.0
C1206 C 0.76282 0.7418 0.69705 0.0
H1207 H 0.69107 0.766 0.65924 0.0
H1208 H 0.71329 0.76658 0.684 0.0
H1209 H 0.71445 0.78279 0.65239 0.0
H1210 H 0.75442 0.78499 0.6531 0.0
H1211 H 0.77492 0.80354 0.68999 0.0
H1212 H 0.82189 0.21769 0.09405 0.0
H1213 H 0.79939 0.2493 0.1027 0.0
H1214 H 0.78513 0.25428 0.01397 0.0
H1215 H 0.80857 0.22238 0.00491 0.0
H1216 H 0.79865 0.29262 0.08115 0.0
H1217 H 0.72462 0.24454 0.05415 0.0
H1218 H 0.7505 0.23132 0.05997 0.0
H1219 H 0.74638 0.24727 0.02871 0.0
C1220 C 0.81429 0.22554 0.07613 0.0
C1221 C 0.81625 0.21686 0.04883 0.0
C1222 C 0.80144 0.24375 0.08117 0.0
C1223 C 0.79016 0.25383 0.05913 0.0
C1224 C 0.79335 0.2464 0.03139 0.0
H1225 H 0.71382 0.35582 0.14454 0.0
H1226 H 0.73216 0.33939 0.10378 0.0
C1227 C 0.8066 0.22812 0.02624 0.0
C1228 C 0.77389 0.27071 0.06664 0.0
H1229 H 0.71981 0.27497 0.08314 0.0
C1230 C 0.7813 0.28926 0.08082 0.0
C1231 C 0.75132 0.26607 0.06634 0.0
C1232 C 0.74255 0.24623 0.05157 0.0
C1233 C 0.76706 0.30213 0.09698 0.0
C1234 C 0.74466 0.29658 0.09834 0.0
C1235 C 0.73696 0.27915 0.0821 0.0
C1236 C 0.72988 0.30641 0.11971 0.0
C1237 C 0.77652 0.32029 0.11446 0.0
C1238 C 0.72123 0.29321 0.14127 0.0
C1239 C 0.71046 0.30251 0.16432 0.0
C1240 C 0.70828 0.32521 0.16628 0.0
C1241 C 0.71557 0.33829 0.14372 0.0
C1242 C 0.72612 0.32894 0.1205 0.0
H1243 H 0.79463 0.31998 0.11462 0.0
H1244 H 0.7713 0.3362 0.10564 0.0
H1245 H 0.77059 0.31924 0.13658 0.0
H1246 H 0.7239 0.27577 0.1411 0.0
H1247 H 0.70513 0.29205 0.18143 0.0
H1248 H 0.27004 0.30483 0.50825 0.0
H1249 H 0.23931 0.2873 0.533 0.0
H1250 H 0.26844 0.30314 0.61285 0.0
H1251 H 0.29891 0.3204 0.58856 0.0
H1252 H 0.24344 0.25146 0.57369 0.0
H1253 H 0.20414 0.32435 0.62009 0.0
H1254 H 0.22221 0.32579 0.58992 0.0
H1255 H 0.23316 0.32356 0.6249 0.0
C1256 C 0.26973 0.30472 0.53105 0.0
C1257 C 0.28693 0.31393 0.54642 0.0
C1258 C 0.25222 0.29471 0.54515 0.0
C1259 C 0.25151 0.29418 0.57475 0.0
C1260 C 0.2685 0.30367 0.59002 0.0
H1261 H 0.20283 0.21406 0.70519 0.0
H1262 H 0.22247 0.23241 0.66714 0.0
C1263 C 0.28601 0.31341 0.57604 0.0
C1264 C 0.23388 0.28266 0.5902 0.0
H1265 H 0.19612 0.29008 0.64243 0.0
C1266 C 0.23277 0.2599 0.58833 0.0
C1267 C 0.21986 0.29373 0.60908 0.0
C1268 C 0.2197 0.31824 0.61099 0.0
C1269 C 0.21893 0.24783 0.60614 0.0
C1270 C 0.20608 0.25882 0.62646 0.0
C1271 C 0.20616 0.28166 0.62706 0.0
C1272 C 0.19373 0.24691 0.64862 0.0
C1273 C 0.21857 0.22337 0.60351 0.0
C1274 C 0.17106 0.24928 0.6512 0.0
C1275 C 0.15969 0.23867 0.67293 0.0
C1276 C 0.17084 0.22566 0.69269 0.0
C1277 C 0.19361 0.2235 0.69006 0.0
C1278 C 0.2049 0.23401 0.66829 0.0
H1279 H 0.22403 0.21806 0.58224 0.0
H1280 H 0.22983 0.21618 0.61924 0.0
H1281 H 0.20198 0.21683 0.60761 0.0
H1282 H 0.16216 0.25929 0.63634 0.0
H1283 H 0.14216 0.24054 0.67412 0.0
H1284 H 0.70346 0.70505 0.48903 0.0
H1285 H 0.73015 0.73359 0.47767 0.0
H1286 H 0.68565 0.76064 0.41668 0.0
H1287 H 0.65913 0.73256 0.42831 0.0
H1288 H 0.7472 0.73369 0.4259 0.0
H1289 H 0.71343 0.81538 0.44431 0.0
H1290 H 0.70248 0.79147 0.46157 0.0
H1291 H 0.69356 0.79906 0.42671 0.0
C1292 C 0.69897 0.71789 0.47445 0.0
C1293 C 0.67921 0.71685 0.45974 0.0
C1294 C 0.71429 0.73405 0.46774 0.0
C1295 C 0.7099 0.74941 0.44644 0.0
C1296 C 0.68931 0.74941 0.43366 0.0
H1297 H 0.75717 0.80787 0.3029 0.0
H1298 H 0.73882 0.7939 0.34486 0.0
C1299 C 0.67413 0.73328 0.44024 0.0
C1300 C 0.72773 0.76235 0.43324 0.0
H1301 H 0.73732 0.8118 0.40256 0.0
C1302 C 0.74548 0.75095 0.4216 0.0
C1303 C 0.72553 0.78487 0.42758 0.0
C1304 C 0.70781 0.79839 0.44101 0.0
C1305 C 0.75982 0.76096 0.40237 0.0
C1306 C 0.75641 0.78297 0.39482 0.0
C1307 C 0.73976 0.79484 0.40818 0.0
C1308 C 0.76789 0.79293 0.37042 0.0
C1309 C 0.77743 0.74747 0.38854 0.0
C1310 C 0.79036 0.79717 0.37093 0.0
C1311 C 0.80097 0.80534 0.34687 0.0
C1312 C 0.78924 0.80943 0.32195 0.0
C1313 C 0.76668 0.80532 0.32179 0.0
C1314 C 0.75614 0.79726 0.34577 0.0
H1315 H 0.77651 0.73003 0.39472 0.0
H1316 H 0.7762 0.74869 0.36524 0.0
H1317 H 0.79365 0.7538 0.39469 0.0
H1318 H 0.79968 0.79407 0.38985 0.0
H1319 H 0.8183 0.80858 0.34785 0.0
H1320 H 0.78945 0.19552 0.98138 0.0
H1321 H 0.7652 0.21831 0.95264 0.0
H1322 H 0.80554 0.20601 0.87962 0.0
H1323 H 0.83027 0.18425 0.9085 0.0
H1324 H 0.79428 0.24891 0.88409 0.0
H1325 H 0.72129 0.19609 0.89556 0.0
H1326 H 0.73265 0.20538 0.92819 0.0
H1327 H 0.74816 0.18736 0.90604 0.0
C1328 C 0.79336 0.19817 0.95935 0.0
C1329 C 0.81195 0.18855 0.94729 0.0
C1330 C 0.7793 0.21082 0.94284 0.0
C1331 C 0.78345 0.21369 0.9139 0.0
C1332 C 0.80202 0.20403 0.90189 0.0
H1333 H 0.7013 0.25181 0.77629 0.0
H1334 H 0.7225 0.23318 0.8126 0.0
C1335 C 0.81608 0.19152 0.91838 0.0
C1336 C 0.76863 0.22674 0.89586 0.0
H1337 H 0.71689 0.22872 0.8697 0.0
C1338 C 0.77732 0.24459 0.88105 0.0
C1339 C 0.74658 0.22089 0.89168 0.0
C1340 C 0.7366 0.20128 0.90598 0.0
C1341 C 0.76468 0.25657 0.86189 0.0
C1342 C 0.74256 0.25087 0.85792 0.0
C1343 C 0.73379 0.23318 0.87297 0.0
C1344 C 0.72866 0.26223 0.83697 0.0
C1345 C 0.77539 0.27468 0.84529 0.0
C1346 C 0.72467 0.28469 0.83891 0.0
C1347 C 0.7126 0.29541 0.81809 0.0
C1348 C 0.70406 0.2838 0.79516 0.0
C1349 C 0.70748 0.26119 0.79381 0.0
C1350 C 0.71965 0.25052 0.81451 0.0
H1351 H 0.79346 0.27344 0.84571 0.0
H1352 H 0.77 0.27456 0.82299 0.0
H1353 H 0.77074 0.29057 0.85463 0.0
H1354 H 0.73102 0.29396 0.85641 0.0
H1355 H 0.70995 0.31278 0.81995 0.0
H1356 H 0.28091 0.30781 0.45905 0.0
H1357 H 0.26481 0.27958 0.42908 0.0
H1358 H 0.31691 0.28801 0.36873 0.0
H1359 H 0.33304 0.3161 0.39836 0.0
H1360 H 0.25345 0.28327 0.36632 0.0
H1361 H 0.31612 0.22107 0.39276 0.0
H1362 H 0.31041 0.24414 0.41516 0.0
H1363 H 0.32604 0.24771 0.38341 0.0
C1364 C 0.28888 0.30368 0.43935 0.0
C1365 C 0.30832 0.3141 0.43117 0.0
C1366 C 0.27964 0.28761 0.42227 0.0
C1367 C 0.28985 0.28158 0.39692 0.0
C1368 C 0.30893 0.2923 0.38839 0.0
H1369 H 0.27393 0.18547 0.2664 0.0
H1370 H 0.28658 0.21341 0.29913 0.0
C1371 C 0.31807 0.30843 0.4053 0.0
C1372 C 0.28084 0.26389 0.37935 0.0
H1373 H 0.29169 0.21248 0.35604 0.0
C1374 C 0.26165 0.2677 0.36419 0.0
C1375 C 0.29171 0.24371 0.37658 0.0
C1376 C 0.31214 0.23872 0.39295 0.0
C1377 C 0.25334 0.25201 0.3456 0.0
C1378 C 0.26427 0.2318 0.3427 0.0
C1379 C 0.28332 0.22795 0.35824 0.0
C1380 C 0.25654 0.21459 0.32321 0.0
C1381 C 0.23341 0.25757 0.3285 0.0
C1382 C 0.2356 0.20565 0.32617 0.0
C1383 C 0.22832 0.18972 0.30745 0.0
C1384 C 0.24194 0.1822 0.28559 0.0
C1385 C 0.26311 0.19079 0.28312 0.0
C1386 C 0.27032 0.20682 0.30174 0.0
H1387 H 0.23064 0.27544 0.32741 0.0
H1388 H 0.23485 0.2512 0.3067 0.0
H1389 H 0.21886 0.25008 0.33856 0.0
H1390 H 0.22489 0.21092 0.34304 0.0
H1391 H 0.21206 0.18316 0.3102 0.0
H1392 H 0.20977 0.78112 0.98749 0.0
H1393 H 0.2406 0.75752 0.97474 0.0
H1394 H 0.26803 0.80961 0.92467 0.0
H1395 H 0.23767 0.83306 0.93785 0.0
H1396 H 0.24486 0.7462 0.92106 0.0
H1397 H 0.32288 0.78238 0.9531 0.0
H1398 H 0.29728 0.79026 0.96909 0.0
H1399 H 0.30628 0.80268 0.93655 0.0
C1400 C 0.2231 0.78784 0.97518 0.0
C1401 C 0.22163 0.80896 0.96398 0.0
C1402 C 0.24058 0.7743 0.96762 0.0
C1403 C 0.2568 0.78178 0.94887 0.0
C1404 C 0.25615 0.80354 0.93971 0.0
H1405 H 0.33071 0.74574 0.80836 0.0
H1406 H 0.31238 0.762 0.84895 0.0
C1407 C 0.23873 0.81697 0.9472 0.0
C1408 C 0.27167 0.76626 0.93433 0.0
H1409 H 0.32369 0.76157 0.90899 0.0
C1410 C 0.26223 0.74913 0.91911 0.0
C1411 C 0.29433 0.77011 0.93162 0.0
C1412 C 0.30577 0.78724 0.94874 0.0
C1413 C 0.27443 0.73692 0.89966 0.0
C1414 C 0.29674 0.7418 0.89553 0.0
C1415 C 0.30652 0.75799 0.912 0.0
C1416 C 0.30948 0.73182 0.87226 0.0
C1417 C 0.26304 0.71987 0.88226 0.0
C1418 C 0.31424 0.70947 0.87209 0.0
C1419 C 0.32485 0.70009 0.84891 0.0
C1420 C 0.33094 0.7129 0.82548 0.0
C1421 C 0.32655 0.73539 0.82612 0.0
C1422 C 0.316 0.74474 0.84929 0.0
H1423 H 0.24507 0.72024 0.88523 0.0
H1424 H 0.26677 0.72222 0.85952 0.0
H1425 H 0.269 0.70349 0.88847 0.0
H1426 H 0.30956 0.69927 0.88977 0.0
H1427 H 0.3283 0.6828 0.84935 0.0
loop_
_geom_bond_atom_site_label_1
_geom_bond_atom_site_label_2
_geom_bond_distance
_geom_bond_site_symmetry_2
_ccdc_geom_bond_type
Zn0 O6 1.920 . S
Zn0 O12 1.898 . S
Zn0 O15 1.905 . S
Zn1 O9 1.905 . S
Zn1 O10 1.898 . S
Zn1 O18 1.920 . S
Zn2 O5 2.080 . S
Zn2 O8 2.114 1_554 S
Zn2 O11 2.120 1_554 S
Zn2 O13 2.120 . S
Zn2 O14 2.114 . S
Zn2 O17 2.080 1_554 S
C3 O8 1.166 . S
C3 O9 1.182 . S
C4 O10 1.167 . S
C4 O11 1.299 . S
O5 Zn2 2.080 . S
O5 C19 1.305 . S
O6 Zn0 1.920 . S
O6 C19 1.234 . S
C7 O12 1.167 . S
C7 O13 1.299 . S
O8 Zn2 2.114 1_556 S
O8 C3 1.166 . S
O9 Zn1 1.905 . S
O9 C3 1.182 . S
O10 Zn1 1.898 . S
O10 C4 1.167 . S
O11 Zn2 2.120 1_556 S
O11 C4 1.299 . S
O12 Zn0 1.898 . S
O12 C7 1.167 . S
O13 Zn2 2.120 . S
O13 C7 1.299 . S
O14 Zn2 2.114 . S
O14 C16 1.166 . S
O15 Zn0 1.905 . S
O15 C16 1.182 . S
C16 O14 1.166 . S
C16 O15 1.182 . S
O17 Zn2 2.080 1_556 S
O17 C20 1.305 . S
O18 Zn1 1.920 . S
O18 C20 1.234 . S
C19 O5 1.305 . S
C19 O6 1.234 . S
C20 O17 1.305 . S
C20 O18 1.234 . S
Zn21 O27 1.920 . S
Zn21 O33 1.898 . S
Zn21 O36 1.905 . S
Zn22 O30 1.905 . S
Zn22 O31 1.898 . S
Zn22 O39 1.920 . S
Zn23 O26 2.080 . S
Zn23 O29 2.114 . S
Zn23 O32 2.120 . S
Zn23 O34 2.120 . S
Zn23 O35 2.114 . S
Zn23 O38 2.080 . S
C24 O29 1.166 . S
C24 O30 1.182 . S
C25 O31 1.167 . S
C25 O32 1.299 . S
O26 Zn23 2.080 . S
O26 C40 1.305 . S
O27 Zn21 1.920 . S
O27 C40 1.234 . S
C28 O33 1.167 . S
C28 O34 1.299 . S
O29 Zn23 2.114 . S
O29 C24 1.166 . S
O30 Zn22 1.905 . S
O30 C24 1.182 . S
O31 Zn22 1.898 . S
O31 C25 1.167 . S
O32 Zn23 2.120 . S
O32 C25 1.299 . S
O33 Zn21 1.898 . S
O33 C28 1.167 . S
O34 Zn23 2.120 . S
O34 C28 1.299 . S
O35 Zn23 2.114 . S
O35 C37 1.166 . S
O36 Zn21 1.905 . S
O36 C37 1.182 . S
C37 O35 1.166 . S
C37 O36 1.182 . S
O38 Zn23 2.080 . S
O38 C41 1.305 . S
O39 Zn22 1.920 . S
O39 C41 1.234 . S
C40 O26 1.305 . S
C40 O27 1.234 . S
C41 O38 1.305 . S
C41 O39 1.234 . S
Zn42 O48 1.920 . S
Zn42 O54 1.898 . S
Zn42 O57 1.905 . S
Zn43 O51 1.905 . S
Zn43 O52 1.898 . S
Zn43 O60 1.920 . S
Zn44 O47 2.080 1_554 S
Zn44 O50 2.114 . S
Zn44 O53 2.120 . S
Zn44 O55 2.120 1_554 S
Zn44 O56 2.114 1_554 S
Zn44 O59 2.080 . S
C45 O50 1.166 . S
C45 O51 1.182 . S
C46 O52 1.167 . S
C46 O53 1.299 . S
O47 Zn44 2.080 1_556 S
O47 C61 1.305 . S
O48 Zn42 1.920 . S
O48 C61 1.234 . S
C49 O54 1.167 . S
C49 O55 1.299 . S
O50 Zn44 2.114 . S
O50 C45 1.166 . S
O51 Zn43 1.905 . S
O51 C45 1.182 . S
O52 Zn43 1.898 . S
O52 C46 1.167 . S
O53 Zn44 2.120 . S
O53 C46 1.299 . S
O54 Zn42 1.898 . S
O54 C49 1.167 . S
O55 Zn44 2.120 1_556 S
O55 C49 1.299 . S
O56 Zn44 2.114 1_556 S
O56 C58 1.166 . S
O57 Zn42 1.905 . S
O57 C58 1.182 . S
C58 O56 1.166 . S
C58 O57 1.182 . S
O59 Zn44 2.080 . S
O59 C62 1.305 . S
O60 Zn43 1.920 . S
O60 C62 1.234 . S
C61 O47 1.305 . S
C61 O48 1.234 . S
C62 O59 1.305 . S
C62 O60 1.234 . S
Zn63 O69 1.920 . S
Zn63 O75 1.898 . S
Zn63 O78 1.905 . S
Zn64 O72 1.905 . S
Zn64 O73 1.898 . S
Zn64 O81 1.920 . S
Zn65 O68 2.080 . S
Zn65 O71 2.114 . S
Zn65 O74 2.120 . S
Zn65 O76 2.120 . S
Zn65 O77 2.114 . S
Zn65 O80 2.080 . S
C66 O71 1.166 . S
C66 O72 1.182 . S
C67 O73 1.167 . S
C67 O74 1.299 . S
O68 Zn65 2.080 . S
O68 C82 1.305 . S
O69 Zn63 1.920 . S
O69 C82 1.234 . S
C70 O75 1.167 . S
C70 O76 1.299 . S
O71 Zn65 2.114 . S
O71 C66 1.166 . S
O72 Zn64 1.905 . S
O72 C66 1.182 . S
O73 Zn64 1.898 . S
O73 C67 1.167 . S
O74 Zn65 2.120 . S
O74 C67 1.299 . S
O75 Zn63 1.898 . S
O75 C70 1.167 . S
O76 Zn65 2.120 . S
O76 C70 1.299 . S
O77 Zn65 2.114 . S
O77 C79 1.166 . S
O78 Zn63 1.905 . S
O78 C79 1.182 . S
C79 O77 1.166 . S
C79 O78 1.182 . S
O80 Zn65 2.080 . S
O80 C83 1.305 . S
O81 Zn64 1.920 . S
O81 C83 1.234 . S
C82 O68 1.305 . S
C82 O69 1.234 . S
C83 O80 1.305 . S
C83 O81 1.234 . S
C84 C85 1.391 . S
C84 C88 1.391 . S
C84 H126 0.948 . S
C85 C84 1.391 . S
C85 C86 1.391 . S
C86 C85 1.391 . S
C86 H142 0.947 . S
C86 C143 1.392 . S
C87 C88 1.391 . S
C87 C91 1.397 . S
C87 C143 1.419 . S
C88 C84 1.391 . S
C88 C87 1.391 . S
C88 C89 1.399 . S
C89 C88 1.399 . S
C89 C92 1.396 . S
C89 C101 1.453 . S
C89 C102 1.684 . S
H90 C114 0.948 . S
C91 C87 1.397 . S
C91 C92 1.394 . S
C91 C110 1.723 . S
C92 C89 1.396 . S
C92 C91 1.394 . S
C92 C122 1.723 . S
H93 C116 0.947 . S
H94 C117 0.948 . S
H95 C123 0.982 . S
H96 C124 0.979 . S
H97 C124 0.980 . S
H98 C124 0.983 . S
H99 C123 0.979 . S
H100 C123 0.977 . S
C101 C89 1.453 . S
C101 H130 0.982 . S
C101 H131 0.979 . S
C101 H132 0.977 . S
C102 C89 1.684 . S
C102 H127 0.979 . S
C102 H128 0.980 . S
C102 H129 0.983 . S
C103 C104 1.391 . S
C103 C108 1.391 . S
C103 H133 0.948 . S
C104 C103 1.391 . S
C104 C105 1.391 . S
C105 C104 1.391 . S
C105 C106 1.392 . S
C105 H134 0.947 . S
C106 C105 1.392 . S
C106 C107 1.419 . S
C106 H135 0.948 . S
C107 C106 1.419 . S
C107 C108 1.391 . S
C107 C111 1.397 . S
C108 C103 1.391 . S
C108 C107 1.391 . S
C108 C109 1.399 . S
C109 C108 1.399 . S
C109 C110 1.396 . S
C109 C112 1.453 . S
C109 C113 1.684 . S
C110 C91 1.723 . S
C110 C109 1.396 . S
C110 C111 1.394 . S
C111 C107 1.397 . S
C111 C110 1.394 . S
C111 C121 1.723 . S
C112 C109 1.453 . S
C112 H136 0.982 . S
C112 H137 0.979 . S
C112 H138 0.977 . S
C113 C109 1.684 . S
C113 H139 0.979 . S
C113 H140 0.980 . S
C113 H141 0.983 . S
C114 H90 0.948 . S
C114 C115 1.391 . S
C114 C119 1.391 . S
C115 C114 1.391 . S
C115 C116 1.391 . S
C116 H93 0.947 . S
C116 C115 1.391 . S
C116 C117 1.392 . S
C117 H94 0.948 . S
C117 C116 1.392 . S
C117 C118 1.419 . S
C118 C117 1.419 . S
C118 C119 1.391 . S
C118 C122 1.397 . S
C119 C114 1.391 . S
C119 C118 1.391 . S
C119 C120 1.399 . S
C120 C119 1.399 . S
C120 C121 1.396 . S
C120 C123 1.453 . S
C120 C124 1.684 . S
C121 C111 1.723 . S
C121 C120 1.396 . S
C121 C122 1.394 . S
C122 C92 1.723 . S
C122 C118 1.397 . S
C122 C121 1.394 . S
C123 H95 0.982 . S
C123 H99 0.979 . S
C123 H100 0.977 . S
C123 C120 1.453 . S
C124 H96 0.979 . S
C124 H97 0.980 . S
C124 H98 0.983 . S
C124 C120 1.684 . S
H125 C143 0.948 . S
H126 C84 0.948 . S
H127 C102 0.979 . S
H128 C102 0.980 . S
H129 C102 0.983 . S
H130 C101 0.982 . S
H131 C101 0.979 . S
H132 C101 0.977 . S
H133 C103 0.948 . S
H134 C105 0.947 . S
H135 C106 0.948 . S
H136 C112 0.982 . S
H137 C112 0.979 . S
H138 C112 0.977 . S
H139 C113 0.979 . S
H140 C113 0.980 . S
H141 C113 0.983 . S
H142 C86 0.947 . S
C143 C86 1.392 . S
C143 C87 1.419 . S
C143 H125 0.948 . S
C144 C145 1.391 . S
C144 C148 1.391 . S
C144 H186 0.948 . S
C145 C144 1.391 . S
C145 C146 1.391 . S
C146 C145 1.391 . S
C146 H202 0.947 . S
C146 C203 1.392 . S
C147 C148 1.391 . S
C147 C151 1.397 . S
C147 C203 1.419 . S
C148 C144 1.391 . S
C148 C147 1.391 . S
C148 C149 1.399 . S
C149 C148 1.399 . S
C149 C152 1.396 . S
C149 C161 1.453 . S
C149 C162 1.684 . S
H150 C174 0.948 . S
C151 C147 1.397 . S
C151 C152 1.394 . S
C151 C170 1.723 . S
C152 C149 1.396 . S
C152 C151 1.394 . S
C152 C182 1.723 . S
H153 C176 0.947 . S
H154 C177 0.948 . S
H155 C183 0.982 . S
H156 C184 0.979 . S
H157 C184 0.980 . S
H158 C184 0.983 . S
H159 C183 0.979 . S
H160 C183 0.977 . S
C161 C149 1.453 . S
C161 H190 0.982 . S
C161 H191 0.979 . S
C161 H192 0.977 . S
C162 C149 1.684 . S
C162 H187 0.979 . S
C162 H188 0.980 . S
C162 H189 0.983 . S
C163 C164 1.391 . S
C163 C168 1.391 . S
C163 H193 0.948 . S
C164 C163 1.391 . S
C164 C165 1.391 . S
C165 C164 1.391 . S
C165 C166 1.392 . S
C165 H194 0.947 . S
C166 C165 1.392 . S
C166 C167 1.419 . S
C166 H195 0.948 . S
C167 C166 1.419 . S
C167 C168 1.391 . S
C167 C171 1.397 . S
C168 C163 1.391 . S
C168 C167 1.391 . S
C168 C169 1.399 . S
C169 C168 1.399 . S
C169 C170 1.396 . S
C169 C172 1.453 . S
C169 C173 1.684 . S
C170 C151 1.723 . S
C170 C169 1.396 . S
C170 C171 1.394 . S
C171 C167 1.397 . S
C171 C170 1.394 . S
C171 C181 1.723 . S
C172 C169 1.453 . S
C172 H196 0.982 . S
C172 H197 0.979 . S
C172 H198 0.977 . S
C173 C169 1.684 . S
C173 H199 0.979 . S
C173 H200 0.980 . S
C173 H201 0.983 . S
C174 H150 0.948 . S
C174 C175 1.391 . S
C174 C179 1.391 . S
C175 C174 1.391 . S
C175 C176 1.391 . S
C176 H153 0.947 . S
C176 C175 1.391 . S
C176 C177 1.392 . S
C177 H154 0.948 . S
C177 C176 1.392 . S
C177 C178 1.419 . S
C178 C177 1.419 . S
C178 C179 1.391 . S
C178 C182 1.397 . S
C179 C174 1.391 . S
C179 C178 1.391 . S
C179 C180 1.399 . S
C180 C179 1.399 . S
C180 C181 1.396 . S
C180 C183 1.453 . S
C180 C184 1.684 . S
C181 C171 1.723 . S
C181 C180 1.396 . S
C181 C182 1.394 . S
C182 C152 1.723 . S
C182 C178 1.397 . S
C182 C181 1.394 . S
C183 H155 0.982 . S
C183 H159 0.979 . S
C183 H160 0.977 . S
C183 C180 1.453 . S
C184 H156 0.979 . S
C184 H157 0.980 . S
C184 H158 0.983 . S
C184 C180 1.684 . S
H185 C203 0.948 . S
H186 C144 0.948 . S
H187 C162 0.979 . S
H188 C162 0.980 . S
H189 C162 0.983 . S
H190 C161 0.982 . S
H191 C161 0.979 . S
H192 C161 0.977 . S
H193 C163 0.948 . S
H194 C165 0.947 . S
H195 C166 0.948 . S
H196 C172 0.982 . S
H197 C172 0.979 . S
H198 C172 0.977 . S
H199 C173 0.979 . S
H200 C173 0.980 . S
H201 C173 0.983 . S
H202 C146 0.947 . S
C203 C146 1.392 . S
C203 C147 1.419 . S
C203 H185 0.948 . S
C204 C205 1.391 . S
C204 C208 1.391 . S
C204 H246 0.948 . S
C205 C204 1.391 . S
C205 C206 1.391 . S
C206 C205 1.391 . S
C206 H262 0.947 . S
C206 C263 1.392 . S
C207 C208 1.391 . S
C207 C211 1.397 . S
C207 C263 1.419 . S
C208 C204 1.391 . S
C208 C207 1.391 . S
C208 C209 1.399 . S
C209 C208 1.399 . S
C209 C212 1.396 . S
C209 C221 1.453 . S
C209 C222 1.684 . S
H210 C234 0.948 . S
C211 C207 1.397 . S
C211 C212 1.394 . S
C211 C230 1.723 . S
C212 C209 1.396 . S
C212 C211 1.394 . S
C212 C242 1.723 . S
H213 C236 0.947 . S
H214 C237 0.948 . S
H215 C243 0.982 . S
H216 C244 0.979 . S
H217 C244 0.980 . S
H218 C244 0.983 . S
H219 C243 0.979 . S
H220 C243 0.977 . S
C221 C209 1.453 . S
C221 H250 0.982 . S
C221 H251 0.979 . S
C221 H252 0.977 . S
C222 C209 1.684 . S
C222 H247 0.979 . S
C222 H248 0.980 . S
C222 H249 0.983 . S
C223 C224 1.391 . S
C223 C228 1.391 . S
C223 H253 0.948 . S
C224 C223 1.391 . S
C224 C225 1.391 . S
C225 C224 1.391 . S
C225 C226 1.392 . S
C225 H254 0.947 . S
C226 C225 1.392 . S
C226 C227 1.419 . S
C226 H255 0.948 . S
C227 C226 1.419 . S
C227 C228 1.391 . S
C227 C231 1.397 . S
C228 C223 1.391 . S
C228 C227 1.391 . S
C228 C229 1.399 . S
C229 C228 1.399 . S
C229 C230 1.396 . S
C229 C232 1.453 . S
C229 C233 1.684 . S
C230 C211 1.723 . S
C230 C229 1.396 . S
C230 C231 1.394 . S
C231 C227 1.397 . S
C231 C230 1.394 . S
C231 C241 1.723 . S
C232 C229 1.453 . S
C232 H256 0.982 . S
C232 H257 0.979 . S
C232 H258 0.977 . S
C233 C229 1.684 . S
C233 H259 0.979 . S
C233 H260 0.980 . S
C233 H261 0.983 . S
C234 H210 0.948 . S
C234 C235 1.391 . S
C234 C239 1.391 . S
C235 C234 1.391 . S
C235 C236 1.391 . S
C236 H213 0.947 . S
C236 C235 1.391 . S
C236 C237 1.392 . S
C237 H214 0.948 . S
C237 C236 1.392 . S
C237 C238 1.419 . S
C238 C237 1.419 . S
C238 C239 1.391 . S
C238 C242 1.397 . S
C239 C234 1.391 . S
C239 C238 1.391 . S
C239 C240 1.399 . S
C240 C239 1.399 . S
C240 C241 1.396 . S
C240 C243 1.453 . S
C240 C244 1.684 . S
C241 C231 1.723 . S
C241 C240 1.396 . S
C241 C242 1.394 . S
C242 C212 1.723 . S
C242 C238 1.397 . S
C242 C241 1.394 . S
C243 H215 0.982 . S
C243 H219 0.979 . S
C243 H220 0.977 . S
C243 C240 1.453 . S
C244 H216 0.979 . S
C244 H217 0.980 . S
C244 H218 0.983 . S
C244 C240 1.684 . S
H245 C263 0.948 . S
H246 C204 0.948 . S
H247 C222 0.979 . S
H248 C222 0.980 . S
H249 C222 0.983 . S
H250 C221 0.982 . S
H251 C221 0.979 . S
H252 C221 0.977 . S
H253 C223 0.948 . S
H254 C225 0.947 . S
H255 C226 0.948 . S
H256 C232 0.982 . S
H257 C232 0.979 . S
H258 C232 0.977 . S
H259 C233 0.979 . S
H260 C233 0.980 . S
H261 C233 0.983 . S
H262 C206 0.947 . S
C263 C206 1.392 . S
C263 C207 1.419 . S
C263 H245 0.948 . S
C264 C265 1.391 . S
C264 C268 1.391 . S
C264 H306 0.948 . S
C265 C264 1.391 . S
C265 C266 1.391 . S
C266 C265 1.391 . S
C266 H322 0.947 . S
C266 C323 1.392 . S
C267 C268 1.391 . S
C267 C271 1.397 . S
C267 C323 1.419 . S
C268 C264 1.391 . S
C268 C267 1.391 . S
C268 C269 1.399 . S
C269 C268 1.399 . S
C269 C272 1.396 . S
C269 C281 1.453 . S
C269 C282 1.684 . S
H270 C294 0.948 . S
C271 C267 1.397 . S
C271 C272 1.394 . S
C271 C290 1.723 . S
C272 C269 1.396 . S
C272 C271 1.394 . S
C272 C302 1.723 . S
H273 C296 0.947 . S
H274 C297 0.948 . S
H275 C303 0.982 . S
H276 C304 0.979 . S
H277 C304 0.980 . S
H278 C304 0.983 . S
H279 C303 0.979 . S
H280 C303 0.977 . S
C281 C269 1.453 . S
C281 H310 0.982 . S
C281 H311 0.979 . S
C281 H312 0.977 . S
C282 C269 1.684 . S
C282 H307 0.979 . S
C282 H308 0.980 . S
C282 H309 0.983 . S
C283 C284 1.391 . S
C283 C288 1.391 . S
C283 H313 0.948 . S
C284 C283 1.391 . S
C284 C285 1.391 . S
C285 C284 1.391 . S
C285 C286 1.392 . S
C285 H314 0.947 . S
C286 C285 1.392 . S
C286 C287 1.419 . S
C286 H315 0.948 . S
C287 C286 1.419 . S
C287 C288 1.391 . S
C287 C291 1.397 . S
C288 C283 1.391 . S
C288 C287 1.391 . S
C288 C289 1.399 . S
C289 C288 1.399 . S
C289 C290 1.396 . S
C289 C292 1.453 . S
C289 C293 1.684 . S
C290 C271 1.723 . S
C290 C289 1.396 . S
C290 C291 1.394 . S
C291 C287 1.397 . S
C291 C290 1.394 . S
C291 C301 1.723 . S
C292 C289 1.453 . S
C292 H316 0.982 . S
C292 H317 0.979 . S
C292 H318 0.977 . S
C293 C289 1.684 . S
C293 H319 0.979 . S
C293 H320 0.980 . S
C293 H321 0.983 . S
C294 H270 0.948 . S
C294 C295 1.391 . S
C294 C299 1.391 . S
C295 C294 1.391 . S
C295 C296 1.391 . S
C296 H273 0.947 . S
C296 C295 1.391 . S
C296 C297 1.392 . S
C297 H274 0.948 . S
C297 C296 1.392 . S
C297 C298 1.419 . S
C298 C297 1.419 . S
C298 C299 1.391 . S
C298 C302 1.397 . S
C299 C294 1.391 . S
C299 C298 1.391 . S
C299 C300 1.399 . S
C300 C299 1.399 . S
C300 C301 1.396 . S
C300 C303 1.453 . S
C300 C304 1.684 . S
C301 C291 1.723 . S
C301 C300 1.396 . S
C301 C302 1.394 . S
C302 C272 1.723 . S
C302 C298 1.397 . S
C302 C301 1.394 . S
C303 H275 0.982 . S
C303 H279 0.979 . S
C303 H280 0.977 . S
C303 C300 1.453 . S
C304 H276 0.979 . S
C304 H277 0.980 . S
C304 H278 0.983 . S
C304 C300 1.684 . S
H305 C323 0.948 . S
H306 C264 0.948 . S
H307 C282 0.979 . S
H308 C282 0.980 . S
H309 C282 0.983 . S
H310 C281 0.982 . S
H311 C281 0.979 . S
H312 C281 0.977 . S
H313 C283 0.948 . S
H314 C285 0.947 . S
H315 C286 0.948 . S
H316 C292 0.982 . S
H317 C292 0.979 . S
H318 C292 0.977 . S
H319 C293 0.979 . S
H320 C293 0.980 . S
H321 C293 0.983 . S
H322 C266 0.947 . S
C323 C266 1.392 . S
C323 C267 1.419 . S
C323 H305 0.948 . S
C324 C325 1.391 . S
C324 C328 1.391 . S
C324 H366 0.948 . S
C325 C324 1.391 . S
C325 C326 1.391 . S
C326 C325 1.391 . S
C326 H382 0.947 . S
C326 C383 1.392 . S
C327 C328 1.391 . S
C327 C331 1.397 . S
C327 C383 1.419 . S
C328 C324 1.391 . S
C328 C327 1.391 . S
C328 C329 1.399 . S
C329 C328 1.399 . S
C329 C332 1.396 . S
C329 C341 1.453 . S
C329 C342 1.684 . S
H330 C354 0.948 . S
C331 C327 1.397 . S
C331 C332 1.394 . S
C331 C350 1.723 . S
C332 C329 1.396 . S
C332 C331 1.394 . S
C332 C362 1.723 . S
H333 C356 0.947 . S
H334 C357 0.948 . S
H335 C363 0.982 . S
H336 C364 0.979 . S
H337 C364 0.980 . S
H338 C364 0.983 . S
H339 C363 0.979 . S
H340 C363 0.977 . S
C341 C329 1.453 . S
C341 H370 0.982 . S
C341 H371 0.979 . S
C341 H372 0.977 . S
C342 C329 1.684 . S
C342 H367 0.979 . S
C342 H368 0.980 . S
C342 H369 0.983 . S
C343 C344 1.391 . S
C343 C348 1.391 . S
C343 H373 0.948 . S
C344 C343 1.391 . S
C344 C345 1.391 . S
C345 C344 1.391 . S
C345 C346 1.392 . S
C345 H374 0.947 . S
C346 C345 1.392 . S
C346 C347 1.419 . S
C346 H375 0.948 . S
C347 C346 1.419 . S
C347 C348 1.391 . S
C347 C351 1.397 . S
C348 C343 1.391 . S
C348 C347 1.391 . S
C348 C349 1.399 . S
C349 C348 1.399 . S
C349 C350 1.396 . S
C349 C352 1.453 . S
C349 C353 1.684 . S
C350 C331 1.723 . S
C350 C349 1.396 . S
C350 C351 1.394 . S
C351 C347 1.397 . S
C351 C350 1.394 . S
C351 C361 1.723 . S
C352 C349 1.453 . S
C352 H376 0.982 . S
C352 H377 0.979 . S
C352 H378 0.977 . S
C353 C349 1.684 . S
C353 H379 0.979 . S
C353 H380 0.980 . S
C353 H381 0.983 . S
C354 H330 0.948 . S
C354 C355 1.391 . S
C354 C359 1.391 . S
C355 C354 1.391 . S
C355 C356 1.391 . S
C356 H333 0.947 . S
C356 C355 1.391 . S
C356 C357 1.392 . S
C357 H334 0.948 . S
C357 C356 1.392 . S
C357 C358 1.419 . S
C358 C357 1.419 . S
C358 C359 1.391 . S
C358 C362 1.397 . S
C359 C354 1.391 . S
C359 C358 1.391 . S
C359 C360 1.399 . S
C360 C359 1.399 . S
C360 C361 1.396 . S
C360 C363 1.453 . S
C360 C364 1.684 . S
C361 C351 1.723 . S
C361 C360 1.396 . S
C361 C362 1.394 . S
C362 C332 1.723 . S
C362 C358 1.397 . S
C362 C361 1.394 . S
C363 H335 0.982 . S
C363 H339 0.979 . S
C363 H340 0.977 . S
C363 C360 1.453 . S
C364 H336 0.979 . S
C364 H337 0.980 . S
C364 H338 0.983 . S
C364 C360 1.684 . S
H365 C383 0.948 . S
H366 C324 0.948 . S
H367 C342 0.979 . S
H368 C342 0.980 . S
H369 C342 0.983 . S
H370 C341 0.982 . S
H371 C341 0.979 . S
H372 C341 0.977 . S
H373 C343 0.948 . S
H374 C345 0.947 . S
H375 C346 0.948 . S
H376 C352 0.982 . S
H377 C352 0.979 . S
H378 C352 0.977 . S
H379 C353 0.979 . S
H380 C353 0.980 . S
H381 C353 0.983 . S
H382 C326 0.947 . S
C383 C326 1.392 . S
C383 C327 1.419 . S
C383 H365 0.948 . S
C384 C385 1.391 . S
C384 C388 1.391 . S
C384 H426 0.948 . S
C385 C384 1.391 . S
C385 C386 1.391 . S
C386 C385 1.391 . S
C386 H442 0.947 . S
C386 C443 1.392 . S
C387 C388 1.391 . S
C387 C391 1.397 . S
C387 C443 1.419 . S
C388 C384 1.391 . S
C388 C387 1.391 . S
C388 C389 1.399 . S
C389 C388 1.399 . S
C389 C392 1.396 . S
C389 C401 1.453 . S
C389 C402 1.684 . S
H390 C414 0.948 . S
C391 C387 1.397 . S
C391 C392 1.394 . S
C391 C410 1.723 . S
C392 C389 1.396 . S
C392 C391 1.394 . S
C392 C422 1.723 . S
H393 C416 0.947 . S
H394 C417 0.948 . S
H395 C423 0.982 . S
H396 C424 0.979 . S
H397 C424 0.980 . S
H398 C424 0.983 . S
H399 C423 0.979 . S
H400 C423 0.977 . S
C401 C389 1.453 . S
C401 H430 0.982 . S
C401 H431 0.979 . S
C401 H432 0.977 . S
C402 C389 1.684 . S
C402 H427 0.979 . S
C402 H428 0.980 . S
C402 H429 0.983 . S
C403 C404 1.391 . S
C403 C408 1.391 . S
C403 H433 0.948 . S
C404 C403 1.391 . S
C404 C405 1.391 . S
C405 C404 1.391 . S
C405 C406 1.392 . S
C405 H434 0.947 . S
C406 C405 1.392 . S
C406 C407 1.419 . S
C406 H435 0.948 . S
C407 C406 1.419 . S
C407 C408 1.391 . S
C407 C411 1.397 . S
C408 C403 1.391 . S
C408 C407 1.391 . S
C408 C409 1.399 . S
C409 C408 1.399 . S
C409 C410 1.396 . S
C409 C412 1.453 . S
C409 C413 1.684 . S
C410 C391 1.723 . S
C410 C409 1.396 . S
C410 C411 1.394 . S
C411 C407 1.397 . S
C411 C410 1.394 . S
C411 C421 1.723 . S
C412 C409 1.453 . S
C412 H436 0.982 . S
C412 H437 0.979 . S
C412 H438 0.977 . S
C413 C409 1.684 . S
C413 H439 0.979 . S
C413 H440 0.980 . S
C413 H441 0.983 . S
C414 H390 0.948 . S
C414 C415 1.391 . S
C414 C419 1.391 . S
C415 C414 1.391 . S
C415 C416 1.391 . S
C416 H393 0.947 . S
C416 C415 1.391 . S
C416 C417 1.392 . S
C417 H394 0.948 . S
C417 C416 1.392 . S
C417 C418 1.419 . S
C418 C417 1.419 . S
C418 C419 1.391 . S
C418 C422 1.397 . S
C419 C414 1.391 . S
C419 C418 1.391 . S
C419 C420 1.399 . S
C420 C419 1.399 . S
C420 C421 1.396 . S
C420 C423 1.453 . S
C420 C424 1.684 . S
C421 C411 1.723 . S
C421 C420 1.396 . S
C421 C422 1.394 . S
C422 C392 1.723 . S
C422 C418 1.397 . S
C422 C421 1.394 . S
C423 H395 0.982 . S
C423 H399 0.979 . S
C423 H400 0.977 . S
C423 C420 1.453 . S
C424 H396 0.979 . S
C424 H397 0.980 . S
C424 H398 0.983 . S
C424 C420 1.684 . S
H425 C443 0.948 . S
H426 C384 0.948 . S
H427 C402 0.979 . S
H428 C402 0.980 . S
H429 C402 0.983 . S
H430 C401 0.982 . S
H431 C401 0.979 . S
H432 C401 0.977 . S
H433 C403 0.948 . S
H434 C405 0.947 . S
H435 C406 0.948 . S
H436 C412 0.982 . S
H437 C412 0.979 . S
H438 C412 0.977 . S
H439 C413 0.979 . S
H440 C413 0.980 . S
H441 C413 0.983 . S
H442 C386 0.947 . S
C443 C386 1.392 . S
C443 C387 1.419 . S
C443 H425 0.948 . S
C444 C445 1.391 . S
C444 C448 1.391 . S
C444 H486 0.948 . S
C445 C444 1.391 . S
C445 C446 1.391 . S
C446 C445 1.391 . S
C446 H502 0.947 . S
C446 C503 1.392 . S
C447 C448 1.391 . S
C447 C451 1.397 . S
C447 C503 1.419 . S
C448 C444 1.391 . S
C448 C447 1.391 . S
C448 C449 1.399 . S
C449 C448 1.399 . S
C449 C452 1.396 . S
C449 C461 1.453 . S
C449 C462 1.684 . S
H450 C474 0.948 . S
C451 C447 1.397 . S
C451 C452 1.394 . S
C451 C470 1.723 . S
C452 C449 1.396 . S
C452 C451 1.394 . S
C452 C482 1.723 . S
H453 C476 0.947 . S
H454 C477 0.948 . S
H455 C483 0.982 . S
H456 C484 0.979 . S
H457 C484 0.980 . S
H458 C484 0.983 . S
H459 C483 0.979 . S
H460 C483 0.977 . S
C461 C449 1.453 . S
C461 H490 0.982 . S
C461 H491 0.979 . S
C461 H492 0.977 . S
C462 C449 1.684 . S
C462 H487 0.979 . S
C462 H488 0.980 . S
C462 H489 0.983 . S
C463 C464 1.391 . S
C463 C468 1.391 . S
C463 H493 0.948 . S
C464 C463 1.391 . S
C464 C465 1.391 . S
C465 C464 1.391 . S
C465 C466 1.392 . S
C465 H494 0.947 . S
C466 C465 1.392 . S
C466 C467 1.419 . S
C466 H495 0.948 . S
C467 C466 1.419 . S
C467 C468 1.391 . S
C467 C471 1.397 . S
C468 C463 1.391 . S
C468 C467 1.391 . S
C468 C469 1.399 . S
C469 C468 1.399 . S
C469 C470 1.396 . S
C469 C472 1.453 . S
C469 C473 1.684 . S
C470 C451 1.723 . S
C470 C469 1.396 . S
C470 C471 1.394 . S
C471 C467 1.397 . S
C471 C470 1.394 . S
C471 C481 1.723 . S
C472 C469 1.453 . S
C472 H496 0.982 . S
C472 H497 0.979 . S
C472 H498 0.977 . S
C473 C469 1.684 . S
C473 H499 0.979 . S
C473 H500 0.980 . S
C473 H501 0.983 . S
C474 H450 0.948 . S
C474 C475 1.391 . S
C474 C479 1.391 . S
C475 C474 1.391 . S
C475 C476 1.391 . S
C476 H453 0.947 . S
C476 C475 1.391 . S
C476 C477 1.392 . S
C477 H454 0.948 . S
C477 C476 1.392 . S
C477 C478 1.419 . S
C478 C477 1.419 . S
C478 C479 1.391 . S
C478 C482 1.397 . S
C479 C474 1.391 . S
C479 C478 1.391 . S
C479 C480 1.399 . S
C480 C479 1.399 . S
C480 C481 1.396 . S
C480 C483 1.453 . S
C480 C484 1.684 . S
C481 C471 1.723 . S
C481 C480 1.396 . S
C481 C482 1.394 . S
C482 C452 1.723 . S
C482 C478 1.397 . S
C482 C481 1.394 . S
C483 H455 0.982 . S
C483 H459 0.979 . S
C483 H460 0.977 . S
C483 C480 1.453 . S
C484 H456 0.979 . S
C484 H457 0.980 . S
C484 H458 0.983 . S
C484 C480 1.684 . S
H485 C503 0.948 . S
H486 C444 0.948 . S
H487 C462 0.979 . S
H488 C462 0.980 . S
H489 C462 0.983 . S
H490 C461 0.982 . S
H491 C461 0.979 . S
H492 C461 0.977 . S
H493 C463 0.948 . S
H494 C465 0.947 . S
H495 C466 0.948 . S
H496 C472 0.982 . S
H497 C472 0.979 . S
H498 C472 0.977 . S
H499 C473 0.979 . S
H500 C473 0.980 . S
H501 C473 0.983 . S
H502 C446 0.947 . S
C503 C446 1.392 . S
C503 C447 1.419 . S
C503 H485 0.948 . S
C504 C505 1.391 . S
C504 C508 1.391 . S
C504 H546 0.948 . S
C505 C504 1.391 . S
C505 C506 1.391 . S
C506 C505 1.391 . S
C506 H562 0.947 . S
C506 C563 1.392 . S
C507 C508 1.391 . S
C507 C511 1.397 . S
C507 C563 1.419 . S
C508 C504 1.391 . S
C508 C507 1.391 . S
C508 C509 1.399 . S
C509 C508 1.399 . S
C509 C512 1.396 . S
C509 C521 1.453 . S
C509 C522 1.684 . S
H510 C534 0.948 . S
C511 C507 1.397 . S
C511 C512 1.394 . S
C511 C530 1.723 . S
C512 C509 1.396 . S
C512 C511 1.394 . S
C512 C542 1.723 . S
H513 C536 0.947 . S
H514 C537 0.948 . S
H515 C543 0.982 . S
H516 C544 0.979 . S
H517 C544 0.980 . S
H518 C544 0.983 . S
H519 C543 0.979 . S
H520 C543 0.977 . S
C521 C509 1.453 . S
C521 H550 0.982 . S
C521 H551 0.979 . S
C521 H552 0.977 . S
C522 C509 1.684 . S
C522 H547 0.979 . S
C522 H548 0.980 . S
C522 H549 0.983 . S
C523 C524 1.391 . S
C523 C528 1.391 . S
C523 H553 0.948 . S
C524 C523 1.391 . S
C524 C525 1.391 . S
C525 C524 1.391 . S
C525 C526 1.392 . S
C525 H554 0.947 . S
C526 C525 1.392 . S
C526 C527 1.419 . S
C526 H555 0.948 . S
C527 C526 1.419 . S
C527 C528 1.391 . S
C527 C531 1.397 . S
C528 C523 1.391 . S
C528 C527 1.391 . S
C528 C529 1.399 . S
C529 C528 1.399 . S
C529 C530 1.396 . S
C529 C532 1.453 . S
C529 C533 1.684 . S
C530 C511 1.723 . S
C530 C529 1.396 . S
C530 C531 1.394 . S
C531 C527 1.397 . S
C531 C530 1.394 . S
C531 C541 1.723 . S
C532 C529 1.453 . S
C532 H556 0.982 . S
C532 H557 0.979 . S
C532 H558 0.977 . S
C533 C529 1.684 . S
C533 H559 0.979 . S
C533 H560 0.980 . S
C533 H561 0.983 . S
C534 H510 0.948 . S
C534 C535 1.391 . S
C534 C539 1.391 . S
C535 C534 1.391 . S
C535 C536 1.391 . S
C536 H513 0.947 . S
C536 C535 1.391 . S
C536 C537 1.392 . S
C537 H514 0.948 . S
C537 C536 1.392 . S
C537 C538 1.419 . S
C538 C537 1.419 . S
C538 C539 1.391 . S
C538 C542 1.397 . S
C539 C534 1.391 . S
C539 C538 1.391 . S
C539 C540 1.399 . S
C540 C539 1.399 . S
C540 C541 1.396 . S
C540 C543 1.453 . S
C540 C544 1.684 . S
C541 C531 1.723 . S
C541 C540 1.396 . S
C541 C542 1.394 . S
C542 C512 1.723 . S
C542 C538 1.397 . S
C542 C541 1.394 . S
C543 H515 0.982 . S
C543 H519 0.979 . S
C543 H520 0.977 . S
C543 C540 1.453 . S
C544 H516 0.979 . S
C544 H517 0.980 . S
C544 H518 0.983 . S
C544 C540 1.684 . S
H545 C563 0.948 . S
H546 C504 0.948 . S
H547 C522 0.979 . S
H548 C522 0.980 . S
H549 C522 0.983 . S
H550 C521 0.982 . S
H551 C521 0.979 . S
H552 C521 0.977 . S
H553 C523 0.948 . S
H554 C525 0.947 . S
H555 C526 0.948 . S
H556 C532 0.982 . S
H557 C532 0.979 . S
H558 C532 0.977 . S
H559 C533 0.979 . S
H560 C533 0.980 . S
H561 C533 0.983 . S
H562 C506 0.947 . S
C563 C506 1.392 . S
C563 C507 1.419 . S
C563 H545 0.948 . S
H564 C572 0.929 . S
H565 C574 0.930 . S
H566 C576 0.930 . S
H567 C579 0.929 . S
H568 C582 0.930 . S
H569 C584 0.960 . S
H570 C584 0.960 . S
H571 C584 0.960 . S
C572 H564 0.929 . S
C572 C573 1.377 . S
C572 C574 1.384 . S
C573 C572 1.377 . S
C573 C579 1.390 . S
C574 H565 0.930 . S
C574 C572 1.384 . S
C574 C575 1.372 . S
C575 C574 1.372 . S
C575 C576 1.400 . S
C575 C580 1.490 . S
C576 H566 0.930 . S
C576 C575 1.400 . S
C576 C579 1.386 . S
H577 C593 0.930 . S
H578 C594 0.956 . S
C579 H567 0.929 . S
C579 C573 1.390 . S
C579 C576 1.386 . S
C580 C575 1.490 . S
C580 C582 1.395 . S
C580 C583 1.403 . S
H581 C587 0.930 . S
C582 H568 0.930 . S
C582 C580 1.395 . S
C582 C585 1.403 . S
C583 C580 1.403 . S
C583 C584 1.524 . S
C583 C587 1.400 . S
C584 H569 0.960 . S
C584 H570 0.960 . S
C584 H571 0.960 . S
C584 C583 1.524 . S
C585 C582 1.403 . S
C585 C586 1.392 . S
C585 C589 1.495 . S
C586 C585 1.392 . S
C586 C587 1.385 . S
C586 C588 1.478 . S
C587 H581 0.930 . S
C587 C583 1.400 . S
C587 C586 1.385 . S
C588 C586 1.478 . S
C588 C590 1.381 1_565 S
C588 C594 1.384 . S
C589 C585 1.495 . S
C589 H595 0.959 . S
C589 H596 0.961 . S
C589 H597 0.960 . S
C590 C588 1.381 1_545 S
C590 C591 1.394 . S
C590 H598 0.930 . S
C591 C590 1.394 . S
C591 C592 1.383 . S
C591 H599 0.929 . S
C592 C591 1.383 . S
C592 C593 1.377 . S
C593 H577 0.930 . S
C593 C592 1.377 . S
C593 C594 1.354 1_545 S
C594 H578 0.956 . S
C594 C588 1.384 . S
C594 C593 1.354 1_565 S
H595 C589 0.959 . S
H596 C589 0.961 . S
H597 C589 0.960 . S
H598 C590 0.930 . S
H599 C591 0.929 . S
H600 C608 0.929 . S
H601 C610 0.930 . S
H602 C612 0.930 . S
H603 C615 0.929 . S
H604 C618 0.930 . S
H605 C620 0.960 . S
H606 C620 0.960 . S
H607 C620 0.960 . S
C608 H600 0.929 . S
C608 C609 1.377 . S
C608 C610 1.384 . S
C609 C608 1.377 . S
C609 C615 1.390 . S
C610 H601 0.930 . S
C610 C608 1.384 . S
C610 C611 1.372 . S
C611 C610 1.372 . S
C611 C612 1.400 . S
C611 C616 1.490 . S
C612 H602 0.930 . S
C612 C611 1.400 . S
C612 C615 1.386 . S
H613 C629 0.930 . S
H614 C630 0.931 . S
C615 H603 0.929 . S
C615 C609 1.390 . S
C615 C612 1.386 . S
C616 C611 1.490 . S
C616 C618 1.395 . S
C616 C619 1.403 . S
H617 C623 0.930 . S
C618 H604 0.930 . S
C618 C616 1.395 . S
C618 C621 1.403 . S
C619 C616 1.403 . S
C619 C620 1.524 . S
C619 C623 1.400 . S
C620 H605 0.960 . S
C620 H606 0.960 . S
C620 H607 0.960 . S
C620 C619 1.524 . S
C621 C618 1.403 . S
C621 C622 1.392 . S
C621 C625 1.495 . S
C622 C621 1.392 . S
C622 C623 1.385 . S
C622 C624 1.478 . S
C623 H617 0.930 . S
C623 C619 1.400 . S
C623 C622 1.385 . S
C624 C622 1.478 . S
C624 C626 1.381 . S
C624 C630 1.383 . S
C625 C621 1.495 . S
C625 H631 0.959 . S
C625 H632 0.961 . S
C625 H633 0.960 . S
C626 C624 1.381 . S
C626 C627 1.394 . S
C626 H634 0.930 . S
C627 C626 1.394 . S
C627 C628 1.383 . S
C627 H635 0.929 . S
C628 C627 1.383 . S
C628 C629 1.377 . S
C629 H613 0.930 . S
C629 C628 1.377 . S
C629 C630 1.379 . S
C630 H614 0.931 . S
C630 C624 1.383 . S
C630 C629 1.379 . S
H631 C625 0.959 . S
H632 C625 0.961 . S
H633 C625 0.960 . S
H634 C626 0.930 . S
H635 C627 0.929 . S
H636 C644 0.929 . S
H637 C646 0.930 . S
H638 C648 0.930 . S
H639 C651 0.929 . S
H640 C654 0.930 . S
H641 C656 0.960 . S
H642 C656 0.960 . S
H643 C656 0.960 . S
C644 H636 0.929 . S
C644 C645 1.377 . S
C644 C646 1.384 . S
C645 C644 1.377 . S
C645 C651 1.390 . S
C646 H637 0.930 . S
C646 C644 1.384 . S
C646 C647 1.372 . S
C647 C646 1.372 . S
C647 C648 1.400 . S
C647 C652 1.490 . S
C648 H638 0.930 . S
C648 C647 1.400 . S
C648 C651 1.386 . S
H649 C665 0.930 . S
H650 C666 0.931 . S
C651 H639 0.929 . S
C651 C645 1.390 . S
C651 C648 1.386 . S
C652 C647 1.490 . S
C652 C654 1.395 . S
C652 C655 1.403 . S
H653 C659 0.930 . S
C654 H640 0.930 . S
C654 C652 1.395 . S
C654 C657 1.403 . S
C655 C652 1.403 . S
C655 C656 1.524 . S
C655 C659 1.400 . S
C656 H641 0.960 . S
C656 H642 0.960 . S
C656 H643 0.960 . S
C656 C655 1.524 . S
C657 C654 1.403 . S
C657 C658 1.392 . S
C657 C661 1.495 . S
C658 C657 1.392 . S
C658 C659 1.385 . S
C658 C660 1.503 . S
C659 H653 0.930 . S
C659 C655 1.400 . S
C659 C658 1.385 . S
C660 C658 1.503 . S
C660 C662 1.381 . S
C660 C666 1.357 1_545 S
C661 C657 1.495 . S
C661 H667 0.959 . S
C661 H668 0.961 . S
C661 H669 0.960 . S
C662 C660 1.381 . S
C662 C663 1.389 1_545 S
C662 H670 0.935 . S
C663 C662 1.389 1_565 S
C663 C664 1.383 . S
C663 H671 0.929 . S
C664 C663 1.383 . S
C664 C665 1.377 . S
C665 H649 0.930 . S
C665 C664 1.377 . S
C665 C666 1.379 . S
C666 H650 0.931 . S
C666 C660 1.357 1_565 S
C666 C665 1.379 . S
H667 C661 0.959 . S
H668 C661 0.961 . S
H669 C661 0.960 . S
H670 C662 0.935 . S
H671 C663 0.929 . S
H672 C680 0.929 . S
H673 C682 0.930 . S
H674 C684 0.930 . S
H675 C687 0.929 . S
H676 C690 0.930 . S
H677 C692 0.960 . S
H678 C692 0.960 . S
H679 C692 0.960 . S
C680 H672 0.929 . S
C680 C681 1.377 . S
C680 C682 1.384 . S
C681 C680 1.377 . S
C681 C687 1.390 . S
C682 H673 0.930 . S
C682 C680 1.384 . S
C682 C683 1.372 . S
C683 C682 1.372 . S
C683 C684 1.400 . S
C683 C688 1.490 . S
C684 H674 0.930 . S
C684 C683 1.400 . S
C684 C687 1.386 . S
H685 C701 0.930 . S
H686 C702 0.931 . S
C687 H675 0.929 . S
C687 C681 1.390 . S
C687 C684 1.386 . S
C688 C683 1.490 . S
C688 C690 1.395 . S
C688 C691 1.403 . S
H689 C695 0.930 . S
C690 H676 0.930 . S
C690 C688 1.395 . S
C690 C693 1.403 . S
C691 C688 1.403 . S
C691 C692 1.524 . S
C691 C695 1.400 . S
C692 H677 0.960 . S
C692 H678 0.960 . S
C692 H679 0.960 . S
C692 C691 1.524 . S
C693 C690 1.403 . S
C693 C694 1.392 . S
C693 C697 1.495 . S
C694 C693 1.392 . S
C694 C695 1.385 . S
C694 C696 1.478 . S
C695 H689 0.930 . S
C695 C691 1.400 . S
C695 C694 1.385 . S
C696 C694 1.478 . S
C696 C698 1.381 . S
C696 C702 1.383 . S
C697 C693 1.495 . S
C697 H703 0.959 . S
C697 H704 0.961 . S
C697 H705 0.960 . S
C698 C696 1.381 . S
C698 C699 1.394 . S
C698 H706 0.930 . S
C699 C698 1.394 . S
C699 C700 1.383 . S
C699 H707 0.929 . S
C700 C699 1.383 . S
C700 C701 1.377 . S
C701 H685 0.930 . S
C701 C700 1.377 . S
C701 C702 1.379 . S
C702 H686 0.931 . S
C702 C696 1.383 . S
C702 C701 1.379 . S
H703 C697 0.959 . S
H704 C697 0.961 . S
H705 C697 0.960 . S
H706 C698 0.930 . S
H707 C699 0.929 . S
H708 C716 0.929 . S
H709 C718 0.930 . S
H710 C720 0.930 . S
H711 C723 0.929 . S
H712 C726 0.930 . S
H713 C728 0.960 . S
H714 C728 0.960 . S
H715 C728 0.960 . S
C716 H708 0.929 . S
C716 C717 1.377 . S
C716 C718 1.384 . S
C717 C716 1.377 . S
C717 C723 1.390 . S
C718 H709 0.930 . S
C718 C716 1.384 . S
C718 C719 1.372 . S
C719 C718 1.372 . S
C719 C720 1.400 . S
C719 C724 1.490 . S
C720 H710 0.930 . S
C720 C719 1.400 . S
C720 C723 1.386 . S
H721 C737 0.930 . S
H722 C738 0.931 . S
C723 H711 0.929 . S
C723 C717 1.390 . S
C723 C720 1.386 . S
C724 C719 1.490 . S
C724 C726 1.395 . S
C724 C727 1.403 . S
H725 C731 0.930 . S
C726 H712 0.930 . S
C726 C724 1.395 . S
C726 C729 1.403 . S
C727 C724 1.403 . S
C727 C728 1.524 . S
C727 C731 1.400 . S
C728 H713 0.960 . S
C728 H714 0.960 . S
C728 H715 0.960 . S
C728 C727 1.524 . S
C729 C726 1.403 . S
C729 C730 1.392 . S
C729 C733 1.495 . S
C730 C729 1.392 . S
C730 C731 1.385 . S
C730 C732 1.478 . S
C731 H725 0.930 . S
C731 C727 1.400 . S
C731 C730 1.385 . S
C732 C730 1.478 . S
C732 C734 1.381 . S
C732 C738 1.383 . S
C733 C729 1.495 . S
C733 H739 0.959 . S
C733 H740 0.961 . S
C733 H741 0.960 . S
C734 C732 1.381 . S
C734 C735 1.394 . S
C734 H742 0.930 . S
C735 C734 1.394 . S
C735 C736 1.383 . S
C735 H743 0.929 . S
C736 C735 1.383 . S
C736 C737 1.377 . S
C737 H721 0.930 . S
C737 C736 1.377 . S
C737 C738 1.379 . S
C738 H722 0.931 . S
C738 C732 1.383 . S
C738 C737 1.379 . S
H739 C733 0.959 . S
H740 C733 0.961 . S
H741 C733 0.960 . S
H742 C734 0.930 . S
H743 C735 0.929 . S
H744 C752 0.929 . S
H745 C754 0.930 . S
H746 C756 0.930 . S
H747 C759 0.929 . S
H748 C762 0.930 . S
H749 C764 0.960 . S
H750 C764 0.960 . S
H751 C764 0.960 . S
C752 H744 0.929 . S
C752 C753 1.377 . S
C752 C754 1.384 . S
C753 C752 1.377 . S
C753 C759 1.390 . S
C754 H745 0.930 . S
C754 C752 1.384 . S
C754 C755 1.372 . S
C755 C754 1.372 . S
C755 C756 1.400 . S
C755 C760 1.490 . S
C756 H746 0.930 . S
C756 C755 1.400 . S
C756 C759 1.386 . S
H757 C773 0.930 . S
H758 C774 0.908 1_655 S
C759 H747 0.929 . S
C759 C753 1.390 . S
C759 C756 1.386 . S
C760 C755 1.490 . S
C760 C762 1.395 . S
C760 C763 1.403 . S
H761 C767 0.930 . S
C762 H748 0.930 . S
C762 C760 1.395 . S
C762 C765 1.403 . S
C763 C760 1.403 . S
C763 C764 1.524 . S
C763 C767 1.400 . S
C764 H749 0.960 . S
C764 H750 0.960 . S
C764 H751 0.960 . S
C764 C763 1.524 . S
C765 C762 1.403 . S
C765 C766 1.392 . S
C765 C769 1.495 1_655 S
C766 C765 1.392 . S
C766 C767 1.385 . S
C766 C768 1.478 1_655 S
C767 H761 0.930 . S
C767 C763 1.400 . S
C767 C766 1.385 . S
C768 C766 1.478 1_455 S
C768 C770 1.381 . S
C768 C774 1.383 . S
C769 C765 1.495 1_455 S
C769 H775 0.957 1_455 S
C769 H776 0.961 . S
C769 H777 0.960 . S
C770 C768 1.381 . S
C770 C771 1.394 . S
C770 H778 0.930 . S
C771 C770 1.394 . S
C771 C772 1.383 . S
C771 H779 0.929 . S
C772 C771 1.383 . S
C772 C773 1.377 . S
C773 H757 0.930 . S
C773 C772 1.377 . S
C773 C774 1.379 . S
C774 H758 0.908 1_455 S
C774 C768 1.383 . S
C774 C773 1.379 . S
H775 C769 0.957 1_655 S
H776 C769 0.961 . S
H777 C769 0.960 . S
H778 C770 0.930 . S
H779 C771 0.929 . S
H780 C788 0.929 . S
H781 C790 0.930 . S
H782 C792 0.930 . S
H783 C795 0.929 . S
H784 C798 0.930 . S
H785 C800 0.960 . S
H786 C800 0.960 . S
H787 C800 0.960 . S
C788 H780 0.929 . S
C788 C789 1.377 . S
C788 C790 1.384 . S
C789 C788 1.377 . S
C789 C795 1.390 . S
C790 H781 0.930 . S
C790 C788 1.384 . S
C790 C791 1.372 . S
C791 C790 1.372 . S
C791 C792 1.400 . S
C791 C796 1.490 . S
C792 H782 0.930 . S
C792 C791 1.400 . S
C792 C795 1.386 . S
H793 C809 0.930 . S
H794 C810 0.931 . S
C795 H783 0.929 . S
C795 C789 1.390 . S
C795 C792 1.386 . S
C796 C791 1.490 . S
C796 C798 1.395 . S
C796 C799 1.403 . S
H797 C803 0.930 . S
C798 H784 0.930 . S
C798 C796 1.395 . S
C798 C801 1.403 . S
C799 C796 1.403 . S
C799 C800 1.524 . S
C799 C803 1.400 . S
C800 H785 0.960 . S
C800 H786 0.960 . S
C800 H787 0.960 . S
C800 C799 1.524 . S
C801 C798 1.403 . S
C801 C802 1.392 . S
C801 C805 1.495 . S
C802 C801 1.392 . S
C802 C803 1.385 . S
C802 C804 1.478 . S
C803 H797 0.930 . S
C803 C799 1.400 . S
C803 C802 1.385 . S
C804 C802 1.478 . S
C804 C806 1.381 . S
C804 C810 1.383 . S
C805 C801 1.495 . S
C805 H811 0.959 . S
C805 H812 0.961 . S
C805 H813 0.960 . S
C806 C804 1.381 . S
C806 C807 1.394 . S
C806 H814 0.930 . S
C807 C806 1.394 . S
C807 C808 1.383 . S
C807 H815 0.929 . S
C808 C807 1.383 . S
C808 C809 1.377 . S
C809 H793 0.930 . S
C809 C808 1.377 . S
C809 C810 1.379 . S
C810 H794 0.931 . S
C810 C804 1.383 . S
C810 C809 1.379 . S
H811 C805 0.959 . S
H812 C805 0.961 . S
H813 C805 0.960 . S
H814 C806 0.930 . S
H815 C807 0.929 . S
H816 C824 0.929 . S
H817 C826 0.930 . S
H818 C828 0.930 . S
H819 C831 0.929 . S
H820 C834 0.930 . S
H821 C836 0.960 . S
H822 C836 0.960 . S
H823 C836 0.960 . S
C824 H816 0.929 . S
C824 C825 1.377 . S
C824 C826 1.384 . S
C825 C824 1.377 . S
C825 C831 1.390 . S
C826 H817 0.930 . S
C826 C824 1.384 . S
C826 C827 1.372 . S
C827 C826 1.372 . S
C827 C828 1.400 . S
C827 C832 1.490 . S
C828 H818 0.930 . S
C828 C827 1.400 . S
C828 C831 1.386 . S
H829 C845 0.930 . S
H830 C846 0.931 . S
C831 H819 0.929 . S
C831 C825 1.390 . S
C831 C828 1.386 . S
C832 C827 1.490 . S
C832 C834 1.395 . S
C832 C835 1.403 . S
H833 C839 0.930 . S
C834 H820 0.930 . S
C834 C832 1.395 . S
C834 C837 1.403 . S
C835 C832 1.403 . S
C835 C836 1.524 . S
C835 C839 1.400 . S
C836 H821 0.960 . S
C836 H822 0.960 . S
C836 H823 0.960 . S
C836 C835 1.524 . S
C837 C834 1.403 . S
C837 C838 1.392 . S
C837 C841 1.495 . S
C838 C837 1.392 . S
C838 C839 1.385 . S
C838 C840 1.478 1_455 S
C839 H833 0.930 . S
C839 C835 1.400 . S
C839 C838 1.385 . S
C840 C838 1.478 1_655 S
C840 C842 1.381 . S
C840 C846 1.383 . S
C841 C837 1.495 . S
C841 H847 0.959 . S
C841 H848 0.961 1_455 S
C841 H849 0.960 1_455 S
C842 C840 1.381 . S
C842 C843 1.394 . S
C842 H850 0.938 . S
C843 C842 1.394 . S
C843 C844 1.383 . S
C843 H851 0.929 . S
C844 C843 1.383 . S
C844 C845 1.377 . S
C845 H829 0.930 . S
C845 C844 1.377 . S
C845 C846 1.379 . S
C846 H830 0.931 . S
C846 C840 1.383 . S
C846 C845 1.379 . S
H847 C841 0.959 . S
H848 C841 0.961 1_655 S
H849 C841 0.960 1_655 S
H850 C842 0.938 . S
H851 C843 0.929 . S
H852 C860 0.929 . S
H853 C862 0.930 . S
H854 C864 0.930 . S
H855 C867 0.929 . S
H856 C870 0.930 . S
H857 C872 0.960 1_565 S
H858 C872 0.960 . S
H859 C872 0.960 . S
C860 H852 0.929 . S
C860 C861 1.377 . S
C860 C862 1.384 . S
C861 C860 1.377 . S
C861 C867 1.390 . S
C862 H853 0.930 . S
C862 C860 1.384 . S
C862 C863 1.372 . S
C863 C862 1.372 . S
C863 C864 1.400 . S
C863 C868 1.490 . S
C864 H854 0.930 . S
C864 C863 1.400 . S
C864 C867 1.386 . S
H865 C881 0.930 . S
H866 C882 0.931 . S
C867 H855 0.929 . S
C867 C861 1.390 . S
C867 C864 1.386 . S
C868 C863 1.490 . S
C868 C870 1.395 . S
C868 C871 1.403 . S
H869 C875 0.930 . S
C870 H856 0.930 . S
C870 C868 1.395 . S
C870 C873 1.403 . S
C871 C868 1.403 . S
C871 C872 1.524 . S
C871 C875 1.400 1_545 S
C872 H857 0.960 1_545 S
C872 H858 0.960 . S
C872 H859 0.960 . S
C872 C871 1.524 . S
C873 C870 1.403 . S
C873 C874 1.392 1_545 S
C873 C877 1.495 . S
C874 C873 1.392 1_565 S
C874 C875 1.385 . S
C874 C876 1.478 . S
C875 H869 0.930 . S
C875 C871 1.400 1_565 S
C875 C874 1.385 . S
C876 C874 1.478 . S
C876 C878 1.381 . S
C876 C882 1.383 . S
C877 C873 1.495 . S
C877 H883 0.959 . S
C877 H884 0.979 . S
C877 H885 0.954 1_545 S
C878 C876 1.381 . S
C878 C879 1.394 . S
C878 H886 0.930 . S
C879 C878 1.394 . S
C879 C880 1.383 . S
C879 H887 0.929 . S
C880 C879 1.383 . S
C880 C881 1.377 . S
C881 H865 0.930 . S
C881 C880 1.377 . S
C881 C882 1.379 . S
C882 H866 0.931 . S
C882 C876 1.383 . S
C882 C881 1.379 . S
H883 C877 0.959 . S
H884 C877 0.979 . S
H885 C877 0.954 1_565 S
H886 C878 0.930 . S
H887 C879 0.929 . S
H888 C896 0.929 . S
H889 C898 0.930 . S
H890 C900 0.930 . S
H891 C903 0.929 . S
H892 C906 0.930 . S
H893 C908 0.960 . S
H894 C908 0.960 . S
H895 C908 0.960 . S
C896 H888 0.929 . S
C896 C897 1.377 . S
C896 C898 1.384 . S
C897 C896 1.377 . S
C897 C903 1.390 . S
C898 H889 0.930 . S
C898 C896 1.384 . S
C898 C899 1.372 . S
C899 C898 1.372 . S
C899 C900 1.400 . S
C899 C904 1.490 . S
C900 H890 0.930 . S
C900 C899 1.400 . S
C900 C903 1.386 . S
H901 C917 0.930 . S
H902 C918 0.931 . S
C903 H891 0.929 . S
C903 C897 1.390 . S
C903 C900 1.386 . S
C904 C899 1.490 . S
C904 C906 1.395 . S
C904 C907 1.403 . S
H905 C911 0.930 . S
C906 H892 0.930 . S
C906 C904 1.395 . S
C906 C909 1.403 . S
C907 C904 1.403 . S
C907 C908 1.524 . S
C907 C911 1.400 . S
C908 H893 0.960 . S
C908 H894 0.960 . S
C908 H895 0.960 . S
C908 C907 1.524 . S
C909 C906 1.403 . S
C909 C910 1.392 . S
C909 C913 1.495 . S
C910 C909 1.392 . S
C910 C911 1.385 . S
C910 C912 1.478 . S
C911 H905 0.930 . S
C911 C907 1.400 . S
C911 C910 1.385 . S
C912 C910 1.478 . S
C912 C914 1.381 . S
C912 C918 1.383 . S
C913 C909 1.495 . S
C913 H919 0.959 . S
C913 H920 0.961 . S
C913 H921 0.960 . S
C914 C912 1.381 . S
C914 C915 1.394 . S
C914 H922 0.930 . S
C915 C914 1.394 . S
C915 C916 1.383 . S
C915 H923 0.929 . S
C916 C915 1.383 . S
C916 C917 1.377 . S
C917 H901 0.930 . S
C917 C916 1.377 . S
C917 C918 1.379 . S
C918 H902 0.931 . S
C918 C912 1.383 . S
C918 C917 1.379 . S
H919 C913 0.959 . S
H920 C913 0.961 . S
H921 C913 0.960 . S
H922 C914 0.930 . S
H923 C915 0.929 . S
H924 C932 0.929 . S
H925 C934 0.930 . S
H926 C936 0.930 . S
H927 C939 0.929 . S
H928 C942 0.930 . S
H929 C944 0.960 1_545 S
H930 C944 0.960 . S
H931 C944 0.960 . S
C932 H924 0.929 . S
C932 C933 1.377 . S
C932 C934 1.384 . S
C933 C932 1.377 . S
C933 C939 1.390 . S
C934 H925 0.930 . S
C934 C932 1.384 . S
C934 C935 1.372 . S
C935 C934 1.372 . S
C935 C936 1.400 . S
C935 C940 1.490 . S
C936 H926 0.930 . S
C936 C935 1.400 . S
C936 C939 1.386 . S
H937 C953 0.930 . S
H938 C954 0.931 . S
C939 H927 0.929 . S
C939 C933 1.390 . S
C939 C936 1.386 . S
C940 C935 1.490 . S
C940 C942 1.395 . S
C940 C943 1.403 . S
H941 C947 0.930 . S
C942 H928 0.930 . S
C942 C940 1.395 . S
C942 C945 1.403 . S
C943 C940 1.403 . S
C943 C944 1.524 . S
C943 C947 1.400 1_565 S
C944 H929 0.960 1_565 S
C944 H930 0.960 . S
C944 H931 0.960 . S
C944 C943 1.524 . S
C945 C942 1.403 . S
C945 C946 1.392 1_565 S
C945 C949 1.495 . S
C946 C945 1.392 1_545 S
C946 C947 1.385 . S
C946 C948 1.478 . S
C947 H941 0.930 . S
C947 C943 1.400 1_545 S
C947 C946 1.385 . S
C948 C946 1.478 . S
C948 C950 1.381 . S
C948 C954 1.383 . S
C949 C945 1.495 . S
C949 H955 0.959 . S
C949 H956 0.961 . S
C949 H957 0.933 1_565 S
C950 C948 1.381 . S
C950 C951 1.394 . S
C950 H958 0.930 . S
C951 C950 1.394 . S
C951 C952 1.383 . S
C951 H959 0.929 . S
C952 C951 1.383 . S
C952 C953 1.377 . S
C953 H937 0.930 . S
C953 C952 1.377 . S
C953 C954 1.379 . S
C954 H938 0.931 . S
C954 C948 1.383 . S
C954 C953 1.379 . S
H955 C949 0.959 . S
H956 C949 0.961 . S
H957 C949 0.933 1_545 S
H958 C950 0.930 . S
H959 C951 0.929 . S
H960 C968 0.929 . S
H961 C970 0.930 . S
H962 C972 0.930 . S
H963 C975 0.929 . S
H964 C978 0.930 . S
H965 C980 0.960 . S
H966 C980 0.960 . S
H967 C980 0.960 . S
C968 H960 0.929 . S
C968 C969 1.377 . S
C968 C970 1.384 . S
C969 C968 1.377 . S
C969 C975 1.390 . S
C970 H961 0.930 . S
C970 C968 1.384 . S
C970 C971 1.372 . S
C971 C970 1.372 . S
C971 C972 1.400 . S
C971 C976 1.490 . S
C972 H962 0.930 . S
C972 C971 1.400 . S
C972 C975 1.386 . S
H973 C989 0.930 . S
H974 C990 0.931 . S
C975 H963 0.929 . S
C975 C969 1.390 . S
C975 C972 1.386 . S
C976 C971 1.490 . S
C976 C978 1.395 . S
C976 C979 1.403 . S
H977 C983 0.930 . S
C978 H964 0.930 . S
C978 C976 1.395 . S
C978 C981 1.403 . S
C979 C976 1.403 . S
C979 C980 1.524 . S
C979 C983 1.400 . S
C980 H965 0.960 . S
C980 H966 0.960 . S
C980 H967 0.960 . S
C980 C979 1.524 . S
C981 C978 1.403 . S
C981 C982 1.392 . S
C981 C985 1.495 . S
C982 C981 1.392 . S
C982 C983 1.385 . S
C982 C984 1.478 . S
C983 H977 0.930 . S
C983 C979 1.400 . S
C983 C982 1.385 . S
C984 C982 1.478 . S
C984 C986 1.381 . S
C984 C990 1.383 . S
C985 C981 1.495 . S
C985 H991 0.959 . S
C985 H992 0.961 . S
C985 H993 0.960 . S
C986 C984 1.381 . S
C986 C987 1.394 . S
C986 H994 0.930 . S
C987 C986 1.394 . S
C987 C988 1.383 . S
C987 H995 0.929 . S
C988 C987 1.383 . S
C988 C989 1.377 . S
C989 H973 0.930 . S
C989 C988 1.377 . S
C989 C990 1.379 . S
C990 H974 0.931 . S
C990 C984 1.383 . S
C990 C989 1.379 . S
H991 C985 0.959 . S
H992 C985 0.961 . S
H993 C985 0.960 . S
H994 C986 0.930 . S
H995 C987 0.929 . S
H996 C1004 0.929 . S
H997 C1006 0.930 . S
H998 C1008 0.930 . S
H999 C1011 0.929 . S
H1000 C1014 0.930 . S
H1001 C1016 0.960 . S
H1002 C1016 0.960 . S
H1003 C1016 0.960 . S
C1004 H996 0.929 . S
C1004 C1005 1.377 . S
C1004 C1006 1.384 . S
C1005 C1004 1.377 . S
C1005 C1011 1.390 . S
C1006 H997 0.930 . S
C1006 C1004 1.384 . S
C1006 C1007 1.372 . S
C1007 C1006 1.372 . S
C1007 C1008 1.400 . S
C1007 C1012 1.490 . S
C1008 H998 0.930 . S
C1008 C1007 1.400 . S
C1008 C1011 1.386 . S
H1009 C1025 0.930 . S
H1010 C1026 0.931 . S
C1011 H999 0.929 . S
C1011 C1005 1.390 . S
C1011 C1008 1.386 . S
C1012 C1007 1.490 . S
C1012 C1014 1.395 . S
C1012 C1015 1.403 . S
H1013 C1019 0.930 . S
C1014 H1000 0.930 . S
C1014 C1012 1.395 . S
C1014 C1017 1.403 . S
C1015 C1012 1.403 . S
C1015 C1016 1.524 . S
C1015 C1019 1.400 . S
C1016 H1001 0.960 . S
C1016 H1002 0.960 . S
C1016 H1003 0.960 . S
C1016 C1015 1.524 . S
C1017 C1014 1.403 . S
C1017 C1018 1.392 . S
C1017 C1021 1.495 . S
C1018 C1017 1.392 . S
C1018 C1019 1.385 . S
C1018 C1020 1.478 . S
C1019 H1013 0.930 . S
C1019 C1015 1.400 . S
C1019 C1018 1.385 . S
C1020 C1018 1.478 . S
C1020 C1022 1.381 . S
C1020 C1026 1.383 . S
C1021 C1017 1.495 . S
C1021 H1027 0.959 . S
C1021 H1028 0.961 . S
C1021 H1029 0.960 . S
C1022 C1020 1.381 . S
C1022 C1023 1.394 . S
C1022 H1030 0.930 . S
C1023 C1022 1.394 . S
C1023 C1024 1.383 . S
C1023 H1031 0.929 . S
C1024 C1023 1.383 . S
C1024 C1025 1.377 . S
C1025 H1009 0.930 . S
C1025 C1024 1.377 . S
C1025 C1026 1.379 . S
C1026 H1010 0.931 . S
C1026 C1020 1.383 . S
C1026 C1025 1.379 . S
H1027 C1021 0.959 . S
H1028 C1021 0.961 . S
H1029 C1021 0.960 . S
H1030 C1022 0.930 . S
H1031 C1023 0.929 . S
H1032 C1040 0.929 . S
H1033 C1042 0.930 . S
H1034 C1044 0.930 . S
H1035 C1047 0.929 . S
H1036 C1050 0.930 . S
H1037 C1052 0.960 1_655 S
H1038 C1052 0.960 . S
H1039 C1052 0.960 . S
C1040 H1032 0.929 . S
C1040 C1041 1.377 . S
C1040 C1042 1.384 . S
C1041 C1040 1.377 . S
C1041 C1047 1.390 . S
C1042 H1033 0.930 . S
C1042 C1040 1.384 . S
C1042 C1043 1.372 . S
C1043 C1042 1.372 . S
C1043 C1044 1.400 . S
C1043 C1048 1.490 . S
C1044 H1034 0.930 . S
C1044 C1043 1.400 . S
C1044 C1047 1.386 . S
H1045 C1061 0.930 . S
H1046 C1062 0.931 . S
C1047 H1035 0.929 . S
C1047 C1041 1.390 . S
C1047 C1044 1.386 . S
C1048 C1043 1.490 . S
C1048 C1050 1.395 . S
C1048 C1051 1.403 . S
H1049 C1055 0.930 . S
C1050 H1036 0.930 . S
C1050 C1048 1.395 . S
C1050 C1053 1.403 . S
C1051 C1048 1.403 . S
C1051 C1052 1.524 . S
C1051 C1055 1.400 1_455 S
C1052 H1037 0.960 1_455 S
C1052 H1038 0.960 . S
C1052 H1039 0.960 . S
C1052 C1051 1.524 . S
C1053 C1050 1.403 . S
C1053 C1054 1.392 1_455 S
C1053 C1057 1.495 . S
C1054 C1053 1.392 1_655 S
C1054 C1055 1.385 . S
C1054 C1056 1.478 . S
C1055 H1049 0.930 . S
C1055 C1051 1.400 1_655 S
C1055 C1054 1.385 . S
C1056 C1054 1.478 . S
C1056 C1058 1.381 . S
C1056 C1062 1.383 . S
C1057 C1053 1.495 . S
C1057 H1063 0.959 . S
C1057 H1064 0.973 . S
C1057 H1065 0.962 1_455 S
C1058 C1056 1.381 . S
C1058 C1059 1.394 . S
C1058 H1066 0.930 . S
C1059 C1058 1.394 . S
C1059 C1060 1.383 . S
C1059 H1067 0.929 . S
C1060 C1059 1.383 . S
C1060 C1061 1.377 . S
C1061 H1045 0.930 . S
C1061 C1060 1.377 . S
C1061 C1062 1.379 . S
C1062 H1046 0.931 . S
C1062 C1056 1.383 . S
C1062 C1061 1.379 . S
H1063 C1057 0.959 . S
H1064 C1057 0.973 . S
H1065 C1057 0.962 1_655 S
H1066 C1058 0.930 . S
H1067 C1059 0.929 . S
H1068 C1076 0.929 . S
H1069 C1078 0.930 . S
H1070 C1080 0.930 . S
H1071 C1083 0.929 . S
H1072 C1086 0.930 . S
H1073 C1088 0.960 . S
H1074 C1088 0.960 . S
H1075 C1088 0.960 . S
C1076 H1068 0.929 . S
C1076 C1077 1.377 . S
C1076 C1078 1.384 . S
C1077 C1076 1.377 . S
C1077 C1083 1.390 . S
C1078 H1069 0.930 . S
C1078 C1076 1.384 . S
C1078 C1079 1.372 . S
C1079 C1078 1.372 . S
C1079 C1080 1.400 . S
C1079 C1084 1.490 . S
C1080 H1070 0.930 . S
C1080 C1079 1.400 . S
C1080 C1083 1.386 . S
H1081 C1097 0.930 . S
H1082 C1098 0.931 . S
C1083 H1071 0.929 . S
C1083 C1077 1.390 . S
C1083 C1080 1.386 . S
C1084 C1079 1.490 . S
C1084 C1086 1.395 . S
C1084 C1087 1.403 . S
H1085 C1091 0.930 . S
C1086 H1072 0.930 . S
C1086 C1084 1.395 . S
C1086 C1089 1.403 . S
C1087 C1084 1.403 . S
C1087 C1088 1.524 . S
C1087 C1091 1.400 . S
C1088 H1073 0.960 . S
C1088 H1074 0.960 . S
C1088 H1075 0.960 . S
C1088 C1087 1.524 . S
C1089 C1086 1.403 . S
C1089 C1090 1.392 . S
C1089 C1093 1.495 . S
C1090 C1089 1.392 . S
C1090 C1091 1.385 . S
C1090 C1092 1.478 . S
C1091 H1085 0.930 . S
C1091 C1087 1.400 . S
C1091 C1090 1.385 . S
C1092 C1090 1.478 . S
C1092 C1094 1.381 . S
C1092 C1098 1.383 . S
C1093 C1089 1.495 . S
C1093 H1099 0.959 . S
C1093 H1100 0.961 . S
C1093 H1101 0.960 . S
C1094 C1092 1.381 . S
C1094 C1095 1.394 . S
C1094 H1102 0.930 . S
C1095 C1094 1.394 . S
C1095 C1096 1.383 . S
C1095 H1103 0.929 . S
C1096 C1095 1.383 . S
C1096 C1097 1.377 . S
C1097 H1081 0.930 . S
C1097 C1096 1.377 . S
C1097 C1098 1.379 . S
C1098 H1082 0.931 . S
C1098 C1092 1.383 . S
C1098 C1097 1.379 . S
H1099 C1093 0.959 . S
H1100 C1093 0.961 . S
H1101 C1093 0.960 . S
H1102 C1094 0.930 . S
H1103 C1095 0.929 . S
H1104 C1112 0.929 . S
H1105 C1114 0.930 . S
H1106 C1116 0.930 . S
H1107 C1119 0.929 . S
H1108 C1122 0.930 . S
H1109 C1124 0.960 . S
H1110 C1124 0.960 . S
H1111 C1124 0.960 . S
C1112 H1104 0.929 . S
C1112 C1113 1.377 . S
C1112 C1114 1.384 . S
C1113 C1112 1.377 . S
C1113 C1119 1.390 . S
C1114 H1105 0.930 . S
C1114 C1112 1.384 . S
C1114 C1115 1.372 . S
C1115 C1114 1.372 . S
C1115 C1116 1.400 . S
C1115 C1120 1.490 . S
C1116 H1106 0.930 . S
C1116 C1115 1.400 . S
C1116 C1119 1.386 . S
H1117 C1133 0.930 . S
H1118 C1134 0.931 . S
C1119 H1107 0.929 . S
C1119 C1113 1.390 . S
C1119 C1116 1.386 . S
C1120 C1115 1.490 . S
C1120 C1122 1.395 . S
C1120 C1123 1.403 . S
H1121 C1127 0.930 1_455 S
C1122 H1108 0.930 . S
C1122 C1120 1.395 . S
C1122 C1125 1.403 1_655 S
C1123 C1120 1.403 . S
C1123 C1124 1.524 . S
C1123 C1127 1.400 . S
C1124 H1109 0.960 . S
C1124 H1110 0.960 . S
C1124 H1111 0.960 . S
C1124 C1123 1.524 . S
C1125 C1122 1.403 1_455 S
C1125 C1126 1.392 . S
C1125 C1129 1.495 . S
C1126 C1125 1.392 . S
C1126 C1127 1.385 1_455 S
C1126 C1128 1.478 . S
C1127 H1121 0.930 1_655 S
C1127 C1123 1.400 . S
C1127 C1126 1.385 1_655 S
C1128 C1126 1.478 . S
C1128 C1130 1.381 . S
C1128 C1134 1.383 . S
C1129 C1125 1.495 . S
C1129 H1135 0.959 . S
C1129 H1136 0.961 . S
C1129 H1137 0.960 . S
C1130 C1128 1.381 . S
C1130 C1131 1.394 . S
C1130 H1138 0.930 . S
C1131 C1130 1.394 . S
C1131 C1132 1.383 . S
C1131 H1139 0.929 . S
C1132 C1131 1.383 . S
C1132 C1133 1.377 . S
C1133 H1117 0.930 . S
C1133 C1132 1.377 . S
C1133 C1134 1.379 . S
C1134 H1118 0.931 . S
C1134 C1128 1.383 . S
C1134 C1133 1.379 . S
H1135 C1129 0.959 . S
H1136 C1129 0.961 . S
H1137 C1129 0.960 . S
H1138 C1130 0.930 . S
H1139 C1131 0.929 . S
H1140 C1148 0.929 . S
H1141 C1150 0.930 . S
H1142 C1152 0.930 . S
H1143 C1155 0.929 . S
H1144 C1158 0.930 . S
H1145 C1160 0.960 . S
H1146 C1160 0.960 . S
H1147 C1160 0.960 . S
C1148 H1140 0.929 . S
C1148 C1149 1.377 . S
C1148 C1150 1.384 . S
C1149 C1148 1.377 . S
C1149 C1155 1.390 . S
C1150 H1141 0.930 . S
C1150 C1148 1.384 . S
C1150 C1151 1.372 . S
C1151 C1150 1.372 . S
C1151 C1152 1.400 . S
C1151 C1156 1.490 . S
C1152 H1142 0.930 . S
C1152 C1151 1.400 . S
C1152 C1155 1.386 . S
H1153 C1169 0.930 . S
H1154 C1170 0.931 . S
C1155 H1143 0.929 . S
C1155 C1149 1.390 . S
C1155 C1152 1.386 . S
C1156 C1151 1.490 . S
C1156 C1158 1.395 . S
C1156 C1159 1.403 . S
H1157 C1163 0.930 . S
C1158 H1144 0.930 . S
C1158 C1156 1.395 . S
C1158 C1161 1.403 . S
C1159 C1156 1.403 . S
C1159 C1160 1.524 . S
C1159 C1163 1.400 . S
C1160 H1145 0.960 . S
C1160 H1146 0.960 . S
C1160 H1147 0.960 . S
C1160 C1159 1.524 . S
C1161 C1158 1.403 . S
C1161 C1162 1.392 . S
C1161 C1165 1.495 . S
C1162 C1161 1.392 . S
C1162 C1163 1.385 . S
C1162 C1164 1.478 . S
C1163 H1157 0.930 . S
C1163 C1159 1.400 . S
C1163 C1162 1.385 . S
C1164 C1162 1.478 . S
C1164 C1166 1.381 . S
C1164 C1170 1.383 . S
C1165 C1161 1.495 . S
C1165 H1171 0.959 . S
C1165 H1172 0.961 . S
C1165 H1173 0.960 . S
C1166 C1164 1.381 . S
C1166 C1167 1.394 . S
C1166 H1174 0.930 . S
C1167 C1166 1.394 . S
C1167 C1168 1.383 . S
C1167 H1175 0.929 . S
C1168 C1167 1.383 . S
C1168 C1169 1.377 . S
C1169 H1153 0.930 . S
C1169 C1168 1.377 . S
C1169 C1170 1.379 . S
C1170 H1154 0.931 . S
C1170 C1164 1.383 . S
C1170 C1169 1.379 . S
H1171 C1165 0.959 . S
H1172 C1165 0.961 . S
H1173 C1165 0.960 . S
H1174 C1166 0.930 . S
H1175 C1167 0.929 . S
H1176 C1184 0.929 . S
H1177 C1186 0.930 . S
H1178 C1188 0.930 . S
H1179 C1191 0.929 . S
H1180 C1194 0.930 . S
H1181 C1196 0.960 . S
H1182 C1196 0.960 . S
H1183 C1196 0.960 . S
C1184 H1176 0.929 . S
C1184 C1185 1.377 . S
C1184 C1186 1.384 . S
C1185 C1184 1.377 . S
C1185 C1191 1.390 . S
C1186 H1177 0.930 . S
C1186 C1184 1.384 . S
C1186 C1187 1.372 . S
C1187 C1186 1.372 . S
C1187 C1188 1.400 . S
C1187 C1192 1.490 . S
C1188 H1178 0.930 . S
C1188 C1187 1.400 . S
C1188 C1191 1.386 . S
H1189 C1205 0.930 . S
H1190 C1206 0.931 . S
C1191 H1179 0.929 . S
C1191 C1185 1.390 . S
C1191 C1188 1.386 . S
C1192 C1187 1.490 . S
C1192 C1194 1.395 . S
C1192 C1195 1.403 . S
H1193 C1199 0.930 . S
C1194 H1180 0.930 . S
C1194 C1192 1.395 . S
C1194 C1197 1.403 . S
C1195 C1192 1.403 . S
C1195 C1196 1.524 . S
C1195 C1199 1.400 . S
C1196 H1181 0.960 . S
C1196 H1182 0.960 . S
C1196 H1183 0.960 . S
C1196 C1195 1.524 . S
C1197 C1194 1.403 . S
C1197 C1198 1.392 . S
C1197 C1201 1.495 . S
C1198 C1197 1.392 . S
C1198 C1199 1.385 . S
C1198 C1200 1.478 . S
C1199 H1193 0.930 . S
C1199 C1195 1.400 . S
C1199 C1198 1.385 . S
C1200 C1198 1.478 . S
C1200 C1202 1.381 . S
C1200 C1206 1.383 . S
C1201 C1197 1.495 . S
C1201 H1207 0.959 . S
C1201 H1208 0.961 . S
C1201 H1209 0.960 . S
C1202 C1200 1.381 . S
C1202 C1203 1.394 . S
C1202 H1210 0.930 . S
C1203 C1202 1.394 . S
C1203 C1204 1.383 . S
C1203 H1211 0.929 . S
C1204 C1203 1.383 . S
C1204 C1205 1.377 . S
C1205 H1189 0.930 . S
C1205 C1204 1.377 . S
C1205 C1206 1.379 . S
C1206 H1190 0.931 . S
C1206 C1200 1.383 . S
C1206 C1205 1.379 . S
H1207 C1201 0.959 . S
H1208 C1201 0.961 . S
H1209 C1201 0.960 . S
H1210 C1202 0.930 . S
H1211 C1203 0.929 . S
H1212 C1220 0.929 . S
H1213 C1222 0.930 . S
H1214 C1224 0.930 . S
H1215 C1227 0.929 . S
H1216 C1230 0.930 . S
H1217 C1232 0.960 . S
H1218 C1232 0.960 . S
H1219 C1232 0.960 . S
C1220 H1212 0.929 . S
C1220 C1221 1.377 . S
C1220 C1222 1.384 . S
C1221 C1220 1.377 . S
C1221 C1227 1.390 . S
C1222 H1213 0.930 . S
C1222 C1220 1.384 . S
C1222 C1223 1.372 . S
C1223 C1222 1.372 . S
C1223 C1224 1.400 . S
C1223 C1228 1.490 . S
C1224 H1214 0.930 . S
C1224 C1223 1.400 . S
C1224 C1227 1.386 . S
H1225 C1241 0.930 . S
H1226 C1242 0.931 . S
C1227 H1215 0.929 . S
C1227 C1221 1.390 . S
C1227 C1224 1.386 . S
C1228 C1223 1.490 . S
C1228 C1230 1.395 . S
C1228 C1231 1.403 . S
H1229 C1235 0.930 . S
C1230 H1216 0.930 . S
C1230 C1228 1.395 . S
C1230 C1233 1.403 . S
C1231 C1228 1.403 . S
C1231 C1232 1.524 . S
C1231 C1235 1.400 . S
C1232 H1217 0.960 . S
C1232 H1218 0.960 . S
C1232 H1219 0.960 . S
C1232 C1231 1.524 . S
C1233 C1230 1.403 . S
C1233 C1234 1.392 . S
C1233 C1237 1.495 . S
C1234 C1233 1.392 . S
C1234 C1235 1.385 . S
C1234 C1236 1.478 . S
C1235 H1229 0.930 . S
C1235 C1231 1.400 . S
C1235 C1234 1.385 . S
C1236 C1234 1.478 . S
C1236 C1238 1.381 . S
C1236 C1242 1.383 . S
C1237 C1233 1.495 . S
C1237 H1243 0.959 . S
C1237 H1244 0.961 . S
C1237 H1245 0.960 . S
C1238 C1236 1.381 . S
C1238 C1239 1.394 . S
C1238 H1246 0.930 . S
C1239 C1238 1.394 . S
C1239 C1240 1.383 . S
C1239 H1247 0.929 . S
C1240 C1239 1.383 . S
C1240 C1241 1.377 . S
C1241 H1225 0.930 . S
C1241 C1240 1.377 . S
C1241 C1242 1.379 . S
C1242 H1226 0.931 . S
C1242 C1236 1.383 . S
C1242 C1241 1.379 . S
H1243 C1237 0.959 . S
H1244 C1237 0.961 . S
H1245 C1237 0.960 . S
H1246 C1238 0.930 . S
H1247 C1239 0.929 . S
H1248 C1256 0.929 . S
H1249 C1258 0.930 . S
H1250 C1260 0.930 . S
H1251 C1263 0.929 . S
H1252 C1266 0.930 . S
H1253 C1268 0.960 . S
H1254 C1268 0.960 . S
H1255 C1268 0.960 . S
C1256 H1248 0.929 . S
C1256 C1257 1.377 . S
C1256 C1258 1.384 . S
C1257 C1256 1.377 . S
C1257 C1263 1.390 . S
C1258 H1249 0.930 . S
C1258 C1256 1.384 . S
C1258 C1259 1.372 . S
C1259 C1258 1.372 . S
C1259 C1260 1.400 . S
C1259 C1264 1.490 . S
C1260 H1250 0.930 . S
C1260 C1259 1.400 . S
C1260 C1263 1.386 . S
H1261 C1277 0.930 . S
H1262 C1278 0.931 . S
C1263 H1251 0.929 . S
C1263 C1257 1.390 . S
C1263 C1260 1.386 . S
C1264 C1259 1.490 . S
C1264 C1266 1.395 . S
C1264 C1267 1.403 . S
H1265 C1271 0.930 . S
C1266 H1252 0.930 . S
C1266 C1264 1.395 . S
C1266 C1269 1.403 . S
C1267 C1264 1.403 . S
C1267 C1268 1.524 . S
C1267 C1271 1.400 . S
C1268 H1253 0.960 . S
C1268 H1254 0.960 . S
C1268 H1255 0.960 . S
C1268 C1267 1.524 . S
C1269 C1266 1.403 . S
C1269 C1270 1.392 . S
C1269 C1273 1.495 . S
C1270 C1269 1.392 . S
C1270 C1271 1.385 . S
C1270 C1272 1.478 . S
C1271 H1265 0.930 . S
C1271 C1267 1.400 . S
C1271 C1270 1.385 . S
C1272 C1270 1.478 . S
C1272 C1274 1.381 . S
C1272 C1278 1.383 . S
C1273 C1269 1.495 . S
C1273 H1279 0.959 . S
C1273 H1280 0.961 . S
C1273 H1281 0.960 . S
C1274 C1272 1.381 . S
C1274 C1275 1.394 . S
C1274 H1282 0.930 . S
C1275 C1274 1.394 . S
C1275 C1276 1.383 . S
C1275 H1283 0.929 . S
C1276 C1275 1.383 . S
C1276 C1277 1.377 . S
C1277 H1261 0.930 . S
C1277 C1276 1.377 . S
C1277 C1278 1.379 . S
C1278 H1262 0.931 . S
C1278 C1272 1.383 . S
C1278 C1277 1.379 . S
H1279 C1273 0.959 . S
H1280 C1273 0.961 . S
H1281 C1273 0.960 . S
H1282 C1274 0.930 . S
H1283 C1275 0.929 . S
H1284 C1292 0.929 . S
H1285 C1294 0.930 . S
H1286 C1296 0.930 . S
H1287 C1299 0.929 . S
H1288 C1302 0.930 . S
H1289 C1304 0.960 . S
H1290 C1304 0.960 . S
H1291 C1304 0.960 . S
C1292 H1284 0.929 . S
C1292 C1293 1.377 . S
C1292 C1294 1.384 . S
C1293 C1292 1.377 . S
C1293 C1299 1.390 . S
C1294 H1285 0.930 . S
C1294 C1292 1.384 . S
C1294 C1295 1.372 . S
C1295 C1294 1.372 . S
C1295 C1296 1.400 . S
C1295 C1300 1.490 . S
C1296 H1286 0.930 . S
C1296 C1295 1.400 . S
C1296 C1299 1.386 . S
H1297 C1313 0.930 . S
H1298 C1314 0.931 . S
C1299 H1287 0.929 . S
C1299 C1293 1.390 . S
C1299 C1296 1.386 . S
C1300 C1295 1.490 . S
C1300 C1302 1.395 . S
C1300 C1303 1.403 . S
H1301 C1307 0.930 . S
C1302 H1288 0.930 . S
C1302 C1300 1.395 . S
C1302 C1305 1.403 . S
C1303 C1300 1.403 . S
C1303 C1304 1.524 . S
C1303 C1307 1.400 . S
C1304 H1289 0.960 . S
C1304 H1290 0.960 . S
C1304 H1291 0.960 . S
C1304 C1303 1.524 . S
C1305 C1302 1.403 . S
C1305 C1306 1.392 . S
C1305 C1309 1.495 . S
C1306 C1305 1.392 . S
C1306 C1307 1.385 . S
C1306 C1308 1.478 . S
C1307 H1301 0.930 . S
C1307 C1303 1.400 . S
C1307 C1306 1.385 . S
C1308 C1306 1.478 . S
C1308 C1310 1.381 . S
C1308 C1314 1.383 . S
C1309 C1305 1.495 . S
C1309 H1315 0.959 . S
C1309 H1316 0.961 . S
C1309 H1317 0.960 . S
C1310 C1308 1.381 . S
C1310 C1311 1.394 . S
C1310 H1318 0.930 . S
C1311 C1310 1.394 . S
C1311 C1312 1.383 . S
C1311 H1319 0.929 . S
C1312 C1311 1.383 . S
C1312 C1313 1.377 . S
C1313 H1297 0.930 . S
C1313 C1312 1.377 . S
C1313 C1314 1.379 . S
C1314 H1298 0.931 . S
C1314 C1308 1.383 . S
C1314 C1313 1.379 . S
H1315 C1309 0.959 . S
H1316 C1309 0.961 . S
H1317 C1309 0.960 . S
H1318 C1310 0.930 . S
H1319 C1311 0.929 . S
H1320 C1328 0.929 . S
H1321 C1330 0.930 . S
H1322 C1332 0.930 . S
H1323 C1335 0.929 . S
H1324 C1338 0.930 . S
H1325 C1340 0.960 . S
H1326 C1340 0.960 . S
H1327 C1340 0.960 . S
C1328 H1320 0.929 . S
C1328 C1329 1.377 . S
C1328 C1330 1.384 . S
C1329 C1328 1.377 . S
C1329 C1335 1.390 . S
C1330 H1321 0.930 . S
C1330 C1328 1.384 . S
C1330 C1331 1.372 . S
C1331 C1330 1.372 . S
C1331 C1332 1.400 . S
C1331 C1336 1.490 . S
C1332 H1322 0.930 . S
C1332 C1331 1.400 . S
C1332 C1335 1.386 . S
H1333 C1349 0.930 . S
H1334 C1350 0.931 . S
C1335 H1323 0.929 . S
C1335 C1329 1.390 . S
C1335 C1332 1.386 . S
C1336 C1331 1.490 . S
C1336 C1338 1.395 . S
C1336 C1339 1.403 . S
H1337 C1343 0.930 . S
C1338 H1324 0.930 . S
C1338 C1336 1.395 . S
C1338 C1341 1.403 . S
C1339 C1336 1.403 . S
C1339 C1340 1.524 . S
C1339 C1343 1.400 . S
C1340 H1325 0.960 . S
C1340 H1326 0.960 . S
C1340 H1327 0.960 . S
C1340 C1339 1.524 . S
C1341 C1338 1.403 . S
C1341 C1342 1.392 . S
C1341 C1345 1.495 . S
C1342 C1341 1.392 . S
C1342 C1343 1.385 . S
C1342 C1344 1.478 . S
C1343 H1337 0.930 . S
C1343 C1339 1.400 . S
C1343 C1342 1.385 . S
C1344 C1342 1.478 . S
C1344 C1346 1.381 . S
C1344 C1350 1.383 . S
C1345 C1341 1.495 . S
C1345 H1351 0.959 . S
C1345 H1352 0.961 . S
C1345 H1353 0.960 . S
C1346 C1344 1.381 . S
C1346 C1347 1.394 . S
C1346 H1354 0.930 . S
C1347 C1346 1.394 . S
C1347 C1348 1.383 . S
C1347 H1355 0.929 . S
C1348 C1347 1.383 . S
C1348 C1349 1.377 . S
C1349 H1333 0.930 . S
C1349 C1348 1.377 . S
C1349 C1350 1.379 . S
C1350 H1334 0.931 . S
C1350 C1344 1.383 . S
C1350 C1349 1.379 . S
H1351 C1345 0.959 . S
H1352 C1345 0.961 . S
H1353 C1345 0.960 . S
H1354 C1346 0.930 . S
H1355 C1347 0.929 . S
H1356 C1364 0.929 . S
H1357 C1366 0.930 . S
H1358 C1368 0.930 . S
H1359 C1371 0.929 . S
H1360 C1374 0.930 . S
H1361 C1376 0.960 . S
H1362 C1376 0.960 . S
H1363 C1376 0.960 . S
C1364 H1356 0.929 . S
C1364 C1365 1.377 . S
C1364 C1366 1.384 . S
C1365 C1364 1.377 . S
C1365 C1371 1.390 . S
C1366 H1357 0.930 . S
C1366 C1364 1.384 . S
C1366 C1367 1.372 . S
C1367 C1366 1.372 . S
C1367 C1368 1.400 . S
C1367 C1372 1.490 . S
C1368 H1358 0.930 . S
C1368 C1367 1.400 . S
C1368 C1371 1.386 . S
H1369 C1385 0.930 . S
H1370 C1386 0.931 . S
C1371 H1359 0.929 . S
C1371 C1365 1.390 . S
C1371 C1368 1.386 . S
C1372 C1367 1.490 . S
C1372 C1374 1.395 . S
C1372 C1375 1.403 . S
H1373 C1379 0.930 . S
C1374 H1360 0.930 . S
C1374 C1372 1.395 . S
C1374 C1377 1.403 . S
C1375 C1372 1.403 . S
C1375 C1376 1.524 . S
C1375 C1379 1.400 . S
C1376 H1361 0.960 . S
C1376 H1362 0.960 . S
C1376 H1363 0.960 . S
C1376 C1375 1.524 . S
C1377 C1374 1.403 . S
C1377 C1378 1.392 . S
C1377 C1381 1.495 . S
C1378 C1377 1.392 . S
C1378 C1379 1.385 . S
C1378 C1380 1.478 . S
C1379 H1373 0.930 . S
C1379 C1375 1.400 . S
C1379 C1378 1.385 . S
C1380 C1378 1.478 . S
C1380 C1382 1.381 . S
C1380 C1386 1.383 . S
C1381 C1377 1.495 . S
C1381 H1387 0.959 . S
C1381 H1388 0.961 . S
C1381 H1389 0.960 . S
C1382 C1380 1.381 . S
C1382 C1383 1.394 . S
C1382 H1390 0.930 . S
C1383 C1382 1.394 . S
C1383 C1384 1.383 . S
C1383 H1391 0.929 . S
C1384 C1383 1.383 . S
C1384 C1385 1.377 . S
C1385 H1369 0.930 . S
C1385 C1384 1.377 . S
C1385 C1386 1.379 . S
C1386 H1370 0.931 . S
C1386 C1380 1.383 . S
C1386 C1385 1.379 . S
H1387 C1381 0.959 . S
H1388 C1381 0.961 . S
H1389 C1381 0.960 . S
H1390 C1382 0.930 . S
H1391 C1383 0.929 . S
H1392 C1400 0.929 . S
H1393 C1402 0.930 . S
H1394 C1404 0.930 . S
H1395 C1407 0.929 . S
H1396 C1410 0.930 . S
H1397 C1412 0.960 . S
H1398 C1412 0.960 . S
H1399 C1412 0.960 . S
C1400 H1392 0.929 . S
C1400 C1401 1.377 . S
C1400 C1402 1.384 . S
C1401 C1400 1.377 . S
C1401 C1407 1.390 . S
C1402 H1393 0.930 . S
C1402 C1400 1.384 . S
C1402 C1403 1.372 . S
C1403 C1402 1.372 . S
C1403 C1404 1.400 . S
C1403 C1408 1.490 . S
C1404 H1394 0.930 . S
C1404 C1403 1.400 . S
C1404 C1407 1.386 . S
H1405 C1421 0.930 . S
H1406 C1422 0.931 . S
C1407 H1395 0.929 . S
C1407 C1401 1.390 . S
C1407 C1404 1.386 . S
C1408 C1403 1.490 . S
C1408 C1410 1.395 . S
C1408 C1411 1.403 . S
H1409 C1415 0.930 . S
C1410 H1396 0.930 . S
C1410 C1408 1.395 . S
C1410 C1413 1.403 . S
C1411 C1408 1.403 . S
C1411 C1412 1.524 . S
C1411 C1415 1.400 . S
C1412 H1397 0.960 . S
C1412 H1398 0.960 . S
C1412 H1399 0.960 . S
C1412 C1411 1.524 . S
C1413 C1410 1.403 . S
C1413 C1414 1.392 . S
C1413 C1417 1.495 . S
C1414 C1413 1.392 . S
C1414 C1415 1.385 . S
C1414 C1416 1.478 . S
C1415 H1409 0.930 . S
C1415 C1411 1.400 . S
C1415 C1414 1.385 . S
C1416 C1414 1.478 . S
C1416 C1418 1.381 . S
C1416 C1422 1.383 . S
C1417 C1413 1.495 . S
C1417 H1423 0.959 . S
C1417 H1424 0.961 . S
C1417 H1425 0.960 . S
C1418 C1416 1.381 . S
C1418 C1419 1.394 . S
C1418 H1426 0.930 . S
C1419 C1418 1.394 . S
C1419 C1420 1.383 . S
C1419 H1427 0.929 . S
C1420 C1419 1.383 . S
C1420 C1421 1.377 . S
C1421 H1405 0.930 . S
C1421 C1420 1.377 . S
C1421 C1422 1.379 . S
C1422 H1406 0.931 . S
C1422 C1416 1.383 . S
C1422 C1421 1.379 . S
H1423 C1417 0.959 . S
H1424 C1417 0.961 . S
H1425 C1417 0.960 . S
H1426 C1418 0.930 . S
H1427 C1419 0.929 . S
C573 C7 0.616 . S
C592 C85 0.578 . S
C609 C25 0.582 . S
C628 C164 0.543 . S
C645 C46 0.584 . S
C664 C235 0.515 . S
C700 C295 0.544 . S
C681 C70 0.602 . S
C736 C325 0.636 . S
C717 C28 0.606 . S
C753 C49 0.606 . S
C772 C415 0.465 . S
C789 C67 0.585 . S
C808 C475 0.513 . S
C825 C4 0.596 . S
C844 C524 0.482 . S
C861 C58 1.706 . S
C880 C505 1.718 . S
C916 C344 1.778 . S
C897 C66 1.705 . S
C952 C404 1.719 . S
C933 C3 1.707 . S
C969 C37 1.699 . S
C988 C464 1.680 . S
C1024 C145 1.728 . S
C1005 C79 1.709 . S
C1041 C16 1.705 . S
C1060 C224 1.716 . S
C1096 C284 1.723 . S
C1077 C24 1.708 . S
C1132 C104 1.791 . S
C1113 C45 1.697 . S
C1168 C445 1.035 . S
C1149 C19 0.911 . S
C1204 C535 0.972 . S
C1185 C41 0.939 . S
C1221 C62 0.915 . S
C1240 C355 1.009 . S
C1276 C385 0.976 . S
C1257 C82 0.936 . S
C1312 C205 0.971 . S
C1293 C40 0.939 . S
C1329 C61 0.938 . S
C1348 C265 0.978 . S
C1384 C115 1.032 . S
C1365 C83 0.940 . S
C1420 C175 0.971 . S
C1401 C20 0.938 . S
