# Generated by pormake.
# Topology nom, (4,4)-cn, num edge types: 1
# Building blocks:
#     Node 0, Type 0, BuildingBlock: NAWXER_clean_linker_0, # of connection points: 4
#     Node 1, Type 0, BuildingBlock: NAWXER_clean_linker_0, # of connection points: 4
#     Node 2, Type 0, BuildingBlock: NAWXER_clean_linker_0, # of connection points: 4
#     Node 3, Type 0, BuildingBlock: NAWXER_clean_linker_0, # of connection points: 4
#     Node 4, Type 0, BuildingBlock: NAWXER_clean_linker_0, # of connection points: 4
#     Node 5, Type 0, BuildingBlock: NAWXER_clean_linker_0, # of connection points: 4
#     Node 6, Type 1, BuildingBlock: GALJAG_clean_sbu_0, # of connection points: 4
#     Node 7, Type 1, BuildingBlock: GALJAG_clean_sbu_0, # of connection points: 4
#     Node 8, Type 1, BuildingBlock: GALJAG_clean_sbu_0, # of connection points: 4
#     Node 9, Type 1, BuildingBlock: GALJAG_clean_sbu_0, # of connection points: 4
#     Node 10, Type 1, BuildingBlock: GALJAG_clean_sbu_0, # of connection points: 4
#     Node 11, Type 1, BuildingBlock: GALJAG_clean_sbu_0, # of connection points: 4
#     Edge 12, Type (0, 1), BuildingBlock: ZUJKAS_clean_linker_0, # of connection points: 2
#     Edge 13, Type (0, 1), BuildingBlock: ZUJKAS_clean_linker_0, # of connection points: 2
#     Edge 14, Type (0, 1), BuildingBlock: ZUJKAS_clean_linker_0, # of connection points: 2
#     Edge 15, Type (0, 1), BuildingBlock: ZUJKAS_clean_linker_0, # of connection points: 2
#     Edge 16, Type (0, 1), BuildingBlock: ZUJKAS_clean_linker_0, # of connection points: 2
#     Edge 17, Type (0, 1), BuildingBlock: ZUJKAS_clean_linker_0, # of connection points: 2
#     Edge 18, Type (0, 1), BuildingBlock: ZUJKAS_clean_linker_0, # of connection points: 2
#     Edge 19, Type (0, 1), BuildingBlock: ZUJKAS_clean_linker_0, # of connection points: 2
#     Edge 20, Type (0, 1), BuildingBlock: ZUJKAS_clean_linker_0, # of connection points: 2
#     Edge 21, Type (0, 1), BuildingBlock: ZUJKAS_clean_linker_0, # of connection points: 2
#     Edge 22, Type (0, 1), BuildingBlock: ZUJKAS_clean_linker_0, # of connection points: 2
#     Edge 23, Type (0, 1), BuildingBlock: ZUJKAS_clean_linker_0, # of connection points: 2
#     Edge 24, Type (0, 1), BuildingBlock: ZUJKAS_clean_linker_0, # of connection points: 2
#     Edge 25, Type (0, 1), BuildingBlock: ZUJKAS_clean_linker_0, # of connection points: 2
#     Edge 26, Type (0, 1), BuildingBlock: ZUJKAS_clean_linker_0, # of connection points: 2
#     Edge 27, Type (0, 1), BuildingBlock: ZUJKAS_clean_linker_0, # of connection points: 2
#     Edge 28, Type (0, 1), BuildingBlock: ZUJKAS_clean_linker_0, # of connection points: 2
#     Edge 29, Type (0, 1), BuildingBlock: ZUJKAS_clean_linker_0, # of connection points: 2
#     Edge 30, Type (0, 1), BuildingBlock: ZUJKAS_clean_linker_0, # of connection points: 2
#     Edge 31, Type (0, 1), BuildingBlock: ZUJKAS_clean_linker_0, # of connection points: 2
#     Edge 32, Type (0, 1), BuildingBlock: ZUJKAS_clean_linker_0, # of connection points: 2
#     Edge 33, Type (0, 1), BuildingBlock: ZUJKAS_clean_linker_0, # of connection points: 2
#     Edge 34, Type (0, 1), BuildingBlock: ZUJKAS_clean_linker_0, # of connection points: 2
#     Edge 35, Type (0, 1), BuildingBlock: ZUJKAS_clean_linker_0, # of connection points: 2
# Relax obj value: 0.004
# Max RMSD: 0.115
# Mean RMSD: 0.086
data_MOF--net-nom--node1-GALJAG_clean_sbu_0--node2-NAWXER_clean_linker_0--edge1-ZUJKAS_clean_linker_0
_symmetry_space_group_name_H-M    P1
_symmetry_Int_Tables_number       1
_symmetry_cell_setting            triclinic
loop_
_symmetry_equiv_pos_as_xyz
'x, y, z'
_cell_length_a     65.013953
_cell_length_b     64.908534
_cell_length_c     74.352899
_cell_angle_alpha  90.022282
_cell_angle_beta   90.006584
_cell_angle_gamma 120.05343
loop_
_atom_site_label
_atom_site_type_symbol
_atom_site_fract_x
_atom_site_fract_y
_atom_site_fract_z
_atom_type_partial_charge
C0 C 0.92746 0.52771 0.33469 0.0
C1 C 0.91892 0.51057 0.34843 0.0
C2 C 0.95107 0.53821 0.32906 0.0
C3 C 0.96651 0.53139 0.33677 0.0
C4 C 0.9344 0.50394 0.3563 0.0
C5 C 0.95798 0.51427 0.35052 0.0
C6 C 0.99196 0.54341 0.33163 0.0
C7 C 0.95378 0.50612 0.28111 0.0
C8 C 0.95615 0.52111 0.26667 0.0
C9 C 0.96767 0.51537 0.29655 0.0
C10 C 0.98411 0.53983 0.29791 0.0
C11 C 0.97253 0.54561 0.26808 0.0
C12 C 0.98652 0.55484 0.2835 0.0
C13 C 1e-05 0.54945 0.31371 0.0
C14 C 0.10598 0.59299 0.31875 0.0
C15 C 0.11308 0.61321 0.30789 0.0
C16 C 0.08232 0.5792 0.32427 0.0
C17 C 0.06541 0.58553 0.31919 0.0
C18 C 0.09605 0.61941 0.30283 0.0
C19 C 0.07245 0.60563 0.30833 0.0
C20 C 0.0401 0.57069 0.32413 0.0
C21 C 0.07931 0.59845 0.37697 0.0
C22 C 0.07719 0.58014 0.38835 0.0
C23 C 0.06495 0.59314 0.36168 0.0
C24 C 0.04827 0.56943 0.35748 0.0
C25 C 0.06053 0.55642 0.38395 0.0
C26 C 0.0461 0.55117 0.36878 0.0
C27 C 0.03214 0.56335 0.3419 0.0
H28 H 0.91605 0.53351 0.32865 0.0
H29 H 0.95735 0.55209 0.31898 0.0
H30 H 0.92825 0.4907 0.36688 0.0
H31 H 0.96958 0.50891 0.35685 0.0
H32 H 0.94123 0.48719 0.28045 0.0
H33 H 0.96589 0.5033 0.30728 0.0
H34 H 0.97495 0.55755 0.25707 0.0
H35 H 0.9993 0.57371 0.28416 0.0
H36 H 0.11856 0.5875 0.32263 0.0
H37 H 0.07718 0.56337 0.33221 0.0
H38 H 0.10097 0.63503 0.29468 0.0
H39 H 0.05966 0.61074 0.30416 0.0
H40 H 0.09165 0.61693 0.38008 0.0
H41 H 0.06657 0.60756 0.35334 0.0
H42 H 0.05867 0.54183 0.39218 0.0
H43 H 0.03329 0.53275 0.36579 0.0
N44 N 0.00839 0.5502 0.34497 0.0
N45 N 0.02372 0.56326 0.31071 0.0
C46 C 0.41599 0.92911 0.50122 0.0
C47 C 0.42544 0.92037 0.51418 0.0
C48 C 0.42885 0.95278 0.49558 0.0
C49 C 0.45156 0.96815 0.50263 0.0
C50 C 0.44822 0.93577 0.52116 0.0
C51 C 0.46108 0.95945 0.51551 0.0
C52 C 0.46458 0.9937 0.49776 0.0
C53 C 0.46367 0.95644 0.44678 0.0
C54 C 0.45117 0.9591 0.43239 0.0
C55 C 0.46817 0.96998 0.4624 0.0
C56 C 0.4601 0.98633 0.46402 0.0
C57 C 0.44295 0.97534 0.43407 0.0
C58 C 0.44755 0.98897 0.4497 0.0
C59 C 0.46645 0.00202 0.47995 0.0
C60 C 0.52942 0.10801 0.48601 0.0
C61 C 0.51645 0.11546 0.47536 0.0
C62 C 0.51937 0.08419 0.49121 0.0
C63 C 0.49611 0.06745 0.48599 0.0
C64 C 0.49326 0.09857 0.47003 0.0
C65 C 0.48326 0.0748 0.47522 0.0
C66 C 0.48535 0.04202 0.49076 0.0
C67 C 0.49797 0.08151 0.54351 0.0
C68 C 0.51226 0.07757 0.55564 0.0
C69 C 0.48898 0.06746 0.52805 0.0
C70 C 0.49449 0.04954 0.52431 0.0
C71 C 0.51759 0.05954 0.55189 0.0
C72 C 0.50873 0.04564 0.53643 0.0
C73 C 0.48459 0.03376 0.50847 0.0
H74 H 0.39831 0.91786 0.49585 0.0
H75 H 0.42073 0.95922 0.48609 0.0
H76 H 0.4561 0.92954 0.53103 0.0
H77 H 0.47848 0.97103 0.52124 0.0
H78 H 0.4701 0.94397 0.44593 0.0
H79 H 0.47847 0.96806 0.47304 0.0
H80 H 0.43352 0.97798 0.42312 0.0
H81 H 0.44144 0.0017 0.45055 0.0
H82 H 0.54729 0.12061 0.49039 0.0
H83 H 0.52986 0.07881 0.49914 0.0
H84 H 0.48296 0.10363 0.46156 0.0
H85 H 0.46541 0.06212 0.47082 0.0
H86 H 0.49329 0.09505 0.54619 0.0
H87 H 0.47743 0.07035 0.51921 0.0
H88 H 0.52876 0.05625 0.56085 0.0
H89 H 0.5131 0.03183 0.53389 0.0
N90 N 0.47407 0.00992 0.51125 0.0
N91 N 0.47637 0.02582 0.47719 0.0
C92 C 0.52507 0.46134 0.61392 0.0
C93 C 0.5112 0.45145 0.59839 0.0
C94 C 0.51534 0.46563 0.62923 0.0
C95 C 0.49137 0.45967 0.6295 0.0
C96 C 0.48722 0.44553 0.59868 0.0
C97 C 0.47744 0.44968 0.61406 0.0
C98 C 0.48137 0.46577 0.6452 0.0
C99 C 0.49909 0.4119 0.66639 0.0
C100 C 0.51624 0.41995 0.68015 0.0
C101 C 0.48947 0.4258 0.66071 0.0
C102 C 0.49703 0.4482 0.66848 0.0
C103 C 0.52366 0.44232 0.68799 0.0
C104 C 0.51406 0.45624 0.68227 0.0
C105 C 0.48608 0.46256 0.66322 0.0
C106 C 0.43275 0.49883 0.70722 0.0
C107 C 0.45071 0.51251 0.71975 0.0
C108 C 0.43783 0.4894 0.69204 0.0
C109 C 0.46104 0.49387 0.68897 0.0
C110 C 0.47383 0.51672 0.71669 0.0
C111 C 0.4789 0.50743 0.70151 0.0
C112 C 0.46699 0.48373 0.67333 0.0
C113 C 0.44098 0.53104 0.64999 0.0
C114 C 0.42098 0.51866 0.6388 0.0
C115 C 0.45402 0.52038 0.65555 0.0
C116 C 0.44711 0.49704 0.65019 0.0
C117 C 0.41428 0.49537 0.63339 0.0
C118 C 0.42729 0.48475 0.63894 0.0
C119 C 0.46091 0.48555 0.65539 0.0
H120 H 0.54354 0.46593 0.61424 0.0
H121 H 0.52677 0.47411 0.6407 0.0
H122 H 0.47612 0.43827 0.58687 0.0
H123 H 0.45902 0.44529 0.61382 0.0
H124 H 0.49311 0.39484 0.65999 0.0
H125 H 0.47583 0.41883 0.65043 0.0
H126 H 0.53654 0.44888 0.69882 0.0
H127 H 0.51992 0.4733 0.68865 0.0
H128 H 0.4147 0.495 0.70936 0.0
H129 H 0.42357 0.47838 0.68285 0.0
H130 H 0.48811 0.52742 0.72596 0.0
H131 H 0.4969 0.511 0.69949 0.0
H132 H 0.44683 0.54914 0.65416 0.0
H133 H 0.46965 0.53045 0.66383 0.0
H134 H 0.3988 0.48522 0.62498 0.0
H135 H 0.42175 0.46679 0.63456 0.0
N136 N 0.46852 0.47668 0.64204 0.0
N137 N 0.47914 0.4721 0.67652 0.0
C138 C 0.92835 0.41436 0.82205 0.0
C139 C 0.91893 0.42267 0.80873 0.0
C140 C 0.95206 0.42807 0.82735 0.0
C141 C 0.96677 0.45055 0.81966 0.0
C142 C 0.9337 0.44514 0.80101 0.0
C143 C 0.95741 0.45888 0.80637 0.0
C144 C 0.99231 0.46459 0.82436 0.0
C145 C 0.95422 0.46295 0.8749 0.0
C146 C 0.95794 0.45178 0.88973 0.0
C147 C 0.96795 0.46777 0.85938 0.0
C148 C 0.98548 0.46119 0.85822 0.0
C149 C 0.97561 0.44538 0.88862 0.0
C150 C 0.98931 0.45013 0.87303 0.0
C151 C 0.00096 0.46741 0.84215 0.0
C152 C 0.10663 0.53135 0.83481 0.0
C153 C 0.11448 0.51858 0.84531 0.0
C154 C 0.08269 0.52112 0.83002 0.0
C155 C 0.06623 0.49787 0.83552 0.0
C156 C 0.09786 0.49544 0.85096 0.0
C157 C 0.07397 0.48526 0.84619 0.0
C158 C 0.04073 0.48679 0.831 0.0
C159 C 0.07936 0.49916 0.77784 0.0
C160 C 0.07496 0.5132 0.76576 0.0
C161 C 0.06565 0.49011 0.79343 0.0
C162 C 0.04757 0.49529 0.79733 0.0
C163 C 0.05678 0.5182 0.7697 0.0
C164 C 0.04318 0.50926 0.78527 0.0
C165 C 0.03212 0.48533 0.81332 0.0
H166 H 0.91742 0.39721 0.82836 0.0
H167 H 0.95899 0.42086 0.83723 0.0
H168 H 0.92712 0.4519 0.79051 0.0
H169 H 0.96849 0.47601 0.80004 0.0
H170 H 0.94111 0.46858 0.87547 0.0
H171 H 0.96521 0.47714 0.84843 0.0
H172 H 0.97881 0.43663 0.89978 0.0
H173 H 0.00289 0.44513 0.87254 0.0
H174 H 0.11903 0.54919 0.83021 0.0
H175 H 0.07702 0.53142 0.82214 0.0
H176 H 0.10324 0.48531 0.85933 0.0
H177 H 0.0615 0.46742 0.85078 0.0
H178 H 0.09303 0.49472 0.77503 0.0
H179 H 0.06892 0.47879 0.80224 0.0
H180 H 0.05313 0.52919 0.7608 0.0
H181 H 0.02924 0.51337 0.78795 0.0
N182 N 0.00824 0.47409 0.81071 0.0
N183 N 0.02481 0.47795 0.84473 0.0
C184 C 0.53289 0.92978 0.98771 0.0
C185 C 0.51525 0.9205 0.97431 0.0
C186 C 0.54272 0.95339 0.99333 0.0
C187 C 0.53493 0.96815 0.9858 0.0
C188 C 0.50756 0.93535 0.96676 0.0
C189 C 0.5174 0.95897 0.97239 0.0
C190 C 0.54615 0.99356 0.99092 0.0
C191 C 0.50766 0.95368 0.04046 0.0
C192 C 0.52171 0.95768 0.05587 0.0
C193 C 0.51724 0.96767 0.02511 0.0
C194 C 0.54124 0.98567 0.02467 0.0
C195 C 0.54572 0.97576 0.05543 0.0
C196 C 0.55535 0.98965 0.04001 0.0
C197 C 0.55112 0.00166 0.0089 0.0
C198 C 0.59193 0.10743 0.0036 0.0
C199 C 0.61217 0.11523 0.01454 0.0
C200 C 0.57875 0.08362 0.9982 0.0
C201 C 0.58571 0.06725 0.00351 0.0
C202 C 0.61895 0.09869 0.01987 0.0
C203 C 0.60576 0.07494 0.01451 0.0
C204 C 0.57175 0.04186 0.99848 0.0
C205 C 0.60027 0.08257 0.94637 0.0
C206 C 0.58249 0.07806 0.93365 0.0
C207 C 0.59495 0.06837 0.96176 0.0
C208 C 0.57165 0.04973 0.96483 0.0
C209 C 0.55926 0.05931 0.93674 0.0
C210 C 0.55394 0.04527 0.95213 0.0
C211 C 0.5655 0.03377 0.98059 0.0
H212 H 0.53955 0.91896 0.99354 0.0
H213 H 0.55678 0.96024 0.00327 0.0
H214 H 0.49384 0.92869 0.95654 0.0
H215 H 0.51125 0.97008 0.96628 0.0
H216 H 0.48917 0.9398 0.04025 0.0
H217 H 0.50568 0.9647 0.01373 0.0
H218 H 0.55696 0.97961 0.06715 0.0
H219 H 0.5738 0.00368 0.04012 0.0
H220 H 0.586 0.11962 0.9995 0.0
H221 H 0.56297 0.07794 0.99008 0.0
H222 H 0.63462 0.10413 0.02806 0.0
H223 H 0.61135 0.06256 0.01884 0.0
H224 H 0.6184 0.0967 0.94421 0.0
H225 H 0.60911 0.07172 0.97106 0.0
H226 H 0.54512 0.05557 0.9273 0.0
H227 H 0.53587 0.03091 0.95414 0.0
N228 N 0.55313 0.00993 0.97753 0.0
N229 N 0.56415 0.02549 0.01193 0.0
C230 C 0.5279 0.61916 0.16661 0.0
C231 C 0.50972 0.60981 0.17959 0.0
C232 C 0.53862 0.60621 0.16105 0.0
C233 C 0.53123 0.58353 0.16821 0.0
C234 C 0.50235 0.58709 0.18672 0.0
C235 C 0.51309 0.57415 0.18115 0.0
C236 C 0.54359 0.57038 0.16333 0.0
C237 C 0.50675 0.57093 0.1126 0.0
C238 C 0.52174 0.58328 0.09808 0.0
C239 C 0.51594 0.5665 0.12815 0.0
C240 C 0.54035 0.57451 0.12959 0.0
C241 C 0.54619 0.5914 0.09957 0.0
C242 C 0.55537 0.58689 0.11513 0.0
C243 C 0.54985 0.56833 0.14551 0.0
C244 C 0.59311 0.50566 0.15183 0.0
C245 C 0.61357 0.51869 0.14122 0.0
C246 C 0.57921 0.51559 0.15687 0.0
C247 C 0.58566 0.53881 0.15155 0.0
C248 C 0.61976 0.54182 0.13574 0.0
C249 C 0.60587 0.55171 0.14078 0.0
C250 C 0.57097 0.54952 0.15631 0.0
C251 C 0.5979 0.53705 0.20907 0.0
C252 C 0.57966 0.52265 0.22116 0.0
C253 C 0.59288 0.54609 0.19363 0.0
C254 C 0.56946 0.54051 0.18988 0.0
C255 C 0.5563 0.51727 0.21739 0.0
C256 C 0.5513 0.52618 0.20196 0.0
C257 C 0.56359 0.55039 0.17404 0.0
H258 H 0.53433 0.6368 0.16112 0.0
H259 H 0.55313 0.61424 0.15151 0.0
H260 H 0.48825 0.5793 0.19661 0.0
H261 H 0.50723 0.55678 0.18697 0.0
H262 H 0.48786 0.56457 0.1119 0.0
H263 H 0.50383 0.55633 0.13889 0.0
H264 H 0.55814 0.60071 0.08853 0.0
H265 H 0.5742 0.59295 0.11585 0.0
H266 H 0.58792 0.48784 0.15632 0.0
H267 H 0.56335 0.50506 0.1648 0.0
H268 H 0.63514 0.55216 0.1273 0.0
H269 H 0.61097 0.56953 0.13631 0.0
H270 H 0.61612 0.54178 0.21175 0.0
H271 H 0.60733 0.5577 0.18481 0.0
H272 H 0.54182 0.506 0.22632 0.0
H273 H 0.53312 0.52175 0.19941 0.0
N274 N 0.55035 0.56096 0.17683 0.0
N275 N 0.56367 0.55839 0.14273 0.0
In276 In 0.63029 0.40402 0.40929 0.0
O277 O 0.66981 0.42545 0.41647 0.0
O278 O 0.66011 0.40746 0.39132 0.0
C279 C 0.61188 0.41552 0.4375 0.0
C280 C 0.61839 0.42168 0.38081 0.0
C281 C 0.61462 0.35785 0.41694 0.0
O282 O 0.6339 0.42621 0.43425 0.0
O283 O 0.59926 0.39938 0.4264 0.0
O284 O 0.60506 0.36418 0.40504 0.0
O285 O 0.63218 0.37476 0.42474 0.0
C286 C 0.67662 0.42065 0.40195 0.0
O287 O 0.61287 0.40009 0.38186 0.0
O288 O 0.62952 0.43419 0.39424 0.0
In289 In 0.24479 0.63266 0.57825 0.0
O290 O 0.26239 0.6107 0.57129 0.0
O291 O 0.27029 0.62829 0.59659 0.0
C292 C 0.21688 0.6231 0.54894 0.0
C293 C 0.21388 0.61497 0.60599 0.0
C294 C 0.27656 0.67886 0.57204 0.0
O295 O 0.22607 0.61065 0.5532 0.0
O296 O 0.22145 0.63999 0.55958 0.0
O297 O 0.25977 0.67238 0.58318 0.0
O298 O 0.27741 0.66206 0.56422 0.0
C299 C 0.27359 0.61508 0.58598 0.0
O300 O 0.23035 0.6364 0.60532 0.0
O301 O 0.2127 0.60264 0.59249 0.0
In302 In 0.63041 0.24535 0.74467 0.0
O303 O 0.67009 0.25981 0.74011 0.0
O304 O 0.65983 0.2759 0.76043 0.0
C305 C 0.61272 0.2162 0.71594 0.0
C306 C 0.61986 0.21656 0.77351 0.0
C307 C 0.61307 0.27438 0.737 0.0
O308 O 0.63435 0.23198 0.71719 0.0
O309 O 0.60016 0.21485 0.72932 0.0
O310 O 0.60434 0.25881 0.74922 0.0
O311 O 0.63055 0.27536 0.72886 0.0
C312 C 0.67658 0.2754 0.75229 0.0
O313 O 0.61309 0.23163 0.77209 0.0
O314 O 0.63153 0.21573 0.76026 0.0
In315 In 0.4033 0.6317 0.90908 0.0
O316 O 0.36358 0.60581 0.91309 0.0
O317 O 0.37396 0.63351 0.89386 0.0
C318 C 0.42075 0.61963 0.9376 0.0
C319 C 0.41361 0.61422 0.87967 0.0
C320 C 0.42101 0.67805 0.91728 0.0
O321 O 0.3993 0.61447 0.93663 0.0
O322 O 0.43319 0.63043 0.92408 0.0
O323 O 0.43023 0.67128 0.90541 0.0
O324 O 0.40289 0.6615 0.92483 0.0
C325 C 0.35716 0.6156 0.90143 0.0
O326 O 0.42017 0.63601 0.88138 0.0
O327 O 0.4023 0.60141 0.89292 0.0
In328 In 0.78899 0.40509 0.0773 0.0
O329 O 0.80302 0.40064 0.10435 0.0
O330 O 0.81875 0.43537 0.09317 0.0
C331 C 0.75885 0.35913 0.06888 0.0
C332 C 0.75923 0.4216 0.08493 0.0
C333 C 0.81895 0.41616 0.0492 0.0
O334 O 0.77251 0.36517 0.08234 0.0
O335 O 0.76033 0.37624 0.05981 0.0
O336 O 0.80484 0.42411 0.05073 0.0
O337 O 0.81817 0.40298 0.06196 0.0
C338 C 0.81813 0.42246 0.10606 0.0
O339 O 0.7748 0.43064 0.07276 0.0
O340 O 0.75861 0.40425 0.09303 0.0
In341 In 0.40226 0.78987 0.24471 0.0
O342 O 0.42736 0.77525 0.24912 0.0
O343 O 0.39995 0.7583 0.22964 0.0
C344 C 0.41463 0.82041 0.27263 0.0
C345 C 0.42031 0.81873 0.21588 0.0
C346 C 0.35612 0.76027 0.25279 0.0
O347 O 0.42022 0.80441 0.27184 0.0
O348 O 0.40321 0.82126 0.25922 0.0
O349 O 0.36252 0.77244 0.23851 0.0
O350 O 0.37294 0.763 0.26282 0.0
C351 C 0.41752 0.75903 0.23745 0.0
O352 O 0.3983 0.80727 0.2192 0.0
O353 O 0.43309 0.81584 0.22721 0.0
H354 H 0.15389 0.62631 0.327 0.0
H355 H 0.19498 0.6506 0.31663 0.0
H356 H 0.1699 0.65711 0.26444 0.0
H357 H 0.12881 0.63259 0.27455 0.0
H358 H 0.21758 0.64219 0.28624 0.0
H359 H 0.21595 0.72676 0.28032 0.0
H360 H 0.19406 0.70162 0.29307 0.0
H361 H 0.19233 0.70155 0.26896 0.0
C362 C 0.15711 0.63275 0.31327 0.0
C363 C 0.13806 0.62765 0.30164 0.0
C364 C 0.18058 0.6467 0.30741 0.0
C365 C 0.18541 0.6559 0.28987 0.0
C366 C 0.1665 0.65056 0.27814 0.0
H367 H 0.31667 0.7496 0.23281 0.0
H368 H 0.27501 0.72318 0.24116 0.0
C369 C 0.14305 0.63659 0.28396 0.0
C370 C 0.21025 0.67093 0.28379 0.0
H371 H 0.25047 0.7271 0.26991 0.0
C372 C 0.22483 0.66077 0.2827 0.0
C373 C 0.21952 0.6951 0.27909 0.0
C374 C 0.20477 0.70704 0.28052 0.0
C375 C 0.24848 0.67412 0.27685 0.0
C376 C 0.25787 0.69839 0.27236 0.0
C377 C 0.2432 0.70848 0.27333 0.0
C378 C 0.28306 0.71383 0.26711 0.0
C379 C 0.26303 0.66198 0.27522 0.0
C380 C 0.30134 0.7175 0.27901 0.0
C381 C 0.32507 0.73245 0.27425 0.0
C382 C 0.33097 0.74423 0.25758 0.0
C383 C 0.31265 0.74071 0.24573 0.0
C384 C 0.28887 0.72565 0.25047 0.0
H385 H 0.25155 0.64236 0.27396 0.0
H386 H 0.27507 0.66869 0.2634 0.0
H387 H 0.27406 0.66565 0.28749 0.0
H388 H 0.29724 0.70903 0.29209 0.0
H389 H 0.3388 0.73496 0.28373 0.0
H390 H 0.49528 0.14275 0.47429 0.0
H391 H 0.51232 0.18369 0.46353 0.0
H392 H 0.57884 0.18634 0.45304 0.0
H393 H 0.56173 0.14514 0.46328 0.0
H394 H 0.5519 0.22488 0.47641 0.0
H395 H 0.56382 0.20754 0.4051 0.0
H396 H 0.54543 0.18403 0.4206 0.0
H397 H 0.57719 0.19714 0.42116 0.0
C398 C 0.51347 0.15196 0.46953 0.0
C399 C 0.52711 0.14064 0.46953 0.0
C400 C 0.52321 0.17538 0.46348 0.0
C401 C 0.5467 0.18788 0.45724 0.0
C402 C 0.56053 0.17683 0.45751 0.0
H403 H 0.63245 0.34058 0.44218 0.0
H404 H 0.61609 0.29921 0.45169 0.0
C405 C 0.55081 0.1534 0.46357 0.0
C406 C 0.55681 0.21264 0.45072 0.0
H407 H 0.58056 0.24802 0.41377 0.0
C408 C 0.55814 0.22996 0.46271 0.0
C409 C 0.56463 0.21909 0.43277 0.0
C410 C 0.56254 0.20097 0.41908 0.0
C411 C 0.56743 0.25369 0.45731 0.0
C412 C 0.57592 0.2603 0.43953 0.0
C413 C 0.57425 0.24291 0.42744 0.0
C414 C 0.5864 0.28516 0.4332 0.0
C415 C 0.56773 0.27141 0.47061 0.0
C416 C 0.57555 0.29083 0.41924 0.0
C417 C 0.58493 0.31445 0.41371 0.0
C418 C 0.60539 0.33273 0.42199 0.0
C419 C 0.61658 0.32689 0.43562 0.0
C420 C 0.60719 0.3033 0.44114 0.0
H421 H 0.55532 0.26246 0.48198 0.0
H422 H 0.5859 0.28217 0.47622 0.0
H423 H 0.56288 0.28372 0.46398 0.0
H424 H 0.55955 0.27703 0.41289 0.0
H425 H 0.57597 0.31842 0.40314 0.0
H426 H 0.40242 0.51649 0.60535 0.0
H427 H 0.37838 0.53376 0.5956 0.0
H428 H 0.38428 0.56361 0.64845 0.0
H429 H 0.4081 0.54614 0.65842 0.0
H430 H 0.33465 0.52505 0.61076 0.0
H431 H 0.40394 0.62063 0.61426 0.0
H432 H 0.41102 0.59705 0.614 0.0
H433 H 0.40072 0.60388 0.63434 0.0
C434 C 0.39854 0.52665 0.61494 0.0
C435 C 0.40715 0.52992 0.63269 0.0
C436 C 0.38492 0.5366 0.6093 0.0
C437 C 0.37981 0.55016 0.62124 0.0
C438 C 0.38844 0.55358 0.63893 0.0
H439 H 0.29715 0.62045 0.61746 0.0
H440 H 0.32269 0.60418 0.62536 0.0
C441 C 0.40205 0.5436 0.6446 0.0
C442 C 0.36469 0.55997 0.61536 0.0
H443 H 0.3643 0.61188 0.60932 0.0
C444 C 0.34113 0.54403 0.61033 0.0
C445 C 0.37326 0.58472 0.61485 0.0
C446 C 0.39867 0.60263 0.61949 0.0
C447 C 0.32566 0.55219 0.60521 0.0
C448 C 0.33419 0.57697 0.60477 0.0
C449 C 0.35783 0.5929 0.60967 0.0
C450 C 0.31871 0.58674 0.59974 0.0
C451 C 0.30016 0.5342 0.60085 0.0
C452 C 0.30822 0.58253 0.58263 0.0
C453 C 0.2935 0.59172 0.5781 0.0
C454 C 0.28924 0.60544 0.59056 0.0
C455 C 0.30006 0.6099 0.60758 0.0
C456 C 0.31468 0.60065 0.61211 0.0
H457 H 0.29502 0.51626 0.60617 0.0
H458 H 0.28787 0.53978 0.60645 0.0
H459 H 0.29784 0.53273 0.58603 0.0
H460 H 0.31151 0.57225 0.57276 0.0
H461 H 0.28552 0.58813 0.56484 0.0
H462 H 0.88674 0.43689 0.80082 0.0
H463 H 0.84567 0.41212 0.79058 0.0
H464 H 0.85345 0.34999 0.79272 0.0
H465 H 0.89462 0.37461 0.80265 0.0
H466 H 0.82864 0.38152 0.75937 0.0
H467 H 0.79363 0.33255 0.82367 0.0
H468 H 0.82165 0.36007 0.82222 0.0
H469 H 0.81946 0.33266 0.81492 0.0
C470 C 0.87978 0.41799 0.79899 0.0
C471 C 0.89393 0.40771 0.80265 0.0
C472 C 0.8563 0.40387 0.79321 0.0
C473 C 0.84652 0.37924 0.79112 0.0
C474 C 0.8606 0.36893 0.79458 0.0
H475 H 0.71593 0.27805 0.73669 0.0
H476 H 0.75753 0.30386 0.74552 0.0
C477 C 0.88408 0.38302 0.80031 0.0
C478 C 0.82159 0.36432 0.7852 0.0
H479 H 0.76745 0.3193 0.79873 0.0
C480 C 0.81522 0.36793 0.76795 0.0
C481 C 0.80417 0.34679 0.79653 0.0
C482 C 0.80992 0.34283 0.81543 0.0
C483 C 0.79182 0.35419 0.76163 0.0
C484 C 0.77452 0.33633 0.77283 0.0
C485 C 0.78085 0.33292 0.79015 0.0
C486 C 0.74955 0.32126 0.76701 0.0
C487 C 0.7857 0.35913 0.74315 0.0
C488 C 0.73137 0.32235 0.77631 0.0
C489 C 0.70767 0.30765 0.77134 0.0
C490 C 0.70174 0.29146 0.75705 0.0
C491 C 0.72 0.29043 0.7477 0.0
C492 C 0.74374 0.30521 0.75267 0.0
H493 H 0.79957 0.37669 0.73791 0.0
H494 H 0.78411 0.34517 0.73371 0.0
H495 H 0.7684 0.35869 0.74334 0.0
H496 H 0.73553 0.33457 0.78746 0.0
H497 H 0.69399 0.30881 0.77881 0.0
H498 H 0.50527 0.9039 0.93972 0.0
H499 H 0.48912 0.86289 0.92934 0.0
H500 H 0.48703 0.83983 0.98402 0.0
H501 H 0.50292 0.88076 0.99457 0.0
H502 H 0.50767 0.82227 0.95908 0.0
H503 H 0.42015 0.80776 0.93579 0.0
H504 H 0.44554 0.83386 0.92691 0.0
H505 H 0.43929 0.83192 0.95058 0.0
C506 C 0.50108 0.89006 0.94957 0.0
C507 C 0.50527 0.89558 0.96799 0.0
C508 C 0.4919 0.86666 0.9436 0.0
C509 C 0.48664 0.84834 0.95594 0.0
C510 C 0.49096 0.85376 0.9743 0.0
H511 H 0.40329 0.6962 0.94186 0.0
H512 H 0.41989 0.73781 0.95077 0.0
C513 C 0.50012 0.87715 0.98029 0.0
C514 C 0.477 0.82354 0.94969 0.0
H515 H 0.42911 0.77742 0.92913 0.0
C516 C 0.4905 0.81243 0.95252 0.0
C517 C 0.45452 0.81076 0.94129 0.0
C518 C 0.43888 0.82155 0.93857 0.0
C519 C 0.48216 0.78885 0.94706 0.0
C520 C 0.45987 0.77622 0.93837 0.0
C521 C 0.4463 0.78728 0.93565 0.0
C522 C 0.44987 0.75117 0.93264 0.0
C523 C 0.49701 0.77747 0.95098 0.0
C524 C 0.46111 0.74499 0.91931 0.0
C525 C 0.45166 0.7212 0.91418 0.0
C526 C 0.43079 0.70328 0.92227 0.0
C527 C 0.41942 0.70961 0.93542 0.0
C528 C 0.42885 0.73336 0.94051 0.0
H529 H 0.51103 0.78769 0.96113 0.0
H530 H 0.48571 0.75897 0.95593 0.0
H531 H 0.50582 0.77673 0.93842 0.0
H532 H 0.47715 0.75856 0.91288 0.0
H533 H 0.46074 0.71685 0.90395 0.0
H534 H 0.59839 0.47332 0.12944 0.0
H535 H 0.6228 0.45629 0.11995 0.0
H536 H 0.6863 0.52343 0.13024 0.0
H537 H 0.66209 0.54039 0.14025 0.0
H538 H 0.65626 0.47159 0.09187 0.0
H539 H 0.69775 0.4754 0.15798 0.0
H540 H 0.67181 0.47855 0.15571 0.0
H541 H 0.70082 0.50322 0.15078 0.0
C542 C 0.61755 0.48436 0.12993 0.0
C543 C 0.6283 0.50818 0.13567 0.0
C544 C 0.63145 0.47466 0.12438 0.0
C545 C 0.65633 0.48853 0.12459 0.0
C546 C 0.66712 0.51232 0.13023 0.0
H547 H 0.75813 0.45981 0.07047 0.0
H548 H 0.73264 0.47584 0.07954 0.0
C549 C 0.65325 0.52205 0.13577 0.0
C550 C 0.67099 0.47824 0.11859 0.0
H551 H 0.71337 0.46553 0.13268 0.0
C552 C 0.66871 0.47019 0.10078 0.0
C553 C 0.68702 0.47624 0.13032 0.0
C554 C 0.68941 0.4836 0.14981 0.0
C555 C 0.6823 0.46046 0.0943 0.0
C556 C 0.6988 0.45906 0.1059 0.0
C557 C 0.70085 0.46683 0.12378 0.0
C558 C 0.71377 0.4491 0.09994 0.0
C559 C 0.67861 0.45138 0.07521 0.0
C560 C 0.71184 0.429 0.10858 0.0
C561 C 0.72643 0.41992 0.10351 0.0
C562 C 0.74332 0.43086 0.08975 0.0
C563 C 0.74519 0.45095 0.08105 0.0
C564 C 0.73057 0.46004 0.08615 0.0
H565 H 0.66148 0.44838 0.0696 0.0
H566 H 0.69316 0.46473 0.06665 0.0
H567 H 0.67895 0.43447 0.07442 0.0
H568 H 0.69905 0.42035 0.11929 0.0
H569 H 0.7246 0.40444 0.11048 0.0
H570 H 0.3977 0.88003 0.49457 0.0
H571 H 0.37303 0.83941 0.5058 0.0
H572 H 0.39644 0.8638 0.55991 0.0
H573 H 0.42096 0.90452 0.54886 0.0
H574 H 0.39722 0.82194 0.55051 0.0
H575 H 0.3107 0.81529 0.53434 0.0
H576 H 0.33102 0.82404 0.51575 0.0
H577 H 0.33828 0.84334 0.53492 0.0
C578 C 0.39747 0.87679 0.50888 0.0
C579 C 0.41122 0.89553 0.52083 0.0
C580 C 0.38338 0.85358 0.51526 0.0
C581 C 0.38268 0.84871 0.5337 0.0
C582 C 0.39672 0.86724 0.54563 0.0
H583 H 0.27693 0.71806 0.58583 0.0
H584 H 0.30369 0.75979 0.57775 0.0
C585 C 0.41081 0.89046 0.53927 0.0
C586 C 0.36734 0.82425 0.54055 0.0
H587 H 0.30956 0.77965 0.54341 0.0
C588 C 0.37804 0.81269 0.54904 0.0
C589 C 0.34233 0.81243 0.53883 0.0
C590 C 0.32982 0.82444 0.53062 0.0
C591 C 0.36439 0.78932 0.55548 0.0
C592 C 0.33945 0.77719 0.55315 0.0
C593 C 0.32871 0.78896 0.54505 0.0
C594 C 0.32414 0.7521 0.55872 0.0
C595 C 0.37673 0.77789 0.56484 0.0
C596 C 0.32678 0.73402 0.55065 0.0
C597 C 0.31155 0.71023 0.55523 0.0
C598 C 0.29335 0.70411 0.5679 0.0
C599 C 0.29085 0.72226 0.57607 0.0
C600 C 0.30608 0.74607 0.57146 0.0
H601 H 0.39463 0.79138 0.56976 0.0
H602 H 0.36607 0.7669 0.5764 0.0
H603 H 0.37896 0.76608 0.55522 0.0
H604 H 0.34031 0.73828 0.54053 0.0
H605 H 0.31383 0.69661 0.54865 0.0
H606 H 0.56236 0.43412 0.689 0.0
H607 H 0.57841 0.40924 0.69946 0.0
H608 H 0.50866 0.34707 0.69598 0.0
H609 H 0.49234 0.3718 0.68579 0.0
H610 H 0.56427 0.37823 0.73023 0.0
H611 H 0.55181 0.33022 0.66561 0.0
H612 H 0.55106 0.3576 0.66716 0.0
H613 H 0.52584 0.33 0.67415 0.0
C614 C 0.55038 0.41518 0.69059 0.0
C615 C 0.52608 0.40493 0.68647 0.0
C616 C 0.55961 0.401 0.6965 0.0
C617 C 0.54475 0.37633 0.69827 0.0
C618 C 0.52047 0.36604 0.69438 0.0
H619 H 0.57565 0.27583 0.7525 0.0
H620 H 0.559 0.3009 0.74371 0.0
C621 C 0.51121 0.38019 0.68851 0.0
C622 C 0.55468 0.36136 0.70425 0.0
H623 H 0.56465 0.31693 0.69055 0.0
C624 C 0.56438 0.36481 0.72159 0.0
C625 C 0.55494 0.34407 0.69284 0.0
C626 C 0.54555 0.34029 0.67384 0.0
C627 C 0.5742 0.35122 0.72791 0.0
C628 C 0.57407 0.33364 0.7166 0.0
C629 C 0.56454 0.33033 0.69921 0.0
C630 C 0.58437 0.3189 0.72234 0.0
C631 C 0.58503 0.35606 0.74646 0.0
C632 C 0.60392 0.32054 0.71307 0.0
C633 C 0.61339 0.30624 0.71801 0.0
C634 C 0.60337 0.28993 0.73224 0.0
C635 C 0.58379 0.28832 0.74153 0.0
C636 C 0.57434 0.30268 0.73659 0.0
H637 H 0.58834 0.37343 0.75184 0.0
H638 H 0.57268 0.34185 0.75576 0.0
H639 H 0.60206 0.35595 0.74635 0.0
H640 H 0.61184 0.3329 0.70199 0.0
H641 H 0.62846 0.30785 0.71058 0.0
H642 H 0.14438 0.56401 0.85709 0.0
H643 H 0.18594 0.5814 0.8664 0.0
H644 H 0.18311 0.51478 0.85547 0.0
H645 H 0.14181 0.49745 0.84569 0.0
H646 H 0.20425 0.56565 0.89433 0.0
H647 H 0.24245 0.56392 0.82793 0.0
H648 H 0.21328 0.56054 0.83032 0.0
H649 H 0.21776 0.53586 0.83479 0.0
C650 C 0.15272 0.55317 0.85642 0.0
C651 C 0.13983 0.52938 0.85059 0.0
C652 C 0.17638 0.56308 0.86186 0.0
C653 C 0.18763 0.54944 0.86143 0.0
C654 C 0.17484 0.5257 0.85565 0.0
H655 H 0.31776 0.57673 0.91507 0.0
H656 H 0.27633 0.56105 0.9059 0.0
C657 C 0.15119 0.51577 0.85023 0.0
C658 C 0.21259 0.55986 0.86744 0.0
H659 H 0.26786 0.5733 0.85326 0.0
C660 C 0.21821 0.56742 0.88536 0.0
C661 C 0.23073 0.56232 0.85563 0.0
C662 C 0.22588 0.55544 0.83605 0.0
C663 C 0.2415 0.57707 0.89188 0.0
C664 C 0.25951 0.5789 0.8802 0.0
C665 C 0.25394 0.57167 0.86221 0.0
C666 C 0.28438 0.58867 0.88625 0.0
C667 C 0.24672 0.58555 0.91112 0.0
C668 C 0.3026 0.60917 0.87806 0.0
C669 C 0.32621 0.61807 0.8832 0.0
C670 C 0.33205 0.60655 0.89657 0.0
C671 C 0.31377 0.58605 0.90481 0.0
C672 C 0.29011 0.57715 0.89965 0.0
H673 H 0.23249 0.58824 0.91691 0.0
H674 H 0.24801 0.572 0.91938 0.0
H675 H 0.26391 0.6025 0.91215 0.0
H676 H 0.29853 0.61826 0.86765 0.0
H677 H 0.33992 0.63388 0.87658 0.0
H678 H 0.62401 0.15553 0.995 0.0
H679 H 0.64797 0.197 0.00481 0.0
H680 H 0.65621 0.17349 0.05714 0.0
H681 H 0.63189 0.13204 0.04766 0.0
H682 H 0.64003 0.22004 0.03627 0.0
H683 H 0.72536 0.21966 0.03865 0.0
H684 H 0.69984 0.19778 0.02622 0.0
H685 H 0.70073 0.1957 0.05025 0.0
C686 C 0.63069 0.15916 0.00866 0.0
C687 C 0.62617 0.14044 0.0205 0.0
C688 C 0.64446 0.18285 0.0142 0.0
C689 C 0.65408 0.18822 0.03159 0.0
C690 C 0.64927 0.16965 0.04355 0.0
H691 H 0.74994 0.31927 0.08759 0.0
H692 H 0.72341 0.27771 0.07895 0.0
C693 C 0.63544 0.14599 0.03807 0.0
C694 C 0.66918 0.21325 0.03728 0.0
H695 H 0.72585 0.25413 0.04947 0.0
C696 C 0.65881 0.22758 0.03912 0.0
C697 C 0.69361 0.22287 0.04106 0.0
C698 C 0.70569 0.20833 0.03884 0.0
C699 C 0.67221 0.2513 0.04492 0.0
C700 C 0.69673 0.26103 0.04854 0.0
C701 C 0.70705 0.24663 0.04672 0.0
C702 C 0.71213 0.2862 0.05401 0.0
C703 C 0.65983 0.2655 0.04751 0.0
C704 C 0.71474 0.30473 0.04278 0.0
C705 C 0.72972 0.32843 0.04774 0.0
C706 C 0.74264 0.33404 0.06391 0.0
C707 C 0.74017 0.31548 0.07507 0.0
C708 C 0.72505 0.29175 0.07015 0.0
H709 H 0.64038 0.25375 0.04936 0.0
H710 H 0.66707 0.27752 0.05932 0.0
H711 H 0.6626 0.27656 0.03538 0.0
H712 H 0.70543 0.30087 0.03005 0.0
H713 H 0.73142 0.34236 0.03879 0.0
H714 H 0.49832 0.61478 0.21414 0.0
H715 H 0.48171 0.63908 0.22478 0.0
H716 H 0.48087 0.66174 0.17041 0.0
H717 H 0.49723 0.63729 0.15961 0.0
H718 H 0.50139 0.69918 0.19577 0.0
H719 H 0.41324 0.62622 0.21822 0.0
H720 H 0.43832 0.62503 0.22713 0.0
H721 H 0.43234 0.62123 0.20341 0.0
C722 C 0.49425 0.62463 0.2044 0.0
C723 C 0.49901 0.62402 0.18601 0.0
C724 C 0.4848 0.63852 0.21051 0.0
C725 C 0.47984 0.65197 0.19835 0.0
C726 C 0.48456 0.65144 0.18 0.0
H727 H 0.39871 0.72283 0.21307 0.0
H728 H 0.41423 0.6969 0.20423 0.0
C729 C 0.494 0.63755 0.17387 0.0
C730 C 0.47039 0.66719 0.20479 0.0
H731 H 0.4227 0.66559 0.22543 0.0
C732 C 0.48419 0.69187 0.20225 0.0
C733 C 0.44787 0.65752 0.21311 0.0
C734 C 0.43194 0.63103 0.21552 0.0
C735 C 0.47612 0.70722 0.20792 0.0
C736 C 0.4538 0.6976 0.21654 0.0
C737 C 0.43992 0.67289 0.21897 0.0
C738 C 0.44414 0.71283 0.2225 0.0
C739 C 0.4913 0.73355 0.20429 0.0
C740 C 0.45563 0.73008 0.23592 0.0
C741 C 0.4468 0.74494 0.24101 0.0
C742 C 0.42631 0.74269 0.23277 0.0
C743 C 0.41457 0.72503 0.21962 0.0
C744 C 0.42338 0.71019 0.21457 0.0
H745 H 0.50528 0.73737 0.19411 0.0
H746 H 0.48025 0.74108 0.19951 0.0
H747 H 0.50019 0.7428 0.21694 0.0
H748 H 0.47146 0.73212 0.2424 0.0
H749 H 0.45615 0.75832 0.25124 0.0
H750 H 0.90323 0.50448 0.38317 0.0
H751 H 0.86222 0.48838 0.39367 0.0
H752 H 0.83773 0.47743 0.33874 0.0
H753 H 0.87864 0.49344 0.32812 0.0
H754 H 0.82948 0.50735 0.38097 0.0
H755 H 0.79712 0.41155 0.36749 0.0
H756 H 0.82815 0.4329 0.37124 0.0
H757 H 0.81449 0.43254 0.3502 0.0
C758 C 0.88906 0.4984 0.37335 0.0
C759 C 0.89409 0.50015 0.35483 0.0
C760 C 0.86573 0.48935 0.37936 0.0
C761 C 0.84707 0.48165 0.36695 0.0
C762 C 0.85196 0.48319 0.34848 0.0
H763 H 0.69503 0.4172 0.37 0.0
H764 H 0.7368 0.43268 0.36243 0.0
C765 C 0.8753 0.49243 0.34246 0.0
C766 C 0.82247 0.47249 0.37325 0.0
H767 H 0.76851 0.4218 0.37633 0.0
C768 C 0.81611 0.48865 0.3801 0.0
C769 C 0.80523 0.44812 0.37196 0.0
C770 C 0.81147 0.43013 0.36493 0.0
C771 C 0.79262 0.48112 0.38528 0.0
C772 C 0.77528 0.45668 0.38398 0.0
C773 C 0.78182 0.44051 0.37734 0.0
C774 C 0.75004 0.44757 0.3888 0.0
C775 C 0.78647 0.49954 0.39145 0.0
C776 C 0.74358 0.45062 0.4062 0.0
C777 C 0.71969 0.44198 0.41052 0.0
C778 C 0.70188 0.42984 0.39757 0.0
C779 C 0.70837 0.42649 0.38026 0.0
C780 C 0.73222 0.4353 0.37592 0.0
H781 H 0.80001 0.51775 0.38708 0.0
H782 H 0.76888 0.49557 0.38618 0.0
H783 H 0.78572 0.49948 0.40635 0.0
H784 H 0.75698 0.45952 0.41649 0.0
H785 H 0.71517 0.44464 0.42401 0.0
H786 H 0.06377 0.55835 0.42124 0.0
H787 H 0.08814 0.56648 0.4481 0.0
H788 H 0.14796 0.62322 0.42037 0.0
H789 H 0.12404 0.61431 0.39302 0.0
H790 H 0.16085 0.59606 0.43895 0.0
H791 H 0.10772 0.62036 0.48305 0.0
H792 H 0.09016 0.59134 0.47337 0.0
H793 H 0.10338 0.61715 0.45903 0.0
C794 C 0.08218 0.57242 0.42074 0.0
C795 C 0.09192 0.58566 0.4049 0.0
C796 C 0.09599 0.57729 0.43624 0.0
C797 C 0.11974 0.59577 0.43638 0.0
C798 C 0.1296 0.60899 0.42061 0.0
H799 H 0.20239 0.65213 0.53426 0.0
H800 H 0.1798 0.64593 0.50655 0.0
C801 C 0.11583 0.60401 0.40503 0.0
C802 C 0.13444 0.6008 0.45282 0.0
H803 H 0.13615 0.61301 0.49764 0.0
C804 C 0.15555 0.59994 0.45176 0.0
C805 C 0.1277 0.60621 0.46948 0.0
C806 C 0.10614 0.60908 0.47129 0.0
C807 C 0.16987 0.60386 0.46697 0.0
C808 C 0.1625 0.6081 0.48381 0.0
C809 C 0.14163 0.60943 0.48479 0.0
C810 C 0.17639 0.61171 0.50054 0.0
C811 C 0.19295 0.60388 0.46473 0.0
C812 C 0.18175 0.5944 0.50654 0.0
C813 C 0.19492 0.59805 0.52228 0.0
C814 C 0.20256 0.61885 0.53249 0.0
C815 C 0.19672 0.6359 0.52669 0.0
C816 C 0.18382 0.63238 0.51085 0.0
H817 H 0.19932 0.6076 0.45059 0.0
H818 H 0.20704 0.61734 0.47357 0.0
H819 H 0.19017 0.58608 0.46834 0.0
H820 H 0.17563 0.57801 0.4991 0.0
H821 H 0.199 0.58452 0.52652 0.0
H822 H 0.51322 0.06174 0.58946 0.0
H823 H 0.5297 0.08541 0.61675 0.0
H824 H 0.54868 0.14944 0.58687 0.0
H825 H 0.53211 0.12581 0.55947 0.0
H826 H 0.57567 0.1207 0.62289 0.0
H827 H 0.51367 0.15559 0.63021 0.0
H828 H 0.50777 0.13124 0.61535 0.0
H829 H 0.52802 0.1614 0.60868 0.0
C830 C 0.52091 0.08087 0.58869 0.0
C831 C 0.52141 0.09193 0.57231 0.0
C832 C 0.53024 0.09435 0.6043 0.0
C833 C 0.54018 0.11914 0.60388 0.0
C834 C 0.54064 0.13027 0.58757 0.0
H835 H 0.63546 0.21818 0.68456 0.0
H836 H 0.61811 0.19446 0.65735 0.0
C837 C 0.5312 0.11677 0.57193 0.0
C838 C 0.55082 0.13331 0.6204 0.0
H839 H 0.5472 0.17195 0.64962 0.0
C840 C 0.56942 0.13188 0.62877 0.0
C841 C 0.54244 0.14764 0.62814 0.0
C842 C 0.52173 0.14895 0.62025 0.0
C843 C 0.58005 0.14457 0.64459 0.0
C844 C 0.57213 0.15943 0.65204 0.0
C845 C 0.55336 0.16069 0.64378 0.0
C846 C 0.58281 0.17357 0.66857 0.0
C847 C 0.59931 0.14157 0.65337 0.0
C848 C 0.56863 0.16998 0.68378 0.0
C849 C 0.57845 0.18361 0.69928 0.0
C850 C 0.60263 0.20113 0.69981 0.0
C851 C 0.61682 0.20467 0.68458 0.0
C852 C 0.60696 0.19107 0.66906 0.0
H853 H 0.59886 0.12505 0.6488 0.0
H854 H 0.61691 0.15688 0.64974 0.0
H855 H 0.59762 0.14104 0.66825 0.0
H856 H 0.54994 0.1566 0.68365 0.0
H857 H 0.56705 0.18053 0.71079 0.0
H858 H 0.42392 0.53422 0.72223 0.0
H859 H 0.41723 0.55218 0.74899 0.0
H860 H 0.45893 0.53082 0.78071 0.0
H861 H 0.46569 0.51288 0.75411 0.0
H862 H 0.39661 0.53235 0.78202 0.0
H863 H 0.49099 0.60232 0.79043 0.0
H864 H 0.47987 0.58493 0.77012 0.0
H865 H 0.48659 0.57274 0.78949 0.0
C866 C 0.4315 0.5332 0.73495 0.0
C867 C 0.44554 0.52237 0.73604 0.0
C868 C 0.42775 0.54355 0.75019 0.0
C869 C 0.43801 0.54326 0.76673 0.0
C870 C 0.45139 0.5318 0.76797 0.0
H871 H 0.40183 0.56819 0.87339 0.0
H872 H 0.40752 0.55138 0.84566 0.0
C873 C 0.45521 0.52154 0.75276 0.0
C874 C 0.43466 0.55481 0.78277 0.0
H875 H 0.46496 0.59716 0.81473 0.0
C876 C 0.41152 0.54661 0.78913 0.0
C877 C 0.45413 0.57365 0.79184 0.0
C878 C 0.47928 0.58412 0.78504 0.0
C879 C 0.40738 0.55634 0.80464 0.0
C880 C 0.42694 0.57446 0.81416 0.0
C881 C 0.45002 0.58308 0.80752 0.0
C882 C 0.42386 0.58471 0.83107 0.0
C883 C 0.38208 0.54732 0.81056 0.0
C884 C 0.4319 0.60917 0.83226 0.0
C885 C 0.4289 0.61887 0.84816 0.0
C886 C 0.41787 0.60426 0.86315 0.0
C887 C 0.41026 0.57986 0.86203 0.0
C888 C 0.41333 0.5702 0.84615 0.0
H889 H 0.36932 0.53854 0.79934 0.0
H890 H 0.37752 0.53399 0.82141 0.0
H891 H 0.37978 0.56202 0.81589 0.0
H892 H 0.44023 0.6207 0.8208 0.0
H893 H 0.43495 0.63774 0.84863 0.0
H894 H 0.9102 0.43505 0.89267 0.0
H895 H 0.88731 0.42972 0.92015 0.0
H896 H 0.95061 0.45284 0.95197 0.0
H897 H 0.97376 0.45878 0.92454 0.0
H898 H 0.8813 0.40053 0.95033 0.0
H899 H 0.92467 0.49632 0.9686 0.0
H900 H 0.92712 0.48628 0.94647 0.0
H901 H 0.94468 0.48523 0.96472 0.0
C902 C 0.91928 0.43917 0.90552 0.0
C903 C 0.94382 0.44747 0.90643 0.0
C904 C 0.90616 0.43599 0.92119 0.0
C905 C 0.91735 0.44121 0.93804 0.0
C906 C 0.94173 0.44907 0.93906 0.0
H907 H 0.84921 0.39939 0.04262 0.0
H908 H 0.87337 0.40573 0.01574 0.0
C909 C 0.95487 0.4522 0.92339 0.0
C910 C 0.90342 0.43825 0.95456 0.0
H911 H 0.89784 0.46876 0.98988 0.0
C912 C 0.88488 0.41543 0.95899 0.0
C913 C 0.908 0.45779 0.96567 0.0
C914 C 0.92705 0.48284 0.96111 0.0
C915 C 0.87096 0.41155 0.97441 0.0
C916 C 0.87593 0.43099 0.98577 0.0
C917 C 0.89425 0.45387 0.98121 0.0
C918 C 0.86204 0.42794 0.00232 0.0
C919 C 0.85081 0.38676 0.97828 0.0
C920 C 0.84822 0.4389 0.00388 0.0
C921 C 0.83444 0.43539 0.01925 0.0
C922 C 0.83443 0.42097 0.03336 0.0
C923 C 0.84877 0.41051 0.03194 0.0
C924 C 0.86249 0.414 0.01656 0.0
H925 H 0.84588 0.37511 0.96622 0.0
H926 H 0.85632 0.37866 0.98902 0.0
H927 H 0.83486 0.38722 0.98305 0.0
H928 H 0.84775 0.44983 0.99305 0.0
H929 H 0.82361 0.44372 0.01998 0.0
H930 H 0.47758 0.94289 0.07007 0.0
H931 H 0.46026 0.91957 0.09737 0.0
H932 H 0.5246 0.91753 0.10694 0.0
H933 H 0.54193 0.94034 0.07938 0.0
H934 H 0.45488 0.87267 0.10585 0.0
H935 H 0.51125 0.94394 0.15456 0.0
H936 H 0.5073 0.9502 0.13155 0.0
H937 H 0.5266 0.93865 0.13662 0.0
C938 C 0.48799 0.93728 0.07784 0.0
C939 C 0.51117 0.94349 0.07249 0.0
C940 C 0.4781 0.92409 0.09349 0.0
C941 C 0.49126 0.91709 0.10421 0.0
C942 C 0.51432 0.92312 0.09895 0.0
H943 H 0.46625 0.84076 0.20442 0.0
H944 H 0.48277 0.86436 0.17712 0.0
C945 C 0.5242 0.9362 0.08323 0.0
C946 C 0.48068 0.90313 0.12076 0.0
H947 H 0.48554 0.90572 0.1665 0.0
C948 C 0.46148 0.87986 0.11914 0.0
C949 C 0.48945 0.91264 0.138 0.0
C950 C 0.50968 0.93779 0.14042 0.0
C951 C 0.45105 0.86558 0.13436 0.0
C952 C 0.45972 0.87511 0.15166 0.0
C953 C 0.4789 0.89847 0.15324 0.0
C954 C 0.44951 0.86101 0.16828 0.0
C955 C 0.43134 0.84021 0.13172 0.0
C956 C 0.42539 0.85161 0.17253 0.0
C957 C 0.41585 0.83794 0.18808 0.0
C958 C 0.43037 0.83375 0.19974 0.0
C959 C 0.45462 0.84367 0.19568 0.0
C960 C 0.46409 0.85716 0.18009 0.0
H961 H 0.43132 0.8338 0.11786 0.0
H962 H 0.43292 0.82806 0.14141 0.0
H963 H 0.41397 0.83918 0.13394 0.0
H964 H 0.41394 0.85485 0.16385 0.0
H965 H 0.39714 0.83067 0.19094 0.0
H966 H 0.56264 0.52126 0.25498 0.0
H967 H 0.5698 0.50467 0.28218 0.0
H968 H 0.61524 0.48638 0.25224 0.0
H969 H 0.60818 0.50303 0.22491 0.0
H970 H 0.5594 0.45864 0.28813 0.0
H971 H 0.65612 0.52148 0.29576 0.0
H972 H 0.63759 0.52726 0.28094 0.0
H973 H 0.64775 0.50727 0.27415 0.0
C974 C 0.57415 0.51369 0.25417 0.0
C975 C 0.58483 0.51342 0.23779 0.0
C976 C 0.57829 0.5043 0.26974 0.0
C977 C 0.59324 0.49453 0.26928 0.0
C978 C 0.60402 0.49429 0.25298 0.0
H979 H 0.59774 0.39907 0.34932 0.0
H980 H 0.59114 0.4165 0.32228 0.0
C981 C 0.59996 0.50378 0.23738 0.0
C982 C 0.59681 0.48386 0.28576 0.0
H983 H 0.63911 0.48775 0.31499 0.0
C984 C 0.57681 0.46503 0.29403 0.0
C985 C 0.61951 0.49242 0.29354 0.0
C986 C 0.64147 0.51336 0.28577 0.0
C987 C 0.57893 0.45434 0.3098 0.0
C988 C 0.60171 0.46245 0.31729 0.0
C989 C 0.62168 0.48145 0.30913 0.0
C990 C 0.60522 0.45169 0.33374 0.0
C991 C 0.5567 0.43481 0.31847 0.0
C992 C 0.61568 0.46579 0.34904 0.0
C993 C 0.61962 0.45592 0.36444 0.0
C994 C 0.61323 0.43179 0.3648 0.0
C995 C 0.60267 0.41767 0.34949 0.0
C996 C 0.59881 0.42758 0.33406 0.0
H997 H 0.54057 0.43509 0.31392 0.0
H998 H 0.5546 0.4173 0.31474 0.0
H999 H 0.55779 0.43637 0.33336 0.0
H1000 H 0.62083 0.48445 0.34904 0.0
H1001 H 0.62785 0.46726 0.37602 0.0
H1002 H 0.4833 0.9514 0.41436 0.0
H1003 H 0.4771 0.92876 0.38661 0.0
H1004 H 0.4046 0.91372 0.38428 0.0
H1005 H 0.41054 0.93605 0.41226 0.0
H1006 H 0.41106 0.87329 0.3792 0.0
H1007 H 0.46978 0.94957 0.33521 0.0
H1008 H 0.48308 0.94777 0.35592 0.0
H1009 H 0.45864 0.95329 0.3565 0.0
C1010 C 0.46599 0.94317 0.408 0.0
C1011 C 0.44739 0.94548 0.41549 0.0
C1012 C 0.46256 0.93045 0.39206 0.0
C1013 C 0.44049 0.91985 0.38331 0.0
C1014 C 0.42181 0.92194 0.39079 0.0
H1015 H 0.40546 0.85681 0.27671 0.0
H1016 H 0.41183 0.88113 0.30358 0.0
C1017 C 0.42526 0.93477 0.4067 0.0
C1018 C 0.43677 0.90604 0.36661 0.0
H1019 H 0.45529 0.91087 0.32306 0.0
C1020 C 0.42064 0.88148 0.3669 0.0
C1021 C 0.44918 0.91688 0.35058 0.0
C1022 C 0.46601 0.94336 0.34939 0.0
C1023 C 0.41692 0.86734 0.35162 0.0
C1024 C 0.42985 0.87806 0.33574 0.0
C1025 C 0.44561 0.9027 0.33533 0.0
C1026 C 0.42697 0.86397 0.31933 0.0
C1027 C 0.39902 0.84108 0.3525 0.0
C1028 C 0.43385 0.84665 0.31922 0.0
C1029 C 0.43032 0.8328 0.30389 0.0
C1030 C 0.41985 0.83608 0.28842 0.0
C1031 C 0.41351 0.85385 0.28844 0.0
C1032 C 0.41713 0.86775 0.30376 0.0
H1033 H 0.38693 0.83664 0.36422 0.0
H1034 H 0.38818 0.83507 0.34003 0.0
H1035 H 0.40855 0.83096 0.35379 0.0
H1036 H 0.4418 0.84375 0.33105 0.0
H1037 H 0.43544 0.81928 0.30425 0.0
H1038 H 0.49116 0.41421 0.57449 0.0
H1039 H 0.50876 0.40924 0.54688 0.0
H1040 H 0.57304 0.47562 0.55718 0.0
H1041 H 0.55547 0.48112 0.58452 0.0
H1042 H 0.52855 0.4437 0.5167 0.0
H1043 H 0.59425 0.42472 0.54945 0.0
H1044 H 0.56825 0.42122 0.56102 0.0
H1045 H 0.59332 0.45039 0.55748 0.0
C1046 C 0.50898 0.42785 0.57084 0.0
C1047 C 0.52193 0.44802 0.58179 0.0
C1048 C 0.51903 0.42491 0.55512 0.0
C1049 C 0.54225 0.44194 0.55016 0.0
C1050 C 0.55522 0.4621 0.56097 0.0
H1051 H 0.63495 0.45066 0.4625 0.0
H1052 H 0.61791 0.45825 0.48938 0.0
C1053 C 0.54516 0.46514 0.57663 0.0
C1054 C 0.55278 0.43888 0.53347 0.0
H1055 H 0.59624 0.42869 0.51784 0.0
C1056 C 0.54331 0.44036 0.5169 0.0
C1057 C 0.57213 0.43472 0.53386 0.0
C1058 C 0.58257 0.43248 0.55138 0.0
C1059 C 0.55288 0.43803 0.50061 0.0
C1060 C 0.57204 0.43351 0.50098 0.0
C1061 C 0.58157 0.43217 0.51759 0.0
C1062 C 0.58211 0.42955 0.48432 0.0
C1063 C 0.54268 0.44093 0.48318 0.0
C1064 C 0.56767 0.41084 0.47263 0.0
C1065 C 0.5773 0.40659 0.45724 0.0
C1066 C 0.60164 0.42078 0.45338 0.0
C1067 C 0.61612 0.43948 0.46511 0.0
C1068 C 0.60642 0.4438 0.48047 0.0
H1069 H 0.53345 0.45127 0.48513 0.0
H1070 H 0.55676 0.45001 0.47287 0.0
H1071 H 0.52947 0.4231 0.47797 0.0
H1072 H 0.54899 0.39924 0.47556 0.0
H1073 H 0.56574 0.39191 0.44854 0.0
H1074 H 0.05858 0.51416 0.73212 0.0
H1075 H 0.08175 0.53076 0.70467 0.0
H1076 H 0.1462 0.54988 0.73388 0.0
H1077 H 0.12309 0.53328 0.76146 0.0
H1078 H 0.11715 0.57704 0.69845 0.0
H1079 H 0.1513 0.51451 0.69017 0.0
H1080 H 0.12717 0.50865 0.70521 0.0
H1081 H 0.15739 0.52873 0.71179 0.0
C1082 C 0.07769 0.52193 0.73272 0.0
C1083 C 0.08902 0.52244 0.74897 0.0
C1084 C 0.09089 0.53132 0.71701 0.0
C1085 C 0.11565 0.54132 0.71719 0.0
C1086 C 0.12705 0.5418 0.73336 0.0
H1087 H 0.21523 0.63725 0.63749 0.0
H1088 H 0.19079 0.61951 0.66429 0.0
C1089 C 0.11384 0.53233 0.7491 0.0
C1090 C 0.12953 0.55195 0.70057 0.0
H1091 H 0.16771 0.54829 0.67097 0.0
C1092 C 0.12816 0.57073 0.6924 0.0
C1093 C 0.14363 0.54347 0.6926 0.0
C1094 C 0.14485 0.52259 0.70027 0.0
C1095 C 0.14077 0.58149 0.67659 0.0
C1096 C 0.15546 0.5735 0.66893 0.0
C1097 C 0.15657 0.5545 0.67696 0.0
C1098 C 0.16973 0.5845 0.65253 0.0
C1099 C 0.13795 0.60102 0.66807 0.0
C1100 C 0.16623 0.57062 0.63712 0.0
C1101 C 0.18026 0.58066 0.62185 0.0
C1102 C 0.19812 0.60475 0.62174 0.0
C1103 C 0.20148 0.61868 0.63713 0.0
C1104 C 0.18747 0.6086 0.65242 0.0
H1105 H 0.1215 0.6006 0.67271 0.0
H1106 H 0.1533 0.61853 0.67186 0.0
H1107 H 0.13745 0.59959 0.65317 0.0
H1108 H 0.15269 0.55196 0.63696 0.0
H1109 H 0.17731 0.56947 0.61021 0.0
H1110 H 0.56805 0.06231 0.89941 0.0
H1111 H 0.57545 0.08615 0.87221 0.0
H1112 H 0.61645 0.15035 0.90309 0.0
H1113 H 0.60919 0.12654 0.93041 0.0
H1114 H 0.56249 0.11961 0.86562 0.0
H1115 H 0.6604 0.15987 0.8609 0.0
H1116 H 0.64233 0.13489 0.87536 0.0
H1117 H 0.65023 0.16454 0.88215 0.0
C1118 C 0.57866 0.08151 0.90041 0.0
C1119 C 0.588 0.09258 0.91705 0.0
C1120 C 0.58294 0.09509 0.88485 0.0
C1121 C 0.59669 0.11999 0.88559 0.0
C1122 C 0.6062 0.13113 0.90215 0.0
H1123 H 0.59756 0.21711 0.80449 0.0
H1124 H 0.59165 0.19361 0.83173 0.0
C1125 C 0.60201 0.11752 0.91774 0.0
C1126 C 0.60016 0.13422 0.86911 0.0
H1127 H 0.64248 0.17481 0.84091 0.0
C1128 C 0.57998 0.13165 0.86019 0.0
C1129 C 0.62298 0.1497 0.86196 0.0
C1130 C 0.64523 0.15231 0.87047 0.0
C1131 C 0.58198 0.1443 0.84437 0.0
C1132 C 0.60481 0.16028 0.83749 0.0
C1133 C 0.625 0.16269 0.84631 0.0
C1134 C 0.60814 0.17438 0.82098 0.0
C1135 C 0.55961 0.14008 0.83497 0.0
C1136 C 0.61974 0.17167 0.80603 0.0
C1137 C 0.62327 0.18516 0.79051 0.0
C1138 C 0.61532 0.20168 0.78969 0.0
C1139 C 0.60371 0.20438 0.80468 0.0
C1140 C 0.60024 0.19091 0.82022 0.0
H1141 H 0.5439 0.12305 0.83923 0.0
H1142 H 0.55616 0.15472 0.83838 0.0
H1143 H 0.56148 0.13978 0.82015 0.0
H1144 H 0.62604 0.15906 0.80638 0.0
H1145 H 0.63235 0.18275 0.7792 0.0
H1146 H 0.48139 0.55119 0.08044 0.0
H1147 H 0.46477 0.5573 0.05279 0.0
H1148 H 0.52289 0.6296 0.04981 0.0
H1149 H 0.53946 0.62378 0.07771 0.0
H1150 H 0.47635 0.62375 0.04477 0.0
H1151 H 0.49219 0.56336 0.00135 0.0
H1152 H 0.47706 0.55052 0.02214 0.0
H1153 H 0.50724 0.57467 0.02256 0.0
C1154 C 0.49057 0.56845 0.07397 0.0
C1155 C 0.51174 0.58702 0.08126 0.0
C1156 C 0.48117 0.57182 0.05809 0.0
C1157 C 0.49277 0.59379 0.04917 0.0
C1158 C 0.51378 0.61246 0.05646 0.0
H1159 H 0.46589 0.62784 0.94205 0.0
H1160 H 0.48329 0.62149 0.9692 0.0
C1161 C 0.52327 0.60907 0.07232 0.0
C1162 C 0.48267 0.59741 0.03244 0.0
H1163 H 0.46857 0.57833 0.98901 0.0
C1164 C 0.4747 0.61389 0.03255 0.0
C1165 C 0.48077 0.58466 0.01651 0.0
C1166 C 0.48993 0.56744 0.01549 0.0
C1167 C 0.46444 0.61765 0.0172 0.0
C1168 C 0.46193 0.6044 0.00143 0.0
C1169 C 0.47031 0.58825 0.00121 0.0
C1170 C 0.45103 0.60742 0.9849 0.0
C1171 C 0.45663 0.63596 0.01789 0.0
C1172 C 0.42701 0.60115 0.98466 0.0
C1173 C 0.41698 0.60468 0.96916 0.0
C1174 C 0.43085 0.61451 0.95365 0.0
C1175 C 0.45478 0.62028 0.95381 0.0
C1176 C 0.46475 0.61667 0.96929 0.0
H1177 H 0.46452 0.6482 0.02954 0.0
H1178 H 0.46165 0.64665 0.00534 0.0
H1179 H 0.437 0.62676 0.0192 0.0
H1180 H 0.41605 0.59364 0.99651 0.0
H1181 H 0.39849 0.60001 0.96941 0.0
H1182 H 0.94789 0.48101 0.24862 0.0
H1183 H 0.92485 0.46455 0.22102 0.0
H1184 H 0.90984 0.52213 0.21925 0.0
H1185 H 0.93265 0.53859 0.24702 0.0
H1186 H 0.8692 0.47413 0.2142 0.0
H1187 H 0.94578 0.49447 0.16965 0.0
H1188 H 0.94435 0.47944 0.19033 0.0
H1189 H 0.94919 0.50919 0.19098 0.0
C1190 C 0.93956 0.49009 0.24242 0.0
C1191 C 0.94207 0.5111 0.24998 0.0
C1192 C 0.92659 0.48078 0.22659 0.0
C1193 C 0.9159 0.49229 0.21804 0.0
C1194 C 0.91812 0.5131 0.22562 0.0
H1195 H 0.85319 0.46831 0.11175 0.0
H1196 H 0.87691 0.48511 0.13904 0.0
C1197 C 0.93122 0.52252 0.24141 0.0
C1198 C 0.90209 0.48238 0.20132 0.0
H1199 H 0.90729 0.47082 0.15726 0.0
C1200 C 0.87748 0.47342 0.20173 0.0
C1201 C 0.91307 0.48171 0.18509 0.0
C1202 C 0.93958 0.49187 0.18383 0.0
C1203 C 0.86344 0.46342 0.18634 0.0
C1204 C 0.87434 0.46225 0.17021 0.0
C1205 C 0.89901 0.47157 0.16972 0.0
C1206 C 0.86043 0.45179 0.1536 0.0
C1207 C 0.83712 0.45445 0.18735 0.0
C1208 C 0.84364 0.42742 0.15269 0.0
C1209 C 0.83014 0.41775 0.13711 0.0
C1210 C 0.83322 0.43233 0.1222 0.0
C1211 C 0.85038 0.45665 0.12304 0.0
C1212 C 0.86394 0.46627 0.1386 0.0
H1213 H 0.83236 0.46109 0.19953 0.0
H1214 H 0.83102 0.45994 0.17526 0.0
H1215 H 0.82736 0.43471 0.18784 0.0
H1216 H 0.84094 0.41592 0.16407 0.0
H1217 H 0.81709 0.39894 0.13682 0.0
loop_
_geom_bond_atom_site_label_1
_geom_bond_atom_site_label_2
_geom_bond_distance
_geom_bond_site_symmetry_2
_ccdc_geom_bond_type
C0 C1 1.384 . S
C0 C2 1.384 . S
C0 H28 0.931 . S
C1 C0 1.384 . S
C1 C4 1.382 . S
C2 C0 1.384 . S
C2 C3 1.381 . S
C2 H29 0.930 . S
C3 C2 1.381 . S
C3 C5 1.381 . S
C3 C6 1.487 . S
C4 C1 1.382 . S
C4 C5 1.387 . S
C4 H30 0.930 . S
C5 C3 1.381 . S
C5 C4 1.387 . S
C5 H31 0.931 . S
C6 C3 1.487 . S
C6 C13 1.399 1_655 S
C6 N44 1.343 1_655 S
C7 C8 1.384 . S
C7 C9 1.384 . S
C7 H32 0.931 . S
C8 C7 1.384 . S
C8 C11 1.382 . S
C9 C7 1.384 . S
C9 C10 1.381 . S
C9 H33 0.930 . S
C10 C9 1.381 . S
C10 C12 1.381 . S
C10 C13 1.487 1_655 S
C11 C8 1.382 . S
C11 C12 1.387 . S
C11 H34 0.930 . S
C12 C10 1.381 . S
C12 C11 1.387 . S
C12 H35 0.931 1_655 S
C13 C6 1.399 1_455 S
C13 C10 1.487 1_455 S
C13 N45 1.343 . S
C14 C15 1.384 . S
C14 C16 1.384 . S
C14 H36 0.931 . S
C15 C14 1.384 . S
C15 C18 1.382 . S
C16 C14 1.384 . S
C16 C17 1.381 . S
C16 H37 0.930 . S
C17 C16 1.381 . S
C17 C19 1.381 . S
C17 C20 1.487 . S
C18 C15 1.382 . S
C18 C19 1.387 . S
C18 H38 0.930 . S
C19 C17 1.381 . S
C19 C18 1.387 . S
C19 H39 0.931 . S
C20 C17 1.487 . S
C20 C27 1.399 . S
C20 N45 1.343 . S
C21 C22 1.384 . S
C21 C23 1.384 . S
C21 H40 0.931 . S
C22 C21 1.384 . S
C22 C25 1.382 . S
C23 C21 1.384 . S
C23 C24 1.381 . S
C23 H41 0.930 . S
C24 C23 1.381 . S
C24 C26 1.381 . S
C24 C27 1.487 . S
C25 C22 1.382 . S
C25 C26 1.387 . S
C25 H42 0.930 . S
C26 C24 1.381 . S
C26 C25 1.387 . S
C26 H43 0.931 . S
C27 C20 1.399 . S
C27 C24 1.487 . S
C27 N44 1.343 . S
H28 C0 0.931 . S
H29 C2 0.930 . S
H30 C4 0.930 . S
H31 C5 0.931 . S
H32 C7 0.931 . S
H33 C9 0.930 . S
H34 C11 0.930 . S
H35 C12 0.931 1_455 S
H36 C14 0.931 . S
H37 C16 0.930 . S
H38 C18 0.930 . S
H39 C19 0.931 . S
H40 C21 0.931 . S
H41 C23 0.930 . S
H42 C25 0.930 . S
H43 C26 0.931 . S
N44 C6 1.343 1_455 S
N44 C27 1.343 . S
N45 C13 1.343 . S
N45 C20 1.343 . S
C46 C47 1.384 . S
C46 C48 1.384 . S
C46 H74 0.931 . S
C47 C46 1.384 . S
C47 C50 1.382 . S
C48 C46 1.384 . S
C48 C49 1.381 . S
C48 H75 0.930 . S
C49 C48 1.381 . S
C49 C51 1.381 . S
C49 C52 1.487 . S
C50 C47 1.382 . S
C50 C51 1.387 . S
C50 H76 0.930 . S
C51 C49 1.381 . S
C51 C50 1.387 . S
C51 H77 0.931 . S
C52 C49 1.487 . S
C52 C59 1.399 1_565 S
C52 N90 1.343 1_565 S
C53 C54 1.384 . S
C53 C55 1.384 . S
C53 H78 0.931 . S
C54 C53 1.384 . S
C54 C57 1.382 . S
C55 C53 1.384 . S
C55 C56 1.381 . S
C55 H79 0.930 . S
C56 C55 1.381 . S
C56 C58 1.381 . S
C56 C59 1.487 1_565 S
C57 C54 1.382 . S
C57 C58 1.387 . S
C57 H80 0.930 . S
C58 C56 1.381 . S
C58 C57 1.387 . S
C58 H81 0.931 1_565 S
C59 C52 1.399 1_545 S
C59 C56 1.487 1_545 S
C59 N91 1.343 . S
C60 C61 1.384 . S
C60 C62 1.384 . S
C60 H82 0.931 . S
C61 C60 1.384 . S
C61 C64 1.382 . S
C62 C60 1.384 . S
C62 C63 1.381 . S
C62 H83 0.930 . S
C63 C62 1.381 . S
C63 C65 1.381 . S
C63 C66 1.487 . S
C64 C61 1.382 . S
C64 C65 1.387 . S
C64 H84 0.930 . S
C65 C63 1.381 . S
C65 C64 1.387 . S
C65 H85 0.931 . S
C66 C63 1.487 . S
C66 C73 1.399 . S
C66 N91 1.343 . S
C67 C68 1.384 . S
C67 C69 1.384 . S
C67 H86 0.931 . S
C68 C67 1.384 . S
C68 C71 1.382 . S
C69 C67 1.384 . S
C69 C70 1.381 . S
C69 H87 0.930 . S
C70 C69 1.381 . S
C70 C72 1.381 . S
C70 C73 1.487 . S
C71 C68 1.382 . S
C71 C72 1.387 . S
C71 H88 0.930 . S
C72 C70 1.381 . S
C72 C71 1.387 . S
C72 H89 0.931 . S
C73 C66 1.399 . S
C73 C70 1.487 . S
C73 N90 1.343 . S
H74 C46 0.931 . S
H75 C48 0.930 . S
H76 C50 0.930 . S
H77 C51 0.931 . S
H78 C53 0.931 . S
H79 C55 0.930 . S
H80 C57 0.930 . S
H81 C58 0.931 1_545 S
H82 C60 0.931 . S
H83 C62 0.930 . S
H84 C64 0.930 . S
H85 C65 0.931 . S
H86 C67 0.931 . S
H87 C69 0.930 . S
H88 C71 0.930 . S
H89 C72 0.931 . S
N90 C52 1.343 1_545 S
N90 C73 1.343 . S
N91 C59 1.343 . S
N91 C66 1.343 . S
C92 C93 1.384 . S
C92 C94 1.384 . S
C92 H120 0.931 . S
C93 C92 1.384 . S
C93 C96 1.382 . S
C94 C92 1.384 . S
C94 C95 1.381 . S
C94 H121 0.930 . S
C95 C94 1.381 . S
C95 C97 1.381 . S
C95 C98 1.487 . S
C96 C93 1.382 . S
C96 C97 1.387 . S
C96 H122 0.930 . S
C97 C95 1.381 . S
C97 C96 1.387 . S
C97 H123 0.931 . S
C98 C95 1.487 . S
C98 C105 1.399 . S
C98 N136 1.343 . S
C99 C100 1.384 . S
C99 C101 1.384 . S
C99 H124 0.931 . S
C100 C99 1.384 . S
C100 C103 1.382 . S
C101 C99 1.384 . S
C101 C102 1.381 . S
C101 H125 0.930 . S
C102 C101 1.381 . S
C102 C104 1.381 . S
C102 C105 1.487 . S
C103 C100 1.382 . S
C103 C104 1.387 . S
C103 H126 0.930 . S
C104 C102 1.381 . S
C104 C103 1.387 . S
C104 H127 0.931 . S
C105 C98 1.399 . S
C105 C102 1.487 . S
C105 N137 1.343 . S
C106 C107 1.384 . S
C106 C108 1.384 . S
C106 H128 0.931 . S
C107 C106 1.384 . S
C107 C110 1.382 . S
C108 C106 1.384 . S
C108 C109 1.381 . S
C108 H129 0.930 . S
C109 C108 1.381 . S
C109 C111 1.381 . S
C109 C112 1.487 . S
C110 C107 1.382 . S
C110 C111 1.387 . S
C110 H130 0.930 . S
C111 C109 1.381 . S
C111 C110 1.387 . S
C111 H131 0.931 . S
C112 C109 1.487 . S
C112 C119 1.399 . S
C112 N137 1.343 . S
C113 C114 1.384 . S
C113 C115 1.384 . S
C113 H132 0.931 . S
C114 C113 1.384 . S
C114 C117 1.382 . S
C115 C113 1.384 . S
C115 C116 1.381 . S
C115 H133 0.930 . S
C116 C115 1.381 . S
C116 C118 1.381 . S
C116 C119 1.487 . S
C117 C114 1.382 . S
C117 C118 1.387 . S
C117 H134 0.930 . S
C118 C116 1.381 . S
C118 C117 1.387 . S
C118 H135 0.931 . S
C119 C112 1.399 . S
C119 C116 1.487 . S
C119 N136 1.343 . S
H120 C92 0.931 . S
H121 C94 0.930 . S
H122 C96 0.930 . S
H123 C97 0.931 . S
H124 C99 0.931 . S
H125 C101 0.930 . S
H126 C103 0.930 . S
H127 C104 0.931 . S
H128 C106 0.931 . S
H129 C108 0.930 . S
H130 C110 0.930 . S
H131 C111 0.931 . S
H132 C113 0.931 . S
H133 C115 0.930 . S
H134 C117 0.930 . S
H135 C118 0.931 . S
N136 C98 1.343 . S
N136 C119 1.343 . S
N137 C105 1.343 . S
N137 C112 1.343 . S
C138 C139 1.384 . S
C138 C140 1.384 . S
C138 H166 0.931 . S
C139 C138 1.384 . S
C139 C142 1.382 . S
C140 C138 1.384 . S
C140 C141 1.381 . S
C140 H167 0.930 . S
C141 C140 1.381 . S
C141 C143 1.381 . S
C141 C144 1.487 . S
C142 C139 1.382 . S
C142 C143 1.387 . S
C142 H168 0.930 . S
C143 C141 1.381 . S
C143 C142 1.387 . S
C143 H169 0.931 . S
C144 C141 1.487 . S
C144 C151 1.399 1_655 S
C144 N182 1.343 1_655 S
C145 C146 1.384 . S
C145 C147 1.384 . S
C145 H170 0.931 . S
C146 C145 1.384 . S
C146 C149 1.382 . S
C147 C145 1.384 . S
C147 C148 1.381 . S
C147 H171 0.930 . S
C148 C147 1.381 . S
C148 C150 1.381 . S
C148 C151 1.487 1_655 S
C149 C146 1.382 . S
C149 C150 1.387 . S
C149 H172 0.930 . S
C150 C148 1.381 . S
C150 C149 1.387 . S
C150 H173 0.931 1_655 S
C151 C144 1.399 1_455 S
C151 C148 1.487 1_455 S
C151 N183 1.343 . S
C152 C153 1.384 . S
C152 C154 1.384 . S
C152 H174 0.931 . S
C153 C152 1.384 . S
C153 C156 1.382 . S
C154 C152 1.384 . S
C154 C155 1.381 . S
C154 H175 0.930 . S
C155 C154 1.381 . S
C155 C157 1.381 . S
C155 C158 1.487 . S
C156 C153 1.382 . S
C156 C157 1.387 . S
C156 H176 0.930 . S
C157 C155 1.381 . S
C157 C156 1.387 . S
C157 H177 0.931 . S
C158 C155 1.487 . S
C158 C165 1.399 . S
C158 N183 1.343 . S
C159 C160 1.384 . S
C159 C161 1.384 . S
C159 H178 0.931 . S
C160 C159 1.384 . S
C160 C163 1.382 . S
C161 C159 1.384 . S
C161 C162 1.381 . S
C161 H179 0.930 . S
C162 C161 1.381 . S
C162 C164 1.381 . S
C162 C165 1.487 . S
C163 C160 1.382 . S
C163 C164 1.387 . S
C163 H180 0.930 . S
C164 C162 1.381 . S
C164 C163 1.387 . S
C164 H181 0.931 . S
C165 C158 1.399 . S
C165 C162 1.487 . S
C165 N182 1.343 . S
H166 C138 0.931 . S
H167 C140 0.930 . S
H168 C142 0.930 . S
H169 C143 0.931 . S
H170 C145 0.931 . S
H171 C147 0.930 . S
H172 C149 0.930 . S
H173 C150 0.931 1_455 S
H174 C152 0.931 . S
H175 C154 0.930 . S
H176 C156 0.930 . S
H177 C157 0.931 . S
H178 C159 0.931 . S
H179 C161 0.930 . S
H180 C163 0.930 . S
H181 C164 0.931 . S
N182 C144 1.343 1_455 S
N182 C165 1.343 . S
N183 C151 1.343 . S
N183 C158 1.343 . S
C184 C185 1.384 . S
C184 C186 1.384 . S
C184 H212 0.931 . S
C185 C184 1.384 . S
C185 C188 1.382 . S
C186 C184 1.384 . S
C186 C187 1.381 . S
C186 H213 0.908 1_556 S
C187 C186 1.381 . S
C187 C189 1.381 . S
C187 C190 1.487 . S
C188 C185 1.382 . S
C188 C189 1.387 . S
C188 H214 0.930 . S
C189 C187 1.381 . S
C189 C188 1.387 . S
C189 H215 0.931 . S
C190 C187 1.487 . S
C190 C197 1.399 1_566 S
C190 N228 1.343 1_565 S
C191 C192 1.384 . S
C191 C193 1.384 . S
C191 H216 0.931 . S
C192 C191 1.384 . S
C192 C195 1.382 . S
C193 C191 1.384 . S
C193 C194 1.381 . S
C193 H217 0.930 . S
C194 C193 1.381 . S
C194 C196 1.381 . S
C194 C197 1.487 1_565 S
C195 C192 1.382 . S
C195 C196 1.387 . S
C195 H218 0.930 . S
C196 C194 1.381 . S
C196 C195 1.387 . S
C196 H219 0.931 1_565 S
C197 C190 1.399 1_544 S
C197 C194 1.487 1_545 S
C197 N229 1.343 . S
C198 C199 1.384 . S
C198 C200 1.384 1_554 S
C198 H220 0.931 1_554 S
C199 C198 1.384 . S
C199 C202 1.382 . S
C200 C198 1.384 1_556 S
C200 C201 1.381 1_556 S
C200 H221 0.930 . S
C201 C200 1.381 1_554 S
C201 C203 1.381 . S
C201 C204 1.487 1_554 S
C202 C199 1.382 . S
C202 C203 1.387 . S
C202 H222 0.930 . S
C203 C201 1.381 . S
C203 C202 1.387 . S
C203 H223 0.931 . S
C204 C201 1.487 1_556 S
C204 C211 1.399 . S
C204 N229 1.343 1_556 S
C205 C206 1.384 . S
C205 C207 1.384 . S
C205 H224 0.931 . S
C206 C205 1.384 . S
C206 C209 1.382 . S
C207 C205 1.384 . S
C207 C208 1.381 . S
C207 H225 0.930 . S
C208 C207 1.381 . S
C208 C210 1.381 . S
C208 C211 1.487 . S
C209 C206 1.382 . S
C209 C210 1.387 . S
C209 H226 0.930 . S
C210 C208 1.381 . S
C210 C209 1.387 . S
C210 H227 0.931 . S
C211 C204 1.399 . S
C211 C208 1.487 . S
C211 N228 1.343 . S
H212 C184 0.931 . S
H213 C186 0.908 1_554 S
H214 C188 0.930 . S
H215 C189 0.931 . S
H216 C191 0.931 . S
H217 C193 0.930 . S
H218 C195 0.930 . S
H219 C196 0.931 1_545 S
H220 C198 0.931 1_556 S
H221 C200 0.930 . S
H222 C202 0.930 . S
H223 C203 0.931 . S
H224 C205 0.931 . S
H225 C207 0.930 . S
H226 C209 0.930 . S
H227 C210 0.931 . S
N228 C190 1.343 1_545 S
N228 C211 1.343 . S
N229 C197 1.343 . S
N229 C204 1.343 1_554 S
C230 C231 1.384 . S
C230 C232 1.384 . S
C230 H258 0.931 . S
C231 C230 1.384 . S
C231 C234 1.382 . S
C232 C230 1.384 . S
C232 C233 1.381 . S
C232 H259 0.930 . S
C233 C232 1.381 . S
C233 C235 1.381 . S
C233 C236 1.487 . S
C234 C231 1.382 . S
C234 C235 1.387 . S
C234 H260 0.930 . S
C235 C233 1.381 . S
C235 C234 1.387 . S
C235 H261 0.931 . S
C236 C233 1.487 . S
C236 C243 1.399 . S
C236 N274 1.343 . S
C237 C238 1.384 . S
C237 C239 1.384 . S
C237 H262 0.931 . S
C238 C237 1.384 . S
C238 C241 1.382 . S
C239 C237 1.384 . S
C239 C240 1.381 . S
C239 H263 0.930 . S
C240 C239 1.381 . S
C240 C242 1.381 . S
C240 C243 1.487 . S
C241 C238 1.382 . S
C241 C242 1.387 . S
C241 H264 0.930 . S
C242 C240 1.381 . S
C242 C241 1.387 . S
C242 H265 0.931 . S
C243 C236 1.399 . S
C243 C240 1.487 . S
C243 N275 1.343 . S
C244 C245 1.384 . S
C244 C246 1.384 . S
C244 H266 0.931 . S
C245 C244 1.384 . S
C245 C248 1.382 . S
C246 C244 1.384 . S
C246 C247 1.381 . S
C246 H267 0.930 . S
C247 C246 1.381 . S
C247 C249 1.381 . S
C247 C250 1.487 . S
C248 C245 1.382 . S
C248 C249 1.387 . S
C248 H268 0.930 . S
C249 C247 1.381 . S
C249 C248 1.387 . S
C249 H269 0.931 . S
C250 C247 1.487 . S
C250 C257 1.399 . S
C250 N275 1.343 . S
C251 C252 1.384 . S
C251 C253 1.384 . S
C251 H270 0.931 . S
C252 C251 1.384 . S
C252 C255 1.382 . S
C253 C251 1.384 . S
C253 C254 1.381 . S
C253 H271 0.930 . S
C254 C253 1.381 . S
C254 C256 1.381 . S
C254 C257 1.487 . S
C255 C252 1.382 . S
C255 C256 1.387 . S
C255 H272 0.930 . S
C256 C254 1.381 . S
C256 C255 1.387 . S
C256 H273 0.931 . S
C257 C250 1.399 . S
C257 C254 1.487 . S
C257 N274 1.343 . S
H258 C230 0.931 . S
H259 C232 0.930 . S
H260 C234 0.930 . S
H261 C235 0.931 . S
H262 C237 0.931 . S
H263 C239 0.930 . S
H264 C241 0.930 . S
H265 C242 0.931 . S
H266 C244 0.931 . S
H267 C246 0.930 . S
H268 C248 0.930 . S
H269 C249 0.931 . S
H270 C251 0.931 . S
H271 C253 0.930 . S
H272 C255 0.930 . S
H273 C256 0.931 . S
N274 C236 1.343 . S
N274 C257 1.343 . S
N275 C243 1.343 . S
N275 C250 1.343 . S
In276 O277 2.294 . S
In276 O278 2.326 . S
In276 O282 2.266 . S
In276 O283 2.326 . S
In276 O284 2.266 . S
In276 O285 2.326 . S
In276 O287 2.294 . S
In276 O288 2.326 . S
O277 In276 2.294 . S
O277 C286 1.240 . S
O278 In276 2.326 . S
O278 C286 1.252 . S
C279 O282 1.252 . S
C279 O283 1.260 . S
C280 O287 1.240 . S
C280 O288 1.252 . S
C281 O284 1.252 . S
C281 O285 1.260 . S
O282 In276 2.266 . S
O282 C279 1.252 . S
O283 In276 2.326 . S
O283 C279 1.260 . S
O284 In276 2.266 . S
O284 C281 1.252 . S
O285 In276 2.326 . S
O285 C281 1.260 . S
C286 O277 1.240 . S
C286 O278 1.252 . S
O287 In276 2.294 . S
O287 C280 1.240 . S
O288 In276 2.326 . S
O288 C280 1.252 . S
In289 O290 2.294 . S
In289 O291 2.326 . S
In289 O295 2.266 . S
In289 O296 2.326 . S
In289 O297 2.266 . S
In289 O298 2.326 . S
In289 O300 2.294 . S
In289 O301 2.326 . S
O290 In289 2.294 . S
O290 C299 1.240 . S
O291 In289 2.326 . S
O291 C299 1.252 . S
C292 O295 1.252 . S
C292 O296 1.260 . S
C293 O300 1.240 . S
C293 O301 1.252 . S
C294 O297 1.252 . S
C294 O298 1.260 . S
O295 In289 2.266 . S
O295 C292 1.252 . S
O296 In289 2.326 . S
O296 C292 1.260 . S
O297 In289 2.266 . S
O297 C294 1.252 . S
O298 In289 2.326 . S
O298 C294 1.260 . S
C299 O290 1.240 . S
C299 O291 1.252 . S
O300 In289 2.294 . S
O300 C293 1.240 . S
O301 In289 2.326 . S
O301 C293 1.252 . S
In302 O303 2.294 . S
In302 O304 2.326 . S
In302 O308 2.266 . S
In302 O309 2.326 . S
In302 O310 2.266 . S
In302 O311 2.326 . S
In302 O313 2.294 . S
In302 O314 2.326 . S
O303 In302 2.294 . S
O303 C312 1.240 . S
O304 In302 2.326 . S
O304 C312 1.252 . S
C305 O308 1.252 . S
C305 O309 1.260 . S
C306 O313 1.240 . S
C306 O314 1.252 . S
C307 O310 1.252 . S
C307 O311 1.260 . S
O308 In302 2.266 . S
O308 C305 1.252 . S
O309 In302 2.326 . S
O309 C305 1.260 . S
O310 In302 2.266 . S
O310 C307 1.252 . S
O311 In302 2.326 . S
O311 C307 1.260 . S
C312 O303 1.240 . S
C312 O304 1.252 . S
O313 In302 2.294 . S
O313 C306 1.240 . S
O314 In302 2.326 . S
O314 C306 1.252 . S
In315 O316 2.294 . S
In315 O317 2.326 . S
In315 O321 2.266 . S
In315 O322 2.326 . S
In315 O323 2.266 . S
In315 O324 2.326 . S
In315 O326 2.294 . S
In315 O327 2.326 . S
O316 In315 2.294 . S
O316 C325 1.240 . S
O317 In315 2.326 . S
O317 C325 1.252 . S
C318 O321 1.252 . S
C318 O322 1.260 . S
C319 O326 1.240 . S
C319 O327 1.252 . S
C320 O323 1.252 . S
C320 O324 1.260 . S
O321 In315 2.266 . S
O321 C318 1.252 . S
O322 In315 2.326 . S
O322 C318 1.260 . S
O323 In315 2.266 . S
O323 C320 1.252 . S
O324 In315 2.326 . S
O324 C320 1.260 . S
C325 O316 1.240 . S
C325 O317 1.252 . S
O326 In315 2.294 . S
O326 C319 1.240 . S
O327 In315 2.326 . S
O327 C319 1.252 . S
In328 O329 2.294 . S
In328 O330 2.326 . S
In328 O334 2.266 . S
In328 O335 2.326 . S
In328 O336 2.266 . S
In328 O337 2.326 . S
In328 O339 2.294 . S
In328 O340 2.326 . S
O329 In328 2.294 . S
O329 C338 1.240 . S
O330 In328 2.326 . S
O330 C338 1.252 . S
C331 O334 1.252 . S
C331 O335 1.260 . S
C332 O339 1.240 . S
C332 O340 1.252 . S
C333 O336 1.252 . S
C333 O337 1.260 . S
O334 In328 2.266 . S
O334 C331 1.252 . S
O335 In328 2.326 . S
O335 C331 1.260 . S
O336 In328 2.266 . S
O336 C333 1.252 . S
O337 In328 2.326 . S
O337 C333 1.260 . S
C338 O329 1.240 . S
C338 O330 1.252 . S
O339 In328 2.294 . S
O339 C332 1.240 . S
O340 In328 2.326 . S
O340 C332 1.252 . S
In341 O342 2.294 . S
In341 O343 2.326 . S
In341 O347 2.266 . S
In341 O348 2.326 . S
In341 O349 2.266 . S
In341 O350 2.326 . S
In341 O352 2.294 . S
In341 O353 2.326 . S
O342 In341 2.294 . S
O342 C351 1.240 . S
O343 In341 2.326 . S
O343 C351 1.252 . S
C344 O347 1.252 . S
C344 O348 1.260 . S
C345 O352 1.240 . S
C345 O353 1.252 . S
C346 O349 1.252 . S
C346 O350 1.260 . S
O347 In341 2.266 . S
O347 C344 1.252 . S
O348 In341 2.326 . S
O348 C344 1.260 . S
O349 In341 2.266 . S
O349 C346 1.252 . S
O350 In341 2.326 . S
O350 C346 1.260 . S
C351 O342 1.240 . S
C351 O343 1.252 . S
O352 In341 2.294 . S
O352 C345 1.240 . S
O353 In341 2.326 . S
O353 C345 1.252 . S
H354 C362 0.929 . S
H355 C364 0.930 . S
H356 C366 0.930 . S
H357 C369 0.929 . S
H358 C372 0.930 . S
H359 C374 0.960 . S
H360 C374 0.960 . S
H361 C374 0.960 . S
C362 H354 0.929 . S
C362 C363 1.377 . S
C362 C364 1.384 . S
C363 C362 1.377 . S
C363 C369 1.390 . S
C364 H355 0.930 . S
C364 C362 1.384 . S
C364 C365 1.372 . S
C365 C364 1.372 . S
C365 C366 1.400 . S
C365 C370 1.490 . S
C366 H356 0.930 . S
C366 C365 1.400 . S
C366 C369 1.386 . S
H367 C383 0.930 . S
H368 C384 0.931 . S
C369 H357 0.929 . S
C369 C363 1.390 . S
C369 C366 1.386 . S
C370 C365 1.490 . S
C370 C372 1.395 . S
C370 C373 1.403 . S
H371 C377 0.930 . S
C372 H358 0.930 . S
C372 C370 1.395 . S
C372 C375 1.403 . S
C373 C370 1.403 . S
C373 C374 1.524 . S
C373 C377 1.400 . S
C374 H359 0.960 . S
C374 H360 0.960 . S
C374 H361 0.960 . S
C374 C373 1.524 . S
C375 C372 1.403 . S
C375 C376 1.392 . S
C375 C379 1.495 . S
C376 C375 1.392 . S
C376 C377 1.385 . S
C376 C378 1.478 . S
C377 H371 0.930 . S
C377 C373 1.400 . S
C377 C376 1.385 . S
C378 C376 1.478 . S
C378 C380 1.381 . S
C378 C384 1.383 . S
C379 C375 1.495 . S
C379 H385 0.959 . S
C379 H386 0.961 . S
C379 H387 0.960 . S
C380 C378 1.381 . S
C380 C381 1.394 . S
C380 H388 0.930 . S
C381 C380 1.394 . S
C381 C382 1.383 . S
C381 H389 0.929 . S
C382 C381 1.383 . S
C382 C383 1.377 . S
C383 H367 0.930 . S
C383 C382 1.377 . S
C383 C384 1.379 . S
C384 H368 0.931 . S
C384 C378 1.383 . S
C384 C383 1.379 . S
H385 C379 0.959 . S
H386 C379 0.961 . S
H387 C379 0.960 . S
H388 C380 0.930 . S
H389 C381 0.929 . S
H390 C398 0.929 . S
H391 C400 0.930 . S
H392 C402 0.930 . S
H393 C405 0.929 . S
H394 C408 0.930 . S
H395 C410 0.960 . S
H396 C410 0.960 . S
H397 C410 0.960 . S
C398 H390 0.929 . S
C398 C399 1.377 . S
C398 C400 1.384 . S
C399 C398 1.377 . S
C399 C405 1.390 . S
C400 H391 0.930 . S
C400 C398 1.384 . S
C400 C401 1.372 . S
C401 C400 1.372 . S
C401 C402 1.400 . S
C401 C406 1.490 . S
C402 H392 0.930 . S
C402 C401 1.400 . S
C402 C405 1.386 . S
H403 C419 0.930 . S
H404 C420 0.931 . S
C405 H393 0.929 . S
C405 C399 1.390 . S
C405 C402 1.386 . S
C406 C401 1.490 . S
C406 C408 1.395 . S
C406 C409 1.403 . S
H407 C413 0.930 . S
C408 H394 0.930 . S
C408 C406 1.395 . S
C408 C411 1.403 . S
C409 C406 1.403 . S
C409 C410 1.524 . S
C409 C413 1.400 . S
C410 H395 0.960 . S
C410 H396 0.960 . S
C410 H397 0.960 . S
C410 C409 1.524 . S
C411 C408 1.403 . S
C411 C412 1.392 . S
C411 C415 1.495 . S
C412 C411 1.392 . S
C412 C413 1.385 . S
C412 C414 1.478 . S
C413 H407 0.930 . S
C413 C409 1.400 . S
C413 C412 1.385 . S
C414 C412 1.478 . S
C414 C416 1.381 . S
C414 C420 1.383 . S
C415 C411 1.495 . S
C415 H421 0.959 . S
C415 H422 0.961 . S
C415 H423 0.960 . S
C416 C414 1.381 . S
C416 C417 1.394 . S
C416 H424 0.930 . S
C417 C416 1.394 . S
C417 C418 1.383 . S
C417 H425 0.929 . S
C418 C417 1.383 . S
C418 C419 1.377 . S
C419 H403 0.930 . S
C419 C418 1.377 . S
C419 C420 1.379 . S
C420 H404 0.931 . S
C420 C414 1.383 . S
C420 C419 1.379 . S
H421 C415 0.959 . S
H422 C415 0.961 . S
H423 C415 0.960 . S
H424 C416 0.930 . S
H425 C417 0.929 . S
H426 C434 0.929 . S
H427 C436 0.930 . S
H428 C438 0.930 . S
H429 C441 0.929 . S
H430 C444 0.930 . S
H431 C446 0.960 . S
H432 C446 0.960 . S
H433 C446 0.960 . S
C434 H426 0.929 . S
C434 C435 1.377 . S
C434 C436 1.384 . S
C435 C434 1.377 . S
C435 C441 1.390 . S
C436 H427 0.930 . S
C436 C434 1.384 . S
C436 C437 1.372 . S
C437 C436 1.372 . S
C437 C438 1.400 . S
C437 C442 1.490 . S
C438 H428 0.930 . S
C438 C437 1.400 . S
C438 C441 1.386 . S
H439 C455 0.930 . S
H440 C456 0.931 . S
C441 H429 0.929 . S
C441 C435 1.390 . S
C441 C438 1.386 . S
C442 C437 1.490 . S
C442 C444 1.395 . S
C442 C445 1.403 . S
H443 C449 0.930 . S
C444 H430 0.930 . S
C444 C442 1.395 . S
C444 C447 1.403 . S
C445 C442 1.403 . S
C445 C446 1.524 . S
C445 C449 1.400 . S
C446 H431 0.960 . S
C446 H432 0.960 . S
C446 H433 0.960 . S
C446 C445 1.524 . S
C447 C444 1.403 . S
C447 C448 1.392 . S
C447 C451 1.495 . S
C448 C447 1.392 . S
C448 C449 1.385 . S
C448 C450 1.478 . S
C449 H443 0.930 . S
C449 C445 1.400 . S
C449 C448 1.385 . S
C450 C448 1.478 . S
C450 C452 1.381 . S
C450 C456 1.383 . S
C451 C447 1.495 . S
C451 H457 0.959 . S
C451 H458 0.961 . S
C451 H459 0.960 . S
C452 C450 1.381 . S
C452 C453 1.394 . S
C452 H460 0.930 . S
C453 C452 1.394 . S
C453 C454 1.383 . S
C453 H461 0.929 . S
C454 C453 1.383 . S
C454 C455 1.377 . S
C455 H439 0.930 . S
C455 C454 1.377 . S
C455 C456 1.379 . S
C456 H440 0.931 . S
C456 C450 1.383 . S
C456 C455 1.379 . S
H457 C451 0.959 . S
H458 C451 0.961 . S
H459 C451 0.960 . S
H460 C452 0.930 . S
H461 C453 0.929 . S
H462 C470 0.929 . S
H463 C472 0.930 . S
H464 C474 0.930 . S
H465 C477 0.929 . S
H466 C480 0.930 . S
H467 C482 0.960 . S
H468 C482 0.960 . S
H469 C482 0.960 . S
C470 H462 0.929 . S
C470 C471 1.377 . S
C470 C472 1.384 . S
C471 C470 1.377 . S
C471 C477 1.390 . S
C472 H463 0.930 . S
C472 C470 1.384 . S
C472 C473 1.372 . S
C473 C472 1.372 . S
C473 C474 1.400 . S
C473 C478 1.490 . S
C474 H464 0.930 . S
C474 C473 1.400 . S
C474 C477 1.386 . S
H475 C491 0.930 . S
H476 C492 0.931 . S
C477 H465 0.929 . S
C477 C471 1.390 . S
C477 C474 1.386 . S
C478 C473 1.490 . S
C478 C480 1.395 . S
C478 C481 1.403 . S
H479 C485 0.930 . S
C480 H466 0.930 . S
C480 C478 1.395 . S
C480 C483 1.403 . S
C481 C478 1.403 . S
C481 C482 1.524 . S
C481 C485 1.400 . S
C482 H467 0.960 . S
C482 H468 0.960 . S
C482 H469 0.960 . S
C482 C481 1.524 . S
C483 C480 1.403 . S
C483 C484 1.392 . S
C483 C487 1.495 . S
C484 C483 1.392 . S
C484 C485 1.385 . S
C484 C486 1.478 . S
C485 H479 0.930 . S
C485 C481 1.400 . S
C485 C484 1.385 . S
C486 C484 1.478 . S
C486 C488 1.381 . S
C486 C492 1.383 . S
C487 C483 1.495 . S
C487 H493 0.959 . S
C487 H494 0.961 . S
C487 H495 0.960 . S
C488 C486 1.381 . S
C488 C489 1.394 . S
C488 H496 0.930 . S
C489 C488 1.394 . S
C489 C490 1.383 . S
C489 H497 0.929 . S
C490 C489 1.383 . S
C490 C491 1.377 . S
C491 H475 0.930 . S
C491 C490 1.377 . S
C491 C492 1.379 . S
C492 H476 0.931 . S
C492 C486 1.383 . S
C492 C491 1.379 . S
H493 C487 0.959 . S
H494 C487 0.961 . S
H495 C487 0.960 . S
H496 C488 0.930 . S
H497 C489 0.929 . S
H498 C506 0.929 . S
H499 C508 0.930 . S
H500 C510 0.930 . S
H501 C513 0.929 . S
H502 C516 0.930 . S
H503 C518 0.960 . S
H504 C518 0.960 . S
H505 C518 0.960 . S
C506 H498 0.929 . S
C506 C507 1.377 . S
C506 C508 1.384 . S
C507 C506 1.377 . S
C507 C513 1.390 . S
C508 H499 0.930 . S
C508 C506 1.384 . S
C508 C509 1.372 . S
C509 C508 1.372 . S
C509 C510 1.400 . S
C509 C514 1.490 . S
C510 H500 0.930 . S
C510 C509 1.400 . S
C510 C513 1.386 . S
H511 C527 0.930 . S
H512 C528 0.931 . S
C513 H501 0.929 . S
C513 C507 1.390 . S
C513 C510 1.386 . S
C514 C509 1.490 . S
C514 C516 1.395 . S
C514 C517 1.403 . S
H515 C521 0.930 . S
C516 H502 0.930 . S
C516 C514 1.395 . S
C516 C519 1.403 . S
C517 C514 1.403 . S
C517 C518 1.524 . S
C517 C521 1.400 . S
C518 H503 0.960 . S
C518 H504 0.960 . S
C518 H505 0.960 . S
C518 C517 1.524 . S
C519 C516 1.403 . S
C519 C520 1.392 . S
C519 C523 1.495 . S
C520 C519 1.392 . S
C520 C521 1.385 . S
C520 C522 1.478 . S
C521 H515 0.930 . S
C521 C517 1.400 . S
C521 C520 1.385 . S
C522 C520 1.478 . S
C522 C524 1.381 . S
C522 C528 1.383 . S
C523 C519 1.495 . S
C523 H529 0.959 . S
C523 H530 0.961 . S
C523 H531 0.960 . S
C524 C522 1.381 . S
C524 C525 1.394 . S
C524 H532 0.930 . S
C525 C524 1.394 . S
C525 C526 1.383 . S
C525 H533 0.929 . S
C526 C525 1.383 . S
C526 C527 1.377 . S
C527 H511 0.930 . S
C527 C526 1.377 . S
C527 C528 1.379 . S
C528 H512 0.931 . S
C528 C522 1.383 . S
C528 C527 1.379 . S
H529 C523 0.959 . S
H530 C523 0.961 . S
H531 C523 0.960 . S
H532 C524 0.930 . S
H533 C525 0.929 . S
H534 C542 0.929 . S
H535 C544 0.930 . S
H536 C546 0.930 . S
H537 C549 0.929 . S
H538 C552 0.930 . S
H539 C554 0.960 . S
H540 C554 0.960 . S
H541 C554 0.960 . S
C542 H534 0.929 . S
C542 C543 1.377 . S
C542 C544 1.384 . S
C543 C542 1.377 . S
C543 C549 1.390 . S
C544 H535 0.930 . S
C544 C542 1.384 . S
C544 C545 1.372 . S
C545 C544 1.372 . S
C545 C546 1.400 . S
C545 C550 1.490 . S
C546 H536 0.930 . S
C546 C545 1.400 . S
C546 C549 1.386 . S
H547 C563 0.930 . S
H548 C564 0.931 . S
C549 H537 0.929 . S
C549 C543 1.390 . S
C549 C546 1.386 . S
C550 C545 1.490 . S
C550 C552 1.395 . S
C550 C553 1.403 . S
H551 C557 0.930 . S
C552 H538 0.930 . S
C552 C550 1.395 . S
C552 C555 1.403 . S
C553 C550 1.403 . S
C553 C554 1.524 . S
C553 C557 1.400 . S
C554 H539 0.960 . S
C554 H540 0.960 . S
C554 H541 0.960 . S
C554 C553 1.524 . S
C555 C552 1.403 . S
C555 C556 1.392 . S
C555 C559 1.495 . S
C556 C555 1.392 . S
C556 C557 1.385 . S
C556 C558 1.478 . S
C557 H551 0.930 . S
C557 C553 1.400 . S
C557 C556 1.385 . S
C558 C556 1.478 . S
C558 C560 1.381 . S
C558 C564 1.383 . S
C559 C555 1.495 . S
C559 H565 0.959 . S
C559 H566 0.961 . S
C559 H567 0.960 . S
C560 C558 1.381 . S
C560 C561 1.394 . S
C560 H568 0.930 . S
C561 C560 1.394 . S
C561 C562 1.383 . S
C561 H569 0.929 . S
C562 C561 1.383 . S
C562 C563 1.377 . S
C563 H547 0.930 . S
C563 C562 1.377 . S
C563 C564 1.379 . S
C564 H548 0.931 . S
C564 C558 1.383 . S
C564 C563 1.379 . S
H565 C559 0.959 . S
H566 C559 0.961 . S
H567 C559 0.960 . S
H568 C560 0.930 . S
H569 C561 0.929 . S
H570 C578 0.929 . S
H571 C580 0.930 . S
H572 C582 0.930 . S
H573 C585 0.929 . S
H574 C588 0.930 . S
H575 C590 0.960 . S
H576 C590 0.960 . S
H577 C590 0.960 . S
C578 H570 0.929 . S
C578 C579 1.377 . S
C578 C580 1.384 . S
C579 C578 1.377 . S
C579 C585 1.390 . S
C580 H571 0.930 . S
C580 C578 1.384 . S
C580 C581 1.372 . S
C581 C580 1.372 . S
C581 C582 1.400 . S
C581 C586 1.490 . S
C582 H572 0.930 . S
C582 C581 1.400 . S
C582 C585 1.386 . S
H583 C599 0.930 . S
H584 C600 0.931 . S
C585 H573 0.929 . S
C585 C579 1.390 . S
C585 C582 1.386 . S
C586 C581 1.490 . S
C586 C588 1.395 . S
C586 C589 1.403 . S
H587 C593 0.930 . S
C588 H574 0.930 . S
C588 C586 1.395 . S
C588 C591 1.403 . S
C589 C586 1.403 . S
C589 C590 1.524 . S
C589 C593 1.400 . S
C590 H575 0.960 . S
C590 H576 0.960 . S
C590 H577 0.960 . S
C590 C589 1.524 . S
C591 C588 1.403 . S
C591 C592 1.392 . S
C591 C595 1.495 . S
C592 C591 1.392 . S
C592 C593 1.385 . S
C592 C594 1.478 . S
C593 H587 0.930 . S
C593 C589 1.400 . S
C593 C592 1.385 . S
C594 C592 1.478 . S
C594 C596 1.381 . S
C594 C600 1.383 . S
C595 C591 1.495 . S
C595 H601 0.959 . S
C595 H602 0.961 . S
C595 H603 0.960 . S
C596 C594 1.381 . S
C596 C597 1.394 . S
C596 H604 0.930 . S
C597 C596 1.394 . S
C597 C598 1.383 . S
C597 H605 0.929 . S
C598 C597 1.383 . S
C598 C599 1.377 . S
C599 H583 0.930 . S
C599 C598 1.377 . S
C599 C600 1.379 . S
C600 H584 0.931 . S
C600 C594 1.383 . S
C600 C599 1.379 . S
H601 C595 0.959 . S
H602 C595 0.961 . S
H603 C595 0.960 . S
H604 C596 0.930 . S
H605 C597 0.929 . S
H606 C614 0.929 . S
H607 C616 0.930 . S
H608 C618 0.930 . S
H609 C621 0.929 . S
H610 C624 0.930 . S
H611 C626 0.960 . S
H612 C626 0.960 . S
H613 C626 0.960 . S
C614 H606 0.929 . S
C614 C615 1.377 . S
C614 C616 1.384 . S
C615 C614 1.377 . S
C615 C621 1.390 . S
C616 H607 0.930 . S
C616 C614 1.384 . S
C616 C617 1.372 . S
C617 C616 1.372 . S
C617 C618 1.400 . S
C617 C622 1.490 . S
C618 H608 0.930 . S
C618 C617 1.400 . S
C618 C621 1.386 . S
H619 C635 0.930 . S
H620 C636 0.931 . S
C621 H609 0.929 . S
C621 C615 1.390 . S
C621 C618 1.386 . S
C622 C617 1.490 . S
C622 C624 1.395 . S
C622 C625 1.403 . S
H623 C629 0.930 . S
C624 H610 0.930 . S
C624 C622 1.395 . S
C624 C627 1.403 . S
C625 C622 1.403 . S
C625 C626 1.524 . S
C625 C629 1.400 . S
C626 H611 0.960 . S
C626 H612 0.960 . S
C626 H613 0.960 . S
C626 C625 1.524 . S
C627 C624 1.403 . S
C627 C628 1.392 . S
C627 C631 1.495 . S
C628 C627 1.392 . S
C628 C629 1.385 . S
C628 C630 1.478 . S
C629 H623 0.930 . S
C629 C625 1.400 . S
C629 C628 1.385 . S
C630 C628 1.478 . S
C630 C632 1.381 . S
C630 C636 1.383 . S
C631 C627 1.495 . S
C631 H637 0.959 . S
C631 H638 0.961 . S
C631 H639 0.960 . S
C632 C630 1.381 . S
C632 C633 1.394 . S
C632 H640 0.930 . S
C633 C632 1.394 . S
C633 C634 1.383 . S
C633 H641 0.929 . S
C634 C633 1.383 . S
C634 C635 1.377 . S
C635 H619 0.930 . S
C635 C634 1.377 . S
C635 C636 1.379 . S
C636 H620 0.931 . S
C636 C630 1.383 . S
C636 C635 1.379 . S
H637 C631 0.959 . S
H638 C631 0.961 . S
H639 C631 0.960 . S
H640 C632 0.930 . S
H641 C633 0.929 . S
H642 C650 0.929 . S
H643 C652 0.930 . S
H644 C654 0.930 . S
H645 C657 0.929 . S
H646 C660 0.930 . S
H647 C662 0.960 . S
H648 C662 0.960 . S
H649 C662 0.960 . S
C650 H642 0.929 . S
C650 C651 1.377 . S
C650 C652 1.384 . S
C651 C650 1.377 . S
C651 C657 1.390 . S
C652 H643 0.930 . S
C652 C650 1.384 . S
C652 C653 1.372 . S
C653 C652 1.372 . S
C653 C654 1.400 . S
C653 C658 1.490 . S
C654 H644 0.930 . S
C654 C653 1.400 . S
C654 C657 1.386 . S
H655 C671 0.930 . S
H656 C672 0.931 . S
C657 H645 0.929 . S
C657 C651 1.390 . S
C657 C654 1.386 . S
C658 C653 1.490 . S
C658 C660 1.395 . S
C658 C661 1.403 . S
H659 C665 0.930 . S
C660 H646 0.930 . S
C660 C658 1.395 . S
C660 C663 1.403 . S
C661 C658 1.403 . S
C661 C662 1.524 . S
C661 C665 1.400 . S
C662 H647 0.960 . S
C662 H648 0.960 . S
C662 H649 0.960 . S
C662 C661 1.524 . S
C663 C660 1.403 . S
C663 C664 1.392 . S
C663 C667 1.495 . S
C664 C663 1.392 . S
C664 C665 1.385 . S
C664 C666 1.478 . S
C665 H659 0.930 . S
C665 C661 1.400 . S
C665 C664 1.385 . S
C666 C664 1.478 . S
C666 C668 1.381 . S
C666 C672 1.383 . S
C667 C663 1.495 . S
C667 H673 0.959 . S
C667 H674 0.961 . S
C667 H675 0.960 . S
C668 C666 1.381 . S
C668 C669 1.394 . S
C668 H676 0.930 . S
C669 C668 1.394 . S
C669 C670 1.383 . S
C669 H677 0.929 . S
C670 C669 1.383 . S
C670 C671 1.377 . S
C671 H655 0.930 . S
C671 C670 1.377 . S
C671 C672 1.379 . S
C672 H656 0.931 . S
C672 C666 1.383 . S
C672 C671 1.379 . S
H673 C667 0.959 . S
H674 C667 0.961 . S
H675 C667 0.960 . S
H676 C668 0.930 . S
H677 C669 0.929 . S
H678 C686 0.929 1_556 S
H679 C688 0.930 . S
H680 C690 0.930 . S
H681 C693 0.929 . S
H682 C696 0.930 . S
H683 C698 0.960 . S
H684 C698 0.960 . S
H685 C698 0.960 . S
C686 H678 0.929 1_554 S
C686 C687 1.377 . S
C686 C688 1.384 . S
C687 C686 1.377 . S
C687 C693 1.390 . S
C688 H679 0.930 . S
C688 C686 1.384 . S
C688 C689 1.372 . S
C689 C688 1.372 . S
C689 C690 1.400 . S
C689 C694 1.490 . S
C690 H680 0.930 . S
C690 C689 1.400 . S
C690 C693 1.386 . S
H691 C707 0.930 . S
H692 C708 0.931 . S
C693 H681 0.929 . S
C693 C687 1.390 . S
C693 C690 1.386 . S
C694 C689 1.490 . S
C694 C696 1.395 . S
C694 C697 1.403 . S
H695 C701 0.930 . S
C696 H682 0.930 . S
C696 C694 1.395 . S
C696 C699 1.403 . S
C697 C694 1.403 . S
C697 C698 1.524 . S
C697 C701 1.400 . S
C698 H683 0.960 . S
C698 H684 0.960 . S
C698 H685 0.960 . S
C698 C697 1.524 . S
C699 C696 1.403 . S
C699 C700 1.392 . S
C699 C703 1.495 . S
C700 C699 1.392 . S
C700 C701 1.385 . S
C700 C702 1.478 . S
C701 H695 0.930 . S
C701 C697 1.400 . S
C701 C700 1.385 . S
C702 C700 1.478 . S
C702 C704 1.381 . S
C702 C708 1.383 . S
C703 C699 1.495 . S
C703 H709 0.959 . S
C703 H710 0.961 . S
C703 H711 0.960 . S
C704 C702 1.381 . S
C704 C705 1.394 . S
C704 H712 0.930 . S
C705 C704 1.394 . S
C705 C706 1.383 . S
C705 H713 0.929 . S
C706 C705 1.383 . S
C706 C707 1.377 . S
C707 H691 0.930 . S
C707 C706 1.377 . S
C707 C708 1.379 . S
C708 H692 0.931 . S
C708 C702 1.383 . S
C708 C707 1.379 . S
H709 C703 0.959 . S
H710 C703 0.961 . S
H711 C703 0.960 . S
H712 C704 0.930 . S
H713 C705 0.929 . S
H714 C722 0.929 . S
H715 C724 0.930 . S
H716 C726 0.930 . S
H717 C729 0.929 . S
H718 C732 0.930 . S
H719 C734 0.960 . S
H720 C734 0.960 . S
H721 C734 0.960 . S
C722 H714 0.929 . S
C722 C723 1.377 . S
C722 C724 1.384 . S
C723 C722 1.377 . S
C723 C729 1.390 . S
C724 H715 0.930 . S
C724 C722 1.384 . S
C724 C725 1.372 . S
C725 C724 1.372 . S
C725 C726 1.400 . S
C725 C730 1.490 . S
C726 H716 0.930 . S
C726 C725 1.400 . S
C726 C729 1.386 . S
H727 C743 0.930 . S
H728 C744 0.931 . S
C729 H717 0.929 . S
C729 C723 1.390 . S
C729 C726 1.386 . S
C730 C725 1.490 . S
C730 C732 1.395 . S
C730 C733 1.403 . S
H731 C737 0.930 . S
C732 H718 0.930 . S
C732 C730 1.395 . S
C732 C735 1.403 . S
C733 C730 1.403 . S
C733 C734 1.524 . S
C733 C737 1.400 . S
C734 H719 0.960 . S
C734 H720 0.960 . S
C734 H721 0.960 . S
C734 C733 1.524 . S
C735 C732 1.403 . S
C735 C736 1.392 . S
C735 C739 1.495 . S
C736 C735 1.392 . S
C736 C737 1.385 . S
C736 C738 1.478 . S
C737 H731 0.930 . S
C737 C733 1.400 . S
C737 C736 1.385 . S
C738 C736 1.478 . S
C738 C740 1.381 . S
C738 C744 1.383 . S
C739 C735 1.495 . S
C739 H745 0.959 . S
C739 H746 0.961 . S
C739 H747 0.960 . S
C740 C738 1.381 . S
C740 C741 1.394 . S
C740 H748 0.930 . S
C741 C740 1.394 . S
C741 C742 1.383 . S
C741 H749 0.929 . S
C742 C741 1.383 . S
C742 C743 1.377 . S
C743 H727 0.930 . S
C743 C742 1.377 . S
C743 C744 1.379 . S
C744 H728 0.931 . S
C744 C738 1.383 . S
C744 C743 1.379 . S
H745 C739 0.959 . S
H746 C739 0.961 . S
H747 C739 0.960 . S
H748 C740 0.930 . S
H749 C741 0.929 . S
H750 C758 0.929 . S
H751 C760 0.930 . S
H752 C762 0.930 . S
H753 C765 0.929 . S
H754 C768 0.930 . S
H755 C770 0.960 . S
H756 C770 0.960 . S
H757 C770 0.960 . S
C758 H750 0.929 . S
C758 C759 1.377 . S
C758 C760 1.384 . S
C759 C758 1.377 . S
C759 C765 1.390 . S
C760 H751 0.930 . S
C760 C758 1.384 . S
C760 C761 1.372 . S
C761 C760 1.372 . S
C761 C762 1.400 . S
C761 C766 1.490 . S
C762 H752 0.930 . S
C762 C761 1.400 . S
C762 C765 1.386 . S
H763 C779 0.930 . S
H764 C780 0.931 . S
C765 H753 0.929 . S
C765 C759 1.390 . S
C765 C762 1.386 . S
C766 C761 1.490 . S
C766 C768 1.395 . S
C766 C769 1.403 . S
H767 C773 0.930 . S
C768 H754 0.930 . S
C768 C766 1.395 . S
C768 C771 1.403 . S
C769 C766 1.403 . S
C769 C770 1.524 . S
C769 C773 1.400 . S
C770 H755 0.960 . S
C770 H756 0.960 . S
C770 H757 0.960 . S
C770 C769 1.524 . S
C771 C768 1.403 . S
C771 C772 1.392 . S
C771 C775 1.495 . S
C772 C771 1.392 . S
C772 C773 1.385 . S
C772 C774 1.478 . S
C773 H767 0.930 . S
C773 C769 1.400 . S
C773 C772 1.385 . S
C774 C772 1.478 . S
C774 C776 1.381 . S
C774 C780 1.383 . S
C775 C771 1.495 . S
C775 H781 0.959 . S
C775 H782 0.961 . S
C775 H783 0.960 . S
C776 C774 1.381 . S
C776 C777 1.394 . S
C776 H784 0.930 . S
C777 C776 1.394 . S
C777 C778 1.383 . S
C777 H785 0.929 . S
C778 C777 1.383 . S
C778 C779 1.377 . S
C779 H763 0.930 . S
C779 C778 1.377 . S
C779 C780 1.379 . S
C780 H764 0.931 . S
C780 C774 1.383 . S
C780 C779 1.379 . S
H781 C775 0.959 . S
H782 C775 0.961 . S
H783 C775 0.960 . S
H784 C776 0.930 . S
H785 C777 0.929 . S
H786 C794 0.929 . S
H787 C796 0.930 . S
H788 C798 0.930 . S
H789 C801 0.929 . S
H790 C804 0.930 . S
H791 C806 0.960 . S
H792 C806 0.960 . S
H793 C806 0.960 . S
C794 H786 0.929 . S
C794 C795 1.377 . S
C794 C796 1.384 . S
C795 C794 1.377 . S
C795 C801 1.390 . S
C796 H787 0.930 . S
C796 C794 1.384 . S
C796 C797 1.372 . S
C797 C796 1.372 . S
C797 C798 1.400 . S
C797 C802 1.490 . S
C798 H788 0.930 . S
C798 C797 1.400 . S
C798 C801 1.386 . S
H799 C815 0.930 . S
H800 C816 0.931 . S
C801 H789 0.929 . S
C801 C795 1.390 . S
C801 C798 1.386 . S
C802 C797 1.490 . S
C802 C804 1.395 . S
C802 C805 1.403 . S
H803 C809 0.930 . S
C804 H790 0.930 . S
C804 C802 1.395 . S
C804 C807 1.403 . S
C805 C802 1.403 . S
C805 C806 1.524 . S
C805 C809 1.400 . S
C806 H791 0.960 . S
C806 H792 0.960 . S
C806 H793 0.960 . S
C806 C805 1.524 . S
C807 C804 1.403 . S
C807 C808 1.392 . S
C807 C811 1.495 . S
C808 C807 1.392 . S
C808 C809 1.385 . S
C808 C810 1.478 . S
C809 H803 0.930 . S
C809 C805 1.400 . S
C809 C808 1.385 . S
C810 C808 1.478 . S
C810 C812 1.381 . S
C810 C816 1.383 . S
C811 C807 1.495 . S
C811 H817 0.959 . S
C811 H818 0.961 . S
C811 H819 0.960 . S
C812 C810 1.381 . S
C812 C813 1.394 . S
C812 H820 0.930 . S
C813 C812 1.394 . S
C813 C814 1.383 . S
C813 H821 0.929 . S
C814 C813 1.383 . S
C814 C815 1.377 . S
C815 H799 0.930 . S
C815 C814 1.377 . S
C815 C816 1.379 . S
C816 H800 0.931 . S
C816 C810 1.383 . S
C816 C815 1.379 . S
H817 C811 0.959 . S
H818 C811 0.961 . S
H819 C811 0.960 . S
H820 C812 0.930 . S
H821 C813 0.929 . S
H822 C830 0.929 . S
H823 C832 0.930 . S
H824 C834 0.930 . S
H825 C837 0.929 . S
H826 C840 0.930 . S
H827 C842 0.960 . S
H828 C842 0.960 . S
H829 C842 0.960 . S
C830 H822 0.929 . S
C830 C831 1.377 . S
C830 C832 1.384 . S
C831 C830 1.377 . S
C831 C837 1.390 . S
C832 H823 0.930 . S
C832 C830 1.384 . S
C832 C833 1.372 . S
C833 C832 1.372 . S
C833 C834 1.400 . S
C833 C838 1.490 . S
C834 H824 0.930 . S
C834 C833 1.400 . S
C834 C837 1.386 . S
H835 C851 0.930 . S
H836 C852 0.931 . S
C837 H825 0.929 . S
C837 C831 1.390 . S
C837 C834 1.386 . S
C838 C833 1.490 . S
C838 C840 1.395 . S
C838 C841 1.403 . S
H839 C845 0.930 . S
C840 H826 0.930 . S
C840 C838 1.395 . S
C840 C843 1.403 . S
C841 C838 1.403 . S
C841 C842 1.524 . S
C841 C845 1.400 . S
C842 H827 0.960 . S
C842 H828 0.960 . S
C842 H829 0.960 . S
C842 C841 1.524 . S
C843 C840 1.403 . S
C843 C844 1.392 . S
C843 C847 1.495 . S
C844 C843 1.392 . S
C844 C845 1.385 . S
C844 C846 1.478 . S
C845 H839 0.930 . S
C845 C841 1.400 . S
C845 C844 1.385 . S
C846 C844 1.478 . S
C846 C848 1.381 . S
C846 C852 1.383 . S
C847 C843 1.495 . S
C847 H853 0.959 . S
C847 H854 0.961 . S
C847 H855 0.960 . S
C848 C846 1.381 . S
C848 C849 1.394 . S
C848 H856 0.930 . S
C849 C848 1.394 . S
C849 C850 1.383 . S
C849 H857 0.929 . S
C850 C849 1.383 . S
C850 C851 1.377 . S
C851 H835 0.930 . S
C851 C850 1.377 . S
C851 C852 1.379 . S
C852 H836 0.931 . S
C852 C846 1.383 . S
C852 C851 1.379 . S
H853 C847 0.959 . S
H854 C847 0.961 . S
H855 C847 0.960 . S
H856 C848 0.930 . S
H857 C849 0.929 . S
H858 C866 0.929 . S
H859 C868 0.930 . S
H860 C870 0.930 . S
H861 C873 0.929 . S
H862 C876 0.930 . S
H863 C878 0.960 . S
H864 C878 0.960 . S
H865 C878 0.960 . S
C866 H858 0.929 . S
C866 C867 1.377 . S
C866 C868 1.384 . S
C867 C866 1.377 . S
C867 C873 1.390 . S
C868 H859 0.930 . S
C868 C866 1.384 . S
C868 C869 1.372 . S
C869 C868 1.372 . S
C869 C870 1.400 . S
C869 C874 1.490 . S
C870 H860 0.930 . S
C870 C869 1.400 . S
C870 C873 1.386 . S
H871 C887 0.930 . S
H872 C888 0.931 . S
C873 H861 0.929 . S
C873 C867 1.390 . S
C873 C870 1.386 . S
C874 C869 1.490 . S
C874 C876 1.395 . S
C874 C877 1.403 . S
H875 C881 0.930 . S
C876 H862 0.930 . S
C876 C874 1.395 . S
C876 C879 1.403 . S
C877 C874 1.403 . S
C877 C878 1.524 . S
C877 C881 1.400 . S
C878 H863 0.960 . S
C878 H864 0.960 . S
C878 H865 0.960 . S
C878 C877 1.524 . S
C879 C876 1.403 . S
C879 C880 1.392 . S
C879 C883 1.495 . S
C880 C879 1.392 . S
C880 C881 1.385 . S
C880 C882 1.478 . S
C881 H875 0.930 . S
C881 C877 1.400 . S
C881 C880 1.385 . S
C882 C880 1.478 . S
C882 C884 1.381 . S
C882 C888 1.383 . S
C883 C879 1.495 . S
C883 H889 0.959 . S
C883 H890 0.961 . S
C883 H891 0.960 . S
C884 C882 1.381 . S
C884 C885 1.394 . S
C884 H892 0.930 . S
C885 C884 1.394 . S
C885 C886 1.383 . S
C885 H893 0.929 . S
C886 C885 1.383 . S
C886 C887 1.377 . S
C887 H871 0.930 . S
C887 C886 1.377 . S
C887 C888 1.379 . S
C888 H872 0.931 . S
C888 C882 1.383 . S
C888 C887 1.379 . S
H889 C883 0.959 . S
H890 C883 0.961 . S
H891 C883 0.960 . S
H892 C884 0.930 . S
H893 C885 0.929 . S
H894 C902 0.929 . S
H895 C904 0.930 . S
H896 C906 0.930 . S
H897 C909 0.929 . S
H898 C912 0.930 . S
H899 C914 0.960 . S
H900 C914 0.960 . S
H901 C914 0.960 . S
C902 H894 0.929 . S
C902 C903 1.377 . S
C902 C904 1.384 . S
C903 C902 1.377 . S
C903 C909 1.390 . S
C904 H895 0.930 . S
C904 C902 1.384 . S
C904 C905 1.372 . S
C905 C904 1.372 . S
C905 C906 1.400 . S
C905 C910 1.490 . S
C906 H896 0.930 . S
C906 C905 1.400 . S
C906 C909 1.386 . S
H907 C923 0.930 . S
H908 C924 0.931 . S
C909 H897 0.929 . S
C909 C903 1.390 . S
C909 C906 1.386 . S
C910 C905 1.490 . S
C910 C912 1.395 . S
C910 C913 1.403 . S
H911 C917 0.930 . S
C912 H898 0.930 . S
C912 C910 1.395 . S
C912 C915 1.403 . S
C913 C910 1.403 . S
C913 C914 1.524 . S
C913 C917 1.400 . S
C914 H899 0.960 . S
C914 H900 0.960 . S
C914 H901 0.960 . S
C914 C913 1.524 . S
C915 C912 1.403 . S
C915 C916 1.392 . S
C915 C919 1.495 . S
C916 C915 1.392 . S
C916 C917 1.385 . S
C916 C918 1.462 1_556 S
C917 H911 0.930 . S
C917 C913 1.400 . S
C917 C916 1.385 . S
C918 C916 1.462 1_554 S
C918 C920 1.379 1_554 S
C918 C924 1.399 . S
C919 C915 1.495 . S
C919 H925 0.959 . S
C919 H926 0.961 . S
C919 H927 0.960 . S
C920 C918 1.379 1_556 S
C920 C921 1.359 1_556 S
C920 H928 0.969 . S
C921 C920 1.359 1_554 S
C921 C922 1.383 . S
C921 H929 0.929 . S
C922 C921 1.383 . S
C922 C923 1.377 . S
C923 H907 0.930 . S
C923 C922 1.377 . S
C923 C924 1.379 . S
C924 H908 0.931 . S
C924 C918 1.399 . S
C924 C923 1.379 . S
H925 C919 0.959 . S
H926 C919 0.961 . S
H927 C919 0.960 . S
H928 C920 0.969 . S
H929 C921 0.929 . S
H930 C938 0.929 . S
H931 C940 0.930 . S
H932 C942 0.930 . S
H933 C945 0.929 . S
H934 C948 0.930 . S
H935 C950 0.960 . S
H936 C950 0.960 . S
H937 C950 0.960 . S
C938 H930 0.929 . S
C938 C939 1.377 . S
C938 C940 1.384 . S
C939 C938 1.377 . S
C939 C945 1.390 . S
C940 H931 0.930 . S
C940 C938 1.384 . S
C940 C941 1.372 . S
C941 C940 1.372 . S
C941 C942 1.400 . S
C941 C946 1.490 . S
C942 H932 0.930 . S
C942 C941 1.400 . S
C942 C945 1.386 . S
H943 C959 0.930 . S
H944 C960 0.931 . S
C945 H933 0.929 . S
C945 C939 1.390 . S
C945 C942 1.386 . S
C946 C941 1.490 . S
C946 C948 1.395 . S
C946 C949 1.403 . S
H947 C953 0.930 . S
C948 H934 0.930 . S
C948 C946 1.395 . S
C948 C951 1.403 . S
C949 C946 1.403 . S
C949 C950 1.524 . S
C949 C953 1.400 . S
C950 H935 0.960 . S
C950 H936 0.960 . S
C950 H937 0.960 . S
C950 C949 1.524 . S
C951 C948 1.403 . S
C951 C952 1.392 . S
C951 C955 1.495 . S
C952 C951 1.392 . S
C952 C953 1.385 . S
C952 C954 1.478 . S
C953 H947 0.930 . S
C953 C949 1.400 . S
C953 C952 1.385 . S
C954 C952 1.478 . S
C954 C956 1.381 . S
C954 C960 1.383 . S
C955 C951 1.495 . S
C955 H961 0.959 . S
C955 H962 0.961 . S
C955 H963 0.960 . S
C956 C954 1.381 . S
C956 C957 1.394 . S
C956 H964 0.930 . S
C957 C956 1.394 . S
C957 C958 1.383 . S
C957 H965 0.929 . S
C958 C957 1.383 . S
C958 C959 1.377 . S
C959 H943 0.930 . S
C959 C958 1.377 . S
C959 C960 1.379 . S
C960 H944 0.931 . S
C960 C954 1.383 . S
C960 C959 1.379 . S
H961 C955 0.959 . S
H962 C955 0.961 . S
H963 C955 0.960 . S
H964 C956 0.930 . S
H965 C957 0.929 . S
H966 C974 0.929 . S
H967 C976 0.930 . S
H968 C978 0.930 . S
H969 C981 0.929 . S
H970 C984 0.930 . S
H971 C986 0.960 . S
H972 C986 0.960 . S
H973 C986 0.960 . S
C974 H966 0.929 . S
C974 C975 1.377 . S
C974 C976 1.384 . S
C975 C974 1.377 . S
C975 C981 1.390 . S
C976 H967 0.930 . S
C976 C974 1.384 . S
C976 C977 1.372 . S
C977 C976 1.372 . S
C977 C978 1.400 . S
C977 C982 1.490 . S
C978 H968 0.930 . S
C978 C977 1.400 . S
C978 C981 1.386 . S
H979 C995 0.930 . S
H980 C996 0.931 . S
C981 H969 0.929 . S
C981 C975 1.390 . S
C981 C978 1.386 . S
C982 C977 1.490 . S
C982 C984 1.395 . S
C982 C985 1.403 . S
H983 C989 0.930 . S
C984 H970 0.930 . S
C984 C982 1.395 . S
C984 C987 1.403 . S
C985 C982 1.403 . S
C985 C986 1.524 . S
C985 C989 1.400 . S
C986 H971 0.960 . S
C986 H972 0.960 . S
C986 H973 0.960 . S
C986 C985 1.524 . S
C987 C984 1.403 . S
C987 C988 1.392 . S
C987 C991 1.495 . S
C988 C987 1.392 . S
C988 C989 1.385 . S
C988 C990 1.478 . S
C989 H983 0.930 . S
C989 C985 1.400 . S
C989 C988 1.385 . S
C990 C988 1.478 . S
C990 C992 1.381 . S
C990 C996 1.383 . S
C991 C987 1.495 . S
C991 H997 0.959 . S
C991 H998 0.961 . S
C991 H999 0.960 . S
C992 C990 1.381 . S
C992 C993 1.394 . S
C992 H1000 0.930 . S
C993 C992 1.394 . S
C993 C994 1.383 . S
C993 H1001 0.929 . S
C994 C993 1.383 . S
C994 C995 1.377 . S
C995 H979 0.930 . S
C995 C994 1.377 . S
C995 C996 1.379 . S
C996 H980 0.931 . S
C996 C990 1.383 . S
C996 C995 1.379 . S
H997 C991 0.959 . S
H998 C991 0.961 . S
H999 C991 0.960 . S
H1000 C992 0.930 . S
H1001 C993 0.929 . S
H1002 C1010 0.929 . S
H1003 C1012 0.930 . S
H1004 C1014 0.930 . S
H1005 C1017 0.929 . S
H1006 C1020 0.930 . S
H1007 C1022 0.960 . S
H1008 C1022 0.960 . S
H1009 C1022 0.960 . S
C1010 H1002 0.929 . S
C1010 C1011 1.377 . S
C1010 C1012 1.384 . S
C1011 C1010 1.377 . S
C1011 C1017 1.390 . S
C1012 H1003 0.930 . S
C1012 C1010 1.384 . S
C1012 C1013 1.372 . S
C1013 C1012 1.372 . S
C1013 C1014 1.400 . S
C1013 C1018 1.490 . S
C1014 H1004 0.930 . S
C1014 C1013 1.400 . S
C1014 C1017 1.386 . S
H1015 C1031 0.930 . S
H1016 C1032 0.931 . S
C1017 H1005 0.929 . S
C1017 C1011 1.390 . S
C1017 C1014 1.386 . S
C1018 C1013 1.490 . S
C1018 C1020 1.395 . S
C1018 C1021 1.403 . S
H1019 C1025 0.930 . S
C1020 H1006 0.930 . S
C1020 C1018 1.395 . S
C1020 C1023 1.403 . S
C1021 C1018 1.403 . S
C1021 C1022 1.524 . S
C1021 C1025 1.400 . S
C1022 H1007 0.960 . S
C1022 H1008 0.960 . S
C1022 H1009 0.960 . S
C1022 C1021 1.524 . S
C1023 C1020 1.403 . S
C1023 C1024 1.392 . S
C1023 C1027 1.495 . S
C1024 C1023 1.392 . S
C1024 C1025 1.385 . S
C1024 C1026 1.478 . S
C1025 H1019 0.930 . S
C1025 C1021 1.400 . S
C1025 C1024 1.385 . S
C1026 C1024 1.478 . S
C1026 C1028 1.381 . S
C1026 C1032 1.383 . S
C1027 C1023 1.495 . S
C1027 H1033 0.959 . S
C1027 H1034 0.961 . S
C1027 H1035 0.960 . S
C1028 C1026 1.381 . S
C1028 C1029 1.394 . S
C1028 H1036 0.930 . S
C1029 C1028 1.394 . S
C1029 C1030 1.383 . S
C1029 H1037 0.929 . S
C1030 C1029 1.383 . S
C1030 C1031 1.377 . S
C1031 H1015 0.930 . S
C1031 C1030 1.377 . S
C1031 C1032 1.379 . S
C1032 H1016 0.931 . S
C1032 C1026 1.383 . S
C1032 C1031 1.379 . S
H1033 C1027 0.959 . S
H1034 C1027 0.961 . S
H1035 C1027 0.960 . S
H1036 C1028 0.930 . S
H1037 C1029 0.929 . S
H1038 C1046 0.929 . S
H1039 C1048 0.930 . S
H1040 C1050 0.930 . S
H1041 C1053 0.929 . S
H1042 C1056 0.930 . S
H1043 C1058 0.960 . S
H1044 C1058 0.960 . S
H1045 C1058 0.960 . S
C1046 H1038 0.929 . S
C1046 C1047 1.377 . S
C1046 C1048 1.384 . S
C1047 C1046 1.377 . S
C1047 C1053 1.390 . S
C1048 H1039 0.930 . S
C1048 C1046 1.384 . S
C1048 C1049 1.372 . S
C1049 C1048 1.372 . S
C1049 C1050 1.400 . S
C1049 C1054 1.490 . S
C1050 H1040 0.930 . S
C1050 C1049 1.400 . S
C1050 C1053 1.386 . S
H1051 C1067 0.930 . S
H1052 C1068 0.931 . S
C1053 H1041 0.929 . S
C1053 C1047 1.390 . S
C1053 C1050 1.386 . S
C1054 C1049 1.490 . S
C1054 C1056 1.395 . S
C1054 C1057 1.403 . S
H1055 C1061 0.930 . S
C1056 H1042 0.930 . S
C1056 C1054 1.395 . S
C1056 C1059 1.403 . S
C1057 C1054 1.403 . S
C1057 C1058 1.524 . S
C1057 C1061 1.400 . S
C1058 H1043 0.960 . S
C1058 H1044 0.960 . S
C1058 H1045 0.960 . S
C1058 C1057 1.524 . S
C1059 C1056 1.403 . S
C1059 C1060 1.392 . S
C1059 C1063 1.495 . S
C1060 C1059 1.392 . S
C1060 C1061 1.385 . S
C1060 C1062 1.478 . S
C1061 H1055 0.930 . S
C1061 C1057 1.400 . S
C1061 C1060 1.385 . S
C1062 C1060 1.478 . S
C1062 C1064 1.381 . S
C1062 C1068 1.383 . S
C1063 C1059 1.495 . S
C1063 H1069 0.959 . S
C1063 H1070 0.961 . S
C1063 H1071 0.960 . S
C1064 C1062 1.381 . S
C1064 C1065 1.394 . S
C1064 H1072 0.930 . S
C1065 C1064 1.394 . S
C1065 C1066 1.383 . S
C1065 H1073 0.929 . S
C1066 C1065 1.383 . S
C1066 C1067 1.377 . S
C1067 H1051 0.930 . S
C1067 C1066 1.377 . S
C1067 C1068 1.379 . S
C1068 H1052 0.931 . S
C1068 C1062 1.383 . S
C1068 C1067 1.379 . S
H1069 C1063 0.959 . S
H1070 C1063 0.961 . S
H1071 C1063 0.960 . S
H1072 C1064 0.930 . S
H1073 C1065 0.929 . S
H1074 C1082 0.929 . S
H1075 C1084 0.930 . S
H1076 C1086 0.930 . S
H1077 C1089 0.929 . S
H1078 C1092 0.930 . S
H1079 C1094 0.960 . S
H1080 C1094 0.960 . S
H1081 C1094 0.960 . S
C1082 H1074 0.929 . S
C1082 C1083 1.377 . S
C1082 C1084 1.384 . S
C1083 C1082 1.377 . S
C1083 C1089 1.390 . S
C1084 H1075 0.930 . S
C1084 C1082 1.384 . S
C1084 C1085 1.372 . S
C1085 C1084 1.372 . S
C1085 C1086 1.400 . S
C1085 C1090 1.490 . S
C1086 H1076 0.930 . S
C1086 C1085 1.400 . S
C1086 C1089 1.386 . S
H1087 C1103 0.930 . S
H1088 C1104 0.931 . S
C1089 H1077 0.929 . S
C1089 C1083 1.390 . S
C1089 C1086 1.386 . S
C1090 C1085 1.490 . S
C1090 C1092 1.395 . S
C1090 C1093 1.403 . S
H1091 C1097 0.930 . S
C1092 H1078 0.930 . S
C1092 C1090 1.395 . S
C1092 C1095 1.403 . S
C1093 C1090 1.403 . S
C1093 C1094 1.524 . S
C1093 C1097 1.400 . S
C1094 H1079 0.960 . S
C1094 H1080 0.960 . S
C1094 H1081 0.960 . S
C1094 C1093 1.524 . S
C1095 C1092 1.403 . S
C1095 C1096 1.392 . S
C1095 C1099 1.495 . S
C1096 C1095 1.392 . S
C1096 C1097 1.385 . S
C1096 C1098 1.478 . S
C1097 H1091 0.930 . S
C1097 C1093 1.400 . S
C1097 C1096 1.385 . S
C1098 C1096 1.478 . S
C1098 C1100 1.381 . S
C1098 C1104 1.383 . S
C1099 C1095 1.495 . S
C1099 H1105 0.959 . S
C1099 H1106 0.961 . S
C1099 H1107 0.960 . S
C1100 C1098 1.381 . S
C1100 C1101 1.394 . S
C1100 H1108 0.930 . S
C1101 C1100 1.394 . S
C1101 C1102 1.383 . S
C1101 H1109 0.929 . S
C1102 C1101 1.383 . S
C1102 C1103 1.377 . S
C1103 H1087 0.930 . S
C1103 C1102 1.377 . S
C1103 C1104 1.379 . S
C1104 H1088 0.931 . S
C1104 C1098 1.383 . S
C1104 C1103 1.379 . S
H1105 C1099 0.959 . S
H1106 C1099 0.961 . S
H1107 C1099 0.960 . S
H1108 C1100 0.930 . S
H1109 C1101 0.929 . S
H1110 C1118 0.929 . S
H1111 C1120 0.930 . S
H1112 C1122 0.930 . S
H1113 C1125 0.929 . S
H1114 C1128 0.930 . S
H1115 C1130 0.960 . S
H1116 C1130 0.960 . S
H1117 C1130 0.960 . S
C1118 H1110 0.929 . S
C1118 C1119 1.377 . S
C1118 C1120 1.384 . S
C1119 C1118 1.377 . S
C1119 C1125 1.390 . S
C1120 H1111 0.930 . S
C1120 C1118 1.384 . S
C1120 C1121 1.372 . S
C1121 C1120 1.372 . S
C1121 C1122 1.400 . S
C1121 C1126 1.490 . S
C1122 H1112 0.930 . S
C1122 C1121 1.400 . S
C1122 C1125 1.386 . S
H1123 C1139 0.930 . S
H1124 C1140 0.931 . S
C1125 H1113 0.929 . S
C1125 C1119 1.390 . S
C1125 C1122 1.386 . S
C1126 C1121 1.490 . S
C1126 C1128 1.395 . S
C1126 C1129 1.403 . S
H1127 C1133 0.930 . S
C1128 H1114 0.930 . S
C1128 C1126 1.395 . S
C1128 C1131 1.403 . S
C1129 C1126 1.403 . S
C1129 C1130 1.524 . S
C1129 C1133 1.400 . S
C1130 H1115 0.960 . S
C1130 H1116 0.960 . S
C1130 H1117 0.960 . S
C1130 C1129 1.524 . S
C1131 C1128 1.403 . S
C1131 C1132 1.392 . S
C1131 C1135 1.495 . S
C1132 C1131 1.392 . S
C1132 C1133 1.385 . S
C1132 C1134 1.478 . S
C1133 H1127 0.930 . S
C1133 C1129 1.400 . S
C1133 C1132 1.385 . S
C1134 C1132 1.478 . S
C1134 C1136 1.381 . S
C1134 C1140 1.383 . S
C1135 C1131 1.495 . S
C1135 H1141 0.959 . S
C1135 H1142 0.961 . S
C1135 H1143 0.960 . S
C1136 C1134 1.381 . S
C1136 C1137 1.394 . S
C1136 H1144 0.930 . S
C1137 C1136 1.394 . S
C1137 C1138 1.383 . S
C1137 H1145 0.929 . S
C1138 C1137 1.383 . S
C1138 C1139 1.377 . S
C1139 H1123 0.930 . S
C1139 C1138 1.377 . S
C1139 C1140 1.379 . S
C1140 H1124 0.931 . S
C1140 C1134 1.383 . S
C1140 C1139 1.379 . S
H1141 C1135 0.959 . S
H1142 C1135 0.961 . S
H1143 C1135 0.960 . S
H1144 C1136 0.930 . S
H1145 C1137 0.929 . S
H1146 C1154 0.929 . S
H1147 C1156 0.930 . S
H1148 C1158 0.930 . S
H1149 C1161 0.929 . S
H1150 C1164 0.930 . S
H1151 C1166 0.960 . S
H1152 C1166 0.960 . S
H1153 C1166 0.960 . S
C1154 H1146 0.929 . S
C1154 C1155 1.377 . S
C1154 C1156 1.384 . S
C1155 C1154 1.377 . S
C1155 C1161 1.390 . S
C1156 H1147 0.930 . S
C1156 C1154 1.384 . S
C1156 C1157 1.372 . S
C1157 C1156 1.372 . S
C1157 C1158 1.400 . S
C1157 C1162 1.490 . S
C1158 H1148 0.930 . S
C1158 C1157 1.400 . S
C1158 C1161 1.386 . S
H1159 C1175 0.930 . S
H1160 C1176 0.931 . S
C1161 H1149 0.929 . S
C1161 C1155 1.390 . S
C1161 C1158 1.386 . S
C1162 C1157 1.490 . S
C1162 C1164 1.395 . S
C1162 C1165 1.403 . S
H1163 C1169 0.930 1_556 S
C1164 H1150 0.930 . S
C1164 C1162 1.395 . S
C1164 C1167 1.403 . S
C1165 C1162 1.403 . S
C1165 C1166 1.524 . S
C1165 C1169 1.400 . S
C1166 H1151 0.960 . S
C1166 H1152 0.960 . S
C1166 H1153 0.960 . S
C1166 C1165 1.524 . S
C1167 C1164 1.403 . S
C1167 C1168 1.392 . S
C1167 C1171 1.495 . S
C1168 C1167 1.392 . S
C1168 C1169 1.385 . S
C1168 C1170 1.478 1_554 S
C1169 H1163 0.930 1_554 S
C1169 C1165 1.400 . S
C1169 C1168 1.385 . S
C1170 C1168 1.478 1_556 S
C1170 C1172 1.381 . S
C1170 C1176 1.383 . S
C1171 C1167 1.495 . S
C1171 H1177 0.959 . S
C1171 H1178 0.961 . S
C1171 H1179 0.960 . S
C1172 C1170 1.381 . S
C1172 C1173 1.394 . S
C1172 H1180 0.930 . S
C1173 C1172 1.394 . S
C1173 C1174 1.383 . S
C1173 H1181 0.929 . S
C1174 C1173 1.383 . S
C1174 C1175 1.377 . S
C1175 H1159 0.930 . S
C1175 C1174 1.377 . S
C1175 C1176 1.379 . S
C1176 H1160 0.931 . S
C1176 C1170 1.383 . S
C1176 C1175 1.379 . S
H1177 C1171 0.959 . S
H1178 C1171 0.961 . S
H1179 C1171 0.960 . S
H1180 C1172 0.930 . S
H1181 C1173 0.929 . S
H1182 C1190 0.929 . S
H1183 C1192 0.930 . S
H1184 C1194 0.930 . S
H1185 C1197 0.929 . S
H1186 C1200 0.930 . S
H1187 C1202 0.960 . S
H1188 C1202 0.960 . S
H1189 C1202 0.960 . S
C1190 H1182 0.929 . S
C1190 C1191 1.377 . S
C1190 C1192 1.384 . S
C1191 C1190 1.377 . S
C1191 C1197 1.390 . S
C1192 H1183 0.930 . S
C1192 C1190 1.384 . S
C1192 C1193 1.372 . S
C1193 C1192 1.372 . S
C1193 C1194 1.400 . S
C1193 C1198 1.490 . S
C1194 H1184 0.930 . S
C1194 C1193 1.400 . S
C1194 C1197 1.386 . S
H1195 C1211 0.930 . S
H1196 C1212 0.931 . S
C1197 H1185 0.929 . S
C1197 C1191 1.390 . S
C1197 C1194 1.386 . S
C1198 C1193 1.490 . S
C1198 C1200 1.395 . S
C1198 C1201 1.403 . S
H1199 C1205 0.930 . S
C1200 H1186 0.930 . S
C1200 C1198 1.395 . S
C1200 C1203 1.403 . S
C1201 C1198 1.403 . S
C1201 C1202 1.524 . S
C1201 C1205 1.400 . S
C1202 H1187 0.960 . S
C1202 H1188 0.960 . S
C1202 H1189 0.960 . S
C1202 C1201 1.524 . S
C1203 C1200 1.403 . S
C1203 C1204 1.392 . S
C1203 C1207 1.495 . S
C1204 C1203 1.392 . S
C1204 C1205 1.385 . S
C1204 C1206 1.478 . S
C1205 H1199 0.930 . S
C1205 C1201 1.400 . S
C1205 C1204 1.385 . S
C1206 C1204 1.478 . S
C1206 C1208 1.381 . S
C1206 C1212 1.383 . S
C1207 C1203 1.495 . S
C1207 H1213 0.959 . S
C1207 H1214 0.961 . S
C1207 H1215 0.960 . S
C1208 C1206 1.381 . S
C1208 C1209 1.394 . S
C1208 H1216 0.930 . S
C1209 C1208 1.394 . S
C1209 C1210 1.383 . S
C1209 H1217 0.929 . S
C1210 C1209 1.383 . S
C1210 C1211 1.377 . S
C1211 H1195 0.930 . S
C1211 C1210 1.377 . S
C1211 C1212 1.379 . S
C1212 H1196 0.931 . S
C1212 C1206 1.383 . S
C1212 C1211 1.379 . S
H1213 C1207 0.959 . S
H1214 C1207 0.961 . S
H1215 C1207 0.960 . S
H1216 C1208 0.930 . S
H1217 C1209 0.929 . S
C382 C346 1.570 . S
C363 C15 1.564 . S
C399 C61 1.566 . S
C418 C281 1.572 . S
C435 C114 1.566 . S
C454 C299 1.567 . S
C471 C139 1.559 . S
C490 C312 1.558 . S
C526 C320 1.575 . S
C507 C185 1.575 . S
C543 C245 1.563 . S
C562 C332 1.568 . S
C579 C47 1.571 . S
C598 C294 1.571 . S
C615 C100 1.571 . S
C634 C307 1.569 . S
C651 C153 1.562 . S
C670 C325 1.568 . S
C706 C331 1.574 . S
C687 C199 1.567 . S
C742 C351 1.556 . S
C723 C231 1.560 . S
C778 C286 1.567 . S
C759 C1 1.570 . S
C795 C22 1.582 . S
C814 C292 1.590 . S
C831 C68 1.587 . S
C850 C305 1.595 . S
C886 C319 1.582 . S
C867 C107 1.577 . S
C903 C146 1.593 . S
C922 C333 1.592 . S
C958 C345 1.578 . S
C939 C192 1.581 . S
C994 C280 1.586 . S
C975 C252 1.580 . S
C1030 C344 1.591 . S
C1011 C54 1.592 . S
C1047 C93 1.588 . S
C1066 C279 1.589 . S
C1102 C293 1.587 . S
C1083 C160 1.580 . S
C1119 C206 1.576 . S
C1138 C306 1.585 . S
C1155 C238 1.593 . S
C1174 C318 1.592 . S
C1191 C8 1.586 . S
C1210 C338 1.581 . S
