# Generated by pormake.
# Topology pyr, (3,6)-cn, num edge types: 1
# Building blocks:
#     Node 0, Type 0, BuildingBlock: QEWDON_clean_linker_0, # of connection points: 3
#     Node 1, Type 0, BuildingBlock: QEWDON_clean_linker_0, # of connection points: 3
#     Node 2, Type 0, BuildingBlock: QEWDON_clean_linker_0, # of connection points: 3
#     Node 3, Type 0, BuildingBlock: QEWDON_clean_linker_0, # of connection points: 3
#     Node 4, Type 0, BuildingBlock: QEWDON_clean_linker_0, # of connection points: 3
#     Node 5, Type 0, BuildingBlock: QEWDON_clean_linker_0, # of connection points: 3
#     Node 6, Type 0, BuildingBlock: QEWDON_clean_linker_0, # of connection points: 3
#     Node 7, Type 0, BuildingBlock: QEWDON_clean_linker_0, # of connection points: 3
#     Node 8, Type 1, BuildingBlock: VOLQOD_clean_sbu_1, # of connection points: 6
#     Node 9, Type 1, BuildingBlock: VOLQOD_clean_sbu_1, # of connection points: 6
#     Node 10, Type 1, BuildingBlock: VOLQOD_clean_sbu_1, # of connection points: 6
#     Node 11, Type 1, BuildingBlock: VOLQOD_clean_sbu_1, # of connection points: 6
#     Edge 12, Type (0, 1), BuildingBlock: MIFKUJ_clean_linker_0, # of connection points: 2
#     Edge 13, Type (0, 1), BuildingBlock: MIFKUJ_clean_linker_0, # of connection points: 2
#     Edge 14, Type (0, 1), BuildingBlock: MIFKUJ_clean_linker_0, # of connection points: 2
#     Edge 15, Type (0, 1), BuildingBlock: MIFKUJ_clean_linker_0, # of connection points: 2
#     Edge 16, Type (0, 1), BuildingBlock: MIFKUJ_clean_linker_0, # of connection points: 2
#     Edge 17, Type (0, 1), BuildingBlock: MIFKUJ_clean_linker_0, # of connection points: 2
#     Edge 18, Type (0, 1), BuildingBlock: MIFKUJ_clean_linker_0, # of connection points: 2
#     Edge 19, Type (0, 1), BuildingBlock: MIFKUJ_clean_linker_0, # of connection points: 2
#     Edge 20, Type (0, 1), BuildingBlock: MIFKUJ_clean_linker_0, # of connection points: 2
#     Edge 21, Type (0, 1), BuildingBlock: MIFKUJ_clean_linker_0, # of connection points: 2
#     Edge 22, Type (0, 1), BuildingBlock: MIFKUJ_clean_linker_0, # of connection points: 2
#     Edge 23, Type (0, 1), BuildingBlock: MIFKUJ_clean_linker_0, # of connection points: 2
#     Edge 24, Type (0, 1), BuildingBlock: MIFKUJ_clean_linker_0, # of connection points: 2
#     Edge 25, Type (0, 1), BuildingBlock: MIFKUJ_clean_linker_0, # of connection points: 2
#     Edge 26, Type (0, 1), BuildingBlock: MIFKUJ_clean_linker_0, # of connection points: 2
#     Edge 27, Type (0, 1), BuildingBlock: MIFKUJ_clean_linker_0, # of connection points: 2
#     Edge 28, Type (0, 1), BuildingBlock: MIFKUJ_clean_linker_0, # of connection points: 2
#     Edge 29, Type (0, 1), BuildingBlock: MIFKUJ_clean_linker_0, # of connection points: 2
#     Edge 30, Type (0, 1), BuildingBlock: MIFKUJ_clean_linker_0, # of connection points: 2
#     Edge 31, Type (0, 1), BuildingBlock: MIFKUJ_clean_linker_0, # of connection points: 2
#     Edge 32, Type (0, 1), BuildingBlock: MIFKUJ_clean_linker_0, # of connection points: 2
#     Edge 33, Type (0, 1), BuildingBlock: MIFKUJ_clean_linker_0, # of connection points: 2
#     Edge 34, Type (0, 1), BuildingBlock: MIFKUJ_clean_linker_0, # of connection points: 2
#     Edge 35, Type (0, 1), BuildingBlock: MIFKUJ_clean_linker_0, # of connection points: 2
# Relax obj value: 0.163
# Max RMSD: 0.275
# Mean RMSD: 0.205
data_MOF--net-pry--node1-VOLQOD_clean_sbu_1--node2-QEWDON_clean_linker_0--edge1-MIFKUJ_clean_linker_0
_symmetry_space_group_name_H-M    P1
_symmetry_Int_Tables_number       1
_symmetry_cell_setting            triclinic
loop_
_symmetry_equiv_pos_as_xyz
'x, y, z'
_cell_length_a     47.337561
_cell_length_b     47.783986
_cell_length_c     51.016685
_cell_angle_alpha  90.158185
_cell_angle_beta   90.572891
_cell_angle_gamma 100.40279
loop_
_atom_site_label
_atom_site_type_symbol
_atom_site_fract_x
_atom_site_fract_y
_atom_site_fract_z
_atom_type_partial_charge
H0 H 0.21075 0.23531 0.16132 0.0
C1 C 0.199 0.22501 0.17783 0.0
C2 C 0.20125 0.1969 0.18461 0.0
C3 C 0.18277 0.24067 0.19304 0.0
H4 H 0.18768 0.16311 0.21246 0.0
C5 C 0.18561 0.18432 0.20627 0.0
C6 C 0.16891 0.19966 0.22141 0.0
C7 C 0.16785 0.22797 0.21479 0.0
C8 C 0.18564 0.27163 0.18896 0.0
H9 H 0.15595 0.24037 0.22691 0.0
C10 C 0.16855 0.28305 0.17051 0.0
C11 C 0.17288 0.31271 0.16643 0.0
C12 C 0.20664 0.2899 0.20348 0.0
H13 H 0.21995 0.28141 0.21772 0.0
C14 C 0.21084 0.3192 0.19957 0.0
H15 H 0.15236 0.26897 0.15922 0.0
C16 C 0.19419 0.33056 0.18114 0.0
H17 H 0.19772 0.35343 0.17859 0.0
H18 H 0.22711 0.33316 0.21083 0.0
H19 H 0.34208 0.91447 0.74893 0.0
C20 C 0.35544 0.90127 0.73956 0.0
C21 C 0.3823 0.89892 0.75063 0.0
C22 C 0.34457 0.88469 0.71778 0.0
H23 H 0.41871 0.87755 0.74794 0.0
C24 C 0.39838 0.87999 0.73916 0.0
C25 C 0.38777 0.86333 0.71716 0.0
C26 C 0.36104 0.86639 0.7064 0.0
C27 C 0.31421 0.88254 0.70951 0.0
H28 H 0.35236 0.8538 0.6895 0.0
C29 C 0.30359 0.90587 0.69892 0.0
C30 C 0.27455 0.90268 0.6909 0.0
C31 C 0.29568 0.85625 0.71216 0.0
H32 H 0.30345 0.8381 0.72032 0.0
C33 C 0.267 0.85309 0.70444 0.0
H34 H 0.31785 0.92617 0.69675 0.0
C35 C 0.25649 0.87604 0.69382 0.0
H36 H 0.23426 0.87274 0.68737 0.0
H37 H 0.25292 0.83271 0.70648 0.0
H38 H 0.62741 0.50125 0.96899 0.0
C39 C 0.6207 0.47923 0.97466 0.0
C40 C 0.64115 0.4632 0.98324 0.0
C41 C 0.59143 0.46702 0.97385 0.0
H42 H 0.64788 0.42172 0.99538 0.0
C43 C 0.63202 0.43455 0.9901 0.0
C44 C 0.60283 0.42198 0.98903 0.0
C45 C 0.58262 0.43859 0.98132 0.0
C46 C 0.56987 0.48311 0.96372 0.0
H47 H 0.55998 0.42928 0.98053 0.0
C48 C 0.57106 0.49219 0.93756 0.0
C49 C 0.54835 0.50368 0.92633 0.0
C50 C 0.54654 0.48681 0.97923 0.0
H51 H 0.5452 0.47972 0.99941 0.0
C52 C 0.52454 0.49927 0.96865 0.0
H53 H 0.58924 0.48926 0.9258 0.0
C54 C 0.5252 0.50736 0.94235 0.0
H55 H 0.50705 0.51559 0.93444 0.0
H56 H 0.50648 0.50193 0.98067 0.0
H57 H 0.87964 0.69315 0.36784 0.0
C58 C 0.86927 0.68337 0.38523 0.0
C59 C 0.87566 0.69667 0.40971 0.0
C60 C 0.84891 0.65805 0.3831 0.0
H61 H 0.86561 0.69533 0.45087 0.0
C62 C 0.8614 0.68462 0.43209 0.0
C63 C 0.84064 0.65976 0.43026 0.0
C64 C 0.83501 0.64628 0.40581 0.0
C65 C 0.84093 0.64455 0.35712 0.0
H66 H 0.81894 0.62706 0.40432 0.0
C67 C 0.86198 0.64287 0.33816 0.0
C68 C 0.85435 0.62934 0.31394 0.0
C69 C 0.81204 0.63301 0.35122 0.0
H70 H 0.79519 0.63458 0.36505 0.0
C71 C 0.80445 0.61957 0.32723 0.0
H72 H 0.88436 0.65139 0.34244 0.0
C73 C 0.82545 0.61759 0.30871 0.0
H74 H 0.81903 0.60731 0.29009 0.0
H75 H 0.78218 0.61076 0.32292 0.0
H76 H 0.85459 0.88245 0.90744 0.0
C77 C 0.86454 0.89272 0.89009 0.0
C78 C 0.89201 0.88847 0.88251 0.0
C79 C 0.8489 0.90874 0.8745 0.0
H80 H 0.92504 0.89857 0.85323 0.0
C81 C 0.90415 0.90192 0.85961 0.0
C82 C 0.88895 0.91874 0.84418 0.0
C83 C 0.86123 0.92183 0.85178 0.0
C84 C 0.81805 0.90771 0.87937 0.0
H85 H 0.84859 0.93334 0.83935 0.0
C86 C 0.80846 0.92169 0.90097 0.0
C87 C 0.77879 0.91947 0.90537 0.0
C88 C 0.79794 0.89178 0.86221 0.0
H89 H 0.805 0.88086 0.84553 0.0
C90 C 0.76862 0.88946 0.86662 0.0
H91 H 0.82391 0.93413 0.9142 0.0
C92 C 0.75905 0.90313 0.88807 0.0
H93 H 0.73614 0.90137 0.8909 0.0
H94 H 0.75324 0.87707 0.85333 0.0
H95 H 0.66644 0.17632 0.46422 0.0
C96 C 0.65901 0.1726 0.44414 0.0
C97 C 0.67588 0.16118 0.42576 0.0
C98 C 0.63199 0.1785 0.43708 0.0
H99 H 0.67722 0.146 0.38597 0.0
C100 C 0.6652 0.15613 0.39996 0.0
C101 C 0.63827 0.16228 0.39245 0.0
C102 C 0.62187 0.17364 0.41125 0.0
C103 C 0.61238 0.18498 0.45764 0.0
H104 H 0.60082 0.17796 0.40609 0.0
C105 C 0.60932 0.21309 0.46359 0.0
C106 C 0.59043 0.21838 0.48356 0.0
C107 C 0.59645 0.16226 0.47147 0.0
H108 H 0.59857 0.14054 0.46708 0.0
C109 C 0.57754 0.16732 0.49092 0.0
H110 H 0.62188 0.23062 0.45304 0.0
C111 C 0.57447 0.19508 0.49691 0.0
H112 H 0.55924 0.19825 0.51185 0.0
H113 H 0.56514 0.14964 0.50136 0.0
H114 H 0.44125 0.67883 0.20118 0.0
C115 C 0.42075 0.67374 0.19099 0.0
C116 C 0.40749 0.69576 0.1815 0.0
C117 C 0.40778 0.64512 0.18713 0.0
H118 H 0.37085 0.70564 0.16032 0.0
C119 C 0.38091 0.68886 0.16841 0.0
C120 C 0.36768 0.66048 0.16452 0.0
C121 C 0.38137 0.63863 0.17361 0.0
C122 C 0.42158 0.62203 0.19767 0.0
H123 H 0.37108 0.61662 0.17084 0.0
C124 C 0.43089 0.62285 0.22394 0.0
C125 C 0.4433 0.60067 0.23446 0.0
C126 C 0.42497 0.59885 0.18178 0.0
H127 H 0.41804 0.59781 0.16145 0.0
C128 C 0.43765 0.57695 0.19199 0.0
H129 H 0.42746 0.6403 0.23642 0.0
C130 C 0.44673 0.57776 0.21816 0.0
H131 H 0.45651 0.56053 0.2256 0.0
H132 H 0.44037 0.55923 0.17959 0.0
H133 H 0.11573 0.49818 0.62374 0.0
C134 C 0.10682 0.47746 0.61556 0.0
C135 C 0.12527 0.46003 0.60587 0.0
C136 C 0.07695 0.46787 0.61552 0.0
H137 H 0.12782 0.41931 0.58888 0.0
C138 C 0.11356 0.43299 0.59592 0.0
C139 C 0.08379 0.42309 0.59569 0.0
C140 C 0.06558 0.44079 0.60532 0.0
C141 C 0.05766 0.48482 0.6283 0.0
H142 H 0.04259 0.43314 0.60568 0.0
C143 C 0.06379 0.49521 0.6539 0.0
C144 C 0.04401 0.50827 0.6677 0.0
C145 C 0.03204 0.48869 0.61594 0.0
H146 H 0.02689 0.48088 0.5962 0.0
C147 C 0.01272 0.50244 0.62911 0.0
H148 H 0.08366 0.49226 0.66329 0.0
C149 C 0.01844 0.51191 0.65487 0.0
H150 H 0.00239 0.52133 0.6649 0.0
H151 H 0.9929 0.50519 0.61953 0.0
O152 O 0.00339 0.10863 0.55388 0.0
Zn153 Zn 0.9837 0.06878 0.54533 0.0
O154 O 0.00854 0.05022 0.52316 0.0
Zn155 Zn 0.99103 0.04303 0.48816 0.0
Zn156 Zn 0.04693 0.074 0.52001 0.0
Zn157 Zn 0.01233 0.01447 0.53965 0.0
O158 O 0.98303 0.00085 0.48 0.0
O159 O 0.99937 0.9816 0.51535 0.0
O160 O 0.94699 0.07237 0.52611 0.0
O161 O 0.95354 0.05787 0.48556 0.0
O162 O 0.01763 0.06208 0.46007 0.0
O163 O 0.05707 0.08185 0.48192 0.0
O164 O 0.07821 0.0561 0.53783 0.0
O165 O 0.97343 0.04774 0.57942 0.0
O166 O 0.05311 0.01448 0.54999 0.0
O167 O 0.99025 0.00788 0.57329 0.0
C168 C 0.02806 0.12308 0.54883 0.0
C169 C 0.98804 0.97919 0.49253 0.0
C170 C 0.04313 0.07636 0.46044 0.0
C171 C 0.93848 0.06821 0.50241 0.0
C172 C 0.07679 0.03191 0.54876 0.0
C173 C 0.97692 0.02328 0.58725 0.0
O174 O 0.04667 0.11236 0.53624 0.0
O175 O 0.50227 0.10947 0.03536 0.0
Zn176 Zn 0.47933 0.07096 0.0441 0.0
O177 O 0.50182 0.05057 0.06743 0.0
Zn178 Zn 0.50657 0.01552 0.05016 0.0
Zn179 Zn 0.54011 0.0732 0.07477 0.0
Zn180 Zn 0.48145 0.04164 0.10049 0.0
O181 O 0.49529 0.98212 0.07379 0.0
O182 O 0.47566 0.99953 0.10813 0.0
O183 O 0.46726 0.04895 0.01016 0.0
O184 O 0.48359 0.00884 0.01676 0.0
O185 O 0.54751 0.01658 0.04024 0.0
O186 O 0.57221 0.0553 0.05928 0.0
O187 O 0.54701 0.07946 0.1138 0.0
O188 O 0.44355 0.07819 0.06245 0.0
O189 O 0.50482 0.06106 0.13093 0.0
O190 O 0.44319 0.05499 0.10022 0.0
C191 C 0.52659 0.12309 0.04311 0.0
C192 C 0.48309 0.97873 0.09597 0.0
C193 C 0.57125 0.03294 0.04535 0.0
C194 C 0.47003 0.02408 0.0027 0.0
C195 C 0.53058 0.07434 0.13353 0.0
C196 C 0.43171 0.07013 0.08416 0.0
O197 O 0.54269 0.11188 0.05853 0.0
O198 O 0.53576 0.56735 0.63813 0.0
Zn199 Zn 0.53579 0.58602 0.60281 0.0
O200 O 0.50984 0.56072 0.57892 0.0
Zn201 Zn 0.53138 0.55025 0.54952 0.0
Zn202 Zn 0.49184 0.52542 0.59648 0.0
Zn203 Zn 0.48071 0.58132 0.5657 0.0
O204 O 0.51929 0.56583 0.51566 0.0
O205 O 0.48402 0.58829 0.52669 0.0
O206 O 0.57688 0.59337 0.58986 0.0
O207 O 0.57307 0.5647 0.55509 0.0
O208 O 0.52743 0.50823 0.54523 0.0
O209 O 0.50363 0.49003 0.58025 0.0
O210 O 0.44843 0.52076 0.59447 0.0
O211 O 0.52217 0.62355 0.6091 0.0
O212 O 0.44154 0.55915 0.57261 0.0
O213 O 0.48268 0.61869 0.58446 0.0
C214 C 0.52143 0.54486 0.64817 0.0
C215 C 0.50032 0.58047 0.50946 0.0
C216 C 0.51701 0.48692 0.55915 0.0
C217 C 0.58815 0.58178 0.57108 0.0
C218 C 0.43172 0.536 0.5843 0.0
C219 C 0.5001 0.63287 0.60087 0.0
O220 O 0.50338 0.5274 0.6347 0.0
O221 O 0.99537 0.57319 0.06824 0.0
Zn222 Zn 0.99994 0.55657 0.0327 0.0
O223 O 0.02338 0.58489 0.01048 0.0
Zn224 Zn 0.00113 0.59247 0.97991 0.0
Zn225 Zn 0.03523 0.6208 0.02994 0.0
Zn226 Zn 0.05681 0.56947 0.99889 0.0
O227 O 0.0182 0.58077 0.94694 0.0
O228 O 0.05805 0.56588 0.95935 0.0
O229 O 0.9599 0.54536 0.0178 0.0
O230 O 0.96025 0.5719 0.9821 0.0
O231 O 1.00049 0.63409 0.97614 0.0
O232 O 0.02313 0.65465 0.01145 0.0
O233 O 0.07829 0.62822 0.03529 0.0
O234 O 0.01774 0.52146 0.03824 0.0
O235 O 0.09296 0.59424 0.01199 0.0
O236 O 0.05742 0.53086 0.01469 0.0
C237 C 0.00293 0.59772 0.07854 0.0
C238 C 0.04079 0.57113 0.94145 0.0
C239 C 0.00962 0.65616 0.9899 0.0
C240 C 0.94707 0.55371 0.99802 0.0
C241 C 0.09832 0.61611 0.02679 0.0
C242 C 0.04087 0.51457 0.02997 0.0
O243 O 0.0177 0.61813 0.0659 0.0
H244 H 0.17235 0.22193 0.27089 0.0
H245 H 0.15039 0.19968 0.31081 0.0
H246 H 0.11099 0.12611 0.2659 0.0
H247 H 0.1333 0.14813 0.2259 0.0
H248 H 0.07355 0.14896 0.30349 0.0
H249 H 0.165 0.11811 0.29835 0.0
H250 H 0.21764 0.12562 0.29383 0.0
H251 H 0.22797 0.17747 0.36336 0.0
H252 H 0.17533 0.17062 0.36806 0.0
H253 H 0.02751 0.05861 0.41043 0.0
H254 H 0.04858 0.0782 0.36939 0.0
H255 H 0.10902 0.14007 0.41287 0.0
H256 H 0.08885 0.11973 0.45397 0.0
H257 H 0.13568 0.1225 0.37476 0.0
H258 H 0.04652 0.15592 0.38063 0.0
H259 H 0.99421 0.15204 0.3857 0.0
H260 H 0.97945 0.10029 0.31624 0.0
H261 H 0.0317 0.10355 0.31094 0.0
C262 C 0.1588 0.20112 0.26951 0.0
C263 C 0.15447 0.18674 0.24532 0.0
C264 C 0.14639 0.1884 0.29231 0.0
C265 C 0.12915 0.16123 0.29128 0.0
C266 C 0.12421 0.14709 0.26707 0.0
C267 C 0.13703 0.15961 0.24431 0.0
C268 C 0.11686 0.14739 0.31564 0.0
C269 C 0.08702 0.14277 0.31897 0.0
C270 C 0.13458 0.14015 0.33607 0.0
C271 C 0.16623 0.14408 0.3334 0.0
C272 C 0.17849 0.13132 0.31254 0.0
C273 C 0.20832 0.13541 0.30997 0.0
C274 C 0.22614 0.15207 0.32825 0.0
C275 C 0.21414 0.1646 0.34919 0.0
C276 C 0.18431 0.1606 0.35183 0.0
C277 C 0.04535 0.07633 0.41125 0.0
C278 C 0.05642 0.08766 0.4355 0.0
C279 C 0.05729 0.08767 0.38773 0.0
C280 C 0.08007 0.11106 0.38789 0.0
C281 C 0.09144 0.12208 0.41212 0.0
C282 C 0.07985 0.11043 0.43565 0.0
C283 C 0.09213 0.12405 0.3629 0.0
C284 C 0.12202 0.12857 0.35938 0.0
C285 C 0.07444 0.13167 0.34247 0.0
C286 C 0.04301 0.12974 0.34555 0.0
C287 C 0.03211 0.14354 0.36654 0.0
C288 C 0.00248 0.14148 0.36944 0.0
C289 C 0.98352 0.12586 0.35135 0.0
C290 C 0.99416 0.11234 0.33027 0.0
C291 C 0.02379 0.1143 0.32729 0.0
H292 H 0.96058 0.12429 0.35363 0.0
H293 H 0.24923 0.15522 0.32623 0.0
H294 H 0.40719 0.87834 0.79346 0.0
H295 H 0.4206 0.90219 0.83527 0.0
H296 H 0.39183 0.97735 0.80693 0.0
H297 H 0.3792 0.95387 0.76455 0.0
H298 H 0.44159 0.99115 0.83471 0.0
H299 H 0.34996 0.93213 0.84751 0.0
H300 H 0.31422 0.88767 0.84607 0.0
H301 H 0.36718 0.84777 0.89754 0.0
H302 H 0.40346 0.89188 0.89899 0.0
H303 H 0.44445 0.05136 0.96399 0.0
H304 H 0.4275 0.03256 0.92072 0.0
H305 H 0.45269 0.95256 0.93955 0.0
H306 H 0.46927 0.9709 0.98265 0.0
H307 H 0.40114 0.94394 0.91604 0.0
H308 H 0.49411 0.00184 0.90068 0.0
H309 H 0.53014 0.04611 0.90184 0.0
H310 H 0.47448 0.08812 0.85523 0.0
H311 H 0.43793 0.04417 0.85408 0.0
C312 C 0.40418 0.90012 0.79586 0.0
C313 C 0.39211 0.91418 0.77557 0.0
C314 C 0.41155 0.91364 0.81995 0.0
C315 C 0.40679 0.94142 0.82443 0.0
C316 C 0.39555 0.95586 0.80399 0.0
C317 C 0.38817 0.94234 0.77984 0.0
C318 C 0.41312 0.95507 0.85062 0.0
C319 C 0.43238 0.98107 0.85246 0.0
C320 C 0.4014 0.94177 0.87385 0.0
C321 C 0.37953 0.91526 0.87318 0.0
C322 C 0.35408 0.91382 0.85838 0.0
C323 C 0.33371 0.88869 0.85758 0.0
C324 C 0.33845 0.8649 0.87166 0.0
C325 C 0.36355 0.86621 0.88662 0.0
C326 C 0.38401 0.89128 0.88746 0.0
C327 C 0.44622 0.02971 0.95897 0.0
C328 C 0.45834 0.01272 0.97684 0.0
C329 C 0.43665 0.01904 0.93417 0.0
C330 C 0.43909 0.99122 0.92675 0.0
C331 C 0.45058 0.97408 0.94477 0.0
C332 C 0.46015 0.98469 0.96946 0.0
C333 C 0.43003 0.97976 0.9002 0.0
C334 C 0.41018 0.95416 0.89828 0.0
C335 C 0.4412 0.99344 0.87694 0.0
C336 C 0.46316 0.01983 0.87756 0.0
C337 C 0.48946 0.02059 0.89086 0.0
C338 C 0.50999 0.04561 0.89148 0.0
C339 C 0.50456 0.06994 0.87869 0.0
C340 C 0.47862 0.06927 0.86517 0.0
C341 C 0.458 0.04431 0.86452 0.0
H342 H 0.52049 0.08929 0.87918 0.0
H343 H 0.32266 0.84546 0.87101 0.0
H344 H 0.5262 0.54612 0.90134 0.0
H345 H 0.52098 0.55281 0.85432 0.0
H346 H 0.56625 0.48382 0.83928 0.0
H347 H 0.56909 0.47515 0.88598 0.0
H348 H 0.55365 0.56713 0.81608 0.0
H349 H 0.54396 0.44863 0.78444 0.0
H350 H 0.52605 0.4008 0.80217 0.0
H351 H 0.46883 0.4353 0.85273 0.0
H352 H 0.48612 0.48325 0.83507 0.0
H353 H 0.5684 0.5637 0.67909 0.0
H354 H 0.57353 0.55665 0.72619 0.0
H355 H 0.48708 0.50859 0.72829 0.0
H356 H 0.48248 0.5143 0.68096 0.0
H357 H 0.51737 0.48445 0.75836 0.0
H358 H 0.50587 0.58087 0.74909 0.0
H359 H 0.51588 0.62993 0.73216 0.0
H360 H 0.60111 0.64178 0.765 0.0
H361 H 0.59173 0.59265 0.78183 0.0
C362 C 0.53468 0.53204 0.88808 0.0
C363 C 0.54779 0.50986 0.8977 0.0
C364 C 0.53199 0.53615 0.86113 0.0
C365 C 0.54271 0.51847 0.84316 0.0
C366 C 0.55712 0.4973 0.85268 0.0
C367 C 0.55921 0.49272 0.87957 0.0
C368 C 0.53842 0.52183 0.81451 0.0
C369 C 0.54569 0.54904 0.80348 0.0
C370 C 0.52732 0.4984 0.79805 0.0
C371 C 0.51656 0.46957 0.80861 0.0
C372 C 0.52748 0.44598 0.79927 0.0
C373 C 0.51745 0.41886 0.80932 0.0
C374 C 0.49639 0.41503 0.82863 0.0
C375 C 0.48522 0.43831 0.83785 0.0
C376 C 0.49515 0.46547 0.82784 0.0
C377 C 0.55057 0.5515 0.68961 0.0
C378 C 0.52501 0.53962 0.6764 0.0
C379 C 0.55343 0.54765 0.71657 0.0
C380 C 0.53047 0.53262 0.73097 0.0
C381 C 0.50511 0.52031 0.71767 0.0
C382 C 0.50248 0.52359 0.69061 0.0
C383 C 0.53283 0.52971 0.75988 0.0
C384 C 0.52528 0.50256 0.77095 0.0
C385 C 0.54246 0.55339 0.77651 0.0
C386 C 0.54817 0.58299 0.76651 0.0
C387 C 0.52681 0.59388 0.75255 0.0
C388 C 0.53236 0.6217 0.74299 0.0
C389 C 0.55913 0.63893 0.74745 0.0
C390 C 0.58039 0.6284 0.76153 0.0
C391 C 0.57496 0.60057 0.77111 0.0
H392 H 0.56339 0.66047 0.74003 0.0
H393 H 0.48867 0.39401 0.8364 0.0
H394 H 0.86263 0.58256 0.28657 0.0
H395 H 0.89584 0.58062 0.25045 0.0
H396 H 0.9284 0.67048 0.25952 0.0
H397 H 0.89514 0.67252 0.29581 0.0
H398 H 0.91113 0.65404 0.20828 0.0
H399 H 0.97116 0.62654 0.27554 0.0
H400 H 0.98328 0.59921 0.31365 0.0
H401 H 0.96403 0.52187 0.26873 0.0
H402 H 0.95138 0.54867 0.23043 0.0
H403 H 0.01053 0.64808 0.10586 0.0
H404 H 0.99232 0.6564 0.14936 0.0
H405 H 0.95583 0.56722 0.15556 0.0
H406 H 0.97408 0.5586 0.1123 0.0
H407 H 0.98092 0.58841 0.20153 0.0
H408 H 0.91392 0.61317 0.13772 0.0
H409 H 0.89928 0.63844 0.09923 0.0
H410 H 0.92912 0.71869 0.13743 0.0
H411 H 0.94425 0.69386 0.17606 0.0
C412 C 0.87708 0.60182 0.281 0.0
C413 C 0.8763 0.62771 0.29384 0.0
C414 C 0.89615 0.60066 0.26053 0.0
C415 C 0.91464 0.62539 0.25245 0.0
C416 C 0.91435 0.65117 0.26558 0.0
C417 C 0.89549 0.65228 0.28632 0.0
C418 C 0.93254 0.62449 0.22897 0.0
C419 C 0.92691 0.64023 0.20697 0.0
C420 C 0.95251 0.60585 0.22716 0.0
C421 C 0.96011 0.58962 0.25015 0.0
C422 C 0.96927 0.60367 0.27384 0.0
C423 C 0.97629 0.58827 0.29547 0.0
C424 C 0.97437 0.55881 0.29363 0.0
C425 C 0.96549 0.54469 0.27013 0.0
C426 C 0.95843 0.55998 0.24844 0.0
C427 C 0.99884 0.63018 0.11655 0.0
C428 C 0.99356 0.6027 0.10549 0.0
C429 C 0.98842 0.635 0.14139 0.0
C430 C 0.97253 0.61246 0.15554 0.0
C431 C 0.96808 0.58489 0.14495 0.0
C432 C 0.97841 0.58005 0.12014 0.0
C433 C 0.9592 0.61768 0.18079 0.0
C434 C 0.96558 0.60267 0.20303 0.0
C435 C 0.93964 0.63672 0.18279 0.0
C436 C 0.93054 0.65169 0.15962 0.0
C437 C 0.91758 0.63622 0.13782 0.0
C438 C 0.90914 0.65045 0.116 0.0
C439 C 0.91336 0.68015 0.11585 0.0
C440 C 0.92593 0.69568 0.13755 0.0
C441 C 0.93442 0.68154 0.15942 0.0
H442 H 0.90682 0.69114 0.09894 0.0
H443 H 0.97982 0.54693 0.31039 0.0
H444 H 0.25356 0.21973 0.16323 0.0
H445 H 0.28823 0.19476 0.14285 0.0
H446 H 0.23235 0.1145 0.15597 0.0
H447 H 0.19634 0.13928 0.17483 0.0
H448 H 0.29683 0.12526 0.17579 0.0
H449 H 0.23415 0.12644 0.10011 0.0
H450 H 0.20697 0.15009 0.06818 0.0
H451 H 0.28488 0.20453 0.04474 0.0
H452 H 0.31247 0.18148 0.07684 0.0
H453 H 0.38868 0.04349 0.1156 0.0
H454 H 0.34596 0.06135 0.1297 0.0
H455 H 0.37306 0.13814 0.08527 0.0
H456 H 0.41466 0.11945 0.0698 0.0
H457 H 0.3197 0.12658 0.08107 0.0
H458 H 0.38261 0.13166 0.15573 0.0
H459 H 0.41289 0.11387 0.18917 0.0
H460 H 0.33966 0.05527 0.21668 0.0
H461 H 0.30901 0.07247 0.18317 0.0
C462 C 0.24802 0.19685 0.16117 0.0
C463 C 0.22182 0.18168 0.17073 0.0
C464 C 0.26813 0.1826 0.14972 0.0
C465 C 0.26282 0.15285 0.14797 0.0
C466 C 0.23682 0.13751 0.15726 0.0
C467 C 0.21636 0.15177 0.16821 0.0
C468 C 0.28509 0.1379 0.13738 0.0
C469 C 0.30158 0.125 0.15504 0.0
C470 C 0.29186 0.13868 0.11047 0.0
C471 C 0.27532 0.15242 0.09107 0.0
C472 C 0.24545 0.14364 0.08834 0.0
C473 C 0.22997 0.1569 0.07016 0.0
C474 C 0.24417 0.17885 0.05449 0.0
C475 C 0.2739 0.18755 0.05691 0.0
C476 C 0.28947 0.17437 0.07507 0.0
C477 C 0.38533 0.06406 0.10869 0.0
C478 C 0.40505 0.08011 0.09167 0.0
C479 C 0.36101 0.0744 0.11692 0.0
C480 C 0.35647 0.1015 0.10914 0.0
C481 C 0.37591 0.11721 0.09165 0.0
C482 C 0.39977 0.10653 0.08282 0.0
C483 C 0.33189 0.11377 0.11948 0.0
C484 C 0.31497 0.1264 0.10183 0.0
C485 C 0.32524 0.11348 0.14657 0.0
C486 C 0.3436 0.10312 0.16676 0.0
C487 C 0.37302 0.11484 0.1688 0.0
C488 C 0.39023 0.10488 0.18777 0.0
C489 C 0.37822 0.0834 0.20498 0.0
C490 C 0.34895 0.07188 0.2033 0.0
C491 C 0.33164 0.08173 0.18433 0.0
H492 H 0.39159 0.07572 0.21966 0.0
H493 H 0.23216 0.18909 0.04043 0.0
H494 H 0.2236 0.91919 0.70104 0.0
H495 H 0.19906 0.94969 0.67405 0.0
H496 H 0.27367 0.96998 0.62525 0.0
H497 H 0.29832 0.93873 0.65191 0.0
H498 H 0.23068 0.01726 0.64314 0.0
H499 H 0.24032 0.93006 0.59471 0.0
H500 H 0.23996 0.87837 0.5936 0.0
H501 H 0.15391 0.86248 0.62309 0.0
H502 H 0.15399 0.91413 0.62477 0.0
H503 H 0.13379 0.05757 0.54454 0.0
H504 H 0.17553 0.04272 0.56574 0.0
H505 H 0.11915 0.97376 0.60335 0.0
H506 H 0.07799 0.98775 0.58192 0.0
H507 H 0.16212 0.95458 0.58472 0.0
H508 H 0.15073 0.03787 0.63538 0.0
H509 H 0.14868 0.08867 0.6417 0.0
H510 H 0.23445 0.11188 0.61247 0.0
H511 H 0.23686 0.0612 0.6057 0.0
C512 C 0.23504 0.93055 0.68487 0.0
C513 C 0.26271 0.92618 0.67832 0.0
C514 C 0.22107 0.94813 0.66961 0.0
C515 C 0.23454 0.96192 0.64765 0.0
C516 C 0.26304 0.9596 0.64226 0.0
C517 C 0.27707 0.94178 0.65751 0.0
C518 C 0.21693 0.97466 0.62851 0.0
C519 C 0.21615 0.00383 0.6298 0.0
C520 C 0.19761 0.95693 0.61167 0.0
C521 C 0.19726 0.9259 0.61004 0.0
C522 C 0.22141 0.91553 0.60112 0.0
C523 C 0.22125 0.88625 0.60037 0.0
C524 C 0.19695 0.86715 0.60832 0.0
C525 C 0.17273 0.87729 0.61696 0.0
C526 C 0.17281 0.90656 0.61778 0.0
C527 C 0.13039 0.03923 0.55731 0.0
C528 C 0.10253 0.02378 0.56137 0.0
C529 C 0.15424 0.03083 0.56951 0.0
C530 C 0.15054 0.00712 0.58625 0.0
C531 C 0.1227 0.99195 0.59038 0.0
C532 C 0.09908 1.00006 0.57807 0.0
C533 C 0.1752 0.99737 0.59949 0.0
C534 C 0.17718 0.96847 0.59729 0.0
C535 C 0.1953 0.0154 0.61566 0.0
C536 C 0.19383 0.0458 0.61972 0.0
C537 C 0.16906 0.05383 0.63011 0.0
C538 C 0.16785 0.08259 0.63381 0.0
C539 C 0.19138 0.10349 0.6274 0.0
C540 C 0.21621 0.09567 0.61736 0.0
C541 C 0.21752 0.06694 0.6136 0.0
H542 H 0.19041 0.12575 0.63028 0.0
H543 H 0.19687 0.84449 0.60775 0.0
H544 H 0.67313 0.49755 0.94729 0.0
H545 H 0.72496 0.51566 0.94875 0.0
H546 H 0.73099 0.47478 0.02338 0.0
H547 H 0.67921 0.45736 0.02242 0.0
H548 H 0.76356 0.52698 0.02316 0.0
H549 H 0.74828 0.44425 0.96703 0.0
H550 H 0.72722 0.41486 0.92946 0.0
H551 H 0.76457 0.48047 0.87634 0.0
H552 H 0.78553 0.51044 0.91366 0.0
H553 H 0.9106 0.51924 0.03054 0.0
H554 H 0.85848 0.5059 0.02646 0.0
H555 H 0.86037 0.55206 0.95379 0.0
H556 H 0.91261 0.5654 0.95754 0.0
H557 H 0.82382 0.50029 0.95147 0.0
H558 H 0.84163 0.58186 0.00819 0.0
H559 H 0.86341 0.6102 0.04611 0.0
H560 H 0.82172 0.54597 0.09855 0.0
H561 H 0.80002 0.51702 0.06091 0.0
C562 C 0.68546 0.49281 0.96419 0.0
C563 C 0.67216 0.47585 0.98465 0.0
C564 C 0.71508 0.50296 0.96489 0.0
C565 C 0.73187 0.49622 0.98601 0.0
C566 C 0.71846 0.48014 0.00686 0.0
C567 C 0.68892 0.47001 0.00617 0.0
C568 C 0.76354 0.5051 0.98618 0.0
C569 C 0.77676 0.52096 0.00759 0.0
C570 C 0.78069 0.49772 0.96559 0.0
C571 C 0.76819 0.47971 0.94314 0.0
C572 C 0.7518 0.4525 0.94735 0.0
C573 C 0.73992 0.43573 0.9261 0.0
C574 C 0.74448 0.44583 0.90053 0.0
C575 C 0.76101 0.4727 0.89616 0.0
C576 C 0.77291 0.48958 0.91735 0.0
C577 C 0.90003 0.52638 0.01354 0.0
C578 C 0.91581 0.54356 0.99445 0.0
C579 C 0.87021 0.51884 0.01133 0.0
C580 C 0.85557 0.52838 0.99004 0.0
C581 C 0.87129 0.54461 0.97043 0.0
C582 C 0.90113 0.55224 0.97265 0.0
C583 C 0.82381 0.52187 0.98858 0.0
C584 C 0.8106 0.5065 0.96693 0.0
C585 C 0.80667 0.52962 0.00899 0.0
C586 C 0.81939 0.54715 0.0317 0.0
C587 C 0.83726 0.57368 0.0278 0.0
C588 C 0.84957 0.58987 0.04924 0.0
C589 C 0.84401 0.57987 0.07472 0.0
C590 C 0.82604 0.55368 0.0788 0.0
C591 C 0.8137 0.53739 0.05741 0.0
H592 H 0.85358 0.59242 0.0913 0.0
H593 H 0.73528 0.43281 0.88411 0.0
H594 H 0.81626 0.69187 0.46466 0.0
H595 H 0.78041 0.67522 0.49769 0.0
H596 H 0.78695 0.58829 0.48 0.0
H597 H 0.82316 0.60488 0.44686 0.0
H598 H 0.73302 0.597 0.4758 0.0
H599 H 0.80779 0.61758 0.54014 0.0
H600 H 0.84936 0.64641 0.56283 0.0
H601 H 0.79825 0.70892 0.5826 0.0
H602 H 0.75646 0.68067 0.5597 0.0
H603 H 0.62193 0.54396 0.55887 0.0
H604 H 0.67176 0.55431 0.54452 0.0
H605 H 0.67394 0.64386 0.55827 0.0
H606 H 0.62426 0.63328 0.574 0.0
H607 H 0.72621 0.63004 0.56745 0.0
H608 H 0.65507 0.6145 0.49781 0.0
H609 H 0.61297 0.58755 0.47426 0.0
H610 H 0.65752 0.51773 0.46338 0.0
H611 H 0.69979 0.54418 0.48711 0.0
C612 C 0.8108 0.66924 0.46836 0.0
C613 C 0.82247 0.64966 0.45307 0.0
C614 C 0.79027 0.65974 0.48729 0.0
C615 C 0.78112 0.63052 0.49141 0.0
C616 C 0.79375 0.61095 0.47711 0.0
C617 C 0.81431 0.62043 0.45814 0.0
C618 C 0.75583 0.62053 0.508 0.0
C619 C 0.73183 0.60365 0.49606 0.0
C620 C 0.75395 0.63005 0.53412 0.0
C621 C 0.77902 0.64707 0.54803 0.0
C622 C 0.80546 0.63757 0.54915 0.0
C623 C 0.82906 0.6538 0.56209 0.0
C624 C 0.82646 0.6795 0.57411 0.0
C625 C 0.80023 0.68901 0.57328 0.0
C626 C 0.77657 0.67287 0.56035 0.0
C627 C 0.63332 0.56578 0.55943 0.0
C628 C 0.61933 0.58793 0.56713 0.0
C629 C 0.66172 0.57167 0.5512 0.0
C630 C 0.67624 0.59992 0.54963 0.0
C631 C 0.66303 0.62192 0.55921 0.0
C632 C 0.63471 0.61592 0.56811 0.0
C633 C 0.70359 0.6066 0.53517 0.0
C634 C 0.72775 0.62299 0.54738 0.0
C635 C 0.70566 0.59694 0.5091 0.0
C636 C 0.68047 0.5812 0.49442 0.0
C637 C 0.65582 0.59335 0.49048 0.0
C638 C 0.63194 0.57817 0.47711 0.0
C639 C 0.63255 0.55091 0.4674 0.0
C640 C 0.65708 0.53883 0.47095 0.0
C641 C 0.68101 0.55391 0.48432 0.0
H642 H 0.61403 0.53918 0.45709 0.0
H643 H 0.84476 0.69203 0.58411 0.0
H644 H 0.19209 0.35058 0.12805 0.0
H645 H 0.16383 0.37771 0.10094 0.0
H646 H 0.08587 0.332 0.13475 0.0
H647 H 0.11423 0.30468 0.16202 0.0
H648 H 0.11955 0.36441 0.06411 0.0
H649 H 0.04272 0.38299 0.14572 0.0
H650 H 0.04009 0.38247 0.19403 0.0
H651 H 0.132 0.40476 0.19951 0.0
H652 H 0.13511 0.40581 0.15129 0.0
H653 H 0.0099 0.472 0.0596 0.0
H654 H 0.02638 0.43059 0.07836 0.0
H655 H 0.10903 0.45689 0.04249 0.0
H656 H 0.09251 0.49764 0.02311 0.0
H657 H 0.06638 0.42807 0.11286 0.0
H658 H 0.14231 0.4026 0.03043 0.0
H659 H 0.14444 0.40311 0.98214 0.0
H660 H 0.05262 0.39404 0.97746 0.0
H661 H 0.04989 0.39308 0.02569 0.0
C662 C 0.16889 0.34601 0.12939 0.0
C663 C 0.15534 0.32568 0.14724 0.0
C664 C 0.15276 0.36143 0.11382 0.0
C665 C 0.12277 0.35712 0.11601 0.0
C666 C 0.10902 0.33581 0.13289 0.0
C667 C 0.12519 0.32012 0.14833 0.0
C668 C 0.10647 0.37655 0.10213 0.0
C669 C 0.10794 0.37839 0.07471 0.0
C670 C 0.09071 0.39426 0.11592 0.0
C671 C 0.08913 0.39409 0.14493 0.0
C672 C 0.06234 0.38784 0.15726 0.0
C673 C 0.06077 0.38746 0.18462 0.0
C674 C 0.08587 0.39346 0.19983 0.0
C675 C 0.11258 0.39999 0.18771 0.0
C676 C 0.11426 0.40045 0.16037 0.0
C677 C 0.03145 0.46873 0.05538 0.0
C678 C 0.04982 0.48816 0.03974 0.0
C679 C 0.04088 0.44506 0.06619 0.0
C680 C 0.06887 0.44031 0.06164 0.0
C681 C 0.08711 0.45956 0.04583 0.0
C682 C 0.07765 0.48304 0.03483 0.0
C683 C 0.07974 0.41638 0.07469 0.0
C684 C 0.07739 0.41374 0.10204 0.0
C685 C 0.09453 0.39783 0.06077 0.0
C686 C 0.09593 0.39798 0.03171 0.0
C687 C 0.12256 0.40056 0.0191 0.0
C688 C 0.12387 0.40096 0.99173 0.0
C689 C 0.09869 0.39868 0.97675 0.0
C690 C 0.07212 0.3959 0.98909 0.0
C691 C 0.07068 0.39546 0.01645 0.0
H692 H 0.09976 0.39902 0.95556 0.0
H693 H 0.08461 0.39312 0.221 0.0
H694 H 0.62293 0.39093 0.02783 0.0
H695 H 0.60991 0.33974 0.03543 0.0
H696 H 0.54885 0.33234 0.97138 0.0
H697 H 0.56226 0.38334 0.96312 0.0
H698 H 0.52741 0.3025 0.01643 0.0
H699 H 0.61023 0.31286 0.96103 0.0
H700 H 0.65989 0.33278 0.94832 0.0
H701 H 0.69183 0.3003 0.01892 0.0
H702 H 0.64229 0.28055 0.03225 0.0
H703 H 0.50179 0.15257 0.00608 0.0
H704 H 0.51499 0.20298 0.99531 0.0
H705 H 0.58442 0.21214 0.05192 0.0
H706 H 0.57189 0.16164 0.06232 0.0
H707 H 0.6013 0.24128 0.00936 0.0
H708 H 0.51974 0.23233 0.06595 0.0
H709 H 0.47044 0.2131 0.0802 0.0
H710 H 0.43651 0.24357 0.00957 0.0
H711 H 0.48567 0.26264 0.99473 0.0
C712 C 0.60685 0.37841 0.01525 0.0
C713 C 0.59372 0.39124 0.9948 0.0
C714 C 0.59938 0.3492 0.01969 0.0
C715 C 0.57861 0.33232 0.00381 0.0
C716 C 0.56489 0.34509 0.98386 0.0
C717 C 0.57249 0.37426 0.97928 0.0
C718 C 0.57157 0.30121 0.00776 0.0
C719 C 0.54342 0.289 0.01455 0.0
C720 C 0.5927 0.28384 0.00585 0.0
C721 C 0.62253 0.29547 0.99775 0.0
C722 C 0.62782 0.31016 0.97394 0.0
C723 C 0.65596 0.32139 0.96661 0.0
C724 C 0.679 0.31787 0.98284 0.0
C725 C 0.67396 0.30304 0.00639 0.0
C726 C 0.64586 0.2918 0.01383 0.0
C727 C 0.52 0.16525 0.01612 0.0
C728 C 0.53566 0.15311 0.0352 0.0
C729 C 0.52744 0.1941 0.01002 0.0
C730 C 0.55037 0.21143 0.02316 0.0
C731 C 0.56659 0.19918 0.04159 0.0
C732 C 0.55936 0.17029 0.04753 0.0
C733 C 0.5571 0.24246 0.01819 0.0
C734 C 0.58521 0.2547 0.0112 0.0
C735 C 0.53598 0.2599 0.02015 0.0
C736 C 0.50639 0.24865 0.02912 0.0
C737 C 0.50177 0.23475 0.05338 0.0
C738 C 0.47386 0.22391 0.06157 0.0
C739 C 0.45036 0.22705 0.04577 0.0
C740 C 0.45474 0.24112 0.02177 0.0
C741 C 0.48262 0.25197 0.01347 0.0
H742 H 0.42876 0.21863 0.05214 0.0
H743 H 0.70077 0.32658 0.97713 0.0
H744 H 0.87452 0.74425 0.38062 0.0
H745 H 0.89976 0.79256 0.39034 0.0
H746 H 0.94503 0.76044 0.45418 0.0
H747 H 0.91951 0.7122 0.44472 0.0
H748 H 0.91831 0.80104 0.47044 0.0
H749 H 0.97997 0.78973 0.39866 0.0
H750 H 0.99158 0.77852 0.35326 0.0
H751 H 0.95004 0.84538 0.32468 0.0
H752 H 0.93782 0.85675 0.3699 0.0
H753 H 0.003 0.92992 0.51002 0.0
H754 H 0.98899 0.88227 0.49164 0.0
H755 H 0.9418 0.91545 0.42984 0.0
H756 H 0.95626 0.96355 0.44784 0.0
H757 H 0.97045 0.87477 0.41151 0.0
H758 H 0.90684 0.88445 0.48237 0.0
H759 H 0.89432 0.89571 0.52752 0.0
H760 H 0.93849 0.83132 0.55734 0.0
H761 H 0.95161 0.81994 0.51237 0.0
C762 C 0.89051 0.74743 0.3962 0.0
C763 C 0.895 0.7246 0.41204 0.0
C764 C 0.90492 0.77504 0.40175 0.0
C765 C 0.92427 0.78012 0.42301 0.0
C766 C 0.93008 0.75702 0.43776 0.0
C767 C 0.91555 0.72951 0.43235 0.0
C768 C 0.93581 0.80959 0.43184 0.0
C769 C 0.93021 0.81698 0.45766 0.0
C770 C 0.95036 0.83067 0.41488 0.0
C771 C 0.95775 0.82392 0.38767 0.0
C772 C 0.9731 0.80189 0.38268 0.0
C773 C 0.97983 0.79554 0.35698 0.0
C774 C 0.97149 0.81118 0.3361 0.0
C775 C 0.95646 0.83326 0.34088 0.0
C776 C 0.94965 0.83969 0.36655 0.0
C777 C 0.98972 0.9272 0.49246 0.0
C778 C 0.98046 0.95053 0.48058 0.0
C779 C 0.98175 0.89991 0.48197 0.0
C780 C 0.96399 0.89528 0.45963 0.0
C781 C 0.95547 0.91859 0.44715 0.0
C782 C 0.96364 0.94602 0.45753 0.0
C783 C 0.95327 0.86592 0.45015 0.0
C784 C 0.95878 0.85866 0.42425 0.0
C785 C 0.93848 0.84486 0.46696 0.0
C786 C 0.93043 0.85153 0.49402 0.0
C787 C 0.91405 0.87283 0.49857 0.0
C788 C 0.90682 0.87921 0.52413 0.0
C789 C 0.91566 0.86429 0.54529 0.0
C790 C 0.93168 0.84289 0.54093 0.0
C791 C 0.939 0.83644 0.51541 0.0
H792 H 0.91005 0.86927 0.56506 0.0
H793 H 0.97672 0.80622 0.31621 0.0
H794 H 0.36429 0.8103 0.69849 0.0
H795 H 0.38859 0.77436 0.68024 0.0
H796 H 0.47069 0.82805 0.69539 0.0
H797 H 0.44622 0.86545 0.71201 0.0
H798 H 0.47259 0.8034 0.65012 0.0
H799 H 0.44417 0.76871 0.73449 0.0
H800 H 0.41196 0.75576 0.77192 0.0
H801 H 0.35762 0.69337 0.72445 0.0
H802 H 0.38927 0.70622 0.6866 0.0
H803 H 0.53523 0.67503 0.62889 0.0
H804 H 0.52154 0.71686 0.65003 0.0
H805 H 0.43506 0.69175 0.62042 0.0
H806 H 0.44851 0.65053 0.59887 0.0
H807 H 0.44242 0.70303 0.67764 0.0
H808 H 0.47115 0.74322 0.5922 0.0
H809 H 0.5058 0.75631 0.55658 0.0
H810 H 0.56364 0.80818 0.61004 0.0
H811 H 0.52946 0.79504 0.64609 0.0
C812 C 0.3875 0.81491 0.69756 0.0
C813 C 0.40319 0.84109 0.70658 0.0
C814 C 0.40146 0.79396 0.6875 0.0
C815 C 0.43157 0.79811 0.68691 0.0
C816 C 0.44743 0.82421 0.69579 0.0
C817 C 0.4334 0.84549 0.70553 0.0
C818 C 0.44607 0.77516 0.6766 0.0
C819 C 0.46638 0.78157 0.65656 0.0
C820 C 0.4381 0.74653 0.68488 0.0
C821 C 0.41904 0.73857 0.70765 0.0
C822 C 0.42526 0.75235 0.73198 0.0
C823 C 0.40711 0.74501 0.75328 0.0
C824 C 0.38274 0.72379 0.75055 0.0
C825 C 0.3765 0.70981 0.72653 0.0
C826 C 0.39457 0.71708 0.70515 0.0
C827 C 0.51339 0.67861 0.62665 0.0
C828 C 0.49299 0.65942 0.61215 0.0
C829 C 0.50563 0.7025 0.63872 0.0
C830 C 0.47728 0.70728 0.63681 0.0
C831 C 0.45704 0.68838 0.62214 0.0
C832 C 0.46485 0.66489 0.60973 0.0
C833 C 0.46807 0.73129 0.65082 0.0
C834 C 0.44885 0.72499 0.67159 0.0
C835 C 0.47746 0.75996 0.64357 0.0
C836 C 0.49793 0.76785 0.6219 0.0
C837 C 0.49139 0.75716 0.59642 0.0
C838 C 0.51091 0.76465 0.57614 0.0
C839 C 0.53695 0.78298 0.58106 0.0
C840 C 0.54349 0.79393 0.60627 0.0
C841 C 0.52405 0.78648 0.62662 0.0
H842 H 0.55203 0.78877 0.56533 0.0
H843 H 0.36871 0.71814 0.76707 0.0
H844 H 0.91654 0.89379 0.80604 0.0
H845 H 0.93262 0.9133 0.76338 0.0
H846 H 0.90366 0.99141 0.78243 0.0
H847 H 0.88747 0.97196 0.82515 0.0
H848 H 0.88596 0.97399 0.73464 0.0
H849 H 0.97568 0.98765 0.78119 0.0
H850 H 0.01417 0.97374 0.80839 0.0
H851 H 0.02813 0.9132 0.74974 0.0
H852 H 0.98943 0.92648 0.72233 0.0
H853 H 0.9517 0.05157 0.62488 0.0
H854 H 0.93746 0.03524 0.66901 0.0
H855 H 0.96455 0.9554 0.65338 0.0
H856 H 0.97925 0.97166 0.60947 0.0
H857 H 0.98384 0.97561 0.70016 0.0
H858 H 0.89291 0.96107 0.65436 0.0
H859 H 0.85439 0.97514 0.62729 0.0
H860 H 0.8429 0.03779 0.68481 0.0
H861 H 0.88164 0.02434 0.71207 0.0
C862 C 0.91408 0.91532 0.80136 0.0
C863 C 0.9008 0.93136 0.81905 0.0
C864 C 0.92322 0.92644 0.77691 0.0
C865 C 0.91956 0.95394 0.76971 0.0
C866 C 0.90666 0.97013 0.78748 0.0
C867 C 0.89741 0.95899 0.81189 0.0
C868 C 0.9282 0.9654 0.7433 0.0
C869 C 0.9075 0.97476 0.72727 0.0
C870 C 0.95612 0.96586 0.73341 0.0
C871 C 0.97947 0.95788 0.74981 0.0
C872 C 0.9868 0.97121 0.77418 0.0
C873 C 0.00869 0.96347 0.78962 0.0
C874 C 0.02354 0.94255 0.78083 0.0
C875 C 0.01658 0.92938 0.75654 0.0
C876 C 0.99469 0.93703 0.74103 0.0
C877 C 0.95445 0.03046 0.63074 0.0
C878 C 0.96661 0.01295 0.61353 0.0
C879 C 0.94623 0.02112 0.65599 0.0
C880 C 0.94975 0.99399 0.6645 0.0
C881 C 0.96168 0.97643 0.64731 0.0
C882 C 0.96997 0.98575 0.62212 0.0
C883 C 0.94154 0.98401 0.69145 0.0
C884 C 0.96232 0.97493 0.70758 0.0
C885 C 0.91372 0.98385 0.70145 0.0
C886 C 0.89037 0.9919 0.68512 0.0
C887 C 0.88232 0.978 0.66114 0.0
C888 C 0.86042 0.98584 0.64578 0.0
C889 C 0.84626 0.0074 0.65429 0.0
C890 C 0.85392 0.02112 0.67822 0.0
C891 C 0.87583 0.01339 0.69364 0.0
H892 H 0.82931 0.01343 0.64238 0.0
H893 H 0.04048 0.93659 0.79281 0.0
H894 H 0.66726 0.16857 0.34587 0.0
H895 H 0.64873 0.15414 0.3021 0.0
H896 H 0.56431 0.126 0.33388 0.0
H897 H 0.58298 0.13902 0.37788 0.0
H898 H 0.57599 0.08795 0.30068 0.0
H899 H 0.58204 0.18898 0.29845 0.0
H900 H 0.60529 0.23926 0.30325 0.0
H901 H 0.66685 0.22785 0.24475 0.0
H902 H 0.6442 0.17737 0.23985 0.0
H903 H 0.50035 0.07233 0.17921 0.0
H904 H 0.5183 0.08819 0.22277 0.0
H905 H 0.60351 0.11373 0.19186 0.0
H906 H 0.58559 0.09851 0.14802 0.0
H907 H 0.59108 0.15319 0.22461 0.0
H908 H 0.58349 0.05112 0.22722 0.0
H909 H 0.55829 0.00144 0.2224 0.0
H910 H 0.49744 0.01563 0.28059 0.0
H911 H 0.52201 0.0655 0.28549 0.0
C912 C 0.64477 0.15918 0.3436 0.0
C913 C 0.62663 0.15507 0.36549 0.0
C914 C 0.63412 0.15121 0.31848 0.0
C915 C 0.605 0.13929 0.31457 0.0
C916 C 0.58683 0.13524 0.33634 0.0
C917 C 0.59749 0.14303 0.3615 0.0
C918 C 0.59364 0.13039 0.2879 0.0
C919 C 0.57897 0.10236 0.28414 0.0
C920 C 0.59796 0.14895 0.26613 0.0
C921 C 0.61158 0.17932 0.26897 0.0
C922 C 0.60067 0.19714 0.28675 0.0
C923 C 0.61372 0.22568 0.28947 0.0
C924 C 0.63758 0.23672 0.27437 0.0
C925 C 0.64839 0.21925 0.25646 0.0
C926 C 0.63544 0.19068 0.25369 0.0
C927 C 0.52294 0.08128 0.18162 0.0
C928 C 0.54154 0.084 0.16006 0.0
C929 C 0.5332 0.09025 0.20662 0.0
C930 C 0.56237 0.10176 0.21073 0.0
C931 C 0.58093 0.10484 0.18921 0.0
C932 C 0.57065 0.09605 0.16414 0.0
C933 C 0.5735 0.11076 0.23742 0.0
C934 C 0.58814 0.1388 0.24117 0.0
C935 C 0.56896 0.09226 0.25923 0.0
C936 C 0.55445 0.06213 0.25655 0.0
C937 C 0.56463 0.04369 0.23888 0.0
C938 C 0.55047 0.01549 0.23614 0.0
C939 C 0.52623 0.00541 0.25113 0.0
C940 C 0.51619 0.02348 0.26897 0.0
C941 C 0.53024 0.0517 0.27175 0.0
H942 H 0.51523 0.98362 0.24896 0.0
H943 H 0.64765 0.25883 0.2765 0.0
H944 H 0.4348 0.55626 0.26889 0.0
H945 H 0.44625 0.55737 0.31571 0.0
H946 H 0.48098 0.64709 0.31088 0.0
H947 H 0.47045 0.64595 0.26378 0.0
H948 H 0.5143 0.62035 0.34139 0.0
H949 H 0.41466 0.62542 0.33477 0.0
H950 H 0.36447 0.61075 0.31979 0.0
H951 H 0.36027 0.53005 0.35779 0.0
H952 H 0.4106 0.54409 0.37267 0.0
H953 H 0.46333 0.61253 0.4882 0.0
H954 H 0.45552 0.62154 0.44174 0.0
H955 H 0.51989 0.57214 0.4211 0.0
H956 H 0.52832 0.5636 0.46731 0.0
H957 H 0.43623 0.58555 0.40388 0.0
H958 H 0.55275 0.59578 0.3655 0.0
H959 H 0.60225 0.61349 0.38113 0.0
H960 H 0.57142 0.67073 0.43424 0.0
H961 H 0.52179 0.65365 0.41871 0.0
C962 C 0.44528 0.57614 0.27768 0.0
C963 C 0.4516 0.60105 0.26263 0.0
C964 C 0.45155 0.5768 0.30449 0.0
C965 C 0.46406 0.60241 0.31683 0.0
C966 C 0.47117 0.62714 0.30176 0.0
C967 C 0.46494 0.62649 0.27491 0.0
C968 C 0.46923 0.60339 0.34554 0.0
C969 C 0.49725 0.61281 0.35508 0.0
C970 C 0.44683 0.59419 0.36342 0.0
C971 C 0.41648 0.58573 0.35466 0.0
C972 C 0.4031 0.60447 0.33978 0.0
C973 C 0.37461 0.59628 0.33133 0.0
C974 C 0.35921 0.56946 0.33779 0.0
C975 C 0.37224 0.55081 0.35278 0.0
C976 C 0.40074 0.55888 0.36125 0.0
C977 C 0.47604 0.60384 0.47379 0.0
C978 C 0.49647 0.58736 0.48151 0.0
C979 C 0.4715 0.60895 0.44724 0.0
C980 C 0.48731 0.59775 0.42795 0.0
C981 C 0.50782 0.58147 0.43563 0.0
C982 C 0.5125 0.57649 0.46212 0.0
C983 C 0.48147 0.60183 0.39974 0.0
C984 C 0.45329 0.5933 0.39025 0.0
C985 C 0.50364 0.61237 0.38199 0.0
C986 C 0.53351 0.62326 0.39106 0.0
C987 C 0.55655 0.61226 0.3804 0.0
C988 C 0.58463 0.62216 0.38928 0.0
C989 C 0.58997 0.64316 0.40872 0.0
C990 C 0.56725 0.6544 0.41925 0.0
C991 C 0.53913 0.64459 0.41044 0.0
H992 H 0.61171 0.65076 0.41559 0.0
H993 H 0.33715 0.56316 0.33123 0.0
H994 H 0.07126 0.48166 0.70561 0.0
H995 H 0.07856 0.49436 0.75159 0.0
H996 H 0.03378 0.56455 0.74051 0.0
H997 H 0.02883 0.55373 0.69382 0.0
H998 H 0.07512 0.58031 0.77286 0.0
H999 H 0.00135 0.49667 0.76622 0.0
H1000 H 0.98049 0.44743 0.7533 0.0
H1001 H 0.0454 0.41626 0.79821 0.0
H1002 H 0.06685 0.46537 0.81114 0.0
H1003 H 0.01724 0.59231 0.89866 0.0
H1004 H 0.02547 0.58306 0.85262 0.0
H1005 H 0.08589 0.52953 0.8748 0.0
H1006 H 0.07793 0.53885 0.92125 0.0
H1007 H 0.04291 0.50477 0.83813 0.0
H1008 H 0.11186 0.59081 0.84906 0.0
H1009 H 0.12858 0.64061 0.86278 0.0
H1010 H 0.0675 0.66792 0.81039 0.0
H1011 H 0.05011 0.61823 0.79662 0.0
C1012 C 0.0636 0.5003 0.71263 0.0
C1013 C 0.04931 0.51658 0.69576 0.0
C1014 C 0.06738 0.50723 0.73918 0.0
C1015 C 0.05609 0.52997 0.74974 0.0
C1016 C 0.04251 0.54675 0.73291 0.0
C1017 C 0.03933 0.54026 0.7062 0.0
C1018 C 0.05766 0.53585 0.77838 0.0
C1019 C 0.06786 0.5638 0.78708 0.0
C1020 C 0.0488 0.51423 0.79709 0.0
C1021 C 0.03588 0.4847 0.78939 0.0
C1022 C 0.01128 0.47932 0.77318 0.0
C1023 C 0.99934 0.45144 0.76588 0.0
C1024 C 0.01166 0.42874 0.77486 0.0
C1025 C 0.03591 0.43387 0.79123 0.0
C1026 C 0.04796 0.46172 0.79856 0.0
C1027 C 0.03241 0.57866 0.89383 0.0
C1028 C 0.04687 0.56621 0.91362 0.0
C1029 C 0.03721 0.57356 0.86749 0.0
C1030 C 0.05644 0.55582 0.86037 0.0
C1031 C 0.07106 0.54341 0.87999 0.0
C1032 C 0.06653 0.54878 0.90645 0.0
C1033 C 0.05986 0.54919 0.83239 0.0
C1034 C 0.05055 0.52112 0.82386 0.0
C1035 C 0.06896 0.57078 0.81385 0.0
C1036 C 0.07956 0.60074 0.82193 0.0
C1037 C 0.10185 0.60741 0.8406 0.0
C1038 C 0.11147 0.63563 0.84836 0.0
C1039 C 0.09908 0.65741 0.8375 0.0
C1040 C 0.07708 0.65103 0.81879 0.0
C1041 C 0.06736 0.62284 0.81097 0.0
H1042 H 0.10656 0.67925 0.84354 0.0
H1043 H 0.00239 0.40717 0.76918 0.0
H1044 H 0.74055 0.89712 0.94246 0.0
H1045 H 0.71447 0.9232 0.97234 0.0
H1046 H 0.765 0.00248 0.94666 0.0
H1047 H 0.7913 0.9763 0.91669 0.0
H1048 H 0.72609 0.96369 0.01305 0.0
H1049 H 0.71489 0.04615 0.93475 0.0
H1050 H 0.71989 0.05287 0.88693 0.0
H1051 H 0.69642 0.96264 0.87485 0.0
H1052 H 0.69088 0.95548 0.92252 0.0
H1053 H 0.62748 0.05332 0.05988 0.0
H1054 H 0.67093 0.0403 0.04085 0.0
H1055 H 0.61833 0.98401 0.98627 0.0
H1056 H 0.5752 0.99648 0.00512 0.0
H1057 H 0.66494 0.01905 0.96269 0.0
H1058 H 0.64344 0.95657 0.03788 0.0
H1059 H 0.63586 0.94671 0.08497 0.0
H1060 H 0.72073 0.99232 0.10245 0.0
H1061 H 0.72864 0.00277 0.05545 0.0
C1062 C 0.74659 0.92007 0.94374 0.0
C1063 C 0.76773 0.93476 0.92719 0.0
C1064 C 0.73181 0.93493 0.9609 0.0
C1065 C 0.73762 0.96477 0.96155 0.0
C1066 C 0.76016 0.97944 0.94639 0.0
C1067 C 0.7752 0.9645 0.92937 0.0
C1068 C 0.71736 0.98012 0.97512 0.0
C1069 C 0.71308 0.97625 0.00216 0.0
C1070 C 0.70014 0.99624 0.96088 0.0
C1071 C 0.70287 1.00029 0.93217 0.0
C1072 C 0.71074 0.02778 0.92185 0.0
C1073 C 0.71365 0.03166 0.89479 0.0
C1074 C 0.70859 0.00819 0.87787 0.0
C1075 C 0.70045 0.9808 0.88797 0.0
C1076 C 0.69743 0.97682 0.915 0.0
C1077 C 0.62525 0.03822 0.04379 0.0
C1078 C 0.59787 0.02586 0.0341 0.0
C1079 C 0.65004 0.0308 0.03299 0.0
C1080 C 0.64779 0.01123 0.01214 0.0
C1081 C 0.62054 0.99924 0.00226 0.0
C1082 C 0.59588 0.0063 0.01321 0.0
C1083 C 0.67347 0.00245 1.00058 0.0
C1084 C 0.67864 0.00741 0.97382 0.0
C1085 C 0.69123 0.98711 0.01505 0.0
C1086 C 0.68649 0.98076 0.04323 0.0
C1087 C 0.66037 0.96471 0.0518 0.0
C1088 C 0.65604 0.95897 0.07846 0.0
C1089 C 0.67776 0.96897 0.0967 0.0
C1090 C 0.7039 0.98465 0.08831 0.0
C1091 C 0.70832 0.99048 0.06167 0.0
H1092 H 0.67437 0.96449 0.11733 0.0
H1093 H 0.71091 0.01124 0.85693 0.0
H1094 H 0.68992 0.13884 0.47286 0.0
H1095 H 0.73501 0.12436 0.48543 0.0
H1096 H 0.76957 0.14808 0.40922 0.0
H1097 H 0.72512 0.16413 0.39678 0.0
H1098 H 0.77569 0.09141 0.4275 0.0
H1099 H 0.79367 0.18964 0.45544 0.0
H1100 H 0.78267 0.2314 0.47905 0.0
H1101 H 0.78317 0.18712 0.55213 0.0
H1102 H 0.79375 0.14491 0.52889 0.0
H1103 H 0.92013 0.07729 0.45258 0.0
H1104 H 0.87594 0.09327 0.43936 0.0
H1105 H 0.85003 0.09316 0.52024 0.0
H1106 H 0.89475 0.07834 0.53365 0.0
H1107 H 0.83903 0.13826 0.49898 0.0
H1108 H 0.81952 0.04029 0.47363 0.0
H1109 H 0.82804 0.99645 0.4519 0.0
H1110 H 0.82729 0.03666 0.37679 0.0
H1111 H 0.81913 0.08088 0.39811 0.0
C1112 C 0.70723 0.14164 0.45887 0.0
C1113 C 0.7037 0.15286 0.43376 0.0
C1114 C 0.73294 0.13306 0.46606 0.0
C1115 C 0.75559 0.13515 0.44825 0.0
C1116 C 0.75226 0.14617 0.42319 0.0
C1117 C 0.72672 0.1552 0.4161 0.0
C1118 C 0.78265 0.12553 0.45575 0.0
C1119 C 0.78982 0.10184 0.44287 0.0
C1120 C 0.80046 0.13861 0.47638 0.0
C1121 C 0.7942 0.16401 0.49039 0.0
C1122 C 0.79117 0.18871 0.47651 0.0
C1123 C 0.78507 0.21248 0.48984 0.0
C1124 C 0.78214 0.21189 0.51707 0.0
C1125 C 0.7854 0.18754 0.53104 0.0
C1126 C 0.79147 0.16369 0.5178 0.0
C1127 C 0.90493 0.08048 0.46754 0.0
C1128 C 0.91096 0.07644 0.49418 0.0
C1129 C 0.87956 0.08952 0.45994 0.0
C1130 C 0.8593 0.09407 0.47873 0.0
C1131 C 0.86524 0.08986 0.50532 0.0
C1132 C 0.89081 0.08127 0.51297 0.0
C1133 C 0.8323 0.10391 0.47079 0.0
C1134 C 0.82504 0.12769 0.48359 0.0
C1135 C 0.8141 0.09055 0.4504 0.0
C1136 C 0.81901 0.06399 0.4375 0.0
C1137 C 0.82139 0.03986 0.4525 0.0
C1138 C 0.82612 0.01493 0.44025 0.0
C1139 C 0.82829 0.0138 0.41299 0.0
C1140 C 0.82565 0.03758 0.39791 0.0
C1141 C 0.82095 0.06257 0.41006 0.0
H1142 H 0.83194 0.99448 0.40355 0.0
H1143 H 0.77743 0.23032 0.52735 0.0
H1144 H 0.35251 0.62437 0.12307 0.0
H1145 H 0.30714 0.61715 0.09806 0.0
H1146 H 0.27472 0.67533 0.14971 0.0
H1147 H 0.31992 0.68263 0.17466 0.0
H1148 H 0.23477 0.6259 0.1387 0.0
H1149 H 0.29698 0.70015 0.09245 0.0
H1150 H 0.34123 0.72214 0.06999 0.0
H1151 H 0.32974 0.65342 0.01426 0.0
H1152 H 0.28517 0.63108 0.03635 0.0
H1153 H 0.11675 0.65456 0.06597 0.0
H1154 H 0.16379 0.66297 0.08764 0.0
H1155 H 0.19387 0.60628 0.03289 0.0
H1156 H 0.14698 0.59781 0.01095 0.0
H1157 H 0.23529 0.65351 0.04492 0.0
H1158 H 0.17068 0.5809 0.08993 0.0
H1159 H 0.12568 0.56024 0.11203 0.0
H1160 H 0.14189 0.62579 0.17086 0.0
H1161 H 0.1868 0.64711 0.14886 0.0
C1162 C 0.33552 0.63529 0.12921 0.0
C1163 C 0.33964 0.65411 0.15068 0.0
C1164 C 0.30977 0.63133 0.11486 0.0
C1165 C 0.28775 0.64593 0.12195 0.0
C1166 C 0.2915 0.66395 0.14392 0.0
C1167 C 0.3173 0.66816 0.15806 0.0
C1168 C 0.26097 0.64295 0.1062 0.0
C1169 C 0.23482 0.63218 0.11828 0.0
C1170 C 0.26119 0.65064 0.07945 0.0
C1171 C 0.28798 0.66381 0.0662 0.0
C1172 C 0.30402 0.68962 0.07553 0.0
C1173 C 0.32913 0.70218 0.06284 0.0
C1174 C 0.33846 0.68909 0.04083 0.0
C1175 C 0.32254 0.6635 0.03135 0.0
C1176 C 0.2973 0.65093 0.04389 0.0
C1177 C 0.1335 0.6443 0.05817 0.0
C1178 C 0.12798 0.62523 0.03691 0.0
C1179 C 0.16033 0.64902 0.07068 0.0
C1180 C 0.18205 0.6348 0.06214 0.0
C1181 C 0.17728 0.6173 0.03986 0.0
C1182 C 0.15044 0.61247 0.02739 0.0
C1183 C 0.20902 0.63668 0.07748 0.0
C1184 C 0.23522 0.64713 0.06532 0.0
C1185 C 0.20883 0.62866 0.10419 0.0
C1186 C 0.18196 0.61577 0.1176 0.0
C1187 C 0.16454 0.59104 0.10747 0.0
C1188 C 0.13906 0.57919 0.11999 0.0
C1189 C 0.13089 0.59174 0.1428 0.0
C1190 C 0.14823 0.61612 0.15317 0.0
C1191 C 0.17371 0.62808 0.14069 0.0
H1192 H 0.11116 0.58254 0.15247 0.0
H1193 H 0.35794 0.69884 0.03107 0.0
H1194 H 0.16561 0.42961 0.62228 0.0
H1195 H 0.21779 0.44341 0.62022 0.0
H1196 H 0.20859 0.52543 0.58966 0.0
H1197 H 0.15616 0.51145 0.59114 0.0
H1198 H 0.24541 0.50027 0.56089 0.0
H1199 H 0.23173 0.51956 0.65178 0.0
H1200 H 0.21366 0.50861 0.69644 0.0
H1201 H 0.26143 0.44047 0.70165 0.0
H1202 H 0.27948 0.45075 0.65686 0.0
H1203 H 0.39059 0.56644 0.56999 0.0
H1204 H 0.33885 0.55339 0.57506 0.0
H1205 H 0.34923 0.47323 0.60901 0.0
H1206 H 0.40142 0.48643 0.60455 0.0
H1207 H 0.31174 0.49712 0.63632 0.0
H1208 H 0.32495 0.47688 0.54579 0.0
H1209 H 0.34277 0.48676 0.50089 0.0
H1210 H 0.29554 0.55523 0.49463 0.0
H1211 H 0.27774 0.546 0.53964 0.0
C1212 C 0.17471 0.45061 0.61515 0.0
C1213 C 0.15685 0.46942 0.60668 0.0
C1214 C 0.20451 0.45855 0.61421 0.0
C1215 C 0.21704 0.48549 0.60493 0.0
C1216 C 0.1993 0.50454 0.59692 0.0
C1217 C 0.16942 0.49663 0.59793 0.0
C1218 C 0.24861 0.49317 0.60239 0.0
C1219 C 0.25993 0.50005 0.57745 0.0
C1220 C 0.26748 0.49191 0.62387 0.0
C1221 C 0.25676 0.48577 0.65087 0.0
C1222 C 0.23821 0.50209 0.66237 0.0
C1223 C 0.228 0.49603 0.68772 0.0
C1224 C 0.23633 0.47382 0.70185 0.0
C1225 C 0.25496 0.45766 0.69067 0.0
C1226 C 0.26522 0.46361 0.66532 0.0
C1227 C 0.38197 0.54594 0.57844 0.0
C1228 C 0.4002 0.5274 0.58675 0.0
C1229 C 0.35232 0.53849 0.58124 0.0
C1230 C 0.34014 0.51218 0.59207 0.0
C1231 C 0.35821 0.49363 0.60054 0.0
C1232 C 0.388 0.50116 0.59789 0.0
C1233 C 0.30856 0.50436 0.59482 0.0
C1234 C 0.29723 0.49738 0.61976 0.0
C1235 C 0.28964 0.50537 0.57331 0.0
C1236 C 0.30022 0.5109 0.54618 0.0
C1237 C 0.31854 0.49418 0.53491 0.0
C1238 C 0.3286 0.49964 0.50943 0.0
C1239 C 0.32035 0.52165 0.49494 0.0
C1240 C 0.30194 0.5382 0.50589 0.0
C1241 C 0.29183 0.53285 0.53137 0.0
H1242 H 0.32817 0.52585 0.47522 0.0
H1243 H 0.2284 0.46916 0.72147 0.0
H1244 H 0.94999 0.8916 0.89228 0.0
H1245 H 0.97373 0.85506 0.91175 0.0
H1246 H 0.89113 0.80288 0.9262 0.0
H1247 H 0.8674 0.8381 0.90532 0.0
H1248 H 0.97525 0.82956 0.95752 0.0
H1249 H 0.89261 0.7345 0.91604 0.0
H1250 H 0.85991 0.72351 0.87794 0.0
H1251 H 0.91303 0.78818 0.83316 0.0
H1252 H 0.94623 0.79927 0.87084 0.0
H1253 H 0.99569 0.69999 0.01888 0.0
H1254 H 0.97958 0.74262 0.00221 0.0
H1255 H 0.99519 0.71745 0.92304 0.0
H1256 H 0.00939 0.67415 0.9396 0.0
H1257 H 0.94764 0.73143 0.92243 0.0
H1258 H 0.03784 0.77711 0.95846 0.0
H1259 H 0.07564 0.78961 0.99229 0.0
H1260 H 0.01737 0.8258 0.04031 0.0
H1261 H 0.97911 0.8132 0.00691 0.0
C1262 C 0.93685 0.87228 0.89945 0.0
C1263 C 0.9067 0.86786 0.89694 0.0
C1264 C 0.95048 0.85153 0.91087 0.0
C1265 C 0.93426 0.82597 0.92007 0.0
C1266 C 0.90418 0.82217 0.91882 0.0
C1267 C 0.89058 0.84264 0.90714 0.0
C1268 C 0.94858 0.80259 0.9297 0.0
C1269 C 0.96929 0.80809 0.94986 0.0
C1270 C 0.94141 0.77469 0.91926 0.0
C1271 C 0.92174 0.76789 0.89636 0.0
C1272 C 0.89736 0.74629 0.89803 0.0
C1273 C 0.87874 0.74006 0.87651 0.0
C1274 C 0.88434 0.7552 0.85318 0.0
C1275 C 0.90865 0.77654 0.85127 0.0
C1276 C 0.92737 0.78282 0.87271 0.0
C1277 C 0.996 0.70386 0.99796 0.0
C1278 C 0.00365 0.68377 0.98051 0.0
C1279 C 0.98693 0.72831 0.98841 0.0
C1280 C 0.98625 0.73354 0.96127 0.0
C1281 C 0.99518 0.71395 0.94401 0.0
C1282 C 0.00343 0.68922 0.95349 0.0
C1283 C 0.97437 0.75813 0.95053 0.0
C1284 C 0.95388 0.75285 0.93015 0.0
C1285 C 0.98258 0.78634 0.96017 0.0
C1286 C 0.00554 0.79397 0.98028 0.0
C1287 C 0.03303 0.78755 0.97632 0.0
C1288 C 0.05455 0.79469 0.9954 0.0
C1289 C 0.04889 0.80843 0.01846 0.0
C1290 C 0.02172 0.81513 0.02245 0.0
C1291 C 1.00012 0.80802 0.00344 0.0
H1292 H 0.06558 0.81393 0.03321 0.0
H1293 H 0.86988 0.75036 0.83656 0.0
H1294 H 0.38324 0.74167 0.19406 0.0
H1295 H 0.40365 0.79165 0.18642 0.0
H1296 H 0.4845 0.7685 0.16592 0.0
H1297 H 0.46398 0.71822 0.1726 0.0
H1298 H 0.47509 0.83037 0.19948 0.0
H1299 H 0.47005 0.77465 0.11568 0.0
H1300 H 0.44504 0.73469 0.08857 0.0
H1301 H 0.36631 0.76689 0.09479 0.0
H1302 H 0.39091 0.80688 0.12217 0.0
H1303 H 0.49943 0.93066 0.07703 0.0
H1304 H 0.49332 0.88396 0.0974 0.0
H1305 H 0.45051 0.91509 0.16271 0.0
H1306 H 0.457 0.96224 0.14266 0.0
H1307 H 0.44631 0.84823 0.108 0.0
H1308 H 0.46349 0.8788 0.21836 0.0
H1309 H 0.49207 0.91657 0.24563 0.0
H1310 H 0.55461 0.93436 0.18473 0.0
H1311 H 0.52664 0.89649 0.15724 0.0
C1312 C 0.40556 0.74725 0.18846 0.0
C1313 C 0.42184 0.72599 0.1834 0.0
C1314 C 0.41725 0.77581 0.18443 0.0
C1315 C 0.44548 0.78358 0.17563 0.0
C1316 C 0.46271 0.76278 0.17297 0.0
C1317 C 0.45094 0.73409 0.17678 0.0
C1318 C 0.45451 0.81197 0.16411 0.0
C1319 C 0.46898 0.83447 0.1795 0.0
C1320 C 0.44689 0.81693 0.13797 0.0
C1321 C 0.43221 0.79355 0.12097 0.0
C1322 C 0.44739 0.77311 0.11127 0.0
C1323 C 0.43331 0.75049 0.0959 0.0
C1324 C 0.4041 0.74822 0.08999 0.0
C1325 C 0.38893 0.76865 0.09939 0.0
C1326 C 0.40293 0.79131 0.11481 0.0
C1327 C 0.48872 0.92768 0.09575 0.0
C1328 C 0.47863 0.95022 0.10818 0.0
C1329 C 0.48529 0.90093 0.10738 0.0
C1330 C 0.47173 0.8961 0.13168 0.0
C1331 C 0.4615 0.91848 0.14415 0.0
C1332 C 0.46502 0.94535 0.13255 0.0
C1333 C 0.46713 0.86725 0.14325 0.0
C1334 C 0.45296 0.84448 0.12791 0.0
C1335 C 0.47583 0.86213 0.16922 0.0
C1336 C 0.49279 0.88497 0.18565 0.0
C1337 C 0.48337 0.89072 0.21082 0.0
C1338 C 0.49947 0.91216 0.22631 0.0
C1339 C 0.52511 0.92788 0.21689 0.0
C1340 C 0.5347 0.92223 0.19196 0.0
C1341 C 0.51871 0.90082 0.1764 0.0
H1342 H 0.53763 0.94435 0.22895 0.0
H1343 H 0.3933 0.73067 0.07809 0.0
H1344 H 0.04209 0.38464 0.61945 0.0
H1345 H 0.02904 0.33369 0.61006 0.0
H1346 H 0.08736 0.3431 0.54499 0.0
H1347 H 0.09994 0.3942 0.55369 0.0
H1348 H 0.00917 0.29955 0.56328 0.0
H1349 H 0.12783 0.29035 0.55419 0.0
H1350 H 0.17547 0.31656 0.56797 0.0
H1351 H 0.13826 0.34801 0.63595 0.0
H1352 H 0.09054 0.32158 0.62283 0.0
H1353 H 0.07165 0.16367 0.5309 0.0
H1354 H 0.07852 0.21492 0.5383 0.0
H1355 H 0.00584 0.20296 0.59011 0.0
H1356 H 0.99825 0.15171 0.58215 0.0
H1357 H 0.09021 0.24837 0.57877 0.0
H1358 H 0.97001 0.25802 0.58462 0.0
H1359 H 0.92297 0.23324 0.56793 0.0
H1360 H 0.96397 0.20175 0.50218 0.0
H1361 H 0.01117 0.22665 0.51828 0.0
C1362 C 0.05147 0.37606 0.60263 0.0
C1363 C 0.07232 0.39338 0.58749 0.0
C1364 C 0.04404 0.34694 0.59737 0.0
C1365 C 0.05756 0.33474 0.5771 0.0
C1366 C 0.07697 0.3522 0.56091 0.0
C1367 C 0.08423 0.38131 0.56601 0.0
C1368 C 0.05365 0.30352 0.57449 0.0
C1369 C 0.02671 0.28821 0.56695 0.0
C1370 C 0.07682 0.28904 0.57876 0.0
C1371 C 0.10558 0.30423 0.58736 0.0
C1372 C 0.12986 0.30272 0.57216 0.0
C1373 C 0.15687 0.31763 0.57985 0.0
C1374 C 0.15987 0.33402 0.60277 0.0
C1375 C 0.1359 0.33539 0.61815 0.0
C1376 C 0.10886 0.32046 0.61059 0.0
C1377 C 0.05726 0.17189 0.54406 0.0
C1378 C 0.03425 0.15364 0.55577 0.0
C1379 C 0.06121 0.20121 0.54826 0.0
C1380 C 0.04236 0.21282 0.56434 0.0
C1381 C 0.02022 0.19453 0.57709 0.0
C1382 C 0.01603 0.16522 0.57266 0.0
C1383 C 0.04564 0.2441 0.56738 0.0
C1384 C 0.07254 0.25952 0.57509 0.0
C1385 C 0.02249 0.25869 0.5629 0.0
C1386 C 0.99415 0.24394 0.55284 0.0
C1387 C 0.96897 0.24589 0.56656 0.0
C1388 C 0.94228 0.23181 0.5572 0.0
C1389 C 0.9405 0.21584 0.53406 0.0
C1390 C 0.96539 0.21402 0.52016 0.0
C1391 C 0.99211 0.22809 0.52941 0.0
H1392 H 0.91982 0.20493 0.52687 0.0
H1393 H 0.18078 0.34562 0.60865 0.0
H1394 H 0.58533 0.24011 0.53257 0.0
H1395 H 0.57342 0.2861 0.54422 0.0
H1396 H 0.57592 0.30995 0.46273 0.0
H1397 H 0.58722 0.26343 0.45073 0.0
H1398 H 0.60216 0.35438 0.49766 0.0
H1399 H 0.51335 0.28791 0.48786 0.0
H1400 H 0.47997 0.24291 0.4959 0.0
H1401 H 0.48033 0.2624 0.57813 0.0
H1402 H 0.51409 0.30734 0.57063 0.0
H1403 H 0.53114 0.47083 0.51047 0.0
H1404 H 0.54367 0.42566 0.49716 0.0
H1405 H 0.52806 0.39355 0.57564 0.0
H1406 H 0.51451 0.43866 0.58895 0.0
H1407 H 0.50878 0.3532 0.54148 0.0
H1408 H 0.59735 0.41882 0.55252 0.0
H1409 H 0.63124 0.46379 0.54576 0.0
H1410 H 0.63268 0.44613 0.46327 0.0
H1411 H 0.59846 0.4012 0.46948 0.0
C1412 C 0.58331 0.25505 0.51705 0.0
C1413 C 0.58675 0.24782 0.49064 0.0
C1414 C 0.57662 0.28141 0.52378 0.0
C1415 C 0.57334 0.30127 0.50432 0.0
C1416 C 0.57827 0.29486 0.47805 0.0
C1417 C 0.58483 0.26831 0.47124 0.0
C1418 C 0.56349 0.32807 0.51149 0.0
C1419 C 0.58159 0.3542 0.5069 0.0
C1420 C 0.53696 0.32775 0.52418 0.0
C1421 C 0.51646 0.30086 0.52871 0.0
C1422 C 0.50649 0.28249 0.50769 0.0
C1423 C 0.48747 0.25702 0.51214 0.0
C1424 C 0.47809 0.24977 0.53752 0.0
C1425 C 0.48765 0.26803 0.55849 0.0
C1426 C 0.50671 0.29352 0.55414 0.0
C1427 C 0.53017 0.45412 0.52491 0.0
C1428 C 0.52205 0.45845 0.55087 0.0
C1429 C 0.53753 0.42831 0.51728 0.0
C1430 C 0.53757 0.40639 0.53552 0.0
C1431 C 0.52842 0.41021 0.56123 0.0
C1432 C 0.52065 0.43599 0.56883 0.0
C1433 C 0.54747 0.37969 0.52777 0.0
C1434 C 0.52938 0.3535 0.53224 0.0
C1435 C 0.57414 0.37999 0.51519 0.0
C1436 C 0.59514 0.40675 0.51144 0.0
C1437 C 0.60477 0.42459 0.53291 0.0
C1438 C 0.62405 0.45007 0.52919 0.0
C1439 C 0.63406 0.45785 0.5041 0.0
C1440 C 0.62489 0.44009 0.48269 0.0
C1441 C 0.60558 0.41459 0.48631 0.0
H1442 H 0.64896 0.47759 0.50126 0.0
H1443 H 0.46336 0.23004 0.54094 0.0
loop_
_geom_bond_atom_site_label_1
_geom_bond_atom_site_label_2
_geom_bond_distance
_geom_bond_site_symmetry_2
_ccdc_geom_bond_type
H0 C1 0.949 . S
C1 H0 0.949 . S
C1 C2 1.395 . S
C1 C3 1.391 . S
C2 C1 1.395 . S
C2 C5 1.390 . S
C3 C1 1.391 . S
C3 C7 1.387 . S
C3 C8 1.491 . S
H4 C5 0.950 . S
C5 C2 1.390 . S
C5 H4 0.950 . S
C5 C6 1.378 . S
C6 C5 1.378 . S
C6 C7 1.409 . S
C7 C3 1.387 . S
C7 C6 1.409 . S
C7 H9 0.951 . S
C8 C3 1.491 . S
C8 C10 1.382 . S
C8 C12 1.404 . S
H9 C7 0.951 . S
C10 C8 1.382 . S
C10 C11 1.390 . S
C10 H15 0.949 . S
C11 C10 1.390 . S
C11 C16 1.399 . S
C12 C8 1.404 . S
C12 H13 0.950 . S
C12 C14 1.375 . S
H13 C12 0.950 . S
C14 C12 1.375 . S
C14 C16 1.382 . S
C14 H18 0.950 . S
H15 C10 0.949 . S
C16 C11 1.399 . S
C16 C14 1.382 . S
C16 H17 0.952 . S
H17 C16 0.952 . S
H18 C14 0.950 . S
H19 C20 0.949 . S
C20 H19 0.949 . S
C20 C21 1.395 . S
C20 C22 1.391 . S
C21 C20 1.395 . S
C21 C24 1.390 . S
C22 C20 1.391 . S
C22 C26 1.387 . S
C22 C27 1.491 . S
H23 C24 0.950 . S
C24 C21 1.390 . S
C24 H23 0.950 . S
C24 C25 1.378 . S
C25 C24 1.378 . S
C25 C26 1.409 . S
C26 C22 1.387 . S
C26 C25 1.409 . S
C26 H28 0.951 . S
C27 C22 1.491 . S
C27 C29 1.382 . S
C27 C31 1.404 . S
H28 C26 0.951 . S
C29 C27 1.382 . S
C29 C30 1.390 . S
C29 H34 0.949 . S
C30 C29 1.390 . S
C30 C35 1.399 . S
C31 C27 1.404 . S
C31 H32 0.950 . S
C31 C33 1.375 . S
H32 C31 0.950 . S
C33 C31 1.375 . S
C33 C35 1.382 . S
C33 H37 0.950 . S
H34 C29 0.949 . S
C35 C30 1.399 . S
C35 C33 1.382 . S
C35 H36 0.952 . S
H36 C35 0.952 . S
H37 C33 0.950 . S
H38 C39 0.949 . S
C39 H38 0.949 . S
C39 C40 1.395 . S
C39 C41 1.391 . S
C40 C39 1.395 . S
C40 C43 1.390 . S
C41 C39 1.391 . S
C41 C45 1.387 . S
C41 C46 1.491 . S
H42 C43 0.950 . S
C43 C40 1.390 . S
C43 H42 0.950 . S
C43 C44 1.378 . S
C44 C43 1.378 . S
C44 C45 1.409 . S
C45 C41 1.387 . S
C45 C44 1.409 . S
C45 H47 0.951 . S
C46 C41 1.491 . S
C46 C48 1.382 . S
C46 C50 1.404 . S
H47 C45 0.951 . S
C48 C46 1.382 . S
C48 C49 1.390 . S
C48 H53 0.949 . S
C49 C48 1.390 . S
C49 C54 1.399 . S
C50 C46 1.404 . S
C50 H51 0.950 . S
C50 C52 1.375 . S
H51 C50 0.950 . S
C52 C50 1.375 . S
C52 C54 1.382 . S
C52 H56 0.950 . S
H53 C48 0.949 . S
C54 C49 1.399 . S
C54 C52 1.382 . S
C54 H55 0.952 . S
H55 C54 0.952 . S
H56 C52 0.950 . S
H57 C58 0.949 . S
C58 H57 0.949 . S
C58 C59 1.395 . S
C58 C60 1.391 . S
C59 C58 1.395 . S
C59 C62 1.390 . S
C60 C58 1.391 . S
C60 C64 1.387 . S
C60 C65 1.491 . S
H61 C62 0.950 . S
C62 C59 1.390 . S
C62 H61 0.950 . S
C62 C63 1.378 . S
C63 C62 1.378 . S
C63 C64 1.409 . S
C64 C60 1.387 . S
C64 C63 1.409 . S
C64 H66 0.951 . S
C65 C60 1.491 . S
C65 C67 1.382 . S
C65 C69 1.404 . S
H66 C64 0.951 . S
C67 C65 1.382 . S
C67 C68 1.390 . S
C67 H72 0.949 . S
C68 C67 1.390 . S
C68 C73 1.399 . S
C69 C65 1.404 . S
C69 H70 0.950 . S
C69 C71 1.375 . S
H70 C69 0.950 . S
C71 C69 1.375 . S
C71 C73 1.382 . S
C71 H75 0.950 . S
H72 C67 0.949 . S
C73 C68 1.399 . S
C73 C71 1.382 . S
C73 H74 0.952 . S
H74 C73 0.952 . S
H75 C71 0.950 . S
H76 C77 0.949 . S
C77 H76 0.949 . S
C77 C78 1.395 . S
C77 C79 1.391 . S
C78 C77 1.395 . S
C78 C81 1.390 . S
C79 C77 1.391 . S
C79 C83 1.387 1_565 S
C79 C84 1.491 1_565 S
H80 C81 0.950 . S
C81 C78 1.390 . S
C81 H80 0.950 . S
C81 C82 1.378 . S
C82 C81 1.378 . S
C82 C83 1.409 1_565 S
C83 C79 1.387 1_545 S
C83 C82 1.409 1_545 S
C83 H85 0.951 . S
C84 C79 1.491 1_545 S
C84 C86 1.382 . S
C84 C88 1.404 . S
H85 C83 0.951 . S
C86 C84 1.382 . S
C86 C87 1.390 . S
C86 H91 0.949 . S
C87 C86 1.390 . S
C87 C92 1.399 . S
C88 C84 1.404 . S
C88 H89 0.950 . S
C88 C90 1.375 . S
H89 C88 0.950 . S
C90 C88 1.375 . S
C90 C92 1.382 . S
C90 H94 0.950 . S
H91 C86 0.949 . S
C92 C87 1.399 . S
C92 C90 1.382 . S
C92 H93 0.952 . S
H93 C92 0.952 . S
H94 C90 0.950 . S
H95 C96 0.949 . S
C96 H95 0.949 . S
C96 C97 1.395 . S
C96 C98 1.391 . S
C97 C96 1.395 . S
C97 C100 1.390 . S
C98 C96 1.391 . S
C98 C102 1.387 . S
C98 C103 1.491 . S
H99 C100 0.950 . S
C100 C97 1.390 . S
C100 H99 0.950 . S
C100 C101 1.378 . S
C101 C100 1.378 . S
C101 C102 1.409 . S
C102 C98 1.387 . S
C102 C101 1.409 . S
C102 H104 0.951 . S
C103 C98 1.491 . S
C103 C105 1.382 . S
C103 C107 1.404 . S
H104 C102 0.951 . S
C105 C103 1.382 . S
C105 C106 1.390 . S
C105 H110 0.949 . S
C106 C105 1.390 . S
C106 C111 1.399 . S
C107 C103 1.404 . S
C107 H108 0.950 . S
C107 C109 1.375 . S
H108 C107 0.950 . S
C109 C107 1.375 . S
C109 C111 1.382 . S
C109 H113 0.950 . S
H110 C105 0.949 . S
C111 C106 1.399 . S
C111 C109 1.382 . S
C111 H112 0.952 . S
H112 C111 0.952 . S
H113 C109 0.950 . S
H114 C115 0.949 . S
C115 H114 0.949 . S
C115 C116 1.395 . S
C115 C117 1.391 . S
C116 C115 1.395 . S
C116 C119 1.390 . S
C117 C115 1.391 . S
C117 C121 1.387 . S
C117 C122 1.491 . S
H118 C119 0.950 . S
C119 C116 1.390 . S
C119 H118 0.950 . S
C119 C120 1.378 . S
C120 C119 1.378 . S
C120 C121 1.409 . S
C121 C117 1.387 . S
C121 C120 1.409 . S
C121 H123 0.951 . S
C122 C117 1.491 . S
C122 C124 1.382 . S
C122 C126 1.404 . S
H123 C121 0.951 . S
C124 C122 1.382 . S
C124 C125 1.390 . S
C124 H129 0.949 . S
C125 C124 1.390 . S
C125 C130 1.399 . S
C126 C122 1.404 . S
C126 H127 0.950 . S
C126 C128 1.375 . S
H127 C126 0.950 . S
C128 C126 1.375 . S
C128 C130 1.382 . S
C128 H132 0.950 . S
H129 C124 0.949 . S
C130 C125 1.399 . S
C130 C128 1.382 . S
C130 H131 0.952 . S
H131 C130 0.952 . S
H132 C128 0.950 . S
H133 C134 0.949 . S
C134 H133 0.949 . S
C134 C135 1.395 . S
C134 C136 1.391 . S
C135 C134 1.395 . S
C135 C138 1.390 . S
C136 C134 1.391 . S
C136 C140 1.387 . S
C136 C141 1.491 . S
H137 C138 0.950 . S
C138 C135 1.390 . S
C138 H137 0.950 . S
C138 C139 1.378 . S
C139 C138 1.378 . S
C139 C140 1.409 . S
C140 C136 1.387 . S
C140 C139 1.409 . S
C140 H142 0.951 . S
C141 C136 1.491 . S
C141 C143 1.382 . S
C141 C145 1.404 . S
H142 C140 0.951 . S
C143 C141 1.382 . S
C143 C144 1.390 . S
C143 H148 0.949 . S
C144 C143 1.390 . S
C144 C149 1.399 . S
C145 C141 1.404 . S
C145 H146 0.950 . S
C145 C147 1.375 . S
H146 C145 0.950 . S
C147 C145 1.375 . S
C147 C149 1.382 . S
C147 H151 0.950 . S
H148 C143 0.949 . S
C149 C144 1.399 . S
C149 C147 1.382 . S
C149 H150 0.952 . S
H150 C149 0.952 . S
H151 C147 0.950 . S
O152 Zn153 1.943 1_455 S
O152 C168 1.257 . S
Zn153 O152 1.943 1_655 S
Zn153 O154 1.949 1_655 S
Zn153 O160 1.919 . S
Zn153 O165 1.924 . S
O154 Zn153 1.949 1_455 S
O154 Zn155 1.923 1_455 S
O154 Zn156 1.950 . S
O154 Zn157 1.945 . S
Zn155 O154 1.923 1_655 S
Zn155 O158 1.933 1_545 S
Zn155 O161 1.941 . S
Zn155 O162 1.965 1_655 S
Zn156 O154 1.950 . S
Zn156 O163 1.938 . S
Zn156 O164 1.906 . S
Zn156 O174 1.953 . S
Zn157 O154 1.945 . S
Zn157 O159 1.932 1_445 S
Zn157 O166 1.977 . S
Zn157 O167 1.910 1_455 S
O158 Zn155 1.933 1_565 S
O158 C169 1.226 . S
O159 Zn157 1.932 1_665 S
O159 C169 1.307 . S
O160 Zn153 1.919 . S
O160 C171 1.253 . S
O161 Zn155 1.941 . S
O161 C171 1.283 . S
O162 Zn155 1.965 1_455 S
O162 C170 1.303 . S
O163 Zn156 1.938 . S
O163 C170 1.247 . S
O164 Zn156 1.906 . S
O164 C172 1.304 . S
O165 Zn153 1.924 . S
O165 C173 1.311 . S
O166 Zn157 1.977 . S
O166 C172 1.272 . S
O167 Zn157 1.910 1_655 S
O167 C173 1.231 . S
C168 O152 1.257 . S
C168 O174 1.298 . S
C169 O158 1.226 . S
C169 O159 1.307 . S
C170 O162 1.303 . S
C170 O163 1.247 . S
C171 O160 1.253 . S
C171 O161 1.283 . S
C172 O164 1.304 . S
C172 O166 1.272 . S
C173 O165 1.311 . S
C173 O167 1.231 . S
O174 Zn156 1.953 . S
O174 C168 1.298 . S
O175 Zn176 1.953 . S
O175 C191 1.225 . S
Zn176 O175 1.953 . S
Zn176 O177 1.949 . S
Zn176 O183 1.919 . S
Zn176 O188 1.924 . S
O177 Zn176 1.949 . S
O177 Zn178 1.923 . S
O177 Zn179 1.950 . S
O177 Zn180 1.945 . S
Zn178 O177 1.923 . S
Zn178 O181 1.933 1_545 S
Zn178 O184 1.941 . S
Zn178 O185 1.965 . S
Zn179 O177 1.950 . S
Zn179 O186 1.938 . S
Zn179 O187 1.906 . S
Zn179 O197 1.953 . S
Zn180 O177 1.945 . S
Zn180 O182 1.932 1_545 S
Zn180 O189 1.977 . S
Zn180 O190 1.910 . S
O181 Zn178 1.933 1_565 S
O181 C192 1.226 . S
O182 Zn180 1.932 1_565 S
O182 C192 1.307 . S
O183 Zn176 1.919 . S
O183 C194 1.253 . S
O184 Zn178 1.941 . S
O184 C194 1.283 . S
O185 Zn178 1.965 . S
O185 C193 1.303 . S
O186 Zn179 1.938 . S
O186 C193 1.247 . S
O187 Zn179 1.906 . S
O187 C195 1.304 . S
O188 Zn176 1.924 . S
O188 C196 1.311 . S
O189 Zn180 1.977 . S
O189 C195 1.272 . S
O190 Zn180 1.910 . S
O190 C196 1.231 . S
C191 O175 1.225 . S
C191 O197 1.298 . S
C192 O181 1.226 . S
C192 O182 1.307 . S
C193 O185 1.303 . S
C193 O186 1.247 . S
C194 O183 1.253 . S
C194 O184 1.283 . S
C195 O187 1.304 . S
C195 O189 1.272 . S
C196 O188 1.311 . S
C196 O190 1.231 . S
O197 Zn179 1.953 . S
O197 C191 1.298 . S
O198 Zn199 1.953 . S
O198 C214 1.225 . S
Zn199 O198 1.953 . S
Zn199 O200 1.949 . S
Zn199 O206 1.919 . S
Zn199 O211 1.924 . S
O200 Zn199 1.949 . S
O200 Zn201 1.923 . S
O200 Zn202 1.950 . S
O200 Zn203 1.945 . S
Zn201 O200 1.923 . S
Zn201 O204 1.933 . S
Zn201 O207 1.941 . S
Zn201 O208 1.965 . S
Zn202 O200 1.950 . S
Zn202 O209 1.938 . S
Zn202 O210 1.906 . S
Zn202 O220 1.953 . S
Zn203 O200 1.945 . S
Zn203 O205 1.932 . S
Zn203 O212 1.977 . S
Zn203 O213 1.910 . S
O204 Zn201 1.933 . S
O204 C215 1.226 . S
O205 Zn203 1.932 . S
O205 C215 1.307 . S
O206 Zn199 1.919 . S
O206 C217 1.253 . S
O207 Zn201 1.941 . S
O207 C217 1.283 . S
O208 Zn201 1.965 . S
O208 C216 1.303 . S
O209 Zn202 1.938 . S
O209 C216 1.247 . S
O210 Zn202 1.906 . S
O210 C218 1.304 . S
O211 Zn199 1.924 . S
O211 C219 1.311 . S
O212 Zn203 1.977 . S
O212 C218 1.272 . S
O213 Zn203 1.910 . S
O213 C219 1.231 . S
C214 O198 1.225 . S
C214 O220 1.298 . S
C215 O204 1.226 . S
C215 O205 1.307 . S
C216 O208 1.303 . S
C216 O209 1.247 . S
C217 O206 1.253 . S
C217 O207 1.283 . S
C218 O210 1.304 . S
C218 O212 1.272 . S
C219 O211 1.311 . S
C219 O213 1.231 . S
O220 Zn202 1.953 . S
O220 C214 1.298 . S
O221 Zn222 1.953 . S
O221 C237 1.225 . S
Zn222 O221 1.953 . S
Zn222 O223 1.949 1_655 S
Zn222 O229 1.919 . S
Zn222 O234 1.924 . S
O223 Zn222 1.949 1_455 S
O223 Zn224 1.923 1_554 S
O223 Zn225 1.950 . S
O223 Zn226 1.945 . S
Zn224 O223 1.923 1_556 S
Zn224 O227 1.933 . S
Zn224 O230 1.941 1_455 S
Zn224 O231 1.965 . S
Zn225 O223 1.950 . S
Zn225 O232 1.938 . S
Zn225 O233 1.906 . S
Zn225 O243 1.953 . S
Zn226 O223 1.945 . S
Zn226 O228 1.932 1_554 S
Zn226 O235 1.977 . S
Zn226 O236 1.910 . S
O227 Zn224 1.933 . S
O227 C238 1.226 . S
O228 Zn226 1.932 1_556 S
O228 C238 1.307 . S
O229 Zn222 1.919 . S
O229 C240 1.253 1_554 S
O230 Zn224 1.941 1_655 S
O230 C240 1.283 . S
O231 Zn224 1.965 . S
O231 C239 1.303 1_556 S
O232 Zn225 1.938 . S
O232 C239 1.247 . S
O233 Zn225 1.906 . S
O233 C241 1.304 . S
O234 Zn222 1.924 . S
O234 C242 1.311 1_655 S
O235 Zn226 1.977 . S
O235 C241 1.272 . S
O236 Zn226 1.910 . S
O236 C242 1.231 . S
C237 O221 1.225 . S
C237 O243 1.298 1_655 S
C238 O227 1.226 . S
C238 O228 1.307 . S
C239 O231 1.303 1_554 S
C239 O232 1.247 . S
C240 O229 1.253 1_556 S
C240 O230 1.283 . S
C241 O233 1.304 . S
C241 O235 1.272 . S
C242 O234 1.311 1_455 S
C242 O236 1.231 . S
O243 Zn225 1.953 . S
O243 C237 1.298 1_455 S
H244 C262 0.951 . S
H245 C264 0.951 . S
H246 C266 0.950 . S
H247 C267 0.950 . S
H248 C269 0.950 . S
H249 C272 0.950 . S
H250 C273 0.950 . S
H251 C275 0.950 . S
H252 C276 0.950 . S
H253 C277 0.951 . S
H254 C279 0.951 . S
H255 C281 0.950 . S
H256 C282 0.950 . S
H257 C284 0.950 . S
H258 C287 0.950 . S
H259 C288 0.950 . S
H260 C290 0.950 . S
H261 C291 0.950 1_455 S
C262 H244 0.951 . S
C262 C263 1.366 . S
C262 C264 1.388 . S
C263 C262 1.366 . S
C263 C267 1.385 . S
C264 H245 0.951 . S
C264 C262 1.388 . S
C264 C265 1.366 . S
C265 C264 1.366 . S
C265 C266 1.414 . S
C265 C268 1.499 . S
C266 H246 0.950 . S
C266 C265 1.414 . S
C266 C267 1.374 . S
C267 H247 0.950 . S
C267 C263 1.385 . S
C267 C266 1.374 . S
C268 C265 1.499 . S
C268 C269 1.373 . S
C268 C270 1.389 . S
C269 H248 0.950 . S
C269 C268 1.373 . S
C269 C285 1.377 . S
C270 C268 1.389 . S
C270 C271 1.524 . S
C270 C284 1.377 . S
C271 C270 1.524 . S
C271 C272 1.397 . S
C271 C276 1.363 . S
C272 H249 0.950 . S
C272 C271 1.397 . S
C272 C273 1.334 . S
C273 H250 0.950 . S
C273 C272 1.334 . S
C273 C274 1.287 . S
C274 C273 1.287 . S
C274 C275 1.524 . S
C274 H293 0.913 . S
C275 H251 0.950 . S
C275 C274 1.524 . S
C275 C276 1.415 . S
C276 H252 0.950 . S
C276 C271 1.363 . S
C276 C275 1.415 . S
C277 H253 0.951 . S
C277 C278 1.366 . S
C277 C279 1.388 . S
C278 C277 1.366 . S
C278 C282 1.385 . S
C279 H254 0.951 . S
C279 C277 1.388 . S
C279 C280 1.366 . S
C280 C279 1.366 . S
C280 C281 1.414 . S
C280 C283 1.499 . S
C281 H255 0.950 . S
C281 C280 1.414 . S
C281 C282 1.374 . S
C282 H256 0.950 . S
C282 C278 1.385 . S
C282 C281 1.374 . S
C283 C280 1.499 . S
C283 C284 1.373 . S
C283 C285 1.389 . S
C284 H257 0.950 . S
C284 C270 1.377 . S
C284 C283 1.373 . S
C285 C269 1.377 . S
C285 C283 1.389 . S
C285 C286 1.524 . S
C286 C285 1.524 . S
C286 C287 1.397 . S
C286 C291 1.363 1_455 S
C287 H258 0.950 . S
C287 C286 1.397 . S
C287 C288 1.334 1_455 S
C288 H259 0.950 . S
C288 C287 1.334 1_655 S
C288 C289 1.287 . S
C289 C288 1.287 . S
C289 C290 1.524 . S
C289 H292 0.999 . S
C290 H260 0.950 . S
C290 C289 1.524 . S
C290 C291 1.415 . S
C291 H261 0.950 1_655 S
C291 C286 1.363 1_655 S
C291 C290 1.415 . S
H292 C289 0.999 . S
H293 C274 0.913 . S
H294 C312 0.951 . S
H295 C314 0.951 . S
H296 C316 0.950 . S
H297 C317 0.950 . S
H298 C319 0.950 . S
H299 C322 0.950 . S
H300 C323 0.950 . S
H301 C325 0.950 . S
H302 C326 0.950 . S
H303 C327 0.951 . S
H304 C329 0.951 . S
H305 C331 0.950 . S
H306 C332 0.950 . S
H307 C334 0.950 . S
H308 C337 0.950 . S
H309 C338 0.950 . S
H310 C340 0.950 . S
H311 C341 0.950 . S
C312 H294 0.951 . S
C312 C313 1.366 . S
C312 C314 1.388 . S
C313 C312 1.366 . S
C313 C317 1.385 . S
C314 H295 0.951 . S
C314 C312 1.388 . S
C314 C315 1.366 . S
C315 C314 1.366 . S
C315 C316 1.414 . S
C315 C318 1.499 . S
C316 H296 0.950 . S
C316 C315 1.414 . S
C316 C317 1.374 . S
C317 H297 0.950 . S
C317 C313 1.385 . S
C317 C316 1.374 . S
C318 C315 1.499 . S
C318 C319 1.373 . S
C318 C320 1.389 . S
C319 H298 0.950 . S
C319 C318 1.373 . S
C319 C335 1.377 . S
C320 C318 1.389 . S
C320 C321 1.524 . S
C320 C334 1.377 . S
C321 C320 1.524 . S
C321 C322 1.397 . S
C321 C326 1.363 . S
C322 H299 0.950 . S
C322 C321 1.397 . S
C322 C323 1.334 . S
C323 H300 0.950 . S
C323 C322 1.334 . S
C323 C324 1.287 . S
C324 C323 1.287 . S
C324 C325 1.524 . S
C324 H343 0.913 . S
C325 H301 0.950 . S
C325 C324 1.524 . S
C325 C326 1.415 . S
C326 H302 0.950 . S
C326 C321 1.363 . S
C326 C325 1.415 . S
C327 H303 0.951 . S
C327 C328 1.366 1_545 S
C327 C329 1.388 . S
C328 C327 1.366 1_565 S
C328 C332 1.385 . S
C329 H304 0.951 . S
C329 C327 1.388 . S
C329 C330 1.366 1_545 S
C330 C329 1.366 1_565 S
C330 C331 1.414 . S
C330 C333 1.499 . S
C331 H305 0.950 . S
C331 C330 1.414 . S
C331 C332 1.374 . S
C332 H306 0.950 . S
C332 C328 1.385 . S
C332 C331 1.374 . S
C333 C330 1.499 . S
C333 C334 1.373 . S
C333 C335 1.389 . S
C334 H307 0.950 . S
C334 C320 1.377 . S
C334 C333 1.373 . S
C335 C319 1.377 . S
C335 C333 1.389 . S
C335 C336 1.524 1_565 S
C336 C335 1.524 1_545 S
C336 C337 1.397 . S
C336 C341 1.363 . S
C337 H308 0.950 . S
C337 C336 1.397 . S
C337 C338 1.334 . S
C338 H309 0.950 . S
C338 C337 1.334 . S
C338 C339 1.287 . S
C339 C338 1.287 . S
C339 C340 1.524 . S
C339 H342 0.999 . S
C340 H310 0.950 . S
C340 C339 1.524 . S
C340 C341 1.415 . S
C341 H311 0.950 . S
C341 C336 1.363 . S
C341 C340 1.415 . S
H342 C339 0.999 . S
H343 C324 0.913 . S
H344 C362 0.951 . S
H345 C364 0.951 . S
H346 C366 0.950 . S
H347 C367 0.950 . S
H348 C369 0.950 . S
H349 C372 0.950 . S
H350 C373 0.950 . S
H351 C375 0.950 . S
H352 C376 0.950 . S
H353 C377 0.951 . S
H354 C379 0.951 . S
H355 C381 0.950 . S
H356 C382 0.950 . S
H357 C384 0.950 . S
H358 C387 0.950 . S
H359 C388 0.950 . S
H360 C390 0.950 . S
H361 C391 0.950 . S
C362 H344 0.951 . S
C362 C363 1.366 . S
C362 C364 1.388 . S
C363 C362 1.366 . S
C363 C367 1.385 . S
C364 H345 0.951 . S
C364 C362 1.388 . S
C364 C365 1.366 . S
C365 C364 1.366 . S
C365 C366 1.414 . S
C365 C368 1.499 . S
C366 H346 0.950 . S
C366 C365 1.414 . S
C366 C367 1.374 . S
C367 H347 0.950 . S
C367 C363 1.385 . S
C367 C366 1.374 . S
C368 C365 1.499 . S
C368 C369 1.373 . S
C368 C370 1.389 . S
C369 H348 0.950 . S
C369 C368 1.373 . S
C369 C385 1.377 . S
C370 C368 1.389 . S
C370 C371 1.524 . S
C370 C384 1.377 . S
C371 C370 1.524 . S
C371 C372 1.397 . S
C371 C376 1.363 . S
C372 H349 0.950 . S
C372 C371 1.397 . S
C372 C373 1.334 . S
C373 H350 0.950 . S
C373 C372 1.334 . S
C373 C374 1.287 . S
C374 C373 1.287 . S
C374 C375 1.524 . S
C374 H393 0.913 . S
C375 H351 0.950 . S
C375 C374 1.524 . S
C375 C376 1.415 . S
C376 H352 0.950 . S
C376 C371 1.363 . S
C376 C375 1.415 . S
C377 H353 0.951 . S
C377 C378 1.366 . S
C377 C379 1.388 . S
C378 C377 1.366 . S
C378 C382 1.385 . S
C379 H354 0.951 . S
C379 C377 1.388 . S
C379 C380 1.366 . S
C380 C379 1.366 . S
C380 C381 1.414 . S
C380 C383 1.499 . S
C381 H355 0.950 . S
C381 C380 1.414 . S
C381 C382 1.374 . S
C382 H356 0.950 . S
C382 C378 1.385 . S
C382 C381 1.374 . S
C383 C380 1.499 . S
C383 C384 1.373 . S
C383 C385 1.389 . S
C384 H357 0.950 . S
C384 C370 1.377 . S
C384 C383 1.373 . S
C385 C369 1.377 . S
C385 C383 1.389 . S
C385 C386 1.524 . S
C386 C385 1.524 . S
C386 C387 1.397 . S
C386 C391 1.363 . S
C387 H358 0.950 . S
C387 C386 1.397 . S
C387 C388 1.334 . S
C388 H359 0.950 . S
C388 C387 1.334 . S
C388 C389 1.287 . S
C389 C388 1.287 . S
C389 C390 1.524 . S
C389 H392 0.999 . S
C390 H360 0.950 . S
C390 C389 1.524 . S
C390 C391 1.415 . S
C391 H361 0.950 . S
C391 C386 1.363 . S
C391 C390 1.415 . S
H392 C389 0.999 . S
H393 C374 0.913 . S
H394 C412 0.951 . S
H395 C414 0.951 . S
H396 C416 0.950 . S
H397 C417 0.950 . S
H398 C419 0.950 . S
H399 C422 0.938 1_655 S
H400 C423 0.950 . S
H401 C425 0.950 . S
H402 C426 0.950 . S
H403 C427 0.951 . S
H404 C429 0.951 . S
H405 C431 0.950 . S
H406 C432 0.950 . S
H407 C434 0.950 . S
H408 C437 0.950 . S
H409 C438 0.950 . S
H410 C440 0.950 . S
H411 C441 0.950 . S
C412 H394 0.951 . S
C412 C413 1.366 . S
C412 C414 1.388 . S
C413 C412 1.366 . S
C413 C417 1.385 . S
C414 H395 0.951 . S
C414 C412 1.388 . S
C414 C415 1.366 . S
C415 C414 1.366 . S
C415 C416 1.414 . S
C415 C418 1.499 . S
C416 H396 0.950 . S
C416 C415 1.414 . S
C416 C417 1.374 . S
C417 H397 0.950 . S
C417 C413 1.385 . S
C417 C416 1.374 . S
C418 C415 1.499 . S
C418 C419 1.373 . S
C418 C420 1.389 . S
C419 H398 0.950 . S
C419 C418 1.373 . S
C419 C435 1.377 . S
C420 C418 1.389 . S
C420 C421 1.524 . S
C420 C434 1.377 . S
C421 C420 1.524 . S
C421 C422 1.382 1_655 S
C421 C426 1.363 . S
C422 H399 0.938 1_455 S
C422 C421 1.382 1_455 S
C422 C423 1.359 . S
C423 H400 0.950 . S
C423 C422 1.359 . S
C423 C424 1.287 . S
C424 C423 1.287 . S
C424 C425 1.524 . S
C424 H443 0.913 . S
C425 H401 0.950 . S
C425 C424 1.524 . S
C425 C426 1.415 1_455 S
C426 H402 0.950 . S
C426 C421 1.363 . S
C426 C425 1.415 1_655 S
C427 H403 0.951 . S
C427 C428 1.366 . S
C427 C429 1.388 . S
C428 C427 1.366 . S
C428 C432 1.385 . S
C429 H404 0.951 . S
C429 C427 1.388 . S
C429 C430 1.366 . S
C430 C429 1.366 . S
C430 C431 1.414 . S
C430 C433 1.499 . S
C431 H405 0.950 . S
C431 C430 1.414 . S
C431 C432 1.374 . S
C432 H406 0.950 . S
C432 C428 1.385 . S
C432 C431 1.374 . S
C433 C430 1.499 . S
C433 C434 1.373 . S
C433 C435 1.389 . S
C434 H407 0.950 . S
C434 C420 1.377 . S
C434 C433 1.373 . S
C435 C419 1.377 . S
C435 C433 1.389 . S
C435 C436 1.524 . S
C436 C435 1.524 . S
C436 C437 1.397 . S
C436 C441 1.363 . S
C437 H408 0.950 . S
C437 C436 1.397 . S
C437 C438 1.334 . S
C438 H409 0.950 . S
C438 C437 1.334 . S
C438 C439 1.287 . S
C439 C438 1.287 . S
C439 C440 1.524 . S
C439 H442 0.999 . S
C440 H410 0.950 . S
C440 C439 1.524 . S
C440 C441 1.415 . S
C441 H411 0.950 . S
C441 C436 1.363 . S
C441 C440 1.415 . S
H442 C439 0.999 . S
H443 C424 0.913 . S
H444 C462 0.951 . S
H445 C464 0.951 . S
H446 C466 0.950 . S
H447 C467 0.950 . S
H448 C469 0.950 . S
H449 C472 0.950 . S
H450 C473 0.950 . S
H451 C475 0.950 . S
H452 C476 0.950 . S
H453 C477 0.951 . S
H454 C479 0.951 . S
H455 C481 0.950 . S
H456 C482 0.950 . S
H457 C484 0.950 . S
H458 C487 0.950 . S
H459 C488 0.950 . S
H460 C490 0.950 . S
H461 C491 0.950 . S
C462 H444 0.951 . S
C462 C463 1.366 . S
C462 C464 1.388 . S
C463 C462 1.366 . S
C463 C467 1.385 . S
C464 H445 0.951 . S
C464 C462 1.388 . S
C464 C465 1.366 . S
C465 C464 1.366 . S
C465 C466 1.414 . S
C465 C468 1.499 . S
C466 H446 0.950 . S
C466 C465 1.414 . S
C466 C467 1.374 . S
C467 H447 0.950 . S
C467 C463 1.385 . S
C467 C466 1.374 . S
C468 C465 1.499 . S
C468 C469 1.373 . S
C468 C470 1.389 . S
C469 H448 0.950 . S
C469 C468 1.373 . S
C469 C485 1.377 . S
C470 C468 1.389 . S
C470 C471 1.524 . S
C470 C484 1.377 . S
C471 C470 1.524 . S
C471 C472 1.397 . S
C471 C476 1.363 . S
C472 H449 0.950 . S
C472 C471 1.397 . S
C472 C473 1.334 . S
C473 H450 0.950 . S
C473 C472 1.334 . S
C473 C474 1.287 . S
C474 C473 1.287 . S
C474 C475 1.524 . S
C474 H493 0.913 . S
C475 H451 0.950 . S
C475 C474 1.524 . S
C475 C476 1.415 . S
C476 H452 0.950 . S
C476 C471 1.363 . S
C476 C475 1.415 . S
C477 H453 0.951 . S
C477 C478 1.366 . S
C477 C479 1.388 . S
C478 C477 1.366 . S
C478 C482 1.385 . S
C479 H454 0.951 . S
C479 C477 1.388 . S
C479 C480 1.366 . S
C480 C479 1.366 . S
C480 C481 1.414 . S
C480 C483 1.499 . S
C481 H455 0.950 . S
C481 C480 1.414 . S
C481 C482 1.374 . S
C482 H456 0.950 . S
C482 C478 1.385 . S
C482 C481 1.374 . S
C483 C480 1.499 . S
C483 C484 1.373 . S
C483 C485 1.389 . S
C484 H457 0.950 . S
C484 C470 1.377 . S
C484 C483 1.373 . S
C485 C469 1.377 . S
C485 C483 1.389 . S
C485 C486 1.524 . S
C486 C485 1.524 . S
C486 C487 1.397 . S
C486 C491 1.363 . S
C487 H458 0.950 . S
C487 C486 1.397 . S
C487 C488 1.334 . S
C488 H459 0.950 . S
C488 C487 1.334 . S
C488 C489 1.287 . S
C489 C488 1.287 . S
C489 C490 1.524 . S
C489 H492 0.999 . S
C490 H460 0.950 . S
C490 C489 1.524 . S
C490 C491 1.415 . S
C491 H461 0.950 . S
C491 C486 1.363 . S
C491 C490 1.415 . S
H492 C489 0.999 . S
H493 C474 0.913 . S
H494 C512 0.951 . S
H495 C514 0.951 . S
H496 C516 0.950 . S
H497 C517 0.950 . S
H498 C519 0.950 . S
H499 C522 0.950 . S
H500 C523 0.950 . S
H501 C525 0.950 . S
H502 C526 0.950 . S
H503 C527 0.951 . S
H504 C529 0.951 . S
H505 C531 0.950 . S
H506 C532 0.950 . S
H507 C534 0.950 . S
H508 C537 0.950 . S
H509 C538 0.950 . S
H510 C540 0.950 . S
H511 C541 0.950 . S
C512 H494 0.951 . S
C512 C513 1.366 . S
C512 C514 1.388 . S
C513 C512 1.366 . S
C513 C517 1.385 . S
C514 H495 0.951 . S
C514 C512 1.388 . S
C514 C515 1.366 . S
C515 C514 1.366 . S
C515 C516 1.414 . S
C515 C518 1.499 . S
C516 H496 0.950 . S
C516 C515 1.414 . S
C516 C517 1.374 . S
C517 H497 0.950 . S
C517 C513 1.385 . S
C517 C516 1.374 . S
C518 C515 1.499 . S
C518 C519 1.373 1_565 S
C518 C520 1.389 . S
C519 H498 0.950 . S
C519 C518 1.373 1_545 S
C519 C535 1.377 . S
C520 C518 1.389 . S
C520 C521 1.524 . S
C520 C534 1.377 . S
C521 C520 1.524 . S
C521 C522 1.397 . S
C521 C526 1.363 . S
C522 H499 0.950 . S
C522 C521 1.397 . S
C522 C523 1.334 . S
C523 H500 0.950 . S
C523 C522 1.334 . S
C523 C524 1.287 . S
C524 C523 1.287 . S
C524 C525 1.524 . S
C524 H543 0.913 . S
C525 H501 0.950 . S
C525 C524 1.524 . S
C525 C526 1.415 . S
C526 H502 0.950 . S
C526 C521 1.363 . S
C526 C525 1.415 . S
C527 H503 0.951 . S
C527 C528 1.366 . S
C527 C529 1.388 . S
C528 C527 1.366 . S
C528 C532 1.385 1_545 S
C529 H504 0.951 . S
C529 C527 1.388 . S
C529 C530 1.366 1_545 S
C530 C529 1.366 1_565 S
C530 C531 1.414 . S
C530 C533 1.499 . S
C531 H505 0.950 . S
C531 C530 1.414 . S
C531 C532 1.374 . S
C532 H506 0.950 . S
C532 C528 1.385 1_565 S
C532 C531 1.374 . S
C533 C530 1.499 . S
C533 C534 1.373 . S
C533 C535 1.389 1_565 S
C534 H507 0.950 . S
C534 C520 1.377 . S
C534 C533 1.373 . S
C535 C519 1.377 . S
C535 C533 1.389 1_545 S
C535 C536 1.524 . S
C536 C535 1.524 . S
C536 C537 1.397 . S
C536 C541 1.363 . S
C537 H508 0.950 . S
C537 C536 1.397 . S
C537 C538 1.334 . S
C538 H509 0.950 . S
C538 C537 1.334 . S
C538 C539 1.287 . S
C539 C538 1.287 . S
C539 C540 1.524 . S
C539 H542 0.999 . S
C540 H510 0.950 . S
C540 C539 1.524 . S
C540 C541 1.415 . S
C541 H511 0.950 . S
C541 C536 1.363 . S
C541 C540 1.415 . S
H542 C539 0.999 . S
H543 C524 0.913 . S
H544 C562 0.951 . S
H545 C564 0.951 . S
H546 C566 0.950 . S
H547 C567 0.950 . S
H548 C569 0.950 . S
H549 C572 0.950 . S
H550 C573 0.950 . S
H551 C575 0.950 . S
H552 C576 0.950 . S
H553 C577 0.951 1_554 S
H554 C579 0.951 1_554 S
H555 C581 0.950 . S
H556 C582 0.950 . S
H557 C584 0.950 . S
H558 C587 0.950 1_556 S
H559 C588 0.950 . S
H560 C590 0.950 . S
H561 C591 0.950 . S
C562 H544 0.951 . S
C562 C563 1.366 . S
C562 C564 1.388 . S
C563 C562 1.366 . S
C563 C567 1.385 . S
C564 H545 0.951 . S
C564 C562 1.388 . S
C564 C565 1.366 . S
C565 C564 1.366 . S
C565 C566 1.414 . S
C565 C568 1.499 . S
C566 H546 0.950 . S
C566 C565 1.414 . S
C566 C567 1.374 . S
C567 H547 0.950 . S
C567 C563 1.385 . S
C567 C566 1.374 . S
C568 C565 1.499 . S
C568 C569 1.373 . S
C568 C570 1.389 . S
C569 H548 0.950 . S
C569 C568 1.373 . S
C569 C585 1.377 . S
C570 C568 1.389 . S
C570 C571 1.524 . S
C570 C584 1.377 . S
C571 C570 1.524 . S
C571 C572 1.397 . S
C571 C576 1.363 . S
C572 H549 0.950 . S
C572 C571 1.397 . S
C572 C573 1.334 . S
C573 H550 0.950 . S
C573 C572 1.334 . S
C573 C574 1.287 . S
C574 C573 1.287 . S
C574 C575 1.524 . S
C574 H593 0.913 . S
C575 H551 0.950 . S
C575 C574 1.524 . S
C575 C576 1.415 . S
C576 H552 0.950 . S
C576 C571 1.363 . S
C576 C575 1.415 . S
C577 H553 0.951 1_556 S
C577 C578 1.366 . S
C577 C579 1.388 . S
C578 C577 1.366 . S
C578 C582 1.385 . S
C579 H554 0.951 1_556 S
C579 C577 1.388 . S
C579 C580 1.366 . S
C580 C579 1.366 . S
C580 C581 1.414 . S
C580 C583 1.499 . S
C581 H555 0.950 . S
C581 C580 1.414 . S
C581 C582 1.374 . S
C582 H556 0.950 . S
C582 C578 1.385 . S
C582 C581 1.374 . S
C583 C580 1.499 . S
C583 C584 1.373 . S
C583 C585 1.389 . S
C584 H557 0.950 . S
C584 C570 1.377 . S
C584 C583 1.373 . S
C585 C569 1.377 . S
C585 C583 1.389 . S
C585 C586 1.524 1_556 S
C586 C585 1.524 1_554 S
C586 C587 1.397 . S
C586 C591 1.363 . S
C587 H558 0.950 1_554 S
C587 C586 1.397 . S
C587 C588 1.334 . S
C588 H559 0.950 . S
C588 C587 1.334 . S
C588 C589 1.287 . S
C589 C588 1.287 . S
C589 C590 1.524 . S
C589 H592 0.999 . S
C590 H560 0.950 . S
C590 C589 1.524 . S
C590 C591 1.415 . S
C591 H561 0.950 . S
C591 C586 1.363 . S
C591 C590 1.415 . S
H592 C589 0.999 . S
H593 C574 0.913 . S
H594 C612 0.951 . S
H595 C614 0.951 . S
H596 C616 0.950 . S
H597 C617 0.950 . S
H598 C619 0.950 . S
H599 C622 0.950 . S
H600 C623 0.950 . S
H601 C625 0.950 . S
H602 C626 0.950 . S
H603 C627 0.951 . S
H604 C629 0.951 . S
H605 C631 0.950 . S
H606 C632 0.950 . S
H607 C634 0.950 . S
H608 C637 0.950 . S
H609 C638 0.950 . S
H610 C640 0.950 . S
H611 C641 0.950 . S
C612 H594 0.951 . S
C612 C613 1.366 . S
C612 C614 1.388 . S
C613 C612 1.366 . S
C613 C617 1.385 . S
C614 H595 0.951 . S
C614 C612 1.388 . S
C614 C615 1.366 . S
C615 C614 1.366 . S
C615 C616 1.414 . S
C615 C618 1.499 . S
C616 H596 0.950 . S
C616 C615 1.414 . S
C616 C617 1.374 . S
C617 H597 0.950 . S
C617 C613 1.385 . S
C617 C616 1.374 . S
C618 C615 1.499 . S
C618 C619 1.373 . S
C618 C620 1.389 . S
C619 H598 0.950 . S
C619 C618 1.373 . S
C619 C635 1.377 . S
C620 C618 1.389 . S
C620 C621 1.524 . S
C620 C634 1.377 . S
C621 C620 1.524 . S
C621 C622 1.397 . S
C621 C626 1.363 . S
C622 H599 0.950 . S
C622 C621 1.397 . S
C622 C623 1.334 . S
C623 H600 0.950 . S
C623 C622 1.334 . S
C623 C624 1.287 . S
C624 C623 1.287 . S
C624 C625 1.524 . S
C624 H643 0.913 . S
C625 H601 0.950 . S
C625 C624 1.524 . S
C625 C626 1.415 . S
C626 H602 0.950 . S
C626 C621 1.363 . S
C626 C625 1.415 . S
C627 H603 0.951 . S
C627 C628 1.366 . S
C627 C629 1.388 . S
C628 C627 1.366 . S
C628 C632 1.385 . S
C629 H604 0.951 . S
C629 C627 1.388 . S
C629 C630 1.366 . S
C630 C629 1.366 . S
C630 C631 1.414 . S
C630 C633 1.499 . S
C631 H605 0.950 . S
C631 C630 1.414 . S
C631 C632 1.374 . S
C632 H606 0.950 . S
C632 C628 1.385 . S
C632 C631 1.374 . S
C633 C630 1.499 . S
C633 C634 1.373 . S
C633 C635 1.389 . S
C634 H607 0.950 . S
C634 C620 1.377 . S
C634 C633 1.373 . S
C635 C619 1.377 . S
C635 C633 1.389 . S
C635 C636 1.524 . S
C636 C635 1.524 . S
C636 C637 1.397 . S
C636 C641 1.363 . S
C637 H608 0.950 . S
C637 C636 1.397 . S
C637 C638 1.334 . S
C638 H609 0.950 . S
C638 C637 1.334 . S
C638 C639 1.287 . S
C639 C638 1.287 . S
C639 C640 1.524 . S
C639 H642 0.999 . S
C640 H610 0.950 . S
C640 C639 1.524 . S
C640 C641 1.415 . S
C641 H611 0.950 . S
C641 C636 1.363 . S
C641 C640 1.415 . S
H642 C639 0.999 . S
H643 C624 0.913 . S
H644 C662 0.951 . S
H645 C664 0.951 . S
H646 C666 0.950 . S
H647 C667 0.950 . S
H648 C669 0.950 . S
H649 C672 0.950 . S
H650 C673 0.950 . S
H651 C675 0.950 . S
H652 C676 0.950 . S
H653 C677 0.951 . S
H654 C679 0.951 . S
H655 C681 0.950 . S
H656 C682 0.950 . S
H657 C684 0.950 . S
H658 C687 0.950 . S
H659 C688 0.950 1_556 S
H660 C690 0.950 . S
H661 C691 0.950 . S
C662 H644 0.951 . S
C662 C663 1.366 . S
C662 C664 1.388 . S
C663 C662 1.366 . S
C663 C667 1.385 . S
C664 H645 0.951 . S
C664 C662 1.388 . S
C664 C665 1.366 . S
C665 C664 1.366 . S
C665 C666 1.414 . S
C665 C668 1.499 . S
C666 H646 0.950 . S
C666 C665 1.414 . S
C666 C667 1.374 . S
C667 H647 0.950 . S
C667 C663 1.385 . S
C667 C666 1.374 . S
C668 C665 1.499 . S
C668 C669 1.373 . S
C668 C670 1.389 . S
C669 H648 0.950 . S
C669 C668 1.373 . S
C669 C685 1.377 . S
C670 C668 1.389 . S
C670 C671 1.524 . S
C670 C684 1.377 . S
C671 C670 1.524 . S
C671 C672 1.397 . S
C671 C676 1.363 . S
C672 H649 0.950 . S
C672 C671 1.397 . S
C672 C673 1.334 . S
C673 H650 0.950 . S
C673 C672 1.334 . S
C673 C674 1.287 . S
C674 C673 1.287 . S
C674 C675 1.524 . S
C674 H693 0.913 . S
C675 H651 0.950 . S
C675 C674 1.524 . S
C675 C676 1.415 . S
C676 H652 0.950 . S
C676 C671 1.363 . S
C676 C675 1.415 . S
C677 H653 0.951 . S
C677 C678 1.366 . S
C677 C679 1.388 . S
C678 C677 1.366 . S
C678 C682 1.385 . S
C679 H654 0.951 . S
C679 C677 1.388 . S
C679 C680 1.366 . S
C680 C679 1.366 . S
C680 C681 1.414 . S
C680 C683 1.499 . S
C681 H655 0.950 . S
C681 C680 1.414 . S
C681 C682 1.374 . S
C682 H656 0.950 . S
C682 C678 1.385 . S
C682 C681 1.374 . S
C683 C680 1.499 . S
C683 C684 1.373 . S
C683 C685 1.389 . S
C684 H657 0.950 . S
C684 C670 1.377 . S
C684 C683 1.373 . S
C685 C669 1.377 . S
C685 C683 1.389 . S
C685 C686 1.524 . S
C686 C685 1.524 . S
C686 C687 1.397 . S
C686 C691 1.363 . S
C687 H658 0.950 . S
C687 C686 1.397 . S
C687 C688 1.334 . S
C688 H659 0.950 1_554 S
C688 C687 1.334 . S
C688 C689 1.287 1_554 S
C689 C688 1.287 1_556 S
C689 C690 1.524 . S
C689 H692 0.999 . S
C690 H660 0.950 . S
C690 C689 1.524 . S
C690 C691 1.415 1_556 S
C691 H661 0.950 . S
C691 C686 1.363 . S
C691 C690 1.415 1_554 S
H692 C689 0.999 . S
H693 C674 0.913 . S
H694 C712 0.951 . S
H695 C714 0.951 1_554 S
H696 C716 0.950 . S
H697 C717 0.950 . S
H698 C719 0.950 . S
H699 C722 0.950 . S
H700 C723 0.950 . S
H701 C725 0.950 . S
H702 C726 0.950 1_554 S
H703 C727 0.951 . S
H704 C729 0.951 . S
H705 C731 0.950 . S
H706 C732 0.950 . S
H707 C734 0.950 . S
H708 C737 0.950 . S
H709 C738 0.950 . S
H710 C740 0.950 . S
H711 C741 0.946 . S
C712 H694 0.951 . S
C712 C713 1.366 . S
C712 C714 1.388 . S
C713 C712 1.366 . S
C713 C717 1.385 . S
C714 H695 0.951 1_556 S
C714 C712 1.388 . S
C714 C715 1.366 . S
C715 C714 1.366 . S
C715 C716 1.414 . S
C715 C718 1.499 . S
C716 H696 0.950 . S
C716 C715 1.414 . S
C716 C717 1.374 . S
C717 H697 0.950 . S
C717 C713 1.385 . S
C717 C716 1.374 . S
C718 C715 1.499 . S
C718 C719 1.373 1_556 S
C718 C720 1.389 . S
C719 H698 0.950 . S
C719 C718 1.373 1_554 S
C719 C735 1.377 . S
C720 C718 1.389 . S
C720 C721 1.524 . S
C720 C734 1.377 1_556 S
C721 C720 1.524 . S
C721 C722 1.397 . S
C721 C726 1.363 . S
C722 H699 0.950 . S
C722 C721 1.397 . S
C722 C723 1.334 . S
C723 H700 0.950 . S
C723 C722 1.334 . S
C723 C724 1.287 . S
C724 C723 1.287 . S
C724 C725 1.524 . S
C724 H743 0.913 . S
C725 H701 0.950 . S
C725 C724 1.524 . S
C725 C726 1.415 . S
C726 H702 0.950 1_556 S
C726 C721 1.363 . S
C726 C725 1.415 . S
C727 H703 0.951 . S
C727 C728 1.366 . S
C727 C729 1.388 . S
C728 C727 1.366 . S
C728 C732 1.385 . S
C729 H704 0.951 . S
C729 C727 1.388 . S
C729 C730 1.366 . S
C730 C729 1.366 . S
C730 C731 1.414 . S
C730 C733 1.499 . S
C731 H705 0.950 . S
C731 C730 1.414 . S
C731 C732 1.374 . S
C732 H706 0.950 . S
C732 C728 1.385 . S
C732 C731 1.374 . S
C733 C730 1.499 . S
C733 C734 1.373 . S
C733 C735 1.389 . S
C734 H707 0.950 . S
C734 C720 1.377 1_554 S
C734 C733 1.373 . S
C735 C719 1.377 . S
C735 C733 1.389 . S
C735 C736 1.524 . S
C736 C735 1.524 . S
C736 C737 1.397 . S
C736 C741 1.363 . S
C737 H708 0.950 . S
C737 C736 1.397 . S
C737 C738 1.334 . S
C738 H709 0.950 . S
C738 C737 1.334 . S
C738 C739 1.287 . S
C739 C738 1.287 . S
C739 C740 1.524 . S
C739 H742 0.999 . S
C740 H710 0.950 . S
C740 C739 1.524 . S
C740 C741 1.415 . S
C741 H711 0.946 . S
C741 C736 1.363 . S
C741 C740 1.415 . S
H742 C739 0.999 . S
H743 C724 0.913 . S
H744 C762 0.951 . S
H745 C764 0.951 . S
H746 C766 0.950 . S
H747 C767 0.950 . S
H748 C769 0.950 . S
H749 C772 0.950 . S
H750 C773 0.950 . S
H751 C775 0.950 . S
H752 C776 0.950 . S
H753 C777 0.951 1_455 S
H754 C779 0.951 . S
H755 C781 0.950 . S
H756 C782 0.950 . S
H757 C784 0.950 . S
H758 C787 0.950 . S
H759 C788 0.950 . S
H760 C790 0.950 . S
H761 C791 0.950 1_455 S
C762 H744 0.951 . S
C762 C763 1.366 . S
C762 C764 1.388 . S
C763 C762 1.366 . S
C763 C767 1.385 . S
C764 H745 0.951 . S
C764 C762 1.388 . S
C764 C765 1.366 . S
C765 C764 1.366 . S
C765 C766 1.414 . S
C765 C768 1.499 . S
C766 H746 0.950 . S
C766 C765 1.414 . S
C766 C767 1.374 . S
C767 H747 0.950 . S
C767 C763 1.385 . S
C767 C766 1.374 . S
C768 C765 1.499 . S
C768 C769 1.373 . S
C768 C770 1.389 . S
C769 H748 0.950 . S
C769 C768 1.373 . S
C769 C785 1.377 . S
C770 C768 1.389 . S
C770 C771 1.524 . S
C770 C784 1.377 . S
C771 C770 1.524 . S
C771 C772 1.397 . S
C771 C776 1.363 . S
C772 H749 0.950 . S
C772 C771 1.397 . S
C772 C773 1.334 . S
C773 H750 0.950 . S
C773 C772 1.334 . S
C773 C774 1.287 . S
C774 C773 1.287 . S
C774 C775 1.524 . S
C774 H793 0.913 . S
C775 H751 0.950 . S
C775 C774 1.524 . S
C775 C776 1.415 . S
C776 H752 0.950 . S
C776 C771 1.363 . S
C776 C775 1.415 . S
C777 H753 0.951 1_655 S
C777 C778 1.366 . S
C777 C779 1.388 . S
C778 C777 1.366 . S
C778 C782 1.385 . S
C779 H754 0.951 . S
C779 C777 1.388 . S
C779 C780 1.366 . S
C780 C779 1.366 . S
C780 C781 1.414 . S
C780 C783 1.499 . S
C781 H755 0.950 . S
C781 C780 1.414 . S
C781 C782 1.374 . S
C782 H756 0.950 . S
C782 C778 1.385 . S
C782 C781 1.374 . S
C783 C780 1.499 . S
C783 C784 1.373 . S
C783 C785 1.389 . S
C784 H757 0.950 . S
C784 C770 1.377 . S
C784 C783 1.373 . S
C785 C769 1.377 . S
C785 C783 1.389 . S
C785 C786 1.524 . S
C786 C785 1.524 . S
C786 C787 1.397 . S
C786 C791 1.363 . S
C787 H758 0.950 . S
C787 C786 1.397 . S
C787 C788 1.334 . S
C788 H759 0.950 . S
C788 C787 1.334 . S
C788 C789 1.287 . S
C789 C788 1.287 . S
C789 C790 1.524 1_655 S
C789 H792 0.999 1_655 S
C790 H760 0.950 . S
C790 C789 1.524 1_455 S
C790 C791 1.415 1_455 S
C791 H761 0.950 1_655 S
C791 C786 1.363 . S
C791 C790 1.415 1_655 S
H792 C789 0.999 1_455 S
H793 C774 0.913 . S
H794 C812 0.951 . S
H795 C814 0.951 . S
H796 C816 0.950 . S
H797 C817 0.950 . S
H798 C819 0.950 . S
H799 C822 0.950 . S
H800 C823 0.950 . S
H801 C825 0.950 . S
H802 C826 0.950 . S
H803 C827 0.951 . S
H804 C829 0.951 . S
H805 C831 0.950 . S
H806 C832 0.950 . S
H807 C834 0.950 . S
H808 C837 0.950 . S
H809 C838 0.950 . S
H810 C840 0.950 . S
H811 C841 0.950 . S
C812 H794 0.951 . S
C812 C813 1.366 . S
C812 C814 1.388 . S
C813 C812 1.366 . S
C813 C817 1.385 . S
C814 H795 0.951 . S
C814 C812 1.388 . S
C814 C815 1.366 . S
C815 C814 1.366 . S
C815 C816 1.414 . S
C815 C818 1.499 . S
C816 H796 0.950 . S
C816 C815 1.414 . S
C816 C817 1.374 . S
C817 H797 0.950 . S
C817 C813 1.385 . S
C817 C816 1.374 . S
C818 C815 1.499 . S
C818 C819 1.373 . S
C818 C820 1.389 . S
C819 H798 0.950 . S
C819 C818 1.373 . S
C819 C835 1.377 . S
C820 C818 1.389 . S
C820 C821 1.524 . S
C820 C834 1.377 . S
C821 C820 1.524 . S
C821 C822 1.397 . S
C821 C826 1.363 . S
C822 H799 0.950 . S
C822 C821 1.397 . S
C822 C823 1.334 . S
C823 H800 0.950 . S
C823 C822 1.334 . S
C823 C824 1.287 . S
C824 C823 1.287 . S
C824 C825 1.524 . S
C824 H843 0.913 . S
C825 H801 0.950 . S
C825 C824 1.524 . S
C825 C826 1.415 . S
C826 H802 0.950 . S
C826 C821 1.363 . S
C826 C825 1.415 . S
C827 H803 0.951 . S
C827 C828 1.366 . S
C827 C829 1.388 . S
C828 C827 1.366 . S
C828 C832 1.385 . S
C829 H804 0.951 . S
C829 C827 1.388 . S
C829 C830 1.366 . S
C830 C829 1.366 . S
C830 C831 1.414 . S
C830 C833 1.499 . S
C831 H805 0.950 . S
C831 C830 1.414 . S
C831 C832 1.374 . S
C832 H806 0.950 . S
C832 C828 1.385 . S
C832 C831 1.374 . S
C833 C830 1.499 . S
C833 C834 1.373 . S
C833 C835 1.389 . S
C834 H807 0.950 . S
C834 C820 1.377 . S
C834 C833 1.373 . S
C835 C819 1.377 . S
C835 C833 1.389 . S
C835 C836 1.524 . S
C836 C835 1.524 . S
C836 C837 1.397 . S
C836 C841 1.363 . S
C837 H808 0.950 . S
C837 C836 1.397 . S
C837 C838 1.334 . S
C838 H809 0.950 . S
C838 C837 1.334 . S
C838 C839 1.287 . S
C839 C838 1.287 . S
C839 C840 1.524 . S
C839 H842 0.999 . S
C840 H810 0.950 . S
C840 C839 1.524 . S
C840 C841 1.415 . S
C841 H811 0.950 . S
C841 C836 1.363 . S
C841 C840 1.415 . S
H842 C839 0.999 . S
H843 C824 0.913 . S
H844 C862 0.951 . S
H845 C864 0.951 . S
H846 C866 0.950 . S
H847 C867 0.950 . S
H848 C869 0.950 . S
H849 C872 0.950 1_455 S
H850 C873 0.950 . S
H851 C875 0.950 . S
H852 C876 0.950 . S
H853 C877 0.951 1_455 S
H854 C879 0.951 . S
H855 C881 0.950 1_565 S
H856 C882 0.950 1_565 S
H857 C884 0.950 . S
H858 C887 0.950 . S
H859 C888 0.950 . S
H860 C890 0.950 . S
H861 C891 0.950 . S
C862 H844 0.951 . S
C862 C863 1.366 1_565 S
C862 C864 1.388 . S
C863 C862 1.366 1_545 S
C863 C867 1.385 . S
C864 H845 0.951 . S
C864 C862 1.388 . S
C864 C865 1.366 1_565 S
C865 C864 1.366 1_545 S
C865 C866 1.414 . S
C865 C868 1.499 . S
C866 H846 0.950 . S
C866 C865 1.414 . S
C866 C867 1.374 . S
C867 H847 0.950 . S
C867 C863 1.385 . S
C867 C866 1.374 . S
C868 C865 1.499 . S
C868 C869 1.373 . S
C868 C870 1.389 1_545 S
C869 H848 0.950 . S
C869 C868 1.373 . S
C869 C885 1.377 . S
C870 C868 1.389 1_565 S
C870 C871 1.524 . S
C870 C884 1.377 . S
C871 C870 1.524 . S
C871 C872 1.397 . S
C871 C876 1.363 . S
C872 H849 0.950 1_655 S
C872 C871 1.397 . S
C872 C873 1.334 1_655 S
C873 H850 0.950 . S
C873 C872 1.334 1_455 S
C873 C874 1.287 1_455 S
C874 C873 1.287 1_655 S
C874 C875 1.524 . S
C874 H893 0.915 1_655 S
C875 H851 0.950 . S
C875 C874 1.524 . S
C875 C876 1.415 . S
C876 H852 0.950 . S
C876 C871 1.363 . S
C876 C875 1.415 . S
C877 H853 0.951 1_655 S
C877 C878 1.366 . S
C877 C879 1.388 . S
C878 C877 1.366 . S
C878 C882 1.385 . S
C879 H854 0.951 . S
C879 C877 1.388 . S
C879 C880 1.366 . S
C880 C879 1.366 . S
C880 C881 1.414 . S
C880 C883 1.499 . S
C881 H855 0.950 1_545 S
C881 C880 1.414 . S
C881 C882 1.374 . S
C882 H856 0.950 1_545 S
C882 C878 1.385 . S
C882 C881 1.374 . S
C883 C880 1.499 . S
C883 C884 1.373 1_545 S
C883 C885 1.389 . S
C884 H857 0.950 . S
C884 C870 1.377 . S
C884 C883 1.373 1_565 S
C885 C869 1.377 . S
C885 C883 1.389 . S
C885 C886 1.524 . S
C886 C885 1.524 . S
C886 C887 1.397 . S
C886 C891 1.363 . S
C887 H858 0.950 . S
C887 C886 1.397 . S
C887 C888 1.334 . S
C888 H859 0.950 . S
C888 C887 1.334 . S
C888 C889 1.287 . S
C889 C888 1.287 . S
C889 C890 1.524 . S
C889 H892 0.999 . S
C890 H860 0.950 . S
C890 C889 1.524 . S
C890 C891 1.415 . S
C891 H861 0.950 . S
C891 C886 1.363 . S
C891 C890 1.415 . S
H892 C889 0.999 . S
H893 C874 0.915 1_455 S
H894 C912 0.951 . S
H895 C914 0.951 . S
H896 C916 0.950 . S
H897 C917 0.950 . S
H898 C919 0.950 . S
H899 C922 0.950 . S
H900 C923 0.950 . S
H901 C925 0.950 . S
H902 C926 0.950 . S
H903 C927 0.951 . S
H904 C929 0.951 . S
H905 C931 0.950 . S
H906 C932 0.950 . S
H907 C934 0.950 . S
H908 C937 0.950 . S
H909 C938 0.950 . S
H910 C940 0.950 . S
H911 C941 0.950 . S
C912 H894 0.951 . S
C912 C913 1.366 . S
C912 C914 1.388 . S
C913 C912 1.366 . S
C913 C917 1.385 . S
C914 H895 0.951 . S
C914 C912 1.388 . S
C914 C915 1.366 . S
C915 C914 1.366 . S
C915 C916 1.414 . S
C915 C918 1.499 . S
C916 H896 0.950 . S
C916 C915 1.414 . S
C916 C917 1.374 . S
C917 H897 0.950 . S
C917 C913 1.385 . S
C917 C916 1.374 . S
C918 C915 1.499 . S
C918 C919 1.373 . S
C918 C920 1.389 . S
C919 H898 0.950 . S
C919 C918 1.373 . S
C919 C935 1.377 . S
C920 C918 1.389 . S
C920 C921 1.524 . S
C920 C934 1.377 . S
C921 C920 1.524 . S
C921 C922 1.397 . S
C921 C926 1.363 . S
C922 H899 0.950 . S
C922 C921 1.397 . S
C922 C923 1.334 . S
C923 H900 0.950 . S
C923 C922 1.334 . S
C923 C924 1.287 . S
C924 C923 1.287 . S
C924 C925 1.524 . S
C924 H943 0.913 . S
C925 H901 0.950 . S
C925 C924 1.524 . S
C925 C926 1.415 . S
C926 H902 0.950 . S
C926 C921 1.363 . S
C926 C925 1.415 . S
C927 H903 0.951 . S
C927 C928 1.366 . S
C927 C929 1.388 . S
C928 C927 1.366 . S
C928 C932 1.385 . S
C929 H904 0.951 . S
C929 C927 1.388 . S
C929 C930 1.366 . S
C930 C929 1.366 . S
C930 C931 1.414 . S
C930 C933 1.499 . S
C931 H905 0.950 . S
C931 C930 1.414 . S
C931 C932 1.374 . S
C932 H906 0.950 . S
C932 C928 1.385 . S
C932 C931 1.374 . S
C933 C930 1.499 . S
C933 C934 1.373 . S
C933 C935 1.389 . S
C934 H907 0.950 . S
C934 C920 1.377 . S
C934 C933 1.373 . S
C935 C919 1.377 . S
C935 C933 1.389 . S
C935 C936 1.524 . S
C936 C935 1.524 . S
C936 C937 1.397 . S
C936 C941 1.363 . S
C937 H908 0.950 . S
C937 C936 1.397 . S
C937 C938 1.334 1_545 S
C938 H909 0.950 . S
C938 C937 1.334 1_565 S
C938 C939 1.287 . S
C939 C938 1.287 . S
C939 C940 1.524 . S
C939 H942 0.999 . S
C940 H910 0.950 . S
C940 C939 1.524 . S
C940 C941 1.415 1_565 S
C941 H911 0.950 . S
C941 C936 1.363 . S
C941 C940 1.415 1_545 S
H942 C939 0.999 . S
H943 C924 0.913 . S
H944 C962 0.951 . S
H945 C964 0.951 . S
H946 C966 0.950 . S
H947 C967 0.950 . S
H948 C969 0.950 . S
H949 C972 0.950 . S
H950 C973 0.950 . S
H951 C975 0.950 . S
H952 C976 0.950 . S
H953 C977 0.951 . S
H954 C979 0.951 . S
H955 C981 0.950 . S
H956 C982 0.950 . S
H957 C984 0.950 . S
H958 C987 0.950 . S
H959 C988 0.950 . S
H960 C990 0.950 . S
H961 C991 0.950 . S
C962 H944 0.951 . S
C962 C963 1.366 . S
C962 C964 1.388 . S
C963 C962 1.366 . S
C963 C967 1.385 . S
C964 H945 0.951 . S
C964 C962 1.388 . S
C964 C965 1.366 . S
C965 C964 1.366 . S
C965 C966 1.414 . S
C965 C968 1.499 . S
C966 H946 0.950 . S
C966 C965 1.414 . S
C966 C967 1.374 . S
C967 H947 0.950 . S
C967 C963 1.385 . S
C967 C966 1.374 . S
C968 C965 1.499 . S
C968 C969 1.373 . S
C968 C970 1.389 . S
C969 H948 0.950 . S
C969 C968 1.373 . S
C969 C985 1.377 . S
C970 C968 1.389 . S
C970 C971 1.524 . S
C970 C984 1.377 . S
C971 C970 1.524 . S
C971 C972 1.397 . S
C971 C976 1.363 . S
C972 H949 0.950 . S
C972 C971 1.397 . S
C972 C973 1.334 . S
C973 H950 0.950 . S
C973 C972 1.334 . S
C973 C974 1.287 . S
C974 C973 1.287 . S
C974 C975 1.524 . S
C974 H993 0.913 . S
C975 H951 0.950 . S
C975 C974 1.524 . S
C975 C976 1.415 . S
C976 H952 0.950 . S
C976 C971 1.363 . S
C976 C975 1.415 . S
C977 H953 0.951 . S
C977 C978 1.366 . S
C977 C979 1.388 . S
C978 C977 1.366 . S
C978 C982 1.385 . S
C979 H954 0.951 . S
C979 C977 1.388 . S
C979 C980 1.366 . S
C980 C979 1.366 . S
C980 C981 1.414 . S
C980 C983 1.499 . S
C981 H955 0.950 . S
C981 C980 1.414 . S
C981 C982 1.374 . S
C982 H956 0.950 . S
C982 C978 1.385 . S
C982 C981 1.374 . S
C983 C980 1.499 . S
C983 C984 1.373 . S
C983 C985 1.389 . S
C984 H957 0.950 . S
C984 C970 1.377 . S
C984 C983 1.373 . S
C985 C969 1.377 . S
C985 C983 1.389 . S
C985 C986 1.524 . S
C986 C985 1.524 . S
C986 C987 1.397 . S
C986 C991 1.363 . S
C987 H958 0.950 . S
C987 C986 1.397 . S
C987 C988 1.334 . S
C988 H959 0.950 . S
C988 C987 1.334 . S
C988 C989 1.287 . S
C989 C988 1.287 . S
C989 C990 1.524 . S
C989 H992 0.999 . S
C990 H960 0.950 . S
C990 C989 1.524 . S
C990 C991 1.415 . S
C991 H961 0.950 . S
C991 C986 1.363 . S
C991 C990 1.415 . S
H992 C989 0.999 . S
H993 C974 0.913 . S
H994 C1012 0.951 . S
H995 C1014 0.951 . S
H996 C1016 0.950 . S
H997 C1017 0.950 . S
H998 C1019 0.950 . S
H999 C1022 0.950 . S
H1000 C1023 0.950 . S
H1001 C1025 0.950 . S
H1002 C1026 0.950 . S
H1003 C1027 0.951 . S
H1004 C1029 0.951 . S
H1005 C1031 0.950 . S
H1006 C1032 0.950 . S
H1007 C1034 0.950 . S
H1008 C1037 0.950 . S
H1009 C1038 0.950 . S
H1010 C1040 0.950 . S
H1011 C1041 0.950 . S
C1012 H994 0.951 . S
C1012 C1013 1.366 . S
C1012 C1014 1.388 . S
C1013 C1012 1.366 . S
C1013 C1017 1.385 . S
C1014 H995 0.951 . S
C1014 C1012 1.388 . S
C1014 C1015 1.366 . S
C1015 C1014 1.366 . S
C1015 C1016 1.414 . S
C1015 C1018 1.499 . S
C1016 H996 0.950 . S
C1016 C1015 1.414 . S
C1016 C1017 1.374 . S
C1017 H997 0.950 . S
C1017 C1013 1.385 . S
C1017 C1016 1.374 . S
C1018 C1015 1.499 . S
C1018 C1019 1.373 . S
C1018 C1020 1.389 . S
C1019 H998 0.950 . S
C1019 C1018 1.373 . S
C1019 C1035 1.377 . S
C1020 C1018 1.389 . S
C1020 C1021 1.524 . S
C1020 C1034 1.377 . S
C1021 C1020 1.524 . S
C1021 C1022 1.397 . S
C1021 C1026 1.363 . S
C1022 H999 0.950 . S
C1022 C1021 1.397 . S
C1022 C1023 1.334 . S
C1023 H1000 0.950 . S
C1023 C1022 1.334 . S
C1023 C1024 1.287 . S
C1024 C1023 1.287 . S
C1024 C1025 1.524 . S
C1024 H1043 0.913 . S
C1025 H1001 0.950 . S
C1025 C1024 1.524 . S
C1025 C1026 1.415 . S
C1026 H1002 0.950 . S
C1026 C1021 1.363 . S
C1026 C1025 1.415 . S
C1027 H1003 0.951 . S
C1027 C1028 1.366 . S
C1027 C1029 1.388 . S
C1028 C1027 1.366 . S
C1028 C1032 1.385 . S
C1029 H1004 0.951 . S
C1029 C1027 1.388 . S
C1029 C1030 1.366 . S
C1030 C1029 1.366 . S
C1030 C1031 1.414 . S
C1030 C1033 1.499 . S
C1031 H1005 0.950 . S
C1031 C1030 1.414 . S
C1031 C1032 1.374 . S
C1032 H1006 0.950 . S
C1032 C1028 1.385 . S
C1032 C1031 1.374 . S
C1033 C1030 1.499 . S
C1033 C1034 1.373 . S
C1033 C1035 1.389 . S
C1034 H1007 0.950 . S
C1034 C1020 1.377 . S
C1034 C1033 1.373 . S
C1035 C1019 1.377 . S
C1035 C1033 1.389 . S
C1035 C1036 1.524 . S
C1036 C1035 1.524 . S
C1036 C1037 1.397 . S
C1036 C1041 1.363 . S
C1037 H1008 0.950 . S
C1037 C1036 1.397 . S
C1037 C1038 1.334 . S
C1038 H1009 0.950 . S
C1038 C1037 1.334 . S
C1038 C1039 1.287 . S
C1039 C1038 1.287 . S
C1039 C1040 1.524 . S
C1039 H1042 0.999 . S
C1040 H1010 0.950 . S
C1040 C1039 1.524 . S
C1040 C1041 1.415 . S
C1041 H1011 0.950 . S
C1041 C1036 1.363 . S
C1041 C1040 1.415 . S
H1042 C1039 0.999 . S
H1043 C1024 0.913 . S
H1044 C1062 0.951 . S
H1045 C1064 0.951 . S
H1046 C1066 0.950 . S
H1047 C1067 0.950 . S
H1048 C1069 0.950 . S
H1049 C1072 0.950 . S
H1050 C1073 0.950 . S
H1051 C1075 0.950 . S
H1052 C1076 0.950 . S
H1053 C1077 0.951 . S
H1054 C1079 0.951 . S
H1055 C1081 0.950 1_556 S
H1056 C1082 0.950 . S
H1057 C1084 0.956 . S
H1058 C1087 0.950 . S
H1059 C1088 0.950 . S
H1060 C1090 0.950 1_545 S
H1061 C1091 0.950 . S
C1062 H1044 0.951 . S
C1062 C1063 1.366 . S
C1062 C1064 1.388 . S
C1063 C1062 1.366 . S
C1063 C1067 1.385 1_556 S
C1064 H1045 0.951 . S
C1064 C1062 1.388 . S
C1064 C1065 1.341 1_556 S
C1065 C1064 1.341 1_554 S
C1065 C1066 1.431 . S
C1065 C1068 1.507 . S
C1066 H1046 0.950 . S
C1066 C1065 1.431 . S
C1066 C1067 1.374 . S
C1067 H1047 0.950 . S
C1067 C1063 1.385 1_554 S
C1067 C1066 1.374 . S
C1068 C1065 1.507 . S
C1068 C1069 1.373 . S
C1068 C1070 1.389 1_554 S
C1069 H1048 0.950 . S
C1069 C1068 1.373 . S
C1069 C1085 1.377 . S
C1070 C1068 1.389 1_556 S
C1070 C1071 1.524 . S
C1070 C1084 1.379 . S
C1071 C1070 1.524 . S
C1071 C1072 1.397 . S
C1071 C1076 1.363 . S
C1072 H1049 0.950 . S
C1072 C1071 1.397 . S
C1072 C1073 1.334 . S
C1073 H1050 0.950 . S
C1073 C1072 1.334 . S
C1073 C1074 1.287 . S
C1074 C1073 1.287 . S
C1074 C1075 1.524 . S
C1074 H1093 0.913 . S
C1075 H1051 0.950 . S
C1075 C1074 1.524 . S
C1075 C1076 1.415 . S
C1076 H1052 0.950 . S
C1076 C1071 1.363 . S
C1076 C1075 1.415 . S
C1077 H1053 0.951 . S
C1077 C1078 1.366 . S
C1077 C1079 1.388 . S
C1078 C1077 1.366 . S
C1078 C1082 1.385 . S
C1079 H1054 0.951 . S
C1079 C1077 1.388 . S
C1079 C1080 1.366 . S
C1080 C1079 1.366 . S
C1080 C1081 1.414 . S
C1080 C1083 1.499 . S
C1081 H1055 0.950 1_554 S
C1081 C1080 1.414 . S
C1081 C1082 1.374 . S
C1082 H1056 0.950 . S
C1082 C1078 1.385 . S
C1082 C1081 1.374 . S
C1083 C1080 1.499 . S
C1083 C1084 1.365 1_554 S
C1083 C1085 1.389 . S
C1084 H1057 0.956 . S
C1084 C1070 1.379 . S
C1084 C1083 1.365 1_556 S
C1085 C1069 1.377 . S
C1085 C1083 1.389 . S
C1085 C1086 1.524 . S
C1086 C1085 1.524 . S
C1086 C1087 1.397 1_545 S
C1086 C1091 1.363 . S
C1087 H1058 0.950 . S
C1087 C1086 1.397 1_565 S
C1087 C1088 1.334 . S
C1088 H1059 0.950 . S
C1088 C1087 1.334 . S
C1088 C1089 1.287 . S
C1089 C1088 1.287 . S
C1089 C1090 1.524 . S
C1089 H1092 0.999 . S
C1090 H1060 0.950 1_565 S
C1090 C1089 1.524 . S
C1090 C1091 1.415 1_565 S
C1091 H1061 0.950 . S
C1091 C1086 1.363 . S
C1091 C1090 1.415 1_545 S
H1092 C1089 0.999 . S
H1093 C1074 0.913 . S
H1094 C1112 0.951 . S
H1095 C1114 0.951 . S
H1096 C1116 0.950 . S
H1097 C1117 0.950 . S
H1098 C1119 0.950 . S
H1099 C1122 0.950 . S
H1100 C1123 0.950 . S
H1101 C1125 0.950 . S
H1102 C1126 0.950 . S
H1103 C1127 0.951 . S
H1104 C1129 0.951 . S
H1105 C1131 0.950 . S
H1106 C1132 0.950 . S
H1107 C1134 0.950 . S
H1108 C1137 0.950 . S
H1109 C1138 0.950 . S
H1110 C1140 0.950 . S
H1111 C1141 0.950 . S
C1112 H1094 0.951 . S
C1112 C1113 1.366 . S
C1112 C1114 1.388 . S
C1113 C1112 1.366 . S
C1113 C1117 1.385 . S
C1114 H1095 0.951 . S
C1114 C1112 1.388 . S
C1114 C1115 1.366 . S
C1115 C1114 1.366 . S
C1115 C1116 1.414 . S
C1115 C1118 1.499 . S
C1116 H1096 0.950 . S
C1116 C1115 1.414 . S
C1116 C1117 1.374 . S
C1117 H1097 0.950 . S
C1117 C1113 1.385 . S
C1117 C1116 1.374 . S
C1118 C1115 1.499 . S
C1118 C1119 1.373 . S
C1118 C1120 1.389 . S
C1119 H1098 0.950 . S
C1119 C1118 1.373 . S
C1119 C1135 1.377 . S
C1120 C1118 1.389 . S
C1120 C1121 1.524 . S
C1120 C1134 1.377 . S
C1121 C1120 1.524 . S
C1121 C1122 1.397 . S
C1121 C1126 1.363 . S
C1122 H1099 0.950 . S
C1122 C1121 1.397 . S
C1122 C1123 1.334 . S
C1123 H1100 0.950 . S
C1123 C1122 1.334 . S
C1123 C1124 1.287 . S
C1124 C1123 1.287 . S
C1124 C1125 1.524 . S
C1124 H1143 0.913 . S
C1125 H1101 0.950 . S
C1125 C1124 1.524 . S
C1125 C1126 1.415 . S
C1126 H1102 0.950 . S
C1126 C1121 1.363 . S
C1126 C1125 1.415 . S
C1127 H1103 0.951 . S
C1127 C1128 1.366 . S
C1127 C1129 1.388 . S
C1128 C1127 1.366 . S
C1128 C1132 1.385 . S
C1129 H1104 0.951 . S
C1129 C1127 1.388 . S
C1129 C1130 1.366 . S
C1130 C1129 1.366 . S
C1130 C1131 1.414 . S
C1130 C1133 1.499 . S
C1131 H1105 0.950 . S
C1131 C1130 1.414 . S
C1131 C1132 1.374 . S
C1132 H1106 0.950 . S
C1132 C1128 1.385 . S
C1132 C1131 1.374 . S
C1133 C1130 1.499 . S
C1133 C1134 1.373 . S
C1133 C1135 1.389 . S
C1134 H1107 0.950 . S
C1134 C1120 1.377 . S
C1134 C1133 1.373 . S
C1135 C1119 1.377 . S
C1135 C1133 1.389 . S
C1135 C1136 1.524 . S
C1136 C1135 1.524 . S
C1136 C1137 1.397 . S
C1136 C1141 1.363 . S
C1137 H1108 0.950 . S
C1137 C1136 1.397 . S
C1137 C1138 1.334 1_545 S
C1138 H1109 0.950 . S
C1138 C1137 1.334 1_565 S
C1138 C1139 1.287 . S
C1139 C1138 1.287 . S
C1139 C1140 1.524 . S
C1139 H1142 0.999 . S
C1140 H1110 0.950 . S
C1140 C1139 1.524 . S
C1140 C1141 1.415 1_565 S
C1141 H1111 0.950 . S
C1141 C1136 1.363 . S
C1141 C1140 1.415 1_545 S
H1142 C1139 0.999 . S
H1143 C1124 0.913 . S
H1144 C1162 0.951 . S
H1145 C1164 0.951 . S
H1146 C1166 0.950 . S
H1147 C1167 0.950 . S
H1148 C1169 0.950 . S
H1149 C1172 0.950 . S
H1150 C1173 0.950 . S
H1151 C1175 0.950 1_556 S
H1152 C1176 0.950 . S
H1153 C1177 0.951 . S
H1154 C1179 0.951 . S
H1155 C1181 0.950 . S
H1156 C1182 0.950 1_556 S
H1157 C1184 0.950 . S
H1158 C1187 0.950 . S
H1159 C1188 0.950 . S
H1160 C1190 0.950 . S
H1161 C1191 0.950 . S
C1162 H1144 0.951 . S
C1162 C1163 1.366 . S
C1162 C1164 1.388 . S
C1163 C1162 1.366 . S
C1163 C1167 1.385 . S
C1164 H1145 0.951 . S
C1164 C1162 1.388 . S
C1164 C1165 1.366 . S
C1165 C1164 1.366 . S
C1165 C1166 1.414 . S
C1165 C1168 1.499 . S
C1166 H1146 0.950 . S
C1166 C1165 1.414 . S
C1166 C1167 1.374 . S
C1167 H1147 0.950 . S
C1167 C1163 1.385 . S
C1167 C1166 1.374 . S
C1168 C1165 1.499 . S
C1168 C1169 1.373 . S
C1168 C1170 1.389 . S
C1169 H1148 0.950 . S
C1169 C1168 1.373 . S
C1169 C1185 1.377 . S
C1170 C1168 1.389 . S
C1170 C1171 1.524 . S
C1170 C1184 1.377 . S
C1171 C1170 1.524 . S
C1171 C1172 1.397 . S
C1171 C1176 1.363 . S
C1172 H1149 0.950 . S
C1172 C1171 1.397 . S
C1172 C1173 1.334 . S
C1173 H1150 0.950 . S
C1173 C1172 1.334 . S
C1173 C1174 1.287 . S
C1174 C1173 1.287 . S
C1174 C1175 1.524 . S
C1174 H1193 0.913 . S
C1175 H1151 0.950 1_554 S
C1175 C1174 1.524 . S
C1175 C1176 1.415 . S
C1176 H1152 0.950 . S
C1176 C1171 1.363 . S
C1176 C1175 1.415 . S
C1177 H1153 0.951 . S
C1177 C1178 1.366 . S
C1177 C1179 1.388 . S
C1178 C1177 1.366 . S
C1178 C1182 1.385 . S
C1179 H1154 0.951 . S
C1179 C1177 1.388 . S
C1179 C1180 1.366 . S
C1180 C1179 1.366 . S
C1180 C1181 1.414 . S
C1180 C1183 1.499 . S
C1181 H1155 0.950 . S
C1181 C1180 1.414 . S
C1181 C1182 1.374 . S
C1182 H1156 0.950 1_554 S
C1182 C1178 1.385 . S
C1182 C1181 1.374 . S
C1183 C1180 1.499 . S
C1183 C1184 1.373 . S
C1183 C1185 1.389 . S
C1184 H1157 0.950 . S
C1184 C1170 1.377 . S
C1184 C1183 1.373 . S
C1185 C1169 1.377 . S
C1185 C1183 1.389 . S
C1185 C1186 1.524 . S
C1186 C1185 1.524 . S
C1186 C1187 1.397 . S
C1186 C1191 1.363 . S
C1187 H1158 0.950 . S
C1187 C1186 1.397 . S
C1187 C1188 1.334 . S
C1188 H1159 0.950 . S
C1188 C1187 1.334 . S
C1188 C1189 1.287 . S
C1189 C1188 1.287 . S
C1189 C1190 1.524 . S
C1189 H1192 0.999 . S
C1190 H1160 0.950 . S
C1190 C1189 1.524 . S
C1190 C1191 1.415 . S
C1191 H1161 0.950 . S
C1191 C1186 1.363 . S
C1191 C1190 1.415 . S
H1192 C1189 0.999 . S
H1193 C1174 0.913 . S
H1194 C1212 0.951 . S
H1195 C1214 0.951 . S
H1196 C1216 0.950 . S
H1197 C1217 0.950 . S
H1198 C1219 0.950 . S
H1199 C1222 0.950 . S
H1200 C1223 0.950 . S
H1201 C1225 0.950 . S
H1202 C1226 0.950 . S
H1203 C1227 0.951 . S
H1204 C1229 0.951 . S
H1205 C1231 0.950 . S
H1206 C1232 0.950 . S
H1207 C1234 0.950 . S
H1208 C1237 0.950 . S
H1209 C1238 0.950 . S
H1210 C1240 0.950 . S
H1211 C1241 0.950 . S
C1212 H1194 0.951 . S
C1212 C1213 1.366 . S
C1212 C1214 1.388 . S
C1213 C1212 1.366 . S
C1213 C1217 1.385 . S
C1214 H1195 0.951 . S
C1214 C1212 1.388 . S
C1214 C1215 1.366 . S
C1215 C1214 1.366 . S
C1215 C1216 1.414 . S
C1215 C1218 1.499 . S
C1216 H1196 0.950 . S
C1216 C1215 1.414 . S
C1216 C1217 1.374 . S
C1217 H1197 0.950 . S
C1217 C1213 1.385 . S
C1217 C1216 1.374 . S
C1218 C1215 1.499 . S
C1218 C1219 1.373 . S
C1218 C1220 1.389 . S
C1219 H1198 0.950 . S
C1219 C1218 1.373 . S
C1219 C1235 1.377 . S
C1220 C1218 1.389 . S
C1220 C1221 1.524 . S
C1220 C1234 1.377 . S
C1221 C1220 1.524 . S
C1221 C1222 1.397 . S
C1221 C1226 1.363 . S
C1222 H1199 0.950 . S
C1222 C1221 1.397 . S
C1222 C1223 1.334 . S
C1223 H1200 0.950 . S
C1223 C1222 1.334 . S
C1223 C1224 1.287 . S
C1224 C1223 1.287 . S
C1224 C1225 1.524 . S
C1224 H1243 0.913 . S
C1225 H1201 0.950 . S
C1225 C1224 1.524 . S
C1225 C1226 1.415 . S
C1226 H1202 0.950 . S
C1226 C1221 1.363 . S
C1226 C1225 1.415 . S
C1227 H1203 0.951 . S
C1227 C1228 1.366 . S
C1227 C1229 1.388 . S
C1228 C1227 1.366 . S
C1228 C1232 1.385 . S
C1229 H1204 0.951 . S
C1229 C1227 1.388 . S
C1229 C1230 1.366 . S
C1230 C1229 1.366 . S
C1230 C1231 1.414 . S
C1230 C1233 1.499 . S
C1231 H1205 0.950 . S
C1231 C1230 1.414 . S
C1231 C1232 1.374 . S
C1232 H1206 0.950 . S
C1232 C1228 1.385 . S
C1232 C1231 1.374 . S
C1233 C1230 1.499 . S
C1233 C1234 1.373 . S
C1233 C1235 1.389 . S
C1234 H1207 0.950 . S
C1234 C1220 1.377 . S
C1234 C1233 1.373 . S
C1235 C1219 1.377 . S
C1235 C1233 1.389 . S
C1235 C1236 1.524 . S
C1236 C1235 1.524 . S
C1236 C1237 1.397 . S
C1236 C1241 1.363 . S
C1237 H1208 0.950 . S
C1237 C1236 1.397 . S
C1237 C1238 1.334 . S
C1238 H1209 0.950 . S
C1238 C1237 1.334 . S
C1238 C1239 1.287 . S
C1239 C1238 1.287 . S
C1239 C1240 1.524 . S
C1239 H1242 0.999 . S
C1240 H1210 0.950 . S
C1240 C1239 1.524 . S
C1240 C1241 1.415 . S
C1241 H1211 0.950 . S
C1241 C1236 1.363 . S
C1241 C1240 1.415 . S
H1242 C1239 0.999 . S
H1243 C1224 0.913 . S
H1244 C1262 0.951 . S
H1245 C1264 0.951 . S
H1246 C1266 0.950 . S
H1247 C1267 0.950 . S
H1248 C1269 0.950 1_554 S
H1249 C1272 0.950 . S
H1250 C1273 0.950 . S
H1251 C1275 0.950 . S
H1252 C1276 0.950 . S
H1253 C1277 0.951 . S
H1254 C1279 0.951 . S
H1255 C1281 0.950 . S
H1256 C1282 0.950 . S
H1257 C1284 0.950 . S
H1258 C1287 0.950 . S
H1259 C1288 0.950 . S
H1260 C1290 0.950 . S
H1261 C1291 0.950 . S
C1262 H1244 0.951 . S
C1262 C1263 1.366 . S
C1262 C1264 1.388 . S
C1263 C1262 1.366 . S
C1263 C1267 1.385 . S
C1264 H1245 0.951 . S
C1264 C1262 1.388 . S
C1264 C1265 1.366 . S
C1265 C1264 1.366 . S
C1265 C1266 1.414 . S
C1265 C1268 1.499 . S
C1266 H1246 0.950 . S
C1266 C1265 1.414 . S
C1266 C1267 1.374 . S
C1267 H1247 0.950 . S
C1267 C1263 1.385 . S
C1267 C1266 1.374 . S
C1268 C1265 1.499 . S
C1268 C1269 1.373 . S
C1268 C1270 1.389 . S
C1269 H1248 0.950 1_556 S
C1269 C1268 1.373 . S
C1269 C1285 1.383 . S
C1270 C1268 1.389 . S
C1270 C1271 1.524 . S
C1270 C1284 1.377 . S
C1271 C1270 1.524 . S
C1271 C1272 1.397 . S
C1271 C1276 1.363 . S
C1272 H1249 0.950 . S
C1272 C1271 1.397 . S
C1272 C1273 1.334 . S
C1273 H1250 0.950 . S
C1273 C1272 1.334 . S
C1273 C1274 1.287 . S
C1274 C1273 1.287 . S
C1274 C1275 1.524 . S
C1274 H1293 0.913 . S
C1275 H1251 0.950 . S
C1275 C1274 1.524 . S
C1275 C1276 1.415 . S
C1276 H1252 0.950 . S
C1276 C1271 1.363 . S
C1276 C1275 1.415 . S
C1277 H1253 0.951 . S
C1277 C1278 1.366 1_554 S
C1277 C1279 1.388 . S
C1278 C1277 1.366 1_556 S
C1278 C1282 1.385 1_655 S
C1279 H1254 0.951 . S
C1279 C1277 1.388 . S
C1279 C1280 1.366 1_554 S
C1280 C1279 1.366 1_556 S
C1280 C1281 1.414 1_655 S
C1280 C1283 1.499 . S
C1281 H1255 0.950 . S
C1281 C1280 1.414 1_455 S
C1281 C1282 1.374 . S
C1282 H1256 0.950 . S
C1282 C1278 1.385 1_455 S
C1282 C1281 1.374 . S
C1283 C1280 1.499 . S
C1283 C1284 1.373 . S
C1283 C1285 1.410 . S
C1284 H1257 0.950 . S
C1284 C1270 1.377 . S
C1284 C1283 1.373 . S
C1285 C1269 1.383 . S
C1285 C1283 1.410 . S
C1285 C1286 1.497 1_556 S
C1286 C1285 1.497 1_554 S
C1286 C1287 1.397 1_655 S
C1286 C1291 1.363 . S
C1287 H1258 0.950 . S
C1287 C1286 1.397 1_455 S
C1287 C1288 1.334 . S
C1288 H1259 0.950 . S
C1288 C1287 1.334 . S
C1288 C1289 1.287 1_455 S
C1289 C1288 1.287 1_655 S
C1289 C1290 1.524 . S
C1289 H1292 1.001 . S
C1290 H1260 0.950 . S
C1290 C1289 1.524 . S
C1290 C1291 1.415 . S
C1291 H1261 0.950 . S
C1291 C1286 1.363 . S
C1291 C1290 1.415 . S
H1292 C1289 1.001 . S
H1293 C1274 0.913 . S
H1294 C1312 0.951 . S
H1295 C1314 0.951 . S
H1296 C1316 0.950 . S
H1297 C1317 0.950 . S
H1298 C1319 0.950 . S
H1299 C1322 0.950 . S
H1300 C1323 0.950 . S
H1301 C1325 0.950 . S
H1302 C1326 0.950 . S
H1303 C1327 0.951 . S
H1304 C1329 0.951 . S
H1305 C1331 0.950 . S
H1306 C1332 0.950 . S
H1307 C1334 0.950 . S
H1308 C1337 0.950 . S
H1309 C1338 0.950 . S
H1310 C1340 0.950 . S
H1311 C1341 0.950 . S
C1312 H1294 0.951 . S
C1312 C1313 1.366 . S
C1312 C1314 1.388 . S
C1313 C1312 1.366 . S
C1313 C1317 1.385 . S
C1314 H1295 0.951 . S
C1314 C1312 1.388 . S
C1314 C1315 1.366 . S
C1315 C1314 1.366 . S
C1315 C1316 1.414 . S
C1315 C1318 1.499 . S
C1316 H1296 0.950 . S
C1316 C1315 1.414 . S
C1316 C1317 1.374 . S
C1317 H1297 0.950 . S
C1317 C1313 1.385 . S
C1317 C1316 1.374 . S
C1318 C1315 1.499 . S
C1318 C1319 1.373 . S
C1318 C1320 1.389 . S
C1319 H1298 0.950 . S
C1319 C1318 1.373 . S
C1319 C1335 1.377 . S
C1320 C1318 1.389 . S
C1320 C1321 1.524 . S
C1320 C1334 1.377 . S
C1321 C1320 1.524 . S
C1321 C1322 1.397 . S
C1321 C1326 1.363 . S
C1322 H1299 0.950 . S
C1322 C1321 1.397 . S
C1322 C1323 1.334 . S
C1323 H1300 0.950 . S
C1323 C1322 1.334 . S
C1323 C1324 1.287 . S
C1324 C1323 1.287 . S
C1324 C1325 1.524 . S
C1324 H1343 0.913 . S
C1325 H1301 0.950 . S
C1325 C1324 1.524 . S
C1325 C1326 1.415 . S
C1326 H1302 0.950 . S
C1326 C1321 1.363 . S
C1326 C1325 1.415 . S
C1327 H1303 0.951 . S
C1327 C1328 1.366 . S
C1327 C1329 1.388 . S
C1328 C1327 1.366 . S
C1328 C1332 1.385 . S
C1329 H1304 0.951 . S
C1329 C1327 1.388 . S
C1329 C1330 1.366 . S
C1330 C1329 1.366 . S
C1330 C1331 1.414 . S
C1330 C1333 1.499 . S
C1331 H1305 0.950 . S
C1331 C1330 1.414 . S
C1331 C1332 1.374 . S
C1332 H1306 0.950 . S
C1332 C1328 1.385 . S
C1332 C1331 1.374 . S
C1333 C1330 1.499 . S
C1333 C1334 1.373 . S
C1333 C1335 1.389 . S
C1334 H1307 0.950 . S
C1334 C1320 1.377 . S
C1334 C1333 1.373 . S
C1335 C1319 1.377 . S
C1335 C1333 1.389 . S
C1335 C1336 1.524 . S
C1336 C1335 1.524 . S
C1336 C1337 1.397 . S
C1336 C1341 1.363 . S
C1337 H1308 0.950 . S
C1337 C1336 1.397 . S
C1337 C1338 1.334 . S
C1338 H1309 0.950 . S
C1338 C1337 1.334 . S
C1338 C1339 1.287 . S
C1339 C1338 1.287 . S
C1339 C1340 1.524 . S
C1339 H1342 0.999 . S
C1340 H1310 0.950 . S
C1340 C1339 1.524 . S
C1340 C1341 1.415 . S
C1341 H1311 0.950 . S
C1341 C1336 1.363 . S
C1341 C1340 1.415 . S
H1342 C1339 0.999 . S
H1343 C1324 0.913 . S
H1344 C1362 0.951 . S
H1345 C1364 0.951 . S
H1346 C1366 0.950 . S
H1347 C1367 0.950 . S
H1348 C1369 0.950 . S
H1349 C1372 0.950 . S
H1350 C1373 0.950 . S
H1351 C1375 0.950 . S
H1352 C1376 0.950 . S
H1353 C1377 0.951 . S
H1354 C1379 0.951 . S
H1355 C1381 0.950 . S
H1356 C1382 0.950 . S
H1357 C1384 0.950 . S
H1358 C1387 0.932 1_455 S
H1359 C1388 0.950 . S
H1360 C1390 0.950 . S
H1361 C1391 0.950 1_455 S
C1362 H1344 0.951 . S
C1362 C1363 1.366 . S
C1362 C1364 1.388 . S
C1363 C1362 1.366 . S
C1363 C1367 1.385 . S
C1364 H1345 0.951 . S
C1364 C1362 1.388 . S
C1364 C1365 1.366 . S
C1365 C1364 1.366 . S
C1365 C1366 1.414 . S
C1365 C1368 1.499 . S
C1366 H1346 0.950 . S
C1366 C1365 1.414 . S
C1366 C1367 1.374 . S
C1367 H1347 0.950 . S
C1367 C1363 1.385 . S
C1367 C1366 1.374 . S
C1368 C1365 1.499 . S
C1368 C1369 1.373 . S
C1368 C1370 1.389 . S
C1369 H1348 0.950 . S
C1369 C1368 1.373 . S
C1369 C1385 1.377 . S
C1370 C1368 1.389 . S
C1370 C1371 1.524 . S
C1370 C1384 1.377 . S
C1371 C1370 1.524 . S
C1371 C1372 1.397 . S
C1371 C1376 1.363 . S
C1372 H1349 0.950 . S
C1372 C1371 1.397 . S
C1372 C1373 1.334 . S
C1373 H1350 0.950 . S
C1373 C1372 1.334 . S
C1373 C1374 1.287 . S
C1374 C1373 1.287 . S
C1374 C1375 1.524 . S
C1374 H1393 0.913 . S
C1375 H1351 0.950 . S
C1375 C1374 1.524 . S
C1375 C1376 1.415 . S
C1376 H1352 0.950 . S
C1376 C1371 1.363 . S
C1376 C1375 1.415 . S
C1377 H1353 0.951 . S
C1377 C1378 1.366 . S
C1377 C1379 1.388 . S
C1378 C1377 1.366 . S
C1378 C1382 1.385 . S
C1379 H1354 0.951 . S
C1379 C1377 1.388 . S
C1379 C1380 1.366 . S
C1380 C1379 1.366 . S
C1380 C1381 1.414 . S
C1380 C1383 1.499 . S
C1381 H1355 0.950 . S
C1381 C1380 1.414 . S
C1381 C1382 1.374 . S
C1382 H1356 0.950 . S
C1382 C1378 1.385 . S
C1382 C1381 1.374 . S
C1383 C1380 1.499 . S
C1383 C1384 1.373 . S
C1383 C1385 1.389 . S
C1384 H1357 0.950 . S
C1384 C1370 1.377 . S
C1384 C1383 1.373 . S
C1385 C1369 1.377 . S
C1385 C1383 1.389 . S
C1385 C1386 1.524 . S
C1386 C1385 1.524 . S
C1386 C1387 1.397 1_455 S
C1386 C1391 1.363 1_455 S
C1387 H1358 0.932 1_655 S
C1387 C1386 1.397 1_655 S
C1387 C1388 1.334 . S
C1388 H1359 0.950 . S
C1388 C1387 1.334 . S
C1388 C1389 1.287 . S
C1389 C1388 1.287 . S
C1389 C1390 1.524 . S
C1389 H1392 0.999 . S
C1390 H1360 0.950 . S
C1390 C1389 1.524 . S
C1390 C1391 1.415 . S
C1391 H1361 0.950 1_655 S
C1391 C1386 1.363 1_655 S
C1391 C1390 1.415 . S
H1392 C1389 0.999 . S
H1393 C1374 0.913 . S
H1394 C1412 0.951 . S
H1395 C1414 0.951 . S
H1396 C1416 0.950 . S
H1397 C1417 0.950 . S
H1398 C1419 0.950 . S
H1399 C1422 0.950 . S
H1400 C1423 0.950 . S
H1401 C1425 0.950 . S
H1402 C1426 0.950 . S
H1403 C1427 0.951 . S
H1404 C1429 0.951 . S
H1405 C1431 0.950 . S
H1406 C1432 0.950 . S
H1407 C1434 0.950 . S
H1408 C1437 0.950 . S
H1409 C1438 0.950 . S
H1410 C1440 0.950 . S
H1411 C1441 0.950 . S
C1412 H1394 0.951 . S
C1412 C1413 1.366 . S
C1412 C1414 1.388 . S
C1413 C1412 1.366 . S
C1413 C1417 1.385 . S
C1414 H1395 0.951 . S
C1414 C1412 1.388 . S
C1414 C1415 1.366 . S
C1415 C1414 1.366 . S
C1415 C1416 1.414 . S
C1415 C1418 1.499 . S
C1416 H1396 0.950 . S
C1416 C1415 1.414 . S
C1416 C1417 1.374 . S
C1417 H1397 0.950 . S
C1417 C1413 1.385 . S
C1417 C1416 1.374 . S
C1418 C1415 1.499 . S
C1418 C1419 1.373 . S
C1418 C1420 1.389 . S
C1419 H1398 0.950 . S
C1419 C1418 1.373 . S
C1419 C1435 1.377 . S
C1420 C1418 1.389 . S
C1420 C1421 1.524 . S
C1420 C1434 1.377 . S
C1421 C1420 1.524 . S
C1421 C1422 1.397 . S
C1421 C1426 1.363 . S
C1422 H1399 0.950 . S
C1422 C1421 1.397 . S
C1422 C1423 1.334 . S
C1423 H1400 0.950 . S
C1423 C1422 1.334 . S
C1423 C1424 1.287 . S
C1424 C1423 1.287 . S
C1424 C1425 1.524 . S
C1424 H1443 0.913 . S
C1425 H1401 0.950 . S
C1425 C1424 1.524 . S
C1425 C1426 1.415 . S
C1426 H1402 0.950 . S
C1426 C1421 1.363 . S
C1426 C1425 1.415 . S
C1427 H1403 0.951 . S
C1427 C1428 1.366 . S
C1427 C1429 1.388 . S
C1428 C1427 1.366 . S
C1428 C1432 1.385 . S
C1429 H1404 0.951 . S
C1429 C1427 1.388 . S
C1429 C1430 1.366 . S
C1430 C1429 1.366 . S
C1430 C1431 1.414 . S
C1430 C1433 1.499 . S
C1431 H1405 0.950 . S
C1431 C1430 1.414 . S
C1431 C1432 1.374 . S
C1432 H1406 0.950 . S
C1432 C1428 1.385 . S
C1432 C1431 1.374 . S
C1433 C1430 1.499 . S
C1433 C1434 1.373 . S
C1433 C1435 1.389 . S
C1434 H1407 0.950 . S
C1434 C1420 1.377 . S
C1434 C1433 1.373 . S
C1435 C1419 1.377 . S
C1435 C1433 1.389 . S
C1435 C1436 1.524 . S
C1436 C1435 1.524 . S
C1436 C1437 1.397 . S
C1436 C1441 1.363 . S
C1437 H1408 0.950 . S
C1437 C1436 1.397 . S
C1437 C1438 1.334 . S
C1438 H1409 0.950 . S
C1438 C1437 1.334 . S
C1438 C1439 1.287 . S
C1439 C1438 1.287 . S
C1439 C1440 1.524 . S
C1439 H1442 0.999 . S
C1440 H1410 0.950 . S
C1440 C1439 1.524 . S
C1440 C1441 1.415 . S
C1441 H1411 0.950 . S
C1441 C1436 1.363 . S
C1441 C1440 1.415 . S
H1442 C1439 0.999 . S
H1443 C1424 0.913 . S
C263 C6 1.906 . S
C278 C170 1.877 . S
C313 C21 2.259 . S
C328 C194 2.202 1_566 S
C378 C214 0.676 . S
C363 C49 0.691 . S
C413 C68 1.080 . S
C428 C237 1.196 . S
C478 C196 2.541 . S
C463 C2 2.543 . S
C528 C172 1.375 . S
C513 C30 1.275 . S
C578 C240 1.346 . S
C563 C40 1.391 . S
C628 C217 1.305 . S
C613 C63 1.322 . S
C663 C11 1.302 . S
C678 C242 1.432 . S
C728 C191 1.805 . S
C713 C44 1.795 . S
C763 C59 1.200 . S
C778 C169 1.213 . S
C813 C25 1.702 . S
C828 C219 1.669 . S
C878 C173 2.178 . S
C863 C82 2.155 1_545 S
C913 C101 1.869 . S
C928 C195 1.869 . S
C963 C125 1.493 . S
C978 C215 1.554 . S
C1013 C144 1.070 . S
C1028 C238 1.207 . S
C1063 C87 1.153 . S
C1078 C193 1.310 . S
C1128 C171 2.264 . S
C1113 C97 2.276 . S
C1178 C241 1.230 . S
C1163 C120 1.292 . S
C1228 C218 1.229 . S
C1213 C135 1.228 . S
C1263 C78 2.230 . S
C1278 C239 2.229 1_656 S
C1328 C192 1.084 . S
C1313 C116 1.067 . S
C1378 C168 1.679 . S
C1363 C139 1.652 . S
C1413 C106 1.723 . S
C1428 C216 1.790 . S
