# Generated by pormake.
# Topology zzz, (3,6)-cn, num edge types: 1
# Building blocks:
#     Node 0, Type 0, BuildingBlock: KAKCAD_clean_linker_0, # of connection points: 3
#     Node 1, Type 0, BuildingBlock: KAKCAD_clean_linker_0, # of connection points: 3
#     Node 2, Type 0, BuildingBlock: KAKCAD_clean_linker_0, # of connection points: 3
#     Node 3, Type 0, BuildingBlock: KAKCAD_clean_linker_0, # of connection points: 3
#     Node 4, Type 0, BuildingBlock: KAKCAD_clean_linker_0, # of connection points: 3
#     Node 5, Type 0, BuildingBlock: KAKCAD_clean_linker_0, # of connection points: 3
#     Node 6, Type 0, BuildingBlock: KAKCAD_clean_linker_0, # of connection points: 3
#     Node 7, Type 0, BuildingBlock: KAKCAD_clean_linker_0, # of connection points: 3
#     Node 8, Type 1, BuildingBlock: KUMBOL_clean_sbu_0, # of connection points: 6
#     Node 9, Type 1, BuildingBlock: KUMBOL_clean_sbu_0, # of connection points: 6
#     Node 10, Type 1, BuildingBlock: KUMBOL_clean_sbu_0, # of connection points: 6
#     Node 11, Type 1, BuildingBlock: KUMBOL_clean_sbu_0, # of connection points: 6
#     Edge 12, Type (0, 1), BuildingBlock: AJUNOK_clean_linker_0, # of connection points: 2
#     Edge 13, Type (0, 1), BuildingBlock: AJUNOK_clean_linker_0, # of connection points: 2
#     Edge 14, Type (0, 1), BuildingBlock: AJUNOK_clean_linker_0, # of connection points: 2
#     Edge 15, Type (0, 1), BuildingBlock: AJUNOK_clean_linker_0, # of connection points: 2
#     Edge 16, Type (0, 1), BuildingBlock: AJUNOK_clean_linker_0, # of connection points: 2
#     Edge 17, Type (0, 1), BuildingBlock: AJUNOK_clean_linker_0, # of connection points: 2
#     Edge 18, Type (0, 1), BuildingBlock: AJUNOK_clean_linker_0, # of connection points: 2
#     Edge 19, Type (0, 1), BuildingBlock: AJUNOK_clean_linker_0, # of connection points: 2
#     Edge 20, Type (0, 1), BuildingBlock: AJUNOK_clean_linker_0, # of connection points: 2
#     Edge 21, Type (0, 1), BuildingBlock: AJUNOK_clean_linker_0, # of connection points: 2
#     Edge 22, Type (0, 1), BuildingBlock: AJUNOK_clean_linker_0, # of connection points: 2
#     Edge 23, Type (0, 1), BuildingBlock: AJUNOK_clean_linker_0, # of connection points: 2
#     Edge 24, Type (0, 1), BuildingBlock: AJUNOK_clean_linker_0, # of connection points: 2
#     Edge 25, Type (0, 1), BuildingBlock: AJUNOK_clean_linker_0, # of connection points: 2
#     Edge 26, Type (0, 1), BuildingBlock: AJUNOK_clean_linker_0, # of connection points: 2
#     Edge 27, Type (0, 1), BuildingBlock: AJUNOK_clean_linker_0, # of connection points: 2
#     Edge 28, Type (0, 1), BuildingBlock: AJUNOK_clean_linker_0, # of connection points: 2
#     Edge 29, Type (0, 1), BuildingBlock: AJUNOK_clean_linker_0, # of connection points: 2
#     Edge 30, Type (0, 1), BuildingBlock: AJUNOK_clean_linker_0, # of connection points: 2
#     Edge 31, Type (0, 1), BuildingBlock: AJUNOK_clean_linker_0, # of connection points: 2
#     Edge 32, Type (0, 1), BuildingBlock: AJUNOK_clean_linker_0, # of connection points: 2
#     Edge 33, Type (0, 1), BuildingBlock: AJUNOK_clean_linker_0, # of connection points: 2
#     Edge 34, Type (0, 1), BuildingBlock: AJUNOK_clean_linker_0, # of connection points: 2
#     Edge 35, Type (0, 1), BuildingBlock: AJUNOK_clean_linker_0, # of connection points: 2
# Relax obj value: 0.331
# Max RMSD: 0.222
# Mean RMSD: 0.214
data_MOF--net-zzz--node1-KUMBOL_clean_sbu_0--node2-KAKCAD_clean_linker_0--edge1-AJUNOK_clean_linker_0
_symmetry_space_group_name_H-M    P1
_symmetry_Int_Tables_number       1
_symmetry_cell_setting            triclinic
loop_
_symmetry_equiv_pos_as_xyz
'x, y, z'
_cell_length_a     44.012391
_cell_length_b     44.051664
_cell_length_c     15.568138
_cell_angle_alpha  90.527981
_cell_angle_beta   90.229321
_cell_angle_gamma 89.863087
loop_
_atom_site_label
_atom_site_type_symbol
_atom_site_fract_x
_atom_site_fract_y
_atom_site_fract_z
_atom_type_partial_charge
C0 C 0.80007 0.6128 0.04391 0.0
C1 C 0.82478 0.59369 0.05897 0.0
C2 C 0.78111 0.6207 0.11205 0.0
C3 C 0.78636 0.60848 0.19403 0.0
C4 C 0.81273 0.5913 0.20922 0.0
C5 C 0.83217 0.58465 0.14253 0.0
C6 C 0.76234 0.60852 0.25918 0.0
C7 C 0.73256 0.60247 0.23429 0.0
C8 C 0.7098 0.59564 0.29337 0.0
C9 C 0.72016 0.58908 0.38088 0.0
C10 C 0.75177 0.59487 0.40608 0.0
C11 C 0.77042 0.60819 0.3453 0.0
C12 C 0.77084 0.5838 0.48296 0.0
C13 C 0.78272 0.60514 0.54349 0.0
C14 C 0.78917 0.55765 0.4696 0.0
C15 C 0.81851 0.55434 0.50731 0.0
C16 C 0.83142 0.57681 0.56139 0.0
C17 C 0.67774 0.59356 0.25156 0.0
C18 C 0.66958 0.6143 0.18533 0.0
C19 C 0.65888 0.56791 0.25795 0.0
C20 C 0.63412 0.56253 0.1999 0.0
C21 C 0.62883 0.58122 0.12776 0.0
C22 C 0.64655 0.60784 0.12375 0.0
C23 C 0.81218 0.60171 0.58197 0.0
H24 H 0.79443 0.61991 0.97937 0.0
H25 H 0.7612 0.63445 0.09933 0.0
H26 H 0.81726 0.58081 0.27064 0.0
H27 H 0.85136 0.56975 0.15447 0.0
H28 H 0.72725 0.60175 0.16627 0.0
H29 H 0.79364 0.61402 0.3627 0.0
H30 H 0.70446 0.57979 0.42696 0.0
H31 H 0.77049 0.62616 0.55464 0.0
H32 H 0.78224 0.54106 0.42166 0.0
H33 H 0.83197 0.53463 0.48995 0.0
H34 H 0.6831 0.63452 0.1759 0.0
H35 H 0.66515 0.55029 0.30241 0.0
H36 H 0.82051 0.61943 0.62449 0.0
H37 H 0.64384 0.62293 0.06966 0.0
H38 H 0.62145 0.54162 0.20571 0.0
C39 C 0.94103 0.81001 0.06769 0.0
C40 C 0.96883 0.8253 0.07113 0.0
C41 C 0.93516 0.78766 0.12813 0.0
C42 C 0.95695 0.78164 0.19146 0.0
C43 C 0.98581 0.79458 0.18853 0.0
C44 C 0.99195 0.81588 0.12727 0.0
C45 C 0.95102 0.76105 0.26053 0.0
C46 C 0.95394 0.73063 0.24265 0.0
C47 C 0.9589 0.70935 0.30672 0.0
C48 C 0.96483 0.72155 0.39362 0.0
C49 C 0.96144 0.75429 0.41185 0.0
C50 C 0.9521 0.77233 0.34371 0.0
C51 C 0.97183 0.77448 0.48869 0.0
C52 C 0.95042 0.78772 0.54658 0.0
C53 C 0.99857 0.79186 0.47744 0.0
C54 C 1.00266 0.82122 0.51489 0.0
C55 C 0.98054 0.8356 0.56753 0.0
C56 C 0.96045 0.67676 0.26849 0.0
C57 C 0.93931 0.66833 0.20308 0.0
C58 C 0.9872 0.65926 0.26983 0.0
C59 C 0.99272 0.63474 0.21054 0.0
C60 C 0.97354 0.62941 0.1388 0.0
C61 C 0.94643 0.6468 0.13794 0.0
C62 C 0.95472 0.81726 0.58554 0.0
H63 H 0.92354 0.81657 0.02236 0.0
H64 H 0.91331 0.7764 0.12858 0.0
H65 H 1.00321 0.78884 0.23526 0.0
H66 H 1.01405 0.82673 0.12781 0.0
H67 H 0.95432 0.72382 0.17535 0.0
H68 H 0.95015 0.79677 0.35272 0.0
H69 H 0.97212 0.70643 0.44408 0.0
H70 H 0.92895 0.77632 0.55634 0.0
H71 H 1.01529 0.78409 0.43129 0.0
H72 H 0.02296 0.83355 0.49777 0.0
H73 H 0.91863 0.68146 0.1953 0.0
H74 H 1.00557 0.6669 0.31047 0.0
H75 H 0.93713 0.82617 0.62713 0.0
H76 H 0.93113 0.64539 0.0843 0.0
H77 H 1.01424 0.62288 0.21416 0.0
C78 C 0.74943 0.94875 0.06286 0.0
C79 C 0.72297 0.96591 0.07129 0.0
C80 C 0.76775 0.94447 0.13442 0.0
C81 C 0.76009 0.95854 0.21297 0.0
C82 C 0.73201 0.97302 0.2227 0.0
C83 C 0.71317 0.97609 0.15221 0.0
C84 C 0.78317 0.96214 0.2795 0.0
C85 C 0.81214 0.97022 0.25548 0.0
C86 C 0.83681 0.96694 0.31095 0.0
C87 C 0.82892 0.96937 0.40265 0.0
C88 C 0.79666 0.96802 0.42877 0.0
C89 C 0.77579 0.96003 0.3652 0.0
C90 C 0.77945 0.97724 0.51151 0.0
C91 C 0.76446 0.95458 0.56049 0.0
C92 C 0.76441 1.00579 0.51131 0.0
C93 C 0.73487 1.01023 0.54711 0.0
C94 C 0.71833 0.9866 0.58705 0.0
C95 C 0.86692 0.96142 0.25949 0.0
C96 C 0.86469 0.94804 0.17565 0.0
C97 C 0.89646 0.97124 0.28087 0.0
C98 C 0.91945 0.97385 0.21556 0.0
C99 C 0.91294 0.96955 0.12658 0.0
C100 C 0.88597 0.95354 0.11035 0.0
C101 C 0.7349 0.95916 0.59766 0.0
H102 H 0.75715 0.9411 1.00029 0.0
H103 H 0.78913 0.93256 0.12662 0.0
H104 H 0.72576 0.98434 0.28218 0.0
H105 H 0.69279 0.98981 0.1586 0.0
H106 H 0.81564 0.97648 0.189 0.0
H107 H 0.75238 0.9552 0.38211 0.0
H108 H 0.84661 0.97209 0.45054 0.0
H109 H 0.77399 0.93191 0.56145 0.0
H110 H 0.77378 0.02394 0.47319 0.0
H111 H 0.724 0.03204 0.53803 0.0
H112 H 0.84461 0.93543 0.15694 0.0
H113 H 0.90162 0.97684 0.34692 0.0
H114 H 0.72391 0.94012 0.62802 0.0
H115 H 0.88075 0.94538 0.04621 0.0
H116 H 0.94215 0.97907 0.23452 0.0
C117 C 0.55684 0.74419 0.5712 0.0
C118 C 0.57854 0.72019 0.57055 0.0
C119 C 0.56241 0.77265 0.53105 0.0
C120 C 0.59022 0.77906 0.48962 0.0
C121 C 0.61328 0.75671 0.50056 0.0
C122 C 0.60757 0.72805 0.53925 0.0
C123 C 0.58972 0.79718 0.40557 0.0
C124 C 0.59381 0.82968 0.38812 0.0
C125 C 0.59011 0.84086 0.30028 0.0
C126 C 0.57932 0.81979 0.24037 0.0
C127 C 0.58386 0.78916 0.25211 0.0
C128 C 0.58642 0.77791 0.33444 0.0
C129 C 0.59086 0.76992 0.17735 0.0
C130 C 0.57627 0.77476 0.09843 0.0
C131 C 0.61388 0.74774 0.18255 0.0
C132 C 0.61795 0.7273 0.11492 0.0
C133 C 0.59772 0.72827 0.04513 0.0
C134 C 0.59889 0.871 0.25548 0.0
C135 C 0.58837 0.90022 0.27862 0.0
C136 C 0.6107 0.86874 0.1703 0.0
C137 C 0.60242 0.88951 0.10585 0.0
C138 C 0.58637 0.91617 0.12576 0.0
C139 C 0.58421 0.92315 0.21443 0.0
C140 C 0.5815 0.75517 0.03037 0.0
H141 H 0.53453 0.74034 0.59789 0.0
H142 H 0.54362 0.78837 0.52432 0.0
H143 H 0.63487 0.75977 0.46864 0.0
H144 H 0.62537 0.71106 0.53768 0.0
H145 H 0.60023 0.84512 0.43944 0.0
H146 H 0.58642 0.75345 0.34256 0.0
H147 H 0.57263 0.82752 0.17739 0.0
H148 H 0.55897 0.79197 0.09031 0.0
H149 H 0.62727 0.74494 0.24049 0.0
H150 H 0.63208 0.70746 0.12524 0.0
H151 H 0.5827 0.90497 0.34482 0.0
H152 H 0.62193 0.84803 0.14953 0.0
H153 H 0.56698 0.7577 0.97458 0.0
H154 H 0.5784 0.94598 0.23264 0.0
H155 H 0.60772 0.88405 0.03959 0.0
C156 C 0.26164 0.46166 0.32721 0.0
C157 C 0.23143 0.45432 0.30902 0.0
C158 C 0.28354 0.45664 0.26503 0.0
C159 C 0.27561 0.44228 0.18711 0.0
C160 C 0.24674 0.42894 0.17845 0.0
C161 C 0.22451 0.43512 0.2395 0.0
C162 C 0.29468 0.44726 0.111 0.0
C163 C 0.32605 0.44876 0.11968 0.0
C164 C 0.344 0.46345 0.05925 0.0
C165 C 0.32987 0.4699 0.97585 0.0
C166 C 0.29755 0.46387 0.96175 0.0
C167 C 0.28092 0.45577 0.03428 0.0
C168 C 0.27731 0.46541 0.88004 0.0
C169 C 0.27138 0.49234 0.83412 0.0
C170 C 0.25557 0.44188 0.86762 0.0
C171 C 0.22726 0.44666 0.82638 0.0
C172 C 0.21957 0.47463 0.78822 0.0
C173 C 0.37407 0.47482 0.0999 0.0
C174 C 0.37167 0.49485 0.17158 0.0
C175 C 0.40191 0.4585 0.09444 0.0
C176 C 0.42583 0.46238 0.15675 0.0
C177 C 0.42224 0.48135 0.2304 0.0
C178 C 0.39464 0.49753 0.23536 0.0
C179 C 0.24342 0.49659 0.78798 0.0
H180 H 0.26713 0.47643 0.38113 0.0
H181 H 0.30543 0.46738 0.2742 0.0
H182 H 0.24035 0.41688 0.12019 0.0
H183 H 0.20116 0.42908 0.22524 0.0
H184 H 0.33624 0.44178 0.18 0.0
H185 H 0.2563 0.45615 0.03089 0.0
H186 H 0.34325 0.47917 0.92449 0.0
H187 H 0.28706 0.51116 0.83972 0.0
H188 H 0.25877 0.42048 0.90032 0.0
H189 H 0.21068 0.42875 0.83122 0.0
H190 H 0.35043 0.50672 0.18263 0.0
H191 H 0.40473 0.44162 0.04408 0.0
H192 H 0.23982 0.51816 0.75684 0.0
H193 H 0.39032 0.51192 0.29078 0.0
H194 H 0.44641 0.44908 0.1499 0.0
C195 C 0.07994 0.2583 0.30959 0.0
C196 C 0.09244 0.22965 0.2917 0.0
C197 C 0.08495 0.2821 0.25355 0.0
C198 C 0.1033 0.27747 0.18105 0.0
C199 C 0.11994 0.25033 0.17254 0.0
C200 C 0.11416 0.22626 0.22715 0.0
C201 C 0.09899 0.29701 0.10598 0.0
C202 C 0.09608 0.32822 0.11602 0.0
C203 C 0.08364 0.3463 0.05146 0.0
C204 C 0.07878 0.33183 0.96692 0.0
C205 C 0.08517 0.2994 0.95385 0.0
C206 C 0.09279 0.28318 0.02726 0.0
C207 C 0.0831 0.27818 0.87339 0.0
C208 C 0.0553 0.27132 0.8324 0.0
C209 C 0.10639 0.25592 0.86073 0.0
C210 C 0.10088 0.22683 0.82249 0.0
C211 C 0.07195 0.21824 0.79053 0.0
C212 C 0.0723 0.37704 0.08843 0.0
C213 C 0.04824 0.376 0.14861 0.0
C214 C 0.09127 0.40313 0.09562 0.0
C215 C 0.08643 0.42631 0.15991 0.0
C216 C 0.06315 0.42384 0.22262 0.0
C217 C 0.04411 0.39832 0.2139 0.0
C218 C 0.04989 0.24234 0.79237 0.0
H219 H 0.06277 0.26098 0.35887 0.0
H220 H 0.07163 0.30264 0.26148 0.0
H221 H 0.13462 0.24651 0.11774 0.0
H222 H 0.12367 0.20412 0.21232 0.0
H223 H 0.10065 0.3381 0.17891 0.0
H224 H 0.09325 0.25857 0.02373 0.0
H225 H 0.07029 0.34503 0.9139 0.0
H226 H 0.03645 0.28697 0.83935 0.0
H227 H 0.12847 0.25968 0.88992 0.0
H228 H 0.11931 0.21054 0.82148 0.0
H229 H 0.03407 0.35595 0.15063 0.0
H230 H 0.11107 0.40471 0.05485 0.0
H231 H 0.02694 0.23835 0.77077 0.0
H232 H 0.02662 0.3946 0.26139 0.0
H233 H 0.10232 0.44499 0.16434 0.0
C234 C 0.29262 0.07882 0.3079 0.0
C235 C 0.32201 0.09038 0.29908 0.0
C236 C 0.27133 0.084 0.24393 0.0
C237 C 0.27904 0.10197 0.17329 0.0
C238 C 0.30676 0.11746 0.17222 0.0
C239 C 0.32827 0.11182 0.23569 0.0
C240 C 0.26036 0.10021 0.0958 0.0
C241 C 0.22922 0.10247 0.10321 0.0
C242 C 0.21017 0.08964 0.04143 0.0
C243 C 0.22365 0.08167 0.95813 0.0
C244 C 0.25636 0.08548 0.94479 0.0
C245 C 0.2736 0.09145 1.01858 0.0
C246 C 0.27647 0.08372 0.86314 0.0
C247 C 0.28236 0.05647 0.81739 0.0
C248 C 0.29863 0.10693 0.85222 0.0
C249 C 0.32723 0.10159 0.81231 0.0
C250 C 0.33507 0.073 0.77735 0.0
C251 C 0.18066 0.07919 0.0839 0.0
C252 C 0.18399 0.05589 0.14505 0.0
C253 C 0.15535 0.09889 0.09687 0.0
C254 C 0.13435 0.09474 0.16626 0.0
C255 C 0.13826 0.07108 0.22706 0.0
C256 C 0.1642 0.05262 0.21518 0.0
C257 C 0.31073 0.05151 0.77416 0.0
H258 H 0.28772 0.06191 0.35607 0.0
H259 H 0.25012 0.07156 0.24549 0.0
H260 H 0.31282 0.13159 0.11834 0.0
H261 H 0.35107 0.12059 0.22807 0.0
H262 H 0.21996 0.10959 0.1649 0.0
H263 H 0.29818 0.08949 1.01596 0.0
H264 H 0.20946 0.07283 0.90683 0.0
H265 H 0.26644 0.03786 0.8217 0.0
H266 H 0.29547 0.12852 0.88491 0.0
H267 H 0.34421 0.11931 0.81569 0.0
H268 H 0.20409 0.04163 0.14328 0.0
H269 H 0.15255 0.11837 0.05568 0.0
H270 H 0.31445 0.02961 0.74391 0.0
H271 H 0.1702 0.03576 0.26239 0.0
H272 H 0.11518 0.11005 0.17217 0.0
C273 C 0.45432 0.31447 0.76753 0.0
C274 C 0.48128 0.33139 0.7798 0.0
C275 C 0.45021 0.28567 0.80699 0.0
C276 C 0.47277 0.27248 0.86069 0.0
C277 C 0.50087 0.28795 0.86403 0.0
C278 C 0.50492 0.31672 0.82513 0.0
C279 C 0.46273 0.25503 0.94026 0.0
C280 C 0.47007 0.22433 0.9668 0.0
C281 C 0.462 0.21408 0.05225 0.0
C282 C 0.44963 0.23544 0.10903 0.0
C283 C 0.44552 0.2656 0.08584 0.0
C284 C 0.44877 0.27402 1.00046 0.0
C285 C 0.44604 0.28936 0.15313 0.0
C286 C 0.43246 0.28486 0.23382 0.0
C287 C 0.46471 0.3148 0.14093 0.0
C288 C 0.47023 0.33471 0.2078 0.0
C289 C 0.45818 0.32914 0.28924 0.0
C290 C 0.47135 0.18495 0.0976 0.0
C291 C 0.45107 0.16023 0.10798 0.0
C292 C 0.49544 0.18698 0.15741 0.0
C293 C 0.49934 0.16581 0.22383 0.0
C294 C 0.47941 0.14121 0.23517 0.0
C295 C 0.45502 0.13869 0.17536 0.0
C296 C 0.43895 0.30449 0.3023 0.0
H297 H 0.43538 0.3246 0.73359 0.0
H298 H 0.42787 0.27544 0.80396 0.0
H299 H 0.51865 0.27964 0.90601 0.0
H300 H 0.52606 0.32868 0.83639 0.0
H301 H 0.48222 0.2093 0.92365 0.0
H302 H 0.44389 0.2974 0.98346 0.0
H303 H 0.44666 0.22917 0.17569 0.0
H304 H 0.41798 0.26548 0.24504 0.0
H305 H 0.47677 0.3185 0.08143 0.0
H306 H 0.48592 0.35329 0.19762 0.0
H307 H 0.43132 0.15838 0.06657 0.0
H308 H 0.51046 0.20641 0.15604 0.0
H309 H 0.43007 0.29982 0.36559 0.0
H310 H 0.43905 0.12015 0.18042 0.0
H311 H 0.51776 0.16956 0.26895 0.0
Gd312 Gd 0.99449 0.04211 0.62304 0.0
Gd313 Gd 0.05373 1.01344 0.7367 0.0
C314 C 0.083 0.05694 0.97411 0.0
C315 C 0.13407 0.0361 0.97708 0.0
C316 C 0.10684 0.03927 0.84196 0.0
C317 C 0.08146 0.05048 0.88579 0.0
C318 C 0.13379 0.033 0.88746 0.0
C319 C 0.10871 0.04786 1.02013 0.0
C320 C 0.05757 0.06965 1.01472 0.0
C321 C 0.03104 0.07446 0.96752 0.0
N322 N 0.05419 0.05045 0.84536 0.0
C323 C 0.02935 0.06359 0.88333 0.0
H324 H 1.00772 0.06464 0.85113 0.0
C325 C 0.1279 1.01858 0.71416 0.0
N326 N 0.10358 0.02998 0.75884 0.0
C327 C 0.15581 1.01413 0.7555 0.0
C328 C 0.15854 1.02065 0.84305 0.0
H329 H 0.12511 1.00933 0.65013 0.0
H330 H 0.10847 0.04839 0.0893 0.0
H331 H 0.04076 0.9882 0.51777 0.0
H332 H 0.05812 0.07549 0.08246 0.0
H333 H 1.01122 0.08435 0.99785 0.0
H334 H 0.15339 0.02821 1.01371 0.0
H335 H 0.92157 0.04154 0.70595 0.0
H336 H 1.00009 0.99581 0.27218 0.0
H337 H 0.04167 0.97672 0.36268 0.0
H338 H 0.90362 0.04221 0.33471 0.0
H339 H 0.17457 1.0038 0.72121 0.0
H340 H 0.17957 1.01536 0.87619 0.0
H341 H 0.95146 0.02751 0.2644 0.0
H342 H 0.87342 0.04962 0.62882 0.0
N343 N 0.99506 1.0046 0.51595 0.0
C344 C 0.99768 0.99652 0.34072 0.0
C345 C 0.02158 0.98635 0.39196 0.0
C346 C 0.9714 1.00826 0.37911 0.0
C347 C 0.96942 1.00794 0.46885 0.0
C348 C 1.02055 0.99202 0.48016 0.0
N349 N 0.94513 0.02483 0.59548 0.0
C350 C 0.94339 1.01843 0.51011 0.0
C351 C 0.89297 0.04077 0.5948 0.0
C352 C 0.89246 0.03863 0.50517 0.0
C353 C 0.92003 0.03475 0.63927 0.0
C354 C 0.91836 0.02854 0.46165 0.0
H355 H 0.8725 0.0461 0.47019 0.0
O356 O 0.96166 0.07827 0.59781 0.0
O357 O 0.03704 0.0602 0.68847 0.0
O358 O 1.01307 1.0061 0.82185 0.0
O359 O 0.97213 0.02818 0.75296 0.0
O360 O 0.99947 0.08775 0.68941 0.0
O361 O 0.99361 0.06302 0.49916 0.0
O362 O 0.08585 0.97577 0.74906 0.0
O363 O 1.01306 0.99596 0.66107 0.0
O364 O 0.03622 0.05179 0.5406 0.0
O365 O 0.07548 0.02531 0.60494 0.0
O366 O 0.04482 0.96548 0.69213 0.0
O367 O 0.06064 0.993 0.86011 0.0
C368 C 0.02781 0.08763 0.71089 0.0
C369 C 0.92161 0.03208 0.37265 0.0
C370 C 0.94864 0.02318 0.3323 0.0
C371 C 0.9714 0.08139 0.51899 0.0
C372 C 0.97275 0.11178 0.48243 0.0
C373 C 0.94572 0.12841 0.47574 0.0
C374 C 0.99968 0.12312 0.44649 0.0
C375 C 0.99949 0.15123 0.4052 0.0
C376 C 0.94537 0.15614 0.43365 0.0
C377 C 0.97203 0.16753 0.39853 0.0
C378 C 0.98401 1.01321 0.81964 0.0
C379 C 1.01758 0.96642 0.66297 0.0
C380 C 0.08041 0.97324 0.83132 0.0
C381 C 0.07792 0.94277 0.86678 0.0
C382 C 0.1046 0.92675 0.88616 0.0
C383 C 0.04964 0.93106 0.89064 0.0
C384 C 0.04834 0.90394 0.93586 0.0
C385 C 0.10316 0.8995 0.93098 0.0
C386 C 0.07509 0.88819 0.95654 0.0
C387 C 0.0648 0.04256 0.54128 0.0
H388 H 0.92471 0.11963 0.5017 0.0
H389 H 1.02056 0.11014 0.45005 0.0
H390 H 0.92439 0.16887 0.4283 0.0
H391 H 0.97128 0.18944 0.36754 0.0
H392 H 0.12659 0.93578 0.86874 0.0
H393 H 0.02885 0.94328 0.87606 0.0
H394 H 0.12382 0.88737 0.94678 0.0
H395 H 0.07416 0.86712 0.99187 0.0
Gd396 Gd 0.51019 0.99673 0.62266 0.0
Gd397 Gd 0.54027 0.05615 0.73804 0.0
C398 C 0.49419 0.08308 0.97593 0.0
C399 C 0.51026 0.1357 0.97973 0.0
C400 C 0.51124 0.10761 0.84525 0.0
C401 C 0.50174 0.08168 0.88837 0.0
C402 C 0.51474 0.13513 0.89073 0.0
C403 C 0.49996 0.10979 0.02208 0.0
C404 C 0.48336 0.0569 1.01584 0.0
C405 C 0.48045 0.03014 0.96809 0.0
N406 N 0.50357 0.05451 0.84757 0.0
C407 C 0.49109 0.02921 0.88381 0.0
H408 H 0.4896 1.00805 0.84914 0.0
C409 C 0.5309 0.12984 0.719 0.0
N410 N 0.52105 0.1049 0.76271 0.0
C411 C 0.53297 0.15803 0.76046 0.0
C412 C 0.5256 0.16052 0.84725 0.0
H413 H 0.54062 0.12762 0.65565 0.0
H414 H 0.49796 0.11005 0.09101 0.0
H415 H 0.55961 0.04532 0.51153 0.0
H416 H 0.47702 0.0572 0.08302 0.0
H417 H 0.47135 1.0099 0.99724 0.0
H418 H 0.51603 0.15576 1.01648 0.0
H419 H 0.51219 0.92468 0.69953 0.0
H420 H 0.55671 1.00211 0.26532 0.0
H421 H 0.56978 0.04666 0.35602 0.0
H422 H 0.51723 0.90356 0.32987 0.0
H423 H 0.54209 0.17737 0.72693 0.0
H424 H 0.52909 0.18193 0.88056 0.0
H425 H 0.52915 0.95144 0.2581 0.0
H426 H 0.5075 0.87581 0.62415 0.0
N427 N 0.54509 0.99926 0.51004 0.0
C428 C 0.55455 1.00082 0.33449 0.0
C429 C 0.56127 0.02618 0.38517 0.0
C430 C 0.54468 0.97416 0.37389 0.0
C431 C 0.5438 0.97315 0.46392 0.0
C432 C 0.55535 0.02532 0.47326 0.0
N433 N 0.52893 0.94831 0.59109 0.0
C434 C 0.53527 0.94671 0.50576 0.0
C435 C 0.51569 0.89551 0.59033 0.0
C436 C 0.51873 0.89452 0.50114 0.0
C437 C 0.52004 0.92298 0.63436 0.0
C438 C 0.52762 0.92063 0.45758 0.0
H439 H 0.51286 0.87394 0.46627 0.0
O440 O 0.47426 0.96313 0.60577 0.0
O441 O 0.49423 0.03735 0.69755 0.0
O442 O 0.54901 1.01536 0.82258 0.0
O443 O 0.52516 0.97493 0.75392 0.0
O444 O 0.46326 1.00404 0.67869 0.0
O445 O 0.48727 0.99329 0.50096 0.0
O446 O 0.57672 0.0893 0.74736 0.0
O447 O 0.55646 1.01605 0.65782 0.0
O448 O 0.49889 0.03894 0.54393 0.0
O449 O 0.52652 0.07782 0.60796 0.0
O450 O 0.5888 0.04598 0.6938 0.0
O451 O 0.56134 0.06439 0.86057 0.0
C452 C 0.46516 0.03158 0.70584 0.0
C453 C 0.52534 0.92262 0.36791 0.0
C454 C 0.53273 0.94971 0.32677 0.0
C455 C 0.46998 0.97097 0.52564 0.0
C456 C 0.43931 0.97009 0.48977 0.0
C457 C 0.42601 0.94164 0.47539 0.0
C458 C 0.42496 0.99636 0.45922 0.0
C459 C 0.39776 0.99386 0.41273 0.0
C460 C 0.39874 0.93925 0.43008 0.0
C461 C 0.38468 0.96523 0.39846 0.0
C462 C 0.54118 0.98643 0.82044 0.0
C463 C 0.58607 1.01977 0.65852 0.0
C464 C 0.57992 0.08465 0.82991 0.0
C465 C 0.61049 0.08427 0.86577 0.0
C466 C 0.62204 0.11176 0.89672 0.0
C467 C 0.62644 0.05701 0.87925 0.0
C468 C 0.65339 0.05709 0.92839 0.0
C469 C 0.64807 0.11204 0.94717 0.0
C470 C 0.66294 0.08495 0.96562 0.0
C471 C 0.50813 0.06749 0.54587 0.0
H472 H 0.43717 0.92114 0.4973 0.0
H473 H 0.43526 1.01847 0.46916 0.0
H474 H 0.38865 0.9172 0.41873 0.0
H475 H 0.36342 0.963 0.36366 0.0
H476 H 0.60999 0.13287 0.88568 0.0
H477 H 0.61771 0.0364 0.85057 0.0
H478 H 0.65633 0.13323 0.97401 0.0
H479 H 0.68225 0.08614 1.00872 0.0
Gd480 Gd 0.49914 0.54028 0.74111 0.0
Gd481 Gd 0.55058 0.51208 0.62014 0.0
C482 C 0.6421 0.47869 0.70651 0.0
C483 C 0.67414 0.49913 0.59439 0.0
C484 C 0.62104 0.51447 0.60344 0.0
C485 C 0.61713 0.4951 0.67362 0.0
C486 C 0.64931 0.51528 0.56105 0.0
C487 C 0.67069 0.48138 0.66776 0.0
C488 C 0.63739 0.45892 0.77511 0.0
C489 C 0.6082 0.45519 0.80798 0.0
N490 N 0.58879 0.49073 0.7058 0.0
C491 C 0.58393 0.47114 0.77187 0.0
H492 H 0.56138 0.4676 0.79684 0.0
C493 C 0.59911 0.54597 0.49673 0.0
N494 N 0.59679 0.53013 0.57152 0.0
C495 C 0.6261 0.54628 0.45164 0.0
C496 C 0.65144 0.53098 0.48353 0.0
H497 H 0.57931 0.55663 0.4684 0.0
H498 H 0.69006 0.46885 0.69207 0.0
H499 H 0.48636 0.58068 0.5566 0.0
H500 H 0.65605 0.44599 0.80207 0.0
H501 H 0.60431 0.43964 0.8602 0.0
H502 H 0.69605 0.4998 0.56296 0.0
H503 H 0.468 0.49501 0.89247 0.0
H504 H 0.39337 0.60798 0.56114 0.0
H505 H 0.44432 0.61043 0.49576 0.0
H506 H 0.35236 0.55387 0.79834 0.0
H507 H 0.62671 0.55841 0.39231 0.0
H508 H 0.67246 0.53113 0.44761 0.0
H509 H 0.35929 0.58639 0.67282 0.0
H510 H 0.41886 0.49145 0.96366 0.0
N511 N 0.46016 0.56284 0.659 0.0
C512 C 0.41189 0.59499 0.5886 0.0
C513 C 0.44063 0.59662 0.55187 0.0
C514 C 0.40718 0.57616 0.65921 0.0
C515 C 0.43199 0.55962 0.69273 0.0
C516 C 0.46457 0.58021 0.58775 0.0
N517 N 0.45188 0.52384 0.79261 0.0
C518 C 0.42782 0.54001 0.76165 0.0
C519 C 0.42076 0.50446 0.90584 0.0
C520 C 0.39594 0.52061 0.87467 0.0
C521 C 0.44856 0.50613 0.86394 0.0
C522 C 0.39907 0.53826 0.8012 0.0
H523 H 0.37464 0.52001 0.90901 0.0
O524 O 0.49447 0.54515 0.88081 0.0
O525 O 0.54797 0.52801 0.76305 0.0
O526 O 0.52917 0.46811 0.6676 0.0
O527 O 0.48881 0.48783 0.7451 0.0
O528 O 0.54779 0.52839 0.76344 0.0
O529 O 0.49315 0.58456 0.79459 0.0
O530 O 0.55255 0.50686 0.48024 0.0
O531 O 0.50193 0.52414 0.60366 0.0
O532 O 0.51835 0.58397 0.68154 0.0
O533 O 0.56152 0.56463 0.61767 0.0
O534 O 0.50191 0.52401 0.60321 0.0
O535 O 0.56522 0.46994 0.56511 0.0
C536 C 0.56647 0.54864 0.79549 0.0
C537 C 0.37455 0.55506 0.76861 0.0
C538 C 0.37852 0.57369 0.69737 0.0
C539 C 0.48952 0.57407 0.87181 0.0
C540 C 0.48704 0.59528 0.94251 0.0
C541 C 0.46566 0.59137 1.00767 0.0
C542 C 0.50531 0.62083 0.94116 0.0
C543 C 0.50227 0.64323 1.00389 0.0
C544 C 0.46198 0.61405 0.0701 0.0
C545 C 0.48006 0.64011 0.06804 0.0
C546 C 0.50415 0.46394 0.71303 0.0
C547 C 0.47923 0.51436 0.55539 0.0
C548 C 0.56495 0.48018 0.48689 0.0
C549 C 0.56221 0.45783 0.41864 0.0
C550 C 0.57937 0.4606 0.34344 0.0
C551 C 0.54491 0.43209 0.43222 0.0
C552 C 0.54385 0.40926 0.37048 0.0
C553 C 0.57899 0.43726 0.28193 0.0
C554 C 0.56111 0.41152 0.29514 0.0
C555 C 0.54446 0.58855 0.64125 0.0
H556 H 0.45145 0.57133 1.00891 0.0
H557 H 0.52308 0.62232 0.89324 0.0
H558 H 0.44533 0.61133 0.1204 0.0
H559 H 0.47762 0.65713 0.1182 0.0
H560 H 0.59333 0.48046 0.33316 0.0
H561 H 0.53122 0.43032 0.48964 0.0
H562 H 0.5921 0.43936 0.22362 0.0
H563 H 0.55961 0.3942 0.24543 0.0
Gd564 Gd 1.01249 0.50167 0.73932 0.0
Gd565 Gd 0.03957 0.5531 0.62734 0.0
C566 C 0.07639 0.64425 0.71274 0.0
C567 C 0.05765 0.67622 0.59793 0.0
C568 C 0.04041 0.62387 0.60835 0.0
C569 C 0.05928 0.6197 0.67948 0.0
C570 C 0.0414 0.65156 0.56354 0.0
C571 C 0.07455 0.67275 0.67349 0.0
C572 C 0.09605 0.63915 0.78195 0.0
C573 C 0.0988 0.61005 0.81552 0.0
N574 N 0.06259 0.59137 0.71217 0.0
C575 C 0.08184 0.58631 0.77987 0.0
H576 H 0.08424 0.56403 0.80733 0.0
C577 C 1.00925 0.60213 0.49997 0.0
N578 N 0.02394 0.60004 0.57692 0.0
C579 C 1.01337 0.62721 0.44911 0.0
C580 C 0.02856 0.65265 0.48136 0.0
H581 H 0.99779 0.5826 0.47234 0.0
H582 H 0.08745 0.69183 0.69839 0.0
H583 H 0.96826 0.49247 0.55881 0.0
H584 H 0.1096 0.65742 0.809 0.0
H585 H 0.11415 0.60583 0.86859 0.0
H586 H 0.05813 0.69778 0.56501 0.0
H587 H 0.05854 0.46927 0.88766 0.0
H588 H 0.94157 0.39939 0.55414 0.0
H589 H 0.93823 0.4511 0.49473 0.0
H590 H 0.99529 0.35623 0.79045 0.0
H591 H 1.00534 0.62554 0.3847 0.0
H592 H 0.03128 0.67251 0.44169 0.0
H593 H 0.9629 0.36437 0.66416 0.0
H594 H 0.05969 0.4203 0.95948 0.0
N595 N 0.98961 0.46428 0.65227 0.0
C596 C 0.95546 0.41734 0.58149 0.0
C597 C 0.95342 0.44651 0.54792 0.0
C598 C 0.97509 0.41168 0.65049 0.0
C599 C 0.99281 0.43575 0.68391 0.0
C600 C 0.97055 0.46992 0.58463 0.0
N601 N 0.02946 0.45414 0.78582 0.0
C602 C 1.01258 0.43072 0.75326 0.0
C603 C 0.04706 0.42257 0.90063 0.0
C604 C 0.03007 0.39842 0.86836 0.0
C605 C 0.04672 0.45025 0.85845 0.0
C606 C 1.013 0.40207 0.79328 0.0
H607 H 0.02953 0.37729 0.90317 0.0
O608 O 1.00859 0.49737 0.87926 0.0
O609 O 0.02497 0.54967 0.76943 0.0
O610 O 0.08327 0.53315 0.68127 0.0
O611 O 0.06448 0.48934 0.73965 0.0
O612 O 0.02489 0.54971 0.76954 0.0
O613 O 0.97007 0.48861 0.7953 0.0
O614 O 0.04513 0.55414 0.48668 0.0
O615 O 0.02726 0.50511 0.59794 0.0
O616 O 0.96825 0.52321 0.68924 0.0
O617 O 0.98721 0.56517 0.62098 0.0
O618 O 0.02733 0.50511 0.59787 0.0
O619 O 0.08346 0.56248 0.57386 0.0
C620 C 1.00439 0.56814 0.80158 0.0
C621 C 0.99515 0.37831 0.76028 0.0
C622 C 0.97661 0.38298 0.68851 0.0
C623 C 0.98095 0.48721 0.87308 0.0
C624 C 0.95939 0.49155 0.943 0.0
C625 C 0.95988 0.47199 1.01358 0.0
C626 C 0.93542 0.51173 0.9327 0.0
C627 C 0.91122 0.51203 0.99018 0.0
C628 C 0.93587 0.47235 0.07221 0.0
C629 C 0.91132 0.49206 0.0601 0.0
C630 C 0.08808 0.50654 0.71715 0.0
C631 C 0.048 0.48672 0.56662 0.0
C632 C 0.07319 0.56261 0.49542 0.0
C633 C 0.09431 0.56498 0.4243 0.0
C634 C 0.08624 0.58053 0.3495 0.0
C635 C 0.1218 0.54944 0.42887 0.0
C636 C 0.13938 0.54539 0.35522 0.0
C637 C 0.10539 0.57947 0.27834 0.0
C638 C 0.13144 0.56134 0.28014 0.0
C639 C 0.96331 0.54897 0.64775 0.0
H640 H 0.97823 0.45581 0.02155 0.0
H641 H 0.93544 0.52678 0.87832 0.0
H642 H 0.9361 0.45706 0.12625 0.0
H643 H 0.89286 0.49219 0.10592 0.0
H644 H 0.06506 0.59305 0.34587 0.0
H645 H 0.12848 0.53911 0.48891 0.0
H646 H 0.09923 0.59141 0.22033 0.0
H647 H 0.14449 0.5589 0.22168 0.0
C648 C 0.10259 0.08731 0.354 0.0
C649 C 0.11657 0.06444 0.30268 0.0
C650 C 0.0863 0.08023 0.43081 0.0
C651 C 0.08394 0.05017 0.46246 0.0
H652 H 0.10484 0.11091 0.3362 0.0
H653 H 0.07606 0.09858 0.46707 0.0
S654 S 0.11037 0.98164 0.34468 0.0
N655 N 0.12047 1.00986 0.2823 0.0
N656 N 0.09453 0.99749 0.42992 0.0
C657 C 0.0967 0.02734 0.41018 0.0
C658 C 0.11157 0.03424 0.33 0.0
C659 C 0.51527 0.11097 0.33199 0.0
C660 C 0.48513 0.11943 0.31008 0.0
C661 C 0.52261 0.09557 0.40909 0.0
C662 C 0.50018 0.08662 0.46797 0.0
H663 H 0.53377 0.11709 0.28996 0.0
H664 H 0.54622 0.09066 0.42252 0.0
S665 S 0.4179 0.10261 0.44478 0.0
N666 N 0.43259 0.11725 0.35699 0.0
N667 N 0.44631 0.08702 0.49809 0.0
C668 C 0.46986 0.09365 0.44565 0.0
C669 C 0.46234 0.11007 0.36794 0.0
C670 C 0.43752 0.4698 0.38587 0.0
C671 C 0.44494 0.48303 0.30649 0.0
C672 C 0.45374 0.47638 0.46316 0.0
C673 C 0.47797 0.49757 0.46875 0.0
H674 H 0.41774 0.4553 0.38951 0.0
H675 H 0.44485 0.46688 0.52192 0.0
S676 S 0.50915 0.53647 0.27634 0.0
N677 N 0.48164 0.51517 0.2359 0.0
N678 N 0.50897 0.53096 0.38129 0.0
C679 C 0.4866 0.51003 0.38838 0.0
C680 C 0.47101 0.5019 0.3081 0.0
C681 C 0.04528 0.47119 0.31474 0.0
C682 C 0.06142 0.44318 0.30622 0.0
C683 C 0.03942 0.4854 0.39716 0.0
C684 C 0.0492 0.47219 0.47577 0.0
H685 H 0.03639 0.48186 0.25751 0.0
H686 H 0.0272 0.50671 0.39879 0.0
S687 S 0.09211 0.39951 0.48956 0.0
N688 N 0.08736 0.40405 0.38535 0.0
N689 N 0.07613 0.42935 0.5359 0.0
C690 C 0.06571 0.44475 0.46656 0.0
C691 C 0.07184 0.43072 0.38385 0.0
C692 C 0.91807 0.98834 0.9701 0.0
C693 C 0.93226 0.98158 0.05036 0.0
C694 C 0.93415 0.99929 0.89734 0.0
C695 C 0.96569 1.00456 0.89948 0.0
H696 H 0.89381 0.98544 0.96263 0.0
H697 H 0.9217 1.00308 0.83828 0.0
S698 S 1.01489 0.99454 0.09264 0.0
N699 N 0.98105 0.98333 0.12482 0.0
N700 N 1.01031 1.00462 0.99193 0.0
C701 C 0.98019 0.99924 0.97964 0.0
C702 C 0.96391 0.98781 0.05354 0.0
C703 C 0.57477 0.96667 0.04656 0.0
C704 C 0.57143 0.93491 0.05384 0.0
C705 C 0.56451 0.98265 0.97239 0.0
C706 C 0.54952 0.96817 0.90164 0.0
H707 H 0.58713 0.97907 0.09582 0.0
H708 H 0.5693 1.00673 0.96997 0.0
S709 S 0.52508 0.88749 0.90445 0.0
N710 N 0.54542 0.89122 0.99318 0.0
N711 N 0.52577 0.92093 0.8574 0.0
C712 C 0.54298 0.93713 0.91363 0.0
C713 C 0.55385 0.92079 0.98837 0.0
C714 C 0.57937 0.56741 0.04041 0.0
C715 C 0.61145 0.56964 0.04764 0.0
C716 C 0.56465 0.55754 0.96228 0.0
C717 C 0.5809 0.54898 0.88666 0.0
H718 H 0.56542 0.57418 0.09448 0.0
H719 H 0.5403 0.55796 0.961 0.0
S720 S 0.6654 0.54853 0.87543 0.0
N721 N 0.6586 0.56061 0.97397 0.0
N722 N 0.63183 0.54286 0.8302 0.0
C723 C 0.61293 0.55046 0.89561 0.0
C724 C 0.62776 0.5604 0.97448 0.0
C725 C 0.99109 0.58066 0.05043 0.0
C726 C 0.98469 0.61234 0.05683 0.0
C727 C 1.00044 0.56631 0.97087 0.0
C728 C 1.00401 0.58268 0.8928 0.0
H729 H 0.98813 0.56664 0.10654 0.0
H730 H 1.00363 0.5421 0.97074 0.0
S731 S 0.99319 0.66612 0.87733 0.0
N732 N 0.98561 0.6592 0.97879 0.0
N733 N 1.00113 0.63296 0.83246 0.0
C734 C 0.9983 0.61418 0.90053 0.0
C735 C 0.9894 0.62865 0.98081 0.0
C736 C 0.04916 0.19685 0.26074 0.0
C737 C 0.07409 0.20347 0.31401 0.0
C738 C 0.02627 0.17759 0.28825 0.0
C739 C 0.02757 0.16448 0.37002 0.0
H740 H 0.04636 0.20829 0.19984 0.0
H741 H 1.00652 0.17443 0.24739 0.0
S742 S 0.09179 0.17037 0.52509 0.0
N743 N 0.10149 0.19275 0.44528 0.0
N744 N 0.05852 0.1557 0.49797 0.0
C745 C 0.0541 0.16853 0.42004 0.0
C746 C 0.07737 0.18848 0.39189 0.0
C747 C 0.35428 0.06754 0.41213 0.0
C748 C 0.34636 0.07018 0.32547 0.0
C749 C 0.3726 0.04346 0.43927 0.0
C750 C 0.38243 0.02108 0.38063 0.0
H751 H 0.34552 0.08355 0.45919 0.0
H752 H 0.37793 0.04154 0.50703 0.0
S753 S 0.36445 1.01656 0.14796 0.0
N754 N 0.34789 0.04808 0.18183 0.0
N755 N 0.38193 1.00248 0.23291 0.0
C756 C 0.37453 0.02361 0.2936 0.0
C757 C 0.35648 0.0483 0.26595 0.0
C758 C 0.46555 0.37783 0.35744 0.0
C759 C 0.47122 0.34653 0.35991 0.0
C760 C 0.48959 0.39812 0.36433 0.0
C761 C 0.51932 0.38749 0.3772 0.0
H762 H 0.44375 0.38627 0.3353 0.0
H763 H 0.48532 0.42198 0.35274 0.0
S764 S 0.54315 0.30855 0.41986 0.0
N765 N 0.50632 0.30639 0.39961 0.0
N766 N 0.55201 0.34492 0.41349 0.0
C767 C 0.52428 0.35685 0.39508 0.0
C768 C 0.49965 0.33625 0.38879 0.0
C769 C 0.21167 0.50573 0.29151 0.0
C770 C 0.20905 0.47738 0.33116 0.0
C771 C 0.1899 0.52813 0.30395 0.0
C772 C 0.16414 0.52262 0.35415 0.0
H773 H 0.23055 0.51042 0.24912 0.0
H774 H 0.19304 0.54968 0.27229 0.0
S775 S 0.149 0.45223 0.47771 0.0
N776 N 0.18119 0.44521 0.42747 0.0
N777 N 0.13844 0.48659 0.44849 0.0
C778 C 0.16185 0.49433 0.39656 0.0
C779 C 0.18464 0.47174 0.38491 0.0
C780 C 0.9828 0.85075 0.93868 0.0
C781 C 0.97409 0.85324 0.0248 0.0
C782 C 1.00515 0.86996 0.90669 0.0
C783 C 1.01909 0.89149 0.96084 0.0
H784 H 0.9756 0.83147 0.89998 0.0
H785 H 1.01381 0.86586 0.84254 0.0
S786 S 0.99959 0.90941 0.18694 0.0
N787 N 0.97582 0.88224 0.15798 0.0
N788 N 1.02021 0.91645 0.10084 0.0
C789 C 1.00769 0.89657 0.0436 0.0
C790 C 0.98388 0.87817 0.07429 0.0
C791 C 0.72273 1.01021 0.98151 0.0
C792 C 0.71048 0.98168 0.99812 0.0
C793 C 0.70427 0.03348 0.95167 0.0
C794 C 0.67268 0.02936 0.9404 0.0
H795 H 0.74586 1.01551 1.00055 0.0
H796 H 0.71484 0.05534 0.94217 0.0
S797 S 0.63455 0.95378 0.94271 0.0
N798 N 0.66929 0.94689 0.97648 0.0
N799 N 0.63259 0.99083 0.9267 0.0
C800 C 0.66149 0.9992 0.94516 0.0
C801 C 0.68103 0.97529 0.97242 0.0
C802 C 0.56809 0.68528 0.09716 0.0
C803 C 0.58009 0.70082 0.02613 0.0
C804 C 0.54183 0.6682 0.08964 0.0
C805 C 0.52656 0.66576 1.01099 0.0
H806 H 0.57765 0.68799 0.161 0.0
H807 H 0.53369 0.65649 0.14596 0.0
S808 S 0.54912 0.70112 0.80516 0.0
N809 N 0.57598 0.7112 0.87384 0.0
N810 N 0.52514 0.68 0.85986 0.0
C811 C 0.53866 0.68036 0.93853 0.0
C812 C 0.56601 0.69721 0.94588 0.0
C813 C 0.83299 0.54661 0.98355 0.0
C814 C 0.84016 0.57763 0.98991 0.0
C815 C 0.8562 0.52497 0.98105 0.0
C816 C 0.88667 0.53418 0.97835 0.0
H817 H 0.81005 0.53899 0.99627 0.0
H818 H 0.85043 0.50116 0.98612 0.0
S819 S 0.91446 0.61255 0.94921 0.0
N820 N 0.87763 0.61649 0.96495 0.0
N821 N 0.9217 0.57594 0.95512 0.0
C822 C 0.89321 0.56506 0.9668 0.0
C823 C 0.86961 0.58688 0.97159 0.0
C824 C 0.07944 0.15796 0.79356 0.0
C825 C 0.06441 0.18453 0.76115 0.0
C826 C 0.06985 0.127 0.77423 0.0
C827 C 0.04409 0.11994 0.72157 0.0
H828 H 0.0983 0.1609 0.83761 0.0
H829 H 0.08204 0.10861 0.8044 0.0
S830 S 0.99987 0.1805 0.60707 0.0
N831 N 0.02582 0.19994 0.65983 0.0
N832 N 1.00604 0.14466 0.63186 0.0
C833 C 0.03024 0.14662 0.68581 0.0
C834 C 0.04067 0.17765 0.70291 0.0
C835 C 0.39072 0.08335 0.71708 0.0
C836 C 0.36898 0.06428 0.75837 0.0
C837 C 0.42243 0.07489 0.70584 0.0
C838 C 0.43498 0.0472 0.73773 0.0
H839 H 0.3831 0.10484 0.69142 0.0
H840 H 0.43694 0.08984 0.66973 0.0
S841 S 0.3883 0.98937 0.85092 0.0
N842 N 0.36356 1.01641 0.83028 0.0
N843 N 0.42095 1.00118 0.812 0.0
C844 C 0.41313 0.02861 0.7794 0.0
C845 C 0.38121 0.03683 0.78897 0.0
C846 C 0.48809 0.37712 0.67616 0.0
C847 C 0.48342 0.36551 0.75969 0.0
C848 C 0.49351 0.40875 0.66152 0.0
C849 C 0.49409 0.43082 0.72896 0.0
H850 H 0.48861 0.36156 0.62188 0.0
H851 H 0.49764 0.41594 0.59642 0.0
S852 S 0.48047 0.41251 0.95832 0.0
N853 N 0.47785 0.37925 0.90931 0.0
N854 N 0.48762 0.43753 0.88259 0.0
C855 C 0.48791 0.41942 0.81171 0.0
C856 C 0.48277 0.38732 0.8266 0.0
C857 C 0.17484 0.51192 0.76441 0.0
C858 C 0.18638 0.48187 0.75929 0.0
C859 C 0.1437 0.51916 0.75005 0.0
C860 C 0.12136 0.49693 0.73164 0.0
H861 H 0.18974 0.53035 0.78288 0.0
H862 H 0.13693 0.54273 0.75604 0.0
S863 S 0.13905 0.41563 0.68891 0.0
N864 N 0.17231 0.4303 0.71576 0.0
N865 N 0.11421 0.44373 0.696 0.0
C866 C 0.13249 0.46698 0.72119 0.0
C867 C 0.16457 0.45959 0.73309 0.0
C868 C 1.0152 0.87831 0.62505 0.0
C869 C 0.98578 0.86915 0.60017 0.0
C870 C 0.02329 0.90903 0.64235 0.0
C871 C 1.00312 0.93453 0.63675 0.0
H872 H 0.03294 0.86133 0.63023 0.0
H873 H 0.04683 0.91253 0.66011 0.0
S874 S 0.92006 0.92297 0.59555 0.0
N875 N 0.9341 0.88826 0.58547 0.0
N876 N 0.94908 0.94565 0.6181 0.0
C877 C 0.97244 0.92553 0.61867 0.0
C878 C 0.96401 0.8934 0.60098 0.0
C879 C 0.66836 0.98449 0.68379 0.0
C880 C 0.68328 0.9899 0.60424 0.0
C881 C 0.63626 0.99065 0.69697 0.0
C882 C 0.61612 1.00211 0.63212 0.0
H883 H 0.68175 0.97667 0.73779 0.0
H884 H 0.62728 0.98771 0.76072 0.0
S885 S 0.6439 1.01902 0.41101 0.0
N886 N 0.67441 1.00557 0.45876 0.0
N887 N 0.61702 1.01879 0.48435 0.0
C888 C 0.63141 1.00687 0.55277 0.0
C889 C 0.66366 1.00023 0.53888 0.0
C890 C 0.58955 0.66631 0.63637 0.0
C891 C 0.56998 0.68676 0.59197 0.0
C892 C 0.58178 0.63501 0.65122 0.0
C893 C 0.55403 0.62188 0.62203 0.0
H894 H 0.6111 0.67459 0.6607 0.0
H895 H 0.59762 0.62105 0.68683 0.0
S896 S 0.49563 0.66429 0.49719 0.0
N897 N 0.52198 0.69 0.51624 0.0
N898 N 0.50781 0.63296 0.54336 0.0
C899 C 0.5346 0.64218 0.57766 0.0
C900 C 0.5424 0.6738 0.56286 0.0
C901 C 0.88951 0.58865 0.553 0.0
C902 C 0.86476 0.57371 0.59305 0.0
C903 C 0.92082 0.58177 0.57235 0.0
C904 C 0.92957 0.55903 0.63202 0.0
H905 H 0.88469 0.60517 0.50367 0.0
H906 H 0.93831 0.59368 0.53755 0.0
S907 S 0.87358 0.51584 0.76276 0.0
N908 N 0.85183 0.53769 0.70277 0.0
N909 N 0.9089 0.52355 0.73538 0.0
C910 C 0.9047 0.5451 0.67488 0.0
C911 C 0.87309 0.55264 0.65652 0.0
loop_
_geom_bond_atom_site_label_1
_geom_bond_atom_site_label_2
_geom_bond_distance
_geom_bond_site_symmetry_2
_ccdc_geom_bond_type
C0 C1 1.386 . S
C0 C2 1.397 . S
C0 H24 0.931 1_554 S
C1 C0 1.386 . S
C1 C5 1.397 . S
C2 C0 1.397 . S
C2 C3 1.384 . S
C2 H25 0.930 . S
C3 C2 1.384 . S
C3 C4 1.377 . S
C3 C6 1.481 . S
C4 C3 1.377 . S
C4 C5 1.389 . S
C4 H26 0.929 . S
C5 C1 1.397 . S
C5 C4 1.389 . S
C5 H27 0.931 . S
C6 C3 1.481 . S
C6 C7 1.387 . S
C6 C11 1.390 . S
C7 C6 1.387 . S
C7 C8 1.401 . S
C7 H28 0.930 . S
C8 C7 1.401 . S
C8 C9 1.376 . S
C8 C17 1.511 . S
C9 C8 1.376 . S
C9 C10 1.392 . S
C9 H30 0.931 . S
C10 C9 1.392 . S
C10 C11 1.361 . S
C10 C12 1.500 . S
C11 C6 1.390 . S
C11 C10 1.361 . S
C11 H29 0.931 . S
C12 C10 1.500 . S
C12 C13 1.371 . S
C12 C14 1.365 . S
C13 C12 1.371 . S
C13 C23 1.386 . S
C13 H31 0.931 . S
C14 C12 1.365 . S
C14 C15 1.409 . S
C14 H32 0.929 . S
C15 C14 1.409 . S
C15 C16 1.380 . S
C15 H33 0.930 . S
C16 C15 1.380 . S
C16 C23 1.357 . S
C17 C8 1.511 . S
C17 C18 1.341 . S
C17 C19 1.371 . S
C18 C17 1.341 . S
C18 C22 1.394 . S
C18 H34 0.930 . S
C19 C17 1.371 . S
C19 C20 1.392 . S
C19 H35 0.931 . S
C20 C19 1.392 . S
C20 C21 1.331 . S
C20 H38 0.932 . S
C21 C20 1.331 . S
C21 C22 1.336 . S
C22 C18 1.394 . S
C22 C21 1.336 . S
C22 H37 0.929 . S
C23 C13 1.386 . S
C23 C16 1.357 . S
C23 H36 0.928 . S
H24 C0 0.931 1_556 S
H25 C2 0.930 . S
H26 C4 0.929 . S
H27 C5 0.931 . S
H28 C7 0.930 . S
H29 C11 0.931 . S
H30 C9 0.931 . S
H31 C13 0.931 . S
H32 C14 0.929 . S
H33 C15 0.930 . S
H34 C18 0.930 . S
H35 C19 0.931 . S
H36 C23 0.928 . S
H37 C22 0.929 . S
H38 C20 0.932 . S
C39 C40 1.386 . S
C39 C41 1.397 . S
C39 H63 0.931 1_554 S
C40 C39 1.386 . S
C40 C44 1.397 . S
C41 C39 1.397 . S
C41 C42 1.384 . S
C41 H64 0.930 . S
C42 C41 1.384 . S
C42 C43 1.377 . S
C42 C45 1.481 . S
C43 C42 1.377 . S
C43 C44 1.389 . S
C43 H65 0.929 . S
C44 C40 1.397 . S
C44 C43 1.389 . S
C44 H66 0.931 . S
C45 C42 1.481 . S
C45 C46 1.387 . S
C45 C50 1.390 . S
C46 C45 1.387 . S
C46 C47 1.401 . S
C46 H67 0.930 . S
C47 C46 1.401 . S
C47 C48 1.376 . S
C47 C56 1.511 . S
C48 C47 1.376 . S
C48 C49 1.392 . S
C48 H69 0.931 . S
C49 C48 1.392 . S
C49 C50 1.361 . S
C49 C51 1.500 . S
C50 C45 1.390 . S
C50 C49 1.361 . S
C50 H68 0.931 . S
C51 C49 1.500 . S
C51 C52 1.371 . S
C51 C53 1.365 . S
C52 C51 1.371 . S
C52 C62 1.386 . S
C52 H70 0.931 . S
C53 C51 1.365 . S
C53 C54 1.409 . S
C53 H71 0.929 . S
C54 C53 1.409 . S
C54 C55 1.380 . S
C54 H72 0.930 . S
C55 C54 1.380 . S
C55 C62 1.357 . S
C56 C47 1.511 . S
C56 C57 1.341 . S
C56 C58 1.371 . S
C57 C56 1.341 . S
C57 C61 1.394 . S
C57 H73 0.930 . S
C58 C56 1.371 . S
C58 C59 1.392 . S
C58 H74 0.931 . S
C59 C58 1.392 . S
C59 C60 1.331 . S
C59 H77 0.932 . S
C60 C59 1.331 . S
C60 C61 1.336 . S
C61 C57 1.394 . S
C61 C60 1.336 . S
C61 H76 0.929 . S
C62 C52 1.386 . S
C62 C55 1.357 . S
C62 H75 0.928 . S
H63 C39 0.931 1_556 S
H64 C41 0.930 . S
H65 C43 0.929 . S
H66 C44 0.931 . S
H67 C46 0.930 . S
H68 C50 0.931 . S
H69 C48 0.931 . S
H70 C52 0.931 . S
H71 C53 0.929 . S
H72 C54 0.930 . S
H73 C57 0.930 . S
H74 C58 0.931 . S
H75 C62 0.928 . S
H76 C61 0.929 . S
H77 C59 0.932 . S
C78 C79 1.386 . S
C78 C80 1.397 . S
C78 H102 0.931 1_554 S
C79 C78 1.386 . S
C79 C83 1.397 . S
C80 C78 1.397 . S
C80 C81 1.384 . S
C80 H103 0.930 . S
C81 C80 1.384 . S
C81 C82 1.377 . S
C81 C84 1.481 . S
C82 C81 1.377 . S
C82 C83 1.389 . S
C82 H104 0.929 . S
C83 C79 1.397 . S
C83 C82 1.389 . S
C83 H105 0.931 . S
C84 C81 1.481 . S
C84 C85 1.387 . S
C84 C89 1.390 . S
C85 C84 1.387 . S
C85 C86 1.401 . S
C85 H106 0.930 . S
C86 C85 1.401 . S
C86 C87 1.376 . S
C86 C95 1.511 . S
C87 C86 1.376 . S
C87 C88 1.392 . S
C87 H108 0.931 . S
C88 C87 1.392 . S
C88 C89 1.361 . S
C88 C90 1.500 . S
C89 C84 1.390 . S
C89 C88 1.361 . S
C89 H107 0.931 . S
C90 C88 1.500 . S
C90 C91 1.371 . S
C90 C92 1.365 . S
C91 C90 1.371 . S
C91 C101 1.386 . S
C91 H109 0.931 . S
C92 C90 1.365 . S
C92 C93 1.409 . S
C92 H110 0.929 . S
C93 C92 1.409 . S
C93 C94 1.380 . S
C93 H111 0.930 . S
C94 C93 1.380 . S
C94 C101 1.357 . S
C95 C86 1.511 . S
C95 C96 1.341 . S
C95 C97 1.371 . S
C96 C95 1.341 . S
C96 C100 1.394 . S
C96 H112 0.930 . S
C97 C95 1.371 . S
C97 C98 1.392 . S
C97 H113 0.931 . S
C98 C97 1.392 . S
C98 C99 1.331 . S
C98 H116 0.932 . S
C99 C98 1.331 . S
C99 C100 1.336 . S
C100 C96 1.394 . S
C100 C99 1.336 . S
C100 H115 0.929 . S
C101 C91 1.386 . S
C101 C94 1.357 . S
C101 H114 0.928 . S
H102 C78 0.931 1_556 S
H103 C80 0.930 . S
H104 C82 0.929 . S
H105 C83 0.931 . S
H106 C85 0.930 . S
H107 C89 0.931 . S
H108 C87 0.931 . S
H109 C91 0.931 . S
H110 C92 0.929 . S
H111 C93 0.930 . S
H112 C96 0.930 . S
H113 C97 0.931 . S
H114 C101 0.928 . S
H115 C100 0.929 . S
H116 C98 0.932 . S
C117 C118 1.386 . S
C117 C119 1.397 . S
C117 H141 0.931 . S
C118 C117 1.386 . S
C118 C122 1.397 . S
C119 C117 1.397 . S
C119 C120 1.384 . S
C119 H142 0.930 . S
C120 C119 1.384 . S
C120 C121 1.377 . S
C120 C123 1.481 . S
C121 C120 1.377 . S
C121 C122 1.389 . S
C121 H143 0.929 . S
C122 C118 1.397 . S
C122 C121 1.389 . S
C122 H144 0.931 . S
C123 C120 1.481 . S
C123 C124 1.387 . S
C123 C128 1.390 . S
C124 C123 1.387 . S
C124 C125 1.401 . S
C124 H145 0.930 . S
C125 C124 1.401 . S
C125 C126 1.376 . S
C125 C134 1.511 . S
C126 C125 1.376 . S
C126 C127 1.392 . S
C126 H147 0.931 . S
C127 C126 1.392 . S
C127 C128 1.361 . S
C127 C129 1.500 . S
C128 C123 1.390 . S
C128 C127 1.361 . S
C128 H146 0.931 . S
C129 C127 1.500 . S
C129 C130 1.371 . S
C129 C131 1.365 . S
C130 C129 1.371 . S
C130 C140 1.386 . S
C130 H148 0.931 . S
C131 C129 1.365 . S
C131 C132 1.409 . S
C131 H149 0.929 . S
C132 C131 1.409 . S
C132 C133 1.380 . S
C132 H150 0.930 . S
C133 C132 1.380 . S
C133 C140 1.357 . S
C134 C125 1.511 . S
C134 C135 1.341 . S
C134 C136 1.371 . S
C135 C134 1.341 . S
C135 C139 1.394 . S
C135 H151 0.930 . S
C136 C134 1.371 . S
C136 C137 1.392 . S
C136 H152 0.931 . S
C137 C136 1.392 . S
C137 C138 1.331 . S
C137 H155 0.932 . S
C138 C137 1.331 . S
C138 C139 1.336 . S
C139 C135 1.394 . S
C139 C138 1.336 . S
C139 H154 0.929 . S
C140 C130 1.386 . S
C140 C133 1.357 . S
C140 H153 0.928 1_554 S
H141 C117 0.931 . S
H142 C119 0.930 . S
H143 C121 0.929 . S
H144 C122 0.931 . S
H145 C124 0.930 . S
H146 C128 0.931 . S
H147 C126 0.931 . S
H148 C130 0.931 . S
H149 C131 0.929 . S
H150 C132 0.930 . S
H151 C135 0.930 . S
H152 C136 0.931 . S
H153 C140 0.928 1_556 S
H154 C139 0.929 . S
H155 C137 0.932 . S
C156 C157 1.386 . S
C156 C158 1.397 . S
C156 H180 0.931 . S
C157 C156 1.386 . S
C157 C161 1.397 . S
C158 C156 1.397 . S
C158 C159 1.384 . S
C158 H181 0.930 . S
C159 C158 1.384 . S
C159 C160 1.377 . S
C159 C162 1.481 . S
C160 C159 1.377 . S
C160 C161 1.389 . S
C160 H182 0.929 . S
C161 C157 1.397 . S
C161 C160 1.389 . S
C161 H183 0.931 . S
C162 C159 1.481 . S
C162 C163 1.387 . S
C162 C167 1.390 . S
C163 C162 1.387 . S
C163 C164 1.401 . S
C163 H184 0.930 . S
C164 C163 1.401 . S
C164 C165 1.376 1_554 S
C164 C173 1.511 . S
C165 C164 1.376 1_556 S
C165 C166 1.392 . S
C165 H186 0.931 . S
C166 C165 1.392 . S
C166 C167 1.361 1_556 S
C166 C168 1.500 . S
C167 C162 1.390 . S
C167 C166 1.361 1_554 S
C167 H185 0.931 1_554 S
C168 C166 1.500 . S
C168 C169 1.371 . S
C168 C170 1.365 . S
C169 C168 1.371 . S
C169 C179 1.386 . S
C169 H187 0.931 . S
C170 C168 1.365 . S
C170 C171 1.409 . S
C170 H188 0.929 . S
C171 C170 1.409 . S
C171 C172 1.380 . S
C171 H189 0.930 . S
C172 C171 1.380 . S
C172 C179 1.357 . S
C173 C164 1.511 . S
C173 C174 1.341 . S
C173 C175 1.371 . S
C174 C173 1.341 . S
C174 C178 1.394 . S
C174 H190 0.930 . S
C175 C173 1.371 . S
C175 C176 1.392 . S
C175 H191 0.931 1_554 S
C176 C175 1.392 . S
C176 C177 1.331 . S
C176 H194 0.932 1_554 S
C177 C176 1.331 . S
C177 C178 1.336 . S
C178 C174 1.394 . S
C178 C177 1.336 . S
C178 H193 0.929 . S
C179 C169 1.386 . S
C179 C172 1.357 . S
C179 H192 0.928 . S
H180 C156 0.931 . S
H181 C158 0.930 . S
H182 C160 0.929 . S
H183 C161 0.931 . S
H184 C163 0.930 . S
H185 C167 0.931 1_556 S
H186 C165 0.931 . S
H187 C169 0.931 . S
H188 C170 0.929 . S
H189 C171 0.930 . S
H190 C174 0.930 . S
H191 C175 0.931 1_556 S
H192 C179 0.928 . S
H193 C178 0.929 . S
H194 C176 0.932 1_556 S
C195 C196 1.386 . S
C195 C197 1.397 . S
C195 H219 0.931 . S
C196 C195 1.386 . S
C196 C200 1.397 . S
C197 C195 1.397 . S
C197 C198 1.384 . S
C197 H220 0.930 . S
C198 C197 1.384 . S
C198 C199 1.377 . S
C198 C201 1.481 . S
C199 C198 1.377 . S
C199 C200 1.389 . S
C199 H221 0.929 . S
C200 C196 1.397 . S
C200 C199 1.389 . S
C200 H222 0.931 . S
C201 C198 1.481 . S
C201 C202 1.387 . S
C201 C206 1.390 . S
C202 C201 1.387 . S
C202 C203 1.401 . S
C202 H223 0.930 . S
C203 C202 1.401 . S
C203 C204 1.376 1_554 S
C203 C212 1.511 . S
C204 C203 1.376 1_556 S
C204 C205 1.392 . S
C204 H225 0.931 . S
C205 C204 1.392 . S
C205 C206 1.361 1_556 S
C205 C207 1.500 . S
C206 C201 1.390 . S
C206 C205 1.361 1_554 S
C206 H224 0.931 1_554 S
C207 C205 1.500 . S
C207 C208 1.371 . S
C207 C209 1.365 . S
C208 C207 1.371 . S
C208 C218 1.386 . S
C208 H226 0.931 . S
C209 C207 1.365 . S
C209 C210 1.409 . S
C209 H227 0.929 . S
C210 C209 1.409 . S
C210 C211 1.380 . S
C210 H228 0.930 . S
C211 C210 1.380 . S
C211 C218 1.357 . S
C212 C203 1.511 . S
C212 C213 1.341 . S
C212 C214 1.371 . S
C213 C212 1.341 . S
C213 C217 1.394 . S
C213 H229 0.930 . S
C214 C212 1.371 . S
C214 C215 1.392 . S
C214 H230 0.931 1_554 S
C215 C214 1.392 . S
C215 C216 1.331 . S
C215 H233 0.932 1_554 S
C216 C215 1.331 . S
C216 C217 1.336 . S
C217 C213 1.394 . S
C217 C216 1.336 . S
C217 H232 0.929 . S
C218 C208 1.386 . S
C218 C211 1.357 . S
C218 H231 0.928 . S
H219 C195 0.931 . S
H220 C197 0.930 . S
H221 C199 0.929 . S
H222 C200 0.931 . S
H223 C202 0.930 . S
H224 C206 0.931 1_556 S
H225 C204 0.931 . S
H226 C208 0.931 . S
H227 C209 0.929 . S
H228 C210 0.930 . S
H229 C213 0.930 . S
H230 C214 0.931 1_556 S
H231 C218 0.928 . S
H232 C217 0.929 . S
H233 C215 0.932 1_556 S
C234 C235 1.386 . S
C234 C236 1.397 . S
C234 H258 0.931 . S
C235 C234 1.386 . S
C235 C239 1.397 . S
C236 C234 1.397 . S
C236 C237 1.384 . S
C236 H259 0.930 . S
C237 C236 1.384 . S
C237 C238 1.377 . S
C237 C240 1.481 . S
C238 C237 1.377 . S
C238 C239 1.389 . S
C238 H260 0.929 . S
C239 C235 1.397 . S
C239 C238 1.389 . S
C239 H261 0.931 . S
C240 C237 1.481 . S
C240 C241 1.387 . S
C240 C245 1.391 1_554 S
C241 C240 1.387 . S
C241 C242 1.401 . S
C241 H262 0.930 . S
C242 C241 1.401 . S
C242 C243 1.376 1_554 S
C242 C251 1.511 . S
C243 C242 1.376 1_556 S
C243 C244 1.392 . S
C243 H264 0.931 . S
C244 C243 1.392 . S
C244 C245 1.361 . S
C244 C246 1.500 . S
C245 C240 1.391 1_556 S
C245 C244 1.361 . S
C245 H263 0.931 . S
C246 C244 1.500 . S
C246 C247 1.371 . S
C246 C248 1.365 . S
C247 C246 1.371 . S
C247 C257 1.386 . S
C247 H265 0.931 . S
C248 C246 1.365 . S
C248 C249 1.409 . S
C248 H266 0.929 . S
C249 C248 1.409 . S
C249 C250 1.380 . S
C249 H267 0.930 . S
C250 C249 1.380 . S
C250 C257 1.357 . S
C251 C242 1.511 . S
C251 C252 1.341 . S
C251 C253 1.371 . S
C252 C251 1.341 . S
C252 C256 1.394 . S
C252 H268 0.930 . S
C253 C251 1.371 . S
C253 C254 1.392 . S
C253 H269 0.931 1_554 S
C254 C253 1.392 . S
C254 C255 1.331 . S
C254 H272 0.932 1_554 S
C255 C254 1.331 . S
C255 C256 1.336 . S
C256 C252 1.394 . S
C256 C255 1.336 . S
C256 H271 0.929 . S
C257 C247 1.386 . S
C257 C250 1.357 . S
C257 H270 0.928 . S
H258 C234 0.931 . S
H259 C236 0.930 . S
H260 C238 0.929 . S
H261 C239 0.931 . S
H262 C241 0.930 . S
H263 C245 0.931 . S
H264 C243 0.931 . S
H265 C247 0.931 . S
H266 C248 0.929 . S
H267 C249 0.930 . S
H268 C252 0.930 . S
H269 C253 0.931 1_556 S
H270 C257 0.928 . S
H271 C256 0.929 . S
H272 C254 0.932 1_556 S
C273 C274 1.386 . S
C273 C275 1.397 . S
C273 H297 0.931 . S
C274 C273 1.386 . S
C274 C278 1.397 . S
C275 C273 1.397 . S
C275 C276 1.384 . S
C275 H298 0.930 . S
C276 C275 1.384 . S
C276 C277 1.377 . S
C276 C279 1.481 . S
C277 C276 1.377 . S
C277 C278 1.389 . S
C277 H299 0.929 . S
C278 C274 1.397 . S
C278 C277 1.389 . S
C278 H300 0.931 . S
C279 C276 1.481 . S
C279 C280 1.387 . S
C279 C284 1.390 1_556 S
C280 C279 1.387 . S
C280 C281 1.401 1_556 S
C280 H301 0.930 . S
C281 C280 1.401 1_554 S
C281 C282 1.376 . S
C281 C290 1.511 . S
C282 C281 1.376 . S
C282 C283 1.392 . S
C282 H303 0.931 . S
C283 C282 1.392 . S
C283 C284 1.361 . S
C283 C285 1.500 . S
C284 C279 1.390 1_554 S
C284 C283 1.361 . S
C284 H302 0.931 1_554 S
C285 C283 1.500 . S
C285 C286 1.371 . S
C285 C287 1.365 . S
C286 C285 1.371 . S
C286 C296 1.386 . S
C286 H304 0.931 . S
C287 C285 1.365 . S
C287 C288 1.409 . S
C287 H305 0.929 . S
C288 C287 1.409 . S
C288 C289 1.380 . S
C288 H306 0.930 . S
C289 C288 1.380 . S
C289 C296 1.357 . S
C290 C281 1.511 . S
C290 C291 1.341 . S
C290 C292 1.371 . S
C291 C290 1.341 . S
C291 C295 1.394 . S
C291 H307 0.930 1_554 S
C292 C290 1.371 . S
C292 C293 1.392 . S
C292 H308 0.931 . S
C293 C292 1.392 . S
C293 C294 1.331 . S
C293 H311 0.932 . S
C294 C293 1.331 . S
C294 C295 1.336 . S
C295 C291 1.394 . S
C295 C294 1.336 . S
C295 H310 0.929 1_554 S
C296 C286 1.386 . S
C296 C289 1.357 . S
C296 H309 0.928 . S
H297 C273 0.931 . S
H298 C275 0.930 . S
H299 C277 0.929 . S
H300 C278 0.931 . S
H301 C280 0.930 . S
H302 C284 0.931 1_556 S
H303 C282 0.931 . S
H304 C286 0.931 . S
H305 C287 0.929 . S
H306 C288 0.930 . S
H307 C291 0.930 1_556 S
H308 C292 0.931 . S
H309 C296 0.928 . S
H310 C295 0.929 1_556 S
H311 C293 0.932 . S
Gd312 N343 2.661 1_545 S
Gd312 N349 2.601 . S
Gd312 O356 2.545 . S
Gd312 O357 2.606 1_655 S
Gd312 O359 2.429 . S
Gd312 O360 2.537 1_655 S
Gd312 O361 2.412 . S
Gd312 O363 2.362 1_545 S
Gd312 O364 2.324 1_655 S
Gd312 C371 2.828 . S
Gd313 N322 2.661 1_565 S
Gd313 N326 2.601 . S
Gd313 O357 2.362 1_565 S
Gd313 O358 2.324 1_455 S
Gd313 O362 2.545 . S
Gd313 O363 2.606 1_455 S
Gd313 O365 2.429 . S
Gd313 O366 2.545 . S
Gd313 O367 2.412 . S
Gd313 C380 2.828 . S
C314 C317 1.417 . S
C314 C319 1.431 1_556 S
C314 C320 1.412 1_556 S
C315 C318 1.437 . S
C315 C319 1.317 1_556 S
C315 H334 0.929 . S
C316 C317 1.426 . S
C316 C318 1.413 . S
C316 N326 1.359 1_545 S
C317 C314 1.417 . S
C317 C316 1.426 . S
C317 N322 1.350 . S
C318 C315 1.437 . S
C318 C316 1.413 . S
C318 C328 1.391 . S
C319 C314 1.431 1_554 S
C319 C315 1.317 1_554 S
C319 H330 0.930 . S
C320 C314 1.412 1_554 S
C320 C321 1.355 1_554 S
C320 H332 0.930 . S
C321 C320 1.355 1_556 S
C321 C323 1.402 . S
C321 H333 0.930 1_456 S
N322 Gd313 2.661 1_545 S
N322 C317 1.350 . S
N322 C323 1.307 . S
C323 C321 1.402 . S
C323 N322 1.307 . S
C323 H324 0.930 1_455 S
H324 C323 0.930 1_655 S
C325 N326 1.334 . S
C325 C327 1.394 . S
C325 H329 0.930 . S
N326 Gd313 2.601 . S
N326 C316 1.359 1_565 S
N326 C325 1.334 . S
C327 C325 1.394 . S
C327 C328 1.359 1_565 S
C327 H339 0.930 . S
C328 C318 1.391 . S
C328 C327 1.359 1_545 S
C328 H340 0.929 . S
H329 C325 0.930 . S
H330 C319 0.930 . S
H331 C348 0.930 1_455 S
H332 C320 0.930 . S
H333 C321 0.930 1_654 S
H334 C315 0.929 . S
H335 C353 0.930 . S
H336 C344 0.930 . S
H337 C345 0.930 1_455 S
H338 C369 0.929 . S
H339 C327 0.930 . S
H340 C328 0.929 . S
H341 C370 0.930 . S
H342 C351 0.930 . S
N343 Gd312 2.661 1_565 S
N343 C347 1.350 . S
N343 C348 1.307 . S
C344 H336 0.930 . S
C344 C345 1.355 . S
C344 C346 1.412 . S
C345 H337 0.930 1_655 S
C345 C344 1.355 . S
C345 C348 1.402 . S
C346 C344 1.412 . S
C346 C347 1.417 . S
C346 C370 1.431 . S
C347 N343 1.350 . S
C347 C346 1.417 . S
C347 C350 1.426 1_565 S
C348 H331 0.930 1_655 S
C348 N343 1.307 . S
C348 C345 1.402 . S
N349 Gd312 2.601 . S
N349 C350 1.359 . S
N349 C353 1.334 . S
C350 C347 1.426 1_545 S
C350 N349 1.359 . S
C350 C354 1.413 1_545 S
C351 H342 0.930 . S
C351 C352 1.359 . S
C351 C353 1.394 . S
C352 C351 1.359 . S
C352 C354 1.391 1_545 S
C352 H355 0.929 . S
C353 H335 0.930 . S
C353 N349 1.334 . S
C353 C351 1.394 . S
C354 C350 1.413 1_565 S
C354 C352 1.391 1_565 S
C354 C369 1.437 . S
H355 C352 0.929 . S
O356 Gd312 2.545 . S
O356 C371 1.258 . S
O357 Gd312 2.606 1_455 S
O357 Gd313 2.362 1_545 S
O357 C368 1.284 . S
O358 Gd313 2.324 1_655 S
O358 C378 1.254 1_565 S
O359 Gd312 2.429 . S
O359 C378 1.268 . S
O360 Gd312 2.537 1_455 S
O360 C368 1.264 . S
O361 Gd312 2.412 . S
O361 C371 1.252 . S
O362 Gd313 2.545 . S
O362 C380 1.258 . S
O363 Gd312 2.362 1_565 S
O363 Gd313 2.606 1_655 S
O363 C379 1.284 . S
O364 Gd312 2.324 1_455 S
O364 C387 1.254 . S
O365 Gd313 2.429 . S
O365 C387 1.268 1_565 S
O366 Gd313 2.545 . S
O366 C379 1.250 1_455 S
O367 Gd313 2.412 . S
O367 C380 1.252 . S
C368 O357 1.284 . S
C368 O360 1.264 . S
C369 H338 0.929 . S
C369 C354 1.437 . S
C369 C370 1.317 . S
C370 H341 0.930 . S
C370 C346 1.431 . S
C370 C369 1.317 . S
C371 Gd312 2.828 . S
C371 O356 1.258 . S
C371 O361 1.252 . S
C371 C372 1.497 . S
C372 C371 1.497 . S
C372 C373 1.395 . S
C372 C374 1.380 . S
C373 C372 1.395 . S
C373 C376 1.398 . S
C373 H388 0.930 . S
C374 C372 1.380 . S
C374 C375 1.391 . S
C374 H389 0.930 1_655 S
C375 C374 1.391 . S
C375 C377 1.387 . S
C376 C373 1.398 . S
C376 C377 1.380 . S
C376 H390 0.930 . S
C377 C375 1.387 . S
C377 C376 1.380 . S
C377 H391 0.930 . S
C378 O358 1.254 1_545 S
C378 O359 1.268 . S
C379 O363 1.284 . S
C379 O366 1.250 1_655 S
C380 Gd313 2.828 . S
C380 O362 1.258 . S
C380 O367 1.252 . S
C380 C381 1.497 . S
C381 C380 1.497 . S
C381 C382 1.395 . S
C381 C383 1.380 . S
C382 C381 1.395 . S
C382 C385 1.398 . S
C382 H392 0.930 . S
C383 C381 1.380 . S
C383 C384 1.391 . S
C383 H393 0.930 . S
C384 C383 1.391 . S
C384 C386 1.387 . S
C385 C382 1.398 . S
C385 C386 1.380 . S
C385 H394 0.930 . S
C386 C384 1.387 . S
C386 C385 1.380 . S
C386 H395 0.930 . S
C387 O364 1.254 . S
C387 O365 1.268 1_545 S
H388 C373 0.930 . S
H389 C374 0.930 1_455 S
H390 C376 0.930 . S
H391 C377 0.930 . S
H392 C382 0.930 . S
H393 C383 0.930 . S
H394 C385 0.930 . S
H395 C386 0.930 . S
Gd396 N427 2.661 . S
Gd396 N433 2.601 . S
Gd396 O440 2.545 . S
Gd396 O441 2.606 1_565 S
Gd396 O443 2.429 . S
Gd396 O444 2.545 1_565 S
Gd396 O445 2.412 . S
Gd396 O447 2.362 . S
Gd396 O448 2.324 1_565 S
Gd396 C455 2.828 . S
Gd397 N406 2.661 . S
Gd397 N410 2.601 . S
Gd397 O441 2.362 . S
Gd397 O442 2.324 1_545 S
Gd397 O446 2.545 . S
Gd397 O447 2.606 1_545 S
Gd397 O449 2.429 . S
Gd397 O450 2.545 . S
Gd397 O451 2.412 . S
Gd397 C464 2.828 . S
C398 C401 1.417 . S
C398 C403 1.431 1_556 S
C398 C404 1.412 1_556 S
C399 C402 1.437 . S
C399 C403 1.317 1_556 S
C399 H418 0.929 . S
C400 C401 1.426 . S
C400 C402 1.413 . S
C400 N410 1.359 . S
C401 C398 1.417 . S
C401 C400 1.426 . S
C401 N406 1.350 . S
C402 C399 1.437 . S
C402 C400 1.413 . S
C402 C412 1.391 . S
C403 C398 1.431 1_554 S
C403 C399 1.317 1_554 S
C403 H414 0.930 . S
C404 C398 1.412 1_554 S
C404 C405 1.355 1_554 S
C404 H416 0.930 . S
C405 C404 1.355 1_556 S
C405 C407 1.402 . S
C405 H417 0.930 1_546 S
N406 Gd397 2.661 . S
N406 C401 1.350 . S
N406 C407 1.307 . S
C407 C405 1.402 . S
C407 N406 1.307 . S
C407 H408 0.930 1_545 S
H408 C407 0.930 1_565 S
C409 N410 1.334 . S
C409 C411 1.394 . S
C409 H413 0.930 . S
N410 Gd397 2.601 . S
N410 C400 1.359 . S
N410 C409 1.334 . S
C411 C409 1.394 . S
C411 C412 1.359 . S
C411 H423 0.930 . S
C412 C402 1.391 . S
C412 C411 1.359 . S
C412 H424 0.929 . S
H413 C409 0.930 . S
H414 C403 0.930 . S
H415 C432 0.930 . S
H416 C404 0.930 . S
H417 C405 0.930 1_564 S
H418 C399 0.929 . S
H419 C437 0.930 . S
H420 C428 0.930 . S
H421 C429 0.939 . S
H422 C453 0.929 . S
H423 C411 0.930 . S
H424 C412 0.929 . S
H425 C454 0.930 . S
H426 C435 0.930 . S
N427 Gd396 2.661 . S
N427 C431 1.350 . S
N427 C432 1.307 1_565 S
C428 H420 0.930 . S
C428 C429 1.344 1_565 S
C428 C430 1.412 . S
C429 H421 0.939 . S
C429 C428 1.344 1_545 S
C429 C432 1.403 . S
C430 C428 1.412 . S
C430 C431 1.417 . S
C430 C454 1.431 . S
C431 N427 1.350 . S
C431 C430 1.417 . S
C431 C434 1.426 . S
C432 H415 0.930 . S
C432 N427 1.307 1_545 S
C432 C429 1.403 . S
N433 Gd396 2.601 . S
N433 C434 1.359 . S
N433 C437 1.334 . S
C434 C431 1.426 . S
C434 N433 1.359 . S
C434 C438 1.413 . S
C435 H426 0.930 . S
C435 C436 1.359 . S
C435 C437 1.394 . S
C436 C435 1.359 . S
C436 C438 1.391 . S
C436 H439 0.929 . S
C437 H419 0.930 . S
C437 N433 1.334 . S
C437 C435 1.394 . S
C438 C434 1.413 . S
C438 C436 1.391 . S
C438 C453 1.437 . S
H439 C436 0.929 . S
O440 Gd396 2.545 . S
O440 C455 1.258 . S
O441 Gd396 2.606 1_545 S
O441 Gd397 2.362 . S
O441 C452 1.284 . S
O442 Gd397 2.324 1_565 S
O442 C462 1.254 . S
O443 Gd396 2.429 . S
O443 C462 1.268 . S
O444 Gd396 2.545 1_545 S
O444 C452 1.250 . S
O445 Gd396 2.412 . S
O445 C455 1.252 . S
O446 Gd397 2.545 . S
O446 C464 1.258 . S
O447 Gd396 2.362 . S
O447 Gd397 2.606 1_565 S
O447 C463 1.284 . S
O448 Gd396 2.324 1_545 S
O448 C471 1.254 . S
O449 Gd397 2.429 . S
O449 C471 1.268 . S
O450 Gd397 2.545 . S
O450 C463 1.250 1_545 S
O451 Gd397 2.412 . S
O451 C464 1.252 . S
C452 O441 1.284 . S
C452 O444 1.250 . S
C453 H422 0.929 . S
C453 C438 1.437 . S
C453 C454 1.317 . S
C454 H425 0.930 . S
C454 C430 1.431 . S
C454 C453 1.317 . S
C455 Gd396 2.828 . S
C455 O440 1.258 . S
C455 O445 1.252 . S
C455 C456 1.497 . S
C456 C455 1.497 . S
C456 C457 1.395 . S
C456 C458 1.380 . S
C457 C456 1.395 . S
C457 C460 1.398 . S
C457 H472 0.930 . S
C458 C456 1.380 . S
C458 C459 1.391 . S
C458 H473 0.930 1_565 S
C459 C458 1.391 . S
C459 C461 1.387 . S
C460 C457 1.398 . S
C460 C461 1.380 . S
C460 H474 0.930 . S
C461 C459 1.387 . S
C461 C460 1.380 . S
C461 H475 0.930 . S
C462 O442 1.254 . S
C462 O443 1.268 . S
C463 O447 1.284 . S
C463 O450 1.250 1_565 S
C464 Gd397 2.828 . S
C464 O446 1.258 . S
C464 O451 1.252 . S
C464 C465 1.497 . S
C465 C464 1.497 . S
C465 C466 1.395 . S
C465 C467 1.380 . S
C466 C465 1.395 . S
C466 C469 1.398 . S
C466 H476 0.930 . S
C467 C465 1.380 . S
C467 C468 1.391 . S
C467 H477 0.930 . S
C468 C467 1.391 . S
C468 C470 1.387 . S
C469 C466 1.398 . S
C469 C470 1.380 . S
C469 H478 0.930 . S
C470 C468 1.387 . S
C470 C469 1.380 . S
C470 H479 0.931 1_556 S
C471 O448 1.254 . S
C471 O449 1.268 . S
H472 C457 0.930 . S
H473 C458 0.930 1_545 S
H474 C460 0.930 . S
H475 C461 0.930 . S
H476 C466 0.930 . S
H477 C467 0.930 . S
H478 C469 0.930 . S
H479 C470 0.931 1_554 S
Gd480 N511 2.661 . S
Gd480 N517 2.601 . S
Gd480 O524 2.545 . S
Gd480 O525 2.606 . S
Gd480 O527 2.429 . S
Gd480 O528 2.545 . S
Gd480 O529 2.412 . S
Gd480 O531 2.362 . S
Gd480 O532 2.324 . S
Gd480 C539 2.828 . S
Gd481 N490 2.661 . S
Gd481 N494 2.601 . S
Gd481 O525 2.362 . S
Gd481 O526 2.324 . S
Gd481 O530 2.545 . S
Gd481 O531 2.606 . S
Gd481 O533 2.429 . S
Gd481 O534 2.545 . S
Gd481 O535 2.412 . S
Gd481 C548 2.828 . S
C482 C485 1.417 . S
C482 C487 1.431 . S
C482 C488 1.412 . S
C483 C486 1.437 . S
C483 C487 1.317 . S
C483 H502 0.929 . S
C484 C485 1.426 . S
C484 C486 1.413 . S
C484 N494 1.359 . S
C485 C482 1.417 . S
C485 C484 1.426 . S
C485 N490 1.350 . S
C486 C483 1.437 . S
C486 C484 1.413 . S
C486 C496 1.391 . S
C487 C482 1.431 . S
C487 C483 1.317 . S
C487 H498 0.930 . S
C488 C482 1.412 . S
C488 C489 1.355 . S
C488 H500 0.930 . S
C489 C488 1.355 . S
C489 C491 1.402 . S
C489 H501 0.930 . S
N490 Gd481 2.661 . S
N490 C485 1.350 . S
N490 C491 1.307 . S
C491 C489 1.402 . S
C491 N490 1.307 . S
C491 H492 0.930 . S
H492 C491 0.930 . S
C493 N494 1.334 . S
C493 C495 1.394 . S
C493 H497 0.930 . S
N494 Gd481 2.601 . S
N494 C484 1.359 . S
N494 C493 1.334 . S
C495 C493 1.394 . S
C495 C496 1.359 . S
C495 H507 0.930 . S
C496 C486 1.391 . S
C496 C495 1.359 . S
C496 H508 0.929 . S
H497 C493 0.930 . S
H498 C487 0.930 . S
H499 C516 0.930 . S
H500 C488 0.930 . S
H501 C489 0.930 . S
H502 C483 0.929 . S
H503 C521 0.930 . S
H504 C512 0.930 . S
H505 C513 0.930 . S
H506 C537 0.929 . S
H507 C495 0.930 . S
H508 C496 0.929 . S
H509 C538 0.930 . S
H510 C519 0.930 . S
N511 Gd480 2.661 . S
N511 C515 1.350 . S
N511 C516 1.307 . S
C512 H504 0.930 . S
C512 C513 1.355 . S
C512 C514 1.412 . S
C513 H505 0.930 . S
C513 C512 1.355 . S
C513 C516 1.402 . S
C514 C512 1.412 . S
C514 C515 1.417 . S
C514 C538 1.431 . S
C515 N511 1.350 . S
C515 C514 1.417 . S
C515 C518 1.426 . S
C516 H499 0.930 . S
C516 N511 1.307 . S
C516 C513 1.402 . S
N517 Gd480 2.601 . S
N517 C518 1.359 . S
N517 C521 1.334 . S
C518 C515 1.426 . S
C518 N517 1.359 . S
C518 C522 1.413 . S
C519 H510 0.930 . S
C519 C520 1.359 . S
C519 C521 1.394 . S
C520 C519 1.359 . S
C520 C522 1.391 . S
C520 H523 0.929 . S
C521 H503 0.930 . S
C521 N517 1.334 . S
C521 C519 1.394 . S
C522 C518 1.413 . S
C522 C520 1.391 . S
C522 C537 1.437 . S
H523 C520 0.929 . S
O524 Gd480 2.545 . S
O524 C539 1.258 . S
O525 Gd480 2.606 . S
O525 Gd481 2.362 . S
O525 C536 1.284 . S
O526 Gd481 2.324 . S
O526 C546 1.254 . S
O527 Gd480 2.429 . S
O527 C546 1.268 . S
O528 Gd480 2.545 . S
O528 C536 1.250 . S
O529 Gd480 2.412 . S
O529 C539 1.252 . S
O530 Gd481 2.545 . S
O530 C548 1.258 . S
O531 Gd480 2.362 . S
O531 Gd481 2.606 . S
O531 C547 1.284 . S
O532 Gd480 2.324 . S
O532 C555 1.254 . S
O533 Gd481 2.429 . S
O533 C555 1.268 . S
O534 Gd481 2.545 . S
O534 C547 1.250 . S
O535 Gd481 2.412 . S
O535 C548 1.252 . S
C536 O525 1.284 . S
C536 O528 1.250 . S
C537 H506 0.929 . S
C537 C522 1.437 . S
C537 C538 1.317 . S
C538 H509 0.930 . S
C538 C514 1.431 . S
C538 C537 1.317 . S
C539 Gd480 2.828 . S
C539 O524 1.258 . S
C539 O529 1.252 . S
C539 C540 1.497 . S
C540 C539 1.497 . S
C540 C541 1.395 1_556 S
C540 C542 1.380 . S
C541 C540 1.395 1_554 S
C541 C544 1.398 . S
C541 H556 0.930 . S
C542 C540 1.380 . S
C542 C543 1.391 . S
C542 H557 0.930 . S
C543 C542 1.391 . S
C543 C545 1.387 1_556 S
C544 C541 1.398 . S
C544 C545 1.380 . S
C544 H558 0.930 . S
C545 C543 1.387 1_554 S
C545 C544 1.380 . S
C545 H559 0.930 . S
C546 O526 1.254 . S
C546 O527 1.268 . S
C547 O531 1.284 . S
C547 O534 1.250 . S
C548 Gd481 2.828 . S
C548 O530 1.258 . S
C548 O535 1.252 . S
C548 C549 1.497 . S
C549 C548 1.497 . S
C549 C550 1.395 . S
C549 C551 1.380 . S
C550 C549 1.395 . S
C550 C553 1.398 . S
C550 H560 0.930 . S
C551 C549 1.380 . S
C551 C552 1.391 . S
C551 H561 0.930 . S
C552 C551 1.391 . S
C552 C554 1.387 . S
C553 C550 1.398 . S
C553 C554 1.380 . S
C553 H562 0.930 . S
C554 C552 1.387 . S
C554 C553 1.380 . S
C554 H563 0.930 . S
C555 O532 1.254 . S
C555 O533 1.268 . S
H556 C541 0.930 . S
H557 C542 0.930 . S
H558 C544 0.930 . S
H559 C545 0.930 . S
H560 C550 0.930 . S
H561 C551 0.930 . S
H562 C553 0.930 . S
H563 C554 0.930 . S
Gd564 N595 2.661 . S
Gd564 N601 2.601 . S
Gd564 O608 2.545 . S
Gd564 O609 2.614 . S
Gd564 O611 2.429 1_655 S
Gd564 O612 2.545 . S
Gd564 O613 2.412 . S
Gd564 O615 2.362 1_655 S
Gd564 O616 2.324 . S
Gd564 C623 2.828 . S
Gd565 N574 2.661 . S
Gd565 N578 2.601 . S
Gd565 O609 2.348 1_455 S
Gd565 O610 2.324 . S
Gd565 O614 2.545 . S
Gd565 O615 2.606 . S
Gd565 O617 2.429 1_455 S
Gd565 O618 2.545 . S
Gd565 O619 2.412 . S
Gd565 C632 2.828 . S
C566 C569 1.417 . S
C566 C571 1.431 . S
C566 C572 1.412 . S
C567 C570 1.437 . S
C567 C571 1.317 . S
C567 H586 0.929 . S
C568 C569 1.426 . S
C568 C570 1.413 . S
C568 N578 1.359 . S
C569 C566 1.417 . S
C569 C568 1.426 . S
C569 N574 1.350 . S
C570 C567 1.437 . S
C570 C568 1.413 . S
C570 C580 1.391 . S
C571 C566 1.431 . S
C571 C567 1.317 . S
C571 H582 0.930 . S
C572 C566 1.412 . S
C572 C573 1.355 . S
C572 H584 0.930 . S
C573 C572 1.355 . S
C573 C575 1.402 . S
C573 H585 0.930 . S
N574 Gd565 2.661 . S
N574 C569 1.350 . S
N574 C575 1.307 . S
C575 C573 1.402 . S
C575 N574 1.307 . S
C575 H576 0.930 . S
H576 C575 0.930 . S
C577 N578 1.334 1_655 S
C577 C579 1.394 . S
C577 H581 0.930 . S
N578 Gd565 2.601 . S
N578 C568 1.359 . S
N578 C577 1.334 1_455 S
C579 C577 1.394 . S
C579 C580 1.359 1_655 S
C579 H591 0.930 . S
C580 C570 1.391 . S
C580 C579 1.359 1_455 S
C580 H592 0.929 . S
H581 C577 0.930 . S
H582 C571 0.930 . S
H583 C600 0.930 . S
H584 C572 0.930 . S
H585 C573 0.930 . S
H586 C567 0.929 . S
H587 C605 0.930 . S
H588 C596 0.930 . S
H589 C597 0.930 . S
H590 C621 0.929 . S
H591 C579 0.930 . S
H592 C580 0.929 . S
H593 C622 0.930 . S
H594 C603 0.930 . S
N595 Gd564 2.661 . S
N595 C599 1.350 . S
N595 C600 1.307 . S
C596 H588 0.930 . S
C596 C597 1.355 . S
C596 C598 1.412 . S
C597 H589 0.930 . S
C597 C596 1.355 . S
C597 C600 1.402 . S
C598 C596 1.412 . S
C598 C599 1.417 . S
C598 C622 1.431 . S
C599 N595 1.350 . S
C599 C598 1.417 . S
C599 C602 1.426 . S
C600 H583 0.930 . S
C600 N595 1.307 . S
C600 C597 1.402 . S
N601 Gd564 2.601 . S
N601 C602 1.359 . S
N601 C605 1.334 1_655 S
C602 C599 1.426 . S
C602 N601 1.359 . S
C602 C606 1.413 . S
C603 H594 0.930 . S
C603 C604 1.366 . S
C603 C605 1.394 . S
C604 C603 1.366 . S
C604 C606 1.382 1_455 S
C604 H607 0.932 . S
C605 H587 0.930 . S
C605 N601 1.334 1_455 S
C605 C603 1.394 . S
C606 C602 1.413 . S
C606 C604 1.382 1_655 S
C606 C621 1.437 . S
H607 C604 0.932 . S
O608 Gd564 2.545 . S
O608 C623 1.258 . S
O609 Gd564 2.614 . S
O609 Gd565 2.348 1_655 S
O609 C620 1.295 . S
O610 Gd565 2.324 . S
O610 C630 1.254 . S
O611 Gd564 2.429 1_455 S
O611 C630 1.268 . S
O612 Gd564 2.545 . S
O612 C620 1.250 . S
O613 Gd564 2.412 . S
O613 C623 1.252 . S
O614 Gd565 2.545 . S
O614 C632 1.258 . S
O615 Gd564 2.362 1_455 S
O615 Gd565 2.606 . S
O615 C631 1.284 . S
O616 Gd564 2.324 . S
O616 C639 1.254 . S
O617 Gd565 2.429 1_655 S
O617 C639 1.268 . S
O618 Gd565 2.545 . S
O618 C631 1.250 . S
O619 Gd565 2.412 . S
O619 C632 1.252 . S
C620 O609 1.295 . S
C620 O612 1.250 . S
C621 H590 0.929 . S
C621 C606 1.437 . S
C621 C622 1.317 . S
C622 H593 0.930 . S
C622 C598 1.431 . S
C622 C621 1.317 . S
C623 Gd564 2.828 . S
C623 O608 1.258 . S
C623 O613 1.252 . S
C623 C624 1.497 . S
C624 C623 1.497 . S
C624 C625 1.395 1_556 S
C624 C626 1.380 . S
C625 C624 1.395 1_554 S
C625 C628 1.398 . S
C625 H640 0.930 . S
C626 C624 1.380 . S
C626 C627 1.391 . S
C626 H641 0.930 . S
C627 C626 1.391 . S
C627 C629 1.387 1_556 S
C628 C625 1.398 . S
C628 C629 1.380 . S
C628 H642 0.930 . S
C629 C627 1.387 1_554 S
C629 C628 1.380 . S
C629 H643 0.930 . S
C630 O610 1.254 . S
C630 O611 1.268 . S
C631 O615 1.284 . S
C631 O618 1.250 . S
C632 Gd565 2.828 . S
C632 O614 1.258 . S
C632 O619 1.252 . S
C632 C633 1.497 . S
C633 C632 1.497 . S
C633 C634 1.395 . S
C633 C635 1.380 . S
C634 C633 1.395 . S
C634 C637 1.398 . S
C634 H644 0.930 . S
C635 C633 1.380 . S
C635 C636 1.391 . S
C635 H645 0.930 . S
C636 C635 1.391 . S
C636 C638 1.387 . S
C637 C634 1.398 . S
C637 C638 1.380 . S
C637 H646 0.930 . S
C638 C636 1.387 . S
C638 C637 1.380 . S
C638 H647 0.930 . S
C639 O616 1.254 . S
C639 O617 1.268 . S
H640 C625 0.930 . S
H641 C626 0.930 . S
H642 C628 0.930 . S
H643 C629 0.930 . S
H644 C634 0.930 . S
H645 C635 0.930 . S
H646 C637 0.930 . S
H647 C638 0.930 . S
C648 C649 1.369 . S
C648 C650 1.419 . S
C648 H652 0.930 . S
C649 C648 1.369 . S
C649 C658 1.429 . S
C650 C648 1.419 . S
C650 C651 1.363 . S
C650 H653 0.929 . S
C651 C650 1.363 . S
C651 C657 1.428 . S
H652 C648 0.930 . S
H653 C650 0.929 . S
S654 N655 1.613 . S
S654 N656 1.610 . S
N655 S654 1.613 . S
N655 C658 1.350 1_565 S
N656 S654 1.610 . S
N656 C657 1.351 1_565 S
C657 C651 1.428 . S
C657 N656 1.351 1_545 S
C657 C658 1.434 . S
C658 C649 1.429 . S
C658 N655 1.350 1_545 S
C658 C657 1.434 . S
C659 C660 1.369 . S
C659 C661 1.419 . S
C659 H663 0.930 . S
C660 C659 1.369 . S
C660 C669 1.429 . S
C661 C659 1.419 . S
C661 C662 1.363 . S
C661 H664 0.929 . S
C662 C661 1.363 . S
C662 C668 1.428 . S
H663 C659 0.930 . S
H664 C661 0.929 . S
S665 N666 1.613 . S
S665 N667 1.610 . S
N666 S665 1.613 . S
N666 C669 1.350 . S
N667 S665 1.610 . S
N667 C668 1.351 . S
C668 C662 1.428 . S
C668 N667 1.351 . S
C668 C669 1.434 . S
C669 C660 1.429 . S
C669 N666 1.350 . S
C669 C668 1.434 . S
C670 C671 1.369 . S
C670 C672 1.419 . S
C670 H674 0.930 . S
C671 C670 1.369 . S
C671 C680 1.429 . S
C672 C670 1.419 . S
C672 C673 1.363 . S
C672 H675 0.929 . S
C673 C672 1.363 . S
C673 C679 1.428 . S
H674 C670 0.930 . S
H675 C672 0.929 . S
S676 N677 1.613 . S
S676 N678 1.610 . S
N677 S676 1.613 . S
N677 C680 1.350 . S
N678 S676 1.610 . S
N678 C679 1.351 . S
C679 C673 1.428 . S
C679 N678 1.351 . S
C679 C680 1.434 . S
C680 C671 1.429 . S
C680 N677 1.350 . S
C680 C679 1.434 . S
C681 C682 1.369 . S
C681 C683 1.419 . S
C681 H685 0.930 . S
C682 C681 1.369 . S
C682 C691 1.429 . S
C683 C681 1.419 . S
C683 C684 1.363 . S
C683 H686 0.929 . S
C684 C683 1.363 . S
C684 C690 1.428 . S
H685 C681 0.930 . S
H686 C683 0.929 . S
S687 N688 1.613 . S
S687 N689 1.610 . S
N688 S687 1.613 . S
N688 C691 1.350 . S
N689 S687 1.610 . S
N689 C690 1.351 . S
C690 C684 1.428 . S
C690 N689 1.351 . S
C690 C691 1.434 . S
C691 C682 1.429 . S
C691 N688 1.350 . S
C691 C690 1.434 . S
C692 C693 1.369 . S
C692 C694 1.419 1_554 S
C692 H696 0.930 . S
C693 C692 1.369 . S
C693 C702 1.429 . S
C694 C692 1.419 1_556 S
C694 C695 1.363 . S
C694 H697 0.929 . S
C695 C694 1.363 . S
C695 C701 1.428 . S
H696 C692 0.930 . S
H697 C694 0.929 . S
S698 N699 1.613 1_455 S
S698 N700 1.610 1_454 S
N699 S698 1.613 1_655 S
N699 C702 1.350 . S
N700 S698 1.610 1_656 S
N700 C701 1.351 . S
C701 C695 1.428 . S
C701 N700 1.351 . S
C701 C702 1.434 1_556 S
C702 C693 1.429 . S
C702 N699 1.350 . S
C702 C701 1.434 1_554 S
C703 C704 1.369 . S
C703 C705 1.419 1_554 S
C703 H707 0.930 . S
C704 C703 1.369 . S
C704 C713 1.429 . S
C705 C703 1.419 1_556 S
C705 C706 1.363 . S
C705 H708 0.929 . S
C706 C705 1.363 . S
C706 C712 1.428 . S
H707 C703 0.930 . S
H708 C705 0.929 . S
S709 N710 1.613 1_556 S
S709 N711 1.610 . S
N710 S709 1.613 1_554 S
N710 C713 1.350 . S
N711 S709 1.610 . S
N711 C712 1.351 . S
C712 C706 1.428 . S
C712 N711 1.351 . S
C712 C713 1.434 1_556 S
C713 C704 1.429 . S
C713 N710 1.350 . S
C713 C712 1.434 1_554 S
C714 C715 1.369 . S
C714 C716 1.419 1_554 S
C714 H718 0.930 . S
C715 C714 1.369 . S
C715 C724 1.429 . S
C716 C714 1.419 1_556 S
C716 C717 1.363 . S
C716 H719 0.929 . S
C717 C716 1.363 . S
C717 C723 1.428 . S
H718 C714 0.930 . S
H719 C716 0.929 . S
S720 N721 1.613 1_556 S
S720 N722 1.610 . S
N721 S720 1.613 1_554 S
N721 C724 1.350 . S
N722 S720 1.610 . S
N722 C723 1.351 . S
C723 C717 1.428 . S
C723 N722 1.351 . S
C723 C724 1.434 1_556 S
C724 C715 1.429 . S
C724 N721 1.350 . S
C724 C723 1.434 1_554 S
C725 C726 1.369 . S
C725 C727 1.419 1_554 S
C725 H729 0.930 . S
C726 C725 1.369 . S
C726 C735 1.429 . S
C727 C725 1.419 1_556 S
C727 C728 1.363 . S
C727 H730 0.929 . S
C728 C727 1.363 . S
C728 C734 1.428 . S
H729 C725 0.930 . S
H730 C727 0.929 . S
S731 N732 1.613 1_556 S
S731 N733 1.610 . S
N732 S731 1.613 1_554 S
N732 C735 1.350 . S
N733 S731 1.610 . S
N733 C734 1.351 . S
C734 C728 1.428 . S
C734 N733 1.351 . S
C734 C735 1.434 1_556 S
C735 C726 1.429 . S
C735 N732 1.350 . S
C735 C734 1.434 1_554 S
C736 C737 1.369 . S
C736 C738 1.419 . S
C736 H740 0.930 . S
C737 C736 1.369 . S
C737 C746 1.429 . S
C738 C736 1.419 . S
C738 C739 1.363 . S
C738 H741 0.929 1_455 S
C739 C738 1.363 . S
C739 C745 1.428 . S
H740 C736 0.930 . S
H741 C738 0.929 1_655 S
S742 N743 1.613 . S
S742 N744 1.610 . S
N743 S742 1.613 . S
N743 C746 1.350 . S
N744 S742 1.610 . S
N744 C745 1.351 . S
C745 C739 1.428 . S
C745 N744 1.351 . S
C745 C746 1.434 . S
C746 C737 1.429 . S
C746 N743 1.350 . S
C746 C745 1.434 . S
C747 C748 1.369 . S
C747 C749 1.419 . S
C747 H751 0.930 . S
C748 C747 1.369 . S
C748 C757 1.429 . S
C749 C747 1.419 . S
C749 C750 1.363 . S
C749 H752 0.929 . S
C750 C749 1.363 . S
C750 C756 1.428 . S
H751 C747 0.930 . S
H752 C749 0.929 . S
S753 N754 1.613 . S
S753 N755 1.610 1_545 S
N754 S753 1.613 . S
N754 C757 1.350 . S
N755 S753 1.610 1_565 S
N755 C756 1.351 1_565 S
C756 C750 1.428 . S
C756 N755 1.351 1_545 S
C756 C757 1.434 . S
C757 C748 1.429 . S
C757 N754 1.350 . S
C757 C756 1.434 . S
C758 C759 1.369 . S
C758 C760 1.419 . S
C758 H762 0.930 . S
C759 C758 1.369 . S
C759 C768 1.429 . S
C760 C758 1.419 . S
C760 C761 1.363 . S
C760 H763 0.929 . S
C761 C760 1.363 . S
C761 C767 1.428 . S
H762 C758 0.930 . S
H763 C760 0.929 . S
S764 N765 1.613 . S
S764 N766 1.610 . S
N765 S764 1.613 . S
N765 C768 1.350 . S
N766 S764 1.610 . S
N766 C767 1.351 . S
C767 C761 1.428 . S
C767 N766 1.351 . S
C767 C768 1.434 . S
C768 C759 1.429 . S
C768 N765 1.350 . S
C768 C767 1.434 . S
C769 C770 1.369 . S
C769 C771 1.419 . S
C769 H773 0.930 . S
C770 C769 1.369 . S
C770 C779 1.429 . S
C771 C769 1.419 . S
C771 C772 1.363 . S
C771 H774 0.929 . S
C772 C771 1.363 . S
C772 C778 1.428 . S
H773 C769 0.930 . S
H774 C771 0.929 . S
S775 N776 1.613 . S
S775 N777 1.610 . S
N776 S775 1.613 . S
N776 C779 1.350 . S
N777 S775 1.610 . S
N777 C778 1.351 . S
C778 C772 1.428 . S
C778 N777 1.351 . S
C778 C779 1.434 . S
C779 C770 1.429 . S
C779 N776 1.350 . S
C779 C778 1.434 . S
C780 C781 1.369 1_556 S
C780 C782 1.419 . S
C780 H784 0.930 . S
C781 C780 1.369 1_554 S
C781 C790 1.429 . S
C782 C780 1.419 . S
C782 C783 1.363 1_655 S
C782 H785 0.929 . S
C783 C782 1.363 1_455 S
C783 C789 1.428 1_456 S
H784 C780 0.930 . S
H785 C782 0.929 . S
S786 N787 1.613 . S
S786 N788 1.610 1_655 S
N787 S786 1.613 . S
N787 C790 1.350 . S
N788 S786 1.610 1_455 S
N788 C789 1.351 1_455 S
C789 C783 1.428 1_654 S
C789 N788 1.351 1_655 S
C789 C790 1.434 . S
C790 C781 1.429 . S
C790 N787 1.350 . S
C790 C789 1.434 . S
C791 C792 1.369 . S
C791 C793 1.419 1_565 S
C791 H795 0.930 . S
C792 C791 1.369 . S
C792 C801 1.429 1_554 S
C793 C791 1.419 1_545 S
C793 C794 1.363 1_554 S
C793 H796 0.929 . S
C794 C793 1.363 1_556 S
C794 C800 1.428 1_545 S
H795 C791 0.930 . S
H796 C793 0.929 . S
S797 N798 1.613 . S
S797 N799 1.610 . S
N798 S797 1.613 . S
N798 C801 1.350 . S
N799 S797 1.610 . S
N799 C800 1.351 . S
C800 C794 1.428 1_565 S
C800 N799 1.351 . S
C800 C801 1.434 . S
C801 C792 1.429 1_556 S
C801 N798 1.350 . S
C801 C800 1.434 . S
C802 C803 1.369 . S
C802 C804 1.419 . S
C802 H806 0.930 . S
C803 C802 1.369 . S
C803 C812 1.429 1_554 S
C804 C802 1.419 . S
C804 C805 1.363 1_554 S
C804 H807 0.929 . S
C805 C804 1.363 1_556 S
C805 C811 1.428 . S
H806 C802 0.930 . S
H807 C804 0.929 . S
S808 N809 1.613 . S
S808 N810 1.610 . S
N809 S808 1.613 . S
N809 C812 1.350 . S
N810 S808 1.610 . S
N810 C811 1.351 . S
C811 C805 1.428 . S
C811 N810 1.351 . S
C811 C812 1.434 . S
C812 C803 1.429 1_556 S
C812 N809 1.350 . S
C812 C811 1.434 . S
C813 C814 1.369 1_554 S
C813 C815 1.419 1_554 S
C813 H817 0.930 . S
C814 C813 1.369 1_556 S
C814 C823 1.430 . S
C815 C813 1.419 1_556 S
C815 C816 1.363 . S
C815 H818 0.929 . S
C816 C815 1.363 . S
C816 C822 1.428 . S
H817 C813 0.930 . S
H818 C815 0.929 . S
S819 N820 1.613 . S
S819 N821 1.610 . S
N820 S819 1.613 . S
N820 C823 1.350 . S
N821 S819 1.610 . S
N821 C822 1.351 . S
C822 C816 1.428 . S
C822 N821 1.351 . S
C822 C823 1.434 . S
C823 C814 1.430 . S
C823 N820 1.350 . S
C823 C822 1.434 . S
C824 C825 1.369 . S
C824 C826 1.419 . S
C824 H828 0.930 . S
C825 C824 1.369 . S
C825 C834 1.429 . S
C826 C824 1.419 . S
C826 C827 1.363 . S
C826 H829 0.929 . S
C827 C826 1.363 . S
C827 C833 1.428 . S
H828 C824 0.930 . S
H829 C826 0.929 . S
S830 N831 1.613 1_655 S
S830 N832 1.610 1_655 S
N831 S830 1.613 1_455 S
N831 C834 1.350 . S
N832 S830 1.610 1_455 S
N832 C833 1.351 . S
C833 C827 1.428 . S
C833 N832 1.351 . S
C833 C834 1.434 . S
C834 C825 1.429 . S
C834 N831 1.350 . S
C834 C833 1.434 . S
C835 C836 1.369 . S
C835 C837 1.419 . S
C835 H839 0.930 . S
C836 C835 1.369 . S
C836 C845 1.429 . S
C837 C835 1.419 . S
C837 C838 1.363 . S
C837 H840 0.929 . S
C838 C837 1.363 . S
C838 C844 1.428 . S
H839 C835 0.930 . S
H840 C837 0.929 . S
S841 N842 1.613 1_565 S
S841 N843 1.610 1_565 S
N842 S841 1.613 1_545 S
N842 C845 1.350 . S
N843 S841 1.610 1_545 S
N843 C844 1.351 . S
C844 C838 1.428 . S
C844 N843 1.351 . S
C844 C845 1.434 . S
C845 C836 1.429 . S
C845 N842 1.350 . S
C845 C844 1.434 . S
C846 C847 1.369 . S
C846 C848 1.419 . S
C846 H850 0.930 . S
C847 C846 1.369 . S
C847 C856 1.429 . S
C848 C846 1.419 . S
C848 C849 1.363 . S
C848 H851 0.929 . S
C849 C848 1.363 . S
C849 C855 1.428 . S
H850 C846 0.930 . S
H851 C848 0.929 . S
S852 N853 1.613 . S
S852 N854 1.610 . S
N853 S852 1.613 . S
N853 C856 1.350 . S
N854 S852 1.610 . S
N854 C855 1.351 . S
C855 C849 1.428 . S
C855 N854 1.351 . S
C855 C856 1.434 . S
C856 C847 1.429 . S
C856 N853 1.350 . S
C856 C855 1.434 . S
C857 C858 1.369 . S
C857 C859 1.419 . S
C857 H861 0.930 . S
C858 C857 1.369 . S
C858 C867 1.429 . S
C859 C857 1.419 . S
C859 C860 1.363 . S
C859 H862 0.929 . S
C860 C859 1.363 . S
C860 C866 1.428 . S
H861 C857 0.930 . S
H862 C859 0.929 . S
S863 N864 1.613 . S
S863 N865 1.610 . S
N864 S863 1.613 . S
N864 C867 1.350 . S
N865 S863 1.610 . S
N865 C866 1.351 . S
C866 C860 1.428 . S
C866 N865 1.351 . S
C866 C867 1.434 . S
C867 C858 1.429 . S
C867 N864 1.350 . S
C867 C866 1.434 . S
C868 C869 1.369 . S
C868 C870 1.419 . S
C868 H872 0.930 . S
C869 C868 1.369 . S
C869 C878 1.429 . S
C870 C868 1.419 . S
C870 C871 1.363 . S
C870 H873 0.929 1_655 S
C871 C870 1.363 . S
C871 C877 1.428 . S
H872 C868 0.930 . S
H873 C870 0.929 1_455 S
S874 N875 1.613 . S
S874 N876 1.610 . S
N875 S874 1.613 . S
N875 C878 1.350 . S
N876 S874 1.610 . S
N876 C877 1.351 . S
C877 C871 1.428 . S
C877 N876 1.351 . S
C877 C878 1.434 . S
C878 C869 1.429 . S
C878 N875 1.350 . S
C878 C877 1.434 . S
C879 C880 1.369 . S
C879 C881 1.419 . S
C879 H883 0.930 . S
C880 C879 1.369 . S
C880 C889 1.429 . S
C881 C879 1.419 . S
C881 C882 1.363 . S
C881 H884 0.929 . S
C882 C881 1.363 . S
C882 C888 1.428 . S
H883 C879 0.930 . S
H884 C881 0.929 . S
S885 N886 1.613 . S
S885 N887 1.610 . S
N886 S885 1.613 . S
N886 C889 1.350 . S
N887 S885 1.610 . S
N887 C888 1.351 . S
C888 C882 1.428 . S
C888 N887 1.351 . S
C888 C889 1.434 . S
C889 C880 1.429 . S
C889 N886 1.350 . S
C889 C888 1.434 . S
C890 C891 1.369 . S
C890 C892 1.419 . S
C890 H894 0.930 . S
C891 C890 1.369 . S
C891 C900 1.429 . S
C892 C890 1.419 . S
C892 C893 1.363 . S
C892 H895 0.929 . S
C893 C892 1.363 . S
C893 C899 1.428 . S
H894 C890 0.930 . S
H895 C892 0.929 . S
S896 N897 1.613 . S
S896 N898 1.610 . S
N897 S896 1.613 . S
N897 C900 1.350 . S
N898 S896 1.610 . S
N898 C899 1.351 . S
C899 C893 1.428 . S
C899 N898 1.351 . S
C899 C900 1.434 . S
C900 C891 1.429 . S
C900 N897 1.350 . S
C900 C899 1.434 . S
C901 C902 1.369 . S
C901 C903 1.419 . S
C901 H905 0.930 . S
C902 C901 1.369 . S
C902 C911 1.429 . S
C903 C901 1.419 . S
C903 C904 1.363 . S
C903 H906 0.929 . S
C904 C903 1.363 . S
C904 C910 1.428 . S
H905 C901 0.930 . S
H906 C903 0.929 . S
S907 N908 1.613 . S
S907 N909 1.610 . S
N908 S907 1.613 . S
N908 C911 1.350 . S
N909 S907 1.610 . S
N909 C910 1.351 . S
C910 C904 1.428 . S
C910 N909 1.351 . S
C910 C911 1.434 . S
C911 C902 1.429 . S
C911 N908 1.350 . S
C911 C910 1.434 . S
C649 C255 2.579 . S
C651 C387 2.720 . S
C662 C471 2.742 . S
C660 C294 2.569 . S
C673 C547 2.526 . S
C671 C177 2.658 . S
C684 C631 2.536 . S
C682 C216 2.654 . S
C695 C378 2.719 1_565 S
C693 C99 2.596 . S
C704 C138 2.550 . S
C706 C462 2.741 . S
C715 C21 2.665 . S
C717 C536 2.533 . S
C726 C60 2.670 . S
C728 C620 2.537 . S
C739 C375 1.152 1_455 S
C737 C196 1.008 . S
C750 C459 1.087 1_545 S
C748 C235 0.940 . S
C761 C552 1.071 . S
C759 C289 0.936 . S
C770 C157 0.992 . S
C772 C636 1.133 . S
C781 C40 1.002 . S
C783 C384 1.153 . S
C794 C468 1.084 . S
C792 C79 0.973 . S
C805 C543 1.069 . S
C803 C133 0.948 . S
C814 C1 0.997 1_556 S
C816 C627 1.133 . S
C825 C211 3.019 . S
C827 C368 3.237 . S
C836 C250 2.985 . S
C838 C452 3.211 . S
C849 C546 3.393 . S
C847 C274 2.909 . S
C860 C630 3.409 . S
C858 C172 2.923 . S
C869 C55 3.013 . S
C871 C379 3.243 . S
C882 C463 3.212 . S
C880 C94 2.983 . S
C893 C555 3.391 . S
C891 C118 2.905 . S
C902 C16 2.921 . S
C904 C639 3.407 . S
