# Generated by pormake.
# Topology zzz, (3,6)-cn, num edge types: 1
# Building blocks:
#     Node 0, Type 0, BuildingBlock: KAKCAD_clean_linker_0, # of connection points: 3
#     Node 1, Type 0, BuildingBlock: KAKCAD_clean_linker_0, # of connection points: 3
#     Node 2, Type 0, BuildingBlock: KAKCAD_clean_linker_0, # of connection points: 3
#     Node 3, Type 0, BuildingBlock: KAKCAD_clean_linker_0, # of connection points: 3
#     Node 4, Type 0, BuildingBlock: KAKCAD_clean_linker_0, # of connection points: 3
#     Node 5, Type 0, BuildingBlock: KAKCAD_clean_linker_0, # of connection points: 3
#     Node 6, Type 0, BuildingBlock: KAKCAD_clean_linker_0, # of connection points: 3
#     Node 7, Type 0, BuildingBlock: KAKCAD_clean_linker_0, # of connection points: 3
#     Node 8, Type 1, BuildingBlock: CUKXOW_clean_sbu_0, # of connection points: 6
#     Node 9, Type 1, BuildingBlock: CUKXOW_clean_sbu_0, # of connection points: 6
#     Node 10, Type 1, BuildingBlock: CUKXOW_clean_sbu_0, # of connection points: 6
#     Node 11, Type 1, BuildingBlock: CUKXOW_clean_sbu_0, # of connection points: 6
#     Edge 12, Type (0, 1), None
#     Edge 13, Type (0, 1), None
#     Edge 14, Type (0, 1), None
#     Edge 15, Type (0, 1), None
#     Edge 16, Type (0, 1), None
#     Edge 17, Type (0, 1), None
#     Edge 18, Type (0, 1), None
#     Edge 19, Type (0, 1), None
#     Edge 20, Type (0, 1), None
#     Edge 21, Type (0, 1), None
#     Edge 22, Type (0, 1), None
#     Edge 23, Type (0, 1), None
#     Edge 24, Type (0, 1), None
#     Edge 25, Type (0, 1), None
#     Edge 26, Type (0, 1), None
#     Edge 27, Type (0, 1), None
#     Edge 28, Type (0, 1), None
#     Edge 29, Type (0, 1), None
#     Edge 30, Type (0, 1), None
#     Edge 31, Type (0, 1), None
#     Edge 32, Type (0, 1), None
#     Edge 33, Type (0, 1), None
#     Edge 34, Type (0, 1), None
#     Edge 35, Type (0, 1), None
# Relax obj value: 0.202
# Max RMSD: 0.229
# Mean RMSD: 0.182
data_MOF--net-zzz--node1-CUKXOW_clean_sbu_0--node2-KAKCAD_clean_linker_0--edge1-none
_symmetry_space_group_name_H-M    P1
_symmetry_Int_Tables_number       1
_symmetry_cell_setting            triclinic
loop_
_symmetry_equiv_pos_as_xyz
'x, y, z'
_cell_length_a     30.730155
_cell_length_b     32.032022
_cell_length_c     12.129097
_cell_angle_alpha  93.338749
_cell_angle_beta   86.233637
_cell_angle_gamma 96.062907
loop_
_atom_site_label
_atom_site_type_symbol
_atom_site_fract_x
_atom_site_fract_y
_atom_site_fract_z
_atom_type_partial_charge
C0 C 0.9133 0.48719 0.87979 0.0
C1 C 0.9468 0.46747 0.92191 0.0
C2 C 0.87092 0.48305 0.92889 0.0
C3 C 0.86098 0.45877 0.02151 0.0
C4 C 0.89411 0.43692 0.05985 0.0
C5 C 0.93683 0.44183 0.01156 0.0
C6 C 0.81909 0.46233 0.08842 0.0
C7 C 0.77973 0.46706 0.03982 0.0
C8 C 0.7425 0.4778 0.10524 0.0
C9 C 0.74488 0.4839 0.22104 0.0
C10 C 0.78415 0.47882 0.2696 0.0
C11 C 0.82035 0.46745 0.20319 0.0
C12 C 0.79268 0.49076 0.38598 0.0
C13 C 0.81268 0.53163 0.40814 0.0
C14 C 0.80082 0.45862 0.45352 0.0
C15 C 0.83389 0.46558 0.52837 0.0
C16 C 0.85899 0.50478 0.53657 0.0
C17 C 0.70262 0.48533 0.04981 0.0
C18 C 0.7056 0.51467 0.96726 0.0
C19 C 0.66237 0.46145 0.07275 0.0
C20 C 0.62621 0.46569 0.01087 0.0
C21 C 0.62947 0.4945 0.92659 0.0
C22 C 0.66933 0.51953 0.90717 0.0
C23 C 0.84601 0.53856 0.48239 0.0
H24 H 0.9201 0.50794 0.81306 0.0
H25 H 0.84681 0.50113 0.8984 0.0
H26 H 0.88746 0.41736 0.13012 0.0
H27 H 0.96211 0.42594 0.04486 0.0
H28 H 0.7782 0.46325 0.95072 0.0
H29 H 0.85106 0.4661 0.24158 0.0
H30 H 0.71719 0.49396 0.27188 0.0
H31 H 0.80738 0.5568 0.35615 0.0
H32 H 0.78624 0.42675 0.43701 0.0
H33 H 0.84274 0.43914 0.5708 0.0
H34 H 0.73629 0.5335 0.94825 0.0
H35 H 0.65935 0.43854 0.13579 0.0
H36 H 0.86439 0.56929 0.48871 0.0
H37 H 0.67298 0.54201 0.843 0.0
H38 H 0.59581 0.44623 0.02855 0.0
C39 C 1.01096 0.90152 0.84496 0.0
C40 C 0.03932 0.93228 0.89802 0.0
C41 C 0.99986 0.86232 0.88902 0.0
C42 C 1.016 0.85373 -0.01055 0.0
C43 C 0.04445 0.88447 0.04344 0.0
C44 C 0.05607 0.9235 -0.00211 0.0
C45 C 0.99801 0.81562 0.04592 0.0
C46 C 1.00174 0.77519 -0.00182 0.0
C47 C 0.98507 0.7396 0.05643 0.0
C48 C 0.96423 0.74474 0.16256 0.0
C49 C 0.95986 0.78531 0.20902 0.0
C50 C 0.97657 0.82031 0.1499 0.0
C51 C 0.94595 0.7937 0.32575 0.0
C52 C 0.97745 0.79105 0.4029 0.0
C53 C 0.91364 0.82144 0.34937 0.0
C54 C 0.91869 0.8523 0.43506 0.0
C55 C 0.95568 0.85489 0.49786 0.0
C56 C 0.99182 0.69729 0.00812 0.0
C57 C 0.95595 0.6676 -0.01242 0.0
C58 C 0.03443 0.68707 -0.02159 0.0
C59 C 0.04117 0.64793 0.92734 0.0
C60 C 1.00532 0.61864 0.90296 0.0
C61 C 0.96262 0.62867 0.93421 0.0
C62 C 0.98261 0.82194 0.48832 0.0
H63 H 0.99496 0.90866 0.77366 0.0
H64 H 0.9766 0.83974 0.84821 0.0
H65 H 0.05673 0.87862 0.12224 0.0
H66 H 0.07757 0.94696 0.04136 0.0
H67 H 1.01825 0.77141 0.91696 0.0
H68 H 0.97431 0.85173 0.18713 0.0
H69 H 0.95296 0.71758 0.20989 0.0
H70 H 1.00256 0.76977 0.38659 0.0
H71 H 0.88895 0.82381 0.29086 0.0
H72 H 0.89693 0.87694 0.44262 0.0
H73 H 0.92282 0.675 0.00989 0.0
H74 H 0.06252 0.70955 -0.00588 0.0
H75 H 1.01073 0.82274 0.53812 0.0
H76 H 0.93441 0.60656 0.91695 0.0
H77 H 0.07442 0.64116 0.90387 0.0
C78 C 0.59913 0.02664 -0.01876 0.0
C79 C 0.60544 0.05131 0.88916 0.0
C80 C 0.63463 0.01925 0.04011 0.0
C81 C 0.67713 0.03759 0.01021 0.0
C82 C 0.68336 0.06287 0.9185 0.0
C83 C 0.6477 0.06968 0.85831 0.0
C84 C 0.71391 0.03193 0.07925 0.0
C85 C 0.75565 0.02488 0.03287 0.0
C86 C 0.78954 0.01823 0.10074 0.0
C87 C 0.78105 0.01813 0.21681 0.0
C88 C 0.73911 0.02539 0.2631 0.0
C89 C 0.70649 0.0329 0.19394 0.0
C90 C 0.72525 0.02285 0.38168 0.0
C91 C 0.70988 0.98318 0.42076 0.0
C92 C 0.70975 0.05882 0.43607 0.0
C93 C 0.67444 0.05486 0.51463 0.0
C94 C 0.6552 0.01493 0.54291 0.0
C95 C 0.83339 0.01182 0.04742 0.0
C96 C 0.83725 0.98127 0.96036 0.0
C97 C 0.87039 0.03937 0.073 0.0
C98 C 0.90992 0.03782 0.00875 0.0
C99 C 0.9133 0.0083 0.91863 0.0
C100 C 0.8768 0.9793 0.89728 0.0
C101 C 0.67514 0.97925 0.50175 0.0
H102 H 0.56664 0.01309 0.00781 0.0
H103 H 0.62869 0.99913 0.10942 0.0
H104 H 0.71556 0.07782 0.8943 0.0
H105 H 0.65328 0.08873 0.78681 0.0
H106 H 0.7618 0.02434 0.94378 0.0
H107 H 0.67446 0.03897 0.23063 0.0
H108 H 0.80647 0.01214 0.2699 0.0
H109 H 0.72071 0.95496 0.37888 0.0
H110 H 0.72065 0.08969 0.40647 0.0
H111 H 0.66002 0.08287 0.54679 0.0
H112 H 0.80915 0.95966 0.93899 0.0
H113 H 0.86813 0.06343 0.13911 0.0
H114 H 0.66096 0.94813 0.52296 0.0
H115 H 0.87814 0.95602 0.82904 0.0
H116 H 0.93749 0.06039 0.0282 0.0
C117 C 0.56447 0.69163 0.57275 0.0
C118 C 0.59596 0.66319 0.57886 0.0
C119 C 0.56778 0.71891 0.48595 0.0
C120 C 0.60269 0.71807 0.40555 0.0
C121 C 0.63791 0.69526 0.42385 0.0
C122 C 0.6345 0.66777 0.50999 0.0
C123 C 0.59341 0.72324 0.2899 0.0
C124 C 0.60055 0.76173 0.23883 0.0
C125 C 0.59112 0.76358 0.12702 0.0
C126 C 0.57488 0.72659 0.06811 0.0
C127 C 0.5668 0.68822 0.11954 0.0
C128 C 0.57583 0.68723 0.23084 0.0
C129 C 0.54838 0.64924 0.05885 0.0
C130 C 0.51845 0.65077 -0.02374 0.0
C131 C 0.55995 0.60977 0.08521 0.0
C132 C 0.54128 0.57297 0.0331 0.0
C133 C 0.51206 0.57479 0.95008 0.0
C134 C 0.59461 0.80401 0.07173 0.0
C135 C 0.57688 0.83915 0.12468 0.0
C136 C 0.60977 0.80581 0.95991 0.0
C137 C 0.60358 0.84027 0.89965 0.0
C138 C 0.58275 0.87383 0.95054 0.0
C139 C 0.57113 0.8739 0.06449 0.0
C140 C 0.50093 0.61383 0.9213 0.0
H141 H 0.53464 0.6891 0.62581 0.0
H142 H 0.54007 0.73596 0.47287 0.0
H143 H 0.66499 0.69391 0.36226 0.0
H144 H 0.65953 0.64657 0.51393 0.0
H145 H 0.61325 0.78977 0.2854 0.0
H146 H 0.56856 0.6583 0.27369 0.0
H147 H 0.5677 0.72792 -0.01773 0.0
H148 H 0.50798 0.68032 0.95486 0.0
H149 H 0.5838 0.60707 0.14555 0.0
H150 H 0.55078 0.54311 0.05558 0.0
H151 H 0.56476 0.83866 0.21053 0.0
H152 H 0.62444 0.77957 0.91747 0.0
H153 H 0.47826 0.6157 0.85743 0.0
H154 H 0.55529 0.89968 0.1057 0.0
H155 H 0.61345 0.83982 0.81221 0.0
C156 C 0.14049 0.55952 0.54708 0.0
C157 C 0.10443 0.53537 0.50207 0.0
C158 C 0.18274 0.5573 0.49735 0.0
C159 C 0.18902 0.53073 0.40269 0.0
C160 C 0.15295 0.50512 0.36198 0.0
C161 C 0.11108 0.50786 0.41014 0.0
C162 C 0.23169 0.53145 0.33863 0.0
C163 C 0.2708 0.52671 0.38741 0.0
C164 C 0.30947 0.52137 0.32093 0.0
C165 C 0.30826 0.51986 0.20426 0.0
C166 C 0.26894 0.52534 0.1561 0.0
C167 C 0.23188 0.53286 0.22402 0.0
C168 C 0.26098 0.51697 0.03773 0.0
C169 C 0.25178 0.55096 -0.02209 0.0
C170 C 0.24171 0.47649 0.00745 0.0
C171 C 0.20797 0.47131 0.93414 0.0
C172 C 0.19409 0.5064 0.88766 0.0
C173 C 0.34991 0.51523 0.37567 0.0
C174 C 0.38794 0.54328 0.36175 0.0
C175 C 0.34906 0.48355 0.45128 0.0
C176 C 0.38499 0.48064 0.51426 0.0
C177 C 0.4224 0.50983 0.50454 0.0
C178 C 0.42378 0.54083 0.42629 0.0
C179 C 0.21853 0.5457 0.90311 0.0
H180 H 0.1358 0.58095 0.61826 0.0
H181 H 0.21002 0.57734 0.53008 0.0
H182 H 0.15701 0.48354 0.29074 0.0
H183 H 0.08387 0.48822 0.37558 0.0
H184 H 0.27089 0.52591 0.47664 0.0
H185 H 0.20162 0.53688 0.18616 0.0
H186 H 0.33699 0.51328 0.15216 0.0
H187 H 0.26566 0.58255 0.00073 0.0
H188 H 0.24776 0.44985 0.05329 0.0
H189 H 0.19015 0.44052 0.92213 0.0
H190 H 0.38922 0.56814 0.3044 0.0
H191 H 0.32009 0.46153 0.4634 0.0
H192 H 0.20892 0.57322 0.86697 0.0
H193 H 0.45224 0.56358 0.41604 0.0
H194 H 0.38274 0.45631 0.57335 0.0
C195 C 1.00458 0.12225 0.54751 0.0
C196 C 0.0228 0.0856 0.50722 0.0
C197 C 1.02002 0.16104 0.50431 0.0
C198 C 0.05473 0.16376 0.42241 0.0
C199 C 0.07493 0.12716 0.38939 0.0
C200 C 0.05837 0.08839 0.42904 0.0
C201 C 0.06659 0.20285 0.36151 0.0
C202 C 0.0643 0.24321 0.41216 0.0
C203 C 0.07151 0.27914 0.34884 0.0
C204 C 0.08202 0.27469 0.23423 0.0
C205 C 0.08599 0.23464 0.18444 0.0
C206 C 0.07743 0.19929 0.24776 0.0
C207 C 0.09492 0.22665 0.06479 0.0
C208 C 0.05948 0.22431 -0.00324 0.0
C209 C 0.13104 0.20449 0.03115 0.0
C210 C 0.12797 0.17425 0.94365 0.0
C211 C 0.08916 0.16675 0.88783 0.0
C212 C 0.06652 0.321 0.403 0.0
C213 C 0.09004 0.33465 0.49591 0.0
C214 C 0.03641 0.34641 0.36629 0.0
C215 C 0.02881 0.38428 0.4242 0.0
C216 C 0.05188 0.39765 0.51835 0.0
C217 C 0.08314 0.37283 0.55237 0.0
C218 C 0.05665 0.19445 0.90804 0.0
H219 H 0.97732 0.1206 0.60898 0.0
H220 H 1.00345 0.18835 0.53154 0.0
H221 H 0.10282 0.1281 0.32988 0.0
H222 H 0.07352 0.06058 0.39864 0.0
H223 H 0.05595 0.24677 0.50016 0.0
H224 H 0.07739 0.16847 0.20572 0.0
H225 H 0.08726 0.30205 0.18463 0.0
H226 H 0.0312 0.24095 0.02154 0.0
H227 H 0.15865 0.2058 0.08287 0.0
H228 H 0.1538 0.15373 0.92821 0.0
H229 H 0.11349 0.31555 0.5254 0.0
H230 H 1.01777 0.33631 0.295 0.0
H231 H 0.02664 0.18966 0.86478 0.0
H232 H 0.10137 0.38224 0.62474 0.0
H233 H 1.00477 0.40293 0.39569 0.0
C234 C 0.4098 0.93721 0.55807 0.0
C235 C 0.45218 0.95519 0.52673 0.0
C236 C 0.37406 0.94464 0.49878 0.0
C237 C 0.38036 0.9701 0.40743 0.0
C238 C 0.42296 0.98815 0.37731 0.0
C239 C 0.4585 0.98018 0.43528 0.0
C240 C 0.34368 0.97598 0.3382 0.0
C241 C 0.30206 0.98383 0.3841 0.0
C242 C 0.26846 0.99087 0.31562 0.0
C243 C 0.27718 0.99048 0.19953 0.0
C244 C 0.31892 0.9823 0.15378 0.0
C245 C 0.3512 0.97447 0.22351 0.0
C246 C 0.33297 0.9843 0.03514 0.0
C247 C 0.34833 0.94806 -0.01813 0.0
C248 C 0.34838 0.02373 -0.00538 0.0
C249 C 0.38296 0.02719 0.91309 0.0
C250 C 0.40274 0.99129 0.87285 0.0
C251 C 0.22465 0.99835 0.36788 0.0
C252 C 0.18693 0.97242 0.33896 0.0
C253 C 0.22111 0.02873 0.45551 0.0
C254 C 0.18108 0.03223 0.51546 0.0
C255 C 0.14373 0.00491 0.49046 0.0
C256 C 0.14692 0.97544 0.40018 0.0
C257 C 0.38348 0.95157 0.90276 0.0
H258 H 0.4042 0.91799 0.62923 0.0
H259 H 0.34176 0.92996 0.52317 0.0
H260 H 0.42895 0.00839 0.30825 0.0
H261 H 0.49104 0.99354 0.40847 0.0
H262 H 0.29583 0.98471 0.47318 0.0
H263 H 0.38313 0.96779 0.18729 0.0
H264 H 0.25206 0.9968 0.14594 0.0
H265 H 0.33739 0.91737 0.01256 0.0
H266 H 0.33768 0.05216 0.0356 0.0
H267 H 0.39716 0.05817 0.89066 0.0
H268 H 0.18884 0.94856 0.27225 0.0
H269 H 0.24969 0.0492 0.47932 0.0
H270 H 0.39776 0.92338 0.87138 0.0
H271 H 0.11871 0.95417 0.37793 0.0
H272 H 0.17987 0.0554 0.584 0.0
C273 C 0.40499 0.35416 0.96175 0.0
C274 C 0.43999 0.35243 0.88183 0.0
C275 C 0.40079 0.32682 0.04833 0.0
C276 C 0.43175 0.29792 0.05548 0.0
C277 C 0.46097 0.29087 0.96414 0.0
C278 C 0.46525 0.31823 0.87759 0.0
C279 C 0.44648 0.29103 0.16556 0.0
C280 C 0.44707 0.25092 0.20555 0.0
C281 C 0.46697 0.24672 0.30485 0.0
C282 C 0.48952 0.28212 0.35726 0.0
C283 C 0.48919 0.32253 0.31835 0.0
C284 C 0.46589 0.3264 0.22443 0.0
C285 C 0.51224 0.3606 0.37549 0.0
C286 C 0.52184 0.36068 0.4877 0.0
C287 C 0.52404 0.39797 0.31928 0.0
C288 C 0.5398 0.43501 0.37628 0.0
C289 C 0.54631 0.4351 0.48938 0.0
C290 C 0.46486 0.20602 0.35738 0.0
C291 C 0.4793 0.17031 0.29956 0.0
C292 C 0.45301 0.20446 0.47104 0.0
C293 C 0.45861 0.16907 0.52782 0.0
C294 C 0.47601 0.13451 0.47193 0.0
C295 C 0.48488 0.13465 0.35671 0.0
C296 C 0.54022 0.39718 0.54225 0.0
H297 H 0.38457 0.37984 0.96574 0.0
H298 H 0.37792 0.33271 0.11797 0.0
H299 H 0.48511 0.26873 0.96779 0.0
H300 H 0.49194 0.31577 0.81537 0.0
H301 H 0.43172 0.22355 0.16098 0.0
H302 H 0.46357 0.35702 0.19348 0.0
H303 H 0.5077 0.27738 0.42804 0.0
H304 H 0.51418 0.33326 0.53585 0.0
H305 H 0.5205 0.39938 0.23156 0.0
H306 H 0.54588 0.46373 0.33225 0.0
H307 H 0.48867 0.17087 0.21195 0.0
H308 H 0.44122 0.23147 0.51706 0.0
H309 H 0.54875 0.39603 0.62675 0.0
H310 H 0.49813 0.10814 0.31186 0.0
H311 H 0.45106 0.16953 0.61638 0.0
Tb312 Tb 1.0053 0.97057 0.6291 0.0
C313 C 0.10237 0.00617 0.56101 0.0
Tb314 Tb 0.04866 0.0472 0.76729 0.0
O315 O 1.00481 0.00955 0.48663 0.0
O316 O 1.00187 0.03591 0.647 0.0
O317 O 0.07209 0.97337 0.55499 0.0
C318 C 0.07848 0.12571 0.82968 0.0
O319 O 0.0979 0.03957 0.63002 0.0
C320 C 0.04934 0.97406 0.85248 0.0
C321 C 0.95375 0.00878 0.84408 0.0
O322 O 0.09801 0.09236 0.84248 0.0
O323 O 0.04207 0.11458 0.78253 0.0
O324 O 0.05346 0.00946 0.91116 0.0
O325 O 0.05103 0.98175 0.75165 0.0
O326 O 0.9833 0.04218 0.84983 0.0
O327 O 0.95799 0.97626 0.77189 0.0
C328 C 0.97134 0.89494 0.5542 0.0
O329 O 0.95075 0.9285 0.56452 0.0
O330 O 1.01125 0.90437 0.5828 0.0
C331 C 1.00548 0.04444 0.54705 0.0
Tb332 Tb 0.51877 0.04337 0.65344 0.0
C333 C 0.61128 0.01067 0.60059 0.0
Tb334 Tb 0.53909 0.9624 0.76164 0.0
O335 O 0.56925 0.08172 0.74414 0.0
O336 O 0.53742 0.02685 0.80776 0.0
O337 O 0.58164 0.03393 0.56779 0.0
C338 C 0.56975 0.90663 0.8832 0.0
O339 O 0.60286 0.98327 0.67942 0.0
C340 C 0.48936 0.95072 0.59345 0.0
C341 C 0.44654 0.99522 0.81444 0.0
O342 O 0.57018 0.90472 0.77585 0.0
O343 O 0.55174 0.9397 0.92189 0.0
O344 O 0.48864 0.92403 0.67037 0.0
O345 O 0.52046 0.97896 0.6076 0.0
O346 O 0.47613 0.97182 0.84694 0.0
O347 O 0.45499 0.02262 0.73563 0.0
C348 C 0.48846 0.10052 0.53594 0.0
O349 O 0.48872 0.10167 0.64309 0.0
O350 O 0.50544 0.0672 0.49474 0.0
C351 C 0.56845 0.05521 0.82142 0.0
Tb352 Tb 0.54914 0.54493 0.67248 0.0
C353 C 0.45881 0.5085 0.57863 0.0
Tb354 Tb 0.49924 0.46506 0.77287 0.0
O355 O 0.5603 0.5117 0.51199 0.0
O356 O 0.55272 0.4794 0.65758 0.0
O357 O 0.48764 0.54223 0.59056 0.0
C358 C 0.45707 0.39059 0.82452 0.0
O359 O 0.46025 0.4738 0.63292 0.0
C360 C 0.4951 0.53589 0.89104 0.0
C361 C 0.59214 0.4978 0.85698 0.0
O362 O 0.44123 0.42662 0.83973 0.0
O363 O 0.49661 0.39677 0.78029 0.0
O364 O 0.49232 0.49935 0.93319 0.0
O365 O 0.49604 0.53064 0.78751 0.0
O366 O 0.56214 0.46488 0.84639 0.0
O367 O 0.5909 0.53325 0.80529 0.0
C368 C 0.58362 0.62329 0.63316 0.0
O369 O 0.60271 0.58932 0.60907 0.0
O370 O 0.5453 0.61291 0.68107 0.0
C371 C 0.5561 0.47491 0.5536 0.0
Tb372 Tb 0.98437 0.51071 0.64761 0.0
C373 C 0.0427 0.43649 0.5834 0.0
Tb374 Tb 0.06816 0.50296 0.7801 0.0
O375 O 0.02484 0.52557 0.49735 0.0
O376 O 0.0495 0.53843 0.65271 0.0
O377 O 1.00353 0.45036 0.57925 0.0
C378 C 0.15085 0.50347 0.8392 0.0
O379 O 0.07381 0.4549 0.64632 0.0
C380 C 0.99208 0.47472 0.87441 0.0
C381 C 1.01262 0.57874 0.84086 0.0
O382 O 0.12011 0.47259 0.85061 0.0
O383 O 0.1347 0.53415 0.79598 0.0
O384 O 0.02668 0.4858 0.92989 0.0
O385 O 1.00313 0.47536 0.77325 0.0
O386 O 0.05141 0.56422 0.84447 0.0
O387 O 0.98085 0.56045 0.77958 0.0
C388 C 0.90205 0.50835 0.58558 0.0
O389 O 0.93143 0.54064 0.58044 0.0
O390 O 0.91931 0.47734 0.62415 0.0
C391 C 0.05979 0.53752 0.55075 0.0
loop_
_geom_bond_atom_site_label_1
_geom_bond_atom_site_label_2
_geom_bond_distance
_geom_bond_site_symmetry_2
_ccdc_geom_bond_type
C0 C1 1.386 . S
C0 C2 1.397 . S
C0 H24 0.931 . S
C1 C0 1.386 . S
C1 C5 1.397 . S
C2 C0 1.397 . S
C2 C3 1.384 . S
C2 H25 0.930 . S
C3 C2 1.384 . S
C3 C4 1.377 . S
C3 C6 1.481 . S
C4 C3 1.377 . S
C4 C5 1.389 . S
C4 H26 0.929 . S
C5 C1 1.397 . S
C5 C4 1.389 . S
C5 H27 0.931 . S
C6 C3 1.481 . S
C6 C7 1.387 . S
C6 C11 1.390 1_556 S
C7 C6 1.387 . S
C7 C8 1.401 1_556 S
C7 H28 0.930 . S
C8 C7 1.401 1_554 S
C8 C9 1.376 . S
C8 C17 1.511 . S
C9 C8 1.376 . S
C9 C10 1.392 . S
C9 H30 0.931 . S
C10 C9 1.392 . S
C10 C11 1.361 . S
C10 C12 1.500 . S
C11 C6 1.390 1_554 S
C11 C10 1.361 . S
C11 H29 0.931 . S
C12 C10 1.500 . S
C12 C13 1.371 . S
C12 C14 1.365 . S
C13 C12 1.371 . S
C13 C23 1.386 . S
C13 H31 0.931 . S
C14 C12 1.365 . S
C14 C15 1.409 . S
C14 H32 0.929 . S
C15 C14 1.409 . S
C15 C16 1.380 . S
C15 H33 0.930 . S
C16 C15 1.380 . S
C16 C23 1.357 . S
C17 C8 1.511 . S
C17 C18 1.341 1_554 S
C17 C19 1.371 . S
C18 C17 1.341 1_556 S
C18 C22 1.394 . S
C18 H34 0.930 . S
C19 C17 1.371 . S
C19 C20 1.392 . S
C19 H35 0.931 . S
C20 C19 1.392 . S
C20 C21 1.331 1_554 S
C20 H38 0.932 . S
C21 C20 1.331 1_556 S
C21 C22 1.336 . S
C22 C18 1.394 . S
C22 C21 1.336 . S
C22 H37 0.929 . S
C23 C13 1.386 . S
C23 C16 1.357 . S
C23 H36 0.928 . S
H24 C0 0.931 . S
H25 C2 0.930 . S
H26 C4 0.929 . S
H27 C5 0.931 . S
H28 C7 0.930 . S
H29 C11 0.931 . S
H30 C9 0.931 . S
H31 C13 0.931 . S
H32 C14 0.929 . S
H33 C15 0.930 . S
H34 C18 0.930 . S
H35 C19 0.931 . S
H36 C23 0.928 . S
H37 C22 0.929 . S
H38 C20 0.932 . S
C39 C40 1.386 . S
C39 C41 1.397 . S
C39 H63 0.931 . S
C40 C39 1.386 . S
C40 C44 1.397 . S
C41 C39 1.397 . S
C41 C42 1.384 . S
C41 H64 0.930 . S
C42 C41 1.384 . S
C42 C43 1.377 . S
C42 C45 1.481 . S
C43 C42 1.377 . S
C43 C44 1.389 . S
C43 H65 0.929 . S
C44 C40 1.397 . S
C44 C43 1.389 . S
C44 H66 0.931 . S
C45 C42 1.481 . S
C45 C46 1.387 . S
C45 C50 1.390 1_556 S
C46 C45 1.387 . S
C46 C47 1.407 . S
C46 H67 0.930 . S
C47 C46 1.407 . S
C47 C48 1.369 1_556 S
C47 C56 1.513 . S
C48 C47 1.369 1_554 S
C48 C49 1.392 . S
C48 H69 0.931 . S
C49 C48 1.392 . S
C49 C50 1.361 . S
C49 C51 1.500 . S
C50 C45 1.390 1_554 S
C50 C49 1.361 . S
C50 H68 0.931 . S
C51 C49 1.500 . S
C51 C52 1.371 . S
C51 C53 1.365 . S
C52 C51 1.371 . S
C52 C62 1.386 . S
C52 H70 0.931 . S
C53 C51 1.365 . S
C53 C54 1.409 . S
C53 H71 0.929 . S
C54 C53 1.409 . S
C54 C55 1.380 . S
C54 H72 0.930 . S
C55 C54 1.380 . S
C55 C62 1.357 . S
C56 C47 1.513 . S
C56 C57 1.341 . S
C56 C58 1.371 1_556 S
C57 C56 1.341 . S
C57 C61 1.394 . S
C57 H73 0.930 . S
C58 C56 1.371 1_554 S
C58 C59 1.392 . S
C58 H74 0.931 . S
C59 C58 1.392 . S
C59 C60 1.331 1_554 S
C59 H77 0.932 . S
C60 C59 1.331 1_556 S
C60 C61 1.336 . S
C61 C57 1.394 . S
C61 C60 1.336 . S
C61 H76 0.929 . S
C62 C52 1.386 . S
C62 C55 1.357 . S
C62 H75 0.928 . S
H63 C39 0.931 . S
H64 C41 0.930 . S
H65 C43 0.929 . S
H66 C44 0.931 . S
H67 C46 0.930 . S
H68 C50 0.931 . S
H69 C48 0.931 . S
H70 C52 0.931 . S
H71 C53 0.929 . S
H72 C54 0.930 . S
H73 C57 0.930 . S
H74 C58 0.931 . S
H75 C62 0.928 . S
H76 C61 0.929 . S
H77 C59 0.932 . S
C78 C79 1.395 . S
C78 C80 1.397 . S
C78 H102 0.931 . S
C79 C78 1.395 . S
C79 C83 1.389 1_565 S
C80 C78 1.397 . S
C80 C81 1.388 . S
C80 H103 0.930 . S
C81 C80 1.388 . S
C81 C82 1.372 1_565 S
C81 C84 1.482 1_556 S
C82 C81 1.372 1_545 S
C82 C83 1.389 . S
C82 H104 0.929 1_556 S
C83 C79 1.389 1_545 S
C83 C82 1.389 . S
C83 H105 0.931 . S
C84 C81 1.482 1_554 S
C84 C85 1.387 . S
C84 C89 1.390 . S
C85 C84 1.387 . S
C85 C86 1.401 . S
C85 H106 0.930 1_554 S
C86 C85 1.401 . S
C86 C87 1.376 . S
C86 C95 1.511 . S
C87 C86 1.376 . S
C87 C88 1.393 . S
C87 H108 0.931 . S
C88 C87 1.393 . S
C88 C89 1.362 . S
C88 C90 1.500 1_565 S
C89 C84 1.390 . S
C89 C88 1.362 . S
C89 H107 0.930 . S
C90 C88 1.500 1_545 S
C90 C91 1.357 1_545 S
C90 C92 1.379 . S
C91 C90 1.357 1_565 S
C91 C101 1.386 . S
C91 H109 0.931 . S
C92 C90 1.379 . S
C92 C93 1.409 . S
C92 H110 0.929 . S
C93 C92 1.409 . S
C93 C94 1.382 . S
C93 H111 0.930 . S
C94 C93 1.382 . S
C94 C101 1.356 1_545 S
C95 C86 1.511 . S
C95 C96 1.341 1_554 S
C95 C97 1.371 1_565 S
C96 C95 1.341 1_556 S
C96 C100 1.394 . S
C96 H112 0.930 . S
C97 C95 1.371 1_545 S
C97 C98 1.392 . S
C97 H113 0.931 . S
C98 C97 1.392 . S
C98 C99 1.331 1_545 S
C98 H116 0.932 . S
C99 C98 1.331 1_565 S
C99 C100 1.336 1_554 S
C100 C96 1.394 . S
C100 C99 1.336 1_556 S
C100 H115 0.929 . S
C101 C91 1.386 . S
C101 C94 1.356 1_565 S
C101 H114 0.928 . S
H102 C78 0.931 . S
H103 C80 0.930 . S
H104 C82 0.929 1_554 S
H105 C83 0.931 . S
H106 C85 0.930 1_556 S
H107 C89 0.930 . S
H108 C87 0.931 . S
H109 C91 0.931 . S
H110 C92 0.929 . S
H111 C93 0.930 . S
H112 C96 0.930 . S
H113 C97 0.931 . S
H114 C101 0.928 . S
H115 C100 0.929 . S
H116 C98 0.932 . S
C117 C118 1.386 . S
C117 C119 1.397 . S
C117 H141 0.931 . S
C118 C117 1.386 . S
C118 C122 1.397 . S
C119 C117 1.397 . S
C119 C120 1.384 . S
C119 H142 0.930 . S
C120 C119 1.384 . S
C120 C121 1.377 . S
C120 C123 1.481 . S
C121 C120 1.377 . S
C121 C122 1.389 . S
C121 H143 0.929 . S
C122 C118 1.397 . S
C122 C121 1.389 . S
C122 H144 0.931 . S
C123 C120 1.481 . S
C123 C124 1.387 . S
C123 C128 1.390 . S
C124 C123 1.387 . S
C124 C125 1.401 . S
C124 H145 0.930 . S
C125 C124 1.401 . S
C125 C126 1.376 1_554 S
C125 C134 1.511 . S
C126 C125 1.376 1_556 S
C126 C127 1.392 . S
C126 H147 0.931 . S
C127 C126 1.392 . S
C127 C128 1.361 1_556 S
C127 C129 1.500 . S
C128 C123 1.390 . S
C128 C127 1.361 1_554 S
C128 H146 0.931 . S
C129 C127 1.500 . S
C129 C130 1.371 . S
C129 C131 1.365 . S
C130 C129 1.371 . S
C130 C140 1.386 . S
C130 H148 0.931 . S
C131 C129 1.365 . S
C131 C132 1.409 . S
C131 H149 0.929 . S
C132 C131 1.409 . S
C132 C133 1.380 . S
C132 H150 0.930 . S
C133 C132 1.380 . S
C133 C140 1.357 . S
C134 C125 1.511 . S
C134 C135 1.341 . S
C134 C136 1.371 1_554 S
C135 C134 1.341 . S
C135 C139 1.394 . S
C135 H151 0.930 . S
C136 C134 1.371 1_556 S
C136 C137 1.392 . S
C136 H152 0.931 . S
C137 C136 1.392 . S
C137 C138 1.331 . S
C137 H155 0.932 . S
C138 C137 1.331 . S
C138 C139 1.336 1_556 S
C139 C135 1.394 . S
C139 C138 1.336 1_554 S
C139 H154 0.929 . S
C140 C130 1.386 . S
C140 C133 1.357 . S
C140 H153 0.928 . S
H141 C117 0.931 . S
H142 C119 0.930 . S
H143 C121 0.929 . S
H144 C122 0.931 . S
H145 C124 0.930 . S
H146 C128 0.931 . S
H147 C126 0.931 . S
H148 C130 0.931 . S
H149 C131 0.929 . S
H150 C132 0.930 . S
H151 C135 0.930 . S
H152 C136 0.931 . S
H153 C140 0.928 . S
H154 C139 0.929 . S
H155 C137 0.932 . S
C156 C157 1.386 . S
C156 C158 1.397 . S
C156 H180 0.931 . S
C157 C156 1.386 . S
C157 C161 1.397 . S
C158 C156 1.397 . S
C158 C159 1.384 . S
C158 H181 0.930 . S
C159 C158 1.384 . S
C159 C160 1.377 . S
C159 C162 1.481 . S
C160 C159 1.377 . S
C160 C161 1.389 . S
C160 H182 0.929 . S
C161 C157 1.397 . S
C161 C160 1.389 . S
C161 H183 0.931 . S
C162 C159 1.481 . S
C162 C163 1.387 . S
C162 C167 1.390 . S
C163 C162 1.387 . S
C163 C164 1.401 . S
C163 H184 0.930 . S
C164 C163 1.401 . S
C164 C165 1.376 . S
C164 C173 1.511 . S
C165 C164 1.376 . S
C165 C166 1.392 . S
C165 H186 0.931 . S
C166 C165 1.392 . S
C166 C167 1.361 . S
C166 C168 1.500 . S
C167 C162 1.390 . S
C167 C166 1.361 . S
C167 H185 0.931 . S
C168 C166 1.500 . S
C168 C169 1.371 . S
C168 C170 1.365 . S
C169 C168 1.371 . S
C169 C179 1.386 1_554 S
C169 H187 0.931 . S
C170 C168 1.365 . S
C170 C171 1.409 . S
C170 H188 0.929 . S
C171 C170 1.409 . S
C171 C172 1.380 1_554 S
C171 H189 0.930 . S
C172 C171 1.380 1_556 S
C172 C179 1.357 . S
C173 C164 1.511 . S
C173 C174 1.341 . S
C173 C175 1.371 . S
C174 C173 1.341 . S
C174 C178 1.394 . S
C174 H190 0.930 . S
C175 C173 1.371 . S
C175 C176 1.392 . S
C175 H191 0.931 . S
C176 C175 1.392 . S
C176 C177 1.331 . S
C176 H194 0.932 . S
C177 C176 1.331 . S
C177 C178 1.336 . S
C178 C174 1.394 . S
C178 C177 1.336 . S
C178 H193 0.929 . S
C179 C169 1.386 1_556 S
C179 C172 1.357 . S
C179 H192 0.928 . S
H180 C156 0.931 . S
H181 C158 0.930 . S
H182 C160 0.929 . S
H183 C161 0.931 . S
H184 C163 0.930 . S
H185 C167 0.931 . S
H186 C165 0.931 . S
H187 C169 0.931 . S
H188 C170 0.929 . S
H189 C171 0.930 . S
H190 C174 0.930 . S
H191 C175 0.931 . S
H192 C179 0.928 . S
H193 C178 0.929 . S
H194 C176 0.932 . S
C195 C196 1.386 . S
C195 C197 1.397 . S
C195 H219 0.931 . S
C196 C195 1.386 . S
C196 C200 1.397 . S
C197 C195 1.397 . S
C197 C198 1.384 . S
C197 H220 0.930 . S
C198 C197 1.384 . S
C198 C199 1.377 . S
C198 C201 1.481 . S
C199 C198 1.377 . S
C199 C200 1.389 . S
C199 H221 0.929 . S
C200 C196 1.397 . S
C200 C199 1.389 . S
C200 H222 0.931 . S
C201 C198 1.481 . S
C201 C202 1.387 . S
C201 C206 1.390 . S
C202 C201 1.387 . S
C202 C203 1.401 . S
C202 H223 0.930 . S
C203 C202 1.401 . S
C203 C204 1.376 . S
C203 C212 1.511 . S
C204 C203 1.376 . S
C204 C205 1.392 . S
C204 H225 0.931 . S
C205 C204 1.392 . S
C205 C206 1.361 . S
C205 C207 1.500 . S
C206 C201 1.390 . S
C206 C205 1.361 . S
C206 H224 0.931 . S
C207 C205 1.500 . S
C207 C208 1.371 . S
C207 C209 1.365 . S
C208 C207 1.371 . S
C208 C218 1.386 . S
C208 H226 0.931 . S
C209 C207 1.365 . S
C209 C210 1.409 . S
C209 H227 0.929 . S
C210 C209 1.409 . S
C210 C211 1.380 1_554 S
C210 H228 0.930 . S
C211 C210 1.380 1_556 S
C211 C218 1.357 1_556 S
C212 C203 1.511 . S
C212 C213 1.341 . S
C212 C214 1.371 . S
C213 C212 1.341 . S
C213 C217 1.394 . S
C213 H229 0.930 . S
C214 C212 1.371 . S
C214 C215 1.392 . S
C214 H230 0.931 . S
C215 C214 1.392 . S
C215 C216 1.331 . S
C215 H233 0.932 . S
C216 C215 1.331 . S
C216 C217 1.336 . S
C217 C213 1.394 . S
C217 C216 1.336 . S
C217 H232 0.929 . S
C218 C208 1.386 . S
C218 C211 1.357 1_554 S
C218 H231 0.928 1_554 S
H219 C195 0.931 . S
H220 C197 0.930 . S
H221 C199 0.929 . S
H222 C200 0.931 . S
H223 C202 0.930 . S
H224 C206 0.931 . S
H225 C204 0.931 . S
H226 C208 0.931 . S
H227 C209 0.929 . S
H228 C210 0.930 . S
H229 C213 0.930 . S
H230 C214 0.931 . S
H231 C218 0.928 1_556 S
H232 C217 0.929 . S
H233 C215 0.932 . S
C234 C235 1.386 1_565 S
C234 C236 1.397 . S
C234 H258 0.931 . S
C235 C234 1.386 1_545 S
C235 C239 1.397 . S
C236 C234 1.397 . S
C236 C237 1.384 1_565 S
C236 H259 0.930 . S
C237 C236 1.384 1_545 S
C237 C238 1.377 . S
C237 C240 1.481 . S
C238 C237 1.377 . S
C238 C239 1.389 . S
C238 H260 0.929 . S
C239 C235 1.397 . S
C239 C238 1.389 . S
C239 H261 0.931 . S
C240 C237 1.481 . S
C240 C241 1.387 . S
C240 C245 1.390 . S
C241 C240 1.387 . S
C241 C242 1.401 . S
C241 H262 0.930 . S
C242 C241 1.401 . S
C242 C243 1.376 . S
C242 C251 1.511 . S
C243 C242 1.376 . S
C243 C244 1.392 . S
C243 H264 0.931 . S
C244 C243 1.392 . S
C244 C245 1.361 . S
C244 C246 1.500 . S
C245 C240 1.390 . S
C245 C244 1.361 . S
C245 H263 0.931 . S
C246 C244 1.500 . S
C246 C247 1.371 1_545 S
C246 C248 1.365 . S
C247 C246 1.371 1_565 S
C247 C257 1.386 1_554 S
C247 H265 0.931 . S
C248 C246 1.365 . S
C248 C249 1.409 1_554 S
C248 H266 0.929 . S
C249 C248 1.409 1_556 S
C249 C250 1.380 . S
C249 H267 0.930 . S
C250 C249 1.380 . S
C250 C257 1.357 1_545 S
C251 C242 1.511 . S
C251 C252 1.341 1_545 S
C251 C253 1.371 . S
C252 C251 1.341 1_565 S
C252 C256 1.394 . S
C252 H268 0.930 . S
C253 C251 1.371 . S
C253 C254 1.392 . S
C253 H269 0.931 . S
C254 C253 1.392 . S
C254 C255 1.331 . S
C254 H272 0.932 . S
C255 C254 1.331 . S
C255 C256 1.336 1_545 S
C256 C252 1.394 . S
C256 C255 1.336 1_565 S
C256 H271 0.929 . S
C257 C247 1.386 1_556 S
C257 C250 1.357 1_565 S
C257 H270 0.928 . S
H258 C234 0.931 . S
H259 C236 0.930 . S
H260 C238 0.929 . S
H261 C239 0.931 . S
H262 C241 0.930 . S
H263 C245 0.931 . S
H264 C243 0.931 . S
H265 C247 0.931 . S
H266 C248 0.929 . S
H267 C249 0.930 . S
H268 C252 0.930 . S
H269 C253 0.931 . S
H270 C257 0.928 . S
H271 C256 0.929 . S
H272 C254 0.932 . S
C273 C274 1.386 . S
C273 C275 1.397 1_556 S
C273 H297 0.931 . S
C274 C273 1.386 . S
C274 C278 1.404 . S
C275 C273 1.397 1_554 S
C275 C276 1.384 . S
C275 H298 0.930 . S
C276 C275 1.384 . S
C276 C277 1.377 . S
C276 C279 1.481 . S
C277 C276 1.377 . S
C277 C278 1.379 1_554 S
C277 H299 0.929 . S
C278 C274 1.404 . S
C278 C277 1.379 1_556 S
C278 H300 0.934 . S
C279 C276 1.481 . S
C279 C280 1.387 . S
C279 C284 1.390 . S
C280 C279 1.387 . S
C280 C281 1.401 . S
C280 H301 0.930 . S
C281 C280 1.401 . S
C281 C282 1.376 . S
C281 C290 1.511 . S
C282 C281 1.376 . S
C282 C283 1.392 . S
C282 H303 0.931 . S
C283 C282 1.392 . S
C283 C284 1.361 . S
C283 C285 1.500 . S
C284 C279 1.390 . S
C284 C283 1.361 . S
C284 H302 0.931 . S
C285 C283 1.500 . S
C285 C286 1.371 . S
C285 C287 1.365 . S
C286 C285 1.371 . S
C286 C296 1.386 . S
C286 H304 0.931 . S
C287 C285 1.365 . S
C287 C288 1.409 . S
C287 H305 0.929 . S
C288 C287 1.409 . S
C288 C289 1.380 . S
C288 H306 0.930 . S
C289 C288 1.380 . S
C289 C296 1.357 . S
C290 C281 1.511 . S
C290 C291 1.341 . S
C290 C292 1.371 . S
C291 C290 1.341 . S
C291 C295 1.394 . S
C291 H307 0.930 . S
C292 C290 1.371 . S
C292 C293 1.392 . S
C292 H308 0.931 . S
C293 C292 1.392 . S
C293 C294 1.331 . S
C293 H311 0.932 . S
C294 C293 1.331 . S
C294 C295 1.336 . S
C295 C291 1.394 . S
C295 C294 1.336 . S
C295 H310 0.929 . S
C296 C286 1.386 . S
C296 C289 1.357 . S
C296 H309 0.928 . S
H297 C273 0.931 . S
H298 C275 0.930 . S
H299 C277 0.929 . S
H300 C278 0.934 . S
H301 C280 0.930 . S
H302 C284 0.931 . S
H303 C282 0.931 . S
H304 C286 0.931 . S
H305 C287 0.929 . S
H306 C288 0.930 . S
H307 C291 0.930 . S
H308 C292 0.931 . S
H309 C296 0.928 . S
H310 C295 0.929 . S
H311 C293 0.932 . S
Tb312 O315 2.453 1_665 S
Tb312 O316 2.596 1_665 S
Tb312 O317 2.374 1_655 S
Tb312 O325 2.343 . S
Tb312 O327 2.353 1_565 S
Tb312 O329 2.427 . S
Tb312 O330 2.513 . S
C313 O317 1.251 . S
C313 O319 1.263 . S
Tb314 O316 2.343 . S
Tb314 O319 2.353 1_545 S
Tb314 O322 2.427 . S
Tb314 O323 2.513 . S
Tb314 O324 2.453 1_545 S
Tb314 O325 2.596 1_445 S
Tb314 O326 2.374 1_455 S
O315 Tb312 2.453 1_445 S
O315 C331 1.245 . S
O316 Tb312 2.596 1_445 S
O316 Tb314 2.343 . S
O316 C331 1.259 . S
O317 Tb312 2.374 1_455 S
O317 C313 1.251 . S
C318 O322 1.275 . S
C318 O323 1.246 . S
O319 C313 1.263 . S
O319 Tb314 2.353 1_565 S
C320 O324 1.245 1_655 S
C320 O325 1.259 . S
C321 O326 1.250 . S
C321 O327 1.263 . S
O322 Tb314 2.427 . S
O322 C318 1.275 . S
O323 Tb314 2.513 . S
O323 C318 1.246 . S
O324 Tb314 2.453 1_565 S
O324 C320 1.245 1_455 S
O325 Tb312 2.343 . S
O325 Tb314 2.596 1_665 S
O325 C320 1.259 . S
O326 Tb314 2.374 1_655 S
O326 C321 1.250 . S
O327 Tb312 2.353 1_545 S
O327 C321 1.263 . S
C328 O329 1.275 . S
C328 O330 1.246 . S
O329 Tb312 2.427 . S
O329 C328 1.275 . S
O330 Tb312 2.513 . S
O330 C328 1.246 . S
C331 O315 1.245 . S
C331 O316 1.259 . S
Tb332 O335 2.453 . S
Tb332 O336 2.596 1_545 S
Tb332 O337 2.374 . S
Tb332 O345 2.343 . S
Tb332 O347 2.353 . S
Tb332 O349 2.427 . S
Tb332 O350 2.513 . S
C333 O337 1.251 . S
C333 O339 1.263 1_545 S
Tb334 O336 2.343 . S
Tb334 O339 2.353 . S
Tb334 O342 2.427 . S
Tb334 O343 2.513 . S
Tb334 O344 2.453 . S
Tb334 O345 2.596 1_565 S
Tb334 O346 2.374 . S
O335 Tb332 2.453 . S
O335 C351 1.245 . S
O336 Tb332 2.596 1_565 S
O336 Tb334 2.343 . S
O336 C351 1.259 1_565 S
O337 Tb332 2.374 . S
O337 C333 1.251 . S
C338 O342 1.275 . S
C338 O343 1.246 . S
O339 C333 1.263 1_565 S
O339 Tb334 2.353 . S
C340 O344 1.245 . S
C340 O345 1.259 1_565 S
C341 O346 1.250 1_545 S
C341 O347 1.263 . S
O342 Tb334 2.427 . S
O342 C338 1.275 . S
O343 Tb334 2.513 . S
O343 C338 1.246 . S
O344 Tb334 2.453 . S
O344 C340 1.245 . S
O345 Tb332 2.343 . S
O345 Tb334 2.596 1_545 S
O345 C340 1.259 1_545 S
O346 Tb334 2.374 . S
O346 C341 1.250 1_565 S
O347 Tb332 2.353 . S
O347 C341 1.263 . S
C348 O349 1.275 . S
C348 O350 1.246 . S
O349 Tb332 2.427 . S
O349 C348 1.275 . S
O350 Tb332 2.513 . S
O350 C348 1.246 . S
C351 O335 1.245 . S
C351 O336 1.259 1_545 S
Tb352 O355 2.453 . S
Tb352 O356 2.596 . S
Tb352 O357 2.374 . S
Tb352 O365 2.343 . S
Tb352 O367 2.353 . S
Tb352 O369 2.427 . S
Tb352 O370 2.513 . S
C353 O357 1.251 . S
C353 O359 1.263 . S
Tb354 O356 2.343 . S
Tb354 O359 2.353 . S
Tb354 O362 2.427 . S
Tb354 O363 2.513 . S
Tb354 O364 2.453 . S
Tb354 O365 2.596 . S
Tb354 O366 2.374 . S
O355 Tb352 2.453 . S
O355 C371 1.245 . S
O356 Tb352 2.596 . S
O356 Tb354 2.343 . S
O356 C371 1.259 . S
O357 Tb352 2.374 . S
O357 C353 1.251 . S
C358 O362 1.275 . S
C358 O363 1.246 . S
O359 C353 1.263 . S
O359 Tb354 2.353 . S
C360 O364 1.245 . S
C360 O365 1.259 . S
C361 O366 1.250 . S
C361 O367 1.263 . S
O362 Tb354 2.427 . S
O362 C358 1.275 . S
O363 Tb354 2.513 . S
O363 C358 1.246 . S
O364 Tb354 2.453 . S
O364 C360 1.245 . S
O365 Tb352 2.343 . S
O365 Tb354 2.596 . S
O365 C360 1.259 . S
O366 Tb354 2.374 . S
O366 C361 1.250 . S
O367 Tb352 2.353 . S
O367 C361 1.263 . S
C368 O369 1.275 . S
C368 O370 1.246 . S
O369 Tb352 2.427 . S
O369 C368 1.275 . S
O370 Tb352 2.513 . S
O370 C368 1.246 . S
C371 O355 1.245 . S
C371 O356 1.259 . S
Tb372 O375 2.453 1_655 S
Tb372 O376 2.596 1_655 S
Tb372 O377 2.374 1_655 S
Tb372 O385 2.343 . S
Tb372 O387 2.353 . S
Tb372 O389 2.427 . S
Tb372 O390 2.513 . S
C373 O377 1.251 . S
C373 O379 1.263 . S
Tb374 O376 2.343 . S
Tb374 O379 2.353 . S
Tb374 O382 2.427 . S
Tb374 O383 2.513 . S
Tb374 O384 2.453 1_455 S
Tb374 O385 2.596 1_455 S
Tb374 O386 2.374 1_455 S
O375 Tb372 2.453 1_455 S
O375 C391 1.245 . S
O376 Tb372 2.596 1_455 S
O376 Tb374 2.343 . S
O376 C391 1.259 . S
O377 Tb372 2.374 1_455 S
O377 C373 1.251 . S
C378 O382 1.275 . S
C378 O383 1.246 . S
O379 C373 1.263 . S
O379 Tb374 2.353 . S
C380 O384 1.245 . S
C380 O385 1.259 . S
C381 O386 1.250 . S
C381 O387 1.263 . S
O382 Tb374 2.427 . S
O382 C378 1.275 . S
O383 Tb374 2.513 . S
O383 C378 1.246 . S
O384 Tb374 2.453 1_655 S
O384 C380 1.245 . S
O385 Tb372 2.343 . S
O385 Tb374 2.596 1_655 S
O385 C380 1.259 . S
O386 Tb374 2.374 1_655 S
O386 C381 1.250 . S
O387 Tb372 2.353 . S
O387 C381 1.263 . S
C388 O389 1.275 . S
C388 O390 1.246 . S
O389 Tb372 2.427 . S
O389 C388 1.275 . S
O390 Tb372 2.513 . S
O390 C388 1.246 . S
C391 O375 1.245 . S
C391 O376 1.259 . S
C255 C313 2.226 1_545 S
C348 C294 3.701 . S
C353 C177 2.101 . S
C373 C216 3.176 . S
C321 C99 2.241 1_546 S
C138 C338 3.650 . S
C21 C361 2.075 . S
C60 C381 3.231 . S
C331 C196 3.757 . S
C340 C235 1.600 1_565 S
C371 C289 3.880 . S
C157 C391 2.263 . S
C40 C320 3.782 . S
C351 C79 1.606 1_545 S
C360 C133 3.896 . S
C1 C380 2.252 . S
C211 C318 3.266 . S
C250 C341 3.310 . S
C358 C274 3.741 . S
C378 C172 3.217 . S
C55 C328 3.255 . S
C333 C94 3.310 . S
C368 C118 3.723 . S
C16 C388 3.224 . S
