# Generated by pormake.
# Topology hwx, (6,3)-cn, num edge types: 1
# Building blocks:
#     Node 0, Type 0, BuildingBlock: IZENUY_clean_sbu_0, # of connection points: 6
#     Node 1, Type 0, BuildingBlock: IZENUY_clean_sbu_0, # of connection points: 6
#     Node 2, Type 0, BuildingBlock: IZENUY_clean_sbu_0, # of connection points: 6
#     Node 3, Type 0, BuildingBlock: IZENUY_clean_sbu_0, # of connection points: 6
#     Node 4, Type 1, BuildingBlock: INOVEN_clean_linker_0, # of connection points: 3
#     Node 5, Type 1, BuildingBlock: INOVEN_clean_linker_0, # of connection points: 3
#     Node 6, Type 1, BuildingBlock: INOVEN_clean_linker_0, # of connection points: 3
#     Node 7, Type 1, BuildingBlock: INOVEN_clean_linker_0, # of connection points: 3
#     Node 8, Type 1, BuildingBlock: INOVEN_clean_linker_0, # of connection points: 3
#     Node 9, Type 1, BuildingBlock: INOVEN_clean_linker_0, # of connection points: 3
#     Node 10, Type 1, BuildingBlock: INOVEN_clean_linker_0, # of connection points: 3
#     Node 11, Type 1, BuildingBlock: INOVEN_clean_linker_0, # of connection points: 3
#     Edge 12, Type (0, 1), BuildingBlock: KIFKEQ_clean_linker_1, # of connection points: 2
#     Edge 13, Type (0, 1), BuildingBlock: KIFKEQ_clean_linker_1, # of connection points: 2
#     Edge 14, Type (0, 1), BuildingBlock: KIFKEQ_clean_linker_1, # of connection points: 2
#     Edge 15, Type (0, 1), BuildingBlock: KIFKEQ_clean_linker_1, # of connection points: 2
#     Edge 16, Type (0, 1), BuildingBlock: KIFKEQ_clean_linker_1, # of connection points: 2
#     Edge 17, Type (0, 1), BuildingBlock: KIFKEQ_clean_linker_1, # of connection points: 2
#     Edge 18, Type (0, 1), BuildingBlock: KIFKEQ_clean_linker_1, # of connection points: 2
#     Edge 19, Type (0, 1), BuildingBlock: KIFKEQ_clean_linker_1, # of connection points: 2
#     Edge 20, Type (0, 1), BuildingBlock: KIFKEQ_clean_linker_1, # of connection points: 2
#     Edge 21, Type (0, 1), BuildingBlock: KIFKEQ_clean_linker_1, # of connection points: 2
#     Edge 22, Type (0, 1), BuildingBlock: KIFKEQ_clean_linker_1, # of connection points: 2
#     Edge 23, Type (0, 1), BuildingBlock: KIFKEQ_clean_linker_1, # of connection points: 2
#     Edge 24, Type (0, 1), BuildingBlock: KIFKEQ_clean_linker_1, # of connection points: 2
#     Edge 25, Type (0, 1), BuildingBlock: KIFKEQ_clean_linker_1, # of connection points: 2
#     Edge 26, Type (0, 1), BuildingBlock: KIFKEQ_clean_linker_1, # of connection points: 2
#     Edge 27, Type (0, 1), BuildingBlock: KIFKEQ_clean_linker_1, # of connection points: 2
#     Edge 28, Type (0, 1), BuildingBlock: KIFKEQ_clean_linker_1, # of connection points: 2
#     Edge 29, Type (0, 1), BuildingBlock: KIFKEQ_clean_linker_1, # of connection points: 2
#     Edge 30, Type (0, 1), BuildingBlock: KIFKEQ_clean_linker_1, # of connection points: 2
#     Edge 31, Type (0, 1), BuildingBlock: KIFKEQ_clean_linker_1, # of connection points: 2
#     Edge 32, Type (0, 1), BuildingBlock: KIFKEQ_clean_linker_1, # of connection points: 2
#     Edge 33, Type (0, 1), BuildingBlock: KIFKEQ_clean_linker_1, # of connection points: 2
#     Edge 34, Type (0, 1), BuildingBlock: KIFKEQ_clean_linker_1, # of connection points: 2
#     Edge 35, Type (0, 1), BuildingBlock: KIFKEQ_clean_linker_1, # of connection points: 2
# Relax obj value: 0.004
# Max RMSD: 0.059
# Mean RMSD: 0.048
data_MOF--net-hwx--node1-IZENUY_clean_sbu_0--node2-INOVEN_clean_linker_0--edge1-KIFKEQ_clean_linker_1
_symmetry_space_group_name_H-M    P1
_symmetry_Int_Tables_number       1
_symmetry_cell_setting            triclinic
loop_
_symmetry_equiv_pos_as_xyz
'x, y, z'
_cell_length_a     51.910638
_cell_length_b     52.022325
_cell_length_c     21.184794
_cell_angle_alpha  91.974589
_cell_angle_beta   91.985639
_cell_angle_gamma 89.975407
loop_
_atom_site_label
_atom_site_type_symbol
_atom_site_fract_x
_atom_site_fract_y
_atom_site_fract_z
_atom_type_partial_charge
Fe0 Fe 0.24349 0.23797 0.07846 0.0
Fe1 Fe 0.24158 0.23973 0.93332 0.0
O2 O 0.23054 0.22684 0.00394 0.0
Fe3 Fe 0.20637 0.20269 1.00014 0.0
O4 O 0.18461 0.22296 0.04518 0.0
O5 O 0.21332 0.23407 0.11984 0.0
O6 O 0.23346 0.27078 0.06435 0.0
C7 C 0.23897 0.28339 0.01679 0.0
C8 C 0.2401 0.18646 0.09856 0.0
O9 O 0.24723 0.2722 0.96746 0.0
C10 C 0.23602 0.18629 0.90278 0.0
O11 O 0.27587 0.2439 0.05052 0.0
O12 O 0.27463 0.23006 0.95117 0.0
O13 O 0.21809 0.1866 0.07105 0.0
O14 O 0.25455 0.20593 0.09796 0.0
C15 C 0.18999 0.23587 0.90351 0.0
O16 O 0.23781 0.20945 0.8866 0.0
O17 O 0.22658 0.18093 0.95484 0.0
C18 C 0.28719 0.23576 0.0018 0.0
O19 O 0.20936 0.25047 0.91011 0.0
O20 O 0.19007 0.21413 0.92841 0.0
C21 C 0.1901 0.23268 0.09939 0.0
Fe22 Fe 0.26679 0.74083 0.58618 0.0
Fe23 Fe 0.30106 0.70224 0.51539 0.0
O24 O 0.27797 0.72733 0.5143 0.0
Fe25 Fe 0.26601 0.73914 0.44154 0.0
O26 O 0.27804 0.77129 0.46195 0.0
O27 O 0.2617 0.77322 0.55611 0.0
O28 O 0.29903 0.75116 0.61107 0.0
C29 C 0.31829 0.73643 0.61535 0.0
C30 C 0.22175 0.73809 0.51599 0.0
O31 O 0.31796 0.71432 0.58817 0.0
C32 C 0.26644 0.68737 0.41392 0.0
O33 O 0.26991 0.71107 0.62998 0.0
O34 O 0.2802 0.68168 0.5586 0.0
O35 O 0.23377 0.74681 0.47023 0.0
O36 O 0.23384 0.7313 0.56539 0.0
C37 C 0.31891 0.73014 0.41891 0.0
O38 O 0.28812 0.68581 0.443 0.0
O39 O 0.2534 0.70784 0.41626 0.0
C40 C 0.27112 0.68772 0.61144 0.0
O41 O 0.32378 0.72082 0.47214 0.0
O42 O 0.29586 0.73342 0.39944 0.0
C43 C 0.27179 0.78419 0.51058 0.0
Fe44 Fe 0.76705 0.77617 0.93862 0.0
Fe45 Fe 0.76525 0.77737 0.08352 0.0
O46 O 0.77754 0.78947 0.01331 0.0
Fe47 Fe 0.80041 0.81488 0.01768 0.0
O48 O 0.77929 0.83557 0.97183 0.0
O49 O 0.7696 0.80645 0.89728 0.0
O50 O 0.73371 0.78461 0.95265 0.0
C51 C 0.72145 0.77823 1.0001 0.0
C52 C 0.81841 0.78219 0.91873 0.0
O53 O 0.73315 0.77003 0.04883 0.0
C54 C 0.8182 0.78563 0.115 0.0
O55 O 0.76261 0.74348 0.96613 0.0
O56 O 0.77689 0.74516 0.06505 0.0
O57 O 0.81745 0.80394 0.94725 0.0
O58 O 0.79966 0.76679 0.91944 0.0
C59 C 0.76575 0.82897 0.11327 0.0
O60 O 0.79512 0.78265 0.13084 0.0
O61 O 0.82317 0.79594 0.06375 0.0
C62 C 0.77153 0.73245 0.01452 0.0
O63 O 0.75265 0.80859 0.10735 0.0
O64 O 0.78755 0.83058 0.08873 0.0
C65 C 0.77026 0.8297 0.91719 0.0
Fe66 Fe 0.70912 0.31527 0.5119 0.0
Fe67 Fe 0.74229 0.27656 0.58441 0.0
O68 O 0.73162 0.28967 0.51197 0.0
Fe69 Fe 0.74348 0.277 0.43988 0.0
O70 O 0.75666 0.30787 0.42027 0.0
O71 O 0.7224 0.3308 0.44368 0.0
O72 O 0.73039 0.33581 0.56125 0.0
C73 C 0.73915 0.32999 0.6151 0.0
C74 C 0.69074 0.28671 0.40923 0.0
O75 O 0.73967 0.30676 0.63106 0.0
C76 C 0.73705 0.23257 0.50254 0.0
O77 O 0.69191 0.30425 0.58019 0.0
O78 O 0.70972 0.26712 0.60236 0.0
O79 O 0.71372 0.28278 0.3932 0.0
O80 O 0.68607 0.29673 0.46261 0.0
C81 C 0.78758 0.27801 0.52268 0.0
O82 O 0.74687 0.24382 0.55154 0.0
O83 O 0.73099 0.24517 0.4544 0.0
C84 C 0.69084 0.28241 0.60472 0.0
O85 O 0.77547 0.28528 0.57078 0.0
O86 O 0.77557 0.26916 0.47349 0.0
C87 C 0.74404 0.32858 0.41816 0.0
H88 H 0.24767 0.5224 0.89871 0.0
H89 H 0.24214 0.59242 0.01218 0.0
H90 H 0.23662 0.51959 0.09915 0.0
N91 N 0.24115 0.49043 0.99146 0.0
N92 N 0.23385 0.47682 0.03484 0.0
C93 C 0.24487 0.53224 0.94387 0.0
C94 C 0.2455 0.55929 0.94868 0.0
C95 C 0.24124 0.51773 0.99764 0.0
C96 C 0.2386 0.53048 0.05689 0.0
C97 C 0.23888 0.55739 0.06185 0.0
C98 C 0.24191 0.57159 0.00775 0.0
H99 H 0.98249 0.75064 0.62856 0.0
H100 H 0.91263 0.75641 0.51497 0.0
H101 H 0.98514 0.74738 0.4251 0.0
N102 N 0.0143 0.7461 0.53443 0.0
N103 N 0.02814 0.74253 0.48793 0.0
C104 C 0.97268 0.75067 0.58255 0.0
C105 C 0.94584 0.75383 0.57813 0.0
C106 C 0.98707 0.74836 0.52776 0.0
C107 C 0.97431 0.74897 0.46787 0.0
C108 C 0.9474 0.75151 0.46325 0.0
C109 C 0.93339 0.754 0.51847 0.0
H110 H 0.77855 0.49569 0.13828 0.0
H111 H 0.76941 0.42379 0.03463 0.0
H112 H 0.76674 0.49472 0.93576 0.0
N113 N 0.77498 0.52569 0.0408 0.0
N114 N 0.76869 0.53916 0.99518 0.0
C115 C 0.77582 0.48507 0.09362 0.0
C116 C 0.77439 0.45818 0.09258 0.0
C117 C 0.7734 0.49841 0.03732 0.0
C118 C 0.76914 0.48457 0.97937 0.0
C119 C 0.76737 0.45756 0.97809 0.0
C120 C 0.77055 0.44461 0.03491 0.0
H121 H 0.02405 0.27275 0.38811 0.0
H122 H 0.09622 0.26417 0.49118 0.0
H123 H 0.0259 0.26975 0.59153 0.0
N124 N 0.99436 0.27389 0.48695 0.0
N125 N 0.98135 0.27276 0.53525 0.0
C126 C 0.03483 0.27126 0.43258 0.0
C127 C 0.06177 0.2689 0.43301 0.0
C128 C 0.02168 0.27179 0.48947 0.0
C129 C 0.03576 0.26973 0.54728 0.0
C130 C 0.06263 0.26678 0.54776 0.0
C131 C 0.07545 0.26658 0.4907 0.0
H132 H 0.74091 0.99434 0.62538 0.0
H133 H 0.73948 0.92378 0.51259 0.0
H134 H 0.73312 0.99598 0.42218 0.0
N135 N 0.73514 0.02573 0.53022 0.0
N136 N 0.73465 0.03928 0.48267 0.0
C137 C 0.73914 0.98425 0.57983 0.0
C138 C 0.74094 0.95725 0.57591 0.0
C139 C 0.73618 0.99843 0.52473 0.0
C140 C 0.7349 0.98537 0.46524 0.0
C141 C 0.73584 0.95847 0.46119 0.0
C142 C 0.73854 0.9446 0.51637 0.0
H143 H 0.52564 0.24734 0.88898 0.0
H144 H 0.59435 0.26862 0.99652 0.0
H145 H 0.52366 0.25696 0.09179 0.0
N146 N 0.49458 0.24632 0.98468 0.0
N147 N 0.48012 0.25107 0.02943 0.0
C148 C 0.53545 0.25143 0.9342 0.0
C149 C 0.56158 0.25828 0.93656 0.0
C150 C 0.52151 0.25126 0.98978 0.0
C151 C 0.53424 0.25704 0.04861 0.0
C152 C 0.56059 0.26344 0.05142 0.0
C153 C 0.57397 0.26396 0.99506 0.0
H154 H 0.27596 0.02155 0.38795 0.0
H155 H 0.25941 0.09134 0.49239 0.0
H156 H 0.2689 0.02064 0.59017 0.0
N157 N 0.27658 0.99082 0.48422 0.0
N158 N 0.27786 0.97732 0.53178 0.0
C159 C 0.27309 0.03166 0.43276 0.0
C160 C 0.26781 0.05807 0.43415 0.0
C161 C 0.27351 0.01796 0.4887 0.0
C162 C 0.26909 0.03109 0.54684 0.0
C163 C 0.26367 0.0576 0.54844 0.0
C164 C 0.26332 0.07084 0.49184 0.0
H165 H 0.48566 0.75461 0.13066 0.0
H166 H 0.4135 0.75546 0.02482 0.0
H167 H 0.4839 0.77103 0.93259 0.0
N168 N 0.51528 0.76523 0.03596 0.0
N169 N 0.52776 0.7737 0.99184 0.0
C170 C 0.47482 0.7574 0.08679 0.0
C171 C 0.44791 0.75444 0.08435 0.0
C172 C 0.48795 0.76341 0.03234 0.0
C173 C 0.47392 0.7666 0.97494 0.0
C174 C 0.44699 0.76384 0.97198 0.0
C175 C 0.43426 0.75787 0.02693 0.0
H176 H 0.13758 0.23177 0.07557 0.0
H177 H 0.1955 0.2509 0.22115 0.0
H178 H 0.10378 0.24379 0.14878 0.0
H179 H 0.16207 0.26214 0.29391 0.0
H180 H 0.10123 0.29974 0.40295 0.0
H181 H 0.13009 0.29379 0.31527 0.0
H182 H 0.08456 0.22879 0.24433 0.0
H183 H 0.05515 0.23551 0.33136 0.0
C184 C 0.14312 0.23853 0.12304 0.0
C185 C 0.16928 0.24033 0.14243 0.0
C186 C 0.12375 0.24533 0.16502 0.0
C187 C 0.13017 0.25413 0.22714 0.0
C188 C 0.15635 0.25601 0.2461 0.0
C189 C 0.17559 0.24931 0.20436 0.0
C190 C 0.09715 0.28455 0.36774 0.0
C191 C 0.07615 0.26797 0.37391 0.0
C192 C 0.11376 0.28097 0.31783 0.0
C193 C 0.10999 0.26046 0.27346 0.0
C194 C 0.08799 0.24484 0.27747 0.0
C195 C 0.07115 0.24864 0.32724 0.0
H196 H 0.25789 0.69408 0.73441 0.0
H197 H 0.27114 0.6352 0.59008 0.0
H198 H 0.25193 0.66109 0.81104 0.0
H199 H 0.26509 0.60203 0.6677 0.0
H200 H 0.22504 0.55429 0.8271 0.0
H201 H 0.23049 0.584 0.7408 0.0
H202 H 0.28311 0.62967 0.86036 0.0
H203 H 0.27807 0.6001 0.94547 0.0
C204 C 0.25937 0.6741 0.71879 0.0
C205 C 0.26528 0.66734 0.65614 0.0
C206 C 0.25607 0.6552 0.76289 0.0
C207 C 0.2584 0.62902 0.7455 0.0
C208 C 0.26321 0.62208 0.68233 0.0
C209 C 0.26675 0.64108 0.63806 0.0
C210 C 0.23808 0.57045 0.83439 0.0
C211 C 0.25073 0.57515 0.89347 0.0
C212 C 0.24115 0.58744 0.78514 0.0
C213 C 0.25681 0.6094 0.79443 0.0
C214 C 0.27041 0.61327 0.85239 0.0
C215 C 0.26749 0.59632 0.90113 0.0
H216 H 0.87066 0.78904 0.10056 0.0
H217 H 0.81365 0.76644 0.23199 0.0
H218 H 0.90497 0.77767 0.17685 0.0
H219 H 0.84754 0.75584 0.30786 0.0
H220 H 0.90948 0.71939 0.41878 0.0
H221 H 0.88062 0.72504 0.32703 0.0
H222 H 0.92368 0.79236 0.27931 0.0
H223 H 0.95315 0.78592 0.37031 0.0
C224 C 0.86543 0.78169 0.14558 0.0
C225 C 0.83937 0.77868 0.16008 0.0
C226 C 0.88508 0.77524 0.18933 0.0
C227 C 0.87905 0.7656 0.2483 0.0
C228 C 0.85298 0.76261 0.26242 0.0
C229 C 0.83346 0.76896 0.21894 0.0
C230 C 0.91306 0.73501 0.38768 0.0
C231 C 0.93335 0.75231 0.40149 0.0
C232 C 0.89645 0.73842 0.3355 0.0
C233 C 0.89947 0.75951 0.29656 0.0
C234 C 0.92084 0.77588 0.30814 0.0
C235 C 0.9377 0.77224 0.36016 0.0
H236 H 0.74007 0.38247 0.60111 0.0
H237 H 0.75211 0.324 0.73938 0.0
H238 H 0.74655 0.4159 0.68478 0.0
H239 H 0.7584 0.35719 0.82183 0.0
H240 H 0.7327 0.41868 0.96042 0.0
H241 H 0.7268 0.38959 0.86871 0.0
H242 H 0.78213 0.43303 0.76843 0.0
H243 H 0.78844 0.46223 0.86145 0.0
C244 C 0.74428 0.37673 0.64904 0.0
C245 C 0.74528 0.35052 0.6636 0.0
C246 C 0.74805 0.39587 0.69676 0.0
C247 C 0.75259 0.38908 0.75979 0.0
C248 C 0.75448 0.36295 0.77378 0.0
C249 C 0.75097 0.34393 0.72635 0.0
C250 C 0.74363 0.4221 0.91886 0.0
C251 C 0.76146 0.44241 0.91862 0.0
C252 C 0.74021 0.40545 0.86636 0.0
C253 C 0.75437 0.40879 0.812 0.0
C254 C 0.77103 0.43003 0.80992 0.0
C255 C 0.7746 0.44672 0.86298 0.0
H256 H 0.63863 0.28452 0.42818 0.0
H257 H 0.69471 0.27977 0.28203 0.0
H258 H 0.60375 0.27998 0.34709 0.0
H259 H 0.66007 0.27565 0.20205 0.0
H260 H 0.59419 0.30288 0.07712 0.0
H261 H 0.62372 0.30846 0.16843 0.0
H262 H 0.58862 0.2441 0.25567 0.0
H263 H 0.55922 0.23797 0.16291 0.0
C264 C 0.64352 0.28245 0.37897 0.0
C265 C 0.66945 0.28262 0.36153 0.0
C266 C 0.62358 0.27978 0.33278 0.0
C267 C 0.6293 0.27775 0.2685 0.0
C268 C 0.65517 0.2775 0.2513 0.0
C269 C 0.675 0.27973 0.29722 0.0
C270 C 0.59259 0.29 0.1159 0.0
C271 C 0.57475 0.26963 0.11224 0.0
C272 C 0.60946 0.29325 0.16815 0.0
C273 C 0.60868 0.27644 0.21841 0.0
C274 C 0.58958 0.25728 0.21732 0.0
C275 C 0.57275 0.25383 0.16444 0.0
H276 H 0.24475 0.19095 0.77774 0.0
H277 H 0.23973 0.13427 0.92143 0.0
H278 H 0.25062 0.15684 0.69828 0.0
H279 H 0.24596 0.09993 0.84083 0.0
H280 H 0.28897 0.05621 0.66467 0.0
H281 H 0.28243 0.08539 0.7566 0.0
H282 H 0.21844 0.12059 0.657 0.0
H283 H 0.22447 0.09138 0.56648 0.0
C284 C 0.24512 0.17123 0.7926 0.0
C285 C 0.24154 0.16535 0.85596 0.0
C286 C 0.24837 0.1517 0.74693 0.0
C287 C 0.24846 0.12581 0.76345 0.0
C288 C 0.24592 0.11978 0.82704 0.0
C289 C 0.24227 0.13941 0.87293 0.0
C290 C 0.27315 0.06978 0.6632 0.0
C291 C 0.25757 0.0719 0.60796 0.0
C292 C 0.26947 0.08646 0.7156 0.0
C293 C 0.25025 0.10549 0.71314 0.0
C294 C 0.2337 0.10641 0.65953 0.0
C295 C 0.23721 0.08972 0.60775 0.0
H296 H 0.37134 0.72955 0.4442 0.0
H297 H 0.31427 0.73985 0.29362 0.0
H298 H 0.40569 0.73387 0.36834 0.0
H299 H 0.34832 0.74392 0.21891 0.0
H300 H 0.41074 0.71793 0.09085 0.0
H301 H 0.38157 0.71168 0.17662 0.0
H302 H 0.4231 0.76899 0.29178 0.0
H303 H 0.45233 0.77561 0.20494 0.0
C304 C 0.36612 0.73281 0.39519 0.0
C305 C 0.34004 0.73418 0.37495 0.0
C306 C 0.38576 0.73534 0.35196 0.0
C307 C 0.3796 0.73888 0.28775 0.0
C308 C 0.3536 0.74078 0.26798 0.0
C309 C 0.33409 0.73859 0.31099 0.0
C310 C 0.41381 0.72908 0.13461 0.0
C311 C 0.43348 0.74764 0.14076 0.0
C312 C 0.39713 0.72548 0.18367 0.0
C313 C 0.39983 0.7402 0.24029 0.0
C314 C 0.42062 0.75744 0.24848 0.0
C315 C 0.43733 0.76117 0.19894 0.0
H316 H 0.75651 0.82357 0.79238 0.0
H317 H 0.76931 0.88222 0.93982 0.0
H318 H 0.74955 0.85665 0.71559 0.0
H319 H 0.76214 0.91555 0.86182 0.0
H320 H 0.71941 0.96154 0.69307 0.0
H321 H 0.72578 0.93234 0.7812 0.0
H322 H 0.7813 0.88918 0.67376 0.0
H323 H 0.77542 0.91826 0.58707 0.0
C324 C 0.75767 0.84352 0.80866 0.0
C325 C 0.76379 0.85019 0.87228 0.0
C326 C 0.75375 0.86248 0.76447 0.0
C327 C 0.75565 0.88863 0.78266 0.0
C328 C 0.76061 0.8955 0.84664 0.0
C329 C 0.76479 0.87642 0.8911 0.0
C330 C 0.73327 0.94606 0.68892 0.0
C331 C 0.74649 0.94185 0.63262 0.0
C332 C 0.73687 0.92938 0.7392 0.0
C333 C 0.75364 0.90825 0.73362 0.0
C334 C 0.7678 0.90496 0.67872 0.0
C335 C 0.76437 0.92159 0.62904 0.0
H336 H 0.82914 0.73706 0.85349 0.0
H337 H 0.8571 0.81468 0.88927 0.0
H338 H 0.863 0.72967 0.77724 0.0
H339 H 0.8906 0.80721 0.81325 0.0
H340 H 0.94201 0.72262 0.67878 0.0
H341 H 0.91322 0.72833 0.76812 0.0
H342 H 0.88651 0.80018 0.69344 0.0
H343 H 0.91487 0.79431 0.60455 0.0
C344 C 0.84261 0.75243 0.84564 0.0
C345 C 0.84019 0.77655 0.87697 0.0
C346 C 0.86207 0.74813 0.80233 0.0
C347 C 0.87926 0.76794 0.78914 0.0
C348 C 0.87743 0.79169 0.82212 0.0
C349 C 0.85823 0.79591 0.86577 0.0
C350 C 0.93016 0.73972 0.68222 0.0
C351 C 0.93054 0.75804 0.63511 0.0
C352 C 0.91363 0.7429 0.73285 0.0
C353 C 0.8977 0.7647 0.7376 0.0
C354 C 0.89874 0.78332 0.69129 0.0
C355 C 0.91486 0.77994 0.64038 0.0
H356 H 0.77376 0.32467 0.31451 0.0
H357 H 0.73425 0.37976 0.43344 0.0
H358 H 0.78416 0.35851 0.24329 0.0
H359 H 0.74599 0.41411 0.3646 0.0
H360 H 0.73851 0.4595 0.18221 0.0
H361 H 0.73408 0.42968 0.26725 0.0
H362 H 0.80706 0.39484 0.22052 0.0
H363 H 0.81029 0.4238 0.13279 0.0
C364 C 0.76783 0.34419 0.32615 0.0
C365 C 0.75296 0.34956 0.37906 0.0
C366 C 0.77395 0.36373 0.28553 0.0
C367 C 0.76582 0.38923 0.29763 0.0
C368 C 0.75205 0.39469 0.3526 0.0
C369 C 0.74544 0.37504 0.3924 0.0
C370 C 0.75379 0.44577 0.19129 0.0
C371 C 0.77473 0.44386 0.15147 0.0
C372 C 0.75137 0.42866 0.24017 0.0
C373 C 0.7701 0.40951 0.25084 0.0
C374 C 0.7919 0.40881 0.21299 0.0
C375 C 0.794 0.42559 0.16327 0.0
H376 H 0.18191 0.28065 0.84007 0.0
H377 H 0.14891 0.20564 0.86678 0.0
H378 H 0.14802 0.28902 0.75996 0.0
H379 H 0.11543 0.21407 0.78711 0.0
H380 H 0.09069 0.22476 0.576 0.0
H381 H 0.11917 0.21864 0.6684 0.0
H382 H 0.09789 0.29352 0.74404 0.0
H383 H 0.06893 0.29945 0.6511 0.0
C384 C 0.16735 0.26609 0.82943 0.0
C385 C 0.16836 0.24235 0.8593 0.0
C386 C 0.14788 0.27095 0.7839 0.0
C387 C 0.12926 0.25209 0.76711 0.0
C388 C 0.12971 0.22883 0.7987 0.0
C389 C 0.14892 0.22406 0.84443 0.0
C390 C 0.09185 0.23972 0.61287 0.0
C391 C 0.07766 0.2625 0.60693 0.0
C392 C 0.10807 0.23623 0.66572 0.0
C393 C 0.11071 0.25562 0.71333 0.0
C394 C 0.09624 0.27834 0.70783 0.0
C395 C 0.0796 0.28166 0.65518 0.0
H396 H 0.2784 0.63657 0.42216 0.0
H397 H 0.23561 0.6899 0.30736 0.0
H398 H 0.26743 0.60172 0.34622 0.0
H399 H 0.2259 0.65562 0.22949 0.0
H400 H 0.20159 0.58959 0.10457 0.0
H401 H 0.20421 0.61829 0.1983 0.0
H402 H 0.2792 0.58681 0.2473 0.0
H403 H 0.27547 0.55719 0.1559 0.0
C404 C 0.26664 0.64081 0.38055 0.0
C405 C 0.25801 0.66596 0.37042 0.0
C406 C 0.26046 0.62086 0.33673 0.0
C407 C 0.24596 0.62572 0.28101 0.0
C408 C 0.2367 0.65086 0.2721 0.0
C409 C 0.24243 0.67066 0.31659 0.0
C410 C 0.21821 0.58844 0.13675 0.0
C411 C 0.23826 0.57121 0.12372 0.0
C412 C 0.21994 0.60508 0.18996 0.0
C413 C 0.24213 0.6053 0.23026 0.0
C414 C 0.26164 0.58709 0.21829 0.0
C415 C 0.25961 0.5701 0.16579 0.0
H416 H 0.32804 0.78328 0.67444 0.0
H417 H 0.35835 0.70614 0.6545 0.0
H418 H 0.36251 0.79419 0.75185 0.0
H419 H 0.39215 0.71673 0.73312 0.0
H420 H 0.45864 0.74322 0.85569 0.0
H421 H 0.4305 0.74037 0.76096 0.0
H422 H 0.37239 0.78424 0.85863 0.0
H423 H 0.40098 0.78817 0.95167 0.0
C424 C 0.34208 0.76866 0.68643 0.0
C425 C 0.34024 0.74374 0.6588 0.0
C426 C 0.36181 0.7749 0.73094 0.0
C427 C 0.38005 0.75631 0.74916 0.0
C428 C 0.37872 0.73168 0.71971 0.0
C429 C 0.35913 0.72551 0.67491 0.0
C430 C 0.44015 0.75287 0.8562 0.0
C431 C 0.43188 0.76562 0.91143 0.0
C432 C 0.42388 0.75097 0.80219 0.0
C433 C 0.39898 0.76171 0.80237 0.0
C434 C 0.39143 0.77583 0.85642 0.0
C435 C 0.40773 0.77784 0.91015 0.0
H436 H 0.73425 0.82602 0.2133 0.0
H437 H 0.7781 0.87973 0.10922 0.0
H438 H 0.72424 0.86 0.29014 0.0
H439 H 0.76686 0.91427 0.18381 0.0
H440 H 0.77351 0.95833 0.37606 0.0
H441 H 0.77802 0.92869 0.28558 0.0
H442 H 0.7025 0.89734 0.3174 0.0
H443 H 0.69908 0.92607 0.41041 0.0
C444 C 0.74126 0.84527 0.20613 0.0
C445 C 0.7572 0.85017 0.15575 0.0
C446 C 0.73537 0.8649 0.24998 0.0
C447 C 0.74484 0.89005 0.24376 0.0
C448 C 0.75973 0.8951 0.19129 0.0
C449 C 0.76606 0.87534 0.14822 0.0
C450 C 0.75773 0.94541 0.36259 0.0
C451 C 0.73596 0.94438 0.39964 0.0
C452 C 0.7602 0.92843 0.3106 0.0
C453 C 0.74072 0.91029 0.29408 0.0
C454 C 0.7182 0.91051 0.32937 0.0
C455 C 0.71601 0.92716 0.38212 0.0
H456 H 0.64803 0.31178 0.62291 0.0
H457 H 0.68283 0.23952 0.67394 0.0
H458 H 0.61334 0.3045 0.69442 0.0
H459 H 0.64793 0.2324 0.74609 0.0
H460 H 0.58595 0.30086 0.90043 0.0
H461 H 0.61439 0.30493 0.81221 0.0
H462 H 0.59924 0.22578 0.75428 0.0
H463 H 0.57047 0.22181 0.84342 0.0
C464 C 0.64822 0.29422 0.64896 0.0
C465 C 0.6685 0.27643 0.64343 0.0
C466 C 0.6283 0.29009 0.68995 0.0
C467 C 0.62807 0.26802 0.72625 0.0
C468 C 0.64755 0.24952 0.7184 0.0
C469 C 0.66762 0.2537 0.67743 0.0
C470 C 0.58842 0.28447 0.86824 0.0
C471 C 0.57612 0.26104 0.87844 0.0
C472 C 0.60459 0.2868 0.81762 0.0
C473 C 0.60903 0.26567 0.77634 0.0
C474 C 0.59623 0.24233 0.7856 0.0
C475 C 0.57968 0.2401 0.83607 0.0
H476 H 0.21342 0.14182 0.10875 0.0
H477 H 0.28265 0.18111 0.17834 0.0
H478 H 0.22192 0.10755 0.1817 0.0
H479 H 0.29103 0.14657 0.25198 0.0
H480 H 0.30489 0.06936 0.3507 0.0
H481 H 0.30047 0.09827 0.26131 0.0
H482 H 0.2198 0.10845 0.2994 0.0
H483 H 0.22438 0.07994 0.38807 0.0
C484 C 0.23058 0.1431 0.13926 0.0
C485 C 0.24712 0.16449 0.13845 0.0
C486 C 0.23542 0.12341 0.18106 0.0
C487 C 0.25696 0.12453 0.22296 0.0
C488 C 0.27432 0.14516 0.21996 0.0
C489 C 0.26943 0.16501 0.1781 0.0
C490 C 0.28621 0.0775 0.33884 0.0
C491 C 0.26492 0.07247 0.37558 0.0
C492 C 0.28371 0.09413 0.28829 0.0
C493 C 0.25979 0.10555 0.27339 0.0
C494 C 0.23839 0.0997 0.30917 0.0
C495 C 0.24098 0.08346 0.35993 0.0
H496 H 0.23757 0.31558 0.12185 0.0
H497 H 0.23692 0.31558 0.91796 0.0
H498 H 0.23671 0.36244 0.12575 0.0
H499 H 0.23481 0.36229 0.92147 0.0
H500 H 0.25784 0.44629 0.94783 0.0
H501 H 0.25913 0.39942 0.94478 0.0
H502 H 0.21123 0.39875 0.10786 0.0
H503 H 0.21123 0.44577 0.11217 0.0
C504 C 0.23696 0.3256 0.07784 0.0
C505 C 0.23748 0.31186 0.01964 0.0
C506 C 0.23631 0.35252 0.07997 0.0
C507 C 0.23575 0.36635 0.0239 0.0
C508 C 0.23582 0.35246 0.96571 0.0
C509 C 0.23686 0.3256 0.96364 0.0
C510 C 0.24757 0.43606 0.98283 0.0
C511 C 0.23428 0.44951 0.03027 0.0
C512 C 0.24815 0.40915 0.98098 0.0
C513 C 0.23521 0.39509 0.02598 0.0
C514 C 0.2218 0.40877 0.07304 0.0
C515 C 0.22156 0.43566 0.07533 0.0
H516 H 0.18983 0.75701 0.42356 0.0
H517 H 0.18882 0.71917 0.60192 0.0
H518 H 0.14303 0.75754 0.41856 0.0
H519 H 0.14176 0.71909 0.59601 0.0
H520 H 0.0582 0.74928 0.59551 0.0
H521 H 0.10521 0.74764 0.6027 0.0
H522 H 0.10674 0.72956 0.40214 0.0
H523 H 0.05966 0.732 0.39517 0.0
C524 C 0.17963 0.74865 0.46162 0.0
C525 C 0.19315 0.73809 0.51324 0.0
C526 C 0.15272 0.7488 0.4585 0.0
C527 C 0.13855 0.73826 0.50672 0.0
C528 C 0.15204 0.72765 0.55839 0.0
C529 C 0.17903 0.72759 0.56164 0.0
C530 C 0.06861 0.74489 0.55308 0.0
C531 C 0.05541 0.74078 0.49445 0.0
C532 C 0.09556 0.7438 0.55723 0.0
C533 C 0.10983 0.73854 0.50298 0.0
C534 C 0.09644 0.73409 0.4447 0.0
C535 C 0.06954 0.73529 0.4406 0.0
H536 H 0.77458 0.70038 0.91082 0.0
H537 H 0.77239 0.70027 0.11437 0.0
H538 H 0.77565 0.65364 0.90656 0.0
H539 H 0.77219 0.65337 0.11023 0.0
H540 H 0.79349 0.5689 0.08666 0.0
H541 H 0.79599 0.61573 0.09092 0.0
H542 H 0.7493 0.61792 0.91799 0.0
H543 H 0.74807 0.57096 0.91272 0.0
C544 C 0.77417 0.69032 0.95472 0.0
C545 C 0.77327 0.70402 0.01291 0.0
C546 C 0.77459 0.66346 0.95229 0.0
C547 C 0.77372 0.64953 0.00797 0.0
C548 C 0.77322 0.66333 0.06634 0.0
C549 C 0.7732 0.69026 0.0688 0.0
C550 C 0.78384 0.57946 0.04957 0.0
C551 C 0.77047 0.56643 0.99919 0.0
C552 C 0.78511 0.60634 0.05216 0.0
C553 C 0.77282 0.62081 0.00489 0.0
C554 C 0.75945 0.60757 0.95468 0.0
C555 C 0.75851 0.5807 0.95172 0.0
H556 H 0.82042 0.29771 0.61655 0.0
H557 H 0.81963 0.25787 0.43407 0.0
H558 H 0.86746 0.29758 0.61926 0.0
H559 H 0.86645 0.25712 0.43759 0.0
H560 H 0.95094 0.26759 0.63179 0.0
H561 H 0.90377 0.26916 0.63011 0.0
H562 H 0.90309 0.28456 0.43081 0.0
H563 H 0.95002 0.2822 0.43264 0.0
C564 C 0.83025 0.28879 0.5772 0.0
C565 C 0.81619 0.27779 0.52513 0.0
C566 C 0.85724 0.28861 0.57887 0.0
C567 C 0.87082 0.27737 0.52859 0.0
C568 C 0.85671 0.26634 0.47666 0.0
C569 C 0.82978 0.26661 0.47486 0.0
C570 C 0.94054 0.27133 0.58786 0.0
C571 C 0.95402 0.27463 0.53261 0.0
C572 C 0.91359 0.2724 0.58683 0.0
C573 C 0.89955 0.27693 0.53026 0.0
C574 C 0.9132 0.2806 0.47497 0.0
C575 C 0.94013 0.27941 0.47604 0.0
H576 H 0.71378 0.20125 0.41038 0.0
H577 H 0.75631 0.19932 0.58917 0.0
H578 H 0.7115 0.15435 0.40668 0.0
H579 H 0.7548 0.15267 0.58448 0.0
H580 H 0.72844 0.06985 0.58829 0.0
H581 H 0.72712 0.11677 0.59266 0.0
H582 H 0.73791 0.11732 0.39121 0.0
H583 H 0.73828 0.07026 0.38714 0.0
C584 C 0.72273 0.19084 0.44873 0.0
C585 C 0.73525 0.20409 0.49998 0.0
C586 C 0.72155 0.16393 0.44649 0.0
C587 C 0.73298 0.14963 0.49528 0.0
C588 C 0.74538 0.16296 0.54659 0.0
C589 C 0.7464 0.1898 0.54904 0.0
C590 C 0.73046 0.08004 0.54503 0.0
C591 C 0.73359 0.06656 0.48714 0.0
C592 C 0.72983 0.10695 0.54749 0.0
C593 C 0.73252 0.12094 0.49231 0.0
C594 C 0.73541 0.10727 0.4345 0.0
C595 C 0.73583 0.08038 0.43207 0.0
H596 H 0.31982 0.23812 0.90284 0.0
H597 H 0.31905 0.23188 0.10545 0.0
H598 H 0.36683 0.24065 0.90867 0.0
H599 H 0.36584 0.23314 0.11125 0.0
H600 H 0.44626 0.26719 0.11206 0.0
H601 H 0.3995 0.26238 0.10422 0.0
H602 H 0.4063 0.21921 0.92736 0.0
H603 H 0.45299 0.22526 0.9344 0.0
C604 C 0.32973 0.23689 0.94848 0.0
C605 C 0.31573 0.23511 0.00374 0.0
C606 C 0.35671 0.23821 0.9519 0.0
C607 C 0.37029 0.23739 0.01058 0.0
C608 C 0.35616 0.23457 0.06541 0.0
C609 C 0.32927 0.23367 0.06208 0.0
C610 C 0.4376 0.25666 0.07174 0.0
C611 C 0.45309 0.24673 0.02407 0.0
C612 C 0.41084 0.25369 0.06726 0.0
C613 C 0.39894 0.24027 0.01519 0.0
C614 C 0.41464 0.22999 0.96764 0.0
C615 C 0.44144 0.23328 0.97183 0.0
H616 H 0.2954 0.81488 0.42678 0.0
H617 H 0.25338 0.81801 0.59945 0.0
H618 H 0.2991 0.86172 0.43161 0.0
H619 H 0.25636 0.86458 0.6032 0.0
H620 H 0.27402 0.9468 0.42457 0.0
H621 H 0.27378 0.8999 0.41941 0.0
H622 H 0.28574 0.89919 0.62235 0.0
H623 H 0.28505 0.94625 0.62716 0.0
C624 C 0.28684 0.82554 0.46556 0.0
C625 C 0.27407 0.81265 0.51266 0.0
C626 C 0.28887 0.85241 0.46821 0.0
C627 C 0.27809 0.86701 0.51791 0.0
C628 C 0.26534 0.85403 0.56488 0.0
C629 C 0.26344 0.82724 0.56243 0.0
C630 C 0.27678 0.9366 0.46797 0.0
C631 C 0.27954 0.95006 0.52659 0.0
C632 C 0.27678 0.90968 0.46502 0.0
C633 C 0.27963 0.89566 0.52048 0.0
C634 C 0.28303 0.90929 0.57878 0.0
C635 C 0.28286 0.93618 0.58168 0.0
H636 H 0.68987 0.77859 0.09986 0.0
H637 H 0.68851 0.77883 0.89594 0.0
H638 H 0.64308 0.77853 0.09813 0.0
H639 H 0.64149 0.77754 0.89382 0.0
H640 H 0.55663 0.79851 0.91318 0.0
H641 H 0.60373 0.80096 0.91444 0.0
H642 H 0.60749 0.75191 0.07533 0.0
H643 H 0.56061 0.75069 0.07536 0.0
C644 C 0.67953 0.77839 0.05453 0.0
C645 C 0.69291 0.77858 0.99801 0.0
C646 C 0.65263 0.77818 0.05349 0.0
C647 C 0.63833 0.77777 0.99583 0.0
C648 C 0.65176 0.77819 0.9392 0.0
C649 C 0.67875 0.77877 0.94031 0.0
C650 C 0.56773 0.78847 0.94888 0.0
C651 C 0.55512 0.77472 0.99432 0.0
C652 C 0.59466 0.78964 0.94941 0.0
C653 C 0.60958 0.77668 0.99508 0.0
C654 C 0.59676 0.76262 0.04027 0.0
C655 C 0.56985 0.76178 0.04017 0.0
loop_
_geom_bond_atom_site_label_1
_geom_bond_atom_site_label_2
_geom_bond_distance
_geom_bond_site_symmetry_2
_ccdc_geom_bond_type
Fe0 O2 1.918 . S
Fe0 O5 1.997 . S
Fe0 O6 2.002 . S
Fe0 O11 1.976 . S
Fe0 O14 1.996 . S
Fe1 O2 1.918 1_556 S
Fe1 O9 1.997 . S
Fe1 O12 1.996 . S
Fe1 O16 1.976 . S
Fe1 O19 2.002 . S
O2 Fe0 1.918 . S
O2 Fe1 1.918 1_554 S
O2 Fe3 1.918 . S
Fe3 O2 1.918 . S
Fe3 O4 2.012 . S
Fe3 O13 1.986 . S
Fe3 O17 1.986 1_554 S
Fe3 O20 1.986 1_554 S
O4 Fe3 2.012 . S
O4 C21 1.295 . S
O5 Fe0 1.997 . S
O5 C21 1.235 . S
O6 Fe0 2.002 . S
O6 C7 1.295 . S
C7 O6 1.295 . S
C7 O9 1.235 1_554 S
C8 O13 1.287 . S
C8 O14 1.255 . S
O9 Fe1 1.997 . S
O9 C7 1.235 1_556 S
C10 O16 1.287 . S
C10 O17 1.255 . S
O11 Fe0 1.976 . S
O11 C18 1.287 . S
O12 Fe1 1.996 . S
O12 C18 1.255 1_556 S
O13 Fe3 1.986 . S
O13 C8 1.287 . S
O14 Fe0 1.996 . S
O14 C8 1.255 . S
C15 O19 1.295 . S
C15 O20 1.235 . S
O16 Fe1 1.976 . S
O16 C10 1.287 . S
O17 Fe3 1.986 1_556 S
O17 C10 1.255 . S
C18 O11 1.287 . S
C18 O12 1.255 1_554 S
O19 Fe1 2.002 . S
O19 C15 1.295 . S
O20 Fe3 1.986 1_556 S
O20 C15 1.235 . S
C21 O4 1.295 . S
C21 O5 1.235 . S
Fe22 O24 1.918 . S
Fe22 O27 1.997 . S
Fe22 O28 2.002 . S
Fe22 O33 1.976 . S
Fe22 O36 1.996 . S
Fe23 O24 1.918 . S
Fe23 O31 1.997 . S
Fe23 O34 1.996 . S
Fe23 O38 1.976 . S
Fe23 O41 2.002 . S
O24 Fe22 1.918 . S
O24 Fe23 1.918 . S
O24 Fe25 1.918 . S
Fe25 O24 1.918 . S
Fe25 O26 2.002 . S
Fe25 O35 1.976 . S
Fe25 O39 1.996 . S
Fe25 O42 1.997 . S
O26 Fe25 2.002 . S
O26 C43 1.295 . S
O27 Fe22 1.997 . S
O27 C43 1.235 . S
O28 Fe22 2.002 . S
O28 C29 1.295 . S
C29 O28 1.295 . S
C29 O31 1.235 . S
C30 O35 1.287 . S
C30 O36 1.255 . S
O31 Fe23 1.997 . S
O31 C29 1.235 . S
C32 O38 1.287 . S
C32 O39 1.255 . S
O33 Fe22 1.976 . S
O33 C40 1.287 . S
O34 Fe23 1.996 . S
O34 C40 1.255 . S
O35 Fe25 1.976 . S
O35 C30 1.287 . S
O36 Fe22 1.996 . S
O36 C30 1.255 . S
C37 O41 1.295 . S
C37 O42 1.235 . S
O38 Fe23 1.976 . S
O38 C32 1.287 . S
O39 Fe25 1.996 . S
O39 C32 1.255 . S
C40 O33 1.287 . S
C40 O34 1.255 . S
O41 Fe23 2.002 . S
O41 C37 1.295 . S
O42 Fe25 1.997 . S
O42 C37 1.235 . S
C43 O26 1.295 . S
C43 O27 1.235 . S
Fe44 O46 1.918 1_556 S
Fe44 O49 1.997 . S
Fe44 O50 2.002 . S
Fe44 O55 1.976 . S
Fe44 O58 1.996 . S
Fe45 O46 1.918 . S
Fe45 O53 1.997 . S
Fe45 O56 1.996 . S
Fe45 O60 1.976 . S
Fe45 O63 2.002 . S
O46 Fe44 1.918 1_554 S
O46 Fe45 1.918 . S
O46 Fe47 1.918 . S
Fe47 O46 1.918 . S
Fe47 O48 2.002 1_554 S
Fe47 O57 1.976 1_554 S
Fe47 O61 1.996 . S
Fe47 O64 1.997 . S
O48 Fe47 2.002 1_556 S
O48 C65 1.295 . S
O49 Fe44 1.997 . S
O49 C65 1.235 . S
O50 Fe44 2.002 . S
O50 C51 1.295 1_556 S
C51 O50 1.295 1_554 S
C51 O53 1.235 . S
C52 O57 1.287 . S
C52 O58 1.255 . S
O53 Fe45 1.997 . S
O53 C51 1.235 . S
C54 O60 1.287 . S
C54 O61 1.255 . S
O55 Fe44 1.976 . S
O55 C62 1.287 1_556 S
O56 Fe45 1.996 . S
O56 C62 1.255 . S
O57 Fe47 1.976 1_556 S
O57 C52 1.287 . S
O58 Fe44 1.996 . S
O58 C52 1.255 . S
C59 O63 1.295 . S
C59 O64 1.235 . S
O60 Fe45 1.976 . S
O60 C54 1.287 . S
O61 Fe47 1.996 . S
O61 C54 1.255 . S
C62 O55 1.287 1_554 S
C62 O56 1.255 . S
O63 Fe45 2.002 . S
O63 C59 1.295 . S
O64 Fe47 1.997 . S
O64 C59 1.235 . S
C65 O48 1.295 . S
C65 O49 1.235 . S
Fe66 O68 1.918 . S
Fe66 O71 1.997 . S
Fe66 O72 2.002 . S
Fe66 O77 1.976 . S
Fe66 O80 1.996 . S
Fe67 O68 1.918 . S
Fe67 O75 1.997 . S
Fe67 O78 1.996 . S
Fe67 O82 1.976 . S
Fe67 O85 2.002 . S
O68 Fe66 1.918 . S
O68 Fe67 1.918 . S
O68 Fe69 1.918 . S
Fe69 O68 1.918 . S
Fe69 O70 2.002 . S
Fe69 O79 1.976 . S
Fe69 O83 1.996 . S
Fe69 O86 1.997 . S
O70 Fe69 2.002 . S
O70 C87 1.295 . S
O71 Fe66 1.997 . S
O71 C87 1.235 . S
O72 Fe66 2.002 . S
O72 C73 1.295 . S
C73 O72 1.295 . S
C73 O75 1.235 . S
C74 O79 1.287 . S
C74 O80 1.255 . S
O75 Fe67 1.997 . S
O75 C73 1.235 . S
C76 O82 1.287 . S
C76 O83 1.255 . S
O77 Fe66 1.976 . S
O77 C84 1.287 . S
O78 Fe67 1.996 . S
O78 C84 1.255 . S
O79 Fe69 1.976 . S
O79 C74 1.287 . S
O80 Fe66 1.996 . S
O80 C74 1.255 . S
C81 O85 1.295 . S
C81 O86 1.235 . S
O82 Fe67 1.976 . S
O82 C76 1.287 . S
O83 Fe69 1.996 . S
O83 C76 1.255 . S
C84 O77 1.287 . S
C84 O78 1.255 . S
O85 Fe67 2.002 . S
O85 C81 1.295 . S
O86 Fe69 1.997 . S
O86 C81 1.235 . S
C87 O70 1.295 . S
C87 O71 1.235 . S
H88 C93 0.929 . S
H89 C98 0.931 1_554 S
H90 C96 0.930 . S
N91 N92 1.234 1_556 S
N91 C95 1.453 . S
N92 N91 1.234 1_554 S
C93 H88 0.929 . S
C93 C94 1.373 . S
C93 C95 1.368 . S
C94 C93 1.373 . S
C94 C98 1.397 . S
C95 N91 1.453 . S
C95 C93 1.368 . S
C95 C96 1.373 1_556 S
C96 H90 0.930 . S
C96 C95 1.373 1_554 S
C96 C97 1.371 . S
C97 C96 1.371 . S
C97 C98 1.383 1_554 S
C98 H89 0.931 1_556 S
C98 C94 1.397 . S
C98 C97 1.383 1_556 S
H99 C104 0.929 . S
H100 C109 0.931 . S
H101 C107 0.955 . S
N102 N103 1.234 . S
N102 C106 1.448 1_455 S
N103 N102 1.234 . S
C104 H99 0.929 . S
C104 C105 1.373 . S
C104 C106 1.371 . S
C105 C104 1.373 . S
C105 C109 1.397 . S
C106 N102 1.448 1_655 S
C106 C104 1.371 . S
C106 C107 1.375 . S
C107 H101 0.955 . S
C107 C106 1.375 . S
C107 C108 1.371 . S
C108 C107 1.371 . S
C108 C109 1.383 . S
C109 H100 0.931 . S
C109 C105 1.397 . S
C109 C108 1.383 . S
H110 C115 0.929 . S
H111 C120 0.931 . S
H112 C118 0.930 . S
N113 N114 1.234 . S
N113 C117 1.453 . S
N114 N113 1.234 . S
C115 H110 0.929 . S
C115 C116 1.373 . S
C115 C117 1.368 . S
C116 C115 1.373 . S
C116 C120 1.397 . S
C117 N113 1.453 . S
C117 C115 1.368 . S
C117 C118 1.373 1_554 S
C118 H112 0.930 . S
C118 C117 1.373 1_556 S
C118 C119 1.371 . S
C119 C118 1.371 . S
C119 C120 1.383 1_556 S
C120 H111 0.931 . S
C120 C116 1.397 . S
C120 C119 1.383 1_554 S
H121 C126 0.929 . S
H122 C131 0.931 . S
H123 C129 0.920 1_655 S
N124 N125 1.234 . S
N124 C128 1.453 . S
N125 N124 1.234 . S
C126 H121 0.929 . S
C126 C127 1.373 . S
C126 C128 1.368 1_455 S
C127 C126 1.373 . S
C127 C131 1.397 . S
C128 N124 1.453 . S
C128 C126 1.368 1_655 S
C128 C129 1.373 1_655 S
C129 H123 0.920 1_455 S
C129 C128 1.373 1_455 S
C129 C130 1.371 . S
C130 C129 1.371 . S
C130 C131 1.383 . S
C131 H122 0.931 . S
C131 C127 1.397 . S
C131 C130 1.383 . S
H132 C137 0.929 . S
H133 C142 0.931 . S
H134 C140 0.930 1_545 S
N135 N136 1.234 . S
N135 C139 1.453 . S
N136 N135 1.234 . S
C137 H132 0.929 . S
C137 C138 1.373 . S
C137 C139 1.368 1_565 S
C138 C137 1.373 . S
C138 C142 1.397 . S
C139 N135 1.453 . S
C139 C137 1.368 1_545 S
C139 C140 1.373 1_545 S
C140 H134 0.930 1_565 S
C140 C139 1.373 1_565 S
C140 C141 1.371 . S
C141 C140 1.371 . S
C141 C142 1.383 . S
C142 H133 0.931 . S
C142 C138 1.397 . S
C142 C141 1.383 . S
H143 C148 0.929 . S
H144 C153 0.931 . S
H145 C151 0.930 . S
N146 N147 1.234 1_556 S
N146 C150 1.453 . S
N147 N146 1.234 1_554 S
C148 H143 0.929 . S
C148 C149 1.373 . S
C148 C150 1.368 . S
C149 C148 1.373 . S
C149 C153 1.397 1_556 S
C150 N146 1.453 . S
C150 C148 1.368 . S
C150 C151 1.373 1_556 S
C151 H145 0.930 . S
C151 C150 1.373 1_554 S
C151 C152 1.371 . S
C152 C151 1.371 . S
C152 C153 1.383 . S
C153 H144 0.931 . S
C153 C149 1.397 1_554 S
C153 C152 1.383 . S
H154 C159 0.929 . S
H155 C164 0.931 . S
H156 C162 0.930 1_565 S
N157 N158 1.234 . S
N157 C161 1.453 . S
N158 N157 1.234 . S
C159 H154 0.929 . S
C159 C160 1.373 . S
C159 C161 1.368 1_545 S
C160 C159 1.373 . S
C160 C164 1.397 . S
C161 N157 1.453 . S
C161 C159 1.368 1_565 S
C161 C162 1.373 1_565 S
C162 H156 0.930 1_545 S
C162 C161 1.373 1_545 S
C162 C163 1.371 . S
C163 C162 1.371 . S
C163 C164 1.383 . S
C164 H155 0.931 . S
C164 C160 1.397 . S
C164 C163 1.383 . S
H165 C170 0.929 . S
H166 C175 0.931 . S
H167 C173 0.930 . S
N168 N169 1.234 . S
N168 C172 1.453 . S
N169 N168 1.234 . S
C170 H165 0.929 . S
C170 C171 1.373 . S
C170 C172 1.368 . S
C171 C170 1.373 . S
C171 C175 1.397 . S
C172 N168 1.453 . S
C172 C170 1.368 . S
C172 C173 1.373 1_554 S
C173 H167 0.930 . S
C173 C172 1.373 1_556 S
C173 C174 1.371 . S
C174 C173 1.371 . S
C174 C175 1.383 1_556 S
C175 H166 0.931 . S
C175 C171 1.397 . S
C175 C174 1.383 1_554 S
H176 C184 0.950 . S
H177 C189 0.950 . S
H178 C186 0.950 . S
H179 C188 0.950 . S
H180 C190 0.950 . S
H181 C192 0.950 . S
H182 C194 0.950 . S
H183 C195 0.950 . S
C184 H176 0.950 . S
C184 C185 1.386 . S
C184 C186 1.391 . S
C185 C184 1.386 . S
C185 C189 1.393 . S
C186 H178 0.950 . S
C186 C184 1.391 . S
C186 C187 1.400 . S
C187 C186 1.400 . S
C187 C188 1.398 . S
C187 C193 1.491 . S
C188 H179 0.950 . S
C188 C187 1.398 . S
C188 C189 1.391 . S
C189 H177 0.950 . S
C189 C185 1.393 . S
C189 C188 1.391 . S
C190 H180 0.950 . S
C190 C191 1.386 . S
C190 C192 1.391 . S
C191 C190 1.386 . S
C191 C195 1.393 . S
C192 H181 0.950 . S
C192 C190 1.391 . S
C192 C193 1.400 . S
C193 C187 1.491 . S
C193 C192 1.400 . S
C193 C194 1.398 . S
C194 H182 0.950 . S
C194 C193 1.398 . S
C194 C195 1.391 . S
C195 H183 0.950 . S
C195 C191 1.393 . S
C195 C194 1.391 . S
H196 C204 0.950 . S
H197 C209 0.950 . S
H198 C206 0.950 . S
H199 C208 0.950 . S
H200 C210 0.950 . S
H201 C212 0.950 . S
H202 C214 0.950 . S
H203 C215 0.950 . S
C204 H196 0.950 . S
C204 C205 1.386 . S
C204 C206 1.391 . S
C205 C204 1.386 . S
C205 C209 1.393 . S
C206 H198 0.950 . S
C206 C204 1.391 . S
C206 C207 1.400 . S
C207 C206 1.400 . S
C207 C208 1.398 . S
C207 C213 1.491 . S
C208 H199 0.950 . S
C208 C207 1.398 . S
C208 C209 1.391 . S
C209 H197 0.950 . S
C209 C205 1.393 . S
C209 C208 1.391 . S
C210 H200 0.950 . S
C210 C211 1.386 . S
C210 C212 1.391 . S
C211 C210 1.386 . S
C211 C215 1.393 . S
C212 H201 0.950 . S
C212 C210 1.391 . S
C212 C213 1.400 . S
C213 C207 1.491 . S
C213 C212 1.400 . S
C213 C214 1.398 . S
C214 H202 0.950 . S
C214 C213 1.398 . S
C214 C215 1.391 . S
C215 H203 0.950 . S
C215 C211 1.393 . S
C215 C214 1.391 . S
H216 C224 0.950 . S
H217 C229 0.950 . S
H218 C226 0.950 . S
H219 C228 0.950 . S
H220 C230 0.950 . S
H221 C232 0.950 . S
H222 C234 0.950 . S
H223 C235 0.950 . S
C224 H216 0.950 . S
C224 C225 1.386 . S
C224 C226 1.391 . S
C225 C224 1.386 . S
C225 C229 1.393 . S
C226 H218 0.950 . S
C226 C224 1.391 . S
C226 C227 1.400 . S
C227 C226 1.400 . S
C227 C228 1.398 . S
C227 C233 1.491 . S
C228 H219 0.950 . S
C228 C227 1.398 . S
C228 C229 1.391 . S
C229 H217 0.950 . S
C229 C225 1.393 . S
C229 C228 1.391 . S
C230 H220 0.950 . S
C230 C231 1.386 . S
C230 C232 1.391 . S
C231 C230 1.386 . S
C231 C235 1.393 . S
C232 H221 0.950 . S
C232 C230 1.391 . S
C232 C233 1.400 . S
C233 C227 1.491 . S
C233 C232 1.400 . S
C233 C234 1.398 . S
C234 H222 0.950 . S
C234 C233 1.398 . S
C234 C235 1.391 . S
C235 H223 0.950 . S
C235 C231 1.393 . S
C235 C234 1.391 . S
H236 C244 0.950 . S
H237 C249 0.950 . S
H238 C246 0.950 . S
H239 C248 0.950 . S
H240 C250 0.950 . S
H241 C252 0.950 . S
H242 C254 0.950 . S
H243 C255 0.950 . S
C244 H236 0.950 . S
C244 C245 1.386 . S
C244 C246 1.391 . S
C245 C244 1.386 . S
C245 C249 1.393 . S
C246 H238 0.950 . S
C246 C244 1.391 . S
C246 C247 1.400 . S
C247 C246 1.400 . S
C247 C248 1.398 . S
C247 C253 1.491 . S
C248 H239 0.950 . S
C248 C247 1.398 . S
C248 C249 1.391 . S
C249 H237 0.950 . S
C249 C245 1.393 . S
C249 C248 1.391 . S
C250 H240 0.950 . S
C250 C251 1.386 . S
C250 C252 1.391 . S
C251 C250 1.386 . S
C251 C255 1.393 . S
C252 H241 0.950 . S
C252 C250 1.391 . S
C252 C253 1.400 . S
C253 C247 1.491 . S
C253 C252 1.400 . S
C253 C254 1.398 . S
C254 H242 0.950 . S
C254 C253 1.398 . S
C254 C255 1.391 . S
C255 H243 0.950 . S
C255 C251 1.393 . S
C255 C254 1.391 . S
H256 C264 0.950 . S
H257 C269 0.950 . S
H258 C266 0.950 . S
H259 C268 0.950 . S
H260 C270 0.950 . S
H261 C272 0.950 . S
H262 C274 0.950 . S
H263 C275 0.950 . S
C264 H256 0.950 . S
C264 C265 1.386 . S
C264 C266 1.391 . S
C265 C264 1.386 . S
C265 C269 1.393 . S
C266 H258 0.950 . S
C266 C264 1.391 . S
C266 C267 1.400 . S
C267 C266 1.400 . S
C267 C268 1.398 . S
C267 C273 1.491 . S
C268 H259 0.950 . S
C268 C267 1.398 . S
C268 C269 1.391 . S
C269 H257 0.950 . S
C269 C265 1.393 . S
C269 C268 1.391 . S
C270 H260 0.950 . S
C270 C271 1.386 . S
C270 C272 1.391 . S
C271 C270 1.386 . S
C271 C275 1.393 . S
C272 H261 0.950 . S
C272 C270 1.391 . S
C272 C273 1.400 . S
C273 C267 1.491 . S
C273 C272 1.400 . S
C273 C274 1.398 . S
C274 H262 0.950 . S
C274 C273 1.398 . S
C274 C275 1.391 . S
C275 H263 0.950 . S
C275 C271 1.393 . S
C275 C274 1.391 . S
H276 C284 0.950 . S
H277 C289 0.950 . S
H278 C286 0.950 . S
H279 C288 0.950 . S
H280 C290 0.950 . S
H281 C292 0.950 . S
H282 C294 0.950 . S
H283 C295 0.950 . S
C284 H276 0.950 . S
C284 C285 1.386 . S
C284 C286 1.391 . S
C285 C284 1.386 . S
C285 C289 1.393 . S
C286 H278 0.950 . S
C286 C284 1.391 . S
C286 C287 1.400 . S
C287 C286 1.400 . S
C287 C288 1.398 . S
C287 C293 1.491 . S
C288 H279 0.950 . S
C288 C287 1.398 . S
C288 C289 1.391 . S
C289 H277 0.950 . S
C289 C285 1.393 . S
C289 C288 1.391 . S
C290 H280 0.950 . S
C290 C291 1.386 . S
C290 C292 1.391 . S
C291 C290 1.386 . S
C291 C295 1.393 . S
C292 H281 0.950 . S
C292 C290 1.391 . S
C292 C293 1.400 . S
C293 C287 1.491 . S
C293 C292 1.400 . S
C293 C294 1.398 . S
C294 H282 0.950 . S
C294 C293 1.398 . S
C294 C295 1.391 . S
C295 H283 0.950 . S
C295 C291 1.393 . S
C295 C294 1.391 . S
H296 C304 0.950 . S
H297 C309 0.950 . S
H298 C306 0.950 . S
H299 C308 0.950 . S
H300 C310 0.950 . S
H301 C312 0.950 . S
H302 C314 0.950 . S
H303 C315 0.950 . S
C304 H296 0.950 . S
C304 C305 1.386 . S
C304 C306 1.391 . S
C305 C304 1.386 . S
C305 C309 1.393 . S
C306 H298 0.950 . S
C306 C304 1.391 . S
C306 C307 1.400 . S
C307 C306 1.400 . S
C307 C308 1.398 . S
C307 C313 1.491 . S
C308 H299 0.950 . S
C308 C307 1.398 . S
C308 C309 1.391 . S
C309 H297 0.950 . S
C309 C305 1.393 . S
C309 C308 1.391 . S
C310 H300 0.950 . S
C310 C311 1.386 . S
C310 C312 1.391 . S
C311 C310 1.386 . S
C311 C315 1.393 . S
C312 H301 0.950 . S
C312 C310 1.391 . S
C312 C313 1.400 . S
C313 C307 1.491 . S
C313 C312 1.400 . S
C313 C314 1.398 . S
C314 H302 0.950 . S
C314 C313 1.398 . S
C314 C315 1.391 . S
C315 H303 0.950 . S
C315 C311 1.393 . S
C315 C314 1.391 . S
H316 C324 0.950 . S
H317 C329 0.950 . S
H318 C326 0.950 . S
H319 C328 0.950 . S
H320 C330 0.950 . S
H321 C332 0.950 . S
H322 C334 0.950 . S
H323 C335 0.950 . S
C324 H316 0.950 . S
C324 C325 1.386 . S
C324 C326 1.391 . S
C325 C324 1.386 . S
C325 C329 1.393 . S
C326 H318 0.950 . S
C326 C324 1.391 . S
C326 C327 1.400 . S
C327 C326 1.400 . S
C327 C328 1.398 . S
C327 C333 1.491 . S
C328 H319 0.950 . S
C328 C327 1.398 . S
C328 C329 1.391 . S
C329 H317 0.950 . S
C329 C325 1.393 . S
C329 C328 1.391 . S
C330 H320 0.950 . S
C330 C331 1.386 . S
C330 C332 1.391 . S
C331 C330 1.386 . S
C331 C335 1.393 . S
C332 H321 0.950 . S
C332 C330 1.391 . S
C332 C333 1.400 . S
C333 C327 1.491 . S
C333 C332 1.400 . S
C333 C334 1.398 . S
C334 H322 0.950 . S
C334 C333 1.398 . S
C334 C335 1.391 . S
C335 H323 0.950 . S
C335 C331 1.393 . S
C335 C334 1.391 . S
H336 C344 0.950 . S
H337 C349 0.950 . S
H338 C346 0.950 . S
H339 C348 0.950 . S
H340 C350 0.950 . S
H341 C352 0.950 . S
H342 C354 0.950 . S
H343 C355 0.950 . S
C344 H336 0.950 . S
C344 C345 1.386 . S
C344 C346 1.391 . S
C345 C344 1.386 . S
C345 C349 1.393 . S
C346 H338 0.950 . S
C346 C344 1.391 . S
C346 C347 1.400 . S
C347 C346 1.400 . S
C347 C348 1.398 . S
C347 C353 1.491 . S
C348 H339 0.950 . S
C348 C347 1.398 . S
C348 C349 1.391 . S
C349 H337 0.950 . S
C349 C345 1.393 . S
C349 C348 1.391 . S
C350 H340 0.950 . S
C350 C351 1.386 . S
C350 C352 1.391 . S
C351 C350 1.386 . S
C351 C355 1.393 . S
C352 H341 0.950 . S
C352 C350 1.391 . S
C352 C353 1.400 . S
C353 C347 1.491 . S
C353 C352 1.400 . S
C353 C354 1.398 . S
C354 H342 0.950 . S
C354 C353 1.398 . S
C354 C355 1.391 . S
C355 H343 0.950 . S
C355 C351 1.393 . S
C355 C354 1.391 . S
H356 C364 0.950 . S
H357 C369 0.950 . S
H358 C366 0.950 . S
H359 C368 0.950 . S
H360 C370 0.950 . S
H361 C372 0.950 . S
H362 C374 0.950 . S
H363 C375 0.950 . S
C364 H356 0.950 . S
C364 C365 1.386 . S
C364 C366 1.391 . S
C365 C364 1.386 . S
C365 C369 1.393 . S
C366 H358 0.950 . S
C366 C364 1.391 . S
C366 C367 1.400 . S
C367 C366 1.400 . S
C367 C368 1.398 . S
C367 C373 1.491 . S
C368 H359 0.950 . S
C368 C367 1.398 . S
C368 C369 1.391 . S
C369 H357 0.950 . S
C369 C365 1.393 . S
C369 C368 1.391 . S
C370 H360 0.950 . S
C370 C371 1.386 . S
C370 C372 1.391 . S
C371 C370 1.386 . S
C371 C375 1.393 . S
C372 H361 0.950 . S
C372 C370 1.391 . S
C372 C373 1.400 . S
C373 C367 1.491 . S
C373 C372 1.400 . S
C373 C374 1.398 . S
C374 H362 0.950 . S
C374 C373 1.398 . S
C374 C375 1.391 . S
C375 H363 0.950 . S
C375 C371 1.393 . S
C375 C374 1.391 . S
H376 C384 0.950 . S
H377 C389 0.950 . S
H378 C386 0.950 . S
H379 C388 0.950 . S
H380 C390 0.950 . S
H381 C392 0.950 . S
H382 C394 0.950 . S
H383 C395 0.950 . S
C384 H376 0.950 . S
C384 C385 1.386 . S
C384 C386 1.391 . S
C385 C384 1.386 . S
C385 C389 1.393 . S
C386 H378 0.950 . S
C386 C384 1.391 . S
C386 C387 1.400 . S
C387 C386 1.400 . S
C387 C388 1.398 . S
C387 C393 1.491 . S
C388 H379 0.950 . S
C388 C387 1.398 . S
C388 C389 1.391 . S
C389 H377 0.950 . S
C389 C385 1.393 . S
C389 C388 1.391 . S
C390 H380 0.950 . S
C390 C391 1.386 . S
C390 C392 1.391 . S
C391 C390 1.386 . S
C391 C395 1.393 . S
C392 H381 0.950 . S
C392 C390 1.391 . S
C392 C393 1.400 . S
C393 C387 1.491 . S
C393 C392 1.400 . S
C393 C394 1.398 . S
C394 H382 0.950 . S
C394 C393 1.398 . S
C394 C395 1.391 . S
C395 H383 0.950 . S
C395 C391 1.393 . S
C395 C394 1.391 . S
H396 C404 0.950 . S
H397 C409 0.950 . S
H398 C406 0.950 . S
H399 C408 0.950 . S
H400 C410 0.950 . S
H401 C412 0.950 . S
H402 C414 0.950 . S
H403 C415 0.950 . S
C404 H396 0.950 . S
C404 C405 1.386 . S
C404 C406 1.391 . S
C405 C404 1.386 . S
C405 C409 1.393 . S
C406 H398 0.950 . S
C406 C404 1.391 . S
C406 C407 1.400 . S
C407 C406 1.400 . S
C407 C408 1.398 . S
C407 C413 1.491 . S
C408 H399 0.950 . S
C408 C407 1.398 . S
C408 C409 1.391 . S
C409 H397 0.950 . S
C409 C405 1.393 . S
C409 C408 1.391 . S
C410 H400 0.950 . S
C410 C411 1.386 . S
C410 C412 1.391 . S
C411 C410 1.386 . S
C411 C415 1.393 . S
C412 H401 0.950 . S
C412 C410 1.391 . S
C412 C413 1.400 . S
C413 C407 1.491 . S
C413 C412 1.400 . S
C413 C414 1.398 . S
C414 H402 0.950 . S
C414 C413 1.398 . S
C414 C415 1.391 . S
C415 H403 0.950 . S
C415 C411 1.393 . S
C415 C414 1.391 . S
H416 C424 0.950 . S
H417 C429 0.950 . S
H418 C426 0.950 . S
H419 C428 0.950 . S
H420 C430 0.950 . S
H421 C432 0.950 . S
H422 C434 0.950 . S
H423 C435 0.950 . S
C424 H416 0.950 . S
C424 C425 1.386 . S
C424 C426 1.391 . S
C425 C424 1.386 . S
C425 C429 1.393 . S
C426 H418 0.950 . S
C426 C424 1.391 . S
C426 C427 1.400 . S
C427 C426 1.400 . S
C427 C428 1.398 . S
C427 C433 1.491 . S
C428 H419 0.950 . S
C428 C427 1.398 . S
C428 C429 1.391 . S
C429 H417 0.950 . S
C429 C425 1.393 . S
C429 C428 1.391 . S
C430 H420 0.950 . S
C430 C431 1.386 . S
C430 C432 1.391 . S
C431 C430 1.386 . S
C431 C435 1.393 . S
C432 H421 0.950 . S
C432 C430 1.391 . S
C432 C433 1.400 . S
C433 C427 1.491 . S
C433 C432 1.400 . S
C433 C434 1.398 . S
C434 H422 0.950 . S
C434 C433 1.398 . S
C434 C435 1.391 . S
C435 H423 0.950 . S
C435 C431 1.393 . S
C435 C434 1.391 . S
H436 C444 0.950 . S
H437 C449 0.950 . S
H438 C446 0.950 . S
H439 C448 0.950 . S
H440 C450 0.950 . S
H441 C452 0.950 . S
H442 C454 0.950 . S
H443 C455 0.950 . S
C444 H436 0.950 . S
C444 C445 1.386 . S
C444 C446 1.391 . S
C445 C444 1.386 . S
C445 C449 1.393 . S
C446 H438 0.950 . S
C446 C444 1.391 . S
C446 C447 1.400 . S
C447 C446 1.400 . S
C447 C448 1.398 . S
C447 C453 1.491 . S
C448 H439 0.950 . S
C448 C447 1.398 . S
C448 C449 1.391 . S
C449 H437 0.950 . S
C449 C445 1.393 . S
C449 C448 1.391 . S
C450 H440 0.950 . S
C450 C451 1.386 . S
C450 C452 1.391 . S
C451 C450 1.386 . S
C451 C455 1.393 . S
C452 H441 0.950 . S
C452 C450 1.391 . S
C452 C453 1.400 . S
C453 C447 1.491 . S
C453 C452 1.400 . S
C453 C454 1.398 . S
C454 H442 0.950 . S
C454 C453 1.398 . S
C454 C455 1.391 . S
C455 H443 0.950 . S
C455 C451 1.393 . S
C455 C454 1.391 . S
H456 C464 0.950 . S
H457 C469 0.950 . S
H458 C466 0.950 . S
H459 C468 0.950 . S
H460 C470 0.950 . S
H461 C472 0.950 . S
H462 C474 0.950 . S
H463 C475 0.950 . S
C464 H456 0.950 . S
C464 C465 1.386 . S
C464 C466 1.391 . S
C465 C464 1.386 . S
C465 C469 1.393 . S
C466 H458 0.950 . S
C466 C464 1.391 . S
C466 C467 1.400 . S
C467 C466 1.400 . S
C467 C468 1.398 . S
C467 C473 1.491 . S
C468 H459 0.950 . S
C468 C467 1.398 . S
C468 C469 1.391 . S
C469 H457 0.950 . S
C469 C465 1.393 . S
C469 C468 1.391 . S
C470 H460 0.950 . S
C470 C471 1.386 . S
C470 C472 1.391 . S
C471 C470 1.386 . S
C471 C475 1.393 . S
C472 H461 0.950 . S
C472 C470 1.391 . S
C472 C473 1.400 . S
C473 C467 1.491 . S
C473 C472 1.400 . S
C473 C474 1.398 . S
C474 H462 0.950 . S
C474 C473 1.398 . S
C474 C475 1.391 . S
C475 H463 0.950 . S
C475 C471 1.393 . S
C475 C474 1.391 . S
H476 C484 0.950 . S
H477 C489 0.950 . S
H478 C486 0.950 . S
H479 C488 0.950 . S
H480 C490 0.950 . S
H481 C492 0.950 . S
H482 C494 0.950 . S
H483 C495 0.950 . S
C484 H476 0.950 . S
C484 C485 1.386 . S
C484 C486 1.391 . S
C485 C484 1.386 . S
C485 C489 1.393 . S
C486 H478 0.950 . S
C486 C484 1.391 . S
C486 C487 1.400 . S
C487 C486 1.400 . S
C487 C488 1.398 . S
C487 C493 1.491 . S
C488 H479 0.950 . S
C488 C487 1.398 . S
C488 C489 1.391 . S
C489 H477 0.950 . S
C489 C485 1.393 . S
C489 C488 1.391 . S
C490 H480 0.950 . S
C490 C491 1.386 . S
C490 C492 1.391 . S
C491 C490 1.386 . S
C491 C495 1.393 . S
C492 H481 0.950 . S
C492 C490 1.391 . S
C492 C493 1.400 . S
C493 C487 1.491 . S
C493 C492 1.400 . S
C493 C494 1.398 . S
C494 H482 0.950 . S
C494 C493 1.398 . S
C494 C495 1.391 . S
C495 H483 0.950 . S
C495 C491 1.393 . S
C495 C494 1.391 . S
H496 C504 0.950 . S
H497 C509 0.950 . S
H498 C506 0.950 . S
H499 C508 0.950 . S
H500 C510 0.950 . S
H501 C512 0.950 . S
H502 C514 0.950 . S
H503 C515 0.950 . S
C504 H496 0.950 . S
C504 C505 1.386 . S
C504 C506 1.391 . S
C505 C504 1.386 . S
C505 C509 1.393 1_554 S
C506 H498 0.950 . S
C506 C504 1.391 . S
C506 C507 1.400 . S
C507 C506 1.400 . S
C507 C508 1.398 1_554 S
C507 C513 1.491 . S
C508 H499 0.950 . S
C508 C507 1.398 1_556 S
C508 C509 1.391 . S
C509 H497 0.950 . S
C509 C505 1.393 1_556 S
C509 C508 1.391 . S
C510 H500 0.950 . S
C510 C511 1.386 1_556 S
C510 C512 1.391 . S
C511 C510 1.386 1_554 S
C511 C515 1.393 . S
C512 H501 0.950 . S
C512 C510 1.391 . S
C512 C513 1.400 1_556 S
C513 C507 1.491 . S
C513 C512 1.400 1_554 S
C513 C514 1.398 . S
C514 H502 0.950 . S
C514 C513 1.398 . S
C514 C515 1.391 . S
C515 H503 0.950 . S
C515 C511 1.393 . S
C515 C514 1.391 . S
H516 C524 0.950 . S
H517 C529 0.950 . S
H518 C526 0.950 . S
H519 C528 0.950 . S
H520 C530 0.950 . S
H521 C532 0.950 . S
H522 C534 0.950 . S
H523 C535 0.950 . S
C524 H516 0.950 . S
C524 C525 1.386 . S
C524 C526 1.391 . S
C525 C524 1.386 . S
C525 C529 1.393 . S
C526 H518 0.950 . S
C526 C524 1.391 . S
C526 C527 1.400 . S
C527 C526 1.400 . S
C527 C528 1.398 . S
C527 C533 1.491 . S
C528 H519 0.950 . S
C528 C527 1.398 . S
C528 C529 1.391 . S
C529 H517 0.950 . S
C529 C525 1.393 . S
C529 C528 1.391 . S
C530 H520 0.950 . S
C530 C531 1.386 . S
C530 C532 1.391 . S
C531 C530 1.386 . S
C531 C535 1.393 . S
C532 H521 0.950 . S
C532 C530 1.391 . S
C532 C533 1.400 . S
C533 C527 1.491 . S
C533 C532 1.400 . S
C533 C534 1.398 . S
C534 H522 0.950 . S
C534 C533 1.398 . S
C534 C535 1.391 . S
C535 H523 0.950 . S
C535 C531 1.393 . S
C535 C534 1.391 . S
H536 C544 0.950 . S
H537 C549 0.950 . S
H538 C546 0.950 . S
H539 C548 0.950 . S
H540 C550 0.950 . S
H541 C552 0.950 . S
H542 C554 0.950 . S
H543 C555 0.950 . S
C544 H536 0.950 . S
C544 C545 1.386 1_556 S
C544 C546 1.391 . S
C545 C544 1.386 1_554 S
C545 C549 1.393 . S
C546 H538 0.950 . S
C546 C544 1.391 . S
C546 C547 1.400 1_556 S
C547 C546 1.400 1_554 S
C547 C548 1.398 . S
C547 C553 1.491 . S
C548 H539 0.950 . S
C548 C547 1.398 . S
C548 C549 1.391 . S
C549 H537 0.950 . S
C549 C545 1.393 . S
C549 C548 1.391 . S
C550 H540 0.950 . S
C550 C551 1.386 . S
C550 C552 1.391 . S
C551 C550 1.386 . S
C551 C555 1.393 1_554 S
C552 H541 0.950 . S
C552 C550 1.391 . S
C552 C553 1.400 . S
C553 C547 1.491 . S
C553 C552 1.400 . S
C553 C554 1.398 1_554 S
C554 H542 0.950 . S
C554 C553 1.398 1_556 S
C554 C555 1.391 . S
C555 H543 0.950 . S
C555 C551 1.393 1_556 S
C555 C554 1.391 . S
H556 C564 0.950 . S
H557 C569 0.950 . S
H558 C566 0.950 . S
H559 C568 0.950 . S
H560 C570 0.950 . S
H561 C572 0.950 . S
H562 C574 0.950 . S
H563 C575 0.950 . S
C564 H556 0.950 . S
C564 C565 1.386 . S
C564 C566 1.391 . S
C565 C564 1.386 . S
C565 C569 1.393 . S
C566 H558 0.950 . S
C566 C564 1.391 . S
C566 C567 1.400 . S
C567 C566 1.400 . S
C567 C568 1.398 . S
C567 C573 1.491 . S
C568 H559 0.950 . S
C568 C567 1.398 . S
C568 C569 1.391 . S
C569 H557 0.950 . S
C569 C565 1.393 . S
C569 C568 1.391 . S
C570 H560 0.950 . S
C570 C571 1.386 . S
C570 C572 1.391 . S
C571 C570 1.386 . S
C571 C575 1.393 . S
C572 H561 0.950 . S
C572 C570 1.391 . S
C572 C573 1.400 . S
C573 C567 1.491 . S
C573 C572 1.400 . S
C573 C574 1.398 . S
C574 H562 0.950 . S
C574 C573 1.398 . S
C574 C575 1.391 . S
C575 H563 0.950 . S
C575 C571 1.393 . S
C575 C574 1.391 . S
H576 C584 0.950 . S
H577 C589 0.950 . S
H578 C586 0.950 . S
H579 C588 0.950 . S
H580 C590 0.950 . S
H581 C592 0.950 . S
H582 C594 0.950 . S
H583 C595 0.950 . S
C584 H576 0.950 . S
C584 C585 1.386 . S
C584 C586 1.391 . S
C585 C584 1.386 . S
C585 C589 1.393 . S
C586 H578 0.950 . S
C586 C584 1.391 . S
C586 C587 1.400 . S
C587 C586 1.400 . S
C587 C588 1.398 . S
C587 C593 1.491 . S
C588 H579 0.950 . S
C588 C587 1.398 . S
C588 C589 1.391 . S
C589 H577 0.950 . S
C589 C585 1.393 . S
C589 C588 1.391 . S
C590 H580 0.950 . S
C590 C591 1.386 . S
C590 C592 1.391 . S
C591 C590 1.386 . S
C591 C595 1.393 . S
C592 H581 0.950 . S
C592 C590 1.391 . S
C592 C593 1.400 . S
C593 C587 1.491 . S
C593 C592 1.400 . S
C593 C594 1.398 . S
C594 H582 0.950 . S
C594 C593 1.398 . S
C594 C595 1.391 . S
C595 H583 0.950 . S
C595 C591 1.393 . S
C595 C594 1.391 . S
H596 C604 0.950 . S
H597 C609 0.950 . S
H598 C606 0.950 . S
H599 C608 0.950 . S
H600 C610 0.950 . S
H601 C612 0.950 . S
H602 C614 0.950 1_556 S
H603 C615 0.950 1_556 S
C604 H596 0.950 . S
C604 C605 1.386 1_556 S
C604 C606 1.391 . S
C605 C604 1.386 1_554 S
C605 C609 1.393 . S
C606 H598 0.950 . S
C606 C604 1.391 . S
C606 C607 1.400 1_556 S
C607 C606 1.400 1_554 S
C607 C608 1.398 . S
C607 C613 1.491 . S
C608 H599 0.950 . S
C608 C607 1.398 . S
C608 C609 1.391 . S
C609 H597 0.950 . S
C609 C605 1.393 . S
C609 C608 1.391 . S
C610 H600 0.950 . S
C610 C611 1.386 . S
C610 C612 1.391 . S
C611 C610 1.386 . S
C611 C615 1.393 . S
C612 H601 0.950 . S
C612 C610 1.391 . S
C612 C613 1.400 . S
C613 C607 1.491 . S
C613 C612 1.400 . S
C613 C614 1.398 . S
C614 H602 0.950 1_554 S
C614 C613 1.398 . S
C614 C615 1.391 . S
C615 H603 0.950 1_554 S
C615 C611 1.393 . S
C615 C614 1.391 . S
H616 C624 0.950 . S
H617 C629 0.950 . S
H618 C626 0.950 . S
H619 C628 0.950 . S
H620 C630 0.950 . S
H621 C632 0.950 . S
H622 C634 0.950 . S
H623 C635 0.950 . S
C624 H616 0.950 . S
C624 C625 1.386 . S
C624 C626 1.391 . S
C625 C624 1.386 . S
C625 C629 1.393 . S
C626 H618 0.950 . S
C626 C624 1.391 . S
C626 C627 1.400 . S
C627 C626 1.400 . S
C627 C628 1.398 . S
C627 C633 1.491 . S
C628 H619 0.950 . S
C628 C627 1.398 . S
C628 C629 1.391 . S
C629 H617 0.950 . S
C629 C625 1.393 . S
C629 C628 1.391 . S
C630 H620 0.950 . S
C630 C631 1.386 . S
C630 C632 1.391 . S
C631 C630 1.386 . S
C631 C635 1.393 . S
C632 H621 0.950 . S
C632 C630 1.391 . S
C632 C633 1.400 . S
C633 C627 1.491 . S
C633 C632 1.400 . S
C633 C634 1.398 . S
C634 H622 0.950 . S
C634 C633 1.398 . S
C634 C635 1.391 . S
C635 H623 0.950 . S
C635 C631 1.393 . S
C635 C634 1.391 . S
H636 C644 0.950 . S
H637 C649 0.946 1_556 S
H638 C646 0.950 . S
H639 C648 0.947 1_556 S
H640 C650 0.950 . S
H641 C652 0.950 . S
H642 C654 0.950 . S
H643 C655 0.950 . S
C644 H636 0.950 . S
C644 C645 1.386 . S
C644 C646 1.391 . S
C645 C644 1.386 . S
C645 C649 1.396 . S
C646 H638 0.950 . S
C646 C644 1.391 . S
C646 C647 1.400 . S
C647 C646 1.400 . S
C647 C648 1.402 . S
C647 C653 1.491 . S
C648 H639 0.947 1_554 S
C648 C647 1.402 . S
C648 C649 1.391 . S
C649 H637 0.946 1_554 S
C649 C645 1.396 . S
C649 C648 1.391 . S
C650 H640 0.950 . S
C650 C651 1.386 1_556 S
C650 C652 1.391 . S
C651 C650 1.386 1_554 S
C651 C655 1.393 . S
C652 H641 0.950 . S
C652 C650 1.391 . S
C652 C653 1.400 1_556 S
C653 C647 1.491 . S
C653 C652 1.400 1_554 S
C653 C654 1.398 . S
C654 H642 0.950 . S
C654 C653 1.398 . S
C654 C655 1.391 . S
C655 H643 0.950 . S
C655 C651 1.393 . S
C655 C654 1.391 . S
C185 C21 1.474 . S
C191 C127 1.487 . S
C205 C40 1.495 . S
C211 C94 1.490 . S
C231 C108 1.453 . S
C225 C54 1.470 . S
C245 C73 1.525 . S
C251 C119 1.508 . S
C271 C152 1.437 . S
C265 C74 1.459 . S
C291 C163 1.478 . S
C285 C10 1.517 . S
C311 C171 1.493 . S
C305 C37 1.491 . S
C331 C138 1.512 . S
C325 C65 1.510 . S
C345 C52 1.439 . S
C351 C105 1.436 . S
C365 C87 1.512 . S
C371 C116 1.518 . S
C385 C15 1.511 . S
C391 C130 1.508 . S
C411 C97 1.467 . S
C405 C32 1.504 . S
C425 C29 1.502 . S
C431 C174 1.499 . S
C451 C141 1.526 . S
C445 C59 1.534 . S
C471 C149 1.448 . S
C465 C84 1.449 . S
C485 C8 1.482 . S
C491 C160 1.464 . S
C511 N92 1.532 . S
C505 C7 1.539 . S
C531 N103 1.488 . S
C525 C30 1.494 . S
C545 C62 1.545 . S
C551 N114 1.532 . S
C565 C81 1.505 . S
C571 N125 1.517 . S
C591 N136 1.536 . S
C585 C76 1.546 . S
C605 C18 1.489 . S
C611 N147 1.481 . S
C625 C43 1.538 . S
C631 N158 1.537 . S
C645 C51 1.508 . S
C651 N169 1.509 . S
