# Generated by pormake.
# Topology tbo, (3,4)-cn, num edge types: 1
# Building blocks:
#     Node 0, Type 0, BuildingBlock: BETDAH_clean_linker_0, # of connection points: 3
#     Node 1, Type 0, BuildingBlock: BETDAH_clean_linker_0, # of connection points: 3
#     Node 2, Type 0, BuildingBlock: BETDAH_clean_linker_0, # of connection points: 3
#     Node 3, Type 0, BuildingBlock: BETDAH_clean_linker_0, # of connection points: 3
#     Node 4, Type 0, BuildingBlock: BETDAH_clean_linker_0, # of connection points: 3
#     Node 5, Type 0, BuildingBlock: BETDAH_clean_linker_0, # of connection points: 3
#     Node 6, Type 0, BuildingBlock: BETDAH_clean_linker_0, # of connection points: 3
#     Node 7, Type 0, BuildingBlock: BETDAH_clean_linker_0, # of connection points: 3
#     Node 8, Type 0, BuildingBlock: BETDAH_clean_linker_0, # of connection points: 3
#     Node 9, Type 0, BuildingBlock: BETDAH_clean_linker_0, # of connection points: 3
#     Node 10, Type 0, BuildingBlock: BETDAH_clean_linker_0, # of connection points: 3
#     Node 11, Type 0, BuildingBlock: BETDAH_clean_linker_0, # of connection points: 3
#     Node 12, Type 0, BuildingBlock: BETDAH_clean_linker_0, # of connection points: 3
#     Node 13, Type 0, BuildingBlock: BETDAH_clean_linker_0, # of connection points: 3
#     Node 14, Type 0, BuildingBlock: BETDAH_clean_linker_0, # of connection points: 3
#     Node 15, Type 0, BuildingBlock: BETDAH_clean_linker_0, # of connection points: 3
#     Node 16, Type 0, BuildingBlock: BETDAH_clean_linker_0, # of connection points: 3
#     Node 17, Type 0, BuildingBlock: BETDAH_clean_linker_0, # of connection points: 3
#     Node 18, Type 0, BuildingBlock: BETDAH_clean_linker_0, # of connection points: 3
#     Node 19, Type 0, BuildingBlock: BETDAH_clean_linker_0, # of connection points: 3
#     Node 20, Type 0, BuildingBlock: BETDAH_clean_linker_0, # of connection points: 3
#     Node 21, Type 0, BuildingBlock: BETDAH_clean_linker_0, # of connection points: 3
#     Node 22, Type 0, BuildingBlock: BETDAH_clean_linker_0, # of connection points: 3
#     Node 23, Type 0, BuildingBlock: BETDAH_clean_linker_0, # of connection points: 3
#     Node 24, Type 0, BuildingBlock: BETDAH_clean_linker_0, # of connection points: 3
#     Node 25, Type 0, BuildingBlock: BETDAH_clean_linker_0, # of connection points: 3
#     Node 26, Type 0, BuildingBlock: BETDAH_clean_linker_0, # of connection points: 3
#     Node 27, Type 0, BuildingBlock: BETDAH_clean_linker_0, # of connection points: 3
#     Node 28, Type 0, BuildingBlock: BETDAH_clean_linker_0, # of connection points: 3
#     Node 29, Type 0, BuildingBlock: BETDAH_clean_linker_0, # of connection points: 3
#     Node 30, Type 0, BuildingBlock: BETDAH_clean_linker_0, # of connection points: 3
#     Node 31, Type 0, BuildingBlock: BETDAH_clean_linker_0, # of connection points: 3
#     Node 32, Type 1, BuildingBlock: ESEHIV_clean_sbu_0, # of connection points: 4
#     Node 33, Type 1, BuildingBlock: ESEHIV_clean_sbu_0, # of connection points: 4
#     Node 34, Type 1, BuildingBlock: ESEHIV_clean_sbu_0, # of connection points: 4
#     Node 35, Type 1, BuildingBlock: ESEHIV_clean_sbu_0, # of connection points: 4
#     Node 36, Type 1, BuildingBlock: ESEHIV_clean_sbu_0, # of connection points: 4
#     Node 37, Type 1, BuildingBlock: ESEHIV_clean_sbu_0, # of connection points: 4
#     Node 38, Type 1, BuildingBlock: ESEHIV_clean_sbu_0, # of connection points: 4
#     Node 39, Type 1, BuildingBlock: ESEHIV_clean_sbu_0, # of connection points: 4
#     Node 40, Type 1, BuildingBlock: ESEHIV_clean_sbu_0, # of connection points: 4
#     Node 41, Type 1, BuildingBlock: ESEHIV_clean_sbu_0, # of connection points: 4
#     Node 42, Type 1, BuildingBlock: ESEHIV_clean_sbu_0, # of connection points: 4
#     Node 43, Type 1, BuildingBlock: ESEHIV_clean_sbu_0, # of connection points: 4
#     Node 44, Type 1, BuildingBlock: ESEHIV_clean_sbu_0, # of connection points: 4
#     Node 45, Type 1, BuildingBlock: ESEHIV_clean_sbu_0, # of connection points: 4
#     Node 46, Type 1, BuildingBlock: ESEHIV_clean_sbu_0, # of connection points: 4
#     Node 47, Type 1, BuildingBlock: ESEHIV_clean_sbu_0, # of connection points: 4
#     Node 48, Type 1, BuildingBlock: ESEHIV_clean_sbu_0, # of connection points: 4
#     Node 49, Type 1, BuildingBlock: ESEHIV_clean_sbu_0, # of connection points: 4
#     Node 50, Type 1, BuildingBlock: ESEHIV_clean_sbu_0, # of connection points: 4
#     Node 51, Type 1, BuildingBlock: ESEHIV_clean_sbu_0, # of connection points: 4
#     Node 52, Type 1, BuildingBlock: ESEHIV_clean_sbu_0, # of connection points: 4
#     Node 53, Type 1, BuildingBlock: ESEHIV_clean_sbu_0, # of connection points: 4
#     Node 54, Type 1, BuildingBlock: ESEHIV_clean_sbu_0, # of connection points: 4
#     Node 55, Type 1, BuildingBlock: ESEHIV_clean_sbu_0, # of connection points: 4
#     Edge 56, Type (0, 1), BuildingBlock: XUDNAN_clean_linker_2, # of connection points: 2
#     Edge 57, Type (0, 1), BuildingBlock: XUDNAN_clean_linker_2, # of connection points: 2
#     Edge 58, Type (0, 1), BuildingBlock: XUDNAN_clean_linker_2, # of connection points: 2
#     Edge 59, Type (0, 1), BuildingBlock: XUDNAN_clean_linker_2, # of connection points: 2
#     Edge 60, Type (0, 1), BuildingBlock: XUDNAN_clean_linker_2, # of connection points: 2
#     Edge 61, Type (0, 1), BuildingBlock: XUDNAN_clean_linker_2, # of connection points: 2
#     Edge 62, Type (0, 1), BuildingBlock: XUDNAN_clean_linker_2, # of connection points: 2
#     Edge 63, Type (0, 1), BuildingBlock: XUDNAN_clean_linker_2, # of connection points: 2
#     Edge 64, Type (0, 1), BuildingBlock: XUDNAN_clean_linker_2, # of connection points: 2
#     Edge 65, Type (0, 1), BuildingBlock: XUDNAN_clean_linker_2, # of connection points: 2
#     Edge 66, Type (0, 1), BuildingBlock: XUDNAN_clean_linker_2, # of connection points: 2
#     Edge 67, Type (0, 1), BuildingBlock: XUDNAN_clean_linker_2, # of connection points: 2
#     Edge 68, Type (0, 1), BuildingBlock: XUDNAN_clean_linker_2, # of connection points: 2
#     Edge 69, Type (0, 1), BuildingBlock: XUDNAN_clean_linker_2, # of connection points: 2
#     Edge 70, Type (0, 1), BuildingBlock: XUDNAN_clean_linker_2, # of connection points: 2
#     Edge 71, Type (0, 1), BuildingBlock: XUDNAN_clean_linker_2, # of connection points: 2
#     Edge 72, Type (0, 1), BuildingBlock: XUDNAN_clean_linker_2, # of connection points: 2
#     Edge 73, Type (0, 1), BuildingBlock: XUDNAN_clean_linker_2, # of connection points: 2
#     Edge 74, Type (0, 1), BuildingBlock: XUDNAN_clean_linker_2, # of connection points: 2
#     Edge 75, Type (0, 1), BuildingBlock: XUDNAN_clean_linker_2, # of connection points: 2
#     Edge 76, Type (0, 1), BuildingBlock: XUDNAN_clean_linker_2, # of connection points: 2
#     Edge 77, Type (0, 1), BuildingBlock: XUDNAN_clean_linker_2, # of connection points: 2
#     Edge 78, Type (0, 1), BuildingBlock: XUDNAN_clean_linker_2, # of connection points: 2
#     Edge 79, Type (0, 1), BuildingBlock: XUDNAN_clean_linker_2, # of connection points: 2
#     Edge 80, Type (0, 1), BuildingBlock: XUDNAN_clean_linker_2, # of connection points: 2
#     Edge 81, Type (0, 1), BuildingBlock: XUDNAN_clean_linker_2, # of connection points: 2
#     Edge 82, Type (0, 1), BuildingBlock: XUDNAN_clean_linker_2, # of connection points: 2
#     Edge 83, Type (0, 1), BuildingBlock: XUDNAN_clean_linker_2, # of connection points: 2
#     Edge 84, Type (0, 1), BuildingBlock: XUDNAN_clean_linker_2, # of connection points: 2
#     Edge 85, Type (0, 1), BuildingBlock: XUDNAN_clean_linker_2, # of connection points: 2
#     Edge 86, Type (0, 1), BuildingBlock: XUDNAN_clean_linker_2, # of connection points: 2
#     Edge 87, Type (0, 1), BuildingBlock: XUDNAN_clean_linker_2, # of connection points: 2
#     Edge 88, Type (0, 1), BuildingBlock: XUDNAN_clean_linker_2, # of connection points: 2
#     Edge 89, Type (0, 1), BuildingBlock: XUDNAN_clean_linker_2, # of connection points: 2
#     Edge 90, Type (0, 1), BuildingBlock: XUDNAN_clean_linker_2, # of connection points: 2
#     Edge 91, Type (0, 1), BuildingBlock: XUDNAN_clean_linker_2, # of connection points: 2
#     Edge 92, Type (0, 1), BuildingBlock: XUDNAN_clean_linker_2, # of connection points: 2
#     Edge 93, Type (0, 1), BuildingBlock: XUDNAN_clean_linker_2, # of connection points: 2
#     Edge 94, Type (0, 1), BuildingBlock: XUDNAN_clean_linker_2, # of connection points: 2
#     Edge 95, Type (0, 1), BuildingBlock: XUDNAN_clean_linker_2, # of connection points: 2
#     Edge 96, Type (0, 1), BuildingBlock: XUDNAN_clean_linker_2, # of connection points: 2
#     Edge 97, Type (0, 1), BuildingBlock: XUDNAN_clean_linker_2, # of connection points: 2
#     Edge 98, Type (0, 1), BuildingBlock: XUDNAN_clean_linker_2, # of connection points: 2
#     Edge 99, Type (0, 1), BuildingBlock: XUDNAN_clean_linker_2, # of connection points: 2
#     Edge 100, Type (0, 1), BuildingBlock: XUDNAN_clean_linker_2, # of connection points: 2
#     Edge 101, Type (0, 1), BuildingBlock: XUDNAN_clean_linker_2, # of connection points: 2
#     Edge 102, Type (0, 1), BuildingBlock: XUDNAN_clean_linker_2, # of connection points: 2
#     Edge 103, Type (0, 1), BuildingBlock: XUDNAN_clean_linker_2, # of connection points: 2
#     Edge 104, Type (0, 1), BuildingBlock: XUDNAN_clean_linker_2, # of connection points: 2
#     Edge 105, Type (0, 1), BuildingBlock: XUDNAN_clean_linker_2, # of connection points: 2
#     Edge 106, Type (0, 1), BuildingBlock: XUDNAN_clean_linker_2, # of connection points: 2
#     Edge 107, Type (0, 1), BuildingBlock: XUDNAN_clean_linker_2, # of connection points: 2
#     Edge 108, Type (0, 1), BuildingBlock: XUDNAN_clean_linker_2, # of connection points: 2
#     Edge 109, Type (0, 1), BuildingBlock: XUDNAN_clean_linker_2, # of connection points: 2
#     Edge 110, Type (0, 1), BuildingBlock: XUDNAN_clean_linker_2, # of connection points: 2
#     Edge 111, Type (0, 1), BuildingBlock: XUDNAN_clean_linker_2, # of connection points: 2
#     Edge 112, Type (0, 1), BuildingBlock: XUDNAN_clean_linker_2, # of connection points: 2
#     Edge 113, Type (0, 1), BuildingBlock: XUDNAN_clean_linker_2, # of connection points: 2
#     Edge 114, Type (0, 1), BuildingBlock: XUDNAN_clean_linker_2, # of connection points: 2
#     Edge 115, Type (0, 1), BuildingBlock: XUDNAN_clean_linker_2, # of connection points: 2
#     Edge 116, Type (0, 1), BuildingBlock: XUDNAN_clean_linker_2, # of connection points: 2
#     Edge 117, Type (0, 1), BuildingBlock: XUDNAN_clean_linker_2, # of connection points: 2
#     Edge 118, Type (0, 1), BuildingBlock: XUDNAN_clean_linker_2, # of connection points: 2
#     Edge 119, Type (0, 1), BuildingBlock: XUDNAN_clean_linker_2, # of connection points: 2
#     Edge 120, Type (0, 1), BuildingBlock: XUDNAN_clean_linker_2, # of connection points: 2
#     Edge 121, Type (0, 1), BuildingBlock: XUDNAN_clean_linker_2, # of connection points: 2
#     Edge 122, Type (0, 1), BuildingBlock: XUDNAN_clean_linker_2, # of connection points: 2
#     Edge 123, Type (0, 1), BuildingBlock: XUDNAN_clean_linker_2, # of connection points: 2
#     Edge 124, Type (0, 1), BuildingBlock: XUDNAN_clean_linker_2, # of connection points: 2
#     Edge 125, Type (0, 1), BuildingBlock: XUDNAN_clean_linker_2, # of connection points: 2
#     Edge 126, Type (0, 1), BuildingBlock: XUDNAN_clean_linker_2, # of connection points: 2
#     Edge 127, Type (0, 1), BuildingBlock: XUDNAN_clean_linker_2, # of connection points: 2
#     Edge 128, Type (0, 1), BuildingBlock: XUDNAN_clean_linker_2, # of connection points: 2
#     Edge 129, Type (0, 1), BuildingBlock: XUDNAN_clean_linker_2, # of connection points: 2
#     Edge 130, Type (0, 1), BuildingBlock: XUDNAN_clean_linker_2, # of connection points: 2
#     Edge 131, Type (0, 1), BuildingBlock: XUDNAN_clean_linker_2, # of connection points: 2
#     Edge 132, Type (0, 1), BuildingBlock: XUDNAN_clean_linker_2, # of connection points: 2
#     Edge 133, Type (0, 1), BuildingBlock: XUDNAN_clean_linker_2, # of connection points: 2
#     Edge 134, Type (0, 1), BuildingBlock: XUDNAN_clean_linker_2, # of connection points: 2
#     Edge 135, Type (0, 1), BuildingBlock: XUDNAN_clean_linker_2, # of connection points: 2
#     Edge 136, Type (0, 1), BuildingBlock: XUDNAN_clean_linker_2, # of connection points: 2
#     Edge 137, Type (0, 1), BuildingBlock: XUDNAN_clean_linker_2, # of connection points: 2
#     Edge 138, Type (0, 1), BuildingBlock: XUDNAN_clean_linker_2, # of connection points: 2
#     Edge 139, Type (0, 1), BuildingBlock: XUDNAN_clean_linker_2, # of connection points: 2
#     Edge 140, Type (0, 1), BuildingBlock: XUDNAN_clean_linker_2, # of connection points: 2
#     Edge 141, Type (0, 1), BuildingBlock: XUDNAN_clean_linker_2, # of connection points: 2
#     Edge 142, Type (0, 1), BuildingBlock: XUDNAN_clean_linker_2, # of connection points: 2
#     Edge 143, Type (0, 1), BuildingBlock: XUDNAN_clean_linker_2, # of connection points: 2
#     Edge 144, Type (0, 1), BuildingBlock: XUDNAN_clean_linker_2, # of connection points: 2
#     Edge 145, Type (0, 1), BuildingBlock: XUDNAN_clean_linker_2, # of connection points: 2
#     Edge 146, Type (0, 1), BuildingBlock: XUDNAN_clean_linker_2, # of connection points: 2
#     Edge 147, Type (0, 1), BuildingBlock: XUDNAN_clean_linker_2, # of connection points: 2
#     Edge 148, Type (0, 1), BuildingBlock: XUDNAN_clean_linker_2, # of connection points: 2
#     Edge 149, Type (0, 1), BuildingBlock: XUDNAN_clean_linker_2, # of connection points: 2
#     Edge 150, Type (0, 1), BuildingBlock: XUDNAN_clean_linker_2, # of connection points: 2
#     Edge 151, Type (0, 1), BuildingBlock: XUDNAN_clean_linker_2, # of connection points: 2
# Relax obj value: 0.024
# Max RMSD: 0.143
# Mean RMSD: 0.107
data_MOF--net-tbo--node1-ESEHIV_clean_sbu_0--node2-BETDAH_clean_linker_0--edge1-XUDNAN_clean_linker_2
_symmetry_space_group_name_H-M    P1
_symmetry_Int_Tables_number       1
_symmetry_cell_setting            triclinic
loop_
_symmetry_equiv_pos_as_xyz
'x, y, z'
_cell_length_a     69.896404
_cell_length_b     71.414429
_cell_length_c     76.113154
_cell_angle_alpha  90.252371
_cell_angle_beta   93.585376
_cell_angle_gamma 100.166
loop_
_atom_site_label
_atom_site_type_symbol
_atom_site_fract_x
_atom_site_fract_y
_atom_site_fract_z
_atom_type_partial_charge
H0 H 0.23388 0.15099 0.19624 0.0
H1 H 0.18497 0.15191 0.22845 0.0
H2 H 0.19947 0.19489 0.18999 0.0
C3 C 0.22155 0.1571 0.19987 0.0
C4 C 0.21806 0.17377 0.19138 0.0
C5 C 0.20983 0.14886 0.21341 0.0
C6 C 0.19442 0.15797 0.21842 0.0
C7 C 0.1908 0.17467 0.20999 0.0
C8 C 0.20255 0.1822 0.19654 0.0
N9 N 0.17525 0.18428 0.2139 0.0
C10 C 0.1637 0.18229 0.22837 0.0
H11 H 0.90158 0.19156 0.20757 0.0
H12 H 0.893 0.23692 0.17239 0.0
H13 H 0.84862 0.18727 0.17484 0.0
C14 C 0.89296 0.19727 0.19727 0.0
C15 C 0.87464 0.18687 0.19165 0.0
C16 C 0.89983 0.21535 0.19048 0.0
C17 C 0.88805 0.22298 0.17769 0.0
C18 C 0.86951 0.2128 0.17219 0.0
C19 C 0.86289 0.19497 0.1793 0.0
N20 N 0.85667 0.22049 0.16027 0.0
C21 C 0.86248 0.23075 0.14548 0.0
H22 H 0.88293 0.82858 0.17697 0.0
H23 H 0.87468 0.87479 0.21108 0.0
H24 H 0.84249 0.86508 0.16111 0.0
C25 C 0.87617 0.84073 0.17966 0.0
C26 C 0.86237 0.84574 0.16706 0.0
C27 C 0.88056 0.8508 0.1959 0.0
C28 C 0.87121 0.86649 0.19901 0.0
C29 C 0.8574 0.87153 0.18647 0.0
C30 C 0.85305 0.86101 0.17075 0.0
N31 N 0.84738 0.88697 0.18893 0.0
C32 C 0.84975 0.89965 0.20321 0.0
H33 H 0.18196 0.84444 0.20685 0.0
H34 H 0.21601 0.82085 0.17052 0.0
H35 H 0.16482 0.78614 0.18919 0.0
C36 C 0.18423 0.83247 0.19893 0.0
C37 C 0.1714 0.81499 0.19954 0.0
C38 C 0.2004 0.83457 0.18865 0.0
C39 C 0.20342 0.8192 0.1783 0.0
C40 C 0.19022 0.80183 0.17812 0.0
C41 C 0.17446 0.79978 0.18891 0.0
N42 N 0.19253 0.78608 0.1675 0.0
C43 C 0.20599 0.78706 0.1547 0.0
H44 H 0.18707 0.87077 0.83807 0.0
H45 H 0.15752 0.83368 0.87608 0.0
H46 H 0.214 0.86687 0.88997 0.0
C47 C 0.18657 0.86481 0.85114 0.0
C48 C 0.20228 0.87049 0.86356 0.0
C49 C 0.17032 0.8515 0.85544 0.0
C50 C 0.17 0.84386 0.87242 0.0
C51 C 0.18573 0.84902 0.88482 0.0
C52 C 0.20184 0.86255 0.88042 0.0
N53 N 0.18476 0.84028 0.90154 0.0
C54 C 0.20076 0.84013 0.9133 0.0
H55 H 0.25896 0.17446 0.90509 0.0
H56 H 0.20914 0.20159 0.89604 0.0
H57 H 0.21844 0.15847 0.85997 0.0
C58 C 0.24605 0.17594 0.89699 0.0
C59 C 0.24062 0.1646 0.88151 0.0
C60 C 0.23449 0.18891 0.90255 0.0
C61 C 0.21803 0.19159 0.89191 0.0
C62 C 0.21264 0.18091 0.8763 0.0
C63 C 0.2236 0.16722 0.87153 0.0
N64 N 0.19572 0.18277 0.8655 0.0
C65 C 0.18666 0.1987 0.8649 0.0
H66 H 0.89341 0.15803 0.81075 0.0
H67 H 0.88168 0.19175 0.85453 0.0
H68 H 0.83591 0.1503 0.82945 0.0
C69 C 0.8835 0.16152 0.82015 0.0
C70 C 0.86405 0.15228 0.81872 0.0
C71 C 0.89006 0.17574 0.83303 0.0
C72 C 0.87675 0.18083 0.84454 0.0
C73 C 0.85714 0.17165 0.84317 0.0
C74 C 0.85098 0.15743 0.83031 0.0
N75 N 0.8431 0.17621 0.85439 0.0
C76 C 0.84652 0.19058 0.86715 0.0
H77 H 0.88882 0.80091 0.86444 0.0
H78 H 0.87504 0.84393 0.82847 0.0
H79 H 0.85054 0.83834 0.87903 0.0
C80 C 0.88151 0.81278 0.86141 0.0
C81 C 0.86968 0.8186 0.87392 0.0
C82 C 0.884 0.82189 0.84507 0.0
C83 C 0.87328 0.83658 0.84083 0.0
C84 C 0.86095 0.84234 0.85307 0.0
C85 C 0.85946 0.83337 0.86949 0.0
N86 N 0.85066 0.85777 0.85018 0.0
C87 C 0.84648 0.86672 0.83443 0.0
H88 H 0.24284 0.65791 0.65469 0.0
H89 H 0.21138 0.6413 0.70053 0.0
H90 H 0.19387 0.68397 0.66665 0.0
C91 C 0.23116 0.65921 0.66304 0.0
C92 C 0.21877 0.67243 0.65865 0.0
C93 C 0.22875 0.64774 0.67809 0.0
C94 C 0.21345 0.64968 0.68876 0.0
C95 C 0.20095 0.66272 0.68485 0.0
C96 C 0.20367 0.67413 0.66981 0.0
N97 N 0.18581 0.66355 0.69644 0.0
C98 C 0.17291 0.67645 0.69636 0.0
H99 H 0.88023 0.69594 0.69523 0.0
H100 H 0.87515 0.72373 0.64552 0.0
H101 H 0.83074 0.67734 0.65907 0.0
C102 C 0.87214 0.69754 0.68287 0.0
C103 C 0.85445 0.68515 0.67879 0.0
C104 C 0.87976 0.71155 0.67099 0.0
C105 C 0.86949 0.71292 0.6547 0.0
C106 C 0.85183 0.70044 0.65038 0.0
C107 C 0.8445 0.68666 0.66242 0.0
N108 N 0.84094 0.70133 0.63414 0.0
C109 C 0.84568 0.71491 0.62138 0.0
H110 H 0.90415 0.33604 0.69566 0.0
H111 H 0.89928 0.38204 0.73126 0.0
H112 H 0.8526 0.36118 0.69286 0.0
C113 C 0.89617 0.34668 0.70012 0.0
C114 C 0.87751 0.34715 0.69232 0.0
C115 C 0.90418 0.35908 0.71428 0.0
C116 C 0.89334 0.37248 0.72041 0.0
C117 C 0.87471 0.37327 0.71254 0.0
C118 C 0.867 0.36052 0.69872 0.0
N119 N 0.86265 0.38591 0.71838 0.0
C120 C 0.86792 0.4022 0.72905 0.0
H121 H 0.17162 0.35397 0.7102 0.0
H122 H 0.20851 0.35887 0.66673 0.0
H123 H 0.15926 0.31328 0.66752 0.0
C124 C 0.17544 0.34851 0.69784 0.0
C125 C 0.16385 0.33209 0.69025 0.0
C126 C 0.19185 0.35803 0.6898 0.0
C127 C 0.19592 0.35164 0.67312 0.0
C128 C 0.18385 0.33564 0.66495 0.0
C129 C 0.16804 0.32592 0.67365 0.0
N130 N 0.18719 0.32857 0.64817 0.0
C131 C 0.20267 0.33578 0.63813 0.0
H132 H 0.20092 0.37407 0.35444 0.0
H133 H 0.18219 0.33133 0.39249 0.0
H134 H 0.23633 0.36964 0.40208 0.0
C135 C 0.20332 0.36726 0.36686 0.0
C136 C 0.22061 0.37352 0.37741 0.0
C137 C 0.18909 0.35224 0.37224 0.0
C138 C 0.19258 0.3433 0.38827 0.0
C139 C 0.20951 0.3494 0.39899 0.0
C140 C 0.22341 0.36461 0.3936 0.0
N141 N 0.21207 0.33989 0.41511 0.0
C142 C 0.22843 0.34436 0.42671 0.0
H143 H 0.22474 0.63828 0.37338 0.0
H144 H 0.193 0.685 0.37135 0.0
H145 H 0.19518 0.65115 0.32494 0.0
C146 C 0.2157 0.64681 0.36609 0.0
C147 C 0.21038 0.64243 0.34821 0.0
C148 C 0.20962 0.66214 0.37468 0.0
C149 C 0.19773 0.67313 0.36505 0.0
C150 C 0.19237 0.66893 0.34709 0.0
C151 C 0.19894 0.65383 0.33887 0.0
N152 N 0.18184 0.68038 0.3363 0.0
C153 C 0.16673 0.68934 0.34113 0.0
H154 H 0.8582 0.65957 0.2983 0.0
H155 H 0.86063 0.72003 0.29578 0.0
H156 H 0.81703 0.686 0.32504 0.0
C157 C 0.85263 0.67215 0.30206 0.0
C158 C 0.8363 0.67049 0.31228 0.0
C159 C 0.86143 0.68994 0.29601 0.0
C160 C 0.85384 0.70618 0.30024 0.0
C161 C 0.83814 0.70493 0.31093 0.0
C162 C 0.82935 0.68706 0.31692 0.0
N163 N 0.83159 0.72193 0.31542 0.0
C164 C 0.82084 0.72364 0.32989 0.0
H165 H 0.88258 0.31119 0.40616 0.0
H166 H 0.87705 0.34905 0.36247 0.0
H167 H 0.84189 0.34995 0.40626 0.0
C168 C 0.87607 0.32234 0.3999 0.0
C169 C 0.86205 0.33026 0.40874 0.0
C170 C 0.88156 0.32876 0.38295 0.0
C171 C 0.87288 0.34354 0.37516 0.0
C172 C 0.85857 0.35108 0.38367 0.0
C173 C 0.85324 0.34421 0.40013 0.0
N174 N 0.84849 0.36516 0.37622 0.0
C175 C 0.85282 0.37645 0.36159 0.0
H176 H 0.72951 0.13661 0.66246 0.0
H177 H 0.71033 0.13403 0.71537 0.0
H178 H 0.70035 0.17984 0.68223 0.0
C179 C 0.72282 0.14239 0.67316 0.0
C180 C 0.71609 0.15983 0.67049 0.0
C181 C 0.72101 0.13254 0.6893 0.0
C182 C 0.71135 0.14038 0.70252 0.0
C183 C 0.70304 0.15674 0.69968 0.0
C184 C 0.70555 0.16649 0.68374 0.0
N185 N 0.6944 0.16423 0.71401 0.0
C186 C 0.67689 0.17119 0.713 0.0
H187 H 0.39666 0.19535 0.71267 0.0
H188 H 0.3885 0.22372 0.66383 0.0
H189 H 0.34329 0.17973 0.68051 0.0
C190 C 0.38752 0.19744 0.70106 0.0
C191 C 0.3691 0.18593 0.69821 0.0
C192 C 0.39463 0.21101 0.68866 0.0
C193 C 0.383 0.21326 0.67337 0.0
C194 C 0.36436 0.20203 0.67049 0.0
C195 C 0.35766 0.18832 0.68282 0.0
N196 N 0.352 0.20411 0.65537 0.0
C197 C 0.35562 0.21902 0.64368 0.0
H198 H 0.38612 0.83603 0.67746 0.0
H199 H 0.38394 0.88082 0.71513 0.0
H200 H 0.35296 0.87999 0.66453 0.0
C201 C 0.38061 0.84867 0.68111 0.0
C202 C 0.36864 0.85667 0.66879 0.0
C203 C 0.38623 0.85717 0.69788 0.0
C204 C 0.37966 0.87409 0.70237 0.0
C205 C 0.36767 0.88232 0.6902 0.0
C206 C 0.36237 0.87356 0.67362 0.0
N207 N 0.36123 0.89981 0.69352 0.0
C208 C 0.3595 0.90827 0.70979 0.0
H209 H 0.68694 0.84316 0.68475 0.0
H210 H 0.72273 0.80737 0.66266 0.0
H211 H 0.6695 0.78218 0.68493 0.0
C212 C 0.68954 0.829 0.68185 0.0
C213 C 0.67607 0.813 0.68642 0.0
C214 C 0.70686 0.82715 0.67416 0.0
C215 C 0.7095 0.80902 0.66871 0.0
C216 C 0.69554 0.79286 0.67211 0.0
C217 C 0.67935 0.79489 0.68147 0.0
N218 N 0.69776 0.7743 0.66695 0.0
C219 C 0.70855 0.77082 0.65297 0.0
H220 H 0.6629 0.88025 0.32987 0.0
H221 H 0.63701 0.85159 0.37449 0.0
H222 H 0.6958 0.88223 0.37977 0.0
C223 C 0.66391 0.87641 0.34362 0.0
C224 C 0.68124 0.88269 0.35398 0.0
C225 C 0.64792 0.86507 0.35085 0.0
C226 C 0.64929 0.86025 0.3687 0.0
C227 C 0.6665 0.8662 0.37913 0.0
C228 C 0.68246 0.87749 0.37175 0.0
N229 N 0.66732 0.86055 0.39697 0.0
C230 C 0.6846 0.85911 0.4065 0.0
H231 H 0.74325 0.16311 0.38302 0.0
H232 H 0.71323 0.21056 0.37359 0.0
H233 H 0.71681 0.17095 0.33188 0.0
C234 C 0.73445 0.17088 0.37457 0.0
C235 C 0.72998 0.16466 0.35703 0.0
C236 C 0.72891 0.18766 0.38082 0.0
C237 C 0.7177 0.19764 0.36922 0.0
C238 C 0.71324 0.19153 0.35156 0.0
C239 C 0.7198 0.17533 0.34558 0.0
N240 N 0.70478 0.20271 0.33883 0.0
C241 C 0.68806 0.21065 0.34032 0.0
H242 H 0.40196 0.14979 0.34079 0.0
H243 H 0.38901 0.18969 0.37881 0.0
H244 H 0.35422 0.13355 0.37359 0.0
C245 C 0.39353 0.15301 0.35154 0.0
C246 C 0.37793 0.13937 0.35642 0.0
C247 C 0.39776 0.17111 0.35959 0.0
C248 C 0.38591 0.17569 0.37266 0.0
C249 C 0.3702 0.16201 0.37779 0.0
C250 C 0.36637 0.14397 0.36964 0.0
N251 N 0.35779 0.16575 0.39095 0.0
C252 C 0.3585 0.18324 0.39925 0.0
H253 H 0.3626 0.80197 0.38631 0.0
H254 H 0.36565 0.82794 0.33555 0.0
H255 H 0.32554 0.84251 0.37159 0.0
C256 C 0.35745 0.8114 0.37674 0.0
C257 C 0.34264 0.82152 0.38105 0.0
C258 C 0.36588 0.81338 0.36033 0.0
C259 C 0.35973 0.8264 0.34839 0.0
C260 C 0.34556 0.83721 0.35244 0.0
C261 C 0.33698 0.83473 0.36877 0.0
N262 N 0.33988 0.84955 0.33915 0.0
C263 C 0.32869 0.86384 0.34053 0.0
H264 H 0.72908 0.65804 0.17559 0.0
H265 H 0.68562 0.66235 0.21282 0.0
H266 H 0.68785 0.69532 0.16576 0.0
C267 C 0.71676 0.66395 0.17961 0.0
C268 C 0.70932 0.67705 0.16855 0.0
C269 C 0.70836 0.65829 0.19563 0.0
C270 C 0.69241 0.66652 0.20071 0.0
C271 C 0.68507 0.67997 0.18988 0.0
C272 C 0.69358 0.68496 0.17396 0.0
N273 N 0.66921 0.689 0.19409 0.0
C274 C 0.65788 0.68651 0.20868 0.0
H275 H 0.37995 0.68028 0.19902 0.0
H276 H 0.36461 0.72313 0.16391 0.0
H277 H 0.3226 0.67313 0.17306 0.0
C278 C 0.36941 0.68536 0.19005 0.0
C279 C 0.3508 0.67429 0.18687 0.0
C280 C 0.37448 0.70309 0.18202 0.0
C281 C 0.36086 0.70951 0.17021 0.0
C282 C 0.3422 0.69851 0.16686 0.0
C283 C 0.33718 0.68122 0.17545 0.0
N284 N 0.32797 0.70465 0.15526 0.0
C285 C 0.33244 0.71426 0.13982 0.0
H286 H 0.39974 0.32303 0.18444 0.0
H287 H 0.40205 0.35933 0.23004 0.0
H288 H 0.35811 0.36083 0.18869 0.0
C289 C 0.39405 0.33372 0.19162 0.0
C290 C 0.37795 0.34126 0.18411 0.0
C291 C 0.40276 0.33976 0.20841 0.0
C292 C 0.39536 0.35391 0.21738 0.0
C293 C 0.37944 0.36152 0.21044 0.0
C294 C 0.37071 0.35522 0.19381 0.0
N295 N 0.37262 0.375 0.22121 0.0
C296 C 0.35864 0.38627 0.217 0.0
H297 H 0.6842 0.35208 0.20753 0.0
H298 H 0.74042 0.37271 0.18848 0.0
H299 H 0.70531 0.32237 0.16522 0.0
C300 C 0.69523 0.35075 0.19846 0.0
C301 C 0.69248 0.33533 0.18634 0.0
C302 C 0.7122 0.36459 0.19898 0.0
C303 C 0.72693 0.36247 0.18785 0.0
C304 C 0.72451 0.34744 0.17569 0.0
C305 C 0.70717 0.33397 0.17474 0.0
N306 N 0.74015 0.34614 0.16502 0.0
C307 C 0.73822 0.33739 0.14853 0.0
H308 H 0.69256 0.37224 0.84074 0.0
H309 H 0.68107 0.32791 0.8787 0.0
H310 H 0.73176 0.37162 0.88652 0.0
C311 C 0.69631 0.36591 0.85311 0.0
C312 C 0.71323 0.37424 0.86319 0.0
C313 C 0.68453 0.34923 0.8585 0.0
C314 C 0.69008 0.34067 0.87413 0.0
C315 C 0.70712 0.34844 0.88418 0.0
C316 C 0.71873 0.36532 0.8787 0.0
N317 N 0.71189 0.33885 0.89972 0.0
C318 C 0.7285 0.34426 0.91084 0.0
H319 H 0.75094 0.67549 0.88672 0.0
H320 H 0.70626 0.70894 0.87431 0.0
H321 H 0.71918 0.66945 0.83611 0.0
C322 C 0.7398 0.67935 0.87762 0.0
C323 C 0.73617 0.67025 0.86095 0.0
C324 C 0.72924 0.6935 0.88261 0.0
C325 C 0.71465 0.69831 0.87065 0.0
C326 C 0.711 0.68955 0.85391 0.0
C327 C 0.72188 0.67578 0.84919 0.0
N328 N 0.697 0.69449 0.84114 0.0
C329 C 0.68203 0.70447 0.84419 0.0
H330 H 0.37625 0.66106 0.80412 0.0
H331 H 0.37613 0.71812 0.82224 0.0
H332 H 0.32747 0.6741 0.83087 0.0
C333 C 0.36903 0.67124 0.81047 0.0
C334 C 0.35049 0.66524 0.81688 0.0
C335 C 0.37853 0.6902 0.81254 0.0
C336 C 0.36921 0.70331 0.82089 0.0
C337 C 0.35108 0.69748 0.82779 0.0
C338 C 0.34178 0.6784 0.82595 0.0
N339 N 0.34216 0.71124 0.83596 0.0
C340 C 0.33488 0.70856 0.85247 0.0
H341 H 0.39902 0.29914 0.88967 0.0
H342 H 0.39315 0.34085 0.84951 0.0
H343 H 0.36835 0.34495 0.89921 0.0
C344 C 0.39363 0.31172 0.88514 0.0
C345 C 0.38314 0.32107 0.89655 0.0
C346 C 0.39757 0.31873 0.86811 0.0
C347 C 0.39008 0.33505 0.86236 0.0
C348 C 0.37948 0.34448 0.87359 0.0
C349 C 0.37635 0.3375 0.89059 0.0
N350 N 0.37257 0.3616 0.86894 0.0
C351 C 0.3697 0.36893 0.85214 0.0
Cu352 Cu 0.30737 0.2505 0.04574 0.0
N353 N 0.32794 0.24848 0.03112 0.0
N354 N 0.34544 0.25758 1.00768 0.0
C355 C 0.3379 0.26323 0.02243 0.0
C356 C 0.34061 0.23841 1.00753 0.0
C357 C 0.3298 0.23291 0.02181 0.0
O358 O 0.28447 0.24877 0.02903 0.0
C359 C 0.32794 0.2721 0.07293 0.0
O360 O 0.33626 0.25698 0.07282 0.0
H361 H 0.33736 0.2779 0.02559 0.0
H362 H 0.32203 0.21873 0.02404 0.0
N363 N 0.30128 0.23046 0.06188 0.0
N364 N 0.28929 0.21593 0.08615 0.0
C365 C 0.29229 0.23224 0.07687 0.0
C366 C 0.30402 0.21227 0.06157 0.0
C367 C 0.29664 0.2033 0.07646 0.0
C368 C 0.28564 0.25622 1.01382 0.0
O369 O 0.30043 0.26968 1.01098 0.0
H370 H 0.28784 0.24534 0.08076 0.0
H371 H 0.3109 0.20591 0.05133 0.0
O372 O 0.31465 0.27342 0.06088 0.0
H373 H 0.34343 0.22901 0.99719 0.0
H374 H 0.29698 0.18869 0.07997 0.0
Cu375 Cu 0.82398 0.30586 1.00515 0.0
N376 N 0.8016 0.31323 1.01314 0.0
N377 N 0.77876 0.31778 0.03125 0.0
C378 C 0.79642 0.31289 0.02989 0.0
C379 C 0.77254 0.32122 0.01462 0.0
C380 C 0.78659 0.31828 1.0035 0.0
O381 O 0.83483 0.29114 0.02334 0.0
C382 C 0.84215 0.3423 0.99155 0.0
O383 O 0.85716 0.35618 0.99107 0.0
H384 H 0.80513 0.30842 0.04078 0.0
H385 H 0.78564 0.31923 0.98933 0.0
N386 N 0.81724 0.29021 0.98531 0.0
N387 N 0.81938 0.27208 0.96178 0.0
C388 C 0.8291 0.28513 0.97356 0.0
C389 C 0.79949 0.28007 0.98086 0.0
C390 C 0.80075 0.26888 0.96637 0.0
C391 C 0.84273 0.2988 0.03775 0.0
O392 O 0.84375 0.31716 0.04036 0.0
H393 H 0.84462 0.29041 0.97406 0.0
H394 H 0.78661 0.28046 0.98791 0.0
O395 O 0.8439 0.32762 1.00051 0.0
H396 H 0.7588 0.32546 1.01069 0.0
H397 H 0.78882 0.25917 0.95973 0.0
Cu398 Cu 0.80405 0.7547 0.02762 0.0
N399 N 0.82424 0.75337 1.01265 0.0
N400 N 0.84207 0.75968 0.9891 0.0
C401 C 0.82703 0.76372 0.99789 0.0
C402 C 0.84894 0.74615 0.99874 0.0
C403 C 0.83789 0.74223 1.01315 0.0
O404 O 0.78152 0.75298 1.01071 0.0
C405 C 0.80488 0.78109 0.05629 0.0
O406 O 0.78817 0.77072 0.0599 0.0
H407 H 0.81819 0.77412 0.99376 0.0
H408 H 0.83957 0.73178 0.02308 0.0
N409 N 0.7998 0.73483 0.04405 0.0
N410 N 0.78547 0.71797 0.06611 0.0
C411 C 0.78296 0.72875 0.05181 0.0
C412 C 0.81341 0.72753 0.05373 0.0
C413 C 0.80465 0.71706 0.06718 0.0
C414 C 0.77734 0.73689 1.00266 0.0
O415 O 0.78618 0.7231 1.00836 0.0
H416 H 0.76949 0.73352 0.04788 0.0
H417 H 0.82886 0.73073 0.05198 0.0
O418 O 0.81233 0.77797 0.04191 0.0
H419 H 0.86088 0.73926 0.99546 0.0
H420 H 0.81207 0.71002 0.07739 0.0
Cu421 Cu 0.31132 0.76901 1.01246 0.0
N422 N 0.29837 0.76124 0.03265 0.0
N423 N 0.28253 0.76284 0.05711 0.0
C424 C 0.29187 0.77271 0.0441 0.0
C425 C 0.28331 0.74443 0.05365 0.0
C426 C 0.2929 0.74349 0.03853 0.0
O427 O 0.33498 0.78748 0.01846 0.0
C428 C 0.29376 0.79937 0.99983 0.0
O429 O 0.30454 0.80878 1.01286 0.0
H430 H 0.29366 0.78795 0.04263 0.0
H431 H 0.2953 0.73065 0.03219 0.0
N432 N 0.31651 0.74824 0.9996 0.0
N433 N 0.3187 0.72953 0.97642 0.0
C434 C 0.31514 0.74654 0.9819 0.0
C435 C 0.32116 0.73173 1.00546 0.0
C436 C 0.32253 0.72021 0.99123 0.0
C437 C 0.34541 0.78924 0.03291 0.0
O438 O 0.35948 0.80401 0.03533 0.0
H439 H 0.31112 0.7574 0.97327 0.0
H440 H 0.32324 0.72809 0.0191 0.0
O441 O 0.29437 0.78184 0.99747 0.0
H442 H 0.27736 0.73239 0.0614 0.0
H443 H 0.3262 0.70612 0.99178 0.0
Cu444 Cu 0.0315 0.26306 0.30508 0.0
N445 N 0.0432 0.24105 0.30525 0.0
N446 N 0.06337 0.22102 0.29859 0.0
C447 C 0.05864 0.23849 0.29616 0.0
C448 C 0.05029 0.21233 0.30964 0.0
C449 C 0.03794 0.22462 0.31368 0.0
O450 O 0.05298 0.28434 0.3088 0.0
C451 C 1.01073 0.25013 0.27301 0.0
O452 O 1.01408 0.23351 0.27842 0.0
H453 H 0.06625 0.24932 0.28796 0.0
H454 H 0.02577 0.22164 0.32193 0.0
N455 N 1.01323 0.26376 0.32248 0.0
N456 N 0.98835 0.27217 0.33638 0.0
C457 C 0.99819 0.27344 0.32147 0.0
C458 C 1.0128 0.25601 0.33858 0.0
C459 C 0.9976 0.26119 0.34715 0.0
C460 C 0.06147 0.28713 0.32412 0.0
O461 O 0.0546 0.27639 0.33705 0.0
H462 H 0.99482 0.28162 0.31012 0.0
H463 H 0.02302 0.24743 0.34387 0.0
O464 O 0.01755 0.26493 0.28234 0.0
H465 H 0.04935 0.1979 0.31424 0.0
H466 H 0.9936 0.25701 0.36026 0.0
Cu467 Cu 0.79274 0.02986 0.2811 0.0
N468 N 0.79481 0.04734 0.2614 0.0
N469 N 0.8065 0.07033 0.24322 0.0
C470 C 0.81089 0.05864 0.25619 0.0
C471 C 0.78697 0.06601 0.2401 0.0
C472 C 0.77981 0.05178 0.25133 0.0
O473 O 0.7796 0.04809 0.29526 0.0
C474 C 0.82189 1.00737 0.27193 0.0
O475 O 0.83168 0.01673 0.28551 0.0
H476 H 0.82532 0.05895 0.26239 0.0
H477 H 0.76469 0.04551 0.25249 0.0
N478 N 0.78997 0.01203 0.30044 0.0
N479 N 0.77899 0.98594 0.31527 0.0
C480 C 0.77954 0.99434 0.29943 0.0
C481 C 0.79634 0.01508 0.31743 0.0
C482 C 0.78949 0.99893 0.32667 0.0
C483 C 0.78636 0.06572 0.29811 0.0
O484 O 0.8029 0.0734 0.29173 0.0
H485 H 0.77181 0.9881 0.28745 0.0
H486 H 0.80485 0.02824 0.32274 0.0
O487 O 0.80517 0.01104 0.26712 0.0
H488 H 0.77844 0.07283 0.23056 0.0
H489 H 0.79181 0.997 0.34069 0.0
Cu490 Cu 0.01917 0.76545 0.27347 0.0
N491 N 1.00491 0.78523 0.27595 0.0
N492 N 0.98229 0.80356 0.27042 0.0
C493 C 0.99064 0.78922 0.2645 0.0
C494 C 0.99179 0.80879 0.28617 0.0
C495 C 1.0057 0.79753 0.28951 0.0
O496 O 1.00021 0.74444 0.26319 0.0
C497 C 0.053 0.78786 0.26543 0.0
O498 O 0.04961 0.79535 0.28048 0.0
H499 H 0.98606 0.78134 0.25233 0.0
H500 H 1.01553 0.7981 0.30113 0.0
N501 N 0.03057 0.75855 0.29508 0.0
N502 N 0.05178 0.748 0.31441 0.0
C503 C 0.04747 0.75185 0.29734 0.0
C504 C 0.02388 0.75891 0.31123 0.0
C505 C 0.03687 0.75245 0.32314 0.0
C506 C 0.99456 0.72908 0.27126 0.0
O507 O 1.00459 0.72521 0.28553 0.0
H508 H 0.05649 0.75004 0.28664 0.0
H509 H 1.01039 0.76335 0.31412 0.0
O510 O 0.04055 0.7741 0.25877 0.0
H511 H 0.98887 0.81996 0.29472 0.0
H512 H 0.03521 0.75086 0.33712 0.0
Cu513 Cu 0.27392 1.00046 0.26086 0.0
N514 N 0.29898 0.01468 0.26282 0.0
N515 N 0.32428 0.035 0.27491 0.0
C516 C 0.30558 0.02675 0.27628 0.0
C517 C 0.32972 0.02779 0.25996 0.0
C518 C 0.31396 0.01526 0.25243 0.0
O519 O 0.25641 0.01952 0.26147 0.0
C520 C 0.28786 0.97271 0.28127 0.0
O521 O 0.30193 0.97752 0.27063 0.0
H522 H 0.29685 0.02915 0.28705 0.0
H523 H 0.31347 1.00706 0.24037 0.0
N524 N 0.26906 0.98747 0.23913 0.0
N525 N 0.26269 0.96327 0.21972 0.0
C526 C 0.27002 0.96906 0.23605 0.0
C527 C 0.26087 0.99343 0.22416 0.0
C528 C 0.25691 0.97854 0.21219 0.0
C529 C 0.26024 0.03353 0.25101 0.0
O530 O 0.27531 0.03433 0.24137 0.0
H531 H 0.27463 0.95969 0.24596 0.0
H532 H 0.25689 1.00725 0.2223 0.0
O533 O 0.27306 0.98109 0.27963 0.0
H534 H 0.34394 0.03145 0.25476 0.0
H535 H 0.24955 0.97867 0.19925 0.0
Cu536 Cu 0.03124 0.7665 0.7574 0.0
N537 N 0.04377 0.7456 0.75346 0.0
N538 N 0.0661 0.7296 0.74352 0.0
C539 C 0.05943 0.74632 0.74377 0.0
C540 C 0.05395 0.7179 0.75349 0.0
C541 C 0.04027 0.72777 0.75958 0.0
O542 O 0.05155 0.78752 0.7654 0.0
C543 C 1.00245 0.75697 0.73238 0.0
O544 O 1.00053 0.74215 0.7427 0.0
H545 H 0.06576 0.75901 0.73705 0.0
H546 H 0.02875 0.72239 0.76806 0.0
N547 N 1.01272 0.76346 0.77472 0.0
N548 N 0.9875 0.76967 0.78934 0.0
C549 C 0.9975 0.77282 0.77468 0.0
C550 C 1.01232 0.75397 0.78997 0.0
C551 C 0.99683 0.75781 0.79902 0.0
C552 C 0.0619 0.7834 0.77872 0.0
O553 O 0.05788 0.76621 0.78514 0.0
H554 H 0.99426 0.78234 0.76432 0.0
H555 H 0.02279 0.74526 0.79442 0.0
O556 O 0.01653 0.77068 0.73576 0.0
H557 H 0.05502 0.70333 0.75655 0.0
H558 H 0.99282 0.75235 0.81177 0.0
Cu559 Cu 0.29934 0.03289 0.80141 0.0
N560 N 0.30348 0.04911 0.78092 0.0
N561 N 0.3136 0.07345 0.76351 0.0
C562 C 0.31525 0.06609 0.77978 0.0
C563 C 0.30029 0.06052 0.75423 0.0
C564 C 0.29408 0.04555 0.76501 0.0
O565 O 0.2905 0.05478 0.81481 0.0
C566 C 0.32303 0.01026 0.78059 0.0
O567 O 0.33627 0.0258 0.78069 0.0
H568 H 0.32475 0.07283 0.79063 0.0
H569 H 0.28326 0.03306 0.7616 0.0
N570 N 0.29433 0.01601 0.82145 0.0
N571 N 0.28473 0.98903 0.83561 0.0
C572 C 0.28558 0.99769 0.81992 0.0
C573 C 0.29917 0.01914 0.83876 0.0
C574 C 0.29309 1.00247 0.84758 0.0
C575 C 0.30189 0.06583 0.82566 0.0
O576 O 0.32006 0.06346 0.82829 0.0
H577 H 0.27992 0.99085 0.80749 0.0
H578 H 0.3068 0.03238 0.84462 0.0
O579 O 0.3071 0.01051 0.78788 0.0
H580 H 0.29498 0.06193 0.74072 0.0
H581 H 0.2951 1.00027 0.86159 0.0
Cu582 Cu 0.04374 0.28503 0.8028 0.0
N583 N 0.03204 0.30674 0.80059 0.0
N584 N 1.01286 0.32557 0.78791 0.0
C585 C 0.02227 0.31085 0.78568 0.0
C586 C 0.01691 0.33104 0.80493 0.0
C587 C 0.02888 0.31946 0.81271 0.0
O588 O 0.02357 0.26323 0.80602 0.0
C589 C 0.07091 0.29537 0.77872 0.0
O590 O 0.07657 0.30872 0.79082 0.0
H591 H 0.02131 0.30255 0.77362 0.0
H592 H 0.03417 0.31977 0.82639 0.0
N593 N 0.06265 0.2854 0.82157 0.0
N594 N 0.08854 0.27709 0.83641 0.0
C595 C 0.0797 0.2792 0.82043 0.0
C596 C 0.0606 0.2872 0.83894 0.0
C597 C 0.07655 0.28206 0.84813 0.0
C598 C 1.01052 0.26465 0.81664 0.0
O599 O 1.01087 0.28088 0.82492 0.0
H600 H 0.08488 0.275 0.80816 0.0
H601 H 0.0479 0.29089 0.84455 0.0
O602 O 0.05612 0.28269 0.78107 0.0
H603 H 1.01142 0.34238 0.81134 0.0
H604 H 0.07888 0.28147 0.8623 0.0
Cu605 Cu 0.79868 0.99088 0.73139 0.0
N606 N 0.82027 0.01013 0.73546 0.0
N607 N 0.8359 0.03912 0.74354 0.0
C608 C 0.81894 0.02683 0.74297 0.0
C609 C 0.8487 0.02978 0.7363 0.0
C610 C 0.83889 0.01184 0.7311 0.0
O611 O 0.77779 1.00489 0.72333 0.0
C612 C 0.81199 0.96699 0.75624 0.0
O613 O 0.82775 0.97314 0.74795 0.0
H614 H 0.80572 0.03001 0.74794 0.0
H615 H 0.8448 1.00098 0.72436 0.0
N616 N 0.80159 0.97537 0.71237 0.0
N617 N 0.79427 0.9492 0.69521 0.0
C618 C 0.79403 0.95673 0.71151 0.0
C619 C 0.80717 0.97998 0.69613 0.0
C620 C 0.80275 0.96382 0.68551 0.0
C621 C 0.76872 0.01601 0.73144 0.0
O622 O 0.76911 0.01591 0.74871 0.0
H623 H 0.78757 0.94919 0.72256 0.0
H624 H 0.81284 0.99426 0.69203 0.0
O625 O 0.79652 0.97365 0.75181 0.0
H626 H 0.8638 0.03568 0.73447 0.0
H627 H 0.80448 0.96328 0.6715 0.0
Cu628 Cu 0.28728 0.75242 0.5244 0.0
N629 N 0.30957 0.75943 0.54001 0.0
N630 N 0.32722 0.77605 0.56253 0.0
C631 C 0.31367 0.77617 0.54903 0.0
C632 C 0.33193 0.75855 0.56192 0.0
C633 C 0.32104 0.74835 0.54812 0.0
O634 O 0.26593 0.7471 0.54058 0.0
C635 C 0.3011 0.77232 0.49595 0.0
O636 O 0.31363 0.76089 0.49933 0.0
H637 H 0.30571 0.7877 0.54658 0.0
H638 H 0.32059 0.7335 0.54516 0.0
N639 N 0.28619 0.73022 0.51039 0.0
N640 N 0.27565 0.70911 0.48842 0.0
C641 C 0.27382 0.72579 0.49598 0.0
C642 C 0.29639 0.71589 0.51178 0.0
C643 C 0.28979 0.7028 0.49838 0.0
C644 C 0.26597 0.73185 0.5494 0.0
O645 O 0.27875 0.72114 0.54591 0.0
H646 H 0.26337 0.73448 0.49136 0.0
H647 H 0.30766 0.7148 0.52186 0.0
O648 O 0.28751 0.77242 0.50649 0.0
H649 H 0.342 0.75322 0.57118 0.0
H650 H 0.29501 0.68965 0.49612 0.0
Cu651 Cu 0.77983 0.76665 0.49401 0.0
N652 N 0.78097 0.74936 0.47586 0.0
N653 N 0.78264 0.7378 0.44883 0.0
C654 C 0.78275 0.75351 0.45876 0.0
C655 C 0.78067 0.72316 0.4601 0.0
C656 C 0.77945 0.73034 0.47678 0.0
O657 O 0.76971 0.7881 0.48422 0.0
C658 C 0.81676 0.763 0.50933 0.0
O659 O 0.81491 0.74819 0.49869 0.0
H660 H 0.78425 0.76779 0.45371 0.0
H661 H 0.77757 0.72229 0.48875 0.0
N662 N 0.7627 0.75549 0.51019 0.0
N663 N 0.75012 0.74952 0.53622 0.0
C664 C 0.7655 0.75822 0.52771 0.0
C665 C 0.74498 0.74462 0.50742 0.0
C666 C 0.73712 0.74094 0.52352 0.0
C667 C 0.77944 0.8011 0.47541 0.0
O668 O 0.79797 0.80098 0.47348 0.0
H669 H 0.77825 0.76713 0.534 0.0
H670 H 0.73812 0.74009 0.4946 0.0
O671 O 0.80451 0.77419 0.50753 0.0
H672 H 0.77984 0.70835 0.45651 0.0
H673 H 0.72289 0.7328 0.52567 0.0
Cu674 Cu 0.79921 0.24833 0.54501 0.0
N675 N 0.7968 0.22833 0.52834 0.0
N676 N 0.7877 0.21574 0.50138 0.0
C677 C 0.78612 0.22944 0.51314 0.0
C678 C 0.79963 0.20514 0.50963 0.0
C679 C 0.80535 0.21303 0.5263 0.0
O680 O 0.80242 0.27051 0.52924 0.0
C681 C 0.77838 0.22703 0.56928 0.0
O682 O 0.79311 0.21837 0.56676 0.0
H683 H 0.77799 0.2408 0.51046 0.0
H684 H 0.81571 0.20851 0.53581 0.0
N685 N 0.82071 0.25283 0.56172 0.0
N686 N 0.83647 0.26534 0.58692 0.0
C687 C 0.81942 0.26187 0.57708 0.0
C688 C 0.8394 0.25046 0.56171 0.0
C689 C 0.84919 0.25823 0.57725 0.0
C690 C 0.81638 0.27023 0.51907 0.0
O691 O 0.82732 0.25718 0.52161 0.0
H692 H 0.80619 0.26637 0.5807 0.0
H693 H 0.8456 0.24391 0.55111 0.0
O694 O 0.7768 0.24167 0.55994 0.0
H695 H 0.80474 0.19328 0.5037 0.0
H696 H 0.86442 0.25859 0.58111 0.0
Cu697 Cu 0.32837 0.31643 0.51726 0.0
N698 N 0.30701 0.32668 0.52376 0.0
N699 N 0.28601 0.33678 0.54097 0.0
C700 C 0.30372 0.33184 0.54017 0.0
C701 C 0.2779 0.33471 0.52434 0.0
C702 C 0.29085 0.3284 0.51379 0.0
O703 O 0.3369 0.30255 0.53715 0.0
C704 C 0.3482 0.35007 0.50108 0.0
O705 O 0.36359 0.36316 0.499 0.0
H706 H 0.3137 0.33096 0.55147 0.0
H707 H 0.28836 0.32469 0.49996 0.0
N708 N 0.32109 0.29897 0.49877 0.0
N709 N 0.3232 0.27845 0.47704 0.0
C710 C 0.33282 0.29291 0.48744 0.0
C711 C 0.30352 0.28797 0.49552 0.0
C712 C 0.30475 0.27532 0.48211 0.0
C713 C 0.34822 0.31058 0.54976 0.0
O714 O 0.3548 0.32897 0.54924 0.0
H715 H 0.34826 0.29844 0.48741 0.0
H716 H 0.29085 0.28867 0.50278 0.0
O717 O 0.34969 0.33622 0.51121 0.0
H718 H 0.26347 0.33713 0.52014 0.0
H719 H 0.29297 0.26458 0.47664 0.0
Cu720 Cu 0.79944 0.53723 0.78671 0.0
N721 N 0.79619 0.55006 0.76566 0.0
N722 N 0.80065 0.57411 0.74681 0.0
C723 C 0.80546 0.56785 0.7629 0.0
C724 C 0.78784 0.55962 0.73907 0.0
C725 C 0.78502 0.5448 0.75079 0.0
O726 O 0.79978 0.55663 0.80539 0.0
C727 C 0.82029 0.51274 0.77171 0.0
O728 O 0.80506 0.51206 0.76056 0.0
H729 H 0.81572 0.57595 0.77253 0.0
H730 H 0.77554 0.53119 0.74858 0.0
N731 N 0.77869 0.51761 0.79027 0.0
N732 N 0.76343 0.49069 0.80165 0.0
C733 C 0.7802 0.50331 0.80138 0.0
C734 C 0.76027 0.51403 0.78316 0.0
C735 C 0.75078 0.49741 0.79022 0.0
C736 C 0.78403 0.56351 0.80523 0.0
O737 O 0.76989 0.55666 0.79353 0.0
H738 H 0.79342 0.50237 0.80927 0.0
H739 H 0.75417 0.52282 0.77357 0.0
O740 O 0.82188 0.524 0.78508 0.0
H741 H 0.78081 0.5598 0.726 0.0
H742 H 0.73584 0.49068 0.78697 0.0
Cu743 Cu 0.29977 0.50354 0.7543 0.0
N744 N 0.31982 0.48932 0.75977 0.0
N745 N 0.33426 0.46639 0.77226 0.0
C746 C 0.31727 0.4726 0.76838 0.0
C747 C 0.34806 0.47971 0.76574 0.0
C748 C 0.33915 0.49374 0.758 0.0
O749 O 0.27625 0.48479 0.75 0.0
C750 C 0.31376 0.53419 0.7748 0.0
O751 O 0.32814 0.53291 0.76482 0.0
H752 H 0.30324 0.46546 0.77228 0.0
H753 H 0.34636 0.50646 0.75187 0.0
N754 N 0.30278 0.51977 0.73469 0.0
N755 N 0.29856 0.54453 0.71755 0.0
C756 C 0.2921 0.53356 0.73117 0.0
C757 C 0.31642 0.522 0.72281 0.0
C758 C 0.31386 0.5372 0.71226 0.0
C759 C 0.27265 0.47735 0.73464 0.0
O760 O 0.28379 0.48395 0.72199 0.0
H761 H 0.28038 0.53603 0.73903 0.0
H762 H 0.32774 0.51352 0.72216 0.0
O763 O 0.29882 0.52106 0.7737 0.0
H764 H 0.36351 0.47937 0.76649 0.0
H765 H 0.32277 0.54256 0.70162 0.0
Cu766 Cu 0.29758 0.51913 0.28611 0.0
N767 N 0.30357 0.50776 0.30732 0.0
N768 N 0.29969 0.48587 0.32827 0.0
C769 C 0.29275 0.49158 0.31267 0.0
C770 C 0.31557 0.49897 0.33301 0.0
C771 C 0.31785 0.51259 0.32011 0.0
O772 O 0.29467 0.49862 0.26825 0.0
C773 C 0.27901 0.54486 0.30164 0.0
O774 O 0.29651 0.5481 0.30966 0.0
H775 H 0.28009 0.48401 0.30509 0.0
H776 H 0.32894 0.52519 0.3203 0.0
N777 N 0.317 0.53861 0.279 0.0
N778 N 0.32989 0.56269 0.26237 0.0
C779 C 0.31418 0.54931 0.26491 0.0
C780 C 0.33526 0.5454 0.2856 0.0
C781 C 0.34322 0.56038 0.2754 0.0
C782 C 0.31074 0.49322 0.26544 0.0
O783 O 0.32668 0.50195 0.27412 0.0
H784 H 0.30064 0.54745 0.25684 0.0
H785 H 0.34246 0.53983 0.29684 0.0
O786 O 0.27521 0.53157 0.28995 0.0
H787 H 0.32463 0.49889 0.34507 0.0
H788 H 0.35774 0.56871 0.27724 0.0
Cu789 Cu 0.78316 0.51382 0.27875 0.0
N790 N 0.80569 0.5026 0.28026 0.0
N791 N 0.82572 0.48243 0.28882 0.0
C792 C 0.80799 0.48735 0.2901 0.0
C793 C 0.83483 0.49516 0.27761 0.0
C794 C 0.8225 0.50753 0.27239 0.0
O795 O 0.76163 0.493 0.27347 0.0
C796 C 0.79637 0.53583 0.30899 0.0
O797 O 0.81289 0.53026 0.30633 0.0
H798 H 0.79691 0.48028 0.2983 0.0
H799 H 0.82567 0.51936 0.2636 0.0
N800 N 0.78259 0.5324 0.26121 0.0
N801 N 0.7729 0.55709 0.24714 0.0
C802 C 0.77161 0.54618 0.26166 0.0
C803 C 0.79128 0.53477 0.24588 0.0
C804 C 0.78528 0.5499 0.23717 0.0
C805 C 0.76158 0.4856 0.25822 0.0
O806 O 0.77506 0.49301 0.24776 0.0
H807 H 0.76243 0.54781 0.27229 0.0
H808 H 0.801 0.52593 0.24117 0.0
O809 O 0.78097 0.52772 0.30027 0.0
H810 H 0.84936 0.49556 0.27332 0.0
H811 H 0.78976 0.55521 0.22449 0.0
Cu812 Cu 0.5369 0.25367 0.77795 0.0
N813 N 0.51995 0.25168 0.79641 0.0
N814 N 0.49587 0.25856 0.81224 0.0
C815 C 0.50437 0.26049 0.79669 0.0
C816 C 0.5066 0.24805 0.82215 0.0
C817 C 0.52141 0.24384 0.81237 0.0
O818 O 0.52112 0.25988 0.75783 0.0
C819 C 0.5716 0.27011 0.79557 0.0
O820 O 0.56993 0.25288 0.80197 0.0
H821 H 0.49987 0.26885 0.78588 0.0
H822 H 0.53273 0.23607 0.81677 0.0
N823 N 0.54617 0.23111 0.77284 0.0
N824 N 0.5635 0.21122 0.76084 0.0
C825 C 0.56256 0.22954 0.76476 0.0
C826 C 0.53656 0.21318 0.77421 0.0
C827 C 0.54716 0.20093 0.76683 0.0
C828 C 0.52326 0.25645 0.74175 0.0
O829 O 0.53902 0.25041 0.73732 0.0
H830 H 0.57303 0.24165 0.76097 0.0
H831 H 0.52245 0.20936 0.77958 0.0
O832 O 0.55866 0.27377 0.78424 0.0
H833 H 0.50406 0.24381 0.83556 0.0
H834 H 0.54293 0.18563 0.76562 0.0
Cu835 Cu 0.5357 0.78449 0.77697 0.0
N836 N 0.55356 0.78476 0.79663 0.0
N837 N 0.57693 0.77436 0.81352 0.0
C838 C 0.56118 0.7695 0.80211 0.0
C839 C 0.5793 0.79345 0.81535 0.0
C840 C 0.5649 0.79981 0.80495 0.0
O841 O 0.55169 0.78888 0.75688 0.0
C842 C 0.50864 0.75733 0.79012 0.0
O843 O 0.5134 0.76943 0.80341 0.0
H844 H 0.55615 0.75527 0.7968 0.0
H845 H 0.56362 0.81449 0.80277 0.0
N846 N 0.51926 0.80279 0.77714 0.0
N847 N 0.49354 0.81629 0.76872 0.0
C848 C 0.50266 0.80129 0.76679 0.0
C849 C 0.52067 0.81934 0.7861 0.0
C850 C 0.50489 0.82777 0.78083 0.0
C851 C 0.56102 0.80583 0.75608 0.0
O852 O 0.5574 0.81858 0.7673 0.0
H853 H 0.49754 0.78946 0.75775 0.0
H854 H 0.53238 0.82499 0.79566 0.0
O855 O 0.51789 0.76036 0.77624 0.0
H856 H 0.59101 0.80223 0.82317 0.0
H857 H 0.50188 0.84114 0.7857 0.0
Cu858 Cu 0.51351 0.75105 0.28388 0.0
N859 N 0.49614 0.74814 0.30214 0.0
N860 N 0.47168 0.75179 0.31901 0.0
C861 C 0.48076 0.75702 0.3041 0.0
C862 C 0.4819 0.73929 0.32669 0.0
C863 C 0.49693 0.73717 0.31638 0.0
O864 O 0.49831 0.75494 0.26226 0.0
C865 C 0.53344 0.78989 0.28676 0.0
O866 O 0.51861 0.79453 0.27737 0.0
H867 H 0.47621 0.76696 0.2947 0.0
H868 H 0.5078 0.72835 0.31917 0.0
N869 N 0.52634 0.72999 0.28148 0.0
N870 N 0.54837 0.71221 0.2742 0.0
C871 C 0.5436 0.72983 0.27433 0.0
C872 C 0.51995 0.71186 0.28591 0.0
C873 C 0.53344 0.70095 0.28152 0.0
C874 C 0.49582 0.74327 0.24927 0.0
O875 O 0.50535 0.72899 0.2495 0.0
H876 H 0.55246 0.74241 0.26933 0.0
H877 H 0.50626 0.70684 0.29167 0.0
O878 O 0.53366 0.77255 0.29022 0.0
H879 H 0.47892 0.73234 0.33909 0.0
H880 H 0.53206 0.68574 0.28322 0.0
Cu881 Cu 0.54155 0.25853 0.26174 0.0
N882 N 0.52307 0.23831 0.26869 0.0
N883 N 0.49914 0.22364 0.28444 0.0
C884 C 0.50925 0.24048 0.27967 0.0
C885 C 0.50683 0.2103 0.27605 0.0
C886 C 0.52161 0.21941 0.26631 0.0
O887 O 0.52707 0.2798 0.259 0.0
C888 C 0.57236 0.24661 0.28024 0.0
O889 O 0.56603 0.23243 0.26913 0.0
H890 H 0.50735 0.25417 0.28475 0.0
H891 H 0.53106 0.21265 0.25864 0.0
N892 N 0.5515 0.2538 0.24026 0.0
N893 N 0.57217 0.25773 0.21886 0.0
C894 C 0.56679 0.26508 0.23373 0.0
C895 C 0.54688 0.23881 0.22905 0.0
C896 C 0.55977 0.24113 0.21585 0.0
C897 C 0.51687 0.2809 0.24458 0.0
O898 O 0.51827 0.26926 0.23151 0.0
H899 H 0.57436 0.27806 0.24021 0.0
H900 H 0.53525 0.22687 0.23049 0.0
O901 O 0.5637 0.261 0.2796 0.0
H902 H 0.50233 0.19507 0.2771 0.0
H903 H 0.56013 0.23135 0.20503 0.0
H904 H 0.23077 0.15723 0.16204 0.0
H905 H 0.23404 0.21136 0.18919 0.0
H906 H 0.25322 0.22757 0.16577 0.0
H907 H 0.27976 0.16716 0.14547 0.0
H908 H 0.27218 0.15526 0.12461 0.0
H909 H 0.2595 0.14759 0.14394 0.0
H910 H 0.22695 0.15218 0.12785 0.0
H911 H 0.23953 0.15991 0.10851 0.0
H912 H 0.2249 0.17494 0.11846 0.0
H913 H 0.27124 0.2383 0.13908 0.0
H914 H 0.28681 0.24286 0.11093 0.0
H915 H 0.2717 0.18212 0.10003 0.0
C916 C 0.23577 0.17245 0.16316 0.0
C917 C 0.23081 0.183 0.17753 0.0
C918 C 0.23745 0.20296 0.1783 0.0
C919 C 0.24844 0.21231 0.16507 0.0
C920 C 0.25278 0.20161 0.15097 0.0
C921 C 0.2467 0.18211 0.14989 0.0
C922 C 0.25287 0.17418 0.13294 0.0
C923 C 0.26691 0.16022 0.13698 0.0
C924 C 0.235 0.16475 0.12125 0.0
C925 C 0.26323 0.19226 0.12466 0.0
C926 C 0.26304 0.20788 0.13537 0.0
C927 C 0.27143 0.22616 0.13057 0.0
C928 C 0.28015 0.22863 0.1144 0.0
C929 C 0.28047 0.21294 0.10298 0.0
C930 C 0.27192 0.19446 0.10838 0.0
H931 H 0.85933 0.26691 0.13689 0.0
H932 H 0.87032 0.21358 0.11602 0.0
H933 H 0.86934 0.22635 0.08584 0.0
H934 H 0.82537 0.27511 0.10394 0.0
H935 H 0.83332 0.30051 0.10324 0.0
H936 H 0.83732 0.28798 0.12319 0.0
H937 H 0.87428 0.30179 0.12346 0.0
H938 H 0.87017 0.31426 0.10342 0.0
H939 H 0.8875 0.29831 0.10447 0.0
H940 H 0.86256 0.24317 0.05797 0.0
H941 H 0.85284 0.26377 0.03425 0.0
H942 H 0.84736 0.30679 0.07316 0.0
C943 C 0.86215 0.25823 0.12596 0.0
C944 C 0.86523 0.23945 0.12858 0.0
C945 C 0.8683 0.22815 0.11412 0.0
C946 C 0.8677 0.23527 0.09698 0.0
C947 C 0.86416 0.25374 0.09467 0.0
C948 C 0.86172 0.26519 0.10877 0.0
C949 C 0.85694 0.28408 0.10258 0.0
C950 C 0.83705 0.28707 0.10859 0.0
C951 C 0.8732 0.30059 0.10886 0.0
C952 C 0.85635 0.28117 0.08281 0.0
C953 C 0.86065 0.26361 0.07853 0.0
C954 C 0.85956 0.25711 0.06114 0.0
C955 C 0.85393 0.26886 0.04777 0.0
C956 C 0.84957 0.28694 0.05186 0.0
C957 C 0.85101 0.2932 0.06961 0.0
H958 H 0.8263 0.82994 0.15215 0.0
H959 H 0.88776 0.83873 0.14288 0.0
H960 H 0.87972 0.82468 0.11289 0.0
H961 H 0.81365 0.78424 0.12904 0.0
H962 H 0.79019 0.78869 0.1207 0.0
H963 H 0.801 0.79942 0.14125 0.0
H964 H 0.79777 0.83268 0.12922 0.0
H965 H 0.78721 0.82207 0.10854 0.0
H966 H 0.80857 0.84041 0.109 0.0
H967 H 0.86456 0.81111 0.08318 0.0
H968 H 0.84415 0.79518 0.05787 0.0
H969 H 0.79262 0.79383 0.08714 0.0
C970 C 0.83806 0.82878 0.14383 0.0
C971 C 0.85768 0.83546 0.1498 0.0
C972 C 0.87267 0.83358 0.1386 0.0
C973 C 0.86821 0.82576 0.12151 0.0
C974 C 0.84869 0.81965 0.11589 0.0
C975 C 0.83388 0.82074 0.12686 0.0
C976 C 0.81414 0.81259 0.11789 0.0
C977 C 0.80416 0.7952 0.12781 0.0
C978 C 0.80116 0.82785 0.11606 0.0
C979 C 0.82009 0.80688 0.10009 0.0
C980 C 0.84006 0.81127 0.09911 0.0
C981 C 0.84892 0.80752 0.08387 0.0
C982 C 0.83716 0.79858 0.06948 0.0
C983 C 0.81673 0.79324 0.07042 0.0
C984 C 0.80816 0.79774 0.08592 0.0
H985 H 0.21138 0.75708 0.13525 0.0
H986 H 0.23018 0.81781 0.14318 0.0
H987 H 0.2525 0.81829 0.11907 0.0
H988 H 0.25828 0.74621 0.12502 0.0
H989 H 0.24793 0.72843 0.10859 0.0
H990 H 0.23403 0.73293 0.12681 0.0
H991 H 0.20603 0.7394 0.10495 0.0
H992 H 0.21988 0.73495 0.0867 0.0
H993 H 0.21115 0.75715 0.08831 0.0
H994 H 0.27237 0.81197 0.09376 0.0
H995 H 0.28824 0.79956 0.06933 0.0
H996 H 0.25546 0.74302 0.0776 0.0
C997 C 0.22033 0.77042 0.13192 0.0
C998 C 0.21932 0.78739 0.14098 0.0
C999 C 0.23097 0.80466 0.13636 0.0
C1000 C 0.24364 0.80506 0.12271 0.0
C1001 C 0.24432 0.78804 0.1139 0.0
C1002 C 0.23297 0.77104 0.11832 0.0
C1003 C 0.23613 0.75484 0.10661 0.0
C1004 C 0.2446 0.73971 0.1174 0.0
C1005 C 0.21717 0.74608 0.09601 0.0
C1006 C 0.25093 0.76538 0.09482 0.0
C1007 C 0.25553 0.78448 0.09925 0.0
C1008 C 0.26882 0.79703 0.09014 0.0
C1009 C 0.27766 0.78984 0.07614 0.0
C1010 C 0.27318 0.77025 0.07136 0.0
C1011 C 0.25954 0.75799 0.08091 0.0
H1012 H 0.21495 0.80819 0.92089 0.0
H1013 H 0.22111 0.86795 0.93468 0.0
H1014 H 0.24644 0.86426 0.95815 0.0
H1015 H 0.21969 0.79128 0.96441 0.0
H1016 H 0.23329 0.77311 0.95884 0.0
H1017 H 0.21655 0.78073 0.94262 0.0
H1018 H 0.24423 0.78873 0.92128 0.0
H1019 H 0.26104 0.78103 0.93741 0.0
H1020 H 0.26636 0.8046 0.92854 0.0
H1021 H 0.26989 0.85353 0.98085 0.0
H1022 H 0.29043 0.83699 1.00072 0.0
H1023 H 0.26895 0.78406 0.97191 0.0
C1024 C 0.22187 0.8205 0.92875 0.0
C1025 C 0.21638 0.83837 0.9261 0.0
C1026 C 0.22539 0.8542 0.9366 0.0
C1027 C 0.23971 0.85221 0.94991 0.0
C1028 C 0.24474 0.8343 0.9524 0.0
C1029 C 0.23618 0.81873 0.94204 0.0
C1030 C 0.24384 0.80097 0.94768 0.0
C1031 C 0.22736 0.78562 0.95375 0.0
C1032 C 0.2545 0.79339 0.93284 0.0
C1033 C 0.25789 0.80889 0.96296 0.0
C1034 C 0.25823 0.82814 0.96544 0.0
C1035 C 0.26982 0.83849 0.97896 0.0
C1036 C 0.28142 0.82894 0.99021 0.0
C1037 C 0.28134 0.80922 0.98788 0.0
C1038 C 0.26939 0.79914 0.97403 0.0
H1039 H 0.26846 0.21164 0.91619 0.0
H1040 H 0.20956 0.18777 0.92871 0.0
H1041 H 0.21568 0.20292 0.95829 0.0
H1042 H 0.29162 0.20708 0.95893 0.0
H1043 H 0.30819 0.22945 0.95863 0.0
H1044 H 0.29955 0.2169 0.93828 0.0
H1045 H 0.28686 0.24636 0.92617 0.0
H1046 H 0.29534 0.25933 0.94634 0.0
H1047 H 0.27017 0.25699 0.93844 0.0
H1048 H 0.22897 0.21915 0.98737 0.0
H1049 H 0.24776 0.2371 1.01273 0.0
H1050 H 0.29696 0.25256 0.9805 0.0
C1051 C 0.25689 0.20964 0.92519 0.0
C1052 C 0.23852 0.19851 0.92018 0.0
C1053 C 0.22369 0.19633 0.93226 0.0
C1054 C 0.22705 0.20484 0.9491 0.0
C1055 C 0.24527 0.21577 0.95366 0.0
C1056 C 0.25989 0.21838 0.94199 0.0
C1057 C 0.27802 0.23113 0.95009 0.0
C1058 C 0.29537 0.2205 0.95156 0.0
C1059 C 0.28287 0.24954 0.93963 0.0
C1060 C 0.27135 0.23511 0.96812 0.0
C1061 C 0.25249 0.22597 0.97002 0.0
C1062 C 0.24364 0.22663 0.98593 0.0
C1063 C 0.25438 0.23686 1.00026 0.0
C1064 C 0.27361 0.2466 0.99849 0.0
C1065 C 0.28207 0.24575 0.98213 0.0
H1066 H 0.82148 0.18931 0.89248 0.0
H1067 H 0.87251 0.22358 0.87216 0.0
H1068 H 0.87184 0.24845 0.895 0.0
H1069 H 0.79684 0.22724 0.90153 0.0
H1070 H 0.78689 0.217 0.92132 0.0
H1071 H 0.79217 0.20178 0.90403 0.0
H1072 H 0.81423 0.18625 0.9261 0.0
H1073 H 0.80892 0.20136 0.94349 0.0
H1074 H 0.83384 0.20111 0.93879 0.0
H1075 H 0.86447 0.26991 0.91974 0.0
H1076 H 0.85132 0.28597 0.94397 0.0
H1077 H 0.80531 0.23698 0.94772 0.0
C1078 C 0.83262 0.20199 0.89302 0.0
C1079 C 0.84712 0.20469 0.88083 0.0
C1080 C 0.86138 0.2214 0.8816 0.0
C1081 C 0.86108 0.23553 0.89448 0.0
C1082 C 0.84641 0.23255 0.90634 0.0
C1083 C 0.83248 0.21614 0.90571 0.0
C1084 C 0.81797 0.21648 0.91958 0.0
C1085 C 0.79725 0.21558 0.9111 0.0
C1086 C 0.8188 0.20034 0.93277 0.0
C1087 C 0.82573 0.23572 0.92804 0.0
C1088 C 0.84217 0.24479 0.92033 0.0
C1089 C 0.85168 0.26286 0.92592 0.0
C1090 C 0.84416 0.27184 0.93974 0.0
C1091 C 0.82726 0.26277 0.94776 0.0
C1092 C 0.81807 0.24444 0.94177 0.0
H1093 H 0.83799 0.80929 0.89477 0.0
H1094 H 0.89987 0.80817 0.89405 0.0
H1095 H 0.89922 0.79303 0.92302 0.0
H1096 H 0.83855 0.8203 0.94155 0.0
H1097 H 0.81527 0.80554 0.94446 0.0
H1098 H 0.82033 0.81621 0.92346 0.0
H1099 H 0.81203 0.78296 0.90835 0.0
H1100 H 0.80697 0.7722 0.92931 0.0
H1101 H 0.82461 0.7643 0.91608 0.0
H1102 H 0.89214 0.77761 0.95191 0.0
H1103 H 0.87917 0.76364 0.97922 0.0
H1104 H 0.82194 0.77501 0.96227 0.0
C1105 C 0.85144 0.80599 0.90074 0.0
C1106 C 0.86895 0.80979 0.89183 0.0
C1107 C 0.88615 0.80508 0.90024 0.0
C1108 C 0.88598 0.79657 0.91682 0.0
C1109 C 0.86852 0.79287 0.9251 0.0
C1110 C 0.85156 0.79747 0.91743 0.0
C1111 C 0.8348 0.79192 0.92931 0.0
C1112 C 0.82676 0.80955 0.93504 0.0
C1113 C 0.81865 0.77696 0.92022 0.0
C1114 C 0.84503 0.78349 0.94481 0.0
C1115 C 0.86448 0.78416 0.94202 0.0
C1116 C 0.87693 0.77702 0.95424 0.0
C1117 C 0.86938 0.76899 0.96971 0.0
C1118 C 0.84951 0.76813 0.97302 0.0
C1119 C 0.83723 0.77559 0.96031 0.0
H1120 H 0.1401 0.20839 0.22734 0.0
H1121 H 0.15588 0.16214 0.25841 0.0
H1122 H 0.13202 0.16726 0.2801 0.0
H1123 H 0.13381 0.2389 0.26371 0.0
H1124 H 0.1134 0.24744 0.25291 0.0
H1125 H 0.13159 0.24004 0.24003 0.0
H1126 H 0.10485 0.21623 0.22254 0.0
H1127 H 0.08657 0.22359 0.23533 0.0
H1128 H 0.08872 0.19883 0.23425 0.0
H1129 H 0.10611 0.17775 0.29834 0.0
H1130 H 0.08068 0.19212 0.31149 0.0
H1131 H 0.08154 0.2316 0.26824 0.0
C1132 C 0.13849 0.19935 0.23874 0.0
C1133 C 0.14976 0.18484 0.24127 0.0
C1134 C 0.14734 0.17329 0.25627 0.0
C1135 C 0.13384 0.17614 0.26863 0.0
C1136 C 0.1229 0.19062 0.26577 0.0
C1137 C 0.12511 0.20203 0.25116 0.0
C1138 C 0.1116 0.21656 0.25106 0.0
C1139 C 0.1233 0.23694 0.25199 0.0
C1140 C 0.09707 0.21362 0.23483 0.0
C1141 C 0.10137 0.2116 0.26789 0.0
C1142 C 0.1081 0.1966 0.27618 0.0
C1143 C 0.10074 0.18944 0.29188 0.0
C1144 C 0.08614 0.19769 0.29923 0.0
C1145 C 0.07884 0.21303 0.29097 0.0
C1146 C 0.08678 0.22006 0.27508 0.0
H1147 H 0.83784 0.17187 0.20134 0.0
H1148 H 0.89584 0.15855 0.19852 0.0
H1149 H 0.88469 0.12712 0.21134 0.0
H1150 H 0.82713 0.14924 0.24208 0.0
H1151 H 0.80189 0.14051 0.23552 0.0
H1152 H 0.81444 0.16192 0.22607 0.0
H1153 H 0.80528 0.14738 0.19476 0.0
H1154 H 0.79267 0.12592 0.20412 0.0
H1155 H 0.81166 0.12474 0.18939 0.0
H1156 H 0.86729 0.09731 0.22506 0.0
H1157 H 0.84468 0.07114 0.23798 0.0
H1158 H 0.79808 0.10381 0.23102 0.0
C1159 C 0.84816 0.16228 0.20319 0.0
C1160 C 0.86775 0.16774 0.19895 0.0
C1161 C 0.88083 0.15482 0.20189 0.0
C1162 C 0.87461 0.13689 0.20907 0.0
C1163 C 0.85524 0.13202 0.21316 0.0
C1164 C 0.84219 0.14431 0.21026 0.0
C1165 C 0.82218 0.13568 0.21588 0.0
C1166 C 0.81606 0.14755 0.23077 0.0
C1167 C 0.80706 0.13329 0.20009 0.0
C1168 C 0.82602 0.11662 0.22241 0.0
C1169 C 0.84518 0.11478 0.22079 0.0
C1170 C 0.85223 0.09856 0.22633 0.0
C1171 C 0.83933 0.08382 0.23372 0.0
C1172 C 0.81961 0.08538 0.23541 0.0
C1173 C 0.81296 0.10203 0.22962 0.0
H1174 H 0.91386 0.83508 0.19172 0.0
H1175 H 0.87845 0.85199 0.23188 0.0
H1176 H 0.90076 0.84218 0.25487 0.0
H1177 H 0.92398 0.79278 0.21404 0.0
H1178 H 0.94849 0.79534 0.20712 0.0
H1179 H 0.93012 0.8043 0.1936 0.0
H1180 H 0.9518 0.8377 0.19428 0.0
H1181 H 0.97023 0.82886 0.2078 0.0
H1182 H 0.96048 0.84906 0.21517 0.0
H1183 H 0.92698 0.83081 0.27378 0.0
H1184 H 0.95472 0.81769 0.28719 0.0
H1185 H 0.97259 0.80639 0.2352 0.0
C1186 C 0.91063 0.83661 0.20532 0.0
C1187 C 0.89433 0.84464 0.2098 0.0
C1188 C 0.89098 0.84644 0.2279 0.0
C1189 C 0.90352 0.84071 0.24114 0.0
C1190 C 0.91937 0.83295 0.23624 0.0
C1191 C 0.92292 0.83076 0.21878 0.0
C1192 C 0.94087 0.82167 0.21715 0.0
C1193 C 0.93554 0.80238 0.2074 0.0
C1194 C 0.95679 0.83513 0.20806 0.0
C1195 C 0.94686 0.81917 0.23643 0.0
C1196 C 0.93427 0.82588 0.24719 0.0
C1197 C 0.93691 0.82549 0.26548 0.0
C1198 C 0.95281 0.8181 0.27299 0.0
C1199 C 0.96593 0.81101 0.26231 0.0
C1200 C 0.96275 0.81151 0.24374 0.0
H1201 H 0.19283 0.87038 0.18369 0.0
H1202 H 0.23954 0.83928 0.19689 0.0
H1203 H 0.26207 0.86967 0.20368 0.0
H1204 H 0.22381 0.91234 0.16418 0.0
H1205 H 0.20968 0.92857 0.17299 0.0
H1206 H 0.19821 0.90459 0.16695 0.0
H1207 H 0.1861 0.89963 0.19837 0.0
H1208 H 0.19764 0.92346 0.20457 0.0
H1209 H 0.2035 0.90364 0.2171 0.0
H1210 H 0.27767 0.90297 0.2137 0.0
H1211 H 0.28598 0.93685 0.22327 0.0
H1212 H 0.22953 0.94607 0.20203 0.0
C1213 C 0.20795 0.87006 0.18756 0.0
C1214 C 0.21456 0.85262 0.18972 0.0
C1215 C 0.23434 0.85259 0.19496 0.0
C1216 C 0.24718 0.86975 0.19889 0.0
C1217 C 0.24003 0.88674 0.19718 0.0
C1218 C 0.22096 0.88703 0.19129 0.0
C1219 C 0.21653 0.907 0.19155 0.0
C1220 C 0.21178 0.91351 0.1728 0.0
C1221 C 0.19997 0.90851 0.20362 0.0
C1222 C 0.23584 0.91784 0.19915 0.0
C1223 C 0.24926 0.90596 0.2023 0.0
C1224 C 0.26746 0.91249 0.21087 0.0
C1225 C 0.27203 0.93166 0.21634 0.0
C1226 C 0.25852 0.94403 0.21307 0.0
C1227 C 0.24033 0.93702 0.20419 0.0
H1228 H 0.15038 0.81531 0.84914 0.0
H1229 H 0.15335 0.87336 0.8314 0.0
H1230 H 0.12649 0.86244 0.80894 0.0
H1231 H 0.13993 0.79244 0.80686 0.0
H1232 H 0.12351 0.77247 0.81496 0.0
H1233 H 0.14317 0.78496 0.82927 0.0
H1234 H 0.11856 0.79094 0.85188 0.0
H1235 H 0.09884 0.7784 0.83768 0.0
H1236 H 0.09843 0.80239 0.84487 0.0
H1237 H 0.09864 0.84467 0.78839 0.0
H1238 H 0.07224 0.82188 0.77247 0.0
H1239 H 0.08797 0.77621 0.80465 0.0
C1240 C 0.14529 0.8258 0.84067 0.0
C1241 C 0.15397 0.84519 0.84207 0.0
C1242 C 0.14707 0.85837 0.83046 0.0
C1243 C 0.13177 0.85232 0.81771 0.0
C1244 C 0.12355 0.83306 0.81672 0.0
C1245 C 0.13009 0.82004 0.82796 0.0
C1246 C 0.11878 0.80019 0.82446 0.0
C1247 C 0.13215 0.78673 0.81853 0.0
C1248 C 0.10801 0.79254 0.84069 0.0
C1249 C 0.10475 0.80404 0.80957 0.0
C1250 C 0.10769 0.82302 0.80516 0.0
C1251 C 0.09624 0.82977 0.79175 0.0
C1252 C 0.08131 0.81675 0.78276 0.0
C1253 C 0.078 0.79729 0.78733 0.0
C1254 C 0.09003 0.79099 0.80083 0.0
H1255 H 0.24357 0.14949 0.8479 0.0
H1256 H 0.2636 0.14459 0.90273 0.0
H1257 H 0.28194 0.12014 0.89411 0.0
H1258 H 0.23508 0.09885 0.83902 0.0
H1259 H 0.2423 0.10138 0.81671 0.0
H1260 H 0.23193 0.1198 0.82683 0.0
H1261 H 0.26223 0.1446 0.8201 0.0
H1262 H 0.27273 0.12626 0.81 0.0
H1263 H 0.28612 0.14066 0.82775 0.0
H1264 H 0.29898 0.09642 0.87952 0.0
H1265 H 0.31087 0.07339 0.86046 0.0
H1266 H 0.27643 0.09018 0.81586 0.0
C1267 C 0.25152 0.14326 0.85829 0.0
C1268 C 0.25205 0.14958 0.87614 0.0
C1269 C 0.26319 0.14085 0.88892 0.0
C1270 C 0.27359 0.12664 0.88418 0.0
C1271 C 0.27255 0.12081 0.8666 0.0
C1272 C 0.26158 0.12865 0.85388 0.0
C1273 C 0.26213 0.1191 0.83604 0.0
C1274 C 0.24164 0.10919 0.82925 0.0
C1275 C 0.27135 0.13352 0.82269 0.0
C1276 C 0.27518 0.10469 0.84072 0.0
C1277 C 0.28127 0.10617 0.85839 0.0
C1278 C 0.29411 0.09502 0.86572 0.0
C1279 C 0.30084 0.08201 0.85478 0.0
C1280 C 0.29444 0.07984 0.83674 0.0
C1281 C 0.28133 0.09131 0.82966 0.0
H1282 H 0.90405 0.21398 0.83782 0.0
H1283 H 0.92256 0.15993 0.8292 0.0
H1284 H 0.95593 0.17678 0.8253 0.0
H1285 H 0.931 0.23967 0.8067 0.0
H1286 H 0.93753 0.26146 0.81942 0.0
H1287 H 0.91549 0.24523 0.82332 0.0
H1288 H 0.92674 0.24343 0.85626 0.0
H1289 H 0.94873 0.25993 0.85254 0.0
H1290 H 0.95017 0.23717 0.86218 0.0
H1291 H 0.98598 0.19956 0.81842 0.0
H1292 H 1.01186 0.22683 0.8126 0.0
H1293 H 0.97441 0.26579 0.82767 0.0
C1294 C 0.91523 0.20564 0.83566 0.0
C1295 C 0.91064 0.18565 0.83364 0.0
C1296 C 0.92567 0.17529 0.83049 0.0
C1297 C 0.94469 0.18471 0.82834 0.0
C1298 C 0.94855 0.20447 0.82972 0.0
C1299 C 0.93437 0.2148 0.83368 0.0
C1300 C 0.94219 0.23596 0.83381 0.0
C1301 C 0.93088 0.24617 0.81999 0.0
C1302 C 0.94195 0.24463 0.8523 0.0
C1303 C 0.96279 0.23589 0.8288 0.0
C1304 C 0.96617 0.21759 0.82646 0.0
C1305 C 0.98367 0.21396 0.82056 0.0
C1306 C 0.9982 0.2295 0.81716 0.0
C1307 C 0.99514 0.24833 0.81985 0.0
C1308 C 0.97724 0.2515 0.82579 0.0
H1309 H 0.86528 0.89736 0.81688 0.0
H1310 H 0.80867 0.86297 0.82325 0.0
H1311 H 0.7931 0.88516 0.8046 0.0
H1312 H 0.85048 0.94239 0.81864 0.0
H1313 H 0.86613 0.95316 0.80215 0.0
H1314 H 0.87292 0.93414 0.81523 0.0
H1315 H 0.87573 0.91475 0.78695 0.0
H1316 H 0.86927 0.93386 0.77379 0.0
H1317 H 0.85539 0.91015 0.77082 0.0
H1318 H 0.78348 0.9127 0.78636 0.0
H1319 H 0.78131 0.94097 0.76793 0.0
H1320 H 0.84424 0.95686 0.77313 0.0
C1321 C 0.84966 0.89431 0.81398 0.0
C1322 C 0.83817 0.87827 0.82122 0.0
C1323 C 0.81774 0.87499 0.81754 0.0
C1324 C 0.80876 0.88762 0.80707 0.0
C1325 C 0.82041 0.90353 0.80032 0.0
C1326 C 0.84047 0.90675 0.80343 0.0
C1327 C 0.84966 0.92494 0.79473 0.0
C1328 C 0.86043 0.93951 0.80851 0.0
C1329 C 0.86332 0.92067 0.78074 0.0
C1330 C 0.83171 0.93149 0.78634 0.0
C1331 C 0.81493 0.91908 0.78979 0.0
C1332 C 0.79659 0.92244 0.78353 0.0
C1333 C 0.79544 0.93864 0.77318 0.0
C1334 C 0.81254 0.95123 0.76905 0.0
C1335 C 0.83083 0.94756 0.77597 0.0
H1336 H 0.22499 0.11913 0.19919 0.0
H1337 H 0.20438 0.13757 0.24795 0.0
H1338 H 0.2121 0.1087 0.2624 0.0
H1339 H 0.20962 0.06852 0.20379 0.0
H1340 H 0.23122 0.06283 0.19486 0.0
H1341 H 0.22229 0.08399 0.18798 0.0
H1342 H 0.25582 0.10453 0.19727 0.0
H1343 H 0.26489 0.08344 0.20404 0.0
H1344 H 0.26617 0.10297 0.2194 0.0
H1345 H 0.22349 0.07726 0.27195 0.0
H1346 H 0.23944 0.04887 0.27565 0.0
H1347 H 0.25453 0.05321 0.22129 0.0
C1348 C 0.22215 0.11736 0.21295 0.0
C1349 C 0.21393 0.13094 0.22225 0.0
C1350 C 0.21025 0.12742 0.24022 0.0
C1351 C 0.21472 0.11102 0.24865 0.0
C1352 C 0.22303 0.09814 0.23908 0.0
C1353 C 0.22681 0.10128 0.22163 0.0
C1354 C 0.2369 0.08604 0.21442 0.0
C1355 C 0.22425 0.07467 0.19937 0.0
C1356 C 0.25714 0.09477 0.20844 0.0
C1357 C 0.23845 0.07391 0.23056 0.0
C1358 C 0.23012 0.08083 0.24465 0.0
C1359 C 0.23002 0.07179 0.26095 0.0
C1360 C 0.23901 0.05559 0.26295 0.0
C1361 C 0.24826 0.0488 0.2488 0.0
C1362 C 0.24765 0.05805 0.2324 0.0
H1363 H 0.21747 0.90408 0.88069 0.0
H1364 H 0.22379 0.86969 0.83507 0.0
H1365 H 0.24867 0.89552 0.82467 0.0
H1366 H 0.21925 0.94646 0.85861 0.0
H1367 H 0.2327 0.96159 0.87587 0.0
H1368 H 0.21779 0.93944 0.88129 0.0
H1369 H 0.24756 0.9288 0.89772 0.0
H1370 H 0.26258 0.95102 0.89245 0.0
H1371 H 0.26946 0.92882 0.88641 0.0
H1372 H 0.26962 0.92594 0.81747 0.0
H1373 H 0.28562 0.95923 0.81387 0.0
H1374 H 0.26563 0.97445 0.8639 0.0
C1375 C 0.22459 0.90183 0.86882 0.0
C1376 C 0.21894 0.88491 0.85872 0.0
C1377 C 0.22804 0.88258 0.84297 0.0
C1378 C 0.24221 0.89712 0.83702 0.0
C1379 C 0.2471 0.91387 0.84701 0.0
C1380 C 0.23867 0.9163 0.86262 0.0
C1381 C 0.24517 0.93636 0.86993 0.0
C1382 C 0.22769 0.94656 0.8715 0.0
C1383 C 0.25689 0.93624 0.88768 0.0
C1384 C 0.25807 0.94497 0.85569 0.0
C1385 C 0.25915 0.93165 0.84272 0.0
C1386 C 0.2691 0.93645 0.82764 0.0
C1387 C 0.27799 0.9554 0.82564 0.0
C1388 C 0.27683 0.96938 0.8386 0.0
C1389 C 0.26702 0.96398 0.85395 0.0
H1390 H 0.1535 0.20557 0.87892 0.0
H1391 H 0.19599 0.22602 0.84123 0.0
H1392 H 0.17635 0.25004 0.83109 0.0
H1393 H 0.11191 0.20924 0.85183 0.0
H1394 H 0.09827 0.21715 0.86887 0.0
H1395 H 0.1165 0.20285 0.87439 0.0
H1396 H 0.13392 0.22869 0.89677 0.0
H1397 H 0.11564 0.24303 0.89139 0.0
H1398 H 0.14103 0.25279 0.88958 0.0
H1399 H 0.15042 0.26927 0.82281 0.0
H1400 H 0.12095 0.28389 0.81827 0.0
H1401 H 0.09554 0.25211 0.862 0.0
C1402 C 0.15883 0.21548 0.86886 0.0
C1403 C 0.17634 0.21425 0.86096 0.0
C1404 C 0.18274 0.22702 0.84756 0.0
C1405 C 0.17165 0.24064 0.8417 0.0
C1406 C 0.15425 0.24136 0.84949 0.0
C1407 C 0.14796 0.22929 0.86294 0.0
C1408 C 0.12828 0.23252 0.8685 0.0
C1409 C 0.11283 0.21436 0.86573 0.0
C1410 C 0.12982 0.23969 0.8877 0.0
C1411 C 0.12428 0.24795 0.85583 0.0
C1412 C 0.13946 0.25283 0.84498 0.0
C1413 C 0.1386 0.2658 0.83143 0.0
C1414 C 0.12179 0.27397 0.82888 0.0
C1415 C 0.1061 0.26932 0.83989 0.0
C1416 C 0.10751 0.25626 0.85365 0.0
H1417 H 0.88228 0.12304 0.80952 0.0
H1418 H 0.83092 0.14801 0.79686 0.0
H1419 H 0.81981 0.12314 0.77399 0.0
H1420 H 0.88964 0.10869 0.7644 0.0
H1421 H 0.8972 0.08684 0.77128 0.0
H1422 H 0.90181 0.10734 0.78583 0.0
H1423 H 0.88362 0.08751 0.8101 0.0
H1424 H 0.87905 0.06696 0.79569 0.0
H1425 H 0.85902 0.07521 0.80522 0.0
H1426 H 0.81338 0.09483 0.75394 0.0
H1427 H 0.81113 0.06379 0.73884 0.0
H1428 H 0.86682 0.05723 0.76405 0.0
C1429 C 0.86884 0.12343 0.80173 0.0
C1430 C 0.85745 0.13745 0.80491 0.0
C1431 C 0.83976 0.13729 0.79473 0.0
C1432 C 0.83345 0.12335 0.78162 0.0
C1433 C 0.84503 0.10974 0.77883 0.0
C1434 C 0.86232 0.10962 0.78862 0.0
C1435 C 0.87143 0.09274 0.7837 0.0
C1436 C 0.89119 0.0993 0.77583 0.0
C1437 C 0.87338 0.07985 0.79962 0.0
C1438 C 0.85632 0.08313 0.76987 0.0
C1439 C 0.84133 0.09333 0.76716 0.0
C1440 C 0.82511 0.08682 0.75581 0.0
C1441 C 0.82393 0.0692 0.74735 0.0
C1442 C 0.83885 0.05827 0.75029 0.0
C1443 C 0.85546 0.06555 0.76135 0.0
H1444 H 0.91922 0.81084 0.85409 0.0
H1445 H 0.88134 0.81948 0.80856 0.0
H1446 H 0.90405 0.80784 0.78918 0.0
H1447 H 0.96507 0.82366 0.83418 0.0
H1448 H 0.97584 0.80558 0.84549 0.0
H1449 H 0.95724 0.81574 0.85545 0.0
H1450 H 0.93678 0.78205 0.85835 0.0
H1451 H 0.95528 0.77178 0.84836 0.0
H1452 H 0.93053 0.76697 0.83905 0.0
H1453 H 0.93107 0.79405 0.77477 0.0
H1454 H 0.9592 0.77965 0.76697 0.0
H1455 H 0.97811 0.77866 0.82224 0.0
C1456 C 0.91548 0.8102 0.84005 0.0
C1457 C 0.89822 0.81602 0.83297 0.0
C1458 C 0.89444 0.81532 0.81442 0.0
C1459 C 0.90724 0.80859 0.80329 0.0
C1460 C 0.92383 0.80255 0.81083 0.0
C1461 C 0.92793 0.80333 0.82882 0.0
C1462 C 0.94634 0.79555 0.83382 0.0
C1463 C 0.96205 0.81106 0.84276 0.0
C1464 C 0.94196 0.77805 0.84559 0.0
C1465 C 0.95199 0.79009 0.81584 0.0
C1466 C 0.93894 0.79436 0.8027 0.0
C1467 C 0.94134 0.79071 0.78501 0.0
C1468 C 0.95743 0.78257 0.78068 0.0
C1469 C 0.97092 0.77795 0.79396 0.0
C1470 C 0.968 0.78177 0.81177 0.0
H1471 H 0.82021 0.91878 0.20631 0.0
H1472 H 0.87809 0.91481 0.22803 0.0
H1473 H 0.87735 0.94217 0.24816 0.0
H1474 H 0.82638 0.96946 0.20665 0.0
H1475 H 0.80196 0.97027 0.21256 0.0
H1476 H 0.80683 0.95006 0.20049 0.0
H1477 H 0.79184 0.92749 0.22453 0.0
H1478 H 0.78679 0.94762 0.23661 0.0
H1479 H 0.80098 0.93158 0.24715 0.0
H1480 H 0.87027 0.97054 0.26536 0.0
H1481 H 0.85748 0.99695 0.27878 0.0
H1482 H 0.80409 0.98244 0.2455 0.0
C1483 C 0.83263 0.9236 0.21547 0.0
C1484 C 0.84917 0.91474 0.21585 0.0
C1485 C 0.86526 0.92142 0.22775 0.0
C1486 C 0.86495 0.93694 0.23915 0.0
C1487 C 0.84844 0.94555 0.23838 0.0
C1488 C 0.83253 0.93904 0.22688 0.0
C1489 C 0.81668 0.95089 0.22844 0.0
C1490 C 0.81274 0.96075 0.211 0.0
C1491 C 0.79797 0.93867 0.23455 0.0
C1492 C 0.82614 0.96518 0.24256 0.0
C1493 C 0.84444 0.96185 0.24814 0.0
C1494 C 0.85595 0.97322 0.26109 0.0
C1495 C 0.84854 0.98824 0.26863 0.0
C1496 C 0.82977 0.99188 0.26321 0.0
C1497 C 0.81852 0.98015 0.24992 0.0
H1498 H 0.13382 0.79471 0.19428 0.0
H1499 H 0.173 0.82953 0.23301 0.0
H1500 H 0.14666 0.82701 0.25322 0.0
H1501 H 0.09044 0.81241 0.20307 0.0
H1502 H 0.0746 0.78959 0.20072 0.0
H1503 H 0.09638 0.79432 0.18882 0.0
H1504 H 0.10789 0.76473 0.20252 0.0
H1505 H 0.08608 0.75984 0.21438 0.0
H1506 H 0.10963 0.7625 0.22613 0.0
H1507 H 0.11648 0.82161 0.26901 0.0
H1508 H 0.08434 0.81164 0.28065 0.0
H1509 H 0.06452 0.77854 0.23284 0.0
C1510 C 0.13692 0.80167 0.20706 0.0
C1511 C 0.15546 0.81263 0.21186 0.0
C1512 C 0.15882 0.82154 0.22874 0.0
C1513 C 0.14398 0.82007 0.24041 0.0
C1514 C 0.12588 0.80943 0.23517 0.0
C1515 C 0.12228 0.80018 0.21902 0.0
C1516 C 0.10153 0.78929 0.21696 0.0
C1517 C 0.09007 0.79686 0.20147 0.0
C1518 C 0.10128 0.76782 0.21488 0.0
C1519 C 0.09409 0.79398 0.23446 0.0
C1520 C 0.10841 0.80573 0.24465 0.0
C1521 C 0.10514 0.81233 0.26121 0.0
C1522 C 0.08677 0.80661 0.26768 0.0
C1523 C 0.07189 0.79428 0.25768 0.0
C1524 C 0.07562 0.78793 0.2408 0.0
H1525 H 0.93369 0.20223 0.19892 0.0
H1526 H 0.90816 0.25332 0.19978 0.0
H1527 H 0.93717 0.26989 0.21739 0.0
H1528 H 0.94915 0.2044 0.24207 0.0
H1529 H 0.9713 0.19529 0.23955 0.0
H1530 H 0.95105 0.18899 0.22367 0.0
H1531 H 0.97291 0.20189 0.19856 0.0
H1532 H 0.99336 0.20813 0.2144 0.0
H1533 H 0.98624 0.22594 0.19992 0.0
H1534 H 0.96636 0.27907 0.23905 0.0
H1535 H 0.99253 0.2798 0.26263 0.0
H1536 H 0.99786 0.22213 0.24842 0.0
C1537 C 0.93439 0.21706 0.20243 0.0
C1538 C 0.91865 0.22647 0.19793 0.0
C1539 C 0.92016 0.24588 0.2028 0.0
C1540 C 0.93657 0.25539 0.21288 0.0
C1541 C 0.95141 0.24535 0.21785 0.0
C1542 C 0.95051 0.22663 0.21261 0.0
C1543 C 0.96698 0.21819 0.2214 0.0
C1544 C 0.95914 0.2007 0.23232 0.0
C1545 C 0.98069 0.21325 0.20776 0.0
C1546 C 0.97679 0.23477 0.23305 0.0
C1547 C 0.96792 0.25047 0.23056 0.0
C1548 C 0.97363 0.26697 0.24086 0.0
C1549 C 0.98851 0.26726 0.25423 0.0
C1550 C 0.99726 0.25104 0.25735 0.0
C1551 C 0.99156 0.23481 0.24631 0.0
H1552 H 0.2301 0.66217 0.62634 0.0
H1553 H 0.21488 0.7101 0.65414 0.0
H1554 H 0.22193 0.73012 0.62807 0.0
H1555 H 0.27068 0.68828 0.60676 0.0
H1556 H 0.26669 0.67453 0.58653 0.0
H1557 H 0.25849 0.66382 0.6067 0.0
H1558 H 0.22349 0.65484 0.59219 0.0
H1559 H 0.23157 0.66566 0.57199 0.0
H1560 H 0.21169 0.67314 0.58246 0.0
H1561 H 0.23317 0.74569 0.59873 0.0
H1562 H 0.24841 0.75479 0.57061 0.0
H1563 H 0.25675 0.69663 0.56318 0.0
C1564 C 0.22822 0.67687 0.62707 0.0
C1565 C 0.2219 0.68443 0.64249 0.0
C1566 C 0.21941 0.70375 0.64251 0.0
C1567 C 0.22348 0.71531 0.62773 0.0
C1568 C 0.22999 0.70742 0.61288 0.0
C1569 C 0.23231 0.68859 0.61252 0.0
C1570 C 0.24051 0.68363 0.59549 0.0
C1571 C 0.26026 0.67719 0.59909 0.0
C1572 C 0.22594 0.66842 0.58491 0.0
C1573 C 0.24283 0.70265 0.5864 0.0
C1574 C 0.2365 0.71624 0.59643 0.0
C1575 C 0.23799 0.73505 0.59076 0.0
C1576 C 0.24655 0.74011 0.5747 0.0
C1577 C 0.25372 0.72646 0.56459 0.0
C1578 C 0.25137 0.70745 0.5705 0.0
H1579 H 0.85275 0.7064 0.58831 0.0
H1580 H 0.84278 0.7521 0.62211 0.0
H1581 H 0.84114 0.77279 0.59618 0.0
H1582 H 0.88069 0.73744 0.55435 0.0
H1583 H 0.86911 0.72172 0.5367 0.0
H1584 H 0.87401 0.7123 0.55813 0.0
H1585 H 0.83755 0.6971 0.55907 0.0
H1586 H 0.83259 0.70642 0.53775 0.0
H1587 H 0.81929 0.71197 0.55605 0.0
H1588 H 0.83424 0.78585 0.56649 0.0
H1589 H 0.82196 0.78993 0.53591 0.0
H1590 H 0.83718 0.73588 0.52129 0.0
C1591 C 0.85105 0.72104 0.59022 0.0
C1592 C 0.84824 0.72795 0.60702 0.0
C1593 C 0.84531 0.74684 0.60924 0.0
C1594 C 0.84442 0.75864 0.59461 0.0
C1595 C 0.84668 0.75129 0.57799 0.0
C1596 C 0.85014 0.73295 0.57576 0.0
C1597 C 0.84939 0.72751 0.55646 0.0
C1598 C 0.8695 0.72457 0.5511 0.0
C1599 C 0.83377 0.70972 0.55209 0.0
C1600 C 0.84378 0.74516 0.54819 0.0
C1601 C 0.84272 0.7589 0.56077 0.0
C1602 C 0.83553 0.77543 0.55647 0.0
C1603 C 0.82857 0.77763 0.53903 0.0
C1604 C 0.8287 0.76328 0.52615 0.0
C1605 C 0.83721 0.74729 0.53071 0.0
H1606 H 0.89427 0.3354 0.66292 0.0
H1607 H 0.84032 0.32704 0.68949 0.0
H1608 H 0.82474 0.30448 0.66606 0.0
H1609 H 0.87222 0.33403 0.61896 0.0
H1610 H 0.8894 0.32144 0.60952 0.0
H1611 H 0.89673 0.33645 0.62871 0.0
H1612 H 0.90737 0.30811 0.64542 0.0
H1613 H 0.90004 0.29299 0.62628 0.0
H1614 H 0.89015 0.28631 0.64712 0.0
H1615 H 0.81461 0.2833 0.6397 0.0
H1616 H 0.81022 0.26541 0.61159 0.0
H1617 H 0.87035 0.28716 0.60115 0.0
C1618 C 0.87923 0.32868 0.66388 0.0
C1619 C 0.86851 0.33314 0.6781 0.0
C1620 C 0.84879 0.32414 0.67869 0.0
C1621 C 0.83983 0.31117 0.66547 0.0
C1622 C 0.85071 0.30723 0.65162 0.0
C1623 C 0.86997 0.3157 0.65066 0.0
C1624 C 0.87807 0.30929 0.63397 0.0
C1625 C 0.88448 0.32632 0.62209 0.0
C1626 C 0.89491 0.29854 0.63847 0.0
C1627 C 0.86032 0.29601 0.62568 0.0
C1628 C 0.84477 0.29501 0.6362 0.0
C1629 C 0.82669 0.28401 0.63135 0.0
C1630 C 0.8243 0.27396 0.61526 0.0
C1631 C 0.83985 0.27491 0.60398 0.0
C1632 C 0.85821 0.28596 0.60947 0.0
H1633 H 0.19842 0.32979 0.60324 0.0
H1634 H 0.24046 0.35196 0.64577 0.0
H1635 H 0.2666 0.3572 0.6247 0.0
H1636 H 0.2283 0.30396 0.58182 0.0
H1637 H 0.21934 0.3086 0.55984 0.0
H1638 H 0.2039 0.30866 0.57787 0.0
H1639 H 0.19883 0.34282 0.57007 0.0
H1640 H 0.21424 0.34285 0.55195 0.0
H1641 H 0.21973 0.36142 0.56856 0.0
H1642 H 0.28836 0.35729 0.5992 0.0
H1643 H 0.30393 0.35258 0.57161 0.0
H1644 H 0.24726 0.33 0.5461 0.0
C1645 C 0.21309 0.33614 0.60797 0.0
C1646 C 0.21761 0.34073 0.62592 0.0
C1647 C 0.23687 0.34861 0.63192 0.0
C1648 C 0.25173 0.3516 0.62007 0.0
C1649 C 0.2469 0.34666 0.60237 0.0
C1650 C 0.228 0.33919 0.59634 0.0
C1651 C 0.22675 0.33394 0.57697 0.0
C1652 C 0.21913 0.31252 0.57396 0.0
C1653 C 0.21414 0.34598 0.56626 0.0
C1654 C 0.24795 0.33922 0.57306 0.0
C1655 C 0.25935 0.34666 0.58781 0.0
C1656 C 0.27953 0.35165 0.58754 0.0
C1657 C 0.28826 0.34881 0.57184 0.0
C1658 C 0.27684 0.34098 0.55663 0.0
C1659 C 0.2564 0.33638 0.55732 0.0
H1660 H 0.2599 0.32714 0.42827 0.0
H1661 H 0.23442 0.37102 0.45261 0.0
H1662 H 0.26287 0.37778 0.47433 0.0
H1663 H 0.27988 0.3089 0.46775 0.0
H1664 H 0.30149 0.30479 0.45764 0.0
H1665 H 0.27917 0.30413 0.4444 0.0
H1666 H 0.29785 0.32954 0.4243 0.0
H1667 H 0.31983 0.33036 0.4382 0.0
H1668 H 0.31031 0.35187 0.43388 0.0
H1669 H 0.29396 0.37943 0.49342 0.0
H1670 H 0.32518 0.37533 0.509 0.0
H1671 H 0.32991 0.3299 0.47254 0.0
C1672 C 0.26046 0.33822 0.43816 0.0
C1673 C 0.24522 0.34865 0.43894 0.0
C1674 C 0.24615 0.363 0.45194 0.0
C1675 C 0.2622 0.3669 0.46426 0.0
C1676 C 0.27707 0.3563 0.46326 0.0
C1677 C 0.27635 0.34227 0.45053 0.0
C1678 C 0.29409 0.33278 0.45245 0.0
C1679 C 0.28828 0.31138 0.45579 0.0
C1680 C 0.30623 0.33636 0.43625 0.0
C1681 C 0.30465 0.34328 0.46855 0.0
C1682 C 0.29474 0.357 0.47443 0.0
C1683 C 0.30181 0.36872 0.48896 0.0
C1684 C 0.31945 0.36629 0.49774 0.0
C1685 C 0.32949 0.35205 0.49211 0.0
C1686 C 0.32212 0.34053 0.4773 0.0
H1687 H 0.22421 0.69714 0.39094 0.0
H1688 H 0.21013 0.63673 0.40134 0.0
H1689 H 0.22455 0.64257 0.43165 0.0
H1690 H 0.26987 0.70608 0.41518 0.0
H1691 H 0.2673 0.72894 0.42391 0.0
H1692 H 0.25482 0.72042 0.40323 0.0
H1693 H 0.22195 0.72462 0.41523 0.0
H1694 H 0.23443 0.73325 0.43592 0.0
H1695 H 0.21458 0.7133 0.43545 0.0
H1696 H 0.24302 0.65417 0.45981 0.0
H1697 H 0.26217 0.6714 0.48516 0.0
H1698 H 0.26339 0.7247 0.45789 0.0
C1699 C 0.22379 0.68522 0.39972 0.0
C1700 C 0.21612 0.66641 0.39363 0.0
C1701 C 0.21613 0.6512 0.40554 0.0
C1702 C 0.22424 0.65438 0.42284 0.0
C1703 C 0.23218 0.67292 0.42826 0.0
C1704 C 0.23181 0.68816 0.41719 0.0
C1705 C 0.24181 0.70661 0.42639 0.0
C1706 C 0.2595 0.71606 0.41658 0.0
C1707 C 0.22732 0.72025 0.42836 0.0
C1708 C 0.2481 0.69926 0.44418 0.0
C1709 C 0.24241 0.67975 0.44489 0.0
C1710 C 0.24735 0.66947 0.4595 0.0
C1711 C 0.25833 0.67935 0.4738 0.0
C1712 C 0.26417 0.69936 0.47356 0.0
C1713 C 0.25884 0.70944 0.45855 0.0
H1714 H 0.82286 0.70503 0.36055 0.0
H1715 H 0.79732 0.74915 0.33411 0.0
H1716 H 0.78268 0.75627 0.36167 0.0
H1717 H 0.7824 0.68879 0.389 0.0
H1718 H 0.79859 0.68477 0.40742 0.0
H1719 H 0.80553 0.6821 0.38526 0.0
H1720 H 0.83736 0.70632 0.39234 0.0
H1721 H 0.83049 0.70913 0.41446 0.0
H1722 H 0.83597 0.72965 0.40076 0.0
H1723 H 0.77338 0.76034 0.39252 0.0
H1724 H 0.76904 0.76053 0.42447 0.0
H1725 H 0.8004 0.7135 0.4309 0.0
C1726 C 0.81385 0.71592 0.36059 0.0
C1727 C 0.81093 0.7265 0.3454 0.0
C1728 C 0.79944 0.74086 0.34573 0.0
C1729 C 0.79112 0.74497 0.36127 0.0
C1730 C 0.79445 0.73448 0.37622 0.0
C1731 C 0.80542 0.72015 0.37599 0.0
C1732 C 0.80758 0.71168 0.39406 0.0
C1733 C 0.79794 0.69058 0.39392 0.0
C1734 C 0.82913 0.71437 0.4008 0.0
C1735 C 0.79645 0.72373 0.40456 0.0
C1736 C 0.78894 0.73674 0.39401 0.0
C1737 C 0.779 0.75008 0.40088 0.0
C1738 C 0.77673 0.75017 0.41904 0.0
C1739 C 0.78433 0.737 0.43011 0.0
C1740 C 0.79414 0.7235 0.42269 0.0
H1741 H 0.85483 0.294 0.42329 0.0
H1742 H 0.85571 0.35355 0.43564 0.0
H1743 H 0.84192 0.34472 0.46403 0.0
H1744 H 0.81025 0.27515 0.44333 0.0
H1745 H 0.81877 0.25449 0.45212 0.0
H1746 H 0.82845 0.26525 0.43243 0.0
H1747 H 0.86352 0.2691 0.44693 0.0
H1748 H 0.8539 0.25808 0.46652 0.0
H1749 H 0.86915 0.28127 0.46792 0.0
H1750 H 0.82633 0.32928 0.49103 0.0
H1751 H 0.81514 0.30861 0.51595 0.0
H1752 H 0.82625 0.25962 0.48706 0.0
C1753 C 0.85237 0.3052 0.43204 0.0
C1754 C 0.8561 0.3245 0.4269 0.0
C1755 C 0.85259 0.33863 0.43892 0.0
C1756 C 0.84474 0.33377 0.45518 0.0
C1757 C 0.84061 0.31466 0.45957 0.0
C1758 C 0.84464 0.3006 0.44851 0.0
C1759 C 0.83944 0.28117 0.45675 0.0
C1760 C 0.82327 0.26826 0.44548 0.0
C1761 C 0.85758 0.27186 0.45971 0.0
C1762 C 0.83204 0.28657 0.47411 0.0
C1763 C 0.83248 0.30591 0.4754 0.0
C1764 C 0.82603 0.31411 0.49019 0.0
C1765 C 0.81953 0.30228 0.50423 0.0
C1766 C 0.81985 0.28257 0.50348 0.0
C1767 C 0.82592 0.27469 0.48806 0.0
H1768 H 0.13728 0.66356 0.70803 0.0
H1769 H 0.17588 0.71489 0.69409 0.0
H1770 H 0.1521 0.73427 0.70378 0.0
H1771 H 0.09121 0.6795 0.69494 0.0
H1772 H 0.07882 0.66782 0.71304 0.0
H1773 H 0.09825 0.6582 0.70388 0.0
H1774 H 0.11621 0.65949 0.7348 0.0
H1775 H 0.09692 0.66926 0.74402 0.0
H1776 H 0.1217 0.68175 0.74691 0.0
H1777 H 0.12468 0.74799 0.71684 0.0
H1778 H 0.09613 0.75503 0.73119 0.0
H1779 H 0.07498 0.69447 0.73625 0.0
C1780 C 0.14049 0.67887 0.7067 0.0
C1781 C 0.15822 0.6878 0.70008 0.0
C1782 C 0.16222 0.70783 0.69889 0.0
C1783 C 0.14883 0.71891 0.70442 0.0
C1784 C 0.13151 0.7097 0.71113 0.0
C1785 C 0.12727 0.6901 0.71217 0.0
C1786 C 0.10799 0.68371 0.72041 0.0
C1787 C 0.09319 0.67159 0.70729 0.0
C1788 C 0.11089 0.67292 0.73755 0.0
C1789 C 0.10211 0.70275 0.72409 0.0
C1790 C 0.11583 0.71756 0.71859 0.0
C1791 C 0.11377 0.73645 0.721 0.0
C1792 C 0.09733 0.74031 0.72915 0.0
C1793 C 0.08293 0.72539 0.7349 0.0
C1794 C 0.08554 0.70633 0.73221 0.0
H1795 H 0.8375 0.64766 0.67261 0.0
H1796 H 0.85299 0.69036 0.71427 0.0
H1797 H 0.84003 0.66668 0.73602 0.0
H1798 H 0.79225 0.62414 0.68987 0.0
H1799 H 0.79554 0.60069 0.68333 0.0
H1800 H 0.8057 0.62107 0.67092 0.0
H1801 H 0.83989 0.61187 0.67535 0.0
H1802 H 0.82985 0.59146 0.68776 0.0
H1803 H 0.84983 0.60865 0.69734 0.0
H1804 H 0.826 0.63844 0.75328 0.0
H1805 H 0.81213 0.60725 0.76509 0.0
H1806 H 0.80555 0.58271 0.71234 0.0
C1807 C 0.83797 0.65208 0.68628 0.0
C1808 C 0.84631 0.67087 0.69174 0.0
C1809 C 0.8469 0.676 0.70981 0.0
C1810 C 0.83946 0.66269 0.72224 0.0
C1811 C 0.83142 0.6443 0.71642 0.0
C1812 C 0.83061 0.63896 0.69888 0.0
C1813 C 0.8216 0.61814 0.6962 0.0
C1814 C 0.80265 0.61588 0.68438 0.0
C1815 C 0.83617 0.60687 0.68872 0.0
C1816 C 0.81756 0.61261 0.71499 0.0
C1817 C 0.82331 0.62794 0.72641 0.0
C1818 C 0.82144 0.62632 0.74447 0.0
C1819 C 0.81365 0.60851 0.75107 0.0
C1820 C 0.80782 0.5925 0.73966 0.0
C1821 C 0.80966 0.5947 0.72136 0.0
H1822 H 0.91504 0.3581 0.74981 0.0
H1823 H 0.93712 0.35544 0.69801 0.0
H1824 H 0.96811 0.34864 0.71154 0.0
H1825 H 0.96212 0.37998 0.77296 0.0
H1826 H 0.95725 0.36629 0.79253 0.0
H1827 H 0.93739 0.37264 0.77893 0.0
H1828 H 0.92138 0.3371 0.776 0.0
H1829 H 0.9412 0.33063 0.78948 0.0
H1830 H 0.9351 0.32014 0.76783 0.0
H1831 H 0.99542 0.33919 0.73024 0.0
H1832 H 0.01785 0.32889 0.7531 0.0
H1833 H 0.97894 0.33823 0.79313 0.0
C1834 C 0.92658 0.35656 0.74136 0.0
C1835 C 0.92361 0.35731 0.72281 0.0
C1836 C 0.93897 0.3548 0.71221 0.0
C1837 C 0.95667 0.351 0.71979 0.0
C1838 C 0.95896 0.34987 0.73805 0.0
C1839 C 0.94443 0.35273 0.74875 0.0
C1840 C 0.95035 0.34976 0.76796 0.0
C1841 C 0.95187 0.36827 0.77873 0.0
C1842 C 0.93616 0.33344 0.77577 0.0
C1843 C 0.97028 0.34441 0.76632 0.0
C1844 C 0.97494 0.34464 0.74893 0.0
C1845 C 0.99203 0.33919 0.74392 0.0
C1846 C 1.00464 0.33327 0.75697 0.0
C1847 C 1.00023 0.33287 0.77489 0.0
C1848 C 0.98289 0.33875 0.7796 0.0
H1849 H 0.21027 0.39202 0.67636 0.0
H1850 H 0.20257 0.36077 0.725 0.0
H1851 H 0.22034 0.38864 0.74175 0.0
H1852 H 0.25985 0.4158 0.68897 0.0
H1853 H 0.25686 0.43755 0.67807 0.0
H1854 H 0.24311 0.41516 0.66988 0.0
H1855 H 0.21114 0.42839 0.67233 0.0
H1856 H 0.22478 0.45071 0.68082 0.0
H1857 H 0.20579 0.43763 0.6932 0.0
H1858 H 0.23756 0.42017 0.75356 0.0
H1859 H 0.25757 0.452 0.75919 0.0
H1860 H 0.25617 0.46227 0.70298 0.0
C1861 C 0.21253 0.39095 0.69049 0.0
C1862 C 0.20458 0.3743 0.69936 0.0
C1863 C 0.20796 0.37353 0.71791 0.0
C1864 C 0.21811 0.38928 0.72758 0.0
C1865 C 0.22516 0.40565 0.71854 0.0
C1866 C 0.22291 0.40651 0.70039 0.0
C1867 C 0.23266 0.42567 0.69394 0.0
C1868 C 0.2491 0.4234 0.68201 0.0
C1869 C 0.2177 0.43622 0.68451 0.0
C1870 C 0.24064 0.43537 0.7113 0.0
C1871 C 0.2359 0.42365 0.72533 0.0
C1872 C 0.24147 0.42948 0.74268 0.0
C1873 C 0.25269 0.44763 0.74577 0.0
C1874 C 0.2584 0.45958 0.73153 0.0
C1875 C 0.25202 0.45342 0.71412 0.0
H1876 H 0.15248 0.3397 0.38354 0.0
H1877 H 0.18377 0.34955 0.33596 0.0
H1878 H 0.1534 0.33724 0.31811 0.0
H1879 H 0.12538 0.29531 0.36981 0.0
H1880 H 0.1038 0.29849 0.38041 0.0
H1881 H 0.12734 0.31038 0.38914 0.0
H1882 H 0.11565 0.34283 0.38688 0.0
H1883 H 0.09206 0.33102 0.37805 0.0
H1884 H 0.10577 0.34997 0.36603 0.0
H1885 H 0.11971 0.32174 0.3055 0.0
H1886 H 0.08668 0.30272 0.29961 0.0
H1887 H 0.07859 0.30144 0.35567 0.0
C1888 C 0.15306 0.33931 0.36937 0.0
C1889 C 0.17065 0.3457 0.36123 0.0
C1890 C 0.1705 0.34512 0.34258 0.0
C1891 C 0.1533 0.33806 0.3323 0.0
C1892 C 0.13635 0.33159 0.34083 0.0
C1893 C 0.13617 0.3321 0.35896 0.0
C1894 C 0.11655 0.32296 0.36507 0.0
C1895 C 0.11839 0.30577 0.37679 0.0
C1896 C 0.10694 0.33757 0.37456 0.0
C1897 C 0.10579 0.31683 0.34756 0.0
C1898 C 0.11729 0.32221 0.33368 0.0
C1899 C 0.11056 0.31757 0.31628 0.0
C1900 C 0.09176 0.30683 0.31305 0.0
C1901 C 0.08007 0.30062 0.32718 0.0
C1902 C 0.08715 0.30601 0.34458 0.0
H1903 H 0.24613 0.63094 0.35216 0.0
H1904 H 0.18954 0.61687 0.32378 0.0
H1905 H 0.20046 0.59031 0.30863 0.0
H1906 H 0.27448 0.62079 0.31704 0.0
H1907 H 0.29169 0.61087 0.33115 0.0
H1908 H 0.27929 0.62868 0.33967 0.0
H1909 H 0.26663 0.60596 0.36452 0.0
H1910 H 0.27903 0.5881 0.35608 0.0
H1911 H 0.25324 0.58254 0.35887 0.0
H1912 H 0.21817 0.56484 0.29629 0.0
H1913 H 0.24087 0.5435 0.28833 0.0
H1914 H 0.2851 0.57433 0.32544 0.0
C1915 C 0.2359 0.62218 0.34293 0.0
C1916 C 0.21693 0.62613 0.33922 0.0
C1917 C 0.20423 0.6144 0.32673 0.0
C1918 C 0.21027 0.59916 0.31812 0.0
C1919 C 0.22908 0.59571 0.32208 0.0
C1920 C 0.24167 0.60692 0.33423 0.0
C1921 C 0.26115 0.6004 0.33614 0.0
C1922 C 0.27762 0.61612 0.33067 0.0
C1923 C 0.26525 0.59386 0.35502 0.0
C1924 C 0.25761 0.58379 0.32319 0.0
C1925 C 0.23906 0.58122 0.31515 0.0
C1926 C 0.23272 0.56675 0.30257 0.0
C1927 C 0.2457 0.55467 0.29811 0.0
C1928 C 0.26479 0.55713 0.30623 0.0
C1929 C 0.27063 0.57192 0.31895 0.0
H1930 H 0.89555 0.67825 0.30564 0.0
H1931 H 0.86731 0.70717 0.26437 0.0
H1932 H 0.89837 0.71475 0.24984 0.0
H1933 H 0.93644 0.71158 0.31071 0.0
H1934 H 0.95334 0.69557 0.3152 0.0
H1935 H 0.92828 0.68856 0.31995 0.0
H1936 H 0.92571 0.65832 0.30036 0.0
H1937 H 0.95089 0.6653 0.29553 0.0
H1938 H 0.93223 0.66061 0.27783 0.0
H1939 H 0.933 0.72367 0.24262 0.0
H1940 H 0.96849 0.73499 0.24428 0.0
H1941 H 0.9746 0.70071 0.29056 0.0
C1942 C 0.89581 0.6855 0.29317 0.0
C1943 C 0.87908 0.6919 0.28592 0.0
C1944 C 0.88 0.70203 0.26998 0.0
C1945 C 0.89753 0.70627 0.26161 0.0
C1946 C 0.91398 0.70027 0.26935 0.0
C1947 C 0.91326 0.69005 0.28478 0.0
C1948 C 0.93346 0.68776 0.29181 0.0
C1949 C 0.93815 0.69639 0.31051 0.0
C1950 C 0.9357 0.66675 0.29135 0.0
C1951 C 0.94573 0.69914 0.27847 0.0
C1952 C 0.93419 0.70579 0.26536 0.0
C1953 C 0.94219 0.71821 0.2526 0.0
C1954 C 0.96241 0.72458 0.25365 0.0
C1955 C 0.97438 0.71871 0.26753 0.0
C1956 C 0.96593 0.70523 0.27963 0.0
H1957 H 0.82154 0.38852 0.34621 0.0
H1958 H 0.88453 0.39775 0.34782 0.0
H1959 H 0.88446 0.42535 0.32803 0.0
H1960 H 0.8134 0.4024 0.30001 0.0
H1961 H 0.79319 0.4137 0.30486 0.0
H1962 H 0.79836 0.39384 0.3177 0.0
H1963 H 0.80031 0.41426 0.34618 0.0
H1964 H 0.79535 0.43423 0.33343 0.0
H1965 H 0.81695 0.43666 0.34809 0.0
H1966 H 0.87724 0.45343 0.30976 0.0
H1967 H 0.86396 0.47893 0.29419 0.0
H1968 H 0.80536 0.45108 0.30436 0.0
C1969 C 0.83527 0.3961 0.342 0.0
C1970 C 0.85305 0.3909 0.34819 0.0
C1971 C 0.87078 0.40137 0.34291 0.0
C1972 C 0.87084 0.41708 0.33175 0.0
C1973 C 0.85302 0.42209 0.32605 0.0
C1974 C 0.83555 0.41179 0.33092 0.0
C1975 C 0.81846 0.42059 0.32373 0.0
C1976 C 0.80507 0.40681 0.31081 0.0
C1977 C 0.80711 0.4268 0.33876 0.0
C1978 C 0.829 0.43765 0.31428 0.0
C1979 C 0.84891 0.43821 0.31569 0.0
C1980 C 0.86165 0.45295 0.30842 0.0
C1981 C 0.8539 0.46741 0.2995 0.0
C1982 C 0.8335 0.4672 0.29783 0.0
C1983 C 0.82099 0.45194 0.30537 0.0
H1984 H 0.22067 0.61213 0.69367 0.0
H1985 H 0.26823 0.65238 0.67385 0.0
H1986 H 0.29074 0.63034 0.68147 0.0
H1987 H 0.249 0.59734 0.73103 0.0
H1988 H 0.23674 0.57291 0.72964 0.0
H1989 H 0.22408 0.59161 0.72222 0.0
H1990 H 0.21639 0.57499 0.69166 0.0
H1991 H 0.22904 0.55625 0.69897 0.0
H1992 H 0.23605 0.56938 0.67953 0.0
H1993 H 0.3084 0.6038 0.69113 0.0
H1994 H 0.31984 0.5752 0.70264 0.0
H1995 H 0.26147 0.55235 0.71743 0.0
C1996 C 0.23583 0.61647 0.69104 0.0
C1997 C 0.24244 0.63414 0.6829 0.0
C1998 C 0.26248 0.63889 0.67961 0.0
C1999 C 0.27551 0.62648 0.68406 0.0
C2000 C 0.26849 0.60927 0.69198 0.0
C2001 C 0.24914 0.60428 0.69553 0.0
C2002 C 0.24543 0.58499 0.70435 0.0
C2003 C 0.23839 0.58683 0.72291 0.0
C2004 C 0.23087 0.57055 0.69294 0.0
C2005 C 0.26571 0.5799 0.70514 0.0
C2006 C 0.27876 0.59411 0.69787 0.0
C2007 C 0.29828 0.5926 0.69683 0.0
C2008 C 0.30464 0.57618 0.70333 0.0
C2009 C 0.29163 0.56136 0.71092 0.0
C2010 C 0.27187 0.56341 0.71186 0.0
H2011 H 0.21532 0.40575 0.35909 0.0
H2012 H 0.26046 0.37709 0.38235 0.0
H2013 H 0.28551 0.4035 0.37357 0.0
H2014 H 0.24124 0.42204 0.32107 0.0
H2015 H 0.23226 0.4442 0.32012 0.0
H2016 H 0.21782 0.4235 0.32912 0.0
H2017 H 0.21615 0.44231 0.35802 0.0
H2018 H 0.23068 0.46305 0.34915 0.0
H2019 H 0.23842 0.45359 0.36979 0.0
H2020 H 0.30581 0.43336 0.36242 0.0
H2021 H 0.31968 0.46308 0.34765 0.0
H2022 H 0.26148 0.47088 0.33003 0.0
C2023 C 0.23045 0.40484 0.36222 0.0
C2024 C 0.23578 0.38931 0.37164 0.0
C2025 C 0.25585 0.38898 0.37556 0.0
C2026 C 0.27025 0.40388 0.37052 0.0
C2027 C 0.26444 0.41896 0.36135 0.0
C2028 C 0.24503 0.41944 0.35706 0.0
C2029 C 0.24267 0.43692 0.34653 0.0
C2030 C 0.23293 0.43132 0.32812 0.0
C2031 C 0.23131 0.44972 0.35647 0.0
C2032 C 0.2638 0.44616 0.34554 0.0
C2033 C 0.27613 0.43572 0.35434 0.0
C2034 C 0.29629 0.44162 0.35544 0.0
C2035 C 0.30404 0.45853 0.34711 0.0
C2036 C 0.29165 0.46916 0.33765 0.0
C2037 C 0.27129 0.46289 0.33699 0.0
H2038 H 0.14256 0.69396 0.31324 0.0
H2039 H 0.15316 0.70591 0.36917 0.0
H2040 H 0.12461 0.72243 0.36851 0.0
H2041 H 0.12814 0.73834 0.30137 0.0
H2042 H 0.10978 0.72785 0.28481 0.0
H2043 H 0.13072 0.71687 0.28989 0.0
H2044 H 0.10811 0.68519 0.29644 0.0
H2045 H 0.0871 0.69605 0.29131 0.0
H2046 H 0.09 0.685 0.31232 0.0
H2047 H 0.09482 0.73796 0.36125 0.0
H2048 H 0.06665 0.75087 0.34854 0.0
H2049 H 0.07548 0.7283 0.2972 0.0
C2050 C 0.13878 0.70002 0.32535 0.0
C2051 C 0.14989 0.69869 0.34129 0.0
C2052 C 0.1447 0.70679 0.35688 0.0
C2053 C 0.12855 0.71619 0.35658 0.0
C2054 C 0.11784 0.71733 0.34057 0.0
C2055 C 0.12277 0.70943 0.32525 0.0
C2056 C 0.10903 0.71263 0.30975 0.0
C2057 C 0.12008 0.72464 0.29563 0.0
C2058 C 0.0979 0.69358 0.302 0.0
C2059 C 0.09555 0.7236 0.31868 0.0
C2060 C 0.10085 0.72617 0.33644 0.0
C2061 C 0.09054 0.73592 0.34737 0.0
C2062 C 0.07441 0.74314 0.33999 0.0
C2063 C 0.06859 0.74063 0.32179 0.0
C2064 C 0.07949 0.73071 0.31108 0.0
H2065 H 0.85233 0.63974 0.3233 0.0
H2066 H 0.79688 0.65788 0.31179 0.0
H2067 H 0.77976 0.6252 0.31634 0.0
H2068 H 0.84151 0.59878 0.29917 0.0
H2069 H 0.85437 0.5847 0.31371 0.0
H2070 H 0.86183 0.61006 0.31351 0.0
H2071 H 0.85786 0.61168 0.34711 0.0
H2072 H 0.85022 0.58622 0.34736 0.0
H2073 H 0.83491 0.60159 0.35572 0.0
H2074 H 0.7691 0.58995 0.31658 0.0
H2075 H 0.76609 0.55541 0.31147 0.0
H2076 H 0.82835 0.56 0.32303 0.0
C2077 C 0.83656 0.63693 0.32211 0.0
C2078 C 0.82597 0.65142 0.31728 0.0
C2079 C 0.80534 0.64713 0.31581 0.0
C2080 C 0.79546 0.62857 0.31837 0.0
C2081 C 0.80638 0.61448 0.3226 0.0
C2082 C 0.82649 0.61848 0.32459 0.0
C2083 C 0.83496 0.60049 0.32692 0.0
C2084 C 0.84897 0.59839 0.31246 0.0
C2085 C 0.84508 0.59997 0.34538 0.0
C2086 C 0.81656 0.58567 0.32487 0.0
C2087 C 0.80017 0.594 0.32281 0.0
C2088 C 0.78176 0.58323 0.31863 0.0
C2089 C 0.78018 0.56357 0.31578 0.0
C2090 C 0.79697 0.55494 0.31691 0.0
C2091 C 0.81518 0.56607 0.32234 0.0
H2092 H 0.91491 0.31523 0.39584 0.0
H2093 H 0.88067 0.32166 0.34733 0.0
H2094 H 0.90427 0.30852 0.3305 0.0
H2095 H 0.9621 0.32696 0.37841 0.0
H2096 H 0.97253 0.30942 0.3909 0.0
H2097 H 0.95303 0.31951 0.39939 0.0
H2098 H 0.93277 0.28575 0.40225 0.0
H2099 H 0.95224 0.27556 0.39382 0.0
H2100 H 0.92807 0.27006 0.38325 0.0
H2101 H 0.93203 0.2952 0.31849 0.0
H2102 H 0.96096 0.28133 0.31255 0.0
H2103 H 0.97708 0.28219 0.36857 0.0
C2104 C 0.91223 0.31374 0.3817 0.0
C2105 C 0.89586 0.3199 0.37303 0.0
C2106 C 0.8932 0.31766 0.35442 0.0
C2107 C 0.90652 0.31002 0.34467 0.0
C2108 C 0.92253 0.30439 0.35358 0.0
C2109 C 0.92539 0.30599 0.37169 0.0
C2110 C 0.94379 0.29865 0.37797 0.0
C2111 C 0.95875 0.31459 0.38721 0.0
C2112 C 0.93892 0.28149 0.39004 0.0
C2113 C 0.9508 0.29274 0.36056 0.0
C2114 C 0.93834 0.29627 0.34667 0.0
C2115 C 0.94186 0.29234 0.3293 0.0
C2116 C 0.95846 0.28455 0.32603 0.0
C2117 C 0.97145 0.28057 0.34001 0.0
C2118 C 0.96742 0.28479 0.35754 0.0
H2119 H 0.85378 0.43196 0.71564 0.0
H2120 H 0.87964 0.41188 0.76345 0.0
H2121 H 0.87377 0.4405 0.77964 0.0
H2122 H 0.87066 0.48371 0.72386 0.0
H2123 H 0.84812 0.48939 0.71443 0.0
H2124 H 0.85696 0.46887 0.70653 0.0
H2125 H 0.82427 0.44746 0.71303 0.0
H2126 H 0.81538 0.46785 0.72097 0.0
H2127 H 0.81572 0.44754 0.73489 0.0
H2128 H 0.86171 0.47062 0.79102 0.0
H2129 H 0.84412 0.49735 0.79619 0.0
H2130 H 0.82607 0.49653 0.74064 0.0
C2131 C 0.85876 0.43393 0.7294 0.0
C2132 C 0.86756 0.42004 0.73826 0.0
C2133 C 0.87326 0.42264 0.75639 0.0
C2134 C 0.86992 0.43883 0.76566 0.0
C2135 C 0.86083 0.45222 0.75658 0.0
C2136 C 0.85544 0.44988 0.73878 0.0
C2137 C 0.84443 0.46519 0.73222 0.0
C2138 C 0.85573 0.47752 0.71844 0.0
C2139 C 0.82373 0.45649 0.72485 0.0
C2140 C 0.84401 0.47636 0.74911 0.0
C2141 C 0.85373 0.46894 0.76305 0.0
C2142 C 0.85429 0.47661 0.78009 0.0
C2143 C 0.84435 0.49188 0.78293 0.0
C2144 C 0.83378 0.49915 0.76884 0.0
C2145 C 0.83408 0.49142 0.75172 0.0
H2146 H 0.1642 0.32567 0.72556 0.0
H2147 H 0.12712 0.31461 0.67741 0.0
H2148 H 0.09982 0.29973 0.69479 0.0
H2149 H 0.14281 0.28387 0.75034 0.0
H2150 H 0.14507 0.29742 0.77063 0.0
H2151 H 0.16235 0.30388 0.75412 0.0
H2152 H 0.15466 0.33811 0.75377 0.0
H2153 H 0.13741 0.33178 0.77023 0.0
H2154 H 0.12982 0.34146 0.74965 0.0
H2155 H 0.07571 0.28874 0.71815 0.0
H2156 H 0.05695 0.28483 0.74496 0.0
H2157 H 0.10977 0.30604 0.77709 0.0
C2158 C 0.1504 0.32004 0.71858 0.0
C2159 C 0.1478 0.32142 0.70011 0.0
C2160 C 0.12955 0.31354 0.69153 0.0
C2161 C 0.11395 0.3051 0.70131 0.0
C2162 C 0.1169 0.30462 0.7196 0.0
C2163 C 0.13472 0.31194 0.72809 0.0
C2164 C 0.13381 0.31171 0.74786 0.0
C2165 C 0.14678 0.29842 0.75622 0.0
C2166 C 0.13923 0.33196 0.75583 0.0
C2167 C 0.11251 0.30369 0.74924 0.0
C2168 C 0.10302 0.2992 0.73288 0.0
C2169 C 0.08305 0.29208 0.73101 0.0
C2170 C 0.07253 0.28987 0.74625 0.0
C2171 C 0.082 0.29523 0.76295 0.0
C2172 C 0.10223 0.30191 0.76443 0.0
H2173 H 0.8925 0.7282 0.70303 0.0
H2174 H 0.90997 0.72328 0.64976 0.0
H2175 H 0.94281 0.74091 0.65886 0.0
H2176 H 0.92411 0.77525 0.71502 0.0
H2177 H 0.92923 0.76746 0.73704 0.0
H2178 H 0.90609 0.75853 0.72548 0.0
H2179 H 0.91165 0.72391 0.73035 0.0
H2180 H 0.93464 0.73275 0.74195 0.0
H2181 H 0.93355 0.71701 0.72319 0.0
H2182 H 0.97522 0.75436 0.67492 0.0
H2183 H 1.00381 0.76044 0.69659 0.0
H2184 H 0.96507 0.75506 0.73915 0.0
C2185 C 0.90311 0.73113 0.69317 0.0
C2186 C 0.89863 0.72435 0.67568 0.0
C2187 C 0.91293 0.72856 0.66318 0.0
C2188 C 0.93165 0.73858 0.66824 0.0
C2189 C 0.93579 0.74443 0.68579 0.0
C2190 C 0.92181 0.7409 0.69803 0.0
C2191 C 0.9304 0.74625 0.71647 0.0
C2192 C 0.92195 0.76287 0.72394 0.0
C2193 C 0.92739 0.72895 0.72869 0.0
C2194 C 0.95158 0.75238 0.71287 0.0
C2195 C 0.95443 0.75181 0.69506 0.0
C2196 C 0.97311 0.75528 0.68884 0.0
C2197 C 0.98925 0.7588 0.70117 0.0
C2198 C 0.98643 0.75846 0.71938 0.0
C2199 C 0.96744 0.75576 0.72521 0.0
H2200 H 0.74988 0.16356 0.65282 0.0
H2201 H 0.69448 0.18318 0.65163 0.0
H2202 H 0.70408 0.20326 0.62611 0.0
H2203 H 0.77905 0.20717 0.64112 0.0
H2204 H 0.79429 0.19589 0.62777 0.0
H2205 H 0.78297 0.1834 0.64597 0.0
H2206 H 0.76701 0.15549 0.62504 0.0
H2207 H 0.7784 0.16784 0.6068 0.0
H2208 H 0.75235 0.16022 0.60579 0.0
H2209 H 0.72089 0.22207 0.59999 0.0
H2210 H 0.74209 0.23563 0.57636 0.0
H2211 H 0.78509 0.20206 0.59485 0.0
C2212 C 0.7395 0.17177 0.64711 0.0
C2213 C 0.72129 0.17154 0.65443 0.0
C2214 C 0.70859 0.18309 0.64657 0.0
C2215 C 0.7139 0.19454 0.63194 0.0
C2216 C 0.73199 0.19438 0.62514 0.0
C2217 C 0.74449 0.18313 0.63251 0.0
C2218 C 0.76304 0.18518 0.62287 0.0
C2219 C 0.78088 0.1934 0.63517 0.0
C2220 C 0.76532 0.16605 0.61463 0.0
C2221 C 0.75911 0.19928 0.60886 0.0
C2222 C 0.74123 0.20463 0.61032 0.0
C2223 C 0.73487 0.21783 0.59876 0.0
C2224 C 0.74701 0.22552 0.58537 0.0
C2225 C 0.76524 0.21988 0.58354 0.0
C2226 C 0.7712 0.20664 0.59562 0.0
H2227 H 0.33912 0.21929 0.61076 0.0
H2228 H 0.37804 0.25359 0.64969 0.0
H2229 H 0.38164 0.28083 0.62928 0.0
H2230 H 0.36377 0.23826 0.57207 0.0
H2231 H 0.34134 0.23751 0.55883 0.0
H2232 H 0.34274 0.22064 0.57619 0.0
H2233 H 0.31325 0.23109 0.59003 0.0
H2234 H 0.3118 0.248 0.57275 0.0
H2235 H 0.31419 0.25585 0.59545 0.0
H2236 H 0.37967 0.30457 0.60499 0.0
H2237 H 0.37252 0.32304 0.57876 0.0
H2238 H 0.33484 0.27289 0.5558 0.0
C2239 C 0.34855 0.23251 0.61483 0.0
C2240 C 0.35845 0.23453 0.63158 0.0
C2241 C 0.3705 0.25193 0.63675 0.0
C2242 C 0.3726 0.2674 0.62528 0.0
C2243 C 0.36253 0.26507 0.60878 0.0
C2244 C 0.35078 0.24804 0.60355 0.0
C2245 C 0.34107 0.24939 0.58537 0.0
C2246 C 0.34763 0.23563 0.57235 0.0
C2247 C 0.31876 0.24588 0.58595 0.0
C2248 C 0.349 0.26989 0.58125 0.0
C2249 C 0.3614 0.27869 0.59486 0.0
C2250 C 0.37008 0.29779 0.5942 0.0
C2251 C 0.36591 0.30817 0.57926 0.0
C2252 C 0.35316 0.29942 0.5652 0.0
C2253 C 0.34474 0.27999 0.56626 0.0
H2254 H 0.3606 0.81823 0.65936 0.0
H2255 H 0.36389 0.87457 0.63716 0.0
H2256 H 0.35354 0.8601 0.60793 0.0
H2257 H 0.37994 0.79741 0.62211 0.0
H2258 H 0.36437 0.7746 0.62386 0.0
H2259 H 0.37171 0.78935 0.64322 0.0
H2260 H 0.33552 0.78796 0.64957 0.0
H2261 H 0.32807 0.77324 0.63022 0.0
H2262 H 0.319 0.79513 0.63283 0.0
H2263 H 0.34188 0.83944 0.5809 0.0
H2264 H 0.33139 0.81419 0.55819 0.0
H2265 H 0.33735 0.77133 0.59734 0.0
C2266 C 0.35939 0.82761 0.64837 0.0
C2267 C 0.36293 0.84768 0.65085 0.0
C2268 C 0.36086 0.85922 0.63593 0.0
C2269 C 0.35512 0.85111 0.61914 0.0
C2270 C 0.35164 0.83136 0.61724 0.0
C2271 C 0.35385 0.81975 0.63142 0.0
C2272 C 0.34937 0.79891 0.62574 0.0
C2273 C 0.36742 0.78952 0.62892 0.0
C2274 C 0.33196 0.78818 0.63515 0.0
C2275 C 0.34423 0.80064 0.60618 0.0
C2276 C 0.34552 0.81949 0.60158 0.0
C2277 C 0.34093 0.82464 0.58436 0.0
C2278 C 0.3349 0.8102 0.57154 0.0
C2279 C 0.33365 0.79076 0.57587 0.0
C2280 C 0.33846 0.78603 0.59348 0.0
H2281 H 0.69194 0.7622 0.62048 0.0
H2282 H 0.74714 0.77113 0.65121 0.0
H2283 H 0.76396 0.76489 0.62455 0.0
H2284 H 0.70151 0.72416 0.59228 0.0
H2285 H 0.68918 0.7323 0.57305 0.0
H2286 H 0.6816 0.73677 0.59464 0.0
H2287 H 0.68648 0.7729 0.58841 0.0
H2288 H 0.69397 0.76854 0.56679 0.0
H2289 H 0.7097 0.78496 0.5817 0.0
H2290 H 0.77459 0.7587 0.59427 0.0
H2291 H 0.7785 0.75365 0.56266 0.0
H2292 H 0.71613 0.7489 0.55188 0.0
C2293 C 0.70756 0.7627 0.62153 0.0
C2294 C 0.7184 0.76701 0.63768 0.0
C2295 C 0.73874 0.76774 0.6388 0.0
C2296 C 0.74834 0.7642 0.62379 0.0
C2297 C 0.73725 0.75994 0.60792 0.0
C2298 C 0.7173 0.75919 0.6067 0.0
C2299 C 0.70881 0.75489 0.58804 0.0
C2300 C 0.69443 0.7359 0.58695 0.0
C2301 C 0.69918 0.7713 0.58082 0.0
C2302 C 0.72711 0.7535 0.57887 0.0
C2303 C 0.74334 0.75638 0.59056 0.0
C2304 C 0.76196 0.75636 0.58502 0.0
C2305 C 0.76405 0.75357 0.56704 0.0
C2306 C 0.74762 0.75086 0.5548 0.0
C2307 C 0.72892 0.7506 0.56092 0.0
H2308 H 0.68529 0.83731 0.43506 0.0
H2309 H 0.7222 0.87238 0.39987 0.0
H2310 H 0.75148 0.86376 0.41572 0.0
H2311 H 0.71841 0.84669 0.47518 0.0
H2312 H 0.71203 0.82258 0.48257 0.0
H2313 H 0.69442 0.83324 0.46965 0.0
H2314 H 0.69012 0.80536 0.44699 0.0
H2315 H 0.70769 0.79465 0.45981 0.0
H2316 H 0.7112 0.79983 0.43696 0.0
H2317 H 0.77633 0.84886 0.43396 0.0
H2318 H 0.79455 0.8288 0.45258 0.0
H2319 H 0.74092 0.8037 0.47572 0.0
C2320 C 0.69961 0.84345 0.43099 0.0
C2321 C 0.70174 0.85561 0.4165 0.0
C2322 C 0.72049 0.86317 0.41114 0.0
C2323 C 0.73712 0.85837 0.42007 0.0
C2324 C 0.73459 0.84608 0.43428 0.0
C2325 C 0.71628 0.8388 0.43974 0.0
C2326 C 0.71732 0.82491 0.45455 0.0
C2327 C 0.71012 0.8323 0.47149 0.0
C2328 C 0.70591 0.80502 0.44925 0.0
C2329 C 0.73902 0.82509 0.4563 0.0
C2330 C 0.7488 0.83752 0.44465 0.0
C2331 C 0.76884 0.83927 0.44329 0.0
C2332 C 0.77907 0.82782 0.45392 0.0
C2333 C 0.7692 0.81471 0.46566 0.0
C2334 C 0.74897 0.81366 0.46701 0.0
H2335 H 0.73511 0.16807 0.41162 0.0
H2336 H 0.74097 0.22521 0.39075 0.0
H2337 H 0.75643 0.23821 0.4192 0.0
H2338 H 0.72581 0.17998 0.45636 0.0
H2339 H 0.73997 0.16352 0.46621 0.0
H2340 H 0.72821 0.15869 0.44452 0.0
H2341 H 0.76136 0.15585 0.43233 0.0
H2342 H 0.77326 0.16082 0.45395 0.0
H2343 H 0.78159 0.1753 0.43565 0.0
H2344 H 0.77247 0.24516 0.44949 0.0
H2345 H 0.78667 0.24564 0.48 0.0
H2346 H 0.7721 0.18412 0.48137 0.0
C2347 C 0.7396 0.18334 0.41296 0.0
C2348 C 0.73658 0.19555 0.39874 0.0
C2349 C 0.74259 0.21546 0.40136 0.0
C2350 C 0.75163 0.22302 0.41749 0.0
C2351 C 0.75472 0.21055 0.43099 0.0
C2352 C 0.74883 0.19114 0.42896 0.0
C2353 C 0.75428 0.18087 0.44551 0.0
C2354 C 0.73598 0.17014 0.45363 0.0
C2355 C 0.76847 0.16742 0.44162 0.0
C2356 C 0.76423 0.19756 0.45715 0.0
C2357 C 0.76425 0.21454 0.44847 0.0
C2358 C 0.77241 0.23196 0.45643 0.0
C2359 C 0.78041 0.23209 0.4738 0.0
C2360 C 0.78039 0.21494 0.48313 0.0
C2361 C 0.77242 0.19742 0.47454 0.0
H2362 H 0.33093 0.18607 0.42146 0.0
H2363 H 0.38193 0.21798 0.39902 0.0
H2364 H 0.37828 0.24661 0.41635 0.0
H2365 H 0.3032 0.22407 0.422 0.0
H2366 H 0.29286 0.21705 0.44258 0.0
H2367 H 0.29957 0.19945 0.4283 0.0
H2368 H 0.32158 0.18898 0.45375 0.0
H2369 H 0.31489 0.20651 0.46811 0.0
H2370 H 0.34021 0.20646 0.46487 0.0
H2371 H 0.36884 0.27153 0.43669 0.0
H2372 H 0.35467 0.29053 0.45805 0.0
H2373 H 0.31009 0.24162 0.467 0.0
C2374 C 0.34127 0.19914 0.42022 0.0
C2375 C 0.35668 0.20006 0.40905 0.0
C2376 C 0.37004 0.21721 0.40761 0.0
C2377 C 0.36805 0.23345 0.41737 0.0
C2378 C 0.35262 0.23214 0.42838 0.0
C2379 C 0.33947 0.21539 0.42982 0.0
C2380 C 0.32428 0.21752 0.44263 0.0
C2381 C 0.30377 0.21434 0.43331 0.0
C2382 C 0.32532 0.20407 0.45827 0.0
C2383 C 0.3309 0.23809 0.44826 0.0
C2384 C 0.34724 0.24633 0.43992 0.0
C2385 C 0.35605 0.2652 0.44328 0.0
C2386 C 0.34796 0.27585 0.4555 0.0
C2387 C 0.33123 0.26761 0.46422 0.0
C2388 C 0.32266 0.24848 0.46041 0.0
H2389 H 0.33468 0.78747 0.39855 0.0
H2390 H 0.32861 0.84675 0.40277 0.0
H2391 H 0.3142 0.84031 0.43151 0.0
H2392 H 0.29111 0.76675 0.42013 0.0
H2393 H 0.30291 0.74912 0.43106 0.0
H2394 H 0.31065 0.75812 0.4101 0.0
H2395 H 0.34603 0.76782 0.42365 0.0
H2396 H 0.33835 0.75878 0.44457 0.0
H2397 H 0.35063 0.78306 0.44295 0.0
H2398 H 0.30147 0.82694 0.46136 0.0
H2399 H 0.29443 0.80889 0.48886 0.0
H2400 H 0.31122 0.75957 0.46497 0.0
C2401 C 0.33047 0.79925 0.40544 0.0
C2402 C 0.33299 0.81772 0.39819 0.0
C2403 C 0.32672 0.83241 0.40775 0.0
C2404 C 0.31855 0.82889 0.42419 0.0
C2405 C 0.31665 0.81057 0.43103 0.0
C2406 C 0.32254 0.79604 0.42187 0.0
C2407 C 0.32021 0.77787 0.43233 0.0
C2408 C 0.30533 0.76204 0.42283 0.0
C2409 C 0.33998 0.77152 0.4361 0.0
C2410 C 0.31246 0.78444 0.449 0.0
C2411 C 0.31011 0.80323 0.44802 0.0
C2412 C 0.30326 0.81222 0.46215 0.0
C2413 C 0.29918 0.80186 0.47771 0.0
C2414 C 0.30232 0.78286 0.47909 0.0
C2415 C 0.30874 0.77411 0.46437 0.0
H2416 H 0.66981 0.20064 0.73307 0.0
H2417 H 0.64172 0.15331 0.69953 0.0
H2418 H 0.60939 0.15951 0.70709 0.0
H2419 H 0.63763 0.19282 0.76712 0.0
H2420 H 0.63755 0.21757 0.77184 0.0
H2421 H 0.65839 0.21061 0.76263 0.0
H2422 H 0.65568 0.23354 0.73671 0.0
H2423 H 0.6349 0.2407 0.74593 0.0
H2424 H 0.633 0.23166 0.72362 0.0
H2425 H 0.58034 0.16895 0.72046 0.0
H2426 H 0.55643 0.18205 0.73717 0.0
H2427 H 0.60286 0.22406 0.76174 0.0
C2428 C 0.6568 0.19194 0.72699 0.0
C2429 C 0.65814 0.17669 0.71546 0.0
C2430 C 0.64091 0.16524 0.70812 0.0
C2431 C 0.62252 0.16864 0.71241 0.0
C2432 C 0.62161 0.18359 0.72405 0.0
C2433 C 0.63828 0.19522 0.73109 0.0
C2434 C 0.63321 0.20986 0.7438 0.0
C2435 C 0.64223 0.20757 0.76245 0.0
C2436 C 0.63958 0.23014 0.73711 0.0
C2437 C 0.61113 0.20442 0.74307 0.0
C2438 C 0.60479 0.18921 0.73159 0.0
C2439 C 0.58515 0.18099 0.72932 0.0
C2440 C 0.57166 0.18845 0.73898 0.0
C2441 C 0.57771 0.20411 0.75076 0.0
C2442 C 0.59775 0.21227 0.75266 0.0
H2443 H 0.351 0.14909 0.6915 0.0
H2444 H 0.37125 0.18958 0.7342 0.0
H2445 H 0.3598 0.16498 0.75577 0.0
H2446 H 0.3075 0.12603 0.71069 0.0
H2447 H 0.30934 0.10271 0.70257 0.0
H2448 H 0.31928 0.12351 0.69062 0.0
H2449 H 0.35295 0.1129 0.69214 0.0
H2450 H 0.34312 0.09209 0.70413 0.0
H2451 H 0.3642 0.10824 0.71325 0.0
H2452 H 0.34555 0.13591 0.77263 0.0
H2453 H 0.32972 0.10482 0.78339 0.0
H2454 H 0.31959 0.08338 0.72952 0.0
C2455 C 0.35288 0.15283 0.70538 0.0
C2456 C 0.36198 0.17126 0.71118 0.0
C2457 C 0.36446 0.1755 0.72948 0.0
C2458 C 0.35795 0.16165 0.74181 0.0
C2459 C 0.34906 0.14361 0.73564 0.0
C2460 C 0.34656 0.13918 0.71785 0.0
C2461 C 0.33666 0.11874 0.71462 0.0
C2462 C 0.31703 0.11769 0.704 0.0
C2463 C 0.35003 0.10732 0.7055 0.0
C2464 C 0.33383 0.11239 0.73337 0.0
C2465 C 0.34109 0.1269 0.74531 0.0
C2466 C 0.33991 0.1244 0.76339 0.0
C2467 C 0.33098 0.10662 0.76939 0.0
C2468 C 0.32335 0.09153 0.75735 0.0
C2469 C 0.325 0.09458 0.73912 0.0
H2470 H 0.4195 0.87414 0.71765 0.0
H2471 H 0.38235 0.81958 0.70603 0.0
H2472 H 0.40503 0.8036 0.72407 0.0
H2473 H 0.46433 0.85812 0.71531 0.0
H2474 H 0.47695 0.87285 0.7332 0.0
H2475 H 0.4571 0.8804 0.72056 0.0
H2476 H 0.43947 0.88349 0.74908 0.0
H2477 H 0.45934 0.87605 0.76183 0.0
H2478 H 0.43482 0.86341 0.76343 0.0
H2479 H 0.43265 0.79313 0.74147 0.0
H2480 H 0.46308 0.78891 0.75795 0.0
H2481 H 0.48282 0.85002 0.75892 0.0
C2482 C 0.41596 0.85889 0.71924 0.0
C2483 C 0.3991 0.84811 0.71038 0.0
C2484 C 0.3952 0.82812 0.71254 0.0
C2485 C 0.40798 0.81891 0.72283 0.0
C2486 C 0.42466 0.82984 0.73102 0.0
C2487 C 0.42866 0.8494 0.72948 0.0
C2488 C 0.44809 0.8576 0.7391 0.0
C2489 C 0.46246 0.86785 0.72627 0.0
C2490 C 0.44525 0.87093 0.75426 0.0
C2491 C 0.45448 0.83958 0.74602 0.0
C2492 C 0.44067 0.82376 0.74122 0.0
C2493 C 0.44351 0.80543 0.74541 0.0
C2494 C 0.46092 0.80316 0.75468 0.0
C2495 C 0.4754 0.8191 0.75975 0.0
C2496 C 0.47196 0.83757 0.75546 0.0
H2497 H 0.71794 0.85393 0.69997 0.0
H2498 H 0.73187 0.83847 0.64771 0.0
H2499 H 0.7574 0.86751 0.64767 0.0
H2500 H 0.72196 0.90324 0.69249 0.0
H2501 H 0.73186 0.90991 0.71452 0.0
H2502 H 0.71595 0.88741 0.71048 0.0
H2503 H 0.74239 0.87004 0.72494 0.0
H2504 H 0.75844 0.89251 0.72892 0.0
H2505 H 0.7664 0.87391 0.71675 0.0
H2506 H 0.78078 0.89972 0.65355 0.0
H2507 H 0.79886 0.931 0.66435 0.0
H2508 H 0.76725 0.92443 0.71195 0.0
C2509 C 0.72621 0.85663 0.6884 0.0
C2510 C 0.72271 0.84404 0.67373 0.0
C2511 C 0.7343 0.84792 0.6591 0.0
C2512 C 0.74878 0.86438 0.65897 0.0
C2513 C 0.75151 0.87669 0.6736 0.0
C2514 C 0.74048 0.87288 0.68802 0.0
C2515 C 0.7455 0.88839 0.70191 0.0
C2516 C 0.72777 0.89779 0.70502 0.0
C2517 C 0.75367 0.88075 0.71915 0.0
C2518 C 0.76104 0.90176 0.69308 0.0
C2519 C 0.76451 0.89485 0.67682 0.0
C2520 C 0.77813 0.90518 0.66628 0.0
C2521 C 0.78829 0.92303 0.67252 0.0
C2522 C 0.78468 0.93044 0.6891 0.0
C2523 C 0.77088 0.9194 0.6994 0.0
H2524 H 0.62838 0.82848 0.34854 0.0
H2525 H 0.6275 0.88473 0.32766 0.0
H2526 H 0.59793 0.87184 0.30869 0.0
H2527 H 0.61361 0.8029 0.30799 0.0
H2528 H 0.59916 0.78305 0.3183 0.0
H2529 H 0.61992 0.7969 0.33034 0.0
H2530 H 0.59799 0.80333 0.35513 0.0
H2531 H 0.57718 0.78944 0.3432 0.0
H2532 H 0.57665 0.81363 0.34971 0.0
H2533 H 0.56787 0.85245 0.29235 0.0
H2534 H 0.54079 0.82817 0.27947 0.0
H2535 H 0.56259 0.7849 0.31087 0.0
C2536 C 0.62184 0.83812 0.3401 0.0
C2537 C 0.63008 0.85761 0.33963 0.0
C2538 C 0.62138 0.86973 0.32815 0.0
C2539 C 0.60459 0.86255 0.31739 0.0
C2540 C 0.59683 0.84321 0.31819 0.0
C2541 C 0.60527 0.83118 0.3292 0.0
C2542 C 0.59444 0.81092 0.3274 0.0
C2543 C 0.60757 0.79767 0.3206 0.0
C2544 C 0.58607 0.80393 0.3449 0.0
C2545 C 0.57849 0.81341 0.31373 0.0
C2546 C 0.58 0.83211 0.30858 0.0
C2547 C 0.5666 0.83775 0.29624 0.0
C2548 C 0.55128 0.82388 0.28901 0.0
C2549 C 0.5496 0.80463 0.29408 0.0
C2550 C 0.56348 0.79945 0.30658 0.0
H2551 H 0.75349 0.16174 0.32993 0.0
H2552 H 0.72135 0.12863 0.36956 0.0
H2553 H 0.73159 0.09947 0.35845 0.0
H2554 H 0.74431 0.1265 0.29496 0.0
H2555 H 0.76845 0.13225 0.28718 0.0
H2556 H 0.75804 0.15028 0.29787 0.0
H2557 H 0.7878 0.15657 0.32051 0.0
H2558 H 0.79831 0.13859 0.30987 0.0
H2559 H 0.79445 0.13707 0.33305 0.0
H2560 H 0.74439 0.0737 0.34207 0.0
H2561 H 0.76135 0.05388 0.32376 0.0
H2562 H 0.78723 0.10424 0.29632 0.0
C2563 C 0.74858 0.1483 0.33618 0.0
C2564 C 0.73649 0.14732 0.35049 0.0
C2565 C 0.73058 0.12961 0.35857 0.0
C2566 C 0.73628 0.11301 0.35231 0.0
C2567 C 0.74816 0.11442 0.33813 0.0
C2568 C 0.75447 0.13167 0.33033 0.0
C2569 C 0.76784 0.12946 0.31579 0.0
C2570 C 0.75913 0.13495 0.29789 0.0
C2571 C 0.78831 0.14111 0.32007 0.0
C2572 C 0.76799 0.10826 0.31655 0.0
C2573 C 0.75634 0.09979 0.32936 0.0
C2574 C 0.75368 0.08022 0.33211 0.0
C2575 C 0.76331 0.06906 0.32161 0.0
C2576 C 0.77572 0.07752 0.30872 0.0
C2577 C 0.77803 0.09739 0.30621 0.0
H2578 H 0.43407 0.16504 0.3534 0.0
H2579 H 0.39754 0.2082 0.35033 0.0
H2580 H 0.42188 0.22841 0.33306 0.0
H2581 H 0.48256 0.19761 0.35351 0.0
H2582 H 0.49201 0.18115 0.33984 0.0
H2583 H 0.474 0.17238 0.35516 0.0
H2584 H 0.4521 0.15424 0.32959 0.0
H2585 H 0.46976 0.16324 0.31412 0.0
H2586 H 0.44505 0.16722 0.31071 0.0
H2587 H 0.44766 0.24137 0.31219 0.0
H2588 H 0.4732 0.24661 0.29076 0.0
H2589 H 0.49166 0.19399 0.3066 0.0
C2590 C 0.43149 0.17902 0.34955 0.0
C2591 C 0.41398 0.18512 0.3532 0.0
C2592 C 0.411 0.20341 0.34789 0.0
C2593 C 0.42469 0.2149 0.33799 0.0
C2594 C 0.44127 0.2079 0.33369 0.0
C2595 C 0.44482 0.19046 0.33953 0.0
C2596 C 0.46243 0.1851 0.33157 0.0
C2597 C 0.47871 0.18401 0.34587 0.0
C2598 C 0.457 0.16635 0.32087 0.0
C2599 C 0.46786 0.20188 0.31977 0.0
C2600 C 0.45574 0.21506 0.32137 0.0
C2601 C 0.45743 0.2313 0.31107 0.0
C2602 C 0.47195 0.23414 0.29893 0.0
C2603 C 0.48438 0.22069 0.29701 0.0
C2604 C 0.48228 0.20443 0.30766 0.0
H2605 H 0.34498 0.89671 0.32639 0.0
H2606 H 0.29068 0.86693 0.34471 0.0
H2607 H 0.27401 0.89308 0.33375 0.0
H2608 H 0.3374 0.94567 0.33542 0.0
H2609 H 0.34873 0.95458 0.31576 0.0
H2610 H 0.35632 0.93468 0.32695 0.0
H2611 H 0.34923 0.91465 0.29804 0.0
H2612 H 0.34153 0.93442 0.28681 0.0
H2613 H 0.32536 0.91177 0.28685 0.0
H2614 H 0.263 0.92236 0.31811 0.0
H2615 H 0.25913 0.95024 0.29956 0.0
H2616 H 0.32094 0.95959 0.29158 0.0
C2617 C 0.32969 0.89599 0.32855 0.0
C2618 C 0.31917 0.88008 0.33673 0.0
C2619 C 0.29906 0.87924 0.3388 0.0
C2620 C 0.28949 0.89401 0.33255 0.0
C2621 C 0.30026 0.90948 0.32421 0.0
C2622 C 0.31999 0.9105 0.32232 0.0
C2623 C 0.32818 0.92773 0.31187 0.0
C2624 C 0.34357 0.94148 0.32318 0.0
C2625 C 0.33656 0.92178 0.29489 0.0
C2626 C 0.31001 0.93617 0.30785 0.0
C2627 C 0.294 0.92568 0.31515 0.0
C2628 C 0.27554 0.93069 0.3125 0.0
C2629 C 0.27345 0.9466 0.30197 0.0
C2630 C 0.28968 0.95719 0.29406 0.0
C2631 C 0.30816 0.95189 0.29737 0.0
H2632 H 0.7118 0.10365 0.71419 0.0
H2633 H 0.75114 0.12032 0.67254 0.0
H2634 H 0.76485 0.09146 0.6773 0.0
H2635 H 0.74886 0.08789 0.74286 0.0
H2636 H 0.7321 0.06888 0.752 0.0
H2637 H 0.72366 0.08996 0.7442 0.0
H2638 H 0.69731 0.06916 0.72365 0.0
H2639 H 0.70578 0.04802 0.73127 0.0
H2640 H 0.70449 0.05303 0.70807 0.0
H2641 H 0.77446 0.06026 0.68614 0.0
H2642 H 0.78221 0.03169 0.701 0.0
H2643 H 0.74051 0.03716 0.7398 0.0
C2644 C 0.72341 0.10162 0.70605 0.0
C2645 C 0.72974 0.11468 0.69256 0.0
C2646 C 0.74503 0.11065 0.68243 0.0
C2647 C 0.75324 0.0942 0.68517 0.0
C2648 C 0.74657 0.08184 0.69845 0.0
C2649 C 0.73229 0.08554 0.70899 0.0
C2650 C 0.72885 0.07064 0.72328 0.0
C2651 C 0.73366 0.0799 0.74168 0.0
C2652 C 0.70786 0.05956 0.72145 0.0
C2653 C 0.74339 0.05797 0.71905 0.0
C2654 C 0.75317 0.06454 0.70444 0.0
C2655 C 0.76696 0.05507 0.69765 0.0
C2656 C 0.77116 0.0387 0.70616 0.0
C2657 C 0.76195 0.032 0.72159 0.0
C2658 C 0.7478 0.04183 0.72804 0.0
H2659 H 0.70361 0.91536 0.36793 0.0
H2660 H 0.69636 0.87741 0.32241 0.0
H2661 H 0.72298 0.89857 0.30866 0.0
H2662 H 0.7115 0.9578 0.34468 0.0
H2663 H 0.72937 0.97052 0.36057 0.0
H2664 H 0.71117 0.95146 0.36757 0.0
H2665 H 0.73824 0.93452 0.38139 0.0
H2666 H 0.75656 0.95357 0.37442 0.0
H2667 H 0.7571 0.92936 0.36799 0.0
H2668 H 0.74852 0.92487 0.29898 0.0
H2669 H 0.77076 0.95494 0.2937 0.0
H2670 H 0.76132 0.97583 0.34547 0.0
C2671 C 0.70793 0.91131 0.35524 0.0
C2672 C 0.69799 0.89475 0.34623 0.0
C2673 C 0.70372 0.89012 0.32946 0.0
C2674 C 0.7189 0.90196 0.32162 0.0
C2675 C 0.72824 0.91832 0.33075 0.0
C2676 C 0.723 0.923 0.34721 0.0
C2677 C 0.73445 0.94204 0.35368 0.0
C2678 C 0.7208 0.95629 0.3568 0.0
C2679 C 0.74735 0.93973 0.37036 0.0
C2680 C 0.7466 0.94756 0.33812 0.0
C2681 C 0.74295 0.93358 0.32512 0.0
C2682 C 0.75163 0.93585 0.30912 0.0
C2683 C 0.76414 0.95301 0.3062 0.0
C2684 C 0.76777 0.9677 0.31918 0.0
C2685 C 0.75912 0.96473 0.33545 0.0
H2686 H 0.65563 0.19384 0.3216 0.0
H2687 H 0.68164 0.24592 0.34952 0.0
H2688 H 0.65364 0.26093 0.33883 0.0
H2689 H 0.63943 0.21524 0.28379 0.0
H2690 H 0.61721 0.19825 0.27987 0.0
H2691 H 0.63795 0.1912 0.29145 0.0
H2692 H 0.61716 0.18023 0.31778 0.0
H2693 H 0.59627 0.18708 0.30618 0.0
H2694 H 0.60416 0.19663 0.32792 0.0
H2695 H 0.62314 0.27083 0.32255 0.0
H2696 H 0.59406 0.27417 0.30302 0.0
H2697 H 0.58924 0.21541 0.28591 0.0
C2698 C 0.6551 0.20822 0.32588 0.0
C2699 C 0.67048 0.21863 0.33669 0.0
C2700 C 0.66972 0.23761 0.34155 0.0
C2701 C 0.65391 0.24625 0.33546 0.0
C2702 C 0.63904 0.23569 0.32448 0.0
C2703 C 0.63952 0.21701 0.31987 0.0
C2704 C 0.62256 0.20898 0.30709 0.0
C2705 C 0.62973 0.20308 0.28951 0.0
C2706 C 0.60925 0.19224 0.31523 0.0
C2707 C 0.61257 0.22607 0.30492 0.0
C2708 C 0.62208 0.24137 0.3151 0.0
C2709 C 0.61555 0.25883 0.31466 0.0
C2710 C 0.59901 0.26063 0.30353 0.0
C2711 C 0.58927 0.24511 0.29286 0.0
C2712 C 0.59623 0.22764 0.29382 0.0
H2713 H 0.34208 0.12114 0.34334 0.0
H2714 H 0.40323 0.11641 0.347 0.0
H2715 H 0.39603 0.08833 0.32705 0.0
H2716 H 0.32271 0.06945 0.34127 0.0
H2717 H 0.30283 0.07242 0.32589 0.0
H2718 H 0.31267 0.09102 0.34171 0.0
H2719 H 0.3187 0.11498 0.31632 0.0
H2720 H 0.30916 0.09643 0.30042 0.0
H2721 H 0.33327 0.11 0.29872 0.0
H2722 H 0.38258 0.06265 0.30449 0.0
H2723 H 0.36328 0.03969 0.28285 0.0
H2724 H 0.31113 0.06125 0.29441 0.0
C2725 C 0.35386 0.11386 0.34036 0.0
C2726 C 0.3732 0.12092 0.34671 0.0
C2727 C 0.38831 0.11128 0.34216 0.0
C2728 C 0.38437 0.09531 0.33089 0.0
C2729 C 0.36522 0.08908 0.3244 0.0
C2730 C 0.35018 0.0979 0.32915 0.0
C2731 C 0.33103 0.08894 0.31975 0.0
C2732 C 0.31645 0.07991 0.33295 0.0
C2733 C 0.32256 0.10345 0.30811 0.0
C2734 C 0.33772 0.07393 0.30874 0.0
C2735 C 0.35748 0.07421 0.31159 0.0
C2736 C 0.36705 0.06215 0.3023 0.0
C2737 C 0.35604 0.04929 0.28995 0.0
C2738 C 0.33572 0.04861 0.28708 0.0
C2739 C 0.32657 0.06118 0.29658 0.0
H2740 H 0.39844 0.82272 0.34041 0.0
H2741 H 0.36609 0.776 0.36867 0.0
H2742 H 0.38932 0.75565 0.36087 0.0
H2743 H 0.40971 0.79367 0.30438 0.0
H2744 H 0.43373 0.80732 0.30234 0.0
H2745 H 0.41475 0.81861 0.31029 0.0
H2746 H 0.43648 0.82985 0.33847 0.0
H2747 H 0.45553 0.81863 0.3306 0.0
H2748 H 0.44635 0.8126 0.35184 0.0
H2749 H 0.416 0.74011 0.35034 0.0
H2750 H 0.44442 0.73043 0.33773 0.0
H2751 H 0.45971 0.78637 0.31523 0.0
C2752 C 0.39611 0.80817 0.34488 0.0
C2753 C 0.38034 0.80118 0.35541 0.0
C2754 C 0.37815 0.78202 0.36101 0.0
C2755 C 0.39122 0.77021 0.35649 0.0
C2756 C 0.40652 0.77756 0.3462 0.0
C2757 C 0.40905 0.79608 0.3404 0.0
C2758 C 0.42682 0.80032 0.32946 0.0
C2759 C 0.42089 0.80527 0.31049 0.0
C2760 C 0.4422 0.8163 0.33811 0.0
C2761 C 0.43388 0.78131 0.33009 0.0
C2762 C 0.42189 0.76845 0.33985 0.0
C2763 C 0.42547 0.75008 0.34268 0.0
C2764 C 0.44177 0.74473 0.33551 0.0
C2765 C 0.45446 0.75758 0.32551 0.0
C2766 C 0.45025 0.77612 0.32265 0.0
H2767 H 0.37343 0.94566 0.71712 0.0
H2768 H 0.33283 0.8969 0.73358 0.0
H2769 H 0.3198 0.9175 0.75447 0.0
H2770 H 0.38275 0.97005 0.76088 0.0
H2771 H 0.38408 0.99333 0.75147 0.0
H2772 H 0.39129 0.9744 0.73915 0.0
H2773 H 0.36689 0.97962 0.71339 0.0
H2774 H 0.35943 0.99839 0.7257 0.0
H2775 H 0.34156 0.97845 0.71743 0.0
H2776 H 0.30911 0.94413 0.77145 0.0
H2777 H 0.30312 0.97402 0.78472 0.0
H2778 H 0.3512 1.00567 0.75776 0.0
C2779 C 0.3622 0.93928 0.72554 0.0
C2780 C 0.35436 0.91965 0.72409 0.0
C2781 C 0.33927 0.91184 0.73483 0.0
C2782 C 0.33173 0.92347 0.74663 0.0
C2783 C 0.33947 0.9429 0.74755 0.0
C2784 C 0.35457 0.95072 0.73745 0.0
C2785 C 0.35975 0.97213 0.74041 0.0
C2786 C 0.38071 0.97781 0.74846 0.0
C2787 C 0.35672 0.98277 0.72321 0.0
C2788 C 0.34502 0.97521 0.75351 0.0
C2789 C 0.33344 0.95817 0.75744 0.0
C2790 C 0.31826 0.9575 0.76861 0.0
C2791 C 0.3149 0.97462 0.77603 0.0
C2792 C 0.3267 0.99228 0.7724 0.0
C2793 C 0.342 0.99244 0.76098 0.0
H2794 H 0.63954 0.78975 0.68762 0.0
H2795 H 0.67505 0.84116 0.711 0.0
H2796 H 0.64806 0.84605 0.72824 0.0
H2797 H 0.59236 0.80416 0.68743 0.0
H2798 H 0.5799 0.78142 0.69446 0.0
H2799 H 0.6011 0.78273 0.6819 0.0
H2800 H 0.61767 0.76485 0.70636 0.0
H2801 H 0.59647 0.76336 0.71893 0.0
H2802 H 0.62009 0.77398 0.72867 0.0
H2803 H 0.61802 0.84589 0.74311 0.0
H2804 H 0.58793 0.83822 0.75845 0.0
H2805 H 0.57255 0.7847 0.72917 0.0
C2806 C 0.64178 0.80204 0.69634 0.0
C2807 C 0.65947 0.81541 0.69724 0.0
C2808 C 0.66151 0.83115 0.70912 0.0
C2809 C 0.64626 0.83402 0.71922 0.0
C2810 C 0.62911 0.82076 0.71782 0.0
C2811 C 0.62685 0.80485 0.70703 0.0
C2812 C 0.60748 0.79192 0.70946 0.0
C2813 C 0.59444 0.78995 0.69229 0.0
C2814 C 0.61062 0.77237 0.71626 0.0
C2815 C 0.59937 0.8031 0.72337 0.0
C2816 C 0.61202 0.81988 0.72763 0.0
C2817 C 0.608 0.83277 0.73999 0.0
C2818 C 0.59078 0.82825 0.7486 0.0
C2819 C 0.57786 0.81079 0.74509 0.0
C2820 C 0.58213 0.79814 0.73213 0.0
H2821 H 0.4106 0.23041 0.7185 0.0
H2822 H 0.42357 0.21632 0.66562 0.0
H2823 H 0.45803 0.23135 0.67202 0.0
H2824 H 0.44605 0.27661 0.72303 0.0
H2825 H 0.45183 0.27239 0.74593 0.0
H2826 H 0.42779 0.26343 0.73612 0.0
H2827 H 0.43101 0.22938 0.74611 0.0
H2828 H 0.45496 0.23826 0.75589 0.0
H2829 H 0.45145 0.21926 0.7397 0.0
H2830 H 0.49184 0.24277 0.68597 0.0
H2831 H 0.52162 0.25053 0.70587 0.0
H2832 H 0.48602 0.25847 0.74909 0.0
C2833 C 0.42064 0.23091 0.70816 0.0
C2834 C 0.41451 0.22228 0.69158 0.0
C2835 C 0.42799 0.22308 0.67835 0.0
C2836 C 0.44756 0.23157 0.68188 0.0
C2837 C 0.45329 0.23949 0.69858 0.0
C2838 C 0.44011 0.23949 0.71141 0.0
C2839 C 0.45012 0.24743 0.72873 0.0
C2840 C 0.44356 0.26607 0.73374 0.0
C2841 C 0.44669 0.2327 0.74346 0.0
C2842 C 0.4711 0.251 0.72391 0.0
C2843 C 0.47269 0.24657 0.70643 0.0
C2844 C 0.49077 0.24675 0.69956 0.0
C2845 C 0.50761 0.25115 0.71096 0.0
C2846 C 0.5062 0.25529 0.72899 0.0
C2847 C 0.48769 0.25577 0.7353 0.0
H2848 H 0.74809 0.68552 0.16054 0.0
H2849 H 0.68919 0.68034 0.13699 0.0
H2850 H 0.70223 0.68962 0.1083 0.0
H2851 H 0.76853 0.72652 0.13638 0.0
H2852 H 0.79149 0.71891 0.13398 0.0
H2853 H 0.77758 0.7114 0.15263 0.0
H2854 H 0.77785 0.67616 0.14461 0.0
H2855 H 0.79177 0.68357 0.12593 0.0
H2856 H 0.76901 0.66719 0.12289 0.0
H2857 H 0.72167 0.69989 0.08202 0.0
H2858 H 0.746 0.71059 0.06038 0.0
H2859 H 0.79238 0.70953 0.10086 0.0
C2860 C 0.73793 0.68615 0.14931 0.0
C2861 C 0.71755 0.68223 0.15113 0.0
C2862 C 0.70483 0.68349 0.13607 0.0
C2863 C 0.71211 0.68866 0.11965 0.0
C2864 C 0.73222 0.69257 0.11835 0.0
C2865 C 0.74497 0.6914 0.13277 0.0
C2866 C 0.76596 0.69676 0.12784 0.0
C2867 C 0.77651 0.71445 0.13833 0.0
C2868 C 0.77678 0.67991 0.13047 0.0
C2869 C 0.76299 0.70111 0.10843 0.0
C2870 C 0.74341 0.69857 0.10322 0.0
C2871 C 0.73705 0.70193 0.08597 0.0
C2872 C 0.75102 0.70812 0.07376 0.0
C2873 C 0.77123 0.71098 0.07874 0.0
C2874 C 0.77715 0.70729 0.09639 0.0
H2875 H 0.33275 0.75101 0.13072 0.0
H2876 H 0.33863 0.6956 0.11062 0.0
H2877 H 0.34188 0.7087 0.08063 0.0
H2878 H 0.30433 0.76382 0.09438 0.0
H2879 H 0.31559 0.78861 0.09416 0.0
H2880 H 0.31488 0.77575 0.11447 0.0
H2881 H 0.35218 0.78381 0.11979 0.0
H2882 H 0.35336 0.79757 0.09999 0.0
H2883 H 0.36744 0.77881 0.10276 0.0
H2884 H 0.34509 0.72793 0.05314 0.0
H2885 H 0.34816 0.75226 0.02985 0.0
H2886 H 0.33851 0.79473 0.06733 0.0
C2887 C 0.33493 0.74177 0.11998 0.0
C2888 C 0.3356 0.72241 0.12275 0.0
C2889 C 0.33825 0.71054 0.10856 0.0
C2890 C 0.34004 0.71783 0.09155 0.0
C2891 C 0.33915 0.737 0.08909 0.0
C2892 C 0.33679 0.74885 0.10291 0.0
C2893 C 0.33619 0.76886 0.09667 0.0
C2894 C 0.31657 0.77461 0.10011 0.0
C2895 C 0.35331 0.7831 0.10531 0.0
C2896 C 0.33842 0.76638 0.07716 0.0
C2897 C 0.34018 0.7479 0.07309 0.0
C2898 C 0.34329 0.74233 0.05608 0.0
C2899 C 0.34466 0.75605 0.04289 0.0
C2900 C 0.34253 0.77488 0.04669 0.0
C2901 C 0.33962 0.78019 0.06407 0.0
H2902 H 0.37334 0.30508 0.16923 0.0
H2903 H 0.3613 0.36165 0.15828 0.0
H2904 H 0.34604 0.35024 0.12916 0.0
H2905 H 0.38698 0.29579 0.12587 0.0
H2906 H 0.37643 0.27088 0.12612 0.0
H2907 H 0.38532 0.28335 0.14643 0.0
H2908 H 0.35152 0.273 0.15903 0.0
H2909 H 0.34252 0.26055 0.13873 0.0
H2910 H 0.33011 0.27844 0.14713 0.0
H2911 H 0.33177 0.33202 0.10047 0.0
H2912 H 0.32189 0.3094 0.07524 0.0
H2913 H 0.34556 0.266 0.1048 0.0
C2914 C 0.36773 0.31524 0.16074 0.0
C2915 C 0.36861 0.33436 0.16633 0.0
C2916 C 0.3606 0.34686 0.15465 0.0
C2917 C 0.35197 0.34053 0.13795 0.0
C2918 C 0.35149 0.32164 0.1329 0.0
C2919 C 0.35929 0.30925 0.14398 0.0
C2920 C 0.35755 0.28981 0.13535 0.0
C2921 C 0.37777 0.28466 0.13332 0.0
C2922 C 0.34466 0.27455 0.14568 0.0
C2923 C 0.34768 0.29319 0.11764 0.0
C2924 C 0.34404 0.31154 0.11645 0.0
C2925 C 0.33467 0.31765 0.10129 0.0
C2926 C 0.32907 0.30472 0.08702 0.0
C2927 C 0.3331 0.28598 0.0879 0.0
C2928 C 0.34246 0.28029 0.10352 0.0
H2929 H 0.77063 0.33195 0.1338 0.0
H2930 H 0.7086 0.32927 0.12337 0.0
H2931 H 0.71181 0.32203 0.09182 0.0
H2932 H 0.78508 0.35567 0.0956 0.0
H2933 H 0.80489 0.34323 0.09224 0.0
H2934 H 0.79726 0.34599 0.11409 0.0
H2935 H 0.79216 0.30952 0.11798 0.0
H2936 H 0.79949 0.30647 0.09601 0.0
H2937 H 0.77624 0.29415 0.10234 0.0
H2938 H 0.72261 0.31756 0.06107 0.0
H2939 H 0.73964 0.31549 0.03388 0.0
H2940 H 0.79479 0.3222 0.06486 0.0
C2941 C 0.75769 0.32935 0.12489 0.0
C2942 C 0.73933 0.33081 0.13079 0.0
C2943 C 0.72271 0.32787 0.11892 0.0
C2944 C 0.72444 0.32381 0.10106 0.0
C2945 C 0.74289 0.32279 0.09548 0.0
C2946 C 0.75921 0.32534 0.1071 0.0
C2947 C 0.77752 0.32464 0.0977 0.0
C2948 C 0.79203 0.34351 0.10005 0.0
C2949 C 0.7869 0.30768 0.10388 0.0
C2950 C 0.76907 0.32172 0.07891 0.0
C2951 C 0.74909 0.32052 0.07787 0.0
C2952 C 0.73825 0.31837 0.06176 0.0
C2953 C 0.7481 0.31738 0.04635 0.0
C2954 C 0.76862 0.31864 0.04712 0.0
C2955 C 0.77911 0.32083 0.06371 0.0
H2956 H 0.7591 0.32584 0.91344 0.0
H2957 H 0.73407 0.37034 0.93726 0.0
H2958 H 0.76056 0.37457 0.96099 0.0
H2959 H 0.7741 0.3045 0.95339 0.0
H2960 H 0.79612 0.2996 0.94461 0.0
H2961 H 0.77518 0.30086 0.93002 0.0
H2962 H 0.79731 0.32636 0.91232 0.0
H2963 H 0.81772 0.32519 0.9277 0.0
H2964 H 0.81008 0.34767 0.92351 0.0
H2965 H 0.78936 0.37336 0.98232 0.0
H2966 H 0.81896 0.36733 0.99945 0.0
H2967 H 0.82482 0.32318 0.96201 0.0
C2968 C 0.75944 0.33663 0.92357 0.0
C2969 C 0.74485 0.34794 0.92363 0.0
C2970 C 0.74538 0.36175 0.93705 0.0
C2971 C 0.76028 0.36417 0.95055 0.0
C2972 C 0.77441 0.35261 0.95033 0.0
C2973 C 0.7742 0.3392 0.93712 0.0
C2974 C 0.79098 0.32849 0.94002 0.0
C2975 C 0.78362 0.30709 0.94216 0.0
C2976 C 0.80484 0.33216 0.92499 0.0
C2977 C 0.80046 0.33768 0.95711 0.0
C2978 C 0.79076 0.35167 0.96277 0.0
C2979 C 0.79701 0.36239 0.97806 0.0
C2980 C 0.81371 0.35884 0.98773 0.0
C2981 C 0.82367 0.34448 0.98223 0.0
C2982 C 0.81701 0.3338 0.96674 0.0
H2983 H 0.73821 0.67829 0.91474 0.0
H2984 H 0.73087 0.73153 0.89023 0.0
H2985 H 0.73933 0.74823 0.91891 0.0
H2986 H 0.71958 0.68747 0.95695 0.0
H2987 H 0.73723 0.6763 0.96929 0.0
H2988 H 0.7292 0.66838 0.94711 0.0
H2989 H 0.76498 0.67431 0.93831 0.0
H2990 H 0.7731 0.68209 0.96047 0.0
H2991 H 0.77986 0.69743 0.9423 0.0
H2992 H 0.75081 0.75956 0.95045 0.0
H2993 H 0.76503 0.7642 0.98118 0.0
H2994 H 0.76478 0.70353 0.98453 0.0
C2995 C 0.73835 0.69346 0.91535 0.0
C2996 C 0.73374 0.70351 0.90012 0.0
C2997 C 0.73398 0.72337 0.90168 0.0
C2998 C 0.73886 0.73303 0.91794 0.0
C2999 C 0.74343 0.72269 0.93264 0.0
C3000 C 0.74319 0.70332 0.93145 0.0
C3001 C 0.74949 0.69556 0.94894 0.0
C3002 C 0.73288 0.68107 0.95599 0.0
C3003 C 0.76796 0.68684 0.9474 0.0
C3004 C 0.75363 0.71361 0.96011 0.0
C3005 C 0.74993 0.72914 0.95058 0.0
C3006 C 0.75355 0.74744 0.95806 0.0
C3007 C 0.76153 0.74995 0.97557 0.0
C3008 C 0.76591 0.73425 0.98537 0.0
C3009 C 0.76148 0.71586 0.97752 0.0
H3010 H 0.33509 0.73826 0.87426 0.0
H3011 H 0.32269 0.67672 0.87076 0.0
H3012 H 0.31542 0.67532 0.90232 0.0
H3013 H 0.35945 0.74171 0.91641 0.0
H3014 H 0.35001 0.76223 0.92345 0.0
H3015 H 0.35265 0.7583 0.90043 0.0
H3016 H 0.31611 0.75956 0.89355 0.0
H3017 H 0.31337 0.76356 0.91657 0.0
H3018 H 0.29795 0.74394 0.90491 0.0
H3019 H 0.31151 0.68088 0.93458 0.0
H3020 H 0.31076 0.6927 0.965 0.0
H3021 H 0.32617 0.75075 0.94725 0.0
C3022 C 0.33052 0.72454 0.88015 0.0
C3023 C 0.32917 0.70758 0.87031 0.0
C3024 C 0.32353 0.68981 0.87825 0.0
C3025 C 0.31942 0.68892 0.89609 0.0
C3026 C 0.32105 0.70596 0.9056 0.0
C3027 C 0.32638 0.72344 0.89788 0.0
C3028 C 0.32791 0.73959 0.91113 0.0
C3029 C 0.34874 0.75113 0.91296 0.0
C3030 C 0.31294 0.75242 0.90624 0.0
C3031 C 0.32288 0.72849 0.92759 0.0
C3032 C 0.31889 0.70913 0.92413 0.0
C3033 C 0.31451 0.69601 0.93741 0.0
C3034 C 0.31426 0.70287 0.95468 0.0
C3035 C 0.31841 0.72267 0.95854 0.0
C3036 C 0.32263 0.73557 0.94472 0.0
H3037 H 0.36903 0.28459 0.90793 0.0
H3038 H 0.38954 0.34244 0.92692 0.0
H3039 H 0.38313 0.33228 0.95729 0.0
H3040 H 0.32982 0.27425 0.93682 0.0
H3041 H 0.33251 0.24985 0.94015 0.0
H3042 H 0.33953 0.26146 0.92001 0.0
H3043 H 0.37409 0.25331 0.9253 0.0
H3044 H 0.36713 0.24174 0.9455 0.0
H3045 H 0.38802 0.26059 0.94569 0.0
H3046 H 0.37417 0.31595 0.98579 0.0
H3047 H 0.36242 0.29497 1.00997 0.0
H3048 H 0.34637 0.24777 0.97267 0.0
C3049 C 0.37237 0.29506 0.91852 0.0
C3050 C 0.37985 0.31437 0.91497 0.0
C3051 C 0.38371 0.32763 0.92922 0.0
C3052 C 0.38019 0.32197 0.94656 0.0
C3053 C 0.37265 0.30293 0.94961 0.0
C3054 C 0.3687 0.28966 0.93598 0.0
C3055 C 0.35992 0.27025 0.94283 0.0
C3056 C 0.33922 0.26357 0.93446 0.0
C3057 C 0.37308 0.25561 0.93964 0.0
C3058 C 0.3596 0.27468 0.96239 0.0
C3059 C 0.3671 0.2936 0.966 0.0
C3060 C 0.36823 0.3011 0.98307 0.0
C3061 C 0.36141 0.28904 0.99677 0.0
C3062 C 0.35338 0.26958 0.99348 0.0
C3063 C 0.35262 0.26241 0.97592 0.0
H3064 H 0.63511 0.71323 0.21 0.0
H3065 H 0.64745 0.66223 0.23552 0.0
H3066 H 0.62126 0.66388 0.25587 0.0
H3067 H 0.62408 0.73757 0.24938 0.0
H3068 H 0.60486 0.74762 0.23818 0.0
H3069 H 0.62494 0.74271 0.22625 0.0
H3070 H 0.60076 0.72192 0.20382 0.0
H3071 H 0.58063 0.72675 0.21568 0.0
H3072 H 0.58339 0.70251 0.2116 0.0
H3073 H 0.5928 0.6708 0.27276 0.0
H3074 H 0.56487 0.68206 0.28486 0.0
H3075 H 0.57083 0.72869 0.24813 0.0
C3076 C 0.63239 0.70254 0.22003 0.0
C3077 C 0.64333 0.68766 0.22136 0.0
C3078 C 0.63929 0.67378 0.23443 0.0
C3079 C 0.62444 0.67464 0.24599 0.0
C3080 C 0.6138 0.68947 0.24429 0.0
C3081 C 0.61764 0.70321 0.23164 0.0
C3082 C 0.60383 0.71741 0.23225 0.0
C3083 C 0.6151 0.73752 0.23679 0.0
C3084 C 0.59142 0.71712 0.2148 0.0
C3085 C 0.59147 0.70952 0.24715 0.0
C3086 C 0.59748 0.69341 0.25393 0.0
C3087 C 0.58804 0.6834 0.26752 0.0
C3088 C 0.57204 0.68988 0.27426 0.0
C3089 C 0.56544 0.70628 0.26749 0.0
C3090 C 0.57553 0.71626 0.2538 0.0
H3091 H 0.36082 0.66456 0.2208 0.0
H3092 H 0.32927 0.64141 0.17228 0.0
H3093 H 0.32083 0.61024 0.18634 0.0
H3094 H 0.38126 0.62267 0.23185 0.0
H3095 H 0.37922 0.62541 0.25518 0.0
H3096 H 0.38252 0.64604 0.24141 0.0
H3097 H 0.3513 0.65574 0.25253 0.0
H3098 H 0.34792 0.63516 0.26634 0.0
H3099 H 0.3287 0.63899 0.25058 0.0
H3100 H 0.31546 0.58175 0.20571 0.0
H3101 H 0.31376 0.55774 0.22907 0.0
H3102 H 0.3499 0.59898 0.26456 0.0
C3103 C 0.35231 0.65291 0.21303 0.0
C3104 C 0.34566 0.65551 0.19541 0.0
C3105 C 0.33427 0.63991 0.18587 0.0
C3106 C 0.32953 0.62209 0.1937 0.0
C3107 C 0.33639 0.62005 0.21103 0.0
C3108 C 0.34758 0.635 0.22058 0.0
C3109 C 0.35313 0.62901 0.239 0.0
C3110 C 0.37535 0.63089 0.24203 0.0
C3111 C 0.34476 0.6404 0.25293 0.0
C3112 C 0.34323 0.60835 0.23835 0.0
C3113 C 0.33362 0.6035 0.2221 0.0
C3114 C 0.32297 0.58536 0.21846 0.0
C3115 C 0.32202 0.57186 0.23182 0.0
C3116 C 0.33171 0.57651 0.24859 0.0
C3117 C 0.34258 0.59497 0.25179 0.0
H3118 H 0.43315 0.32646 0.19286 0.0
H3119 H 0.40988 0.33323 0.24369 0.0
H3120 H 0.4378 0.32181 0.25836 0.0
H3121 H 0.44918 0.28211 0.20383 0.0
H3122 H 0.47052 0.28721 0.19134 0.0
H3123 H 0.44921 0.29707 0.1848 0.0
H3124 H 0.47009 0.33089 0.18628 0.0
H3125 H 0.49142 0.32114 0.19305 0.0
H3126 H 0.48405 0.3392 0.2064 0.0
H3127 H 0.46886 0.31003 0.26797 0.0
H3128 H 0.49806 0.29477 0.27113 0.0
H3129 H 0.4999 0.2931 0.21428 0.0
C3130 C 0.43376 0.32544 0.20706 0.0
C3131 C 0.4193 0.33138 0.217 0.0
C3132 C 0.42094 0.3296 0.23562 0.0
C3133 C 0.43677 0.32295 0.24417 0.0
C3134 C 0.45089 0.31769 0.23404 0.0
C3135 C 0.44936 0.31849 0.21587 0.0
C3136 C 0.46602 0.31091 0.20805 0.0
C3137 C 0.45827 0.29327 0.19632 0.0
C3138 C 0.47864 0.32646 0.19784 0.0
C3139 C 0.47706 0.30573 0.22465 0.0
C3140 C 0.46826 0.31002 0.23953 0.0
C3141 C 0.47585 0.30657 0.25639 0.0
C3142 C 0.49255 0.29803 0.25809 0.0
C3143 C 0.50136 0.29278 0.243 0.0
C3144 C 0.49357 0.29698 0.2261 0.0
H3145 H 0.7255 0.40133 0.19052 0.0
H3146 H 0.70449 0.36617 0.234 0.0
H3147 H 0.71091 0.3946 0.25375 0.0
H3148 H 0.76476 0.42866 0.21389 0.0
H3149 H 0.76296 0.45038 0.20244 0.0
H3150 H 0.75418 0.42781 0.19162 0.0
H3151 H 0.72023 0.43726 0.18557 0.0
H3152 H 0.72892 0.45989 0.19647 0.0
H3153 H 0.70762 0.44454 0.20366 0.0
H3154 H 0.72313 0.42677 0.26928 0.0
H3155 H 0.74063 0.45882 0.27895 0.0
H3156 H 0.75343 0.4719 0.22489 0.0
C3157 C 0.72208 0.39961 0.20417 0.0
C3158 C 0.71457 0.38157 0.21076 0.0
C3159 C 0.71011 0.37992 0.22866 0.0
C3160 C 0.71372 0.39598 0.23995 0.0
C3161 C 0.72155 0.41355 0.23305 0.0
C3162 C 0.72556 0.41539 0.21551 0.0
C3163 C 0.73524 0.43537 0.21146 0.0
C3164 C 0.75548 0.43555 0.20445 0.0
C3165 C 0.72222 0.44482 0.19853 0.0
C3166 C 0.73674 0.44441 0.22957 0.0
C3167 C 0.72852 0.43179 0.24187 0.0
C3168 C 0.72935 0.43683 0.2597 0.0
C3169 C 0.73925 0.45505 0.26508 0.0
C3170 C 0.74834 0.46781 0.25266 0.0
C3171 C 0.74657 0.46249 0.23469 0.0
H3172 H 0.66994 0.3113 0.85189 0.0
H3173 H 0.65831 0.36797 0.84069 0.0
H3174 H 0.6291 0.35399 0.82207 0.0
H3175 H 0.65381 0.29007 0.80952 0.0
H3176 H 0.64278 0.26764 0.81833 0.0
H3177 H 0.66327 0.28211 0.83021 0.0
H3178 H 0.64325 0.28203 0.85777 0.0
H3179 H 0.62276 0.26744 0.84602 0.0
H3180 H 0.62001 0.28974 0.85586 0.0
H3181 H 0.60101 0.33375 0.80464 0.0
H3182 H 0.57507 0.30868 0.79139 0.0
H3183 H 0.60438 0.26547 0.8153 0.0
C3184 C 0.6612 0.32081 0.84568 0.0
C3185 C 0.66658 0.34077 0.84769 0.0
C3186 C 0.65476 0.35265 0.8391 0.0
C3187 C 0.63807 0.34485 0.82855 0.0
C3188 C 0.63328 0.32514 0.8268 0.0
C3189 C 0.64441 0.31328 0.83525 0.0
C3190 C 0.63575 0.29256 0.83168 0.0
C3191 C 0.64974 0.28251 0.82185 0.0
C3192 C 0.6301 0.28235 0.84885 0.0
C3193 C 0.61795 0.29462 0.82 0.0
C3194 C 0.61687 0.31351 0.81718 0.0
C3195 C 0.60168 0.3189 0.80678 0.0
C3196 C 0.58706 0.30458 0.79926 0.0
C3197 C 0.58768 0.28515 0.80236 0.0
C3198 C 0.60345 0.2802 0.81274 0.0
H3199 H 0.7223 0.63745 0.84147 0.0
H3200 H 0.77518 0.66846 0.86815 0.0
H3201 H 0.79326 0.64383 0.85846 0.0
H3202 H 0.73145 0.59005 0.85039 0.0
H3203 H 0.72122 0.58078 0.82913 0.0
H3204 H 0.71247 0.60034 0.83905 0.0
H3205 H 0.7202 0.62053 0.81133 0.0
H3206 H 0.72889 0.60103 0.80131 0.0
H3207 H 0.74445 0.62399 0.80368 0.0
H3208 H 0.80594 0.61548 0.84429 0.0
H3209 H 0.81139 0.58742 0.82705 0.0
H3210 H 0.75011 0.57622 0.80967 0.0
C3211 C 0.7377 0.63921 0.84527 0.0
C3212 C 0.74721 0.65506 0.85563 0.0
C3213 C 0.76738 0.65641 0.86045 0.0
C3214 C 0.77784 0.64249 0.8549 0.0
C3215 C 0.768 0.62717 0.84455 0.0
C3216 C 0.74833 0.62552 0.83983 0.0
C3217 C 0.74109 0.60811 0.82824 0.0
C3218 C 0.72565 0.59399 0.83725 0.0
C3219 C 0.7332 0.61376 0.81007 0.0
C3220 C 0.75974 0.60027 0.82696 0.0
C3221 C 0.77516 0.61129 0.8365 0.0
C3222 C 0.79388 0.60676 0.83685 0.0
C3223 C 0.79687 0.59075 0.82706 0.0
C3224 C 0.78124 0.57952 0.81696 0.0
C3225 C 0.76246 0.5844 0.81719 0.0
H3226 H 0.40977 0.71189 0.83039 0.0
H3227 H 0.39186 0.68234 0.78058 0.0
H3228 H 0.42462 0.69382 0.76996 0.0
H3229 H 0.43689 0.75295 0.81322 0.0
H3230 H 0.45552 0.75612 0.83098 0.0
H3231 H 0.43128 0.74425 0.83484 0.0
H3232 H 0.4451 0.71494 0.84656 0.0
H3233 H 0.46942 0.72672 0.84263 0.0
H3234 H 0.46004 0.70359 0.83294 0.0
H3235 H 0.45881 0.71113 0.76409 0.0
H3236 H 0.49088 0.73245 0.76367 0.0
H3237 H 0.48586 0.7495 0.81775 0.0
C3238 C 0.41277 0.70777 0.81726 0.0
C3239 C 0.39831 0.69631 0.80627 0.0
C3240 C 0.40282 0.69103 0.78925 0.0
C3241 C 0.42136 0.69749 0.78312 0.0
C3242 C 0.43525 0.70898 0.79427 0.0
C3243 C 0.43115 0.71394 0.81103 0.0
C3244 C 0.4482 0.727 0.82026 0.0
C3245 C 0.44264 0.74621 0.8251 0.0
C3246 C 0.45616 0.71748 0.83656 0.0
C3247 C 0.46239 0.7291 0.80591 0.0
C3248 C 0.45481 0.71853 0.79104 0.0
C3249 C 0.46499 0.71925 0.77577 0.0
C3250 C 0.48319 0.73136 0.77564 0.0
C3251 C 0.49093 0.74258 0.79069 0.0
C3252 C 0.48049 0.74101 0.80606 0.0
H3253 H 0.38677 0.40382 0.84083 0.0
H3254 H 0.33781 0.35804 0.83012 0.0
H3255 H 0.32391 0.37762 0.80753 0.0
H3256 H 0.36044 0.44145 0.83736 0.0
H3257 H 0.37876 0.45772 0.82679 0.0
H3258 H 0.38578 0.43961 0.84092 0.0
H3259 H 0.4035 0.42705 0.81569 0.0
H3260 H 0.3967 0.44527 0.80151 0.0
H3261 H 0.3904 0.42061 0.79476 0.0
H3262 H 0.31375 0.40351 0.78813 0.0
H3263 H 0.30941 0.43255 0.77188 0.0
H3264 H 0.36537 0.46151 0.79439 0.0
C3265 C 0.37342 0.39777 0.83333 0.0
C3266 C 0.36351 0.37927 0.83692 0.0
C3267 C 0.34579 0.37202 0.82728 0.0
C3268 C 0.33774 0.3831 0.8145 0.0
C3269 C 0.34764 0.40145 0.81145 0.0
C3270 C 0.36524 0.40866 0.82042 0.0
C3271 C 0.37256 0.42905 0.81507 0.0
C3272 C 0.37449 0.44276 0.83098 0.0
C3273 C 0.39194 0.43058 0.80623 0.0
C3274 C 0.35621 0.43231 0.80193 0.0
C3275 C 0.34194 0.41622 0.80008 0.0
C3276 C 0.32497 0.41609 0.78935 0.0
C3277 C 0.32255 0.43271 0.78023 0.0
C3278 C 0.33705 0.44934 0.78171 0.0
C3279 C 0.35414 0.44898 0.79271 0.0
H3280 H 0.7231 0.62685 0.18486 0.0
H3281 H 0.71227 0.65685 0.23196 0.0
H3282 H 0.72686 0.63387 0.25025 0.0
H3283 H 0.71414 0.57939 0.20209 0.0
H3284 H 0.73344 0.57182 0.19079 0.0
H3285 H 0.72124 0.59005 0.18152 0.0
H3286 H 0.7544 0.61278 0.18048 0.0
H3287 H 0.7667 0.59464 0.18978 0.0
H3288 H 0.76997 0.61772 0.20035 0.0
H3289 H 0.74361 0.60768 0.2635 0.0
H3290 H 0.76093 0.58101 0.27038 0.0
H3291 H 0.76191 0.56901 0.21456 0.0
C3292 C 0.72387 0.62878 0.19901 0.0
C3293 C 0.71644 0.64386 0.20686 0.0
C3294 C 0.71751 0.64538 0.22551 0.0
C3295 C 0.72594 0.63243 0.23604 0.0
C3296 C 0.73334 0.61797 0.22782 0.0
C3297 C 0.73238 0.6161 0.20971 0.0
C3298 C 0.74176 0.59961 0.20406 0.0
C3299 C 0.72675 0.58431 0.19402 0.0
C3300 C 0.75924 0.60661 0.19301 0.0
C3301 C 0.74828 0.5925 0.22181 0.0
C3302 C 0.74319 0.6032 0.23538 0.0
C3303 C 0.7476 0.59922 0.25295 0.0
C3304 C 0.75738 0.58395 0.25674 0.0
C3305 C 0.76284 0.57281 0.24305 0.0
C3306 C 0.75819 0.5773 0.22536 0.0
H3307 H 0.69989 0.40538 0.84985 0.0
H3308 H 0.75306 0.38332 0.86228 0.0
H3309 H 0.77204 0.41169 0.84897 0.0
H3310 H 0.71175 0.42238 0.80805 0.0
H3311 H 0.70066 0.44322 0.8096 0.0
H3312 H 0.69158 0.42228 0.82171 0.0
H3313 H 0.69682 0.44202 0.85082 0.0
H3314 H 0.70575 0.46309 0.83878 0.0
H3315 H 0.72048 0.45585 0.85692 0.0
H3316 H 0.78471 0.44116 0.83204 0.0
H3317 H 0.79038 0.46999 0.81406 0.0
H3318 H 0.7287 0.47249 0.81259 0.0
C3319 C 0.71556 0.40657 0.8499 0.0
C3320 C 0.72501 0.39212 0.85707 0.0
C3321 C 0.74554 0.39431 0.85705 0.0
C3322 C 0.75641 0.41031 0.84942 0.0
C3323 C 0.74652 0.424 0.842 0.0
C3324 C 0.72656 0.42235 0.84234 0.0
C3325 C 0.71928 0.43857 0.83284 0.0
C3326 C 0.70498 0.43116 0.81712 0.0
C3327 C 0.71004 0.45059 0.8456 0.0
C3328 C 0.73822 0.44946 0.82679 0.0
C3329 C 0.75378 0.4409 0.83229 0.0
C3330 C 0.77266 0.44811 0.82787 0.0
C3331 C 0.77574 0.46457 0.81769 0.0
C3332 C 0.76001 0.47366 0.81198 0.0
C3333 C 0.74102 0.46588 0.81662 0.0
H3334 H 0.67877 0.74116 0.83664 0.0
H3335 H 0.64588 0.6864 0.84992 0.0
H3336 H 0.61514 0.69893 0.84502 0.0
H3337 H 0.64656 0.77056 0.85659 0.0
H3338 H 0.64948 0.78786 0.83935 0.0
H3339 H 0.66887 0.77506 0.84542 0.0
H3340 H 0.66887 0.76374 0.81305 0.0
H3341 H 0.64939 0.77636 0.80691 0.0
H3342 H 0.64659 0.75124 0.80215 0.0
H3343 H 0.5879 0.71639 0.83554 0.0
H3344 H 0.56624 0.73823 0.82438 0.0
H3345 H 0.61657 0.78219 0.81821 0.0
C3346 C 0.66509 0.73204 0.83897 0.0
C3347 C 0.66458 0.71293 0.84394 0.0
C3348 C 0.64649 0.70118 0.84641 0.0
C3349 C 0.62898 0.70816 0.84358 0.0
C3350 C 0.62984 0.72698 0.83836 0.0
C3351 C 0.64745 0.73886 0.8363 0.0
C3352 C 0.64424 0.75828 0.82993 0.0
C3353 C 0.6528 0.77386 0.84364 0.0
C3354 C 0.65278 0.76265 0.81194 0.0
C3355 C 0.62214 0.75535 0.82839 0.0
C3356 C 0.61412 0.73717 0.83328 0.0
C3357 C 0.59403 0.73074 0.83195 0.0
C3358 C 0.58183 0.74319 0.82552 0.0
C3359 C 0.58966 0.76195 0.82062 0.0
C3360 C 0.61012 0.76808 0.82222 0.0
H3361 H 0.34846 0.64476 0.78638 0.0
H3362 H 0.32943 0.64084 0.8396 0.0
H3363 H 0.31451 0.60702 0.83393 0.0
H3364 H 0.30676 0.61236 0.76509 0.0
H3365 H 0.32195 0.60262 0.75049 0.0
H3366 H 0.32869 0.62693 0.7582 0.0
H3367 H 0.36233 0.62018 0.77024 0.0
H3368 H 0.35571 0.59593 0.76256 0.0
H3369 H 0.36334 0.60101 0.7854 0.0
H3370 H 0.30381 0.57236 0.82255 0.0
H3371 H 0.29999 0.54092 0.80715 0.0
H3372 H 0.32769 0.56869 0.76246 0.0
C3373 C 0.34107 0.63685 0.79686 0.0
C3374 C 0.3402 0.64539 0.81346 0.0
C3375 C 0.33014 0.63461 0.82672 0.0
C3376 C 0.32165 0.61539 0.82361 0.0
C3377 C 0.32322 0.6073 0.80715 0.0
C3378 C 0.33266 0.61781 0.79401 0.0
C3379 C 0.33375 0.60576 0.77791 0.0
C3380 C 0.32209 0.61231 0.76199 0.0
C3381 C 0.35504 0.60572 0.7738 0.0
C3382 C 0.32404 0.58663 0.78418 0.0
C3383 C 0.31765 0.58769 0.80091 0.0
C3384 C 0.30867 0.57144 0.8094 0.0
C3385 C 0.30653 0.55369 0.80061 0.0
C3386 C 0.31375 0.55249 0.78378 0.0
C3387 C 0.32224 0.56921 0.77545 0.0
H3388 H 0.4305 0.30359 0.87782 0.0
H3389 H 0.39297 0.31266 0.83218 0.0
H3390 H 0.41377 0.29803 0.81311 0.0
H3391 H 0.47555 0.31347 0.85695 0.0
H3392 H 0.48611 0.29537 0.86846 0.0
H3393 H 0.46817 0.30636 0.87856 0.0
H3394 H 0.447 0.27322 0.88252 0.0
H3395 H 0.4649 0.26212 0.87245 0.0
H3396 H 0.43994 0.25764 0.86364 0.0
H3397 H 0.43908 0.28262 0.79881 0.0
H3398 H 0.46659 0.26773 0.79055 0.0
H3399 H 0.48755 0.26826 0.84546 0.0
C3400 C 0.42644 0.3023 0.86385 0.0
C3401 C 0.40996 0.30937 0.85659 0.0
C3402 C 0.40557 0.30764 0.83813 0.0
C3403 C 0.41726 0.29922 0.82717 0.0
C3404 C 0.43338 0.29249 0.83477 0.0
C3405 C 0.43796 0.2939 0.8527 0.0
C3406 C 0.45623 0.28574 0.85753 0.0
C3407 C 0.47248 0.30115 0.86586 0.0
C3408 C 0.45174 0.26866 0.86976 0.0
C3409 C 0.46124 0.27953 0.83952 0.0
C3410 C 0.44788 0.28357 0.82657 0.0
C3411 C 0.44961 0.27942 0.80887 0.0
C3412 C 0.4654 0.27103 0.80428 0.0
C3413 C 0.47939 0.26678 0.81729 0.0
C3414 C 0.47708 0.27106 0.83517 0.0
H3415 H 0.37139 0.42362 0.222 0.0
H3416 H 0.31895 0.38109 0.21656 0.0
H3417 H 0.29945 0.40527 0.22502 0.0
H3418 H 0.36044 0.44413 0.25998 0.0
H3419 H 0.37107 0.4682 0.25489 0.0
H3420 H 0.38001 0.44862 0.24535 0.0
H3421 H 0.37332 0.46116 0.21406 0.0
H3422 H 0.3645 0.48093 0.22353 0.0
H3423 H 0.34933 0.46558 0.2074 0.0
H3424 H 0.28646 0.43395 0.23783 0.0
H3425 H 0.28183 0.46312 0.25379 0.0
H3426 H 0.34329 0.48591 0.25111 0.0
C3427 C 0.35568 0.41964 0.2219 0.0
C3428 C 0.34652 0.40073 0.21815 0.0
C3429 C 0.3261 0.3957 0.21891 0.0
C3430 C 0.31496 0.40934 0.22379 0.0
C3431 C 0.32452 0.42789 0.22788 0.0
C3432 C 0.34447 0.43301 0.22683 0.0
C3433 C 0.35173 0.45314 0.23358 0.0
C3434 C 0.36668 0.45353 0.24938 0.0
C3435 C 0.36022 0.46596 0.21876 0.0
C3436 C 0.33293 0.45846 0.2391 0.0
C3437 C 0.31726 0.44392 0.23552 0.0
C3438 C 0.29863 0.44548 0.24044 0.0
C3439 C 0.29608 0.46212 0.24946 0.0
C3440 C 0.31215 0.47685 0.25369 0.0
C3441 C 0.33065 0.47498 0.24806 0.0
H3442 H 0.65523 0.34023 0.19237 0.0
H3443 H 0.68905 0.29664 0.1809 0.0
H3444 H 0.66004 0.27195 0.18398 0.0
H3445 H 0.63222 0.31615 0.22679 0.0
H3446 H 0.60937 0.32418 0.22244 0.0
H3447 H 0.63158 0.33851 0.21605 0.0
H3448 H 0.61705 0.33847 0.18385 0.0
H3449 H 0.59473 0.32412 0.19016 0.0
H3450 H 0.60767 0.31615 0.17263 0.0
H3451 H 0.62813 0.25175 0.19137 0.0
H3452 H 0.59702 0.23806 0.20409 0.0
H3453 H 0.58534 0.29482 0.21283 0.0
C3454 C 0.65661 0.32552 0.19037 0.0
C3455 C 0.67454 0.32049 0.18634 0.0
C3456 C 0.67546 0.30101 0.18364 0.0
C3457 C 0.65904 0.28682 0.18543 0.0
C3458 C 0.6418 0.29231 0.18997 0.0
C3459 C 0.64052 0.31122 0.19243 0.0
C3460 C 0.62108 0.31337 0.19911 0.0
C3461 C 0.62373 0.32365 0.21716 0.0
C3462 C 0.60945 0.32363 0.18563 0.0
C3463 C 0.61183 0.2927 0.20059 0.0
C3464 C 0.62378 0.28073 0.19487 0.0
C3465 C 0.61858 0.26099 0.19569 0.0
C3466 C 0.60089 0.25333 0.20286 0.0
C3467 C 0.58888 0.26542 0.2094 0.0
C3468 C 0.59431 0.2853 0.20793 0.0
H3469 H 0.4101 0.69221 0.1847 0.0
H3470 H 0.38174 0.74078 0.19167 0.0
H3471 H 0.41236 0.75887 0.20571 0.0
H3472 H 0.43373 0.69476 0.22494 0.0
H3473 H 0.45574 0.68766 0.2183 0.0
H3474 H 0.43323 0.68019 0.20545 0.0
H3475 H 0.44891 0.69519 0.17766 0.0
H3476 H 0.47161 0.70263 0.19043 0.0
H3477 H 0.46044 0.71986 0.17821 0.0
H3478 H 0.44382 0.76916 0.224 0.0
H3479 H 0.47358 0.77114 0.24377 0.0
H3480 H 0.48141 0.71593 0.2244 0.0
C3481 C 0.41053 0.70686 0.18871 0.0
C3482 C 0.39362 0.71514 0.18706 0.0
C3483 C 0.39464 0.73427 0.19256 0.0
C3484 C 0.41196 0.74463 0.2006 0.0
C3485 C 0.42817 0.73573 0.20276 0.0
C3486 C 0.42767 0.71735 0.19669 0.0
C3487 C 0.44622 0.71021 0.20227 0.0
C3488 C 0.44196 0.69215 0.2134 0.0
C3489 C 0.45746 0.70678 0.18618 0.0
C3490 C 0.45686 0.72704 0.2132 0.0
C3491 C 0.44638 0.74176 0.21313 0.0
C3492 C 0.45238 0.75793 0.22379 0.0
C3493 C 0.46928 0.75892 0.23502 0.0
C3494 C 0.47993 0.74377 0.23554 0.0
C3495 C 0.47384 0.72793 0.2241 0.0
loop_
_geom_bond_atom_site_label_1
_geom_bond_atom_site_label_2
_geom_bond_distance
_geom_bond_site_symmetry_2
_ccdc_geom_bond_type
H0 C3 0.929 . S
H1 C6 0.929 . S
H2 C8 0.930 . S
C3 H0 0.929 . S
C3 C4 1.398 . S
C3 C5 1.396 . S
C4 C3 1.398 . S
C4 C8 1.407 . S
C5 C3 1.396 . S
C5 C6 1.394 . S
C6 H1 0.929 . S
C6 C5 1.394 . S
C6 C7 1.382 . S
C7 C6 1.382 . S
C7 C8 1.392 . S
C7 N9 1.420 . S
C8 H2 0.930 . S
C8 C4 1.407 . S
C8 C7 1.392 . S
N9 C7 1.420 . S
N9 C10 1.244 . S
C10 N9 1.244 . S
H11 C14 0.929 . S
H12 C17 0.929 . S
H13 C19 0.930 . S
C14 H11 0.929 . S
C14 C15 1.398 . S
C14 C16 1.396 . S
C15 C14 1.398 . S
C15 C19 1.407 . S
C16 C14 1.396 . S
C16 C17 1.394 . S
C17 H12 0.929 . S
C17 C16 1.394 . S
C17 C18 1.382 . S
C18 C17 1.382 . S
C18 C19 1.392 . S
C18 N20 1.420 . S
C19 H13 0.930 . S
C19 C15 1.407 . S
C19 C18 1.392 . S
N20 C18 1.420 . S
N20 C21 1.244 . S
C21 N20 1.244 . S
H22 C25 0.929 . S
H23 C28 0.929 . S
H24 C30 0.930 . S
C25 H22 0.929 . S
C25 C26 1.398 . S
C25 C27 1.396 . S
C26 C25 1.398 . S
C26 C30 1.407 . S
C27 C25 1.396 . S
C27 C28 1.394 . S
C28 H23 0.929 . S
C28 C27 1.394 . S
C28 C29 1.382 . S
C29 C28 1.382 . S
C29 C30 1.392 . S
C29 N31 1.420 . S
C30 H24 0.930 . S
C30 C26 1.407 . S
C30 C29 1.392 . S
N31 C29 1.420 . S
N31 C32 1.244 . S
C32 N31 1.244 . S
H33 C36 0.929 . S
H34 C39 0.929 . S
H35 C41 0.930 . S
C36 H33 0.929 . S
C36 C37 1.398 . S
C36 C38 1.396 . S
C37 C36 1.398 . S
C37 C41 1.407 . S
C38 C36 1.396 . S
C38 C39 1.394 . S
C39 H34 0.929 . S
C39 C38 1.394 . S
C39 C40 1.382 . S
C40 C39 1.382 . S
C40 C41 1.392 . S
C40 N42 1.420 . S
C41 H35 0.930 . S
C41 C37 1.407 . S
C41 C40 1.392 . S
N42 C40 1.420 . S
N42 C43 1.244 . S
C43 N42 1.244 . S
H44 C47 0.929 . S
H45 C50 0.929 . S
H46 C52 0.930 . S
C47 H44 0.929 . S
C47 C48 1.398 . S
C47 C49 1.396 . S
C48 C47 1.398 . S
C48 C52 1.407 . S
C49 C47 1.396 . S
C49 C50 1.394 . S
C50 H45 0.929 . S
C50 C49 1.394 . S
C50 C51 1.382 . S
C51 C50 1.382 . S
C51 C52 1.392 . S
C51 N53 1.420 . S
C52 H46 0.930 . S
C52 C48 1.407 . S
C52 C51 1.392 . S
N53 C51 1.420 . S
N53 C54 1.244 . S
C54 N53 1.244 . S
H55 C58 0.929 . S
H56 C61 0.929 . S
H57 C63 0.930 . S
C58 H55 0.929 . S
C58 C59 1.398 . S
C58 C60 1.396 . S
C59 C58 1.398 . S
C59 C63 1.407 . S
C60 C58 1.396 . S
C60 C61 1.394 . S
C61 H56 0.929 . S
C61 C60 1.394 . S
C61 C62 1.382 . S
C62 C61 1.382 . S
C62 C63 1.392 . S
C62 N64 1.420 . S
C63 H57 0.930 . S
C63 C59 1.407 . S
C63 C62 1.392 . S
N64 C62 1.420 . S
N64 C65 1.244 . S
C65 N64 1.244 . S
H66 C69 0.929 . S
H67 C72 0.929 . S
H68 C74 0.930 . S
C69 H66 0.929 . S
C69 C70 1.398 . S
C69 C71 1.396 . S
C70 C69 1.398 . S
C70 C74 1.407 . S
C71 C69 1.396 . S
C71 C72 1.394 . S
C72 H67 0.929 . S
C72 C71 1.394 . S
C72 C73 1.382 . S
C73 C72 1.382 . S
C73 C74 1.392 . S
C73 N75 1.420 . S
C74 H68 0.930 . S
C74 C70 1.407 . S
C74 C73 1.392 . S
N75 C73 1.420 . S
N75 C76 1.244 . S
C76 N75 1.244 . S
H77 C80 0.929 . S
H78 C83 0.929 . S
H79 C85 0.930 . S
C80 H77 0.929 . S
C80 C81 1.398 . S
C80 C82 1.396 . S
C81 C80 1.398 . S
C81 C85 1.407 . S
C82 C80 1.396 . S
C82 C83 1.394 . S
C83 H78 0.929 . S
C83 C82 1.394 . S
C83 C84 1.382 . S
C84 C83 1.382 . S
C84 C85 1.392 . S
C84 N86 1.420 . S
C85 H79 0.930 . S
C85 C81 1.407 . S
C85 C84 1.392 . S
N86 C84 1.420 . S
N86 C87 1.244 . S
C87 N86 1.244 . S
H88 C91 0.929 . S
H89 C94 0.929 . S
H90 C96 0.930 . S
C91 H88 0.929 . S
C91 C92 1.398 . S
C91 C93 1.396 . S
C92 C91 1.398 . S
C92 C96 1.407 . S
C93 C91 1.396 . S
C93 C94 1.394 . S
C94 H89 0.929 . S
C94 C93 1.394 . S
C94 C95 1.382 . S
C95 C94 1.382 . S
C95 C96 1.392 . S
C95 N97 1.420 . S
C96 H90 0.930 . S
C96 C92 1.407 . S
C96 C95 1.392 . S
N97 C95 1.420 . S
N97 C98 1.244 . S
C98 N97 1.244 . S
H99 C102 0.929 . S
H100 C105 0.929 . S
H101 C107 0.930 . S
C102 H99 0.929 . S
C102 C103 1.398 . S
C102 C104 1.396 . S
C103 C102 1.398 . S
C103 C107 1.407 . S
C104 C102 1.396 . S
C104 C105 1.394 . S
C105 H100 0.929 . S
C105 C104 1.394 . S
C105 C106 1.382 . S
C106 C105 1.382 . S
C106 C107 1.392 . S
C106 N108 1.420 . S
C107 H101 0.930 . S
C107 C103 1.407 . S
C107 C106 1.392 . S
N108 C106 1.420 . S
N108 C109 1.244 . S
C109 N108 1.244 . S
H110 C113 0.929 . S
H111 C116 0.929 . S
H112 C118 0.930 . S
C113 H110 0.929 . S
C113 C114 1.398 . S
C113 C115 1.396 . S
C114 C113 1.398 . S
C114 C118 1.407 . S
C115 C113 1.396 . S
C115 C116 1.394 . S
C116 H111 0.929 . S
C116 C115 1.394 . S
C116 C117 1.382 . S
C117 C116 1.382 . S
C117 C118 1.392 . S
C117 N119 1.420 . S
C118 H112 0.930 . S
C118 C114 1.407 . S
C118 C117 1.392 . S
N119 C117 1.420 . S
N119 C120 1.244 . S
C120 N119 1.244 . S
H121 C124 0.929 . S
H122 C127 0.929 . S
H123 C129 0.930 . S
C124 H121 0.929 . S
C124 C125 1.398 . S
C124 C126 1.396 . S
C125 C124 1.398 . S
C125 C129 1.407 . S
C126 C124 1.396 . S
C126 C127 1.394 . S
C127 H122 0.929 . S
C127 C126 1.394 . S
C127 C128 1.382 . S
C128 C127 1.382 . S
C128 C129 1.392 . S
C128 N130 1.420 . S
C129 H123 0.930 . S
C129 C125 1.407 . S
C129 C128 1.392 . S
N130 C128 1.420 . S
N130 C131 1.244 . S
C131 N130 1.244 . S
H132 C135 0.929 . S
H133 C138 0.929 . S
H134 C140 0.930 . S
C135 H132 0.929 . S
C135 C136 1.398 . S
C135 C137 1.396 . S
C136 C135 1.398 . S
C136 C140 1.407 . S
C137 C135 1.396 . S
C137 C138 1.394 . S
C138 H133 0.929 . S
C138 C137 1.394 . S
C138 C139 1.382 . S
C139 C138 1.382 . S
C139 C140 1.392 . S
C139 N141 1.420 . S
C140 H134 0.930 . S
C140 C136 1.407 . S
C140 C139 1.392 . S
N141 C139 1.420 . S
N141 C142 1.244 . S
C142 N141 1.244 . S
H143 C146 0.929 . S
H144 C149 0.929 . S
H145 C151 0.930 . S
C146 H143 0.929 . S
C146 C147 1.398 . S
C146 C148 1.396 . S
C147 C146 1.398 . S
C147 C151 1.407 . S
C148 C146 1.396 . S
C148 C149 1.394 . S
C149 H144 0.929 . S
C149 C148 1.394 . S
C149 C150 1.382 . S
C150 C149 1.382 . S
C150 C151 1.392 . S
C150 N152 1.420 . S
C151 H145 0.930 . S
C151 C147 1.407 . S
C151 C150 1.392 . S
N152 C150 1.420 . S
N152 C153 1.244 . S
C153 N152 1.244 . S
H154 C157 0.929 . S
H155 C160 0.929 . S
H156 C162 0.930 . S
C157 H154 0.929 . S
C157 C158 1.398 . S
C157 C159 1.396 . S
C158 C157 1.398 . S
C158 C162 1.407 . S
C159 C157 1.396 . S
C159 C160 1.394 . S
C160 H155 0.929 . S
C160 C159 1.394 . S
C160 C161 1.382 . S
C161 C160 1.382 . S
C161 C162 1.392 . S
C161 N163 1.420 . S
C162 H156 0.930 . S
C162 C158 1.407 . S
C162 C161 1.392 . S
N163 C161 1.420 . S
N163 C164 1.244 . S
C164 N163 1.244 . S
H165 C168 0.929 . S
H166 C171 0.929 . S
H167 C173 0.930 . S
C168 H165 0.929 . S
C168 C169 1.398 . S
C168 C170 1.396 . S
C169 C168 1.398 . S
C169 C173 1.407 . S
C170 C168 1.396 . S
C170 C171 1.394 . S
C171 H166 0.929 . S
C171 C170 1.394 . S
C171 C172 1.382 . S
C172 C171 1.382 . S
C172 C173 1.392 . S
C172 N174 1.420 . S
C173 H167 0.930 . S
C173 C169 1.407 . S
C173 C172 1.392 . S
N174 C172 1.420 . S
N174 C175 1.244 . S
C175 N174 1.244 . S
H176 C179 0.929 . S
H177 C182 0.929 . S
H178 C184 0.930 . S
C179 H176 0.929 . S
C179 C180 1.398 . S
C179 C181 1.396 . S
C180 C179 1.398 . S
C180 C184 1.407 . S
C181 C179 1.396 . S
C181 C182 1.394 . S
C182 H177 0.929 . S
C182 C181 1.394 . S
C182 C183 1.382 . S
C183 C182 1.382 . S
C183 C184 1.392 . S
C183 N185 1.420 . S
C184 H178 0.930 . S
C184 C180 1.407 . S
C184 C183 1.392 . S
N185 C183 1.420 . S
N185 C186 1.244 . S
C186 N185 1.244 . S
H187 C190 0.929 . S
H188 C193 0.929 . S
H189 C195 0.930 . S
C190 H187 0.929 . S
C190 C191 1.398 . S
C190 C192 1.396 . S
C191 C190 1.398 . S
C191 C195 1.407 . S
C192 C190 1.396 . S
C192 C193 1.394 . S
C193 H188 0.929 . S
C193 C192 1.394 . S
C193 C194 1.382 . S
C194 C193 1.382 . S
C194 C195 1.392 . S
C194 N196 1.420 . S
C195 H189 0.930 . S
C195 C191 1.407 . S
C195 C194 1.392 . S
N196 C194 1.420 . S
N196 C197 1.244 . S
C197 N196 1.244 . S
H198 C201 0.929 . S
H199 C204 0.929 . S
H200 C206 0.930 . S
C201 H198 0.929 . S
C201 C202 1.398 . S
C201 C203 1.396 . S
C202 C201 1.398 . S
C202 C206 1.407 . S
C203 C201 1.396 . S
C203 C204 1.394 . S
C204 H199 0.929 . S
C204 C203 1.394 . S
C204 C205 1.382 . S
C205 C204 1.382 . S
C205 C206 1.392 . S
C205 N207 1.420 . S
C206 H200 0.930 . S
C206 C202 1.407 . S
C206 C205 1.392 . S
N207 C205 1.420 . S
N207 C208 1.244 . S
C208 N207 1.244 . S
H209 C212 0.929 . S
H210 C215 0.929 . S
H211 C217 0.930 . S
C212 H209 0.929 . S
C212 C213 1.398 . S
C212 C214 1.396 . S
C213 C212 1.398 . S
C213 C217 1.407 . S
C214 C212 1.396 . S
C214 C215 1.394 . S
C215 H210 0.929 . S
C215 C214 1.394 . S
C215 C216 1.382 . S
C216 C215 1.382 . S
C216 C217 1.392 . S
C216 N218 1.420 . S
C217 H211 0.930 . S
C217 C213 1.407 . S
C217 C216 1.392 . S
N218 C216 1.420 . S
N218 C219 1.244 . S
C219 N218 1.244 . S
H220 C223 0.929 . S
H221 C226 0.929 . S
H222 C228 0.930 . S
C223 H220 0.929 . S
C223 C224 1.398 . S
C223 C225 1.396 . S
C224 C223 1.398 . S
C224 C228 1.407 . S
C225 C223 1.396 . S
C225 C226 1.394 . S
C226 H221 0.929 . S
C226 C225 1.394 . S
C226 C227 1.382 . S
C227 C226 1.382 . S
C227 C228 1.392 . S
C227 N229 1.420 . S
C228 H222 0.930 . S
C228 C224 1.407 . S
C228 C227 1.392 . S
N229 C227 1.420 . S
N229 C230 1.244 . S
C230 N229 1.244 . S
H231 C234 0.929 . S
H232 C237 0.929 . S
H233 C239 0.930 . S
C234 H231 0.929 . S
C234 C235 1.398 . S
C234 C236 1.396 . S
C235 C234 1.398 . S
C235 C239 1.407 . S
C236 C234 1.396 . S
C236 C237 1.394 . S
C237 H232 0.929 . S
C237 C236 1.394 . S
C237 C238 1.382 . S
C238 C237 1.382 . S
C238 C239 1.392 . S
C238 N240 1.420 . S
C239 H233 0.930 . S
C239 C235 1.407 . S
C239 C238 1.392 . S
N240 C238 1.420 . S
N240 C241 1.244 . S
C241 N240 1.244 . S
H242 C245 0.929 . S
H243 C248 0.929 . S
H244 C250 0.930 . S
C245 H242 0.929 . S
C245 C246 1.398 . S
C245 C247 1.396 . S
C246 C245 1.398 . S
C246 C250 1.407 . S
C247 C245 1.396 . S
C247 C248 1.394 . S
C248 H243 0.929 . S
C248 C247 1.394 . S
C248 C249 1.382 . S
C249 C248 1.382 . S
C249 C250 1.392 . S
C249 N251 1.420 . S
C250 H244 0.930 . S
C250 C246 1.407 . S
C250 C249 1.392 . S
N251 C249 1.420 . S
N251 C252 1.244 . S
C252 N251 1.244 . S
H253 C256 0.929 . S
H254 C259 0.929 . S
H255 C261 0.930 . S
C256 H253 0.929 . S
C256 C257 1.398 . S
C256 C258 1.396 . S
C257 C256 1.398 . S
C257 C261 1.407 . S
C258 C256 1.396 . S
C258 C259 1.394 . S
C259 H254 0.929 . S
C259 C258 1.394 . S
C259 C260 1.382 . S
C260 C259 1.382 . S
C260 C261 1.392 . S
C260 N262 1.420 . S
C261 H255 0.930 . S
C261 C257 1.407 . S
C261 C260 1.392 . S
N262 C260 1.420 . S
N262 C263 1.244 . S
C263 N262 1.244 . S
H264 C267 0.929 . S
H265 C270 0.929 . S
H266 C272 0.930 . S
C267 H264 0.929 . S
C267 C268 1.398 . S
C267 C269 1.396 . S
C268 C267 1.398 . S
C268 C272 1.407 . S
C269 C267 1.396 . S
C269 C270 1.394 . S
C270 H265 0.929 . S
C270 C269 1.394 . S
C270 C271 1.382 . S
C271 C270 1.382 . S
C271 C272 1.392 . S
C271 N273 1.420 . S
C272 H266 0.930 . S
C272 C268 1.407 . S
C272 C271 1.392 . S
N273 C271 1.420 . S
N273 C274 1.244 . S
C274 N273 1.244 . S
H275 C278 0.929 . S
H276 C281 0.929 . S
H277 C283 0.930 . S
C278 H275 0.929 . S
C278 C279 1.398 . S
C278 C280 1.396 . S
C279 C278 1.398 . S
C279 C283 1.407 . S
C280 C278 1.396 . S
C280 C281 1.394 . S
C281 H276 0.929 . S
C281 C280 1.394 . S
C281 C282 1.382 . S
C282 C281 1.382 . S
C282 C283 1.392 . S
C282 N284 1.420 . S
C283 H277 0.930 . S
C283 C279 1.407 . S
C283 C282 1.392 . S
N284 C282 1.420 . S
N284 C285 1.244 . S
C285 N284 1.244 . S
H286 C289 0.929 . S
H287 C292 0.929 . S
H288 C294 0.930 . S
C289 H286 0.929 . S
C289 C290 1.398 . S
C289 C291 1.396 . S
C290 C289 1.398 . S
C290 C294 1.407 . S
C291 C289 1.396 . S
C291 C292 1.394 . S
C292 H287 0.929 . S
C292 C291 1.394 . S
C292 C293 1.382 . S
C293 C292 1.382 . S
C293 C294 1.392 . S
C293 N295 1.420 . S
C294 H288 0.930 . S
C294 C290 1.407 . S
C294 C293 1.392 . S
N295 C293 1.420 . S
N295 C296 1.244 . S
C296 N295 1.244 . S
H297 C300 0.929 . S
H298 C303 0.929 . S
H299 C305 0.930 . S
C300 H297 0.929 . S
C300 C301 1.398 . S
C300 C302 1.396 . S
C301 C300 1.398 . S
C301 C305 1.407 . S
C302 C300 1.396 . S
C302 C303 1.394 . S
C303 H298 0.929 . S
C303 C302 1.394 . S
C303 C304 1.382 . S
C304 C303 1.382 . S
C304 C305 1.392 . S
C304 N306 1.420 . S
C305 H299 0.930 . S
C305 C301 1.407 . S
C305 C304 1.392 . S
N306 C304 1.420 . S
N306 C307 1.244 . S
C307 N306 1.244 . S
H308 C311 0.929 . S
H309 C314 0.929 . S
H310 C316 0.930 . S
C311 H308 0.929 . S
C311 C312 1.398 . S
C311 C313 1.396 . S
C312 C311 1.398 . S
C312 C316 1.407 . S
C313 C311 1.396 . S
C313 C314 1.394 . S
C314 H309 0.929 . S
C314 C313 1.394 . S
C314 C315 1.382 . S
C315 C314 1.382 . S
C315 C316 1.392 . S
C315 N317 1.420 . S
C316 H310 0.930 . S
C316 C312 1.407 . S
C316 C315 1.392 . S
N317 C315 1.420 . S
N317 C318 1.244 . S
C318 N317 1.244 . S
H319 C322 0.929 . S
H320 C325 0.929 . S
H321 C327 0.930 . S
C322 H319 0.929 . S
C322 C323 1.398 . S
C322 C324 1.396 . S
C323 C322 1.398 . S
C323 C327 1.407 . S
C324 C322 1.396 . S
C324 C325 1.394 . S
C325 H320 0.929 . S
C325 C324 1.394 . S
C325 C326 1.382 . S
C326 C325 1.382 . S
C326 C327 1.392 . S
C326 N328 1.420 . S
C327 H321 0.930 . S
C327 C323 1.407 . S
C327 C326 1.392 . S
N328 C326 1.420 . S
N328 C329 1.244 . S
C329 N328 1.244 . S
H330 C333 0.929 . S
H331 C336 0.929 . S
H332 C338 0.930 . S
C333 H330 0.929 . S
C333 C334 1.398 . S
C333 C335 1.396 . S
C334 C333 1.398 . S
C334 C338 1.407 . S
C335 C333 1.396 . S
C335 C336 1.394 . S
C336 H331 0.929 . S
C336 C335 1.394 . S
C336 C337 1.382 . S
C337 C336 1.382 . S
C337 C338 1.392 . S
C337 N339 1.420 . S
C338 H332 0.930 . S
C338 C334 1.407 . S
C338 C337 1.392 . S
N339 C337 1.420 . S
N339 C340 1.244 . S
C340 N339 1.244 . S
H341 C344 0.929 . S
H342 C347 0.929 . S
H343 C349 0.930 . S
C344 H341 0.929 . S
C344 C345 1.398 . S
C344 C346 1.396 . S
C345 C344 1.398 . S
C345 C349 1.407 . S
C346 C344 1.396 . S
C346 C347 1.394 . S
C347 H342 0.929 . S
C347 C346 1.394 . S
C347 C348 1.382 . S
C348 C347 1.382 . S
C348 C349 1.392 . S
C348 N350 1.420 . S
C349 H343 0.930 . S
C349 C345 1.407 . S
C349 C348 1.392 . S
N350 C348 1.420 . S
N350 C351 1.244 . S
C351 N350 1.244 . S
Cu352 N353 1.999 . S
Cu352 O358 1.974 1_554 S
Cu352 N363 1.985 . S
Cu352 O372 1.959 . S
N353 Cu352 1.999 . S
N353 C355 1.263 1_554 S
N353 C357 1.389 . S
N354 C355 1.358 . S
N354 C356 1.400 . S
C355 N353 1.263 1_556 S
C355 N354 1.358 . S
C355 H361 0.930 . S
C356 N354 1.400 . S
C356 C357 1.351 1_556 S
C356 H373 0.930 . S
C357 N353 1.389 . S
C357 C356 1.351 1_554 S
C357 H362 0.930 . S
O358 Cu352 1.974 1_556 S
O358 C368 1.282 . S
C359 O360 1.261 . S
C359 O372 1.251 . S
O360 C359 1.261 . S
H361 C355 0.930 . S
H362 C357 0.930 . S
N363 Cu352 1.985 . S
N363 C365 1.335 . S
N363 C366 1.390 . S
N364 C365 1.345 . S
N364 C367 1.336 . S
C365 N363 1.335 . S
C365 N364 1.345 . S
C365 H370 0.930 . S
C366 N363 1.390 . S
C366 C367 1.346 . S
C366 H371 0.930 . S
C367 N364 1.336 . S
C367 C366 1.346 . S
C367 H374 0.929 . S
C368 O358 1.282 . S
C368 O369 1.216 . S
O369 C368 1.216 . S
H370 C365 0.930 . S
H371 C366 0.930 . S
O372 Cu352 1.959 . S
O372 C359 1.251 . S
H373 C356 0.930 . S
H374 C367 0.929 . S
Cu375 N376 1.999 . S
Cu375 O381 1.974 . S
Cu375 N386 2.025 . S
Cu375 O395 1.959 1_554 S
N376 Cu375 1.999 . S
N376 C378 1.263 . S
N376 C380 1.389 . S
N377 C378 1.358 . S
N377 C379 1.400 . S
C378 N376 1.263 . S
C378 N377 1.358 . S
C378 H384 0.930 . S
C379 N377 1.400 . S
C379 C380 1.351 . S
C379 H396 0.930 . S
C380 N376 1.389 . S
C380 C379 1.351 . S
C380 H385 0.930 . S
O381 Cu375 1.974 . S
O381 C391 1.282 . S
C382 O383 1.264 . S
C382 O395 1.251 . S
O383 C382 1.264 . S
H384 C378 0.930 . S
H385 C380 0.930 . S
N386 Cu375 2.025 . S
N386 C388 1.274 1_554 S
N386 C389 1.405 . S
N387 C388 1.345 . S
N387 C390 1.336 . S
C388 N386 1.274 1_556 S
C388 N387 1.345 . S
C388 H393 0.930 . S
C389 N386 1.405 . S
C389 C390 1.346 1_554 S
C389 H394 0.930 . S
C390 N387 1.336 . S
C390 C389 1.346 1_556 S
C390 H397 0.929 . S
C391 O381 1.282 . S
C391 O392 1.216 . S
O392 C391 1.216 . S
H393 C388 0.930 . S
H394 C389 0.930 . S
O395 Cu375 1.959 1_556 S
O395 C382 1.251 . S
H396 C379 0.930 . S
H397 C390 0.929 . S
Cu398 N399 1.999 1_554 S
Cu398 O404 1.974 1_554 S
Cu398 N409 1.985 . S
Cu398 O418 1.959 . S
N399 Cu398 1.999 1_556 S
N399 C401 1.263 . S
N399 C403 1.389 . S
N400 C401 1.358 . S
N400 C402 1.400 . S
C401 N399 1.263 . S
C401 N400 1.358 . S
C401 H407 0.930 . S
C402 N400 1.400 . S
C402 C403 1.351 . S
C402 H419 0.930 . S
C403 N399 1.389 . S
C403 C402 1.351 . S
C403 H408 0.930 1_556 S
O404 Cu398 1.974 1_556 S
O404 C414 1.282 . S
C405 O406 1.261 . S
C405 O418 1.251 . S
O406 C405 1.261 . S
H407 C401 0.930 . S
H408 C403 0.930 1_554 S
N409 Cu398 1.985 . S
N409 C411 1.335 . S
N409 C412 1.390 . S
N410 C411 1.345 . S
N410 C413 1.336 . S
C411 N409 1.335 . S
C411 N410 1.345 . S
C411 H416 0.930 . S
C412 N409 1.390 . S
C412 C413 1.346 . S
C412 H417 0.930 . S
C413 N410 1.336 . S
C413 C412 1.346 . S
C413 H420 0.929 . S
C414 O404 1.282 . S
C414 O415 1.216 . S
O415 C414 1.216 . S
H416 C411 0.930 . S
H417 C412 0.930 . S
O418 Cu398 1.959 . S
O418 C405 1.251 . S
H419 C402 0.930 . S
H420 C413 0.929 . S
Cu421 N422 1.999 . S
Cu421 O427 1.974 . S
Cu421 N432 1.985 1_554 S
Cu421 O441 1.959 1_554 S
N422 Cu421 1.999 . S
N422 C424 1.263 . S
N422 C426 1.389 . S
N423 C424 1.358 . S
N423 C425 1.400 . S
C424 N422 1.263 . S
C424 N423 1.358 . S
C424 H430 0.930 . S
C425 N423 1.400 . S
C425 C426 1.351 . S
C425 H442 0.930 . S
C426 N422 1.389 . S
C426 C425 1.351 . S
C426 H431 0.930 . S
O427 Cu421 1.974 . S
O427 C437 1.282 . S
C428 O429 1.261 . S
C428 O441 1.251 . S
O429 C428 1.261 . S
H430 C424 0.930 . S
H431 C426 0.930 . S
N432 Cu421 1.985 1_556 S
N432 C434 1.335 . S
N432 C435 1.390 . S
N433 C434 1.345 . S
N433 C436 1.336 . S
C434 N432 1.335 . S
C434 N433 1.345 . S
C434 H439 0.930 . S
C435 N432 1.390 . S
C435 C436 1.346 . S
C435 H440 0.930 1_556 S
C436 N433 1.336 . S
C436 C435 1.346 . S
C436 H443 0.929 . S
C437 O427 1.282 . S
C437 O438 1.216 . S
O438 C437 1.216 . S
H439 C434 0.930 . S
H440 C435 0.930 1_554 S
O441 Cu421 1.959 1_556 S
O441 C428 1.251 . S
H442 C425 0.930 . S
H443 C436 0.929 . S
Cu444 N445 1.999 . S
Cu444 O450 1.974 . S
Cu444 N455 1.985 . S
Cu444 O464 1.959 1_455 S
N445 Cu444 1.999 . S
N445 C447 1.263 . S
N445 C449 1.389 . S
N446 C447 1.358 . S
N446 C448 1.400 . S
C447 N445 1.263 . S
C447 N446 1.358 . S
C447 H453 0.930 . S
C448 N446 1.400 . S
C448 C449 1.351 . S
C448 H465 0.930 . S
C449 N445 1.389 . S
C449 C448 1.351 . S
C449 H454 0.930 . S
O450 Cu444 1.974 . S
O450 C460 1.282 . S
C451 O452 1.261 . S
C451 O464 1.251 . S
O452 C451 1.261 . S
H453 C447 0.930 . S
H454 C449 0.930 . S
N455 Cu444 1.985 . S
N455 C457 1.335 1_455 S
N455 C458 1.390 . S
N456 C457 1.345 . S
N456 C459 1.336 . S
C457 N455 1.335 1_655 S
C457 N456 1.345 . S
C457 H462 0.930 . S
C458 N455 1.390 . S
C458 C459 1.346 1_455 S
C458 H463 0.930 . S
C459 N456 1.336 . S
C459 C458 1.346 1_655 S
C459 H466 0.929 . S
C460 O450 1.282 . S
C460 O461 1.216 . S
O461 C460 1.216 . S
H462 C457 0.930 . S
H463 C458 0.930 . S
O464 Cu444 1.959 1_655 S
O464 C451 1.251 . S
H465 C448 0.930 . S
H466 C459 0.929 . S
Cu467 N468 1.999 . S
Cu467 O473 1.974 . S
Cu467 N478 1.985 1_545 S
Cu467 O487 1.959 1_545 S
N468 Cu467 1.999 . S
N468 C470 1.263 . S
N468 C472 1.389 . S
N469 C470 1.358 . S
N469 C471 1.400 . S
C470 N468 1.263 . S
C470 N469 1.358 . S
C470 H476 0.930 . S
C471 N469 1.400 . S
C471 C472 1.351 . S
C471 H488 0.930 . S
C472 N468 1.389 . S
C472 C471 1.351 . S
C472 H477 0.930 . S
O473 Cu467 1.974 . S
O473 C483 1.282 . S
C474 O475 1.261 . S
C474 O487 1.251 . S
O475 C474 1.261 . S
H476 C470 0.930 . S
H477 C472 0.930 . S
N478 Cu467 1.985 1_565 S
N478 C480 1.335 . S
N478 C481 1.390 . S
N479 C480 1.345 . S
N479 C482 1.336 . S
C480 N478 1.335 . S
C480 N479 1.345 . S
C480 H485 0.930 . S
C481 N478 1.390 . S
C481 C482 1.346 . S
C481 H486 0.911 1_565 S
C482 N479 1.336 . S
C482 C481 1.346 . S
C482 H489 0.929 . S
C483 O473 1.282 . S
C483 O484 1.216 . S
O484 C483 1.216 . S
H485 C480 0.930 . S
H486 C481 0.911 1_545 S
O487 Cu467 1.959 1_565 S
O487 C474 1.251 . S
H488 C471 0.930 . S
H489 C482 0.929 . S
Cu490 N491 1.999 . S
Cu490 O496 1.974 . S
Cu490 N501 1.985 1_655 S
Cu490 O510 1.959 1_655 S
N491 Cu490 1.999 . S
N491 C493 1.263 . S
N491 C495 1.389 . S
N492 C493 1.358 . S
N492 C494 1.400 . S
C493 N491 1.263 . S
C493 N492 1.358 . S
C493 H499 0.930 . S
C494 N492 1.400 . S
C494 C495 1.351 . S
C494 H511 0.930 . S
C495 N491 1.389 . S
C495 C494 1.351 . S
C495 H500 0.930 . S
O496 Cu490 1.974 . S
O496 C506 1.282 . S
C497 O498 1.261 . S
C497 O510 1.251 . S
O498 C497 1.261 . S
H499 C493 0.930 . S
H500 C495 0.930 . S
N501 Cu490 1.985 1_455 S
N501 C503 1.335 . S
N501 C504 1.390 . S
N502 C503 1.345 . S
N502 C505 1.336 . S
C503 N501 1.335 . S
C503 N502 1.345 . S
C503 H508 0.930 . S
C504 N501 1.390 . S
C504 C505 1.346 . S
C504 H509 0.894 1_455 S
C505 N502 1.336 . S
C505 C504 1.346 . S
C505 H512 0.929 . S
C506 O496 1.282 . S
C506 O507 1.216 . S
O507 C506 1.216 . S
H508 C503 0.930 . S
H509 C504 0.894 1_655 S
O510 Cu490 1.959 1_455 S
O510 C497 1.251 . S
H511 C494 0.930 . S
H512 C505 0.929 . S
Cu513 N514 1.999 . S
Cu513 O519 1.974 . S
Cu513 N524 1.985 1_545 S
Cu513 O533 1.959 1_545 S
N514 Cu513 1.999 . S
N514 C516 1.263 . S
N514 C518 1.389 . S
N515 C516 1.358 . S
N515 C517 1.400 . S
C516 N514 1.263 . S
C516 N515 1.358 . S
C516 H522 0.930 . S
C517 N515 1.400 . S
C517 C518 1.351 . S
C517 H534 0.930 . S
C518 N514 1.389 . S
C518 C517 1.351 . S
C518 H523 0.930 . S
O519 Cu513 1.974 . S
O519 C529 1.282 . S
C520 O521 1.261 . S
C520 O533 1.251 . S
O521 C520 1.261 . S
H522 C516 0.930 . S
H523 C518 0.930 . S
N524 Cu513 1.985 1_565 S
N524 C526 1.335 . S
N524 C527 1.390 . S
N525 C526 1.345 . S
N525 C528 1.336 . S
C526 N524 1.335 . S
C526 N525 1.345 . S
C526 H531 0.930 . S
C527 N524 1.390 . S
C527 C528 1.346 . S
C527 H532 0.930 . S
C528 N525 1.336 . S
C528 C527 1.346 . S
C528 H535 0.929 . S
C529 O519 1.282 . S
C529 O530 1.216 . S
O530 C529 1.216 . S
H531 C526 0.930 . S
H532 C527 0.930 . S
O533 Cu513 1.959 1_565 S
O533 C520 1.251 . S
H534 C517 0.930 . S
H535 C528 0.929 . S
Cu536 N537 1.999 . S
Cu536 O542 1.974 . S
Cu536 N547 1.985 . S
Cu536 O556 1.959 1_455 S
N537 Cu536 1.999 . S
N537 C539 1.263 . S
N537 C541 1.389 . S
N538 C539 1.358 . S
N538 C540 1.400 . S
C539 N537 1.263 . S
C539 N538 1.358 . S
C539 H545 0.930 . S
C540 N538 1.400 . S
C540 C541 1.351 . S
C540 H557 0.930 . S
C541 N537 1.389 . S
C541 C540 1.351 . S
C541 H546 0.930 . S
O542 Cu536 1.974 . S
O542 C552 1.282 . S
C543 O544 1.261 . S
C543 O556 1.251 . S
O544 C543 1.261 . S
H545 C539 0.930 . S
H546 C541 0.930 . S
N547 Cu536 1.985 . S
N547 C549 1.335 1_455 S
N547 C550 1.390 . S
N548 C549 1.345 . S
N548 C551 1.336 . S
C549 N547 1.335 1_655 S
C549 N548 1.345 . S
C549 H554 0.930 . S
C550 N547 1.390 . S
C550 C551 1.346 1_455 S
C550 H555 0.930 . S
C551 N548 1.336 . S
C551 C550 1.346 1_655 S
C551 H558 0.929 . S
C552 O542 1.282 . S
C552 O553 1.216 . S
O553 C552 1.216 . S
H554 C549 0.930 . S
H555 C550 0.930 . S
O556 Cu536 1.959 1_655 S
O556 C543 1.251 . S
H557 C540 0.930 . S
H558 C551 0.929 . S
Cu559 N560 1.999 . S
Cu559 O565 1.974 . S
Cu559 N570 1.985 1_545 S
Cu559 O579 1.959 1_545 S
N560 Cu559 1.999 . S
N560 C562 1.263 . S
N560 C564 1.389 . S
N561 C562 1.358 . S
N561 C563 1.400 . S
C562 N560 1.263 . S
C562 N561 1.358 . S
C562 H568 0.930 . S
C563 N561 1.400 . S
C563 C564 1.351 . S
C563 H580 0.930 . S
C564 N560 1.389 . S
C564 C563 1.351 . S
C564 H569 0.930 . S
O565 Cu559 1.974 . S
O565 C575 1.282 . S
C566 O567 1.261 1_565 S
C566 O579 1.251 . S
O567 C566 1.261 1_545 S
H568 C562 0.930 . S
H569 C564 0.930 . S
N570 Cu559 1.985 1_565 S
N570 C572 1.335 . S
N570 C573 1.390 . S
N571 C572 1.345 . S
N571 C574 1.336 . S
C572 N570 1.335 . S
C572 N571 1.345 . S
C572 H577 0.930 . S
C573 N570 1.390 . S
C573 C574 1.346 . S
C573 H578 0.930 1_565 S
C574 N571 1.336 . S
C574 C573 1.346 . S
C574 H581 0.929 . S
C575 O565 1.282 . S
C575 O576 1.216 . S
O576 C575 1.216 . S
H577 C572 0.930 . S
H578 C573 0.930 1_545 S
O579 Cu559 1.959 1_565 S
O579 C566 1.251 . S
H580 C563 0.930 . S
H581 C574 0.929 . S
Cu582 N583 1.999 . S
Cu582 O588 1.974 . S
Cu582 N593 1.985 . S
Cu582 O602 1.959 . S
N583 Cu582 1.999 . S
N583 C585 1.263 1_455 S
N583 C587 1.389 . S
N584 C585 1.358 . S
N584 C586 1.421 . S
C585 N583 1.263 1_655 S
C585 N584 1.358 . S
C585 H591 0.930 . S
C586 N584 1.421 . S
C586 C587 1.324 1_655 S
C586 H603 0.937 . S
C587 N583 1.389 . S
C587 C586 1.324 1_455 S
C587 H592 0.930 . S
O588 Cu582 1.974 . S
O588 C598 1.275 1_455 S
C589 O590 1.261 . S
C589 O602 1.251 . S
O590 C589 1.261 . S
H591 C585 0.930 . S
H592 C587 0.930 . S
N593 Cu582 1.985 . S
N593 C595 1.335 . S
N593 C596 1.390 . S
N594 C595 1.345 . S
N594 C597 1.336 . S
C595 N593 1.335 . S
C595 N594 1.345 . S
C595 H600 0.930 . S
C596 N593 1.390 . S
C596 C597 1.346 . S
C596 H601 0.930 . S
C597 N594 1.336 . S
C597 C596 1.346 . S
C597 H604 0.929 . S
C598 O588 1.275 1_655 S
C598 O599 1.210 1_655 S
O599 C598 1.210 1_455 S
H600 C595 0.930 . S
H601 C596 0.930 . S
O602 Cu582 1.959 . S
O602 C589 1.251 . S
H603 C586 0.937 . S
H604 C597 0.929 . S
Cu605 N606 1.999 . S
Cu605 O611 1.974 . S
Cu605 N616 1.997 . S
Cu605 O625 1.959 . S
N606 Cu605 1.999 . S
N606 C608 1.263 . S
N606 C610 1.389 . S
N607 C608 1.358 . S
N607 C609 1.400 . S
C608 N606 1.263 . S
C608 N607 1.358 . S
C608 H614 0.930 . S
C609 N607 1.400 . S
C609 C610 1.351 . S
C609 H626 0.930 . S
C610 N606 1.389 . S
C610 C609 1.351 . S
C610 H615 0.930 . S
O611 Cu605 1.974 . S
O611 C621 1.282 . S
C612 O613 1.261 1_565 S
C612 O625 1.251 1_565 S
O613 C612 1.261 1_545 S
H614 C608 0.930 . S
H615 C610 0.930 . S
N616 Cu605 1.997 . S
N616 C618 1.315 1_545 S
N616 C619 1.388 . S
N617 C618 1.345 . S
N617 C620 1.336 . S
C618 N616 1.315 1_565 S
C618 N617 1.345 . S
C618 H623 0.930 . S
C619 N616 1.388 . S
C619 C620 1.321 1_545 S
C619 H624 0.957 . S
C620 N617 1.336 . S
C620 C619 1.321 1_565 S
C620 H627 0.929 . S
C621 O611 1.282 . S
C621 O622 1.216 . S
O622 C621 1.216 . S
H623 C618 0.930 . S
H624 C619 0.957 . S
O625 Cu605 1.959 . S
O625 C612 1.251 1_545 S
H626 C609 0.930 . S
H627 C620 0.929 . S
Cu628 N629 1.999 . S
Cu628 O634 1.974 . S
Cu628 N639 1.985 . S
Cu628 O648 1.959 . S
N629 Cu628 1.999 . S
N629 C631 1.263 . S
N629 C633 1.389 . S
N630 C631 1.358 . S
N630 C632 1.400 . S
C631 N629 1.263 . S
C631 N630 1.358 . S
C631 H637 0.930 . S
C632 N630 1.400 . S
C632 C633 1.351 . S
C632 H649 0.930 . S
C633 N629 1.389 . S
C633 C632 1.351 . S
C633 H638 0.930 . S
O634 Cu628 1.974 . S
O634 C644 1.282 . S
C635 O636 1.261 . S
C635 O648 1.251 . S
O636 C635 1.261 . S
H637 C631 0.930 . S
H638 C633 0.930 . S
N639 Cu628 1.985 . S
N639 C641 1.335 . S
N639 C642 1.390 . S
N640 C641 1.345 . S
N640 C643 1.336 . S
C641 N639 1.335 . S
C641 N640 1.345 . S
C641 H646 0.930 . S
C642 N639 1.390 . S
C642 C643 1.346 . S
C642 H647 0.930 . S
C643 N640 1.336 . S
C643 C642 1.346 . S
C643 H650 0.929 . S
C644 O634 1.282 . S
C644 O645 1.216 . S
O645 C644 1.216 . S
H646 C641 0.930 . S
H647 C642 0.930 . S
O648 Cu628 1.959 . S
O648 C635 1.251 . S
H649 C632 0.930 . S
H650 C643 0.929 . S
Cu651 N652 1.999 . S
Cu651 O657 1.974 . S
Cu651 N662 1.985 . S
Cu651 O671 1.959 . S
N652 Cu651 1.999 . S
N652 C654 1.263 . S
N652 C656 1.389 . S
N653 C654 1.358 . S
N653 C655 1.400 . S
C654 N652 1.263 . S
C654 N653 1.358 . S
C654 H660 0.930 . S
C655 N653 1.400 . S
C655 C656 1.351 . S
C655 H672 0.930 . S
C656 N652 1.389 . S
C656 C655 1.351 . S
C656 H661 0.930 . S
O657 Cu651 1.974 . S
O657 C667 1.282 . S
C658 O659 1.261 . S
C658 O671 1.251 . S
O659 C658 1.261 . S
H660 C654 0.930 . S
H661 C656 0.930 . S
N662 Cu651 1.985 . S
N662 C664 1.335 . S
N662 C665 1.390 . S
N663 C664 1.345 . S
N663 C666 1.336 . S
C664 N662 1.335 . S
C664 N663 1.345 . S
C664 H669 0.930 . S
C665 N662 1.390 . S
C665 C666 1.346 . S
C665 H670 0.930 . S
C666 N663 1.336 . S
C666 C665 1.346 . S
C666 H673 0.929 . S
C667 O657 1.282 . S
C667 O668 1.216 . S
O668 C667 1.216 . S
H669 C664 0.930 . S
H670 C665 0.930 . S
O671 Cu651 1.959 . S
O671 C658 1.251 . S
H672 C655 0.930 . S
H673 C666 0.929 . S
Cu674 N675 1.999 . S
Cu674 O680 1.974 . S
Cu674 N685 1.985 . S
Cu674 O694 1.959 . S
N675 Cu674 1.999 . S
N675 C677 1.263 . S
N675 C679 1.389 . S
N676 C677 1.358 . S
N676 C678 1.400 . S
C677 N675 1.263 . S
C677 N676 1.358 . S
C677 H683 0.930 . S
C678 N676 1.400 . S
C678 C679 1.351 . S
C678 H695 0.930 . S
C679 N675 1.389 . S
C679 C678 1.351 . S
C679 H684 0.930 . S
O680 Cu674 1.974 . S
O680 C690 1.282 . S
C681 O682 1.261 . S
C681 O694 1.251 . S
O682 C681 1.261 . S
H683 C677 0.930 . S
H684 C679 0.930 . S
N685 Cu674 1.985 . S
N685 C687 1.335 . S
N685 C688 1.390 . S
N686 C687 1.345 . S
N686 C689 1.336 . S
C687 N685 1.335 . S
C687 N686 1.345 . S
C687 H692 0.930 . S
C688 N685 1.390 . S
C688 C689 1.346 . S
C688 H693 0.930 . S
C689 N686 1.336 . S
C689 C688 1.346 . S
C689 H696 0.929 . S
C690 O680 1.282 . S
C690 O691 1.216 . S
O691 C690 1.216 . S
H692 C687 0.930 . S
H693 C688 0.930 . S
O694 Cu674 1.959 . S
O694 C681 1.251 . S
H695 C678 0.930 . S
H696 C689 0.929 . S
Cu697 N698 1.999 . S
Cu697 O703 1.974 . S
Cu697 N708 1.985 . S
Cu697 O717 1.959 . S
N698 Cu697 1.999 . S
N698 C700 1.263 . S
N698 C702 1.389 . S
N699 C700 1.358 . S
N699 C701 1.400 . S
C700 N698 1.263 . S
C700 N699 1.358 . S
C700 H706 0.930 . S
C701 N699 1.400 . S
C701 C702 1.351 . S
C701 H718 0.930 . S
C702 N698 1.389 . S
C702 C701 1.351 . S
C702 H707 0.930 . S
O703 Cu697 1.974 . S
O703 C713 1.282 . S
C704 O705 1.261 . S
C704 O717 1.251 . S
O705 C704 1.261 . S
H706 C700 0.930 . S
H707 C702 0.930 . S
N708 Cu697 1.985 . S
N708 C710 1.335 . S
N708 C711 1.390 . S
N709 C710 1.345 . S
N709 C712 1.336 . S
C710 N708 1.335 . S
C710 N709 1.345 . S
C710 H715 0.930 . S
C711 N708 1.390 . S
C711 C712 1.346 . S
C711 H716 0.930 . S
C712 N709 1.336 . S
C712 C711 1.346 . S
C712 H719 0.929 . S
C713 O703 1.282 . S
C713 O714 1.216 . S
O714 C713 1.216 . S
H715 C710 0.930 . S
H716 C711 0.930 . S
O717 Cu697 1.959 . S
O717 C704 1.251 . S
H718 C701 0.930 . S
H719 C712 0.929 . S
Cu720 N721 1.999 . S
Cu720 O726 1.974 . S
Cu720 N731 1.985 . S
Cu720 O740 1.959 . S
N721 Cu720 1.999 . S
N721 C723 1.263 . S
N721 C725 1.389 . S
N722 C723 1.358 . S
N722 C724 1.400 . S
C723 N721 1.263 . S
C723 N722 1.358 . S
C723 H729 0.930 . S
C724 N722 1.400 . S
C724 C725 1.351 . S
C724 H741 0.930 . S
C725 N721 1.389 . S
C725 C724 1.351 . S
C725 H730 0.930 . S
O726 Cu720 1.974 . S
O726 C736 1.282 . S
C727 O728 1.261 . S
C727 O740 1.251 . S
O728 C727 1.261 . S
H729 C723 0.930 . S
H730 C725 0.930 . S
N731 Cu720 1.985 . S
N731 C733 1.335 . S
N731 C734 1.390 . S
N732 C733 1.345 . S
N732 C735 1.336 . S
C733 N731 1.335 . S
C733 N732 1.345 . S
C733 H738 0.930 . S
C734 N731 1.390 . S
C734 C735 1.346 . S
C734 H739 0.930 . S
C735 N732 1.336 . S
C735 C734 1.346 . S
C735 H742 0.929 . S
C736 O726 1.282 . S
C736 O737 1.216 . S
O737 C736 1.216 . S
H738 C733 0.930 . S
H739 C734 0.930 . S
O740 Cu720 1.959 . S
O740 C727 1.251 . S
H741 C724 0.930 . S
H742 C735 0.929 . S
Cu743 N744 1.999 . S
Cu743 O749 1.974 . S
Cu743 N754 1.985 . S
Cu743 O763 1.959 . S
N744 Cu743 1.999 . S
N744 C746 1.263 . S
N744 C748 1.389 . S
N745 C746 1.358 . S
N745 C747 1.400 . S
C746 N744 1.263 . S
C746 N745 1.358 . S
C746 H752 0.930 . S
C747 N745 1.400 . S
C747 C748 1.351 . S
C747 H764 0.930 . S
C748 N744 1.389 . S
C748 C747 1.351 . S
C748 H753 0.930 . S
O749 Cu743 1.974 . S
O749 C759 1.282 . S
C750 O751 1.261 . S
C750 O763 1.251 . S
O751 C750 1.261 . S
H752 C746 0.930 . S
H753 C748 0.930 . S
N754 Cu743 1.985 . S
N754 C756 1.335 . S
N754 C757 1.390 . S
N755 C756 1.345 . S
N755 C758 1.336 . S
C756 N754 1.335 . S
C756 N755 1.345 . S
C756 H761 0.930 . S
C757 N754 1.390 . S
C757 C758 1.346 . S
C757 H762 0.930 . S
C758 N755 1.336 . S
C758 C757 1.346 . S
C758 H765 0.929 . S
C759 O749 1.282 . S
C759 O760 1.216 . S
O760 C759 1.216 . S
H761 C756 0.930 . S
H762 C757 0.930 . S
O763 Cu743 1.959 . S
O763 C750 1.251 . S
H764 C747 0.930 . S
H765 C758 0.929 . S
Cu766 N767 1.999 . S
Cu766 O772 1.974 . S
Cu766 N777 1.985 . S
Cu766 O786 1.959 . S
N767 Cu766 1.999 . S
N767 C769 1.263 . S
N767 C771 1.389 . S
N768 C769 1.358 . S
N768 C770 1.400 . S
C769 N767 1.263 . S
C769 N768 1.358 . S
C769 H775 0.930 . S
C770 N768 1.400 . S
C770 C771 1.351 . S
C770 H787 0.930 . S
C771 N767 1.389 . S
C771 C770 1.351 . S
C771 H776 0.930 . S
O772 Cu766 1.974 . S
O772 C782 1.282 . S
C773 O774 1.261 . S
C773 O786 1.251 . S
O774 C773 1.261 . S
H775 C769 0.930 . S
H776 C771 0.930 . S
N777 Cu766 1.985 . S
N777 C779 1.335 . S
N777 C780 1.390 . S
N778 C779 1.345 . S
N778 C781 1.336 . S
C779 N777 1.335 . S
C779 N778 1.345 . S
C779 H784 0.930 . S
C780 N777 1.390 . S
C780 C781 1.346 . S
C780 H785 0.930 . S
C781 N778 1.336 . S
C781 C780 1.346 . S
C781 H788 0.929 . S
C782 O772 1.282 . S
C782 O783 1.216 . S
O783 C782 1.216 . S
H784 C779 0.930 . S
H785 C780 0.930 . S
O786 Cu766 1.959 . S
O786 C773 1.251 . S
H787 C770 0.930 . S
H788 C781 0.929 . S
Cu789 N790 1.999 . S
Cu789 O795 1.974 . S
Cu789 N800 1.985 . S
Cu789 O809 1.959 . S
N790 Cu789 1.999 . S
N790 C792 1.263 . S
N790 C794 1.389 . S
N791 C792 1.358 . S
N791 C793 1.400 . S
C792 N790 1.263 . S
C792 N791 1.358 . S
C792 H798 0.930 . S
C793 N791 1.400 . S
C793 C794 1.351 . S
C793 H810 0.930 . S
C794 N790 1.389 . S
C794 C793 1.351 . S
C794 H799 0.930 . S
O795 Cu789 1.974 . S
O795 C805 1.282 . S
C796 O797 1.261 . S
C796 O809 1.251 . S
O797 C796 1.261 . S
H798 C792 0.930 . S
H799 C794 0.930 . S
N800 Cu789 1.985 . S
N800 C802 1.335 . S
N800 C803 1.390 . S
N801 C802 1.345 . S
N801 C804 1.336 . S
C802 N800 1.335 . S
C802 N801 1.345 . S
C802 H807 0.930 . S
C803 N800 1.390 . S
C803 C804 1.346 . S
C803 H808 0.930 . S
C804 N801 1.336 . S
C804 C803 1.346 . S
C804 H811 0.929 . S
C805 O795 1.282 . S
C805 O806 1.216 . S
O806 C805 1.216 . S
H807 C802 0.930 . S
H808 C803 0.930 . S
O809 Cu789 1.959 . S
O809 C796 1.251 . S
H810 C793 0.930 . S
H811 C804 0.929 . S
Cu812 N813 1.999 . S
Cu812 O818 1.974 . S
Cu812 N823 1.985 . S
Cu812 O832 1.959 . S
N813 Cu812 1.999 . S
N813 C815 1.263 . S
N813 C817 1.389 . S
N814 C815 1.358 . S
N814 C816 1.400 . S
C815 N813 1.263 . S
C815 N814 1.358 . S
C815 H821 0.930 . S
C816 N814 1.400 . S
C816 C817 1.351 . S
C816 H833 0.930 . S
C817 N813 1.389 . S
C817 C816 1.351 . S
C817 H822 0.930 . S
O818 Cu812 1.974 . S
O818 C828 1.282 . S
C819 O820 1.261 . S
C819 O832 1.251 . S
O820 C819 1.261 . S
H821 C815 0.930 . S
H822 C817 0.930 . S
N823 Cu812 1.985 . S
N823 C825 1.335 . S
N823 C826 1.390 . S
N824 C825 1.345 . S
N824 C827 1.336 . S
C825 N823 1.335 . S
C825 N824 1.345 . S
C825 H830 0.930 . S
C826 N823 1.390 . S
C826 C827 1.346 . S
C826 H831 0.930 . S
C827 N824 1.336 . S
C827 C826 1.346 . S
C827 H834 0.929 . S
C828 O818 1.282 . S
C828 O829 1.216 . S
O829 C828 1.216 . S
H830 C825 0.930 . S
H831 C826 0.930 . S
O832 Cu812 1.959 . S
O832 C819 1.251 . S
H833 C816 0.930 . S
H834 C827 0.929 . S
Cu835 N836 1.999 . S
Cu835 O841 1.974 . S
Cu835 N846 1.985 . S
Cu835 O855 1.959 . S
N836 Cu835 1.999 . S
N836 C838 1.263 . S
N836 C840 1.389 . S
N837 C838 1.358 . S
N837 C839 1.400 . S
C838 N836 1.263 . S
C838 N837 1.358 . S
C838 H844 0.930 . S
C839 N837 1.400 . S
C839 C840 1.351 . S
C839 H856 0.930 . S
C840 N836 1.389 . S
C840 C839 1.351 . S
C840 H845 0.930 . S
O841 Cu835 1.974 . S
O841 C851 1.282 . S
C842 O843 1.261 . S
C842 O855 1.251 . S
O843 C842 1.261 . S
H844 C838 0.930 . S
H845 C840 0.930 . S
N846 Cu835 1.985 . S
N846 C848 1.335 . S
N846 C849 1.390 . S
N847 C848 1.345 . S
N847 C850 1.336 . S
C848 N846 1.335 . S
C848 N847 1.345 . S
C848 H853 0.930 . S
C849 N846 1.390 . S
C849 C850 1.346 . S
C849 H854 0.930 . S
C850 N847 1.336 . S
C850 C849 1.346 . S
C850 H857 0.929 . S
C851 O841 1.282 . S
C851 O852 1.216 . S
O852 C851 1.216 . S
H853 C848 0.930 . S
H854 C849 0.930 . S
O855 Cu835 1.959 . S
O855 C842 1.251 . S
H856 C839 0.930 . S
H857 C850 0.929 . S
Cu858 N859 1.999 . S
Cu858 O864 1.974 . S
Cu858 N869 1.985 . S
Cu858 O878 1.959 . S
N859 Cu858 1.999 . S
N859 C861 1.263 . S
N859 C863 1.389 . S
N860 C861 1.358 . S
N860 C862 1.400 . S
C861 N859 1.263 . S
C861 N860 1.358 . S
C861 H867 0.930 . S
C862 N860 1.400 . S
C862 C863 1.351 . S
C862 H879 0.930 . S
C863 N859 1.389 . S
C863 C862 1.351 . S
C863 H868 0.930 . S
O864 Cu858 1.974 . S
O864 C874 1.282 . S
C865 O866 1.261 . S
C865 O878 1.251 . S
O866 C865 1.261 . S
H867 C861 0.930 . S
H868 C863 0.930 . S
N869 Cu858 1.985 . S
N869 C871 1.335 . S
N869 C872 1.390 . S
N870 C871 1.345 . S
N870 C873 1.336 . S
C871 N869 1.335 . S
C871 N870 1.345 . S
C871 H876 0.930 . S
C872 N869 1.390 . S
C872 C873 1.346 . S
C872 H877 0.930 . S
C873 N870 1.336 . S
C873 C872 1.346 . S
C873 H880 0.929 . S
C874 O864 1.282 . S
C874 O875 1.216 . S
O875 C874 1.216 . S
H876 C871 0.930 . S
H877 C872 0.930 . S
O878 Cu858 1.959 . S
O878 C865 1.251 . S
H879 C862 0.930 . S
H880 C873 0.929 . S
Cu881 N882 1.999 . S
Cu881 O887 1.974 . S
Cu881 N892 1.985 . S
Cu881 O901 1.959 . S
N882 Cu881 1.999 . S
N882 C884 1.263 . S
N882 C886 1.389 . S
N883 C884 1.358 . S
N883 C885 1.400 . S
C884 N882 1.263 . S
C884 N883 1.358 . S
C884 H890 0.930 . S
C885 N883 1.400 . S
C885 C886 1.351 . S
C885 H902 0.930 . S
C886 N882 1.389 . S
C886 C885 1.351 . S
C886 H891 0.930 . S
O887 Cu881 1.974 . S
O887 C897 1.282 . S
C888 O889 1.261 . S
C888 O901 1.251 . S
O889 C888 1.261 . S
H890 C884 0.930 . S
H891 C886 0.930 . S
N892 Cu881 1.985 . S
N892 C894 1.335 . S
N892 C895 1.390 . S
N893 C894 1.345 . S
N893 C896 1.336 . S
C894 N892 1.335 . S
C894 N893 1.345 . S
C894 H899 0.930 . S
C895 N892 1.390 . S
C895 C896 1.346 . S
C895 H900 0.930 . S
C896 N893 1.336 . S
C896 C895 1.346 . S
C896 H903 0.929 . S
C897 O887 1.282 . S
C897 O898 1.216 . S
O898 C897 1.216 . S
H899 C894 0.930 . S
H900 C895 0.930 . S
O901 Cu881 1.959 . S
O901 C888 1.251 . S
H902 C885 0.930 . S
H903 C896 0.929 . S
H904 C916 0.930 . S
H905 C918 0.930 . S
H906 C919 0.930 . S
H907 C923 0.959 . S
H908 C923 0.959 . S
H909 C923 0.961 . S
H910 C924 0.960 . S
H911 C924 0.961 . S
H912 C924 0.959 . S
H913 C927 0.929 . S
H914 C928 0.931 . S
H915 C930 0.930 . S
C916 H904 0.930 . S
C916 C917 1.399 . S
C916 C921 1.399 . S
C917 C916 1.399 . S
C917 C918 1.376 . S
C918 H905 0.930 . S
C918 C917 1.376 . S
C918 C919 1.388 . S
C919 H906 0.930 . S
C919 C918 1.388 . S
C919 C920 1.390 . S
C920 C919 1.390 . S
C920 C921 1.394 . S
C920 C926 1.465 . S
C921 C916 1.399 . S
C921 C920 1.394 . S
C921 C922 1.516 . S
C922 C921 1.516 . S
C922 C923 1.502 . S
C922 C924 1.561 . S
C922 C925 1.526 . S
C923 H907 0.959 . S
C923 H908 0.959 . S
C923 H909 0.961 . S
C923 C922 1.502 . S
C924 H910 0.960 . S
C924 H911 0.961 . S
C924 H912 0.959 . S
C924 C922 1.561 . S
C925 C922 1.526 . S
C925 C926 1.396 . S
C925 C930 1.390 . S
C926 C920 1.465 . S
C926 C925 1.396 . S
C926 C927 1.399 . S
C927 H913 0.929 . S
C927 C926 1.399 . S
C927 C928 1.385 . S
C928 H914 0.931 . S
C928 C927 1.385 . S
C928 C929 1.389 . S
C929 C928 1.389 . S
C929 C930 1.387 . S
C930 H915 0.930 . S
C930 C925 1.390 . S
C930 C929 1.387 . S
H931 C943 0.930 . S
H932 C945 0.930 . S
H933 C946 0.930 . S
H934 C950 0.959 . S
H935 C950 0.959 . S
H936 C950 0.961 . S
H937 C951 0.960 . S
H938 C951 0.961 . S
H939 C951 0.959 . S
H940 C954 0.929 . S
H941 C955 0.931 . S
H942 C957 0.930 . S
C943 H931 0.930 . S
C943 C944 1.399 . S
C943 C948 1.399 . S
C944 C943 1.399 . S
C944 C945 1.376 . S
C945 H932 0.930 . S
C945 C944 1.376 . S
C945 C946 1.388 . S
C946 H933 0.930 . S
C946 C945 1.388 . S
C946 C947 1.390 . S
C947 C946 1.390 . S
C947 C948 1.394 . S
C947 C953 1.465 . S
C948 C943 1.399 . S
C948 C947 1.394 . S
C948 C949 1.516 . S
C949 C948 1.516 . S
C949 C950 1.502 . S
C949 C951 1.561 . S
C949 C952 1.526 . S
C950 H934 0.959 . S
C950 H935 0.959 . S
C950 H936 0.961 . S
C950 C949 1.502 . S
C951 H937 0.960 . S
C951 H938 0.961 . S
C951 H939 0.959 . S
C951 C949 1.561 . S
C952 C949 1.526 . S
C952 C953 1.396 . S
C952 C957 1.390 . S
C953 C947 1.465 . S
C953 C952 1.396 . S
C953 C954 1.399 . S
C954 H940 0.929 . S
C954 C953 1.399 . S
C954 C955 1.385 . S
C955 H941 0.931 . S
C955 C954 1.385 . S
C955 C956 1.389 . S
C956 C955 1.389 . S
C956 C957 1.387 . S
C957 H942 0.930 . S
C957 C952 1.390 . S
C957 C956 1.387 . S
H958 C970 0.930 . S
H959 C972 0.930 . S
H960 C973 0.930 . S
H961 C977 0.959 . S
H962 C977 0.959 . S
H963 C977 0.961 . S
H964 C978 0.960 . S
H965 C978 0.961 . S
H966 C978 0.959 . S
H967 C981 0.929 . S
H968 C982 0.931 . S
H969 C984 0.930 . S
C970 H958 0.930 . S
C970 C971 1.399 . S
C970 C975 1.399 . S
C971 C970 1.399 . S
C971 C972 1.376 . S
C972 H959 0.930 . S
C972 C971 1.376 . S
C972 C973 1.388 . S
C973 H960 0.930 . S
C973 C972 1.388 . S
C973 C974 1.390 . S
C974 C973 1.390 . S
C974 C975 1.394 . S
C974 C980 1.465 . S
C975 C970 1.399 . S
C975 C974 1.394 . S
C975 C976 1.516 . S
C976 C975 1.516 . S
C976 C977 1.502 . S
C976 C978 1.561 . S
C976 C979 1.526 . S
C977 H961 0.959 . S
C977 H962 0.959 . S
C977 H963 0.961 . S
C977 C976 1.502 . S
C978 H964 0.960 . S
C978 H965 0.961 . S
C978 H966 0.959 . S
C978 C976 1.561 . S
C979 C976 1.526 . S
C979 C980 1.396 . S
C979 C984 1.390 . S
C980 C974 1.465 . S
C980 C979 1.396 . S
C980 C981 1.399 . S
C981 H967 0.929 . S
C981 C980 1.399 . S
C981 C982 1.385 . S
C982 H968 0.931 . S
C982 C981 1.385 . S
C982 C983 1.389 . S
C983 C982 1.389 . S
C983 C984 1.387 . S
C984 H969 0.930 . S
C984 C979 1.390 . S
C984 C983 1.387 . S
H985 C997 0.930 . S
H986 C999 0.930 . S
H987 C1000 0.930 . S
H988 C1004 0.959 . S
H989 C1004 0.959 . S
H990 C1004 0.961 . S
H991 C1005 0.960 . S
H992 C1005 0.961 . S
H993 C1005 0.959 . S
H994 C1008 0.929 . S
H995 C1009 0.931 . S
H996 C1011 0.930 . S
C997 H985 0.930 . S
C997 C998 1.399 . S
C997 C1002 1.399 . S
C998 C997 1.399 . S
C998 C999 1.376 . S
C999 H986 0.930 . S
C999 C998 1.376 . S
C999 C1000 1.388 . S
C1000 H987 0.930 . S
C1000 C999 1.388 . S
C1000 C1001 1.390 . S
C1001 C1000 1.390 . S
C1001 C1002 1.394 . S
C1001 C1007 1.465 . S
C1002 C997 1.399 . S
C1002 C1001 1.394 . S
C1002 C1003 1.516 . S
C1003 C1002 1.516 . S
C1003 C1004 1.502 . S
C1003 C1005 1.561 . S
C1003 C1006 1.526 . S
C1004 H988 0.959 . S
C1004 H989 0.959 . S
C1004 H990 0.961 . S
C1004 C1003 1.502 . S
C1005 H991 0.960 . S
C1005 H992 0.961 . S
C1005 H993 0.959 . S
C1005 C1003 1.561 . S
C1006 C1003 1.526 . S
C1006 C1007 1.396 . S
C1006 C1011 1.390 . S
C1007 C1001 1.465 . S
C1007 C1006 1.396 . S
C1007 C1008 1.399 . S
C1008 H994 0.929 . S
C1008 C1007 1.399 . S
C1008 C1009 1.385 . S
C1009 H995 0.931 . S
C1009 C1008 1.385 . S
C1009 C1010 1.389 . S
C1010 C1009 1.389 . S
C1010 C1011 1.387 . S
C1011 H996 0.930 . S
C1011 C1006 1.390 . S
C1011 C1010 1.387 . S
H1012 C1024 0.930 . S
H1013 C1026 0.930 . S
H1014 C1027 0.930 . S
H1015 C1031 0.959 . S
H1016 C1031 0.959 . S
H1017 C1031 0.961 . S
H1018 C1032 0.960 . S
H1019 C1032 0.961 . S
H1020 C1032 0.959 . S
H1021 C1035 0.929 . S
H1022 C1036 0.931 . S
H1023 C1038 0.930 . S
C1024 H1012 0.930 . S
C1024 C1025 1.399 . S
C1024 C1029 1.399 . S
C1025 C1024 1.399 . S
C1025 C1026 1.376 . S
C1026 H1013 0.930 . S
C1026 C1025 1.376 . S
C1026 C1027 1.388 . S
C1027 H1014 0.930 . S
C1027 C1026 1.388 . S
C1027 C1028 1.390 . S
C1028 C1027 1.390 . S
C1028 C1029 1.394 . S
C1028 C1034 1.465 . S
C1029 C1024 1.399 . S
C1029 C1028 1.394 . S
C1029 C1030 1.516 . S
C1030 C1029 1.516 . S
C1030 C1031 1.502 . S
C1030 C1032 1.561 . S
C1030 C1033 1.526 . S
C1031 H1015 0.959 . S
C1031 H1016 0.959 . S
C1031 H1017 0.961 . S
C1031 C1030 1.502 . S
C1032 H1018 0.960 . S
C1032 H1019 0.961 . S
C1032 H1020 0.959 . S
C1032 C1030 1.561 . S
C1033 C1030 1.526 . S
C1033 C1034 1.396 . S
C1033 C1038 1.390 . S
C1034 C1028 1.465 . S
C1034 C1033 1.396 . S
C1034 C1035 1.399 . S
C1035 H1021 0.929 . S
C1035 C1034 1.399 . S
C1035 C1036 1.385 . S
C1036 H1022 0.931 . S
C1036 C1035 1.385 . S
C1036 C1037 1.389 . S
C1037 C1036 1.389 . S
C1037 C1038 1.387 . S
C1038 H1023 0.930 . S
C1038 C1033 1.390 . S
C1038 C1037 1.387 . S
H1039 C1051 0.930 . S
H1040 C1053 0.930 . S
H1041 C1054 0.930 . S
H1042 C1058 0.959 . S
H1043 C1058 0.959 . S
H1044 C1058 0.961 . S
H1045 C1059 0.960 . S
H1046 C1059 0.961 . S
H1047 C1059 0.959 . S
H1048 C1062 0.929 . S
H1049 C1063 0.931 . S
H1050 C1065 0.930 . S
C1051 H1039 0.930 . S
C1051 C1052 1.399 . S
C1051 C1056 1.399 . S
C1052 C1051 1.399 . S
C1052 C1053 1.376 . S
C1053 H1040 0.930 . S
C1053 C1052 1.376 . S
C1053 C1054 1.388 . S
C1054 H1041 0.930 . S
C1054 C1053 1.388 . S
C1054 C1055 1.390 . S
C1055 C1054 1.390 . S
C1055 C1056 1.394 . S
C1055 C1061 1.465 . S
C1056 C1051 1.399 . S
C1056 C1055 1.394 . S
C1056 C1057 1.516 . S
C1057 C1056 1.516 . S
C1057 C1058 1.502 . S
C1057 C1059 1.561 . S
C1057 C1060 1.526 . S
C1058 H1042 0.959 . S
C1058 H1043 0.959 . S
C1058 H1044 0.961 . S
C1058 C1057 1.502 . S
C1059 H1045 0.960 . S
C1059 H1046 0.961 . S
C1059 H1047 0.959 . S
C1059 C1057 1.561 . S
C1060 C1057 1.526 . S
C1060 C1061 1.396 . S
C1060 C1065 1.390 . S
C1061 C1055 1.465 . S
C1061 C1060 1.396 . S
C1061 C1062 1.399 . S
C1062 H1048 0.929 . S
C1062 C1061 1.399 . S
C1062 C1063 1.385 . S
C1063 H1049 0.931 . S
C1063 C1062 1.385 . S
C1063 C1064 1.389 . S
C1064 C1063 1.389 . S
C1064 C1065 1.387 . S
C1065 H1050 0.930 . S
C1065 C1060 1.390 . S
C1065 C1064 1.387 . S
H1066 C1078 0.930 . S
H1067 C1080 0.930 . S
H1068 C1081 0.930 . S
H1069 C1085 0.959 . S
H1070 C1085 0.959 . S
H1071 C1085 0.961 . S
H1072 C1086 0.960 . S
H1073 C1086 0.961 . S
H1074 C1086 0.959 . S
H1075 C1089 0.929 . S
H1076 C1090 0.931 . S
H1077 C1092 0.930 . S
C1078 H1066 0.930 . S
C1078 C1079 1.399 . S
C1078 C1083 1.399 . S
C1079 C1078 1.399 . S
C1079 C1080 1.376 . S
C1080 H1067 0.930 . S
C1080 C1079 1.376 . S
C1080 C1081 1.388 . S
C1081 H1068 0.930 . S
C1081 C1080 1.388 . S
C1081 C1082 1.390 . S
C1082 C1081 1.390 . S
C1082 C1083 1.394 . S
C1082 C1088 1.465 . S
C1083 C1078 1.399 . S
C1083 C1082 1.394 . S
C1083 C1084 1.516 . S
C1084 C1083 1.516 . S
C1084 C1085 1.502 . S
C1084 C1086 1.561 . S
C1084 C1087 1.526 . S
C1085 H1069 0.959 . S
C1085 H1070 0.959 . S
C1085 H1071 0.961 . S
C1085 C1084 1.502 . S
C1086 H1072 0.960 . S
C1086 H1073 0.961 . S
C1086 H1074 0.959 . S
C1086 C1084 1.561 . S
C1087 C1084 1.526 . S
C1087 C1088 1.396 . S
C1087 C1092 1.390 . S
C1088 C1082 1.465 . S
C1088 C1087 1.396 . S
C1088 C1089 1.399 . S
C1089 H1075 0.929 . S
C1089 C1088 1.399 . S
C1089 C1090 1.385 . S
C1090 H1076 0.931 . S
C1090 C1089 1.385 . S
C1090 C1091 1.389 . S
C1091 C1090 1.389 . S
C1091 C1092 1.387 . S
C1092 H1077 0.930 . S
C1092 C1087 1.390 . S
C1092 C1091 1.387 . S
H1093 C1105 0.930 . S
H1094 C1107 0.930 . S
H1095 C1108 0.930 . S
H1096 C1112 0.959 . S
H1097 C1112 0.959 . S
H1098 C1112 0.961 . S
H1099 C1113 0.960 . S
H1100 C1113 0.961 . S
H1101 C1113 0.959 . S
H1102 C1116 0.929 . S
H1103 C1117 0.931 . S
H1104 C1119 0.930 . S
C1105 H1093 0.930 . S
C1105 C1106 1.399 . S
C1105 C1110 1.399 . S
C1106 C1105 1.399 . S
C1106 C1107 1.376 . S
C1107 H1094 0.930 . S
C1107 C1106 1.376 . S
C1107 C1108 1.388 . S
C1108 H1095 0.930 . S
C1108 C1107 1.388 . S
C1108 C1109 1.390 . S
C1109 C1108 1.390 . S
C1109 C1110 1.394 . S
C1109 C1115 1.465 . S
C1110 C1105 1.399 . S
C1110 C1109 1.394 . S
C1110 C1111 1.516 . S
C1111 C1110 1.516 . S
C1111 C1112 1.502 . S
C1111 C1113 1.561 . S
C1111 C1114 1.526 . S
C1112 H1096 0.959 . S
C1112 H1097 0.959 . S
C1112 H1098 0.961 . S
C1112 C1111 1.502 . S
C1113 H1099 0.960 . S
C1113 H1100 0.961 . S
C1113 H1101 0.959 . S
C1113 C1111 1.561 . S
C1114 C1111 1.526 . S
C1114 C1115 1.396 . S
C1114 C1119 1.390 . S
C1115 C1109 1.465 . S
C1115 C1114 1.396 . S
C1115 C1116 1.399 . S
C1116 H1102 0.929 . S
C1116 C1115 1.399 . S
C1116 C1117 1.385 . S
C1117 H1103 0.931 . S
C1117 C1116 1.385 . S
C1117 C1118 1.389 . S
C1118 C1117 1.389 . S
C1118 C1119 1.387 . S
C1119 H1104 0.930 . S
C1119 C1114 1.390 . S
C1119 C1118 1.387 . S
H1120 C1132 0.930 . S
H1121 C1134 0.930 . S
H1122 C1135 0.930 . S
H1123 C1139 0.959 . S
H1124 C1139 0.959 . S
H1125 C1139 0.961 . S
H1126 C1140 0.960 . S
H1127 C1140 0.961 . S
H1128 C1140 0.959 . S
H1129 C1143 0.929 . S
H1130 C1144 0.931 . S
H1131 C1146 0.930 . S
C1132 H1120 0.930 . S
C1132 C1133 1.399 . S
C1132 C1137 1.399 . S
C1133 C1132 1.399 . S
C1133 C1134 1.376 . S
C1134 H1121 0.930 . S
C1134 C1133 1.376 . S
C1134 C1135 1.388 . S
C1135 H1122 0.930 . S
C1135 C1134 1.388 . S
C1135 C1136 1.390 . S
C1136 C1135 1.390 . S
C1136 C1137 1.394 . S
C1136 C1142 1.465 . S
C1137 C1132 1.399 . S
C1137 C1136 1.394 . S
C1137 C1138 1.516 . S
C1138 C1137 1.516 . S
C1138 C1139 1.502 . S
C1138 C1140 1.561 . S
C1138 C1141 1.526 . S
C1139 H1123 0.959 . S
C1139 H1124 0.959 . S
C1139 H1125 0.961 . S
C1139 C1138 1.502 . S
C1140 H1126 0.960 . S
C1140 H1127 0.961 . S
C1140 H1128 0.959 . S
C1140 C1138 1.561 . S
C1141 C1138 1.526 . S
C1141 C1142 1.396 . S
C1141 C1146 1.390 . S
C1142 C1136 1.465 . S
C1142 C1141 1.396 . S
C1142 C1143 1.399 . S
C1143 H1129 0.929 . S
C1143 C1142 1.399 . S
C1143 C1144 1.385 . S
C1144 H1130 0.931 . S
C1144 C1143 1.385 . S
C1144 C1145 1.389 . S
C1145 C1144 1.389 . S
C1145 C1146 1.387 . S
C1146 H1131 0.930 . S
C1146 C1141 1.390 . S
C1146 C1145 1.387 . S
H1147 C1159 0.930 . S
H1148 C1161 0.930 . S
H1149 C1162 0.930 . S
H1150 C1166 0.959 . S
H1151 C1166 0.959 . S
H1152 C1166 0.961 . S
H1153 C1167 0.960 . S
H1154 C1167 0.961 . S
H1155 C1167 0.959 . S
H1156 C1170 0.929 . S
H1157 C1171 0.931 . S
H1158 C1173 0.930 . S
C1159 H1147 0.930 . S
C1159 C1160 1.399 . S
C1159 C1164 1.399 . S
C1160 C1159 1.399 . S
C1160 C1161 1.376 . S
C1161 H1148 0.930 . S
C1161 C1160 1.376 . S
C1161 C1162 1.388 . S
C1162 H1149 0.930 . S
C1162 C1161 1.388 . S
C1162 C1163 1.390 . S
C1163 C1162 1.390 . S
C1163 C1164 1.394 . S
C1163 C1169 1.465 . S
C1164 C1159 1.399 . S
C1164 C1163 1.394 . S
C1164 C1165 1.516 . S
C1165 C1164 1.516 . S
C1165 C1166 1.502 . S
C1165 C1167 1.561 . S
C1165 C1168 1.526 . S
C1166 H1150 0.959 . S
C1166 H1151 0.959 . S
C1166 H1152 0.961 . S
C1166 C1165 1.502 . S
C1167 H1153 0.960 . S
C1167 H1154 0.961 . S
C1167 H1155 0.959 . S
C1167 C1165 1.561 . S
C1168 C1165 1.526 . S
C1168 C1169 1.396 . S
C1168 C1173 1.390 . S
C1169 C1163 1.465 . S
C1169 C1168 1.396 . S
C1169 C1170 1.399 . S
C1170 H1156 0.929 . S
C1170 C1169 1.399 . S
C1170 C1171 1.385 . S
C1171 H1157 0.931 . S
C1171 C1170 1.385 . S
C1171 C1172 1.389 . S
C1172 C1171 1.389 . S
C1172 C1173 1.387 . S
C1173 H1158 0.930 . S
C1173 C1168 1.390 . S
C1173 C1172 1.387 . S
H1174 C1186 0.930 . S
H1175 C1188 0.930 . S
H1176 C1189 0.930 . S
H1177 C1193 0.959 . S
H1178 C1193 0.959 . S
H1179 C1193 0.961 . S
H1180 C1194 0.960 . S
H1181 C1194 0.961 . S
H1182 C1194 0.959 . S
H1183 C1197 0.929 . S
H1184 C1198 0.931 . S
H1185 C1200 0.930 . S
C1186 H1174 0.930 . S
C1186 C1187 1.399 . S
C1186 C1191 1.399 . S
C1187 C1186 1.399 . S
C1187 C1188 1.376 . S
C1188 H1175 0.930 . S
C1188 C1187 1.376 . S
C1188 C1189 1.388 . S
C1189 H1176 0.930 . S
C1189 C1188 1.388 . S
C1189 C1190 1.390 . S
C1190 C1189 1.390 . S
C1190 C1191 1.394 . S
C1190 C1196 1.465 . S
C1191 C1186 1.399 . S
C1191 C1190 1.394 . S
C1191 C1192 1.516 . S
C1192 C1191 1.516 . S
C1192 C1193 1.502 . S
C1192 C1194 1.561 . S
C1192 C1195 1.526 . S
C1193 H1177 0.959 . S
C1193 H1178 0.959 . S
C1193 H1179 0.961 . S
C1193 C1192 1.502 . S
C1194 H1180 0.960 . S
C1194 H1181 0.961 . S
C1194 H1182 0.959 . S
C1194 C1192 1.561 . S
C1195 C1192 1.526 . S
C1195 C1196 1.396 . S
C1195 C1200 1.390 . S
C1196 C1190 1.465 . S
C1196 C1195 1.396 . S
C1196 C1197 1.399 . S
C1197 H1183 0.929 . S
C1197 C1196 1.399 . S
C1197 C1198 1.385 . S
C1198 H1184 0.931 . S
C1198 C1197 1.385 . S
C1198 C1199 1.389 . S
C1199 C1198 1.389 . S
C1199 C1200 1.387 . S
C1200 H1185 0.930 . S
C1200 C1195 1.390 . S
C1200 C1199 1.387 . S
H1201 C1213 0.930 . S
H1202 C1215 0.930 . S
H1203 C1216 0.930 . S
H1204 C1220 0.959 . S
H1205 C1220 0.959 . S
H1206 C1220 0.961 . S
H1207 C1221 0.960 . S
H1208 C1221 0.961 . S
H1209 C1221 0.959 . S
H1210 C1224 0.929 . S
H1211 C1225 0.931 . S
H1212 C1227 0.930 . S
C1213 H1201 0.930 . S
C1213 C1214 1.399 . S
C1213 C1218 1.399 . S
C1214 C1213 1.399 . S
C1214 C1215 1.376 . S
C1215 H1202 0.930 . S
C1215 C1214 1.376 . S
C1215 C1216 1.388 . S
C1216 H1203 0.930 . S
C1216 C1215 1.388 . S
C1216 C1217 1.390 . S
C1217 C1216 1.390 . S
C1217 C1218 1.394 . S
C1217 C1223 1.465 . S
C1218 C1213 1.399 . S
C1218 C1217 1.394 . S
C1218 C1219 1.516 . S
C1219 C1218 1.516 . S
C1219 C1220 1.502 . S
C1219 C1221 1.561 . S
C1219 C1222 1.526 . S
C1220 H1204 0.959 . S
C1220 H1205 0.959 . S
C1220 H1206 0.961 . S
C1220 C1219 1.502 . S
C1221 H1207 0.960 . S
C1221 H1208 0.961 . S
C1221 H1209 0.959 . S
C1221 C1219 1.561 . S
C1222 C1219 1.526 . S
C1222 C1223 1.396 . S
C1222 C1227 1.390 . S
C1223 C1217 1.465 . S
C1223 C1222 1.396 . S
C1223 C1224 1.399 . S
C1224 H1210 0.929 . S
C1224 C1223 1.399 . S
C1224 C1225 1.385 . S
C1225 H1211 0.931 . S
C1225 C1224 1.385 . S
C1225 C1226 1.389 . S
C1226 C1225 1.389 . S
C1226 C1227 1.387 . S
C1227 H1212 0.930 . S
C1227 C1222 1.390 . S
C1227 C1226 1.387 . S
H1228 C1240 0.930 . S
H1229 C1242 0.930 . S
H1230 C1243 0.930 . S
H1231 C1247 0.959 . S
H1232 C1247 0.959 . S
H1233 C1247 0.961 . S
H1234 C1248 0.960 . S
H1235 C1248 0.961 . S
H1236 C1248 0.959 . S
H1237 C1251 0.929 . S
H1238 C1252 0.931 . S
H1239 C1254 0.930 . S
C1240 H1228 0.930 . S
C1240 C1241 1.399 . S
C1240 C1245 1.399 . S
C1241 C1240 1.399 . S
C1241 C1242 1.376 . S
C1242 H1229 0.930 . S
C1242 C1241 1.376 . S
C1242 C1243 1.388 . S
C1243 H1230 0.930 . S
C1243 C1242 1.388 . S
C1243 C1244 1.390 . S
C1244 C1243 1.390 . S
C1244 C1245 1.394 . S
C1244 C1250 1.465 . S
C1245 C1240 1.399 . S
C1245 C1244 1.394 . S
C1245 C1246 1.516 . S
C1246 C1245 1.516 . S
C1246 C1247 1.502 . S
C1246 C1248 1.561 . S
C1246 C1249 1.526 . S
C1247 H1231 0.959 . S
C1247 H1232 0.959 . S
C1247 H1233 0.961 . S
C1247 C1246 1.502 . S
C1248 H1234 0.960 . S
C1248 H1235 0.961 . S
C1248 H1236 0.959 . S
C1248 C1246 1.561 . S
C1249 C1246 1.526 . S
C1249 C1250 1.396 . S
C1249 C1254 1.390 . S
C1250 C1244 1.465 . S
C1250 C1249 1.396 . S
C1250 C1251 1.399 . S
C1251 H1237 0.929 . S
C1251 C1250 1.399 . S
C1251 C1252 1.385 . S
C1252 H1238 0.931 . S
C1252 C1251 1.385 . S
C1252 C1253 1.389 . S
C1253 C1252 1.389 . S
C1253 C1254 1.387 . S
C1254 H1239 0.930 . S
C1254 C1249 1.390 . S
C1254 C1253 1.387 . S
H1255 C1267 0.930 . S
H1256 C1269 0.930 . S
H1257 C1270 0.930 . S
H1258 C1274 0.959 . S
H1259 C1274 0.959 . S
H1260 C1274 0.961 . S
H1261 C1275 0.960 . S
H1262 C1275 0.961 . S
H1263 C1275 0.959 . S
H1264 C1278 0.929 . S
H1265 C1279 0.931 . S
H1266 C1281 0.930 . S
C1267 H1255 0.930 . S
C1267 C1268 1.399 . S
C1267 C1272 1.399 . S
C1268 C1267 1.399 . S
C1268 C1269 1.376 . S
C1269 H1256 0.930 . S
C1269 C1268 1.376 . S
C1269 C1270 1.388 . S
C1270 H1257 0.930 . S
C1270 C1269 1.388 . S
C1270 C1271 1.390 . S
C1271 C1270 1.390 . S
C1271 C1272 1.394 . S
C1271 C1277 1.465 . S
C1272 C1267 1.399 . S
C1272 C1271 1.394 . S
C1272 C1273 1.516 . S
C1273 C1272 1.516 . S
C1273 C1274 1.502 . S
C1273 C1275 1.561 . S
C1273 C1276 1.526 . S
C1274 H1258 0.959 . S
C1274 H1259 0.959 . S
C1274 H1260 0.961 . S
C1274 C1273 1.502 . S
C1275 H1261 0.960 . S
C1275 H1262 0.961 . S
C1275 H1263 0.959 . S
C1275 C1273 1.561 . S
C1276 C1273 1.526 . S
C1276 C1277 1.396 . S
C1276 C1281 1.390 . S
C1277 C1271 1.465 . S
C1277 C1276 1.396 . S
C1277 C1278 1.399 . S
C1278 H1264 0.929 . S
C1278 C1277 1.399 . S
C1278 C1279 1.385 . S
C1279 H1265 0.931 . S
C1279 C1278 1.385 . S
C1279 C1280 1.389 . S
C1280 C1279 1.389 . S
C1280 C1281 1.387 . S
C1281 H1266 0.930 . S
C1281 C1276 1.390 . S
C1281 C1280 1.387 . S
H1282 C1294 0.930 . S
H1283 C1296 0.930 . S
H1284 C1297 0.930 . S
H1285 C1301 0.959 . S
H1286 C1301 0.959 . S
H1287 C1301 0.961 . S
H1288 C1302 0.960 . S
H1289 C1302 0.961 . S
H1290 C1302 0.959 . S
H1291 C1305 0.929 . S
H1292 C1306 0.931 1_455 S
H1293 C1308 0.930 . S
C1294 H1282 0.930 . S
C1294 C1295 1.399 . S
C1294 C1299 1.399 . S
C1295 C1294 1.399 . S
C1295 C1296 1.376 . S
C1296 H1283 0.930 . S
C1296 C1295 1.376 . S
C1296 C1297 1.388 . S
C1297 H1284 0.930 . S
C1297 C1296 1.388 . S
C1297 C1298 1.390 . S
C1298 C1297 1.390 . S
C1298 C1299 1.394 . S
C1298 C1304 1.465 . S
C1299 C1294 1.399 . S
C1299 C1298 1.394 . S
C1299 C1300 1.516 . S
C1300 C1299 1.516 . S
C1300 C1301 1.502 . S
C1300 C1302 1.561 . S
C1300 C1303 1.526 . S
C1301 H1285 0.959 . S
C1301 H1286 0.959 . S
C1301 H1287 0.961 . S
C1301 C1300 1.502 . S
C1302 H1288 0.960 . S
C1302 H1289 0.961 . S
C1302 H1290 0.959 . S
C1302 C1300 1.561 . S
C1303 C1300 1.526 . S
C1303 C1304 1.396 . S
C1303 C1308 1.390 . S
C1304 C1298 1.465 . S
C1304 C1303 1.396 . S
C1304 C1305 1.399 . S
C1305 H1291 0.929 . S
C1305 C1304 1.399 . S
C1305 C1306 1.385 . S
C1306 H1292 0.931 1_655 S
C1306 C1305 1.385 . S
C1306 C1307 1.389 . S
C1307 C1306 1.389 . S
C1307 C1308 1.387 . S
C1308 H1293 0.930 . S
C1308 C1303 1.390 . S
C1308 C1307 1.387 . S
H1309 C1321 0.930 . S
H1310 C1323 0.930 . S
H1311 C1324 0.930 . S
H1312 C1328 0.959 . S
H1313 C1328 0.959 . S
H1314 C1328 0.961 . S
H1315 C1329 0.960 . S
H1316 C1329 0.961 . S
H1317 C1329 0.959 . S
H1318 C1332 0.929 . S
H1319 C1333 0.931 . S
H1320 C1335 0.930 . S
C1321 H1309 0.930 . S
C1321 C1322 1.399 . S
C1321 C1326 1.399 . S
C1322 C1321 1.399 . S
C1322 C1323 1.376 . S
C1323 H1310 0.930 . S
C1323 C1322 1.376 . S
C1323 C1324 1.388 . S
C1324 H1311 0.930 . S
C1324 C1323 1.388 . S
C1324 C1325 1.390 . S
C1325 C1324 1.390 . S
C1325 C1326 1.394 . S
C1325 C1331 1.465 . S
C1326 C1321 1.399 . S
C1326 C1325 1.394 . S
C1326 C1327 1.516 . S
C1327 C1326 1.516 . S
C1327 C1328 1.502 . S
C1327 C1329 1.561 . S
C1327 C1330 1.526 . S
C1328 H1312 0.959 . S
C1328 H1313 0.959 . S
C1328 H1314 0.961 . S
C1328 C1327 1.502 . S
C1329 H1315 0.960 . S
C1329 H1316 0.961 . S
C1329 H1317 0.959 . S
C1329 C1327 1.561 . S
C1330 C1327 1.526 . S
C1330 C1331 1.396 . S
C1330 C1335 1.390 . S
C1331 C1325 1.465 . S
C1331 C1330 1.396 . S
C1331 C1332 1.399 . S
C1332 H1318 0.929 . S
C1332 C1331 1.399 . S
C1332 C1333 1.385 . S
C1333 H1319 0.931 . S
C1333 C1332 1.385 . S
C1333 C1334 1.389 . S
C1334 C1333 1.389 . S
C1334 C1335 1.387 . S
C1335 H1320 0.930 . S
C1335 C1330 1.390 . S
C1335 C1334 1.387 . S
H1336 C1348 0.930 . S
H1337 C1350 0.930 . S
H1338 C1351 0.930 . S
H1339 C1355 0.959 . S
H1340 C1355 0.959 . S
H1341 C1355 0.961 . S
H1342 C1356 0.960 . S
H1343 C1356 0.961 . S
H1344 C1356 0.959 . S
H1345 C1359 0.929 . S
H1346 C1360 0.931 . S
H1347 C1362 0.930 . S
C1348 H1336 0.930 . S
C1348 C1349 1.399 . S
C1348 C1353 1.399 . S
C1349 C1348 1.399 . S
C1349 C1350 1.376 . S
C1350 H1337 0.930 . S
C1350 C1349 1.376 . S
C1350 C1351 1.388 . S
C1351 H1338 0.930 . S
C1351 C1350 1.388 . S
C1351 C1352 1.390 . S
C1352 C1351 1.390 . S
C1352 C1353 1.394 . S
C1352 C1358 1.465 . S
C1353 C1348 1.399 . S
C1353 C1352 1.394 . S
C1353 C1354 1.516 . S
C1354 C1353 1.516 . S
C1354 C1355 1.502 . S
C1354 C1356 1.561 . S
C1354 C1357 1.526 . S
C1355 H1339 0.959 . S
C1355 H1340 0.959 . S
C1355 H1341 0.961 . S
C1355 C1354 1.502 . S
C1356 H1342 0.960 . S
C1356 H1343 0.961 . S
C1356 H1344 0.959 . S
C1356 C1354 1.561 . S
C1357 C1354 1.526 . S
C1357 C1358 1.396 . S
C1357 C1362 1.390 . S
C1358 C1352 1.465 . S
C1358 C1357 1.396 . S
C1358 C1359 1.399 . S
C1359 H1345 0.929 . S
C1359 C1358 1.399 . S
C1359 C1360 1.385 . S
C1360 H1346 0.931 . S
C1360 C1359 1.385 . S
C1360 C1361 1.389 . S
C1361 C1360 1.389 . S
C1361 C1362 1.387 . S
C1362 H1347 0.930 . S
C1362 C1357 1.390 . S
C1362 C1361 1.387 . S
H1363 C1375 0.930 . S
H1364 C1377 0.930 . S
H1365 C1378 0.930 . S
H1366 C1382 0.959 . S
H1367 C1382 0.959 . S
H1368 C1382 0.961 . S
H1369 C1383 0.960 . S
H1370 C1383 0.961 . S
H1371 C1383 0.959 . S
H1372 C1386 0.929 . S
H1373 C1387 0.931 . S
H1374 C1389 0.930 . S
C1375 H1363 0.930 . S
C1375 C1376 1.399 . S
C1375 C1380 1.399 . S
C1376 C1375 1.399 . S
C1376 C1377 1.376 . S
C1377 H1364 0.930 . S
C1377 C1376 1.376 . S
C1377 C1378 1.388 . S
C1378 H1365 0.930 . S
C1378 C1377 1.388 . S
C1378 C1379 1.390 . S
C1379 C1378 1.390 . S
C1379 C1380 1.394 . S
C1379 C1385 1.465 . S
C1380 C1375 1.399 . S
C1380 C1379 1.394 . S
C1380 C1381 1.516 . S
C1381 C1380 1.516 . S
C1381 C1382 1.502 . S
C1381 C1383 1.561 . S
C1381 C1384 1.526 . S
C1382 H1366 0.959 . S
C1382 H1367 0.959 . S
C1382 H1368 0.961 . S
C1382 C1381 1.502 . S
C1383 H1369 0.960 . S
C1383 H1370 0.961 . S
C1383 H1371 0.959 . S
C1383 C1381 1.561 . S
C1384 C1381 1.526 . S
C1384 C1385 1.396 . S
C1384 C1389 1.390 . S
C1385 C1379 1.465 . S
C1385 C1384 1.396 . S
C1385 C1386 1.399 . S
C1386 H1372 0.929 . S
C1386 C1385 1.399 . S
C1386 C1387 1.385 . S
C1387 H1373 0.931 . S
C1387 C1386 1.385 . S
C1387 C1388 1.389 . S
C1388 C1387 1.389 . S
C1388 C1389 1.387 . S
C1389 H1374 0.930 . S
C1389 C1384 1.390 . S
C1389 C1388 1.387 . S
H1390 C1402 0.930 . S
H1391 C1404 0.930 . S
H1392 C1405 0.930 . S
H1393 C1409 0.959 . S
H1394 C1409 0.959 . S
H1395 C1409 0.961 . S
H1396 C1410 0.960 . S
H1397 C1410 0.961 . S
H1398 C1410 0.959 . S
H1399 C1413 0.929 . S
H1400 C1414 0.931 . S
H1401 C1416 0.930 . S
C1402 H1390 0.930 . S
C1402 C1403 1.399 . S
C1402 C1407 1.399 . S
C1403 C1402 1.399 . S
C1403 C1404 1.376 . S
C1404 H1391 0.930 . S
C1404 C1403 1.376 . S
C1404 C1405 1.388 . S
C1405 H1392 0.930 . S
C1405 C1404 1.388 . S
C1405 C1406 1.390 . S
C1406 C1405 1.390 . S
C1406 C1407 1.394 . S
C1406 C1412 1.465 . S
C1407 C1402 1.399 . S
C1407 C1406 1.394 . S
C1407 C1408 1.516 . S
C1408 C1407 1.516 . S
C1408 C1409 1.502 . S
C1408 C1410 1.561 . S
C1408 C1411 1.526 . S
C1409 H1393 0.959 . S
C1409 H1394 0.959 . S
C1409 H1395 0.961 . S
C1409 C1408 1.502 . S
C1410 H1396 0.960 . S
C1410 H1397 0.961 . S
C1410 H1398 0.959 . S
C1410 C1408 1.561 . S
C1411 C1408 1.526 . S
C1411 C1412 1.396 . S
C1411 C1416 1.390 . S
C1412 C1406 1.465 . S
C1412 C1411 1.396 . S
C1412 C1413 1.399 . S
C1413 H1399 0.929 . S
C1413 C1412 1.399 . S
C1413 C1414 1.385 . S
C1414 H1400 0.931 . S
C1414 C1413 1.385 . S
C1414 C1415 1.389 . S
C1415 C1414 1.389 . S
C1415 C1416 1.387 . S
C1416 H1401 0.930 . S
C1416 C1411 1.390 . S
C1416 C1415 1.387 . S
H1417 C1429 0.930 . S
H1418 C1431 0.930 . S
H1419 C1432 0.930 . S
H1420 C1436 0.959 . S
H1421 C1436 0.959 . S
H1422 C1436 0.961 . S
H1423 C1437 0.960 . S
H1424 C1437 0.961 . S
H1425 C1437 0.959 . S
H1426 C1440 0.929 . S
H1427 C1441 0.931 . S
H1428 C1443 0.930 . S
C1429 H1417 0.930 . S
C1429 C1430 1.399 . S
C1429 C1434 1.399 . S
C1430 C1429 1.399 . S
C1430 C1431 1.376 . S
C1431 H1418 0.930 . S
C1431 C1430 1.376 . S
C1431 C1432 1.388 . S
C1432 H1419 0.930 . S
C1432 C1431 1.388 . S
C1432 C1433 1.390 . S
C1433 C1432 1.390 . S
C1433 C1434 1.394 . S
C1433 C1439 1.465 . S
C1434 C1429 1.399 . S
C1434 C1433 1.394 . S
C1434 C1435 1.516 . S
C1435 C1434 1.516 . S
C1435 C1436 1.502 . S
C1435 C1437 1.561 . S
C1435 C1438 1.526 . S
C1436 H1420 0.959 . S
C1436 H1421 0.959 . S
C1436 H1422 0.961 . S
C1436 C1435 1.502 . S
C1437 H1423 0.960 . S
C1437 H1424 0.961 . S
C1437 H1425 0.959 . S
C1437 C1435 1.561 . S
C1438 C1435 1.526 . S
C1438 C1439 1.396 . S
C1438 C1443 1.390 . S
C1439 C1433 1.465 . S
C1439 C1438 1.396 . S
C1439 C1440 1.399 . S
C1440 H1426 0.929 . S
C1440 C1439 1.399 . S
C1440 C1441 1.385 . S
C1441 H1427 0.931 . S
C1441 C1440 1.385 . S
C1441 C1442 1.389 . S
C1442 C1441 1.389 . S
C1442 C1443 1.387 . S
C1443 H1428 0.930 . S
C1443 C1438 1.390 . S
C1443 C1442 1.387 . S
H1444 C1456 0.930 . S
H1445 C1458 0.930 . S
H1446 C1459 0.930 . S
H1447 C1463 0.959 . S
H1448 C1463 0.959 . S
H1449 C1463 0.961 . S
H1450 C1464 0.960 . S
H1451 C1464 0.961 . S
H1452 C1464 0.959 . S
H1453 C1467 0.929 . S
H1454 C1468 0.931 . S
H1455 C1470 0.930 . S
C1456 H1444 0.930 . S
C1456 C1457 1.399 . S
C1456 C1461 1.399 . S
C1457 C1456 1.399 . S
C1457 C1458 1.376 . S
C1458 H1445 0.930 . S
C1458 C1457 1.376 . S
C1458 C1459 1.388 . S
C1459 H1446 0.930 . S
C1459 C1458 1.388 . S
C1459 C1460 1.390 . S
C1460 C1459 1.390 . S
C1460 C1461 1.394 . S
C1460 C1466 1.465 . S
C1461 C1456 1.399 . S
C1461 C1460 1.394 . S
C1461 C1462 1.516 . S
C1462 C1461 1.516 . S
C1462 C1463 1.502 . S
C1462 C1464 1.561 . S
C1462 C1465 1.526 . S
C1463 H1447 0.959 . S
C1463 H1448 0.959 . S
C1463 H1449 0.961 . S
C1463 C1462 1.502 . S
C1464 H1450 0.960 . S
C1464 H1451 0.961 . S
C1464 H1452 0.959 . S
C1464 C1462 1.561 . S
C1465 C1462 1.526 . S
C1465 C1466 1.396 . S
C1465 C1470 1.390 . S
C1466 C1460 1.465 . S
C1466 C1465 1.396 . S
C1466 C1467 1.399 . S
C1467 H1453 0.929 . S
C1467 C1466 1.399 . S
C1467 C1468 1.385 . S
C1468 H1454 0.931 . S
C1468 C1467 1.385 . S
C1468 C1469 1.389 . S
C1469 C1468 1.389 . S
C1469 C1470 1.387 . S
C1470 H1455 0.930 . S
C1470 C1465 1.390 . S
C1470 C1469 1.387 . S
H1471 C1483 0.930 . S
H1472 C1485 0.930 . S
H1473 C1486 0.930 . S
H1474 C1490 0.959 . S
H1475 C1490 0.959 . S
H1476 C1490 0.961 . S
H1477 C1491 0.960 . S
H1478 C1491 0.961 . S
H1479 C1491 0.959 . S
H1480 C1494 0.929 . S
H1481 C1495 0.931 . S
H1482 C1497 0.930 . S
C1483 H1471 0.930 . S
C1483 C1484 1.399 . S
C1483 C1488 1.399 . S
C1484 C1483 1.399 . S
C1484 C1485 1.376 . S
C1485 H1472 0.930 . S
C1485 C1484 1.376 . S
C1485 C1486 1.388 . S
C1486 H1473 0.930 . S
C1486 C1485 1.388 . S
C1486 C1487 1.390 . S
C1487 C1486 1.390 . S
C1487 C1488 1.394 . S
C1487 C1493 1.465 . S
C1488 C1483 1.399 . S
C1488 C1487 1.394 . S
C1488 C1489 1.516 . S
C1489 C1488 1.516 . S
C1489 C1490 1.502 . S
C1489 C1491 1.561 . S
C1489 C1492 1.526 . S
C1490 H1474 0.959 . S
C1490 H1475 0.959 . S
C1490 H1476 0.961 . S
C1490 C1489 1.502 . S
C1491 H1477 0.960 . S
C1491 H1478 0.961 . S
C1491 H1479 0.959 . S
C1491 C1489 1.561 . S
C1492 C1489 1.526 . S
C1492 C1493 1.396 . S
C1492 C1497 1.390 . S
C1493 C1487 1.465 . S
C1493 C1492 1.396 . S
C1493 C1494 1.399 . S
C1494 H1480 0.929 . S
C1494 C1493 1.399 . S
C1494 C1495 1.385 . S
C1495 H1481 0.931 . S
C1495 C1494 1.385 . S
C1495 C1496 1.389 . S
C1496 C1495 1.389 . S
C1496 C1497 1.387 . S
C1497 H1482 0.930 . S
C1497 C1492 1.390 . S
C1497 C1496 1.387 . S
H1498 C1510 0.930 . S
H1499 C1512 0.930 . S
H1500 C1513 0.930 . S
H1501 C1517 0.959 . S
H1502 C1517 0.959 . S
H1503 C1517 0.961 . S
H1504 C1518 0.960 . S
H1505 C1518 0.961 . S
H1506 C1518 0.959 . S
H1507 C1521 0.929 . S
H1508 C1522 0.931 . S
H1509 C1524 0.930 . S
C1510 H1498 0.930 . S
C1510 C1511 1.399 . S
C1510 C1515 1.399 . S
C1511 C1510 1.399 . S
C1511 C1512 1.376 . S
C1512 H1499 0.930 . S
C1512 C1511 1.376 . S
C1512 C1513 1.388 . S
C1513 H1500 0.930 . S
C1513 C1512 1.388 . S
C1513 C1514 1.390 . S
C1514 C1513 1.390 . S
C1514 C1515 1.394 . S
C1514 C1520 1.465 . S
C1515 C1510 1.399 . S
C1515 C1514 1.394 . S
C1515 C1516 1.516 . S
C1516 C1515 1.516 . S
C1516 C1517 1.502 . S
C1516 C1518 1.561 . S
C1516 C1519 1.526 . S
C1517 H1501 0.959 . S
C1517 H1502 0.959 . S
C1517 H1503 0.961 . S
C1517 C1516 1.502 . S
C1518 H1504 0.960 . S
C1518 H1505 0.961 . S
C1518 H1506 0.959 . S
C1518 C1516 1.561 . S
C1519 C1516 1.526 . S
C1519 C1520 1.396 . S
C1519 C1524 1.390 . S
C1520 C1514 1.465 . S
C1520 C1519 1.396 . S
C1520 C1521 1.399 . S
C1521 H1507 0.929 . S
C1521 C1520 1.399 . S
C1521 C1522 1.385 . S
C1522 H1508 0.931 . S
C1522 C1521 1.385 . S
C1522 C1523 1.389 . S
C1523 C1522 1.389 . S
C1523 C1524 1.387 . S
C1524 H1509 0.930 . S
C1524 C1519 1.390 . S
C1524 C1523 1.387 . S
H1525 C1537 0.930 . S
H1526 C1539 0.930 . S
H1527 C1540 0.930 . S
H1528 C1544 0.959 . S
H1529 C1544 0.959 . S
H1530 C1544 0.961 . S
H1531 C1545 0.960 . S
H1532 C1545 0.961 . S
H1533 C1545 0.959 . S
H1534 C1548 0.929 . S
H1535 C1549 0.931 . S
H1536 C1551 0.930 . S
C1537 H1525 0.930 . S
C1537 C1538 1.399 . S
C1537 C1542 1.399 . S
C1538 C1537 1.399 . S
C1538 C1539 1.376 . S
C1539 H1526 0.930 . S
C1539 C1538 1.376 . S
C1539 C1540 1.388 . S
C1540 H1527 0.930 . S
C1540 C1539 1.388 . S
C1540 C1541 1.390 . S
C1541 C1540 1.390 . S
C1541 C1542 1.394 . S
C1541 C1547 1.465 . S
C1542 C1537 1.399 . S
C1542 C1541 1.394 . S
C1542 C1543 1.516 . S
C1543 C1542 1.516 . S
C1543 C1544 1.502 . S
C1543 C1545 1.561 . S
C1543 C1546 1.526 . S
C1544 H1528 0.959 . S
C1544 H1529 0.959 . S
C1544 H1530 0.961 . S
C1544 C1543 1.502 . S
C1545 H1531 0.960 . S
C1545 H1532 0.961 . S
C1545 H1533 0.959 . S
C1545 C1543 1.561 . S
C1546 C1543 1.526 . S
C1546 C1547 1.396 . S
C1546 C1551 1.390 . S
C1547 C1541 1.465 . S
C1547 C1546 1.396 . S
C1547 C1548 1.399 . S
C1548 H1534 0.929 . S
C1548 C1547 1.399 . S
C1548 C1549 1.385 . S
C1549 H1535 0.931 . S
C1549 C1548 1.385 . S
C1549 C1550 1.389 . S
C1550 C1549 1.389 . S
C1550 C1551 1.387 . S
C1551 H1536 0.930 . S
C1551 C1546 1.390 . S
C1551 C1550 1.387 . S
H1552 C1564 0.930 . S
H1553 C1566 0.930 . S
H1554 C1567 0.930 . S
H1555 C1571 0.959 . S
H1556 C1571 0.959 . S
H1557 C1571 0.961 . S
H1558 C1572 0.960 . S
H1559 C1572 0.961 . S
H1560 C1572 0.959 . S
H1561 C1575 0.929 . S
H1562 C1576 0.931 . S
H1563 C1578 0.930 . S
C1564 H1552 0.930 . S
C1564 C1565 1.399 . S
C1564 C1569 1.399 . S
C1565 C1564 1.399 . S
C1565 C1566 1.376 . S
C1566 H1553 0.930 . S
C1566 C1565 1.376 . S
C1566 C1567 1.388 . S
C1567 H1554 0.930 . S
C1567 C1566 1.388 . S
C1567 C1568 1.390 . S
C1568 C1567 1.390 . S
C1568 C1569 1.394 . S
C1568 C1574 1.465 . S
C1569 C1564 1.399 . S
C1569 C1568 1.394 . S
C1569 C1570 1.516 . S
C1570 C1569 1.516 . S
C1570 C1571 1.502 . S
C1570 C1572 1.561 . S
C1570 C1573 1.526 . S
C1571 H1555 0.959 . S
C1571 H1556 0.959 . S
C1571 H1557 0.961 . S
C1571 C1570 1.502 . S
C1572 H1558 0.960 . S
C1572 H1559 0.961 . S
C1572 H1560 0.959 . S
C1572 C1570 1.561 . S
C1573 C1570 1.526 . S
C1573 C1574 1.396 . S
C1573 C1578 1.390 . S
C1574 C1568 1.465 . S
C1574 C1573 1.396 . S
C1574 C1575 1.399 . S
C1575 H1561 0.929 . S
C1575 C1574 1.399 . S
C1575 C1576 1.385 . S
C1576 H1562 0.931 . S
C1576 C1575 1.385 . S
C1576 C1577 1.389 . S
C1577 C1576 1.389 . S
C1577 C1578 1.387 . S
C1578 H1563 0.930 . S
C1578 C1573 1.390 . S
C1578 C1577 1.387 . S
H1579 C1591 0.930 . S
H1580 C1593 0.930 . S
H1581 C1594 0.930 . S
H1582 C1598 0.959 . S
H1583 C1598 0.959 . S
H1584 C1598 0.961 . S
H1585 C1599 0.960 . S
H1586 C1599 0.961 . S
H1587 C1599 0.959 . S
H1588 C1602 0.929 . S
H1589 C1603 0.931 . S
H1590 C1605 0.930 . S
C1591 H1579 0.930 . S
C1591 C1592 1.399 . S
C1591 C1596 1.399 . S
C1592 C1591 1.399 . S
C1592 C1593 1.376 . S
C1593 H1580 0.930 . S
C1593 C1592 1.376 . S
C1593 C1594 1.388 . S
C1594 H1581 0.930 . S
C1594 C1593 1.388 . S
C1594 C1595 1.390 . S
C1595 C1594 1.390 . S
C1595 C1596 1.394 . S
C1595 C1601 1.465 . S
C1596 C1591 1.399 . S
C1596 C1595 1.394 . S
C1596 C1597 1.516 . S
C1597 C1596 1.516 . S
C1597 C1598 1.502 . S
C1597 C1599 1.561 . S
C1597 C1600 1.526 . S
C1598 H1582 0.959 . S
C1598 H1583 0.959 . S
C1598 H1584 0.961 . S
C1598 C1597 1.502 . S
C1599 H1585 0.960 . S
C1599 H1586 0.961 . S
C1599 H1587 0.959 . S
C1599 C1597 1.561 . S
C1600 C1597 1.526 . S
C1600 C1601 1.396 . S
C1600 C1605 1.390 . S
C1601 C1595 1.465 . S
C1601 C1600 1.396 . S
C1601 C1602 1.399 . S
C1602 H1588 0.929 . S
C1602 C1601 1.399 . S
C1602 C1603 1.385 . S
C1603 H1589 0.931 . S
C1603 C1602 1.385 . S
C1603 C1604 1.389 . S
C1604 C1603 1.389 . S
C1604 C1605 1.387 . S
C1605 H1590 0.930 . S
C1605 C1600 1.390 . S
C1605 C1604 1.387 . S
H1606 C1618 0.930 . S
H1607 C1620 0.930 . S
H1608 C1621 0.930 . S
H1609 C1625 0.959 . S
H1610 C1625 0.959 . S
H1611 C1625 0.961 . S
H1612 C1626 0.960 . S
H1613 C1626 0.961 . S
H1614 C1626 0.959 . S
H1615 C1629 0.929 . S
H1616 C1630 0.931 . S
H1617 C1632 0.930 . S
C1618 H1606 0.930 . S
C1618 C1619 1.399 . S
C1618 C1623 1.399 . S
C1619 C1618 1.399 . S
C1619 C1620 1.376 . S
C1620 H1607 0.930 . S
C1620 C1619 1.376 . S
C1620 C1621 1.388 . S
C1621 H1608 0.930 . S
C1621 C1620 1.388 . S
C1621 C1622 1.390 . S
C1622 C1621 1.390 . S
C1622 C1623 1.394 . S
C1622 C1628 1.465 . S
C1623 C1618 1.399 . S
C1623 C1622 1.394 . S
C1623 C1624 1.516 . S
C1624 C1623 1.516 . S
C1624 C1625 1.502 . S
C1624 C1626 1.561 . S
C1624 C1627 1.526 . S
C1625 H1609 0.959 . S
C1625 H1610 0.959 . S
C1625 H1611 0.961 . S
C1625 C1624 1.502 . S
C1626 H1612 0.960 . S
C1626 H1613 0.961 . S
C1626 H1614 0.959 . S
C1626 C1624 1.561 . S
C1627 C1624 1.526 . S
C1627 C1628 1.396 . S
C1627 C1632 1.390 . S
C1628 C1622 1.465 . S
C1628 C1627 1.396 . S
C1628 C1629 1.399 . S
C1629 H1615 0.929 . S
C1629 C1628 1.399 . S
C1629 C1630 1.385 . S
C1630 H1616 0.931 . S
C1630 C1629 1.385 . S
C1630 C1631 1.389 . S
C1631 C1630 1.389 . S
C1631 C1632 1.387 . S
C1632 H1617 0.930 . S
C1632 C1627 1.390 . S
C1632 C1631 1.387 . S
H1633 C1645 0.930 . S
H1634 C1647 0.930 . S
H1635 C1648 0.930 . S
H1636 C1652 0.959 . S
H1637 C1652 0.959 . S
H1638 C1652 0.961 . S
H1639 C1653 0.960 . S
H1640 C1653 0.961 . S
H1641 C1653 0.959 . S
H1642 C1656 0.929 . S
H1643 C1657 0.931 . S
H1644 C1659 0.930 . S
C1645 H1633 0.930 . S
C1645 C1646 1.399 . S
C1645 C1650 1.399 . S
C1646 C1645 1.399 . S
C1646 C1647 1.376 . S
C1647 H1634 0.930 . S
C1647 C1646 1.376 . S
C1647 C1648 1.388 . S
C1648 H1635 0.930 . S
C1648 C1647 1.388 . S
C1648 C1649 1.390 . S
C1649 C1648 1.390 . S
C1649 C1650 1.394 . S
C1649 C1655 1.465 . S
C1650 C1645 1.399 . S
C1650 C1649 1.394 . S
C1650 C1651 1.516 . S
C1651 C1650 1.516 . S
C1651 C1652 1.502 . S
C1651 C1653 1.561 . S
C1651 C1654 1.526 . S
C1652 H1636 0.959 . S
C1652 H1637 0.959 . S
C1652 H1638 0.961 . S
C1652 C1651 1.502 . S
C1653 H1639 0.960 . S
C1653 H1640 0.961 . S
C1653 H1641 0.959 . S
C1653 C1651 1.561 . S
C1654 C1651 1.526 . S
C1654 C1655 1.396 . S
C1654 C1659 1.390 . S
C1655 C1649 1.465 . S
C1655 C1654 1.396 . S
C1655 C1656 1.399 . S
C1656 H1642 0.929 . S
C1656 C1655 1.399 . S
C1656 C1657 1.385 . S
C1657 H1643 0.931 . S
C1657 C1656 1.385 . S
C1657 C1658 1.389 . S
C1658 C1657 1.389 . S
C1658 C1659 1.387 . S
C1659 H1644 0.930 . S
C1659 C1654 1.390 . S
C1659 C1658 1.387 . S
H1660 C1672 0.930 . S
H1661 C1674 0.930 . S
H1662 C1675 0.930 . S
H1663 C1679 0.959 . S
H1664 C1679 0.959 . S
H1665 C1679 0.961 . S
H1666 C1680 0.960 . S
H1667 C1680 0.961 . S
H1668 C1680 0.959 . S
H1669 C1683 0.929 . S
H1670 C1684 0.931 . S
H1671 C1686 0.930 . S
C1672 H1660 0.930 . S
C1672 C1673 1.399 . S
C1672 C1677 1.399 . S
C1673 C1672 1.399 . S
C1673 C1674 1.376 . S
C1674 H1661 0.930 . S
C1674 C1673 1.376 . S
C1674 C1675 1.388 . S
C1675 H1662 0.930 . S
C1675 C1674 1.388 . S
C1675 C1676 1.390 . S
C1676 C1675 1.390 . S
C1676 C1677 1.394 . S
C1676 C1682 1.465 . S
C1677 C1672 1.399 . S
C1677 C1676 1.394 . S
C1677 C1678 1.516 . S
C1678 C1677 1.516 . S
C1678 C1679 1.502 . S
C1678 C1680 1.561 . S
C1678 C1681 1.526 . S
C1679 H1663 0.959 . S
C1679 H1664 0.959 . S
C1679 H1665 0.961 . S
C1679 C1678 1.502 . S
C1680 H1666 0.960 . S
C1680 H1667 0.961 . S
C1680 H1668 0.959 . S
C1680 C1678 1.561 . S
C1681 C1678 1.526 . S
C1681 C1682 1.396 . S
C1681 C1686 1.390 . S
C1682 C1676 1.465 . S
C1682 C1681 1.396 . S
C1682 C1683 1.399 . S
C1683 H1669 0.929 . S
C1683 C1682 1.399 . S
C1683 C1684 1.385 . S
C1684 H1670 0.931 . S
C1684 C1683 1.385 . S
C1684 C1685 1.389 . S
C1685 C1684 1.389 . S
C1685 C1686 1.387 . S
C1686 H1671 0.930 . S
C1686 C1681 1.390 . S
C1686 C1685 1.387 . S
H1687 C1699 0.930 . S
H1688 C1701 0.930 . S
H1689 C1702 0.930 . S
H1690 C1706 0.959 . S
H1691 C1706 0.959 . S
H1692 C1706 0.961 . S
H1693 C1707 0.960 . S
H1694 C1707 0.961 . S
H1695 C1707 0.959 . S
H1696 C1710 0.929 . S
H1697 C1711 0.931 . S
H1698 C1713 0.930 . S
C1699 H1687 0.930 . S
C1699 C1700 1.399 . S
C1699 C1704 1.399 . S
C1700 C1699 1.399 . S
C1700 C1701 1.376 . S
C1701 H1688 0.930 . S
C1701 C1700 1.376 . S
C1701 C1702 1.388 . S
C1702 H1689 0.930 . S
C1702 C1701 1.388 . S
C1702 C1703 1.390 . S
C1703 C1702 1.390 . S
C1703 C1704 1.394 . S
C1703 C1709 1.465 . S
C1704 C1699 1.399 . S
C1704 C1703 1.394 . S
C1704 C1705 1.516 . S
C1705 C1704 1.516 . S
C1705 C1706 1.502 . S
C1705 C1707 1.561 . S
C1705 C1708 1.526 . S
C1706 H1690 0.959 . S
C1706 H1691 0.959 . S
C1706 H1692 0.961 . S
C1706 C1705 1.502 . S
C1707 H1693 0.960 . S
C1707 H1694 0.961 . S
C1707 H1695 0.959 . S
C1707 C1705 1.561 . S
C1708 C1705 1.526 . S
C1708 C1709 1.396 . S
C1708 C1713 1.390 . S
C1709 C1703 1.465 . S
C1709 C1708 1.396 . S
C1709 C1710 1.399 . S
C1710 H1696 0.929 . S
C1710 C1709 1.399 . S
C1710 C1711 1.385 . S
C1711 H1697 0.931 . S
C1711 C1710 1.385 . S
C1711 C1712 1.389 . S
C1712 C1711 1.389 . S
C1712 C1713 1.387 . S
C1713 H1698 0.930 . S
C1713 C1708 1.390 . S
C1713 C1712 1.387 . S
H1714 C1726 0.930 . S
H1715 C1728 0.930 . S
H1716 C1729 0.930 . S
H1717 C1733 0.959 . S
H1718 C1733 0.959 . S
H1719 C1733 0.961 . S
H1720 C1734 0.960 . S
H1721 C1734 0.961 . S
H1722 C1734 0.959 . S
H1723 C1737 0.929 . S
H1724 C1738 0.931 . S
H1725 C1740 0.930 . S
C1726 H1714 0.930 . S
C1726 C1727 1.399 . S
C1726 C1731 1.399 . S
C1727 C1726 1.399 . S
C1727 C1728 1.376 . S
C1728 H1715 0.930 . S
C1728 C1727 1.376 . S
C1728 C1729 1.388 . S
C1729 H1716 0.930 . S
C1729 C1728 1.388 . S
C1729 C1730 1.390 . S
C1730 C1729 1.390 . S
C1730 C1731 1.394 . S
C1730 C1736 1.465 . S
C1731 C1726 1.399 . S
C1731 C1730 1.394 . S
C1731 C1732 1.516 . S
C1732 C1731 1.516 . S
C1732 C1733 1.502 . S
C1732 C1734 1.561 . S
C1732 C1735 1.526 . S
C1733 H1717 0.959 . S
C1733 H1718 0.959 . S
C1733 H1719 0.961 . S
C1733 C1732 1.502 . S
C1734 H1720 0.960 . S
C1734 H1721 0.961 . S
C1734 H1722 0.959 . S
C1734 C1732 1.561 . S
C1735 C1732 1.526 . S
C1735 C1736 1.396 . S
C1735 C1740 1.390 . S
C1736 C1730 1.465 . S
C1736 C1735 1.396 . S
C1736 C1737 1.399 . S
C1737 H1723 0.929 . S
C1737 C1736 1.399 . S
C1737 C1738 1.385 . S
C1738 H1724 0.931 . S
C1738 C1737 1.385 . S
C1738 C1739 1.389 . S
C1739 C1738 1.389 . S
C1739 C1740 1.387 . S
C1740 H1725 0.930 . S
C1740 C1735 1.390 . S
C1740 C1739 1.387 . S
H1741 C1753 0.930 . S
H1742 C1755 0.930 . S
H1743 C1756 0.930 . S
H1744 C1760 0.959 . S
H1745 C1760 0.959 . S
H1746 C1760 0.961 . S
H1747 C1761 0.960 . S
H1748 C1761 0.961 . S
H1749 C1761 0.959 . S
H1750 C1764 0.929 . S
H1751 C1765 0.931 . S
H1752 C1767 0.930 . S
C1753 H1741 0.930 . S
C1753 C1754 1.399 . S
C1753 C1758 1.399 . S
C1754 C1753 1.399 . S
C1754 C1755 1.376 . S
C1755 H1742 0.930 . S
C1755 C1754 1.376 . S
C1755 C1756 1.388 . S
C1756 H1743 0.930 . S
C1756 C1755 1.388 . S
C1756 C1757 1.390 . S
C1757 C1756 1.390 . S
C1757 C1758 1.394 . S
C1757 C1763 1.465 . S
C1758 C1753 1.399 . S
C1758 C1757 1.394 . S
C1758 C1759 1.516 . S
C1759 C1758 1.516 . S
C1759 C1760 1.502 . S
C1759 C1761 1.561 . S
C1759 C1762 1.526 . S
C1760 H1744 0.959 . S
C1760 H1745 0.959 . S
C1760 H1746 0.961 . S
C1760 C1759 1.502 . S
C1761 H1747 0.960 . S
C1761 H1748 0.961 . S
C1761 H1749 0.959 . S
C1761 C1759 1.561 . S
C1762 C1759 1.526 . S
C1762 C1763 1.396 . S
C1762 C1767 1.390 . S
C1763 C1757 1.465 . S
C1763 C1762 1.396 . S
C1763 C1764 1.399 . S
C1764 H1750 0.929 . S
C1764 C1763 1.399 . S
C1764 C1765 1.385 . S
C1765 H1751 0.931 . S
C1765 C1764 1.385 . S
C1765 C1766 1.389 . S
C1766 C1765 1.389 . S
C1766 C1767 1.387 . S
C1767 H1752 0.930 . S
C1767 C1762 1.390 . S
C1767 C1766 1.387 . S
H1768 C1780 0.930 . S
H1769 C1782 0.930 . S
H1770 C1783 0.930 . S
H1771 C1787 0.959 . S
H1772 C1787 0.959 . S
H1773 C1787 0.961 . S
H1774 C1788 0.960 . S
H1775 C1788 0.961 . S
H1776 C1788 0.959 . S
H1777 C1791 0.929 . S
H1778 C1792 0.931 . S
H1779 C1794 0.930 . S
C1780 H1768 0.930 . S
C1780 C1781 1.399 . S
C1780 C1785 1.399 . S
C1781 C1780 1.399 . S
C1781 C1782 1.376 . S
C1782 H1769 0.930 . S
C1782 C1781 1.376 . S
C1782 C1783 1.388 . S
C1783 H1770 0.930 . S
C1783 C1782 1.388 . S
C1783 C1784 1.390 . S
C1784 C1783 1.390 . S
C1784 C1785 1.394 . S
C1784 C1790 1.465 . S
C1785 C1780 1.399 . S
C1785 C1784 1.394 . S
C1785 C1786 1.516 . S
C1786 C1785 1.516 . S
C1786 C1787 1.502 . S
C1786 C1788 1.561 . S
C1786 C1789 1.526 . S
C1787 H1771 0.959 . S
C1787 H1772 0.959 . S
C1787 H1773 0.961 . S
C1787 C1786 1.502 . S
C1788 H1774 0.960 . S
C1788 H1775 0.961 . S
C1788 H1776 0.959 . S
C1788 C1786 1.561 . S
C1789 C1786 1.526 . S
C1789 C1790 1.396 . S
C1789 C1794 1.390 . S
C1790 C1784 1.465 . S
C1790 C1789 1.396 . S
C1790 C1791 1.399 . S
C1791 H1777 0.929 . S
C1791 C1790 1.399 . S
C1791 C1792 1.385 . S
C1792 H1778 0.931 . S
C1792 C1791 1.385 . S
C1792 C1793 1.389 . S
C1793 C1792 1.389 . S
C1793 C1794 1.387 . S
C1794 H1779 0.930 . S
C1794 C1789 1.390 . S
C1794 C1793 1.387 . S
H1795 C1807 0.930 . S
H1796 C1809 0.930 . S
H1797 C1810 0.930 . S
H1798 C1814 0.959 . S
H1799 C1814 0.959 . S
H1800 C1814 0.961 . S
H1801 C1815 0.960 . S
H1802 C1815 0.961 . S
H1803 C1815 0.959 . S
H1804 C1818 0.929 . S
H1805 C1819 0.931 . S
H1806 C1821 0.930 . S
C1807 H1795 0.930 . S
C1807 C1808 1.399 . S
C1807 C1812 1.399 . S
C1808 C1807 1.399 . S
C1808 C1809 1.376 . S
C1809 H1796 0.930 . S
C1809 C1808 1.376 . S
C1809 C1810 1.388 . S
C1810 H1797 0.930 . S
C1810 C1809 1.388 . S
C1810 C1811 1.390 . S
C1811 C1810 1.390 . S
C1811 C1812 1.394 . S
C1811 C1817 1.465 . S
C1812 C1807 1.399 . S
C1812 C1811 1.394 . S
C1812 C1813 1.516 . S
C1813 C1812 1.516 . S
C1813 C1814 1.502 . S
C1813 C1815 1.561 . S
C1813 C1816 1.526 . S
C1814 H1798 0.959 . S
C1814 H1799 0.959 . S
C1814 H1800 0.961 . S
C1814 C1813 1.502 . S
C1815 H1801 0.960 . S
C1815 H1802 0.961 . S
C1815 H1803 0.959 . S
C1815 C1813 1.561 . S
C1816 C1813 1.526 . S
C1816 C1817 1.396 . S
C1816 C1821 1.390 . S
C1817 C1811 1.465 . S
C1817 C1816 1.396 . S
C1817 C1818 1.399 . S
C1818 H1804 0.929 . S
C1818 C1817 1.399 . S
C1818 C1819 1.385 . S
C1819 H1805 0.931 . S
C1819 C1818 1.385 . S
C1819 C1820 1.389 . S
C1820 C1819 1.389 . S
C1820 C1821 1.387 . S
C1821 H1806 0.930 . S
C1821 C1816 1.390 . S
C1821 C1820 1.387 . S
H1822 C1834 0.930 . S
H1823 C1836 0.930 . S
H1824 C1837 0.930 . S
H1825 C1841 0.959 . S
H1826 C1841 0.959 . S
H1827 C1841 0.961 . S
H1828 C1842 0.960 . S
H1829 C1842 0.961 . S
H1830 C1842 0.959 . S
H1831 C1845 0.929 . S
H1832 C1846 0.931 . S
H1833 C1848 0.930 . S
C1834 H1822 0.930 . S
C1834 C1835 1.399 . S
C1834 C1839 1.399 . S
C1835 C1834 1.399 . S
C1835 C1836 1.376 . S
C1836 H1823 0.930 . S
C1836 C1835 1.376 . S
C1836 C1837 1.388 . S
C1837 H1824 0.930 . S
C1837 C1836 1.388 . S
C1837 C1838 1.390 . S
C1838 C1837 1.390 . S
C1838 C1839 1.394 . S
C1838 C1844 1.465 . S
C1839 C1834 1.399 . S
C1839 C1838 1.394 . S
C1839 C1840 1.516 . S
C1840 C1839 1.516 . S
C1840 C1841 1.502 . S
C1840 C1842 1.561 . S
C1840 C1843 1.526 . S
C1841 H1825 0.959 . S
C1841 H1826 0.959 . S
C1841 H1827 0.961 . S
C1841 C1840 1.502 . S
C1842 H1828 0.960 . S
C1842 H1829 0.961 . S
C1842 H1830 0.959 . S
C1842 C1840 1.561 . S
C1843 C1840 1.526 . S
C1843 C1844 1.396 . S
C1843 C1848 1.390 . S
C1844 C1838 1.465 . S
C1844 C1843 1.396 . S
C1844 C1845 1.399 . S
C1845 H1831 0.929 . S
C1845 C1844 1.399 . S
C1845 C1846 1.385 . S
C1846 H1832 0.931 . S
C1846 C1845 1.385 . S
C1846 C1847 1.389 . S
C1847 C1846 1.389 . S
C1847 C1848 1.387 . S
C1848 H1833 0.930 . S
C1848 C1843 1.390 . S
C1848 C1847 1.387 . S
H1849 C1861 0.930 . S
H1850 C1863 0.930 . S
H1851 C1864 0.930 . S
H1852 C1868 0.959 . S
H1853 C1868 0.959 . S
H1854 C1868 0.961 . S
H1855 C1869 0.960 . S
H1856 C1869 0.961 . S
H1857 C1869 0.959 . S
H1858 C1872 0.929 . S
H1859 C1873 0.931 . S
H1860 C1875 0.930 . S
C1861 H1849 0.930 . S
C1861 C1862 1.399 . S
C1861 C1866 1.399 . S
C1862 C1861 1.399 . S
C1862 C1863 1.376 . S
C1863 H1850 0.930 . S
C1863 C1862 1.376 . S
C1863 C1864 1.388 . S
C1864 H1851 0.930 . S
C1864 C1863 1.388 . S
C1864 C1865 1.390 . S
C1865 C1864 1.390 . S
C1865 C1866 1.394 . S
C1865 C1871 1.465 . S
C1866 C1861 1.399 . S
C1866 C1865 1.394 . S
C1866 C1867 1.516 . S
C1867 C1866 1.516 . S
C1867 C1868 1.502 . S
C1867 C1869 1.561 . S
C1867 C1870 1.526 . S
C1868 H1852 0.959 . S
C1868 H1853 0.959 . S
C1868 H1854 0.961 . S
C1868 C1867 1.502 . S
C1869 H1855 0.960 . S
C1869 H1856 0.961 . S
C1869 H1857 0.959 . S
C1869 C1867 1.561 . S
C1870 C1867 1.526 . S
C1870 C1871 1.396 . S
C1870 C1875 1.390 . S
C1871 C1865 1.465 . S
C1871 C1870 1.396 . S
C1871 C1872 1.399 . S
C1872 H1858 0.929 . S
C1872 C1871 1.399 . S
C1872 C1873 1.385 . S
C1873 H1859 0.931 . S
C1873 C1872 1.385 . S
C1873 C1874 1.389 . S
C1874 C1873 1.389 . S
C1874 C1875 1.387 . S
C1875 H1860 0.930 . S
C1875 C1870 1.390 . S
C1875 C1874 1.387 . S
H1876 C1888 0.930 . S
H1877 C1890 0.930 . S
H1878 C1891 0.930 . S
H1879 C1895 0.959 . S
H1880 C1895 0.959 . S
H1881 C1895 0.961 . S
H1882 C1896 0.960 . S
H1883 C1896 0.961 . S
H1884 C1896 0.959 . S
H1885 C1899 0.929 . S
H1886 C1900 0.931 . S
H1887 C1902 0.930 . S
C1888 H1876 0.930 . S
C1888 C1889 1.399 . S
C1888 C1893 1.399 . S
C1889 C1888 1.399 . S
C1889 C1890 1.376 . S
C1890 H1877 0.930 . S
C1890 C1889 1.376 . S
C1890 C1891 1.388 . S
C1891 H1878 0.930 . S
C1891 C1890 1.388 . S
C1891 C1892 1.390 . S
C1892 C1891 1.390 . S
C1892 C1893 1.394 . S
C1892 C1898 1.465 . S
C1893 C1888 1.399 . S
C1893 C1892 1.394 . S
C1893 C1894 1.516 . S
C1894 C1893 1.516 . S
C1894 C1895 1.502 . S
C1894 C1896 1.561 . S
C1894 C1897 1.526 . S
C1895 H1879 0.959 . S
C1895 H1880 0.959 . S
C1895 H1881 0.961 . S
C1895 C1894 1.502 . S
C1896 H1882 0.960 . S
C1896 H1883 0.961 . S
C1896 H1884 0.959 . S
C1896 C1894 1.561 . S
C1897 C1894 1.526 . S
C1897 C1898 1.396 . S
C1897 C1902 1.390 . S
C1898 C1892 1.465 . S
C1898 C1897 1.396 . S
C1898 C1899 1.399 . S
C1899 H1885 0.929 . S
C1899 C1898 1.399 . S
C1899 C1900 1.385 . S
C1900 H1886 0.931 . S
C1900 C1899 1.385 . S
C1900 C1901 1.389 . S
C1901 C1900 1.389 . S
C1901 C1902 1.387 . S
C1902 H1887 0.930 . S
C1902 C1897 1.390 . S
C1902 C1901 1.387 . S
H1903 C1915 0.930 . S
H1904 C1917 0.930 . S
H1905 C1918 0.930 . S
H1906 C1922 0.959 . S
H1907 C1922 0.959 . S
H1908 C1922 0.961 . S
H1909 C1923 0.960 . S
H1910 C1923 0.961 . S
H1911 C1923 0.959 . S
H1912 C1926 0.929 . S
H1913 C1927 0.931 . S
H1914 C1929 0.930 . S
C1915 H1903 0.930 . S
C1915 C1916 1.399 . S
C1915 C1920 1.399 . S
C1916 C1915 1.399 . S
C1916 C1917 1.376 . S
C1917 H1904 0.930 . S
C1917 C1916 1.376 . S
C1917 C1918 1.388 . S
C1918 H1905 0.930 . S
C1918 C1917 1.388 . S
C1918 C1919 1.390 . S
C1919 C1918 1.390 . S
C1919 C1920 1.394 . S
C1919 C1925 1.465 . S
C1920 C1915 1.399 . S
C1920 C1919 1.394 . S
C1920 C1921 1.516 . S
C1921 C1920 1.516 . S
C1921 C1922 1.502 . S
C1921 C1923 1.561 . S
C1921 C1924 1.526 . S
C1922 H1906 0.959 . S
C1922 H1907 0.959 . S
C1922 H1908 0.961 . S
C1922 C1921 1.502 . S
C1923 H1909 0.960 . S
C1923 H1910 0.961 . S
C1923 H1911 0.959 . S
C1923 C1921 1.561 . S
C1924 C1921 1.526 . S
C1924 C1925 1.396 . S
C1924 C1929 1.390 . S
C1925 C1919 1.465 . S
C1925 C1924 1.396 . S
C1925 C1926 1.399 . S
C1926 H1912 0.929 . S
C1926 C1925 1.399 . S
C1926 C1927 1.385 . S
C1927 H1913 0.931 . S
C1927 C1926 1.385 . S
C1927 C1928 1.389 . S
C1928 C1927 1.389 . S
C1928 C1929 1.387 . S
C1929 H1914 0.930 . S
C1929 C1924 1.390 . S
C1929 C1928 1.387 . S
H1930 C1942 0.930 . S
H1931 C1944 0.930 . S
H1932 C1945 0.930 . S
H1933 C1949 0.959 . S
H1934 C1949 0.959 . S
H1935 C1949 0.961 . S
H1936 C1950 0.960 . S
H1937 C1950 0.961 . S
H1938 C1950 0.959 . S
H1939 C1953 0.929 . S
H1940 C1954 0.931 . S
H1941 C1956 0.930 . S
C1942 H1930 0.930 . S
C1942 C1943 1.399 . S
C1942 C1947 1.399 . S
C1943 C1942 1.399 . S
C1943 C1944 1.376 . S
C1944 H1931 0.930 . S
C1944 C1943 1.376 . S
C1944 C1945 1.388 . S
C1945 H1932 0.930 . S
C1945 C1944 1.388 . S
C1945 C1946 1.390 . S
C1946 C1945 1.390 . S
C1946 C1947 1.394 . S
C1946 C1952 1.465 . S
C1947 C1942 1.399 . S
C1947 C1946 1.394 . S
C1947 C1948 1.516 . S
C1948 C1947 1.516 . S
C1948 C1949 1.502 . S
C1948 C1950 1.561 . S
C1948 C1951 1.526 . S
C1949 H1933 0.959 . S
C1949 H1934 0.959 . S
C1949 H1935 0.961 . S
C1949 C1948 1.502 . S
C1950 H1936 0.960 . S
C1950 H1937 0.961 . S
C1950 H1938 0.959 . S
C1950 C1948 1.561 . S
C1951 C1948 1.526 . S
C1951 C1952 1.396 . S
C1951 C1956 1.390 . S
C1952 C1946 1.465 . S
C1952 C1951 1.396 . S
C1952 C1953 1.399 . S
C1953 H1939 0.929 . S
C1953 C1952 1.399 . S
C1953 C1954 1.385 . S
C1954 H1940 0.931 . S
C1954 C1953 1.385 . S
C1954 C1955 1.389 . S
C1955 C1954 1.389 . S
C1955 C1956 1.387 . S
C1956 H1941 0.930 . S
C1956 C1951 1.390 . S
C1956 C1955 1.387 . S
H1957 C1969 0.930 . S
H1958 C1971 0.930 . S
H1959 C1972 0.930 . S
H1960 C1976 0.959 . S
H1961 C1976 0.959 . S
H1962 C1976 0.961 . S
H1963 C1977 0.960 . S
H1964 C1977 0.961 . S
H1965 C1977 0.959 . S
H1966 C1980 0.929 . S
H1967 C1981 0.931 . S
H1968 C1983 0.930 . S
C1969 H1957 0.930 . S
C1969 C1970 1.399 . S
C1969 C1974 1.399 . S
C1970 C1969 1.399 . S
C1970 C1971 1.376 . S
C1971 H1958 0.930 . S
C1971 C1970 1.376 . S
C1971 C1972 1.388 . S
C1972 H1959 0.930 . S
C1972 C1971 1.388 . S
C1972 C1973 1.390 . S
C1973 C1972 1.390 . S
C1973 C1974 1.394 . S
C1973 C1979 1.465 . S
C1974 C1969 1.399 . S
C1974 C1973 1.394 . S
C1974 C1975 1.516 . S
C1975 C1974 1.516 . S
C1975 C1976 1.502 . S
C1975 C1977 1.561 . S
C1975 C1978 1.526 . S
C1976 H1960 0.959 . S
C1976 H1961 0.959 . S
C1976 H1962 0.961 . S
C1976 C1975 1.502 . S
C1977 H1963 0.960 . S
C1977 H1964 0.961 . S
C1977 H1965 0.959 . S
C1977 C1975 1.561 . S
C1978 C1975 1.526 . S
C1978 C1979 1.396 . S
C1978 C1983 1.390 . S
C1979 C1973 1.465 . S
C1979 C1978 1.396 . S
C1979 C1980 1.399 . S
C1980 H1966 0.929 . S
C1980 C1979 1.399 . S
C1980 C1981 1.385 . S
C1981 H1967 0.931 . S
C1981 C1980 1.385 . S
C1981 C1982 1.389 . S
C1982 C1981 1.389 . S
C1982 C1983 1.387 . S
C1983 H1968 0.930 . S
C1983 C1978 1.390 . S
C1983 C1982 1.387 . S
H1984 C1996 0.930 . S
H1985 C1998 0.930 . S
H1986 C1999 0.930 . S
H1987 C2003 0.959 . S
H1988 C2003 0.959 . S
H1989 C2003 0.961 . S
H1990 C2004 0.960 . S
H1991 C2004 0.961 . S
H1992 C2004 0.959 . S
H1993 C2007 0.929 . S
H1994 C2008 0.931 . S
H1995 C2010 0.930 . S
C1996 H1984 0.930 . S
C1996 C1997 1.399 . S
C1996 C2001 1.399 . S
C1997 C1996 1.399 . S
C1997 C1998 1.376 . S
C1998 H1985 0.930 . S
C1998 C1997 1.376 . S
C1998 C1999 1.388 . S
C1999 H1986 0.930 . S
C1999 C1998 1.388 . S
C1999 C2000 1.390 . S
C2000 C1999 1.390 . S
C2000 C2001 1.394 . S
C2000 C2006 1.465 . S
C2001 C1996 1.399 . S
C2001 C2000 1.394 . S
C2001 C2002 1.516 . S
C2002 C2001 1.516 . S
C2002 C2003 1.502 . S
C2002 C2004 1.561 . S
C2002 C2005 1.526 . S
C2003 H1987 0.959 . S
C2003 H1988 0.959 . S
C2003 H1989 0.961 . S
C2003 C2002 1.502 . S
C2004 H1990 0.960 . S
C2004 H1991 0.961 . S
C2004 H1992 0.959 . S
C2004 C2002 1.561 . S
C2005 C2002 1.526 . S
C2005 C2006 1.396 . S
C2005 C2010 1.390 . S
C2006 C2000 1.465 . S
C2006 C2005 1.396 . S
C2006 C2007 1.399 . S
C2007 H1993 0.929 . S
C2007 C2006 1.399 . S
C2007 C2008 1.385 . S
C2008 H1994 0.931 . S
C2008 C2007 1.385 . S
C2008 C2009 1.389 . S
C2009 C2008 1.389 . S
C2009 C2010 1.387 . S
C2010 H1995 0.930 . S
C2010 C2005 1.390 . S
C2010 C2009 1.387 . S
H2011 C2023 0.930 . S
H2012 C2025 0.930 . S
H2013 C2026 0.930 . S
H2014 C2030 0.959 . S
H2015 C2030 0.959 . S
H2016 C2030 0.961 . S
H2017 C2031 0.960 . S
H2018 C2031 0.961 . S
H2019 C2031 0.959 . S
H2020 C2034 0.929 . S
H2021 C2035 0.931 . S
H2022 C2037 0.930 . S
C2023 H2011 0.930 . S
C2023 C2024 1.399 . S
C2023 C2028 1.399 . S
C2024 C2023 1.399 . S
C2024 C2025 1.376 . S
C2025 H2012 0.930 . S
C2025 C2024 1.376 . S
C2025 C2026 1.388 . S
C2026 H2013 0.930 . S
C2026 C2025 1.388 . S
C2026 C2027 1.390 . S
C2027 C2026 1.390 . S
C2027 C2028 1.394 . S
C2027 C2033 1.465 . S
C2028 C2023 1.399 . S
C2028 C2027 1.394 . S
C2028 C2029 1.516 . S
C2029 C2028 1.516 . S
C2029 C2030 1.502 . S
C2029 C2031 1.561 . S
C2029 C2032 1.526 . S
C2030 H2014 0.959 . S
C2030 H2015 0.959 . S
C2030 H2016 0.961 . S
C2030 C2029 1.502 . S
C2031 H2017 0.960 . S
C2031 H2018 0.961 . S
C2031 H2019 0.959 . S
C2031 C2029 1.561 . S
C2032 C2029 1.526 . S
C2032 C2033 1.396 . S
C2032 C2037 1.390 . S
C2033 C2027 1.465 . S
C2033 C2032 1.396 . S
C2033 C2034 1.399 . S
C2034 H2020 0.929 . S
C2034 C2033 1.399 . S
C2034 C2035 1.385 . S
C2035 H2021 0.931 . S
C2035 C2034 1.385 . S
C2035 C2036 1.389 . S
C2036 C2035 1.389 . S
C2036 C2037 1.387 . S
C2037 H2022 0.930 . S
C2037 C2032 1.390 . S
C2037 C2036 1.387 . S
H2038 C2050 0.930 . S
H2039 C2052 0.930 . S
H2040 C2053 0.930 . S
H2041 C2057 0.959 . S
H2042 C2057 0.959 . S
H2043 C2057 0.961 . S
H2044 C2058 0.960 . S
H2045 C2058 0.961 . S
H2046 C2058 0.959 . S
H2047 C2061 0.929 . S
H2048 C2062 0.931 . S
H2049 C2064 0.930 . S
C2050 H2038 0.930 . S
C2050 C2051 1.399 . S
C2050 C2055 1.399 . S
C2051 C2050 1.399 . S
C2051 C2052 1.376 . S
C2052 H2039 0.930 . S
C2052 C2051 1.376 . S
C2052 C2053 1.388 . S
C2053 H2040 0.930 . S
C2053 C2052 1.388 . S
C2053 C2054 1.390 . S
C2054 C2053 1.390 . S
C2054 C2055 1.394 . S
C2054 C2060 1.465 . S
C2055 C2050 1.399 . S
C2055 C2054 1.394 . S
C2055 C2056 1.516 . S
C2056 C2055 1.516 . S
C2056 C2057 1.502 . S
C2056 C2058 1.561 . S
C2056 C2059 1.526 . S
C2057 H2041 0.959 . S
C2057 H2042 0.959 . S
C2057 H2043 0.961 . S
C2057 C2056 1.502 . S
C2058 H2044 0.960 . S
C2058 H2045 0.961 . S
C2058 H2046 0.959 . S
C2058 C2056 1.561 . S
C2059 C2056 1.526 . S
C2059 C2060 1.396 . S
C2059 C2064 1.390 . S
C2060 C2054 1.465 . S
C2060 C2059 1.396 . S
C2060 C2061 1.399 . S
C2061 H2047 0.929 . S
C2061 C2060 1.399 . S
C2061 C2062 1.385 . S
C2062 H2048 0.931 . S
C2062 C2061 1.385 . S
C2062 C2063 1.389 . S
C2063 C2062 1.389 . S
C2063 C2064 1.387 . S
C2064 H2049 0.930 . S
C2064 C2059 1.390 . S
C2064 C2063 1.387 . S
H2065 C2077 0.930 . S
H2066 C2079 0.930 . S
H2067 C2080 0.930 . S
H2068 C2084 0.959 . S
H2069 C2084 0.959 . S
H2070 C2084 0.961 . S
H2071 C2085 0.960 . S
H2072 C2085 0.961 . S
H2073 C2085 0.959 . S
H2074 C2088 0.929 . S
H2075 C2089 0.931 . S
H2076 C2091 0.930 . S
C2077 H2065 0.930 . S
C2077 C2078 1.399 . S
C2077 C2082 1.399 . S
C2078 C2077 1.399 . S
C2078 C2079 1.376 . S
C2079 H2066 0.930 . S
C2079 C2078 1.376 . S
C2079 C2080 1.388 . S
C2080 H2067 0.930 . S
C2080 C2079 1.388 . S
C2080 C2081 1.390 . S
C2081 C2080 1.390 . S
C2081 C2082 1.394 . S
C2081 C2087 1.465 . S
C2082 C2077 1.399 . S
C2082 C2081 1.394 . S
C2082 C2083 1.516 . S
C2083 C2082 1.516 . S
C2083 C2084 1.502 . S
C2083 C2085 1.561 . S
C2083 C2086 1.526 . S
C2084 H2068 0.959 . S
C2084 H2069 0.959 . S
C2084 H2070 0.961 . S
C2084 C2083 1.502 . S
C2085 H2071 0.960 . S
C2085 H2072 0.961 . S
C2085 H2073 0.959 . S
C2085 C2083 1.561 . S
C2086 C2083 1.526 . S
C2086 C2087 1.396 . S
C2086 C2091 1.390 . S
C2087 C2081 1.465 . S
C2087 C2086 1.396 . S
C2087 C2088 1.399 . S
C2088 H2074 0.929 . S
C2088 C2087 1.399 . S
C2088 C2089 1.385 . S
C2089 H2075 0.931 . S
C2089 C2088 1.385 . S
C2089 C2090 1.389 . S
C2090 C2089 1.389 . S
C2090 C2091 1.387 . S
C2091 H2076 0.930 . S
C2091 C2086 1.390 . S
C2091 C2090 1.387 . S
H2092 C2104 0.930 . S
H2093 C2106 0.930 . S
H2094 C2107 0.930 . S
H2095 C2111 0.959 . S
H2096 C2111 0.959 . S
H2097 C2111 0.961 . S
H2098 C2112 0.960 . S
H2099 C2112 0.961 . S
H2100 C2112 0.959 . S
H2101 C2115 0.929 . S
H2102 C2116 0.931 . S
H2103 C2118 0.930 . S
C2104 H2092 0.930 . S
C2104 C2105 1.399 . S
C2104 C2109 1.399 . S
C2105 C2104 1.399 . S
C2105 C2106 1.376 . S
C2106 H2093 0.930 . S
C2106 C2105 1.376 . S
C2106 C2107 1.388 . S
C2107 H2094 0.930 . S
C2107 C2106 1.388 . S
C2107 C2108 1.390 . S
C2108 C2107 1.390 . S
C2108 C2109 1.394 . S
C2108 C2114 1.465 . S
C2109 C2104 1.399 . S
C2109 C2108 1.394 . S
C2109 C2110 1.516 . S
C2110 C2109 1.516 . S
C2110 C2111 1.502 . S
C2110 C2112 1.561 . S
C2110 C2113 1.526 . S
C2111 H2095 0.959 . S
C2111 H2096 0.959 . S
C2111 H2097 0.961 . S
C2111 C2110 1.502 . S
C2112 H2098 0.960 . S
C2112 H2099 0.961 . S
C2112 H2100 0.959 . S
C2112 C2110 1.561 . S
C2113 C2110 1.526 . S
C2113 C2114 1.396 . S
C2113 C2118 1.390 . S
C2114 C2108 1.465 . S
C2114 C2113 1.396 . S
C2114 C2115 1.399 . S
C2115 H2101 0.929 . S
C2115 C2114 1.399 . S
C2115 C2116 1.385 . S
C2116 H2102 0.931 . S
C2116 C2115 1.385 . S
C2116 C2117 1.389 . S
C2117 C2116 1.389 . S
C2117 C2118 1.387 . S
C2118 H2103 0.930 . S
C2118 C2113 1.390 . S
C2118 C2117 1.387 . S
H2119 C2131 0.930 . S
H2120 C2133 0.930 . S
H2121 C2134 0.930 . S
H2122 C2138 0.959 . S
H2123 C2138 0.959 . S
H2124 C2138 0.961 . S
H2125 C2139 0.960 . S
H2126 C2139 0.961 . S
H2127 C2139 0.959 . S
H2128 C2142 0.929 . S
H2129 C2143 0.931 . S
H2130 C2145 0.930 . S
C2131 H2119 0.930 . S
C2131 C2132 1.399 . S
C2131 C2136 1.399 . S
C2132 C2131 1.399 . S
C2132 C2133 1.376 . S
C2133 H2120 0.930 . S
C2133 C2132 1.376 . S
C2133 C2134 1.388 . S
C2134 H2121 0.930 . S
C2134 C2133 1.388 . S
C2134 C2135 1.390 . S
C2135 C2134 1.390 . S
C2135 C2136 1.394 . S
C2135 C2141 1.465 . S
C2136 C2131 1.399 . S
C2136 C2135 1.394 . S
C2136 C2137 1.516 . S
C2137 C2136 1.516 . S
C2137 C2138 1.502 . S
C2137 C2139 1.561 . S
C2137 C2140 1.526 . S
C2138 H2122 0.959 . S
C2138 H2123 0.959 . S
C2138 H2124 0.961 . S
C2138 C2137 1.502 . S
C2139 H2125 0.960 . S
C2139 H2126 0.961 . S
C2139 H2127 0.959 . S
C2139 C2137 1.561 . S
C2140 C2137 1.526 . S
C2140 C2141 1.396 . S
C2140 C2145 1.390 . S
C2141 C2135 1.465 . S
C2141 C2140 1.396 . S
C2141 C2142 1.399 . S
C2142 H2128 0.929 . S
C2142 C2141 1.399 . S
C2142 C2143 1.385 . S
C2143 H2129 0.931 . S
C2143 C2142 1.385 . S
C2143 C2144 1.389 . S
C2144 C2143 1.389 . S
C2144 C2145 1.387 . S
C2145 H2130 0.930 . S
C2145 C2140 1.390 . S
C2145 C2144 1.387 . S
H2146 C2158 0.930 . S
H2147 C2160 0.930 . S
H2148 C2161 0.930 . S
H2149 C2165 0.959 . S
H2150 C2165 0.959 . S
H2151 C2165 0.961 . S
H2152 C2166 0.960 . S
H2153 C2166 0.961 . S
H2154 C2166 0.959 . S
H2155 C2169 0.929 . S
H2156 C2170 0.931 . S
H2157 C2172 0.930 . S
C2158 H2146 0.930 . S
C2158 C2159 1.399 . S
C2158 C2163 1.399 . S
C2159 C2158 1.399 . S
C2159 C2160 1.376 . S
C2160 H2147 0.930 . S
C2160 C2159 1.376 . S
C2160 C2161 1.388 . S
C2161 H2148 0.930 . S
C2161 C2160 1.388 . S
C2161 C2162 1.390 . S
C2162 C2161 1.390 . S
C2162 C2163 1.394 . S
C2162 C2168 1.465 . S
C2163 C2158 1.399 . S
C2163 C2162 1.394 . S
C2163 C2164 1.516 . S
C2164 C2163 1.516 . S
C2164 C2165 1.502 . S
C2164 C2166 1.561 . S
C2164 C2167 1.526 . S
C2165 H2149 0.959 . S
C2165 H2150 0.959 . S
C2165 H2151 0.961 . S
C2165 C2164 1.502 . S
C2166 H2152 0.960 . S
C2166 H2153 0.961 . S
C2166 H2154 0.959 . S
C2166 C2164 1.561 . S
C2167 C2164 1.526 . S
C2167 C2168 1.396 . S
C2167 C2172 1.390 . S
C2168 C2162 1.465 . S
C2168 C2167 1.396 . S
C2168 C2169 1.399 . S
C2169 H2155 0.929 . S
C2169 C2168 1.399 . S
C2169 C2170 1.385 . S
C2170 H2156 0.931 . S
C2170 C2169 1.385 . S
C2170 C2171 1.389 . S
C2171 C2170 1.389 . S
C2171 C2172 1.387 . S
C2172 H2157 0.930 . S
C2172 C2167 1.390 . S
C2172 C2171 1.387 . S
H2173 C2185 0.930 . S
H2174 C2187 0.930 . S
H2175 C2188 0.930 . S
H2176 C2192 0.959 . S
H2177 C2192 0.959 . S
H2178 C2192 0.961 . S
H2179 C2193 0.960 . S
H2180 C2193 0.961 . S
H2181 C2193 0.959 . S
H2182 C2196 0.929 . S
H2183 C2197 0.931 . S
H2184 C2199 0.930 . S
C2185 H2173 0.930 . S
C2185 C2186 1.399 . S
C2185 C2190 1.399 . S
C2186 C2185 1.399 . S
C2186 C2187 1.376 . S
C2187 H2174 0.930 . S
C2187 C2186 1.376 . S
C2187 C2188 1.388 . S
C2188 H2175 0.930 . S
C2188 C2187 1.388 . S
C2188 C2189 1.390 . S
C2189 C2188 1.390 . S
C2189 C2190 1.394 . S
C2189 C2195 1.465 . S
C2190 C2185 1.399 . S
C2190 C2189 1.394 . S
C2190 C2191 1.516 . S
C2191 C2190 1.516 . S
C2191 C2192 1.502 . S
C2191 C2193 1.561 . S
C2191 C2194 1.526 . S
C2192 H2176 0.959 . S
C2192 H2177 0.959 . S
C2192 H2178 0.961 . S
C2192 C2191 1.502 . S
C2193 H2179 0.960 . S
C2193 H2180 0.961 . S
C2193 H2181 0.959 . S
C2193 C2191 1.561 . S
C2194 C2191 1.526 . S
C2194 C2195 1.396 . S
C2194 C2199 1.390 . S
C2195 C2189 1.465 . S
C2195 C2194 1.396 . S
C2195 C2196 1.399 . S
C2196 H2182 0.929 . S
C2196 C2195 1.399 . S
C2196 C2197 1.385 . S
C2197 H2183 0.931 . S
C2197 C2196 1.385 . S
C2197 C2198 1.389 . S
C2198 C2197 1.389 . S
C2198 C2199 1.387 . S
C2199 H2184 0.930 . S
C2199 C2194 1.390 . S
C2199 C2198 1.387 . S
H2200 C2212 0.930 . S
H2201 C2214 0.930 . S
H2202 C2215 0.930 . S
H2203 C2219 0.959 . S
H2204 C2219 0.959 . S
H2205 C2219 0.961 . S
H2206 C2220 0.960 . S
H2207 C2220 0.961 . S
H2208 C2220 0.959 . S
H2209 C2223 0.929 . S
H2210 C2224 0.931 . S
H2211 C2226 0.930 . S
C2212 H2200 0.930 . S
C2212 C2213 1.399 . S
C2212 C2217 1.399 . S
C2213 C2212 1.399 . S
C2213 C2214 1.376 . S
C2214 H2201 0.930 . S
C2214 C2213 1.376 . S
C2214 C2215 1.388 . S
C2215 H2202 0.930 . S
C2215 C2214 1.388 . S
C2215 C2216 1.390 . S
C2216 C2215 1.390 . S
C2216 C2217 1.394 . S
C2216 C2222 1.465 . S
C2217 C2212 1.399 . S
C2217 C2216 1.394 . S
C2217 C2218 1.516 . S
C2218 C2217 1.516 . S
C2218 C2219 1.502 . S
C2218 C2220 1.561 . S
C2218 C2221 1.526 . S
C2219 H2203 0.959 . S
C2219 H2204 0.959 . S
C2219 H2205 0.961 . S
C2219 C2218 1.502 . S
C2220 H2206 0.960 . S
C2220 H2207 0.961 . S
C2220 H2208 0.959 . S
C2220 C2218 1.561 . S
C2221 C2218 1.526 . S
C2221 C2222 1.396 . S
C2221 C2226 1.390 . S
C2222 C2216 1.465 . S
C2222 C2221 1.396 . S
C2222 C2223 1.399 . S
C2223 H2209 0.929 . S
C2223 C2222 1.399 . S
C2223 C2224 1.385 . S
C2224 H2210 0.931 . S
C2224 C2223 1.385 . S
C2224 C2225 1.389 . S
C2225 C2224 1.389 . S
C2225 C2226 1.387 . S
C2226 H2211 0.930 . S
C2226 C2221 1.390 . S
C2226 C2225 1.387 . S
H2227 C2239 0.930 . S
H2228 C2241 0.930 . S
H2229 C2242 0.930 . S
H2230 C2246 0.959 . S
H2231 C2246 0.959 . S
H2232 C2246 0.961 . S
H2233 C2247 0.960 . S
H2234 C2247 0.961 . S
H2235 C2247 0.959 . S
H2236 C2250 0.929 . S
H2237 C2251 0.931 . S
H2238 C2253 0.930 . S
C2239 H2227 0.930 . S
C2239 C2240 1.399 . S
C2239 C2244 1.399 . S
C2240 C2239 1.399 . S
C2240 C2241 1.376 . S
C2241 H2228 0.930 . S
C2241 C2240 1.376 . S
C2241 C2242 1.388 . S
C2242 H2229 0.930 . S
C2242 C2241 1.388 . S
C2242 C2243 1.390 . S
C2243 C2242 1.390 . S
C2243 C2244 1.394 . S
C2243 C2249 1.465 . S
C2244 C2239 1.399 . S
C2244 C2243 1.394 . S
C2244 C2245 1.516 . S
C2245 C2244 1.516 . S
C2245 C2246 1.502 . S
C2245 C2247 1.561 . S
C2245 C2248 1.526 . S
C2246 H2230 0.959 . S
C2246 H2231 0.959 . S
C2246 H2232 0.961 . S
C2246 C2245 1.502 . S
C2247 H2233 0.960 . S
C2247 H2234 0.961 . S
C2247 H2235 0.959 . S
C2247 C2245 1.561 . S
C2248 C2245 1.526 . S
C2248 C2249 1.396 . S
C2248 C2253 1.390 . S
C2249 C2243 1.465 . S
C2249 C2248 1.396 . S
C2249 C2250 1.399 . S
C2250 H2236 0.929 . S
C2250 C2249 1.399 . S
C2250 C2251 1.385 . S
C2251 H2237 0.931 . S
C2251 C2250 1.385 . S
C2251 C2252 1.389 . S
C2252 C2251 1.389 . S
C2252 C2253 1.387 . S
C2253 H2238 0.930 . S
C2253 C2248 1.390 . S
C2253 C2252 1.387 . S
H2254 C2266 0.930 . S
H2255 C2268 0.930 . S
H2256 C2269 0.930 . S
H2257 C2273 0.959 . S
H2258 C2273 0.959 . S
H2259 C2273 0.961 . S
H2260 C2274 0.960 . S
H2261 C2274 0.961 . S
H2262 C2274 0.959 . S
H2263 C2277 0.929 . S
H2264 C2278 0.931 . S
H2265 C2280 0.930 . S
C2266 H2254 0.930 . S
C2266 C2267 1.399 . S
C2266 C2271 1.399 . S
C2267 C2266 1.399 . S
C2267 C2268 1.376 . S
C2268 H2255 0.930 . S
C2268 C2267 1.376 . S
C2268 C2269 1.388 . S
C2269 H2256 0.930 . S
C2269 C2268 1.388 . S
C2269 C2270 1.390 . S
C2270 C2269 1.390 . S
C2270 C2271 1.394 . S
C2270 C2276 1.465 . S
C2271 C2266 1.399 . S
C2271 C2270 1.394 . S
C2271 C2272 1.516 . S
C2272 C2271 1.516 . S
C2272 C2273 1.502 . S
C2272 C2274 1.561 . S
C2272 C2275 1.526 . S
C2273 H2257 0.959 . S
C2273 H2258 0.959 . S
C2273 H2259 0.961 . S
C2273 C2272 1.502 . S
C2274 H2260 0.960 . S
C2274 H2261 0.961 . S
C2274 H2262 0.959 . S
C2274 C2272 1.561 . S
C2275 C2272 1.526 . S
C2275 C2276 1.396 . S
C2275 C2280 1.390 . S
C2276 C2270 1.465 . S
C2276 C2275 1.396 . S
C2276 C2277 1.399 . S
C2277 H2263 0.929 . S
C2277 C2276 1.399 . S
C2277 C2278 1.385 . S
C2278 H2264 0.931 . S
C2278 C2277 1.385 . S
C2278 C2279 1.389 . S
C2279 C2278 1.389 . S
C2279 C2280 1.387 . S
C2280 H2265 0.930 . S
C2280 C2275 1.390 . S
C2280 C2279 1.387 . S
H2281 C2293 0.930 . S
H2282 C2295 0.930 . S
H2283 C2296 0.930 . S
H2284 C2300 0.959 . S
H2285 C2300 0.959 . S
H2286 C2300 0.961 . S
H2287 C2301 0.960 . S
H2288 C2301 0.961 . S
H2289 C2301 0.959 . S
H2290 C2304 0.929 . S
H2291 C2305 0.931 . S
H2292 C2307 0.930 . S
C2293 H2281 0.930 . S
C2293 C2294 1.399 . S
C2293 C2298 1.399 . S
C2294 C2293 1.399 . S
C2294 C2295 1.376 . S
C2295 H2282 0.930 . S
C2295 C2294 1.376 . S
C2295 C2296 1.388 . S
C2296 H2283 0.930 . S
C2296 C2295 1.388 . S
C2296 C2297 1.390 . S
C2297 C2296 1.390 . S
C2297 C2298 1.394 . S
C2297 C2303 1.465 . S
C2298 C2293 1.399 . S
C2298 C2297 1.394 . S
C2298 C2299 1.516 . S
C2299 C2298 1.516 . S
C2299 C2300 1.502 . S
C2299 C2301 1.561 . S
C2299 C2302 1.526 . S
C2300 H2284 0.959 . S
C2300 H2285 0.959 . S
C2300 H2286 0.961 . S
C2300 C2299 1.502 . S
C2301 H2287 0.960 . S
C2301 H2288 0.961 . S
C2301 H2289 0.959 . S
C2301 C2299 1.561 . S
C2302 C2299 1.526 . S
C2302 C2303 1.396 . S
C2302 C2307 1.390 . S
C2303 C2297 1.465 . S
C2303 C2302 1.396 . S
C2303 C2304 1.399 . S
C2304 H2290 0.929 . S
C2304 C2303 1.399 . S
C2304 C2305 1.385 . S
C2305 H2291 0.931 . S
C2305 C2304 1.385 . S
C2305 C2306 1.389 . S
C2306 C2305 1.389 . S
C2306 C2307 1.387 . S
C2307 H2292 0.930 . S
C2307 C2302 1.390 . S
C2307 C2306 1.387 . S
H2308 C2320 0.930 . S
H2309 C2322 0.930 . S
H2310 C2323 0.930 . S
H2311 C2327 0.959 . S
H2312 C2327 0.959 . S
H2313 C2327 0.961 . S
H2314 C2328 0.960 . S
H2315 C2328 0.961 . S
H2316 C2328 0.959 . S
H2317 C2331 0.929 . S
H2318 C2332 0.931 . S
H2319 C2334 0.930 . S
C2320 H2308 0.930 . S
C2320 C2321 1.399 . S
C2320 C2325 1.399 . S
C2321 C2320 1.399 . S
C2321 C2322 1.376 . S
C2322 H2309 0.930 . S
C2322 C2321 1.376 . S
C2322 C2323 1.388 . S
C2323 H2310 0.930 . S
C2323 C2322 1.388 . S
C2323 C2324 1.390 . S
C2324 C2323 1.390 . S
C2324 C2325 1.394 . S
C2324 C2330 1.465 . S
C2325 C2320 1.399 . S
C2325 C2324 1.394 . S
C2325 C2326 1.516 . S
C2326 C2325 1.516 . S
C2326 C2327 1.502 . S
C2326 C2328 1.561 . S
C2326 C2329 1.526 . S
C2327 H2311 0.959 . S
C2327 H2312 0.959 . S
C2327 H2313 0.961 . S
C2327 C2326 1.502 . S
C2328 H2314 0.960 . S
C2328 H2315 0.961 . S
C2328 H2316 0.959 . S
C2328 C2326 1.561 . S
C2329 C2326 1.526 . S
C2329 C2330 1.396 . S
C2329 C2334 1.390 . S
C2330 C2324 1.465 . S
C2330 C2329 1.396 . S
C2330 C2331 1.399 . S
C2331 H2317 0.929 . S
C2331 C2330 1.399 . S
C2331 C2332 1.385 . S
C2332 H2318 0.931 . S
C2332 C2331 1.385 . S
C2332 C2333 1.389 . S
C2333 C2332 1.389 . S
C2333 C2334 1.387 . S
C2334 H2319 0.930 . S
C2334 C2329 1.390 . S
C2334 C2333 1.387 . S
H2335 C2347 0.930 . S
H2336 C2349 0.930 . S
H2337 C2350 0.930 . S
H2338 C2354 0.959 . S
H2339 C2354 0.959 . S
H2340 C2354 0.961 . S
H2341 C2355 0.960 . S
H2342 C2355 0.961 . S
H2343 C2355 0.959 . S
H2344 C2358 0.929 . S
H2345 C2359 0.931 . S
H2346 C2361 0.930 . S
C2347 H2335 0.930 . S
C2347 C2348 1.399 . S
C2347 C2352 1.399 . S
C2348 C2347 1.399 . S
C2348 C2349 1.376 . S
C2349 H2336 0.930 . S
C2349 C2348 1.376 . S
C2349 C2350 1.388 . S
C2350 H2337 0.930 . S
C2350 C2349 1.388 . S
C2350 C2351 1.390 . S
C2351 C2350 1.390 . S
C2351 C2352 1.394 . S
C2351 C2357 1.465 . S
C2352 C2347 1.399 . S
C2352 C2351 1.394 . S
C2352 C2353 1.516 . S
C2353 C2352 1.516 . S
C2353 C2354 1.502 . S
C2353 C2355 1.561 . S
C2353 C2356 1.526 . S
C2354 H2338 0.959 . S
C2354 H2339 0.959 . S
C2354 H2340 0.961 . S
C2354 C2353 1.502 . S
C2355 H2341 0.960 . S
C2355 H2342 0.961 . S
C2355 H2343 0.959 . S
C2355 C2353 1.561 . S
C2356 C2353 1.526 . S
C2356 C2357 1.396 . S
C2356 C2361 1.390 . S
C2357 C2351 1.465 . S
C2357 C2356 1.396 . S
C2357 C2358 1.399 . S
C2358 H2344 0.929 . S
C2358 C2357 1.399 . S
C2358 C2359 1.385 . S
C2359 H2345 0.931 . S
C2359 C2358 1.385 . S
C2359 C2360 1.389 . S
C2360 C2359 1.389 . S
C2360 C2361 1.387 . S
C2361 H2346 0.930 . S
C2361 C2356 1.390 . S
C2361 C2360 1.387 . S
H2362 C2374 0.930 . S
H2363 C2376 0.930 . S
H2364 C2377 0.930 . S
H2365 C2381 0.959 . S
H2366 C2381 0.959 . S
H2367 C2381 0.961 . S
H2368 C2382 0.960 . S
H2369 C2382 0.961 . S
H2370 C2382 0.959 . S
H2371 C2385 0.929 . S
H2372 C2386 0.931 . S
H2373 C2388 0.930 . S
C2374 H2362 0.930 . S
C2374 C2375 1.399 . S
C2374 C2379 1.399 . S
C2375 C2374 1.399 . S
C2375 C2376 1.376 . S
C2376 H2363 0.930 . S
C2376 C2375 1.376 . S
C2376 C2377 1.388 . S
C2377 H2364 0.930 . S
C2377 C2376 1.388 . S
C2377 C2378 1.390 . S
C2378 C2377 1.390 . S
C2378 C2379 1.394 . S
C2378 C2384 1.465 . S
C2379 C2374 1.399 . S
C2379 C2378 1.394 . S
C2379 C2380 1.516 . S
C2380 C2379 1.516 . S
C2380 C2381 1.502 . S
C2380 C2382 1.561 . S
C2380 C2383 1.526 . S
C2381 H2365 0.959 . S
C2381 H2366 0.959 . S
C2381 H2367 0.961 . S
C2381 C2380 1.502 . S
C2382 H2368 0.960 . S
C2382 H2369 0.961 . S
C2382 H2370 0.959 . S
C2382 C2380 1.561 . S
C2383 C2380 1.526 . S
C2383 C2384 1.396 . S
C2383 C2388 1.390 . S
C2384 C2378 1.465 . S
C2384 C2383 1.396 . S
C2384 C2385 1.399 . S
C2385 H2371 0.929 . S
C2385 C2384 1.399 . S
C2385 C2386 1.385 . S
C2386 H2372 0.931 . S
C2386 C2385 1.385 . S
C2386 C2387 1.389 . S
C2387 C2386 1.389 . S
C2387 C2388 1.387 . S
C2388 H2373 0.930 . S
C2388 C2383 1.390 . S
C2388 C2387 1.387 . S
H2389 C2401 0.930 . S
H2390 C2403 0.930 . S
H2391 C2404 0.930 . S
H2392 C2408 0.959 . S
H2393 C2408 0.959 . S
H2394 C2408 0.961 . S
H2395 C2409 0.960 . S
H2396 C2409 0.961 . S
H2397 C2409 0.959 . S
H2398 C2412 0.929 . S
H2399 C2413 0.931 . S
H2400 C2415 0.930 . S
C2401 H2389 0.930 . S
C2401 C2402 1.399 . S
C2401 C2406 1.399 . S
C2402 C2401 1.399 . S
C2402 C2403 1.376 . S
C2403 H2390 0.930 . S
C2403 C2402 1.376 . S
C2403 C2404 1.388 . S
C2404 H2391 0.930 . S
C2404 C2403 1.388 . S
C2404 C2405 1.390 . S
C2405 C2404 1.390 . S
C2405 C2406 1.394 . S
C2405 C2411 1.465 . S
C2406 C2401 1.399 . S
C2406 C2405 1.394 . S
C2406 C2407 1.516 . S
C2407 C2406 1.516 . S
C2407 C2408 1.502 . S
C2407 C2409 1.561 . S
C2407 C2410 1.526 . S
C2408 H2392 0.959 . S
C2408 H2393 0.959 . S
C2408 H2394 0.961 . S
C2408 C2407 1.502 . S
C2409 H2395 0.960 . S
C2409 H2396 0.961 . S
C2409 H2397 0.959 . S
C2409 C2407 1.561 . S
C2410 C2407 1.526 . S
C2410 C2411 1.396 . S
C2410 C2415 1.390 . S
C2411 C2405 1.465 . S
C2411 C2410 1.396 . S
C2411 C2412 1.399 . S
C2412 H2398 0.929 . S
C2412 C2411 1.399 . S
C2412 C2413 1.385 . S
C2413 H2399 0.931 . S
C2413 C2412 1.385 . S
C2413 C2414 1.389 . S
C2414 C2413 1.389 . S
C2414 C2415 1.387 . S
C2415 H2400 0.930 . S
C2415 C2410 1.390 . S
C2415 C2414 1.387 . S
H2416 C2428 0.930 . S
H2417 C2430 0.930 . S
H2418 C2431 0.930 . S
H2419 C2435 0.959 . S
H2420 C2435 0.959 . S
H2421 C2435 0.961 . S
H2422 C2436 0.960 . S
H2423 C2436 0.961 . S
H2424 C2436 0.959 . S
H2425 C2439 0.929 . S
H2426 C2440 0.931 . S
H2427 C2442 0.930 . S
C2428 H2416 0.930 . S
C2428 C2429 1.399 . S
C2428 C2433 1.399 . S
C2429 C2428 1.399 . S
C2429 C2430 1.376 . S
C2430 H2417 0.930 . S
C2430 C2429 1.376 . S
C2430 C2431 1.388 . S
C2431 H2418 0.930 . S
C2431 C2430 1.388 . S
C2431 C2432 1.390 . S
C2432 C2431 1.390 . S
C2432 C2433 1.394 . S
C2432 C2438 1.465 . S
C2433 C2428 1.399 . S
C2433 C2432 1.394 . S
C2433 C2434 1.516 . S
C2434 C2433 1.516 . S
C2434 C2435 1.502 . S
C2434 C2436 1.561 . S
C2434 C2437 1.526 . S
C2435 H2419 0.959 . S
C2435 H2420 0.959 . S
C2435 H2421 0.961 . S
C2435 C2434 1.502 . S
C2436 H2422 0.960 . S
C2436 H2423 0.961 . S
C2436 H2424 0.959 . S
C2436 C2434 1.561 . S
C2437 C2434 1.526 . S
C2437 C2438 1.396 . S
C2437 C2442 1.390 . S
C2438 C2432 1.465 . S
C2438 C2437 1.396 . S
C2438 C2439 1.399 . S
C2439 H2425 0.929 . S
C2439 C2438 1.399 . S
C2439 C2440 1.385 . S
C2440 H2426 0.931 . S
C2440 C2439 1.385 . S
C2440 C2441 1.389 . S
C2441 C2440 1.389 . S
C2441 C2442 1.387 . S
C2442 H2427 0.930 . S
C2442 C2437 1.390 . S
C2442 C2441 1.387 . S
H2443 C2455 0.930 . S
H2444 C2457 0.930 . S
H2445 C2458 0.930 . S
H2446 C2462 0.959 . S
H2447 C2462 0.959 . S
H2448 C2462 0.961 . S
H2449 C2463 0.960 . S
H2450 C2463 0.961 . S
H2451 C2463 0.959 . S
H2452 C2466 0.929 . S
H2453 C2467 0.931 . S
H2454 C2469 0.930 . S
C2455 H2443 0.930 . S
C2455 C2456 1.399 . S
C2455 C2460 1.399 . S
C2456 C2455 1.399 . S
C2456 C2457 1.376 . S
C2457 H2444 0.930 . S
C2457 C2456 1.376 . S
C2457 C2458 1.388 . S
C2458 H2445 0.930 . S
C2458 C2457 1.388 . S
C2458 C2459 1.390 . S
C2459 C2458 1.390 . S
C2459 C2460 1.394 . S
C2459 C2465 1.465 . S
C2460 C2455 1.399 . S
C2460 C2459 1.394 . S
C2460 C2461 1.516 . S
C2461 C2460 1.516 . S
C2461 C2462 1.502 . S
C2461 C2463 1.561 . S
C2461 C2464 1.526 . S
C2462 H2446 0.959 . S
C2462 H2447 0.959 . S
C2462 H2448 0.961 . S
C2462 C2461 1.502 . S
C2463 H2449 0.960 . S
C2463 H2450 0.961 . S
C2463 H2451 0.959 . S
C2463 C2461 1.561 . S
C2464 C2461 1.526 . S
C2464 C2465 1.396 . S
C2464 C2469 1.390 . S
C2465 C2459 1.465 . S
C2465 C2464 1.396 . S
C2465 C2466 1.399 . S
C2466 H2452 0.929 . S
C2466 C2465 1.399 . S
C2466 C2467 1.385 . S
C2467 H2453 0.931 . S
C2467 C2466 1.385 . S
C2467 C2468 1.389 . S
C2468 C2467 1.389 . S
C2468 C2469 1.387 . S
C2469 H2454 0.930 . S
C2469 C2464 1.390 . S
C2469 C2468 1.387 . S
H2470 C2482 0.930 . S
H2471 C2484 0.930 . S
H2472 C2485 0.930 . S
H2473 C2489 0.959 . S
H2474 C2489 0.959 . S
H2475 C2489 0.961 . S
H2476 C2490 0.960 . S
H2477 C2490 0.961 . S
H2478 C2490 0.959 . S
H2479 C2493 0.929 . S
H2480 C2494 0.931 . S
H2481 C2496 0.930 . S
C2482 H2470 0.930 . S
C2482 C2483 1.399 . S
C2482 C2487 1.399 . S
C2483 C2482 1.399 . S
C2483 C2484 1.376 . S
C2484 H2471 0.930 . S
C2484 C2483 1.376 . S
C2484 C2485 1.388 . S
C2485 H2472 0.930 . S
C2485 C2484 1.388 . S
C2485 C2486 1.390 . S
C2486 C2485 1.390 . S
C2486 C2487 1.394 . S
C2486 C2492 1.465 . S
C2487 C2482 1.399 . S
C2487 C2486 1.394 . S
C2487 C2488 1.516 . S
C2488 C2487 1.516 . S
C2488 C2489 1.502 . S
C2488 C2490 1.561 . S
C2488 C2491 1.526 . S
C2489 H2473 0.959 . S
C2489 H2474 0.959 . S
C2489 H2475 0.961 . S
C2489 C2488 1.502 . S
C2490 H2476 0.960 . S
C2490 H2477 0.961 . S
C2490 H2478 0.959 . S
C2490 C2488 1.561 . S
C2491 C2488 1.526 . S
C2491 C2492 1.396 . S
C2491 C2496 1.390 . S
C2492 C2486 1.465 . S
C2492 C2491 1.396 . S
C2492 C2493 1.399 . S
C2493 H2479 0.929 . S
C2493 C2492 1.399 . S
C2493 C2494 1.385 . S
C2494 H2480 0.931 . S
C2494 C2493 1.385 . S
C2494 C2495 1.389 . S
C2495 C2494 1.389 . S
C2495 C2496 1.387 . S
C2496 H2481 0.930 . S
C2496 C2491 1.390 . S
C2496 C2495 1.387 . S
H2497 C2509 0.930 . S
H2498 C2511 0.930 . S
H2499 C2512 0.930 . S
H2500 C2516 0.959 . S
H2501 C2516 0.959 . S
H2502 C2516 0.961 . S
H2503 C2517 0.960 . S
H2504 C2517 0.961 . S
H2505 C2517 0.959 . S
H2506 C2520 0.929 . S
H2507 C2521 0.931 . S
H2508 C2523 0.930 . S
C2509 H2497 0.930 . S
C2509 C2510 1.399 . S
C2509 C2514 1.399 . S
C2510 C2509 1.399 . S
C2510 C2511 1.376 . S
C2511 H2498 0.930 . S
C2511 C2510 1.376 . S
C2511 C2512 1.388 . S
C2512 H2499 0.930 . S
C2512 C2511 1.388 . S
C2512 C2513 1.390 . S
C2513 C2512 1.390 . S
C2513 C2514 1.394 . S
C2513 C2519 1.465 . S
C2514 C2509 1.399 . S
C2514 C2513 1.394 . S
C2514 C2515 1.516 . S
C2515 C2514 1.516 . S
C2515 C2516 1.502 . S
C2515 C2517 1.561 . S
C2515 C2518 1.526 . S
C2516 H2500 0.959 . S
C2516 H2501 0.959 . S
C2516 H2502 0.961 . S
C2516 C2515 1.502 . S
C2517 H2503 0.960 . S
C2517 H2504 0.961 . S
C2517 H2505 0.959 . S
C2517 C2515 1.561 . S
C2518 C2515 1.526 . S
C2518 C2519 1.396 . S
C2518 C2523 1.390 . S
C2519 C2513 1.465 . S
C2519 C2518 1.396 . S
C2519 C2520 1.399 . S
C2520 H2506 0.929 . S
C2520 C2519 1.399 . S
C2520 C2521 1.385 . S
C2521 H2507 0.931 . S
C2521 C2520 1.385 . S
C2521 C2522 1.389 . S
C2522 C2521 1.389 . S
C2522 C2523 1.387 . S
C2523 H2508 0.930 . S
C2523 C2518 1.390 . S
C2523 C2522 1.387 . S
H2524 C2536 0.930 . S
H2525 C2538 0.930 . S
H2526 C2539 0.930 . S
H2527 C2543 0.959 . S
H2528 C2543 0.959 . S
H2529 C2543 0.961 . S
H2530 C2544 0.960 . S
H2531 C2544 0.961 . S
H2532 C2544 0.959 . S
H2533 C2547 0.929 . S
H2534 C2548 0.931 . S
H2535 C2550 0.930 . S
C2536 H2524 0.930 . S
C2536 C2537 1.399 . S
C2536 C2541 1.399 . S
C2537 C2536 1.399 . S
C2537 C2538 1.376 . S
C2538 H2525 0.930 . S
C2538 C2537 1.376 . S
C2538 C2539 1.388 . S
C2539 H2526 0.930 . S
C2539 C2538 1.388 . S
C2539 C2540 1.390 . S
C2540 C2539 1.390 . S
C2540 C2541 1.394 . S
C2540 C2546 1.465 . S
C2541 C2536 1.399 . S
C2541 C2540 1.394 . S
C2541 C2542 1.516 . S
C2542 C2541 1.516 . S
C2542 C2543 1.502 . S
C2542 C2544 1.561 . S
C2542 C2545 1.526 . S
C2543 H2527 0.959 . S
C2543 H2528 0.959 . S
C2543 H2529 0.961 . S
C2543 C2542 1.502 . S
C2544 H2530 0.960 . S
C2544 H2531 0.961 . S
C2544 H2532 0.959 . S
C2544 C2542 1.561 . S
C2545 C2542 1.526 . S
C2545 C2546 1.396 . S
C2545 C2550 1.390 . S
C2546 C2540 1.465 . S
C2546 C2545 1.396 . S
C2546 C2547 1.399 . S
C2547 H2533 0.929 . S
C2547 C2546 1.399 . S
C2547 C2548 1.385 . S
C2548 H2534 0.931 . S
C2548 C2547 1.385 . S
C2548 C2549 1.389 . S
C2549 C2548 1.389 . S
C2549 C2550 1.387 . S
C2550 H2535 0.930 . S
C2550 C2545 1.390 . S
C2550 C2549 1.387 . S
H2551 C2563 0.930 . S
H2552 C2565 0.930 . S
H2553 C2566 0.930 . S
H2554 C2570 0.959 . S
H2555 C2570 0.959 . S
H2556 C2570 0.961 . S
H2557 C2571 0.960 . S
H2558 C2571 0.961 . S
H2559 C2571 0.959 . S
H2560 C2574 0.929 . S
H2561 C2575 0.931 . S
H2562 C2577 0.930 . S
C2563 H2551 0.930 . S
C2563 C2564 1.399 . S
C2563 C2568 1.399 . S
C2564 C2563 1.399 . S
C2564 C2565 1.376 . S
C2565 H2552 0.930 . S
C2565 C2564 1.376 . S
C2565 C2566 1.388 . S
C2566 H2553 0.930 . S
C2566 C2565 1.388 . S
C2566 C2567 1.390 . S
C2567 C2566 1.390 . S
C2567 C2568 1.394 . S
C2567 C2573 1.465 . S
C2568 C2563 1.399 . S
C2568 C2567 1.394 . S
C2568 C2569 1.516 . S
C2569 C2568 1.516 . S
C2569 C2570 1.502 . S
C2569 C2571 1.561 . S
C2569 C2572 1.526 . S
C2570 H2554 0.959 . S
C2570 H2555 0.959 . S
C2570 H2556 0.961 . S
C2570 C2569 1.502 . S
C2571 H2557 0.960 . S
C2571 H2558 0.961 . S
C2571 H2559 0.959 . S
C2571 C2569 1.561 . S
C2572 C2569 1.526 . S
C2572 C2573 1.396 . S
C2572 C2577 1.390 . S
C2573 C2567 1.465 . S
C2573 C2572 1.396 . S
C2573 C2574 1.399 . S
C2574 H2560 0.929 . S
C2574 C2573 1.399 . S
C2574 C2575 1.385 . S
C2575 H2561 0.931 . S
C2575 C2574 1.385 . S
C2575 C2576 1.389 . S
C2576 C2575 1.389 . S
C2576 C2577 1.387 . S
C2577 H2562 0.930 . S
C2577 C2572 1.390 . S
C2577 C2576 1.387 . S
H2578 C2590 0.930 . S
H2579 C2592 0.930 . S
H2580 C2593 0.930 . S
H2581 C2597 0.959 . S
H2582 C2597 0.959 . S
H2583 C2597 0.961 . S
H2584 C2598 0.960 . S
H2585 C2598 0.961 . S
H2586 C2598 0.959 . S
H2587 C2601 0.929 . S
H2588 C2602 0.931 . S
H2589 C2604 0.930 . S
C2590 H2578 0.930 . S
C2590 C2591 1.399 . S
C2590 C2595 1.399 . S
C2591 C2590 1.399 . S
C2591 C2592 1.376 . S
C2592 H2579 0.930 . S
C2592 C2591 1.376 . S
C2592 C2593 1.388 . S
C2593 H2580 0.930 . S
C2593 C2592 1.388 . S
C2593 C2594 1.390 . S
C2594 C2593 1.390 . S
C2594 C2595 1.394 . S
C2594 C2600 1.465 . S
C2595 C2590 1.399 . S
C2595 C2594 1.394 . S
C2595 C2596 1.516 . S
C2596 C2595 1.516 . S
C2596 C2597 1.502 . S
C2596 C2598 1.561 . S
C2596 C2599 1.526 . S
C2597 H2581 0.959 . S
C2597 H2582 0.959 . S
C2597 H2583 0.961 . S
C2597 C2596 1.502 . S
C2598 H2584 0.960 . S
C2598 H2585 0.961 . S
C2598 H2586 0.959 . S
C2598 C2596 1.561 . S
C2599 C2596 1.526 . S
C2599 C2600 1.396 . S
C2599 C2604 1.390 . S
C2600 C2594 1.465 . S
C2600 C2599 1.396 . S
C2600 C2601 1.399 . S
C2601 H2587 0.929 . S
C2601 C2600 1.399 . S
C2601 C2602 1.385 . S
C2602 H2588 0.931 . S
C2602 C2601 1.385 . S
C2602 C2603 1.389 . S
C2603 C2602 1.389 . S
C2603 C2604 1.387 . S
C2604 H2589 0.930 . S
C2604 C2599 1.390 . S
C2604 C2603 1.387 . S
H2605 C2617 0.930 . S
H2606 C2619 0.930 . S
H2607 C2620 0.930 . S
H2608 C2624 0.959 . S
H2609 C2624 0.959 . S
H2610 C2624 0.961 . S
H2611 C2625 0.960 . S
H2612 C2625 0.961 . S
H2613 C2625 0.959 . S
H2614 C2628 0.929 . S
H2615 C2629 0.931 . S
H2616 C2631 0.930 . S
C2617 H2605 0.930 . S
C2617 C2618 1.399 . S
C2617 C2622 1.399 . S
C2618 C2617 1.399 . S
C2618 C2619 1.376 . S
C2619 H2606 0.930 . S
C2619 C2618 1.376 . S
C2619 C2620 1.388 . S
C2620 H2607 0.930 . S
C2620 C2619 1.388 . S
C2620 C2621 1.390 . S
C2621 C2620 1.390 . S
C2621 C2622 1.394 . S
C2621 C2627 1.465 . S
C2622 C2617 1.399 . S
C2622 C2621 1.394 . S
C2622 C2623 1.516 . S
C2623 C2622 1.516 . S
C2623 C2624 1.502 . S
C2623 C2625 1.561 . S
C2623 C2626 1.526 . S
C2624 H2608 0.959 . S
C2624 H2609 0.959 . S
C2624 H2610 0.961 . S
C2624 C2623 1.502 . S
C2625 H2611 0.960 . S
C2625 H2612 0.961 . S
C2625 H2613 0.959 . S
C2625 C2623 1.561 . S
C2626 C2623 1.526 . S
C2626 C2627 1.396 . S
C2626 C2631 1.390 . S
C2627 C2621 1.465 . S
C2627 C2626 1.396 . S
C2627 C2628 1.399 . S
C2628 H2614 0.929 . S
C2628 C2627 1.399 . S
C2628 C2629 1.385 . S
C2629 H2615 0.931 . S
C2629 C2628 1.385 . S
C2629 C2630 1.389 . S
C2630 C2629 1.389 . S
C2630 C2631 1.387 . S
C2631 H2616 0.930 . S
C2631 C2626 1.390 . S
C2631 C2630 1.387 . S
H2632 C2644 0.930 . S
H2633 C2646 0.930 . S
H2634 C2647 0.930 . S
H2635 C2651 0.959 . S
H2636 C2651 0.959 . S
H2637 C2651 0.961 . S
H2638 C2652 0.960 . S
H2639 C2652 0.961 . S
H2640 C2652 0.959 . S
H2641 C2655 0.929 . S
H2642 C2656 0.931 . S
H2643 C2658 0.930 . S
C2644 H2632 0.930 . S
C2644 C2645 1.399 . S
C2644 C2649 1.399 . S
C2645 C2644 1.399 . S
C2645 C2646 1.376 . S
C2646 H2633 0.930 . S
C2646 C2645 1.376 . S
C2646 C2647 1.388 . S
C2647 H2634 0.930 . S
C2647 C2646 1.388 . S
C2647 C2648 1.390 . S
C2648 C2647 1.390 . S
C2648 C2649 1.394 . S
C2648 C2654 1.465 . S
C2649 C2644 1.399 . S
C2649 C2648 1.394 . S
C2649 C2650 1.516 . S
C2650 C2649 1.516 . S
C2650 C2651 1.502 . S
C2650 C2652 1.561 . S
C2650 C2653 1.526 . S
C2651 H2635 0.959 . S
C2651 H2636 0.959 . S
C2651 H2637 0.961 . S
C2651 C2650 1.502 . S
C2652 H2638 0.960 . S
C2652 H2639 0.961 . S
C2652 H2640 0.959 . S
C2652 C2650 1.561 . S
C2653 C2650 1.526 . S
C2653 C2654 1.396 . S
C2653 C2658 1.390 . S
C2654 C2648 1.465 . S
C2654 C2653 1.396 . S
C2654 C2655 1.399 . S
C2655 H2641 0.929 . S
C2655 C2654 1.399 . S
C2655 C2656 1.385 . S
C2656 H2642 0.931 . S
C2656 C2655 1.385 . S
C2656 C2657 1.389 . S
C2657 C2656 1.389 . S
C2657 C2658 1.387 . S
C2658 H2643 0.930 . S
C2658 C2653 1.390 . S
C2658 C2657 1.387 . S
H2659 C2671 0.930 . S
H2660 C2673 0.930 . S
H2661 C2674 0.930 . S
H2662 C2678 0.959 . S
H2663 C2678 0.959 . S
H2664 C2678 0.961 . S
H2665 C2679 0.960 . S
H2666 C2679 0.961 . S
H2667 C2679 0.959 . S
H2668 C2682 0.929 . S
H2669 C2683 0.931 . S
H2670 C2685 0.930 . S
C2671 H2659 0.930 . S
C2671 C2672 1.399 . S
C2671 C2676 1.399 . S
C2672 C2671 1.399 . S
C2672 C2673 1.376 . S
C2673 H2660 0.930 . S
C2673 C2672 1.376 . S
C2673 C2674 1.388 . S
C2674 H2661 0.930 . S
C2674 C2673 1.388 . S
C2674 C2675 1.390 . S
C2675 C2674 1.390 . S
C2675 C2676 1.394 . S
C2675 C2681 1.465 . S
C2676 C2671 1.399 . S
C2676 C2675 1.394 . S
C2676 C2677 1.516 . S
C2677 C2676 1.516 . S
C2677 C2678 1.502 . S
C2677 C2679 1.561 . S
C2677 C2680 1.526 . S
C2678 H2662 0.959 . S
C2678 H2663 0.959 . S
C2678 H2664 0.961 . S
C2678 C2677 1.502 . S
C2679 H2665 0.960 . S
C2679 H2666 0.961 . S
C2679 H2667 0.959 . S
C2679 C2677 1.561 . S
C2680 C2677 1.526 . S
C2680 C2681 1.396 . S
C2680 C2685 1.390 . S
C2681 C2675 1.465 . S
C2681 C2680 1.396 . S
C2681 C2682 1.399 . S
C2682 H2668 0.929 . S
C2682 C2681 1.399 . S
C2682 C2683 1.385 . S
C2683 H2669 0.931 . S
C2683 C2682 1.385 . S
C2683 C2684 1.389 . S
C2684 C2683 1.389 . S
C2684 C2685 1.387 . S
C2685 H2670 0.930 . S
C2685 C2680 1.390 . S
C2685 C2684 1.387 . S
H2686 C2698 0.930 . S
H2687 C2700 0.930 . S
H2688 C2701 0.930 . S
H2689 C2705 0.959 . S
H2690 C2705 0.959 . S
H2691 C2705 0.961 . S
H2692 C2706 0.960 . S
H2693 C2706 0.961 . S
H2694 C2706 0.959 . S
H2695 C2709 0.929 . S
H2696 C2710 0.931 . S
H2697 C2712 0.930 . S
C2698 H2686 0.930 . S
C2698 C2699 1.399 . S
C2698 C2703 1.399 . S
C2699 C2698 1.399 . S
C2699 C2700 1.376 . S
C2700 H2687 0.930 . S
C2700 C2699 1.376 . S
C2700 C2701 1.388 . S
C2701 H2688 0.930 . S
C2701 C2700 1.388 . S
C2701 C2702 1.390 . S
C2702 C2701 1.390 . S
C2702 C2703 1.394 . S
C2702 C2708 1.465 . S
C2703 C2698 1.399 . S
C2703 C2702 1.394 . S
C2703 C2704 1.516 . S
C2704 C2703 1.516 . S
C2704 C2705 1.502 . S
C2704 C2706 1.561 . S
C2704 C2707 1.526 . S
C2705 H2689 0.959 . S
C2705 H2690 0.959 . S
C2705 H2691 0.961 . S
C2705 C2704 1.502 . S
C2706 H2692 0.960 . S
C2706 H2693 0.961 . S
C2706 H2694 0.959 . S
C2706 C2704 1.561 . S
C2707 C2704 1.526 . S
C2707 C2708 1.396 . S
C2707 C2712 1.390 . S
C2708 C2702 1.465 . S
C2708 C2707 1.396 . S
C2708 C2709 1.399 . S
C2709 H2695 0.929 . S
C2709 C2708 1.399 . S
C2709 C2710 1.385 . S
C2710 H2696 0.931 . S
C2710 C2709 1.385 . S
C2710 C2711 1.389 . S
C2711 C2710 1.389 . S
C2711 C2712 1.387 . S
C2712 H2697 0.930 . S
C2712 C2707 1.390 . S
C2712 C2711 1.387 . S
H2713 C2725 0.930 . S
H2714 C2727 0.930 . S
H2715 C2728 0.930 . S
H2716 C2732 0.959 . S
H2717 C2732 0.959 . S
H2718 C2732 0.961 . S
H2719 C2733 0.960 . S
H2720 C2733 0.961 . S
H2721 C2733 0.959 . S
H2722 C2736 0.929 . S
H2723 C2737 0.931 . S
H2724 C2739 0.930 . S
C2725 H2713 0.930 . S
C2725 C2726 1.399 . S
C2725 C2730 1.399 . S
C2726 C2725 1.399 . S
C2726 C2727 1.376 . S
C2727 H2714 0.930 . S
C2727 C2726 1.376 . S
C2727 C2728 1.388 . S
C2728 H2715 0.930 . S
C2728 C2727 1.388 . S
C2728 C2729 1.390 . S
C2729 C2728 1.390 . S
C2729 C2730 1.394 . S
C2729 C2735 1.465 . S
C2730 C2725 1.399 . S
C2730 C2729 1.394 . S
C2730 C2731 1.516 . S
C2731 C2730 1.516 . S
C2731 C2732 1.502 . S
C2731 C2733 1.561 . S
C2731 C2734 1.526 . S
C2732 H2716 0.959 . S
C2732 H2717 0.959 . S
C2732 H2718 0.961 . S
C2732 C2731 1.502 . S
C2733 H2719 0.960 . S
C2733 H2720 0.961 . S
C2733 H2721 0.959 . S
C2733 C2731 1.561 . S
C2734 C2731 1.526 . S
C2734 C2735 1.396 . S
C2734 C2739 1.390 . S
C2735 C2729 1.465 . S
C2735 C2734 1.396 . S
C2735 C2736 1.399 . S
C2736 H2722 0.929 . S
C2736 C2735 1.399 . S
C2736 C2737 1.385 . S
C2737 H2723 0.931 . S
C2737 C2736 1.385 . S
C2737 C2738 1.389 . S
C2738 C2737 1.389 . S
C2738 C2739 1.387 . S
C2739 H2724 0.930 . S
C2739 C2734 1.390 . S
C2739 C2738 1.387 . S
H2740 C2752 0.930 . S
H2741 C2754 0.930 . S
H2742 C2755 0.930 . S
H2743 C2759 0.959 . S
H2744 C2759 0.959 . S
H2745 C2759 0.961 . S
H2746 C2760 0.960 . S
H2747 C2760 0.961 . S
H2748 C2760 0.959 . S
H2749 C2763 0.929 . S
H2750 C2764 0.931 . S
H2751 C2766 0.930 . S
C2752 H2740 0.930 . S
C2752 C2753 1.399 . S
C2752 C2757 1.399 . S
C2753 C2752 1.399 . S
C2753 C2754 1.376 . S
C2754 H2741 0.930 . S
C2754 C2753 1.376 . S
C2754 C2755 1.388 . S
C2755 H2742 0.930 . S
C2755 C2754 1.388 . S
C2755 C2756 1.390 . S
C2756 C2755 1.390 . S
C2756 C2757 1.394 . S
C2756 C2762 1.465 . S
C2757 C2752 1.399 . S
C2757 C2756 1.394 . S
C2757 C2758 1.516 . S
C2758 C2757 1.516 . S
C2758 C2759 1.502 . S
C2758 C2760 1.561 . S
C2758 C2761 1.526 . S
C2759 H2743 0.959 . S
C2759 H2744 0.959 . S
C2759 H2745 0.961 . S
C2759 C2758 1.502 . S
C2760 H2746 0.960 . S
C2760 H2747 0.961 . S
C2760 H2748 0.959 . S
C2760 C2758 1.561 . S
C2761 C2758 1.526 . S
C2761 C2762 1.396 . S
C2761 C2766 1.390 . S
C2762 C2756 1.465 . S
C2762 C2761 1.396 . S
C2762 C2763 1.399 . S
C2763 H2749 0.929 . S
C2763 C2762 1.399 . S
C2763 C2764 1.385 . S
C2764 H2750 0.931 . S
C2764 C2763 1.385 . S
C2764 C2765 1.389 . S
C2765 C2764 1.389 . S
C2765 C2766 1.387 . S
C2766 H2751 0.930 . S
C2766 C2761 1.390 . S
C2766 C2765 1.387 . S
H2767 C2779 0.930 . S
H2768 C2781 0.930 . S
H2769 C2782 0.930 . S
H2770 C2786 0.959 . S
H2771 C2786 0.959 . S
H2772 C2786 0.961 . S
H2773 C2787 0.960 . S
H2774 C2787 0.961 . S
H2775 C2787 0.959 . S
H2776 C2790 0.929 . S
H2777 C2791 0.931 . S
H2778 C2793 0.930 . S
C2779 H2767 0.930 . S
C2779 C2780 1.399 . S
C2779 C2784 1.399 . S
C2780 C2779 1.399 . S
C2780 C2781 1.376 . S
C2781 H2768 0.930 . S
C2781 C2780 1.376 . S
C2781 C2782 1.388 . S
C2782 H2769 0.930 . S
C2782 C2781 1.388 . S
C2782 C2783 1.390 . S
C2783 C2782 1.390 . S
C2783 C2784 1.394 . S
C2783 C2789 1.465 . S
C2784 C2779 1.399 . S
C2784 C2783 1.394 . S
C2784 C2785 1.516 . S
C2785 C2784 1.516 . S
C2785 C2786 1.502 . S
C2785 C2787 1.561 . S
C2785 C2788 1.526 . S
C2786 H2770 0.959 . S
C2786 H2771 0.959 . S
C2786 H2772 0.961 . S
C2786 C2785 1.502 . S
C2787 H2773 0.960 . S
C2787 H2774 0.961 . S
C2787 H2775 0.959 . S
C2787 C2785 1.561 . S
C2788 C2785 1.526 . S
C2788 C2789 1.396 . S
C2788 C2793 1.390 . S
C2789 C2783 1.465 . S
C2789 C2788 1.396 . S
C2789 C2790 1.399 . S
C2790 H2776 0.929 . S
C2790 C2789 1.399 . S
C2790 C2791 1.385 . S
C2791 H2777 0.931 . S
C2791 C2790 1.385 . S
C2791 C2792 1.389 . S
C2792 C2791 1.389 . S
C2792 C2793 1.387 . S
C2793 H2778 0.930 . S
C2793 C2788 1.390 . S
C2793 C2792 1.387 . S
H2794 C2806 0.930 . S
H2795 C2808 0.930 . S
H2796 C2809 0.930 . S
H2797 C2813 0.959 . S
H2798 C2813 0.959 . S
H2799 C2813 0.961 . S
H2800 C2814 0.960 . S
H2801 C2814 0.961 . S
H2802 C2814 0.959 . S
H2803 C2817 0.929 . S
H2804 C2818 0.931 . S
H2805 C2820 0.930 . S
C2806 H2794 0.930 . S
C2806 C2807 1.399 . S
C2806 C2811 1.399 . S
C2807 C2806 1.399 . S
C2807 C2808 1.376 . S
C2808 H2795 0.930 . S
C2808 C2807 1.376 . S
C2808 C2809 1.388 . S
C2809 H2796 0.930 . S
C2809 C2808 1.388 . S
C2809 C2810 1.390 . S
C2810 C2809 1.390 . S
C2810 C2811 1.394 . S
C2810 C2816 1.465 . S
C2811 C2806 1.399 . S
C2811 C2810 1.394 . S
C2811 C2812 1.516 . S
C2812 C2811 1.516 . S
C2812 C2813 1.502 . S
C2812 C2814 1.561 . S
C2812 C2815 1.526 . S
C2813 H2797 0.959 . S
C2813 H2798 0.959 . S
C2813 H2799 0.961 . S
C2813 C2812 1.502 . S
C2814 H2800 0.960 . S
C2814 H2801 0.961 . S
C2814 H2802 0.959 . S
C2814 C2812 1.561 . S
C2815 C2812 1.526 . S
C2815 C2816 1.396 . S
C2815 C2820 1.390 . S
C2816 C2810 1.465 . S
C2816 C2815 1.396 . S
C2816 C2817 1.399 . S
C2817 H2803 0.929 . S
C2817 C2816 1.399 . S
C2817 C2818 1.385 . S
C2818 H2804 0.931 . S
C2818 C2817 1.385 . S
C2818 C2819 1.389 . S
C2819 C2818 1.389 . S
C2819 C2820 1.387 . S
C2820 H2805 0.930 . S
C2820 C2815 1.390 . S
C2820 C2819 1.387 . S
H2821 C2833 0.930 . S
H2822 C2835 0.930 . S
H2823 C2836 0.930 . S
H2824 C2840 0.959 . S
H2825 C2840 0.959 . S
H2826 C2840 0.961 . S
H2827 C2841 0.960 . S
H2828 C2841 0.961 . S
H2829 C2841 0.959 . S
H2830 C2844 0.929 . S
H2831 C2845 0.931 . S
H2832 C2847 0.930 . S
C2833 H2821 0.930 . S
C2833 C2834 1.399 . S
C2833 C2838 1.399 . S
C2834 C2833 1.399 . S
C2834 C2835 1.376 . S
C2835 H2822 0.930 . S
C2835 C2834 1.376 . S
C2835 C2836 1.388 . S
C2836 H2823 0.930 . S
C2836 C2835 1.388 . S
C2836 C2837 1.390 . S
C2837 C2836 1.390 . S
C2837 C2838 1.394 . S
C2837 C2843 1.465 . S
C2838 C2833 1.399 . S
C2838 C2837 1.394 . S
C2838 C2839 1.516 . S
C2839 C2838 1.516 . S
C2839 C2840 1.502 . S
C2839 C2841 1.561 . S
C2839 C2842 1.526 . S
C2840 H2824 0.959 . S
C2840 H2825 0.959 . S
C2840 H2826 0.961 . S
C2840 C2839 1.502 . S
C2841 H2827 0.960 . S
C2841 H2828 0.961 . S
C2841 H2829 0.959 . S
C2841 C2839 1.561 . S
C2842 C2839 1.526 . S
C2842 C2843 1.396 . S
C2842 C2847 1.390 . S
C2843 C2837 1.465 . S
C2843 C2842 1.396 . S
C2843 C2844 1.399 . S
C2844 H2830 0.929 . S
C2844 C2843 1.399 . S
C2844 C2845 1.385 . S
C2845 H2831 0.931 . S
C2845 C2844 1.385 . S
C2845 C2846 1.389 . S
C2846 C2845 1.389 . S
C2846 C2847 1.387 . S
C2847 H2832 0.930 . S
C2847 C2842 1.390 . S
C2847 C2846 1.387 . S
H2848 C2860 0.930 . S
H2849 C2862 0.930 . S
H2850 C2863 0.930 . S
H2851 C2867 0.959 . S
H2852 C2867 0.959 . S
H2853 C2867 0.961 . S
H2854 C2868 0.960 . S
H2855 C2868 0.961 . S
H2856 C2868 0.959 . S
H2857 C2871 0.929 . S
H2858 C2872 0.931 . S
H2859 C2874 0.930 . S
C2860 H2848 0.930 . S
C2860 C2861 1.399 . S
C2860 C2865 1.399 . S
C2861 C2860 1.399 . S
C2861 C2862 1.376 . S
C2862 H2849 0.930 . S
C2862 C2861 1.376 . S
C2862 C2863 1.388 . S
C2863 H2850 0.930 . S
C2863 C2862 1.388 . S
C2863 C2864 1.390 . S
C2864 C2863 1.390 . S
C2864 C2865 1.394 . S
C2864 C2870 1.465 . S
C2865 C2860 1.399 . S
C2865 C2864 1.394 . S
C2865 C2866 1.516 . S
C2866 C2865 1.516 . S
C2866 C2867 1.502 . S
C2866 C2868 1.561 . S
C2866 C2869 1.526 . S
C2867 H2851 0.959 . S
C2867 H2852 0.959 . S
C2867 H2853 0.961 . S
C2867 C2866 1.502 . S
C2868 H2854 0.960 . S
C2868 H2855 0.961 . S
C2868 H2856 0.959 . S
C2868 C2866 1.561 . S
C2869 C2866 1.526 . S
C2869 C2870 1.396 . S
C2869 C2874 1.390 . S
C2870 C2864 1.465 . S
C2870 C2869 1.396 . S
C2870 C2871 1.399 . S
C2871 H2857 0.929 . S
C2871 C2870 1.399 . S
C2871 C2872 1.385 . S
C2872 H2858 0.931 . S
C2872 C2871 1.385 . S
C2872 C2873 1.389 . S
C2873 C2872 1.389 . S
C2873 C2874 1.387 . S
C2874 H2859 0.930 . S
C2874 C2869 1.390 . S
C2874 C2873 1.387 . S
H2875 C2887 0.930 . S
H2876 C2889 0.930 . S
H2877 C2890 0.930 . S
H2878 C2894 0.959 . S
H2879 C2894 0.959 . S
H2880 C2894 0.961 . S
H2881 C2895 0.960 . S
H2882 C2895 0.961 . S
H2883 C2895 0.959 . S
H2884 C2898 0.929 . S
H2885 C2899 0.931 . S
H2886 C2901 0.930 . S
C2887 H2875 0.930 . S
C2887 C2888 1.399 . S
C2887 C2892 1.399 . S
C2888 C2887 1.399 . S
C2888 C2889 1.376 . S
C2889 H2876 0.930 . S
C2889 C2888 1.376 . S
C2889 C2890 1.388 . S
C2890 H2877 0.930 . S
C2890 C2889 1.388 . S
C2890 C2891 1.390 . S
C2891 C2890 1.390 . S
C2891 C2892 1.394 . S
C2891 C2897 1.465 . S
C2892 C2887 1.399 . S
C2892 C2891 1.394 . S
C2892 C2893 1.516 . S
C2893 C2892 1.516 . S
C2893 C2894 1.502 . S
C2893 C2895 1.561 . S
C2893 C2896 1.526 . S
C2894 H2878 0.959 . S
C2894 H2879 0.959 . S
C2894 H2880 0.961 . S
C2894 C2893 1.502 . S
C2895 H2881 0.960 . S
C2895 H2882 0.961 . S
C2895 H2883 0.959 . S
C2895 C2893 1.561 . S
C2896 C2893 1.526 . S
C2896 C2897 1.396 . S
C2896 C2901 1.390 . S
C2897 C2891 1.465 . S
C2897 C2896 1.396 . S
C2897 C2898 1.399 . S
C2898 H2884 0.929 . S
C2898 C2897 1.399 . S
C2898 C2899 1.385 . S
C2899 H2885 0.931 . S
C2899 C2898 1.385 . S
C2899 C2900 1.389 . S
C2900 C2899 1.389 . S
C2900 C2901 1.387 . S
C2901 H2886 0.930 . S
C2901 C2896 1.390 . S
C2901 C2900 1.387 . S
H2902 C2914 0.930 . S
H2903 C2916 0.930 . S
H2904 C2917 0.930 . S
H2905 C2921 0.959 . S
H2906 C2921 0.959 . S
H2907 C2921 0.961 . S
H2908 C2922 0.960 . S
H2909 C2922 0.961 . S
H2910 C2922 0.959 . S
H2911 C2925 0.929 . S
H2912 C2926 0.931 . S
H2913 C2928 0.930 . S
C2914 H2902 0.930 . S
C2914 C2915 1.399 . S
C2914 C2919 1.399 . S
C2915 C2914 1.399 . S
C2915 C2916 1.376 . S
C2916 H2903 0.930 . S
C2916 C2915 1.376 . S
C2916 C2917 1.388 . S
C2917 H2904 0.930 . S
C2917 C2916 1.388 . S
C2917 C2918 1.390 . S
C2918 C2917 1.390 . S
C2918 C2919 1.394 . S
C2918 C2924 1.465 . S
C2919 C2914 1.399 . S
C2919 C2918 1.394 . S
C2919 C2920 1.516 . S
C2920 C2919 1.516 . S
C2920 C2921 1.502 . S
C2920 C2922 1.561 . S
C2920 C2923 1.526 . S
C2921 H2905 0.959 . S
C2921 H2906 0.959 . S
C2921 H2907 0.961 . S
C2921 C2920 1.502 . S
C2922 H2908 0.960 . S
C2922 H2909 0.961 . S
C2922 H2910 0.959 . S
C2922 C2920 1.561 . S
C2923 C2920 1.526 . S
C2923 C2924 1.396 . S
C2923 C2928 1.390 . S
C2924 C2918 1.465 . S
C2924 C2923 1.396 . S
C2924 C2925 1.399 . S
C2925 H2911 0.929 . S
C2925 C2924 1.399 . S
C2925 C2926 1.385 . S
C2926 H2912 0.931 . S
C2926 C2925 1.385 . S
C2926 C2927 1.389 . S
C2927 C2926 1.389 . S
C2927 C2928 1.387 . S
C2928 H2913 0.930 . S
C2928 C2923 1.390 . S
C2928 C2927 1.387 . S
H2929 C2941 0.930 . S
H2930 C2943 0.930 . S
H2931 C2944 0.930 . S
H2932 C2948 0.959 . S
H2933 C2948 0.959 . S
H2934 C2948 0.961 . S
H2935 C2949 0.960 . S
H2936 C2949 0.961 . S
H2937 C2949 0.959 . S
H2938 C2952 0.929 . S
H2939 C2953 0.931 . S
H2940 C2955 0.930 . S
C2941 H2929 0.930 . S
C2941 C2942 1.399 . S
C2941 C2946 1.399 . S
C2942 C2941 1.399 . S
C2942 C2943 1.376 . S
C2943 H2930 0.930 . S
C2943 C2942 1.376 . S
C2943 C2944 1.388 . S
C2944 H2931 0.930 . S
C2944 C2943 1.388 . S
C2944 C2945 1.390 . S
C2945 C2944 1.390 . S
C2945 C2946 1.394 . S
C2945 C2951 1.465 . S
C2946 C2941 1.399 . S
C2946 C2945 1.394 . S
C2946 C2947 1.516 . S
C2947 C2946 1.516 . S
C2947 C2948 1.502 . S
C2947 C2949 1.561 . S
C2947 C2950 1.526 . S
C2948 H2932 0.959 . S
C2948 H2933 0.959 . S
C2948 H2934 0.961 . S
C2948 C2947 1.502 . S
C2949 H2935 0.960 . S
C2949 H2936 0.961 . S
C2949 H2937 0.959 . S
C2949 C2947 1.561 . S
C2950 C2947 1.526 . S
C2950 C2951 1.396 . S
C2950 C2955 1.390 . S
C2951 C2945 1.465 . S
C2951 C2950 1.396 . S
C2951 C2952 1.399 . S
C2952 H2938 0.929 . S
C2952 C2951 1.399 . S
C2952 C2953 1.385 . S
C2953 H2939 0.931 . S
C2953 C2952 1.385 . S
C2953 C2954 1.389 . S
C2954 C2953 1.389 . S
C2954 C2955 1.387 . S
C2955 H2940 0.930 . S
C2955 C2950 1.390 . S
C2955 C2954 1.387 . S
H2956 C2968 0.930 . S
H2957 C2970 0.930 . S
H2958 C2971 0.930 . S
H2959 C2975 0.959 . S
H2960 C2975 0.959 . S
H2961 C2975 0.961 . S
H2962 C2976 0.960 . S
H2963 C2976 0.961 . S
H2964 C2976 0.959 . S
H2965 C2979 0.929 . S
H2966 C2980 0.931 . S
H2967 C2982 0.930 . S
C2968 H2956 0.930 . S
C2968 C2969 1.399 . S
C2968 C2973 1.399 . S
C2969 C2968 1.399 . S
C2969 C2970 1.376 . S
C2970 H2957 0.930 . S
C2970 C2969 1.376 . S
C2970 C2971 1.388 . S
C2971 H2958 0.930 . S
C2971 C2970 1.388 . S
C2971 C2972 1.390 . S
C2972 C2971 1.390 . S
C2972 C2973 1.394 . S
C2972 C2978 1.465 . S
C2973 C2968 1.399 . S
C2973 C2972 1.394 . S
C2973 C2974 1.516 . S
C2974 C2973 1.516 . S
C2974 C2975 1.502 . S
C2974 C2976 1.561 . S
C2974 C2977 1.526 . S
C2975 H2959 0.959 . S
C2975 H2960 0.959 . S
C2975 H2961 0.961 . S
C2975 C2974 1.502 . S
C2976 H2962 0.960 . S
C2976 H2963 0.961 . S
C2976 H2964 0.959 . S
C2976 C2974 1.561 . S
C2977 C2974 1.526 . S
C2977 C2978 1.396 . S
C2977 C2982 1.390 . S
C2978 C2972 1.465 . S
C2978 C2977 1.396 . S
C2978 C2979 1.399 . S
C2979 H2965 0.929 . S
C2979 C2978 1.399 . S
C2979 C2980 1.385 . S
C2980 H2966 0.931 . S
C2980 C2979 1.385 . S
C2980 C2981 1.389 . S
C2981 C2980 1.389 . S
C2981 C2982 1.387 . S
C2982 H2967 0.930 . S
C2982 C2977 1.390 . S
C2982 C2981 1.387 . S
H2983 C2995 0.930 . S
H2984 C2997 0.930 . S
H2985 C2998 0.930 . S
H2986 C3002 0.959 . S
H2987 C3002 0.959 . S
H2988 C3002 0.961 . S
H2989 C3003 0.960 . S
H2990 C3003 0.961 . S
H2991 C3003 0.959 . S
H2992 C3006 0.929 . S
H2993 C3007 0.931 . S
H2994 C3009 0.930 . S
C2995 H2983 0.930 . S
C2995 C2996 1.399 . S
C2995 C3000 1.399 . S
C2996 C2995 1.399 . S
C2996 C2997 1.376 . S
C2997 H2984 0.930 . S
C2997 C2996 1.376 . S
C2997 C2998 1.388 . S
C2998 H2985 0.930 . S
C2998 C2997 1.388 . S
C2998 C2999 1.390 . S
C2999 C2998 1.390 . S
C2999 C3000 1.394 . S
C2999 C3005 1.465 . S
C3000 C2995 1.399 . S
C3000 C2999 1.394 . S
C3000 C3001 1.516 . S
C3001 C3000 1.516 . S
C3001 C3002 1.502 . S
C3001 C3003 1.561 . S
C3001 C3004 1.526 . S
C3002 H2986 0.959 . S
C3002 H2987 0.959 . S
C3002 H2988 0.961 . S
C3002 C3001 1.502 . S
C3003 H2989 0.960 . S
C3003 H2990 0.961 . S
C3003 H2991 0.959 . S
C3003 C3001 1.561 . S
C3004 C3001 1.526 . S
C3004 C3005 1.396 . S
C3004 C3009 1.390 . S
C3005 C2999 1.465 . S
C3005 C3004 1.396 . S
C3005 C3006 1.399 . S
C3006 H2992 0.929 . S
C3006 C3005 1.399 . S
C3006 C3007 1.385 . S
C3007 H2993 0.931 . S
C3007 C3006 1.385 . S
C3007 C3008 1.389 . S
C3008 C3007 1.389 . S
C3008 C3009 1.387 . S
C3009 H2994 0.930 . S
C3009 C3004 1.390 . S
C3009 C3008 1.387 . S
H3010 C3022 0.930 . S
H3011 C3024 0.930 . S
H3012 C3025 0.930 . S
H3013 C3029 0.959 . S
H3014 C3029 0.959 . S
H3015 C3029 0.961 . S
H3016 C3030 0.960 . S
H3017 C3030 0.961 . S
H3018 C3030 0.959 . S
H3019 C3033 0.929 . S
H3020 C3034 0.931 . S
H3021 C3036 0.930 . S
C3022 H3010 0.930 . S
C3022 C3023 1.399 . S
C3022 C3027 1.399 . S
C3023 C3022 1.399 . S
C3023 C3024 1.376 . S
C3024 H3011 0.930 . S
C3024 C3023 1.376 . S
C3024 C3025 1.388 . S
C3025 H3012 0.930 . S
C3025 C3024 1.388 . S
C3025 C3026 1.390 . S
C3026 C3025 1.390 . S
C3026 C3027 1.394 . S
C3026 C3032 1.465 . S
C3027 C3022 1.399 . S
C3027 C3026 1.394 . S
C3027 C3028 1.516 . S
C3028 C3027 1.516 . S
C3028 C3029 1.502 . S
C3028 C3030 1.561 . S
C3028 C3031 1.526 . S
C3029 H3013 0.959 . S
C3029 H3014 0.959 . S
C3029 H3015 0.961 . S
C3029 C3028 1.502 . S
C3030 H3016 0.960 . S
C3030 H3017 0.961 . S
C3030 H3018 0.959 . S
C3030 C3028 1.561 . S
C3031 C3028 1.526 . S
C3031 C3032 1.396 . S
C3031 C3036 1.390 . S
C3032 C3026 1.465 . S
C3032 C3031 1.396 . S
C3032 C3033 1.399 . S
C3033 H3019 0.929 . S
C3033 C3032 1.399 . S
C3033 C3034 1.385 . S
C3034 H3020 0.931 . S
C3034 C3033 1.385 . S
C3034 C3035 1.389 . S
C3035 C3034 1.389 . S
C3035 C3036 1.387 . S
C3036 H3021 0.930 . S
C3036 C3031 1.390 . S
C3036 C3035 1.387 . S
H3037 C3049 0.930 . S
H3038 C3051 0.930 . S
H3039 C3052 0.930 . S
H3040 C3056 0.959 . S
H3041 C3056 0.959 . S
H3042 C3056 0.961 . S
H3043 C3057 0.960 . S
H3044 C3057 0.961 . S
H3045 C3057 0.959 . S
H3046 C3060 0.929 . S
H3047 C3061 0.931 . S
H3048 C3063 0.930 . S
C3049 H3037 0.930 . S
C3049 C3050 1.399 . S
C3049 C3054 1.399 . S
C3050 C3049 1.399 . S
C3050 C3051 1.376 . S
C3051 H3038 0.930 . S
C3051 C3050 1.376 . S
C3051 C3052 1.388 . S
C3052 H3039 0.930 . S
C3052 C3051 1.388 . S
C3052 C3053 1.390 . S
C3053 C3052 1.390 . S
C3053 C3054 1.394 . S
C3053 C3059 1.465 . S
C3054 C3049 1.399 . S
C3054 C3053 1.394 . S
C3054 C3055 1.516 . S
C3055 C3054 1.516 . S
C3055 C3056 1.502 . S
C3055 C3057 1.561 . S
C3055 C3058 1.526 . S
C3056 H3040 0.959 . S
C3056 H3041 0.959 . S
C3056 H3042 0.961 . S
C3056 C3055 1.502 . S
C3057 H3043 0.960 . S
C3057 H3044 0.961 . S
C3057 H3045 0.959 . S
C3057 C3055 1.561 . S
C3058 C3055 1.526 . S
C3058 C3059 1.396 . S
C3058 C3063 1.390 . S
C3059 C3053 1.465 . S
C3059 C3058 1.396 . S
C3059 C3060 1.399 . S
C3060 H3046 0.929 . S
C3060 C3059 1.399 . S
C3060 C3061 1.385 . S
C3061 H3047 0.931 . S
C3061 C3060 1.385 . S
C3061 C3062 1.389 . S
C3062 C3061 1.389 . S
C3062 C3063 1.387 . S
C3063 H3048 0.930 . S
C3063 C3058 1.390 . S
C3063 C3062 1.387 . S
H3064 C3076 0.930 . S
H3065 C3078 0.930 . S
H3066 C3079 0.930 . S
H3067 C3083 0.959 . S
H3068 C3083 0.959 . S
H3069 C3083 0.961 . S
H3070 C3084 0.960 . S
H3071 C3084 0.961 . S
H3072 C3084 0.959 . S
H3073 C3087 0.929 . S
H3074 C3088 0.931 . S
H3075 C3090 0.930 . S
C3076 H3064 0.930 . S
C3076 C3077 1.399 . S
C3076 C3081 1.399 . S
C3077 C3076 1.399 . S
C3077 C3078 1.376 . S
C3078 H3065 0.930 . S
C3078 C3077 1.376 . S
C3078 C3079 1.388 . S
C3079 H3066 0.930 . S
C3079 C3078 1.388 . S
C3079 C3080 1.390 . S
C3080 C3079 1.390 . S
C3080 C3081 1.394 . S
C3080 C3086 1.465 . S
C3081 C3076 1.399 . S
C3081 C3080 1.394 . S
C3081 C3082 1.516 . S
C3082 C3081 1.516 . S
C3082 C3083 1.502 . S
C3082 C3084 1.561 . S
C3082 C3085 1.526 . S
C3083 H3067 0.959 . S
C3083 H3068 0.959 . S
C3083 H3069 0.961 . S
C3083 C3082 1.502 . S
C3084 H3070 0.960 . S
C3084 H3071 0.961 . S
C3084 H3072 0.959 . S
C3084 C3082 1.561 . S
C3085 C3082 1.526 . S
C3085 C3086 1.396 . S
C3085 C3090 1.390 . S
C3086 C3080 1.465 . S
C3086 C3085 1.396 . S
C3086 C3087 1.399 . S
C3087 H3073 0.929 . S
C3087 C3086 1.399 . S
C3087 C3088 1.385 . S
C3088 H3074 0.931 . S
C3088 C3087 1.385 . S
C3088 C3089 1.389 . S
C3089 C3088 1.389 . S
C3089 C3090 1.387 . S
C3090 H3075 0.930 . S
C3090 C3085 1.390 . S
C3090 C3089 1.387 . S
H3091 C3103 0.930 . S
H3092 C3105 0.930 . S
H3093 C3106 0.930 . S
H3094 C3110 0.959 . S
H3095 C3110 0.959 . S
H3096 C3110 0.961 . S
H3097 C3111 0.960 . S
H3098 C3111 0.961 . S
H3099 C3111 0.959 . S
H3100 C3114 0.929 . S
H3101 C3115 0.931 . S
H3102 C3117 0.930 . S
C3103 H3091 0.930 . S
C3103 C3104 1.399 . S
C3103 C3108 1.399 . S
C3104 C3103 1.399 . S
C3104 C3105 1.376 . S
C3105 H3092 0.930 . S
C3105 C3104 1.376 . S
C3105 C3106 1.388 . S
C3106 H3093 0.930 . S
C3106 C3105 1.388 . S
C3106 C3107 1.390 . S
C3107 C3106 1.390 . S
C3107 C3108 1.394 . S
C3107 C3113 1.465 . S
C3108 C3103 1.399 . S
C3108 C3107 1.394 . S
C3108 C3109 1.516 . S
C3109 C3108 1.516 . S
C3109 C3110 1.502 . S
C3109 C3111 1.561 . S
C3109 C3112 1.526 . S
C3110 H3094 0.959 . S
C3110 H3095 0.959 . S
C3110 H3096 0.961 . S
C3110 C3109 1.502 . S
C3111 H3097 0.960 . S
C3111 H3098 0.961 . S
C3111 H3099 0.959 . S
C3111 C3109 1.561 . S
C3112 C3109 1.526 . S
C3112 C3113 1.396 . S
C3112 C3117 1.390 . S
C3113 C3107 1.465 . S
C3113 C3112 1.396 . S
C3113 C3114 1.399 . S
C3114 H3100 0.929 . S
C3114 C3113 1.399 . S
C3114 C3115 1.385 . S
C3115 H3101 0.931 . S
C3115 C3114 1.385 . S
C3115 C3116 1.389 . S
C3116 C3115 1.389 . S
C3116 C3117 1.387 . S
C3117 H3102 0.930 . S
C3117 C3112 1.390 . S
C3117 C3116 1.387 . S
H3118 C3130 0.930 . S
H3119 C3132 0.930 . S
H3120 C3133 0.930 . S
H3121 C3137 0.959 . S
H3122 C3137 0.959 . S
H3123 C3137 0.961 . S
H3124 C3138 0.960 . S
H3125 C3138 0.961 . S
H3126 C3138 0.959 . S
H3127 C3141 0.929 . S
H3128 C3142 0.931 . S
H3129 C3144 0.930 . S
C3130 H3118 0.930 . S
C3130 C3131 1.399 . S
C3130 C3135 1.399 . S
C3131 C3130 1.399 . S
C3131 C3132 1.376 . S
C3132 H3119 0.930 . S
C3132 C3131 1.376 . S
C3132 C3133 1.388 . S
C3133 H3120 0.930 . S
C3133 C3132 1.388 . S
C3133 C3134 1.390 . S
C3134 C3133 1.390 . S
C3134 C3135 1.394 . S
C3134 C3140 1.465 . S
C3135 C3130 1.399 . S
C3135 C3134 1.394 . S
C3135 C3136 1.516 . S
C3136 C3135 1.516 . S
C3136 C3137 1.502 . S
C3136 C3138 1.561 . S
C3136 C3139 1.526 . S
C3137 H3121 0.959 . S
C3137 H3122 0.959 . S
C3137 H3123 0.961 . S
C3137 C3136 1.502 . S
C3138 H3124 0.960 . S
C3138 H3125 0.961 . S
C3138 H3126 0.959 . S
C3138 C3136 1.561 . S
C3139 C3136 1.526 . S
C3139 C3140 1.396 . S
C3139 C3144 1.390 . S
C3140 C3134 1.465 . S
C3140 C3139 1.396 . S
C3140 C3141 1.399 . S
C3141 H3127 0.929 . S
C3141 C3140 1.399 . S
C3141 C3142 1.385 . S
C3142 H3128 0.931 . S
C3142 C3141 1.385 . S
C3142 C3143 1.389 . S
C3143 C3142 1.389 . S
C3143 C3144 1.387 . S
C3144 H3129 0.930 . S
C3144 C3139 1.390 . S
C3144 C3143 1.387 . S
H3145 C3157 0.930 . S
H3146 C3159 0.930 . S
H3147 C3160 0.930 . S
H3148 C3164 0.959 . S
H3149 C3164 0.959 . S
H3150 C3164 0.961 . S
H3151 C3165 0.960 . S
H3152 C3165 0.961 . S
H3153 C3165 0.959 . S
H3154 C3168 0.929 . S
H3155 C3169 0.931 . S
H3156 C3171 0.930 . S
C3157 H3145 0.930 . S
C3157 C3158 1.399 . S
C3157 C3162 1.399 . S
C3158 C3157 1.399 . S
C3158 C3159 1.376 . S
C3159 H3146 0.930 . S
C3159 C3158 1.376 . S
C3159 C3160 1.388 . S
C3160 H3147 0.930 . S
C3160 C3159 1.388 . S
C3160 C3161 1.390 . S
C3161 C3160 1.390 . S
C3161 C3162 1.394 . S
C3161 C3167 1.465 . S
C3162 C3157 1.399 . S
C3162 C3161 1.394 . S
C3162 C3163 1.516 . S
C3163 C3162 1.516 . S
C3163 C3164 1.502 . S
C3163 C3165 1.561 . S
C3163 C3166 1.526 . S
C3164 H3148 0.959 . S
C3164 H3149 0.959 . S
C3164 H3150 0.961 . S
C3164 C3163 1.502 . S
C3165 H3151 0.960 . S
C3165 H3152 0.961 . S
C3165 H3153 0.959 . S
C3165 C3163 1.561 . S
C3166 C3163 1.526 . S
C3166 C3167 1.396 . S
C3166 C3171 1.390 . S
C3167 C3161 1.465 . S
C3167 C3166 1.396 . S
C3167 C3168 1.399 . S
C3168 H3154 0.929 . S
C3168 C3167 1.399 . S
C3168 C3169 1.385 . S
C3169 H3155 0.931 . S
C3169 C3168 1.385 . S
C3169 C3170 1.389 . S
C3170 C3169 1.389 . S
C3170 C3171 1.387 . S
C3171 H3156 0.930 . S
C3171 C3166 1.390 . S
C3171 C3170 1.387 . S
H3172 C3184 0.930 . S
H3173 C3186 0.930 . S
H3174 C3187 0.930 . S
H3175 C3191 0.959 . S
H3176 C3191 0.959 . S
H3177 C3191 0.961 . S
H3178 C3192 0.960 . S
H3179 C3192 0.961 . S
H3180 C3192 0.959 . S
H3181 C3195 0.929 . S
H3182 C3196 0.931 . S
H3183 C3198 0.930 . S
C3184 H3172 0.930 . S
C3184 C3185 1.399 . S
C3184 C3189 1.399 . S
C3185 C3184 1.399 . S
C3185 C3186 1.376 . S
C3186 H3173 0.930 . S
C3186 C3185 1.376 . S
C3186 C3187 1.388 . S
C3187 H3174 0.930 . S
C3187 C3186 1.388 . S
C3187 C3188 1.390 . S
C3188 C3187 1.390 . S
C3188 C3189 1.394 . S
C3188 C3194 1.465 . S
C3189 C3184 1.399 . S
C3189 C3188 1.394 . S
C3189 C3190 1.516 . S
C3190 C3189 1.516 . S
C3190 C3191 1.502 . S
C3190 C3192 1.561 . S
C3190 C3193 1.526 . S
C3191 H3175 0.959 . S
C3191 H3176 0.959 . S
C3191 H3177 0.961 . S
C3191 C3190 1.502 . S
C3192 H3178 0.960 . S
C3192 H3179 0.961 . S
C3192 H3180 0.959 . S
C3192 C3190 1.561 . S
C3193 C3190 1.526 . S
C3193 C3194 1.396 . S
C3193 C3198 1.390 . S
C3194 C3188 1.465 . S
C3194 C3193 1.396 . S
C3194 C3195 1.399 . S
C3195 H3181 0.929 . S
C3195 C3194 1.399 . S
C3195 C3196 1.385 . S
C3196 H3182 0.931 . S
C3196 C3195 1.385 . S
C3196 C3197 1.389 . S
C3197 C3196 1.389 . S
C3197 C3198 1.387 . S
C3198 H3183 0.930 . S
C3198 C3193 1.390 . S
C3198 C3197 1.387 . S
H3199 C3211 0.930 . S
H3200 C3213 0.930 . S
H3201 C3214 0.930 . S
H3202 C3218 0.959 . S
H3203 C3218 0.959 . S
H3204 C3218 0.961 . S
H3205 C3219 0.960 . S
H3206 C3219 0.961 . S
H3207 C3219 0.959 . S
H3208 C3222 0.929 . S
H3209 C3223 0.931 . S
H3210 C3225 0.930 . S
C3211 H3199 0.930 . S
C3211 C3212 1.399 . S
C3211 C3216 1.399 . S
C3212 C3211 1.399 . S
C3212 C3213 1.376 . S
C3213 H3200 0.930 . S
C3213 C3212 1.376 . S
C3213 C3214 1.388 . S
C3214 H3201 0.930 . S
C3214 C3213 1.388 . S
C3214 C3215 1.390 . S
C3215 C3214 1.390 . S
C3215 C3216 1.394 . S
C3215 C3221 1.465 . S
C3216 C3211 1.399 . S
C3216 C3215 1.394 . S
C3216 C3217 1.516 . S
C3217 C3216 1.516 . S
C3217 C3218 1.502 . S
C3217 C3219 1.561 . S
C3217 C3220 1.526 . S
C3218 H3202 0.959 . S
C3218 H3203 0.959 . S
C3218 H3204 0.961 . S
C3218 C3217 1.502 . S
C3219 H3205 0.960 . S
C3219 H3206 0.961 . S
C3219 H3207 0.959 . S
C3219 C3217 1.561 . S
C3220 C3217 1.526 . S
C3220 C3221 1.396 . S
C3220 C3225 1.390 . S
C3221 C3215 1.465 . S
C3221 C3220 1.396 . S
C3221 C3222 1.399 . S
C3222 H3208 0.929 . S
C3222 C3221 1.399 . S
C3222 C3223 1.385 . S
C3223 H3209 0.931 . S
C3223 C3222 1.385 . S
C3223 C3224 1.389 . S
C3224 C3223 1.389 . S
C3224 C3225 1.387 . S
C3225 H3210 0.930 . S
C3225 C3220 1.390 . S
C3225 C3224 1.387 . S
H3226 C3238 0.930 . S
H3227 C3240 0.930 . S
H3228 C3241 0.930 . S
H3229 C3245 0.959 . S
H3230 C3245 0.959 . S
H3231 C3245 0.961 . S
H3232 C3246 0.960 . S
H3233 C3246 0.961 . S
H3234 C3246 0.959 . S
H3235 C3249 0.929 . S
H3236 C3250 0.931 . S
H3237 C3252 0.930 . S
C3238 H3226 0.930 . S
C3238 C3239 1.399 . S
C3238 C3243 1.399 . S
C3239 C3238 1.399 . S
C3239 C3240 1.376 . S
C3240 H3227 0.930 . S
C3240 C3239 1.376 . S
C3240 C3241 1.388 . S
C3241 H3228 0.930 . S
C3241 C3240 1.388 . S
C3241 C3242 1.390 . S
C3242 C3241 1.390 . S
C3242 C3243 1.394 . S
C3242 C3248 1.465 . S
C3243 C3238 1.399 . S
C3243 C3242 1.394 . S
C3243 C3244 1.516 . S
C3244 C3243 1.516 . S
C3244 C3245 1.502 . S
C3244 C3246 1.561 . S
C3244 C3247 1.526 . S
C3245 H3229 0.959 . S
C3245 H3230 0.959 . S
C3245 H3231 0.961 . S
C3245 C3244 1.502 . S
C3246 H3232 0.960 . S
C3246 H3233 0.961 . S
C3246 H3234 0.959 . S
C3246 C3244 1.561 . S
C3247 C3244 1.526 . S
C3247 C3248 1.396 . S
C3247 C3252 1.390 . S
C3248 C3242 1.465 . S
C3248 C3247 1.396 . S
C3248 C3249 1.399 . S
C3249 H3235 0.929 . S
C3249 C3248 1.399 . S
C3249 C3250 1.385 . S
C3250 H3236 0.931 . S
C3250 C3249 1.385 . S
C3250 C3251 1.389 . S
C3251 C3250 1.389 . S
C3251 C3252 1.387 . S
C3252 H3237 0.930 . S
C3252 C3247 1.390 . S
C3252 C3251 1.387 . S
H3253 C3265 0.930 . S
H3254 C3267 0.930 . S
H3255 C3268 0.930 . S
H3256 C3272 0.959 . S
H3257 C3272 0.959 . S
H3258 C3272 0.961 . S
H3259 C3273 0.960 . S
H3260 C3273 0.961 . S
H3261 C3273 0.959 . S
H3262 C3276 0.929 . S
H3263 C3277 0.931 . S
H3264 C3279 0.930 . S
C3265 H3253 0.930 . S
C3265 C3266 1.399 . S
C3265 C3270 1.399 . S
C3266 C3265 1.399 . S
C3266 C3267 1.376 . S
C3267 H3254 0.930 . S
C3267 C3266 1.376 . S
C3267 C3268 1.388 . S
C3268 H3255 0.930 . S
C3268 C3267 1.388 . S
C3268 C3269 1.390 . S
C3269 C3268 1.390 . S
C3269 C3270 1.394 . S
C3269 C3275 1.465 . S
C3270 C3265 1.399 . S
C3270 C3269 1.394 . S
C3270 C3271 1.516 . S
C3271 C3270 1.516 . S
C3271 C3272 1.502 . S
C3271 C3273 1.561 . S
C3271 C3274 1.526 . S
C3272 H3256 0.959 . S
C3272 H3257 0.959 . S
C3272 H3258 0.961 . S
C3272 C3271 1.502 . S
C3273 H3259 0.960 . S
C3273 H3260 0.961 . S
C3273 H3261 0.959 . S
C3273 C3271 1.561 . S
C3274 C3271 1.526 . S
C3274 C3275 1.396 . S
C3274 C3279 1.390 . S
C3275 C3269 1.465 . S
C3275 C3274 1.396 . S
C3275 C3276 1.399 . S
C3276 H3262 0.929 . S
C3276 C3275 1.399 . S
C3276 C3277 1.385 . S
C3277 H3263 0.931 . S
C3277 C3276 1.385 . S
C3277 C3278 1.389 . S
C3278 C3277 1.389 . S
C3278 C3279 1.387 . S
C3279 H3264 0.930 . S
C3279 C3274 1.390 . S
C3279 C3278 1.387 . S
H3280 C3292 0.930 . S
H3281 C3294 0.930 . S
H3282 C3295 0.930 . S
H3283 C3299 0.959 . S
H3284 C3299 0.959 . S
H3285 C3299 0.961 . S
H3286 C3300 0.960 . S
H3287 C3300 0.961 . S
H3288 C3300 0.959 . S
H3289 C3303 0.929 . S
H3290 C3304 0.931 . S
H3291 C3306 0.930 . S
C3292 H3280 0.930 . S
C3292 C3293 1.399 . S
C3292 C3297 1.399 . S
C3293 C3292 1.399 . S
C3293 C3294 1.376 . S
C3294 H3281 0.930 . S
C3294 C3293 1.376 . S
C3294 C3295 1.388 . S
C3295 H3282 0.930 . S
C3295 C3294 1.388 . S
C3295 C3296 1.390 . S
C3296 C3295 1.390 . S
C3296 C3297 1.394 . S
C3296 C3302 1.465 . S
C3297 C3292 1.399 . S
C3297 C3296 1.394 . S
C3297 C3298 1.516 . S
C3298 C3297 1.516 . S
C3298 C3299 1.502 . S
C3298 C3300 1.561 . S
C3298 C3301 1.526 . S
C3299 H3283 0.959 . S
C3299 H3284 0.959 . S
C3299 H3285 0.961 . S
C3299 C3298 1.502 . S
C3300 H3286 0.960 . S
C3300 H3287 0.961 . S
C3300 H3288 0.959 . S
C3300 C3298 1.561 . S
C3301 C3298 1.526 . S
C3301 C3302 1.396 . S
C3301 C3306 1.390 . S
C3302 C3296 1.465 . S
C3302 C3301 1.396 . S
C3302 C3303 1.399 . S
C3303 H3289 0.929 . S
C3303 C3302 1.399 . S
C3303 C3304 1.385 . S
C3304 H3290 0.931 . S
C3304 C3303 1.385 . S
C3304 C3305 1.389 . S
C3305 C3304 1.389 . S
C3305 C3306 1.387 . S
C3306 H3291 0.930 . S
C3306 C3301 1.390 . S
C3306 C3305 1.387 . S
H3307 C3319 0.930 . S
H3308 C3321 0.930 . S
H3309 C3322 0.930 . S
H3310 C3326 0.959 . S
H3311 C3326 0.959 . S
H3312 C3326 0.961 . S
H3313 C3327 0.960 . S
H3314 C3327 0.961 . S
H3315 C3327 0.959 . S
H3316 C3330 0.929 . S
H3317 C3331 0.931 . S
H3318 C3333 0.930 . S
C3319 H3307 0.930 . S
C3319 C3320 1.399 . S
C3319 C3324 1.399 . S
C3320 C3319 1.399 . S
C3320 C3321 1.376 . S
C3321 H3308 0.930 . S
C3321 C3320 1.376 . S
C3321 C3322 1.388 . S
C3322 H3309 0.930 . S
C3322 C3321 1.388 . S
C3322 C3323 1.390 . S
C3323 C3322 1.390 . S
C3323 C3324 1.394 . S
C3323 C3329 1.465 . S
C3324 C3319 1.399 . S
C3324 C3323 1.394 . S
C3324 C3325 1.516 . S
C3325 C3324 1.516 . S
C3325 C3326 1.502 . S
C3325 C3327 1.561 . S
C3325 C3328 1.526 . S
C3326 H3310 0.959 . S
C3326 H3311 0.959 . S
C3326 H3312 0.961 . S
C3326 C3325 1.502 . S
C3327 H3313 0.960 . S
C3327 H3314 0.961 . S
C3327 H3315 0.959 . S
C3327 C3325 1.561 . S
C3328 C3325 1.526 . S
C3328 C3329 1.396 . S
C3328 C3333 1.390 . S
C3329 C3323 1.465 . S
C3329 C3328 1.396 . S
C3329 C3330 1.399 . S
C3330 H3316 0.929 . S
C3330 C3329 1.399 . S
C3330 C3331 1.385 . S
C3331 H3317 0.931 . S
C3331 C3330 1.385 . S
C3331 C3332 1.389 . S
C3332 C3331 1.389 . S
C3332 C3333 1.387 . S
C3333 H3318 0.930 . S
C3333 C3328 1.390 . S
C3333 C3332 1.387 . S
H3334 C3346 0.930 . S
H3335 C3348 0.930 . S
H3336 C3349 0.930 . S
H3337 C3353 0.959 . S
H3338 C3353 0.959 . S
H3339 C3353 0.961 . S
H3340 C3354 0.960 . S
H3341 C3354 0.961 . S
H3342 C3354 0.959 . S
H3343 C3357 0.929 . S
H3344 C3358 0.931 . S
H3345 C3360 0.930 . S
C3346 H3334 0.930 . S
C3346 C3347 1.399 . S
C3346 C3351 1.399 . S
C3347 C3346 1.399 . S
C3347 C3348 1.376 . S
C3348 H3335 0.930 . S
C3348 C3347 1.376 . S
C3348 C3349 1.388 . S
C3349 H3336 0.930 . S
C3349 C3348 1.388 . S
C3349 C3350 1.390 . S
C3350 C3349 1.390 . S
C3350 C3351 1.394 . S
C3350 C3356 1.465 . S
C3351 C3346 1.399 . S
C3351 C3350 1.394 . S
C3351 C3352 1.516 . S
C3352 C3351 1.516 . S
C3352 C3353 1.502 . S
C3352 C3354 1.561 . S
C3352 C3355 1.526 . S
C3353 H3337 0.959 . S
C3353 H3338 0.959 . S
C3353 H3339 0.961 . S
C3353 C3352 1.502 . S
C3354 H3340 0.960 . S
C3354 H3341 0.961 . S
C3354 H3342 0.959 . S
C3354 C3352 1.561 . S
C3355 C3352 1.526 . S
C3355 C3356 1.396 . S
C3355 C3360 1.390 . S
C3356 C3350 1.465 . S
C3356 C3355 1.396 . S
C3356 C3357 1.399 . S
C3357 H3343 0.929 . S
C3357 C3356 1.399 . S
C3357 C3358 1.385 . S
C3358 H3344 0.931 . S
C3358 C3357 1.385 . S
C3358 C3359 1.389 . S
C3359 C3358 1.389 . S
C3359 C3360 1.387 . S
C3360 H3345 0.930 . S
C3360 C3355 1.390 . S
C3360 C3359 1.387 . S
H3361 C3373 0.930 . S
H3362 C3375 0.930 . S
H3363 C3376 0.930 . S
H3364 C3380 0.959 . S
H3365 C3380 0.959 . S
H3366 C3380 0.961 . S
H3367 C3381 0.960 . S
H3368 C3381 0.961 . S
H3369 C3381 0.959 . S
H3370 C3384 0.929 . S
H3371 C3385 0.931 . S
H3372 C3387 0.930 . S
C3373 H3361 0.930 . S
C3373 C3374 1.399 . S
C3373 C3378 1.399 . S
C3374 C3373 1.399 . S
C3374 C3375 1.376 . S
C3375 H3362 0.930 . S
C3375 C3374 1.376 . S
C3375 C3376 1.388 . S
C3376 H3363 0.930 . S
C3376 C3375 1.388 . S
C3376 C3377 1.390 . S
C3377 C3376 1.390 . S
C3377 C3378 1.394 . S
C3377 C3383 1.465 . S
C3378 C3373 1.399 . S
C3378 C3377 1.394 . S
C3378 C3379 1.516 . S
C3379 C3378 1.516 . S
C3379 C3380 1.502 . S
C3379 C3381 1.561 . S
C3379 C3382 1.526 . S
C3380 H3364 0.959 . S
C3380 H3365 0.959 . S
C3380 H3366 0.961 . S
C3380 C3379 1.502 . S
C3381 H3367 0.960 . S
C3381 H3368 0.961 . S
C3381 H3369 0.959 . S
C3381 C3379 1.561 . S
C3382 C3379 1.526 . S
C3382 C3383 1.396 . S
C3382 C3387 1.390 . S
C3383 C3377 1.465 . S
C3383 C3382 1.396 . S
C3383 C3384 1.399 . S
C3384 H3370 0.929 . S
C3384 C3383 1.399 . S
C3384 C3385 1.385 . S
C3385 H3371 0.931 . S
C3385 C3384 1.385 . S
C3385 C3386 1.389 . S
C3386 C3385 1.389 . S
C3386 C3387 1.387 . S
C3387 H3372 0.930 . S
C3387 C3382 1.390 . S
C3387 C3386 1.387 . S
H3388 C3400 0.930 . S
H3389 C3402 0.930 . S
H3390 C3403 0.930 . S
H3391 C3407 0.959 . S
H3392 C3407 0.959 . S
H3393 C3407 0.961 . S
H3394 C3408 0.960 . S
H3395 C3408 0.961 . S
H3396 C3408 0.959 . S
H3397 C3411 0.929 . S
H3398 C3412 0.931 . S
H3399 C3414 0.930 . S
C3400 H3388 0.930 . S
C3400 C3401 1.399 . S
C3400 C3405 1.399 . S
C3401 C3400 1.399 . S
C3401 C3402 1.376 . S
C3402 H3389 0.930 . S
C3402 C3401 1.376 . S
C3402 C3403 1.388 . S
C3403 H3390 0.930 . S
C3403 C3402 1.388 . S
C3403 C3404 1.390 . S
C3404 C3403 1.390 . S
C3404 C3405 1.394 . S
C3404 C3410 1.465 . S
C3405 C3400 1.399 . S
C3405 C3404 1.394 . S
C3405 C3406 1.516 . S
C3406 C3405 1.516 . S
C3406 C3407 1.502 . S
C3406 C3408 1.561 . S
C3406 C3409 1.526 . S
C3407 H3391 0.959 . S
C3407 H3392 0.959 . S
C3407 H3393 0.961 . S
C3407 C3406 1.502 . S
C3408 H3394 0.960 . S
C3408 H3395 0.961 . S
C3408 H3396 0.959 . S
C3408 C3406 1.561 . S
C3409 C3406 1.526 . S
C3409 C3410 1.396 . S
C3409 C3414 1.390 . S
C3410 C3404 1.465 . S
C3410 C3409 1.396 . S
C3410 C3411 1.399 . S
C3411 H3397 0.929 . S
C3411 C3410 1.399 . S
C3411 C3412 1.385 . S
C3412 H3398 0.931 . S
C3412 C3411 1.385 . S
C3412 C3413 1.389 . S
C3413 C3412 1.389 . S
C3413 C3414 1.387 . S
C3414 H3399 0.930 . S
C3414 C3409 1.390 . S
C3414 C3413 1.387 . S
H3415 C3427 0.930 . S
H3416 C3429 0.930 . S
H3417 C3430 0.930 . S
H3418 C3434 0.959 . S
H3419 C3434 0.959 . S
H3420 C3434 0.961 . S
H3421 C3435 0.960 . S
H3422 C3435 0.961 . S
H3423 C3435 0.959 . S
H3424 C3438 0.929 . S
H3425 C3439 0.931 . S
H3426 C3441 0.930 . S
C3427 H3415 0.930 . S
C3427 C3428 1.399 . S
C3427 C3432 1.399 . S
C3428 C3427 1.399 . S
C3428 C3429 1.376 . S
C3429 H3416 0.930 . S
C3429 C3428 1.376 . S
C3429 C3430 1.388 . S
C3430 H3417 0.930 . S
C3430 C3429 1.388 . S
C3430 C3431 1.390 . S
C3431 C3430 1.390 . S
C3431 C3432 1.394 . S
C3431 C3437 1.465 . S
C3432 C3427 1.399 . S
C3432 C3431 1.394 . S
C3432 C3433 1.516 . S
C3433 C3432 1.516 . S
C3433 C3434 1.502 . S
C3433 C3435 1.561 . S
C3433 C3436 1.526 . S
C3434 H3418 0.959 . S
C3434 H3419 0.959 . S
C3434 H3420 0.961 . S
C3434 C3433 1.502 . S
C3435 H3421 0.960 . S
C3435 H3422 0.961 . S
C3435 H3423 0.959 . S
C3435 C3433 1.561 . S
C3436 C3433 1.526 . S
C3436 C3437 1.396 . S
C3436 C3441 1.390 . S
C3437 C3431 1.465 . S
C3437 C3436 1.396 . S
C3437 C3438 1.399 . S
C3438 H3424 0.929 . S
C3438 C3437 1.399 . S
C3438 C3439 1.385 . S
C3439 H3425 0.931 . S
C3439 C3438 1.385 . S
C3439 C3440 1.389 . S
C3440 C3439 1.389 . S
C3440 C3441 1.387 . S
C3441 H3426 0.930 . S
C3441 C3436 1.390 . S
C3441 C3440 1.387 . S
H3442 C3454 0.930 . S
H3443 C3456 0.930 . S
H3444 C3457 0.930 . S
H3445 C3461 0.959 . S
H3446 C3461 0.959 . S
H3447 C3461 0.961 . S
H3448 C3462 0.960 . S
H3449 C3462 0.961 . S
H3450 C3462 0.959 . S
H3451 C3465 0.929 . S
H3452 C3466 0.931 . S
H3453 C3468 0.930 . S
C3454 H3442 0.930 . S
C3454 C3455 1.399 . S
C3454 C3459 1.399 . S
C3455 C3454 1.399 . S
C3455 C3456 1.376 . S
C3456 H3443 0.930 . S
C3456 C3455 1.376 . S
C3456 C3457 1.388 . S
C3457 H3444 0.930 . S
C3457 C3456 1.388 . S
C3457 C3458 1.390 . S
C3458 C3457 1.390 . S
C3458 C3459 1.394 . S
C3458 C3464 1.465 . S
C3459 C3454 1.399 . S
C3459 C3458 1.394 . S
C3459 C3460 1.516 . S
C3460 C3459 1.516 . S
C3460 C3461 1.502 . S
C3460 C3462 1.561 . S
C3460 C3463 1.526 . S
C3461 H3445 0.959 . S
C3461 H3446 0.959 . S
C3461 H3447 0.961 . S
C3461 C3460 1.502 . S
C3462 H3448 0.960 . S
C3462 H3449 0.961 . S
C3462 H3450 0.959 . S
C3462 C3460 1.561 . S
C3463 C3460 1.526 . S
C3463 C3464 1.396 . S
C3463 C3468 1.390 . S
C3464 C3458 1.465 . S
C3464 C3463 1.396 . S
C3464 C3465 1.399 . S
C3465 H3451 0.929 . S
C3465 C3464 1.399 . S
C3465 C3466 1.385 . S
C3466 H3452 0.931 . S
C3466 C3465 1.385 . S
C3466 C3467 1.389 . S
C3467 C3466 1.389 . S
C3467 C3468 1.387 . S
C3468 H3453 0.930 . S
C3468 C3463 1.390 . S
C3468 C3467 1.387 . S
H3469 C3481 0.930 . S
H3470 C3483 0.930 . S
H3471 C3484 0.930 . S
H3472 C3488 0.959 . S
H3473 C3488 0.959 . S
H3474 C3488 0.961 . S
H3475 C3489 0.960 . S
H3476 C3489 0.961 . S
H3477 C3489 0.959 . S
H3478 C3492 0.929 . S
H3479 C3493 0.931 . S
H3480 C3495 0.930 . S
C3481 H3469 0.930 . S
C3481 C3482 1.399 . S
C3481 C3486 1.399 . S
C3482 C3481 1.399 . S
C3482 C3483 1.376 . S
C3483 H3470 0.930 . S
C3483 C3482 1.376 . S
C3483 C3484 1.388 . S
C3484 H3471 0.930 . S
C3484 C3483 1.388 . S
C3484 C3485 1.390 . S
C3485 C3484 1.390 . S
C3485 C3486 1.394 . S
C3485 C3491 1.465 . S
C3486 C3481 1.399 . S
C3486 C3485 1.394 . S
C3486 C3487 1.516 . S
C3487 C3486 1.516 . S
C3487 C3488 1.502 . S
C3487 C3489 1.561 . S
C3487 C3490 1.526 . S
C3488 H3472 0.959 . S
C3488 H3473 0.959 . S
C3488 H3474 0.961 . S
C3488 C3487 1.502 . S
C3489 H3475 0.960 . S
C3489 H3476 0.961 . S
C3489 H3477 0.959 . S
C3489 C3487 1.561 . S
C3490 C3487 1.526 . S
C3490 C3491 1.396 . S
C3490 C3495 1.390 . S
C3491 C3485 1.465 . S
C3491 C3490 1.396 . S
C3491 C3492 1.399 . S
C3492 H3478 0.929 . S
C3492 C3491 1.399 . S
C3492 C3493 1.385 . S
C3493 H3479 0.931 . S
C3493 C3492 1.385 . S
C3493 C3494 1.389 . S
C3494 C3493 1.389 . S
C3494 C3495 1.387 . S
C3495 H3480 0.930 . S
C3495 C3490 1.390 . S
C3495 C3494 1.387 . S
C929 N364 1.889 . S
C917 C4 1.997 . S
C956 C391 1.190 . S
C944 C21 1.184 . S
C971 C26 1.904 . S
C983 C405 1.875 . S
C1010 N423 1.091 . S
C998 C43 1.066 . S
C1025 C54 1.037 . S
C1037 C428 1.023 . S
C1052 C60 1.899 . S
C1064 C368 1.869 . S
C1079 C76 1.030 . S
C1091 N387 1.047 . S
C1118 N400 2.032 . S
C1106 C81 2.040 . S
C1145 N446 1.664 . S
C1133 C10 1.721 . S
C1160 C15 1.337 . S
C1172 N469 1.287 . S
C1187 C27 1.732 . S
C1199 N492 1.708 . S
C1226 N525 1.333 . S
C1214 C38 1.396 . S
C1241 C49 1.341 . S
C1253 C552 1.360 . S
C1280 C575 1.792 . S
C1268 C59 1.787 . S
C1295 C71 1.242 . S
C1307 C598 1.233 . S
C1334 C612 1.755 . S
C1322 C87 1.729 . S
C1349 C5 1.763 . S
C1361 C529 1.767 . S
C1376 C48 1.339 . S
C1388 N571 1.346 . S
C1415 N594 1.641 . S
C1403 C65 1.668 . S
C1430 C70 1.325 . S
C1442 N607 1.333 . S
C1469 N548 1.751 . S
C1457 C82 1.753 . S
C1496 C474 1.868 . S
C1484 C32 1.831 . S
C1511 C37 1.280 . S
C1523 C497 1.296 . S
C1550 C451 1.366 . S
C1538 C16 1.393 . S
C1577 C644 2.005 . S
C1565 C92 2.014 . S
C1592 C109 1.126 . S
C1604 C658 1.119 . S
C1619 C114 1.839 . S
C1631 N686 1.843 . S
C1658 N699 1.016 . S
C1646 C131 0.983 . S
C1673 C142 1.075 . S
C1685 C704 1.059 . S
C1700 C148 1.822 . S
C1712 N640 1.776 . S
C1727 C164 1.123 . S
C1739 N653 1.132 . S
C1754 C169 1.950 . S
C1766 C690 1.960 . S
C1793 N538 1.705 . S
C1781 C98 1.743 . S
C1808 C103 1.286 . S
C1820 N722 1.290 . S
C1847 N584 1.626 . S
C1835 C115 1.651 . S
C1862 C126 1.375 . S
C1874 C759 1.368 . S
C1889 C137 1.504 . S
C1901 C460 1.512 . S
C1928 C773 1.870 . S
C1916 C147 1.882 . S
C1943 C159 1.337 . S
C1955 C506 1.348 . S
C1982 N791 1.643 . S
C1970 C175 1.728 . S
C1997 C93 1.721 . S
C2009 N755 1.731 . S
C2036 N768 1.328 . S
C2024 C136 1.331 . S
C2051 C153 1.667 . S
C2063 N502 1.597 . S
C2090 C796 1.216 . S
C2078 C158 1.197 . S
C2105 C170 1.736 . S
C2117 N456 1.739 . S
C2132 C120 1.746 . S
C2144 C727 1.774 . S
C2159 C125 1.344 . S
C2171 C589 1.334 . S
C2186 C104 1.362 . S
C2198 C543 1.364 . S
C2213 C180 2.020 . S
C2225 C681 2.039 . S
C2252 C713 1.105 . S
C2240 C197 1.114 . S
C2267 C202 1.855 . S
C2279 N630 1.723 . S
C2294 C219 1.032 . S
C2306 N663 1.055 . S
C2321 C230 1.061 . S
C2333 C667 1.028 . S
C2348 C236 1.944 . S
C2360 N676 1.868 . S
C2387 N709 0.988 . S
C2375 C252 0.979 . S
C2402 C257 2.088 . S
C2414 C635 2.076 . S
C2441 N824 1.700 . S
C2429 C186 1.763 . S
C2456 C191 1.271 . S
C2468 N561 1.256 . S
C2495 N847 1.594 . S
C2483 C203 1.591 . S
C2510 C214 1.412 . S
C2522 N617 1.392 . S
C2537 C225 1.393 . S
C2549 C865 1.393 . S
C2564 C235 1.889 . S
C2576 C483 1.881 . S
C2603 N883 1.254 . S
C2591 C247 1.224 . S
C2618 C263 1.759 . S
C2630 C520 1.790 . S
C2657 C621 1.813 . S
C2645 C181 1.799 . S
C2684 N479 1.366 . S
C2672 C224 1.359 . S
C2699 C241 1.774 . S
C2711 C888 1.760 . S
C2726 C246 1.232 . S
C2738 N515 1.182 . S
C2765 N860 1.733 . S
C2753 C258 1.758 . S
C2792 C566 1.762 . S
C2780 C208 1.744 . S
C2819 C851 1.340 . S
C2807 C213 1.328 . S
C2846 C828 1.343 . S
C2834 C192 1.291 . S
C2861 C268 1.959 . S
C2873 N410 1.853 . S
C2888 C285 1.096 . S
C2900 C437 1.110 . S
C2927 C359 1.881 . S
C2915 C290 1.917 . S
C2954 N377 0.892 . S
C2942 C307 0.991 . S
C2981 C382 1.124 . S
C2969 C318 1.165 . S
C3008 C414 1.798 . S
C2996 C324 1.827 . S
C3035 N433 1.160 . S
C3023 C340 1.156 . S
C3050 C345 2.023 . S
C3062 N354 1.998 . S
C3077 C274 1.676 . S
C3089 N870 1.614 . S
C3116 N778 1.232 . S
C3104 C279 1.257 . S
C3143 C897 1.812 . S
C3131 C291 1.791 . S
C3170 C805 1.191 . S
C3158 C302 1.178 . S
C3185 C313 1.501 . S
C3197 C819 1.494 . S
C3224 C736 1.829 . S
C3212 C323 1.818 . S
C3251 C842 1.443 . S
C3239 C335 1.435 . S
C3266 C351 1.731 . S
C3278 N745 1.719 . S
C3305 N801 1.685 . S
C3293 C269 1.695 . S
C3332 N732 1.296 . S
C3320 C312 1.286 . S
C3359 N837 1.561 . S
C3347 C329 1.623 . S
C3374 C334 1.278 . S
C3386 C750 1.267 . S
C3401 C346 1.743 . S
C3413 N814 1.733 . S
C3428 C296 1.865 . S
C3440 C782 1.888 . S
C3455 C301 1.309 . S
C3467 N893 1.287 . S
C3494 C874 1.357 . S
C3482 C280 1.354 . S
