# Generated by pormake.
# Topology pyr, (3,6)-cn, num edge types: 1
# Building blocks:
#     Node 0, Type 0, BuildingBlock: BETDIP_clean_linker_0, # of connection points: 3
#     Node 1, Type 0, BuildingBlock: BETDIP_clean_linker_0, # of connection points: 3
#     Node 2, Type 0, BuildingBlock: BETDIP_clean_linker_0, # of connection points: 3
#     Node 3, Type 0, BuildingBlock: BETDIP_clean_linker_0, # of connection points: 3
#     Node 4, Type 0, BuildingBlock: BETDIP_clean_linker_0, # of connection points: 3
#     Node 5, Type 0, BuildingBlock: BETDIP_clean_linker_0, # of connection points: 3
#     Node 6, Type 0, BuildingBlock: BETDIP_clean_linker_0, # of connection points: 3
#     Node 7, Type 0, BuildingBlock: BETDIP_clean_linker_0, # of connection points: 3
#     Node 8, Type 1, BuildingBlock: JUFBIX_clean_sbu_0, # of connection points: 6
#     Node 9, Type 1, BuildingBlock: JUFBIX_clean_sbu_0, # of connection points: 6
#     Node 10, Type 1, BuildingBlock: JUFBIX_clean_sbu_0, # of connection points: 6
#     Node 11, Type 1, BuildingBlock: JUFBIX_clean_sbu_0, # of connection points: 6
#     Edge 12, Type (0, 1), BuildingBlock: AJUNOK_clean_linker_0, # of connection points: 2
#     Edge 13, Type (0, 1), BuildingBlock: AJUNOK_clean_linker_0, # of connection points: 2
#     Edge 14, Type (0, 1), BuildingBlock: AJUNOK_clean_linker_0, # of connection points: 2
#     Edge 15, Type (0, 1), BuildingBlock: AJUNOK_clean_linker_0, # of connection points: 2
#     Edge 16, Type (0, 1), BuildingBlock: AJUNOK_clean_linker_0, # of connection points: 2
#     Edge 17, Type (0, 1), BuildingBlock: AJUNOK_clean_linker_0, # of connection points: 2
#     Edge 18, Type (0, 1), BuildingBlock: AJUNOK_clean_linker_0, # of connection points: 2
#     Edge 19, Type (0, 1), BuildingBlock: AJUNOK_clean_linker_0, # of connection points: 2
#     Edge 20, Type (0, 1), BuildingBlock: AJUNOK_clean_linker_0, # of connection points: 2
#     Edge 21, Type (0, 1), BuildingBlock: AJUNOK_clean_linker_0, # of connection points: 2
#     Edge 22, Type (0, 1), BuildingBlock: AJUNOK_clean_linker_0, # of connection points: 2
#     Edge 23, Type (0, 1), BuildingBlock: AJUNOK_clean_linker_0, # of connection points: 2
#     Edge 24, Type (0, 1), BuildingBlock: AJUNOK_clean_linker_0, # of connection points: 2
#     Edge 25, Type (0, 1), BuildingBlock: AJUNOK_clean_linker_0, # of connection points: 2
#     Edge 26, Type (0, 1), BuildingBlock: AJUNOK_clean_linker_0, # of connection points: 2
#     Edge 27, Type (0, 1), BuildingBlock: AJUNOK_clean_linker_0, # of connection points: 2
#     Edge 28, Type (0, 1), BuildingBlock: AJUNOK_clean_linker_0, # of connection points: 2
#     Edge 29, Type (0, 1), BuildingBlock: AJUNOK_clean_linker_0, # of connection points: 2
#     Edge 30, Type (0, 1), BuildingBlock: AJUNOK_clean_linker_0, # of connection points: 2
#     Edge 31, Type (0, 1), BuildingBlock: AJUNOK_clean_linker_0, # of connection points: 2
#     Edge 32, Type (0, 1), BuildingBlock: AJUNOK_clean_linker_0, # of connection points: 2
#     Edge 33, Type (0, 1), BuildingBlock: AJUNOK_clean_linker_0, # of connection points: 2
#     Edge 34, Type (0, 1), BuildingBlock: AJUNOK_clean_linker_0, # of connection points: 2
#     Edge 35, Type (0, 1), BuildingBlock: AJUNOK_clean_linker_0, # of connection points: 2
# Relax obj value: 0.217
# Max RMSD: 0.207
# Mean RMSD: 0.130
data_MOF--net-pyr--node1-JUFBIX_clean_sbu_0--node2-BETDIP_clean_linker_0--edge1-AJUNOK_clean_linker_0
_symmetry_space_group_name_H-M    P1
_symmetry_Int_Tables_number       1
_symmetry_cell_setting            triclinic
loop_
_symmetry_equiv_pos_as_xyz
'x, y, z'
_cell_length_a     26.75612
_cell_length_b     24.642366
_cell_length_c     27.441165
_cell_angle_alpha  84.814293
_cell_angle_beta   83.68212
_cell_angle_gamma 97.23607
loop_
_atom_site_label
_atom_site_type_symbol
_atom_site_fract_x
_atom_site_fract_y
_atom_site_fract_z
_atom_type_partial_charge
H0 H 0.15167 0.17218 0.28365 0.0
H1 H 0.26411 0.18245 0.1583 0.0
H2 H 0.268 0.06584 0.28465 0.0
H3 H 0.21207 0.23146 0.11951 0.0
C4 C 0.18547 0.2461 0.14637 0.0
C5 C 0.18472 0.15735 0.26571 0.0
C6 C 0.20662 0.1157 0.29058 0.0
C7 C 0.20416 0.1808 0.21811 0.0
C8 C 0.24772 0.16311 0.19442 0.0
C9 C 0.2714 0.12137 0.21773 0.0
C10 C 0.25075 0.09824 0.26641 0.0
N11 N 0.17863 0.22264 0.19643 0.0
H12 H 0.47955 0.997 0.67235 0.0
H13 H 0.49075 0.87019 0.5765 0.0
H14 H 0.51234 0.83817 0.72926 0.0
H15 H 0.42527 0.91658 0.54026 0.0
C16 C 0.42306 0.95223 0.56059 0.0
C17 C 0.4868 0.95553 0.66694 0.0
C18 C 0.49506 0.91955 0.70701 0.0
C19 C 0.48355 0.93738 0.6206 0.0
C20 C 0.49327 0.88414 0.6126 0.0
C21 C 0.50511 0.84847 0.65128 0.0
C22 C 0.50535 0.86618 0.69876 0.0
N23 N 0.46532 0.9716 0.58425 0.0
H24 H 0.79167 0.46056 0.88432 0.0
H25 H 0.65553 0.34541 0.89142 0.0
H26 H 0.76168 0.32117 0.99524 0.0
H27 H 0.67231 0.3619 0.80892 0.0
C28 C 0.68006 0.40652 0.80438 0.0
C29 C 0.76749 0.42363 0.9014 0.0
C30 C 0.78131 0.39381 0.94314 0.0
C31 C 0.72327 0.40497 0.88085 0.0
C32 C 0.69162 0.35775 0.9043 0.0
C33 C 0.70545 0.3263 0.94468 0.0
C34 C 0.75043 0.34488 0.96406 0.0
N35 N 0.71085 0.43352 0.83684 0.0
H36 H 0.95567 0.55183 0.47889 0.0
H37 H 0.08005 0.67601 0.49151 0.0
H38 H 0.92797 0.69712 0.54696 0.0
H39 H 0.10676 0.6384 0.4087 0.0
C40 C 0.07828 0.60251 0.41048 0.0
C41 C 0.96969 0.58935 0.49365 0.0
C42 C 0.9355 0.62208 0.51419 0.0
C43 C 1.02182 0.60822 0.48614 0.0
C44 C 0.04018 0.65981 0.50024 0.0
C45 C 1.00618 0.69183 0.5225 0.0
C46 C 0.95436 0.67162 0.53104 0.0
N47 N 0.05376 0.57872 0.45731 0.0
H48 H 0.80669 0.8596 0.98681 0.0
H49 H 0.9244 0.86582 0.86639 0.0
H50 H 0.81331 0.97725 0.85851 0.0
H51 H 0.96879 0.84044 0.92724 0.0
C52 C 0.94201 0.80924 0.95029 0.0
C53 C 0.82477 0.87828 0.9509 0.0
C54 C 0.80396 0.92114 0.92578 0.0
C55 C 0.86907 0.85938 0.93069 0.0
C56 C 0.89186 0.88211 0.88346 0.0
C57 C 0.87304 0.92518 0.85713 0.0
C58 C 0.8282 0.94397 0.87821 0.0
N59 N 0.88989 0.81728 0.95822 0.0
H60 H 0.6096 0.08424 0.44307 0.0
H61 H 0.60753 0.20586 0.54539 0.0
H62 H 0.54813 0.23421 0.40727 0.0
H63 H 0.67893 0.17265 0.56382 0.0
C64 C 0.67996 0.13215 0.55152 0.0
C65 C 0.59822 0.12275 0.45345 0.0
C66 C 0.57665 0.15641 0.41998 0.0
C67 C 0.61087 0.1408 0.49782 0.0
C68 C 0.5985 0.19172 0.51076 0.0
C69 C 0.57473 0.22507 0.4788 0.0
C70 C 0.56413 0.20747 0.43313 0.0
N71 N 0.64076 0.10917 0.52557 0.0
H72 H 0.29815 0.57794 0.23585 0.0
H73 H 0.41707 0.70839 0.24757 0.0
H74 H 0.33346 0.71545 0.12285 0.0
H75 H 0.45356 0.62878 0.27307 0.0
C76 C 0.42283 0.61353 0.3023 0.0
C77 C 0.32061 0.61666 0.22069 0.0
C78 C 0.31046 0.64378 0.17571 0.0
C79 C 0.36055 0.63867 0.2457 0.0
C80 C 0.38903 0.68941 0.22652 0.0
C81 C 0.38075 0.71677 0.1816 0.0
C82 C 0.3411 0.69374 0.15672 0.0
N83 N 0.37196 0.61022 0.29018 0.0
H84 H 0.99926 0.37264 0.63905 0.0
H85 H 0.12326 0.4981 0.6529 0.0
H86 H 0.15264 0.33477 0.63204 0.0
H87 H 1.01985 0.5641 0.66357 0.0
C88 C 1.03025 0.52544 0.67869 0.0
C89 C 0.03943 0.3852 0.63979 0.0
C90 C 0.07387 0.34668 0.63496 0.0
C91 C 0.05682 0.4398 0.64728 0.0
C92 C 0.109 0.45598 0.64833 0.0
C93 C 0.14305 0.41771 0.6438 0.0
C94 C 0.12552 0.36372 0.63664 0.0
N95 N 1.02173 0.47829 0.65269 0.0
Co96 Co 1.00927 0.02325 0.55947 0.0
C97 C 0.04022 0.91995 0.56011 0.0
Co98 Co 0.07975 0.01698 0.59264 0.0
C99 C 0.90999 0.05107 0.55225 0.0
C100 C 0.93456 1.00765 0.49184 0.0
N101 N 0.94931 0.02733 0.53302 0.0
N102 N 0.87129 0.04743 0.52467 0.0
C103 C 0.88638 0.01978 0.48671 0.0
H104 H 0.90949 0.06977 0.58647 0.0
H105 H 0.9573 0.98586 0.46728 0.0
C106 C 0.04805 0.12014 0.59237 0.0
N107 N 0.14028 0.01319 0.61881 0.0
C108 C 0.18223 0.99654 0.59624 0.0
C109 C 0.15374 0.02915 0.66179 0.0
N110 N 0.22169 1.00223 0.62285 0.0
C111 C 0.20378 0.02229 0.66446 0.0
C112 C 0.09594 0.04761 0.48947 0.0
O113 O 1.01261 0.09821 0.5705 0.0
O114 O 0.08216 0.0919 0.60474 0.0
O115 O 0.11772 0.03874 0.5278 0.0
O116 O 0.04763 0.04371 0.49482 0.0
O117 O 0.07676 0.94179 0.58079 0.0
H118 H 0.12908 0.04559 0.68898 0.0
H119 H 0.18428 0.98199 0.56011 0.0
O120 O 1.00618 0.94858 0.54849 0.0
O121 O 0.97108 1.00249 0.62427 0.0
O122 O 0.04115 0.99562 0.65707 0.0
C123 C 0.99287 0.99281 0.66251 0.0
H124 H 0.86437 0.00963 0.45716 0.0
H125 H 0.22509 0.03123 0.69476 0.0
Co126 Co 0.51949 0.02111 1.03428 0.0
C127 C 0.49882 0.92917 0.10532 0.0
Co128 Co 0.55614 0.03026 0.10197 0.0
C129 C 0.50643 1.00486 0.93213 0.0
C130 C 0.43659 0.99159 0.98045 0.0
N131 N 0.48673 1.00832 0.97916 0.0
N132 N 0.47044 0.98672 0.9042 0.0
C133 C 0.42652 0.97827 0.9347 0.0
H134 H 0.54656 0.01362 0.91901 0.0
H135 H 0.4094 0.98611 1.0133 0.0
C136 C 0.57742 0.12206 1.03013 0.0
N137 N 0.58817 0.04377 0.15764 0.0
C138 C 0.5666 0.0528 0.20267 0.0
C139 C 0.63822 0.06039 0.15767 0.0
N140 N 0.60092 0.07589 0.22984 0.0
C141 C 0.64613 0.08004 0.20194 0.0
C142 C 0.61796 0.98959 1.027 0.0
O143 O 0.5489 0.09284 1.00548 0.0
O144 O 0.58343 0.10319 0.07348 0.0
O145 O 0.61585 1.00339 0.07084 0.0
O146 O 0.57891 0.99231 1.00458 0.0
O147 O 0.5287 0.9569 0.12988 0.0
H148 H 0.66671 0.06235 0.12618 0.0
H149 H 0.52611 0.04673 0.2141 0.0
O150 O 0.49057 0.94975 0.06335 0.0
O151 O 0.46025 0.05012 0.06488 0.0
O152 O 0.49607 0.05661 0.13206 0.0
C153 C 0.45757 0.06131 0.1095 0.0
H154 H 0.39011 0.96042 0.92557 0.0
H155 H 0.682 0.09846 0.2119 0.0
Co156 Co 0.57652 0.55053 0.55034 0.0
C157 C 0.49526 0.56033 0.4931 0.0
Co158 Co 0.50094 0.51846 0.58878 0.0
C159 C 0.68483 0.56385 0.52372 0.0
C160 C 0.64846 0.6118 0.47294 0.0
N161 N 0.63884 0.57571 0.51392 0.0
N162 N 0.7227 0.59121 0.49074 0.0
C163 C 0.69986 0.62131 0.4586 0.0
H164 H 0.69071 0.5379 0.5559 0.0
H165 H 0.62026 0.63155 0.4554 0.0
C166 C 0.58224 0.50615 0.64511 0.0
N167 N 0.43946 0.4945 0.62654 0.0
C168 C 0.39389 0.47749 0.61244 0.0
C169 C 0.43018 0.49662 0.6757 0.0
N170 N 0.35691 0.46874 0.65094 0.0
C171 C 0.3795 0.48066 0.69078 0.0
C172 C 0.54438 0.43959 0.54094 0.0
O173 O 0.60926 0.53314 0.60776 0.0
O174 O 0.5348 0.49545 0.64372 0.0
O175 O 0.50346 0.44794 0.56573 0.0
O176 O 0.58114 0.47862 0.53152 0.0
O177 O 0.46735 0.54066 0.53288 0.0
H178 H 0.45801 0.51131 0.6989 0.0
H179 H 0.38763 0.47292 0.57464 0.0
O180 O 0.54314 0.56713 0.49346 0.0
O181 O 0.57177 0.62245 0.56925 0.0
O182 O 0.49864 0.58908 0.6116 0.0
C183 C 0.53323 0.62954 0.59821 0.0
H184 H 0.71906 0.64968 0.42787 0.0
H185 H 0.36032 0.48055 0.72766 0.0
Co186 Co 0.07045 0.51899 1.01564 0.0
C187 C 0.96614 0.4713 1.02679 0.0
Co188 Co 1.02761 0.51886 0.08919 0.0
C189 C 0.07391 0.52092 0.91076 0.0
C190 C 0.14881 0.52331 0.93152 0.0
N191 N 0.09969 0.5209 0.95045 0.0
N192 N 0.10456 0.5227 0.86823 0.0
C193 C 0.15193 0.52476 0.88073 0.0
H194 H 1.03323 0.52032 0.91262 0.0
H195 H 0.18029 0.52382 0.95313 0.0
C196 C 0.13194 0.56509 0.07977 0.0
N197 N 0.99872 0.51698 0.15409 0.0
C198 C 1.01168 0.55414 0.18536 0.0
C199 C 0.97488 0.47238 0.18324 0.0
N200 N 0.99984 0.53365 0.23336 0.0
C201 C 0.97563 0.48234 0.23166 0.0
C202 C 0.07951 0.42658 0.07582 0.0
O203 O 0.1328 0.55614 1.03465 0.0
O204 O 0.09009 0.55311 0.10759 0.0
O205 O 0.04951 0.44855 0.10495 0.0
O206 O 0.09325 0.45033 1.03243 0.0
O207 O 0.96519 0.48445 0.07061 0.0
H208 H 0.96266 0.43322 0.17036 0.0
H209 H 1.03239 0.59407 0.17225 0.0
O210 O 1.00788 0.48102 0.99841 0.0
O211 O 0.04775 0.58821 0.99919 0.0
O212 O 1.0064 0.58907 0.07263 0.0
C213 C 1.01981 0.61185 1.02882 0.0
H214 H 0.186 0.52621 0.85515 0.0
H215 H 0.96338 0.45178 0.26292 0.0
C216 C 0.12753 0.07885 0.34917 0.0
C217 C 0.181 0.09151 0.34114 0.0
C218 C 0.10088 0.06442 0.39671 0.0
C219 C 0.12614 0.06142 0.43909 0.0
H220 H 0.1057 0.08128 0.31824 0.0
H221 H 0.05984 0.05611 0.40014 0.0
S222 S 0.26623 0.08747 0.43899 0.0
N223 N 0.25836 0.09805 0.38017 0.0
N224 N 0.20875 0.06999 0.46928 0.0
C225 C 0.17984 0.0719 0.43162 0.0
C226 C 0.20705 0.08692 0.38291 0.0
C227 C 0.52552 0.93041 0.78979 0.0
C228 C 0.48871 0.937 0.75763 0.0
C229 C 0.52013 0.94809 0.8372 0.0
C230 C 0.47753 0.97251 0.85424 0.0
H231 H 0.55885 0.91186 0.7781 0.0
H232 H 0.54891 0.94149 0.86107 0.0
S233 S 0.37051 0.99923 0.7843 0.0
N234 N 0.40777 0.96887 0.74665 0.0
N235 N 0.3988 1.00372 0.83456 0.0
C236 C 0.44076 0.97964 0.82224 0.0
C237 C 0.44604 0.96147 0.7743 0.0
C238 C 0.67639 0.48491 0.73869 0.0
C239 C 0.65377 0.4357 0.76698 0.0
C240 C 0.65305 0.508 0.69946 0.0
C241 C 0.60568 0.48347 0.68813 0.0
H242 H 0.71311 0.50449 0.74564 0.0
H243 H 0.67236 0.54508 0.67769 0.0
S244 S 0.53021 0.35536 0.75305 0.0
N245 N 0.58132 0.3639 0.78165 0.0
N246 N 0.53686 0.40773 0.70982 0.0
C247 C 0.58223 0.4352 0.71742 0.0
C248 C 0.60643 0.41124 0.75629 0.0
C249 C 1.01579 0.54579 0.36707 0.0
C250 C 0.0577 0.58688 0.36484 0.0
C251 C 0.99594 0.53094 0.32427 0.0
C252 C 1.01761 0.55552 0.27694 0.0
H253 H 0.99805 0.52447 0.4021 0.0
H254 H 0.96343 0.4993 0.32867 0.0
S255 S 0.12664 0.66892 0.25229 0.0
N256 N 0.11867 0.65458 0.31272 0.0
N257 N 0.08286 0.62646 0.23193 0.0
C258 C 0.05899 0.59815 0.27459 0.0
C259 C 0.07874 0.61357 0.31854 0.0
C260 C 0.36246 0.09987 0.21269 0.0
C261 C 0.3177 0.10307 0.19047 0.0
C262 C 0.40723 0.08712 0.18624 0.0
C263 C 0.40958 0.07659 0.13621 0.0
H264 H 0.3633 0.10852 0.25062 0.0
H265 H 0.44041 0.08566 0.20538 0.0
S266 S 0.30163 0.07554 0.06167 0.0
N267 N 0.27802 0.09144 0.11586 0.0
N268 N 0.3614 0.06815 0.06652 0.0
C269 C 0.36469 0.07863 0.11391 0.0
C270 C 0.31918 0.09162 0.14082 0.0
C271 C 0.32881 0.93541 0.56434 0.0
C272 C 0.37219 0.96768 0.5759 0.0
C273 C 0.27991 0.94674 0.5801 0.0
C274 C 0.27244 0.9908 0.6081 0.0
H275 H 0.33264 0.90057 0.54345 0.0
H276 H 0.24763 0.9203 0.57083 0.0
S277 S 0.37357 0.09062 0.64502 0.0
N278 N 0.40459 0.04747 0.61509 0.0
N279 N 0.31275 0.06885 0.64432 0.0
C280 C 0.31553 0.02404 0.61925 0.0
C281 C 0.36539 0.01254 0.60316 0.0
C282 C 0.82971 0.45505 0.9957 0.0
C283 C 0.82864 0.41275 0.96446 0.0
C284 C 0.87378 0.47246 1.01713 0.0
C285 C 0.91873 0.44896 1.0073 0.0
H286 H 0.79614 0.47464 1.00377 0.0
H287 H 0.87305 0.50557 1.04052 0.0
S288 S 0.93461 0.33471 0.93031 0.0
N289 N 0.87541 0.3459 0.92694 0.0
N290 N 0.95858 0.37984 0.96548 0.0
C291 C 0.91792 0.40644 0.97634 0.0
C292 C 0.8728 0.38798 0.95544 0.0
C293 C 0.85769 0.65459 0.48756 0.0
C294 C 0.88084 0.61147 0.50861 0.0
C295 C 0.80649 0.64717 0.48102 0.0
C296 C 0.7762 0.59614 0.49479 0.0
H297 H 0.87941 0.6947 0.47583 0.0
H298 H 0.79032 0.68223 0.46608 0.0
S299 S 0.8192 0.46873 0.5483 0.0
N300 N 0.87025 0.51531 0.54168 0.0
N301 N 0.77366 0.5006 0.52781 0.0
C302 C 0.79904 0.55203 0.51464 0.0
C303 C 0.85147 0.55979 0.52169 0.0
C304 C 0.16465 0.3133 0.07999 0.0
C305 C 0.15547 0.28998 0.12942 0.0
C306 C 0.13876 0.35599 0.0626 0.0
C307 C 0.10233 0.37728 0.09389 0.0
H308 H 0.19276 0.29898 0.05454 0.0
H309 H 0.14827 0.37315 1.02446 0.0
S310 S 0.06207 0.32875 0.22634 0.0
N311 N 0.10566 0.29019 0.2092 0.0
N312 N 0.05717 0.36991 0.17674 0.0
C313 C 0.09179 0.35329 0.14323 0.0
C314 C 0.11828 0.30988 0.16095 0.0
C315 C 0.66018 0.2617 1.01725 0.0
C316 C 0.67264 0.27391 0.9659 0.0
C317 C 0.62844 0.21323 1.03763 0.0
C318 C 0.60742 0.17515 1.00752 0.0
H319 H 0.67471 0.29004 1.04195 0.0
H320 H 0.62038 0.20554 0.0774 0.0
S321 S 0.6313 0.18545 0.87093 0.0
N322 N 0.66387 0.24184 0.88553 0.0
N323 N 0.60329 0.15204 0.92365 0.0
C324 C 0.61972 0.18675 0.95613 0.0
C325 C 0.65253 0.23567 0.93542 0.0
C326 C 0.99682 0.79 0.50484 0.0
C327 C 1.02159 0.75023 0.52877 0.0
C328 C 1.00417 0.84476 0.51462 0.0
C329 C 1.0369 0.86222 0.54855 0.0
H330 H 0.97031 0.77827 0.47923 0.0
H331 H 0.98327 0.87343 0.49585 0.0
S332 S 0.11369 0.77454 0.61834 0.0
N333 N 0.08206 0.73184 0.58581 0.0
N334 N 0.0968 0.8357 0.6041 0.0
C335 C 0.06393 0.82334 0.57107 0.0
C336 C 0.05611 0.7671 0.56114 0.0
C337 C 0.55142 0.7846 0.60302 0.0
C338 C 0.51458 0.79201 0.64167 0.0
C339 C 0.55817 0.7319 0.59017 0.0
C340 C 0.52775 0.68452 0.61495 0.0
H341 H 0.57483 0.81997 0.58214 0.0
H342 H 0.58658 0.7285 0.55968 0.0
S343 S 0.42637 0.68186 0.71963 0.0
N344 N 0.44797 0.7478 0.70526 0.0
N345 N 0.46016 0.64875 0.6812 0.0
C346 C 0.4913 0.69142 0.65433 0.0
C347 C 0.48488 0.74511 0.6677 0.0
C348 C 0.87946 0.9519 0.76446 0.0
C349 C 0.90242 0.94965 0.80828 0.0
C350 C 0.90868 0.9665 0.71775 0.0
C351 C 0.96222 0.97925 0.71268 0.0
H352 H 0.83885 0.94028 0.76608 0.0
H353 H 0.88912 0.9665 0.68523 0.0
S354 S 0.04016 0.98568 0.81659 0.0
N355 N 0.9816 0.96642 0.84363 0.0
N356 N 1.036 0.9927 0.75685 0.0
C357 C 0.98521 0.97923 0.75651 0.0
C358 C 0.95554 0.96483 0.80384 0.0
C359 C 0.55191 0.08794 0.36161 0.0
C360 C 0.57514 0.14058 0.36918 0.0
C361 C 0.55893 0.06773 0.31543 0.0
C362 C 0.59039 0.09894 0.27566 0.0
H363 H 0.52964 0.06151 0.39212 0.0
H364 H 0.54154 0.02655 0.3113 0.0
S365 S 0.65656 0.24061 0.2751 0.0
N366 N 0.62825 0.22461 0.33209 0.0
N367 N 0.6415 0.18655 0.24553 0.0
C368 C 0.61202 0.15242 0.28215 0.0
C369 C 0.60431 0.17328 0.32885 0.0
C370 C 0.48959 0.60612 0.35766 0.0
C371 C 0.43755 0.59865 0.35235 0.0
C372 C 0.50721 0.59408 0.4031 0.0
C373 C 0.47372 0.57382 0.44596 0.0
H374 H 0.51739 0.62162 0.32612 0.0
H375 H 0.54782 0.60063 0.40431 0.0
S376 S 0.33312 0.5468 0.45258 0.0
N377 N 0.35215 0.56974 0.39416 0.0
N378 N 0.38515 0.54682 0.47993 0.0
C379 C 0.42125 0.56613 0.44142 0.0
C380 C 0.4032 0.57857 0.39466 0.0
C381 C 0.08615 0.56607 0.73732 0.0
C382 C 0.05081 0.52272 0.7268 0.0
C383 C 0.10542 0.56488 0.78302 0.0
C384 C 0.08867 0.52111 0.81999 0.0
H385 H 0.09911 0.60094 0.70995 0.0
H386 H 0.13229 0.59904 0.79017 0.0
S387 S 0.99603 0.39851 0.81123 0.0
N388 N 1.00007 0.43492 0.75706 0.0
N389 N 1.03502 0.43372 0.84333 0.0
C390 C 0.05334 0.47774 0.80993 0.0
C391 C 1.0347 0.47827 0.76319 0.0
C392 C 0.71408 0.94626 0.92697 0.0
C393 C 0.75776 0.94191 0.95077 0.0
C394 C 0.66926 0.96115 0.95175 0.0
C395 C 0.66593 0.97281 1.00151 0.0
H396 H 0.71408 0.93681 0.88919 0.0
H397 H 0.63685 0.96338 0.93159 0.0
S398 S 0.77109 0.97163 0.07951 0.0
N399 N 0.79546 0.95381 1.02636 0.0
N400 N 0.71219 0.98101 0.07257 0.0
C401 C 0.70987 0.96976 1.02524 0.0
C402 C 0.75531 0.9546 1.00007 0.0
C403 C 0.73189 0.05742 0.53134 0.0
C404 C 0.72845 0.10881 0.54916 0.0
C405 C 0.77861 0.0375 0.52382 0.0
C406 C 0.82353 0.06801 0.5341 0.0
H407 H 0.69847 0.03264 0.52228 0.0
H408 H 0.77964 0.99792 0.50982 0.0
S409 S 0.83506 0.20499 0.58117 0.0
N410 N 0.77383 0.18954 0.5773 0.0
N411 N 0.86177 0.15232 0.56267 0.0
C412 C 0.82051 0.11898 0.55276 0.0
C413 C 0.77292 0.13926 0.56046 0.0
C414 C 0.21918 0.60158 0.17702 0.0
C415 C 0.26657 0.62167 0.14971 0.0
C416 C 0.17659 0.58379 0.15386 0.0
C417 C 0.17882 0.5853 0.10207 0.0
H418 H 0.21455 0.6004 0.21682 0.0
H419 H 0.14148 0.56821 0.17713 0.0
S420 S 0.29496 0.62906 1.01324 0.0
N421 N 0.31405 0.63782 0.06757 0.0
N422 N 0.23376 0.60561 1.02428 0.0
C423 C 0.22625 0.60389 0.07419 0.0
C424 C 0.26995 0.62185 0.09785 0.0
C425 C 0.2273 0.47153 0.61195 0.0
C426 C 0.19727 0.4329 0.64751 0.0
C427 C 0.27986 0.48246 0.61269 0.0
C428 C 0.30349 0.45562 0.64942 0.0
H429 H 0.21021 0.49242 0.58292 0.0
H430 H 0.30211 0.51249 0.58485 0.0
S431 S 0.24108 0.35128 0.75062 0.0
N432 N 0.19434 0.36801 0.72021 0.0
N433 N 0.29319 0.38884 0.72173 0.0
C434 C 0.27366 0.41738 0.68533 0.0
C435 C 0.22044 0.40593 0.68433 0.0
C436 C 0.93404 0.72333 1.01076 0.0
C437 C 0.96181 0.75949 0.97162 0.0
C438 C 0.9537 0.67663 1.0304 0.0
C439 C 1.00137 0.66386 1.01098 0.0
H440 H 0.89701 0.73114 1.02642 0.0
H441 H 0.9308 0.64957 0.0601 0.0
S442 S 0.08929 0.74607 0.90911 0.0
N443 N 0.03992 0.77997 0.91517 0.0
N444 N 0.07604 0.69221 0.951 0.0
C445 C 1.02944 0.7 0.9721 0.0
C446 C 1.00989 0.74775 0.95276 0.0
C447 C 0.38949 0.81381 0.14059 0.0
C448 C 0.41239 0.77048 0.1618 0.0
C449 C 0.41796 0.86482 0.12256 0.0
C450 C 0.47028 0.87522 0.12605 0.0
H451 H 0.34904 0.80869 0.13837 0.0
H452 H 0.39864 0.89678 0.10635 0.0
S453 S 0.54991 0.77569 0.17474 0.0
N454 N 0.49217 0.74097 0.18162 0.0
N455 N 0.54454 0.83816 0.15039 0.0
C456 C 0.4939 0.83282 0.14706 0.0
C457 C 0.46527 0.7802 0.16427 0.0
C458 C 0.07828 0.24732 0.6566 0.0
C459 C 0.05808 0.28812 0.62858 0.0
C460 C 0.07416 0.19311 0.64488 0.0
C461 C 0.04874 0.17714 0.60528 0.0
H462 H 0.09944 0.25796 0.68667 0.0
H463 H 0.09173 0.16367 0.66669 0.0
S464 S 0.98409 0.26662 0.52375 0.0
N465 N 1.00872 0.30814 0.56155 0.0
N466 N 0.99907 0.20523 0.54056 0.0
C467 C 1.02522 0.21652 0.57901 0.0
C468 C 1.03018 0.27224 0.59052 0.0
C469 C 0.60682 0.31895 0.49871 0.0
C470 C 0.56551 0.28031 0.49196 0.0
C471 C 0.59946 0.37045 0.51391 0.0
C472 C 0.55038 0.38498 0.52392 0.0
H473 H 0.6452 0.30913 0.49234 0.0
H474 H 0.63256 0.39869 0.51875 0.0
S475 S 0.42959 0.29808 0.51135 0.0
N476 N 0.47401 0.25988 0.49548 0.0
N477 N 0.45975 0.3564 0.52509 0.0
C478 C 0.50868 0.34663 0.51711 0.0
C479 C 0.51635 0.29442 0.50078 0.0
loop_
_geom_bond_atom_site_label_1
_geom_bond_atom_site_label_2
_geom_bond_distance
_geom_bond_site_symmetry_2
_ccdc_geom_bond_type
H0 C5 0.930 . S
H1 C8 0.930 . S
H2 C10 0.930 . S
H3 C4 1.016 . S
C4 H3 1.016 . S
C4 N11 1.286 . S
C5 H0 0.930 . S
C5 C6 1.397 . S
C5 C7 1.361 . S
C6 C5 1.397 . S
C6 C10 1.390 . S
C7 C5 1.361 . S
C7 C8 1.393 . S
C7 N11 1.413 . S
C8 H1 0.930 . S
C8 C7 1.393 . S
C8 C9 1.399 . S
C9 C8 1.399 . S
C9 C10 1.381 . S
C10 H2 0.930 . S
C10 C6 1.390 . S
C10 C9 1.381 . S
N11 C4 1.286 . S
N11 C7 1.413 . S
H12 C17 0.930 . S
H13 C20 0.930 . S
H14 C22 0.930 . S
H15 C16 1.016 . S
C16 H15 1.016 . S
C16 N23 1.286 . S
C17 H12 0.930 . S
C17 C18 1.397 . S
C17 C19 1.361 . S
C18 C17 1.397 . S
C18 C22 1.390 . S
C19 C17 1.361 . S
C19 C20 1.393 . S
C19 N23 1.413 . S
C20 H13 0.930 . S
C20 C19 1.393 . S
C20 C21 1.399 . S
C21 C20 1.399 . S
C21 C22 1.381 . S
C22 H14 0.930 . S
C22 C18 1.390 . S
C22 C21 1.381 . S
N23 C16 1.286 . S
N23 C19 1.413 . S
H24 C29 0.930 . S
H25 C32 0.930 . S
H26 C34 0.930 . S
H27 C28 1.016 . S
C28 H27 1.016 . S
C28 N35 1.286 . S
C29 H24 0.930 . S
C29 C30 1.397 . S
C29 C31 1.361 . S
C30 C29 1.397 . S
C30 C34 1.390 . S
C31 C29 1.361 . S
C31 C32 1.393 . S
C31 N35 1.413 . S
C32 H25 0.930 . S
C32 C31 1.393 . S
C32 C33 1.399 . S
C33 C32 1.399 . S
C33 C34 1.381 . S
C34 H26 0.930 . S
C34 C30 1.390 . S
C34 C33 1.381 . S
N35 C28 1.286 . S
N35 C31 1.413 . S
H36 C41 0.930 . S
H37 C44 0.930 . S
H38 C46 0.930 . S
H39 C40 1.016 . S
C40 H39 1.016 . S
C40 N47 1.286 . S
C41 H36 0.930 . S
C41 C42 1.397 . S
C41 C43 1.361 . S
C42 C41 1.397 . S
C42 C46 1.390 . S
C43 C41 1.361 . S
C43 C44 1.393 . S
C43 N47 1.413 . S
C44 H37 0.930 . S
C44 C43 1.393 . S
C44 C45 1.399 . S
C45 C44 1.399 . S
C45 C46 1.381 . S
C46 H38 0.930 . S
C46 C42 1.390 . S
C46 C45 1.381 . S
N47 C40 1.286 . S
N47 C43 1.413 . S
H48 C53 0.930 . S
H49 C56 0.930 . S
H50 C58 0.930 . S
H51 C52 1.016 . S
C52 H51 1.016 . S
C52 N59 1.286 . S
C53 H48 0.930 . S
C53 C54 1.397 . S
C53 C55 1.361 . S
C54 C53 1.397 . S
C54 C58 1.390 . S
C55 C53 1.361 . S
C55 C56 1.393 . S
C55 N59 1.413 . S
C56 H49 0.930 . S
C56 C55 1.393 . S
C56 C57 1.399 . S
C57 C56 1.399 . S
C57 C58 1.381 . S
C58 H50 0.930 . S
C58 C54 1.390 . S
C58 C57 1.381 . S
N59 C52 1.286 . S
N59 C55 1.413 . S
H60 C65 0.930 . S
H61 C68 0.930 . S
H62 C70 0.930 . S
H63 C64 1.016 . S
C64 H63 1.016 . S
C64 N71 1.286 . S
C65 H60 0.930 . S
C65 C66 1.397 . S
C65 C67 1.361 . S
C66 C65 1.397 . S
C66 C70 1.390 . S
C67 C65 1.361 . S
C67 C68 1.393 . S
C67 N71 1.413 . S
C68 H61 0.930 . S
C68 C67 1.393 . S
C68 C69 1.399 . S
C69 C68 1.399 . S
C69 C70 1.381 . S
C70 H62 0.930 . S
C70 C66 1.390 . S
C70 C69 1.381 . S
N71 C64 1.286 . S
N71 C67 1.413 . S
H72 C77 0.930 . S
H73 C80 0.930 . S
H74 C82 0.930 . S
H75 C76 1.016 . S
C76 H75 1.016 . S
C76 N83 1.286 . S
C77 H72 0.930 . S
C77 C78 1.397 . S
C77 C79 1.361 . S
C78 C77 1.397 . S
C78 C82 1.390 . S
C79 C77 1.361 . S
C79 C80 1.393 . S
C79 N83 1.413 . S
C80 H73 0.930 . S
C80 C79 1.393 . S
C80 C81 1.399 . S
C81 C80 1.399 . S
C81 C82 1.381 . S
C82 H74 0.930 . S
C82 C78 1.390 . S
C82 C81 1.381 . S
N83 C76 1.286 . S
N83 C79 1.413 . S
H84 C89 0.930 . S
H85 C92 0.930 . S
H86 C94 0.930 . S
H87 C88 1.016 . S
C88 H87 1.016 . S
C88 N95 1.286 . S
C89 H84 0.930 . S
C89 C90 1.397 . S
C89 C91 1.361 . S
C90 C89 1.397 . S
C90 C94 1.390 . S
C91 C89 1.361 . S
C91 C92 1.393 . S
C91 N95 1.413 . S
C92 H85 0.930 . S
C92 C91 1.393 . S
C92 C93 1.399 . S
C93 C92 1.399 . S
C93 C94 1.381 . S
C94 H86 0.930 . S
C94 C90 1.390 . S
C94 C93 1.381 . S
N95 C88 1.286 . S
N95 C91 1.413 . S
Co96 N101 2.057 . S
Co96 O113 2.021 . S
Co96 O116 2.062 . S
Co96 O120 2.117 1_545 S
Co96 O121 2.020 1_545 S
C97 O117 1.259 1_655 S
C97 O120 1.258 . S
Co98 N107 2.057 . S
Co98 O114 2.117 1_565 S
Co98 O115 2.020 1_565 S
Co98 O117 2.021 . S
Co98 O122 2.062 . S
C99 N101 1.316 . S
C99 N102 1.347 . S
C99 H104 0.931 . S
C100 N101 1.375 1_565 S
C100 C103 1.350 1_565 S
C100 H105 0.930 . S
N101 Co96 2.057 . S
N101 C99 1.316 . S
N101 C100 1.375 1_545 S
N102 C99 1.347 . S
N102 C103 1.373 . S
C103 C100 1.350 1_545 S
C103 N102 1.373 . S
C103 H124 0.931 1_545 S
H104 C99 0.931 . S
H105 C100 0.930 . S
C106 O113 1.259 1_455 S
C106 O114 1.258 . S
N107 Co98 2.057 . S
N107 C108 1.316 . S
N107 C109 1.375 1_565 S
C108 N107 1.316 . S
C108 N110 1.347 . S
C108 H119 0.931 . S
C109 N107 1.375 1_545 S
C109 C111 1.350 . S
C109 H118 0.930 . S
N110 C108 1.347 . S
N110 C111 1.373 1_565 S
C111 C109 1.350 . S
C111 N110 1.373 1_545 S
C111 H125 0.931 . S
C112 O115 1.256 . S
C112 O116 1.255 1_455 S
O113 Co96 2.021 . S
O113 C106 1.259 1_655 S
O114 Co98 2.117 1_545 S
O114 C106 1.258 . S
O115 Co98 2.020 1_545 S
O115 C112 1.256 . S
O116 Co96 2.062 . S
O116 C112 1.255 1_655 S
O117 C97 1.259 1_455 S
O117 Co98 2.021 . S
H118 C109 0.930 . S
H119 C108 0.931 . S
O120 Co96 2.117 1_565 S
O120 C97 1.258 . S
O121 Co96 2.020 1_565 S
O121 C123 1.256 . S
O122 Co98 2.062 . S
O122 C123 1.255 1_455 S
C123 O121 1.256 . S
C123 O122 1.255 1_655 S
H124 C103 0.931 1_565 S
H125 C111 0.931 . S
Co126 N131 2.057 1_545 S
Co126 O143 2.021 . S
Co126 O146 2.062 1_545 S
Co126 O150 2.117 1_546 S
Co126 O151 2.020 1_556 S
C127 O147 1.259 . S
C127 O150 1.258 . S
Co128 N137 2.057 . S
Co128 O144 2.117 . S
Co128 O145 2.020 . S
Co128 O147 2.021 1_545 S
Co128 O152 2.062 . S
C129 N131 1.316 . S
C129 N132 1.347 . S
C129 H134 0.931 1_565 S
C130 N131 1.375 . S
C130 C133 1.350 . S
C130 H135 0.930 . S
N131 Co126 2.057 1_565 S
N131 C129 1.316 . S
N131 C130 1.375 . S
N132 C129 1.347 . S
N132 C133 1.373 . S
C133 C130 1.350 . S
C133 N132 1.373 . S
C133 H154 0.931 . S
H134 C129 0.931 1_545 S
H135 C130 0.930 . S
C136 O143 1.259 . S
C136 O144 1.258 1_556 S
N137 Co128 2.057 . S
N137 C138 1.316 . S
N137 C139 1.375 . S
C138 N137 1.316 . S
C138 N140 1.347 . S
C138 H149 0.931 . S
C139 N137 1.375 . S
C139 C141 1.350 . S
C139 H148 0.930 . S
N140 C138 1.347 . S
N140 C141 1.373 . S
C141 C139 1.350 . S
C141 N140 1.373 . S
C141 H155 0.931 . S
C142 O145 1.256 1_566 S
C142 O146 1.255 . S
O143 Co126 2.021 . S
O143 C136 1.259 . S
O144 Co128 2.117 . S
O144 C136 1.258 1_554 S
O145 Co128 2.020 . S
O145 C142 1.256 1_544 S
O146 Co126 2.062 1_565 S
O146 C142 1.255 . S
O147 C127 1.259 . S
O147 Co128 2.021 1_565 S
H148 C139 0.930 . S
H149 C138 0.931 . S
O150 Co126 2.117 1_564 S
O150 C127 1.258 . S
O151 Co126 2.020 1_554 S
O151 C153 1.256 . S
O152 Co128 2.062 . S
O152 C153 1.255 . S
C153 O151 1.256 . S
C153 O152 1.255 . S
H154 C133 0.931 . S
H155 C141 0.931 . S
Co156 N161 2.057 . S
Co156 O173 2.021 . S
Co156 O176 2.062 . S
Co156 O180 2.117 . S
Co156 O181 2.020 . S
C157 O177 1.259 . S
C157 O180 1.258 . S
Co158 N167 2.057 . S
Co158 O174 2.117 . S
Co158 O175 2.020 . S
Co158 O177 2.021 . S
Co158 O182 2.062 . S
C159 N161 1.316 . S
C159 N162 1.347 . S
C159 H164 0.931 . S
C160 N161 1.375 . S
C160 C163 1.350 . S
C160 H165 0.930 . S
N161 Co156 2.057 . S
N161 C159 1.316 . S
N161 C160 1.375 . S
N162 C159 1.347 . S
N162 C163 1.373 . S
C163 C160 1.350 . S
C163 N162 1.373 . S
C163 H184 0.931 . S
H164 C159 0.931 . S
H165 C160 0.930 . S
C166 O173 1.259 . S
C166 O174 1.258 . S
N167 Co158 2.057 . S
N167 C168 1.316 . S
N167 C169 1.375 . S
C168 N167 1.316 . S
C168 N170 1.347 . S
C168 H179 0.931 . S
C169 N167 1.375 . S
C169 C171 1.350 . S
C169 H178 0.930 . S
N170 C168 1.347 . S
N170 C171 1.373 . S
C171 C169 1.350 . S
C171 N170 1.373 . S
C171 H185 0.931 . S
C172 O175 1.256 . S
C172 O176 1.255 . S
O173 Co156 2.021 . S
O173 C166 1.259 . S
O174 Co158 2.117 . S
O174 C166 1.258 . S
O175 Co158 2.020 . S
O175 C172 1.256 . S
O176 Co156 2.062 . S
O176 C172 1.255 . S
O177 C157 1.259 . S
O177 Co158 2.021 . S
H178 C169 0.930 . S
H179 C168 0.931 . S
O180 Co156 2.117 . S
O180 C157 1.258 . S
O181 Co156 2.020 . S
O181 C183 1.256 . S
O182 Co158 2.062 . S
O182 C183 1.255 . S
C183 O181 1.256 . S
C183 O182 1.255 . S
H184 C163 0.931 . S
H185 C171 0.931 . S
Co186 N191 2.057 . S
Co186 O203 2.021 . S
Co186 O206 2.071 . S
Co186 O210 2.117 1_455 S
Co186 O211 2.020 . S
C187 O207 1.259 . S
C187 O210 1.258 1_554 S
Co188 N197 2.057 . S
Co188 O204 2.117 1_655 S
Co188 O205 2.020 1_655 S
Co188 O207 2.021 . S
Co188 O212 2.062 . S
C189 N191 1.316 . S
C189 N192 1.347 . S
C189 H194 0.931 . S
C190 N191 1.375 . S
C190 C193 1.350 . S
C190 H195 0.930 1_455 S
N191 Co186 2.057 . S
N191 C189 1.316 . S
N191 C190 1.375 . S
N192 C189 1.347 . S
N192 C193 1.373 . S
C193 C190 1.350 . S
C193 N192 1.373 . S
C193 H214 0.931 . S
H194 C189 0.931 . S
H195 C190 0.930 1_655 S
C196 O203 1.259 1_554 S
C196 O204 1.258 . S
N197 Co188 2.057 . S
N197 C198 1.316 . S
N197 C199 1.375 1_655 S
C198 N197 1.316 . S
C198 N200 1.347 . S
C198 H209 0.931 . S
C199 N197 1.375 1_455 S
C199 C201 1.350 . S
C199 H208 0.930 . S
N200 C198 1.347 . S
N200 C201 1.373 1_655 S
C201 C199 1.350 . S
C201 N200 1.373 1_455 S
C201 H215 0.931 . S
C202 O205 1.256 . S
C202 O206 1.235 1_554 S
O203 Co186 2.021 . S
O203 C196 1.259 1_556 S
O204 Co188 2.117 1_455 S
O204 C196 1.258 . S
O205 Co188 2.020 1_455 S
O205 C202 1.256 . S
O206 Co186 2.071 . S
O206 C202 1.235 1_556 S
O207 C187 1.259 . S
O207 Co188 2.021 . S
H208 C199 0.930 . S
H209 C198 0.931 . S
O210 Co186 2.117 1_655 S
O210 C187 1.258 1_556 S
O211 Co186 2.020 . S
O211 C213 1.256 1_455 S
O212 Co188 2.062 . S
O212 C213 1.255 1_554 S
C213 O211 1.256 1_655 S
C213 O212 1.255 1_556 S
H214 C193 0.931 . S
H215 C201 0.931 . S
C216 C217 1.369 . S
C216 C218 1.419 . S
C216 H220 0.930 . S
C217 C216 1.369 . S
C217 C226 1.429 . S
C218 C216 1.419 . S
C218 C219 1.363 . S
C218 H221 0.929 . S
C219 C218 1.363 . S
C219 C225 1.428 . S
H220 C216 0.930 . S
H221 C218 0.929 . S
S222 N223 1.613 . S
S222 N224 1.610 . S
N223 S222 1.613 . S
N223 C226 1.350 . S
N224 S222 1.610 . S
N224 C225 1.351 . S
C225 C219 1.428 . S
C225 N224 1.351 . S
C225 C226 1.434 . S
C226 C217 1.429 . S
C226 N223 1.350 . S
C226 C225 1.434 . S
C227 C228 1.369 . S
C227 C229 1.419 . S
C227 H231 0.930 . S
C228 C227 1.369 . S
C228 C237 1.429 . S
C229 C227 1.419 . S
C229 C230 1.363 . S
C229 H232 0.929 . S
C230 C229 1.363 . S
C230 C236 1.428 . S
H231 C227 0.930 . S
H232 C229 0.929 . S
S233 N234 1.613 . S
S233 N235 1.610 . S
N234 S233 1.613 . S
N234 C237 1.350 . S
N235 S233 1.610 . S
N235 C236 1.351 . S
C236 C230 1.428 . S
C236 N235 1.351 . S
C236 C237 1.434 . S
C237 C228 1.429 . S
C237 N234 1.350 . S
C237 C236 1.434 . S
C238 C239 1.369 . S
C238 C240 1.419 . S
C238 H242 0.930 . S
C239 C238 1.369 . S
C239 C248 1.429 . S
C240 C238 1.419 . S
C240 C241 1.363 . S
C240 H243 0.929 . S
C241 C240 1.363 . S
C241 C247 1.428 . S
H242 C238 0.930 . S
H243 C240 0.929 . S
S244 N245 1.613 . S
S244 N246 1.610 . S
N245 S244 1.613 . S
N245 C248 1.350 . S
N246 S244 1.610 . S
N246 C247 1.351 . S
C247 C241 1.428 . S
C247 N246 1.351 . S
C247 C248 1.434 . S
C248 C239 1.429 . S
C248 N245 1.350 . S
C248 C247 1.434 . S
C249 C250 1.369 . S
C249 C251 1.419 . S
C249 H253 0.930 . S
C250 C249 1.369 . S
C250 C259 1.429 . S
C251 C249 1.419 . S
C251 C252 1.363 . S
C251 H254 0.929 . S
C252 C251 1.363 . S
C252 C258 1.428 . S
H253 C249 0.930 . S
H254 C251 0.929 . S
S255 N256 1.613 . S
S255 N257 1.610 . S
N256 S255 1.613 . S
N256 C259 1.350 1_455 S
N257 S255 1.610 . S
N257 C258 1.351 1_455 S
C258 C252 1.428 . S
C258 N257 1.351 1_655 S
C258 C259 1.434 . S
C259 C250 1.429 . S
C259 N256 1.350 1_655 S
C259 C258 1.434 . S
C260 C261 1.369 . S
C260 C262 1.419 . S
C260 H264 0.930 . S
C261 C260 1.369 . S
C261 C270 1.429 . S
C262 C260 1.419 . S
C262 C263 1.363 . S
C262 H265 0.929 1_545 S
C263 C262 1.363 . S
C263 C269 1.428 . S
H264 C260 0.930 . S
H265 C262 0.929 1_565 S
S266 N267 1.613 . S
S266 N268 1.610 . S
N267 S266 1.613 . S
N267 C270 1.350 . S
N268 S266 1.610 . S
N268 C269 1.351 . S
C269 C263 1.428 . S
C269 N268 1.351 . S
C269 C270 1.434 . S
C270 C261 1.429 . S
C270 N267 1.350 . S
C270 C269 1.434 . S
C271 C272 1.369 . S
C271 C273 1.419 . S
C271 H275 0.930 . S
C272 C271 1.369 . S
C272 C281 1.429 . S
C273 C271 1.419 . S
C273 C274 1.363 . S
C273 H276 0.929 . S
C274 C273 1.363 . S
C274 C280 1.428 . S
H275 C271 0.930 . S
H276 C273 0.929 . S
S277 N278 1.613 . S
S277 N279 1.610 . S
N278 S277 1.613 . S
N278 C281 1.350 1_545 S
N279 S277 1.610 . S
N279 C280 1.351 1_545 S
C280 C274 1.428 . S
C280 N279 1.351 1_565 S
C280 C281 1.434 . S
C281 C272 1.429 . S
C281 N278 1.350 1_565 S
C281 C280 1.434 . S
C282 C283 1.369 . S
C282 C284 1.419 1_556 S
C282 H286 0.930 1_556 S
C283 C282 1.369 . S
C283 C292 1.429 . S
C284 C282 1.419 1_554 S
C284 C285 1.363 1_554 S
C284 H287 0.929 . S
C285 C284 1.363 1_556 S
C285 C291 1.428 . S
H286 C282 0.930 1_554 S
H287 C284 0.929 . S
S288 N289 1.613 . S
S288 N290 1.610 . S
N289 S288 1.613 . S
N289 C292 1.350 . S
N290 S288 1.610 . S
N290 C291 1.351 . S
C291 C285 1.428 . S
C291 N290 1.351 . S
C291 C292 1.434 . S
C292 C283 1.429 . S
C292 N289 1.350 . S
C292 C291 1.434 . S
C293 C294 1.369 . S
C293 C295 1.419 . S
C293 H297 0.930 . S
C294 C293 1.369 . S
C294 C303 1.429 . S
C295 C293 1.419 . S
C295 C296 1.363 . S
C295 H298 0.929 . S
C296 C295 1.363 . S
C296 C302 1.428 . S
H297 C293 0.930 . S
H298 C295 0.929 . S
S299 N300 1.613 . S
S299 N301 1.610 . S
N300 S299 1.613 . S
N300 C303 1.350 . S
N301 S299 1.610 . S
N301 C302 1.351 . S
C302 C296 1.428 . S
C302 N301 1.351 . S
C302 C303 1.434 . S
C303 C294 1.429 . S
C303 N300 1.350 . S
C303 C302 1.434 . S
C304 C305 1.369 . S
C304 C306 1.419 . S
C304 H308 0.930 . S
C305 C304 1.369 . S
C305 C314 1.429 . S
C306 C304 1.419 . S
C306 C307 1.363 . S
C306 H309 0.946 . S
C307 C306 1.363 . S
C307 C313 1.428 . S
H308 C304 0.930 . S
H309 C306 0.946 . S
S310 N311 1.613 . S
S310 N312 1.610 . S
N311 S310 1.613 . S
N311 C314 1.350 . S
N312 S310 1.610 . S
N312 C313 1.351 . S
C313 C307 1.428 . S
C313 N312 1.351 . S
C313 C314 1.434 . S
C314 C305 1.429 . S
C314 N311 1.350 . S
C314 C313 1.434 . S
C315 C316 1.369 . S
C315 C317 1.419 . S
C315 H319 0.930 1_556 S
C316 C315 1.369 . S
C316 C325 1.429 . S
C317 C315 1.419 . S
C317 C318 1.363 . S
C317 H320 0.929 1_556 S
C318 C317 1.363 . S
C318 C324 1.428 . S
H319 C315 0.930 1_554 S
H320 C317 0.929 1_554 S
S321 N322 1.613 . S
S321 N323 1.610 . S
N322 S321 1.613 . S
N322 C325 1.350 . S
N323 S321 1.610 . S
N323 C324 1.351 . S
C324 C318 1.428 . S
C324 N323 1.351 . S
C324 C325 1.434 . S
C325 C316 1.429 . S
C325 N322 1.350 . S
C325 C324 1.434 . S
C326 C327 1.369 . S
C326 C328 1.419 . S
C326 H330 0.930 . S
C327 C326 1.369 . S
C327 C336 1.429 . S
C328 C326 1.419 . S
C328 C329 1.363 . S
C328 H331 0.929 . S
C329 C328 1.363 . S
C329 C335 1.428 . S
H330 C326 0.930 . S
H331 C328 0.929 . S
S332 N333 1.613 . S
S332 N334 1.610 . S
N333 S332 1.613 . S
N333 C336 1.350 1_455 S
N334 S332 1.610 . S
N334 C335 1.351 1_455 S
C335 C329 1.428 . S
C335 N334 1.351 1_655 S
C335 C336 1.434 . S
C336 C327 1.429 . S
C336 N333 1.350 1_655 S
C336 C335 1.434 . S
C337 C338 1.369 . S
C337 C339 1.419 . S
C337 H341 0.930 . S
C338 C337 1.369 . S
C338 C347 1.429 . S
C339 C337 1.419 . S
C339 C340 1.363 . S
C339 H342 0.929 . S
C340 C339 1.363 . S
C340 C346 1.428 . S
H341 C337 0.930 . S
H342 C339 0.929 . S
S343 N344 1.613 . S
S343 N345 1.610 . S
N344 S343 1.613 . S
N344 C347 1.350 . S
N345 S343 1.610 . S
N345 C346 1.351 . S
C346 C340 1.428 . S
C346 N345 1.351 . S
C346 C347 1.434 . S
C347 C338 1.429 . S
C347 N344 1.350 . S
C347 C346 1.434 . S
C348 C349 1.369 . S
C348 C350 1.419 . S
C348 H352 0.930 . S
C349 C348 1.369 . S
C349 C358 1.429 . S
C350 C348 1.419 . S
C350 C351 1.363 . S
C350 H353 0.929 . S
C351 C350 1.363 . S
C351 C357 1.428 . S
H352 C348 0.930 . S
H353 C350 0.929 . S
S354 N355 1.613 . S
S354 N356 1.610 . S
N355 S354 1.613 . S
N355 C358 1.350 1_455 S
N356 S354 1.610 . S
N356 C357 1.351 1_455 S
C357 C351 1.428 . S
C357 N356 1.351 1_655 S
C357 C358 1.434 . S
C358 C349 1.429 . S
C358 N355 1.350 1_655 S
C358 C357 1.434 . S
C359 C360 1.369 . S
C359 C361 1.419 . S
C359 H363 0.930 . S
C360 C359 1.369 . S
C360 C369 1.429 . S
C361 C359 1.419 . S
C361 C362 1.363 . S
C361 H364 0.929 . S
C362 C361 1.363 . S
C362 C368 1.428 . S
H363 C359 0.930 . S
H364 C361 0.929 . S
S365 N366 1.613 . S
S365 N367 1.610 . S
N366 S365 1.613 . S
N366 C369 1.350 . S
N367 S365 1.610 . S
N367 C368 1.351 . S
C368 C362 1.428 . S
C368 N367 1.351 . S
C368 C369 1.434 . S
C369 C360 1.429 . S
C369 N366 1.350 . S
C369 C368 1.434 . S
C370 C371 1.369 . S
C370 C372 1.419 . S
C370 H374 0.930 . S
C371 C370 1.369 . S
C371 C380 1.429 . S
C372 C370 1.419 . S
C372 C373 1.363 . S
C372 H375 0.929 . S
C373 C372 1.363 . S
C373 C379 1.428 . S
H374 C370 0.930 . S
H375 C372 0.929 . S
S376 N377 1.613 . S
S376 N378 1.610 . S
N377 S376 1.613 . S
N377 C380 1.350 . S
N378 S376 1.610 . S
N378 C379 1.351 . S
C379 C373 1.428 . S
C379 N378 1.351 . S
C379 C380 1.434 . S
C380 C371 1.429 . S
C380 N377 1.350 . S
C380 C379 1.434 . S
C381 C382 1.369 . S
C381 C383 1.419 . S
C381 H385 0.930 . S
C382 C381 1.369 . S
C382 C391 1.429 . S
C383 C381 1.419 . S
C383 C384 1.363 . S
C383 H386 0.929 . S
C384 C383 1.363 . S
C384 C390 1.428 . S
H385 C381 0.930 . S
H386 C383 0.929 . S
S387 N388 1.613 . S
S387 N389 1.610 1_655 S
N388 S387 1.613 . S
N388 C391 1.350 1_655 S
N389 S387 1.610 1_455 S
N389 C390 1.351 . S
C390 C384 1.428 . S
C390 N389 1.351 . S
C390 C391 1.434 . S
C391 C382 1.429 . S
C391 N388 1.350 1_455 S
C391 C390 1.434 . S
C392 C393 1.369 . S
C392 C394 1.419 . S
C392 H396 0.930 . S
C393 C392 1.369 . S
C393 C402 1.429 1_565 S
C394 C392 1.419 . S
C394 C395 1.363 . S
C394 H397 0.929 . S
C395 C394 1.363 . S
C395 C401 1.428 1_565 S
H396 C392 0.930 . S
H397 C394 0.929 . S
S398 N399 1.613 1_554 S
S398 N400 1.610 . S
N399 S398 1.613 1_556 S
N399 C402 1.350 . S
N400 S398 1.610 . S
N400 C401 1.351 1_554 S
C401 C395 1.428 1_545 S
C401 N400 1.351 1_556 S
C401 C402 1.434 . S
C402 C393 1.429 1_545 S
C402 N399 1.350 . S
C402 C401 1.434 . S
C403 C404 1.369 . S
C403 C405 1.419 . S
C403 H407 0.930 . S
C404 C403 1.369 . S
C404 C413 1.429 . S
C405 C403 1.419 . S
C405 C406 1.363 . S
C405 H408 0.929 . S
C406 C405 1.363 . S
C406 C412 1.428 . S
H407 C403 0.930 . S
H408 C405 0.929 . S
S409 N410 1.613 . S
S409 N411 1.610 . S
N410 S409 1.613 . S
N410 C413 1.350 . S
N411 S409 1.610 . S
N411 C412 1.351 . S
C412 C406 1.428 . S
C412 N411 1.351 . S
C412 C413 1.434 . S
C413 C404 1.429 . S
C413 N410 1.350 . S
C413 C412 1.434 . S
C414 C415 1.369 . S
C414 C416 1.419 . S
C414 H418 0.930 . S
C415 C414 1.369 . S
C415 C424 1.429 . S
C416 C414 1.419 . S
C416 C417 1.363 . S
C416 H419 0.929 . S
C417 C416 1.363 . S
C417 C423 1.428 . S
H418 C414 0.930 . S
H419 C416 0.929 . S
S420 N421 1.613 1_556 S
S420 N422 1.610 . S
N421 S420 1.613 1_554 S
N421 C424 1.350 . S
N422 S420 1.610 . S
N422 C423 1.351 1_556 S
C423 C417 1.428 . S
C423 N422 1.351 1_554 S
C423 C424 1.434 . S
C424 C415 1.429 . S
C424 N421 1.350 . S
C424 C423 1.434 . S
C425 C426 1.369 . S
C425 C427 1.419 . S
C425 H429 0.930 . S
C426 C425 1.369 . S
C426 C435 1.429 . S
C427 C425 1.419 . S
C427 C428 1.363 . S
C427 H430 0.929 . S
C428 C427 1.363 . S
C428 C434 1.428 . S
H429 C425 0.930 . S
H430 C427 0.929 . S
S431 N432 1.613 . S
S431 N433 1.610 . S
N432 S431 1.613 . S
N432 C435 1.350 . S
N433 S431 1.610 . S
N433 C434 1.351 . S
C434 C428 1.428 . S
C434 N433 1.351 . S
C434 C435 1.434 . S
C435 C426 1.429 . S
C435 N432 1.350 . S
C435 C434 1.434 . S
C436 C437 1.369 . S
C436 C438 1.419 1_556 S
C436 H440 0.930 1_556 S
C437 C436 1.369 . S
C437 C446 1.429 . S
C438 C436 1.419 1_554 S
C438 C439 1.363 1_554 S
C438 H441 0.929 . S
C439 C438 1.363 1_556 S
C439 C445 1.428 . S
H440 C436 0.930 1_554 S
H441 C438 0.929 . S
S442 N443 1.613 1_455 S
S442 N444 1.610 . S
N443 S442 1.613 1_655 S
N443 C446 1.350 . S
N444 S442 1.610 . S
N444 C445 1.351 1_455 S
C445 C439 1.428 . S
C445 N444 1.351 1_655 S
C445 C446 1.434 . S
C446 C437 1.429 . S
C446 N443 1.350 . S
C446 C445 1.434 . S
C447 C448 1.369 . S
C447 C449 1.419 . S
C447 H451 0.930 . S
C448 C447 1.369 . S
C448 C457 1.429 . S
C449 C447 1.419 . S
C449 C450 1.363 . S
C449 H452 0.929 . S
C450 C449 1.363 . S
C450 C456 1.428 . S
H451 C447 0.930 . S
H452 C449 0.929 . S
S453 N454 1.613 . S
S453 N455 1.610 . S
N454 S453 1.613 . S
N454 C457 1.350 . S
N455 S453 1.610 . S
N455 C456 1.351 . S
C456 C450 1.428 . S
C456 N455 1.351 . S
C456 C457 1.434 . S
C457 C448 1.429 . S
C457 N454 1.350 . S
C457 C456 1.434 . S
C458 C459 1.369 . S
C458 C460 1.419 . S
C458 H462 0.930 . S
C459 C458 1.369 . S
C459 C468 1.429 . S
C460 C458 1.419 . S
C460 C461 1.363 . S
C460 H463 0.929 . S
C461 C460 1.363 . S
C461 C467 1.428 . S
H462 C458 0.930 . S
H463 C460 0.929 . S
S464 N465 1.613 . S
S464 N466 1.610 . S
N465 S464 1.613 . S
N465 C468 1.350 . S
N466 S464 1.610 . S
N466 C467 1.351 . S
C467 C461 1.428 . S
C467 N466 1.351 . S
C467 C468 1.434 . S
C468 C459 1.429 . S
C468 N465 1.350 . S
C468 C467 1.434 . S
C469 C470 1.369 . S
C469 C471 1.419 . S
C469 H473 0.930 . S
C470 C469 1.369 . S
C470 C479 1.429 . S
C471 C469 1.419 . S
C471 C472 1.363 . S
C471 H474 0.929 . S
C472 C471 1.363 . S
C472 C478 1.428 . S
H473 C469 0.930 . S
H474 C471 0.929 . S
S475 N476 1.613 . S
S475 N477 1.610 . S
N476 S475 1.613 . S
N476 C479 1.350 . S
N477 S475 1.610 . S
N477 C478 1.351 . S
C478 C472 1.428 . S
C478 N477 1.351 . S
C478 C479 1.434 . S
C479 C470 1.429 . S
C479 N476 1.350 . S
C479 C478 1.434 . S
C217 C6 2.306 . S
C219 C112 2.318 . S
C228 C18 1.349 . S
C230 N132 1.369 . S
C241 C166 2.015 . S
C239 C28 1.982 . S
C250 C40 1.062 . S
C252 N200 0.989 . S
C263 C153 2.503 . S
C261 C9 2.495 . S
C274 N110 1.110 . S
C272 C16 1.150 . S
C285 C187 2.077 1_556 S
C283 C30 2.073 . S
C296 N162 0.961 . S
C294 C42 0.944 . S
C305 C4 1.774 . S
C307 C202 1.786 . S
C318 C136 1.734 . S
C316 C33 1.721 . S
C327 C45 1.140 . S
C329 C97 1.150 . S
C338 C21 1.614 . S
C340 C183 1.645 . S
C351 C123 2.363 . S
C349 C57 2.362 . S
C360 C66 1.350 . S
C362 N140 1.353 . S
C371 C76 2.036 . S
C373 C157 2.050 . S
C382 C88 1.007 . S
C384 N192 0.951 . S
C393 C54 2.461 . S
C395 C142 2.468 . S
C406 N102 1.159 . S
C404 C64 1.176 . S
C417 C196 1.989 . S
C415 C78 1.969 . S
C428 N170 0.968 . S
C426 C93 0.960 . S
C437 C52 1.707 . S
C439 C213 1.740 . S
C450 C127 1.738 . S
C448 C81 1.715 . S
C461 C106 1.166 . S
C459 C90 1.160 . S
C470 C69 1.666 . S
C472 C172 1.682 . S
