# Generated by pormake.
# Topology anh, (6,3)-cn, num edge types: 1
# Building blocks:
#     Node 0, Type 0, BuildingBlock: INOVEN_clean_sbu_0, # of connection points: 6
#     Node 1, Type 0, BuildingBlock: INOVEN_clean_sbu_0, # of connection points: 6
#     Node 2, Type 0, BuildingBlock: INOVEN_clean_sbu_0, # of connection points: 6
#     Node 3, Type 1, BuildingBlock: ESEHIV_clean_linker_0, # of connection points: 3
#     Node 4, Type 1, BuildingBlock: ESEHIV_clean_linker_0, # of connection points: 3
#     Node 5, Type 1, BuildingBlock: ESEHIV_clean_linker_0, # of connection points: 3
#     Node 6, Type 1, BuildingBlock: ESEHIV_clean_linker_0, # of connection points: 3
#     Node 7, Type 1, BuildingBlock: ESEHIV_clean_linker_0, # of connection points: 3
#     Node 8, Type 1, BuildingBlock: ESEHIV_clean_linker_0, # of connection points: 3
#     Edge 9, Type (0, 1), BuildingBlock: XIVTED_clean_linker_0, # of connection points: 2
#     Edge 10, Type (0, 1), BuildingBlock: XIVTED_clean_linker_0, # of connection points: 2
#     Edge 11, Type (0, 1), BuildingBlock: XIVTED_clean_linker_0, # of connection points: 2
#     Edge 12, Type (0, 1), BuildingBlock: XIVTED_clean_linker_0, # of connection points: 2
#     Edge 13, Type (0, 1), BuildingBlock: XIVTED_clean_linker_0, # of connection points: 2
#     Edge 14, Type (0, 1), BuildingBlock: XIVTED_clean_linker_0, # of connection points: 2
#     Edge 15, Type (0, 1), BuildingBlock: XIVTED_clean_linker_0, # of connection points: 2
#     Edge 16, Type (0, 1), BuildingBlock: XIVTED_clean_linker_0, # of connection points: 2
#     Edge 17, Type (0, 1), BuildingBlock: XIVTED_clean_linker_0, # of connection points: 2
#     Edge 18, Type (0, 1), BuildingBlock: XIVTED_clean_linker_0, # of connection points: 2
#     Edge 19, Type (0, 1), BuildingBlock: XIVTED_clean_linker_0, # of connection points: 2
#     Edge 20, Type (0, 1), BuildingBlock: XIVTED_clean_linker_0, # of connection points: 2
#     Edge 21, Type (0, 1), BuildingBlock: XIVTED_clean_linker_0, # of connection points: 2
#     Edge 22, Type (0, 1), BuildingBlock: XIVTED_clean_linker_0, # of connection points: 2
#     Edge 23, Type (0, 1), BuildingBlock: XIVTED_clean_linker_0, # of connection points: 2
#     Edge 24, Type (0, 1), BuildingBlock: XIVTED_clean_linker_0, # of connection points: 2
#     Edge 25, Type (0, 1), BuildingBlock: XIVTED_clean_linker_0, # of connection points: 2
#     Edge 26, Type (0, 1), BuildingBlock: XIVTED_clean_linker_0, # of connection points: 2
# Relax obj value: 0.211
# Max RMSD: 0.230
# Mean RMSD: 0.166
data_MOF--net-anh--node1-INOVEN_clean_sbu_0--node2-ESEHIV_clean_linker_0--edge1-XIVTED_clean_linker_0
_symmetry_space_group_name_H-M    P1
_symmetry_Int_Tables_number       1
_symmetry_cell_setting            triclinic
loop_
_symmetry_equiv_pos_as_xyz
'x, y, z'
_cell_length_a     29.300059
_cell_length_b     35.395237
_cell_length_c     51.991005
_cell_angle_alpha  92.729633
_cell_angle_beta   88.830674
_cell_angle_gamma 130.18528
loop_
_atom_site_label
_atom_site_type_symbol
_atom_site_fract_x
_atom_site_fract_y
_atom_site_fract_z
_atom_type_partial_charge
Gd0 Gd 0.13324 0.50481 0.1484 0.0
Gd1 Gd 0.06794 0.54073 0.15317 0.0
C2 C 0.20822 0.62459 0.15217 0.0
C3 C 0.21091 0.4952 0.1406 0.0
C4 C 0.27246 0.53154 0.15015 0.0
C5 C 0.29293 0.51841 0.1689 0.0
C6 C 0.30873 0.58115 0.14325 0.0
C7 C 0.39128 0.59966 0.16728 0.0
C8 C 0.36718 0.61545 0.15252 0.0
C9 C 0.35159 0.55253 0.17786 0.0
C10 C 0.09718 0.50253 0.1965 0.0
C11 C 0.99286 0.42234 0.14619 0.0
C12 C 1.01565 0.56765 0.17732 0.0
C13 C 0.95298 0.5358 0.18336 0.0
C14 C 0.91276 0.49469 0.16682 0.0
C15 C 0.93453 0.54054 0.20743 0.0
C16 C 0.83374 0.46532 0.1972 0.0
C17 C 0.87484 0.50542 0.21433 0.0
C18 C 0.85375 0.45973 0.17367 0.0
C19 C 0.07204 0.52651 0.10171 0.0
O20 O 0.2099 0.58836 0.15425 0.0
O21 O 0.15716 0.6148 0.14943 0.0
O22 O 0.17135 0.47187 0.15868 0.0
O23 O 0.19517 0.50944 0.12248 0.0
O24 O 0.09166 0.46644 0.18516 0.0
O25 O 0.12086 0.53803 0.18154 0.0
O26 O 0.99288 0.45764 0.15597 0.0
O27 O 1.04251 0.43348 0.13709 0.0
O28 O 1.02844 0.57537 0.15285 0.0
O29 O 1.04328 0.55562 0.18905 0.0
O30 O 1.04328 0.53953 0.11223 0.0
O31 O 0.09458 0.51852 0.11888 0.0
H32 H 0.26441 0.48115 0.17577 0.0
H33 H 0.29308 0.59322 0.12986 0.0
H34 H 0.39581 0.65219 0.14502 0.0
H35 H 0.36724 0.53919 0.1903 0.0
H36 H 0.92689 0.48949 0.14852 0.0
H37 H 0.96616 0.5712 0.22077 0.0
H38 H 0.86021 0.51061 0.23244 0.0
H39 H 0.82318 0.43006 0.15969 0.0
Gd40 Gd 0.61975 0.00879 0.47021 0.0
Gd41 Gd 0.54345 0.03367 0.46337 0.0
C42 C 0.47587 0.91997 0.46168 0.0
C43 C 0.66408 0.96902 0.48344 0.0
C44 C 0.64015 0.91753 0.48468 0.0
C45 C 0.64518 0.89429 0.46349 0.0
C46 C 0.61299 0.89139 0.50718 0.0
C47 C 0.60054 0.82123 0.48796 0.0
C48 C 0.59328 0.8437 0.50878 0.0
C49 C 0.62531 0.84653 0.46507 0.0
C50 C 0.61144 0.02508 0.42114 0.0
C51 C 0.68839 0.12333 0.4702 0.0
C52 C 0.50051 0.07462 0.4503 0.0
C53 C 0.51743 0.12298 0.45807 0.0
C54 C 0.49401 0.12782 0.48059 0.0
C55 C 0.55972 0.16531 0.44404 0.0
C56 C 0.55713 0.21651 0.47578 0.0
C57 C 0.57937 0.21172 0.45282 0.0
C58 C 0.51372 0.17401 0.48935 0.0
C59 C 0.55334 0.0192 0.51288 0.0
O60 O 0.52553 0.93384 0.47239 0.0
O61 O 0.4747 0.95319 0.45216 0.0
O62 O 0.66994 0.98493 0.46044 0.0
O63 O 0.64346 0.98349 0.50011 0.0
O64 O 0.66059 0.04058 0.43197 0.0
O65 O 0.56831 1.00039 0.43639 0.0
O66 O 0.63626 0.10906 0.46277 0.0
O67 O 0.69323 0.09072 0.47732 0.0
O68 O 0.47697 0.04211 0.46815 0.0
O69 O 0.53912 0.07595 0.43629 0.0
O70 O 0.50452 1.00513 0.50245 0.0
O71 O 0.5956 0.04275 0.49716 0.0
H72 H 0.66558 0.91333 0.44581 0.0
H73 H 0.60832 0.90819 0.52384 0.0
H74 H 0.57514 0.8255 0.52683 0.0
H75 H 0.63081 0.82991 0.44861 0.0
H76 H 0.46107 0.09604 0.49177 0.0
H77 H 0.57854 0.16276 0.42657 0.0
H78 H 0.6129 0.24392 0.44201 0.0
H79 H 0.49478 0.17641 0.50682 0.0
Gd80 Gd 0.67663 0.6017 0.83349 0.0
Gd81 Gd 0.59162 0.49412 0.83715 0.0
C82 C 0.53043 0.54526 0.83956 0.0
C83 C 0.73019 0.69044 0.8199 0.0
C84 C 0.71019 0.71881 0.81607 0.0
C85 C 0.72709 0.757 0.83393 0.0
C86 C 0.67309 0.70744 0.79509 0.0
C87 C 0.6711 0.77264 0.80968 0.0
C88 C 0.6539 0.73415 0.79191 0.0
C89 C 0.7075 0.78349 0.83086 0.0
C90 C 0.65505 0.57137 0.88169 0.0
C91 C 0.7393 0.55224 0.83743 0.0
C92 C 0.53856 0.40377 0.84751 0.0
C93 C 0.54827 0.36915 0.83868 0.0
C94 C 0.54285 0.35485 0.81247 0.0
C95 C 0.56577 0.35181 0.85643 0.0
C96 C 0.57204 0.30632 0.82198 0.0
C97 C 0.57762 0.32075 0.84818 0.0
C98 C 0.55443 0.32369 0.80425 0.0
C99 C 0.60768 0.52251 0.78841 0.0
O100 O 0.58448 0.5846 0.83161 0.0
O101 O 0.52378 0.50602 0.84634 0.0
O102 O 0.73017 0.67983 0.84364 0.0
O103 O 0.71026 0.65355 0.80336 0.0
O104 O 0.7078 0.60893 0.87416 0.0
O105 O 0.61687 0.55354 0.86401 0.0
O106 O 0.68287 0.5108 0.84033 0.0
O107 O 0.74906 0.59361 0.83267 0.0
O108 O 0.51836 0.41581 0.83035 0.0
O109 O 0.58075 0.4416 0.86224 0.0
O110 O 0.5573 0.48528 0.79765 0.0
O111 O 0.64921 0.54195 0.805 0.0
H112 H 0.75537 0.76631 0.85035 0.0
H113 H 0.65905 0.67811 0.78099 0.0
H114 H 0.62675 0.72537 0.77514 0.0
H115 H 0.72089 0.81246 0.84508 0.0
H116 H 0.52989 0.36781 0.79821 0.0
H117 H 0.57087 0.36272 0.87669 0.0
H118 H 0.59187 0.30853 0.86226 0.0
H119 H 0.54887 0.31273 0.78399 0.0
H120 H 0.52873 0.95486 0.22727 0.0
H121 H 0.66802 0.1124 0.22552 0.0
H122 H 0.6017 0.02338 0.15458 0.0
C123 C 0.55927 0.98789 0.21645 0.0
C124 C 0.55983 0.98332 0.1895 0.0
C125 C 0.59814 0.03409 0.22963 0.0
C126 C 0.63802 0.07647 0.21546 0.0
C127 C 0.64021 0.0734 0.18848 0.0
C128 C 0.60069 0.0264 0.17538 0.0
H129 H 0.61819 0.60487 0.59416 0.0
H130 H 0.63381 0.49243 0.59316 0.0
H131 H 0.60587 0.53314 0.52219 0.0
C132 C 0.61978 0.5787 0.58346 0.0
C133 C 0.61351 0.5737 0.55644 0.0
C134 C 0.62607 0.54872 0.59674 0.0
C135 C 0.62772 0.51477 0.58278 0.0
C136 C 0.6201 0.50847 0.55589 0.0
C137 C 0.61363 0.53855 0.54284 0.0
H138 H 1.05379 0.54519 0.90437 0.0
H139 H 0.19323 0.5367 0.90675 0.0
H140 H 0.13746 0.55 0.83363 0.0
C141 C 0.08585 0.54434 0.89425 0.0
C142 C 0.08887 0.54766 0.86733 0.0
C143 C 0.12293 0.54042 0.90852 0.0
C144 C 0.16561 0.54039 0.89556 0.0
C145 C 0.1732 0.54391 0.86863 0.0
C146 C 0.13394 0.54789 0.85436 0.0
H147 H 0.99562 0.43588 0.39395 0.0
H148 H 0.1463 0.59145 0.39223 0.0
H149 H 0.07947 0.52198 0.46492 0.0
C150 C 1.03032 0.47104 0.40385 0.0
C151 C 1.03334 0.47356 0.43092 0.0
C152 C 0.07053 0.51342 0.3896 0.0
C153 C 0.11405 0.55867 0.40295 0.0
C154 C 0.11768 0.56253 0.42998 0.0
C155 C 0.07741 0.51953 0.44406 0.0
H156 H 0.58633 0.07429 0.70652 0.0
H157 H 0.59432 0.95751 0.70655 0.0
H158 H 0.6107 0.03241 0.77805 0.0
C159 C 0.59142 0.05147 0.71706 0.0
C160 C 0.59981 0.05844 0.74392 0.0
C161 C 0.5898 0.01543 0.70353 0.0
C162 C 0.59542 0.98531 0.71704 0.0
C163 C 0.60203 0.99075 0.74402 0.0
C164 C 0.6047 0.02765 0.75731 0.0
H165 H 0.48618 0.45148 0.05566 0.0
H166 H 0.58012 0.39637 0.05542 0.0
H167 H 0.49021 0.38945 0.1235 0.0
C168 C 0.49562 0.43033 0.06495 0.0
C169 C 0.48305 0.42058 0.09105 0.0
C170 C 0.52889 0.42009 0.05177 0.0
C171 C 0.5484 0.39876 0.06456 0.0
C172 C 0.53368 0.38719 0.09042 0.0
C173 C 0.4975 0.39495 0.10298 0.0
H174 H 0.47315 0.60681 0.19849 0.0
H175 H 0.40462 0.43622 0.08286 0.0
H176 H 0.45268 0.63598 0.12197 0.0
H177 H 0.54536 0.47679 0.13433 0.0
H178 H 0.41076 0.50346 0.10293 0.0
H179 H 0.5046 0.56218 0.17978 0.0
C180 C 0.47831 0.60629 0.17782 0.0
C181 C 0.4527 0.61908 0.16165 0.0
C182 C 0.44013 0.49733 0.10976 0.0
C183 C 0.48895 0.56986 0.14048 0.0
C184 C 0.43587 0.45865 0.09866 0.0
C185 C 0.47443 0.45106 0.10693 0.0
C186 C 0.48294 0.52818 0.12927 0.0
C187 C 0.51413 0.48094 0.12762 0.0
C188 C 0.49489 0.57978 0.16718 0.0
C189 C 0.4658 0.62179 0.13528 0.0
N190 N 0.5175 0.51846 0.13813 0.0
N191 N 0.47873 0.5938 0.12519 0.0
H192 H 0.80754 0.16744 0.47389 0.0
H193 H 0.92415 0.43915 0.44744 0.0
H194 H 0.69193 0.20175 0.46446 0.0
H195 H 1.03775 0.40171 0.44324 0.0
H196 H 0.84134 0.35522 0.46089 0.0
H197 H 0.89446 0.25521 0.46919 0.0
C198 C 0.80035 0.1934 0.47113 0.0
C199 C 0.7421 0.17691 0.46951 0.0
C200 C 0.8846 0.36547 0.45748 0.0
C201 C 0.84165 0.27769 0.46415 0.0
C202 C 0.93197 0.41355 0.45008 0.0
C203 C 0.98796 0.42747 0.44463 0.0
C204 C 0.89305 0.33078 0.45927 0.0
C205 C 0.99544 0.39254 0.44767 0.0
C206 C 0.85005 0.24354 0.46837 0.0
C207 C 0.73579 0.21245 0.46574 0.0
N208 N 0.94851 0.34577 0.45465 0.0
N209 N 0.78473 0.26088 0.46316 0.0
H210 H 0.56403 0.74175 0.79135 0.0
H211 H 0.68161 0.01669 0.78233 0.0
H212 H 0.73879 0.87285 0.81783 0.0
H213 H 0.53207 0.89037 0.73813 0.0
H214 H 0.692 0.96213 0.8034 0.0
H215 H 0.54123 0.79396 0.77941 0.0
C216 C 0.59751 0.78146 0.79477 0.0
C217 C 0.65377 0.80299 0.80526 0.0
C218 C 0.6567 0.94637 0.7892 0.0
C219 C 0.62757 0.86273 0.79199 0.0
C220 C 0.65061 0.9774 0.77727 0.0
C221 C 0.60647 0.958 0.75821 0.0
C222 C 0.61813 0.89566 0.78209 0.0
C223 C 0.56749 0.90688 0.75234 0.0
C224 C 0.58433 0.81116 0.78807 0.0
C225 C 0.69476 0.85455 0.80991 0.0
N226 N 0.57442 0.87747 0.76415 0.0
N227 N 0.68102 0.88271 0.80305 0.0
H228 H 0.78007 0.50327 0.20923 0.0
H229 H 0.51479 0.30907 0.11218 0.0
H230 H 0.74134 0.36548 0.18894 0.0
H231 H 0.63891 0.46798 0.1084 0.0
H232 H 0.57144 0.31685 0.14968 0.0
H233 H 0.69072 0.4737 0.18608 0.0
C234 C 0.75087 0.46553 0.20127 0.0
C235 C 0.76938 0.4376 0.19973 0.0
C236 C 0.58594 0.34972 0.14043 0.0
C237 C 0.66884 0.40452 0.1728 0.0
C238 C 0.55474 0.34526 0.11891 0.0
C239 C 0.57354 0.3879 0.10716 0.0
C240 C 0.63395 0.39709 0.15048 0.0
C241 C 0.62425 0.4343 0.11675 0.0
C242 C 0.7005 0.44912 0.18757 0.0
C243 C 0.72922 0.38866 0.18956 0.0
N244 N 0.65234 0.43772 0.1381 0.0
N245 N 0.68172 0.37422 0.17528 0.0
H246 H 0.3687 0.87891 0.43894 0.0
H247 H 0.21194 0.59606 0.46248 0.0
H248 H 0.45703 0.83914 0.48075 0.0
H249 H 0.12908 0.64388 0.42416 0.0
H250 H 0.29869 0.68354 0.47332 0.0
H251 H 0.27886 0.79231 0.43604 0.0
C252 C 0.36929 0.852 0.44761 0.0
C253 C 0.42092 0.86668 0.46005 0.0
C254 C 0.26108 0.67477 0.46288 0.0
C255 C 0.31688 0.76625 0.45686 0.0
C256 C 0.21135 0.62487 0.45697 0.0
C257 C 0.16337 0.61278 0.44234 0.0
C258 C 0.26264 0.7126 0.45401 0.0
C259 C 0.16519 0.65156 0.43539 0.0
C260 C 0.31763 0.80228 0.446 0.0
C261 C 0.41845 0.82965 0.47087 0.0
N262 N 0.21401 0.69943 0.44102 0.0
N263 N 0.36742 0.78117 0.46895 0.0
H264 H 0.54057 0.22446 0.84522 0.0
H265 H 0.6591 0.15273 0.7292 0.0
H266 H 0.62981 0.31155 0.77844 0.0
H267 H 0.54993 0.05472 0.7902 0.0
H268 H 0.65903 0.2157 0.75013 0.0
H269 H 0.55461 0.16675 0.82862 0.0
C270 C 0.56365 0.23175 0.82721 0.0
C271 C 0.58354 0.27269 0.81308 0.0
C272 C 0.63525 0.18052 0.75903 0.0
C273 C 0.59912 0.20655 0.79388 0.0
C274 C 0.635 0.14442 0.74701 0.0
C275 C 0.60362 0.09806 0.75772 0.0
C276 C 0.60397 0.1704 0.78202 0.0
C277 C 0.57468 0.08993 0.78124 0.0
C278 C 0.57128 0.19861 0.81768 0.0
C279 C 0.61269 0.28001 0.78975 0.0
N280 N 0.57516 0.12565 0.79253 0.0
N281 N 0.61932 0.24716 0.78085 0.0
H282 H 0.5072 0.73883 0.51266 0.0
H283 H 0.66775 0.62305 0.51246 0.0
H284 H 0.66909 0.79789 0.47155 0.0
H285 H 0.53663 0.59075 0.56807 0.0
H286 H 0.65316 0.6738 0.48999 0.0
H287 H 0.50142 0.67015 0.52532 0.0
C288 C 0.54104 0.737 0.50602 0.0
C289 C 0.58925 0.77458 0.49141 0.0
C290 C 0.62734 0.65535 0.50702 0.0
C291 C 0.58286 0.6964 0.50576 0.0
C292 C 0.63564 0.62646 0.51982 0.0
C293 C 0.60405 0.60347 0.54236 0.0
C294 C 0.58697 0.66103 0.51679 0.0
C295 C 0.56285 0.60886 0.55108 0.0
C296 C 0.53768 0.69784 0.51322 0.0
C297 C 0.63106 0.76976 0.48279 0.0
N298 N 0.55569 0.63734 0.53834 0.0
N299 N 0.62733 0.73175 0.49039 0.0
H300 H 0.73717 0.47217 0.84174 0.0
H301 H 0.09737 0.62926 0.85691 0.0
H302 H 0.8649 0.63086 0.83895 0.0
H303 H 0.96847 0.47046 0.85459 0.0
H304 H 1.01583 0.63121 0.84925 0.0
H305 H 0.82022 0.47135 0.8458 0.0
C306 C 0.78245 0.50713 0.84192 0.0
C307 C 0.79213 0.55166 0.83977 0.0
C308 C 1.00509 0.59571 0.84981 0.0
C309 C 0.89094 0.55093 0.84475 0.0
C310 C 1.05243 0.59453 0.85379 0.0
C311 C 1.04193 0.54951 0.85522 0.0
C312 C 0.94466 0.55149 0.84767 0.0
C313 C 0.98071 0.50628 0.85259 0.0
C314 C 0.83058 0.50656 0.84427 0.0
C315 C 0.85346 0.59522 0.84031 0.0
N316 N 0.93563 0.5084 0.84904 0.0
N317 N 0.89935 0.59368 0.84277 0.0
H318 H 0.22083 0.70563 0.141 0.0
H319 H 0.55558 0.90521 0.1956 0.0
H320 H 0.32171 0.66567 0.16886 0.0
H321 H 0.46322 0.94496 0.15792 0.0
H322 H 0.47252 0.81781 0.1844 0.0
H323 H 0.30923 0.79284 0.14641 0.0
C324 C 0.26176 0.71505 0.14804 0.0
C325 C 0.26365 0.67777 0.15421 0.0
C326 C 0.4707 0.84555 0.17811 0.0
C327 C 0.36597 0.77865 0.1605 0.0
C328 C 0.5184 0.89552 0.1843 0.0
C329 C 0.51679 0.9325 0.17731 0.0
C330 C 0.42018 0.83202 0.1651 0.0
C331 C 0.46685 0.91777 0.16324 0.0
C332 C 0.31243 0.76512 0.15106 0.0
C333 C 0.31818 0.6928 0.16341 0.0
N334 N 0.42032 0.86871 0.15784 0.0
N335 N 0.36694 0.74194 0.16637 0.0
H336 H 0.58708 0.25289 0.52534 0.0
H337 H 0.65978 0.50777 0.50719 0.0
H338 H 0.57616 0.29122 0.44944 0.0
H339 H 0.56621 0.41616 0.57232 0.0
H340 H 0.65094 0.43988 0.48563 0.0
H341 H 0.60721 0.32721 0.54334 0.0
C342 C 0.58915 0.27711 0.51245 0.0
C343 C 0.57837 0.26528 0.48596 0.0
C344 C 0.63279 0.43519 0.5047 0.0
C345 C 0.60203 0.35056 0.50643 0.0
C346 C 0.63749 0.47363 0.51698 0.0
C347 C 0.61486 0.4682 0.54192 0.0
C348 C 0.60637 0.39172 0.51771 0.0
C349 C 0.58645 0.42306 0.5536 0.0
C350 C 0.60069 0.31946 0.52272 0.0
C351 C 0.58373 0.29891 0.47002 0.0
N352 N 0.58359 0.38689 0.54151 0.0
N353 N 0.59469 0.34008 0.48055 0.0
H354 H 0.52242 0.61725 0.82563 0.0
H355 H 0.18193 0.47177 0.87598 0.0
H356 H 0.41436 0.47441 0.85877 0.0
H357 H 0.27946 0.61046 0.83925 0.0
H358 H 0.26561 0.47279 0.86865 0.0
H359 H 0.43752 0.61656 0.82952 0.0
C360 C 0.48116 0.58552 0.83374 0.0
C361 C 0.47738 0.54574 0.84177 0.0
C362 C 0.26901 0.50287 0.86173 0.0
C363 C 0.37689 0.54482 0.84646 0.0
C364 C 0.22024 0.50216 0.86573 0.0
C365 C 0.22107 0.54056 0.85794 0.0
C366 C 0.3218 0.54259 0.84975 0.0
C367 C 0.27438 0.57911 0.84529 0.0
C368 C 0.43202 0.5852 0.83594 0.0
C369 C 0.42116 0.5062 0.85211 0.0
N370 N 0.32168 0.57915 0.84178 0.0
N371 N 0.37449 0.50692 0.85412 0.0
H372 H 0.97979 0.33876 0.13482 0.0
H373 H 0.6457 0.15295 0.18871 0.0
H374 H 0.88061 0.38376 0.16233 0.0
H375 H 0.73837 0.10283 0.16011 0.0
H376 H 0.72919 0.2365 0.17578 0.0
H377 H 0.89153 0.25222 0.14119 0.0
C378 C 0.93933 0.33056 0.14188 0.0
C379 C 0.93794 0.36906 0.14789 0.0
C380 C 0.73122 0.2073 0.17188 0.0
C381 C 0.83622 0.26938 0.15534 0.0
C382 C 0.68316 0.15939 0.17907 0.0
C383 C 0.68461 0.12065 0.17518 0.0
C384 C 0.78204 0.21725 0.16088 0.0
C385 C 0.73493 0.13139 0.16305 0.0
C386 C 0.88888 0.28096 0.14558 0.0
C387 C 0.88415 0.35572 0.1573 0.0
N388 N 0.78186 0.17873 0.15655 0.0
N389 N 0.83586 0.30731 0.16076 0.0
H390 H 0.99693 0.51046 0.06442 0.0
H391 H 0.21054 0.57871 0.94614 0.0
H392 H 0.16051 0.53568 0.0743 0.0
H393 H 1.01976 0.49032 0.93707 0.0
H394 H 0.19772 0.57055 0.99283 0.0
H395 H 1.00881 0.51062 0.0177 0.0
C396 C 1.03524 0.51573 0.05673 0.0
C397 C 0.07759 0.5228 0.07333 0.0
C398 C 0.15874 0.55283 0.98055 0.0
C399 C 0.0923 0.5242 0.0196 0.0
C400 C 0.16588 0.55726 0.95378 0.0
C401 C 0.11623 0.53549 0.93726 0.0
C402 C 0.10167 0.52711 0.99112 0.0
C403 C 1.05975 0.50893 0.94875 0.0
C404 C 1.04197 0.51577 0.03002 0.0
C405 C 0.1265 0.52963 0.06221 0.0
N406 N 1.05419 0.50591 0.97481 0.0
N407 N 0.13294 0.53078 0.03605 0.0
H408 H 0.50959 0.97969 0.39184 0.0
H409 H 0.6955 0.09184 0.26194 0.0
H410 H 0.70194 0.08223 0.38795 0.0
H411 H 0.50279 0.98437 0.26268 0.0
H412 H 0.69704 0.09428 0.30875 0.0
H413 H 0.5044 0.98568 0.34521 0.0
C414 C 0.55063 1.00367 0.38119 0.0
C415 C 0.6063 0.03012 0.3936 0.0
C416 C 0.6543 0.07028 0.29875 0.0
C417 C 0.60083 0.03727 0.3406 0.0
C418 C 0.65339 0.06916 0.27194 0.0
C419 C 0.59895 0.03773 0.25827 0.0
C420 C 0.60042 0.03955 0.31217 0.0
C421 C 0.54586 0.00857 0.2724 0.0
C422 C 0.54768 0.00705 0.35463 0.0
C423 C 0.65812 0.06081 0.37905 0.0
N424 N 0.54791 0.00998 0.29859 0.0
N425 N 0.65411 0.06337 0.35335 0.0
H426 H 0.70678 0.59988 0.76204 0.0
H427 H 0.55166 0.46926 0.62568 0.0
H428 H 0.52414 0.46515 0.75125 0.0
H429 H 0.69664 0.62692 0.63232 0.0
H430 H 0.5501 0.46614 0.67235 0.0
H431 H 0.71296 0.61049 0.71505 0.0
C432 C 0.66818 0.57271 0.74987 0.0
C433 C 0.61493 0.53153 0.76054 0.0
C434 C 0.58226 0.50158 0.66373 0.0
C435 C 0.6219 0.54297 0.70729 0.0
C436 C 0.58328 0.50329 0.63708 0.0
C437 C 0.62453 0.54834 0.62521 0.0
C438 C 0.62316 0.54517 0.67884 0.0
C439 C 0.66412 0.59149 0.64087 0.0
C440 C 0.67166 0.57884 0.72318 0.0
C441 C 0.56618 0.49742 0.74396 0.0
N442 N 0.66286 0.58886 0.66701 0.0
N443 N 0.57103 0.50372 0.71828 0.0
H444 H 0.65334 0.04978 0.53946 0.0
H445 H 0.49731 0.99404 0.67612 0.0
H446 H 0.46718 0.97834 0.54908 0.0
H447 H 0.66446 0.02417 0.66701 0.0
H448 H 0.48757 0.99074 0.62931 0.0
H449 H 0.66127 0.04374 0.58588 0.0
C450 C 0.61417 0.03269 0.55131 0.0
C451 C 0.55959 0.01482 0.54049 0.0
C452 C 0.52627 0.99775 0.63745 0.0
C453 C 0.56836 0.00808 0.59335 0.0
C454 C 0.53177 0.99968 0.66413 0.0
C455 C 0.58172 0.00946 0.67525 0.0
C456 C 0.57163 0.00658 0.62172 0.0
C457 C 0.62517 0.01635 0.659 0.0
C458 C 0.61866 0.02914 0.57773 0.0
C459 C 0.5102 0.99289 0.55664 0.0
N460 N 0.61951 0.01534 0.63298 0.0
N461 N 0.51587 0.99048 0.58223 0.0
H462 H 0.72264 0.61469 0.9258 0.0
H463 H 0.50894 0.37214 0.00546 0.0
H464 H 0.55384 0.48223 0.89542 0.0
H465 H 0.60469 0.5174 0.04201 0.0
H466 H 0.54396 0.41025 0.96338 0.0
H467 H 0.69628 0.57777 0.96816 0.0
C468 C 0.68049 0.57774 0.92803 0.0
C469 C 0.64067 0.55097 0.90721 0.0
C470 C 0.55747 0.43361 0.98071 0.0
C471 C 0.61141 0.50862 0.95474 0.0
C472 C 0.53787 0.41201 0.00451 0.0
C473 C 0.55378 0.4419 0.02681 0.0
C474 C 0.59386 0.48523 0.97958 0.0
C475 C 0.59137 0.4934 0.02497 0.0
C476 C 0.66555 0.55685 0.95204 0.0
C477 C 0.58616 0.5036 0.91096 0.0
N478 N 0.61027 0.51364 0.00164 0.0
N479 N 0.57333 0.4836 0.93427 0.0
H480 H 1.04498 0.4267 0.22848 0.0
H481 H 0.0906 0.58206 0.35707 0.0
H482 H 0.12571 0.58046 0.22841 0.0
H483 H 1.04446 0.4389 0.35612 0.0
H484 H 0.09329 0.57962 0.31002 0.0
H485 H 1.03321 0.428 0.27492 0.0
C486 C 1.06002 0.46081 0.23824 0.0
C487 C 0.08669 0.50364 0.22449 0.0
C488 C 0.0824 0.54871 0.32013 0.0
C489 C 0.07329 0.50537 0.27805 0.0
C490 C 0.08116 0.55012 0.34705 0.0
C491 C 0.06796 0.51084 0.36081 0.0
C492 C 0.06983 0.50754 0.30668 0.0
C493 C 1.05444 0.46992 0.34655 0.0
C494 C 1.05331 0.4615 0.26484 0.0
C495 C 0.10488 0.54659 0.23823 0.0
N496 N 1.05592 0.46946 0.32036 0.0
N497 N 0.09805 0.54644 0.2643 0.0
loop_
_geom_bond_atom_site_label_1
_geom_bond_atom_site_label_2
_geom_bond_distance
_geom_bond_site_symmetry_2
_ccdc_geom_bond_type
Gd0 C3 2.818 . S
Gd0 O20 2.377 . S
Gd0 O22 2.448 . S
Gd0 O23 2.506 . S
Gd0 O24 2.435 . S
Gd0 O25 2.717 . S
Gd0 O27 2.395 1_455 S
Gd0 O31 2.327 . S
Gd1 C12 2.818 . S
Gd1 O21 2.395 1_655 S
Gd1 O25 2.327 1_655 S
Gd1 O26 2.377 . S
Gd1 O28 2.448 . S
Gd1 O29 2.506 . S
Gd1 O30 2.435 1_655 S
Gd1 O31 2.717 1_655 S
C2 O20 1.240 . S
C2 O21 1.240 . S
C3 Gd0 2.818 . S
C3 C4 1.510 . S
C3 O22 1.249 . S
C3 O23 1.252 . S
C4 C3 1.510 . S
C4 C5 1.404 . S
C4 C6 1.352 . S
C5 C4 1.404 . S
C5 C9 1.389 . S
C5 H32 0.930 . S
C6 C4 1.352 . S
C6 C8 1.374 . S
C6 H33 0.931 . S
C7 C8 1.359 . S
C7 C9 1.364 . S
C8 C6 1.374 . S
C8 C7 1.359 . S
C8 H34 0.931 . S
C9 C5 1.389 . S
C9 C7 1.364 . S
C9 H35 0.931 . S
C10 O24 1.256 . S
C10 O25 1.257 . S
C11 O26 1.240 . S
C11 O27 1.240 . S
C12 Gd1 2.818 . S
C12 C13 1.510 . S
C12 O28 1.249 . S
C12 O29 1.252 . S
C13 C12 1.510 . S
C13 C14 1.404 . S
C13 C15 1.352 . S
C14 C13 1.404 . S
C14 C18 1.389 . S
C14 H36 0.930 . S
C15 C13 1.352 . S
C15 C17 1.374 . S
C15 H37 0.931 . S
C16 C17 1.359 . S
C16 C18 1.364 . S
C17 C15 1.374 . S
C17 C16 1.359 . S
C17 H38 0.931 . S
C18 C14 1.389 . S
C18 C16 1.364 . S
C18 H39 0.931 . S
C19 O30 1.256 . S
C19 O31 1.257 . S
O20 Gd0 2.377 . S
O20 C2 1.240 . S
O21 Gd1 2.395 1_455 S
O21 C2 1.240 . S
O22 Gd0 2.448 . S
O22 C3 1.249 . S
O23 Gd0 2.506 . S
O23 C3 1.252 . S
O24 Gd0 2.435 . S
O24 C10 1.256 . S
O25 Gd0 2.717 . S
O25 Gd1 2.327 1_455 S
O25 C10 1.257 . S
O26 Gd1 2.377 . S
O26 C11 1.240 . S
O27 Gd0 2.395 1_655 S
O27 C11 1.240 . S
O28 Gd1 2.448 . S
O28 C12 1.249 . S
O29 Gd1 2.506 . S
O29 C12 1.252 . S
O30 Gd1 2.435 1_455 S
O30 C19 1.256 . S
O31 Gd0 2.327 . S
O31 Gd1 2.717 1_455 S
O31 C19 1.257 . S
H32 C5 0.930 . S
H33 C6 0.931 . S
H34 C8 0.931 . S
H35 C9 0.931 . S
H36 C14 0.930 . S
H37 C15 0.931 . S
H38 C17 0.931 . S
H39 C18 0.931 . S
Gd40 C43 2.818 . S
Gd40 O60 2.377 . S
Gd40 O62 2.448 . S
Gd40 O63 2.506 . S
Gd40 O64 2.435 . S
Gd40 O65 2.717 1_565 S
Gd40 O67 2.395 1_565 S
Gd40 O71 2.327 1_565 S
Gd41 C52 2.818 . S
Gd41 O61 2.395 1_545 S
Gd41 O65 2.327 . S
Gd41 O66 2.377 . S
Gd41 O68 2.448 . S
Gd41 O69 2.506 . S
Gd41 O70 2.435 . S
Gd41 O71 2.717 . S
C42 O60 1.240 . S
C42 O61 1.240 . S
C43 Gd40 2.818 . S
C43 C44 1.510 . S
C43 O62 1.249 . S
C43 O63 1.252 . S
C44 C43 1.510 . S
C44 C45 1.404 . S
C44 C46 1.352 . S
C45 C44 1.404 . S
C45 C49 1.389 . S
C45 H72 0.930 . S
C46 C44 1.352 . S
C46 C48 1.374 . S
C46 H73 0.931 . S
C47 C48 1.359 . S
C47 C49 1.364 . S
C48 C46 1.374 . S
C48 C47 1.359 . S
C48 H74 0.931 . S
C49 C45 1.389 . S
C49 C47 1.364 . S
C49 H75 0.931 . S
C50 O64 1.256 1_545 S
C50 O65 1.257 . S
C51 O66 1.240 . S
C51 O67 1.240 . S
C52 Gd41 2.818 . S
C52 C53 1.510 . S
C52 O68 1.249 . S
C52 O69 1.252 . S
C53 C52 1.510 . S
C53 C54 1.404 . S
C53 C55 1.352 . S
C54 C53 1.404 . S
C54 C58 1.389 . S
C54 H76 0.930 . S
C55 C53 1.352 . S
C55 C57 1.374 . S
C55 H77 0.931 . S
C56 C57 1.359 . S
C56 C58 1.364 . S
C57 C55 1.374 . S
C57 C56 1.359 . S
C57 H78 0.931 . S
C58 C54 1.389 . S
C58 C56 1.364 . S
C58 H79 0.931 . S
C59 O70 1.256 . S
C59 O71 1.257 . S
O60 Gd40 2.377 . S
O60 C42 1.240 . S
O61 Gd41 2.395 1_565 S
O61 C42 1.240 . S
O62 Gd40 2.448 . S
O62 C43 1.249 . S
O63 Gd40 2.506 . S
O63 C43 1.252 . S
O64 Gd40 2.435 . S
O64 C50 1.256 1_565 S
O65 Gd40 2.717 1_545 S
O65 Gd41 2.327 . S
O65 C50 1.257 . S
O66 Gd41 2.377 . S
O66 C51 1.240 . S
O67 Gd40 2.395 1_545 S
O67 C51 1.240 . S
O68 Gd41 2.448 . S
O68 C52 1.249 . S
O69 Gd41 2.506 . S
O69 C52 1.252 . S
O70 Gd41 2.435 . S
O70 C59 1.256 . S
O71 Gd40 2.327 1_545 S
O71 Gd41 2.717 . S
O71 C59 1.257 . S
H72 C45 0.930 . S
H73 C46 0.931 . S
H74 C48 0.931 . S
H75 C49 0.931 . S
H76 C54 0.930 . S
H77 C55 0.931 . S
H78 C57 0.931 . S
H79 C58 0.931 . S
Gd80 C83 2.818 . S
Gd80 O100 2.377 . S
Gd80 O102 2.448 . S
Gd80 O103 2.506 . S
Gd80 O104 2.435 . S
Gd80 O105 2.717 . S
Gd80 O107 2.395 . S
Gd80 O111 2.327 . S
Gd81 C92 2.818 . S
Gd81 O101 2.395 . S
Gd81 O105 2.327 . S
Gd81 O106 2.377 . S
Gd81 O108 2.448 . S
Gd81 O109 2.506 . S
Gd81 O110 2.435 . S
Gd81 O111 2.717 . S
C82 O100 1.240 . S
C82 O101 1.240 . S
C83 Gd80 2.818 . S
C83 C84 1.510 . S
C83 O102 1.249 . S
C83 O103 1.252 . S
C84 C83 1.510 . S
C84 C85 1.404 . S
C84 C86 1.352 . S
C85 C84 1.404 . S
C85 C89 1.389 . S
C85 H112 0.930 . S
C86 C84 1.352 . S
C86 C88 1.374 . S
C86 H113 0.931 . S
C87 C88 1.359 . S
C87 C89 1.364 . S
C88 C86 1.374 . S
C88 C87 1.359 . S
C88 H114 0.931 . S
C89 C85 1.389 . S
C89 C87 1.364 . S
C89 H115 0.931 . S
C90 O104 1.256 . S
C90 O105 1.257 . S
C91 O106 1.240 . S
C91 O107 1.240 . S
C92 Gd81 2.818 . S
C92 C93 1.510 . S
C92 O108 1.249 . S
C92 O109 1.252 . S
C93 C92 1.510 . S
C93 C94 1.404 . S
C93 C95 1.352 . S
C94 C93 1.404 . S
C94 C98 1.389 . S
C94 H116 0.930 . S
C95 C93 1.352 . S
C95 C97 1.374 . S
C95 H117 0.931 . S
C96 C97 1.359 . S
C96 C98 1.364 . S
C97 C95 1.374 . S
C97 C96 1.359 . S
C97 H118 0.931 . S
C98 C94 1.389 . S
C98 C96 1.364 . S
C98 H119 0.931 . S
C99 O110 1.256 . S
C99 O111 1.257 . S
O100 Gd80 2.377 . S
O100 C82 1.240 . S
O101 Gd81 2.395 . S
O101 C82 1.240 . S
O102 Gd80 2.448 . S
O102 C83 1.249 . S
O103 Gd80 2.506 . S
O103 C83 1.252 . S
O104 Gd80 2.435 . S
O104 C90 1.256 . S
O105 Gd80 2.717 . S
O105 Gd81 2.327 . S
O105 C90 1.257 . S
O106 Gd81 2.377 . S
O106 C91 1.240 . S
O107 Gd80 2.395 . S
O107 C91 1.240 . S
O108 Gd81 2.448 . S
O108 C92 1.249 . S
O109 Gd81 2.506 . S
O109 C92 1.252 . S
O110 Gd81 2.435 . S
O110 C99 1.256 . S
O111 Gd80 2.327 . S
O111 Gd81 2.717 . S
O111 C99 1.257 . S
H112 C85 0.930 . S
H113 C86 0.931 . S
H114 C88 0.931 . S
H115 C89 0.931 . S
H116 C94 0.930 . S
H117 C95 0.931 . S
H118 C97 0.931 . S
H119 C98 0.931 . S
H120 C123 0.931 . S
H121 C126 0.928 . S
H122 C128 0.930 . S
C123 H120 0.931 . S
C123 C124 1.413 . S
C123 C125 1.360 1_565 S
C124 C123 1.413 . S
C124 C128 1.429 1_565 S
C125 C123 1.360 1_545 S
C125 C126 1.372 . S
C126 H121 0.928 . S
C126 C125 1.372 . S
C126 C127 1.404 . S
C127 C126 1.404 . S
C127 C128 1.391 . S
C128 H122 0.930 . S
C128 C124 1.429 1_545 S
C128 C127 1.391 . S
H129 C132 0.931 . S
H130 C135 0.928 . S
H131 C137 0.930 . S
C132 H129 0.931 . S
C132 C133 1.413 . S
C132 C134 1.360 . S
C133 C132 1.413 . S
C133 C137 1.429 . S
C134 C132 1.360 . S
C134 C135 1.372 . S
C135 H130 0.928 . S
C135 C134 1.372 . S
C135 C136 1.404 . S
C136 C135 1.404 . S
C136 C137 1.391 . S
C137 H131 0.930 . S
C137 C133 1.429 . S
C137 C136 1.391 . S
H138 C141 0.931 . S
H139 C144 0.928 . S
H140 C146 0.930 . S
C141 H138 0.931 . S
C141 C142 1.413 . S
C141 C143 1.360 . S
C142 C141 1.413 . S
C142 C146 1.429 . S
C143 C141 1.360 . S
C143 C144 1.372 . S
C144 H139 0.928 . S
C144 C143 1.372 . S
C144 C145 1.404 . S
C145 C144 1.404 . S
C145 C146 1.391 . S
C146 H140 0.930 . S
C146 C142 1.429 . S
C146 C145 1.391 . S
H147 C150 0.931 . S
H148 C153 0.928 . S
H149 C155 0.930 . S
C150 H147 0.931 . S
C150 C151 1.413 . S
C150 C152 1.360 1_655 S
C151 C150 1.413 . S
C151 C155 1.429 1_655 S
C152 C150 1.360 1_455 S
C152 C153 1.371 . S
C153 H148 0.928 . S
C153 C152 1.371 . S
C153 C154 1.404 . S
C154 C153 1.404 . S
C154 C155 1.391 . S
C155 H149 0.930 . S
C155 C151 1.429 1_455 S
C155 C154 1.391 . S
H156 C159 0.931 . S
H157 C162 0.928 . S
H158 C164 0.930 . S
C159 H156 0.931 . S
C159 C160 1.413 . S
C159 C161 1.360 1_545 S
C160 C159 1.413 . S
C160 C164 1.429 . S
C161 C159 1.360 1_565 S
C161 C162 1.372 . S
C162 H157 0.928 . S
C162 C161 1.372 . S
C162 C163 1.404 . S
C163 C162 1.404 . S
C163 C164 1.391 1_565 S
C164 H158 0.930 . S
C164 C160 1.429 . S
C164 C163 1.391 1_545 S
H165 C168 0.931 . S
H166 C171 0.928 . S
H167 C173 0.930 . S
C168 H165 0.931 . S
C168 C169 1.413 . S
C168 C170 1.360 . S
C169 C168 1.413 . S
C169 C173 1.429 . S
C170 C168 1.360 . S
C170 C171 1.372 . S
C171 H166 0.928 . S
C171 C170 1.372 . S
C171 C172 1.404 . S
C172 C171 1.404 . S
C172 C173 1.391 . S
C173 H167 0.930 . S
C173 C169 1.429 . S
C173 C172 1.391 . S
H174 C180 0.930 . S
H175 C184 0.930 . S
H176 C189 0.929 . S
H177 C187 0.929 . S
H178 C182 0.929 . S
H179 C188 0.929 . S
C180 H174 0.930 . S
C180 C181 1.367 . S
C180 C188 1.378 . S
C181 C180 1.367 . S
C181 C189 1.433 . S
C182 H178 0.929 . S
C182 C184 1.378 . S
C182 C186 1.350 . S
C183 C186 1.463 . S
C183 C188 1.350 . S
C183 N191 1.427 . S
C184 H175 0.930 . S
C184 C182 1.378 . S
C184 C185 1.367 . S
C185 C184 1.367 . S
C185 C187 1.433 . S
C186 C182 1.350 . S
C186 C183 1.463 . S
C186 N190 1.427 . S
C187 H177 0.929 . S
C187 C185 1.433 . S
C187 N190 1.384 . S
C188 H179 0.929 . S
C188 C180 1.378 . S
C188 C183 1.350 . S
C189 H176 0.929 . S
C189 C181 1.433 . S
C189 N191 1.384 . S
N190 C186 1.427 . S
N190 C187 1.384 . S
N191 C183 1.427 . S
N191 C189 1.384 . S
H192 C198 0.930 . S
H193 C202 0.930 . S
H194 C207 0.929 . S
H195 C205 0.929 . S
H196 C200 0.929 . S
H197 C206 0.929 . S
C198 H192 0.930 . S
C198 C199 1.367 . S
C198 C206 1.378 . S
C199 C198 1.367 . S
C199 C207 1.433 . S
C200 H196 0.929 . S
C200 C202 1.378 . S
C200 C204 1.350 . S
C201 C204 1.463 . S
C201 C206 1.350 . S
C201 N209 1.427 . S
C202 H193 0.930 . S
C202 C200 1.378 . S
C202 C203 1.367 . S
C203 C202 1.367 . S
C203 C205 1.433 . S
C204 C200 1.350 . S
C204 C201 1.463 . S
C204 N208 1.427 . S
C205 H195 0.929 . S
C205 C203 1.433 . S
C205 N208 1.384 . S
C206 H197 0.929 . S
C206 C198 1.378 . S
C206 C201 1.350 . S
C207 H194 0.929 . S
C207 C199 1.433 . S
C207 N209 1.384 . S
N208 C204 1.427 . S
N208 C205 1.384 . S
N209 C201 1.427 . S
N209 C207 1.384 . S
H210 C216 0.930 . S
H211 C220 0.930 1_545 S
H212 C225 0.929 . S
H213 C223 0.929 . S
H214 C218 0.929 . S
H215 C224 0.929 . S
C216 H210 0.930 . S
C216 C217 1.367 . S
C216 C224 1.378 . S
C217 C216 1.367 . S
C217 C225 1.433 . S
C218 H214 0.929 . S
C218 C220 1.378 . S
C218 C222 1.350 . S
C219 C222 1.463 . S
C219 C224 1.350 . S
C219 N227 1.427 . S
C220 H211 0.930 1_565 S
C220 C218 1.378 . S
C220 C221 1.367 . S
C221 C220 1.367 . S
C221 C223 1.433 . S
C222 C218 1.350 . S
C222 C219 1.463 . S
C222 N226 1.427 . S
C223 H213 0.929 . S
C223 C221 1.433 . S
C223 N226 1.384 . S
C224 H215 0.929 . S
C224 C216 1.378 . S
C224 C219 1.350 . S
C225 H212 0.929 . S
C225 C217 1.433 . S
C225 N227 1.384 . S
N226 C222 1.427 . S
N226 C223 1.384 . S
N227 C219 1.427 . S
N227 C225 1.384 . S
H228 C234 0.930 . S
H229 C238 0.930 . S
H230 C243 0.929 . S
H231 C241 0.929 . S
H232 C236 0.929 . S
H233 C242 0.929 . S
C234 H228 0.930 . S
C234 C235 1.367 . S
C234 C242 1.378 . S
C235 C234 1.367 . S
C235 C243 1.433 . S
C236 H232 0.929 . S
C236 C238 1.378 . S
C236 C240 1.350 . S
C237 C240 1.463 . S
C237 C242 1.350 . S
C237 N245 1.427 . S
C238 H229 0.930 . S
C238 C236 1.378 . S
C238 C239 1.367 . S
C239 C238 1.367 . S
C239 C241 1.433 . S
C240 C236 1.350 . S
C240 C237 1.463 . S
C240 N244 1.427 . S
C241 H231 0.929 . S
C241 C239 1.433 . S
C241 N244 1.384 . S
C242 H233 0.929 . S
C242 C234 1.378 . S
C242 C237 1.350 . S
C243 H230 0.929 . S
C243 C235 1.433 . S
C243 N245 1.384 . S
N244 C240 1.427 . S
N244 C241 1.384 . S
N245 C237 1.427 . S
N245 C243 1.384 . S
H246 C252 0.930 . S
H247 C256 0.930 . S
H248 C261 0.929 . S
H249 C259 0.929 . S
H250 C254 0.929 . S
H251 C260 0.929 . S
C252 H246 0.930 . S
C252 C253 1.367 . S
C252 C260 1.378 . S
C253 C252 1.367 . S
C253 C261 1.433 . S
C254 H250 0.929 . S
C254 C256 1.378 . S
C254 C258 1.350 . S
C255 C258 1.463 . S
C255 C260 1.350 . S
C255 N263 1.427 . S
C256 H247 0.930 . S
C256 C254 1.378 . S
C256 C257 1.367 . S
C257 C256 1.367 . S
C257 C259 1.433 . S
C258 C254 1.350 . S
C258 C255 1.463 . S
C258 N262 1.427 . S
C259 H249 0.929 . S
C259 C257 1.433 . S
C259 N262 1.384 . S
C260 H251 0.929 . S
C260 C252 1.378 . S
C260 C255 1.350 . S
C261 H248 0.929 . S
C261 C253 1.433 . S
C261 N263 1.384 . S
N262 C258 1.427 . S
N262 C259 1.384 . S
N263 C255 1.427 . S
N263 C261 1.384 . S
H264 C270 0.930 . S
H265 C274 0.930 . S
H266 C279 0.929 . S
H267 C277 0.929 . S
H268 C272 0.929 . S
H269 C278 0.929 . S
C270 H264 0.930 . S
C270 C271 1.367 . S
C270 C278 1.378 . S
C271 C270 1.367 . S
C271 C279 1.433 . S
C272 H268 0.929 . S
C272 C274 1.378 . S
C272 C276 1.350 . S
C273 C276 1.463 . S
C273 C278 1.350 . S
C273 N281 1.427 . S
C274 H265 0.930 . S
C274 C272 1.378 . S
C274 C275 1.367 . S
C275 C274 1.367 . S
C275 C277 1.433 . S
C276 C272 1.350 . S
C276 C273 1.463 . S
C276 N280 1.427 . S
C277 H267 0.929 . S
C277 C275 1.433 . S
C277 N280 1.384 . S
C278 H269 0.929 . S
C278 C270 1.378 . S
C278 C273 1.350 . S
C279 H266 0.929 . S
C279 C271 1.433 . S
C279 N281 1.384 . S
N280 C276 1.427 . S
N280 C277 1.384 . S
N281 C273 1.427 . S
N281 C279 1.384 . S
H282 C288 0.930 . S
H283 C292 0.930 . S
H284 C297 0.929 . S
H285 C295 0.929 . S
H286 C290 0.929 . S
H287 C296 0.929 . S
C288 H282 0.930 . S
C288 C289 1.367 . S
C288 C296 1.378 . S
C289 C288 1.367 . S
C289 C297 1.433 . S
C290 H286 0.929 . S
C290 C292 1.378 . S
C290 C294 1.350 . S
C291 C294 1.463 . S
C291 C296 1.350 . S
C291 N299 1.427 . S
C292 H283 0.930 . S
C292 C290 1.378 . S
C292 C293 1.367 . S
C293 C292 1.367 . S
C293 C295 1.433 . S
C294 C290 1.350 . S
C294 C291 1.463 . S
C294 N298 1.427 . S
C295 H285 0.929 . S
C295 C293 1.433 . S
C295 N298 1.384 . S
C296 H287 0.929 . S
C296 C288 1.378 . S
C296 C291 1.350 . S
C297 H284 0.929 . S
C297 C289 1.433 . S
C297 N299 1.384 . S
N298 C294 1.427 . S
N298 C295 1.384 . S
N299 C291 1.427 . S
N299 C297 1.384 . S
H300 C306 0.930 . S
H301 C310 0.930 . S
H302 C315 0.929 . S
H303 C313 0.929 . S
H304 C308 0.929 . S
H305 C314 0.929 . S
C306 H300 0.930 . S
C306 C307 1.367 . S
C306 C314 1.378 . S
C307 C306 1.367 . S
C307 C315 1.433 . S
C308 H304 0.929 . S
C308 C310 1.378 . S
C308 C312 1.350 . S
C309 C312 1.463 . S
C309 C314 1.350 . S
C309 N317 1.427 . S
C310 H301 0.930 . S
C310 C308 1.378 . S
C310 C311 1.367 . S
C311 C310 1.367 . S
C311 C313 1.433 . S
C312 C308 1.350 . S
C312 C309 1.463 . S
C312 N316 1.427 . S
C313 H303 0.929 . S
C313 C311 1.433 . S
C313 N316 1.384 . S
C314 H305 0.929 . S
C314 C306 1.378 . S
C314 C309 1.350 . S
C315 H302 0.929 . S
C315 C307 1.433 . S
C315 N317 1.384 . S
N316 C312 1.427 . S
N316 C313 1.384 . S
N317 C309 1.427 . S
N317 C315 1.384 . S
H318 C324 0.930 . S
H319 C328 0.930 . S
H320 C333 0.929 . S
H321 C331 0.929 . S
H322 C326 0.929 . S
H323 C332 0.929 . S
C324 H318 0.930 . S
C324 C325 1.367 . S
C324 C332 1.378 . S
C325 C324 1.367 . S
C325 C333 1.433 . S
C326 H322 0.929 . S
C326 C328 1.378 . S
C326 C330 1.350 . S
C327 C330 1.463 . S
C327 C332 1.350 . S
C327 N335 1.427 . S
C328 H319 0.930 . S
C328 C326 1.378 . S
C328 C329 1.367 . S
C329 C328 1.367 . S
C329 C331 1.433 . S
C330 C326 1.350 . S
C330 C327 1.463 . S
C330 N334 1.427 . S
C331 H321 0.929 . S
C331 C329 1.433 . S
C331 N334 1.384 . S
C332 H323 0.929 . S
C332 C324 1.378 . S
C332 C327 1.350 . S
C333 H320 0.929 . S
C333 C325 1.433 . S
C333 N335 1.384 . S
N334 C330 1.427 . S
N334 C331 1.384 . S
N335 C327 1.427 . S
N335 C333 1.384 . S
H336 C342 0.930 . S
H337 C346 0.930 . S
H338 C351 0.929 . S
H339 C349 0.929 . S
H340 C344 0.929 . S
H341 C350 0.929 . S
C342 H336 0.930 . S
C342 C343 1.367 . S
C342 C350 1.378 . S
C343 C342 1.367 . S
C343 C351 1.433 . S
C344 H340 0.929 . S
C344 C346 1.378 . S
C344 C348 1.350 . S
C345 C348 1.463 . S
C345 C350 1.350 . S
C345 N353 1.427 . S
C346 H337 0.930 . S
C346 C344 1.378 . S
C346 C347 1.367 . S
C347 C346 1.367 . S
C347 C349 1.433 . S
C348 C344 1.350 . S
C348 C345 1.463 . S
C348 N352 1.427 . S
C349 H339 0.929 . S
C349 C347 1.433 . S
C349 N352 1.384 . S
C350 H341 0.929 . S
C350 C342 1.378 . S
C350 C345 1.350 . S
C351 H338 0.929 . S
C351 C343 1.433 . S
C351 N353 1.384 . S
N352 C348 1.427 . S
N352 C349 1.384 . S
N353 C345 1.427 . S
N353 C351 1.384 . S
H354 C360 0.930 . S
H355 C364 0.930 . S
H356 C369 0.929 . S
H357 C367 0.929 . S
H358 C362 0.929 . S
H359 C368 0.929 . S
C360 H354 0.930 . S
C360 C361 1.367 . S
C360 C368 1.378 . S
C361 C360 1.367 . S
C361 C369 1.433 . S
C362 H358 0.929 . S
C362 C364 1.378 . S
C362 C366 1.350 . S
C363 C366 1.463 . S
C363 C368 1.350 . S
C363 N371 1.427 . S
C364 H355 0.930 . S
C364 C362 1.378 . S
C364 C365 1.367 . S
C365 C364 1.367 . S
C365 C367 1.433 . S
C366 C362 1.350 . S
C366 C363 1.463 . S
C366 N370 1.427 . S
C367 H357 0.929 . S
C367 C365 1.433 . S
C367 N370 1.384 . S
C368 H359 0.929 . S
C368 C360 1.378 . S
C368 C363 1.350 . S
C369 H356 0.929 . S
C369 C361 1.433 . S
C369 N371 1.384 . S
N370 C366 1.427 . S
N370 C367 1.384 . S
N371 C363 1.427 . S
N371 C369 1.384 . S
H372 C378 0.930 . S
H373 C382 0.930 . S
H374 C387 0.929 . S
H375 C385 0.929 . S
H376 C380 0.929 . S
H377 C386 0.929 . S
C378 H372 0.930 . S
C378 C379 1.367 . S
C378 C386 1.378 . S
C379 C378 1.367 . S
C379 C387 1.433 . S
C380 H376 0.929 . S
C380 C382 1.378 . S
C380 C384 1.350 . S
C381 C384 1.463 . S
C381 C386 1.350 . S
C381 N389 1.427 . S
C382 H373 0.930 . S
C382 C380 1.378 . S
C382 C383 1.367 . S
C383 C382 1.367 . S
C383 C385 1.433 . S
C384 C380 1.350 . S
C384 C381 1.463 . S
C384 N388 1.427 . S
C385 H375 0.929 . S
C385 C383 1.433 . S
C385 N388 1.384 . S
C386 H377 0.929 . S
C386 C378 1.378 . S
C386 C381 1.350 . S
C387 H374 0.929 . S
C387 C379 1.433 . S
C387 N389 1.384 . S
N388 C384 1.427 . S
N388 C385 1.384 . S
N389 C381 1.427 . S
N389 C387 1.384 . S
H390 C396 0.930 . S
H391 C400 0.930 . S
H392 C405 0.929 . S
H393 C403 0.929 1_655 S
H394 C398 0.929 1_554 S
H395 C404 0.929 1_655 S
C396 H390 0.930 . S
C396 C397 1.367 1_655 S
C396 C404 1.378 1_655 S
C397 C396 1.367 1_455 S
C397 C405 1.433 . S
C398 H394 0.929 1_556 S
C398 C400 1.378 . S
C398 C402 1.350 1_556 S
C399 C402 1.463 . S
C399 C404 1.350 . S
C399 N407 1.427 . S
C400 H391 0.930 . S
C400 C398 1.378 . S
C400 C401 1.367 . S
C401 C400 1.367 . S
C401 C403 1.433 . S
C402 C398 1.350 1_554 S
C402 C399 1.463 . S
C402 N406 1.427 1_554 S
C403 H393 0.929 1_455 S
C403 C401 1.433 . S
C403 N406 1.384 . S
C404 H395 0.929 1_455 S
C404 C396 1.378 1_455 S
C404 C399 1.350 . S
C405 H392 0.929 . S
C405 C397 1.433 . S
C405 N407 1.384 . S
N406 C402 1.427 1_556 S
N406 C403 1.384 . S
N407 C399 1.427 . S
N407 C405 1.384 . S
H408 C414 0.930 . S
H409 C418 0.930 . S
H410 C423 0.929 . S
H411 C421 0.929 . S
H412 C416 0.929 . S
H413 C422 0.929 . S
C414 H408 0.930 . S
C414 C415 1.367 1_565 S
C414 C422 1.378 . S
C415 C414 1.367 1_545 S
C415 C423 1.433 . S
C416 H412 0.929 . S
C416 C418 1.378 . S
C416 C420 1.350 . S
C417 C420 1.463 . S
C417 C422 1.350 1_545 S
C417 N425 1.427 . S
C418 H409 0.930 . S
C418 C416 1.378 . S
C418 C419 1.367 . S
C419 C418 1.367 . S
C419 C421 1.433 1_545 S
C420 C416 1.350 . S
C420 C417 1.463 . S
C420 N424 1.427 1_545 S
C421 H411 0.929 . S
C421 C419 1.433 1_565 S
C421 N424 1.384 . S
C422 H413 0.929 . S
C422 C414 1.378 . S
C422 C417 1.350 1_565 S
C423 H410 0.929 . S
C423 C415 1.433 . S
C423 N425 1.384 . S
N424 C420 1.427 1_565 S
N424 C421 1.384 . S
N425 C417 1.427 . S
N425 C423 1.384 . S
H426 C432 0.930 . S
H427 C436 0.930 . S
H428 C441 0.929 . S
H429 C439 0.929 . S
H430 C434 0.929 . S
H431 C440 0.929 . S
C432 H426 0.930 . S
C432 C433 1.367 . S
C432 C440 1.378 . S
C433 C432 1.367 . S
C433 C441 1.433 . S
C434 H430 0.929 . S
C434 C436 1.378 . S
C434 C438 1.350 . S
C435 C438 1.463 . S
C435 C440 1.350 . S
C435 N443 1.427 . S
C436 H427 0.930 . S
C436 C434 1.378 . S
C436 C437 1.367 . S
C437 C436 1.367 . S
C437 C439 1.433 . S
C438 C434 1.350 . S
C438 C435 1.463 . S
C438 N442 1.427 . S
C439 H429 0.929 . S
C439 C437 1.433 . S
C439 N442 1.384 . S
C440 H431 0.929 . S
C440 C432 1.378 . S
C440 C435 1.350 . S
C441 H428 0.929 . S
C441 C433 1.433 . S
C441 N443 1.384 . S
N442 C438 1.427 . S
N442 C439 1.384 . S
N443 C435 1.427 . S
N443 C441 1.384 . S
H444 C450 0.930 . S
H445 C454 0.930 . S
H446 C459 0.929 . S
H447 C457 0.929 . S
H448 C452 0.929 . S
H449 C458 0.929 . S
C450 H444 0.930 . S
C450 C451 1.367 . S
C450 C458 1.378 . S
C451 C450 1.367 . S
C451 C459 1.433 1_545 S
C452 H448 0.929 . S
C452 C454 1.378 . S
C452 C456 1.354 1_565 S
C453 C456 1.464 . S
C453 C458 1.350 . S
C453 N461 1.427 1_545 S
C454 H445 0.930 . S
C454 C452 1.378 . S
C454 C455 1.367 . S
C455 C454 1.367 . S
C455 C457 1.433 1_565 S
C456 C452 1.354 1_545 S
C456 C453 1.464 . S
C456 N460 1.421 . S
C457 H447 0.929 . S
C457 C455 1.433 1_545 S
C457 N460 1.384 . S
C458 H449 0.929 . S
C458 C450 1.378 . S
C458 C453 1.350 . S
C459 H446 0.929 . S
C459 C451 1.433 1_565 S
C459 N461 1.384 . S
N460 C456 1.421 . S
N460 C457 1.384 . S
N461 C453 1.427 1_565 S
N461 C459 1.384 . S
H462 C468 0.930 . S
H463 C472 0.930 . S
H464 C477 0.929 . S
H465 C475 0.929 . S
H466 C470 0.929 . S
H467 C476 0.929 . S
C468 H462 0.930 . S
C468 C469 1.367 . S
C468 C476 1.378 . S
C469 C468 1.367 . S
C469 C477 1.433 . S
C470 H466 0.929 . S
C470 C472 1.378 1_556 S
C470 C474 1.350 . S
C471 C474 1.463 . S
C471 C476 1.350 . S
C471 N479 1.427 . S
C472 H463 0.930 . S
C472 C470 1.378 1_554 S
C472 C473 1.367 . S
C473 C472 1.367 . S
C473 C475 1.433 . S
C474 C470 1.350 . S
C474 C471 1.463 . S
C474 N478 1.412 1_556 S
C475 H465 0.929 . S
C475 C473 1.433 . S
C475 N478 1.407 . S
C476 H467 0.929 . S
C476 C468 1.378 . S
C476 C471 1.350 . S
C477 H464 0.929 . S
C477 C469 1.433 . S
C477 N479 1.384 . S
N478 C474 1.412 1_554 S
N478 C475 1.407 . S
N479 C471 1.427 . S
N479 C477 1.384 . S
H480 C486 0.930 . S
H481 C490 0.930 . S
H482 C495 0.929 . S
H483 C493 0.929 . S
H484 C488 0.929 . S
H485 C494 0.929 1_655 S
C486 H480 0.930 . S
C486 C487 1.367 . S
C486 C494 1.378 . S
C487 C486 1.367 . S
C487 C495 1.433 . S
C488 H484 0.929 . S
C488 C490 1.378 . S
C488 C492 1.350 . S
C489 C492 1.463 . S
C489 C494 1.350 . S
C489 N497 1.427 . S
C490 H481 0.930 . S
C490 C488 1.378 . S
C490 C491 1.358 . S
C491 C490 1.358 . S
C491 C493 1.444 1_455 S
C492 C488 1.350 . S
C492 C489 1.463 . S
C492 N496 1.427 1_455 S
C493 H483 0.929 . S
C493 C491 1.444 1_655 S
C493 N496 1.384 . S
C494 H485 0.929 1_455 S
C494 C486 1.378 . S
C494 C489 1.350 . S
C495 H482 0.929 . S
C495 C487 1.433 . S
C495 N497 1.384 . S
N496 C492 1.427 1_655 S
N496 C493 1.384 . S
N497 C489 1.427 . S
N497 C495 1.384 . S
C181 C7 0.780 . S
C185 C169 0.772 . S
C199 C51 1.813 . S
C203 C151 1.793 . S
C217 C87 1.318 . S
C221 C163 1.372 . S
C235 C16 0.606 . S
C239 C172 0.557 . S
C257 C154 1.841 . S
C253 C42 1.854 . S
C275 C160 1.412 . S
C271 C96 1.386 . S
C289 C47 1.266 . S
C293 C133 1.307 . S
C307 C91 2.993 . S
C311 C142 2.957 1_655 S
C325 C2 1.896 . S
C329 C124 1.896 . S
C347 C136 1.411 . S
C343 C56 1.360 . S
C365 C145 2.880 . S
C361 C82 2.889 . S
C379 C11 1.800 . S
C383 C127 1.784 . S
C401 C143 1.790 . S
C397 C19 1.718 . S
C415 C50 1.326 . S
C419 C125 1.367 . S
C433 C99 1.460 . S
C437 C134 1.511 . S
C455 C161 1.481 . S
C451 C59 1.443 . S
C473 C170 1.075 . S
C469 C90 1.054 . S
C487 C10 1.311 . S
C491 C152 1.351 . S
