# Generated by pormake.
# Topology ctn, (3,4)-cn, num edge types: 1
# Building blocks:
#     Node 0, Type 0, BuildingBlock: MIDCAF_clean_linker_0, # of connection points: 3
#     Node 1, Type 0, BuildingBlock: MIDCAF_clean_linker_0, # of connection points: 3
#     Node 2, Type 0, BuildingBlock: MIDCAF_clean_linker_0, # of connection points: 3
#     Node 3, Type 0, BuildingBlock: MIDCAF_clean_linker_0, # of connection points: 3
#     Node 4, Type 0, BuildingBlock: MIDCAF_clean_linker_0, # of connection points: 3
#     Node 5, Type 0, BuildingBlock: MIDCAF_clean_linker_0, # of connection points: 3
#     Node 6, Type 0, BuildingBlock: MIDCAF_clean_linker_0, # of connection points: 3
#     Node 7, Type 0, BuildingBlock: MIDCAF_clean_linker_0, # of connection points: 3
#     Node 8, Type 0, BuildingBlock: MIDCAF_clean_linker_0, # of connection points: 3
#     Node 9, Type 0, BuildingBlock: MIDCAF_clean_linker_0, # of connection points: 3
#     Node 10, Type 0, BuildingBlock: MIDCAF_clean_linker_0, # of connection points: 3
#     Node 11, Type 0, BuildingBlock: MIDCAF_clean_linker_0, # of connection points: 3
#     Node 12, Type 0, BuildingBlock: MIDCAF_clean_linker_0, # of connection points: 3
#     Node 13, Type 0, BuildingBlock: MIDCAF_clean_linker_0, # of connection points: 3
#     Node 14, Type 0, BuildingBlock: MIDCAF_clean_linker_0, # of connection points: 3
#     Node 15, Type 0, BuildingBlock: MIDCAF_clean_linker_0, # of connection points: 3
#     Node 16, Type 1, BuildingBlock: NAHDIM_clean_sbu_0, # of connection points: 4
#     Node 17, Type 1, BuildingBlock: NAHDIM_clean_sbu_0, # of connection points: 4
#     Node 18, Type 1, BuildingBlock: NAHDIM_clean_sbu_0, # of connection points: 4
#     Node 19, Type 1, BuildingBlock: NAHDIM_clean_sbu_0, # of connection points: 4
#     Node 20, Type 1, BuildingBlock: NAHDIM_clean_sbu_0, # of connection points: 4
#     Node 21, Type 1, BuildingBlock: NAHDIM_clean_sbu_0, # of connection points: 4
#     Node 22, Type 1, BuildingBlock: NAHDIM_clean_sbu_0, # of connection points: 4
#     Node 23, Type 1, BuildingBlock: NAHDIM_clean_sbu_0, # of connection points: 4
#     Node 24, Type 1, BuildingBlock: NAHDIM_clean_sbu_0, # of connection points: 4
#     Node 25, Type 1, BuildingBlock: NAHDIM_clean_sbu_0, # of connection points: 4
#     Node 26, Type 1, BuildingBlock: NAHDIM_clean_sbu_0, # of connection points: 4
#     Node 27, Type 1, BuildingBlock: NAHDIM_clean_sbu_0, # of connection points: 4
#     Edge 28, Type (0, 1), BuildingBlock: XIVTED_clean_linker_0, # of connection points: 2
#     Edge 29, Type (0, 1), BuildingBlock: XIVTED_clean_linker_0, # of connection points: 2
#     Edge 30, Type (0, 1), BuildingBlock: XIVTED_clean_linker_0, # of connection points: 2
#     Edge 31, Type (0, 1), BuildingBlock: XIVTED_clean_linker_0, # of connection points: 2
#     Edge 32, Type (0, 1), BuildingBlock: XIVTED_clean_linker_0, # of connection points: 2
#     Edge 33, Type (0, 1), BuildingBlock: XIVTED_clean_linker_0, # of connection points: 2
#     Edge 34, Type (0, 1), BuildingBlock: XIVTED_clean_linker_0, # of connection points: 2
#     Edge 35, Type (0, 1), BuildingBlock: XIVTED_clean_linker_0, # of connection points: 2
#     Edge 36, Type (0, 1), BuildingBlock: XIVTED_clean_linker_0, # of connection points: 2
#     Edge 37, Type (0, 1), BuildingBlock: XIVTED_clean_linker_0, # of connection points: 2
#     Edge 38, Type (0, 1), BuildingBlock: XIVTED_clean_linker_0, # of connection points: 2
#     Edge 39, Type (0, 1), BuildingBlock: XIVTED_clean_linker_0, # of connection points: 2
#     Edge 40, Type (0, 1), BuildingBlock: XIVTED_clean_linker_0, # of connection points: 2
#     Edge 41, Type (0, 1), BuildingBlock: XIVTED_clean_linker_0, # of connection points: 2
#     Edge 42, Type (0, 1), BuildingBlock: XIVTED_clean_linker_0, # of connection points: 2
#     Edge 43, Type (0, 1), BuildingBlock: XIVTED_clean_linker_0, # of connection points: 2
#     Edge 44, Type (0, 1), BuildingBlock: XIVTED_clean_linker_0, # of connection points: 2
#     Edge 45, Type (0, 1), BuildingBlock: XIVTED_clean_linker_0, # of connection points: 2
#     Edge 46, Type (0, 1), BuildingBlock: XIVTED_clean_linker_0, # of connection points: 2
#     Edge 47, Type (0, 1), BuildingBlock: XIVTED_clean_linker_0, # of connection points: 2
#     Edge 48, Type (0, 1), BuildingBlock: XIVTED_clean_linker_0, # of connection points: 2
#     Edge 49, Type (0, 1), BuildingBlock: XIVTED_clean_linker_0, # of connection points: 2
#     Edge 50, Type (0, 1), BuildingBlock: XIVTED_clean_linker_0, # of connection points: 2
#     Edge 51, Type (0, 1), BuildingBlock: XIVTED_clean_linker_0, # of connection points: 2
#     Edge 52, Type (0, 1), BuildingBlock: XIVTED_clean_linker_0, # of connection points: 2
#     Edge 53, Type (0, 1), BuildingBlock: XIVTED_clean_linker_0, # of connection points: 2
#     Edge 54, Type (0, 1), BuildingBlock: XIVTED_clean_linker_0, # of connection points: 2
#     Edge 55, Type (0, 1), BuildingBlock: XIVTED_clean_linker_0, # of connection points: 2
#     Edge 56, Type (0, 1), BuildingBlock: XIVTED_clean_linker_0, # of connection points: 2
#     Edge 57, Type (0, 1), BuildingBlock: XIVTED_clean_linker_0, # of connection points: 2
#     Edge 58, Type (0, 1), BuildingBlock: XIVTED_clean_linker_0, # of connection points: 2
#     Edge 59, Type (0, 1), BuildingBlock: XIVTED_clean_linker_0, # of connection points: 2
#     Edge 60, Type (0, 1), BuildingBlock: XIVTED_clean_linker_0, # of connection points: 2
#     Edge 61, Type (0, 1), BuildingBlock: XIVTED_clean_linker_0, # of connection points: 2
#     Edge 62, Type (0, 1), BuildingBlock: XIVTED_clean_linker_0, # of connection points: 2
#     Edge 63, Type (0, 1), BuildingBlock: XIVTED_clean_linker_0, # of connection points: 2
#     Edge 64, Type (0, 1), BuildingBlock: XIVTED_clean_linker_0, # of connection points: 2
#     Edge 65, Type (0, 1), BuildingBlock: XIVTED_clean_linker_0, # of connection points: 2
#     Edge 66, Type (0, 1), BuildingBlock: XIVTED_clean_linker_0, # of connection points: 2
#     Edge 67, Type (0, 1), BuildingBlock: XIVTED_clean_linker_0, # of connection points: 2
#     Edge 68, Type (0, 1), BuildingBlock: XIVTED_clean_linker_0, # of connection points: 2
#     Edge 69, Type (0, 1), BuildingBlock: XIVTED_clean_linker_0, # of connection points: 2
#     Edge 70, Type (0, 1), BuildingBlock: XIVTED_clean_linker_0, # of connection points: 2
#     Edge 71, Type (0, 1), BuildingBlock: XIVTED_clean_linker_0, # of connection points: 2
#     Edge 72, Type (0, 1), BuildingBlock: XIVTED_clean_linker_0, # of connection points: 2
#     Edge 73, Type (0, 1), BuildingBlock: XIVTED_clean_linker_0, # of connection points: 2
#     Edge 74, Type (0, 1), BuildingBlock: XIVTED_clean_linker_0, # of connection points: 2
#     Edge 75, Type (0, 1), BuildingBlock: XIVTED_clean_linker_0, # of connection points: 2
# Relax obj value: 0.002
# Max RMSD: 0.033
# Mean RMSD: 0.016
data_MOF--net-ctn--node1-NAHDIM_clean_sbu_0--node2-MIDCAF_clean_linker_0--edge1-XIVTED_clean_linker_0
_symmetry_space_group_name_H-M    P1
_symmetry_Int_Tables_number       1
_symmetry_cell_setting            triclinic
loop_
_symmetry_equiv_pos_as_xyz
'x, y, z'
_cell_length_a     67.621719
_cell_length_b     67.98985
_cell_length_c     67.389433
_cell_angle_alpha  91.138378
_cell_angle_beta   89.972777
_cell_angle_gamma 92.227352
loop_
_atom_site_label
_atom_site_type_symbol
_atom_site_fract_x
_atom_site_fract_y
_atom_site_fract_z
_atom_type_partial_charge
C0 C 0.98331 0.05375 0.09082 0.0
C1 C 0.98523 0.03772 0.10343 0.0
C2 C -0.00045 0.02385 0.09896 0.0
C3 C 0.01175 0.02604 0.08236 0.0
H4 H 0.05965 0.00252 0.05474 0.0
H5 H 0.08799 0.98187 0.05051 0.0
H6 H 0.10889 0.01796 0.00217 0.0
H7 H 0.08032 0.03832 0.00601 0.0
H8 H 0.05066 0.06833 0.98774 0.0
H9 H 0.0448 0.09436 0.96443 0.0
H10 H -0.00034 0.11685 0.00318 0.0
H11 H 0.0051 0.09058 0.02624 0.0
H12 H 0.99363 0.06853 0.06489 0.0
H13 H 0.97263 0.06485 0.09398 0.0
H14 H 0.00121 0.01115 0.10818 0.0
H15 H 0.0226 0.01505 0.07939 0.0
N16 N 0.03837 0.0326 0.04937 0.0
N17 N 0.04724 0.04942 0.02046 0.0
N18 N 0.01985 0.05899 0.03911 0.0
C19 C 0.0506 0.03494 0.03352 0.0
C20 C 0.03187 0.06148 0.02314 0.0
C21 C 0.02297 0.04456 0.05228 0.0
C22 C 0.06767 0.02213 0.03073 0.0
C23 C 0.07025 0.00606 0.04317 0.0
C24 C 0.08658 0.99426 0.04082 0.0
C25 C 0.10076 -0.00171 0.02604 0.0
C26 C 0.09811 0.01427 0.01353 0.0
C27 C 0.08175 0.02603 0.01581 0.0
C28 C 0.02835 0.07731 0.0089 0.0
C29 C 0.03946 0.0788 0.99131 0.0
C30 C 0.03618 0.0938 0.97796 0.0
C31 C 0.02177 0.10771 0.98192 0.0
C32 C 0.01066 0.10621 -0.0005 0.0
C33 C 0.01388 0.09118 0.01281 0.0
C34 C 0.00987 0.04211 0.06977 0.0
C35 C 0.99545 0.0559 0.07417 0.0
C36 C 0.24318 0.64943 0.23887 0.0
C37 C 0.22954 0.64444 0.22368 0.0
C38 C 0.22943 0.65602 0.20663 0.0
C39 C 0.24259 0.67224 0.20484 0.0
H40 H 0.25106 0.72432 0.17397 0.0
H41 H 0.24816 0.74725 0.14679 0.0
H42 H 0.30458 0.77494 0.16294 0.0
H43 H 0.30764 0.75207 0.18995 0.0
H44 H 0.32413 0.74507 0.23226 0.0
H45 H 0.35105 0.75088 0.25572 0.0
H46 H 0.33487 0.69658 0.28485 0.0
H47 H 0.30795 0.6905 0.26115 0.0
H48 H 0.26664 0.66903 0.24909 0.0
H49 H 0.24348 0.64102 0.25233 0.0
H50 H 0.21933 0.65242 0.19451 0.0
H51 H 0.2421 0.68077 0.19146 0.0
N52 N 0.26856 0.70693 0.20276 0.0
N53 N 0.29591 0.72584 0.21458 0.0
N54 N 0.28489 0.69785 0.2317 0.0
C55 C 0.28136 0.72267 0.20089 0.0
C56 C 0.29779 0.71355 0.23002 0.0
C57 C 0.27023 0.69443 0.21812 0.0
C58 C 0.27957 0.73634 0.18419 0.0
C59 C 0.26288 0.73525 0.17171 0.0
C60 C 0.26115 0.74844 0.1562 0.0
C61 C 0.27615 0.76286 0.15276 0.0
C62 C 0.29288 0.76384 0.16511 0.0
C63 C 0.29455 0.75079 0.18068 0.0
C64 C 0.31385 0.71726 0.24474 0.0
C65 C 0.32621 0.73433 0.24366 0.0
C66 C 0.34159 0.73777 0.25722 0.0
C67 C 0.34505 0.72422 0.27216 0.0
C68 C 0.33266 0.70721 0.27337 0.0
C69 C 0.31718 0.70378 0.25984 0.0
C70 C 0.25625 0.67723 0.22002 0.0
C71 C 0.25641 0.6656 0.23704 0.0
C72 C 0.00519 0.40901 0.98742 0.0
C73 C 0.99574 0.40685 0.96891 0.0
C74 C 0.98178 0.42056 0.96355 0.0
C75 C 0.97702 0.43587 0.97663 0.0
H76 H 0.93196 0.47382 0.98903 0.0
H77 H 0.90306 0.49315 0.98315 0.0
H78 H 0.91895 0.53092 0.03345 0.0
H79 H 0.94747 0.51131 0.0397 0.0
H80 H 0.97237 0.48935 0.0739 0.0
H81 H 0.98913 0.49297 0.10569 0.0
H82 H 0.03822 0.46092 0.0822 0.0
H83 H 0.02107 0.45662 0.05058 0.0
H84 H 0.00797 0.42545 0.01469 0.0
H85 H 0.01619 0.39879 0.99186 0.0
H86 H 0.97412 0.41916 0.94945 0.0
H87 H 0.96596 0.44598 0.97212 0.0
N88 N 0.9649 0.46484 0.00569 0.0
N89 N 0.96926 0.48128 0.03636 0.0
N90 N 0.99041 0.45623 0.02704 0.0
C91 C 0.95923 0.47881 0.01899 0.0
C92 C 0.98487 0.47009 0.04049 0.0
C93 C 0.98051 0.4535 0.0096 0.0
C94 C 0.94202 0.49093 0.01489 0.0
C95 C 0.92933 0.48627 -0.00118 0.0
C96 C 0.91279 0.49742 0.99538 0.0
C97 C 0.90863 0.51356 0.00787 0.0
C98 C 0.92148 0.51837 0.02377 0.0
C99 C 0.93794 0.50716 0.02727 0.0
C100 C 0.99536 0.47267 0.05968 0.0
C101 C 0.98676 0.48309 0.07548 0.0
C102 C 0.99644 0.48527 0.09372 0.0
C103 C 0.01507 0.47727 0.09656 0.0
C104 C 0.02374 0.46698 0.08068 0.0
C105 C 0.01395 0.46461 0.06249 0.0
C106 C 0.98621 0.43785 0.99532 0.0
C107 C 0.00053 0.42437 0.00046 0.0
C108 C 0.73194 0.76568 0.12928 0.0
C109 C 0.72152 0.74749 0.1271 0.0
C110 C 0.7069 0.74232 0.14108 0.0
C111 C 0.70281 0.75507 0.15693 0.0
H112 H 0.66846 0.75994 0.20706 0.0
H113 H 0.64023 0.75276 0.2286 0.0
H114 H 0.64531 0.81175 0.25345 0.0
H115 H 0.67357 0.81906 0.23194 0.0
H116 H 0.72394 0.83475 0.23082 0.0
H117 H 0.74682 0.86283 0.23749 0.0
H118 H 0.76398 0.86299 0.1758 0.0
H119 H 0.74134 0.83477 0.16908 0.0
H120 H 0.73633 0.79225 0.14644 0.0
H121 H 0.74343 0.76998 0.11884 0.0
H122 H 0.69847 0.72849 0.13965 0.0
H123 H 0.69145 0.75059 0.16743 0.0
N124 N 0.69394 0.78249 0.18871 0.0
N125 N 0.70221 0.81081 0.20782 0.0
N126 N 0.72099 0.80298 0.1797 0.0
C127 C 0.69025 0.79456 0.20447 0.0
C128 C 0.7176 0.8151 0.19549 0.0
C129 C 0.70926 0.7866 0.17624 0.0
C130 C 0.67329 0.79009 0.21776 0.0
C131 C 0.6636 0.77141 0.2171 0.0
C132 C 0.64749 0.76723 0.2295 0.0
C133 C 0.6406 0.7817 0.24265 0.0
C134 C 0.65023 0.80038 0.24331 0.0
C135 C 0.66649 0.8045 0.23108 0.0
C136 C 0.73086 0.83253 0.19943 0.0
C137 C 0.73252 0.84082 0.21866 0.0
C138 C 0.74568 0.85679 0.22252 0.0
C139 C 0.75713 0.86498 0.20715 0.0
C140 C 0.75522 0.85696 0.18787 0.0
C141 C 0.74234 0.84077 0.18407 0.0
C142 C 0.71333 0.77323 0.15922 0.0
C143 C 0.72793 0.77839 0.14518 0.0
C144 C 0.03071 0.91884 0.50708 0.0
C145 C 0.01507 0.90493 0.5038 0.0
C146 C 0.00237 0.90731 0.48758 0.0
C147 C 0.00526 0.92319 0.47492 0.0
H148 H 0.97537 0.95877 0.43606 0.0
H149 H 0.95078 0.965 0.41092 0.0
H150 H 0.99386 0.00123 0.37947 0.0
H151 H 0.01827 0.99558 0.40504 0.0
H152 H 0.05534 0.01321 0.43232 0.0
H153 H 0.0857 0.03356 0.43564 0.0
H154 H 0.10598 0.99571 0.48151 0.0
H155 H 0.07592 0.97521 0.47809 0.0
H156 H 0.04589 0.94506 0.49739 0.0
H157 H 0.04057 0.91766 0.51962 0.0
H158 H 0.99035 0.89672 0.48444 0.0
H159 H 0.99528 0.92446 0.4625 0.0
N160 N 0.01072 0.95753 0.45049 0.0
N161 N 0.03084 0.98391 0.43925 0.0
N162 N 0.04124 0.96506 0.46577 0.0
C163 C 0.01382 0.97264 0.43782 0.0
C164 C 0.04461 0.98021 0.45324 0.0
C165 C 0.02436 0.95363 0.4645 0.0
C166 C -0.00117 0.97664 0.42256 0.0
C167 C 0.97962 0.96809 0.4238 0.0
C168 C 0.96551 0.97158 0.4093 0.0
C169 C 0.97032 0.98355 0.39307 0.0
C170 C 0.98952 0.99218 0.3919 0.0
C171 C 0.00358 0.98885 0.40652 0.0
C172 C 0.06312 0.99255 0.45494 0.0
C173 C 0.06629 0.00916 0.44307 0.0
C174 C 0.08364 0.0209 0.44503 0.0
C175 C 0.09824 0.01623 0.45882 0.0
C176 C 0.09514 -0.00045 0.47056 0.0
C177 C 0.0778 0.98787 0.46867 0.0
C178 C 0.02102 0.937 0.47812 0.0
C179 C 0.03368 0.93465 0.49437 0.0
C180 C 0.22368 0.75592 0.86996 0.0
C181 C 0.21592 0.77478 0.87016 0.0
C182 C 0.20289 0.77977 0.85502 0.0
C183 C 0.19755 0.76609 0.84005 0.0
H184 H 0.1616 0.75766 0.79106 0.0
H185 H 0.13444 0.76409 0.7686 0.0
H186 H 0.13103 0.70272 0.75071 0.0
H187 H 0.15823 0.69618 0.77313 0.0
H188 H 0.19585 0.67035 0.78299 0.0
H189 H 0.21602 0.64188 0.77691 0.0
H190 H 0.25962 0.66554 0.81863 0.0
H191 H 0.23965 0.69406 0.82468 0.0
H192 H 0.22475 0.72787 0.85521 0.0
H193 H 0.2339 0.75175 0.88137 0.0
H194 H 0.19655 0.79416 0.85492 0.0
H195 H 0.18739 0.77038 0.82865 0.0
N196 N 0.18422 0.73592 0.81172 0.0
N197 N 0.18895 0.70581 0.79516 0.0
N198 N 0.20967 0.71587 0.82165 0.0
C199 C 0.17877 0.72256 0.79731 0.0
C200 C 0.20449 0.7024 0.80724 0.0
C201 C 0.19958 0.73263 0.82402 0.0
C202 C 0.16211 0.7264 0.78388 0.0
C203 C 0.15505 0.7455 0.7824 0.0
C204 C 0.13958 0.74923 0.76946 0.0
C205 C 0.13068 0.7339 0.75794 0.0
C206 C 0.13755 0.71477 0.75956 0.0
C207 C 0.1532 0.71107 0.77231 0.0
C208 C 0.21615 0.68458 0.80426 0.0
C209 C 0.2097 0.66948 0.79094 0.0
C210 C 0.22119 0.6531 0.78752 0.0
C211 C 0.23942 0.65156 0.79722 0.0
C212 C 0.24574 0.66647 0.81075 0.0
C213 C 0.2342 0.68276 0.8143 0.0
C214 C 0.20531 0.74718 0.83982 0.0
C215 C 0.21851 0.74229 0.8549 0.0
C216 C 0.00709 0.59232 0.51345 0.0
C217 C -0.00332 0.59534 0.53123 0.0
C218 C 0.98197 0.58137 0.5368 0.0
C219 C 0.97744 0.56495 0.52464 0.0
H220 H 0.93332 0.52421 0.51427 0.0
H221 H 0.90307 0.50516 0.52083 0.0
H222 H 0.91588 0.46565 0.47187 0.0
H223 H 0.94603 0.4851 0.46487 0.0
H224 H 0.97999 0.4993 0.43391 0.0
H225 H -0.00179 0.49544 0.4029 0.0
H226 H 0.03877 0.54311 0.42093 0.0
H227 H 0.02052 0.54726 0.45163 0.0
H228 H 0.01081 0.57412 0.48761 0.0
H229 H 0.01866 0.60274 0.50889 0.0
H230 H 0.97355 0.5834 0.55032 0.0
H231 H 0.96579 0.55466 0.52926 0.0
N232 N 0.9659 0.53351 0.49719 0.0
N233 N 0.97101 0.51513 0.46795 0.0
N234 N 0.9926 0.54178 0.4765 0.0
C235 C 0.96026 0.51843 0.48467 0.0
C236 C 0.98725 0.52676 0.46379 0.0
C237 C 0.98205 0.54524 0.49325 0.0
C238 C 0.94217 0.50624 0.48899 0.0
C239 C 0.9298 0.51143 0.50489 0.0
C240 C 0.91245 0.50041 0.50876 0.0
C241 C 0.90703 0.48382 0.49692 0.0
C242 C 0.91947 0.47849 0.48113 0.0
C243 C 0.93683 0.4896 0.47718 0.0
C244 C -0.00132 0.52367 0.44528 0.0
C245 C 0.99282 0.50894 0.4313 0.0
C246 C 0.00331 0.50665 0.41355 0.0
C247 C 0.01984 0.51906 0.4094 0.0
C248 C 0.02587 0.53355 0.42351 0.0
C249 C 0.01544 0.53583 0.44121 0.0
C250 C 0.98758 0.56209 0.50665 0.0
C251 C 0.00264 0.57585 0.50132 0.0
C252 C 0.83868 0.75308 0.72839 0.0
C253 C 0.84297 0.76804 0.71479 0.0
C254 C 0.8317 0.78497 0.71528 0.0
C255 C 0.81673 0.78709 0.72936 0.0
H256 H 0.77112 0.82215 0.74538 0.0
H257 H 0.75059 0.85077 0.74531 0.0
H258 H 0.72632 0.83449 0.80223 0.0
H259 H 0.74701 0.80598 0.80253 0.0
H260 H 0.76189 0.76862 0.82347 0.0
H261 H 0.75877 0.74521 0.85027 0.0
H262 H 0.7947 0.70475 0.81742 0.0
H263 H 0.79779 0.72806 0.79045 0.0
H264 H 0.82112 0.74352 0.753 0.0
H265 H 0.84724 0.73994 0.72851 0.0
H266 H 0.83452 0.79665 0.70483 0.0
H267 H 0.80852 0.80045 0.72946 0.0
N268 N 0.78642 0.79119 0.7592 0.0
N269 N 0.77107 0.78078 0.78856 0.0
N270 N 0.79548 0.76184 0.77377 0.0
C271 C 0.77303 0.79412 0.77389 0.0
C272 C 0.7822 0.76459 0.78859 0.0
C273 C 0.79771 0.77509 0.75903 0.0
C274 C 0.76072 0.81169 0.77394 0.0
C275 C 0.76147 0.82465 0.75793 0.0
C276 C 0.74961 0.84101 0.75782 0.0
C277 C 0.73681 0.84484 0.77373 0.0
C278 C 0.73619 0.83203 0.78984 0.0
C279 C 0.74798 0.81561 0.78992 0.0
C280 C 0.78011 0.75025 0.80478 0.0
C281 C 0.7691 0.75472 0.82188 0.0
C282 C 0.7674 0.74138 0.83732 0.0
C283 C 0.77654 0.7232 0.83594 0.0
C284 C 0.78738 0.7186 0.8188 0.0
C285 C 0.78922 0.73202 0.80341 0.0
C286 C 0.81276 0.77235 0.74333 0.0
C287 C 0.82377 0.75521 0.74253 0.0
C288 C 0.33917 0.25686 0.24208 0.0
C289 C 0.34156 0.26978 0.22616 0.0
C290 C 0.32883 0.28553 0.22469 0.0
C291 C 0.31425 0.28851 0.239 0.0
H292 H 0.2687 0.32404 0.25308 0.0
H293 H 0.24756 0.35209 0.25093 0.0
H294 H 0.22358 0.33934 0.30889 0.0
H295 H 0.24486 0.31143 0.31126 0.0
H296 H 0.25442 0.27147 0.33078 0.0
H297 H 0.25183 0.25047 0.35946 0.0
H298 H 0.30439 0.22106 0.3407 0.0
H299 H 0.30673 0.24173 0.31163 0.0
H300 H 0.32341 0.24974 0.26863 0.0
H301 H 0.3489 0.24471 0.24375 0.0
H302 H 0.33015 0.29559 0.21245 0.0
H303 H 0.30483 0.3009 0.23745 0.0
N304 N 0.28503 0.29482 0.2694 0.0
N305 N 0.27026 0.28655 0.29971 0.0
N306 N 0.2957 0.26767 0.28681 0.0
C307 C 0.27153 0.29848 0.28381 0.0
C308 C 0.28226 0.27111 0.30133 0.0
C309 C 0.29716 0.27944 0.27077 0.0
C310 C 0.25852 0.31543 0.28235 0.0
C311 C 0.25894 0.32717 0.26539 0.0
C312 C 0.24675 0.34321 0.2641 0.0
C313 C 0.23391 0.34792 0.27974 0.0
C314 C 0.23348 0.33621 0.29669 0.0
C315 C 0.24561 0.32013 0.29797 0.0
C316 C 0.28078 0.25832 0.31885 0.0
C317 C 0.26546 0.26055 0.33272 0.0
C318 C 0.26404 0.24857 0.34927 0.0
C319 C 0.27795 0.23413 0.35244 0.0
C320 C 0.29328 0.23188 0.33858 0.0
C321 C 0.29467 0.24381 0.32195 0.0
C322 C 0.3121 0.27581 0.25515 0.0
C323 C 0.32462 0.25985 0.25642 0.0
C324 C 0.5047 0.90321 0.49141 0.0
C325 C 0.49723 0.90232 0.47196 0.0
C326 C 0.48595 0.91779 0.46527 0.0
C327 C 0.48184 0.93363 0.47792 0.0
H328 H 0.43925 0.97482 0.48723 0.0
H329 H 0.41093 0.99472 0.48056 0.0
H330 H 0.42332 0.02925 0.53394 0.0
H331 H 0.45133 0.00915 0.5409 0.0
H332 H 0.47617 0.9882 0.57471 0.0
H333 H 0.49217 0.99121 0.60697 0.0
H334 H 0.53966 0.9558 0.58532 0.0
H335 H 0.52325 0.95215 0.55329 0.0
H336 H 0.50661 0.91925 0.51898 0.0
H337 H 0.51361 0.89158 0.49688 0.0
H338 H 0.47988 0.9174 0.45038 0.0
H339 H 0.47285 0.94517 0.47238 0.0
N340 N 0.46931 0.96293 0.50659 0.0
N341 N 0.47361 0.97964 0.53713 0.0
N342 N 0.49346 0.95318 0.52893 0.0
C343 C 0.46404 0.97744 0.51946 0.0
C344 C 0.48837 0.96762 0.54195 0.0
C345 C 0.48401 0.95074 0.51122 0.0
C346 C 0.44753 0.99025 0.51469 0.0
C347 C 0.43602 0.98671 0.49752 0.0
C348 C 0.41982 -0.00181 0.49362 0.0
C349 C 0.41479 0.01349 0.50678 0.0
C350 C 0.42658 0.01734 0.52369 0.0
C351 C 0.44273 0.00585 0.52761 0.0
C352 C 0.4984 0.9699 0.56141 0.0
C353 C 0.49004 0.98107 0.57681 0.0
C354 C 0.49928 0.98289 0.59531 0.0
C355 C 0.51723 0.97375 0.59881 0.0
C356 C 0.52567 0.96273 0.58331 0.0
C357 C 0.51632 0.96074 0.56487 0.0
C358 C 0.48909 0.93442 0.49749 0.0
C359 C 0.50077 0.91914 0.50401 0.0
C360 C 0.24144 0.25501 0.63508 0.0
C361 C 0.22841 0.23982 0.62804 0.0
C362 C 0.20878 0.2391 0.63501 0.0
C363 C 0.20237 0.25317 0.64871 0.0
H364 H 0.16481 0.25871 0.69811 0.0
H365 H 0.13584 0.25203 0.71881 0.0
H366 H 0.13667 0.31303 0.73795 0.0
H367 H 0.16564 0.31984 0.71727 0.0
H368 H 0.21153 0.34033 0.71796 0.0
H369 H 0.23338 0.36887 0.72511 0.0
H370 H 0.26583 0.35739 0.6711 0.0
H371 H 0.24444 0.32852 0.66429 0.0
H372 H 0.24546 0.28063 0.65374 0.0
H373 H 0.25674 0.25585 0.63035 0.0
H374 H 0.19823 0.22783 0.62967 0.0
H375 H 0.18714 0.25221 0.6537 0.0
N376 N 0.19174 0.28017 0.6806 0.0
N377 N 0.19689 0.31055 0.69727 0.0
N378 N 0.21962 0.30027 0.67333 0.0
C379 C 0.18574 0.2937 0.69421 0.0
C380 C 0.21384 0.31396 0.68685 0.0
C381 C 0.20866 0.28337 0.6701 0.0
C382 C 0.16762 0.28981 0.70608 0.0
C383 C 0.15878 0.27076 0.70662 0.0
C384 C 0.14225 0.26687 0.71855 0.0
C385 C 0.13407 0.282 0.73001 0.0
C386 C 0.1426 0.30113 0.72915 0.0
C387 C 0.15927 0.30498 0.71739 0.0
C388 C 0.22631 0.33203 0.69062 0.0
C389 C 0.22327 0.34394 0.70756 0.0
C390 C 0.23576 0.36039 0.71161 0.0
C391 C 0.25147 0.36539 0.69874 0.0
C392 C 0.25416 0.35375 0.68155 0.0
C393 C 0.24179 0.33723 0.67759 0.0
C394 C 0.21538 0.26842 0.6556 0.0
C395 C 0.23497 0.2692 0.6486 0.0
C396 C 0.74563 0.14714 0.73816 0.0
C397 C 0.73312 0.14142 0.72224 0.0
C398 C 0.73303 0.15318 0.70532 0.0
C399 C 0.74487 0.17045 0.70449 0.0
H400 H 0.75174 0.22181 0.67299 0.0
H401 H 0.7488 0.2445 0.64563 0.0
H402 H 0.79399 0.28311 0.6723 0.0
H403 H 0.79717 0.26051 0.69942 0.0
H404 H 0.80602 0.25309 0.74754 0.0
H405 H 0.83287 0.26135 0.77053 0.0
H406 H 0.84314 0.19939 0.77705 0.0
H407 H 0.81545 0.19121 0.75487 0.0
H408 H 0.76679 0.1684 0.74996 0.0
H409 H 0.74588 0.13858 0.75154 0.0
H410 H 0.72383 0.14904 0.69265 0.0
H411 H 0.74431 0.17919 0.69126 0.0
N412 N 0.76652 0.20796 0.70517 0.0
N413 N 0.79059 0.22957 0.71935 0.0
N414 N 0.78287 0.19942 0.73432 0.0
C415 C 0.7772 0.22529 0.70477 0.0
C416 C 0.79354 0.21675 0.73412 0.0
C417 C 0.76921 0.19497 0.71995 0.0
C418 C 0.77475 0.23925 0.68842 0.0
C419 C 0.76102 0.23515 0.67306 0.0
C420 C 0.75927 0.24819 0.65741 0.0
C421 C 0.77125 0.26553 0.65676 0.0
C422 C 0.78478 0.26971 0.67221 0.0
C423 C 0.7865 0.25677 0.68785 0.0
C424 C 0.80876 0.22152 0.74932 0.0
C425 C 0.81391 0.24125 0.75407 0.0
C426 C 0.82942 0.24597 0.76715 0.0
C427 C 0.84048 0.23108 0.77547 0.0
C428 C 0.83487 0.21128 0.77116 0.0
C429 C 0.81905 0.20655 0.75835 0.0
C430 C 0.75718 0.1763 0.72053 0.0
C431 C 0.75756 0.16434 0.73729 0.0
C432 C 0.47528 0.5477 0.59414 0.0
C433 C 0.4806 0.53659 0.61051 0.0
C434 C 0.49851 0.52677 0.60994 0.0
C435 C 0.51082 0.528 0.59329 0.0
H436 H 0.56272 0.50747 0.56917 0.0
H437 H 0.5927 0.48887 0.56626 0.0
H438 H 0.60162 0.5101 0.50678 0.0
H439 H 0.57203 0.52901 0.50978 0.0
H440 H 0.54569 0.56136 0.49337 0.0
H441 H 0.53935 0.58596 0.46866 0.0
H442 H 0.49114 0.60708 0.50429 0.0
H443 H 0.49711 0.58223 0.52878 0.0
H444 H 0.48302 0.55781 0.56528 0.0
H445 H 0.46169 0.55563 0.59425 0.0
H446 H 0.5029 0.51794 0.62227 0.0
H447 H 0.52451 0.52024 0.59333 0.0
N448 N 0.53498 0.52993 0.55766 0.0
N449 N 0.54253 0.54435 0.52712 0.0
N450 N 0.51445 0.55359 0.54477 0.0
C451 C 0.54698 0.53157 0.54154 0.0
C452 C 0.52632 0.55543 0.52862 0.0
C453 C 0.51862 0.54087 0.55934 0.0
C454 C 0.56494 0.51982 0.53974 0.0
C455 C 0.57105 0.50817 0.55545 0.0
C456 C 0.58821 0.49743 0.55376 0.0
C457 C 0.59962 0.49806 0.53631 0.0
C458 C 0.5934 0.50956 0.52057 0.0
C459 C 0.57631 0.52033 0.52227 0.0
C460 C 0.52197 0.56983 0.51315 0.0
C461 C 0.53366 0.57117 0.49592 0.0
C462 C 0.5301 0.58535 0.48178 0.0
C463 C 0.5148 0.59855 0.48454 0.0
C464 C 0.50289 0.59698 0.50157 0.0
C465 C 0.50641 0.58278 0.51569 0.0
C466 C 0.50554 0.53921 0.57693 0.0
C467 C 0.48761 0.54904 0.57758 0.0
C468 C 0.53125 0.42319 0.0116 0.0
C469 C 0.51663 0.40843 0.00742 0.0
C470 C 0.50567 0.40938 0.98977 0.0
C471 C 0.50916 0.42478 0.97667 0.0
H472 H 0.489 0.44709 0.92531 0.0
H473 H 0.46653 0.45073 0.89756 0.0
H474 H 0.49482 0.50706 0.88463 0.0
H475 H 0.51728 0.50361 0.91254 0.0
H476 H 0.55734 0.51599 0.93492 0.0
H477 H 0.5862 0.53817 0.93958 0.0
H478 H 0.6028 0.50609 0.99129 0.0
H479 H 0.57421 0.48372 0.98654 0.0
H480 H 0.54611 0.44973 0.00222 0.0
H481 H 0.53978 0.42304 0.02519 0.0
H482 H 0.49453 0.39808 0.98593 0.0
H483 H 0.50044 0.42497 0.9632 0.0
N484 N 0.51528 0.45799 0.95114 0.0
N485 N 0.53394 0.48595 0.94145 0.0
N486 N 0.54286 0.46899 0.96985 0.0
C487 C 0.51841 0.47297 0.93834 0.0
C488 C 0.54627 0.48404 0.95717 0.0
C489 C 0.5274 0.45592 0.96694 0.0
C490 C 0.50496 0.47508 0.92122 0.0
C491 C 0.49049 0.46028 0.91659 0.0
C492 C 0.47767 0.46228 0.9006 0.0
C493 C 0.47893 0.47917 0.88893 0.0
C494 C 0.49339 0.49396 0.8935 0.0
C495 C 0.50632 0.49192 0.90943 0.0
C496 C 0.56344 0.49797 0.9603 0.0
C497 C 0.5671 0.51365 0.94731 0.0
C498 C 0.58359 0.52645 0.95004 0.0
C499 C 0.59682 0.52383 0.96576 0.0
C500 C 0.59305 0.50832 0.97886 0.0
C501 C 0.57656 0.49555 0.97618 0.0
C502 C 0.52377 0.43956 0.98085 0.0
C503 C 0.5348 0.43856 -0.00154 0.0
C504 C 0.72278 0.24881 0.3681 0.0
C505 C 0.70985 0.26314 0.37498 0.0
C506 C 0.69142 0.26458 0.36559 0.0
C507 C 0.68606 0.25202 0.34967 0.0
H508 H 0.65343 0.25058 0.29662 0.0
H509 H 0.62573 0.25799 0.27521 0.0
H510 H 0.62482 0.1986 0.25128 0.0
H511 H 0.65257 0.19108 0.27261 0.0
H512 H 0.69834 0.17276 0.27257 0.0
H513 H 0.71923 0.14521 0.26463 0.0
H514 H 0.74841 0.15302 0.32137 0.0
H515 H 0.72758 0.18046 0.32944 0.0
H516 H 0.72775 0.22535 0.34737 0.0
H517 H 0.73723 0.24751 0.37475 0.0
H518 H 0.68096 0.27524 0.3707 0.0
H519 H 0.67171 0.25349 0.34285 0.0
N520 N 0.67747 0.22799 0.31452 0.0
N521 N 0.68325 0.19991 0.29491 0.0
N522 N 0.70407 0.20828 0.32181 0.0
C523 C 0.67234 0.21587 0.29895 0.0
C524 C 0.69915 0.19602 0.30629 0.0
C525 C 0.69331 0.22427 0.32604 0.0
C526 C 0.65525 0.22024 0.2863 0.0
C527 C 0.6473 0.23906 0.28687 0.0
C528 C 0.63151 0.24336 0.27454 0.0
C529 C 0.62318 0.22887 0.26161 0.0
C530 C 0.63089 0.20998 0.26124 0.0
C531 C 0.64685 0.20574 0.27336 0.0
C532 C 0.7113 0.17887 0.30163 0.0
C533 C 0.70913 0.16856 0.28341 0.0
C534 C 0.72116 0.15285 0.27879 0.0
C535 C 0.73544 0.147 0.29238 0.0
C536 C 0.7374 0.15709 0.3107 0.0
C537 C 0.72553 0.1729 0.31525 0.0
C538 C 0.69896 0.23763 0.34288 0.0
C539 C 0.71737 0.23615 0.3523 0.0
C540 C 0.50233 0.1033 0.00745 0.0
C541 C 0.493 0.10526 0.02597 0.0
C542 C 0.4798 0.09018 0.03227 0.0
C543 C 0.47583 0.07358 0.02019 0.0
H544 H 0.4353 0.02877 0.01268 0.0
H545 H 0.40655 0.00782 0.02025 0.0
H546 H 0.4181 0.97135 0.96862 0.0
H547 H 0.44677 0.99261 0.9607 0.0
H548 H 0.48175 0.00581 0.93147 0.0
H549 H 0.50117 0.00087 0.90142 0.0
H550 H 0.5387 0.0516 0.91735 0.0
H551 H 0.51918 0.05683 0.94708 0.0
H552 H 0.50587 0.08562 0.98119 0.0
H553 H 0.5127 0.11463 0.00231 0.0
H554 H 0.47223 0.09139 0.04638 0.0
H555 H 0.46545 0.06233 0.02546 0.0
N556 N 0.46514 0.04159 0.99305 0.0
N557 N 0.47148 0.0226 0.96451 0.0
N558 N 0.49125 0.05088 0.972 0.0
C559 C 0.46051 0.02577 0.98111 0.0
C560 C 0.48692 0.03509 0.95988 0.0
C561 C 0.48046 0.05422 0.98862 0.0
C562 C 0.44339 0.01245 0.98602 0.0
C563 C 0.43182 0.01627 0.00292 0.0
C564 C 0.41536 0.00415 0.00736 0.0
C565 C 0.41003 0.98788 0.99507 0.0
C566 C 0.42168 0.98391 0.97827 0.0
C567 C 0.43818 0.99606 0.97379 0.0
C568 C 0.49883 0.03175 0.94173 0.0
C569 C 0.49414 0.01592 0.92859 0.0
C570 C 0.50533 0.01302 0.9114 0.0
C571 C 0.52144 0.02588 0.90696 0.0
C572 C 0.52619 0.04161 0.92015 0.0
C573 C 0.51503 0.04452 0.9373 0.0
C574 C 0.48507 0.07163 0.00159 0.0
C575 C 0.49848 0.08662 0.99542 0.0
C576 C 0.21961 0.91556 0.00873 0.0
O577 O 0.22801 0.9135 0.99128 0.0
O578 O 0.24309 0.87011 -0.00394 0.0
Zn579 Zn 0.24888 0.88836 0.01929 0.0
O580 O 0.27403 0.90417 0.01418 0.0
C581 C 0.26634 0.86005 0.04347 0.0
O582 O 0.27898 0.86016 0.02866 0.0
O583 O 0.2262 0.90628 0.02335 0.0
C584 C 0.28492 0.91117 0.02816 0.0
O585 O 0.27952 0.90832 0.04665 0.0
C586 C 0.24962 0.87331 0.97869 0.0
O587 O 0.26048 0.88936 0.97541 0.0
O588 O 0.25196 0.87152 0.0431 0.0
C589 C 0.14748 0.46412 0.27127 0.0
O590 O 0.14678 0.47739 0.28567 0.0
O591 O 0.10388 0.49279 0.27707 0.0
Zn592 Zn 0.1208 0.48983 0.25265 0.0
O593 O 0.13919 0.51366 0.24924 0.0
C594 C 0.08722 0.49323 0.22625 0.0
O595 O 0.08077 0.50507 0.24025 0.0
O596 O 0.1374 0.46633 0.25563 0.0
C597 C 0.1351 0.52793 0.23825 0.0
O598 O 0.11814 0.52749 0.22875 0.0
C599 C 0.09963 0.50955 0.28418 0.0
O600 O 0.10634 0.52551 0.27536 0.0
O601 O 0.10372 0.48522 0.22846 0.0
C602 C 0.79015 0.59415 0.98321 0.0
O603 O 0.78193 0.59437 0.96557 0.0
O604 O 0.76513 0.63692 0.96722 0.0
Zn605 Zn 0.75981 0.62114 0.99175 0.0
O606 O 0.73554 0.60357 0.98791 0.0
C607 C 0.75096 0.65742 0.012 0.0
O608 O 0.74967 0.66364 0.99374 0.0
O609 O 0.78313 0.60459 -0.00282 0.0
C610 C 0.71891 0.61092 0.9845 0.0
O611 O 0.71786 0.63012 0.98343 0.0
C612 C 0.75911 0.63174 0.94997 0.0
O613 O 0.74914 0.61491 0.94742 0.0
O614 O 0.7553 0.63967 0.0149 0.0
C615 C 0.82987 0.04 0.2637 0.0
O616 O 0.82941 0.02385 0.27408 0.0
O617 O 0.87771 0.0166 0.26984 0.0
Zn618 Zn 0.86126 0.02012 0.24524 0.0
O619 O 0.84491 0.99566 0.23822 0.0
C620 C 0.89655 0.01977 0.22172 0.0
O621 O 0.90257 0.00922 0.23652 0.0
O622 O 0.84272 0.04208 0.25005 0.0
C623 C 0.8516 0.97846 0.23803 0.0
O624 O 0.87017 0.97605 0.24281 0.0
C625 C 0.87351 0.00427 0.28329 0.0
O626 O 0.85732 0.99304 0.28173 0.0
O627 O 0.87922 0.02637 0.22222 0.0
C628 C 0.29386 0.09062 0.48236 0.0
O629 O 0.28847 0.09525 0.46437 0.0
O630 O 0.2648 0.13104 0.47066 0.0
Zn631 Zn 0.25994 0.11258 0.49335 0.0
O632 O 0.23611 0.095 0.48713 0.0
C633 C 0.26773 0.1413 0.52418 0.0
O634 O 0.28409 0.14409 0.5139 0.0
O635 O 0.28372 0.09633 0.49712 0.0
C636 C 0.2194 0.10262 0.48503 0.0
O637 O 0.21814 0.12178 0.48717 0.0
C638 C 0.25822 0.1483 0.4707 0.0
O639 O 0.24786 0.15444 0.48595 0.0
O640 O 0.25507 0.12814 0.5184 0.0
C641 C 0.32389 0.5369 0.76614 0.0
O642 O 0.31799 0.51887 0.77054 0.0
O643 O 0.374 0.51146 0.77567 0.0
Zn644 Zn 0.35738 0.51666 0.75176 0.0
O645 O 0.33955 0.49305 0.74514 0.0
C646 C 0.39292 0.52869 0.7305 0.0
O647 O 0.39991 0.53235 0.74844 0.0
O648 O 0.34061 0.53977 0.75783 0.0
C649 C 0.3443 0.47998 0.73247 0.0
O650 O 0.36153 0.48162 0.72352 0.0
C651 C 0.38418 0.49619 0.77661 0.0
O652 O 0.38339 0.48325 0.76187 0.0
O653 O 0.37509 0.5224 0.7284 0.0
C654 C 0.72107 0.41995 0.51533 0.0
O655 O 0.7351 0.42596 0.50313 0.0
O656 O 0.73779 0.36894 0.49325 0.0
Zn657 Zn 0.74458 0.38549 0.5175 0.0
O658 O 0.76971 0.40134 0.51239 0.0
C659 C 0.7645 0.36185 0.54632 0.0
O660 O 0.7806 0.36796 0.53701 0.0
O661 O 0.72216 0.40325 0.52329 0.0
C662 C 0.77791 0.41217 0.52584 0.0
O663 O 0.7697 0.41315 0.54349 0.0
C664 C 0.74731 0.35356 0.48946 0.0
O665 O 0.76167 0.34889 0.50138 0.0
O666 O 0.74778 0.3676 0.54067 0.0
C667 C 0.65047 0.96152 0.77139 0.0
O668 O 0.65013 0.9744 0.78616 0.0
O669 O 0.6082 0.99221 0.77818 0.0
Zn670 Zn 0.62401 0.98808 0.7532 0.0
O671 O 0.64262 0.01148 0.74835 0.0
C672 C 0.58945 0.99178 0.72813 0.0
O673 O 0.58415 0.00449 0.74187 0.0
O674 O 0.6403 0.96431 0.75593 0.0
C675 C 0.63893 0.02471 0.73596 0.0
O676 O 0.62232 0.0234 0.72585 0.0
C677 C 0.60447 0.00936 0.78463 0.0
O678 O 0.61117 0.02476 0.77485 0.0
O679 O 0.60568 0.98316 0.72997 0.0
C680 C -0.00253 0.22022 0.89202 0.0
O681 O 0.98019 0.22842 0.89191 0.0
O682 O 0.97851 0.24613 0.85259 0.0
Zn683 Zn 0.00579 0.25039 0.86431 0.0
O684 O 0.00678 0.2747 0.88198 0.0
C685 C 0.0226 0.26042 0.82607 0.0
O686 O 0.00501 0.26728 0.82296 0.0
O687 O 0.01128 0.22717 0.88112 0.0
C688 C 0.01241 0.29168 0.87612 0.0
O689 O 0.01809 0.29389 0.85764 0.0
C690 C 0.96736 0.26022 0.84889 0.0
O691 O 0.97373 0.27843 0.8525 0.0
O692 O 0.02625 0.25256 0.84257 0.0
C693 C 0.49607 0.7121 0.39461 0.0
O694 O 0.47849 0.71955 0.39322 0.0
O695 O 0.47974 0.73943 0.35487 0.0
Zn696 Zn 0.50588 0.74376 0.36888 0.0
O697 O 0.50536 0.76771 0.3871 0.0
C698 C 0.52493 0.75603 0.33275 0.0
O699 O 0.50776 0.76383 0.32967 0.0
O700 O 0.51052 0.72013 0.38535 0.0
C701 C 0.51364 0.78422 0.3829 0.0
O702 O 0.52323 0.78609 0.36607 0.0
C703 C 0.46691 0.75255 0.35392 0.0
O704 O 0.4707 0.76994 0.3622 0.0
O705 O 0.5276 0.74666 0.3486 0.0
C706 C -0.00327 0.78978 0.59381 0.0
O707 O 0.97941 0.78038 0.59459 0.0
O708 O 0.97873 0.76354 0.6347 0.0
Zn709 Zn 0.00562 0.76105 0.62219 0.0
O710 O 0.00674 0.7361 0.60566 0.0
C711 C 0.02181 0.75433 0.66073 0.0
O712 O 0.00354 0.74804 0.6642 0.0
O713 O 0.01078 0.7841 0.60453 0.0
C714 C 0.00896 0.71949 0.61352 0.0
O715 O 0.01053 0.71854 0.63289 0.0
C716 C 0.96429 0.75126 0.63195 0.0
O717 O 0.96649 0.7359 0.62016 0.0
O718 O 0.02627 0.76091 0.64371 0.0
C719 C 0.49268 0.29501 0.09855 0.0
O720 O 0.47529 0.2857 0.09847 0.0
O721 O 0.47333 0.26812 0.13868 0.0
Zn722 Zn 0.5003 0.26545 0.12642 0.0
O723 O 0.5009 0.24111 0.10882 0.0
C724 C 0.51621 0.25628 0.16453 0.0
O725 O 0.49816 0.24897 0.1672 0.0
O726 O 0.50626 0.28899 0.10967 0.0
C727 C 0.50664 0.22474 0.11501 0.0
O728 O 0.51243 0.22342 0.13351 0.0
C729 C 0.4607 0.25386 0.13998 0.0
O730 O 0.46504 0.23643 0.13286 0.0
O731 O 0.52066 0.26429 0.14815 0.0
H732 H 0.21719 0.76835 0.91002 0.0
H733 H 0.25617 0.87769 0.93887 0.0
H734 H 0.22667 0.81381 0.86689 0.0
H735 H 0.2326 0.83635 0.98147 0.0
H736 H 0.24827 0.85367 0.91224 0.0
H737 H 0.2258 0.7923 0.93646 0.0
C738 C 0.2212 0.78336 0.90613 0.0
C739 C 0.22123 0.78914 0.88627 0.0
C740 C 0.24481 0.8499 0.92743 0.0
C741 C 0.231 0.81661 0.91639 0.0
C742 C 0.24936 0.86356 0.94263 0.0
C743 C 0.245 0.85902 0.96241 0.0
C744 C 0.23603 0.8315 0.93208 0.0
C745 C 0.23615 0.84051 0.96642 0.0
C746 C 0.22598 0.79705 0.92122 0.0
C747 C 0.22629 0.80882 0.88205 0.0
N748 N 0.23202 0.82741 0.95139 0.0
N749 N 0.23105 0.82186 0.89699 0.0
H750 H 0.03016 0.48525 0.38964 0.0
H751 H 0.08746 0.54297 0.30304 0.0
H752 H 0.03427 0.54857 0.38576 0.0
H753 H 0.08359 0.47958 0.30639 0.0
H754 H 0.06735 0.54518 0.33301 0.0
H755 H 0.04887 0.48271 0.35867 0.0
C756 C 0.03488 0.49861 0.38221 0.0
C757 C 0.03073 0.51716 0.39037 0.0
C758 C 0.07087 0.53078 0.32719 0.0
C759 C 0.05228 0.51437 0.35503 0.0
C760 C 0.08237 0.5295 0.31006 0.0
C761 C 0.08726 0.51106 0.3022 0.0
C762 C 0.06419 0.51349 0.33657 0.0
C763 C 0.0802 0.49411 0.31194 0.0
C764 C 0.04565 0.49716 0.36459 0.0
C765 C 0.03741 0.53398 0.3802 0.0
N766 N 0.06905 0.49574 0.32863 0.0
N767 N 0.04786 0.53218 0.3631 0.0
H768 H 0.7686 0.6834 0.83364 0.0
H769 H 0.77513 0.66928 0.95099 0.0
H770 H 0.7806 0.73106 0.87569 0.0
H771 H 0.75147 0.62427 0.91053 0.0
H772 H 0.78025 0.69123 0.92311 0.0
H773 H 0.76531 0.6606 0.86123 0.0
C774 C 0.77065 0.68903 0.84868 0.0
C775 C 0.7748 0.70914 0.85242 0.0
C776 C 0.77396 0.67655 0.92032 0.0
C777 C 0.77102 0.68323 0.88398 0.0
C778 C 0.77107 0.66397 0.93622 0.0
C779 C 0.7628 0.64491 0.93309 0.0
C780 C 0.76864 0.67001 0.90109 0.0
C781 C 0.75782 0.63886 0.91363 0.0
C782 C 0.76866 0.67605 0.86441 0.0
C783 C 0.77714 0.7157 0.87218 0.0
N784 N 0.76082 0.65138 0.89835 0.0
N785 N 0.77524 0.70277 0.88722 0.0
H786 H 0.94243 0.95705 0.37762 0.0
H787 H 0.90536 0.02824 0.29398 0.0
H788 H 0.96423 0.0173 0.37242 0.0
H789 H 0.87301 0.97514 0.31075 0.0
H790 H 0.92854 0.02359 0.32116 0.0
H791 H 0.91821 0.96256 0.35173 0.0
C792 C 0.94205 0.9715 0.37119 0.0
C793 C 0.95543 0.98675 0.37732 0.0
C794 C 0.91631 0.01302 0.31894 0.0
C795 C 0.92792 0.99299 0.34729 0.0
C796 C 0.9031 0.01563 0.3034 0.0
C797 C 0.88723 0.00204 0.30008 0.0
C798 C 0.91378 -0.00341 0.3311 0.0
C799 C 0.88501 0.986 0.31279 0.0
C800 C 0.92826 0.97459 0.35631 0.0
C801 C 0.95446 0.00501 0.36803 0.0
N802 N 0.89821 0.98365 0.32767 0.0
N803 N 0.94099 0.0076 0.35344 0.0
H804 H 0.25415 0.24532 0.5969 0.0
H805 H 0.23797 0.13703 0.55147 0.0
H806 H 0.21827 0.20026 0.62561 0.0
H807 H 0.28681 0.1761 0.53491 0.0
H808 H 0.22918 0.16053 0.57765 0.0
H809 H 0.26502 0.2207 0.57292 0.0
C810 C 0.24867 0.23024 0.59832 0.0
C811 C 0.23525 0.22492 0.61338 0.0
C812 C 0.24191 0.16387 0.56838 0.0
C813 C 0.24738 0.1967 0.58563 0.0
C814 C 0.24692 0.15049 0.55342 0.0
C815 C 0.26312 0.15464 0.54096 0.0
C816 C 0.25302 0.18164 0.57072 0.0
C817 C 0.27422 0.17229 0.54419 0.0
C818 C 0.25484 0.2162 0.58453 0.0
C819 C 0.22836 0.20517 0.6141 0.0
N820 N 0.26885 0.18523 0.55864 0.0
N821 N 0.23443 0.19181 0.60037 0.0
H822 H 0.44029 0.53127 0.61129 0.0
H823 H 0.4326 0.53846 0.72975 0.0
H824 H 0.49106 0.53922 0.64981 0.0
H825 H 0.38293 0.52357 0.69133 0.0
H826 H 0.45404 0.54057 0.7006 0.0
H827 H 0.41884 0.53006 0.64044 0.0
C828 C 0.44691 0.53283 0.6259 0.0
C829 C 0.46749 0.53537 0.62813 0.0
C830 C 0.43845 0.53686 0.69856 0.0
C831 C 0.44303 0.53391 0.66158 0.0
C832 C 0.42618 0.53572 0.71519 0.0
C833 C 0.40593 0.53081 0.71298 0.0
C834 C 0.43041 0.53315 0.67957 0.0
C835 C 0.39845 0.52738 0.69374 0.0
C836 C 0.43467 0.53205 0.64254 0.0
C837 C 0.47529 0.53703 0.64742 0.0
N838 N 0.41069 0.52861 0.6778 0.0
N839 N 0.46304 0.53633 0.66341 0.0
H840 H 0.73781 0.27794 0.63854 0.0
H841 H 0.79774 0.3472 0.56272 0.0
H842 H 0.80154 0.28425 0.63684 0.0
H843 H 0.73398 0.34428 0.56703 0.0
H844 H 0.79936 0.32339 0.58925 0.0
H845 H 0.73601 0.30122 0.61144 0.0
C846 C 0.75142 0.28413 0.63238 0.0
C847 C 0.76985 0.27922 0.64001 0.0
C848 C 0.78501 0.32797 0.58441 0.0
C849 C 0.76791 0.30596 0.60914 0.0
C850 C 0.78407 0.34158 0.56926 0.0
C851 C 0.7657 0.34776 0.56265 0.0
C852 C 0.76744 0.32043 0.593 0.0
C853 C 0.74848 0.33996 0.57168 0.0
C854 C 0.75039 0.29751 0.617 0.0
C855 C 0.78701 0.28784 0.63161 0.0
N856 N 0.74977 0.32668 0.58638 0.0
N857 N 0.78562 0.30078 0.61664 0.0
H858 H 0.53742 0.94588 0.61868 0.0
H859 H 0.55916 0.01366 0.71491 0.0
H860 H 0.51952 0.00607 0.62401 0.0
H861 H 0.59248 0.96252 0.70001 0.0
H862 H 0.54063 0.00884 0.68388 0.0
H863 H 0.55419 0.94971 0.65066 0.0
C864 C 0.53708 0.95994 0.62648 0.0
C865 C 0.5271 0.97571 0.6185 0.0
C866 C 0.55198 -0.00133 0.68746 0.0
C867 C 0.54594 0.98001 0.65537 0.0
C868 C 0.56249 0.00134 0.70518 0.0
C869 C 0.57744 0.98851 0.70999 0.0
C870 C 0.5563 0.98292 0.67459 0.0
C871 C 0.58116 0.97283 0.69683 0.0
C872 C 0.54657 0.96206 0.6448 0.0
C873 C 0.52678 0.99341 0.62962 0.0
N874 N 0.57064 0.97046 0.67973 0.0
N875 N 0.53606 0.99507 0.64748 0.0
H876 H 0.86716 0.26217 0.771 0.0
H877 H 0.94595 0.22525 0.84717 0.0
H878 H 0.85499 0.21167 0.80765 0.0
H879 H 0.9443 0.28589 0.82964 0.0
H880 H 0.91408 0.21858 0.83063 0.0
H881 H 0.89689 0.26992 0.79036 0.0
C882 C 0.87051 0.25282 0.78327 0.0
C883 C 0.85835 0.23624 0.78769 0.0
C884 C 0.92066 0.23336 0.83054 0.0
C885 C 0.8929 0.2448 0.80954 0.0
C886 C 0.93886 0.23716 0.83988 0.0
C887 C 0.94779 0.25614 0.8397 0.0
C888 C 0.91154 0.24857 0.82067 0.0
C889 C 0.93792 0.27105 0.83015 0.0
C890 C 0.88762 0.25722 0.79424 0.0
C891 C 0.86398 0.22442 0.80345 0.0
N892 N 0.9204 0.26691 0.82084 0.0
N893 N 0.88093 0.22885 0.81372 0.0
H894 H 0.50849 0.90199 0.43293 0.0
H895 H 0.49789 0.78497 0.42036 0.0
H896 H 0.49372 0.8634 0.48124 0.0
H897 H 0.52552 0.8225 0.37654 0.0
H898 H 0.49464 0.81368 0.44234 0.0
H899 H 0.51316 0.87314 0.41137 0.0
C900 C 0.50622 0.88743 0.43897 0.0
C901 C 0.50072 0.88505 0.45888 0.0
C902 C 0.50148 0.81561 0.42795 0.0
C903 C 0.506 0.85203 0.43436 0.0
C904 C 0.50331 0.79923 0.41537 0.0
C905 C 0.51197 0.80134 0.39657 0.0
C906 C 0.50821 0.83426 0.42162 0.0
C907 C 0.51875 0.82018 0.3909 0.0
C908 C 0.50898 0.87099 0.42671 0.0
C909 C 0.49816 0.86587 0.46603 0.0
N910 N 0.51664 0.83593 0.40334 0.0
N911 N 0.50071 0.85009 0.45375 0.0
H912 H 0.12909 0.25157 0.75564 0.0
H913 H 0.02227 0.28273 0.79275 0.0
H914 H 0.10043 0.30279 0.73461 0.0
H915 H 0.05866 0.24346 0.82495 0.0
H916 H 0.04887 0.28728 0.76849 0.0
H917 H 0.10135 0.24536 0.7783 0.0
C918 C 0.11686 0.26141 0.75569 0.0
C919 C 0.11704 0.27773 0.74328 0.0
C920 C 0.05101 0.27765 0.78086 0.0
C921 C 0.08535 0.27077 0.76916 0.0
C922 C 0.03581 0.27499 0.79467 0.0
C923 C 0.03829 0.26275 0.81094 0.0
C924 C 0.06872 0.26785 0.78321 0.0
C925 C 0.05617 0.25311 0.81269 0.0
C926 C 0.10113 0.25793 0.7687 0.0
C927 C 0.10094 0.29015 0.74409 0.0
N928 N 0.07069 0.25584 0.79897 0.0
N929 N 0.08572 0.28639 0.75679 0.0
H930 H 0.47959 0.61197 0.47099 0.0
H931 H 0.53078 0.69439 0.40266 0.0
H932 H 0.54285 0.62114 0.46516 0.0
H933 H 0.46803 0.69018 0.41461 0.0
H934 H 0.5353 0.66596 0.42355 0.0
H935 H 0.47488 0.63908 0.44843 0.0
C936 C 0.4925 0.6197 0.465 0.0
C937 C 0.51165 0.6143 0.47006 0.0
C938 C 0.52054 0.67125 0.42158 0.0
C939 C 0.50636 0.64524 0.44406 0.0
C940 C 0.51794 0.68747 0.40965 0.0
C941 C 0.499 0.69472 0.40694 0.0
C942 C 0.50407 0.66215 0.43084 0.0
C943 C 0.48291 0.68514 0.41633 0.0
C944 C 0.48979 0.63512 0.45205 0.0
C945 C 0.52781 0.62461 0.46152 0.0
N946 N 0.48581 0.66935 0.42788 0.0
N947 N 0.5248 0.63961 0.449 0.0
H948 H 0.87091 0.79642 0.70525 0.0
H949 H 0.93192 0.72579 0.63348 0.0
H950 H 0.85331 0.73578 0.69256 0.0
H951 H 0.95364 0.78306 0.6544 0.0
H952 H 0.90134 0.7303 0.65214 0.0
H953 H 0.8995 0.79295 0.68352 0.0
C954 C 0.87294 0.78243 0.69771 0.0
C955 C 0.85973 0.76635 0.70075 0.0
C956 C 0.91279 0.74189 0.65259 0.0
C957 C 0.89258 0.76219 0.67604 0.0
C958 C 0.93023 0.73935 0.64191 0.0
C959 C 0.9454 0.75403 0.64247 0.0
C960 C 0.91047 0.75929 0.6638 0.0
C961 C 0.94239 0.7713 0.65363 0.0
C962 C 0.88935 0.78041 0.68542 0.0
C963 C 0.86327 0.74848 0.69082 0.0
N964 N 0.92529 0.77343 0.66387 0.0
N965 N 0.87938 0.74687 0.67892 0.0
H966 H 0.98002 0.88834 0.51725 0.0
H967 H 0.03141 0.81017 0.58555 0.0
H968 H 0.04332 0.8828 0.5209 0.0
H969 H 0.96891 0.80814 0.57217 0.0
H970 H 0.03594 0.83827 0.56373 0.0
H971 H 0.97553 0.86025 0.53903 0.0
C972 C 0.99299 0.88116 0.52252 0.0
C973 C 0.01209 0.88797 0.51718 0.0
C974 C 0.02124 0.83165 0.56555 0.0
C975 C 0.00703 0.85596 0.5424 0.0
C976 C 0.01863 0.81564 0.57804 0.0
C977 C -0.00025 0.80678 0.58067 0.0
C978 C 0.00483 0.83896 0.55574 0.0
C979 C 0.98374 0.81447 0.57054 0.0
C980 C 0.9904 0.86518 0.53504 0.0
C981 C 0.02832 0.87828 0.52482 0.0
N982 N 0.98664 0.83015 0.55856 0.0
N983 N 0.02542 0.86279 0.53705 0.0
H984 H 0.129 0.76351 0.73122 0.0
H985 H 0.01918 0.73384 0.69516 0.0
H986 H 0.09537 0.71337 0.75333 0.0
H987 H 0.0596 0.77039 0.661 0.0
H988 H 0.04537 0.72955 0.71949 0.0
H989 H 0.10203 0.76955 0.70812 0.0
C990 C 0.11587 0.75386 0.73127 0.0
C991 C 0.11438 0.73789 0.74413 0.0
C992 C 0.04848 0.73854 0.70668 0.0
C993 C 0.08357 0.74471 0.71787 0.0
C994 C 0.03352 0.74107 0.69283 0.0
C995 C 0.03725 0.75243 0.67599 0.0
C996 C 0.06722 0.74761 0.70378 0.0
C997 C 0.05613 0.76142 0.67372 0.0
C998 C 0.10057 0.75724 0.71804 0.0
C999 C 0.09716 0.72572 0.7435 0.0
N1000 N 0.07042 0.75884 0.68749 0.0
N1001 N 0.08238 0.72941 0.73062 0.0
H1002 H -0.00023 0.59851 0.57172 0.0
H1003 H 0.0073 0.71621 0.57298 0.0
H1004 H 0.00222 0.63321 0.51878 0.0
H1005 H 0.01039 0.68143 0.62574 0.0
H1006 H 0.00599 0.68593 0.55284 0.0
H1007 H 0.00417 0.62871 0.5918 0.0
C1008 C 0.00126 0.61249 0.56433 0.0
C1009 C 0.00056 0.61336 0.54356 0.0
C1010 C 0.00704 0.68492 0.56882 0.0
C1011 C 0.00564 0.64796 0.56641 0.0
C1012 C 0.00777 0.70221 0.58034 0.0
C1013 C 0.00888 0.70135 0.60109 0.0
C1014 C 0.00733 0.66663 0.57812 0.0
C1015 C 0.0095 0.6828 0.6098 0.0
C1016 C 0.00386 0.62971 0.57578 0.0
C1017 C 0.00285 0.63185 0.53474 0.0
N1018 N 0.00862 0.66617 0.59827 0.0
N1019 N 0.00516 0.64842 0.54622 0.0
H1020 H 0.76074 0.89966 0.18751 0.0
H1021 H 0.85656 0.93976 0.24655 0.0
H1022 H 0.78546 0.86823 0.236 0.0
H1023 H 0.81645 0.97828 0.21814 0.0
H1024 H 0.8337 0.91178 0.23878 0.0
H1025 H 0.78425 0.92729 0.19457 0.0
C1026 C 0.77118 0.8986 0.19959 0.0
C1027 C 0.77119 0.88175 0.21126 0.0
C1028 C 0.82996 0.92638 0.23426 0.0
C1029 C 0.79811 0.91305 0.21926 0.0
C1030 C 0.84301 0.9423 0.23859 0.0
C1031 C 0.83834 0.96134 0.23302 0.0
C1032 C 0.81234 0.92951 0.22399 0.0
C1033 C 0.82055 0.96384 0.22281 0.0
C1034 C 0.78449 0.91434 0.20366 0.0
C1035 C 0.78491 0.88108 0.22681 0.0
N1036 N 0.80823 0.94809 0.21853 0.0
N1037 N 0.79793 0.89648 0.2303 0.0
H1038 H 0.75525 0.1404 0.2576 0.0
H1039 H 0.80365 0.04205 0.29445 0.0
H1040 H 0.74553 0.11658 0.31583 0.0
H1041 H 0.82337 0.073 0.24226 0.0
H1042 H 0.77999 0.0676 0.30104 0.0
H1043 H 0.77783 0.11397 0.25013 0.0
C1044 C 0.75776 0.12951 0.26875 0.0
C1045 C 0.74856 0.13068 0.28738 0.0
C1046 C 0.7895 0.06881 0.28816 0.0
C1047 C 0.77441 0.10053 0.279 0.0
C1048 C 0.803 0.05421 0.28436 0.0
C1049 C 0.81554 0.05542 0.2678 0.0
C1050 C 0.78842 0.08467 0.27523 0.0
C1051 C 0.81403 0.07152 0.25524 0.0
C1052 C 0.77074 0.11452 0.26453 0.0
C1053 C 0.75249 0.11633 0.30136 0.0
N1054 N 0.80068 0.08551 0.2592 0.0
N1055 N 0.76511 0.10183 0.29688 0.0
H1056 H 0.38222 0.97215 0.96906 0.0
H1057 H 0.31266 0.92681 0.05423 0.0
H1058 H 0.39694 0.97535 0.03141 0.0
H1059 H 0.29988 0.92037 0.99161 0.0
H1060 H 0.34357 0.94471 0.04619 0.0
H1061 H 0.35215 0.95286 0.97701 0.0
C1062 C 0.37924 0.96864 0.98441 0.0
C1063 C 0.39213 0.97543 -0.00041 0.0
C1064 C 0.33402 0.93936 0.03421 0.0
C1065 C 0.35753 0.95359 0.00884 0.0
C1066 C 0.31634 0.92917 0.03879 0.0
C1067 C 0.30364 0.92211 0.02358 0.0
C1068 C 0.33902 0.94256 0.01426 0.0
C1069 C 0.30921 0.92556 0.00384 0.0
C1070 C 0.36198 0.95773 0.98896 0.0
C1071 C 0.3873 0.97068 0.01924 0.0
N1072 N 0.32646 0.93556 -0.00024 0.0
N1073 N 0.37037 0.9601 0.0233 0.0
H1074 H 0.21235 0.35909 0.24779 0.0
H1075 H 0.17022 0.45412 0.30291 0.0
H1076 H 0.22607 0.37552 0.30858 0.0
H1077 H 0.15345 0.435 0.24357 0.0
H1078 H 0.19121 0.42577 0.30517 0.0
H1079 H 0.19128 0.38734 0.24578 0.0
C1080 C 0.211 0.36871 0.26069 0.0
C1081 C 0.22099 0.36496 0.27837 0.0
C1082 C 0.18291 0.42777 0.29167 0.0
C1083 C 0.19676 0.39726 0.27624 0.0
C1084 C 0.17093 0.44396 0.29037 0.0
C1085 C 0.16006 0.44695 0.27302 0.0
C1086 C 0.18407 0.41451 0.2755 0.0
C1087 C 0.16155 0.43329 0.25724 0.0
C1088 C 0.19887 0.38477 0.25957 0.0
C1089 C 0.21846 0.37775 0.29472 0.0
N1090 N 0.17335 0.4177 0.25885 0.0
N1091 N 0.20663 0.39335 0.29324 0.0
H1092 H 0.13628 0.00461 0.46345 0.0
H1093 H 0.1817 0.11434 0.47871 0.0
H1094 H 0.10179 0.05653 0.45989 0.0
H1095 H 0.21649 0.06247 0.48053 0.0
H1096 H 0.15237 0.09345 0.47124 0.0
H1097 H 0.16594 0.02561 0.46915 0.0
C1098 C 0.13495 0.02044 0.46389 0.0
C1099 C 0.11651 0.02883 0.46128 0.0
C1100 C 0.16642 0.08663 0.47323 0.0
C1101 C 0.15043 0.05297 0.46769 0.0
C1102 C 0.18319 0.09855 0.47753 0.0
C1103 C 0.20158 0.09014 0.48031 0.0
C1104 C 0.16803 0.06612 0.47174 0.0
C1105 C 0.20261 0.0696 0.47854 0.0
C1106 C 0.1519 0.03242 0.46705 0.0
C1107 C 0.11572 0.04943 0.46166 0.0
N1108 N 0.18605 0.05829 0.47441 0.0
N1109 N 0.13242 0.06079 0.4649 0.0
H1110 H 0.74099 0.10576 0.73845 0.0
H1111 H 0.63406 0.05713 0.71335 0.0
H1112 H 0.69486 0.13631 0.70902 0.0
H1113 H 0.67588 0.03079 0.75219 0.0
H1114 H 0.6573 0.08512 0.70925 0.0
H1115 H 0.71838 0.07706 0.74143 0.0
C1116 C 0.72611 0.10648 0.73266 0.0
C1117 C 0.71983 0.12355 0.72351 0.0
C1118 C 0.6614 0.07322 0.71867 0.0
C1119 C 0.69396 0.09061 0.72666 0.0
C1120 C 0.64814 0.0572 0.72099 0.0
C1121 C 0.65301 0.04161 0.73318 0.0
C1122 C 0.67972 0.07362 0.72851 0.0
C1123 C 0.67149 0.04252 0.74271 0.0
C1124 C 0.71324 0.09004 0.7343 0.0
C1125 C 0.70047 0.12343 0.71595 0.0
N1126 N 0.68418 0.05826 0.74016 0.0
N1127 N 0.68824 0.10725 0.71771 0.0
H1128 H 0.38768 0.02581 0.53403 0.0
H1129 H 0.31969 0.077 0.45438 0.0
H1130 H 0.40123 0.02737 0.47146 0.0
H1131 H 0.30864 0.0781 0.51751 0.0
H1132 H 0.34924 0.05829 0.4601 0.0
H1133 H 0.35842 0.04466 0.52805 0.0
C1134 C 0.38459 0.03025 0.51904 0.0
C1135 C 0.397 0.02506 0.50323 0.0
C1136 C 0.34034 0.06263 0.47269 0.0
C1137 C 0.36327 0.04644 0.49622 0.0
C1138 C 0.32345 0.0733 0.46944 0.0
C1139 C 0.31166 0.07913 0.48549 0.0
C1140 C 0.34545 0.05773 0.49213 0.0
C1141 C 0.31728 0.07393 0.50468 0.0
C1142 C 0.36779 0.04092 0.51561 0.0
C1143 C 0.39199 0.03088 0.48406 0.0
N1144 N 0.33376 0.06353 0.50745 0.0
N1145 N 0.37551 0.04127 0.48109 0.0
H1146 H 0.60606 0.46076 0.54916 0.0
H1147 H 0.71453 0.45696 0.50205 0.0
H1148 H 0.6349 0.50953 0.51916 0.0
H1149 H 0.68825 0.41071 0.5376 0.0
H1150 H 0.68539 0.4764 0.508 0.0
H1151 H 0.63605 0.44219 0.54512 0.0
C1152 C 0.61874 0.46764 0.54186 0.0
C1153 C 0.6179 0.48673 0.53443 0.0
C1154 C 0.68603 0.46202 0.51455 0.0
C1155 C 0.65222 0.46543 0.52952 0.0
C1156 C 0.70266 0.4509 0.51114 0.0
C1157 C 0.70382 0.43215 0.51929 0.0
C1158 C 0.67039 0.4543 0.52612 0.0
C1159 C 0.688 0.42508 0.531 0.0
C1160 C 0.63583 0.45698 0.53947 0.0
C1161 C 0.63473 0.49475 0.52484 0.0
N1162 N 0.67191 0.43613 0.534 0.0
N1163 N 0.65116 0.48404 0.52262 0.0
H1164 H 0.73018 0.2543 0.40868 0.0
H1165 H 0.72141 0.36071 0.45942 0.0
H1166 H 0.70256 0.30242 0.37999 0.0
H1167 H 0.76095 0.3172 0.48022 0.0
H1168 H 0.71236 0.33885 0.43134 0.0
H1169 H 0.73974 0.27651 0.43618 0.0
C1170 C 0.72623 0.26956 0.40807 0.0
C1171 C 0.71558 0.27648 0.39192 0.0
C1172 C 0.72305 0.33413 0.44203 0.0
C1173 C 0.72621 0.30192 0.42359 0.0
C1174 C 0.7282 0.34657 0.45808 0.0
C1175 C 0.74195 0.34076 0.47219 0.0
C1176 C 0.73158 0.31568 0.4402 0.0
C1177 C 0.75031 0.3223 0.46968 0.0
C1178 C 0.73162 0.28221 0.42384 0.0
C1179 C 0.71052 0.29634 0.39222 0.0
N1180 N 0.74493 0.31038 0.45404 0.0
N1181 N 0.71585 0.30835 0.40782 0.0
H1182 H 0.53382 0.99122 0.89046 0.0
H1183 H 0.59261 0.04382 0.80164 0.0
H1184 H 0.53606 0.05399 0.8817 0.0
H1185 H 0.58848 0.9808 0.80862 0.0
H1186 H 0.57216 0.04778 0.83118 0.0
H1187 H 0.5538 0.987 0.86055 0.0
C1188 C 0.5384 0.0041 0.88218 0.0
C1189 C 0.53329 0.02299 0.88865 0.0
C1190 C 0.57571 0.03308 0.82626 0.0
C1191 C 0.55636 0.0183 0.85451 0.0
C1192 C 0.58742 0.03081 0.80939 0.0
C1193 C 0.59227 0.01195 0.80264 0.0
C1194 C 0.5688 0.01638 0.8365 0.0
C1195 C 0.5851 0.99562 0.81329 0.0
C1196 C 0.54991 0.0017 0.86517 0.0
C1197 C 0.53989 0.03918 0.87747 0.0
N1198 N 0.57374 -0.00178 0.8297 0.0
N1199 N 0.55108 0.03646 0.86097 0.0
H1200 H 0.28452 0.19462 0.35465 0.0
H1201 H 0.24941 0.18701 0.46755 0.0
H1202 H 0.26766 0.24461 0.39046 0.0
H1203 H 0.2756 0.13919 0.43512 0.0
H1204 H 0.25517 0.2081 0.43908 0.0
H1205 H 0.28083 0.17387 0.38369 0.0
C1206 C 0.2802 0.20129 0.36864 0.0
C1207 C 0.27632 0.2214 0.37007 0.0
C1208 C 0.25971 0.19302 0.43821 0.0
C1209 C 0.27178 0.19765 0.40331 0.0
C1210 C 0.25638 0.18094 0.45445 0.0
C1211 C 0.26198 0.16129 0.45369 0.0
C1212 C 0.26859 0.18536 0.42102 0.0
C1213 C 0.27104 0.15425 0.43634 0.0
C1214 C 0.278 0.1894 0.3852 0.0
C1215 C 0.27047 0.22913 0.38855 0.0
N1216 N 0.27398 0.16626 0.42065 0.0
N1217 N 0.26832 0.21723 0.40441 0.0
H1218 H 0.46709 0.45148 0.86089 0.0
H1219 H 0.39232 0.52195 0.80753 0.0
H1220 H 0.45908 0.51189 0.87896 0.0
H1221 H 0.40662 0.46456 0.78437 0.0
H1222 H 0.41529 0.51779 0.83492 0.0
H1223 H 0.4436 0.45529 0.83379 0.0
C1224 C 0.46033 0.46553 0.85918 0.0
C1225 C 0.46503 0.48139 0.87219 0.0
C1226 C 0.4134 0.5061 0.82385 0.0
C1227 C 0.4382 0.48589 0.8412 0.0
C1228 C 0.40023 0.50843 0.80823 0.0
C1229 C 0.39755 0.49358 0.79361 0.0
C1230 C 0.42392 0.48875 0.82493 0.0
C1231 C 0.40825 0.47641 0.79529 0.0
C1232 C 0.447 0.46773 0.84366 0.0
C1233 C 0.45604 0.49934 0.86914 0.0
N1234 N 0.42096 0.47446 0.81067 0.0
N1235 N 0.44301 0.50109 0.854 0.0
H1236 H 0.72535 0.70755 0.12787 0.0
H1237 H 0.74391 0.6967 0.01097 0.0
H1238 H 0.72774 0.75659 0.08814 0.0
H1239 H 0.7489 0.64878 0.05155 0.0
H1240 H 0.73685 0.71862 0.03896 0.0
H1241 H 0.73264 0.68549 0.09995 0.0
C1242 C 0.72731 0.71365 0.11325 0.0
C1243 C 0.72593 0.73393 0.11031 0.0
C1244 C 0.73952 0.70332 0.04176 0.0
C1245 C 0.7344 0.70881 0.07833 0.0
C1246 C 0.74354 0.69077 0.02577 0.0
C1247 C 0.747 0.67086 0.02892 0.0
C1248 C 0.73885 0.6959 0.06106 0.0
C1249 C 0.74635 0.66403 0.04844 0.0
C1250 C 0.7316 0.70108 0.09734 0.0
C1251 C 0.72888 0.74109 0.0911 0.0
N1252 N 0.7423 0.67653 0.06377 0.0
N1253 N 0.73293 0.72853 0.07584 0.0
H1254 H 0.99552 0.02545 0.14044 0.0
H1255 H 0.88771 0.03785 0.187 0.0
H1256 H 0.94571 0.04499 0.10706 0.0
H1257 H 0.93511 0.00985 0.2171 0.0
H1258 H 0.90937 0.04277 0.15833 0.0
H1259 H 0.97412 0.02154 0.16937 0.0
C1260 C 0.98006 0.02881 0.13914 0.0
C1261 C 0.97241 0.0355 0.12122 0.0
C1262 C 0.91502 0.03556 0.17122 0.0
C1263 C 0.94786 0.03132 0.15445 0.0
C1264 C 0.90268 0.03279 0.18761 0.0
C1265 C 0.90959 0.02338 0.20446 0.0
C1266 C 0.93444 0.02897 0.1717 0.0
C1267 C 0.92913 0.01712 0.20441 0.0
C1268 C 0.96787 0.02668 0.15571 0.0
C1269 C 0.95232 0.04002 0.12059 0.0
N1270 N 0.94086 0.02003 0.18829 0.0
N1271 N 0.94075 0.03784 0.13695 0.0
H1272 H 0.24368 0.78321 0.1424 0.0
H1273 H 0.29689 0.83591 0.05051 0.0
H1274 H 0.30452 0.77474 0.12612 0.0
H1275 H 0.24018 0.85236 0.07364 0.0
H1276 H 0.29929 0.81213 0.07702 0.0
H1277 H 0.24128 0.80706 0.11589 0.0
C1278 C 0.25649 0.78628 0.13316 0.0
C1279 C 0.27433 0.77701 0.13647 0.0
C1280 C 0.28635 0.82099 0.07633 0.0
C1281 C 0.27176 0.80435 0.10622 0.0
C1282 C 0.28496 0.83456 0.06119 0.0
C1283 C 0.2683 0.84614 0.05985 0.0
C1284 C 0.27091 0.81886 0.09015 0.0
C1285 C 0.25331 0.84377 0.07412 0.0
C1286 C 0.25516 0.8 0.11813 0.0
C1287 C 0.29055 0.78172 0.12421 0.0
N1288 N 0.25493 0.83033 0.08863 0.0
N1289 N 0.28887 0.79503 0.1096 0.0
H1290 H 0.01602 0.50936 0.12206 0.0
H1291 H 0.09272 0.46528 0.19725 0.0
H1292 H 0.03766 0.45062 0.11552 0.0
H1293 H 0.05634 0.5141 0.21269 0.0
H1294 H 0.0748 0.46108 0.16587 0.0
H1295 H 0.03274 0.51275 0.15409 0.0
C1296 C 0.02415 0.4971 0.12738 0.0
C1297 C 0.02536 0.47964 0.11601 0.0
C1298 C 0.07069 0.47265 0.17617 0.0
C1299 C 0.04488 0.48364 0.15255 0.0
C1300 C 0.08093 0.47509 0.19406 0.0
C1301 C 0.07601 0.49008 0.20759 0.0
C1302 C 0.0556 0.48544 0.17167 0.0
C1303 C 0.06058 0.50232 0.20271 0.0
C1304 C 0.03376 0.4991 0.14564 0.0
C1305 C 0.03653 0.46447 0.12355 0.0
N1306 N 0.051 0.49982 0.18507 0.0
N1307 N 0.0459 0.46685 0.14131 0.0
H1308 H 0.37135 0.69757 0.28497 0.0
H1309 H 0.43715 0.77773 0.3469 0.0
H1310 H 0.35719 0.75877 0.29085 0.0
H1311 H 0.45373 0.71766 0.33673 0.0
H1312 H 0.40651 0.7705 0.3285 0.0
H1313 H 0.40018 0.70403 0.3063 0.0
C1314 C 0.37419 0.71232 0.29092 0.0
C1315 C 0.3619 0.72767 0.28605 0.0
C1316 C 0.41683 0.75889 0.33034 0.0
C1317 C 0.395 0.73523 0.31027 0.0
C1318 C 0.43433 0.76301 0.34085 0.0
C1319 C 0.44808 0.74831 0.34327 0.0
C1320 C 0.41303 0.73993 0.32223 0.0
C1321 C 0.44361 0.72948 0.33515 0.0
C1322 C 0.39073 0.71604 0.30299 0.0
C1323 C 0.36644 0.74656 0.29399 0.0
N1324 N 0.4265 0.72585 0.32496 0.0
N1325 N 0.38265 0.74982 0.30566 0.0
H1326 H -0.00072 0.36834 0.97878 0.0
H1327 H 0.01826 0.33065 0.86738 0.0
H1328 H 0.00149 0.40683 0.92861 0.0
H1329 H 0.00472 0.29195 0.91599 0.0
H1330 H 0.01561 0.35894 0.89008 0.0
H1331 H 0.00489 0.34039 0.95643 0.0
C1332 C 0.00113 0.37093 0.96307 0.0
C1333 C -0.00011 0.38993 0.95553 0.0
C1334 C 0.01326 0.34425 0.89576 0.0
C1335 C 0.00614 0.35798 0.92984 0.0
C1336 C 0.01482 0.32809 0.88284 0.0
C1337 C 0.01163 0.30891 0.88978 0.0
C1338 C 0.00861 0.3412 0.91581 0.0
C1339 C 0.00721 0.30648 0.90996 0.0
C1340 C 0.00419 0.35495 0.95031 0.0
C1341 C 0.00213 0.39239 0.93501 0.0
N1342 N 0.00583 0.32244 0.92225 0.0
N1343 N 0.00514 0.37659 0.92286 0.0
H1344 H 0.63354 0.74926 0.26532 0.0
H1345 H 0.52721 0.78193 0.30222 0.0
H1346 H 0.60851 0.80418 0.24938 0.0
H1347 H 0.56016 0.73757 0.33122 0.0
H1348 H 0.55515 0.7879 0.2798 0.0
H1349 H 0.60494 0.74236 0.28672 0.0
C1350 C 0.62196 0.75981 0.26627 0.0
C1351 C 0.62337 0.77733 0.25562 0.0
C1352 C 0.55624 0.77685 0.29106 0.0
C1353 C 0.59068 0.76955 0.27999 0.0
C1354 C 0.54028 0.77337 0.30381 0.0
C1355 C 0.54139 0.75926 0.31864 0.0
C1356 C 0.57334 0.76598 0.29302 0.0
C1357 C 0.55871 0.74865 0.32005 0.0
C1358 C 0.60572 0.75593 0.27855 0.0
C1359 C 0.60807 0.7906 0.25751 0.0
N1360 N 0.574 0.7522 0.30736 0.0
N1361 N 0.59231 0.7864 0.26941 0.0
H1362 H 0.04942 0.1294 0.96093 0.0
H1363 H 0.97038 0.20015 0.91488 0.0
H1364 H 0.98645 0.12281 0.97092 0.0
H1365 H 0.03208 0.20156 0.89824 0.0
H1366 H 0.97618 0.17235 0.9362 0.0
H1367 H 0.04354 0.15624 0.93839 0.0
C1368 C 0.03434 0.13347 0.95828 0.0
C1369 C 0.01841 0.12382 0.96789 0.0
C1370 C 0.98845 0.1787 0.92785 0.0
C1371 C 0.0116 0.15477 0.9423 0.0
C1372 C 0.98516 0.19461 0.91569 0.0
C1373 C 0.00078 0.20322 0.90477 0.0
C1374 C 0.00753 0.17139 0.9292 0.0
C1375 C 0.0196 0.19538 0.90639 0.0
C1376 C 0.03101 0.14888 0.94548 0.0
C1377 C -0.00078 0.13001 0.9641 0.0
N1378 N 0.02246 0.17995 0.91842 0.0
N1379 N 0.99637 0.1451 0.95165 0.0
H1380 H 0.35384 0.23553 0.20874 0.0
H1381 H 0.44635 0.28823 0.15478 0.0
H1382 H 0.36626 0.29829 0.21055 0.0
H1383 H 0.43229 0.22584 0.14965 0.0
H1384 H 0.41626 0.29227 0.17416 0.0
H1385 H 0.38183 0.23168 0.18618 0.0
C1386 C 0.36245 0.2485 0.20437 0.0
C1387 C 0.35775 0.26725 0.21159 0.0
C1388 C 0.41969 0.2777 0.16872 0.0
C1389 C 0.38973 0.26298 0.18573 0.0
C1390 C 0.43689 0.27538 0.15765 0.0
C1391 C 0.44191 0.25664 0.15068 0.0
C1392 C 0.40744 0.26116 0.17296 0.0
C1393 C 0.42902 0.24055 0.15477 0.0
C1394 C 0.37836 0.24631 0.19142 0.0
C1395 C 0.36922 0.28357 0.20521 0.0
N1396 N 0.41244 0.24316 0.16576 0.0
N1397 N 0.38474 0.28105 0.19274 0.0
H1398 H 0.48089 0.39133 0.01809 0.0
H1399 H 0.52768 0.31578 0.09276 0.0
H1400 H 0.54367 0.38823 0.02859 0.0
H1401 H 0.46625 0.31319 0.07506 0.0
H1402 H 0.53355 0.34376 0.07103 0.0
H1403 H 0.475 0.36398 0.0405 0.0
C1404 C 0.49346 0.38484 0.02502 0.0
C1405 C 0.51283 0.39206 0.02136 0.0
C1406 C 0.51879 0.33707 0.0719 0.0
C1407 C 0.50614 0.36088 0.04729 0.0
C1408 C 0.51541 0.32111 0.08433 0.0
C1409 C 0.49645 0.3121 0.08569 0.0
C1410 C 0.50307 0.34413 0.06083 0.0
C1411 C 0.48112 0.31964 0.07443 0.0
C1412 C 0.49007 0.36928 0.0379 0.0
C1413 C 0.52848 0.38331 0.03112 0.0
N1414 N 0.48477 0.33522 0.06249 0.0
N1415 N 0.52479 0.36817 0.04362 0.0
H1416 H 0.58868 0.20747 0.255 0.0
H1417 H 0.5533 0.27386 0.1667 0.0
H1418 H 0.62036 0.26077 0.2379 0.0
H1419 H 0.51411 0.23265 0.19685 0.0
H1420 H 0.579 0.26798 0.19119 0.0
H1421 H 0.56204 0.215 0.2321 0.0
C1422 C 0.59 0.22075 0.2464 0.0
C1423 C 0.6067 0.23352 0.24828 0.0
C1424 C 0.56473 0.26034 0.19249 0.0
C1425 C 0.57641 0.24219 0.2221 0.0
C1426 C 0.55008 0.26364 0.17851 0.0
C1427 C 0.53156 0.2537 0.17973 0.0
C1428 C 0.56091 0.2468 0.20762 0.0
C1429 C 0.52817 0.24066 0.19536 0.0
C1430 C 0.57477 0.2251 0.23344 0.0
C1431 C 0.60764 0.25063 0.23697 0.0
N1432 N 0.54276 0.23747 0.20862 0.0
N1433 N 0.59275 0.25441 0.22423 0.0
H1434 H 0.49451 0.14371 0.01461 0.0
H1435 H 0.5141 0.18682 0.12452 0.0
H1436 H 0.49973 0.10741 0.06601 0.0
H1437 H 0.49799 0.22262 0.07529 0.0
H1438 H 0.51221 0.15779 0.10259 0.0
H1439 H 0.49924 0.17305 0.03595 0.0
C1440 C 0.49682 0.14193 0.03037 0.0
C1441 C 0.49666 0.12312 0.03858 0.0
C1442 C 0.50912 0.172 0.09658 0.0
C1443 C 0.50194 0.15657 0.06307 0.0
C1444 C 0.51023 0.1886 0.10908 0.0
C1445 C 0.50612 0.20717 0.10174 0.0
C1446 C 0.50395 0.17399 0.07656 0.0
C1447 C 0.5012 0.20857 0.0816 0.0
C1448 C 0.49939 0.15866 0.04255 0.0
C1449 C 0.49951 0.12165 0.05912 0.0
N1450 N 0.50024 0.19219 0.06971 0.0
N1451 N 0.50203 0.13815 0.07066 0.0
H1452 H 0.29165 0.36812 0.69309 0.0
H1453 H 0.30578 0.47462 0.74437 0.0
H1454 H 0.24292 0.40139 0.7153 0.0
H1455 H 0.35123 0.44717 0.70972 0.0
H1456 H 0.28305 0.44685 0.73607 0.0
H1457 H 0.31416 0.39604 0.70101 0.0
C1458 C 0.28562 0.38134 0.69947 0.0
C1459 C 0.26529 0.38238 0.70344 0.0
C1460 C 0.29798 0.44693 0.73027 0.0
C1461 C 0.29114 0.41432 0.71294 0.0
C1462 C 0.31099 0.46274 0.73504 0.0
C1463 C 0.33044 0.46321 0.72771 0.0
C1464 C 0.30451 0.4314 0.71822 0.0
C1465 C 0.33636 0.44744 0.71566 0.0
C1466 C 0.29853 0.39725 0.7041 0.0
C1467 C 0.25848 0.39979 0.71219 0.0
N1468 N 0.32346 0.43214 0.71134 0.0
N1469 N 0.27139 0.41505 0.71667 0.0
H1470 H 0.27928 0.6524 0.7904 0.0
H1471 H 0.2857 0.53553 0.7796 0.0
H1472 H 0.22834 0.61241 0.79412 0.0
H1473 H 0.33328 0.5763 0.76346 0.0
H1474 H 0.26505 0.56336 0.78738 0.0
H1475 H 0.29996 0.62448 0.78306 0.0
C1476 C 0.27248 0.63771 0.78979 0.0
C1477 C 0.25208 0.63469 0.7929 0.0
C1478 C 0.28 0.5662 0.78211 0.0
C1479 C 0.27561 0.6027 0.78439 0.0
C1480 C 0.29182 0.55033 0.7777 0.0
C1481 C 0.31125 0.5536 0.77085 0.0
C1482 C 0.28771 0.58549 0.7798 0.0
C1483 C 0.31837 0.5731 0.76865 0.0
C1484 C 0.28426 0.6218 0.78547 0.0
C1485 C 0.24398 0.61539 0.79165 0.0
N1486 N 0.30662 0.58831 0.77317 0.0
N1487 N 0.25578 0.6001 0.78755 0.0
H1488 H 0.8805 0.46734 0.46995 0.0
H1489 H 0.802 0.43275 0.55223 0.0
H1490 H 0.8907 0.47441 0.53299 0.0
H1491 H 0.7971 0.41589 0.49026 0.0
H1492 H 0.83367 0.44977 0.54525 0.0
H1493 H 0.84922 0.44965 0.47691 0.0
C1494 C 0.87628 0.46503 0.48526 0.0
C1495 C 0.88829 0.47243 0.5009 0.0
C1496 C 0.82567 0.44233 0.53319 0.0
C1497 C 0.85227 0.45248 0.50897 0.0
C1498 C 0.80755 0.43266 0.53715 0.0
C1499 C 0.79689 0.42287 0.52181 0.0
C1500 C 0.83312 0.44232 0.51372 0.0
C1501 C 0.80483 0.42321 0.50256 0.0
C1502 C 0.85834 0.45503 0.48922 0.0
C1503 C 0.88181 0.46927 0.52044 0.0
N1504 N 0.82244 0.43281 0.49906 0.0
N1505 N 0.86424 0.4596 0.52391 0.0
H1506 H 0.71534 0.85782 0.74255 0.0
H1507 H 0.67337 0.95015 0.80242 0.0
H1508 H 0.72888 0.87082 0.80412 0.0
H1509 H 0.65602 0.93339 0.74259 0.0
H1510 H 0.69433 0.92164 0.8033 0.0
H1511 H 0.69425 0.88612 0.74215 0.0
C1512 C 0.71396 0.86671 0.75596 0.0
C1513 C 0.72393 0.86199 0.77338 0.0
C1514 C 0.68589 0.9242 0.79 0.0
C1515 C 0.69963 0.89433 0.77309 0.0
C1516 C 0.67393 0.94047 0.78948 0.0
C1517 C 0.66293 0.94418 0.7724 0.0
C1518 C 0.68691 0.9116 0.77328 0.0
C1519 C 0.66423 0.93113 0.75608 0.0
C1520 C 0.70181 0.8828 0.75577 0.0
C1521 C 0.72132 0.87383 0.79042 0.0
N1522 N 0.67603 0.91547 0.75692 0.0
N1523 N 0.70946 0.8895 0.78984 0.0
H1524 H 0.59987 0.56398 0.96219 0.0
H1525 H 0.71588 0.57076 0.98646 0.0
H1526 H 0.63441 0.51373 0.97515 0.0
H1527 H 0.68122 0.62156 0.97605 0.0
H1528 H 0.6862 0.54963 0.98179 0.0
H1529 H 0.62958 0.58533 0.96647 0.0
C1530 C 0.61372 0.55743 0.96585 0.0
C1531 C 0.61465 0.53704 0.96835 0.0
C1532 C 0.68507 0.5654 0.98053 0.0
C1533 C 0.64866 0.56138 0.97341 0.0
C1534 C 0.70203 0.57749 0.98319 0.0
C1535 C 0.70104 0.59798 0.98166 0.0
C1536 C 0.66696 0.57383 0.97627 0.0
C1537 C 0.68267 0.60585 0.97738 0.0
C1538 C 0.63065 0.56963 0.9684 0.0
C1539 C 0.63294 0.52939 0.97335 0.0
N1540 N 0.66635 0.59376 0.97483 0.0
N1541 N 0.64921 0.54155 0.97569 0.0
H1542 H 0.19051 0.64135 0.21244 0.0
H1543 H 0.17257 0.53252 0.25356 0.0
H1544 H 0.23632 0.60838 0.23948 0.0
H1545 H 0.1298 0.56209 0.21847 0.0
H1546 H 0.19563 0.56081 0.25002 0.0
H1547 H 0.16761 0.61297 0.21576 0.0
C1548 C 0.19581 0.62811 0.21896 0.0
C1549 C 0.21542 0.62728 0.22566 0.0
C1550 C 0.1812 0.56109 0.24308 0.0
C1551 C 0.18913 0.59479 0.22978 0.0
C1552 C 0.16801 0.54496 0.24512 0.0
C1553 C 0.14922 0.54493 0.23629 0.0
C1554 C 0.17554 0.57737 0.23221 0.0
C1555 C 0.14414 0.56145 0.22551 0.0
C1556 C 0.18268 0.61194 0.22095 0.0
C1557 C 0.22129 0.60982 0.23434 0.0
N1558 N 0.15721 0.57701 0.22381 0.0
N1559 N 0.20821 0.59428 0.23616 0.0
H1560 H 0.88369 0.52919 0.03564 0.0
H1561 H 0.81097 0.57318 0.95579 0.0
H1562 H 0.89301 0.5246 0.97233 0.0
H1563 H 0.8087 0.58747 0.01845 0.0
H1564 H 0.83964 0.55335 0.96172 0.0
H1565 H 0.85489 0.5488 0.02974 0.0
C1566 C 0.87978 0.5324 0.02049 0.0
C1567 C 0.89089 0.52527 0.00446 0.0
C1568 C 0.83288 0.56084 0.97417 0.0
C1569 C 0.85767 0.54748 -0.00238 0.0
C1570 C 0.81648 0.57214 0.97081 0.0
C1571 C 0.80743 0.58202 0.98666 0.0
C1572 C 0.84023 0.5593 0.99353 0.0
C1573 C 0.81524 0.58014 0.00579 0.0
C1574 C 0.86325 0.54351 0.01715 0.0
C1575 C 0.88478 0.52956 0.98515 0.0
N1576 N 0.83117 0.56897 0.0087 0.0
N1577 N 0.86859 0.54037 0.98228 0.0
H1578 H 0.12323 0.98277 0.05536 0.0
H1579 H 0.20002 0.9349 0.97996 0.0
H1580 H 0.11846 0.98579 0.99161 0.0
H1581 H 0.19986 0.92476 0.04301 0.0
H1582 H 0.17117 0.95507 0.98415 0.0
H1583 H 0.15215 0.96267 0.0513 0.0
C1584 C 0.12816 0.9791 0.0405 0.0
C1585 C 0.11834 0.98598 0.0238 0.0
C1586 C 0.17744 0.94843 -0.00293 0.0
C1587 C 0.15168 0.9632 0.01906 0.0
C1588 C 0.19395 0.93694 0.9947 0.0
C1589 C 0.20237 0.9281 0.01116 0.0
C1590 C 0.16931 0.95119 0.01605 0.0
C1591 C 0.19384 0.93126 0.0299 0.0
C1592 C 0.14476 0.96771 0.0382 0.0
C1593 C 0.12569 0.98106 0.00492 0.0
N1594 N 0.17779 0.94256 0.03183 0.0
N1595 N 0.14191 0.96999 0.00307 0.0
loop_
_geom_bond_atom_site_label_1
_geom_bond_atom_site_label_2
_geom_bond_distance
_geom_bond_site_symmetry_2
_ccdc_geom_bond_type
C0 C1 1.384 . S
C0 H13 0.947 . S
C0 C35 1.382 . S
C1 C0 1.384 . S
C1 C2 1.378 1_655 S
C2 C1 1.378 1_455 S
C2 C3 1.378 . S
C2 H14 0.952 . S
C3 C2 1.378 . S
C3 H15 0.950 . S
C3 C34 1.383 . S
H4 C23 0.947 . S
H5 C24 0.946 . S
H6 C26 0.953 . S
H7 C27 0.945 . S
H8 C29 0.944 1_556 S
H9 C30 0.949 . S
H10 C32 0.950 . S
H11 C33 0.948 . S
H12 C35 0.951 . S
H13 C0 0.947 . S
H14 C2 0.952 . S
H15 C3 0.950 . S
N16 C19 1.382 . S
N16 C21 1.363 . S
N17 C19 1.371 . S
N17 C20 1.372 . S
N18 C20 1.361 . S
N18 C21 1.377 . S
C19 N16 1.382 . S
C19 N17 1.371 . S
C19 C22 1.480 . S
C20 N17 1.372 . S
C20 N18 1.361 . S
C20 C28 1.457 . S
C21 N16 1.363 . S
C21 N18 1.377 . S
C21 C34 1.479 . S
C22 C19 1.480 . S
C22 C23 1.383 . S
C22 C27 1.385 . S
C23 H4 0.947 . S
C23 C22 1.383 . S
C23 C24 1.388 1_545 S
C24 H5 0.946 . S
C24 C23 1.388 1_565 S
C24 C25 1.384 . S
C25 C24 1.384 . S
C25 C26 1.377 1_565 S
C26 H6 0.953 . S
C26 C25 1.377 1_545 S
C26 C27 1.369 . S
C27 H7 0.945 . S
C27 C22 1.385 . S
C27 C26 1.369 . S
C28 C20 1.457 . S
C28 C29 1.372 . S
C28 C33 1.364 . S
C29 H8 0.944 1_554 S
C29 C28 1.372 . S
C29 C30 1.389 1_554 S
C30 H9 0.949 . S
C30 C29 1.389 1_556 S
C30 C31 1.387 . S
C31 C30 1.387 . S
C31 C32 1.372 1_556 S
C32 H10 0.950 . S
C32 C31 1.372 1_554 S
C32 C33 1.379 . S
C33 H11 0.948 . S
C33 C28 1.364 . S
C33 C32 1.379 . S
C34 C3 1.383 . S
C34 C21 1.479 . S
C34 C35 1.398 1_455 S
C35 C0 1.382 . S
C35 H12 0.951 . S
C35 C34 1.398 1_655 S
C36 C37 1.384 . S
C36 H49 0.947 . S
C36 C71 1.382 . S
C37 C36 1.384 . S
C37 C38 1.378 . S
C38 C37 1.378 . S
C38 C39 1.378 . S
C38 H50 0.952 . S
C39 C38 1.378 . S
C39 H51 0.950 . S
C39 C70 1.383 . S
H40 C59 0.947 . S
H41 C60 0.946 . S
H42 C62 0.953 . S
H43 C63 0.945 . S
H44 C65 0.952 . S
H45 C66 0.949 . S
H46 C68 0.950 . S
H47 C69 0.948 . S
H48 C71 0.951 . S
H49 C36 0.947 . S
H50 C38 0.952 . S
H51 C39 0.950 . S
N52 C55 1.382 . S
N52 C57 1.363 . S
N53 C55 1.371 . S
N53 C56 1.372 . S
N54 C56 1.361 . S
N54 C57 1.377 . S
C55 N52 1.382 . S
C55 N53 1.371 . S
C55 C58 1.480 . S
C56 N53 1.372 . S
C56 N54 1.361 . S
C56 C64 1.457 . S
C57 N52 1.363 . S
C57 N54 1.377 . S
C57 C70 1.479 . S
C58 C55 1.480 . S
C58 C59 1.383 . S
C58 C63 1.385 . S
C59 H40 0.947 . S
C59 C58 1.383 . S
C59 C60 1.388 . S
C60 H41 0.946 . S
C60 C59 1.388 . S
C60 C61 1.384 . S
C61 C60 1.384 . S
C61 C62 1.377 . S
C62 H42 0.953 . S
C62 C61 1.377 . S
C62 C63 1.369 . S
C63 H43 0.945 . S
C63 C58 1.385 . S
C63 C62 1.369 . S
C64 C56 1.457 . S
C64 C65 1.372 . S
C64 C69 1.364 . S
C65 H44 0.952 . S
C65 C64 1.372 . S
C65 C66 1.389 . S
C66 H45 0.949 . S
C66 C65 1.389 . S
C66 C67 1.387 . S
C67 C66 1.387 . S
C67 C68 1.372 . S
C68 H46 0.950 . S
C68 C67 1.372 . S
C68 C69 1.379 . S
C69 H47 0.948 . S
C69 C64 1.364 . S
C69 C68 1.379 . S
C70 C39 1.383 . S
C70 C57 1.479 . S
C70 C71 1.398 . S
C71 C36 1.382 . S
C71 H48 0.951 . S
C71 C70 1.398 . S
C72 C73 1.339 1_554 S
C72 H85 0.961 . S
C72 C107 1.416 . S
C73 C72 1.339 1_556 S
C73 C74 1.378 . S
C74 C73 1.378 . S
C74 C75 1.378 . S
C74 H86 0.952 . S
C75 C74 1.378 . S
C75 H87 0.950 . S
C75 C106 1.383 1_556 S
H76 C95 0.947 . S
H77 C96 0.946 . S
H78 C98 0.953 . S
H79 C99 0.945 . S
H80 C101 0.952 . S
H81 C102 0.946 1_655 S
H82 C104 0.950 . S
H83 C105 0.948 . S
H84 C107 0.951 . S
H85 C72 0.961 . S
H86 C74 0.952 . S
H87 C75 0.950 . S
N88 C91 1.382 . S
N88 C93 1.363 . S
N89 C91 1.371 . S
N89 C92 1.372 . S
N90 C92 1.361 . S
N90 C93 1.377 . S
C91 N88 1.382 . S
C91 N89 1.371 . S
C91 C94 1.480 . S
C92 N89 1.372 . S
C92 N90 1.361 . S
C92 C100 1.457 . S
C93 N88 1.363 . S
C93 N90 1.377 . S
C93 C106 1.479 . S
C94 C91 1.480 . S
C94 C95 1.383 . S
C94 C99 1.385 . S
C95 H76 0.947 . S
C95 C94 1.383 . S
C95 C96 1.388 . S
C96 H77 0.946 . S
C96 C95 1.388 . S
C96 C97 1.384 . S
C97 C96 1.384 . S
C97 C98 1.377 . S
C98 H78 0.953 . S
C98 C97 1.377 . S
C98 C99 1.369 . S
C99 H79 0.945 . S
C99 C94 1.385 . S
C99 C98 1.369 . S
C100 C92 1.457 . S
C100 C101 1.372 . S
C100 C105 1.364 1_655 S
C101 H80 0.952 . S
C101 C100 1.372 . S
C101 C102 1.381 1_655 S
C102 H81 0.946 1_455 S
C102 C101 1.381 1_455 S
C102 C103 1.397 . S
C103 C102 1.397 . S
C103 C104 1.372 . S
C104 H82 0.950 . S
C104 C103 1.372 . S
C104 C105 1.379 . S
C105 H83 0.948 . S
C105 C100 1.364 1_455 S
C105 C104 1.379 . S
C106 C75 1.383 1_554 S
C106 C93 1.479 . S
C106 C107 1.398 . S
C107 C72 1.416 . S
C107 H84 0.951 . S
C107 C106 1.398 . S
C108 C109 1.384 . S
C108 H121 0.947 . S
C108 C143 1.382 . S
C109 C108 1.384 . S
C109 C110 1.378 . S
C110 C109 1.378 . S
C110 C111 1.378 . S
C110 H122 0.952 . S
C111 C110 1.378 . S
C111 H123 0.950 . S
C111 C142 1.383 . S
H112 C131 0.947 . S
H113 C132 0.946 . S
H114 C134 0.953 . S
H115 C135 0.945 . S
H116 C137 0.952 . S
H117 C138 0.949 . S
H118 C140 0.950 . S
H119 C141 0.948 . S
H120 C143 0.951 . S
H121 C108 0.947 . S
H122 C110 0.952 . S
H123 C111 0.950 . S
N124 C127 1.382 . S
N124 C129 1.363 . S
N125 C127 1.371 . S
N125 C128 1.372 . S
N126 C128 1.361 . S
N126 C129 1.377 . S
C127 N124 1.382 . S
C127 N125 1.371 . S
C127 C130 1.480 . S
C128 N125 1.372 . S
C128 N126 1.361 . S
C128 C136 1.457 . S
C129 N124 1.363 . S
C129 N126 1.377 . S
C129 C142 1.479 . S
C130 C127 1.480 . S
C130 C131 1.383 . S
C130 C135 1.385 . S
C131 H112 0.947 . S
C131 C130 1.383 . S
C131 C132 1.388 . S
C132 H113 0.946 . S
C132 C131 1.388 . S
C132 C133 1.384 . S
C133 C132 1.384 . S
C133 C134 1.377 . S
C134 H114 0.953 . S
C134 C133 1.377 . S
C134 C135 1.369 . S
C135 H115 0.945 . S
C135 C130 1.385 . S
C135 C134 1.369 . S
C136 C128 1.457 . S
C136 C137 1.372 . S
C136 C141 1.364 . S
C137 H116 0.952 . S
C137 C136 1.372 . S
C137 C138 1.389 . S
C138 H117 0.949 . S
C138 C137 1.389 . S
C138 C139 1.387 . S
C139 C138 1.387 . S
C139 C140 1.372 . S
C140 H118 0.950 . S
C140 C139 1.372 . S
C140 C141 1.379 . S
C141 H119 0.948 . S
C141 C136 1.364 . S
C141 C140 1.379 . S
C142 C111 1.383 . S
C142 C129 1.479 . S
C142 C143 1.398 . S
C143 C108 1.382 . S
C143 H120 0.951 . S
C143 C142 1.398 . S
C144 C145 1.384 . S
C144 H157 0.947 . S
C144 C179 1.382 . S
C145 C144 1.384 . S
C145 C146 1.378 . S
C146 C145 1.378 . S
C146 C147 1.378 . S
C146 H158 0.952 . S
C147 C146 1.378 . S
C147 H159 0.950 . S
C147 C178 1.383 . S
H148 C167 0.947 . S
H149 C168 0.946 . S
H150 C170 0.953 1_545 S
H151 C171 0.939 1_545 S
H152 C173 0.952 . S
H153 C174 0.949 . S
H154 C176 0.950 . S
H155 C177 0.948 . S
H156 C179 0.951 . S
H157 C144 0.947 . S
H158 C146 0.952 . S
H159 C147 0.950 . S
N160 C163 1.382 . S
N160 C165 1.363 . S
N161 C163 1.371 . S
N161 C164 1.372 . S
N162 C164 1.361 . S
N162 C165 1.377 . S
C163 N160 1.382 . S
C163 N161 1.371 . S
C163 C166 1.480 . S
C164 N161 1.372 . S
C164 N162 1.361 . S
C164 C172 1.457 . S
C165 N160 1.363 . S
C165 N162 1.377 . S
C165 C178 1.479 . S
C166 C163 1.480 . S
C166 C167 1.383 1_455 S
C166 C171 1.385 . S
C167 H148 0.947 . S
C167 C166 1.383 1_655 S
C167 C168 1.388 . S
C168 H149 0.946 . S
C168 C167 1.388 . S
C168 C169 1.384 . S
C169 C168 1.384 . S
C169 C170 1.377 1_655 S
C170 H150 0.953 1_565 S
C170 C169 1.377 1_455 S
C170 C171 1.369 . S
C171 H151 0.939 1_565 S
C171 C166 1.385 . S
C171 C170 1.369 . S
C172 C164 1.457 . S
C172 C173 1.372 1_565 S
C172 C177 1.364 . S
C173 H152 0.952 . S
C173 C172 1.372 1_545 S
C173 C174 1.389 . S
C174 H153 0.949 . S
C174 C173 1.389 . S
C174 C175 1.387 . S
C175 C174 1.387 . S
C175 C176 1.372 . S
C176 H154 0.950 . S
C176 C175 1.372 . S
C176 C177 1.379 1_545 S
C177 H155 0.948 . S
C177 C172 1.364 . S
C177 C176 1.379 1_565 S
C178 C147 1.383 . S
C178 C165 1.479 . S
C178 C179 1.398 . S
C179 C144 1.382 . S
C179 H156 0.951 . S
C179 C178 1.398 . S
C180 C181 1.384 . S
C180 H193 0.947 . S
C180 C215 1.382 . S
C181 C180 1.384 . S
C181 C182 1.378 . S
C182 C181 1.378 . S
C182 C183 1.378 . S
C182 H194 0.952 . S
C183 C182 1.378 . S
C183 H195 0.950 . S
C183 C214 1.383 . S
H184 C203 0.947 . S
H185 C204 0.946 . S
H186 C206 0.953 . S
H187 C207 0.945 . S
H188 C209 0.952 . S
H189 C210 0.949 . S
H190 C212 0.950 . S
H191 C213 0.948 . S
H192 C215 0.951 . S
H193 C180 0.947 . S
H194 C182 0.952 . S
H195 C183 0.950 . S
N196 C199 1.382 . S
N196 C201 1.363 . S
N197 C199 1.371 . S
N197 C200 1.372 . S
N198 C200 1.361 . S
N198 C201 1.377 . S
C199 N196 1.382 . S
C199 N197 1.371 . S
C199 C202 1.480 . S
C200 N197 1.372 . S
C200 N198 1.361 . S
C200 C208 1.457 . S
C201 N196 1.363 . S
C201 N198 1.377 . S
C201 C214 1.479 . S
C202 C199 1.480 . S
C202 C203 1.383 . S
C202 C207 1.385 . S
C203 H184 0.947 . S
C203 C202 1.383 . S
C203 C204 1.388 . S
C204 H185 0.946 . S
C204 C203 1.388 . S
C204 C205 1.384 . S
C205 C204 1.384 . S
C205 C206 1.377 . S
C206 H186 0.953 . S
C206 C205 1.377 . S
C206 C207 1.369 . S
C207 H187 0.945 . S
C207 C202 1.385 . S
C207 C206 1.369 . S
C208 C200 1.457 . S
C208 C209 1.372 . S
C208 C213 1.364 . S
C209 H188 0.952 . S
C209 C208 1.372 . S
C209 C210 1.389 . S
C210 H189 0.949 . S
C210 C209 1.389 . S
C210 C211 1.387 . S
C211 C210 1.387 . S
C211 C212 1.372 . S
C212 H190 0.950 . S
C212 C211 1.372 . S
C212 C213 1.379 . S
C213 H191 0.948 . S
C213 C208 1.364 . S
C213 C212 1.379 . S
C214 C183 1.383 . S
C214 C201 1.479 . S
C214 C215 1.398 . S
C215 C180 1.382 . S
C215 H192 0.951 . S
C215 C214 1.398 . S
C216 C217 1.384 . S
C216 H229 0.921 1_655 S
C216 C251 1.382 . S
C217 C216 1.384 . S
C217 C218 1.378 . S
C218 C217 1.378 . S
C218 C219 1.378 . S
C218 H230 0.952 . S
C219 C218 1.378 . S
C219 H231 0.950 . S
C219 C250 1.383 . S
H220 C239 0.947 . S
H221 C240 0.946 . S
H222 C242 0.953 . S
H223 C243 0.945 . S
H224 C245 0.952 . S
H225 C246 0.949 . S
H226 C248 0.950 . S
H227 C249 0.948 . S
H228 C251 0.951 . S
H229 C216 0.921 1_455 S
H230 C218 0.952 . S
H231 C219 0.950 . S
N232 C235 1.382 . S
N232 C237 1.363 . S
N233 C235 1.371 . S
N233 C236 1.372 . S
N234 C236 1.361 . S
N234 C237 1.377 . S
C235 N232 1.382 . S
C235 N233 1.371 . S
C235 C238 1.480 . S
C236 N233 1.372 . S
C236 N234 1.361 . S
C236 C244 1.457 . S
C237 N232 1.363 . S
C237 N234 1.377 . S
C237 C250 1.479 . S
C238 C235 1.480 . S
C238 C239 1.383 . S
C238 C243 1.385 . S
C239 H220 0.947 . S
C239 C238 1.383 . S
C239 C240 1.388 . S
C240 H221 0.946 . S
C240 C239 1.388 . S
C240 C241 1.384 . S
C241 C240 1.384 . S
C241 C242 1.377 . S
C242 H222 0.953 . S
C242 C241 1.377 . S
C242 C243 1.369 . S
C243 H223 0.945 . S
C243 C238 1.385 . S
C243 C242 1.369 . S
C244 C236 1.457 . S
C244 C245 1.372 . S
C244 C249 1.364 1_655 S
C245 H224 0.952 . S
C245 C244 1.372 . S
C245 C246 1.389 . S
C246 H225 0.949 . S
C246 C245 1.389 . S
C246 C247 1.387 1_655 S
C247 C246 1.387 1_455 S
C247 C248 1.372 . S
C248 H226 0.950 . S
C248 C247 1.372 . S
C248 C249 1.379 . S
C249 H227 0.948 . S
C249 C244 1.364 1_455 S
C249 C248 1.379 . S
C250 C219 1.383 . S
C250 C237 1.479 . S
C250 C251 1.398 . S
C251 C216 1.382 . S
C251 H228 0.951 . S
C251 C250 1.398 . S
C252 C253 1.384 . S
C252 H265 0.947 . S
C252 C287 1.382 . S
C253 C252 1.384 . S
C253 C254 1.378 . S
C254 C253 1.378 . S
C254 C255 1.378 . S
C254 H266 0.952 . S
C255 C254 1.378 . S
C255 H267 0.950 . S
C255 C286 1.383 . S
H256 C275 0.947 . S
H257 C276 0.946 . S
H258 C278 0.953 . S
H259 C279 0.945 . S
H260 C281 0.952 . S
H261 C282 0.949 . S
H262 C284 0.950 . S
H263 C285 0.948 . S
H264 C287 0.951 . S
H265 C252 0.947 . S
H266 C254 0.952 . S
H267 C255 0.950 . S
N268 C271 1.382 . S
N268 C273 1.363 . S
N269 C271 1.371 . S
N269 C272 1.372 . S
N270 C272 1.361 . S
N270 C273 1.377 . S
C271 N268 1.382 . S
C271 N269 1.371 . S
C271 C274 1.480 . S
C272 N269 1.372 . S
C272 N270 1.361 . S
C272 C280 1.457 . S
C273 N268 1.363 . S
C273 N270 1.377 . S
C273 C286 1.479 . S
C274 C271 1.480 . S
C274 C275 1.383 . S
C274 C279 1.385 . S
C275 H256 0.947 . S
C275 C274 1.383 . S
C275 C276 1.388 . S
C276 H257 0.946 . S
C276 C275 1.388 . S
C276 C277 1.384 . S
C277 C276 1.384 . S
C277 C278 1.377 . S
C278 H258 0.953 . S
C278 C277 1.377 . S
C278 C279 1.369 . S
C279 H259 0.945 . S
C279 C274 1.385 . S
C279 C278 1.369 . S
C280 C272 1.457 . S
C280 C281 1.372 . S
C280 C285 1.364 . S
C281 H260 0.952 . S
C281 C280 1.372 . S
C281 C282 1.389 . S
C282 H261 0.949 . S
C282 C281 1.389 . S
C282 C283 1.387 . S
C283 C282 1.387 . S
C283 C284 1.372 . S
C284 H262 0.950 . S
C284 C283 1.372 . S
C284 C285 1.379 . S
C285 H263 0.948 . S
C285 C280 1.364 . S
C285 C284 1.379 . S
C286 C255 1.383 . S
C286 C273 1.479 . S
C286 C287 1.398 . S
C287 C252 1.382 . S
C287 H264 0.951 . S
C287 C286 1.398 . S
C288 C289 1.384 . S
C288 H301 0.947 . S
C288 C323 1.382 . S
C289 C288 1.384 . S
C289 C290 1.378 . S
C290 C289 1.378 . S
C290 C291 1.378 . S
C290 H302 0.952 . S
C291 C290 1.378 . S
C291 H303 0.950 . S
C291 C322 1.383 . S
H292 C311 0.947 . S
H293 C312 0.946 . S
H294 C314 0.953 . S
H295 C315 0.945 . S
H296 C317 0.952 . S
H297 C318 0.949 . S
H298 C320 0.950 . S
H299 C321 0.948 . S
H300 C323 0.951 . S
H301 C288 0.947 . S
H302 C290 0.952 . S
H303 C291 0.950 . S
N304 C307 1.382 . S
N304 C309 1.363 . S
N305 C307 1.371 . S
N305 C308 1.372 . S
N306 C308 1.361 . S
N306 C309 1.377 . S
C307 N304 1.382 . S
C307 N305 1.371 . S
C307 C310 1.480 . S
C308 N305 1.372 . S
C308 N306 1.361 . S
C308 C316 1.457 . S
C309 N304 1.363 . S
C309 N306 1.377 . S
C309 C322 1.479 . S
C310 C307 1.480 . S
C310 C311 1.383 . S
C310 C315 1.385 . S
C311 H292 0.947 . S
C311 C310 1.383 . S
C311 C312 1.388 . S
C312 H293 0.946 . S
C312 C311 1.388 . S
C312 C313 1.384 . S
C313 C312 1.384 . S
C313 C314 1.377 . S
C314 H294 0.953 . S
C314 C313 1.377 . S
C314 C315 1.369 . S
C315 H295 0.945 . S
C315 C310 1.385 . S
C315 C314 1.369 . S
C316 C308 1.457 . S
C316 C317 1.372 . S
C316 C321 1.364 . S
C317 H296 0.952 . S
C317 C316 1.372 . S
C317 C318 1.389 . S
C318 H297 0.949 . S
C318 C317 1.389 . S
C318 C319 1.387 . S
C319 C318 1.387 . S
C319 C320 1.372 . S
C320 H298 0.950 . S
C320 C319 1.372 . S
C320 C321 1.379 . S
C321 H299 0.948 . S
C321 C316 1.364 . S
C321 C320 1.379 . S
C322 C291 1.383 . S
C322 C309 1.479 . S
C322 C323 1.398 . S
C323 C288 1.382 . S
C323 H300 0.951 . S
C323 C322 1.398 . S
C324 C325 1.384 . S
C324 H337 0.947 . S
C324 C359 1.382 . S
C325 C324 1.384 . S
C325 C326 1.378 . S
C326 C325 1.378 . S
C326 C327 1.378 . S
C326 H338 0.952 . S
C327 C326 1.378 . S
C327 H339 0.950 . S
C327 C358 1.383 . S
H328 C347 0.947 . S
H329 C348 0.938 1_565 S
H330 C350 0.953 . S
H331 C351 0.945 . S
H332 C353 0.952 . S
H333 C354 0.949 1_545 S
H334 C356 0.950 . S
H335 C357 0.948 . S
H336 C359 0.951 . S
H337 C324 0.947 . S
H338 C326 0.952 . S
H339 C327 0.950 . S
N340 C343 1.382 . S
N340 C345 1.363 . S
N341 C343 1.371 . S
N341 C344 1.372 . S
N342 C344 1.361 . S
N342 C345 1.377 . S
C343 N340 1.382 . S
C343 N341 1.371 . S
C343 C346 1.480 . S
C344 N341 1.372 . S
C344 N342 1.361 . S
C344 C352 1.457 . S
C345 N340 1.363 . S
C345 N342 1.377 . S
C345 C358 1.479 . S
C346 C343 1.480 . S
C346 C347 1.383 . S
C346 C351 1.385 1_565 S
C347 H328 0.947 . S
C347 C346 1.383 . S
C347 C348 1.388 1_565 S
C348 H329 0.938 1_545 S
C348 C347 1.388 1_545 S
C348 C349 1.384 . S
C349 C348 1.384 . S
C349 C350 1.377 . S
C350 H330 0.953 . S
C350 C349 1.377 . S
C350 C351 1.369 . S
C351 H331 0.945 . S
C351 C346 1.385 1_545 S
C351 C350 1.369 . S
C352 C344 1.457 . S
C352 C353 1.372 . S
C352 C357 1.364 . S
C353 H332 0.952 . S
C353 C352 1.372 . S
C353 C354 1.389 . S
C354 H333 0.949 1_565 S
C354 C353 1.389 . S
C354 C355 1.387 . S
C355 C354 1.387 . S
C355 C356 1.372 . S
C356 H334 0.950 . S
C356 C355 1.372 . S
C356 C357 1.379 . S
C357 H335 0.948 . S
C357 C352 1.364 . S
C357 C356 1.379 . S
C358 C327 1.383 . S
C358 C345 1.479 . S
C358 C359 1.398 . S
C359 C324 1.382 . S
C359 H336 0.951 . S
C359 C358 1.398 . S
C360 C361 1.384 . S
C360 H373 0.947 . S
C360 C395 1.382 . S
C361 C360 1.384 . S
C361 C362 1.378 . S
C362 C361 1.378 . S
C362 C363 1.378 . S
C362 H374 0.952 . S
C363 C362 1.378 . S
C363 H375 0.950 . S
C363 C394 1.383 . S
H364 C383 0.947 . S
H365 C384 0.946 . S
H366 C386 0.953 . S
H367 C387 0.945 . S
H368 C389 0.952 . S
H369 C390 0.949 . S
H370 C392 0.950 . S
H371 C393 0.948 . S
H372 C395 0.951 . S
H373 C360 0.947 . S
H374 C362 0.952 . S
H375 C363 0.950 . S
N376 C379 1.382 . S
N376 C381 1.363 . S
N377 C379 1.371 . S
N377 C380 1.372 . S
N378 C380 1.361 . S
N378 C381 1.377 . S
C379 N376 1.382 . S
C379 N377 1.371 . S
C379 C382 1.480 . S
C380 N377 1.372 . S
C380 N378 1.361 . S
C380 C388 1.457 . S
C381 N376 1.363 . S
C381 N378 1.377 . S
C381 C394 1.479 . S
C382 C379 1.480 . S
C382 C383 1.383 . S
C382 C387 1.385 . S
C383 H364 0.947 . S
C383 C382 1.383 . S
C383 C384 1.388 . S
C384 H365 0.946 . S
C384 C383 1.388 . S
C384 C385 1.384 . S
C385 C384 1.384 . S
C385 C386 1.377 . S
C386 H366 0.953 . S
C386 C385 1.377 . S
C386 C387 1.369 . S
C387 H367 0.945 . S
C387 C382 1.385 . S
C387 C386 1.369 . S
C388 C380 1.457 . S
C388 C389 1.372 . S
C388 C393 1.364 . S
C389 H368 0.952 . S
C389 C388 1.372 . S
C389 C390 1.389 . S
C390 H369 0.949 . S
C390 C389 1.389 . S
C390 C391 1.387 . S
C391 C390 1.387 . S
C391 C392 1.372 . S
C392 H370 0.950 . S
C392 C391 1.372 . S
C392 C393 1.379 . S
C393 H371 0.948 . S
C393 C388 1.364 . S
C393 C392 1.379 . S
C394 C363 1.383 . S
C394 C381 1.479 . S
C394 C395 1.398 . S
C395 C360 1.382 . S
C395 H372 0.951 . S
C395 C394 1.398 . S
C396 C397 1.384 . S
C396 H409 0.947 . S
C396 C431 1.382 . S
C397 C396 1.384 . S
C397 C398 1.378 . S
C398 C397 1.378 . S
C398 C399 1.378 . S
C398 H410 0.952 . S
C399 C398 1.378 . S
C399 H411 0.950 . S
C399 C430 1.383 . S
H400 C419 0.947 . S
H401 C420 0.946 . S
H402 C422 0.953 . S
H403 C423 0.945 . S
H404 C425 0.952 . S
H405 C426 0.949 . S
H406 C428 0.950 . S
H407 C429 0.948 . S
H408 C431 0.951 . S
H409 C396 0.947 . S
H410 C398 0.952 . S
H411 C399 0.950 . S
N412 C415 1.382 . S
N412 C417 1.363 . S
N413 C415 1.371 . S
N413 C416 1.372 . S
N414 C416 1.361 . S
N414 C417 1.377 . S
C415 N412 1.382 . S
C415 N413 1.371 . S
C415 C418 1.480 . S
C416 N413 1.372 . S
C416 N414 1.361 . S
C416 C424 1.457 . S
C417 N412 1.363 . S
C417 N414 1.377 . S
C417 C430 1.479 . S
C418 C415 1.480 . S
C418 C419 1.383 . S
C418 C423 1.385 . S
C419 H400 0.947 . S
C419 C418 1.383 . S
C419 C420 1.388 . S
C420 H401 0.946 . S
C420 C419 1.388 . S
C420 C421 1.384 . S
C421 C420 1.384 . S
C421 C422 1.377 . S
C422 H402 0.953 . S
C422 C421 1.377 . S
C422 C423 1.369 . S
C423 H403 0.945 . S
C423 C418 1.385 . S
C423 C422 1.369 . S
C424 C416 1.457 . S
C424 C425 1.372 . S
C424 C429 1.364 . S
C425 H404 0.952 . S
C425 C424 1.372 . S
C425 C426 1.389 . S
C426 H405 0.949 . S
C426 C425 1.389 . S
C426 C427 1.387 . S
C427 C426 1.387 . S
C427 C428 1.372 . S
C428 H406 0.950 . S
C428 C427 1.372 . S
C428 C429 1.379 . S
C429 H407 0.948 . S
C429 C424 1.364 . S
C429 C428 1.379 . S
C430 C399 1.383 . S
C430 C417 1.479 . S
C430 C431 1.398 . S
C431 C396 1.382 . S
C431 H408 0.951 . S
C431 C430 1.398 . S
C432 C433 1.384 . S
C432 H445 0.947 . S
C432 C467 1.382 . S
C433 C432 1.384 . S
C433 C434 1.378 . S
C434 C433 1.378 . S
C434 C435 1.378 . S
C434 H446 0.952 . S
C435 C434 1.378 . S
C435 H447 0.950 . S
C435 C466 1.383 . S
H436 C455 0.947 . S
H437 C456 0.946 . S
H438 C458 0.953 . S
H439 C459 0.945 . S
H440 C461 0.952 . S
H441 C462 0.949 . S
H442 C464 0.950 . S
H443 C465 0.948 . S
H444 C467 0.951 . S
H445 C432 0.947 . S
H446 C434 0.952 . S
H447 C435 0.950 . S
N448 C451 1.382 . S
N448 C453 1.363 . S
N449 C451 1.371 . S
N449 C452 1.372 . S
N450 C452 1.361 . S
N450 C453 1.377 . S
C451 N448 1.382 . S
C451 N449 1.371 . S
C451 C454 1.480 . S
C452 N449 1.372 . S
C452 N450 1.361 . S
C452 C460 1.457 . S
C453 N448 1.363 . S
C453 N450 1.377 . S
C453 C466 1.479 . S
C454 C451 1.480 . S
C454 C455 1.383 . S
C454 C459 1.385 . S
C455 H436 0.947 . S
C455 C454 1.383 . S
C455 C456 1.388 . S
C456 H437 0.946 . S
C456 C455 1.388 . S
C456 C457 1.384 . S
C457 C456 1.384 . S
C457 C458 1.377 . S
C458 H438 0.953 . S
C458 C457 1.377 . S
C458 C459 1.369 . S
C459 H439 0.945 . S
C459 C454 1.385 . S
C459 C458 1.369 . S
C460 C452 1.457 . S
C460 C461 1.372 . S
C460 C465 1.364 . S
C461 H440 0.952 . S
C461 C460 1.372 . S
C461 C462 1.389 . S
C462 H441 0.949 . S
C462 C461 1.389 . S
C462 C463 1.387 . S
C463 C462 1.387 . S
C463 C464 1.372 . S
C464 H442 0.950 . S
C464 C463 1.372 . S
C464 C465 1.379 . S
C465 H443 0.948 . S
C465 C460 1.364 . S
C465 C464 1.379 . S
C466 C435 1.383 . S
C466 C453 1.479 . S
C466 C467 1.398 . S
C467 C432 1.382 . S
C467 H444 0.951 . S
C467 C466 1.398 . S
C468 C469 1.384 . S
C468 H481 0.947 . S
C468 C503 1.384 . S
C469 C468 1.384 . S
C469 C470 1.378 1_554 S
C470 C469 1.378 1_556 S
C470 C471 1.378 . S
C470 H482 0.952 . S
C471 C470 1.378 . S
C471 H483 0.950 . S
C471 C502 1.383 . S
H472 C491 0.947 . S
H473 C492 0.946 . S
H474 C494 0.953 . S
H475 C495 0.945 . S
H476 C497 0.952 . S
H477 C498 0.949 . S
H478 C500 0.950 . S
H479 C501 0.948 . S
H480 C503 0.952 . S
H481 C468 0.947 . S
H482 C470 0.952 . S
H483 C471 0.950 . S
N484 C487 1.382 . S
N484 C489 1.363 . S
N485 C487 1.371 . S
N485 C488 1.372 . S
N486 C488 1.361 . S
N486 C489 1.377 . S
C487 N484 1.382 . S
C487 N485 1.371 . S
C487 C490 1.480 . S
C488 N485 1.372 . S
C488 N486 1.361 . S
C488 C496 1.457 . S
C489 N484 1.363 . S
C489 N486 1.377 . S
C489 C502 1.479 . S
C490 C487 1.480 . S
C490 C491 1.383 . S
C490 C495 1.385 . S
C491 H472 0.947 . S
C491 C490 1.383 . S
C491 C492 1.388 . S
C492 H473 0.946 . S
C492 C491 1.388 . S
C492 C493 1.384 . S
C493 C492 1.384 . S
C493 C494 1.377 . S
C494 H474 0.953 . S
C494 C493 1.377 . S
C494 C495 1.369 . S
C495 H475 0.945 . S
C495 C490 1.385 . S
C495 C494 1.369 . S
C496 C488 1.457 . S
C496 C497 1.372 . S
C496 C501 1.364 . S
C497 H476 0.952 . S
C497 C496 1.372 . S
C497 C498 1.389 . S
C498 H477 0.949 . S
C498 C497 1.389 . S
C498 C499 1.387 . S
C499 C498 1.387 . S
C499 C500 1.372 . S
C500 H478 0.950 . S
C500 C499 1.372 . S
C500 C501 1.379 . S
C501 H479 0.948 . S
C501 C496 1.364 . S
C501 C500 1.379 . S
C502 C471 1.383 . S
C502 C489 1.479 . S
C502 C503 1.396 1_556 S
C503 C468 1.384 . S
C503 H480 0.952 . S
C503 C502 1.396 1_554 S
C504 C505 1.384 . S
C504 H517 0.947 . S
C504 C539 1.382 . S
C505 C504 1.384 . S
C505 C506 1.378 . S
C506 C505 1.378 . S
C506 C507 1.378 . S
C506 H518 0.952 . S
C507 C506 1.378 . S
C507 H519 0.950 . S
C507 C538 1.383 . S
H508 C527 0.947 . S
H509 C528 0.946 . S
H510 C530 0.953 . S
H511 C531 0.945 . S
H512 C533 0.952 . S
H513 C534 0.949 . S
H514 C536 0.950 . S
H515 C537 0.948 . S
H516 C539 0.951 . S
H517 C504 0.947 . S
H518 C506 0.952 . S
H519 C507 0.950 . S
N520 C523 1.382 . S
N520 C525 1.363 . S
N521 C523 1.371 . S
N521 C524 1.372 . S
N522 C524 1.361 . S
N522 C525 1.377 . S
C523 N520 1.382 . S
C523 N521 1.371 . S
C523 C526 1.480 . S
C524 N521 1.372 . S
C524 N522 1.361 . S
C524 C532 1.457 . S
C525 N520 1.363 . S
C525 N522 1.377 . S
C525 C538 1.479 . S
C526 C523 1.480 . S
C526 C527 1.383 . S
C526 C531 1.385 . S
C527 H508 0.947 . S
C527 C526 1.383 . S
C527 C528 1.388 . S
C528 H509 0.946 . S
C528 C527 1.388 . S
C528 C529 1.384 . S
C529 C528 1.384 . S
C529 C530 1.377 . S
C530 H510 0.953 . S
C530 C529 1.377 . S
C530 C531 1.369 . S
C531 H511 0.945 . S
C531 C526 1.385 . S
C531 C530 1.369 . S
C532 C524 1.457 . S
C532 C533 1.372 . S
C532 C537 1.364 . S
C533 H512 0.952 . S
C533 C532 1.372 . S
C533 C534 1.389 . S
C534 H513 0.949 . S
C534 C533 1.389 . S
C534 C535 1.387 . S
C535 C534 1.387 . S
C535 C536 1.372 . S
C536 H514 0.950 . S
C536 C535 1.372 . S
C536 C537 1.379 . S
C537 H515 0.948 . S
C537 C532 1.364 . S
C537 C536 1.379 . S
C538 C507 1.383 . S
C538 C525 1.479 . S
C538 C539 1.398 . S
C539 C504 1.382 . S
C539 H516 0.951 . S
C539 C538 1.398 . S
C540 C541 1.384 . S
C540 H553 0.947 1_554 S
C540 C575 1.382 1_554 S
C541 C540 1.384 . S
C541 C542 1.378 . S
C542 C541 1.378 . S
C542 C543 1.378 . S
C542 H554 0.952 . S
C543 C542 1.378 . S
C543 H555 0.950 . S
C543 C574 1.383 1_554 S
H544 C563 0.963 . S
H545 C564 0.946 1_554 S
H546 C566 0.953 . S
H547 C567 0.945 . S
H548 C569 0.952 . S
H549 C570 0.949 . S
H550 C572 0.950 . S
H551 C573 0.948 . S
H552 C575 0.951 . S
H553 C540 0.947 1_556 S
H554 C542 0.952 . S
H555 C543 0.950 . S
N556 C559 1.382 . S
N556 C561 1.363 . S
N557 C559 1.371 . S
N557 C560 1.372 . S
N558 C560 1.361 . S
N558 C561 1.377 . S
C559 N556 1.382 . S
C559 N557 1.371 . S
C559 C562 1.480 . S
C560 N557 1.372 . S
C560 N558 1.361 . S
C560 C568 1.457 . S
C561 N556 1.363 . S
C561 N558 1.377 . S
C561 C574 1.479 . S
C562 C559 1.480 . S
C562 C563 1.383 . S
C562 C567 1.385 1_545 S
C563 H544 0.963 . S
C563 C562 1.383 . S
C563 C564 1.388 . S
C564 H545 0.946 1_556 S
C564 C563 1.388 . S
C564 C565 1.384 1_545 S
C565 C564 1.384 1_565 S
C565 C566 1.377 . S
C566 H546 0.953 . S
C566 C565 1.377 . S
C566 C567 1.369 . S
C567 H547 0.945 . S
C567 C562 1.385 1_565 S
C567 C566 1.369 . S
C568 C560 1.457 . S
C568 C569 1.372 . S
C568 C573 1.364 . S
C569 H548 0.952 . S
C569 C568 1.372 . S
C569 C570 1.389 . S
C570 H549 0.949 . S
C570 C569 1.389 . S
C570 C571 1.387 . S
C571 C570 1.387 . S
C571 C572 1.372 . S
C572 H550 0.950 . S
C572 C571 1.372 . S
C572 C573 1.379 . S
C573 H551 0.948 . S
C573 C568 1.364 . S
C573 C572 1.379 . S
C574 C543 1.383 1_556 S
C574 C561 1.479 . S
C574 C575 1.398 . S
C575 C540 1.382 1_556 S
C575 H552 0.951 . S
C575 C574 1.398 . S
C576 O577 1.160 1_554 S
C576 O583 1.185 . S
O577 C576 1.160 1_556 S
O578 Zn579 1.899 1_556 S
O578 C586 1.284 . S
Zn579 O578 1.899 1_554 S
Zn579 O580 2.032 . S
Zn579 O583 2.086 . S
Zn579 O588 1.977 . S
O580 Zn579 2.032 . S
O580 C584 1.278 . S
C581 O582 1.203 . S
C581 O588 1.267 . S
O582 C581 1.203 . S
O583 C576 1.185 . S
O583 Zn579 2.086 . S
C584 O580 1.278 . S
C584 O585 1.211 . S
O585 C584 1.211 . S
C586 O578 1.284 . S
C586 O587 1.273 . S
O587 C586 1.273 . S
O588 Zn579 1.977 . S
O588 C581 1.267 . S
C589 O590 1.160 . S
C589 O596 1.185 . S
O590 C589 1.160 . S
O591 Zn592 1.899 . S
O591 C599 1.284 . S
Zn592 O591 1.899 . S
Zn592 O593 2.032 . S
Zn592 O596 2.086 . S
Zn592 O601 1.977 . S
O593 Zn592 2.032 . S
O593 C597 1.278 . S
C594 O595 1.203 . S
C594 O601 1.267 . S
O595 C594 1.203 . S
O596 C589 1.185 . S
O596 Zn592 2.086 . S
C597 O593 1.278 . S
C597 O598 1.211 . S
O598 C597 1.211 . S
C599 O591 1.284 . S
C599 O600 1.273 . S
O600 C599 1.273 . S
O601 Zn592 1.977 . S
O601 C594 1.267 . S
C602 O603 1.160 1_554 S
C602 O609 1.185 . S
O603 C602 1.160 1_556 S
O604 Zn605 1.899 1_556 S
O604 C612 1.284 . S
Zn605 O604 1.899 1_554 S
Zn605 O606 2.032 1_554 S
Zn605 O609 2.086 . S
Zn605 O614 1.977 . S
O606 Zn605 2.032 1_556 S
O606 C610 1.278 . S
C607 O608 1.203 . S
C607 O614 1.267 . S
O608 C607 1.203 . S
O609 C602 1.185 . S
O609 Zn605 2.086 . S
C610 O606 1.278 . S
C610 O611 1.211 1_556 S
O611 C610 1.211 1_554 S
C612 O604 1.284 . S
C612 O613 1.273 . S
O613 C612 1.273 . S
O614 Zn605 1.977 . S
O614 C607 1.267 . S
C615 O616 1.160 . S
C615 O622 1.185 . S
O616 C615 1.160 . S
O617 Zn618 1.899 . S
O617 C625 1.284 . S
Zn618 O617 1.899 . S
Zn618 O619 2.023 1_545 S
Zn618 O622 2.086 . S
Zn618 O627 1.977 . S
O619 Zn618 2.023 1_565 S
O619 C623 1.289 . S
C620 O621 1.203 . S
C620 O627 1.267 . S
O621 C620 1.203 . S
O622 C615 1.185 . S
O622 Zn618 2.086 . S
C623 O619 1.289 . S
C623 O624 1.211 . S
O624 C623 1.211 . S
C625 O617 1.284 . S
C625 O626 1.273 1_545 S
O626 C625 1.273 1_565 S
O627 Zn618 1.977 . S
O627 C620 1.267 . S
C628 O629 1.160 . S
C628 O635 1.185 . S
O629 C628 1.160 . S
O630 Zn631 1.899 . S
O630 C638 1.284 . S
Zn631 O630 1.899 . S
Zn631 O632 2.032 . S
Zn631 O635 2.086 . S
Zn631 O640 1.977 . S
O632 Zn631 2.032 . S
O632 C636 1.278 . S
C633 O634 1.203 . S
C633 O640 1.267 . S
O634 C633 1.203 . S
O635 C628 1.185 . S
O635 Zn631 2.086 . S
C636 O632 1.278 . S
C636 O637 1.211 . S
O637 C636 1.211 . S
C638 O630 1.284 . S
C638 O639 1.273 . S
O639 C638 1.273 . S
O640 Zn631 1.977 . S
O640 C633 1.267 . S
C641 O642 1.160 . S
C641 O648 1.185 . S
O642 C641 1.160 . S
O643 Zn644 1.899 . S
O643 C651 1.284 . S
Zn644 O643 1.899 . S
Zn644 O645 2.032 . S
Zn644 O648 2.086 . S
Zn644 O653 1.977 . S
O645 Zn644 2.032 . S
O645 C649 1.278 . S
C646 O647 1.203 . S
C646 O653 1.267 . S
O647 C646 1.203 . S
O648 C641 1.185 . S
O648 Zn644 2.086 . S
C649 O645 1.278 . S
C649 O650 1.211 . S
O650 C649 1.211 . S
C651 O643 1.284 . S
C651 O652 1.273 . S
O652 C651 1.273 . S
O653 Zn644 1.977 . S
O653 C646 1.267 . S
C654 O655 1.160 . S
C654 O661 1.185 . S
O655 C654 1.160 . S
O656 Zn657 1.899 . S
O656 C664 1.284 . S
Zn657 O656 1.899 . S
Zn657 O658 2.032 . S
Zn657 O661 2.086 . S
Zn657 O666 1.977 . S
O658 Zn657 2.032 . S
O658 C662 1.278 . S
C659 O660 1.203 . S
C659 O666 1.267 . S
O660 C659 1.203 . S
O661 C654 1.185 . S
O661 Zn657 2.086 . S
C662 O658 1.278 . S
C662 O663 1.211 . S
O663 C662 1.211 . S
C664 O656 1.284 . S
C664 O665 1.273 . S
O665 C664 1.273 . S
O666 Zn657 1.977 . S
O666 C659 1.267 . S
C667 O668 1.160 . S
C667 O674 1.185 . S
O668 C667 1.160 . S
O669 Zn670 1.899 . S
O669 C677 1.284 1_565 S
Zn670 O669 1.899 . S
Zn670 O671 2.032 1_565 S
Zn670 O674 2.086 . S
Zn670 O679 1.977 . S
O671 Zn670 2.032 1_545 S
O671 C675 1.278 . S
C672 O673 1.203 1_565 S
C672 O679 1.267 . S
O673 C672 1.203 1_545 S
O674 C667 1.185 . S
O674 Zn670 2.086 . S
C675 O671 1.278 . S
C675 O676 1.211 . S
O676 C675 1.211 . S
C677 O669 1.284 1_545 S
C677 O678 1.273 . S
O678 C677 1.273 . S
O679 Zn670 1.977 . S
O679 C672 1.267 . S
C680 O681 1.160 1_455 S
C680 O687 1.185 . S
O681 C680 1.160 1_655 S
O682 Zn683 1.899 1_655 S
O682 C690 1.284 . S
Zn683 O682 1.899 1_455 S
Zn683 O684 2.032 1_455 S
Zn683 O687 2.086 . S
Zn683 O692 1.977 . S
O684 Zn683 2.032 1_655 S
O684 C688 1.278 1_655 S
C685 O686 1.203 . S
C685 O692 1.267 . S
O686 C685 1.203 . S
O687 C680 1.185 . S
O687 Zn683 2.086 . S
C688 O684 1.278 1_455 S
C688 O689 1.209 . S
O689 C688 1.209 . S
C690 O682 1.284 . S
C690 O691 1.273 . S
O691 C690 1.273 . S
O692 Zn683 1.977 . S
O692 C685 1.267 . S
C693 O694 1.160 . S
C693 O700 1.185 . S
O694 C693 1.160 . S
O695 Zn696 1.899 . S
O695 C703 1.284 . S
Zn696 O695 1.899 . S
Zn696 O697 2.032 . S
Zn696 O700 2.086 . S
Zn696 O705 1.977 . S
O697 Zn696 2.032 . S
O697 C701 1.278 . S
C698 O699 1.203 . S
C698 O705 1.267 . S
O699 C698 1.203 . S
O700 C693 1.185 . S
O700 Zn696 2.086 . S
C701 O697 1.278 . S
C701 O702 1.211 . S
O702 C701 1.211 . S
C703 O695 1.284 . S
C703 O704 1.273 . S
O704 C703 1.273 . S
O705 Zn696 1.977 . S
O705 C698 1.267 . S
C706 O707 1.160 1_455 S
C706 O713 1.185 . S
O707 C706 1.160 1_655 S
O708 Zn709 1.899 1_655 S
O708 C716 1.284 . S
Zn709 O708 1.899 1_455 S
Zn709 O710 2.032 1_455 S
Zn709 O713 2.086 . S
Zn709 O718 1.977 . S
O710 Zn709 2.032 1_655 S
O710 C714 1.278 1_655 S
C711 O712 1.203 . S
C711 O718 1.267 . S
O712 C711 1.203 . S
O713 C706 1.185 . S
O713 Zn709 2.086 . S
C714 O710 1.278 1_455 S
C714 O715 1.210 . S
O715 C714 1.210 . S
C716 O708 1.284 . S
C716 O717 1.273 . S
O717 C716 1.273 . S
O718 Zn709 1.977 . S
O718 C711 1.267 . S
C719 O720 1.160 . S
C719 O726 1.185 . S
O720 C719 1.160 . S
O721 Zn722 1.899 . S
O721 C729 1.284 . S
Zn722 O721 1.899 . S
Zn722 O723 2.032 . S
Zn722 O726 2.086 . S
Zn722 O731 1.977 . S
O723 Zn722 2.032 . S
O723 C727 1.278 . S
C724 O725 1.203 . S
C724 O731 1.267 . S
O725 C724 1.203 . S
O726 C719 1.185 . S
O726 Zn722 2.086 . S
C727 O723 1.278 . S
C727 O728 1.211 . S
O728 C727 1.211 . S
C729 O721 1.284 . S
C729 O730 1.273 . S
O730 C729 1.273 . S
O731 Zn722 1.977 . S
O731 C724 1.267 . S
H732 C738 0.930 . S
H733 C742 0.930 . S
H734 C747 0.929 . S
H735 C745 0.929 . S
H736 C740 0.929 . S
H737 C746 0.929 . S
C738 H732 0.930 . S
C738 C739 1.367 . S
C738 C746 1.378 . S
C739 C738 1.367 . S
C739 C747 1.433 . S
C740 H736 0.929 . S
C740 C742 1.378 . S
C740 C744 1.350 . S
C741 C744 1.463 . S
C741 C746 1.350 . S
C741 N749 1.427 . S
C742 H733 0.930 . S
C742 C740 1.378 . S
C742 C743 1.367 . S
C743 C742 1.367 . S
C743 C745 1.433 . S
C744 C740 1.350 . S
C744 C741 1.463 . S
C744 N748 1.427 . S
C745 H735 0.929 . S
C745 C743 1.433 . S
C745 N748 1.384 . S
C746 H737 0.929 . S
C746 C738 1.378 . S
C746 C741 1.350 . S
C747 H734 0.929 . S
C747 C739 1.433 . S
C747 N749 1.384 . S
N748 C744 1.427 . S
N748 C745 1.384 . S
N749 C741 1.427 . S
N749 C747 1.384 . S
H750 C756 0.930 . S
H751 C760 0.930 . S
H752 C765 0.929 . S
H753 C763 0.929 . S
H754 C758 0.929 . S
H755 C764 0.929 . S
C756 H750 0.930 . S
C756 C757 1.367 . S
C756 C764 1.378 . S
C757 C756 1.367 . S
C757 C765 1.433 . S
C758 H754 0.929 . S
C758 C760 1.378 . S
C758 C762 1.350 . S
C759 C762 1.463 . S
C759 C764 1.350 . S
C759 N767 1.427 . S
C760 H751 0.930 . S
C760 C758 1.378 . S
C760 C761 1.367 . S
C761 C760 1.367 . S
C761 C763 1.433 . S
C762 C758 1.350 . S
C762 C759 1.463 . S
C762 N766 1.427 . S
C763 H753 0.929 . S
C763 C761 1.433 . S
C763 N766 1.384 . S
C764 H755 0.929 . S
C764 C756 1.378 . S
C764 C759 1.350 . S
C765 H752 0.929 . S
C765 C757 1.433 . S
C765 N767 1.384 . S
N766 C762 1.427 . S
N766 C763 1.384 . S
N767 C759 1.427 . S
N767 C765 1.384 . S
H768 C774 0.930 . S
H769 C778 0.930 . S
H770 C783 0.929 . S
H771 C781 0.929 . S
H772 C776 0.929 . S
H773 C782 0.929 . S
C774 H768 0.930 . S
C774 C775 1.367 . S
C774 C782 1.378 . S
C775 C774 1.367 . S
C775 C783 1.433 . S
C776 H772 0.929 . S
C776 C778 1.378 . S
C776 C780 1.350 . S
C777 C780 1.463 . S
C777 C782 1.350 . S
C777 N785 1.427 . S
C778 H769 0.930 . S
C778 C776 1.378 . S
C778 C779 1.367 . S
C779 C778 1.367 . S
C779 C781 1.433 . S
C780 C776 1.350 . S
C780 C777 1.463 . S
C780 N784 1.427 . S
C781 H771 0.929 . S
C781 C779 1.433 . S
C781 N784 1.384 . S
C782 H773 0.929 . S
C782 C774 1.378 . S
C782 C777 1.350 . S
C783 H770 0.929 . S
C783 C775 1.433 . S
C783 N785 1.384 . S
N784 C780 1.427 . S
N784 C781 1.384 . S
N785 C777 1.427 . S
N785 C783 1.384 . S
H786 C792 0.930 . S
H787 C796 0.930 . S
H788 C801 0.929 . S
H789 C799 0.929 . S
H790 C794 0.929 . S
H791 C800 0.929 . S
C792 H786 0.930 . S
C792 C793 1.367 . S
C792 C800 1.378 . S
C793 C792 1.367 . S
C793 C801 1.433 1_565 S
C794 H790 0.929 . S
C794 C796 1.378 . S
C794 C798 1.330 1_545 S
C795 C798 1.468 . S
C795 C800 1.350 . S
C795 N803 1.427 1_565 S
C796 H787 0.930 . S
C796 C794 1.378 . S
C796 C797 1.367 . S
C797 C796 1.367 . S
C797 C799 1.433 1_545 S
C798 C794 1.330 1_565 S
C798 C795 1.468 . S
C798 N802 1.444 . S
C799 H789 0.929 . S
C799 C797 1.433 1_565 S
C799 N802 1.384 . S
C800 H791 0.929 . S
C800 C792 1.378 . S
C800 C795 1.350 . S
C801 H788 0.929 . S
C801 C793 1.433 1_545 S
C801 N803 1.384 . S
N802 C798 1.444 . S
N802 C799 1.384 . S
N803 C795 1.427 1_545 S
N803 C801 1.384 . S
H804 C810 0.930 . S
H805 C814 0.930 . S
H806 C819 0.929 . S
H807 C817 0.929 . S
H808 C812 0.929 . S
H809 C818 0.929 . S
C810 H804 0.930 . S
C810 C811 1.367 . S
C810 C818 1.378 . S
C811 C810 1.367 . S
C811 C819 1.433 . S
C812 H808 0.929 . S
C812 C814 1.378 . S
C812 C816 1.350 . S
C813 C816 1.463 . S
C813 C818 1.350 . S
C813 N821 1.427 . S
C814 H805 0.930 . S
C814 C812 1.378 . S
C814 C815 1.367 . S
C815 C814 1.367 . S
C815 C817 1.433 . S
C816 C812 1.350 . S
C816 C813 1.463 . S
C816 N820 1.427 . S
C817 H807 0.929 . S
C817 C815 1.433 . S
C817 N820 1.384 . S
C818 H809 0.929 . S
C818 C810 1.378 . S
C818 C813 1.350 . S
C819 H806 0.929 . S
C819 C811 1.433 . S
C819 N821 1.384 . S
N820 C816 1.427 . S
N820 C817 1.384 . S
N821 C813 1.427 . S
N821 C819 1.384 . S
H822 C828 0.930 . S
H823 C832 0.930 . S
H824 C837 0.929 . S
H825 C835 0.929 . S
H826 C830 0.929 . S
H827 C836 0.929 . S
C828 H822 0.930 . S
C828 C829 1.367 . S
C828 C836 1.378 . S
C829 C828 1.367 . S
C829 C837 1.433 . S
C830 H826 0.929 . S
C830 C832 1.378 . S
C830 C834 1.350 . S
C831 C834 1.463 . S
C831 C836 1.350 . S
C831 N839 1.427 . S
C832 H823 0.930 . S
C832 C830 1.378 . S
C832 C833 1.367 . S
C833 C832 1.367 . S
C833 C835 1.433 . S
C834 C830 1.350 . S
C834 C831 1.463 . S
C834 N838 1.427 . S
C835 H825 0.929 . S
C835 C833 1.433 . S
C835 N838 1.384 . S
C836 H827 0.929 . S
C836 C828 1.378 . S
C836 C831 1.350 . S
C837 H824 0.929 . S
C837 C829 1.433 . S
C837 N839 1.384 . S
N838 C834 1.427 . S
N838 C835 1.384 . S
N839 C831 1.427 . S
N839 C837 1.384 . S
H840 C846 0.930 . S
H841 C850 0.930 . S
H842 C855 0.929 . S
H843 C853 0.929 . S
H844 C848 0.929 . S
H845 C854 0.929 . S
C846 H840 0.930 . S
C846 C847 1.367 . S
C846 C854 1.378 . S
C847 C846 1.367 . S
C847 C855 1.433 . S
C848 H844 0.929 . S
C848 C850 1.378 . S
C848 C852 1.350 . S
C849 C852 1.463 . S
C849 C854 1.350 . S
C849 N857 1.427 . S
C850 H841 0.930 . S
C850 C848 1.378 . S
C850 C851 1.367 . S
C851 C850 1.367 . S
C851 C853 1.433 . S
C852 C848 1.350 . S
C852 C849 1.463 . S
C852 N856 1.427 . S
C853 H843 0.929 . S
C853 C851 1.433 . S
C853 N856 1.384 . S
C854 H845 0.929 . S
C854 C846 1.378 . S
C854 C849 1.350 . S
C855 H842 0.929 . S
C855 C847 1.433 . S
C855 N857 1.384 . S
N856 C852 1.427 . S
N856 C853 1.384 . S
N857 C849 1.427 . S
N857 C855 1.384 . S
H858 C864 0.930 . S
H859 C868 0.930 . S
H860 C873 0.965 . S
H861 C871 0.929 . S
H862 C866 0.929 . S
H863 C872 0.929 . S
C864 H858 0.930 . S
C864 C865 1.367 . S
C864 C872 1.378 . S
C865 C864 1.367 . S
C865 C873 1.394 1_565 S
C866 H862 0.929 . S
C866 C868 1.378 . S
C866 C870 1.350 1_545 S
C867 C870 1.463 . S
C867 C872 1.350 . S
C867 N875 1.427 1_565 S
C868 H859 0.930 . S
C868 C866 1.378 . S
C868 C869 1.367 1_545 S
C869 C868 1.367 1_565 S
C869 C871 1.433 . S
C870 C866 1.350 1_565 S
C870 C867 1.463 . S
C870 N874 1.427 . S
C871 H861 0.929 . S
C871 C869 1.433 . S
C871 N874 1.384 . S
C872 H863 0.929 . S
C872 C864 1.378 . S
C872 C867 1.350 . S
C873 H860 0.965 . S
C873 C865 1.394 1_545 S
C873 N875 1.387 . S
N874 C870 1.427 . S
N874 C871 1.384 . S
N875 C867 1.427 1_545 S
N875 C873 1.387 . S
H876 C882 0.930 . S
H877 C886 0.930 . S
H878 C891 0.929 . S
H879 C889 0.929 . S
H880 C884 0.929 . S
H881 C890 0.929 . S
C882 H876 0.930 . S
C882 C883 1.367 . S
C882 C890 1.378 . S
C883 C882 1.367 . S
C883 C891 1.433 . S
C884 H880 0.929 . S
C884 C886 1.378 . S
C884 C888 1.350 . S
C885 C888 1.463 . S
C885 C890 1.350 . S
C885 N893 1.427 . S
C886 H877 0.930 . S
C886 C884 1.378 . S
C886 C887 1.367 . S
C887 C886 1.367 . S
C887 C889 1.433 . S
C888 C884 1.350 . S
C888 C885 1.463 . S
C888 N892 1.427 . S
C889 H879 0.929 . S
C889 C887 1.433 . S
C889 N892 1.384 . S
C890 H881 0.929 . S
C890 C882 1.378 . S
C890 C885 1.350 . S
C891 H878 0.929 . S
C891 C883 1.433 . S
C891 N893 1.384 . S
N892 C888 1.427 . S
N892 C889 1.384 . S
N893 C885 1.427 . S
N893 C891 1.384 . S
H894 C900 0.930 . S
H895 C904 0.930 . S
H896 C909 0.929 . S
H897 C907 0.929 . S
H898 C902 0.929 . S
H899 C908 0.929 . S
C900 H894 0.930 . S
C900 C901 1.367 . S
C900 C908 1.378 . S
C901 C900 1.367 . S
C901 C909 1.433 . S
C902 H898 0.929 . S
C902 C904 1.378 . S
C902 C906 1.350 . S
C903 C906 1.463 . S
C903 C908 1.350 . S
C903 N911 1.427 . S
C904 H895 0.930 . S
C904 C902 1.378 . S
C904 C905 1.367 . S
C905 C904 1.367 . S
C905 C907 1.433 . S
C906 C902 1.350 . S
C906 C903 1.463 . S
C906 N910 1.427 . S
C907 H897 0.929 . S
C907 C905 1.433 . S
C907 N910 1.384 . S
C908 H899 0.929 . S
C908 C900 1.378 . S
C908 C903 1.350 . S
C909 H896 0.929 . S
C909 C901 1.433 . S
C909 N911 1.384 . S
N910 C906 1.427 . S
N910 C907 1.384 . S
N911 C903 1.427 . S
N911 C909 1.384 . S
H912 C918 0.930 . S
H913 C922 0.930 . S
H914 C927 0.929 . S
H915 C925 0.929 . S
H916 C920 0.929 . S
H917 C926 0.929 . S
C918 H912 0.930 . S
C918 C919 1.367 . S
C918 C926 1.378 . S
C919 C918 1.367 . S
C919 C927 1.433 . S
C920 H916 0.929 . S
C920 C922 1.378 . S
C920 C924 1.350 . S
C921 C924 1.463 . S
C921 C926 1.350 . S
C921 N929 1.427 . S
C922 H913 0.930 . S
C922 C920 1.378 . S
C922 C923 1.367 . S
C923 C922 1.367 . S
C923 C925 1.433 . S
C924 C920 1.350 . S
C924 C921 1.463 . S
C924 N928 1.427 . S
C925 H915 0.929 . S
C925 C923 1.433 . S
C925 N928 1.384 . S
C926 H917 0.929 . S
C926 C918 1.378 . S
C926 C921 1.350 . S
C927 H914 0.929 . S
C927 C919 1.433 . S
C927 N929 1.384 . S
N928 C924 1.427 . S
N928 C925 1.384 . S
N929 C921 1.427 . S
N929 C927 1.384 . S
H930 C936 0.930 . S
H931 C940 0.930 . S
H932 C945 0.929 . S
H933 C943 0.929 . S
H934 C938 0.929 . S
H935 C944 0.929 . S
C936 H930 0.930 . S
C936 C937 1.367 . S
C936 C944 1.378 . S
C937 C936 1.367 . S
C937 C945 1.433 . S
C938 H934 0.929 . S
C938 C940 1.378 . S
C938 C942 1.350 . S
C939 C942 1.463 . S
C939 C944 1.350 . S
C939 N947 1.427 . S
C940 H931 0.930 . S
C940 C938 1.378 . S
C940 C941 1.367 . S
C941 C940 1.367 . S
C941 C943 1.433 . S
C942 C938 1.350 . S
C942 C939 1.463 . S
C942 N946 1.427 . S
C943 H933 0.929 . S
C943 C941 1.433 . S
C943 N946 1.384 . S
C944 H935 0.929 . S
C944 C936 1.378 . S
C944 C939 1.350 . S
C945 H932 0.929 . S
C945 C937 1.433 . S
C945 N947 1.384 . S
N946 C942 1.427 . S
N946 C943 1.384 . S
N947 C939 1.427 . S
N947 C945 1.384 . S
H948 C954 0.930 . S
H949 C958 0.930 . S
H950 C963 0.929 . S
H951 C961 0.929 . S
H952 C956 0.929 . S
H953 C962 0.929 . S
C954 H948 0.930 . S
C954 C955 1.367 . S
C954 C962 1.378 . S
C955 C954 1.367 . S
C955 C963 1.433 . S
C956 H952 0.929 . S
C956 C958 1.378 . S
C956 C960 1.350 . S
C957 C960 1.463 . S
C957 C962 1.350 . S
C957 N965 1.427 . S
C958 H949 0.930 . S
C958 C956 1.378 . S
C958 C959 1.367 . S
C959 C958 1.367 . S
C959 C961 1.433 . S
C960 C956 1.350 . S
C960 C957 1.463 . S
C960 N964 1.427 . S
C961 H951 0.929 . S
C961 C959 1.433 . S
C961 N964 1.384 . S
C962 H953 0.929 . S
C962 C954 1.378 . S
C962 C957 1.350 . S
C963 H950 0.929 . S
C963 C955 1.433 . S
C963 N965 1.384 . S
N964 C960 1.427 . S
N964 C961 1.384 . S
N965 C957 1.427 . S
N965 C963 1.384 . S
H966 C972 0.930 1_655 S
H967 C976 0.930 . S
H968 C981 0.929 . S
H969 C979 0.929 . S
H970 C974 0.929 . S
H971 C980 0.929 1_655 S
C972 H966 0.930 1_455 S
C972 C973 1.367 . S
C972 C980 1.378 . S
C973 C972 1.367 . S
C973 C981 1.433 . S
C974 H970 0.929 . S
C974 C976 1.378 . S
C974 C978 1.350 . S
C975 C978 1.463 . S
C975 C980 1.350 . S
C975 N983 1.427 . S
C976 H967 0.930 . S
C976 C974 1.378 . S
C976 C977 1.367 . S
C977 C976 1.367 . S
C977 C979 1.433 1_455 S
C978 C974 1.350 . S
C978 C975 1.463 . S
C978 N982 1.427 1_455 S
C979 H969 0.929 . S
C979 C977 1.433 1_655 S
C979 N982 1.384 . S
C980 H971 0.929 1_455 S
C980 C972 1.378 . S
C980 C975 1.350 . S
C981 H968 0.929 . S
C981 C973 1.433 . S
C981 N983 1.384 . S
N982 C978 1.427 1_655 S
N982 C979 1.384 . S
N983 C975 1.427 . S
N983 C981 1.384 . S
H984 C990 0.930 . S
H985 C994 0.930 . S
H986 C999 0.929 . S
H987 C997 0.929 . S
H988 C992 0.929 . S
H989 C998 0.929 . S
C990 H984 0.930 . S
C990 C991 1.367 . S
C990 C998 1.378 . S
C991 C990 1.367 . S
C991 C999 1.433 . S
C992 H988 0.929 . S
C992 C994 1.378 . S
C992 C996 1.350 . S
C993 C996 1.463 . S
C993 C998 1.350 . S
C993 N1001 1.427 . S
C994 H985 0.930 . S
C994 C992 1.378 . S
C994 C995 1.367 . S
C995 C994 1.367 . S
C995 C997 1.433 . S
C996 C992 1.350 . S
C996 C993 1.463 . S
C996 N1000 1.427 . S
C997 H987 0.929 . S
C997 C995 1.433 . S
C997 N1000 1.384 . S
C998 H989 0.929 . S
C998 C990 1.378 . S
C998 C993 1.350 . S
C999 H986 0.929 . S
C999 C991 1.433 . S
C999 N1001 1.384 . S
N1000 C996 1.427 . S
N1000 C997 1.384 . S
N1001 C993 1.427 . S
N1001 C999 1.384 . S
H1002 C1008 0.930 . S
H1003 C1012 0.937 . S
H1004 C1017 0.929 . S
H1005 C1015 0.929 . S
H1006 C1010 0.929 . S
H1007 C1016 0.929 . S
C1008 H1002 0.930 . S
C1008 C1009 1.367 . S
C1008 C1016 1.378 . S
C1009 C1008 1.367 . S
C1009 C1017 1.433 . S
C1010 H1006 0.929 . S
C1010 C1012 1.378 . S
C1010 C1014 1.350 . S
C1011 C1014 1.463 . S
C1011 C1016 1.350 . S
C1011 N1019 1.427 . S
C1012 H1003 0.937 . S
C1012 C1010 1.378 . S
C1012 C1013 1.367 . S
C1013 C1012 1.367 . S
C1013 C1015 1.433 . S
C1014 C1010 1.350 . S
C1014 C1011 1.463 . S
C1014 N1018 1.427 . S
C1015 H1005 0.929 . S
C1015 C1013 1.433 . S
C1015 N1018 1.384 . S
C1016 H1007 0.929 . S
C1016 C1008 1.378 . S
C1016 C1011 1.350 . S
C1017 H1004 0.929 . S
C1017 C1009 1.433 . S
C1017 N1019 1.384 . S
N1018 C1014 1.427 . S
N1018 C1015 1.384 . S
N1019 C1011 1.427 . S
N1019 C1017 1.384 . S
H1020 C1026 0.930 . S
H1021 C1030 0.930 . S
H1022 C1035 0.929 . S
H1023 C1033 0.929 . S
H1024 C1028 0.929 . S
H1025 C1034 0.929 . S
C1026 H1020 0.930 . S
C1026 C1027 1.367 . S
C1026 C1034 1.378 . S
C1027 C1026 1.367 . S
C1027 C1035 1.433 . S
C1028 H1024 0.929 . S
C1028 C1030 1.378 . S
C1028 C1032 1.350 . S
C1029 C1032 1.463 . S
C1029 C1034 1.350 . S
C1029 N1037 1.427 . S
C1030 H1021 0.930 . S
C1030 C1028 1.378 . S
C1030 C1031 1.367 . S
C1031 C1030 1.367 . S
C1031 C1033 1.433 . S
C1032 C1028 1.350 . S
C1032 C1029 1.463 . S
C1032 N1036 1.427 . S
C1033 H1023 0.929 . S
C1033 C1031 1.433 . S
C1033 N1036 1.384 . S
C1034 H1025 0.929 . S
C1034 C1026 1.378 . S
C1034 C1029 1.350 . S
C1035 H1022 0.929 . S
C1035 C1027 1.433 . S
C1035 N1037 1.384 . S
N1036 C1032 1.427 . S
N1036 C1033 1.384 . S
N1037 C1029 1.427 . S
N1037 C1035 1.384 . S
H1038 C1044 0.930 . S
H1039 C1048 0.930 . S
H1040 C1053 0.929 . S
H1041 C1051 0.929 . S
H1042 C1046 0.929 . S
H1043 C1052 0.929 . S
C1044 H1038 0.930 . S
C1044 C1045 1.367 . S
C1044 C1052 1.378 . S
C1045 C1044 1.367 . S
C1045 C1053 1.433 . S
C1046 H1042 0.929 . S
C1046 C1048 1.378 . S
C1046 C1050 1.350 . S
C1047 C1050 1.463 . S
C1047 C1052 1.350 . S
C1047 N1055 1.427 . S
C1048 H1039 0.930 . S
C1048 C1046 1.378 . S
C1048 C1049 1.367 . S
C1049 C1048 1.367 . S
C1049 C1051 1.433 . S
C1050 C1046 1.350 . S
C1050 C1047 1.463 . S
C1050 N1054 1.427 . S
C1051 H1041 0.929 . S
C1051 C1049 1.433 . S
C1051 N1054 1.384 . S
C1052 H1043 0.929 . S
C1052 C1044 1.378 . S
C1052 C1047 1.350 . S
C1053 H1040 0.929 . S
C1053 C1045 1.433 . S
C1053 N1055 1.384 . S
N1054 C1050 1.427 . S
N1054 C1051 1.384 . S
N1055 C1047 1.427 . S
N1055 C1053 1.384 . S
H1056 C1062 0.930 . S
H1057 C1066 0.930 . S
H1058 C1071 0.929 . S
H1059 C1069 0.929 . S
H1060 C1064 0.929 . S
H1061 C1070 0.929 . S
C1062 H1056 0.930 . S
C1062 C1063 1.367 . S
C1062 C1070 1.378 . S
C1063 C1062 1.367 . S
C1063 C1071 1.433 1_556 S
C1064 H1060 0.929 . S
C1064 C1066 1.378 . S
C1064 C1068 1.350 1_554 S
C1065 C1068 1.463 . S
C1065 C1070 1.350 . S
C1065 N1073 1.427 1_556 S
C1066 H1057 0.930 . S
C1066 C1064 1.378 . S
C1066 C1067 1.367 . S
C1067 C1066 1.367 . S
C1067 C1069 1.433 1_554 S
C1068 C1064 1.350 1_556 S
C1068 C1065 1.463 . S
C1068 N1072 1.427 . S
C1069 H1059 0.929 . S
C1069 C1067 1.433 1_556 S
C1069 N1072 1.384 . S
C1070 H1061 0.929 . S
C1070 C1062 1.378 . S
C1070 C1065 1.350 . S
C1071 H1058 0.929 . S
C1071 C1063 1.433 1_554 S
C1071 N1073 1.384 . S
N1072 C1068 1.427 . S
N1072 C1069 1.384 . S
N1073 C1065 1.427 1_554 S
N1073 C1071 1.384 . S
H1074 C1080 0.930 . S
H1075 C1084 0.930 . S
H1076 C1089 0.929 . S
H1077 C1087 0.929 . S
H1078 C1082 0.929 . S
H1079 C1088 0.929 . S
C1080 H1074 0.930 . S
C1080 C1081 1.367 . S
C1080 C1088 1.378 . S
C1081 C1080 1.367 . S
C1081 C1089 1.433 . S
C1082 H1078 0.929 . S
C1082 C1084 1.378 . S
C1082 C1086 1.350 . S
C1083 C1086 1.463 . S
C1083 C1088 1.350 . S
C1083 N1091 1.427 . S
C1084 H1075 0.930 . S
C1084 C1082 1.378 . S
C1084 C1085 1.367 . S
C1085 C1084 1.367 . S
C1085 C1087 1.433 . S
C1086 C1082 1.350 . S
C1086 C1083 1.463 . S
C1086 N1090 1.427 . S
C1087 H1077 0.929 . S
C1087 C1085 1.433 . S
C1087 N1090 1.384 . S
C1088 H1079 0.929 . S
C1088 C1080 1.378 . S
C1088 C1083 1.350 . S
C1089 H1076 0.929 . S
C1089 C1081 1.433 . S
C1089 N1091 1.384 . S
N1090 C1086 1.427 . S
N1090 C1087 1.384 . S
N1091 C1083 1.427 . S
N1091 C1089 1.384 . S
H1092 C1098 0.930 . S
H1093 C1102 0.930 . S
H1094 C1107 0.929 . S
H1095 C1105 0.929 . S
H1096 C1100 0.929 . S
H1097 C1106 0.929 . S
C1098 H1092 0.930 . S
C1098 C1099 1.367 . S
C1098 C1106 1.378 . S
C1099 C1098 1.367 . S
C1099 C1107 1.433 . S
C1100 H1096 0.929 . S
C1100 C1102 1.378 . S
C1100 C1104 1.350 . S
C1101 C1104 1.463 . S
C1101 C1106 1.350 . S
C1101 N1109 1.427 . S
C1102 H1093 0.930 . S
C1102 C1100 1.378 . S
C1102 C1103 1.367 . S
C1103 C1102 1.367 . S
C1103 C1105 1.433 . S
C1104 C1100 1.350 . S
C1104 C1101 1.463 . S
C1104 N1108 1.427 . S
C1105 H1095 0.929 . S
C1105 C1103 1.433 . S
C1105 N1108 1.384 . S
C1106 H1097 0.929 . S
C1106 C1098 1.378 . S
C1106 C1101 1.350 . S
C1107 H1094 0.929 . S
C1107 C1099 1.433 . S
C1107 N1109 1.384 . S
N1108 C1104 1.427 . S
N1108 C1105 1.384 . S
N1109 C1101 1.427 . S
N1109 C1107 1.384 . S
H1110 C1116 0.930 . S
H1111 C1120 0.930 . S
H1112 C1125 0.929 . S
H1113 C1123 0.929 . S
H1114 C1118 0.929 . S
H1115 C1124 0.929 . S
C1116 H1110 0.930 . S
C1116 C1117 1.367 . S
C1116 C1124 1.378 . S
C1117 C1116 1.367 . S
C1117 C1125 1.433 . S
C1118 H1114 0.929 . S
C1118 C1120 1.378 . S
C1118 C1122 1.350 . S
C1119 C1122 1.463 . S
C1119 C1124 1.350 . S
C1119 N1127 1.427 . S
C1120 H1111 0.930 . S
C1120 C1118 1.378 . S
C1120 C1121 1.367 . S
C1121 C1120 1.367 . S
C1121 C1123 1.433 . S
C1122 C1118 1.350 . S
C1122 C1119 1.463 . S
C1122 N1126 1.427 . S
C1123 H1113 0.929 . S
C1123 C1121 1.433 . S
C1123 N1126 1.384 . S
C1124 H1115 0.929 . S
C1124 C1116 1.378 . S
C1124 C1119 1.350 . S
C1125 H1112 0.929 . S
C1125 C1117 1.433 . S
C1125 N1127 1.384 . S
N1126 C1122 1.427 . S
N1126 C1123 1.384 . S
N1127 C1119 1.427 . S
N1127 C1125 1.384 . S
H1128 C1134 0.930 . S
H1129 C1138 0.930 . S
H1130 C1143 0.929 . S
H1131 C1141 0.929 . S
H1132 C1136 0.929 . S
H1133 C1142 0.929 . S
C1134 H1128 0.930 . S
C1134 C1135 1.367 . S
C1134 C1142 1.378 . S
C1135 C1134 1.367 . S
C1135 C1143 1.433 . S
C1136 H1132 0.929 . S
C1136 C1138 1.378 . S
C1136 C1140 1.350 . S
C1137 C1140 1.463 . S
C1137 C1142 1.350 . S
C1137 N1145 1.427 . S
C1138 H1129 0.930 . S
C1138 C1136 1.378 . S
C1138 C1139 1.367 . S
C1139 C1138 1.367 . S
C1139 C1141 1.433 . S
C1140 C1136 1.350 . S
C1140 C1137 1.463 . S
C1140 N1144 1.427 . S
C1141 H1131 0.929 . S
C1141 C1139 1.433 . S
C1141 N1144 1.384 . S
C1142 H1133 0.929 . S
C1142 C1134 1.378 . S
C1142 C1137 1.350 . S
C1143 H1130 0.929 . S
C1143 C1135 1.433 . S
C1143 N1145 1.384 . S
N1144 C1140 1.427 . S
N1144 C1141 1.384 . S
N1145 C1137 1.427 . S
N1145 C1143 1.384 . S
H1146 C1152 0.930 . S
H1147 C1156 0.930 . S
H1148 C1161 0.929 . S
H1149 C1159 0.929 . S
H1150 C1154 0.929 . S
H1151 C1160 0.929 . S
C1152 H1146 0.930 . S
C1152 C1153 1.367 . S
C1152 C1160 1.378 . S
C1153 C1152 1.367 . S
C1153 C1161 1.433 . S
C1154 H1150 0.929 . S
C1154 C1156 1.378 . S
C1154 C1158 1.350 . S
C1155 C1158 1.463 . S
C1155 C1160 1.350 . S
C1155 N1163 1.427 . S
C1156 H1147 0.930 . S
C1156 C1154 1.378 . S
C1156 C1157 1.367 . S
C1157 C1156 1.367 . S
C1157 C1159 1.433 . S
C1158 C1154 1.350 . S
C1158 C1155 1.463 . S
C1158 N1162 1.427 . S
C1159 H1149 0.929 . S
C1159 C1157 1.433 . S
C1159 N1162 1.384 . S
C1160 H1151 0.929 . S
C1160 C1152 1.378 . S
C1160 C1155 1.350 . S
C1161 H1148 0.929 . S
C1161 C1153 1.433 . S
C1161 N1163 1.384 . S
N1162 C1158 1.427 . S
N1162 C1159 1.384 . S
N1163 C1155 1.427 . S
N1163 C1161 1.384 . S
H1164 C1170 0.930 . S
H1165 C1174 0.930 . S
H1166 C1179 0.929 . S
H1167 C1177 0.929 . S
H1168 C1172 0.929 . S
H1169 C1178 0.929 . S
C1170 H1164 0.930 . S
C1170 C1171 1.367 . S
C1170 C1178 1.378 . S
C1171 C1170 1.367 . S
C1171 C1179 1.433 . S
C1172 H1168 0.929 . S
C1172 C1174 1.378 . S
C1172 C1176 1.350 . S
C1173 C1176 1.463 . S
C1173 C1178 1.350 . S
C1173 N1181 1.427 . S
C1174 H1165 0.930 . S
C1174 C1172 1.378 . S
C1174 C1175 1.367 . S
C1175 C1174 1.367 . S
C1175 C1177 1.433 . S
C1176 C1172 1.350 . S
C1176 C1173 1.463 . S
C1176 N1180 1.427 . S
C1177 H1167 0.929 . S
C1177 C1175 1.433 . S
C1177 N1180 1.384 . S
C1178 H1169 0.929 . S
C1178 C1170 1.378 . S
C1178 C1173 1.350 . S
C1179 H1166 0.929 . S
C1179 C1171 1.433 . S
C1179 N1181 1.384 . S
N1180 C1176 1.427 . S
N1180 C1177 1.384 . S
N1181 C1173 1.427 . S
N1181 C1179 1.384 . S
H1182 C1188 0.959 . S
H1183 C1192 0.930 . S
H1184 C1197 0.929 . S
H1185 C1195 0.929 . S
H1186 C1190 0.929 . S
H1187 C1196 0.929 1_565 S
C1188 H1182 0.959 . S
C1188 C1189 1.367 . S
C1188 C1196 1.378 . S
C1189 C1188 1.367 . S
C1189 C1197 1.433 . S
C1190 H1186 0.929 . S
C1190 C1192 1.378 . S
C1190 C1194 1.350 . S
C1191 C1194 1.463 . S
C1191 C1196 1.350 . S
C1191 N1199 1.427 . S
C1192 H1183 0.930 . S
C1192 C1190 1.378 . S
C1192 C1193 1.367 . S
C1193 C1192 1.367 . S
C1193 C1195 1.433 1_545 S
C1194 C1190 1.350 . S
C1194 C1191 1.463 . S
C1194 N1198 1.423 . S
C1195 H1185 0.929 . S
C1195 C1193 1.433 1_565 S
C1195 N1198 1.385 1_565 S
C1196 H1187 0.929 1_545 S
C1196 C1188 1.378 . S
C1196 C1191 1.350 . S
C1197 H1184 0.929 . S
C1197 C1189 1.433 . S
C1197 N1199 1.384 . S
N1198 C1194 1.423 . S
N1198 C1195 1.385 1_545 S
N1199 C1191 1.427 . S
N1199 C1197 1.384 . S
H1200 C1206 0.930 . S
H1201 C1210 0.930 . S
H1202 C1215 0.929 . S
H1203 C1213 0.929 . S
H1204 C1208 0.929 . S
H1205 C1214 0.929 . S
C1206 H1200 0.930 . S
C1206 C1207 1.367 . S
C1206 C1214 1.378 . S
C1207 C1206 1.367 . S
C1207 C1215 1.433 . S
C1208 H1204 0.929 . S
C1208 C1210 1.378 . S
C1208 C1212 1.350 . S
C1209 C1212 1.463 . S
C1209 C1214 1.350 . S
C1209 N1217 1.427 . S
C1210 H1201 0.930 . S
C1210 C1208 1.378 . S
C1210 C1211 1.367 . S
C1211 C1210 1.367 . S
C1211 C1213 1.433 . S
C1212 C1208 1.350 . S
C1212 C1209 1.463 . S
C1212 N1216 1.427 . S
C1213 H1203 0.929 . S
C1213 C1211 1.433 . S
C1213 N1216 1.384 . S
C1214 H1205 0.929 . S
C1214 C1206 1.378 . S
C1214 C1209 1.350 . S
C1215 H1202 0.929 . S
C1215 C1207 1.433 . S
C1215 N1217 1.384 . S
N1216 C1212 1.427 . S
N1216 C1213 1.384 . S
N1217 C1209 1.427 . S
N1217 C1215 1.384 . S
H1218 C1224 0.930 . S
H1219 C1228 0.930 . S
H1220 C1233 0.929 . S
H1221 C1231 0.929 . S
H1222 C1226 0.929 . S
H1223 C1232 0.929 . S
C1224 H1218 0.930 . S
C1224 C1225 1.367 . S
C1224 C1232 1.378 . S
C1225 C1224 1.367 . S
C1225 C1233 1.433 . S
C1226 H1222 0.929 . S
C1226 C1228 1.378 . S
C1226 C1230 1.350 . S
C1227 C1230 1.463 . S
C1227 C1232 1.350 . S
C1227 N1235 1.427 . S
C1228 H1219 0.930 . S
C1228 C1226 1.378 . S
C1228 C1229 1.367 . S
C1229 C1228 1.367 . S
C1229 C1231 1.433 . S
C1230 C1226 1.350 . S
C1230 C1227 1.463 . S
C1230 N1234 1.427 . S
C1231 H1221 0.929 . S
C1231 C1229 1.433 . S
C1231 N1234 1.384 . S
C1232 H1223 0.929 . S
C1232 C1224 1.378 . S
C1232 C1227 1.350 . S
C1233 H1220 0.929 . S
C1233 C1225 1.433 . S
C1233 N1235 1.384 . S
N1234 C1230 1.427 . S
N1234 C1231 1.384 . S
N1235 C1227 1.427 . S
N1235 C1233 1.384 . S
H1236 C1242 0.930 . S
H1237 C1246 0.930 . S
H1238 C1251 0.929 . S
H1239 C1249 0.929 . S
H1240 C1244 0.929 . S
H1241 C1250 0.929 . S
C1242 H1236 0.930 . S
C1242 C1243 1.367 . S
C1242 C1250 1.378 . S
C1243 C1242 1.367 . S
C1243 C1251 1.433 . S
C1244 H1240 0.929 . S
C1244 C1246 1.378 . S
C1244 C1248 1.350 . S
C1245 C1248 1.463 . S
C1245 C1250 1.350 . S
C1245 N1253 1.427 . S
C1246 H1237 0.930 . S
C1246 C1244 1.378 . S
C1246 C1247 1.367 . S
C1247 C1246 1.367 . S
C1247 C1249 1.433 . S
C1248 C1244 1.350 . S
C1248 C1245 1.463 . S
C1248 N1252 1.427 . S
C1249 H1239 0.929 . S
C1249 C1247 1.433 . S
C1249 N1252 1.384 . S
C1250 H1241 0.929 . S
C1250 C1242 1.378 . S
C1250 C1245 1.350 . S
C1251 H1238 0.929 . S
C1251 C1243 1.433 . S
C1251 N1253 1.384 . S
N1252 C1248 1.427 . S
N1252 C1249 1.384 . S
N1253 C1245 1.427 . S
N1253 C1251 1.384 . S
H1254 C1260 0.930 . S
H1255 C1264 0.930 . S
H1256 C1269 0.929 . S
H1257 C1267 0.929 . S
H1258 C1262 0.929 . S
H1259 C1268 0.929 . S
C1260 H1254 0.930 . S
C1260 C1261 1.367 . S
C1260 C1268 1.378 . S
C1261 C1260 1.367 . S
C1261 C1269 1.433 . S
C1262 H1258 0.929 . S
C1262 C1264 1.378 . S
C1262 C1266 1.350 . S
C1263 C1266 1.463 . S
C1263 C1268 1.350 . S
C1263 N1271 1.427 . S
C1264 H1255 0.930 . S
C1264 C1262 1.378 . S
C1264 C1265 1.367 . S
C1265 C1264 1.367 . S
C1265 C1267 1.433 . S
C1266 C1262 1.350 . S
C1266 C1263 1.463 . S
C1266 N1270 1.427 . S
C1267 H1257 0.929 . S
C1267 C1265 1.433 . S
C1267 N1270 1.384 . S
C1268 H1259 0.929 . S
C1268 C1260 1.378 . S
C1268 C1263 1.350 . S
C1269 H1256 0.929 . S
C1269 C1261 1.433 . S
C1269 N1271 1.384 . S
N1270 C1266 1.427 . S
N1270 C1267 1.384 . S
N1271 C1263 1.427 . S
N1271 C1269 1.384 . S
H1272 C1278 0.930 . S
H1273 C1282 0.930 . S
H1274 C1287 0.929 . S
H1275 C1285 0.929 . S
H1276 C1280 0.929 . S
H1277 C1286 0.929 . S
C1278 H1272 0.930 . S
C1278 C1279 1.367 . S
C1278 C1286 1.378 . S
C1279 C1278 1.367 . S
C1279 C1287 1.433 . S
C1280 H1276 0.929 . S
C1280 C1282 1.378 . S
C1280 C1284 1.350 . S
C1281 C1284 1.463 . S
C1281 C1286 1.350 . S
C1281 N1289 1.427 . S
C1282 H1273 0.930 . S
C1282 C1280 1.378 . S
C1282 C1283 1.367 . S
C1283 C1282 1.367 . S
C1283 C1285 1.433 . S
C1284 C1280 1.350 . S
C1284 C1281 1.463 . S
C1284 N1288 1.427 . S
C1285 H1275 0.929 . S
C1285 C1283 1.433 . S
C1285 N1288 1.384 . S
C1286 H1277 0.929 . S
C1286 C1278 1.378 . S
C1286 C1281 1.350 . S
C1287 H1274 0.929 . S
C1287 C1279 1.433 . S
C1287 N1289 1.384 . S
N1288 C1284 1.427 . S
N1288 C1285 1.384 . S
N1289 C1281 1.427 . S
N1289 C1287 1.384 . S
H1290 C1296 0.930 . S
H1291 C1300 0.930 . S
H1292 C1305 0.929 . S
H1293 C1303 0.929 . S
H1294 C1298 0.929 . S
H1295 C1304 0.929 . S
C1296 H1290 0.930 . S
C1296 C1297 1.367 . S
C1296 C1304 1.378 . S
C1297 C1296 1.367 . S
C1297 C1305 1.433 . S
C1298 H1294 0.929 . S
C1298 C1300 1.378 . S
C1298 C1302 1.350 . S
C1299 C1302 1.463 . S
C1299 C1304 1.350 . S
C1299 N1307 1.427 . S
C1300 H1291 0.930 . S
C1300 C1298 1.378 . S
C1300 C1301 1.367 . S
C1301 C1300 1.367 . S
C1301 C1303 1.433 . S
C1302 C1298 1.350 . S
C1302 C1299 1.463 . S
C1302 N1306 1.427 . S
C1303 H1293 0.929 . S
C1303 C1301 1.433 . S
C1303 N1306 1.384 . S
C1304 H1295 0.929 . S
C1304 C1296 1.378 . S
C1304 C1299 1.350 . S
C1305 H1292 0.929 . S
C1305 C1297 1.433 . S
C1305 N1307 1.384 . S
N1306 C1302 1.427 . S
N1306 C1303 1.384 . S
N1307 C1299 1.427 . S
N1307 C1305 1.384 . S
H1308 C1314 0.930 . S
H1309 C1318 0.930 . S
H1310 C1323 0.929 . S
H1311 C1321 0.929 . S
H1312 C1316 0.929 . S
H1313 C1322 0.929 . S
C1314 H1308 0.930 . S
C1314 C1315 1.367 . S
C1314 C1322 1.378 . S
C1315 C1314 1.367 . S
C1315 C1323 1.433 . S
C1316 H1312 0.929 . S
C1316 C1318 1.378 . S
C1316 C1320 1.350 . S
C1317 C1320 1.463 . S
C1317 C1322 1.350 . S
C1317 N1325 1.427 . S
C1318 H1309 0.930 . S
C1318 C1316 1.378 . S
C1318 C1319 1.367 . S
C1319 C1318 1.367 . S
C1319 C1321 1.433 . S
C1320 C1316 1.350 . S
C1320 C1317 1.463 . S
C1320 N1324 1.427 . S
C1321 H1311 0.929 . S
C1321 C1319 1.433 . S
C1321 N1324 1.384 . S
C1322 H1313 0.929 . S
C1322 C1314 1.378 . S
C1322 C1317 1.350 . S
C1323 H1310 0.929 . S
C1323 C1315 1.433 . S
C1323 N1325 1.384 . S
N1324 C1320 1.427 . S
N1324 C1321 1.384 . S
N1325 C1317 1.427 . S
N1325 C1323 1.384 . S
H1326 C1332 0.930 . S
H1327 C1336 0.930 . S
H1328 C1341 0.929 . S
H1329 C1339 0.929 . S
H1330 C1334 0.924 1_455 S
H1331 C1340 0.929 . S
C1332 H1326 0.930 . S
C1332 C1333 1.367 . S
C1332 C1340 1.378 . S
C1333 C1332 1.367 . S
C1333 C1341 1.433 . S
C1334 H1330 0.924 1_655 S
C1334 C1336 1.376 1_655 S
C1334 C1338 1.357 . S
C1335 C1338 1.463 . S
C1335 C1340 1.350 . S
C1335 N1343 1.427 . S
C1336 H1327 0.930 . S
C1336 C1334 1.376 1_455 S
C1336 C1337 1.367 1_455 S
C1337 C1336 1.367 1_655 S
C1337 C1339 1.433 . S
C1338 C1334 1.357 . S
C1338 C1335 1.463 . S
C1338 N1342 1.427 . S
C1339 H1329 0.929 . S
C1339 C1337 1.433 . S
C1339 N1342 1.384 . S
C1340 H1331 0.929 . S
C1340 C1332 1.378 . S
C1340 C1335 1.350 . S
C1341 H1328 0.929 . S
C1341 C1333 1.433 . S
C1341 N1343 1.384 . S
N1342 C1338 1.427 . S
N1342 C1339 1.384 . S
N1343 C1335 1.427 . S
N1343 C1341 1.384 . S
H1344 C1350 0.930 . S
H1345 C1354 0.930 . S
H1346 C1359 0.929 . S
H1347 C1357 0.929 . S
H1348 C1352 0.929 . S
H1349 C1358 0.929 . S
C1350 H1344 0.930 . S
C1350 C1351 1.367 . S
C1350 C1358 1.378 . S
C1351 C1350 1.367 . S
C1351 C1359 1.433 . S
C1352 H1348 0.929 . S
C1352 C1354 1.378 . S
C1352 C1356 1.350 . S
C1353 C1356 1.463 . S
C1353 C1358 1.350 . S
C1353 N1361 1.427 . S
C1354 H1345 0.930 . S
C1354 C1352 1.378 . S
C1354 C1355 1.367 . S
C1355 C1354 1.367 . S
C1355 C1357 1.433 . S
C1356 C1352 1.350 . S
C1356 C1353 1.463 . S
C1356 N1360 1.427 . S
C1357 H1347 0.929 . S
C1357 C1355 1.433 . S
C1357 N1360 1.384 . S
C1358 H1349 0.929 . S
C1358 C1350 1.378 . S
C1358 C1353 1.350 . S
C1359 H1346 0.929 . S
C1359 C1351 1.433 . S
C1359 N1361 1.384 . S
N1360 C1356 1.427 . S
N1360 C1357 1.384 . S
N1361 C1353 1.427 . S
N1361 C1359 1.384 . S
H1362 C1368 0.930 . S
H1363 C1372 0.930 . S
H1364 C1377 0.929 1_655 S
H1365 C1375 0.929 . S
H1366 C1370 0.929 . S
H1367 C1376 0.929 . S
C1368 H1362 0.930 . S
C1368 C1369 1.367 . S
C1368 C1376 1.378 . S
C1369 C1368 1.367 . S
C1369 C1377 1.433 . S
C1370 H1366 0.929 . S
C1370 C1372 1.378 . S
C1370 C1374 1.350 1_655 S
C1371 C1374 1.463 . S
C1371 C1376 1.350 . S
C1371 N1379 1.427 . S
C1372 H1363 0.930 . S
C1372 C1370 1.378 . S
C1372 C1373 1.367 1_655 S
C1373 C1372 1.367 1_455 S
C1373 C1375 1.433 . S
C1374 C1370 1.350 1_455 S
C1374 C1371 1.463 . S
C1374 N1378 1.427 . S
C1375 H1365 0.929 . S
C1375 C1373 1.433 . S
C1375 N1378 1.384 . S
C1376 H1367 0.929 . S
C1376 C1368 1.378 . S
C1376 C1371 1.350 . S
C1377 H1364 0.929 1_455 S
C1377 C1369 1.433 . S
C1377 N1379 1.384 . S
N1378 C1374 1.427 . S
N1378 C1375 1.384 . S
N1379 C1371 1.427 . S
N1379 C1377 1.384 . S
H1380 C1386 0.930 . S
H1381 C1390 0.930 . S
H1382 C1395 0.929 . S
H1383 C1393 0.929 . S
H1384 C1388 0.929 . S
H1385 C1394 0.929 . S
C1386 H1380 0.930 . S
C1386 C1387 1.367 . S
C1386 C1394 1.378 . S
C1387 C1386 1.367 . S
C1387 C1395 1.433 . S
C1388 H1384 0.929 . S
C1388 C1390 1.378 . S
C1388 C1392 1.350 . S
C1389 C1392 1.463 . S
C1389 C1394 1.350 . S
C1389 N1397 1.427 . S
C1390 H1381 0.930 . S
C1390 C1388 1.378 . S
C1390 C1391 1.367 . S
C1391 C1390 1.367 . S
C1391 C1393 1.433 . S
C1392 C1388 1.350 . S
C1392 C1389 1.463 . S
C1392 N1396 1.427 . S
C1393 H1383 0.929 . S
C1393 C1391 1.433 . S
C1393 N1396 1.384 . S
C1394 H1385 0.929 . S
C1394 C1386 1.378 . S
C1394 C1389 1.350 . S
C1395 H1382 0.929 . S
C1395 C1387 1.433 . S
C1395 N1397 1.384 . S
N1396 C1392 1.427 . S
N1396 C1393 1.384 . S
N1397 C1389 1.427 . S
N1397 C1395 1.384 . S
H1398 C1404 0.930 . S
H1399 C1408 0.930 . S
H1400 C1413 0.929 . S
H1401 C1411 0.929 . S
H1402 C1406 0.929 . S
H1403 C1412 0.929 . S
C1404 H1398 0.930 . S
C1404 C1405 1.367 . S
C1404 C1412 1.378 . S
C1405 C1404 1.367 . S
C1405 C1413 1.433 . S
C1406 H1402 0.929 . S
C1406 C1408 1.378 . S
C1406 C1410 1.350 . S
C1407 C1410 1.463 . S
C1407 C1412 1.350 . S
C1407 N1415 1.427 . S
C1408 H1399 0.930 . S
C1408 C1406 1.378 . S
C1408 C1409 1.367 . S
C1409 C1408 1.367 . S
C1409 C1411 1.433 . S
C1410 C1406 1.350 . S
C1410 C1407 1.463 . S
C1410 N1414 1.427 . S
C1411 H1401 0.929 . S
C1411 C1409 1.433 . S
C1411 N1414 1.384 . S
C1412 H1403 0.929 . S
C1412 C1404 1.378 . S
C1412 C1407 1.350 . S
C1413 H1400 0.929 . S
C1413 C1405 1.433 . S
C1413 N1415 1.384 . S
N1414 C1410 1.427 . S
N1414 C1411 1.384 . S
N1415 C1407 1.427 . S
N1415 C1413 1.384 . S
H1416 C1422 0.930 . S
H1417 C1426 0.930 . S
H1418 C1431 0.929 . S
H1419 C1429 0.929 . S
H1420 C1424 0.929 . S
H1421 C1430 0.929 . S
C1422 H1416 0.930 . S
C1422 C1423 1.367 . S
C1422 C1430 1.378 . S
C1423 C1422 1.367 . S
C1423 C1431 1.433 . S
C1424 H1420 0.929 . S
C1424 C1426 1.378 . S
C1424 C1428 1.350 . S
C1425 C1428 1.463 . S
C1425 C1430 1.350 . S
C1425 N1433 1.427 . S
C1426 H1417 0.930 . S
C1426 C1424 1.378 . S
C1426 C1427 1.367 . S
C1427 C1426 1.367 . S
C1427 C1429 1.433 . S
C1428 C1424 1.350 . S
C1428 C1425 1.463 . S
C1428 N1432 1.427 . S
C1429 H1419 0.929 . S
C1429 C1427 1.433 . S
C1429 N1432 1.384 . S
C1430 H1421 0.929 . S
C1430 C1422 1.378 . S
C1430 C1425 1.350 . S
C1431 H1418 0.929 . S
C1431 C1423 1.433 . S
C1431 N1433 1.384 . S
N1432 C1428 1.427 . S
N1432 C1429 1.384 . S
N1433 C1425 1.427 . S
N1433 C1431 1.384 . S
H1434 C1440 0.930 . S
H1435 C1444 0.930 . S
H1436 C1449 0.929 . S
H1437 C1447 0.929 . S
H1438 C1442 0.929 . S
H1439 C1448 0.929 . S
C1440 H1434 0.930 . S
C1440 C1441 1.367 . S
C1440 C1448 1.378 . S
C1441 C1440 1.367 . S
C1441 C1449 1.433 . S
C1442 H1438 0.929 . S
C1442 C1444 1.378 . S
C1442 C1446 1.350 . S
C1443 C1446 1.463 . S
C1443 C1448 1.350 . S
C1443 N1451 1.427 . S
C1444 H1435 0.930 . S
C1444 C1442 1.378 . S
C1444 C1445 1.367 . S
C1445 C1444 1.367 . S
C1445 C1447 1.433 . S
C1446 C1442 1.350 . S
C1446 C1443 1.463 . S
C1446 N1450 1.427 . S
C1447 H1437 0.929 . S
C1447 C1445 1.433 . S
C1447 N1450 1.384 . S
C1448 H1439 0.929 . S
C1448 C1440 1.378 . S
C1448 C1443 1.350 . S
C1449 H1436 0.929 . S
C1449 C1441 1.433 . S
C1449 N1451 1.384 . S
N1450 C1446 1.427 . S
N1450 C1447 1.384 . S
N1451 C1443 1.427 . S
N1451 C1449 1.384 . S
H1452 C1458 0.930 . S
H1453 C1462 0.930 . S
H1454 C1467 0.929 . S
H1455 C1465 0.929 . S
H1456 C1460 0.929 . S
H1457 C1466 0.929 . S
C1458 H1452 0.930 . S
C1458 C1459 1.367 . S
C1458 C1466 1.378 . S
C1459 C1458 1.367 . S
C1459 C1467 1.433 . S
C1460 H1456 0.929 . S
C1460 C1462 1.378 . S
C1460 C1464 1.350 . S
C1461 C1464 1.463 . S
C1461 C1466 1.350 . S
C1461 N1469 1.427 . S
C1462 H1453 0.930 . S
C1462 C1460 1.378 . S
C1462 C1463 1.367 . S
C1463 C1462 1.367 . S
C1463 C1465 1.433 . S
C1464 C1460 1.350 . S
C1464 C1461 1.463 . S
C1464 N1468 1.427 . S
C1465 H1455 0.929 . S
C1465 C1463 1.433 . S
C1465 N1468 1.384 . S
C1466 H1457 0.929 . S
C1466 C1458 1.378 . S
C1466 C1461 1.350 . S
C1467 H1454 0.929 . S
C1467 C1459 1.433 . S
C1467 N1469 1.384 . S
N1468 C1464 1.427 . S
N1468 C1465 1.384 . S
N1469 C1461 1.427 . S
N1469 C1467 1.384 . S
H1470 C1476 0.930 . S
H1471 C1480 0.930 . S
H1472 C1485 0.929 . S
H1473 C1483 0.929 . S
H1474 C1478 0.929 . S
H1475 C1484 0.929 . S
C1476 H1470 0.930 . S
C1476 C1477 1.367 . S
C1476 C1484 1.378 . S
C1477 C1476 1.367 . S
C1477 C1485 1.433 . S
C1478 H1474 0.929 . S
C1478 C1480 1.378 . S
C1478 C1482 1.350 . S
C1479 C1482 1.463 . S
C1479 C1484 1.350 . S
C1479 N1487 1.427 . S
C1480 H1471 0.930 . S
C1480 C1478 1.378 . S
C1480 C1481 1.367 . S
C1481 C1480 1.367 . S
C1481 C1483 1.433 . S
C1482 C1478 1.350 . S
C1482 C1479 1.463 . S
C1482 N1486 1.427 . S
C1483 H1473 0.929 . S
C1483 C1481 1.433 . S
C1483 N1486 1.384 . S
C1484 H1475 0.929 . S
C1484 C1476 1.378 . S
C1484 C1479 1.350 . S
C1485 H1472 0.929 . S
C1485 C1477 1.433 . S
C1485 N1487 1.384 . S
N1486 C1482 1.427 . S
N1486 C1483 1.384 . S
N1487 C1479 1.427 . S
N1487 C1485 1.384 . S
H1488 C1494 0.930 . S
H1489 C1498 0.930 . S
H1490 C1503 0.929 . S
H1491 C1501 0.929 . S
H1492 C1496 0.929 . S
H1493 C1502 0.929 . S
C1494 H1488 0.930 . S
C1494 C1495 1.367 . S
C1494 C1502 1.378 . S
C1495 C1494 1.367 . S
C1495 C1503 1.433 . S
C1496 H1492 0.929 . S
C1496 C1498 1.378 . S
C1496 C1500 1.350 . S
C1497 C1500 1.463 . S
C1497 C1502 1.350 . S
C1497 N1505 1.427 . S
C1498 H1489 0.930 . S
C1498 C1496 1.378 . S
C1498 C1499 1.367 . S
C1499 C1498 1.367 . S
C1499 C1501 1.433 . S
C1500 C1496 1.350 . S
C1500 C1497 1.463 . S
C1500 N1504 1.427 . S
C1501 H1491 0.929 . S
C1501 C1499 1.433 . S
C1501 N1504 1.384 . S
C1502 H1493 0.929 . S
C1502 C1494 1.378 . S
C1502 C1497 1.350 . S
C1503 H1490 0.929 . S
C1503 C1495 1.433 . S
C1503 N1505 1.384 . S
N1504 C1500 1.427 . S
N1504 C1501 1.384 . S
N1505 C1497 1.427 . S
N1505 C1503 1.384 . S
H1506 C1512 0.930 . S
H1507 C1516 0.930 . S
H1508 C1521 0.929 . S
H1509 C1519 0.929 . S
H1510 C1514 0.929 . S
H1511 C1520 0.929 . S
C1512 H1506 0.930 . S
C1512 C1513 1.367 . S
C1512 C1520 1.378 . S
C1513 C1512 1.367 . S
C1513 C1521 1.433 . S
C1514 H1510 0.929 . S
C1514 C1516 1.378 . S
C1514 C1518 1.350 . S
C1515 C1518 1.463 . S
C1515 C1520 1.350 . S
C1515 N1523 1.427 . S
C1516 H1507 0.930 . S
C1516 C1514 1.378 . S
C1516 C1517 1.367 . S
C1517 C1516 1.367 . S
C1517 C1519 1.433 . S
C1518 C1514 1.350 . S
C1518 C1515 1.463 . S
C1518 N1522 1.427 . S
C1519 H1509 0.929 . S
C1519 C1517 1.433 . S
C1519 N1522 1.384 . S
C1520 H1511 0.929 . S
C1520 C1512 1.378 . S
C1520 C1515 1.350 . S
C1521 H1508 0.929 . S
C1521 C1513 1.433 . S
C1521 N1523 1.384 . S
N1522 C1518 1.427 . S
N1522 C1519 1.384 . S
N1523 C1515 1.427 . S
N1523 C1521 1.384 . S
H1524 C1530 0.930 . S
H1525 C1534 0.931 . S
H1526 C1539 0.929 . S
H1527 C1537 0.929 . S
H1528 C1532 0.929 1_554 S
H1529 C1538 0.929 . S
C1530 H1524 0.930 . S
C1530 C1531 1.367 . S
C1530 C1538 1.378 . S
C1531 C1530 1.367 . S
C1531 C1539 1.433 . S
C1532 H1528 0.929 1_556 S
C1532 C1534 1.378 1_556 S
C1532 C1536 1.350 . S
C1533 C1536 1.463 . S
C1533 C1538 1.350 . S
C1533 N1541 1.427 . S
C1534 H1525 0.931 . S
C1534 C1532 1.378 1_554 S
C1534 C1535 1.366 1_554 S
C1535 C1534 1.366 1_556 S
C1535 C1537 1.433 . S
C1536 C1532 1.350 . S
C1536 C1533 1.463 . S
C1536 N1540 1.427 . S
C1537 H1527 0.929 . S
C1537 C1535 1.433 . S
C1537 N1540 1.384 . S
C1538 H1529 0.929 . S
C1538 C1530 1.378 . S
C1538 C1533 1.350 . S
C1539 H1526 0.929 . S
C1539 C1531 1.433 . S
C1539 N1541 1.384 . S
N1540 C1536 1.427 . S
N1540 C1537 1.384 . S
N1541 C1533 1.427 . S
N1541 C1539 1.384 . S
H1542 C1548 0.930 . S
H1543 C1552 0.930 . S
H1544 C1557 0.929 . S
H1545 C1555 0.929 . S
H1546 C1550 0.929 . S
H1547 C1556 0.929 . S
C1548 H1542 0.930 . S
C1548 C1549 1.367 . S
C1548 C1556 1.378 . S
C1549 C1548 1.367 . S
C1549 C1557 1.433 . S
C1550 H1546 0.929 . S
C1550 C1552 1.378 . S
C1550 C1554 1.350 . S
C1551 C1554 1.463 . S
C1551 C1556 1.350 . S
C1551 N1559 1.427 . S
C1552 H1543 0.930 . S
C1552 C1550 1.378 . S
C1552 C1553 1.367 . S
C1553 C1552 1.367 . S
C1553 C1555 1.433 . S
C1554 C1550 1.350 . S
C1554 C1551 1.463 . S
C1554 N1558 1.427 . S
C1555 H1545 0.929 . S
C1555 C1553 1.433 . S
C1555 N1558 1.384 . S
C1556 H1547 0.929 . S
C1556 C1548 1.378 . S
C1556 C1551 1.350 . S
C1557 H1544 0.929 . S
C1557 C1549 1.433 . S
C1557 N1559 1.384 . S
N1558 C1554 1.427 . S
N1558 C1555 1.384 . S
N1559 C1551 1.427 . S
N1559 C1557 1.384 . S
H1560 C1566 0.930 . S
H1561 C1570 0.930 . S
H1562 C1575 0.929 1_556 S
H1563 C1573 0.929 . S
H1564 C1568 0.929 . S
H1565 C1574 0.929 . S
C1566 H1560 0.930 . S
C1566 C1567 1.367 . S
C1566 C1574 1.378 . S
C1567 C1566 1.367 . S
C1567 C1575 1.433 . S
C1568 H1564 0.929 . S
C1568 C1570 1.378 . S
C1568 C1572 1.350 1_556 S
C1569 C1572 1.463 . S
C1569 C1574 1.350 . S
C1569 N1577 1.433 . S
C1570 H1561 0.930 . S
C1570 C1568 1.378 . S
C1570 C1571 1.367 1_556 S
C1571 C1570 1.367 1_554 S
C1571 C1573 1.433 . S
C1572 C1568 1.350 1_554 S
C1572 C1569 1.463 . S
C1572 N1576 1.427 . S
C1573 H1563 0.929 . S
C1573 C1571 1.433 . S
C1573 N1576 1.384 . S
C1574 H1565 0.929 . S
C1574 C1566 1.378 . S
C1574 C1569 1.350 . S
C1575 H1562 0.929 1_554 S
C1575 C1567 1.433 . S
C1575 N1577 1.385 . S
N1576 C1572 1.427 . S
N1576 C1573 1.384 . S
N1577 C1569 1.433 . S
N1577 C1575 1.385 . S
H1578 C1584 0.930 . S
H1579 C1588 0.930 1_556 S
H1580 C1593 0.933 . S
H1581 C1591 0.929 . S
H1582 C1586 0.929 1_556 S
H1583 C1592 0.929 . S
C1584 H1578 0.930 . S
C1584 C1585 1.367 . S
C1584 C1592 1.378 . S
C1585 C1584 1.367 . S
C1585 C1593 1.433 . S
C1586 H1582 0.929 1_554 S
C1586 C1588 1.378 . S
C1586 C1590 1.350 . S
C1587 C1590 1.463 . S
C1587 C1592 1.350 . S
C1587 N1595 1.427 . S
C1588 H1579 0.930 1_554 S
C1588 C1586 1.378 . S
C1588 C1589 1.367 . S
C1589 C1588 1.367 . S
C1589 C1591 1.433 . S
C1590 C1586 1.350 . S
C1590 C1587 1.463 . S
C1590 N1594 1.427 . S
C1591 H1581 0.929 . S
C1591 C1589 1.433 . S
C1591 N1594 1.384 . S
C1592 H1583 0.929 . S
C1592 C1584 1.378 . S
C1592 C1587 1.350 . S
C1593 H1580 0.933 . S
C1593 C1585 1.433 . S
C1593 N1595 1.384 . S
N1594 C1590 1.427 . S
N1594 C1591 1.384 . S
N1595 C1587 1.427 . S
N1595 C1593 1.384 . S
C743 C586 1.406 . S
C739 C181 1.414 . S
C761 C599 1.596 . S
C757 C247 1.611 . S
C775 C283 1.460 . S
C779 C612 1.452 . S
C797 C625 1.525 . S
C793 C169 1.528 . S
C815 C633 1.470 . S
C811 C361 1.496 . S
C833 C646 1.410 . S
C829 C433 1.430 . S
C847 C421 1.517 . S
C851 C659 1.488 . S
C869 C672 1.504 . S
C865 C355 1.525 . S
C883 C427 1.449 . S
C887 C690 1.440 . S
C905 C701 1.519 . S
C901 C325 1.542 . S
C919 C385 1.458 . S
C923 C685 1.430 . S
C941 C693 1.468 . S
C937 C463 1.486 . S
C955 C253 1.504 . S
C959 C716 1.495 . S
C973 C145 1.517 . S
C977 C706 1.493 . S
C991 C205 1.493 . S
C995 C711 1.461 . S
C1009 C217 1.561 . S
C1013 C714 1.536 1_655 S
C1027 C139 1.460 . S
C1031 C623 1.437 . S
C1045 C535 1.423 . S
C1049 C615 1.402 . S
C1067 C584 1.527 . S
C1063 C565 1.556 . S
C1085 C589 1.491 . S
C1081 C313 1.511 . S
C1099 C175 1.548 . S
C1103 C636 1.523 . S
C1121 C675 1.501 . S
C1117 C397 1.523 . S
C1139 C628 1.479 . S
C1135 C349 1.511 . S
C1157 C654 1.455 . S
C1153 C457 1.481 . S
C1175 C664 1.407 . S
C1171 C505 1.415 . S
C1189 C571 1.612 . S
C1193 C677 1.596 . S
C1207 C319 1.458 . S
C1211 C638 1.448 . S
C1229 C651 1.525 . S
C1225 C493 1.526 . S
C1243 C109 1.494 . S
C1247 C607 1.463 . S
C1265 C620 1.415 . S
C1261 C1 1.425 . S
C1283 C581 1.490 . S
C1279 C61 1.517 . S
C1301 C594 1.512 . S
C1297 C103 1.526 . S
C1315 C67 1.447 . S
C1319 C703 1.437 . S
C1333 C73 1.544 . S
C1337 C688 1.510 1_655 S
C1351 C133 1.458 . S
C1355 C698 1.428 . S
C1369 C31 1.483 . S
C1373 C680 1.458 . S
C1391 C729 1.501 . S
C1387 C289 1.507 . S
C1409 C719 1.494 . S
C1405 C469 1.518 . S
C1427 C724 1.467 . S
C1423 C529 1.490 . S
C1441 C541 1.563 . S
C1445 C727 1.526 . S
C1459 C391 1.460 . S
C1463 C649 1.439 . S
C1481 C641 1.407 . S
C1477 C211 1.422 . S
C1499 C662 1.527 . S
C1495 C241 1.556 . S
C1517 C667 1.490 . S
C1513 C277 1.515 . S
C1531 C499 1.551 . S
C1535 C610 1.527 . S
C1553 C597 1.506 . S
C1549 C37 1.529 . S
C1567 C97 1.510 . S
C1571 C602 1.481 . S
C1589 C576 1.452 . S
C1585 C25 1.480 . S
