# Generated by pormake.
# Topology apo, (3,6)-cn, num edge types: 1
# Building blocks:
#     Node 0, Type 0, BuildingBlock: PAMTOO_clean_linker_0, # of connection points: 3
#     Node 1, Type 0, BuildingBlock: PAMTOO_clean_linker_0, # of connection points: 3
#     Node 2, Type 0, BuildingBlock: PAMTOO_clean_linker_0, # of connection points: 3
#     Node 3, Type 0, BuildingBlock: PAMTOO_clean_linker_0, # of connection points: 3
#     Node 4, Type 0, BuildingBlock: PAMTOO_clean_linker_0, # of connection points: 3
#     Node 5, Type 0, BuildingBlock: PAMTOO_clean_linker_0, # of connection points: 3
#     Node 6, Type 0, BuildingBlock: PAMTOO_clean_linker_0, # of connection points: 3
#     Node 7, Type 0, BuildingBlock: PAMTOO_clean_linker_0, # of connection points: 3
#     Node 8, Type 1, BuildingBlock: KUMJIN_clean_sbu_1, # of connection points: 6
#     Node 9, Type 1, BuildingBlock: KUMJIN_clean_sbu_1, # of connection points: 6
#     Node 10, Type 1, BuildingBlock: KUMJIN_clean_sbu_1, # of connection points: 6
#     Node 11, Type 1, BuildingBlock: KUMJIN_clean_sbu_1, # of connection points: 6
#     Edge 12, Type (0, 1), BuildingBlock: AJUNOK_clean_linker_0, # of connection points: 2
#     Edge 13, Type (0, 1), BuildingBlock: AJUNOK_clean_linker_0, # of connection points: 2
#     Edge 14, Type (0, 1), BuildingBlock: AJUNOK_clean_linker_0, # of connection points: 2
#     Edge 15, Type (0, 1), BuildingBlock: AJUNOK_clean_linker_0, # of connection points: 2
#     Edge 16, Type (0, 1), BuildingBlock: AJUNOK_clean_linker_0, # of connection points: 2
#     Edge 17, Type (0, 1), BuildingBlock: AJUNOK_clean_linker_0, # of connection points: 2
#     Edge 18, Type (0, 1), BuildingBlock: AJUNOK_clean_linker_0, # of connection points: 2
#     Edge 19, Type (0, 1), BuildingBlock: AJUNOK_clean_linker_0, # of connection points: 2
#     Edge 20, Type (0, 1), BuildingBlock: AJUNOK_clean_linker_0, # of connection points: 2
#     Edge 21, Type (0, 1), BuildingBlock: AJUNOK_clean_linker_0, # of connection points: 2
#     Edge 22, Type (0, 1), BuildingBlock: AJUNOK_clean_linker_0, # of connection points: 2
#     Edge 23, Type (0, 1), BuildingBlock: AJUNOK_clean_linker_0, # of connection points: 2
#     Edge 24, Type (0, 1), BuildingBlock: AJUNOK_clean_linker_0, # of connection points: 2
#     Edge 25, Type (0, 1), BuildingBlock: AJUNOK_clean_linker_0, # of connection points: 2
#     Edge 26, Type (0, 1), BuildingBlock: AJUNOK_clean_linker_0, # of connection points: 2
#     Edge 27, Type (0, 1), BuildingBlock: AJUNOK_clean_linker_0, # of connection points: 2
#     Edge 28, Type (0, 1), BuildingBlock: AJUNOK_clean_linker_0, # of connection points: 2
#     Edge 29, Type (0, 1), BuildingBlock: AJUNOK_clean_linker_0, # of connection points: 2
#     Edge 30, Type (0, 1), BuildingBlock: AJUNOK_clean_linker_0, # of connection points: 2
#     Edge 31, Type (0, 1), BuildingBlock: AJUNOK_clean_linker_0, # of connection points: 2
#     Edge 32, Type (0, 1), BuildingBlock: AJUNOK_clean_linker_0, # of connection points: 2
#     Edge 33, Type (0, 1), BuildingBlock: AJUNOK_clean_linker_0, # of connection points: 2
#     Edge 34, Type (0, 1), BuildingBlock: AJUNOK_clean_linker_0, # of connection points: 2
#     Edge 35, Type (0, 1), BuildingBlock: AJUNOK_clean_linker_0, # of connection points: 2
# Relax obj value: 0.039
# Max RMSD: 0.244
# Mean RMSD: 0.173
data_MOF--net-apo--node1-KUMJIN_clean_sbu_1--node2-PAMTOO_clean_linker_0--edge1-AJUNOK_clean_linker_0
_symmetry_space_group_name_H-M    P1
_symmetry_Int_Tables_number       1
_symmetry_cell_setting            triclinic
loop_
_symmetry_equiv_pos_as_xyz
'x, y, z'
_cell_length_a     20.595285
_cell_length_b     30.938764
_cell_length_c     39.058154
_cell_angle_alpha  90.30863
_cell_angle_beta   90.190954
_cell_angle_gamma 90.675265
loop_
_atom_site_label
_atom_site_type_symbol
_atom_site_fract_x
_atom_site_fract_y
_atom_site_fract_z
_atom_type_partial_charge
H0 H 0.4009 0.45766 0.42969 0.0
H1 H 0.30117 0.38607 0.35044 0.0
H2 H 0.28552 0.3453 0.45508 0.0
H3 H 0.27417 0.27149 0.41185 0.0
C4 C 0.26904 0.28763 0.38665 0.0
O5 O 0.24826 0.32946 0.39185 0.0
H6 H 0.31746 0.28823 0.37399 0.0
C7 C 0.3707 0.43034 0.42194 0.0
C8 C 0.34589 0.40217 0.44685 0.0
C9 C 0.35534 0.42469 0.38722 0.0
C10 C 0.31397 0.39052 0.37718 0.0
C11 C 0.2889 0.36196 0.40168 0.0
C12 C 0.30471 0.36784 0.43644 0.0
H13 H 0.16981 0.04373 0.93639 0.0
H14 H 0.27919 0.16097 0.95413 0.0
H15 H 0.24989 0.11555 0.85148 0.0
H16 H 0.388 0.14965 0.88179 0.0
C17 C 0.36641 0.18052 0.89069 0.0
O18 O 0.29944 0.17756 0.88963 0.0
H19 H 0.3825 0.18564 0.91764 0.0
C20 C 0.19737 0.07088 0.9264 0.0
C21 C 0.20454 0.07587 0.89067 0.0
C22 C 0.22444 0.10112 0.94958 0.0
C23 C 0.25771 0.13739 0.93674 0.0
C24 C 0.26656 0.14253 0.90147 0.0
C25 C 0.241 0.11155 0.87858 0.0
H26 H 0.87632 0.05694 0.61556 0.0
H27 H 0.77887 0.1205 0.69899 0.0
H28 H 0.76366 0.17113 0.59767 0.0
H29 H 0.78862 0.23778 0.65362 0.0
C30 C 0.76406 0.2205 0.67496 0.0
O31 O 0.73501 0.18342 0.66204 0.0
H32 H 0.80103 0.21211 0.6946 0.0
C33 C 0.84551 0.08249 0.62502 0.0
C34 C 0.82014 0.11272 0.6019 0.0
C35 C 0.83101 0.08468 0.66021 0.0
C36 C 0.7925 0.11862 0.67227 0.0
C37 C 0.77039 0.15033 0.64986 0.0
C38 C 0.78359 0.14723 0.61481 0.0
H39 H 0.66316 0.45332 0.11025 0.0
H40 H 0.77844 0.33841 0.1051 0.0
H41 H 0.74137 0.39736 0.20241 0.0
H42 H 0.87429 0.3691 0.18983 0.0
C43 C 0.86368 0.3383 0.17597 0.0
O44 O 0.79762 0.33347 0.17115 0.0
H45 H 0.88831 0.34012 0.15068 0.0
C46 C 0.69166 0.42895 0.123 0.0
C47 C 0.69883 0.42998 0.15896 0.0
C48 C 0.72083 0.39637 0.10326 0.0
C49 C 0.75521 0.36361 0.11986 0.0
C50 C 0.76228 0.36414 0.1555 0.0
C51 C 0.73419 0.39708 0.17491 0.0
H52 H 0.62662 0.55768 0.60632 0.0
H53 H 0.74755 0.67161 0.59778 0.0
H54 H 0.71202 0.61671 0.6964 0.0
H55 H 0.7072 0.70937 0.69678 0.0
C56 C 0.74374 0.71725 0.67677 0.0
O57 O 0.76941 0.67956 0.66367 0.0
H58 H 0.71858 0.73491 0.65592 0.0
C59 C 0.65601 0.58279 0.61824 0.0
C60 C 0.6651 0.58287 0.65412 0.0
C61 C 0.6864 0.61412 0.59742 0.0
C62 C 0.72374 0.64714 0.61319 0.0
C63 C 0.73176 0.64839 0.64884 0.0
C64 C 0.70325 0.6161 0.66903 0.0
H65 H 0.85654 0.965 0.1096 0.0
H66 H 0.78721 0.90253 0.20129 0.0
H67 H 0.75173 0.8441 0.10314 0.0
H68 H 0.64467 0.8362 0.14648 0.0
C69 C 0.6674 0.83639 0.17235 0.0
O70 O 0.73419 0.83668 0.16924 0.0
H71 H 0.65231 0.86624 0.1861 0.0
C72 C 0.83076 0.93878 0.12211 0.0
C73 C 0.80435 0.90499 0.10205 0.0
C74 C 0.82549 0.93824 0.15809 0.0
C75 C 0.79276 0.90341 0.17372 0.0
C76 C 0.76641 0.86962 0.15393 0.0
C77 C 0.77295 0.87017 0.11824 0.0
H78 H 0.15922 0.95608 0.43533 0.0
H79 H 0.2626 0.83679 0.44685 0.0
H80 H 0.23599 0.89013 0.34696 0.0
H81 H 0.21103 0.79637 0.35326 0.0
C82 C 0.25161 0.78843 0.37096 0.0
O83 O 0.28315 0.82574 0.38157 0.0
H84 H 0.23061 0.77162 0.39356 0.0
C85 C 0.18611 0.92964 0.42419 0.0
C86 C 0.19535 0.92779 0.38843 0.0
C87 C 0.21074 0.89724 0.44568 0.0
C88 C 0.24277 0.86197 0.43086 0.0
C89 C 0.25099 0.85935 0.39538 0.0
C90 C 0.22781 0.89222 0.37431 0.0
H91 H 0.38364 0.57597 0.93653 0.0
H92 H 0.28364 0.61244 0.84407 0.0
H93 H 0.26999 0.69165 0.93408 0.0
H94 H 0.14665 0.67768 0.89533 0.0
C95 C 0.16677 0.67831 0.86891 0.0
O96 O 0.23345 0.68205 0.87022 0.0
H97 H 0.15252 0.64744 0.85608 0.0
C98 C 0.35275 0.59793 0.9226 0.0
C99 C 0.3297 0.63501 0.93928 0.0
C100 C 0.33727 0.58955 0.88803 0.0
C101 C 0.29546 0.61773 0.87084 0.0
C102 C 0.27062 0.65399 0.88762 0.0
C103 C 0.28775 0.66267 0.92173 0.0
Eu104 Eu 0.08895 0.12053 0.23306 0.0
C105 C 0.81807 0.09402 0.27885 0.0
N106 N 0.85421 0.13087 0.28284 0.0
C107 C 0.76976 0.17176 0.25619 0.0
C108 C 0.75784 0.09439 0.26156 0.0
C109 C 0.82881 0.1698 0.27385 0.0
C110 C 0.73475 0.13377 0.24936 0.0
C111 C 0.80263 0.01771 0.29123 0.0
C112 C 0.83978 0.05613 0.29361 0.0
C113 C 0.74403 0.01756 0.27277 0.0
C114 C 0.72173 0.05579 0.25792 0.0
Eu115 Eu 0.95652 0.1229 0.31046 0.0
N116 N 0.89771 0.05691 0.31038 0.0
C117 C 0.82538 0.9807 0.30771 0.0
C118 C 0.91882 0.02162 0.32785 0.0
C119 C 0.88331 0.98283 0.32646 0.0
H120 H 0.85311 0.19965 0.28075 0.0
H121 H 0.90076 0.95458 0.33969 0.0
H122 H 0.21112 0.06423 0.26596 0.0
H123 H 0.09235 0.2822 0.17644 0.0
H124 H 0.96395 0.02333 0.34205 0.0
H125 H 0.79819 0.95053 0.3065 0.0
H126 H 0.04884 0.20914 0.1873 0.0
H127 H 0.75081 0.20266 0.24834 0.0
H128 H 0.7151 0.98822 0.27028 0.0
H129 H 0.67573 0.0554 0.24438 0.0
H130 H 0.32584 0.0757 0.28285 0.0
H131 H 0.68874 0.13543 0.23592 0.0
H132 H 0.20202 0.30264 0.19742 0.0
N133 N 0.1988 0.1288 0.24912 0.0
C134 C 0.22724 0.16781 0.24312 0.0
C135 C 0.29856 0.10195 0.2719 0.0
C136 C 0.29255 0.17584 0.25231 0.0
C137 C 0.23353 0.09562 0.26252 0.0
C138 C 0.3281 0.14234 0.26702 0.0
N139 N 0.12857 0.19023 0.21818 0.0
C140 C 0.09469 0.21852 0.19852 0.0
C141 C 0.21894 0.24049 0.22086 0.0
C142 C 0.19069 0.19971 0.22776 0.0
C143 C 0.18213 0.27095 0.20322 0.0
C144 C 0.12012 0.25961 0.19147 0.0
H145 H 0.37841 0.1472 0.27442 0.0
H146 H 0.37011 0.22378 0.25366 0.0
H147 H 0.30572 0.28037 0.22601 0.0
O148 O 0.10948 0.12291 0.17841 0.0
O149 O 0.12213 0.14715 0.28489 0.0
O150 O 0.03109 0.17772 0.30864 0.0
O151 O 0.11828 0.06226 0.20514 0.0
O152 O 0.99566 0.15834 0.22593 0.0
O153 O 0.96713 0.18438 0.27914 0.0
O154 O 0.96665 0.11195 0.36575 0.0
O155 O 0.96369 0.06699 0.27252 0.0
O156 O 0.98324 0.10436 0.2242 0.0
O157 O 0.89379 0.15523 0.34713 0.0
O158 O 0.05208 0.09064 0.32198 0.0
O159 O 0.08821 0.06279 0.26981 0.0
C160 C 0.09455 0.17563 0.30516 0.0
C161 C 0.18166 0.07289 0.15442 0.0
C162 C 0.22967 0.07159 0.09717 0.0
C163 C 0.28734 0.05569 0.11146 0.0
C164 C 0.23984 0.05742 0.16822 0.0
C165 C 0.29231 0.0488 0.14674 0.0
C166 C 0.17686 0.07984 0.11892 0.0
C167 C 0.97136 0.18866 0.2457 0.0
C168 C 0.1251 0.08246 0.17609 0.0
C169 C 0.32017 0.21685 0.24651 0.0
C170 C 0.28342 0.24912 0.23086 0.0
C171 C 0.95631 0.0715 0.23951 0.0
C172 C 0.86743 0.11464 0.39603 0.0
C173 C 0.82763 0.09712 0.45326 0.0
C174 C 0.77209 0.07786 0.43831 0.0
C175 C 0.81166 0.09501 0.38181 0.0
C176 C 0.87524 0.11569 0.43184 0.0
C177 C 0.76449 0.07663 0.40285 0.0
C178 C 0.08545 0.06266 0.30374 0.0
C179 C 0.91636 0.13498 0.37362 0.0
H180 H 0.32887 0.04913 0.09539 0.0
H181 H 0.24474 0.05197 0.19546 0.0
H182 H 0.33711 0.03683 0.15748 0.0
H183 H 0.13164 0.09135 0.10821 0.0
H184 H 0.73374 0.06449 0.45409 0.0
H185 H 0.80389 0.09453 0.35445 0.0
H186 H 0.91807 0.13097 0.44296 0.0
H187 H 0.72141 0.06192 0.39164 0.0
Eu188 Eu 0.44103 0.38186 0.74045 0.0
C189 C 0.73859 0.38345 0.78584 0.0
N190 N 0.69083 0.35528 0.79535 0.0
C191 C 0.76281 0.29566 0.78728 0.0
C192 C 0.80003 0.36841 0.77561 0.0
C193 C 0.70304 0.31205 0.79769 0.0
C194 C 0.81124 0.32389 0.77577 0.0
C195 C 0.77675 0.45762 0.77946 0.0
C196 C 0.72732 0.42764 0.78796 0.0
C197 C 0.83709 0.44264 0.76811 0.0
C198 C 0.8487 0.39818 0.76621 0.0
Eu199 Eu 0.59069 0.38681 0.81075 0.0
N200 N 0.66843 0.44138 0.79892 0.0
C201 C 0.76437 0.50182 0.78304 0.0
C202 C 0.65685 0.48435 0.80361 0.0
C203 C 0.70431 0.51521 0.79543 0.0
H204 H 0.66629 0.28997 0.80717 0.0
H205 H 0.69434 0.5493 0.79839 0.0
H206 H 0.31605 0.44705 0.75895 0.0
H207 H 0.42805 0.2127 0.70066 0.0
H208 H 0.60997 0.49476 0.81214 0.0
H209 H 0.80104 0.52583 0.77667 0.0
H210 H 0.47697 0.28594 0.70605 0.0
H211 H 0.77158 0.26127 0.78829 0.0
H212 H 0.87548 0.4652 0.76125 0.0
H213 H 0.89592 0.38716 0.75798 0.0
H214 H 0.20302 0.44056 0.77973 0.0
H215 H 0.85762 0.3111 0.76788 0.0
H216 H 0.31944 0.19766 0.72517 0.0
N217 N 0.33074 0.37929 0.75732 0.0
C218 C 0.30206 0.33952 0.75799 0.0
C219 C 0.23067 0.41181 0.7743 0.0
C220 C 0.23702 0.33419 0.76851 0.0
C221 C 0.29504 0.41539 0.76326 0.0
C222 C 0.2019 0.37094 0.77763 0.0
N223 N 0.39774 0.31118 0.73416 0.0
C224 C 0.42971 0.27944 0.71687 0.0
C225 C 0.30647 0.26331 0.74322 0.0
C226 C 0.33618 0.30449 0.74551 0.0
C227 C 0.34066 0.22975 0.72755 0.0
C228 C 0.40198 0.23811 0.71365 0.0
H229 H 0.1518 0.36826 0.7858 0.0
H230 H 0.15867 0.28795 0.77651 0.0
H231 H 0.21955 0.22584 0.75436 0.0
O232 O 0.46282 0.37569 0.68605 0.0
O233 O 0.45204 0.32576 0.77673 0.0
O234 O 0.49007 0.36022 0.82474 0.0
O235 O 0.37679 0.4094 0.70167 0.0
O236 O 0.54271 0.35819 0.72783 0.0
O237 O 0.57612 0.32717 0.77802 0.0
O238 O 0.60859 0.41669 0.86065 0.0
O239 O 0.60063 0.42385 0.76011 0.0
O240 O 0.49655 0.44478 0.74642 0.0
O241 O 0.62455 0.34834 0.85417 0.0
O242 O 0.51463 0.43663 0.82079 0.0
O243 O 0.4246 0.43156 0.78403 0.0
C244 C 0.45981 0.3275 0.80997 0.0
C245 C 0.42347 0.42832 0.64845 0.0
C246 C 0.4182 0.44454 0.58753 0.0
C247 C 0.45083 0.48397 0.59386 0.0
C248 C 0.45445 0.46821 0.65457 0.0
C249 C 0.46847 0.49579 0.62727 0.0
C250 C 0.40507 0.41676 0.61502 0.0
C251 C 0.57615 0.32905 0.74451 0.0
C252 C 0.41244 0.39721 0.67606 0.0
C253 C 0.20834 0.29274 0.76816 0.0
C254 C 0.24298 0.25737 0.7555 0.0
C255 C 0.55965 0.44898 0.74375 0.0
C256 C 0.68592 0.3854 0.89708 0.0
C257 C 0.73237 0.39393 0.95437 0.0
C258 C 0.79415 0.39916 0.93972 0.0
C259 C 0.74797 0.39061 0.88294 0.0
C260 C 0.67837 0.38664 0.93286 0.0
C261 C 0.80182 0.39728 0.90421 0.0
C262 C 0.45606 0.44806 0.81108 0.0
C263 C 0.62809 0.3813 0.87504 0.0
H264 H 0.4619 0.5058 0.57303 0.0
H265 H 0.46819 0.47775 0.68029 0.0
H266 H 0.49318 0.52633 0.632 0.0
H267 H 0.38155 0.38573 0.61029 0.0
H268 H 0.8365 0.40448 0.95579 0.0
H269 H 0.75476 0.38997 0.85556 0.0
H270 H 0.63039 0.38302 0.94392 0.0
H271 H 0.8496 0.40135 0.89314 0.0
Eu272 Eu 0.06377 0.8949 0.73323 0.0
C273 C 0.80348 0.84284 0.79827 0.0
N274 N 0.83368 0.8815 0.79212 0.0
C275 C 0.73687 0.90743 0.76507 0.0
C276 C 0.73992 0.83435 0.78616 0.0
C277 C 0.79964 0.91449 0.77777 0.0
C278 C 0.70732 0.86695 0.76867 0.0
C279 C 0.80541 0.77163 0.8244 0.0
C280 C 0.83554 0.81178 0.81745 0.0
C281 C 0.74289 0.76284 0.81157 0.0
C282 C 0.71029 0.79407 0.79247 0.0
Eu283 Eu 0.94107 0.88849 0.8143 0.0
N284 N 0.89702 0.82041 0.82852 0.0
C285 C 0.8394 0.74129 0.84374 0.0
C286 C 0.93024 0.79119 0.84758 0.0
C287 C 0.90205 0.75116 0.85543 0.0
H288 H 0.81913 0.94686 0.77698 0.0
H289 H 0.92863 0.72796 0.87046 0.0
H290 H 0.18392 0.8399 0.77485 0.0
H291 H 0.06754 0.05808 0.68171 0.0
H292 H 0.97818 0.79911 0.85707 0.0
H293 H 0.81785 0.7101 0.84964 0.0
H294 H 0.02195 0.98509 0.69259 0.0
H295 H 0.71079 0.93354 0.75311 0.0
H296 H 0.71921 0.73201 0.81638 0.0
H297 H 0.66174 0.78695 0.78308 0.0
H298 H 0.2901 0.85565 0.80061 0.0
H299 H 0.65847 0.86171 0.75901 0.0
H300 H 0.1761 0.07817 0.7045 0.0
N301 N 0.16801 0.90457 0.75852 0.0
C302 C 0.19636 0.94411 0.75321 0.0
C303 C 0.26371 0.88105 0.78791 0.0
C304 C 0.25849 0.95404 0.76663 0.0
C305 C 0.20225 0.87254 0.77399 0.0
C306 C 0.29156 0.92213 0.78468 0.0
N307 N 0.10297 0.96506 0.72191 0.0
C308 C 0.0689 0.99397 0.70298 0.0
C309 C 0.1914 0.01603 0.72832 0.0
C310 C 0.16352 0.97485 0.73393 0.0
C311 C 0.15631 0.04619 0.70933 0.0
C312 C 0.09487 0.03505 0.69654 0.0
H313 H 0.33938 0.92849 0.79535 0.0
H314 H 0.33366 1.00332 0.77158 0.0
H315 H 0.27479 0.05759 0.73829 0.0
O316 O 0.0674 0.90356 0.67771 0.0
O317 O 0.06117 0.95105 0.77181 0.0
O318 O 0.04322 0.91491 0.82162 0.0
O319 O 0.12212 0.85249 0.70089 0.0
O320 O 0.96123 0.91734 0.72616 0.0
O321 O 0.93416 0.94667 0.77846 0.0
O322 O 0.93367 0.88128 0.86991 0.0
O323 O 0.93787 0.83183 0.77657 0.0
O324 O 0.9659 0.86126 0.72442 0.0
O325 O 0.89723 0.93871 0.84592 0.0
O326 O 0.04158 0.86043 0.81953 0.0
O327 O 0.06869 0.83436 0.7661 0.0
C328 C 0.06753 0.94808 0.80516 0.0
C329 C 0.16633 0.88618 0.65149 0.0
C330 C 0.21169 0.90152 0.59495 0.0
C331 C 0.27094 0.91318 0.61066 0.0
C332 C 0.22593 0.89807 0.66655 0.0
C333 C 0.27785 0.91147 0.64619 0.0
C334 C 0.15953 0.88774 0.61563 0.0
C335 C 0.93353 0.9473 0.74466 0.0
C336 C 0.11029 0.87376 0.67286 0.0
C337 C 0.28615 0.99516 0.76126 0.0
C338 C 0.25274 0.02603 0.74218 0.0
C339 C 0.93463 0.83236 0.74299 0.0
C340 C 0.84376 0.9142 0.89609 0.0
C341 C 0.79593 0.91134 0.95322 0.0
C342 C 0.73378 0.91141 0.93831 0.0
C343 C 0.7812 0.91349 0.88167 0.0
C344 C 0.8509 0.91262 0.93192 0.0
C345 C 0.72659 0.91214 0.90274 0.0
C346 C 0.06553 0.83013 0.79966 0.0
C347 C 0.90192 0.91686 0.87425 0.0
H348 H 0.31229 0.92304 0.59538 0.0
H349 H 0.23246 0.89699 0.69401 0.0
H350 H 0.32371 0.92046 0.658 0.0
H351 H 0.11348 0.87882 0.60387 0.0
H352 H 0.69082 0.91041 0.95423 0.0
H353 H 0.77448 0.91426 0.85418 0.0
H354 H 0.89907 0.91304 0.94322 0.0
H355 H 0.6785 0.9118 0.89147 0.0
Eu356 Eu 0.43832 0.61664 0.22985 0.0
C357 C 0.68594 0.69663 0.28968 0.0
N358 N 0.6726 0.65389 0.28508 0.0
C359 C 0.77448 0.64418 0.25687 0.0
C360 C 0.74331 0.7153 0.27651 0.0
C361 C 0.71645 0.62723 0.26995 0.0
C362 C 0.78768 0.68848 0.25984 0.0
C363 C 0.65342 0.76631 0.31198 0.0
C364 C 0.64132 0.72172 0.30712 0.0
C365 C 0.70957 0.78538 0.29799 0.0
C366 C 0.75445 0.75993 0.28035 0.0
Eu367 Eu 0.57306 0.62786 0.30677 0.0
N368 N 0.58711 0.70237 0.3201 0.0
C369 C 0.60933 0.79024 0.33131 0.0
C370 C 0.54681 0.72494 0.34115 0.0
C371 C 0.55642 0.76929 0.34644 0.0
H372 H 0.70594 0.59304 0.26752 0.0
H373 H 0.52344 0.78718 0.36255 0.0
H374 H 0.3205 0.68808 0.24906 0.0
H375 H 0.41319 0.44473 0.20073 0.0
H376 H 0.50774 0.70887 0.35448 0.0
H377 H 0.61682 0.82457 0.3356 0.0
H378 H 0.46779 0.5166 0.20207 0.0
H379 H 0.80874 0.62316 0.24431 0.0
H380 H 0.71928 0.81966 0.30117 0.0
H381 H 0.79789 0.77499 0.27005 0.0
H382 H 0.20826 0.68693 0.27063 0.0
H383 H 0.83235 0.70159 0.24937 0.0
H384 H 0.3022 0.43627 0.22414 0.0
N385 N 0.32863 0.61963 0.24768 0.0
C386 C 0.29614 0.58119 0.24919 0.0
C387 C 0.23267 0.65688 0.26519 0.0
C388 C 0.231 0.57902 0.26018 0.0
C389 C 0.29688 0.65739 0.25367 0.0
C390 C 0.19987 0.61746 0.26899 0.0
N391 N 0.38935 0.54736 0.22715 0.0
C392 C 0.41941 0.51285 0.21238 0.0
C393 C 0.29396 0.50393 0.23781 0.0
C394 C 0.32706 0.54408 0.23815 0.0
C395 C 0.32596 0.4677 0.22479 0.0
C396 C 0.38864 0.47233 0.21158 0.0
H397 H 0.1499 0.61717 0.2776 0.0
H398 H 0.14871 0.53651 0.26982 0.0
H399 H 0.20388 0.47076 0.25024 0.0
O400 O 0.46839 0.60979 0.17666 0.0
O401 O 0.44936 0.56157 0.2679 0.0
O402 O 0.47702 0.59528 0.31854 0.0
O403 O 0.37538 0.63761 0.18793 0.0
O404 O 0.53941 0.59135 0.22024 0.0
O405 O 0.58067 0.56812 0.27237 0.0
O406 O 0.60556 0.63444 0.36062 0.0
O407 O 0.5903 0.65469 0.25319 0.0
O408 O 0.49153 0.68053 0.23707 0.0
O409 O 0.62881 0.57673 0.33088 0.0
O410 O 0.4702 0.65052 0.31808 0.0
O411 O 0.43182 0.67457 0.26586 0.0
C412 C 0.45091 0.56289 0.30144 0.0
C413 C 0.42765 0.65955 0.13704 0.0
C414 C 0.41834 0.67894 0.07685 0.0
C415 C 0.45513 0.71665 0.08338 0.0
C416 C 0.46403 0.69741 0.14329 0.0
C417 C 0.47748 0.72589 0.11651 0.0
C418 C 0.40428 0.65068 0.10392 0.0
C419 C 0.57497 0.56513 0.23872 0.0
C420 C 0.41672 0.62768 0.16415 0.0
C421 C 0.19856 0.53883 0.26116 0.0
C422 C 0.22993 0.50139 0.24996 0.0
C423 C 0.5549 0.68455 0.23883 0.0
C424 C 0.66797 0.57816 0.38985 0.0
C425 C 0.69477 0.57591 0.45111 0.0
C426 C 0.73615 0.54105 0.44457 0.0
C427 C 0.70935 0.54304 0.38432 0.0
C428 C 0.66046 0.59447 0.42353 0.0
C429 C 0.74313 0.52473 0.41148 0.0
C430 C 0.43168 0.67502 0.2996 0.0
C431 C 0.633 0.59678 0.36021 0.0
H432 H 0.46646 0.73888 0.06286 0.0
H433 H 0.48255 0.70462 0.16867 0.0
H434 H 0.50585 0.75497 0.12138 0.0
H435 H 0.37681 0.62116 0.09898 0.0
H436 H 0.76274 0.52609 0.46525 0.0
H437 H 0.71593 0.52973 0.35888 0.0
H438 H 0.6286 0.62146 0.42825 0.0
H439 H 0.77493 0.49773 0.40686 0.0
C440 C 0.13803 0.95266 0.33507 0.0
C441 C 0.17133 0.96286 0.36576 0.0
C442 C 0.11285 0.9852 0.31402 0.0
C443 C 0.11966 0.02899 0.32311 0.0
H444 H 0.12974 0.91924 0.32772 0.0
H445 H 0.08561 0.97598 0.29129 0.0
S446 S 0.20947 0.07339 0.39805 0.0
N447 N 0.21528 0.02046 0.40198 0.0
N448 N 0.16624 0.08126 0.36302 0.0
C449 C 0.15469 0.03974 0.35293 0.0
C450 C 0.1809 1.00679 0.37412 0.0
C451 C 0.33062 0.52616 0.84741 0.0
C452 C 0.36779 0.55308 0.86925 0.0
C453 C 0.35915 0.49228 0.82893 0.0
C454 C 0.42606 0.48391 0.83128 0.0
H455 H 0.27883 0.53102 0.84482 0.0
H456 H 0.32799 0.47218 0.81327 0.0
S457 S 0.54492 0.54558 0.88541 0.0
N458 N 0.47521 0.56988 0.8918 0.0
N459 N 0.52823 0.50548 0.85876 0.0
C460 C 0.46346 0.51042 0.85369 0.0
C461 C 0.43456 0.54515 0.87212 0.0
C462 C 0.60952 0.5584 0.70832 0.0
C463 C 0.6366 0.54797 0.67617 0.0
C464 C 0.58431 0.52626 0.73003 0.0
C465 C 0.58566 0.48247 0.72059 0.0
H466 H 0.60733 0.59175 0.71674 0.0
H467 H 0.56408 0.53571 0.75449 0.0
S468 S 0.64527 0.43748 0.63868 0.0
N469 N 0.66082 0.48981 0.636 0.0
N470 N 0.61059 0.43031 0.67629 0.0
C471 C 0.61066 0.4715 0.68842 0.0
C472 C 0.63672 0.50401 0.66633 0.0
C473 C 0.89257 0.96257 0.20863 0.0
C474 C 0.85575 0.97319 0.17944 0.0
C475 C 0.92408 0.99462 0.22831 0.0
C476 C 0.92057 0.03843 0.21931 0.0
H477 H 0.89833 0.92911 0.21594 0.0
H478 H 0.95266 0.98492 0.25024 0.0
S479 S 0.82373 0.08415 0.14836 0.0
N480 N 0.81232 0.03137 0.14484 0.0
N481 N 0.87314 0.09136 0.18132 0.0
C482 C 0.88248 0.04974 0.19093 0.0
C483 C 0.84971 0.0172 0.17112 0.0
C484 C 0.85 1.00676 0.67314 0.0
C485 C 0.85369 0.05025 0.68375 0.0
C486 C 0.87367 0.97364 0.69374 0.0
C487 C 0.9012 0.9825 0.72604 0.0
H488 H 0.82906 0.99815 0.64851 0.0
H489 H 0.87116 0.94078 0.68404 0.0
S490 S 0.92062 0.09039 0.76659 0.0
N491 N 0.88667 0.10026 0.72912 0.0
N492 N 0.92884 0.03742 0.76841 0.0
C493 C 0.90296 0.02546 0.73772 0.0
C494 C 0.87981 0.05948 0.71644 0.0
C495 C 0.63885 0.45602 0.21116 0.0
C496 C 0.67024 0.46541 0.17994 0.0
C497 C 0.61047 0.48873 0.23099 0.0
C498 C 0.61161 0.53186 0.22004 0.0
H499 H 0.63482 0.42298 0.21999 0.0
H500 H 0.58532 0.47998 0.25432 0.0
S501 S 0.69322 0.57469 0.14266 0.0
N502 N 0.70596 0.52214 0.1411 0.0
N503 N 0.64982 0.58296 0.17748 0.0
C504 C 0.64401 0.54195 0.18948 0.0
C505 C 0.67396 0.50891 0.16964 0.0
C506 C 0.338 0.48099 0.34254 0.0
C507 C 0.38097 0.45613 0.36211 0.0
C508 C 0.36106 0.51528 0.32241 0.0
C509 C 0.42769 0.52518 0.32078 0.0
H510 H 0.28611 0.47522 0.34409 0.0
H511 H 0.32631 0.53522 0.30932 0.0
S512 S 0.56027 0.46789 0.36509 0.0
N513 N 0.49336 0.4425 0.37738 0.0
N514 N 0.53643 0.50637 0.33891 0.0
C515 C 0.47116 0.49973 0.33929 0.0
C516 C 0.44785 0.46519 0.36003 0.0
C517 C 0.17269 0.99936 0.87484 0.0
C518 C 0.17364 0.04367 0.86654 0.0
C519 C 0.13925 0.96881 0.85454 0.0
C520 C 0.10608 0.98096 0.82462 0.0
H521 H 0.19759 0.98804 0.89749 0.0
H522 H 0.13929 0.9353 0.86246 0.0
S523 S 0.09465 0.09213 0.79033 0.0
N524 N 0.1383 0.09778 0.82562 0.0
N525 N 0.07775 0.03999 0.78696 0.0
C526 C 0.10848 0.0247 0.81514 0.0
C527 C 0.14171 0.05608 0.83614 0.0
C528 C 0.24147 0.05394 1.00077 0.0
C529 C 0.22115 0.09363 0.9872 0.0
C530 C 0.24366 0.04703 0.03626 0.0
C531 C 0.22489 0.07934 0.05961 0.0
H532 H 0.25743 0.02836 0.98384 0.0
H533 H 0.26029 0.01611 0.04552 0.0
S534 S 0.16559 0.18845 0.03722 0.0
N535 N 0.17992 0.16521 0.99987 0.0
N536 N 0.18439 0.15236 0.06652 0.0
C537 C 0.20321 0.11888 0.04636 0.0
C538 C 0.20138 0.12601 1.01022 0.0
C539 C 0.42809 0.42031 0.49237 0.0
C540 C 0.3634 0.40972 0.48346 0.0
C541 C 0.44538 0.43149 0.52603 0.0
C542 C 0.39884 0.432 0.55222 0.0
H543 H 0.46574 0.42032 0.47306 0.0
H544 H 0.49561 0.43968 0.53164 0.0
S545 S 0.22288 0.40798 0.54269 0.0
N546 N 0.25244 0.40148 0.50377 0.0
N547 N 0.28544 0.42142 0.56725 0.0
C548 C 0.33428 0.42085 0.54394 0.0
C549 C 0.31645 0.40989 0.50955 0.0
C550 C 0.69831 0.36099 0.0463 0.0
C551 C 0.71877 0.39759 0.06521 0.0
C552 C 0.70065 0.36053 1.01033 0.0
C553 C 0.72475 0.39634 0.99211 0.0
H554 H 0.68095 0.33238 0.05944 0.0
H555 H 0.68539 0.33152 0.99672 0.0
S556 S 0.78285 0.50029 0.02937 0.0
N557 N 0.76234 0.47086 0.06289 0.0
N558 N 0.76746 0.46973 0.99543 0.0
C559 C 0.74431 0.43331 1.01065 0.0
C560 C 0.74108 0.43403 0.04716 0.0
C561 C 0.84409 0.14292 0.54349 0.0
C562 C 0.8286 0.10715 0.56424 0.0
C563 C 0.84664 0.13907 0.50767 0.0
C564 C 0.83355 0.09933 0.49122 0.0
H565 H 0.85327 0.17435 0.555 0.0
H566 H 0.85647 0.16778 0.49271 0.0
S567 S 0.79478 0.9952 0.53364 0.0
N568 N 0.80199 0.0303 0.56544 0.0
N569 N 0.80924 0.02287 0.49842 0.0
C570 C 0.82068 0.06297 0.51168 0.0
C571 C 0.81767 0.0669 0.54807 0.0
C572 C 0.77803 0.94198 0.04702 0.0
C573 C 0.80667 0.90709 0.0641 0.0
C574 C 0.77545 0.94335 1.01112 0.0
C575 C 0.80265 0.91034 0.99104 0.0
H576 H 0.75588 0.96781 0.06154 0.0
H577 H 0.7517 0.9703 0.99893 0.0
S578 S 0.88557 0.81294 0.02331 0.0
N579 N 0.86399 0.83928 0.05831 0.0
N580 N 0.86042 0.84237 0.99078 0.0
C581 C 0.83293 0.87588 1.00778 0.0
C582 C 0.83454 0.87409 0.04434 0.0
C583 C 0.74348 0.61209 0.54077 0.0
C584 C 0.68489 0.60973 0.55922 0.0
C585 C 0.74549 0.60319 0.50552 0.0
C586 C 0.68896 0.59195 0.48702 0.0
H587 H 0.78883 0.61899 0.55394 0.0
H588 H 0.79214 0.60382 0.49277 0.0
S589 S 0.52239 0.58414 0.52232 0.0
N590 N 0.56805 0.59777 0.55562 0.0
N591 N 0.57221 0.58074 0.48936 0.0
C592 C 0.62961 0.59123 0.50469 0.0
C593 C 0.62752 0.60005 0.54075 0.0
C594 C 0.30832 0.65296 1.00095 0.0
C595 C 0.35283 0.6462 0.97427 0.0
C596 C 0.32981 0.66332 0.03421 0.0
C597 C 0.39641 0.66821 0.04163 0.0
H598 H 0.25665 0.64968 0.99615 0.0
H599 H 0.29417 0.66792 0.0542 0.0
S600 S 0.53226 0.6547 0.98067 0.0
N601 N 0.46634 0.64544 0.95745 0.0
N602 N 0.50651 0.6655 1.01977 0.0
C603 C 0.44124 0.66195 1.01512 0.0
C604 C 0.4195 0.65078 0.98148 0.0
C605 C 0.18455 0.86453 0.50288 0.0
C606 C 0.20532 0.90051 0.48366 0.0
C607 C 0.1843 0.86566 0.53885 0.0
C608 C 0.20552 0.90265 0.55698 0.0
H609 H 0.16918 0.83503 0.49 0.0
H610 H 0.16953 0.83685 0.55256 0.0
S611 S 0.26146 1.00617 0.51895 0.0
N612 N 0.24553 0.9747 0.48561 0.0
N613 N 0.24438 0.97692 0.55307 0.0
C614 C 0.22452 0.93925 0.5381 0.0
C615 C 0.22447 0.9382 0.50152 0.0
C616 C 0.2452 0.22435 0.3478 0.0
C617 C 0.22191 0.26121 0.36479 0.0
C618 C 0.2037 0.197 0.32889 0.0
C619 C 0.13691 0.20536 0.32579 0.0
H620 H 0.29613 0.2162 0.34953 0.0
H621 H 0.22423 0.16853 0.31724 0.0
S622 S 0.04988 0.29598 0.36751 0.0
N623 N 0.12632 0.30301 0.37931 0.0
N624 N 0.04876 0.25255 0.34278 0.0
C625 C 0.11251 0.24172 0.34322 0.0
C626 C 0.15478 0.26934 0.36295 0.0
C627 C 0.38568 0.26077 0.8819 0.0
C628 C 0.39011 0.21814 0.86931 0.0
C629 C 0.40945 0.29612 0.86295 0.0
C630 C 0.43763 0.29005 0.83056 0.0
H631 H 0.36405 0.26672 0.9067 0.0
H632 H 0.40478 0.3284 0.87347 0.0
S633 S 0.46367 0.18479 0.78696 0.0
N634 N 0.42606 0.17195 0.8228 0.0
N635 N 0.47151 0.23795 0.7876 0.0
C636 C 0.44257 0.24757 0.81785 0.0
C637 C 0.41846 0.21173 0.83706 0.0
C638 C 0.66239 0.23076 0.71036 0.0
C639 C 0.71425 0.24901 0.69168 0.0
C640 C 0.61725 0.25698 0.72711 0.0
C641 C 0.6226 0.30219 0.7258 0.0
H642 H 0.65682 0.196 0.71219 0.0
H643 H 0.57797 0.24183 0.74117 0.0
S644 S 0.75528 0.36572 0.68578 0.0
N645 N 0.77222 0.31498 0.67645 0.0
N646 N 0.68718 0.36404 0.70797 0.0
C647 C 0.6753 0.32081 0.70844 0.0
C648 C 0.72141 0.29423 0.69154 0.0
C649 C 0.89274 0.2597 0.17873 0.0
C650 C 0.88937 0.30004 0.19526 0.0
C651 C 0.91829 0.22371 0.19545 0.0
C652 C 0.94163 0.22677 0.22931 0.0
H653 H 0.87604 0.25612 0.15252 0.0
H654 H 0.92023 0.19332 0.18159 0.0
S655 S 0.9405 0.32479 0.28444 0.0
N656 N 0.90849 0.34066 0.24785 0.0
N657 N 0.95758 0.27319 0.27915 0.0
C658 C 0.93692 0.26671 0.24643 0.0
C659 C 0.91058 0.30332 0.22943 0.0
C660 C 0.80791 0.78763 0.68087 0.0
C661 C 0.7965 0.74537 0.69283 0.0
C662 C 0.85374 0.81515 0.69679 0.0
C663 C 0.88951 0.80163 0.72549 0.0
H664 H 0.78052 0.79979 0.65933 0.0
H665 H 0.85992 0.84767 0.68708 0.0
S666 S 0.88134 0.69307 0.76518 0.0
N667 N 0.82674 0.69075 0.73411 0.0
N668 N 0.91325 0.74227 0.76387 0.0
C669 C 0.87954 0.7592 0.73727 0.0
C670 C 0.833 0.73115 0.72099 0.0
C671 C 0.58737 0.80012 0.21184 0.0
C672 C 0.64324 0.79687 0.19135 0.0
C673 C 0.55943 0.76363 0.2273 0.0
C674 C 0.58645 0.72252 0.22298 0.0
H675 H 0.56441 0.83112 0.21552 0.0
H676 H 0.51642 0.76763 0.24281 0.0
S677 S 0.72965 0.69558 0.1702 0.0
N678 N 0.72237 0.74842 0.16615 0.0
N679 N 0.67056 0.68009 0.196 0.0
C680 C 0.64209 0.7186 0.20261 0.0
C681 C 0.67013 0.75566 0.18646 0.0
C682 C 0.31872 0.72059 0.36698 0.0
C683 C 0.29878 0.75977 0.35245 0.0
C684 C 0.36225 0.69356 0.34983 0.0
C685 C 0.38731 0.70477 0.31756 0.0
H686 H 0.30024 0.71062 0.39167 0.0
H687 H 0.37563 0.66338 0.36173 0.0
S688 S 0.35397 0.80563 0.26995 0.0
N689 N 0.30947 0.80949 0.30492 0.0
N690 N 0.3919 0.75906 0.27278 0.0
C691 C 0.36885 0.74438 0.30318 0.0
C692 C 0.32449 0.77179 0.32062 0.0
C693 C 0.13772 0.75687 0.86694 0.0
C694 C 0.14009 0.71666 0.85017 0.0
C695 C 0.11447 0.7935 0.85021 0.0
C696 C 0.09308 0.79134 0.81596 0.0
H697 H 0.15388 0.75994 0.89328 0.0
H698 H 0.11312 0.82374 0.86429 0.0
S699 S 0.09103 0.69368 0.7604 0.0
N700 N 0.12092 0.67683 0.79722 0.0
N701 N 0.07651 0.74565 0.76573 0.0
C702 C 0.0963 0.75143 0.79868 0.0
C703 C 0.12 0.71409 0.81579 0.0
loop_
_geom_bond_atom_site_label_1
_geom_bond_atom_site_label_2
_geom_bond_distance
_geom_bond_site_symmetry_2
_ccdc_geom_bond_type
H0 C7 0.929 . S
H1 C10 0.930 . S
H2 C12 0.929 . S
H3 C4 0.969 . S
C4 H3 0.969 . S
C4 O5 1.550 . S
C4 H6 0.973 . S
O5 C4 1.550 . S
O5 C11 1.412 . S
H6 C4 0.973 . S
C7 H0 0.929 . S
C7 C8 1.400 . S
C7 C9 1.364 . S
C8 C7 1.400 . S
C8 C12 1.377 . S
C9 C7 1.364 . S
C9 C10 1.374 . S
C10 H1 0.930 . S
C10 C9 1.374 . S
C10 C11 1.383 . S
C11 O5 1.412 . S
C11 C10 1.383 . S
C11 C12 1.394 . S
C12 H2 0.929 . S
C12 C8 1.377 . S
C12 C11 1.394 . S
H13 C20 0.929 . S
H14 C23 0.930 . S
H15 C25 0.929 . S
H16 C17 0.969 . S
C17 H16 0.969 . S
C17 O18 1.550 . S
C17 H19 0.973 . S
O18 C17 1.550 . S
O18 C24 1.412 . S
H19 C17 0.973 . S
C20 H13 0.929 . S
C20 C21 1.400 . S
C20 C22 1.364 . S
C21 C20 1.400 . S
C21 C25 1.377 . S
C22 C20 1.364 . S
C22 C23 1.374 . S
C23 H14 0.930 . S
C23 C22 1.374 . S
C23 C24 1.383 . S
C24 O18 1.412 . S
C24 C23 1.383 . S
C24 C25 1.394 . S
C25 H15 0.929 . S
C25 C21 1.377 . S
C25 C24 1.394 . S
H26 C33 0.929 . S
H27 C36 0.930 . S
H28 C38 0.929 . S
H29 C30 0.969 . S
C30 H29 0.969 . S
C30 O31 1.550 . S
C30 H32 0.973 . S
O31 C30 1.550 . S
O31 C37 1.412 . S
H32 C30 0.973 . S
C33 H26 0.929 . S
C33 C34 1.400 . S
C33 C35 1.364 . S
C34 C33 1.400 . S
C34 C38 1.377 . S
C35 C33 1.364 . S
C35 C36 1.374 . S
C36 H27 0.930 . S
C36 C35 1.374 . S
C36 C37 1.383 . S
C37 O31 1.412 . S
C37 C36 1.383 . S
C37 C38 1.394 . S
C38 H28 0.929 . S
C38 C34 1.377 . S
C38 C37 1.394 . S
H39 C46 0.929 . S
H40 C49 0.930 . S
H41 C51 0.929 . S
H42 C43 0.969 . S
C43 H42 0.969 . S
C43 O44 1.550 . S
C43 H45 0.973 . S
O44 C43 1.550 . S
O44 C50 1.412 . S
H45 C43 0.973 . S
C46 H39 0.929 . S
C46 C47 1.400 . S
C46 C48 1.364 . S
C47 C46 1.400 . S
C47 C51 1.377 . S
C48 C46 1.364 . S
C48 C49 1.374 . S
C49 H40 0.930 . S
C49 C48 1.374 . S
C49 C50 1.383 . S
C50 O44 1.412 . S
C50 C49 1.383 . S
C50 C51 1.394 . S
C51 H41 0.929 . S
C51 C47 1.377 . S
C51 C50 1.394 . S
H52 C59 0.929 . S
H53 C62 0.930 . S
H54 C64 0.929 . S
H55 C56 0.969 . S
C56 H55 0.969 . S
C56 O57 1.550 . S
C56 H58 0.973 . S
O57 C56 1.550 . S
O57 C63 1.412 . S
H58 C56 0.973 . S
C59 H52 0.929 . S
C59 C60 1.400 . S
C59 C61 1.364 . S
C60 C59 1.400 . S
C60 C64 1.377 . S
C61 C59 1.364 . S
C61 C62 1.374 . S
C62 H53 0.930 . S
C62 C61 1.374 . S
C62 C63 1.383 . S
C63 O57 1.412 . S
C63 C62 1.383 . S
C63 C64 1.394 . S
C64 H54 0.929 . S
C64 C60 1.377 . S
C64 C63 1.394 . S
H65 C72 0.929 . S
H66 C75 0.930 . S
H67 C77 0.929 . S
H68 C69 0.969 . S
C69 H68 0.969 . S
C69 O70 1.550 . S
C69 H71 0.973 . S
O70 C69 1.550 . S
O70 C76 1.412 . S
H71 C69 0.973 . S
C72 H65 0.929 . S
C72 C73 1.400 . S
C72 C74 1.364 . S
C73 C72 1.400 . S
C73 C77 1.377 . S
C74 C72 1.364 . S
C74 C75 1.374 . S
C75 H66 0.930 . S
C75 C74 1.374 . S
C75 C76 1.383 . S
C76 O70 1.412 . S
C76 C75 1.383 . S
C76 C77 1.394 . S
C77 H67 0.929 . S
C77 C73 1.377 . S
C77 C76 1.394 . S
H78 C85 0.929 . S
H79 C88 0.930 . S
H80 C90 0.929 . S
H81 C82 0.969 . S
C82 H81 0.969 . S
C82 O83 1.550 . S
C82 H84 0.973 . S
O83 C82 1.550 . S
O83 C89 1.412 . S
H84 C82 0.973 . S
C85 H78 0.929 . S
C85 C86 1.400 . S
C85 C87 1.364 . S
C86 C85 1.400 . S
C86 C90 1.377 . S
C87 C85 1.364 . S
C87 C88 1.374 . S
C88 H79 0.930 . S
C88 C87 1.374 . S
C88 C89 1.383 . S
C89 O83 1.412 . S
C89 C88 1.383 . S
C89 C90 1.394 . S
C90 H80 0.929 . S
C90 C86 1.377 . S
C90 C89 1.394 . S
H91 C98 0.929 . S
H92 C101 0.930 . S
H93 C103 0.929 . S
H94 C95 0.969 . S
C95 H94 0.969 . S
C95 O96 1.550 . S
C95 H97 0.973 . S
O96 C95 1.550 . S
O96 C102 1.412 . S
H97 C95 0.973 . S
C98 H91 0.929 . S
C98 C99 1.400 . S
C98 C100 1.364 . S
C99 C98 1.400 . S
C99 C103 1.377 . S
C100 C98 1.364 . S
C100 C101 1.374 . S
C101 H92 0.930 . S
C101 C100 1.374 . S
C101 C102 1.383 . S
C102 O96 1.412 . S
C102 C101 1.383 . S
C102 C103 1.394 . S
C103 H93 0.929 . S
C103 C99 1.377 . S
C103 C102 1.394 . S
Eu104 N133 2.600 . S
Eu104 N139 2.562 . S
Eu104 O148 2.462 . S
Eu104 O149 2.373 . S
Eu104 O151 2.432 . S
Eu104 O152 2.291 . S
Eu104 O156 2.335 . S
Eu104 O159 2.372 . S
Eu104 C168 2.787 . S
C105 N106 1.365 . S
C105 C108 1.405 . S
C105 C112 1.448 . S
N106 C105 1.365 . S
N106 C109 1.319 . S
N106 Eu115 2.600 . S
C107 C109 1.397 . S
C107 C110 1.367 . S
C107 H127 0.931 . S
C108 C105 1.405 . S
C108 C110 1.403 . S
C108 C114 1.439 . S
C109 N106 1.319 . S
C109 C107 1.397 . S
C109 H120 0.930 . S
C110 C107 1.367 . S
C110 C108 1.403 . S
C110 H131 0.929 . S
C111 C112 1.430 1_565 S
C111 C113 1.387 . S
C111 C117 1.404 . S
C112 C105 1.448 . S
C112 C111 1.430 1_545 S
C112 N116 1.351 . S
C113 C111 1.387 . S
C113 C114 1.374 1_565 S
C113 H128 0.931 . S
C114 C108 1.439 . S
C114 C113 1.374 1_545 S
C114 H129 0.931 . S
Eu115 N106 2.600 . S
Eu115 N116 2.562 . S
Eu115 O150 2.335 1_655 S
Eu115 O153 2.372 . S
Eu115 O154 2.462 . S
Eu115 O155 2.373 . S
Eu115 O157 2.432 . S
Eu115 O158 2.291 1_655 S
Eu115 C179 2.787 . S
N116 C112 1.351 . S
N116 Eu115 2.562 . S
N116 C118 1.325 1_545 S
C117 C111 1.404 . S
C117 C119 1.366 . S
C117 H125 0.930 . S
C118 N116 1.325 1_565 S
C118 C119 1.416 . S
C118 H124 0.929 . S
C119 C117 1.366 . S
C119 C118 1.416 . S
C119 H121 0.930 . S
H120 C109 0.930 . S
H121 C119 0.930 . S
H122 C137 0.930 . S
H123 C144 0.930 . S
H124 C118 0.929 . S
H125 C117 0.930 . S
H126 C140 0.929 . S
H127 C107 0.931 . S
H128 C113 0.931 . S
H129 C114 0.931 . S
H130 C135 0.931 . S
H131 C110 0.929 . S
H132 C143 0.930 . S
N133 Eu104 2.600 . S
N133 C134 1.365 . S
N133 C137 1.319 . S
C134 N133 1.365 . S
C134 C136 1.405 . S
C134 C142 1.448 . S
C135 H130 0.931 . S
C135 C137 1.397 . S
C135 C138 1.367 . S
C136 C134 1.405 . S
C136 C138 1.403 . S
C136 C169 1.439 . S
C137 H122 0.930 . S
C137 N133 1.319 . S
C137 C135 1.397 . S
C138 C135 1.367 . S
C138 C136 1.403 . S
C138 H145 0.929 . S
N139 Eu104 2.562 . S
N139 C140 1.325 . S
N139 C142 1.351 . S
C140 H126 0.929 . S
C140 N139 1.325 . S
C140 C144 1.416 . S
C141 C142 1.430 . S
C141 C143 1.404 . S
C141 C170 1.387 . S
C142 C134 1.448 . S
C142 N139 1.351 . S
C142 C141 1.430 . S
C143 H132 0.930 . S
C143 C141 1.404 . S
C143 C144 1.366 . S
C144 H123 0.930 . S
C144 C140 1.416 . S
C144 C143 1.366 . S
H145 C138 0.929 . S
H146 C169 0.931 . S
H147 C170 0.931 . S
O148 Eu104 2.462 . S
O148 C168 1.252 . S
O149 Eu104 2.373 . S
O149 C160 1.249 . S
O150 Eu115 2.335 1_455 S
O150 C160 1.264 . S
O151 Eu104 2.432 . S
O151 C168 1.268 . S
O152 Eu104 2.291 . S
O152 C167 1.255 1_455 S
O153 Eu115 2.372 . S
O153 C167 1.257 . S
O154 Eu115 2.462 . S
O154 C179 1.252 . S
O155 Eu115 2.373 . S
O155 C171 1.249 . S
O156 Eu104 2.335 . S
O156 C171 1.264 1_455 S
O157 Eu115 2.432 . S
O157 C179 1.268 . S
O158 Eu115 2.291 1_455 S
O158 C178 1.255 . S
O159 Eu104 2.372 . S
O159 C178 1.257 . S
C160 O149 1.249 . S
C160 O150 1.264 . S
C161 C164 1.382 . S
C161 C166 1.390 . S
C161 C168 1.506 . S
C162 C163 1.398 . S
C162 C166 1.392 . S
C163 C162 1.398 . S
C163 C165 1.372 . S
C163 H180 0.931 . S
C164 C161 1.382 . S
C164 C165 1.390 . S
C164 H181 0.931 . S
C165 C163 1.372 . S
C165 C164 1.390 . S
C165 H182 0.929 . S
C166 C161 1.390 . S
C166 C162 1.392 . S
C166 H183 0.930 . S
C167 O152 1.255 1_655 S
C167 O153 1.257 . S
C168 Eu104 2.787 . S
C168 O148 1.252 . S
C168 O151 1.268 . S
C168 C161 1.506 . S
C169 C136 1.439 . S
C169 H146 0.931 . S
C169 C170 1.374 . S
C170 C141 1.387 . S
C170 H147 0.931 . S
C170 C169 1.374 . S
C171 O155 1.249 . S
C171 O156 1.264 1_655 S
C172 C175 1.382 . S
C172 C176 1.390 . S
C172 C179 1.506 . S
C173 C174 1.398 . S
C173 C176 1.392 . S
C174 C173 1.398 . S
C174 C177 1.372 . S
C174 H184 0.931 . S
C175 C172 1.382 . S
C175 C177 1.390 . S
C175 H185 0.931 . S
C176 C172 1.390 . S
C176 C173 1.392 . S
C176 H186 0.930 . S
C177 C174 1.372 . S
C177 C175 1.390 . S
C177 H187 0.929 . S
C178 O158 1.255 . S
C178 O159 1.257 . S
C179 Eu115 2.787 . S
C179 O154 1.252 . S
C179 O157 1.268 . S
C179 C172 1.506 . S
H180 C163 0.931 . S
H181 C164 0.931 . S
H182 C165 0.929 . S
H183 C166 0.930 . S
H184 C174 0.931 . S
H185 C175 0.931 . S
H186 C176 0.930 . S
H187 C177 0.929 . S
Eu188 N217 2.600 . S
Eu188 N223 2.562 . S
Eu188 O232 2.462 . S
Eu188 O233 2.373 . S
Eu188 O235 2.432 . S
Eu188 O236 2.291 . S
Eu188 O240 2.335 . S
Eu188 O243 2.372 . S
Eu188 C252 2.787 . S
C189 N190 1.365 . S
C189 C192 1.405 . S
C189 C196 1.448 . S
N190 C189 1.365 . S
N190 C193 1.319 . S
N190 Eu199 2.600 . S
C191 C193 1.397 . S
C191 C194 1.367 . S
C191 H211 0.931 . S
C192 C189 1.405 . S
C192 C194 1.403 . S
C192 C198 1.439 . S
C193 N190 1.319 . S
C193 C191 1.397 . S
C193 H204 0.930 . S
C194 C191 1.367 . S
C194 C192 1.403 . S
C194 H215 0.929 . S
C195 C196 1.430 . S
C195 C197 1.387 . S
C195 C201 1.404 . S
C196 C189 1.448 . S
C196 C195 1.430 . S
C196 N200 1.351 . S
C197 C195 1.387 . S
C197 C198 1.374 . S
C197 H212 0.931 . S
C198 C192 1.439 . S
C198 C197 1.374 . S
C198 H213 0.931 . S
Eu199 N190 2.600 . S
Eu199 N200 2.562 . S
Eu199 O234 2.335 . S
Eu199 O237 2.372 . S
Eu199 O238 2.462 . S
Eu199 O239 2.373 . S
Eu199 O241 2.432 . S
Eu199 O242 2.291 . S
Eu199 C263 2.787 . S
N200 C196 1.351 . S
N200 Eu199 2.562 . S
N200 C202 1.325 . S
C201 C195 1.404 . S
C201 C203 1.366 . S
C201 H209 0.930 . S
C202 N200 1.325 . S
C202 C203 1.416 . S
C202 H208 0.929 . S
C203 C201 1.366 . S
C203 C202 1.416 . S
C203 H205 0.930 . S
H204 C193 0.930 . S
H205 C203 0.930 . S
H206 C221 0.930 . S
H207 C228 0.930 . S
H208 C202 0.929 . S
H209 C201 0.930 . S
H210 C224 0.929 . S
H211 C191 0.931 . S
H212 C197 0.931 . S
H213 C198 0.931 . S
H214 C219 0.931 . S
H215 C194 0.929 . S
H216 C227 0.930 . S
N217 Eu188 2.600 . S
N217 C218 1.365 . S
N217 C221 1.319 . S
C218 N217 1.365 . S
C218 C220 1.405 . S
C218 C226 1.448 . S
C219 H214 0.931 . S
C219 C221 1.397 . S
C219 C222 1.367 . S
C220 C218 1.405 . S
C220 C222 1.403 . S
C220 C253 1.439 . S
C221 H206 0.930 . S
C221 N217 1.319 . S
C221 C219 1.397 . S
C222 C219 1.367 . S
C222 C220 1.403 . S
C222 H229 0.929 . S
N223 Eu188 2.562 . S
N223 C224 1.325 . S
N223 C226 1.351 . S
C224 H210 0.929 . S
C224 N223 1.325 . S
C224 C228 1.416 . S
C225 C226 1.430 . S
C225 C227 1.404 . S
C225 C254 1.387 . S
C226 C218 1.448 . S
C226 N223 1.351 . S
C226 C225 1.430 . S
C227 H216 0.930 . S
C227 C225 1.404 . S
C227 C228 1.366 . S
C228 H207 0.930 . S
C228 C224 1.416 . S
C228 C227 1.366 . S
H229 C222 0.929 . S
H230 C253 0.931 . S
H231 C254 0.931 . S
O232 Eu188 2.462 . S
O232 C252 1.252 . S
O233 Eu188 2.373 . S
O233 C244 1.249 . S
O234 Eu199 2.335 . S
O234 C244 1.264 . S
O235 Eu188 2.432 . S
O235 C252 1.268 . S
O236 Eu188 2.291 . S
O236 C251 1.255 . S
O237 Eu199 2.372 . S
O237 C251 1.257 . S
O238 Eu199 2.462 . S
O238 C263 1.252 . S
O239 Eu199 2.373 . S
O239 C255 1.249 . S
O240 Eu188 2.335 . S
O240 C255 1.264 . S
O241 Eu199 2.432 . S
O241 C263 1.268 . S
O242 Eu199 2.291 . S
O242 C262 1.255 . S
O243 Eu188 2.372 . S
O243 C262 1.257 . S
C244 O233 1.249 . S
C244 O234 1.264 . S
C245 C248 1.382 . S
C245 C250 1.390 . S
C245 C252 1.506 . S
C246 C247 1.398 . S
C246 C250 1.392 . S
C247 C246 1.398 . S
C247 C249 1.372 . S
C247 H264 0.931 . S
C248 C245 1.382 . S
C248 C249 1.390 . S
C248 H265 0.931 . S
C249 C247 1.372 . S
C249 C248 1.390 . S
C249 H266 0.929 . S
C250 C245 1.390 . S
C250 C246 1.392 . S
C250 H267 0.930 . S
C251 O236 1.255 . S
C251 O237 1.257 . S
C252 Eu188 2.787 . S
C252 O232 1.252 . S
C252 O235 1.268 . S
C252 C245 1.506 . S
C253 C220 1.439 . S
C253 H230 0.931 . S
C253 C254 1.374 . S
C254 C225 1.387 . S
C254 H231 0.931 . S
C254 C253 1.374 . S
C255 O239 1.249 . S
C255 O240 1.264 . S
C256 C259 1.382 . S
C256 C260 1.390 . S
C256 C263 1.506 . S
C257 C258 1.398 . S
C257 C260 1.392 . S
C258 C257 1.398 . S
C258 C261 1.372 . S
C258 H268 0.931 . S
C259 C256 1.382 . S
C259 C261 1.390 . S
C259 H269 0.931 . S
C260 C256 1.390 . S
C260 C257 1.392 . S
C260 H270 0.930 . S
C261 C258 1.372 . S
C261 C259 1.390 . S
C261 H271 0.929 . S
C262 O242 1.255 . S
C262 O243 1.257 . S
C263 Eu199 2.787 . S
C263 O238 1.252 . S
C263 O241 1.268 . S
C263 C256 1.506 . S
H264 C247 0.931 . S
H265 C248 0.931 . S
H266 C249 0.929 . S
H267 C250 0.930 . S
H268 C258 0.931 . S
H269 C259 0.931 . S
H270 C260 0.930 . S
H271 C261 0.929 . S
Eu272 N301 2.600 . S
Eu272 N307 2.562 . S
Eu272 O316 2.462 . S
Eu272 O317 2.373 . S
Eu272 O319 2.432 . S
Eu272 O320 2.291 . S
Eu272 O324 2.335 . S
Eu272 O327 2.372 . S
Eu272 C336 2.787 . S
C273 N274 1.365 . S
C273 C276 1.405 . S
C273 C280 1.448 . S
N274 C273 1.365 . S
N274 C277 1.319 . S
N274 Eu283 2.600 . S
C275 C277 1.397 . S
C275 C278 1.367 . S
C275 H295 0.931 . S
C276 C273 1.405 . S
C276 C278 1.403 . S
C276 C282 1.439 . S
C277 N274 1.319 . S
C277 C275 1.397 . S
C277 H288 0.930 . S
C278 C275 1.367 . S
C278 C276 1.403 . S
C278 H299 0.929 . S
C279 C280 1.430 . S
C279 C281 1.387 . S
C279 C285 1.404 . S
C280 C273 1.448 . S
C280 C279 1.430 . S
C280 N284 1.351 . S
C281 C279 1.387 . S
C281 C282 1.374 . S
C281 H296 0.931 . S
C282 C276 1.439 . S
C282 C281 1.374 . S
C282 H297 0.931 . S
Eu283 N274 2.600 . S
Eu283 N284 2.562 . S
Eu283 O318 2.335 1_655 S
Eu283 O321 2.372 . S
Eu283 O322 2.462 . S
Eu283 O323 2.373 . S
Eu283 O325 2.432 . S
Eu283 O326 2.291 1_655 S
Eu283 C347 2.787 . S
N284 C280 1.351 . S
N284 Eu283 2.562 . S
N284 C286 1.325 . S
C285 C279 1.404 . S
C285 C287 1.366 . S
C285 H293 0.930 . S
C286 N284 1.325 . S
C286 C287 1.416 . S
C286 H292 0.929 . S
C287 C285 1.366 . S
C287 C286 1.416 . S
C287 H289 0.930 . S
H288 C277 0.930 . S
H289 C287 0.930 . S
H290 C305 0.930 . S
H291 C312 0.930 . S
H292 C286 0.929 . S
H293 C285 0.930 . S
H294 C308 0.929 . S
H295 C275 0.931 . S
H296 C281 0.931 . S
H297 C282 0.931 . S
H298 C303 0.931 . S
H299 C278 0.929 . S
H300 C311 0.930 . S
N301 Eu272 2.600 . S
N301 C302 1.365 . S
N301 C305 1.319 . S
C302 N301 1.365 . S
C302 C304 1.405 . S
C302 C310 1.448 . S
C303 H298 0.931 . S
C303 C305 1.397 . S
C303 C306 1.367 . S
C304 C302 1.405 . S
C304 C306 1.403 . S
C304 C337 1.439 . S
C305 H290 0.930 . S
C305 N301 1.319 . S
C305 C303 1.397 . S
C306 C303 1.367 . S
C306 C304 1.403 . S
C306 H313 0.929 . S
N307 Eu272 2.562 . S
N307 C308 1.325 1_565 S
N307 C310 1.351 . S
C308 H294 0.929 . S
C308 N307 1.325 1_545 S
C308 C312 1.416 . S
C309 C310 1.430 1_545 S
C309 C311 1.404 . S
C309 C338 1.387 . S
C310 C302 1.448 . S
C310 N307 1.351 . S
C310 C309 1.430 1_565 S
C311 H300 0.930 . S
C311 C309 1.404 . S
C311 C312 1.366 . S
C312 H291 0.930 . S
C312 C308 1.416 . S
C312 C311 1.366 . S
H313 C306 0.929 . S
H314 C337 0.931 . S
H315 C338 0.931 . S
O316 Eu272 2.462 . S
O316 C336 1.252 . S
O317 Eu272 2.373 . S
O317 C328 1.249 . S
O318 Eu283 2.335 1_455 S
O318 C328 1.264 . S
O319 Eu272 2.432 . S
O319 C336 1.268 . S
O320 Eu272 2.291 . S
O320 C335 1.255 1_455 S
O321 Eu283 2.372 . S
O321 C335 1.257 . S
O322 Eu283 2.462 . S
O322 C347 1.252 . S
O323 Eu283 2.373 . S
O323 C339 1.249 . S
O324 Eu272 2.335 . S
O324 C339 1.264 1_455 S
O325 Eu283 2.432 . S
O325 C347 1.268 . S
O326 Eu283 2.291 1_455 S
O326 C346 1.255 . S
O327 Eu272 2.372 . S
O327 C346 1.257 . S
C328 O317 1.249 . S
C328 O318 1.264 . S
C329 C332 1.382 . S
C329 C334 1.390 . S
C329 C336 1.506 . S
C330 C331 1.398 . S
C330 C334 1.392 . S
C331 C330 1.398 . S
C331 C333 1.372 . S
C331 H348 0.931 . S
C332 C329 1.382 . S
C332 C333 1.390 . S
C332 H349 0.931 . S
C333 C331 1.372 . S
C333 C332 1.390 . S
C333 H350 0.929 . S
C334 C329 1.390 . S
C334 C330 1.392 . S
C334 H351 0.930 . S
C335 O320 1.255 1_655 S
C335 O321 1.257 . S
C336 Eu272 2.787 . S
C336 O316 1.252 . S
C336 O319 1.268 . S
C336 C329 1.506 . S
C337 C304 1.439 . S
C337 H314 0.931 . S
C337 C338 1.374 1_565 S
C338 C309 1.387 . S
C338 H315 0.931 . S
C338 C337 1.374 1_545 S
C339 O323 1.249 . S
C339 O324 1.264 1_655 S
C340 C343 1.382 . S
C340 C344 1.390 . S
C340 C347 1.506 . S
C341 C342 1.398 . S
C341 C344 1.392 . S
C342 C341 1.398 . S
C342 C345 1.372 . S
C342 H352 0.931 . S
C343 C340 1.382 . S
C343 C345 1.390 . S
C343 H353 0.931 . S
C344 C340 1.390 . S
C344 C341 1.392 . S
C344 H354 0.930 . S
C345 C342 1.372 . S
C345 C343 1.390 . S
C345 H355 0.929 . S
C346 O326 1.255 . S
C346 O327 1.257 . S
C347 Eu283 2.787 . S
C347 O322 1.252 . S
C347 O325 1.268 . S
C347 C340 1.506 . S
H348 C331 0.931 . S
H349 C332 0.931 . S
H350 C333 0.929 . S
H351 C334 0.930 . S
H352 C342 0.931 . S
H353 C343 0.931 . S
H354 C344 0.930 . S
H355 C345 0.929 . S
Eu356 N385 2.600 . S
Eu356 N391 2.562 . S
Eu356 O400 2.462 . S
Eu356 O401 2.373 . S
Eu356 O403 2.432 . S
Eu356 O404 2.291 . S
Eu356 O408 2.335 . S
Eu356 O411 2.372 . S
Eu356 C420 2.787 . S
C357 N358 1.365 . S
C357 C360 1.405 . S
C357 C364 1.448 . S
N358 C357 1.365 . S
N358 C361 1.319 . S
N358 Eu367 2.600 . S
C359 C361 1.397 . S
C359 C362 1.367 . S
C359 H379 0.931 . S
C360 C357 1.405 . S
C360 C362 1.403 . S
C360 C366 1.439 . S
C361 N358 1.319 . S
C361 C359 1.397 . S
C361 H372 0.930 . S
C362 C359 1.367 . S
C362 C360 1.403 . S
C362 H383 0.929 . S
C363 C364 1.430 . S
C363 C365 1.387 . S
C363 C369 1.404 . S
C364 C357 1.448 . S
C364 C363 1.430 . S
C364 N368 1.351 . S
C365 C363 1.387 . S
C365 C366 1.374 . S
C365 H380 0.931 . S
C366 C360 1.439 . S
C366 C365 1.374 . S
C366 H381 0.931 . S
Eu367 N358 2.600 . S
Eu367 N368 2.562 . S
Eu367 O402 2.335 . S
Eu367 O405 2.372 . S
Eu367 O406 2.462 . S
Eu367 O407 2.373 . S
Eu367 O409 2.432 . S
Eu367 O410 2.291 . S
Eu367 C431 2.787 . S
N368 C364 1.351 . S
N368 Eu367 2.562 . S
N368 C370 1.325 . S
C369 C363 1.404 . S
C369 C371 1.366 . S
C369 H377 0.930 . S
C370 N368 1.325 . S
C370 C371 1.416 . S
C370 H376 0.929 . S
C371 C369 1.366 . S
C371 C370 1.416 . S
C371 H373 0.930 . S
H372 C361 0.930 . S
H373 C371 0.930 . S
H374 C389 0.930 . S
H375 C396 0.930 . S
H376 C370 0.929 . S
H377 C369 0.930 . S
H378 C392 0.929 . S
H379 C359 0.931 . S
H380 C365 0.931 . S
H381 C366 0.931 . S
H382 C387 0.931 . S
H383 C362 0.929 . S
H384 C395 0.930 . S
N385 Eu356 2.600 . S
N385 C386 1.365 . S
N385 C389 1.319 . S
C386 N385 1.365 . S
C386 C388 1.405 . S
C386 C394 1.448 . S
C387 H382 0.931 . S
C387 C389 1.397 . S
C387 C390 1.367 . S
C388 C386 1.405 . S
C388 C390 1.403 . S
C388 C421 1.439 . S
C389 H374 0.930 . S
C389 N385 1.319 . S
C389 C387 1.397 . S
C390 C387 1.367 . S
C390 C388 1.403 . S
C390 H397 0.929 . S
N391 Eu356 2.562 . S
N391 C392 1.325 . S
N391 C394 1.351 . S
C392 H378 0.929 . S
C392 N391 1.325 . S
C392 C396 1.416 . S
C393 C394 1.430 . S
C393 C395 1.404 . S
C393 C422 1.387 . S
C394 C386 1.448 . S
C394 N391 1.351 . S
C394 C393 1.430 . S
C395 H384 0.930 . S
C395 C393 1.404 . S
C395 C396 1.366 . S
C396 H375 0.930 . S
C396 C392 1.416 . S
C396 C395 1.366 . S
H397 C390 0.929 . S
H398 C421 0.931 . S
H399 C422 0.931 . S
O400 Eu356 2.462 . S
O400 C420 1.252 . S
O401 Eu356 2.373 . S
O401 C412 1.249 . S
O402 Eu367 2.335 . S
O402 C412 1.264 . S
O403 Eu356 2.432 . S
O403 C420 1.268 . S
O404 Eu356 2.291 . S
O404 C419 1.255 . S
O405 Eu367 2.372 . S
O405 C419 1.257 . S
O406 Eu367 2.462 . S
O406 C431 1.252 . S
O407 Eu367 2.373 . S
O407 C423 1.249 . S
O408 Eu356 2.335 . S
O408 C423 1.264 . S
O409 Eu367 2.432 . S
O409 C431 1.268 . S
O410 Eu367 2.291 . S
O410 C430 1.255 . S
O411 Eu356 2.372 . S
O411 C430 1.257 . S
C412 O401 1.249 . S
C412 O402 1.264 . S
C413 C416 1.382 . S
C413 C418 1.390 . S
C413 C420 1.506 . S
C414 C415 1.398 . S
C414 C418 1.392 . S
C415 C414 1.398 . S
C415 C417 1.372 . S
C415 H432 0.931 . S
C416 C413 1.382 . S
C416 C417 1.390 . S
C416 H433 0.931 . S
C417 C415 1.372 . S
C417 C416 1.390 . S
C417 H434 0.929 . S
C418 C413 1.390 . S
C418 C414 1.392 . S
C418 H435 0.930 . S
C419 O404 1.255 . S
C419 O405 1.257 . S
C420 Eu356 2.787 . S
C420 O400 1.252 . S
C420 O403 1.268 . S
C420 C413 1.506 . S
C421 C388 1.439 . S
C421 H398 0.931 . S
C421 C422 1.374 . S
C422 C393 1.387 . S
C422 H399 0.931 . S
C422 C421 1.374 . S
C423 O407 1.249 . S
C423 O408 1.264 . S
C424 C427 1.382 . S
C424 C428 1.390 . S
C424 C431 1.506 . S
C425 C426 1.398 . S
C425 C428 1.392 . S
C426 C425 1.398 . S
C426 C429 1.372 . S
C426 H436 0.931 . S
C427 C424 1.382 . S
C427 C429 1.390 . S
C427 H437 0.931 . S
C428 C424 1.390 . S
C428 C425 1.392 . S
C428 H438 0.930 . S
C429 C426 1.372 . S
C429 C427 1.390 . S
C429 H439 0.929 . S
C430 O410 1.255 . S
C430 O411 1.257 . S
C431 Eu367 2.787 . S
C431 O406 1.252 . S
C431 O409 1.268 . S
C431 C424 1.506 . S
H432 C415 0.931 . S
H433 C416 0.931 . S
H434 C417 0.929 . S
H435 C418 0.930 . S
H436 C426 0.931 . S
H437 C427 0.931 . S
H438 C428 0.930 . S
H439 C429 0.929 . S
C440 C441 1.369 . S
C440 C442 1.419 . S
C440 H444 0.930 . S
C441 C440 1.369 . S
C441 C450 1.429 . S
C442 C440 1.419 . S
C442 C443 1.363 1_565 S
C442 H445 0.929 . S
C443 C442 1.363 1_545 S
C443 C449 1.428 . S
H444 C440 0.930 . S
H445 C442 0.929 . S
S446 N447 1.613 . S
S446 N448 1.610 . S
N447 S446 1.613 . S
N447 C450 1.350 1_545 S
N448 S446 1.610 . S
N448 C449 1.351 . S
C449 C443 1.428 . S
C449 N448 1.351 . S
C449 C450 1.434 1_545 S
C450 C441 1.429 . S
C450 N447 1.350 1_565 S
C450 C449 1.434 1_565 S
C451 C452 1.369 . S
C451 C453 1.419 . S
C451 H455 0.930 . S
C452 C451 1.369 . S
C452 C461 1.429 . S
C453 C451 1.419 . S
C453 C454 1.363 . S
C453 H456 0.929 . S
C454 C453 1.363 . S
C454 C460 1.428 . S
H455 C451 0.930 . S
H456 C453 0.929 . S
S457 N458 1.613 . S
S457 N459 1.610 . S
N458 S457 1.613 . S
N458 C461 1.350 . S
N459 S457 1.610 . S
N459 C460 1.351 . S
C460 C454 1.428 . S
C460 N459 1.351 . S
C460 C461 1.434 . S
C461 C452 1.429 . S
C461 N458 1.350 . S
C461 C460 1.434 . S
C462 C463 1.369 . S
C462 C464 1.419 . S
C462 H466 0.930 . S
C463 C462 1.369 . S
C463 C472 1.429 . S
C464 C462 1.419 . S
C464 C465 1.363 . S
C464 H467 0.929 . S
C465 C464 1.363 . S
C465 C471 1.428 . S
H466 C462 0.930 . S
H467 C464 0.929 . S
S468 N469 1.613 . S
S468 N470 1.610 . S
N469 S468 1.613 . S
N469 C472 1.350 . S
N470 S468 1.610 . S
N470 C471 1.351 . S
C471 C465 1.428 . S
C471 N470 1.351 . S
C471 C472 1.434 . S
C472 C463 1.429 . S
C472 N469 1.350 . S
C472 C471 1.434 . S
C473 C474 1.369 . S
C473 C475 1.419 . S
C473 H477 0.930 . S
C474 C473 1.369 . S
C474 C483 1.429 . S
C475 C473 1.419 . S
C475 C476 1.363 1_565 S
C475 H478 0.929 . S
C476 C475 1.363 1_545 S
C476 C482 1.428 . S
H477 C473 0.930 . S
H478 C475 0.929 . S
S479 N480 1.613 . S
S479 N481 1.610 . S
N480 S479 1.613 . S
N480 C483 1.350 1_545 S
N481 S479 1.610 . S
N481 C482 1.351 . S
C482 C476 1.428 . S
C482 N481 1.351 . S
C482 C483 1.434 1_545 S
C483 C474 1.429 . S
C483 N480 1.350 1_565 S
C483 C482 1.434 1_565 S
C484 C485 1.369 . S
C484 C486 1.419 . S
C484 H488 0.930 . S
C485 C484 1.369 . S
C485 C494 1.429 . S
C486 C484 1.419 . S
C486 C487 1.363 1_545 S
C486 H489 0.929 1_545 S
C487 C486 1.363 1_565 S
C487 C493 1.428 1_565 S
H488 C484 0.930 . S
H489 C486 0.929 1_565 S
S490 N491 1.613 . S
S490 N492 1.610 . S
N491 S490 1.613 . S
N491 C494 1.350 . S
N492 S490 1.610 . S
N492 C493 1.351 . S
C493 C487 1.428 1_545 S
C493 N492 1.351 . S
C493 C494 1.434 . S
C494 C485 1.429 . S
C494 N491 1.350 . S
C494 C493 1.434 . S
C495 C496 1.369 . S
C495 C497 1.419 . S
C495 H499 0.930 . S
C496 C495 1.369 . S
C496 C505 1.429 . S
C497 C495 1.419 . S
C497 C498 1.363 . S
C497 H500 0.929 . S
C498 C497 1.363 . S
C498 C504 1.428 . S
H499 C495 0.930 . S
H500 C497 0.929 . S
S501 N502 1.613 . S
S501 N503 1.610 . S
N502 S501 1.613 . S
N502 C505 1.350 . S
N503 S501 1.610 . S
N503 C504 1.351 . S
C504 C498 1.428 . S
C504 N503 1.351 . S
C504 C505 1.434 . S
C505 C496 1.429 . S
C505 N502 1.350 . S
C505 C504 1.434 . S
C506 C507 1.369 . S
C506 C508 1.419 . S
C506 H510 0.930 . S
C507 C506 1.369 . S
C507 C516 1.429 . S
C508 C506 1.419 . S
C508 C509 1.363 . S
C508 H511 0.929 . S
C509 C508 1.363 . S
C509 C515 1.428 . S
H510 C506 0.930 . S
H511 C508 0.929 . S
S512 N513 1.613 . S
S512 N514 1.610 . S
N513 S512 1.613 . S
N513 C516 1.350 . S
N514 S512 1.610 . S
N514 C515 1.351 . S
C515 C509 1.428 . S
C515 N514 1.351 . S
C515 C516 1.434 . S
C516 C507 1.429 . S
C516 N513 1.350 . S
C516 C515 1.434 . S
C517 C518 1.369 . S
C517 C519 1.419 1_545 S
C517 H521 0.930 1_545 S
C518 C517 1.369 . S
C518 C527 1.429 . S
C519 C517 1.419 1_565 S
C519 C520 1.363 . S
C519 H522 0.929 . S
C520 C519 1.363 . S
C520 C526 1.428 1_565 S
H521 C517 0.930 1_565 S
H522 C519 0.929 . S
S523 N524 1.613 . S
S523 N525 1.610 . S
N524 S523 1.613 . S
N524 C527 1.350 . S
N525 S523 1.610 . S
N525 C526 1.351 . S
C526 C520 1.428 1_545 S
C526 N525 1.351 . S
C526 C527 1.434 . S
C527 C518 1.429 . S
C527 N524 1.350 . S
C527 C526 1.434 . S
C528 C529 1.369 . S
C528 C530 1.419 1_556 S
C528 H532 0.930 . S
C529 C528 1.369 . S
C529 C538 1.429 . S
C530 C528 1.419 1_554 S
C530 C531 1.363 . S
C530 H533 0.929 . S
C531 C530 1.363 . S
C531 C537 1.428 . S
H532 C528 0.930 . S
H533 C530 0.929 . S
S534 N535 1.613 1_554 S
S534 N536 1.610 . S
N535 S534 1.613 1_556 S
N535 C538 1.350 . S
N536 S534 1.610 . S
N536 C537 1.351 . S
C537 C531 1.428 . S
C537 N536 1.351 . S
C537 C538 1.434 1_554 S
C538 C529 1.429 . S
C538 N535 1.350 . S
C538 C537 1.434 1_556 S
C539 C540 1.369 . S
C539 C541 1.419 . S
C539 H543 0.930 . S
C540 C539 1.369 . S
C540 C549 1.429 . S
C541 C539 1.419 . S
C541 C542 1.363 . S
C541 H544 0.929 . S
C542 C541 1.363 . S
C542 C548 1.428 . S
H543 C539 0.930 . S
H544 C541 0.929 . S
S545 N546 1.613 . S
S545 N547 1.610 . S
N546 S545 1.613 . S
N546 C549 1.350 . S
N547 S545 1.610 . S
N547 C548 1.351 . S
C548 C542 1.428 . S
C548 N547 1.351 . S
C548 C549 1.434 . S
C549 C540 1.429 . S
C549 N546 1.350 . S
C549 C548 1.434 . S
C550 C551 1.369 . S
C550 C552 1.419 . S
C550 H554 0.930 . S
C551 C550 1.369 . S
C551 C560 1.429 . S
C552 C550 1.419 . S
C552 C553 1.363 1_554 S
C552 H555 0.929 . S
C553 C552 1.363 1_556 S
C553 C559 1.428 . S
H554 C550 0.930 . S
H555 C552 0.929 . S
S556 N557 1.613 1_556 S
S556 N558 1.610 . S
N557 S556 1.613 1_554 S
N557 C560 1.350 . S
N558 S556 1.610 . S
N558 C559 1.351 . S
C559 C553 1.428 . S
C559 N558 1.351 . S
C559 C560 1.434 1_556 S
C560 C551 1.429 . S
C560 N557 1.350 . S
C560 C559 1.434 1_554 S
C561 C562 1.369 . S
C561 C563 1.419 . S
C561 H565 0.930 . S
C562 C561 1.369 . S
C562 C571 1.429 . S
C563 C561 1.419 . S
C563 C564 1.363 . S
C563 H566 0.929 . S
C564 C563 1.363 . S
C564 C570 1.428 . S
H565 C561 0.930 . S
H566 C563 0.929 . S
S567 N568 1.617 . S
S567 N569 1.613 . S
N568 S567 1.617 . S
N568 C571 1.350 . S
N569 S567 1.613 . S
N569 C570 1.351 . S
C570 C564 1.428 . S
C570 N569 1.351 . S
C570 C571 1.434 . S
C571 C562 1.429 . S
C571 N568 1.350 . S
C571 C570 1.434 . S
C572 C573 1.369 . S
C572 C574 1.419 1_554 S
C572 H576 0.930 . S
C573 C572 1.369 . S
C573 C582 1.429 . S
C574 C572 1.419 1_556 S
C574 C575 1.363 . S
C574 H577 0.929 . S
C575 C574 1.363 . S
C575 C581 1.428 . S
H576 C572 0.930 . S
H577 C574 0.929 . S
S578 N579 1.613 . S
S578 N580 1.610 1_554 S
N579 S578 1.613 . S
N579 C582 1.350 . S
N580 S578 1.610 1_556 S
N580 C581 1.351 . S
C581 C575 1.428 . S
C581 N580 1.351 . S
C581 C582 1.434 1_556 S
C582 C573 1.429 . S
C582 N579 1.350 . S
C582 C581 1.434 1_554 S
C583 C584 1.369 . S
C583 C585 1.419 . S
C583 H587 0.930 . S
C584 C583 1.369 . S
C584 C593 1.429 . S
C585 C583 1.419 . S
C585 C586 1.363 . S
C585 H588 0.929 . S
C586 C585 1.363 . S
C586 C592 1.428 . S
H587 C583 0.930 . S
H588 C585 0.929 . S
S589 N590 1.613 . S
S589 N591 1.610 . S
N590 S589 1.613 . S
N590 C593 1.350 . S
N591 S589 1.610 . S
N591 C592 1.351 . S
C592 C586 1.428 . S
C592 N591 1.351 . S
C592 C593 1.434 . S
C593 C584 1.429 . S
C593 N590 1.350 . S
C593 C592 1.434 . S
C594 C595 1.369 . S
C594 C596 1.419 1_556 S
C594 H598 0.930 . S
C595 C594 1.369 . S
C595 C604 1.429 . S
C596 C594 1.419 1_554 S
C596 C597 1.363 . S
C596 H599 0.929 . S
C597 C596 1.363 . S
C597 C603 1.428 . S
H598 C594 0.930 . S
H599 C596 0.929 . S
S600 N601 1.613 . S
S600 N602 1.610 1_556 S
N601 S600 1.613 . S
N601 C604 1.350 . S
N602 S600 1.610 1_554 S
N602 C603 1.351 . S
C603 C597 1.428 . S
C603 N602 1.351 . S
C603 C604 1.434 1_554 S
C604 C595 1.429 . S
C604 N601 1.350 . S
C604 C603 1.434 1_556 S
C605 C606 1.369 . S
C605 C607 1.419 . S
C605 H609 0.930 . S
C606 C605 1.369 . S
C606 C615 1.429 . S
C607 C605 1.419 . S
C607 C608 1.363 . S
C607 H610 0.929 . S
C608 C607 1.363 . S
C608 C614 1.428 . S
H609 C605 0.930 . S
H610 C607 0.929 . S
S611 N612 1.613 . S
S611 N613 1.610 . S
N612 S611 1.613 . S
N612 C615 1.350 . S
N613 S611 1.610 . S
N613 C614 1.351 . S
C614 C608 1.428 . S
C614 N613 1.351 . S
C614 C615 1.434 . S
C615 C606 1.429 . S
C615 N612 1.350 . S
C615 C614 1.434 . S
C616 C617 1.369 . S
C616 C618 1.419 . S
C616 H620 0.930 . S
C617 C616 1.369 . S
C617 C626 1.429 . S
C618 C616 1.419 . S
C618 C619 1.363 . S
C618 H621 0.929 . S
C619 C618 1.363 . S
C619 C625 1.428 . S
H620 C616 0.930 . S
H621 C618 0.929 . S
S622 N623 1.613 . S
S622 N624 1.610 . S
N623 S622 1.613 . S
N623 C626 1.350 . S
N624 S622 1.610 . S
N624 C625 1.351 . S
C625 C619 1.428 . S
C625 N624 1.351 . S
C625 C626 1.434 . S
C626 C617 1.429 . S
C626 N623 1.350 . S
C626 C625 1.434 . S
C627 C628 1.369 . S
C627 C629 1.419 . S
C627 H631 0.930 . S
C628 C627 1.369 . S
C628 C637 1.429 . S
C629 C627 1.419 . S
C629 C630 1.363 . S
C629 H632 0.929 . S
C630 C629 1.363 . S
C630 C636 1.428 . S
H631 C627 0.930 . S
H632 C629 0.929 . S
S633 N634 1.613 . S
S633 N635 1.610 . S
N634 S633 1.613 . S
N634 C637 1.350 . S
N635 S633 1.610 . S
N635 C636 1.351 . S
C636 C630 1.428 . S
C636 N635 1.351 . S
C636 C637 1.434 . S
C637 C628 1.429 . S
C637 N634 1.350 . S
C637 C636 1.434 . S
C638 C639 1.369 . S
C638 C640 1.419 . S
C638 H642 0.930 . S
C639 C638 1.369 . S
C639 C648 1.429 . S
C640 C638 1.419 . S
C640 C641 1.363 . S
C640 H643 0.929 . S
C641 C640 1.363 . S
C641 C647 1.428 . S
H642 C638 0.930 . S
H643 C640 0.929 . S
S644 N645 1.613 . S
S644 N646 1.610 . S
N645 S644 1.613 . S
N645 C648 1.350 . S
N646 S644 1.610 . S
N646 C647 1.351 . S
C647 C641 1.428 . S
C647 N646 1.351 . S
C647 C648 1.434 . S
C648 C639 1.429 . S
C648 N645 1.350 . S
C648 C647 1.434 . S
C649 C650 1.369 . S
C649 C651 1.419 . S
C649 H653 0.930 . S
C650 C649 1.369 . S
C650 C659 1.429 . S
C651 C649 1.419 . S
C651 C652 1.363 . S
C651 H654 0.929 . S
C652 C651 1.363 . S
C652 C658 1.428 . S
H653 C649 0.930 . S
H654 C651 0.929 . S
S655 N656 1.613 1_455 S
S655 N657 1.610 . S
N656 S655 1.613 1_655 S
N656 C659 1.350 . S
N657 S655 1.610 . S
N657 C658 1.351 1_455 S
C658 C652 1.428 . S
C658 N657 1.351 1_655 S
C658 C659 1.434 . S
C659 C650 1.429 . S
C659 N656 1.350 . S
C659 C658 1.434 . S
C660 C661 1.369 . S
C660 C662 1.419 . S
C660 H664 0.930 . S
C661 C660 1.369 . S
C661 C670 1.429 . S
C662 C660 1.419 . S
C662 C663 1.363 . S
C662 H665 0.929 . S
C663 C662 1.363 . S
C663 C669 1.428 . S
H664 C660 0.930 . S
H665 C662 0.929 . S
S666 N667 1.613 . S
S666 N668 1.610 . S
N667 S666 1.613 . S
N667 C670 1.350 . S
N668 S666 1.610 . S
N668 C669 1.351 . S
C669 C663 1.428 . S
C669 N668 1.351 . S
C669 C670 1.434 . S
C670 C661 1.429 . S
C670 N667 1.350 . S
C670 C669 1.434 . S
C671 C672 1.369 . S
C671 C673 1.419 . S
C671 H675 0.930 . S
C672 C671 1.369 . S
C672 C681 1.429 . S
C673 C671 1.419 . S
C673 C674 1.363 . S
C673 H676 0.929 . S
C674 C673 1.363 . S
C674 C680 1.428 . S
H675 C671 0.930 . S
H676 C673 0.929 . S
S677 N678 1.613 . S
S677 N679 1.610 . S
N678 S677 1.613 . S
N678 C681 1.350 . S
N679 S677 1.610 . S
N679 C680 1.351 . S
C680 C674 1.428 . S
C680 N679 1.351 . S
C680 C681 1.434 . S
C681 C672 1.429 . S
C681 N678 1.350 . S
C681 C680 1.434 . S
C682 C683 1.369 . S
C682 C684 1.419 . S
C682 H686 0.930 . S
C683 C682 1.369 . S
C683 C692 1.429 . S
C684 C682 1.419 . S
C684 C685 1.363 . S
C684 H687 0.929 . S
C685 C684 1.363 . S
C685 C691 1.428 . S
H686 C682 0.930 . S
H687 C684 0.929 . S
S688 N689 1.613 . S
S688 N690 1.610 . S
N689 S688 1.613 . S
N689 C692 1.350 . S
N690 S688 1.610 . S
N690 C691 1.351 . S
C691 C685 1.428 . S
C691 N690 1.351 . S
C691 C692 1.434 . S
C692 C683 1.429 . S
C692 N689 1.350 . S
C692 C691 1.434 . S
C693 C694 1.369 . S
C693 C695 1.419 . S
C693 H697 0.930 . S
C694 C693 1.369 . S
C694 C703 1.429 . S
C695 C693 1.419 . S
C695 C696 1.363 . S
C695 H698 0.929 . S
C696 C695 1.363 . S
C696 C702 1.428 . S
H697 C693 0.930 . S
H698 C695 0.929 . S
S699 N700 1.613 . S
S699 N701 1.610 . S
N700 S699 1.613 . S
N700 C703 1.350 . S
N701 S699 1.610 . S
N701 C702 1.351 . S
C702 C696 1.428 . S
C702 N701 1.351 . S
C702 C703 1.434 . S
C703 C694 1.429 . S
C703 N700 1.350 . S
C703 C702 1.434 . S
C441 C86 1.631 . S
C443 C178 1.629 . S
C454 C262 1.671 . S
C452 C100 1.684 . S
C465 C255 1.619 . S
C463 C60 1.628 . S
C474 C74 1.680 . S
C476 C171 1.678 . S
C487 C335 1.668 . S
C485 C35 1.685 . S
C498 C419 1.628 . S
C496 C47 1.634 . S
C507 C9 1.677 . S
C509 C412 1.679 . S
C518 C21 1.630 . S
C520 C328 1.623 . S
C531 C162 1.434 . S
C529 C22 1.586 . S
C542 C246 1.413 . S
C540 C8 1.581 . S
C553 C257 1.355 . S
C551 C48 1.584 . S
C564 C173 1.366 . S
C562 C34 1.580 . S
C575 C341 1.422 . S
C573 C73 1.582 . S
C584 C61 1.579 . S
C586 C425 1.432 . S
C597 C414 1.368 . S
C595 C99 1.582 . S
C606 C87 1.580 . S
C608 C330 1.361 . S
C619 C160 1.575 . S
C617 C4 1.487 . S
C630 C244 1.496 . S
C628 C17 1.483 . S
C639 C30 1.480 . S
C641 C251 1.545 . S
C652 C167 1.470 . S
C650 C43 1.472 . S
C663 C339 1.496 . S
C661 C56 1.448 . S
C672 C69 1.521 . S
C674 C423 1.574 . S
C683 C82 1.448 . S
C685 C430 1.467 . S
C694 C95 1.511 . S
C696 C346 1.544 . S
