# Generated by pormake.
# Topology eea, (3,6)-cn, num edge types: 1
# Building blocks:
#     Node 0, Type 0, BuildingBlock: PAMTOO_clean_linker_0, # of connection points: 3
#     Node 1, Type 0, BuildingBlock: PAMTOO_clean_linker_0, # of connection points: 3
#     Node 2, Type 0, BuildingBlock: PAMTOO_clean_linker_0, # of connection points: 3
#     Node 3, Type 0, BuildingBlock: PAMTOO_clean_linker_0, # of connection points: 3
#     Node 4, Type 0, BuildingBlock: PAMTOO_clean_linker_0, # of connection points: 3
#     Node 5, Type 0, BuildingBlock: PAMTOO_clean_linker_0, # of connection points: 3
#     Node 6, Type 0, BuildingBlock: PAMTOO_clean_linker_0, # of connection points: 3
#     Node 7, Type 0, BuildingBlock: PAMTOO_clean_linker_0, # of connection points: 3
#     Node 8, Type 0, BuildingBlock: PAMTOO_clean_linker_0, # of connection points: 3
#     Node 9, Type 0, BuildingBlock: PAMTOO_clean_linker_0, # of connection points: 3
#     Node 10, Type 0, BuildingBlock: PAMTOO_clean_linker_0, # of connection points: 3
#     Node 11, Type 0, BuildingBlock: PAMTOO_clean_linker_0, # of connection points: 3
#     Node 12, Type 0, BuildingBlock: PAMTOO_clean_linker_0, # of connection points: 3
#     Node 13, Type 0, BuildingBlock: PAMTOO_clean_linker_0, # of connection points: 3
#     Node 14, Type 0, BuildingBlock: PAMTOO_clean_linker_0, # of connection points: 3
#     Node 15, Type 0, BuildingBlock: PAMTOO_clean_linker_0, # of connection points: 3
#     Node 16, Type 0, BuildingBlock: PAMTOO_clean_linker_0, # of connection points: 3
#     Node 17, Type 0, BuildingBlock: PAMTOO_clean_linker_0, # of connection points: 3
#     Node 18, Type 1, BuildingBlock: KUMBUR_clean_sbu_0, # of connection points: 6
#     Node 19, Type 1, BuildingBlock: KUMBUR_clean_sbu_0, # of connection points: 6
#     Node 20, Type 1, BuildingBlock: KUMBUR_clean_sbu_0, # of connection points: 6
#     Node 21, Type 1, BuildingBlock: KUMBUR_clean_sbu_0, # of connection points: 6
#     Node 22, Type 1, BuildingBlock: KUMBUR_clean_sbu_0, # of connection points: 6
#     Node 23, Type 1, BuildingBlock: KUMBUR_clean_sbu_0, # of connection points: 6
#     Node 24, Type 1, BuildingBlock: KUMBUR_clean_sbu_0, # of connection points: 6
#     Node 25, Type 1, BuildingBlock: KUMBUR_clean_sbu_0, # of connection points: 6
#     Node 26, Type 1, BuildingBlock: KUMBUR_clean_sbu_0, # of connection points: 6
#     Edge 27, Type (0, 1), BuildingBlock: ZUJKAS_clean_linker_0, # of connection points: 2
#     Edge 28, Type (0, 1), BuildingBlock: ZUJKAS_clean_linker_0, # of connection points: 2
#     Edge 29, Type (0, 1), BuildingBlock: ZUJKAS_clean_linker_0, # of connection points: 2
#     Edge 30, Type (0, 1), BuildingBlock: ZUJKAS_clean_linker_0, # of connection points: 2
#     Edge 31, Type (0, 1), BuildingBlock: ZUJKAS_clean_linker_0, # of connection points: 2
#     Edge 32, Type (0, 1), BuildingBlock: ZUJKAS_clean_linker_0, # of connection points: 2
#     Edge 33, Type (0, 1), BuildingBlock: ZUJKAS_clean_linker_0, # of connection points: 2
#     Edge 34, Type (0, 1), BuildingBlock: ZUJKAS_clean_linker_0, # of connection points: 2
#     Edge 35, Type (0, 1), BuildingBlock: ZUJKAS_clean_linker_0, # of connection points: 2
#     Edge 36, Type (0, 1), BuildingBlock: ZUJKAS_clean_linker_0, # of connection points: 2
#     Edge 37, Type (0, 1), BuildingBlock: ZUJKAS_clean_linker_0, # of connection points: 2
#     Edge 38, Type (0, 1), BuildingBlock: ZUJKAS_clean_linker_0, # of connection points: 2
#     Edge 39, Type (0, 1), BuildingBlock: ZUJKAS_clean_linker_0, # of connection points: 2
#     Edge 40, Type (0, 1), BuildingBlock: ZUJKAS_clean_linker_0, # of connection points: 2
#     Edge 41, Type (0, 1), BuildingBlock: ZUJKAS_clean_linker_0, # of connection points: 2
#     Edge 42, Type (0, 1), BuildingBlock: ZUJKAS_clean_linker_0, # of connection points: 2
#     Edge 43, Type (0, 1), BuildingBlock: ZUJKAS_clean_linker_0, # of connection points: 2
#     Edge 44, Type (0, 1), BuildingBlock: ZUJKAS_clean_linker_0, # of connection points: 2
#     Edge 45, Type (0, 1), BuildingBlock: ZUJKAS_clean_linker_0, # of connection points: 2
#     Edge 46, Type (0, 1), BuildingBlock: ZUJKAS_clean_linker_0, # of connection points: 2
#     Edge 47, Type (0, 1), BuildingBlock: ZUJKAS_clean_linker_0, # of connection points: 2
#     Edge 48, Type (0, 1), BuildingBlock: ZUJKAS_clean_linker_0, # of connection points: 2
#     Edge 49, Type (0, 1), BuildingBlock: ZUJKAS_clean_linker_0, # of connection points: 2
#     Edge 50, Type (0, 1), BuildingBlock: ZUJKAS_clean_linker_0, # of connection points: 2
#     Edge 51, Type (0, 1), BuildingBlock: ZUJKAS_clean_linker_0, # of connection points: 2
#     Edge 52, Type (0, 1), BuildingBlock: ZUJKAS_clean_linker_0, # of connection points: 2
#     Edge 53, Type (0, 1), BuildingBlock: ZUJKAS_clean_linker_0, # of connection points: 2
#     Edge 54, Type (0, 1), BuildingBlock: ZUJKAS_clean_linker_0, # of connection points: 2
#     Edge 55, Type (0, 1), BuildingBlock: ZUJKAS_clean_linker_0, # of connection points: 2
#     Edge 56, Type (0, 1), BuildingBlock: ZUJKAS_clean_linker_0, # of connection points: 2
#     Edge 57, Type (0, 1), BuildingBlock: ZUJKAS_clean_linker_0, # of connection points: 2
#     Edge 58, Type (0, 1), BuildingBlock: ZUJKAS_clean_linker_0, # of connection points: 2
#     Edge 59, Type (0, 1), BuildingBlock: ZUJKAS_clean_linker_0, # of connection points: 2
#     Edge 60, Type (0, 1), BuildingBlock: ZUJKAS_clean_linker_0, # of connection points: 2
#     Edge 61, Type (0, 1), BuildingBlock: ZUJKAS_clean_linker_0, # of connection points: 2
#     Edge 62, Type (0, 1), BuildingBlock: ZUJKAS_clean_linker_0, # of connection points: 2
#     Edge 63, Type (0, 1), BuildingBlock: ZUJKAS_clean_linker_0, # of connection points: 2
#     Edge 64, Type (0, 1), BuildingBlock: ZUJKAS_clean_linker_0, # of connection points: 2
#     Edge 65, Type (0, 1), BuildingBlock: ZUJKAS_clean_linker_0, # of connection points: 2
#     Edge 66, Type (0, 1), BuildingBlock: ZUJKAS_clean_linker_0, # of connection points: 2
#     Edge 67, Type (0, 1), BuildingBlock: ZUJKAS_clean_linker_0, # of connection points: 2
#     Edge 68, Type (0, 1), BuildingBlock: ZUJKAS_clean_linker_0, # of connection points: 2
#     Edge 69, Type (0, 1), BuildingBlock: ZUJKAS_clean_linker_0, # of connection points: 2
#     Edge 70, Type (0, 1), BuildingBlock: ZUJKAS_clean_linker_0, # of connection points: 2
#     Edge 71, Type (0, 1), BuildingBlock: ZUJKAS_clean_linker_0, # of connection points: 2
#     Edge 72, Type (0, 1), BuildingBlock: ZUJKAS_clean_linker_0, # of connection points: 2
#     Edge 73, Type (0, 1), BuildingBlock: ZUJKAS_clean_linker_0, # of connection points: 2
#     Edge 74, Type (0, 1), BuildingBlock: ZUJKAS_clean_linker_0, # of connection points: 2
#     Edge 75, Type (0, 1), BuildingBlock: ZUJKAS_clean_linker_0, # of connection points: 2
#     Edge 76, Type (0, 1), BuildingBlock: ZUJKAS_clean_linker_0, # of connection points: 2
#     Edge 77, Type (0, 1), BuildingBlock: ZUJKAS_clean_linker_0, # of connection points: 2
#     Edge 78, Type (0, 1), BuildingBlock: ZUJKAS_clean_linker_0, # of connection points: 2
#     Edge 79, Type (0, 1), BuildingBlock: ZUJKAS_clean_linker_0, # of connection points: 2
#     Edge 80, Type (0, 1), BuildingBlock: ZUJKAS_clean_linker_0, # of connection points: 2
# Relax obj value: 0.022
# Max RMSD: 0.153
# Mean RMSD: 0.113
data_MOF--net-eea--node1-KUMBUR_clean_sbu_0--node2-PAMTOO_clean_linker_0--edge1-ZUJKAS_clean_linker_0
_symmetry_space_group_name_H-M    P1
_symmetry_Int_Tables_number       1
_symmetry_cell_setting            triclinic
loop_
_symmetry_equiv_pos_as_xyz
'x, y, z'
_cell_length_a     70.820866
_cell_length_b     72.589447
_cell_length_c     82.155905
_cell_angle_alpha  90.113539
_cell_angle_beta   90.121464
_cell_angle_gamma 119.98945
loop_
_atom_site_label
_atom_site_type_symbol
_atom_site_fract_x
_atom_site_fract_y
_atom_site_fract_z
_atom_type_partial_charge
H0 H 0.23508 0.08157 0.43699 0.0
H1 H 0.23481 0.14039 0.43141 0.0
H2 H 0.21454 0.09607 0.39171 0.0
H3 H 0.23632 0.13951 0.37985 0.0
C4 C 0.23574 0.14754 0.39123 0.0
O5 O 0.22022 0.13275 0.4015 0.0
H6 H 0.2522 0.15499 0.39699 0.0
C7 C 0.23194 0.09212 0.42961 0.0
C8 C 0.2244 0.08631 0.41353 0.0
C9 C 0.23583 0.11159 0.43619 0.0
C10 C 0.23192 0.1253 0.42656 0.0
C11 C 0.22406 0.11952 0.41064 0.0
C12 C 0.22022 0.10008 0.40417 0.0
H13 H 0.9432 0.15944 0.43389 0.0
H14 H 0.88755 0.09622 0.43039 0.0
H15 H 0.93281 0.1214 0.39089 0.0
H16 H 0.88817 0.09336 0.37845 0.0
C17 C 0.88053 0.08663 0.39041 0.0
O18 O 0.89646 0.08873 0.40122 0.0
H19 H 0.87271 0.09579 0.39472 0.0
C20 C 0.93366 0.14471 0.42721 0.0
C21 C 0.9405 0.14253 0.4116 0.0
C22 C 0.91462 0.12815 0.43422 0.0
C23 C 0.90224 0.10926 0.42529 0.0
C24 C 0.90879 0.1069 0.40973 0.0
C25 C 0.928 0.12338 0.40299 0.0
H26 H 0.86244 0.78478 0.43508 0.0
H27 H 0.92614 0.79104 0.43315 0.0
H28 H 0.90206 0.8098 0.39214 0.0
H29 H 0.92791 0.78903 0.38296 0.0
C30 C 0.93766 0.79221 0.39431 0.0
O31 O 0.93503 0.8066 0.40372 0.0
H32 H 0.9315 0.77692 0.40095 0.0
C33 C 0.87743 0.78936 0.42856 0.0
C34 C 0.88003 0.79753 0.41267 0.0
C35 C 0.89387 0.78689 0.43611 0.0
C36 C 0.91323 0.79275 0.42755 0.0
C37 C 0.9162 0.80101 0.41175 0.0
C38 C 0.89968 0.80354 0.40439 0.0
H39 H 0.08513 0.22613 0.59514 0.0
H40 H 0.14146 0.21821 0.59771 0.0
H41 H 0.0974 0.19963 0.63806 0.0
H42 H 0.14425 0.21975 0.64815 0.0
C43 C 0.151 0.21711 0.63673 0.0
O44 O 0.13383 0.20276 0.6271 0.0
H45 H 0.16028 0.23264 0.63037 0.0
C46 C 0.09504 0.22106 0.60169 0.0
C47 C 0.08874 0.21251 0.61742 0.0
C48 C 0.114 0.22323 0.59436 0.0
C49 C 0.12684 0.21681 0.60308 0.0
C50 C 0.12095 0.20844 0.61881 0.0
C51 C 0.1018 0.20607 0.62588 0.0
H52 H 0.78853 0.85838 0.59425 0.0
H53 H 0.79346 0.9198 0.5988 0.0
H54 H 0.81758 0.89705 0.63695 0.0
H55 H 0.79817 0.92091 0.65055 0.0
C56 C 0.79688 0.92821 0.63902 0.0
O57 O 0.81099 0.92772 0.6277 0.0
H58 H 0.77968 0.91876 0.63468 0.0
C59 C 0.7939 0.87308 0.60092 0.0
C60 C 0.80378 0.87575 0.61629 0.0
C61 C 0.79009 0.88884 0.59438 0.0
C62 C 0.79611 0.90736 0.60353 0.0
C63 C 0.80576 0.91008 0.61887 0.0
C64 C 0.8098 0.89448 0.62514 0.0
H65 H 0.157 0.92962 0.59526 0.0
H66 H 0.09505 0.87175 0.5985 0.0
H67 H 0.11726 0.91633 0.63807 0.0
H68 H 0.09529 0.87191 0.64934 0.0
C69 C 0.08578 0.86398 0.63815 0.0
O70 O 0.08631 0.8792 0.6278 0.0
H71 H 0.09348 0.85554 0.63226 0.0
C72 C 0.14203 0.91955 0.60177 0.0
C73 C 0.13904 0.92573 0.61736 0.0
C74 C 0.12632 0.90019 0.59472 0.0
C75 C 0.10748 0.8867 0.60365 0.0
C76 C 0.10442 0.89246 0.61929 0.0
C77 C 0.12006 0.91196 0.62607 0.0
H78 H 0.90712 0.41514 0.7685 0.0
H79 H 0.90755 0.4746 0.76538 0.0
H80 H 0.87856 0.42857 0.72711 0.0
H81 H 0.9007 0.47163 0.71444 0.0
C82 C 0.90176 0.48037 0.72586 0.0
O83 O 0.88776 0.46627 0.73726 0.0
H84 H 0.91893 0.48806 0.73029 0.0
C85 C 0.90293 0.42565 0.76209 0.0
C86 C 0.89222 0.41932 0.74696 0.0
C87 C 0.90852 0.44552 0.76896 0.0
C88 C 0.90314 0.45908 0.7605 0.0
C89 C 0.8925 0.45295 0.74542 0.0
C90 C 0.88695 0.43312 0.73873 0.0
H91 H 0.60806 0.4954 0.76672 0.0
H92 H 0.55267 0.43197 0.76502 0.0
H93 H 0.59742 0.45503 0.7251 0.0
H94 H 0.55306 0.42664 0.71345 0.0
C95 C 0.54549 0.41996 0.72544 0.0
O96 O 0.56156 0.42276 0.73637 0.0
H97 H 0.53715 0.42872 0.72955 0.0
C98 C 0.59839 0.48045 0.76035 0.0
C99 C 0.60512 0.47742 0.74494 0.0
C100 C 0.57959 0.46415 0.76782 0.0
C101 C 0.56743 0.44462 0.75966 0.0
C102 C 0.57385 0.44142 0.74429 0.0
C103 C 0.59277 0.45767 0.73705 0.0
H104 H 0.53046 0.11812 0.76799 0.0
H105 H 0.59463 0.12535 0.7658 0.0
H106 H 0.57049 0.14536 0.72559 0.0
H107 H 0.59671 0.12646 0.71467 0.0
C108 C 0.60561 0.12787 0.72619 0.0
O109 O 0.60339 0.14165 0.73661 0.0
H110 H 0.59813 0.11169 0.73165 0.0
C111 C 0.54562 0.12319 0.76157 0.0
C112 C 0.54834 0.13207 0.74595 0.0
C113 C 0.56217 0.12074 0.76899 0.0
C114 C 0.58161 0.12704 0.76038 0.0
C115 C 0.58458 0.13583 0.74475 0.0
C116 C 0.56808 0.13859 0.73766 0.0
H117 H 0.75308 0.56159 0.93147 0.0
H118 H 0.80954 0.55392 0.9341 0.0
H119 H 0.76512 0.53464 0.97423 0.0
H120 H 0.81012 0.54968 0.98625 0.0
C121 C 0.81756 0.55112 0.97409 0.0
O122 O 0.8015 0.53775 0.96326 0.0
H123 H 0.82468 0.56798 0.97015 0.0
C124 C 0.76299 0.55654 0.93803 0.0
C125 C 0.75662 0.54786 0.95373 0.0
C126 C 0.78202 0.55883 0.93072 0.0
C127 C 0.79489 0.55245 0.93945 0.0
C128 C 0.78881 0.54376 0.95507 0.0
C129 C 0.7696 0.54126 0.96211 0.0
H130 H 0.45954 0.19415 0.92949 0.0
H131 H 0.46265 0.25466 0.93498 0.0
H132 H 0.48146 0.22902 0.97461 0.0
H133 H 0.4613 0.25292 0.98686 0.0
C134 C 0.4613 0.26065 0.97519 0.0
O135 O 0.47672 0.26069 0.96493 0.0
H136 H 0.44467 0.25135 0.96977 0.0
C137 C 0.46329 0.20803 0.93679 0.0
C138 C 0.471 0.20953 0.95281 0.0
C139 C 0.46014 0.22415 0.93016 0.0
C140 C 0.46485 0.24197 0.93979 0.0
C141 C 0.47255 0.24363 0.95572 0.0
C142 C 0.47578 0.22759 0.96217 0.0
H143 H 0.82248 0.263 0.92707 0.0
H144 H 0.76205 0.20399 0.93159 0.0
H145 H 0.78615 0.24758 0.9719 0.0
H146 H 0.76358 0.20283 0.98234 0.0
C147 C 0.75385 0.19541 0.97114 0.0
O148 O 0.75423 0.21106 0.9614 0.0
H149 H 0.76137 0.18716 0.96469 0.0
C150 C 0.80845 0.2523 0.93429 0.0
C151 C 0.80656 0.25776 0.95041 0.0
C152 C 0.79258 0.23296 0.92744 0.0
C153 C 0.7744 0.21901 0.93672 0.0
C154 C 0.772 0.22446 0.95264 0.0
C155 C 0.788 0.24378 0.95946 0.0
H156 H 0.57117 0.74667 0.10288 0.0
H157 H 0.57047 0.8057 0.10049 0.0
H158 H 0.54807 0.76282 0.0598 0.0
H159 H 0.56955 0.80616 0.04894 0.0
C160 C 0.56925 0.8142 0.06038 0.0
O161 O 0.55453 0.7993 0.07105 0.0
H162 H 0.58588 0.82214 0.06589 0.0
C163 C 0.56733 0.75746 0.0965 0.0
C164 C 0.55887 0.75234 0.08063 0.0
C165 C 0.57184 0.77677 0.10384 0.0
C166 C 0.56743 0.79084 0.09508 0.0
C167 C 0.55888 0.78576 0.07927 0.0
C168 C 0.55465 0.76658 0.07206 0.0
H169 H 0.27367 0.82627 0.09954 0.0
H170 H 0.21946 0.7624 0.09725 0.0
H171 H 0.26646 0.78542 0.05885 0.0
H172 H 0.22264 0.75724 0.04541 0.0
C173 C 0.21433 0.7512 0.05728 0.0
O174 O 0.22957 0.7536 0.06886 0.0
H175 H 0.20655 0.76079 0.06056 0.0
C176 C 0.26502 0.81112 0.09327 0.0
C177 C 0.27289 0.80813 0.07832 0.0
C178 C 0.24604 0.79463 0.10035 0.0
C179 C 0.23436 0.77514 0.09212 0.0
C180 C 0.24153 0.77212 0.07703 0.0
C181 C 0.2609 0.78837 0.07031 0.0
H182 H 0.19518 0.44957 0.0985 0.0
H183 H 0.25891 0.45582 0.09659 0.0
H184 H 0.23608 0.47748 0.0566 0.0
H185 H 0.26301 0.45932 0.04571 0.0
C186 C 0.27138 0.46023 0.0574 0.0
O187 O 0.26876 0.47365 0.06796 0.0
H188 H 0.26361 0.44384 0.06249 0.0
C189 C 0.21023 0.45422 0.09206 0.0
C190 C 0.21333 0.46352 0.07656 0.0
C191 C 0.22647 0.45133 0.09952 0.0
C192 C 0.24625 0.45813 0.09125 0.0
C193 C 0.2497 0.46751 0.07582 0.0
C194 C 0.23334 0.47037 0.06857 0.0
H195 H 0.42001 0.89563 0.26438 0.0
H196 H 0.47634 0.88778 0.26643 0.0
H197 H 0.43194 0.8678 0.30667 0.0
H198 H 0.47901 0.8874 0.31668 0.0
C199 C 0.48558 0.88495 0.3051 0.0
O200 O 0.46826 0.87093 0.29542 0.0
H201 H 0.49496 0.90059 0.29891 0.0
C202 C 0.43003 0.89067 0.27091 0.0
C203 C 0.42354 0.88155 0.28646 0.0
C204 C 0.44897 0.89298 0.26348 0.0
C205 C 0.46152 0.88589 0.27181 0.0
C206 C 0.4555 0.877 0.28738 0.0
C207 C 0.43642 0.87464 0.29461 0.0
H208 H 0.12064 0.52488 0.26133 0.0
H209 H 0.12658 0.58669 0.26507 0.0
H210 H 0.15061 0.56425 0.30364 0.0
H211 H 0.13172 0.58873 0.31692 0.0
C212 C 0.13032 0.59574 0.30527 0.0
O213 O 0.14439 0.59505 0.29402 0.0
H214 H 0.11309 0.58615 0.30103 0.0
C215 C 0.12605 0.53958 0.26801 0.0
C216 C 0.13624 0.54252 0.28328 0.0
C217 C 0.12273 0.5555 0.26126 0.0
C218 C 0.12936 0.5744 0.26999 0.0
C219 C 0.13902 0.57727 0.28535 0.0
C220 C 0.14272 0.56154 0.29187 0.0
H221 H 0.4942 0.59522 0.26239 0.0
H222 H 0.43175 0.53771 0.26429 0.0
H223 H 0.45391 0.58055 0.30501 0.0
H224 H 0.4288 0.53706 0.31613 0.0
C225 C 0.42133 0.52928 0.30432 0.0
O226 O 0.42234 0.54441 0.29363 0.0
H227 H 0.43085 0.52205 0.2995 0.0
C228 C 0.47927 0.58479 0.26882 0.0
C229 C 0.47616 0.59035 0.2846 0.0
C230 C 0.46343 0.56589 0.26127 0.0
C231 C 0.44424 0.55235 0.26981 0.0
C232 C 0.44085 0.55769 0.28551 0.0
C233 C 0.45666 0.57673 0.2928 0.0
Tb234 Tb 0.49703 0.99539 0.99528 0.0
C235 C 0.54181 0.06447 0.04769 0.0
C236 C 0.57997 0.07485 0.04723 0.0
C237 C 0.56917 0.10044 0.05543 0.0
C238 C 0.55789 0.05961 0.04448 0.0
C239 C 0.54716 0.0848 0.05349 0.0
C240 C 0.58556 0.09545 0.05234 0.0
C241 C 0.50864 0.07204 0.05643 0.0
N242 N 0.5208 0.0488 0.04594 0.0
C243 C 0.50419 0.05205 0.05081 0.0
C244 C 0.53022 0.08857 0.05761 0.0
Tb245 Tb 0.51508 0.01676 0.03615 0.0
N246 N 0.55175 0.03947 0.03972 0.0
C247 C 0.56696 0.03317 0.03849 0.0
C248 C 0.59564 0.06869 0.0453 0.0
C249 C 0.58907 0.04769 0.0411 0.0
H250 H 0.48745 0.03943 0.0499 0.0
H251 H 0.60102 0.04264 0.03986 0.0
H252 H 0.60246 0.10745 0.05434 0.0
H253 H 0.49543 0.07466 0.05987 0.0
H254 H 0.56227 0.01706 0.03521 0.0
H255 H 0.41099 0.97001 0.99567 0.0
H256 H 0.61276 0.07988 0.04742 0.0
H257 H 0.5231 0.97258 0.97913 0.0
H258 H 0.4501 0.99564 0.99812 0.0
H259 H 0.51413 0.93733 0.96842 0.0
H260 H 0.57365 0.11622 0.05975 0.0
H261 H 0.39837 0.93256 0.98833 0.0
H262 H 0.40789 0.90487 0.97976 0.0
H263 H 0.53363 0.10399 0.06207 0.0
H264 H 0.43604 0.89594 0.97224 0.0
N265 N 0.46006 0.97299 0.99272 0.0
C266 C 0.44508 0.97944 0.99486 0.0
C267 C 0.41568 0.94377 0.9894 0.0
C268 C 0.43107 0.93755 0.98622 0.0
C269 C 0.42274 0.9649 0.9935 0.0
C270 C 0.45337 0.95276 0.98791 0.0
H271 H 0.47576 0.90808 0.96768 0.0
N272 N 0.49019 0.96331 0.98478 0.0
C273 C 0.50128 0.94001 0.97277 0.0
C274 C 0.46905 0.94773 0.98375 0.0
C275 C 0.50629 0.95999 0.97881 0.0
C276 C 0.47961 0.92352 0.97241 0.0
C277 C 0.46312 0.92736 0.97771 0.0
O278 O 0.51331 0.0049 0.97275 0.0
O279 O 0.52264 0.01857 0.01063 0.0
O280 O 0.51347 0.04108 0.02165 0.0
O281 O 0.48819 0.01962 1.00198 0.0
O282 O 0.53197 0.00738 0.9914 0.0
O283 O 0.48587 0.00899 0.97787 0.0
O284 O 0.49821 0.00723 0.05842 0.0
O285 O 0.48975 0.9931 0.02088 0.0
O286 O 0.50052 0.97155 0.00906 0.0
O287 O 0.52432 0.99271 0.02975 0.0
O288 O 0.48007 0.00461 0.03961 0.0
O289 O 0.52625 0.00381 0.05413 0.0
C290 C 0.53919 0.02044 1.00344 0.0
C291 C 0.49131 0.00292 0.95046 0.0
C292 C 0.4925 0.00904 0.92107 0.0
C293 C 0.50088 0.01617 0.93688 0.0
C294 C 0.47464 0.98834 0.91912 0.0
C295 C 0.47345 0.98243 0.94814 0.0
C296 C 0.46523 0.97519 0.93256 0.0
C297 C 0.49912 0.03786 0.01005 0.0
C298 C 0.49994 0.01066 0.96694 0.0
C299 C 0.44096 0.91178 0.97669 0.0
C300 C 0.42494 0.91686 0.98097 0.0
C301 C 0.47304 0.99101 0.02793 0.0
C302 C 0.51954 0.0098 0.08129 0.0
C303 C 0.5101 0.99632 0.09477 0.0
C304 C 0.51702 0.00398 0.11074 0.0
C305 C 0.53363 0.02523 0.11294 0.0
C306 C 0.53614 0.03086 0.08386 0.0
C307 C 0.54312 0.0385 0.09959 0.0
C308 C 0.51445 0.97484 0.02105 0.0
C309 C 0.51167 1.00188 0.06469 0.0
H310 H 0.51454 0.0321 0.93867 0.0
H311 H 0.46803 0.9822 0.90714 0.0
H312 H 0.46578 0.97205 0.95834 0.0
H313 H 0.45149 0.95931 0.93089 0.0
H314 H 0.49718 0.98004 0.09285 0.0
H315 H 0.5395 0.03152 0.12503 0.0
H316 H 0.54372 0.04141 0.07375 0.0
H317 H 0.55596 0.05479 0.10143 0.0
Tb318 Tb 0.0255 0.50018 0.996 0.0
C319 C 0.94922 0.4738 0.04306 0.0
C320 C 0.93843 0.50042 0.04044 0.0
C321 C 0.91153 0.46418 0.04774 0.0
C322 C 0.95445 0.49434 0.03954 0.0
C323 C 0.92783 0.45854 0.04757 0.0
C324 C 0.91682 0.48511 0.04418 0.0
C325 C 0.94079 0.434 0.05281 0.0
N326 N 0.96552 0.46913 0.04294 0.0
C327 C 0.96179 0.44977 0.04838 0.0
C328 C 0.92366 0.43832 0.05221 0.0
Tb329 Tb 0.99924 0.49573 0.03493 0.0
N330 N 0.97553 0.50862 0.03609 0.0
C331 C 0.98194 0.52971 0.03452 0.0
C332 C 0.94473 0.52179 0.03798 0.0
C333 C 0.96665 0.53654 0.03524 0.0
H334 H 0.97487 0.4462 0.0488 0.0
H335 H 0.97177 0.55317 0.03358 0.0
H336 H 0.90423 0.48941 0.04474 0.0
H337 H 0.93782 0.41854 0.05668 0.0
H338 H 0.99875 0.54137 0.03228 0.0
H339 H 0.05173 0.44185 0.99906 0.0
H340 H 0.93292 0.52711 0.0385 0.0
H341 H 0.05042 0.54897 0.98091 0.0
H342 H 0.02514 0.45417 0.99945 0.0
H343 H 0.08767 0.57602 0.97278 0.0
H344 H 0.89493 0.45265 0.05102 0.0
H345 H 0.09081 0.46744 0.99454 0.0
H346 H 0.12002 0.50487 0.98805 0.0
H347 H 0.90743 0.42612 0.05573 0.0
H348 H 0.12985 0.54151 0.98078 0.0
N349 N 0.04882 0.48678 0.99558 0.0
C350 C 0.04206 0.46564 0.99739 0.0
C351 C 0.07919 0.47301 0.9947 0.0
C352 C 0.08584 0.49439 0.99189 0.0
C353 C 0.05714 0.45851 0.99719 0.0
C354 C 0.07003 0.50077 0.99229 0.0
H355 H 0.11778 0.5681 0.97472 0.0
N356 N 0.05942 0.52612 0.9878 0.0
C357 C 0.0845 0.56069 0.97717 0.0
C358 C 0.07554 0.52122 0.98821 0.0
C359 C 0.0634 0.54529 0.98174 0.0
C360 C 0.10147 0.55619 0.97833 0.0
C361 C 0.09703 0.53611 0.98365 0.0
O362 O 0.01827 0.50708 0.97271 0.0
O363 O 0.9999 0.50134 0.0092 0.0
O364 O 0.97604 0.46971 0.01948 0.0
O365 O 0.99988 0.46703 1.00136 0.0
O366 O 0.01314 0.52194 0.99039 0.0
O367 O 0.01458 0.47638 0.97799 0.0
O368 O 1.00713 0.48892 0.05798 0.0
O369 O 0.02508 0.49492 0.02175 0.0
O370 O 0.04841 0.5269 0.01109 0.0
O371 O 0.02444 0.529 0.0295 0.0
O372 O 0.01164 0.47394 0.04026 0.0
O373 O 0.00983 0.51932 0.05313 0.0
C374 C 0.99839 0.51548 1.00143 0.0
C375 C 0.02425 0.48929 0.95115 0.0
C376 C 0.02238 0.48768 0.92144 0.0
C377 C 0.01274 0.48682 0.93662 0.0
C378 C 0.04381 0.49121 0.92109 0.0
C379 C 0.04548 0.49255 0.9505 0.0
C380 C 0.05521 0.49356 0.93554 0.0
C381 C 0.98047 0.45917 0.00838 0.0
C382 C 0.01391 0.48873 0.96678 0.0
C383 C 0.11316 0.53024 0.98406 0.0
C384 C 0.10757 0.50939 0.9882 0.0
C385 C 0.02664 0.48074 0.0294 0.0
C386 C 1.00162 0.5063 0.08005 0.0
C387 C 0.01505 0.51307 0.0939 0.0
C388 C 1.00612 0.51124 0.10954 0.0
C389 C 0.98341 0.50265 0.11095 0.0
C390 C 0.97914 0.49809 0.08175 0.0
C391 C 0.97011 0.4963 0.09713 0.0
C392 C 0.04378 0.53721 0.02229 0.0
C393 C 0.01132 0.50714 0.06408 0.0
H394 H 0.99619 0.48394 0.93719 0.0
H395 H 0.05188 0.49237 0.90965 0.0
H396 H 0.05453 0.49428 0.9615 0.0
H397 H 0.07167 0.49623 0.93515 0.0
H398 H 0.03247 0.51978 0.09241 0.0
H399 H 0.9758 0.50047 0.12274 0.0
H400 H 0.96856 0.49291 0.07127 0.0
H401 H 0.9527 0.48973 0.09836 0.0
Tb402 Tb 0.53123 0.51321 0.03431 0.0
C403 C 0.4826 0.53778 0.98526 0.0
C404 C 0.44457 0.51109 0.98784 0.0
C405 C 0.45467 0.54712 0.97996 0.0
C406 C 0.46684 0.51731 0.989 0.0
C407 C 0.47678 0.55288 0.98039 0.0
C408 C 0.43857 0.52624 0.98367 0.0
C409 C 0.51491 0.57753 0.97544 0.0
N410 N 0.50371 0.54258 0.98568 0.0
C411 C 0.51983 0.56191 0.98022 0.0
C412 C 0.49331 0.57309 0.97571 0.0
Tb413 Tb 0.51031 0.51635 0.99455 0.0
N414 N 0.47337 0.50319 0.99285 0.0
C415 C 0.45825 0.48209 0.99454 0.0
C416 C 0.42905 0.48974 0.99044 0.0
C417 C 0.43594 0.47513 0.99356 0.0
H418 H 0.53659 0.56556 0.98007 0.0
H419 H 0.42408 0.4585 0.99533 0.0
H420 H 0.42155 0.52184 0.9829 0.0
H421 H 0.52778 0.59298 0.97155 0.0
H422 H 0.46318 0.47054 0.99709 0.0
H423 H 0.61747 0.57086 0.03177 0.0
H424 H 0.41177 0.48431 0.98972 0.0
H425 H 0.50542 0.46499 0.05046 0.0
H426 H 0.57838 0.55884 0.03057 0.0
H427 H 0.51444 0.43817 0.06018 0.0
H428 H 0.44983 0.55854 0.9764 0.0
H429 H 0.6299 0.54528 0.03796 0.0
H430 H 0.62028 0.50815 0.04598 0.0
H431 H 0.48953 0.58518 0.97192 0.0
H432 H 0.59217 0.47195 0.05389 0.0
N433 N 0.56823 0.52637 0.0356 0.0
C434 C 0.58333 0.54737 0.03336 0.0
C435 C 0.61261 0.53985 0.03746 0.0
C436 C 0.59716 0.51868 0.04075 0.0
C437 C 0.60565 0.55433 0.03401 0.0
C438 C 0.57486 0.51245 0.03984 0.0
H439 H 0.55262 0.4458 0.05953 0.0
N440 N 0.53812 0.48752 0.044 0.0
C441 C 0.5272 0.4533 0.05567 0.0
C442 C 0.55921 0.49226 0.04427 0.0
C443 C 0.52216 0.46859 0.05019 0.0
C444 C 0.54876 0.45764 0.05524 0.0
C445 C 0.56515 0.47746 0.04972 0.0
O446 O 0.51645 0.50734 0.0574 0.0
O447 O 0.50467 0.51152 0.02029 0.0
O448 O 0.51342 0.54268 0.00937 0.0
O449 O 0.54021 0.54612 0.02767 0.0
O450 O 0.49648 0.49155 0.03955 0.0
O451 O 0.54396 0.53794 0.0516 0.0
O452 O 0.52551 0.52297 0.97162 0.0
O453 O 0.53672 0.51752 0.0085 0.0
O454 O 0.527 0.48596 0.02011 0.0
O455 O 0.50143 0.48336 1.00083 0.0
O456 O 0.54512 0.53805 0.9896 0.0
O457 O 0.49755 0.49234 0.97664 0.0
C458 C 0.48853 0.49756 0.02803 0.0
C459 C 0.53996 0.52676 0.07901 0.0
C460 C 0.53907 0.53025 0.10857 0.0
C461 C 0.53014 0.52932 0.09304 0.0
C462 C 0.55783 0.52832 0.10983 0.0
C463 C 0.55867 0.52493 0.08057 0.0
C464 C 0.5675 0.52565 0.09591 0.0
C465 C 0.52884 0.55369 0.02024 0.0
C466 C 0.53049 0.52612 0.06291 0.0
C467 C 0.58725 0.48316 0.04991 0.0
C468 C 0.60325 0.50375 0.0454 0.0
C469 C 0.55293 0.5315 1.00085 0.0
C470 C 0.50246 0.50476 0.94951 0.0
C471 C 0.51166 0.50133 0.93548 0.0
C472 C 0.50386 0.50229 0.91989 0.0
C473 C 0.48665 0.50663 0.91859 0.0
C474 C 0.48523 0.50892 0.9479 0.0
C475 C 0.47739 0.50985 0.93251 0.0
C476 C 0.51202 0.47532 0.00882 0.0
C477 C 0.51141 0.50449 0.96564 0.0
H478 H 0.5158 0.53095 0.09181 0.0
H479 H 0.56492 0.52866 0.12159 0.0
H480 H 0.56653 0.52305 0.06997 0.0
H481 H 0.58192 0.52417 0.09701 0.0
H482 H 0.5251 0.49827 0.9367 0.0
H483 H 0.48013 0.50724 0.90679 0.0
H484 H 0.47784 0.51145 0.95847 0.0
H485 H 0.46408 0.51306 0.93138 0.0
Tb486 Tb 0.16424 0.32928 0.32746 0.0
C487 C 0.20773 0.39845 0.38008 0.0
C488 C 0.24589 0.40882 0.37993 0.0
C489 C 0.23498 0.43437 0.38802 0.0
C490 C 0.22384 0.39358 0.37706 0.0
C491 C 0.21299 0.41874 0.38592 0.0
C492 C 0.25142 0.4294 0.38504 0.0
C493 C 0.17444 0.40593 0.38862 0.0
N494 N 0.18674 0.38278 0.37817 0.0
C495 C 0.17007 0.386 0.38291 0.0
C496 C 0.196 0.42246 0.38996 0.0
Tb497 Tb 0.18111 0.35078 0.36837 0.0
N498 N 0.21775 0.37345 0.37234 0.0
C499 C 0.23297 0.36714 0.37131 0.0
C500 C 0.26159 0.40268 0.37812 0.0
C501 C 0.25506 0.38167 0.37398 0.0
H502 H 0.15334 0.37339 0.38186 0.0
H503 H 0.26703 0.37664 0.37283 0.0
H504 H 0.26829 0.4414 0.38714 0.0
H505 H 0.16118 0.40851 0.39198 0.0
H506 H 0.22833 0.35103 0.36807 0.0
H507 H 0.0789 0.30631 0.32459 0.0
H508 H 0.2787 0.41389 0.38028 0.0
H509 H 0.1899 0.30525 0.31289 0.0
H510 H 0.11792 0.33084 0.32885 0.0
H511 H 0.18047 0.26959 0.3028 0.0
H512 H 0.2394 0.45013 0.39237 0.0
H513 H 0.06575 0.26891 0.31689 0.0
H514 H 0.07447 0.24014 0.31021 0.0
H515 H 0.19935 0.43784 0.39447 0.0
H516 H 0.10219 0.22999 0.30449 0.0
N517 N 0.12726 0.30752 0.32433 0.0
C518 C 0.11265 0.31458 0.32568 0.0
C519 C 0.08297 0.27951 0.31909 0.0
C520 C 0.09799 0.27251 0.31717 0.0
C521 C 0.09036 0.30066 0.32329 0.0
C522 C 0.12028 0.28715 0.31976 0.0
H523 H 0.14184 0.24099 0.3014 0.0
N524 N 0.157 0.29674 0.31775 0.0
C525 C 0.16772 0.2727 0.30666 0.0
C526 C 0.13575 0.28151 0.31641 0.0
C527 C 0.17299 0.2929 0.31234 0.0
C528 C 0.14591 0.25657 0.30595 0.0
C529 C 0.12956 0.261 0.31054 0.0
O530 O 0.18122 0.33802 0.3052 0.0
O531 O 0.18945 0.35268 0.34298 0.0
O532 O 0.17987 0.3752 0.35372 0.0
O533 O 0.15576 0.35402 0.33332 0.0
O534 O 0.19921 0.34088 0.32437 0.0
O535 O 0.15398 0.34276 0.30927 0.0
O536 O 0.16403 0.34152 0.39057 0.0
O537 O 0.1561 0.32721 0.35284 0.0
O538 O 0.1668 0.30536 0.34187 0.0
O539 O 0.19055 0.32676 0.36243 0.0
O540 O 0.14598 0.33877 0.37118 0.0
O541 O 0.19158 0.33726 0.38638 0.0
C542 C 0.20615 0.35429 0.3362 0.0
C543 C 0.16018 0.33596 0.28224 0.0
C544 C 0.16138 0.34188 0.25281 0.0
C545 C 0.16912 0.34944 0.26869 0.0
C546 C 0.1448 0.32055 0.2508 0.0
C547 C 0.14352 0.3149 0.27984 0.0
C548 C 0.13595 0.30724 0.26422 0.0
C549 C 0.16621 0.37214 0.34163 0.0
C550 C 0.16832 0.34398 0.29877 0.0
C551 C 0.10732 0.24591 0.30884 0.0
C552 C 0.09154 0.25169 0.3121 0.0
C553 C 0.13919 0.32524 0.35945 0.0
C554 C 0.18494 0.34318 0.41352 0.0
C555 C 0.17689 0.32892 0.42668 0.0
C556 C 0.18453 0.33592 0.44266 0.0
C557 C 0.20016 0.35747 0.4452 0.0
C558 C 0.20057 0.36451 0.41642 0.0
C559 C 0.20808 0.3716 0.43217 0.0
C560 C 0.18063 0.30875 0.35393 0.0
C561 C 0.17704 0.33561 0.39687 0.0
H562 H 0.18182 0.36581 0.27056 0.0
H563 H 0.13878 0.31403 0.2388 0.0
H564 H 0.13632 0.30436 0.29001 0.0
H565 H 0.12317 0.2909 0.2625 0.0
H566 H 0.16496 0.31237 0.42444 0.0
H567 H 0.2061 0.36349 0.45733 0.0
H568 H 0.207 0.37569 0.40656 0.0
H569 H 0.22008 0.38813 0.43428 0.0
Tb570 Tb 0.6927 0.83357 0.32994 0.0
C571 C 0.61678 0.80932 0.37669 0.0
C572 C 0.60647 0.83617 0.37312 0.0
C573 C 0.57916 0.80028 0.38088 0.0
C574 C 0.62228 0.82979 0.37264 0.0
C575 C 0.59528 0.7944 0.38122 0.0
C576 C 0.58475 0.82115 0.37684 0.0
C577 C 0.60778 0.76972 0.38743 0.0
N578 N 0.6329 0.80442 0.37703 0.0
C579 C 0.6289 0.78517 0.38295 0.0
C580 C 0.59083 0.77425 0.38637 0.0
Tb581 Tb 0.66679 0.8304 0.36875 0.0
N582 N 0.64346 0.84378 0.36926 0.0
C583 C 0.6502 0.86491 0.36743 0.0
C584 C 0.61311 0.85755 0.37036 0.0
C585 C 0.63513 0.87204 0.36777 0.0
H586 H 0.64185 0.78146 0.38371 0.0
H587 H 0.64052 0.8887 0.36592 0.0
H588 H 0.5723 0.82567 0.37705 0.0
H589 H 0.60459 0.75433 0.39169 0.0
H590 H 0.66709 0.87637 0.36528 0.0
H591 H 0.71873 0.77517 0.33421 0.0
H592 H 0.60148 0.86312 0.3706 0.0
H593 H 0.7175 0.88189 0.314 0.0
H594 H 0.69228 0.78762 0.33442 0.0
H595 H 0.75457 0.9085 0.30519 0.0
H596 H 0.56248 0.78898 0.38415 0.0
H597 H 0.75771 0.80044 0.32897 0.0
H598 H 0.78682 0.83752 0.32152 0.0
H599 H 0.5745 0.7623 0.38992 0.0
H600 H 0.79661 0.8739 0.31347 0.0
N601 N 0.71592 0.82004 0.32975 0.0
C602 C 0.70914 0.79896 0.33204 0.0
C603 C 0.74613 0.80607 0.32904 0.0
C604 C 0.75278 0.82733 0.32573 0.0
C605 C 0.72415 0.79176 0.33196 0.0
C606 C 0.73704 0.83381 0.32604 0.0
H607 H 0.78457 0.90042 0.30703 0.0
N608 N 0.72647 0.8591 0.32113 0.0
C609 C 0.75143 0.89328 0.30983 0.0
C610 C 0.74252 0.85411 0.32151 0.0
C611 C 0.73042 0.87812 0.31479 0.0
C612 C 0.76833 0.88869 0.31093 0.0
C613 C 0.76392 0.86876 0.31659 0.0
O614 O 0.68552 0.83976 0.30638 0.0
O615 O 0.66724 0.83523 0.34295 0.0
O616 O 0.64344 0.80385 0.35372 0.0
O617 O 0.66723 0.8006 0.33593 0.0
O618 O 0.68046 0.85533 0.32388 0.0
O619 O 0.68074 0.80889 0.31265 0.0
O620 O 0.67391 0.82381 0.39218 0.0
O621 O 0.69251 0.8291 0.3558 0.0
O622 O 0.71592 0.86071 0.34457 0.0
O623 O 0.69227 0.86344 0.36293 0.0
O624 O 0.67905 0.80863 0.37462 0.0
O625 O 0.67814 0.85462 0.38644 0.0
C626 C 0.66579 0.84923 0.33494 0.0
C627 C 0.68989 0.82005 0.28541 0.0
C628 C 0.68664 0.81619 0.25586 0.0
C629 C 0.67812 0.81745 0.27101 0.0
C630 C 0.70726 0.81778 0.25534 0.0
C631 C 0.7104 0.82158 0.28464 0.0
C632 C 0.71905 0.8205 0.26966 0.0
C633 C 0.64783 0.79296 0.34292 0.0
C634 C 0.68032 0.8209 0.30106 0.0
C635 C 0.77999 0.86281 0.31704 0.0
C636 C 0.77443 0.84211 0.32162 0.0
C637 C 0.69401 0.8151 0.36376 0.0
C638 C 0.66907 0.84267 0.41354 0.0
C639 C 0.68169 0.84733 0.42775 0.0
C640 C 0.67274 0.8473 0.44305 0.0
C641 C 0.65089 0.84249 0.44385 0.0
C642 C 0.64739 0.83806 0.4146 0.0
C643 C 0.63836 0.83796 0.42969 0.0
C644 C 0.71151 0.87138 0.35559 0.0
C645 C 0.6788 0.84246 0.39781 0.0
H646 H 0.66214 0.816 0.27165 0.0
H647 H 0.71436 0.8171 0.24384 0.0
H648 H 0.71967 0.82345 0.29557 0.0
H649 H 0.7349 0.82173 0.26915 0.0
H650 H 0.69854 0.85119 0.42681 0.0
H651 H 0.64336 0.84197 0.45543 0.0
H652 H 0.63745 0.83454 0.40383 0.0
H653 H 0.62157 0.83427 0.43044 0.0
Tb654 Tb 0.19562 0.84459 0.36821 0.0
C655 C 0.15264 0.87383 0.31805 0.0
C656 C 0.11465 0.84651 0.31708 0.0
C657 C 0.12516 0.88314 0.31086 0.0
C658 C 0.13668 0.85291 0.32013 0.0
C659 C 0.14718 0.88915 0.31306 0.0
C660 C 0.10892 0.86182 0.31279 0.0
C661 C 0.18568 0.91449 0.31095 0.0
N662 N 0.17371 0.87878 0.31977 0.0
C663 C 0.19026 0.89861 0.31565 0.0
C664 C 0.16404 0.90981 0.30983 0.0
Tb665 Tb 0.17962 0.85183 0.32782 0.0
N666 N 0.14297 0.83861 0.32399 0.0
C667 C 0.12795 0.81734 0.3242 0.0
C668 C 0.09917 0.82485 0.31784 0.0
C669 C 0.10588 0.8102 0.32132 0.0
H670 H 0.20703 0.90239 0.31649 0.0
H671 H 0.09407 0.79338 0.32176 0.0
H672 H 0.09205 0.85725 0.31055 0.0
H673 H 0.19883 0.93029 0.30813 0.0
H674 H 0.13273 0.80571 0.32683 0.0
H675 H 0.28123 0.90356 0.37282 0.0
H676 H 0.08209 0.81923 0.31544 0.0
H677 H 0.16873 0.79473 0.381 0.0
H678 H 0.2425 0.89084 0.36787 0.0
H679 H 0.17723 0.76743 0.39044 0.0
H680 H 0.12058 0.89469 0.30715 0.0
H681 H 0.29344 0.87822 0.38027 0.0
H682 H 0.28387 0.84051 0.38598 0.0
H683 H 0.16053 0.92207 0.30602 0.0
H684 H 0.25551 0.80326 0.39059 0.0
N685 N 0.23243 0.85811 0.37167 0.0
C686 C 0.24737 0.87937 0.37087 0.0
C687 C 0.27637 0.87237 0.37769 0.0
C688 C 0.26102 0.85075 0.37898 0.0
C689 C 0.26951 0.88675 0.37365 0.0
C690 C 0.2389 0.8441 0.37602 0.0
H691 H 0.21562 0.77591 0.39254 0.0
N692 N 0.20196 0.81827 0.3772 0.0
C693 C 0.19029 0.78309 0.38717 0.0
C694 C 0.22306 0.82337 0.37886 0.0
C695 C 0.18555 0.79863 0.38185 0.0
C696 C 0.21197 0.78791 0.38828 0.0
C697 C 0.22871 0.80839 0.3844 0.0
O698 O 0.17879 0.83597 0.39054 0.0
O699 O 0.17071 0.8443 0.35293 0.0
O700 O 0.1805 0.87644 0.34359 0.0
O701 O 0.20483 0.87803 0.3634 0.0
O702 O 0.16039 0.82223 0.37076 0.0
O703 O 0.20564 0.86764 0.38674 0.0
O704 O 0.19713 0.86089 0.30585 0.0
O705 O 0.20437 0.85154 0.34299 0.0
O706 O 0.19352 0.81903 0.35296 0.0
O707 O 0.17043 0.81831 0.33231 0.0
O708 O 0.21488 0.87411 0.32552 0.0
O709 O 0.16902 0.82972 0.30851 0.0
C710 C 0.15372 0.82943 0.35919 0.0
C711 C 0.19993 0.85432 0.41354 0.0
C712 C 0.19853 0.85837 0.44297 0.0
C713 C 0.19023 0.85775 0.42725 0.0
C714 C 0.21646 0.85519 0.44476 0.0
C715 C 0.21782 0.85126 0.41564 0.0
C716 C 0.22597 0.85161 0.43116 0.0
C717 C 0.19433 0.88629 0.35568 0.0
C718 C 0.19153 0.85445 0.39715 0.0
C719 C 0.25079 0.81456 0.38646 0.0
C720 C 0.26693 0.83576 0.38382 0.0
C721 C 0.22145 0.86636 0.33676 0.0
C722 C 0.17653 0.84475 0.28217 0.0
C723 C 0.18308 0.83757 0.26857 0.0
C724 C 0.17682 0.83983 0.2527 0.0
C725 C 0.16392 0.84945 0.25079 0.0
C726 C 0.16345 0.85397 0.27989 0.0
C727 C 0.1572 0.85631 0.2643 0.0
C728 C 0.18007 0.80954 0.34057 0.0
C729 C 0.1839 0.84302 0.29859 0.0
H730 H 0.17656 0.86038 0.42564 0.0
H731 H 0.22303 0.85529 0.4567 0.0
H732 H 0.22561 0.84875 0.40532 0.0
H733 H 0.23976 0.84919 0.43266 0.0
H734 H 0.19293 0.83015 0.27041 0.0
H735 H 0.15924 0.85202 0.23882 0.0
H736 H 0.15818 0.85952 0.29009 0.0
H737 H 0.14728 0.86366 0.26267 0.0
Tb738 Tb 0.83054 0.66227 0.66301 0.0
C739 C 0.87399 0.73228 0.71507 0.0
C740 C 0.91215 0.74266 0.71509 0.0
C741 C 0.90122 0.76832 0.72277 0.0
C742 C 0.89012 0.72738 0.71223 0.0
C743 C 0.87924 0.75266 0.7207 0.0
C744 C 0.91766 0.76331 0.71998 0.0
C745 C 0.84068 0.73986 0.72329 0.0
N746 N 0.85301 0.71657 0.71322 0.0
C747 C 0.83633 0.71985 0.71781 0.0
C748 C 0.86223 0.75643 0.72456 0.0
Tb749 Tb 0.84743 0.68442 0.7038 0.0
N750 N 0.88404 0.70719 0.70769 0.0
C751 C 0.89928 0.70089 0.70679 0.0
C752 C 0.92786 0.7365 0.71347 0.0
C753 C 0.92136 0.71546 0.70948 0.0
H754 H 0.81961 0.70722 0.71683 0.0
H755 H 0.93334 0.71042 0.70845 0.0
H756 H 0.93453 0.77534 0.72207 0.0
H757 H 0.82741 0.74249 0.72653 0.0
H758 H 0.89465 0.68474 0.70368 0.0
H759 H 0.74452 0.63689 0.66108 0.0
H760 H 0.94495 0.74773 0.71567 0.0
H761 H 0.8571 0.63907 0.64841 0.0
H762 H 0.78358 0.66266 0.66388 0.0
H763 H 0.84844 0.60344 0.63883 0.0
H764 H 0.90562 0.78414 0.72695 0.0
H765 H 0.73213 0.59912 0.65506 0.0
H766 H 0.74191 0.57111 0.64813 0.0
H767 H 0.86556 0.77188 0.7289 0.0
H768 H 0.77029 0.56198 0.64192 0.0
N769 N 0.79367 0.6398 0.65992 0.0
C770 C 0.77863 0.64633 0.66117 0.0
C771 C 0.7494 0.6104 0.65626 0.0
C772 C 0.76489 0.60407 0.65395 0.0
C773 C 0.75633 0.63171 0.65961 0.0
C774 C 0.78714 0.61939 0.65577 0.0
H775 H 0.81013 0.57407 0.6381 0.0
N776 N 0.82405 0.6299 0.65344 0.0
C777 C 0.83548 0.60623 0.64268 0.0
C778 C 0.80294 0.61424 0.65236 0.0
C779 C 0.84031 0.62643 0.64807 0.0
C780 C 0.81384 0.58968 0.64233 0.0
C781 C 0.7972 0.59366 0.64695 0.0
O782 O 0.84801 0.67184 0.641 0.0
O783 O 0.85566 0.6859 0.67844 0.0
O784 O 0.84588 0.70844 0.6888 0.0
O785 O 0.82164 0.68676 0.66863 0.0
O786 O 0.86558 0.67408 0.65999 0.0
O787 O 0.81946 0.67461 0.6445 0.0
O788 O 0.83026 0.67535 0.72597 0.0
O789 O 0.82245 0.66067 0.68839 0.0
O790 O 0.83316 0.63858 0.67764 0.0
O791 O 0.85681 0.66025 0.69817 0.0
O792 O 0.81236 0.6725 0.70664 0.0
O793 O 0.85795 0.67125 0.72206 0.0
C794 C 0.87243 0.68758 0.67175 0.0
C795 C 0.82726 0.66871 0.61764 0.0
C796 C 0.83057 0.67459 0.5882 0.0
C797 C 0.8368 0.68229 0.60424 0.0
C798 C 0.81457 0.65314 0.58585 0.0
C799 C 0.81124 0.64745 0.61496 0.0
C800 C 0.80496 0.63974 0.59914 0.0
C801 C 0.83215 0.70509 0.67667 0.0
C802 C 0.83449 0.67679 0.63429 0.0
C803 C 0.77507 0.57798 0.64588 0.0
C804 C 0.75892 0.58318 0.6494 0.0
C805 C 0.80559 0.65886 0.69499 0.0
C806 C 0.8511 0.67742 0.74908 0.0
C807 C 0.84313 0.66329 0.76234 0.0
C808 C 0.85058 0.67056 0.77831 0.0
C809 C 0.86593 0.69222 0.78073 0.0
C810 C 0.86647 0.69885 0.75187 0.0
C811 C 0.87379 0.7062 0.7676 0.0
C812 C 0.84693 0.64213 0.68979 0.0
C813 C 0.84332 0.66962 0.73244 0.0
H814 H 0.84927 0.69872 0.60628 0.0
H815 H 0.80922 0.64679 0.5737 0.0
H816 H 0.80358 0.63682 0.62504 0.0
H817 H 0.79257 0.6233 0.59718 0.0
H818 H 0.83141 0.64666 0.76017 0.0
H819 H 0.8717 0.69847 0.79284 0.0
H820 H 0.87282 0.70992 0.74192 0.0
H821 H 0.88558 0.72281 0.76963 0.0
Tb822 Tb 0.35815 0.16859 0.66345 0.0
C823 C 0.28535 0.14008 0.71374 0.0
C824 C 0.27508 0.16721 0.71387 0.0
C825 C 0.24843 0.13085 0.72108 0.0
C826 C 0.29058 0.16081 0.71101 0.0
C827 C 0.26436 0.1249 0.71912 0.0
C828 C 0.25382 0.15201 0.71854 0.0
C829 C 0.27722 0.0999 0.72203 0.0
N830 N 0.30142 0.13521 0.71225 0.0
C831 C 0.29789 0.11562 0.7169 0.0
C832 C 0.2603 0.10447 0.72298 0.0
Tb833 Tb 0.33469 0.16191 0.7036 0.0
N834 N 0.31142 0.17505 0.70688 0.0
C835 C 0.31808 0.19627 0.70626 0.0
C836 C 0.28165 0.1888 0.71259 0.0
C837 C 0.30328 0.2034 0.70888 0.0
H838 H 0.31084 0.11191 0.71619 0.0
H839 H 0.30861 0.22018 0.70807 0.0
H840 H 0.2416 0.15657 0.72064 0.0
H841 H 0.27439 0.08428 0.72531 0.0
H842 H 0.33472 0.20788 0.70347 0.0
H843 H 0.38242 0.1089 0.65986 0.0
H844 H 0.27028 0.19441 0.71479 0.0
H845 H 0.38277 0.21821 0.65012 0.0
H846 H 0.35704 0.12205 0.66441 0.0
H847 H 0.41944 0.24515 0.64077 0.0
H848 H 0.23214 0.1194 0.72509 0.0
H849 H 0.42072 0.13385 0.65255 0.0
H850 H 0.45014 0.17141 0.6468 0.0
H851 H 0.24438 0.09233 0.72712 0.0
H852 H 0.46039 0.20872 0.64189 0.0
N853 N 0.38079 0.15466 0.66049 0.0
C854 C 0.37372 0.13336 0.66147 0.0
C855 C 0.40977 0.1399 0.65494 0.0
C856 C 0.41683 0.16158 0.65351 0.0
C857 C 0.38811 0.12574 0.6589 0.0
C858 C 0.4017 0.16848 0.65624 0.0
H859 H 0.44893 0.23632 0.63934 0.0
N860 N 0.39164 0.19462 0.65462 0.0
C861 C 0.41629 0.22951 0.64432 0.0
C862 C 0.40737 0.18928 0.65327 0.0
C863 C 0.39553 0.21419 0.64959 0.0
C864 C 0.43292 0.2245 0.64359 0.0
C865 C 0.42845 0.20403 0.64777 0.0
O866 O 0.34968 0.17716 0.64129 0.0
O867 O 0.33322 0.1687 0.67835 0.0
O868 O 0.3103 0.13658 0.68823 0.0
O869 O 0.33266 0.13517 0.66807 0.0
O870 O 0.34589 0.19097 0.66063 0.0
O871 O 0.34591 0.14605 0.64449 0.0
O872 O 0.34258 0.15354 0.72609 0.0
O873 O 0.35972 0.16196 0.68872 0.0
O874 O 0.38226 0.19452 0.67855 0.0
O875 O 0.35972 0.19545 0.69884 0.0
O876 O 0.34725 0.13979 0.70645 0.0
O877 O 0.34763 0.18502 0.72213 0.0
C878 C 0.33152 0.18355 0.67195 0.0
C879 C 0.3537 0.16054 0.618 0.0
C880 C 0.34911 0.15939 0.58851 0.0
C881 C 0.34067 0.15765 0.60428 0.0
C882 C 0.37082 0.16413 0.58667 0.0
C883 C 0.37522 0.16498 0.61591 0.0
C884 C 0.38373 0.16684 0.60031 0.0
C885 C 0.31386 0.12676 0.67604 0.0
C886 C 0.34464 0.15915 0.63433 0.0
C887 C 0.44404 0.1976 0.64598 0.0
C888 C 0.4382 0.17636 0.64877 0.0
C889 C 0.36168 0.14729 0.69518 0.0
C890 C 0.33968 0.17174 0.7489 0.0
C891 C 0.3538 0.17864 0.76237 0.0
C892 C 0.34588 0.17868 0.77808 0.0
C893 C 0.32355 0.17162 0.78006 0.0
C894 C 0.31753 0.16486 0.75116 0.0
C895 C 0.30952 0.16478 0.76666 0.0
C896 C 0.37844 0.20419 0.69073 0.0
C897 C 0.3484 0.17198 0.73263 0.0
H898 H 0.32404 0.15426 0.60589 0.0
H899 H 0.37767 0.16534 0.57468 0.0
H900 H 0.38542 0.16696 0.62624 0.0
H901 H 0.40037 0.17028 0.59881 0.0
H902 H 0.37099 0.18422 0.76057 0.0
H903 H 0.31685 0.1711 0.792 0.0
H904 H 0.30642 0.15956 0.74102 0.0
H905 H 0.29236 0.15935 0.7683 0.0
Tb906 Tb 0.86327 0.1786 0.70113 0.0
C907 C 0.81805 0.20502 0.65034 0.0
C908 C 0.77989 0.17845 0.65222 0.0
C909 C 0.79045 0.21448 0.64398 0.0
C910 C 0.80208 0.18459 0.65394 0.0
C911 C 0.81251 0.22013 0.64495 0.0
C912 C 0.77415 0.19365 0.64763 0.0
C913 C 0.85084 0.24454 0.64056 0.0
N914 N 0.8391 0.2097 0.6513 0.0
C915 C 0.85548 0.22894 0.64592 0.0
C916 C 0.82928 0.24022 0.64026 0.0
Tb917 Tb 0.84523 0.18343 0.66078 0.0
N918 N 0.80838 0.17038 0.65809 0.0
C919 C 0.79314 0.14928 0.65947 0.0
C920 C 0.7642 0.15711 0.65464 0.0
C921 C 0.77089 0.14241 0.65802 0.0
H922 H 0.87221 0.23251 0.64621 0.0
H923 H 0.75892 0.12577 0.65959 0.0
H924 H 0.75718 0.18932 0.64642 0.0
H925 H 0.8639 0.2599 0.63668 0.0
H926 H 0.7979 0.13765 0.66219 0.0
H927 H 0.94872 0.23856 0.70333 0.0
H928 H 0.74697 0.15175 0.65352 0.0
H929 H 0.83756 0.12941 0.71539 0.0
H930 H 0.90972 0.22514 0.69912 0.0
H931 H 0.84699 0.10284 0.72509 0.0
H932 H 0.78583 0.22591 0.64002 0.0
H933 H 0.96175 0.21394 0.71107 0.0
H934 H 0.95296 0.1766 0.71746 0.0
H935 H 0.82572 0.2523 0.63604 0.0
H936 H 0.92522 0.13941 0.72302 0.0
N937 N 0.90026 0.19272 0.70372 0.0
C938 C 0.91494 0.21398 0.70227 0.0
C939 C 0.94453 0.20777 0.70885 0.0
C940 C 0.92948 0.18613 0.7107 0.0
C941 C 0.93722 0.22175 0.70464 0.0
C942 C 0.90719 0.17908 0.70817 0.0
H943 H 0.88559 0.1118 0.72616 0.0
N944 N 0.87043 0.15289 0.7103 0.0
C945 C 0.85973 0.11836 0.72122 0.0
C946 C 0.89168 0.15833 0.71146 0.0
C947 C 0.85445 0.13348 0.71575 0.0
C948 C 0.88153 0.12345 0.72174 0.0
C949 C 0.89787 0.1438 0.71717 0.0
O950 O 0.84634 0.17098 0.72336 0.0
O951 O 0.83772 0.17777 0.6863 0.0
O952 O 0.84757 0.20959 0.6754 0.0
O953 O 0.87177 0.21171 0.69562 0.0
O954 O 0.8283 0.15627 0.70464 0.0
O955 O 0.87485 0.20164 0.7198 0.0
O956 O 0.8614 0.19047 0.63821 0.0
O957 O 0.87073 0.18423 0.67566 0.0
O958 O 0.86047 0.15223 0.68649 0.0
O959 O 0.83595 0.15021 0.66656 0.0
O960 O 0.88036 0.20542 0.65725 0.0
O961 O 0.83359 0.1596 0.64275 0.0
C962 C 0.82111 0.16319 0.69322 0.0
C963 C 0.86765 0.18776 0.74653 0.0
C964 C 0.86503 0.19024 0.77608 0.0
C965 C 0.85879 0.19239 0.76018 0.0
C966 C 0.88022 0.18324 0.77797 0.0
C967 C 0.88311 0.18133 0.74878 0.0
C968 C 0.88928 0.17901 0.76441 0.0
C969 C 0.86143 0.2198 0.68741 0.0
C970 C 0.86007 0.18905 0.7301 0.0
C971 C 0.9201 0.15037 0.71879 0.0
C972 C 0.93589 0.17154 0.71563 0.0
C973 C 0.88749 0.19857 0.66876 0.0
C974 C 0.83928 0.17205 0.61567 0.0
C975 C 0.8478 0.16702 0.60203 0.0
C976 C 0.83985 0.167 0.58626 0.0
C977 C 0.82336 0.17229 0.58443 0.0
C978 C 0.82275 0.1771 0.61352 0.0
C979 C 0.81489 0.17727 0.59798 0.0
C980 C 0.84621 0.14198 0.67469 0.0
C981 C 0.84778 0.17195 0.63202 0.0
H982 H 0.8472 0.19781 0.75832 0.0
H983 H 0.88501 0.18078 0.78992 0.0
H984 H 0.89033 0.17799 0.73853 0.0
H985 H 0.90103 0.17376 0.76603 0.0
H986 H 0.86038 0.16284 0.60374 0.0
H987 H 0.81715 0.17284 0.5725 0.0
H988 H 0.81587 0.18086 0.6238 0.0
H989 H 0.80221 0.1813 0.59643 0.0
H990 H 0.30977 0.83768 0.09448 0.0
H991 H 0.34252 0.8673 0.08312 0.0
H992 H 0.31699 0.84695 0.03462 0.0
H993 H 0.28323 0.81829 0.04594 0.0
H994 H 0.37288 0.86919 0.06487 0.0
H995 H 0.33405 0.90779 0.03128 0.0
H996 H 0.31909 0.88619 0.04524 0.0
H997 H 0.32442 0.88092 0.02483 0.0
C998 C 0.31077 0.8397 0.0814 0.0
C999 C 0.2935 0.82563 0.0712 0.0
C1000 C 0.32973 0.85657 0.07489 0.0
C1001 C 0.33216 0.85972 0.05799 0.0
C1002 C 0.31533 0.84531 0.04771 0.0
H1003 H 0.4637 0.94988 0.02222 0.0
H1004 H 0.4292 0.91724 0.02698 0.0
C1005 C 0.29612 0.82862 0.05423 0.0
C1006 C 0.35249 0.87794 0.05134 0.0
H1007 H 0.37193 0.92205 0.02727 0.0
C1008 C 0.37264 0.88075 0.05665 0.0
C1009 C 0.35226 0.89318 0.04071 0.0
C1010 C 0.33131 0.89203 0.0353 0.0
C1011 C 0.39246 0.89851 0.052 0.0
C1012 C 0.39225 0.91351 0.0411 0.0
C1013 C 0.37213 0.91048 0.0355 0.0
C1014 C 0.41257 0.93324 0.03633 0.0
C1015 C 0.41329 0.90142 0.05946 0.0
C1016 C 0.41444 0.9532 0.03907 0.0
C1017 C 0.43393 0.9719 0.03573 0.0
C1018 C 0.45192 0.97106 0.0295 0.0
C1019 C 0.45 0.95111 0.02659 0.0
C1020 C 0.43035 0.93239 0.02961 0.0
H1021 H 0.41013 0.89205 0.07082 0.0
H1022 H 0.42129 0.89581 0.05074 0.0
H1023 H 0.42478 0.91839 0.06235 0.0
H1024 H 0.40101 0.95434 0.04426 0.0
H1025 H 0.43509 0.98708 0.0383 0.0
H1026 H 0.16999 0.43392 0.07532 0.0
H1027 H 0.13998 0.43825 0.06523 0.0
H1028 H 0.18573 0.50251 0.05078 0.0
H1029 H 0.21597 0.49818 0.06078 0.0
H1030 H 0.12846 0.46629 0.07655 0.0
H1031 H 0.14711 0.48033 0.01063 0.0
H1032 H 0.16012 0.47003 0.02378 0.0
H1033 H 0.16901 0.49797 0.02384 0.0
C1034 C 0.17371 0.44895 0.0699 0.0
C1035 C 0.1954 0.46575 0.06895 0.0
C1036 C 0.15652 0.45138 0.06408 0.0
C1037 C 0.16051 0.47065 0.05711 0.0
C1038 C 0.1822 0.48734 0.05579 0.0
H1039 H 0.06932 0.5132 0.02769 0.0
H1040 H 0.10218 0.51132 0.03385 0.0
C1041 C 0.19949 0.48486 0.06155 0.0
C1042 C 0.14176 0.47349 0.05234 0.0
H1043 H 0.11795 0.48451 0.02037 0.0
C1044 C 0.12617 0.47021 0.06424 0.0
C1045 C 0.13879 0.47878 0.03631 0.0
C1046 C 0.15452 0.48181 0.02284 0.0
C1047 C 0.10776 0.472 0.06059 0.0
C1048 C 0.10458 0.47692 0.04453 0.0
C1049 C 0.12035 0.48063 0.03266 0.0
C1050 C 0.08475 0.47784 0.03986 0.0
C1051 C 0.09195 0.46884 0.07405 0.0
C1052 C 0.06402 0.45961 0.04095 0.0
C1053 C 0.04525 0.46063 0.0373 0.0
C1054 C 0.04682 0.47978 0.03215 0.0
C1055 C 0.06758 0.49805 0.03109 0.0
C1056 C 0.08638 0.49703 0.03472 0.0
H1057 H 0.09942 0.4706 0.08628 0.0
H1058 H 0.08605 0.48038 0.07301 0.0
H1059 H 0.07764 0.45256 0.07314 0.0
H1060 H 0.06235 0.44459 0.04475 0.0
H1061 H 0.02944 0.4464 0.03844 0.0
H1062 H 0.53399 0.71211 0.09206 0.0
H1063 H 0.52937 0.67914 0.08016 0.0
H1064 H 0.5717 0.71488 0.04049 0.0
H1065 H 0.5754 0.74774 0.052 0.0
H1066 H 0.53933 0.67952 0.02931 0.0
H1067 H 0.57278 0.65986 0.08312 0.0
H1068 H 0.54942 0.66199 0.08842 0.0
H1069 H 0.57373 0.68503 0.08112 0.0
C1070 C 0.54218 0.71283 0.08076 0.0
C1071 C 0.55513 0.73236 0.07296 0.0
C1072 C 0.53972 0.69406 0.07404 0.0
C1073 C 0.55071 0.69458 0.05968 0.0
C1074 C 0.56319 0.71408 0.05165 0.0
H1075 H 0.56591 0.58624 0.03364 0.0
H1076 H 0.57251 0.62146 0.04155 0.0
C1077 C 0.56529 0.73281 0.05819 0.0
C1078 C 0.54919 0.67482 0.05306 0.0
H1079 H 0.55423 0.63203 0.06359 0.0
C1080 C 0.54278 0.66922 0.03677 0.0
C1081 C 0.5542 0.66161 0.06263 0.0
C1082 C 0.56315 0.66756 0.07972 0.0
C1083 C 0.54067 0.65053 0.02993 0.0
C1084 C 0.54426 0.63662 0.03985 0.0
C1085 C 0.55119 0.6425 0.05601 0.0
C1086 C 0.54075 0.61579 0.03388 0.0
C1087 C 0.53504 0.64618 0.01208 0.0
C1088 C 0.52074 0.60084 0.02688 0.0
C1089 C 0.51712 0.58087 0.02204 0.0
C1090 C 0.53321 0.57523 0.02454 0.0
C1091 C 0.55318 0.59012 0.03161 0.0
C1092 C 0.55696 0.61025 0.03613 0.0
H1093 H 0.54042 0.66118 0.00525 0.0
H1094 H 0.54265 0.63754 0.00649 0.0
H1095 H 0.51708 0.63635 0.01069 0.0
H1096 H 0.50769 0.60439 0.02549 0.0
H1097 H 0.50145 0.56964 0.0168 0.0
H1098 H 0.80276 0.28662 0.96985 0.0
H1099 H 0.83226 0.3204 0.98063 0.0
H1100 H 0.87976 0.30787 0.95831 0.0
H1101 H 0.85053 0.27415 0.94764 0.0
H1102 H 0.86864 0.32893 1.00103 0.0
H1103 H 0.89497 0.36662 0.94032 0.0
H1104 H 0.86904 0.34283 0.94356 0.0
H1105 H 0.89354 0.3413 0.94213 0.0
C1106 C 0.81949 0.29098 0.96736 0.0
C1107 C 0.82427 0.27781 0.95769 0.0
C1108 C 0.83632 0.31031 0.97347 0.0
C1109 C 0.85817 0.31682 0.96999 0.0
C1110 C 0.863 0.3034 0.96081 0.0
H1111 H 0.98355 0.42918 0.98999 0.0
H1112 H 0.95389 0.39425 0.98145 0.0
C1113 C 0.84625 0.28413 0.9547 0.0
C1114 C 0.87602 0.33767 0.97585 0.0
H1115 H 0.91779 0.38528 0.9627 0.0
C1116 C 0.87933 0.34131 0.99267 0.0
C1117 C 0.88997 0.35376 0.96491 0.0
C1118 C 0.88665 0.35109 0.94672 0.0
C1119 C 0.89653 0.36047 0.99885 0.0
C1120 C 0.91052 0.37655 0.9879 0.0
C1121 C 0.90713 0.37291 0.97108 0.0
C1122 C 0.92856 0.39742 0.99358 0.0
C1123 C 0.89989 0.36313 0.01704 0.0
C1124 C 0.92415 0.41091 1.00308 0.0
C1125 C 0.94104 0.43085 0.00797 0.0
C1126 C 0.96272 0.4378 1.00341 0.0
C1127 C 0.96708 0.42432 0.99378 0.0
C1128 C 0.95015 0.40434 0.9889 0.0
H1129 H 0.89188 0.34755 0.02338 0.0
H1130 H 0.91751 0.37171 0.02019 0.0
H1131 H 0.89263 0.37257 0.0217 0.0
H1132 H 0.90758 0.40618 0.00648 0.0
H1133 H 0.93698 0.44095 0.01508 0.0
H1134 H 0.74312 0.57721 0.95364 0.0
H1135 H 0.70895 0.57325 0.96392 0.0
H1136 H 0.69 0.51016 0.98082 0.0
H1137 H 0.72434 0.51408 0.97059 0.0
H1138 H 0.6681 0.54411 0.95394 0.0
H1139 H 0.67604 0.53504 0.02028 0.0
H1140 H 0.6989 0.54459 0.00656 0.0
H1141 H 0.67946 0.51664 0.00772 0.0
C1142 C 0.73174 0.56249 0.9596 0.0
C1143 C 0.73646 0.54591 0.96119 0.0
C1144 C 0.71222 0.56029 0.96554 0.0
C1145 C 0.6969 0.54148 0.9733 0.0
C1146 C 0.70171 0.52501 0.97521 0.0
H1147 H 0.56294 0.49958 1.00441 0.0
H1148 H 0.59784 0.50152 0.99855 0.0
C1149 C 0.72134 0.52724 0.96931 0.0
C1150 C 0.67543 0.53881 0.97835 0.0
H1151 H 0.64192 0.52978 0.01099 0.0
C1152 C 0.66245 0.54104 0.96644 0.0
C1153 C 0.66789 0.53463 0.99463 0.0
C1154 C 0.68135 0.53276 0.00809 0.0
C1155 C 0.64228 0.53925 0.97031 0.0
C1156 C 0.63492 0.53543 0.98661 0.0
C1157 C 0.64763 0.53279 0.99851 0.0
C1158 C 0.61426 0.53461 0.99144 0.0
C1159 C 0.62889 0.54125 0.95685 0.0
C1160 C 0.612 0.55265 0.98971 0.0
C1161 C 0.59215 0.55161 0.99317 0.0
C1162 C 0.57426 0.53263 0.99873 0.0
C1163 C 0.57658 0.5146 1.00061 0.0
C1164 C 0.59649 0.51565 0.99717 0.0
H1165 H 0.63404 0.53878 0.94465 0.0
H1166 H 0.61129 0.52959 0.95844 0.0
H1167 H 0.63099 0.55745 0.95716 0.0
H1168 H 0.62553 0.5675 0.98545 0.0
H1169 H 0.59072 0.56566 0.99143 0.0
H1170 H 0.50437 0.21285 0.97193 0.0
H1171 H 0.50889 0.18387 0.98281 0.0
H1172 H 0.44832 0.13793 0.9603 0.0
H1173 H 0.44344 0.16668 0.94962 0.0
H1174 H 0.47916 0.14816 1.00322 0.0
H1175 H 0.49446 0.12317 0.943 0.0
H1176 H 0.49672 0.14879 0.94636 0.0
H1177 H 0.47036 0.12544 0.94413 0.0
C1178 C 0.49191 0.19658 0.96942 0.0
C1179 C 0.47364 0.19208 0.95977 0.0
C1180 C 0.49457 0.18007 0.97559 0.0
C1181 C 0.4791 0.15883 0.97214 0.0
C1182 C 0.46064 0.15425 0.96283 0.0
H1183 H 0.46662 0.03618 0.99095 0.0
H1184 H 0.46149 0.06574 0.9828 0.0
C1185 C 0.45793 0.17071 0.95669 0.0
C1186 C 0.48225 0.14137 0.97817 0.0
H1187 H 0.49005 0.10093 0.96539 0.0
C1188 C 0.48165 0.13787 0.995 0.0
C1189 C 0.48545 0.12801 0.96736 0.0
C1190 C 0.48698 0.13157 0.94921 0.0
C1191 C 0.48367 0.12096 1.00131 0.0
C1192 C 0.4868 0.10754 0.99048 0.0
C1193 C 0.48756 0.11119 0.97366 0.0
C1194 C 0.48936 0.08959 0.99626 0.0
C1195 C 0.48187 0.11729 0.01945 0.0
C1196 C 0.50678 0.09322 0.00649 0.0
C1197 C 0.50974 0.07635 0.01121 0.0
C1198 C 0.49541 0.05555 0.00568 0.0
C1199 C 0.47795 0.05198 0.99545 0.0
C1200 C 0.47497 0.06885 0.99078 0.0
H1201 H 0.4737 0.12513 0.02548 0.0
H1202 H 0.47268 0.10003 0.02228 0.0
H1203 H 0.49847 0.12406 0.02474 0.0
H1204 H 0.51839 0.10917 0.01054 0.0
H1205 H 0.52357 0.07973 0.01888 0.0
H1206 H 0.72214 0.16677 0.95079 0.0
H1207 H 0.68499 0.13887 0.95773 0.0
H1208 H 0.6964 0.15975 0.0078 0.0
H1209 H 0.73356 0.18754 1.00089 0.0
H1210 H 0.6793 0.11608 1.00409 0.0
H1211 H 0.63091 0.14329 0.96891 0.0
H1212 H 0.65105 0.14116 0.95708 0.0
H1213 H 0.65954 0.16039 0.97329 0.0
C1214 C 0.71656 0.16548 0.96322 0.0
C1215 C 0.73065 0.17919 0.97531 0.0
C1216 C 0.69535 0.14965 0.96717 0.0
C1217 C 0.68783 0.14737 0.98326 0.0
C1218 C 0.70183 0.16128 0.9953 0.0
H1219 H 0.55123 0.06233 0.00874 0.0
H1220 H 0.58765 0.09341 0.00577 0.0
C1221 C 0.72302 0.17713 0.99135 0.0
C1222 C 0.66588 0.1297 0.9877 0.0
H1223 H 0.61158 0.10808 0.97947 0.0
C1224 C 0.66446 0.11442 0.99882 0.0
C1225 C 0.64654 0.12765 0.98095 0.0
C1226 C 0.64698 0.14409 0.96951 0.0
C1227 C 0.64428 0.09683 1.00306 0.0
C1228 C 0.62492 0.09428 0.99582 0.0
C1229 C 0.62635 0.10991 0.98501 0.0
C1230 C 0.60313 0.07529 0.99887 0.0
C1231 C 0.64411 0.08128 0.01529 0.0
C1232 C 0.59956 0.05471 0.99598 0.0
C1233 C 0.57886 0.03693 0.99808 0.0
C1234 C 0.56125 0.03933 1.00305 0.0
C1235 C 0.56465 0.05991 0.00558 0.0
C1236 C 0.58543 0.07771 1.00367 0.0
H1237 H 0.65812 0.08919 0.02385 0.0
H1238 H 0.62886 0.07369 0.02243 0.0
H1239 H 0.64558 0.06866 0.00876 0.0
H1240 H 0.61267 0.05237 0.99171 0.0
H1241 H 0.57651 0.02126 0.99558 0.0
H1242 H 0.81367 0.51288 0.98307 0.0
H1243 H 0.84302 0.50471 0.98801 0.0
H1244 H 0.8907 0.56851 0.97396 0.0
H1245 H 0.86155 0.57667 0.96902 0.0
H1246 H 0.87714 0.50791 0.9666 0.0
H1247 H 0.91024 0.56163 0.02012 0.0
H1248 H 0.88336 0.5529 0.01196 0.0
H1249 H 0.90699 0.57392 1.00218 0.0
C1250 C 0.83042 0.52503 0.98086 0.0
C1251 C 0.83531 0.54536 0.97559 0.0
C1252 C 0.84715 0.52039 0.98373 0.0
C1253 C 0.86909 0.5361 0.98159 0.0
C1254 C 0.87394 0.55624 0.97595 0.0
H1255 H 0.99713 0.55095 0.99349 0.0
H1256 H 0.96498 0.55465 0.98874 0.0
C1257 C 0.85725 0.56084 0.97302 0.0
C1258 C 0.88701 0.53165 0.98541 0.0
H1259 H 0.93184 0.54772 0.00972 0.0
C1260 C 0.88901 0.51647 0.97611 0.0
C1261 C 0.90246 0.54279 0.99785 0.0
C1262 C 0.90063 0.55859 0.00872 0.0
C1263 C 0.90652 0.51273 0.97849 0.0
C1264 C 0.92222 0.52418 0.99075 0.0
C1265 C 0.9199 0.53901 1.00028 0.0
C1266 C 0.9416 0.52162 0.99356 0.0
C1267 C 0.90848 0.49713 0.96746 0.0
C1268 C 0.93923 0.50184 0.99789 0.0
C1269 C 0.95762 0.49974 1.00058 0.0
C1270 C 0.97871 0.51747 0.99937 0.0
C1271 C 0.98105 0.53713 0.99481 0.0
C1272 C 0.9627 0.53924 0.99211 0.0
H1273 H 0.89848 0.4938 0.95624 0.0
H1274 H 0.9257 0.50316 0.96391 0.0
H1275 H 0.90264 0.48188 0.97401 0.0
H1276 H 0.92317 0.48806 0.99933 0.0
H1277 H 0.95528 0.48424 1.00355 0.0
H1278 H 0.44287 0.28228 0.96132 0.0
H1279 H 0.45195 0.31915 0.96648 0.0
H1280 H 0.50136 0.32652 1.00089 0.0
H1281 H 0.49228 0.28963 0.99575 0.0
H1282 H 0.45106 0.3372 0.9979 0.0
H1283 H 0.53303 0.37779 0.96924 0.0
H1284 H 0.51304 0.35038 0.96498 0.0
H1285 H 0.52833 0.35733 0.98366 0.0
C1286 C 0.45561 0.29181 0.97001 0.0
C1287 C 0.46671 0.28316 0.97834 0.0
C1288 C 0.4608 0.3128 0.97291 0.0
C1289 C 0.4774 0.32554 0.98398 0.0
C1290 C 0.48866 0.31699 0.99218 0.0
H1291 H 0.5337 0.45497 0.01887 0.0
H1292 H 0.52451 0.41844 0.01308 0.0
C1293 C 0.4834 0.29596 0.98933 0.0
C1294 C 0.48253 0.34761 0.98726 0.0
H1295 H 0.52266 0.39948 0.98382 0.0
C1296 C 0.46666 0.35086 0.99477 0.0
C1297 C 0.50294 0.3653 0.9832 0.0
C1298 C 0.5203 0.36265 0.97471 0.0
C1299 C 0.4708 0.37139 0.99863 0.0
C1300 C 0.49119 0.38913 0.99451 0.0
C1301 C 0.50704 0.38585 0.98695 0.0
C1302 C 0.4965 0.41124 0.99806 0.0
C1303 C 0.45353 0.37385 0.00749 0.0
C1304 C 0.48396 0.41941 0.99137 0.0
C1305 C 0.48897 0.44023 0.99485 0.0
C1306 C 0.50675 0.45332 0.00499 0.0
C1307 C 0.51959 0.44521 0.01134 0.0
C1308 C 0.51448 0.42437 0.00793 0.0
H1309 H 0.44161 0.35888 0.01362 0.0
H1310 H 0.46093 0.38673 0.01675 0.0
H1311 H 0.44446 0.37803 0.9986 0.0
H1312 H 0.47035 0.40973 0.98338 0.0
H1313 H 0.47887 0.44601 0.9896 0.0
H1314 H 0.17374 0.73048 0.07117 0.0
H1315 H 0.14488 0.6934 0.06705 0.0
H1316 H 0.18746 0.68302 0.03567 0.0
H1317 H 0.21636 0.72009 0.03983 0.0
H1318 H 0.12636 0.67477 0.03647 0.0
H1319 H 0.16317 0.63205 0.06707 0.0
H1320 H 0.17267 0.65991 0.07057 0.0
H1321 H 0.1805 0.65155 0.05245 0.0
C1322 C 0.17693 0.72019 0.06349 0.0
C1323 C 0.19711 0.72812 0.05563 0.0
C1324 C 0.16048 0.69907 0.06116 0.0
C1325 C 0.16407 0.68543 0.05114 0.0
C1326 C 0.18445 0.69318 0.04363 0.0
H1327 H 0.08698 0.55728 0.01413 0.0
H1328 H 0.11536 0.59325 0.02128 0.0
C1329 C 0.20087 0.71433 0.04593 0.0
C1330 C 0.1461 0.66348 0.04778 0.0
H1331 H 0.13142 0.61111 0.05113 0.0
C1332 C 0.12736 0.66082 0.03978 0.0
C1333 C 0.14752 0.64535 0.05205 0.0
C1334 C 0.16695 0.64725 0.06114 0.0
C1335 C 0.11022 0.64052 0.03554 0.0
C1336 C 0.11165 0.62236 0.03976 0.0
C1337 C 0.13033 0.62503 0.0479 0.0
C1338 C 0.09417 0.60047 0.03551 0.0
C1339 C 0.09108 0.63879 0.02611 0.0
C1340 C 0.07282 0.5924 0.04128 0.0
C1341 C 0.05641 0.57187 0.03699 0.0
C1342 C 0.06109 0.55895 0.02695 0.0
C1343 C 0.08263 0.56692 0.02154 0.0
C1344 C 0.09896 0.58746 0.02575 0.0
H1345 H 0.09511 0.65405 0.02015 0.0
H1346 H 0.08554 0.62621 0.01662 0.0
H1347 H 0.07733 0.63456 0.03457 0.0
H1348 H 0.06885 0.60195 0.04916 0.0
H1349 H 0.04009 0.56619 0.04154 0.0
H1350 H 0.29614 0.48034 0.03044 0.0
H1351 H 0.33387 0.4895 0.02482 0.0
H1352 H 0.33812 0.46639 0.07222 0.0
H1353 H 0.30041 0.45742 0.07792 0.0
H1354 H 0.37582 0.50451 0.06371 0.0
H1355 H 0.35092 0.44451 0.01418 0.0
H1356 H 0.34182 0.46342 0.01166 0.0
H1357 H 0.33163 0.44493 0.02828 0.0
C1358 C 0.30521 0.47738 0.03969 0.0
C1359 C 0.29529 0.46791 0.05454 0.0
C1360 C 0.32671 0.48249 0.03643 0.0
C1361 C 0.33872 0.47821 0.04794 0.0
C1362 C 0.32916 0.46969 0.06309 0.0
H1363 H 0.45079 0.46212 0.03563 0.0
H1364 H 0.41487 0.45854 0.0401 0.0
C1365 C 0.30765 0.46457 0.06635 0.0
C1366 C 0.36098 0.48206 0.04409 0.0
H1367 H 0.38875 0.46662 0.01863 0.0
C1368 C 0.37866 0.49628 0.05382 0.0
C1369 C 0.36468 0.47116 0.03127 0.0
C1370 C 0.34627 0.455 0.02081 0.0
C1371 C 0.39988 0.49991 0.05109 0.0
C1372 C 0.40359 0.48917 0.03818 0.0
C1373 C 0.38593 0.47497 0.02843 0.0
C1374 C 0.42544 0.49155 0.03511 0.0
C1375 C 0.41805 0.51475 0.06234 0.0
C1376 C 0.44334 0.51126 0.0307 0.0
C1377 C 0.46386 0.51328 0.0281 0.0
C1378 C 0.46675 0.49555 0.02956 0.0
C1379 C 0.44889 0.47593 0.03411 0.0
C1380 C 0.42839 0.47388 0.03666 0.0
H1381 H 0.41173 0.51812 0.07366 0.0
H1382 H 0.42851 0.50796 0.06571 0.0
H1383 H 0.4284 0.53006 0.05603 0.0
H1384 H 0.44145 0.52507 0.02927 0.0
H1385 H 0.47745 0.52875 0.02512 0.0
H1386 H 0.52816 0.80763 0.05419 0.0
H1387 H 0.51775 0.83421 0.0471 0.0
H1388 H 0.58521 0.88361 0.04941 0.0
H1389 H 0.59569 0.85717 0.05672 0.0
H1390 H 0.52998 0.87457 0.06688 0.0
H1391 H 0.55963 0.88718 1.00292 0.0
H1392 H 0.55261 0.86314 0.01402 0.0
H1393 H 0.57768 0.88713 0.01837 0.0
C1394 C 0.54071 0.82419 0.05336 0.0
C1395 C 0.56267 0.83046 0.05638 0.0
C1396 C 0.53477 0.8393 0.04926 0.0
C1397 C 0.55074 0.86079 0.04776 0.0
C1398 C 0.57269 0.86705 0.05051 0.0
H1399 H 0.54514 0.97655 0.04229 0.0
H1400 H 0.55292 0.94818 0.04883 0.0
C1401 C 0.57863 0.85199 0.05474 0.0
C1402 C 0.54447 0.87675 0.04345 0.0
H1403 H 0.54745 0.91002 0.01299 0.0
C1404 C 0.53371 0.88229 0.0551 0.0
C1405 C 0.54926 0.8866 0.02802 0.0
C1406 C 0.56031 0.8807 0.01501 0.0
C1407 C 0.52802 0.89787 0.05181 0.0
C1408 C 0.53327 0.90807 0.03652 0.0
C1409 C 0.54359 0.90219 0.02473 0.0
C1410 C 0.52838 0.92511 0.03261 0.0
C1411 C 0.5164 0.90332 0.06465 0.0
C1412 C 0.51208 0.92148 0.02124 0.0
C1413 C 0.50746 0.93759 0.01754 0.0
C1414 C 0.51932 0.95774 0.02495 0.0
C1415 C 0.5357 0.96128 0.03631 0.0
C1416 C 0.54017 0.94509 0.0401 0.0
H1417 H 0.51015 0.89148 0.07466 0.0
H1418 H 0.52788 0.91914 0.06995 0.0
H1419 H 0.50254 0.90427 0.0592 0.0
H1420 H 0.50279 0.9061 0.01537 0.0
H1421 H 0.49445 0.93414 0.009 0.0
H1422 H 0.97352 0.14086 0.39546 0.0
H1423 H 1.00735 0.17078 0.3849 0.0
H1424 H 0.98628 0.21436 0.40054 0.0
H1425 H 0.95268 0.18467 0.41123 0.0
H1426 H 0.01527 0.20115 0.36188 0.0
H1427 H 0.04559 0.2396 0.42193 0.0
H1428 H 0.02292 0.21287 0.41984 0.0
H1429 H 0.01893 0.23532 0.4173 0.0
C1430 C 0.97608 0.15682 0.39656 0.0
C1431 C 0.96055 0.16042 0.40438 0.0
C1432 C 0.99544 0.1739 0.39057 0.0
C1433 C 0.99961 0.19488 0.39226 0.0
C1434 C 0.98376 0.1984 0.39952 0.0
H1435 H 0.10056 0.32166 0.36746 0.0
H1436 H 0.06633 0.28913 0.37381 0.0
C1437 C 0.96452 0.1814 0.4056 0.0
C1438 C 0.02046 0.21313 0.38644 0.0
H1439 H 0.06393 0.26043 0.39866 0.0
C1440 C 0.02604 0.214 0.36994 0.0
C1441 C 0.03458 0.22989 0.39699 0.0
C1442 C 0.03034 0.22932 0.41503 0.0
C1443 C 0.04494 0.23151 0.36363 0.0
C1444 C 0.05863 0.24855 0.37407 0.0
C1445 C 0.05328 0.24747 0.39062 0.0
C1446 C 0.07852 0.26784 0.36821 0.0
C1447 C 0.04965 0.23216 0.34571 0.0
C1448 C 0.09671 0.26669 0.36282 0.0
C1449 C 0.11628 0.28528 0.35919 0.0
C1450 C 0.11794 0.30533 0.36077 0.0
C1451 C 0.0996 0.30639 0.36588 0.0
C1452 C 0.08008 0.28784 0.36952 0.0
H1453 H 0.03616 0.2188 0.33891 0.0
H1454 H 0.05233 0.24736 0.34055 0.0
H1455 H 0.06473 0.23135 0.34386 0.0
H1456 H 0.09609 0.2515 0.36209 0.0
H1457 H 0.13027 0.28392 0.35582 0.0
H1458 H 0.83647 0.76836 0.4126 0.0
H1459 H 0.80649 0.77248 0.40215 0.0
H1460 H 0.85248 0.8354 0.38514 0.0
H1461 H 0.88268 0.83125 0.39548 0.0
H1462 H 0.79555 0.80138 0.412 0.0
H1463 H 0.81297 0.81116 0.34576 0.0
H1464 H 0.82614 0.80161 0.35945 0.0
H1465 H 0.83523 0.82956 0.35836 0.0
C1466 C 0.84025 0.78305 0.40654 0.0
C1467 C 0.86201 0.79952 0.40496 0.0
C1468 C 0.82306 0.78536 0.40052 0.0
C1469 C 0.82712 0.80418 0.39271 0.0
C1470 C 0.84886 0.82054 0.39079 0.0
H1471 H 0.73687 0.84701 0.36123 0.0
H1472 H 0.76954 0.84486 0.36761 0.0
C1473 C 0.86614 0.81817 0.39675 0.0
C1474 C 0.80844 0.807 0.38765 0.0
H1475 H 0.78445 0.81667 0.35506 0.0
C1476 C 0.79313 0.80465 0.39952 0.0
C1477 C 0.80528 0.81144 0.3714 0.0
C1478 C 0.82065 0.81341 0.35796 0.0
C1479 C 0.77485 0.80655 0.39564 0.0
C1480 C 0.77151 0.81066 0.37937 0.0
C1481 C 0.78698 0.81343 0.36752 0.0
C1482 C 0.75179 0.81169 0.3745 0.0
C1483 C 0.75935 0.80439 0.40905 0.0
C1484 C 0.73095 0.79371 0.376 0.0
C1485 C 0.71229 0.79487 0.37223 0.0
C1486 C 0.71408 0.81392 0.36657 0.0
C1487 C 0.73495 0.83194 0.36506 0.0
C1488 C 0.75365 0.83076 0.3688 0.0
H1489 H 0.76694 0.80661 0.42128 0.0
H1490 H 0.75377 0.81612 0.40756 0.0
H1491 H 0.74481 0.78821 0.40856 0.0
H1492 H 0.72911 0.77877 0.38024 0.0
H1493 H 0.6964 0.78084 0.37371 0.0
H1494 H 0.2511 0.06944 0.41709 0.0
H1495 H 0.24571 0.03572 0.40638 0.0
H1496 H 0.18601 0.02392 0.38317 0.0
H1497 H 0.19104 0.05753 0.39409 0.0
H1498 H 0.20849 0.99444 0.41218 0.0
H1499 H 0.22116 0.01511 0.34644 0.0
H1500 H 0.2302 0.03505 0.36229 0.0
H1501 H 0.2019 0.02031 0.35672 0.0
C1502 C 0.23673 0.05963 0.4098 0.0
C1503 C 0.22143 0.06613 0.40652 0.0
C1504 C 0.23377 0.04044 0.40361 0.0
C1505 C 0.21559 0.02747 0.39388 0.0
C1506 C 0.20034 0.03392 0.39044 0.0
H1507 H 0.16987 0.90459 0.34793 0.0
H1508 H 0.17511 0.93882 0.3572 0.0
C1509 C 0.20325 0.05311 0.39668 0.0
C1510 C 0.21225 0.00682 0.38789 0.0
H1511 H 0.21005 0.97953 0.35339 0.0
C1512 C 0.20887 0.99116 0.39934 0.0
C1513 C 0.21267 0.00264 0.37113 0.0
C1514 C 0.21684 0.01917 0.35839 0.0
C1515 C 0.20565 0.97126 0.39446 0.0
C1516 C 0.20635 0.96714 0.37769 0.0
C1517 C 0.2096 0.98277 0.36623 0.0
C1518 C 0.20363 0.94664 0.37181 0.0
C1519 C 0.20107 0.95468 0.40728 0.0
C1520 C 0.21816 0.93985 0.37672 0.0
C1521 C 0.21522 0.92028 0.37144 0.0
C1522 C 0.19785 0.90726 0.36098 0.0
C1523 C 0.18356 0.91431 0.35585 0.0
C1524 C 0.18647 0.93384 0.36118 0.0
H1525 H 0.1952 0.95816 0.41877 0.0
H1526 H 0.1887 0.93858 0.40296 0.0
H1527 H 0.21632 0.95451 0.41006 0.0
H1528 H 0.2318 0.94972 0.38465 0.0
H1529 H 0.2266 0.9154 0.37554 0.0
H1530 H 0.4713 0.61959 0.30275 0.0
H1531 H 0.50016 0.65346 0.31391 0.0
H1532 H 0.54888 0.64014 0.29509 0.0
H1533 H 0.52027 0.60626 0.28413 0.0
H1534 H 0.53575 0.66241 0.33607 0.0
H1535 H 0.56474 0.69853 0.27516 0.0
H1536 H 0.53854 0.67498 0.27821 0.0
H1537 H 0.56291 0.67313 0.27791 0.0
C1538 C 0.48815 0.62376 0.30115 0.0
C1539 C 0.49346 0.61031 0.29235 0.0
C1540 C 0.50461 0.64315 0.30748 0.0
C1541 C 0.52666 0.64948 0.30506 0.0
C1542 C 0.53198 0.63578 0.29679 0.0
H1543 H 0.6511 0.76247 0.32539 0.0
H1544 H 0.62158 0.72738 0.31711 0.0
C1545 C 0.51559 0.61643 0.2905 0.0
C1546 C 0.54417 0.67053 0.31093 0.0
H1547 H 0.58635 0.71789 0.2978 0.0
C1548 C 0.54677 0.67461 0.32773 0.0
C1549 C 0.55853 0.68638 0.3 0.0
C1550 C 0.55601 0.6832 0.2818 0.0
C1551 C 0.56369 0.69396 0.33392 0.0
C1552 C 0.5781 0.7098 0.32299 0.0
C1553 C 0.57538 0.70573 0.30618 0.0
C1554 C 0.59605 0.7308 0.32864 0.0
C1555 C 0.56631 0.69702 0.35213 0.0
C1556 C 0.59153 0.7445 0.33777 0.0
C1557 C 0.60837 0.76455 0.34255 0.0
C1558 C 0.63011 0.77142 0.33822 0.0
C1559 C 0.63458 0.75771 0.329 0.0
C1560 C 0.61772 0.73762 0.32425 0.0
H1561 H 0.55814 0.68158 0.35866 0.0
H1562 H 0.5838 0.70576 0.35567 0.0
H1563 H 0.55877 0.70644 0.35622 0.0
H1564 H 0.5749 0.73987 0.34093 0.0
H1565 H 0.60423 0.77483 0.34936 0.0
H1566 H 0.39093 0.84729 0.3027 0.0
H1567 H 0.35645 0.84321 0.31287 0.0
H1568 H 0.3762 0.90705 0.29747 0.0
H1569 H 0.41043 0.91115 0.28722 0.0
H1570 H 0.34663 0.86514 0.33567 0.0
H1571 H 0.31773 0.87334 0.27491 0.0
H1572 H 0.34077 0.86939 0.27754 0.0
H1573 H 0.34397 0.89545 0.28002 0.0
C1574 C 0.38798 0.86051 0.30161 0.0
C1575 C 0.40333 0.87944 0.29393 0.0
C1576 C 0.36822 0.85813 0.30737 0.0
C1577 C 0.36342 0.87462 0.30556 0.0
C1578 C 0.37916 0.89384 0.29855 0.0
H1579 H 0.26018 0.90063 0.32902 0.0
H1580 H 0.29464 0.90183 0.32281 0.0
C1581 C 0.39879 0.89619 0.29274 0.0
C1582 C 0.34204 0.87187 0.31095 0.0
H1583 H 0.29825 0.87565 0.29775 0.0
C1584 C 0.33591 0.86716 0.32734 0.0
C1585 C 0.32798 0.87449 0.30009 0.0
C1586 C 0.33281 0.87823 0.28213 0.0
C1587 C 0.31656 0.86575 0.33324 0.0
C1588 C 0.3029 0.86906 0.32249 0.0
C1589 C 0.30881 0.87332 0.30604 0.0
C1590 C 0.2826 0.8686 0.32799 0.0
C1591 C 0.31144 0.86194 0.35111 0.0
C1592 C 0.26433 0.84954 0.33303 0.0
C1593 C 0.24459 0.84883 0.33656 0.0
C1594 C 0.24279 0.86722 0.33524 0.0
C1595 C 0.26118 0.8863 0.33039 0.0
C1596 C 0.28086 0.88699 0.32683 0.0
H1597 H 0.3244 0.86101 0.35807 0.0
H1598 H 0.30955 0.8751 0.35613 0.0
H1599 H 0.29584 0.84688 0.35286 0.0
H1600 H 0.26507 0.83501 0.33365 0.0
H1601 H 0.23062 0.83374 0.33973 0.0
H1602 H 0.14973 0.51799 0.26736 0.0
H1603 H 0.1544 0.48935 0.27854 0.0
H1604 H 0.1368 0.50085 0.32615 0.0
H1605 H 0.13116 0.52893 0.31494 0.0
H1606 H 0.18204 0.49052 0.30238 0.0
H1607 H 0.09582 0.43725 0.32018 0.0
H1608 H 0.1041 0.45994 0.3071 0.0
H1609 H 0.10791 0.46351 0.32876 0.0
C1610 C 0.14656 0.51426 0.28017 0.0
C1611 C 0.13987 0.52563 0.29022 0.0
C1612 C 0.14941 0.498 0.28656 0.0
C1613 C 0.14562 0.49275 0.30311 0.0
C1614 C 0.1394 0.50435 0.31327 0.0
H1615 H 0.1882 0.41336 0.35255 0.0
H1616 H 0.18298 0.44275 0.34419 0.0
C1617 C 0.13645 0.52058 0.30688 0.0
C1618 C 0.14839 0.47525 0.30968 0.0
H1619 H 0.12125 0.42684 0.32829 0.0
C1620 C 0.16877 0.47659 0.30807 0.0
C1621 C 0.13096 0.457 0.3169 0.0
C1622 C 0.1084 0.45416 0.31823 0.0
C1623 C 0.17221 0.46019 0.31349 0.0
C1624 C 0.15492 0.44215 0.32104 0.0
C1625 C 0.13453 0.44079 0.32263 0.0
C1626 C 0.1574 0.42414 0.32679 0.0
C1627 C 0.19416 0.46205 0.31066 0.0
C1628 C 0.14423 0.40375 0.32021 0.0
C1629 C 0.14689 0.38679 0.32518 0.0
C1630 C 0.16275 0.3899 0.33688 0.0
C1631 C 0.17569 0.41031 0.34364 0.0
C1632 C 0.17292 0.42722 0.33873 0.0
H1633 H 0.20358 0.47398 0.30113 0.0
H1634 H 0.20378 0.46721 0.32211 0.0
H1635 H 0.19234 0.44652 0.30697 0.0
H1636 H 0.1321 0.40102 0.31102 0.0
H1637 H 0.13661 0.37131 0.31973 0.0
H1638 H 0.40162 0.48664 0.29714 0.0
H1639 H 0.36447 0.45867 0.30372 0.0
H1640 H 0.3514 0.50552 0.32494 0.0
H1641 H 0.38868 0.53363 0.31835 0.0
H1642 H 0.34642 0.44912 0.33594 0.0
H1643 H 0.29864 0.47052 0.29404 0.0
H1644 H 0.32733 0.48 0.29115 0.0
H1645 H 0.31862 0.4916 0.30661 0.0
C1646 C 0.39074 0.491 0.30304 0.0
C1647 C 0.39795 0.51229 0.3072 0.0
C1648 C 0.36956 0.47501 0.30682 0.0
C1649 C 0.35511 0.48002 0.3147 0.0
C1650 C 0.36216 0.50134 0.31864 0.0
H1651 H 0.21821 0.3963 0.34121 0.0
H1652 H 0.25466 0.42736 0.33811 0.0
C1653 C 0.38342 0.51735 0.31492 0.0
C1654 C 0.3331 0.46272 0.31946 0.0
H1655 H 0.27874 0.44181 0.31184 0.0
C1656 C 0.3316 0.44753 0.33071 0.0
C1657 C 0.3138 0.46081 0.31275 0.0
C1658 C 0.31453 0.47647 0.30038 0.0
C1659 C 0.31134 0.43039 0.33538 0.0
C1660 C 0.29197 0.42804 0.3283 0.0
C1661 C 0.2935 0.44355 0.3173 0.0
C1662 C 0.27013 0.40914 0.33147 0.0
C1663 C 0.31105 0.41515 0.34797 0.0
C1664 C 0.26653 0.38851 0.32875 0.0
C1665 C 0.24583 0.37077 0.33092 0.0
C1666 C 0.22822 0.37322 0.33575 0.0
C1667 C 0.23162 0.39384 0.33813 0.0
C1668 C 0.25243 0.41163 0.33616 0.0
H1669 H 0.32526 0.42318 0.35634 0.0
H1670 H 0.29594 0.40813 0.3553 0.0
H1671 H 0.31208 0.4021 0.34175 0.0
H1672 H 0.27962 0.38611 0.32455 0.0
H1673 H 0.24349 0.35507 0.32856 0.0
H1674 H 0.49657 0.86024 0.28581 0.0
H1675 H 0.52451 0.85044 0.29115 0.0
H1676 H 0.53978 0.88418 0.33691 0.0
H1677 H 0.51138 0.89328 0.33187 0.0
H1678 H 0.56678 0.87475 0.29419 0.0
H1679 H 0.53682 0.83054 0.35182 0.0
H1680 H 0.52023 0.83738 0.33936 0.0
H1681 H 0.53993 0.85654 0.35335 0.0
C1682 C 0.50546 0.86503 0.29721 0.0
C1683 C 0.50122 0.8769 0.3087 0.0
C1684 C 0.52156 0.85956 0.30021 0.0
C1685 C 0.534 0.86608 0.31465 0.0
C1686 C 0.52997 0.87823 0.32598 0.0
H1687 H 0.66419 0.88459 0.32711 0.0
H1688 H 0.63189 0.88787 0.322 0.0
C1689 C 0.51377 0.88352 0.32305 0.0
C1690 C 0.55217 0.86154 0.31736 0.0
H1691 H 0.57428 0.84282 0.34537 0.0
C1692 C 0.56826 0.86758 0.30533 0.0
C1693 C 0.5541 0.85187 0.33178 0.0
C1694 C 0.53671 0.8435 0.34472 0.0
C1695 C 0.58643 0.86485 0.30749 0.0
C1696 C 0.58903 0.8564 0.32232 0.0
C1697 C 0.57259 0.84968 0.33413 0.0
C1698 C 0.60869 0.8545 0.32582 0.0
C1699 C 0.60249 0.87081 0.29371 0.0
C1700 C 0.60653 0.83483 0.33022 0.0
C1701 C 0.62501 0.83305 0.33343 0.0
C1702 C 0.646 0.85098 0.33257 0.0
C1703 C 0.64817 0.87058 0.32804 0.0
C1704 C 0.62972 0.87241 0.32498 0.0
H1705 H 0.59479 0.87031 0.2818 0.0
H1706 H 0.61609 0.8873 0.29562 0.0
H1707 H 0.60936 0.86002 0.29309 0.0
H1708 H 0.59055 0.82076 0.33096 0.0
H1709 H 0.62283 0.8176 0.33638 0.0
H1710 H 0.16078 0.62501 0.32606 0.0
H1711 H 0.16957 0.66191 0.33076 0.0
H1712 H 0.12198 0.6544 0.29458 0.0
H1713 H 0.11314 0.6175 0.28992 0.0
H1714 H 0.18384 0.69619 0.3076 0.0
H1715 H 0.10437 0.67504 0.33608 0.0
H1716 H 0.11373 0.65615 0.33387 0.0
H1717 H 0.1028 0.66294 0.31664 0.0
C1718 C 0.15219 0.63129 0.3192 0.0
C1719 C 0.13594 0.6184 0.30794 0.0
C1720 C 0.15723 0.6523 0.32183 0.0
C1721 C 0.14613 0.66069 0.31323 0.0
C1722 C 0.13039 0.64804 0.30158 0.0
H1723 H 0.14901 0.78175 0.31925 0.0
H1724 H 0.14149 0.7461 0.31168 0.0
C1725 C 0.12539 0.62706 0.29891 0.0
C1726 C 0.151 0.6827 0.31647 0.0
H1727 H 0.12889 0.71152 0.33161 0.0
C1728 C 0.17186 0.69959 0.31286 0.0
C1729 C 0.13528 0.687 0.32327 0.0
C1730 C 0.11282 0.66936 0.32783 0.0
C1731 C 0.1774 0.72078 0.31574 0.0
C1732 C 0.16176 0.72508 0.32274 0.0
C1733 C 0.14083 0.70817 0.32623 0.0
C1734 C 0.16688 0.74697 0.32692 0.0
C1735 C 0.1998 0.73835 0.311 0.0
C1736 C 0.18356 0.75921 0.33807 0.0
C1737 C 0.18799 0.77961 0.34234 0.0
C1738 C 0.17558 0.78806 0.33576 0.0
C1739 C 0.15887 0.77574 0.32458 0.0
C1740 C 0.15452 0.75535 0.32025 0.0
H1741 H 0.20728 0.73294 0.30165 0.0
H1742 H 0.1992 0.75235 0.30622 0.0
H1743 H 0.21056 0.74347 0.32189 0.0
H1744 H 0.19303 0.7529 0.34362 0.0
H1745 H 0.20118 0.78873 0.3508 0.0
H1746 H 0.88238 0.0566 0.37132 0.0
H1747 H 0.85372 0.0195 0.36668 0.0
H1748 H 0.81201 0.02757 0.40061 0.0
H1749 H 0.84061 0.06463 0.40523 0.0
H1750 H 0.83097 0.98502 0.38959 0.0
H1751 H 0.77563 0.00699 0.35788 0.0
H1752 H 0.80424 0.02566 0.36102 0.0
H1753 H 0.78535 0.01905 0.37752 0.0
C1754 C 0.86709 0.05036 0.37779 0.0
C1755 C 0.86348 0.06351 0.38836 0.0
C1756 C 0.85078 0.02923 0.37516 0.0
C1757 C 0.83059 0.02092 0.38306 0.0
C1758 C 0.8273 0.0338 0.39414 0.0
H1759 H 0.70834 0.90074 0.37476 0.0
H1760 H 0.73737 0.93649 0.38213 0.0
C1761 C 0.84363 0.0549 0.3968 0.0
C1762 C 0.81288 0.99889 0.37952 0.0
H1763 H 0.76199 0.97046 0.36278 0.0
C1764 C 0.81589 0.9818 0.38371 0.0
C1765 C 0.7932 0.99475 0.3719 0.0
C1766 C 0.78936 0.01254 0.36668 0.0
C1767 C 0.79962 0.96064 0.38067 0.0
C1768 C 0.78001 0.95649 0.37287 0.0
C1769 C 0.77699 0.97362 0.36876 0.0
C1770 C 0.76252 0.93455 0.36863 0.0
C1771 C 0.80342 0.94293 0.38618 0.0
C1772 C 0.76691 0.9216 0.35845 0.0
C1773 C 0.7504 0.90109 0.35431 0.0
C1774 C 0.72899 0.89318 0.36002 0.0
C1775 C 0.7246 0.90626 0.37012 0.0
C1776 C 0.74118 0.92675 0.37433 0.0
H1777 H 0.81581 0.94828 0.39606 0.0
H1778 H 0.7881 0.92906 0.39059 0.0
H1779 H 0.80954 0.93766 0.37578 0.0
H1780 H 0.78311 0.92739 0.35358 0.0
H1781 H 0.75451 0.89143 0.3467 0.0
H1782 H 0.95479 0.78864 0.36546 0.0
H1783 H 0.99236 0.79788 0.3595 0.0
H1784 H 0.01166 0.82276 0.40817 0.0
H1785 H 0.97383 0.81293 0.41431 0.0
H1786 H 0.03085 0.83492 0.35934 0.0
H1787 H 0.03338 0.78098 0.40595 0.0
H1788 H 1.00846 0.78041 0.40036 0.0
H1789 H 0.02757 0.80061 0.41398 0.0
C1790 C 0.96711 0.79634 0.37482 0.0
C1791 C 0.96142 0.8004 0.39026 0.0
C1792 C 0.98859 0.80158 0.37142 0.0
C1793 C 1.0049 0.8108 0.38342 0.0
C1794 C 0.99936 0.81532 0.39877 0.0
H1795 H 0.14398 0.86169 0.35936 0.0
H1796 H 0.10865 0.85866 0.365 0.0
C1797 C 0.9778 0.80994 0.40222 0.0
C1798 C 0.02743 0.8151 0.37984 0.0
H1799 H 0.0659 0.80249 0.39159 0.0
C1800 C 0.03854 0.82784 0.3664 0.0
C1801 C 0.03744 0.80573 0.38893 0.0
C1802 C 0.02606 0.79101 0.40302 0.0
C1803 C 0.05917 0.83126 0.36168 0.0
C1804 C 0.06932 0.82202 0.37083 0.0
C1805 C 0.05828 0.80956 0.38446 0.0
C1806 C 0.09088 0.82422 0.36634 0.0
C1807 C 0.06937 0.84413 0.34656 0.0
C1808 C 0.09312 0.80604 0.36549 0.0
C1809 C 0.11347 0.80784 0.36265 0.0
C1810 C 0.13202 0.8278 0.3601 0.0
C1811 C 0.12986 0.84602 0.36067 0.0
C1812 C 0.10955 0.84427 0.36389 0.0
H1813 H 0.05695 0.84419 0.3383 0.0
H1814 H 0.08095 0.86086 0.35005 0.0
H1815 H 0.07838 0.83781 0.33978 0.0
H1816 H 0.07914 0.79036 0.36733 0.0
H1817 H 0.11476 0.79358 0.36255 0.0
H1818 H 0.20566 0.14513 0.36917 0.0
H1819 H 0.19578 0.17233 0.36282 0.0
H1820 H 0.24214 0.21422 0.39859 0.0
H1821 H 0.25202 0.18708 0.40494 0.0
H1822 H 0.18002 0.19269 0.38509 0.0
H1823 H 0.25854 0.24986 0.35594 0.0
H1824 H 0.25022 0.22218 0.35888 0.0
H1825 H 0.26077 0.24047 0.37569 0.0
C1826 C 0.2138 0.16023 0.37556 0.0
C1827 C 0.22991 0.16429 0.38725 0.0
C1828 C 0.20813 0.17567 0.37198 0.0
C1829 C 0.21852 0.19538 0.38005 0.0
C1830 C 0.23427 0.19926 0.39201 0.0
H1831 H 0.2124 0.31123 0.37437 0.0
H1832 H 0.22059 0.28318 0.38095 0.0
C1833 C 0.23987 0.1838 0.39563 0.0
C1834 C 0.21271 0.21181 0.3761 0.0
H1835 H 0.23331 0.26167 0.36039 0.0
C1836 C 0.1916 0.20775 0.37963 0.0
C1837 C 0.22792 0.23142 0.36902 0.0
C1838 C 0.25059 0.23628 0.36452 0.0
C1839 C 0.1854 0.22302 0.37656 0.0
C1840 C 0.20061 0.24265 0.36944 0.0
C1841 C 0.2217 0.24663 0.36586 0.0
C1842 C 0.19509 0.25937 0.36569 0.0
C1843 C 0.16284 0.21822 0.38138 0.0
C1844 C 0.17808 0.25532 0.35486 0.0
C1845 C 0.17323 0.27128 0.35116 0.0
C1846 C 0.18554 0.29172 0.35801 0.0
C1847 C 0.20259 0.29571 0.36884 0.0
C1848 C 0.20734 0.2797 0.3726 0.0
H1849 H 0.15553 0.20535 0.39059 0.0
H1850 H 0.16312 0.23258 0.38637 0.0
H1851 H 0.1521 0.21285 0.37048 0.0
H1852 H 0.16866 0.23986 0.34915 0.0
H1853 H 0.15978 0.26754 0.34298 0.0
H1854 H 0.61741 0.51959 0.74375 0.0
H1855 H 0.65084 0.54883 0.73244 0.0
H1856 H 0.67121 0.50454 0.7173 0.0
H1857 H 0.6377 0.47511 0.72862 0.0
H1858 H 0.69248 0.56074 0.74222 0.0
H1859 H 0.68221 0.54035 0.67637 0.0
H1860 H 0.65989 0.52827 0.6906 0.0
H1861 H 0.67949 0.51947 0.68958 0.0
C1862 C 0.62897 0.51603 0.73799 0.0
C1863 C 0.62492 0.495 0.73717 0.0
C1864 C 0.64802 0.53277 0.73145 0.0
C1865 C 0.66345 0.52889 0.72385 0.0
C1866 C 0.65934 0.50789 0.72277 0.0
H1867 H 0.79626 0.61738 0.69186 0.0
H1868 H 0.76142 0.58521 0.69752 0.0
C1869 C 0.64021 0.49108 0.72929 0.0
C1870 C 0.68441 0.54708 0.71816 0.0
H1871 H 0.71638 0.56936 0.68463 0.0
C1872 C 0.69764 0.56262 0.72961 0.0
C1873 C 0.69124 0.54946 0.70173 0.0
C1874 C 0.67742 0.53362 0.6888 0.0
C1875 C 0.71744 0.58044 0.72512 0.0
C1876 C 0.72411 0.58301 0.70867 0.0
C1877 C 0.71114 0.56735 0.69722 0.0
C1878 C 0.74437 0.60215 0.70327 0.0
C1879 C 0.73122 0.59634 0.73807 0.0
C1880 C 0.74614 0.62226 0.70421 0.0
C1881 C 0.76595 0.6406 0.70088 0.0
C1882 C 0.78424 0.63916 0.69626 0.0
C1883 C 0.78232 0.61898 0.69493 0.0
C1884 C 0.76245 0.60059 0.69825 0.0
H1885 H 0.72641 0.58965 0.75051 0.0
H1886 H 0.74876 0.60168 0.7363 0.0
H1887 H 0.72917 0.61049 0.73722 0.0
H1888 H 0.73234 0.62379 0.70797 0.0
H1889 H 0.76711 0.656 0.70217 0.0
H1890 H 0.55082 0.16682 0.73056 0.0
H1891 H 0.5205 0.17107 0.72055 0.0
H1892 H 0.47502 0.10639 0.73421 0.0
H1893 H 0.50508 0.10224 0.74446 0.0
H1894 H 0.48942 0.15117 0.69743 0.0
H1895 H 0.44931 0.13747 0.75739 0.0
H1896 H 0.47649 0.14162 0.75511 0.0
H1897 H 0.45309 0.11577 0.75144 0.0
C1898 C 0.53436 0.15348 0.73132 0.0
C1899 C 0.53033 0.13429 0.73851 0.0
C1900 C 0.51702 0.15595 0.72565 0.0
C1901 C 0.49535 0.13925 0.72703 0.0
C1902 C 0.49146 0.11977 0.73351 0.0
H1903 H 0.36547 0.11312 0.70298 0.0
H1904 H 0.39876 0.11208 0.70938 0.0
C1905 C 0.5087 0.11737 0.7393 0.0
C1906 C 0.47675 0.14203 0.72168 0.0
H1907 H 0.42804 0.13611 0.73434 0.0
C1908 C 0.47612 0.14812 0.70555 0.0
C1909 C 0.45939 0.13818 0.73228 0.0
C1910 C 0.45968 0.13312 0.75006 0.0
C1911 C 0.45827 0.14964 0.6996 0.0
C1912 C 0.44055 0.14499 0.71003 0.0
C1913 C 0.44145 0.1394 0.72625 0.0
C1914 C 0.42069 0.14541 0.70444 0.0
C1915 C 0.458 0.1552 0.68199 0.0
C1916 C 0.42184 0.16446 0.69943 0.0
C1917 C 0.40278 0.16504 0.69574 0.0
C1918 C 0.38219 0.14656 0.69689 0.0
C1919 C 0.38112 0.12751 0.70174 0.0
C1920 C 0.40013 0.12693 0.70542 0.0
H1921 H 0.47146 0.15537 0.67494 0.0
H1922 H 0.44227 0.1435 0.67639 0.0
H1923 H 0.45958 0.17116 0.68109 0.0
H1924 H 0.43739 0.17907 0.69899 0.0
H1925 H 0.40419 0.18011 0.69259 0.0
H1926 H 0.89673 0.41076 0.71517 0.0
H1927 H 0.88998 0.37694 0.7035 0.0
H1928 H 0.8707 0.34751 0.7507 0.0
H1929 H 0.87653 0.38096 0.7623 0.0
H1930 H 0.91009 0.35439 0.71139 0.0
H1931 H 0.82122 0.30532 0.72199 0.0
H1932 H 0.83568 0.33396 0.72363 0.0
H1933 H 0.83623 0.31802 0.74017 0.0
C1934 C 0.89062 0.39698 0.72299 0.0
C1935 C 0.88713 0.39856 0.73967 0.0
C1936 C 0.88694 0.37771 0.71634 0.0
C1937 C 0.87959 0.35964 0.72619 0.0
C1938 C 0.87597 0.36113 0.7428 0.0
H1939 H 0.89137 0.24806 0.70916 0.0
H1940 H 0.89608 0.28235 0.71778 0.0
C1941 C 0.87957 0.38035 0.74946 0.0
C1942 C 0.87669 0.33949 0.71929 0.0
H1943 H 0.83986 0.28657 0.71515 0.0
C1944 C 0.89469 0.33958 0.71208 0.0
C1945 C 0.85651 0.32025 0.72002 0.0
C1946 C 0.83625 0.31936 0.72672 0.0
C1947 C 0.89322 0.32083 0.70596 0.0
C1948 C 0.87333 0.30142 0.7074 0.0
C1949 C 0.85517 0.30143 0.71422 0.0
C1950 C 0.87092 0.28088 0.7019 0.0
C1951 C 0.91292 0.32206 0.69785 0.0
C1952 C 0.85485 0.2684 0.69041 0.0
C1953 C 0.85191 0.24867 0.68563 0.0
C1954 C 0.86504 0.24101 0.69219 0.0
C1955 C 0.8811 0.25353 0.70374 0.0
C1956 C 0.88394 0.27323 0.70859 0.0
H1957 H 0.92441 0.33842 0.69354 0.0
H1958 H 0.92173 0.3176 0.70676 0.0
H1959 H 0.9081 0.31096 0.68734 0.0
H1960 H 0.84448 0.27389 0.6852 0.0
H1961 H 0.83908 0.2393 0.67699 0.0
H1962 H 0.16227 0.96393 0.60177 0.0
H1963 H 0.19167 0.99731 0.61269 0.0
H1964 H 0.18293 0.9685 0.65998 0.0
H1965 H 0.15408 0.93466 0.64895 0.0
H1966 H 0.19207 0.02315 0.63643 0.0
H1967 H 0.24773 0.99299 0.65294 0.0
H1968 H 0.22378 0.97795 0.64047 0.0
H1969 H 0.22135 0.97862 0.66222 0.0
C1970 C 0.16674 0.96456 0.61446 0.0
C1971 C 0.15595 0.94646 0.62441 0.0
C1972 C 0.18347 0.98374 0.62071 0.0
C1973 C 0.18983 0.98534 0.63708 0.0
C1974 C 0.17867 0.96753 0.64721 0.0
H1975 H 0.27134 0.10671 0.68609 0.0
H1976 H 0.24152 0.07227 0.67735 0.0
C1977 C 0.16196 0.94826 0.64093 0.0
C1978 C 0.20804 0.00574 0.64342 0.0
H1979 H 0.25846 0.02822 0.66119 0.0
C1980 C 0.20658 0.02425 0.64185 0.0
C1981 C 0.22714 0.00725 0.65027 0.0
C1982 C 0.23027 0.9882 0.65146 0.0
C1983 C 0.22359 0.04417 0.64699 0.0
C1984 C 0.24241 0.04558 0.65427 0.0
C1985 C 0.24395 0.0271 0.65575 0.0
C1986 C 0.26084 0.06614 0.66015 0.0
C1987 C 0.22144 0.06359 0.64417 0.0
C1988 C 0.28189 0.07389 0.65384 0.0
C1989 C 0.29918 0.09347 0.65908 0.0
C1990 C 0.29577 0.10567 0.67079 0.0
C1991 C 0.2747 0.09771 0.67721 0.0
C1992 C 0.25749 0.07808 0.67206 0.0
H1993 H 0.20924 0.06075 0.63453 0.0
H1994 H 0.21594 0.06764 0.65557 0.0
H1995 H 0.23729 0.07748 0.64062 0.0
H1996 H 0.28488 0.06491 0.64467 0.0
H1997 H 0.31516 0.09907 0.65386 0.0
H1998 H 0.05591 0.17831 0.63345 0.0
H1999 H 0.0215 0.17445 0.64357 0.0
H2000 H 0.04196 0.23861 0.62855 0.0
H2001 H 0.07603 0.24238 0.6182 0.0
H2002 H 0.01153 0.1952 0.66633 0.0
H2003 H 0.98372 0.20677 0.60624 0.0
H2004 H 1.00671 0.2027 0.6085 0.0
H2005 H 0.00991 0.22867 0.61169 0.0
C2006 C 0.05309 0.19162 0.6324 0.0
C2007 C 0.06858 0.21055 0.62481 0.0
C2008 C 0.03338 0.18937 0.63814 0.0
C2009 C 0.0288 0.20603 0.63644 0.0
C2010 C 0.0447 0.22525 0.62952 0.0
H2011 H 0.92602 0.23261 0.66032 0.0
H2012 H 0.96031 0.23362 0.65385 0.0
C2013 C 0.06425 0.22743 0.62366 0.0
C2014 C 1.00752 0.20346 0.64193 0.0
H2015 H 0.96445 0.20885 0.62934 0.0
C2016 C 1.00111 0.19794 0.65819 0.0
C2017 C 0.99379 0.20693 0.63132 0.0
C2018 C 0.99875 0.21137 0.61343 0.0
C2019 C 0.98186 0.19659 0.66425 0.0
C2020 C 0.96858 0.20083 0.65379 0.0
C2021 C 0.97474 0.20587 0.63745 0.0
C2022 C 0.94839 0.2005 0.65946 0.0
C2023 C 0.9764 0.19165 0.68198 0.0
C2024 C 0.93022 0.1816 0.66488 0.0
C2025 C 0.9106 0.18103 0.66861 0.0
C2026 C 0.90879 0.19939 0.66711 0.0
C2027 C 0.92705 0.21831 0.66186 0.0
C2028 C 0.94663 0.21888 0.65813 0.0
H2029 H 0.98991 0.19177 0.68898 0.0
H2030 H 0.97278 0.20351 0.68738 0.0
H2031 H 0.9617 0.1757 0.68324 0.0
H2032 H 0.9309 0.16705 0.6656 0.0
H2033 H 0.89669 0.16603 0.67207 0.0
H2034 H 0.81764 0.85145 0.60039 0.0
H2035 H 0.82198 0.82257 0.6115 0.0
H2036 H 0.80335 0.83336 0.65896 0.0
H2037 H 0.79804 0.86164 0.64782 0.0
H2038 H 0.84893 0.82304 0.6356 0.0
H2039 H 0.76232 0.76999 0.65239 0.0
H2040 H 0.771 0.79291 0.63949 0.0
H2041 H 0.77423 0.79609 0.66121 0.0
C2042 C 0.8142 0.84752 0.61315 0.0
C2043 C 0.80732 0.85877 0.62318 0.0
C2044 C 0.81685 0.83111 0.61951 0.0
C2045 C 0.81265 0.82559 0.63599 0.0
C2046 C 0.80626 0.83707 0.64613 0.0
H2047 H 0.85407 0.74653 0.68711 0.0
H2048 H 0.8491 0.7758 0.67799 0.0
C2049 C 0.80351 0.85343 0.63978 0.0
C2050 C 0.81516 0.80792 0.64255 0.0
H2051 H 0.78754 0.75961 0.66126 0.0
C2052 C 0.83551 0.80916 0.64121 0.0
C2053 C 0.79754 0.7897 0.64967 0.0
C2054 C 0.77498 0.78692 0.65066 0.0
C2055 C 0.83879 0.79273 0.64687 0.0
C2056 C 0.82134 0.7748 0.65439 0.0
C2057 C 0.80094 0.77349 0.65564 0.0
C2058 C 0.82371 0.75687 0.66056 0.0
C2059 C 0.86075 0.79452 0.64436 0.0
C2060 C 0.81054 0.73634 0.65422 0.0
C2061 C 0.81304 0.71945 0.65963 0.0
C2062 C 0.82875 0.72277 0.67153 0.0
C2063 C 0.84168 0.74332 0.67805 0.0
C2064 C 0.83905 0.76017 0.6727 0.0
H2065 H 0.87029 0.80624 0.63474 0.0
H2066 H 0.87025 0.79992 0.65586 0.0
H2067 H 0.85896 0.7789 0.64095 0.0
H2068 H 0.79852 0.73343 0.64488 0.0
H2069 H 0.80278 0.70385 0.65435 0.0
H2070 H 0.05435 0.83465 0.61797 0.0
H2071 H 0.01734 0.80653 0.62504 0.0
H2072 H 0.02815 0.82886 0.67474 0.0
H2073 H 0.06516 0.85684 0.66771 0.0
H2074 H 0.01189 0.7853 0.67195 0.0
H2075 H 0.96245 0.80986 0.63527 0.0
H2076 H 0.98291 0.80783 0.62381 0.0
H2077 H 0.99099 0.82755 0.6396 0.0
C2078 C 0.04865 0.83365 0.63034 0.0
C2079 C 0.06254 0.84783 0.6423 0.0
C2080 C 0.02752 0.81769 0.63436 0.0
C2081 C 0.01989 0.81573 0.65039 0.0
C2082 C 0.03367 0.83013 0.66229 0.0
H2083 H 0.88372 0.72943 0.67627 0.0
H2084 H 0.91982 0.76084 0.673 0.0
C2085 C 0.05477 0.8461 0.65827 0.0
C2086 C 0.99808 0.79789 0.65497 0.0
H2087 H 0.94371 0.77498 0.64649 0.0
C2088 C 0.99695 0.78313 0.6665 0.0
C2089 C 0.97859 0.79518 0.64797 0.0
C2090 C 0.97868 0.81104 0.63608 0.0
C2091 C 0.97694 0.76543 0.67091 0.0
C2092 C 0.95746 0.76221 0.66343 0.0
C2093 C 0.95858 0.77732 0.6522 0.0
C2094 C 0.93586 0.74306 0.66667 0.0
C2095 C 0.97706 0.75047 0.68357 0.0
C2096 C 0.93272 0.72255 0.66422 0.0
C2097 C 0.9122 0.7046 0.66648 0.0
C2098 C 0.89433 0.70673 0.67117 0.0
C2099 C 0.89732 0.72723 0.67331 0.0
C2100 C 0.91793 0.74521 0.67123 0.0
H2101 H 0.99101 0.75888 0.69212 0.0
H2102 H 0.96178 0.74288 0.69069 0.0
H2103 H 0.97883 0.73779 0.67742 0.0
H2104 H 0.94604 0.72041 0.66017 0.0
H2105 H 0.91018 0.68898 0.66431 0.0
H2106 H 0.17235 0.22108 0.66541 0.0
H2107 H 0.201 0.21251 0.67113 0.0
H2108 H 0.19455 0.18773 0.62241 0.0
H2109 H 0.16624 0.19693 0.61651 0.0
H2110 H 0.20215 0.1759 0.67123 0.0
H2111 H 0.25891 0.23004 0.62433 0.0
H2112 H 0.23443 0.23024 0.63 0.0
H2113 H 0.233 0.2101 0.61642 0.0
C2114 C 0.17684 0.21354 0.65598 0.0
C2115 C 0.16674 0.20931 0.64061 0.0
C2116 C 0.19327 0.20869 0.65925 0.0
C2117 C 0.20021 0.19969 0.64717 0.0
C2118 C 0.18982 0.19501 0.63187 0.0
H2119 H 0.28893 0.1509 0.67171 0.0
H2120 H 0.25639 0.15328 0.66573 0.0
C2121 C 0.17344 0.20002 0.62856 0.0
C2122 C 0.21858 0.1957 0.65064 0.0
H2123 H 0.27002 0.20896 0.63868 0.0
C2124 C 0.21701 0.18312 0.66411 0.0
C2125 C 0.23808 0.20525 0.64146 0.0
C2126 C 0.24137 0.21982 0.62734 0.0
C2127 C 0.23438 0.18005 0.66879 0.0
C2128 C 0.2539 0.18948 0.65955 0.0
C2129 C 0.25524 0.20175 0.64588 0.0
C2130 C 0.27347 0.18768 0.66402 0.0
C2131 C 0.23177 0.16738 0.68397 0.0
C2132 C 0.29423 0.20606 0.66469 0.0
C2133 C 0.31292 0.20461 0.66768 0.0
C2134 C 0.31132 0.18484 0.67057 0.0
C2135 C 0.29063 0.16643 0.67012 0.0
C2136 C 0.27194 0.16782 0.66672 0.0
H2137 H 0.21937 0.16729 0.69228 0.0
H2138 H 0.22631 0.15065 0.68057 0.0
H2139 H 0.24737 0.17391 0.69065 0.0
H2140 H 0.29605 0.2216 0.66265 0.0
H2141 H 0.32871 0.21901 0.66771 0.0
H2142 H 0.77836 0.9499 0.62547 0.0
H2143 H 0.78757 0.98679 0.63072 0.0
H2144 H 0.83789 0.99429 0.66427 0.0
H2145 H 0.82872 0.95741 0.659 0.0
H2146 H 0.78689 0.00441 0.66195 0.0
H2147 H 0.86887 0.04607 0.63341 0.0
H2148 H 0.8492 0.01858 0.6291 0.0
H2149 H 0.86459 0.02567 0.64774 0.0
C2150 C 0.79137 0.95948 0.63396 0.0
C2151 C 0.80264 0.95085 0.64205 0.0
C2152 C 0.79663 0.98048 0.63692 0.0
C2153 C 0.81349 0.99326 0.6478 0.0
C2154 C 0.82501 0.98475 0.65569 0.0
H2155 H 0.86814 0.1218 0.68457 0.0
H2156 H 0.85955 0.08556 0.67822 0.0
C2157 C 0.81969 0.96372 0.65277 0.0
C2158 C 0.81846 0.01524 0.65135 0.0
H2159 H 0.85832 0.06731 0.64849 0.0
C2160 C 0.80245 0.01819 0.65894 0.0
C2161 C 0.83882 0.03311 0.64746 0.0
C2162 C 0.85634 0.03082 0.63886 0.0
C2163 C 0.80639 0.03859 0.66306 0.0
C2164 C 0.82673 0.05651 0.65912 0.0
C2165 C 0.84274 0.05354 0.65149 0.0
C2166 C 0.83179 0.07848 0.66293 0.0
C2167 C 0.78896 0.04072 0.67198 0.0
C2168 C 0.81922 0.08664 0.65626 0.0
C2169 C 0.8239 0.10728 0.66005 0.0
C2170 C 0.84136 0.1202 0.67049 0.0
C2171 C 0.85426 0.11214 0.67681 0.0
C2172 C 0.84949 0.09147 0.67308 0.0
H2173 H 0.77702 0.02557 0.67789 0.0
H2174 H 0.79622 0.05337 0.68142 0.0
H2175 H 0.77994 0.04506 0.66318 0.0
H2176 H 0.80581 0.07705 0.64807 0.0
H2177 H 0.81377 0.11303 0.65482 0.0
H2178 H 0.50585 0.39711 0.74048 0.0
H2179 H 0.47811 0.35967 0.73612 0.0
H2180 H 0.5205 0.35301 0.70196 0.0
H2181 H 0.54829 0.39044 0.70636 0.0
H2182 H 0.45835 0.34161 0.70577 0.0
H2183 H 0.50027 0.30107 0.73194 0.0
H2184 H 0.50874 0.32853 0.73631 0.0
H2185 H 0.51597 0.3214 0.71732 0.0
C2186 C 0.50925 0.38756 0.73214 0.0
C2187 C 0.52903 0.39664 0.72358 0.0
C2188 C 0.49344 0.36623 0.72966 0.0
C2189 C 0.49728 0.35351 0.71879 0.0
C2190 C 0.5173 0.36243 0.71057 0.0
H2191 H 0.42102 0.22527 0.68075 0.0
H2192 H 0.44929 0.26145 0.68763 0.0
C2193 C 0.53309 0.38379 0.71301 0.0
C2194 C 0.47986 0.33133 0.71534 0.0
H2195 H 0.46764 0.2795 0.71711 0.0
C2196 C 0.4603 0.328 0.70835 0.0
C2197 C 0.48252 0.31364 0.71862 0.0
C2198 C 0.50292 0.31623 0.72659 0.0
C2199 C 0.44347 0.30749 0.70423 0.0
C2200 C 0.44608 0.28976 0.70755 0.0
C2201 C 0.46564 0.29309 0.71459 0.0
C2202 C 0.42881 0.26765 0.70358 0.0
C2203 C 0.42333 0.30509 0.69591 0.0
C2204 C 0.40794 0.25892 0.71045 0.0
C2205 C 0.3916 0.2383 0.70635 0.0
C2206 C 0.39585 0.22591 0.69538 0.0
C2207 C 0.41697 0.23449 0.68891 0.0
C2208 C 0.43325 0.25515 0.69295 0.0
H2209 H 0.42635 0.32025 0.69031 0.0
H2210 H 0.41748 0.29265 0.6863 0.0
H2211 H 0.41017 0.30033 0.70503 0.0
H2212 H 0.40428 0.26807 0.719 0.0
H2213 H 0.37563 0.23215 0.71173 0.0
H2214 H 0.62935 0.14799 0.69884 0.0
H2215 H 0.66682 0.15707 0.69227 0.0
H2216 H 0.67283 0.13389 0.73917 0.0
H2217 H 0.63539 0.12502 0.74583 0.0
H2218 H 0.71022 0.17181 0.73022 0.0
H2219 H 0.68326 0.11205 0.68037 0.0
H2220 H 0.67426 0.1311 0.67843 0.0
H2221 H 0.66453 0.11252 0.695 0.0
C2222 C 0.63876 0.145 0.70778 0.0
C2223 C 0.6294 0.13552 0.72276 0.0
C2224 C 0.66011 0.15006 0.70398 0.0
C2225 C 0.67252 0.14573 0.71507 0.0
C2226 C 0.66354 0.13722 0.73036 0.0
H2227 H 0.78298 0.12803 0.70048 0.0
H2228 H 0.74736 0.12504 0.7051 0.0
C2229 C 0.64218 0.13216 0.73416 0.0
C2230 C 0.69459 0.14949 0.71063 0.0
H2231 H 0.72124 0.13383 0.68422 0.0
C2232 C 0.71265 0.16358 0.72012 0.0
C2233 C 0.69776 0.13859 0.69754 0.0
C2234 C 0.67894 0.12257 0.6873 0.0
C2235 C 0.73369 0.16701 0.71692 0.0
C2236 C 0.73686 0.15623 0.70375 0.0
C2237 C 0.71884 0.14222 0.69422 0.0
C2238 C 0.75845 0.15821 0.70031 0.0
C2239 C 0.75227 0.18165 0.72796 0.0
C2240 C 0.77653 0.17779 0.69588 0.0
C2241 C 0.7969 0.17948 0.6932 0.0
C2242 C 0.79946 0.16155 0.69464 0.0
C2243 C 0.78136 0.14201 0.69905 0.0
C2244 C 0.76103 0.1403 0.70168 0.0
H2245 H 0.74638 0.18516 0.73943 0.0
H2246 H 0.76258 0.1746 0.73105 0.0
H2247 H 0.76265 0.19692 0.7216 0.0
H2248 H 0.77493 0.19178 0.69456 0.0
H2249 H 0.81065 0.19487 0.69026 0.0
H2250 H 0.87062 0.47801 0.70483 0.0
H2251 H 0.86077 0.50539 0.69916 0.0
H2252 H 0.90852 0.54703 0.73428 0.0
H2253 H 0.91843 0.51973 0.73991 0.0
H2254 H 0.84596 0.52606 0.72148 0.0
H2255 H 0.92434 0.5828 0.69197 0.0
H2256 H 0.9159 0.5551 0.69496 0.0
H2257 H 0.92677 0.5735 0.7117 0.0
C2258 C 0.87905 0.49308 0.71124 0.0
C2259 C 0.89562 0.49705 0.7225 0.0
C2260 C 0.87339 0.50863 0.70805 0.0
C2261 C 0.88422 0.52835 0.71609 0.0
C2262 C 0.90032 0.53208 0.7277 0.0
H2263 H 0.87867 0.64477 0.71038 0.0
H2264 H 0.88681 0.61673 0.71721 0.0
C2265 C 0.90593 0.51652 0.73093 0.0
C2266 C 0.87861 0.54499 0.71237 0.0
H2267 H 0.89943 0.59492 0.69672 0.0
C2268 C 0.85759 0.5411 0.71602 0.0
C2269 C 0.89387 0.56458 0.70528 0.0
C2270 C 0.91645 0.56928 0.7006 0.0
C2271 C 0.85152 0.55648 0.71303 0.0
C2272 C 0.86677 0.57607 0.70588 0.0
C2273 C 0.88779 0.57992 0.70223 0.0
C2274 C 0.86129 0.5928 0.70203 0.0
C2275 C 0.82902 0.55181 0.71791 0.0
C2276 C 0.84431 0.58868 0.69115 0.0
C2277 C 0.8395 0.60463 0.68731 0.0
C2278 C 0.85182 0.62513 0.69406 0.0
C2279 C 0.86885 0.6292 0.70494 0.0
C2280 C 0.87357 0.6132 0.70884 0.0
H2281 H 0.82174 0.53902 0.72718 0.0
H2282 H 0.8294 0.56624 0.72285 0.0
H2283 H 0.81822 0.54641 0.70705 0.0
H2284 H 0.83488 0.57318 0.68551 0.0
H2285 H 0.82609 0.60083 0.67908 0.0
H2286 H 0.46396 0.88033 0.23737 0.0
H2287 H 0.47504 0.89741 0.2106 0.0
H2288 H 0.46011 0.9455 0.22598 0.0
H2289 H 0.44928 0.92875 0.25274 0.0
H2290 H 0.44875 0.90732 0.18771 0.0
H2291 H 0.52451 0.97861 0.20922 0.0
H2292 H 0.51103 0.95422 0.22075 0.0
H2293 H 0.5004 0.97208 0.22071 0.0
C2294 C 0.46319 0.89463 0.23508 0.0
C2295 C 0.45576 0.9032 0.2472 0.0
C2296 C 0.46939 0.90428 0.21976 0.0
C2297 C 0.46854 0.92279 0.21637 0.0
C2298 C 0.46106 0.93132 0.2284 0.0
H2299 H 0.50332 0.01356 0.13885 0.0
H2300 H 0.4905 0.99235 0.16366 0.0
C2301 C 0.45474 0.92163 0.24365 0.0
C2302 C 0.47547 0.93335 0.20028 0.0
H2303 H 0.51316 0.97955 0.18227 0.0
C2304 C 0.46291 0.92305 0.18644 0.0
C2305 C 0.49394 0.95385 0.19871 0.0
C2306 C 0.50841 0.96534 0.21309 0.0
C2307 C 0.46792 0.93304 0.17113 0.0
C2308 C 0.48627 0.9537 0.16959 0.0
C2309 C 0.49904 0.96377 0.18343 0.0
C2310 C 0.49234 0.96557 0.15393 0.0
C2311 C 0.45308 0.9217 0.1569 0.0
C2312 C 0.49742 0.95751 0.14007 0.0
C2313 C 0.50464 0.96961 0.12578 0.0
C2314 C 0.50724 0.99011 0.12519 0.0
C2315 C 0.50171 0.99792 0.13898 0.0
C2316 C 0.49435 0.98579 0.15316 0.0
H2317 H 0.43686 0.90881 0.16095 0.0
H2318 H 0.45071 0.93295 0.1492 0.0
H2319 H 0.46053 0.9144 0.14928 0.0
H2320 H 0.49647 0.94216 0.14044 0.0
H2321 H 0.50902 0.96327 0.11542 0.0
H2322 H 0.08362 0.52237 0.25177 0.0
H2323 H 0.06603 0.51658 0.22511 0.0
H2324 H 0.12068 0.57501 0.20775 0.0
H2325 H 0.1378 0.58128 0.23471 0.0
H2326 H 0.08474 0.57226 0.19745 0.0
H2327 H 0.07958 0.49511 0.18492 0.0
H2328 H 0.06585 0.49402 0.20348 0.0
H2329 H 0.09487 0.51168 0.2019 0.0
C2330 C 0.09185 0.53391 0.24221 0.0
C2331 C 0.11208 0.55218 0.24518 0.0
C2332 C 0.0819 0.53053 0.22696 0.0
C2333 C 0.09229 0.54505 0.21425 0.0
C2334 C 0.11241 0.56349 0.21731 0.0
H2335 H 0.04273 0.50809 0.11515 0.0
H2336 H 0.06562 0.51867 0.13943 0.0
C2337 C 0.12217 0.56708 0.23268 0.0
C2338 C 0.08186 0.54127 0.19794 0.0
H2339 H 0.05701 0.50355 0.16835 0.0
C2340 C 0.07889 0.55731 0.191 0.0
C2341 C 0.07468 0.52199 0.18929 0.0
C2342 C 0.07914 0.50485 0.19521 0.0
C2343 C 0.06831 0.55435 0.17595 0.0
C2344 C 0.05968 0.53446 0.1679 0.0
C2345 C 0.06329 0.51869 0.17459 0.0
C2346 C 0.04655 0.52946 0.15271 0.0
C2347 C 0.06687 0.57272 0.16876 0.0
C2348 C 0.02817 0.53198 0.152 0.0
C2349 C 0.01538 0.52655 0.13792 0.0
C2350 C 0.0203 0.51786 0.12434 0.0
C2351 C 0.03863 0.51514 0.12516 0.0
C2352 C 0.05165 0.52098 0.13915 0.0
H2353 H 0.08049 0.58822 0.1731 0.0
H2354 H 0.06721 0.57249 0.15525 0.0
H2355 H 0.05142 0.57176 0.17269 0.0
H2356 H 0.02347 0.53789 0.16244 0.0
H2357 H 1.00161 0.52916 0.13774 0.0
H2358 H 0.45444 0.52681 0.24962 0.0
H2359 H 0.4634 0.51846 0.22284 0.0
H2360 H 0.49093 0.58409 0.20869 0.0
H2361 H 0.48121 0.59238 0.23512 0.0
H2362 H 0.46693 0.55648 0.18405 0.0
H2363 H 0.5254 0.5347 0.21043 0.0
H2364 H 0.49813 0.51961 0.21813 0.0
H2365 H 0.51389 0.54769 0.22218 0.0
C2366 C 0.46208 0.5394 0.24073 0.0
C2367 C 0.46736 0.56033 0.24462 0.0
C2368 C 0.46741 0.53464 0.22548 0.0
C2369 C 0.47827 0.55074 0.21389 0.0
C2370 C 0.48274 0.57144 0.21749 0.0
H2371 H 0.55986 0.55646 0.13441 0.0
H2372 H 0.54373 0.56071 0.15938 0.0
C2373 C 0.47734 0.57619 0.23268 0.0
C2374 C 0.48569 0.54634 0.1982 0.0
H2375 H 0.5198 0.53062 0.18203 0.0
C2376 C 0.47842 0.55074 0.18358 0.0
C2377 C 0.50092 0.53913 0.19763 0.0
C2378 C 0.51023 0.53518 0.21291 0.0
C2379 C 0.48604 0.54822 0.16841 0.0
C2380 C 0.50106 0.54075 0.16785 0.0
C2381 C 0.50819 0.53621 0.18247 0.0
C2382 C 0.51045 0.53847 0.15233 0.0
C2383 C 0.4785 0.55424 0.15317 0.0
C2384 C 0.49712 0.52454 0.14003 0.0
C2385 C 0.50632 0.5221 0.12569 0.0
C2386 C 0.52906 0.53336 0.12347 0.0
C2387 C 0.54232 0.54735 0.13581 0.0
C2388 C 0.53312 0.54985 0.15007 0.0
H2389 H 0.47138 0.56451 0.15591 0.0
H2390 H 0.49219 0.56274 0.14451 0.0
H2391 H 0.46575 0.5396 0.1471 0.0
H2392 H 0.47963 0.51526 0.14164 0.0
H2393 H 0.49569 0.511 0.11651 0.0
H2394 H 0.94204 0.43999 0.77939 0.0
H2395 H 0.96027 0.4493 0.80584 0.0
H2396 H 0.92075 0.47623 0.82062 0.0
H2397 H 0.90174 0.46614 0.79436 0.0
H2398 H 0.9842 0.48847 0.82045 0.0
H2399 H 0.91171 0.43557 0.8578 0.0
H2400 H 0.91192 0.43328 0.83593 0.0
H2401 H 0.90861 0.45399 0.84508 0.0
C2402 C 0.93699 0.44763 0.78833 0.0
C2403 C 0.92023 0.45208 0.78482 0.0
C2404 C 0.94756 0.4531 0.8034 0.0
C2405 C 0.94162 0.46314 0.81529 0.0
C2406 C 0.92528 0.4681 0.81173 0.0
H2407 H 0.99487 0.50289 0.91377 0.0
H2408 H 0.97503 0.49814 0.88821 0.0
C2409 C 0.91462 0.46255 0.79665 0.0
C2410 C 0.95279 0.46846 0.83132 0.0
H2411 H 0.94459 0.45742 0.87195 0.0
C2412 C 0.97552 0.48174 0.83171 0.0
C2413 C 0.94141 0.45969 0.84601 0.0
C2414 C 0.9171 0.44469 0.84626 0.0
C2415 C 0.98723 0.48629 0.84637 0.0
C2416 C 0.97592 0.47716 0.86097 0.0
C2417 C 0.95315 0.46437 0.86069 0.0
C2418 C 0.98763 0.47984 0.8765 0.0
C2419 C 0.01164 0.50075 0.84614 0.0
C2420 C 1.00094 0.47078 0.8784 0.0
C2421 C 0.01207 0.47322 0.89301 0.0
C2422 C 0.01015 0.48482 0.90601 0.0
C2423 C 0.99656 0.49368 0.90409 0.0
C2424 C 0.98531 0.49111 0.88947 0.0
H2425 H 0.01717 0.51035 0.83483 0.0
H2426 H 0.01713 0.51169 0.85679 0.0
H2427 H 0.01966 0.49098 0.84683 0.0
H2428 H 1.0026 0.46169 0.8686 0.0
H2429 H 0.022 0.4658 0.89416 0.0
H2430 H 0.57772 0.49903 0.77814 0.0
H2431 H 0.56594 0.50486 0.80472 0.0
H2432 H 0.55343 0.44319 0.82055 0.0
H2433 H 0.56538 0.43727 0.79401 0.0
H2434 H 0.52287 0.47634 0.81962 0.0
H2435 H 0.59323 0.48663 0.85693 0.0
H2436 H 0.59495 0.49042 0.83513 0.0
H2437 H 0.5808 0.46407 0.84339 0.0
C2438 C 0.57268 0.48679 0.78734 0.0
C2439 C 0.57255 0.46771 0.784 0.0
C2440 C 0.56587 0.49012 0.80247 0.0
C2441 C 0.55904 0.47455 0.81462 0.0
C2442 C 0.55889 0.45549 0.81138 0.0
H2443 H 0.51391 0.47097 0.9141 0.0
H2444 H 0.52733 0.46386 0.8887 0.0
C2445 C 0.56554 0.45207 0.79618 0.0
C2446 C 0.55135 0.47803 0.83048 0.0
H2447 H 0.56439 0.48712 0.87088 0.0
C2448 C 0.53192 0.47872 0.83084 0.0
C2449 C 0.56313 0.48091 0.84508 0.0
C2450 C 0.58428 0.48063 0.84523 0.0
C2451 C 0.52386 0.48213 0.84545 0.0
C2452 C 0.5359 0.48557 0.86004 0.0
C2453 C 0.55522 0.48459 0.8597 0.0
C2454 C 0.5288 0.49045 0.87569 0.0
C2455 C 0.50227 0.48158 0.84514 0.0
C2456 C 0.52578 0.5081 0.87697 0.0
C2457 C 0.51802 0.5121 0.8914 0.0
C2458 C 0.51344 0.49873 0.90495 0.0
C2459 C 0.51735 0.48158 0.90388 0.0
C2460 C 0.52495 0.47747 0.88937 0.0
H2461 H 0.49223 0.47253 0.83446 0.0
H2462 H 0.49279 0.47428 0.85638 0.0
H2463 H 0.50524 0.49807 0.84425 0.0
H2464 H 0.52928 0.51872 0.86676 0.0
H2465 H 0.5156 0.52569 0.89196 0.0
H2466 H 0.54315 0.12819 0.79532 0.0
H2467 H 0.53519 0.11093 0.82187 0.0
H2468 H 0.56615 0.07532 0.80728 0.0
H2469 H 0.57344 0.09194 0.78038 0.0
H2470 H 0.52681 0.05004 0.82088 0.0
H2471 H 0.57407 0.12004 0.86069 0.0
H2472 H 0.55572 0.12327 0.8475 0.0
H2473 H 0.57786 0.12103 0.83892 0.0
C2474 C 0.54828 0.11668 0.79772 0.0
C2475 C 0.55886 0.1114 0.78563 0.0
C2476 C 0.54398 0.10704 0.81303 0.0
C2477 C 0.55037 0.09206 0.81672 0.0
C2478 C 0.56122 0.08696 0.80478 0.0
H2479 H 0.53583 0.03518 0.9137 0.0
H2480 H 0.5512 0.05568 0.88867 0.0
C2481 C 0.5655 0.09658 0.78943 0.0
C2482 C 0.54434 0.08067 0.83258 0.0
H2483 H 0.54688 0.08826 0.87382 0.0
C2484 C 0.5314 0.0584 0.83244 0.0
C2485 C 0.55054 0.09151 0.84772 0.0
C2486 C 0.5655 0.11526 0.84876 0.0
C2487 C 0.52387 0.04678 0.84695 0.0
C2488 C 0.52903 0.05771 0.86204 0.0
C2489 C 0.54266 0.0799 0.86224 0.0
C2490 C 0.51991 0.04636 0.87763 0.0
C2491 C 0.51043 0.02284 0.84596 0.0
C2492 C 0.49726 0.03486 0.87996 0.0
C2493 C 0.48848 0.02322 0.8942 0.0
C2494 C 0.50213 0.02289 0.90653 0.0
C2495 C 0.52486 0.03513 0.90448 0.0
C2496 C 0.53366 0.04678 0.89015 0.0
H2497 H 0.51325 0.01671 0.83435 0.0
H2498 H 0.51421 0.0153 0.85625 0.0
H2499 H 0.49288 0.01791 0.84654 0.0
H2500 H 0.48634 0.03476 0.87067 0.0
H2501 H 0.47092 0.01438 0.89553 0.0
H2502 H 0.15497 0.25157 0.58325 0.0
H2503 H 0.16525 0.2677 0.55624 0.0
H2504 H 0.09807 0.23225 0.54082 0.0
H2505 H 0.08766 0.21585 0.56773 0.0
H2506 H 0.15888 0.24835 0.525 0.0
H2507 H 0.11568 0.29431 0.53062 0.0
H2508 H 0.12124 0.28246 0.54794 0.0
H2509 H 0.09925 0.26625 0.53427 0.0
C2510 C 0.14239 0.24702 0.57408 0.0
C2511 C 0.12045 0.23251 0.57773 0.0
C2512 C 0.14829 0.25633 0.55866 0.0
C2513 C 0.13239 0.25144 0.5466 0.0
C2514 C 0.11056 0.23661 0.55005 0.0
H2515 H 0.14241 0.30494 0.44927 0.0
H2516 H 0.12899 0.28234 0.47351 0.0
C2517 C 0.10464 0.22727 0.56546 0.0
C2518 C 0.13869 0.26196 0.53044 0.0
H2519 H 0.13231 0.296 0.50539 0.0
C2520 C 0.15306 0.25875 0.52069 0.0
C2521 C 0.13098 0.27543 0.5248 0.0
C2522 C 0.11607 0.28002 0.53497 0.0
C2523 C 0.15993 0.26865 0.50545 0.0
C2524 C 0.15257 0.28247 0.49995 0.0
C2525 C 0.1379 0.28537 0.50958 0.0
C2526 C 0.1608 0.29498 0.4847 0.0
C2527 C 0.17484 0.26404 0.49532 0.0
C2528 C 0.18311 0.30957 0.48291 0.0
C2529 C 0.19081 0.32238 0.46909 0.0
C2530 C 0.17635 0.32107 0.45676 0.0
C2531 C 0.15402 0.3062 0.45844 0.0
C2532 C 0.14631 0.29337 0.47233 0.0
H2533 H 0.17347 0.2486 0.4987 0.0
H2534 H 0.17117 0.26369 0.48214 0.0
H2535 H 0.19197 0.27671 0.49743 0.0
H2536 H 0.19457 0.31142 0.49241 0.0
H2537 H 0.20813 0.33349 0.46812 0.0
H2538 H 0.79686 0.87152 0.56686 0.0
H2539 H 0.77844 0.86534 0.54051 0.0
H2540 H 0.74115 0.89307 0.55873 0.0
H2541 H 0.75908 0.89889 0.58522 0.0
H2542 H 0.73184 0.84081 0.53499 0.0
H2543 H 0.76788 0.92489 0.51526 0.0
H2544 H 0.77993 0.91671 0.53103 0.0
H2545 H 0.75652 0.91928 0.5354 0.0
C2546 C 0.78466 0.87622 0.5653 0.0
C2547 C 0.77947 0.88572 0.57818 0.0
C2548 C 0.77427 0.87279 0.55021 0.0
C2549 C 0.75866 0.87899 0.54765 0.0
C2550 C 0.75347 0.88854 0.56039 0.0
H2551 H 0.6734 0.87086 0.46937 0.0
H2552 H 0.69445 0.87791 0.49451 0.0
C2553 C 0.76377 0.89189 0.57552 0.0
C2554 C 0.74714 0.87469 0.53184 0.0
H2555 H 0.73867 0.89891 0.49933 0.0
C2556 C 0.73341 0.85348 0.52711 0.0
C2557 C 0.74923 0.89129 0.52167 0.0
C2558 C 0.76431 0.91435 0.52597 0.0
C2559 C 0.72121 0.84837 0.51265 0.0
C2560 C 0.72322 0.86498 0.50248 0.0
C2561 C 0.73715 0.88621 0.50715 0.0
C2562 C 0.71064 0.86068 0.48712 0.0
C2563 C 0.70575 0.82527 0.50867 0.0
C2564 C 0.71296 0.84887 0.47453 0.0
C2565 C 0.70071 0.84455 0.46022 0.0
C2566 C 0.68608 0.85217 0.45815 0.0
C2567 C 0.68418 0.86439 0.47067 0.0
C2568 C 0.69634 0.8686 0.485 0.0
H2569 H 0.70184 0.81503 0.51961 0.0
H2570 H 0.6903 0.82302 0.50338 0.0
H2571 H 0.71347 0.81976 0.49962 0.0
H2572 H 0.72423 0.84297 0.47577 0.0
H2573 H 0.70249 0.83497 0.45089 0.0
H2574 H 0.11728 0.86075 0.58385 0.0
H2575 H 0.12556 0.85152 0.55717 0.0
H2576 H 0.15268 0.91664 0.54176 0.0
H2577 H 0.14354 0.92579 0.56806 0.0
H2578 H 0.1284 0.88858 0.51773 0.0
H2579 H 0.18694 0.86696 0.54417 0.0
H2580 H 0.15982 0.85207 0.55216 0.0
H2581 H 0.17568 0.88024 0.55582 0.0
C2582 C 0.12467 0.87304 0.5747 0.0
C2583 C 0.12999 0.89409 0.5782 0.0
C2584 C 0.12963 0.86778 0.55951 0.0
C2585 C 0.14018 0.88349 0.54759 0.0
C2586 C 0.14472 0.90429 0.55082 0.0
H2587 H 0.21994 0.88534 0.46821 0.0
H2588 H 0.20434 0.89091 0.49295 0.0
C2589 C 0.13966 0.90954 0.56593 0.0
C2590 C 0.14721 0.87856 0.53195 0.0
H2591 H 0.18056 0.86185 0.51589 0.0
C2592 C 0.13974 0.88266 0.5173 0.0
C2593 C 0.16225 0.87112 0.53143 0.0
C2594 C 0.17183 0.86751 0.54671 0.0
C2595 C 0.147 0.87964 0.50214 0.0
C2596 C 0.16181 0.87192 0.50164 0.0
C2597 C 0.16911 0.86765 0.51629 0.0
C2598 C 0.17084 0.86909 0.48614 0.0
C2599 C 0.13933 0.88543 0.48686 0.0
C2600 C 0.1572 0.85503 0.47401 0.0
C2601 C 0.16611 0.85189 0.45978 0.0
C2602 C 0.18883 0.86253 0.45755 0.0
C2603 C 0.20239 0.87672 0.46966 0.0
C2604 C 0.1935 0.87996 0.48378 0.0
H2605 H 0.13258 0.89603 0.48948 0.0
H2606 H 0.15284 0.89346 0.47799 0.0
H2607 H 0.12625 0.87072 0.48107 0.0
H2608 H 0.13971 0.84613 0.47569 0.0
H2609 H 0.15527 0.84068 0.45074 0.0
H2610 H 0.60404 0.81565 0.11479 0.0
H2611 H 0.62224 0.82419 0.14132 0.0
H2612 H 0.5813 0.75917 0.1565 0.0
H2613 H 0.56234 0.7507 0.1303 0.0
H2614 H 0.58716 0.78786 0.18069 0.0
H2615 H 0.66646 0.80632 0.15356 0.0
H2616 H 0.65531 0.8219 0.14559 0.0
H2617 H 0.64128 0.79364 0.14216 0.0
C2618 C 0.59863 0.80324 0.12386 0.0
C2619 C 0.58187 0.78242 0.12034 0.0
C2620 C 0.60923 0.8081 0.13895 0.0
C2621 C 0.60344 0.7922 0.15073 0.0
C2622 C 0.58616 0.77163 0.14751 0.0
H2623 H 0.68063 0.78904 0.23077 0.0
H2624 H 0.6599 0.78372 0.20566 0.0
C2625 C 0.57547 0.76678 0.13248 0.0
C2626 C 0.61575 0.79674 0.16624 0.0
H2627 H 0.66626 0.81226 0.18184 0.0
C2628 C 0.60446 0.79324 0.18097 0.0
C2629 C 0.63826 0.80346 0.16654 0.0
C2630 C 0.65104 0.80637 0.15114 0.0
C2631 C 0.61509 0.7963 0.19602 0.0
C2632 C 0.6377 0.80343 0.19631 0.0
C2633 C 0.64897 0.80695 0.18158 0.0
C2634 C 0.6499 0.8066 0.21173 0.0
C2635 C 0.6019 0.79125 0.21144 0.0
C2636 C 0.65129 0.82136 0.22343 0.0
C2637 C 0.66311 0.8244 0.23782 0.0
C2638 C 0.67396 0.81292 0.24066 0.0
C2639 C 0.67265 0.79828 0.22885 0.0
C2640 C 0.66075 0.79517 0.21453 0.0
H2641 H 0.58417 0.78089 0.20904 0.0
H2642 H 0.60711 0.78325 0.22043 0.0
H2643 H 0.6044 0.80627 0.21697 0.0
H2644 H 0.64348 0.83071 0.22135 0.0
H2645 H 0.66409 0.83601 0.24659 0.0
H2646 H 0.23595 0.76955 0.12727 0.0
H2647 H 0.22484 0.77559 0.15405 0.0
H2648 H 0.22756 0.83272 0.13613 0.0
H2649 H 0.23955 0.82715 0.10957 0.0
H2650 H 0.2458 0.83987 0.16485 0.0
H2651 H 0.16649 0.76492 0.16812 0.0
H2652 H 0.18897 0.76037 0.16562 0.0
H2653 H 0.18245 0.77339 0.14975 0.0
C2654 C 0.23399 0.78329 0.12906 0.0
C2655 C 0.2385 0.79784 0.11637 0.0
C2656 C 0.22753 0.78668 0.14433 0.0
C2657 C 0.22491 0.80439 0.14707 0.0
C2658 C 0.2294 0.81891 0.13434 0.0
H2659 H 0.15369 0.82181 0.22467 0.0
H2660 H 0.16638 0.81333 0.19978 0.0
C2661 C 0.23623 0.81573 0.11917 0.0
C2662 C 0.21809 0.80822 0.16326 0.0
H2663 H 0.17844 0.78581 0.19223 0.0
C2664 C 0.23103 0.82806 0.17082 0.0
C2665 C 0.1987 0.7929 0.171 0.0
C2666 C 0.18324 0.7718 0.16313 0.0
C2667 C 0.22508 0.83309 0.18576 0.0
C2668 C 0.20602 0.81755 0.19372 0.0
C2669 C 0.19318 0.79764 0.18624 0.0
C2670 C 0.19833 0.82206 0.20927 0.0
C2671 C 0.23887 0.85531 0.19249 0.0
C2672 C 0.21184 0.82938 0.22311 0.0
C2673 C 0.20481 0.83482 0.23731 0.0
C2674 C 0.18394 0.83266 0.23807 0.0
C2675 C 0.17009 0.82429 0.22444 0.0
C2676 C 0.17724 0.81918 0.21021 0.0
H2677 H 0.24896 0.86674 0.18287 0.0
H2678 H 0.22861 0.86112 0.19818 0.0
H2679 H 0.25011 0.85524 0.20188 0.0
H2680 H 0.22795 0.83115 0.22288 0.0
H2681 H 0.21599 0.84125 0.2475 0.0
H2682 H 0.18884 0.41722 0.11068 0.0
H2683 H 0.18151 0.40124 0.13768 0.0
H2684 H 0.24777 0.44504 0.15218 0.0
H2685 H 0.25502 0.46179 0.1253 0.0
H2686 H 0.20013 0.38133 0.15342 0.0
H2687 H 0.21353 0.45222 0.18886 0.0
H2688 H 0.21092 0.45085 0.16697 0.0
H2689 H 0.23608 0.45618 0.17642 0.0
C2690 C 0.20182 0.4237 0.11965 0.0
C2691 C 0.22246 0.441 0.11582 0.0
C2692 C 0.19763 0.41441 0.13507 0.0
C2693 C 0.21396 0.42215 0.14708 0.0
C2694 C 0.23476 0.43909 0.14324 0.0
H2695 H 0.20414 0.37172 0.24626 0.0
H2696 H 0.21873 0.39242 0.22119 0.0
C2697 C 0.23896 0.44846 0.12778 0.0
C2698 C 0.20904 0.41206 0.16345 0.0
H2699 H 0.20517 0.42131 0.20385 0.0
C2700 C 0.20134 0.39012 0.16444 0.0
C2701 C 0.21067 0.42353 0.17787 0.0
C2702 C 0.21807 0.44696 0.17755 0.0
C2703 C 0.19492 0.37931 0.17934 0.0
C2704 C 0.19606 0.39065 0.19366 0.0
C2705 C 0.20436 0.41268 0.19283 0.0
C2706 C 0.18734 0.37951 0.20933 0.0
C2707 C 0.18674 0.35572 0.17967 0.0
C2708 C 0.16484 0.36591 0.21112 0.0
C2709 C 0.15645 0.35427 0.22541 0.0
C2710 C 0.17039 0.35587 0.23826 0.0
C2711 C 0.19292 0.37015 0.23667 0.0
C2712 C 0.20131 0.38192 0.22233 0.0
H2713 H 0.19136 0.35026 0.1685 0.0
H2714 H 0.19325 0.35148 0.19045 0.0
H2715 H 0.16869 0.34699 0.18052 0.0
H2716 H 0.15375 0.3641 0.20133 0.0
H2717 H 0.13899 0.34385 0.22633 0.0
H2718 H 0.75556 0.5515 0.90414 0.0
H2719 H 0.76593 0.56757 0.87713 0.0
H2720 H 0.83318 0.60292 0.89239 0.0
H2721 H 0.82295 0.58715 0.9195 0.0
H2722 H 0.78638 0.61074 0.86925 0.0
H2723 H 0.83648 0.57565 0.84955 0.0
H2724 H 0.81801 0.56547 0.86658 0.0
H2725 H 0.84436 0.58887 0.86894 0.0
C2726 C 0.77257 0.56275 0.90179 0.0
C2727 C 0.78842 0.56802 0.91405 0.0
C2728 C 0.77847 0.57183 0.8863 0.0
C2729 C 0.80037 0.58622 0.88265 0.0
C2730 C 0.81625 0.59148 0.8948 0.0
H2731 H 0.87413 0.66915 0.80425 0.0
H2732 H 0.86058 0.64747 0.82875 0.0
C2733 C 0.81036 0.58244 0.91032 0.0
C2734 C 0.80647 0.59646 0.86637 0.0
H2735 H 0.83884 0.60394 0.83339 0.0
C2736 C 0.79768 0.60909 0.86132 0.0
C2737 C 0.82121 0.59429 0.85604 0.0
C2738 C 0.83043 0.58018 0.86045 0.0
C2739 C 0.80382 0.62023 0.84651 0.0
C2740 C 0.81885 0.61834 0.83629 0.0
C2741 C 0.82733 0.60538 0.84121 0.0
C2742 C 0.82689 0.6306 0.8209 0.0
C2743 C 0.7948 0.63456 0.84225 0.0
C2744 C 0.81254 0.62801 0.80811 0.0
C2745 C 0.82024 0.64057 0.79408 0.0
C2746 C 0.84246 0.6559 0.79255 0.0
C2747 C 0.85686 0.65782 0.80514 0.0
C2748 C 0.84916 0.64532 0.81913 0.0
H2749 H 0.78761 0.63807 0.853 0.0
H2750 H 0.8077 0.64983 0.83711 0.0
H2751 H 0.78177 0.62661 0.83295 0.0
H2752 H 0.79534 0.61645 0.80905 0.0
H2753 H 0.80869 0.63868 0.78465 0.0
H2754 H 0.42929 0.23354 0.91945 0.0
H2755 H 0.41334 0.22797 0.89218 0.0
H2756 H 0.45481 0.20401 0.87574 0.0
H2757 H 0.47111 0.20982 0.9029 0.0
H2758 H 0.43429 0.24382 0.86079 0.0
H2759 H 0.39158 0.15558 0.86562 0.0
H2760 H 0.40232 0.17283 0.88317 0.0
H2761 H 0.42036 0.16938 0.86982 0.0
C2762 C 0.43525 0.22738 0.90998 0.0
C2763 C 0.45135 0.22197 0.91338 0.0
C2764 C 0.42606 0.22413 0.89444 0.0
C2765 C 0.43271 0.21531 0.88205 0.0
C2766 C 0.44921 0.21048 0.88524 0.0
H2767 H 0.37862 0.17018 0.78507 0.0
H2768 H 0.40191 0.18079 0.80932 0.0
C2769 C 0.45844 0.21376 0.90077 0.0
C2770 C 0.42193 0.21067 0.86593 0.0
H2771 H 0.38815 0.16982 0.84079 0.0
C2772 C 0.42424 0.22766 0.85636 0.0
C2773 C 0.40893 0.18958 0.86022 0.0
C2774 C 0.40544 0.17073 0.87025 0.0
C2775 C 0.41385 0.22409 0.84117 0.0
C2776 C 0.40045 0.20296 0.83561 0.0
C2777 C 0.39847 0.18601 0.84507 0.0
C2778 C 0.38753 0.19795 0.82038 0.0
C2779 C 0.41749 0.24299 0.83115 0.0
C2780 C 0.37173 0.20407 0.81858 0.0
C2781 C 0.35853 0.19818 0.80471 0.0
C2782 C 0.36071 0.18585 0.79242 0.0
C2783 C 0.37671 0.17991 0.7942 0.0
C2784 C 0.38994 0.18585 0.80808 0.0
H2785 H 0.43294 0.25754 0.83459 0.0
H2786 H 0.41796 0.23994 0.81795 0.0
H2787 H 0.40392 0.24616 0.83331 0.0
H2788 H 0.36927 0.21303 0.82807 0.0
H2789 H 0.34652 0.2032 0.80365 0.0
H2790 H 0.79506 0.19826 0.9181 0.0
H2791 H 0.80491 0.1911 0.89118 0.0
H2792 H 0.80607 0.24713 0.87232 0.0
H2793 H 0.7974 0.25487 0.89946 0.0
H2794 H 0.7879 0.18317 0.86197 0.0
H2795 H 0.86557 0.25992 0.85999 0.0
H2796 H 0.84892 0.25092 0.87798 0.0
H2797 H 0.84234 0.26343 0.86174 0.0
C2798 C 0.79728 0.20891 0.90813 0.0
C2799 C 0.7957 0.2272 0.91079 0.0
C2800 C 0.80291 0.20485 0.89278 0.0
C2801 C 0.80682 0.21888 0.87978 0.0
C2802 C 0.80392 0.23647 0.88225 0.0
H2803 H 0.82357 0.18404 0.78037 0.0
H2804 H 0.80875 0.19179 0.80454 0.0
C2805 C 0.79876 0.24078 0.89769 0.0
C2806 C 0.81454 0.21538 0.86386 0.0
H2807 H 0.85544 0.23908 0.83597 0.0
C2808 C 0.80269 0.19538 0.85629 0.0
C2809 C 0.83403 0.23121 0.85654 0.0
C2810 C 0.84857 0.25248 0.86456 0.0
C2811 C 0.80986 0.19071 0.84173 0.0
C2812 C 0.82899 0.20677 0.83416 0.0
C2813 C 0.84067 0.22682 0.84165 0.0
C2814 C 0.83803 0.20284 0.81905 0.0
C2815 C 0.79728 0.16837 0.83502 0.0
C2816 C 0.85979 0.20746 0.8188 0.0
C2817 C 0.86858 0.2038 0.8048 0.0
C2818 C 0.85576 0.19511 0.79071 0.0
C2819 C 0.83405 0.19084 0.7909 0.0
C2820 C 0.82537 0.19491 0.80485 0.0
H2821 H 0.7872 0.15677 0.84454 0.0
H2822 H 0.78611 0.16776 0.82528 0.0
H2823 H 0.80839 0.16328 0.82977 0.0
H2824 H 0.87001 0.2138 0.82952 0.0
H2825 H 0.88552 0.20789 0.80507 0.0
H2826 H 0.27013 0.14942 0.44639 0.0
H2827 H 0.28694 0.15813 0.4735 0.0
H2828 H 0.23806 0.09644 0.49083 0.0
H2829 H 0.22146 0.08753 0.4637 0.0
H2830 H 0.27219 0.16008 0.50403 0.0
H2831 H 0.29404 0.09658 0.50125 0.0
H2832 H 0.28444 0.10445 0.48371 0.0
H2833 H 0.26544 0.08694 0.49865 0.0
C2834 C 0.26285 0.13783 0.45605 0.0
C2835 C 0.24466 0.11771 0.45293 0.0
C2836 C 0.27248 0.14279 0.4715 0.0
C2837 C 0.26404 0.12775 0.48407 0.0
C2838 C 0.2452 0.10806 0.48118 0.0
H2839 H 0.30735 0.12732 0.58323 0.0
H2840 H 0.28536 0.12033 0.55847 0.0
C2841 C 0.2357 0.10302 0.46572 0.0
C2842 C 0.27534 0.1324 0.50002 0.0
H2843 H 0.30055 0.11505 0.52628 0.0
C2844 C 0.27841 0.15026 0.5089 0.0
C2845 C 0.28354 0.11961 0.5063 0.0
C2846 C 0.28191 0.10095 0.49693 0.0
C2847 C 0.28929 0.15553 0.52397 0.0
C2848 C 0.29734 0.14266 0.53023 0.0
C2849 C 0.29416 0.12476 0.52144 0.0
C2850 C 0.30988 0.14788 0.5456 0.0
C2851 C 0.29199 0.1747 0.53318 0.0
C2852 C 0.33089 0.16569 0.54649 0.0
C2853 C 0.3435 0.16965 0.56055 0.0
C2854 C 0.33526 0.1559 0.57397 0.0
C2855 C 0.31402 0.13831 0.57315 0.0
C2856 C 0.30149 0.13426 0.55902 0.0
H2857 H 0.28113 0.18039 0.52837 0.0
H2858 H 0.28852 0.171 0.54631 0.0
H2859 H 0.30911 0.18781 0.53207 0.0
H2860 H 0.33772 0.17622 0.53616 0.0
H2861 H 0.35975 0.1834 0.56089 0.0
H2862 H 0.94017 0.14669 0.46119 0.0
H2863 H 0.9287 0.152 0.48803 0.0
H2864 H 0.86188 0.12076 0.47163 0.0
H2865 H 0.87319 0.11567 0.44469 0.0
H2866 H 0.90648 0.17435 0.49522 0.0
H2867 H 0.85887 0.09 0.5145 0.0
H2868 H 0.87811 0.09865 0.49792 0.0
H2869 H 0.85141 0.09524 0.49487 0.0
C2870 C 0.92303 0.14101 0.46325 0.0
C2871 C 0.9076 0.13074 0.45075 0.0
C2872 C 0.91651 0.14395 0.47863 0.0
C2873 C 0.89442 0.13652 0.48189 0.0
C2874 C 0.87896 0.12622 0.46949 0.0
H2875 H 0.81715 0.14288 0.55992 0.0
H2876 H 0.83165 0.13583 0.53522 0.0
C2877 C 0.88546 0.12331 0.45409 0.0
C2878 C 0.88764 0.14037 0.49802 0.0
H2879 H 0.85514 0.11523 0.53066 0.0
C2880 C 0.89541 0.16145 0.50306 0.0
C2881 C 0.8732 0.1235 0.5082 0.0
C2882 C 0.86503 0.10056 0.50371 0.0
C2883 C 0.88855 0.16612 0.51775 0.0
C2884 C 0.87387 0.14924 0.52784 0.0
C2885 C 0.86639 0.12815 0.52292 0.0
C2886 C 0.8653 0.15309 0.54318 0.0
C2887 C 0.89646 0.18908 0.52203 0.0
C2888 C 0.87935 0.16482 0.55602 0.0
C2889 C 0.87111 0.16908 0.57013 0.0
C2890 C 0.84864 0.16158 0.5717 0.0
C2891 C 0.83458 0.14927 0.55899 0.0
C2892 C 0.84282 0.14507 0.54491 0.0
H2893 H 0.90327 0.19965 0.51129 0.0
H2894 H 0.88304 0.191 0.52715 0.0
H2895 H 0.90953 0.19443 0.53135 0.0
H2896 H 0.89671 0.1708 0.55508 0.0
H2897 H 0.88242 0.17866 0.57963 0.0
H2898 H 0.87786 0.79725 0.46272 0.0
H2899 H 0.87045 0.7811 0.48977 0.0
H2900 H 0.89408 0.7395 0.47418 0.0
H2901 H 0.90192 0.75591 0.4472 0.0
H2902 H 0.84273 0.74122 0.49807 0.0
H2903 H 0.92557 0.75987 0.51678 0.0
H2904 H 0.9208 0.77217 0.4994 0.0
H2905 H 0.9175 0.74598 0.4977 0.0
C2906 C 0.88162 0.78476 0.4651 0.0
C2907 C 0.89052 0.77789 0.45282 0.0
C2908 C 0.87742 0.77557 0.48059 0.0
C2909 C 0.882 0.75928 0.48416 0.0
C2910 C 0.89097 0.75244 0.47192 0.0
H2911 H 0.84549 0.66594 0.56019 0.0
H2912 H 0.85894 0.68788 0.53568 0.0
C2913 C 0.89537 0.76178 0.45647 0.0
C2914 C 0.87611 0.7486 0.50033 0.0
H2915 H 0.89596 0.73358 0.53258 0.0
C2916 C 0.85446 0.7398 0.50569 0.0
C2917 C 0.89138 0.74671 0.51033 0.0
C2918 C 0.91516 0.75688 0.50585 0.0
C2919 C 0.84757 0.72871 0.52047 0.0
C2920 C 0.86271 0.7264 0.53023 0.0
C2921 C 0.88439 0.73536 0.52503 0.0
C2922 C 0.85599 0.71395 0.54555 0.0
C2923 C 0.82399 0.71901 0.52539 0.0
C2924 C 0.85029 0.72155 0.55934 0.0
C2925 C 0.84266 0.70907 0.5734 0.0
C2926 C 0.84044 0.6887 0.57386 0.0
C2927 C 0.84675 0.68144 0.56015 0.0
C2928 C 0.85454 0.69399 0.54617 0.0
H2929 H 0.81369 0.71961 0.51542 0.0
H2930 H 0.81738 0.70219 0.52908 0.0
H2931 H 0.82277 0.72781 0.53602 0.0
H2932 H 0.85142 0.73699 0.55912 0.0
H2933 H 0.83783 0.71507 0.58372 0.0
loop_
_geom_bond_atom_site_label_1
_geom_bond_atom_site_label_2
_geom_bond_distance
_geom_bond_site_symmetry_2
_ccdc_geom_bond_type
H0 C7 0.929 . S
H1 C10 0.930 . S
H2 C12 0.929 . S
H3 C4 0.969 . S
C4 H3 0.969 . S
C4 O5 1.550 . S
C4 H6 0.973 . S
O5 C4 1.550 . S
O5 C11 1.412 . S
H6 C4 0.973 . S
C7 H0 0.929 . S
C7 C8 1.400 . S
C7 C9 1.364 . S
C8 C7 1.400 . S
C8 C12 1.377 . S
C9 C7 1.364 . S
C9 C10 1.374 . S
C10 H1 0.930 . S
C10 C9 1.374 . S
C10 C11 1.383 . S
C11 O5 1.412 . S
C11 C10 1.383 . S
C11 C12 1.394 . S
C12 H2 0.929 . S
C12 C8 1.377 . S
C12 C11 1.394 . S
H13 C20 0.929 . S
H14 C23 0.930 . S
H15 C25 0.929 . S
H16 C17 0.969 . S
C17 H16 0.969 . S
C17 O18 1.550 . S
C17 H19 0.973 . S
O18 C17 1.550 . S
O18 C24 1.412 . S
H19 C17 0.973 . S
C20 H13 0.929 . S
C20 C21 1.400 . S
C20 C22 1.364 . S
C21 C20 1.400 . S
C21 C25 1.377 . S
C22 C20 1.364 . S
C22 C23 1.374 . S
C23 H14 0.930 . S
C23 C22 1.374 . S
C23 C24 1.383 . S
C24 O18 1.412 . S
C24 C23 1.383 . S
C24 C25 1.394 . S
C25 H15 0.929 . S
C25 C21 1.377 . S
C25 C24 1.394 . S
H26 C33 0.929 . S
H27 C36 0.930 . S
H28 C38 0.929 . S
H29 C30 0.969 . S
C30 H29 0.969 . S
C30 O31 1.550 . S
C30 H32 0.973 . S
O31 C30 1.550 . S
O31 C37 1.412 . S
H32 C30 0.973 . S
C33 H26 0.929 . S
C33 C34 1.400 . S
C33 C35 1.364 . S
C34 C33 1.400 . S
C34 C38 1.377 . S
C35 C33 1.364 . S
C35 C36 1.374 . S
C36 H27 0.930 . S
C36 C35 1.374 . S
C36 C37 1.383 . S
C37 O31 1.412 . S
C37 C36 1.383 . S
C37 C38 1.394 . S
C38 H28 0.929 . S
C38 C34 1.377 . S
C38 C37 1.394 . S
H39 C46 0.929 . S
H40 C49 0.930 . S
H41 C51 0.929 . S
H42 C43 0.969 . S
C43 H42 0.969 . S
C43 O44 1.550 . S
C43 H45 0.973 . S
O44 C43 1.550 . S
O44 C50 1.412 . S
H45 C43 0.973 . S
C46 H39 0.929 . S
C46 C47 1.400 . S
C46 C48 1.364 . S
C47 C46 1.400 . S
C47 C51 1.377 . S
C48 C46 1.364 . S
C48 C49 1.374 . S
C49 H40 0.930 . S
C49 C48 1.374 . S
C49 C50 1.383 . S
C50 O44 1.412 . S
C50 C49 1.383 . S
C50 C51 1.394 . S
C51 H41 0.929 . S
C51 C47 1.377 . S
C51 C50 1.394 . S
H52 C59 0.929 . S
H53 C62 0.930 . S
H54 C64 0.929 . S
H55 C56 0.969 . S
C56 H55 0.969 . S
C56 O57 1.550 . S
C56 H58 0.973 . S
O57 C56 1.550 . S
O57 C63 1.412 . S
H58 C56 0.973 . S
C59 H52 0.929 . S
C59 C60 1.400 . S
C59 C61 1.364 . S
C60 C59 1.400 . S
C60 C64 1.377 . S
C61 C59 1.364 . S
C61 C62 1.374 . S
C62 H53 0.930 . S
C62 C61 1.374 . S
C62 C63 1.383 . S
C63 O57 1.412 . S
C63 C62 1.383 . S
C63 C64 1.394 . S
C64 H54 0.929 . S
C64 C60 1.377 . S
C64 C63 1.394 . S
H65 C72 0.929 . S
H66 C75 0.930 . S
H67 C77 0.929 . S
H68 C69 0.969 . S
C69 H68 0.969 . S
C69 O70 1.550 . S
C69 H71 0.973 . S
O70 C69 1.550 . S
O70 C76 1.412 . S
H71 C69 0.973 . S
C72 H65 0.929 . S
C72 C73 1.400 . S
C72 C74 1.364 . S
C73 C72 1.400 . S
C73 C77 1.377 . S
C74 C72 1.364 . S
C74 C75 1.374 . S
C75 H66 0.930 . S
C75 C74 1.374 . S
C75 C76 1.383 . S
C76 O70 1.412 . S
C76 C75 1.383 . S
C76 C77 1.394 . S
C77 H67 0.929 . S
C77 C73 1.377 . S
C77 C76 1.394 . S
H78 C85 0.929 . S
H79 C88 0.930 . S
H80 C90 0.929 . S
H81 C82 0.969 . S
C82 H81 0.969 . S
C82 O83 1.550 . S
C82 H84 0.973 . S
O83 C82 1.550 . S
O83 C89 1.412 . S
H84 C82 0.973 . S
C85 H78 0.929 . S
C85 C86 1.400 . S
C85 C87 1.364 . S
C86 C85 1.400 . S
C86 C90 1.377 . S
C87 C85 1.364 . S
C87 C88 1.374 . S
C88 H79 0.930 . S
C88 C87 1.374 . S
C88 C89 1.383 . S
C89 O83 1.412 . S
C89 C88 1.383 . S
C89 C90 1.394 . S
C90 H80 0.929 . S
C90 C86 1.377 . S
C90 C89 1.394 . S
H91 C98 0.929 . S
H92 C101 0.930 . S
H93 C103 0.929 . S
H94 C95 0.969 . S
C95 H94 0.969 . S
C95 O96 1.550 . S
C95 H97 0.973 . S
O96 C95 1.550 . S
O96 C102 1.412 . S
H97 C95 0.973 . S
C98 H91 0.929 . S
C98 C99 1.400 . S
C98 C100 1.364 . S
C99 C98 1.400 . S
C99 C103 1.377 . S
C100 C98 1.364 . S
C100 C101 1.374 . S
C101 H92 0.930 . S
C101 C100 1.374 . S
C101 C102 1.383 . S
C102 O96 1.412 . S
C102 C101 1.383 . S
C102 C103 1.394 . S
C103 H93 0.929 . S
C103 C99 1.377 . S
C103 C102 1.394 . S
H104 C111 0.929 . S
H105 C114 0.930 . S
H106 C116 0.929 . S
H107 C108 0.969 . S
C108 H107 0.969 . S
C108 O109 1.550 . S
C108 H110 0.973 . S
O109 C108 1.550 . S
O109 C115 1.412 . S
H110 C108 0.973 . S
C111 H104 0.929 . S
C111 C112 1.400 . S
C111 C113 1.364 . S
C112 C111 1.400 . S
C112 C116 1.377 . S
C113 C111 1.364 . S
C113 C114 1.374 . S
C114 H105 0.930 . S
C114 C113 1.374 . S
C114 C115 1.383 . S
C115 O109 1.412 . S
C115 C114 1.383 . S
C115 C116 1.394 . S
C116 H106 0.929 . S
C116 C112 1.377 . S
C116 C115 1.394 . S
H117 C124 0.929 . S
H118 C127 0.930 . S
H119 C129 0.929 . S
H120 C121 0.969 . S
C121 H120 0.969 . S
C121 O122 1.550 . S
C121 H123 0.973 . S
O122 C121 1.550 . S
O122 C128 1.412 . S
H123 C121 0.973 . S
C124 H117 0.929 . S
C124 C125 1.400 . S
C124 C126 1.364 . S
C125 C124 1.400 . S
C125 C129 1.377 . S
C126 C124 1.364 . S
C126 C127 1.374 . S
C127 H118 0.930 . S
C127 C126 1.374 . S
C127 C128 1.383 . S
C128 O122 1.412 . S
C128 C127 1.383 . S
C128 C129 1.394 . S
C129 H119 0.929 . S
C129 C125 1.377 . S
C129 C128 1.394 . S
H130 C137 0.929 . S
H131 C140 0.930 . S
H132 C142 0.929 . S
H133 C134 0.969 . S
C134 H133 0.969 . S
C134 O135 1.550 . S
C134 H136 0.973 . S
O135 C134 1.550 . S
O135 C141 1.412 . S
H136 C134 0.973 . S
C137 H130 0.929 . S
C137 C138 1.400 . S
C137 C139 1.364 . S
C138 C137 1.400 . S
C138 C142 1.377 . S
C139 C137 1.364 . S
C139 C140 1.374 . S
C140 H131 0.930 . S
C140 C139 1.374 . S
C140 C141 1.383 . S
C141 O135 1.412 . S
C141 C140 1.383 . S
C141 C142 1.394 . S
C142 H132 0.929 . S
C142 C138 1.377 . S
C142 C141 1.394 . S
H143 C150 0.929 . S
H144 C153 0.930 . S
H145 C155 0.929 . S
H146 C147 0.969 . S
C147 H146 0.969 . S
C147 O148 1.550 . S
C147 H149 0.973 . S
O148 C147 1.550 . S
O148 C154 1.412 . S
H149 C147 0.973 . S
C150 H143 0.929 . S
C150 C151 1.400 . S
C150 C152 1.364 . S
C151 C150 1.400 . S
C151 C155 1.377 . S
C152 C150 1.364 . S
C152 C153 1.374 . S
C153 H144 0.930 . S
C153 C152 1.374 . S
C153 C154 1.383 . S
C154 O148 1.412 . S
C154 C153 1.383 . S
C154 C155 1.394 . S
C155 H145 0.929 . S
C155 C151 1.377 . S
C155 C154 1.394 . S
H156 C163 0.929 . S
H157 C166 0.930 . S
H158 C168 0.929 . S
H159 C160 0.969 . S
C160 H159 0.969 . S
C160 O161 1.550 . S
C160 H162 0.973 . S
O161 C160 1.550 . S
O161 C167 1.412 . S
H162 C160 0.973 . S
C163 H156 0.929 . S
C163 C164 1.400 . S
C163 C165 1.364 . S
C164 C163 1.400 . S
C164 C168 1.377 . S
C165 C163 1.364 . S
C165 C166 1.374 . S
C166 H157 0.930 . S
C166 C165 1.374 . S
C166 C167 1.383 . S
C167 O161 1.412 . S
C167 C166 1.383 . S
C167 C168 1.394 . S
C168 H158 0.929 . S
C168 C164 1.377 . S
C168 C167 1.394 . S
H169 C176 0.929 . S
H170 C179 0.930 . S
H171 C181 0.929 . S
H172 C173 0.969 . S
C173 H172 0.969 . S
C173 O174 1.550 . S
C173 H175 0.973 . S
O174 C173 1.550 . S
O174 C180 1.412 . S
H175 C173 0.973 . S
C176 H169 0.929 . S
C176 C177 1.400 . S
C176 C178 1.364 . S
C177 C176 1.400 . S
C177 C181 1.377 . S
C178 C176 1.364 . S
C178 C179 1.374 . S
C179 H170 0.930 . S
C179 C178 1.374 . S
C179 C180 1.383 . S
C180 O174 1.412 . S
C180 C179 1.383 . S
C180 C181 1.394 . S
C181 H171 0.929 . S
C181 C177 1.377 . S
C181 C180 1.394 . S
H182 C189 0.929 . S
H183 C192 0.930 . S
H184 C194 0.929 . S
H185 C186 0.969 . S
C186 H185 0.969 . S
C186 O187 1.550 . S
C186 H188 0.973 . S
O187 C186 1.550 . S
O187 C193 1.412 . S
H188 C186 0.973 . S
C189 H182 0.929 . S
C189 C190 1.400 . S
C189 C191 1.364 . S
C190 C189 1.400 . S
C190 C194 1.377 . S
C191 C189 1.364 . S
C191 C192 1.374 . S
C192 H183 0.930 . S
C192 C191 1.374 . S
C192 C193 1.383 . S
C193 O187 1.412 . S
C193 C192 1.383 . S
C193 C194 1.394 . S
C194 H184 0.929 . S
C194 C190 1.377 . S
C194 C193 1.394 . S
H195 C202 0.929 . S
H196 C205 0.930 . S
H197 C207 0.929 . S
H198 C199 0.969 . S
C199 H198 0.969 . S
C199 O200 1.550 . S
C199 H201 0.973 . S
O200 C199 1.550 . S
O200 C206 1.412 . S
H201 C199 0.973 . S
C202 H195 0.929 . S
C202 C203 1.400 . S
C202 C204 1.364 . S
C203 C202 1.400 . S
C203 C207 1.377 . S
C204 C202 1.364 . S
C204 C205 1.374 . S
C205 H196 0.930 . S
C205 C204 1.374 . S
C205 C206 1.383 . S
C206 O200 1.412 . S
C206 C205 1.383 . S
C206 C207 1.394 . S
C207 H197 0.929 . S
C207 C203 1.377 . S
C207 C206 1.394 . S
H208 C215 0.929 . S
H209 C218 0.930 . S
H210 C220 0.929 . S
H211 C212 0.969 . S
C212 H211 0.969 . S
C212 O213 1.550 . S
C212 H214 0.973 . S
O213 C212 1.550 . S
O213 C219 1.412 . S
H214 C212 0.973 . S
C215 H208 0.929 . S
C215 C216 1.400 . S
C215 C217 1.364 . S
C216 C215 1.400 . S
C216 C220 1.377 . S
C217 C215 1.364 . S
C217 C218 1.374 . S
C218 H209 0.930 . S
C218 C217 1.374 . S
C218 C219 1.383 . S
C219 O213 1.412 . S
C219 C218 1.383 . S
C219 C220 1.394 . S
C220 H210 0.929 . S
C220 C216 1.377 . S
C220 C219 1.394 . S
H221 C228 0.929 . S
H222 C231 0.930 . S
H223 C233 0.929 . S
H224 C225 0.969 . S
C225 H224 0.969 . S
C225 O226 1.550 . S
C225 H227 0.973 . S
O226 C225 1.550 . S
O226 C232 1.412 . S
H227 C225 0.973 . S
C228 H221 0.929 . S
C228 C229 1.400 . S
C228 C230 1.364 . S
C229 C228 1.400 . S
C229 C233 1.377 . S
C230 C228 1.364 . S
C230 C231 1.374 . S
C231 H222 0.930 . S
C231 C230 1.374 . S
C231 C232 1.383 . S
C232 O226 1.412 . S
C232 C231 1.383 . S
C232 C233 1.394 . S
C233 H223 0.929 . S
C233 C229 1.377 . S
C233 C232 1.394 . S
Tb234 N265 2.660 . S
Tb234 N272 2.600 . S
Tb234 O278 2.546 . S
Tb234 O279 2.610 1_566 S
Tb234 O281 2.320 1_565 S
Tb234 O282 2.552 1_565 S
Tb234 O283 2.413 1_565 S
Tb234 O285 2.362 1_556 S
Tb234 O286 2.421 1_556 S
Tb234 C298 2.833 1_565 S
C235 C238 1.432 . S
C235 C239 1.414 . S
C235 N242 1.359 . S
C236 C238 1.417 . S
C236 C240 1.432 . S
C236 C248 1.410 . S
C237 C239 1.444 . S
C237 C240 1.317 . S
C237 H260 0.929 . S
C238 C235 1.432 . S
C238 C236 1.417 . S
C238 N246 1.360 . S
C239 C235 1.414 . S
C239 C237 1.444 . S
C239 C244 1.385 . S
C240 C236 1.432 . S
C240 C237 1.317 . S
C240 H252 0.930 . S
C241 C243 1.392 . S
C241 C244 1.370 . S
C241 H253 0.931 . S
N242 C235 1.359 . S
N242 C243 1.327 . S
N242 Tb245 2.600 . S
C243 C241 1.392 . S
C243 N242 1.327 . S
C243 H250 0.930 . S
C244 C239 1.385 . S
C244 C241 1.370 . S
C244 H263 0.930 . S
Tb245 N242 2.600 . S
Tb245 N246 2.660 . S
Tb245 O279 2.362 . S
Tb245 O280 2.421 . S
Tb245 O284 2.546 . S
Tb245 O285 2.610 1_545 S
Tb245 O287 2.320 1_545 S
Tb245 O288 2.552 1_545 S
Tb245 O289 2.413 1_545 S
Tb245 C309 2.833 . S
N246 C238 1.360 . S
N246 Tb245 2.660 . S
N246 C247 1.305 . S
C247 N246 1.305 . S
C247 C249 1.407 . S
C247 H254 0.930 . S
C248 C236 1.410 . S
C248 C249 1.345 . S
C248 H256 0.930 . S
C249 C247 1.407 . S
C249 C248 1.345 . S
C249 H251 0.930 . S
H250 C243 0.930 . S
H251 C249 0.930 . S
H252 C240 0.930 . S
H253 C241 0.931 . S
H254 C247 0.930 . S
H255 C269 0.930 . S
H256 C248 0.930 . S
H257 C275 0.930 . S
H258 C266 0.939 . S
H259 C273 0.931 . S
H260 C237 0.929 . S
H261 C267 0.930 . S
H262 C300 0.930 . S
H263 C244 0.930 . S
H264 C299 0.929 . S
N265 Tb234 2.660 . S
N265 C266 1.305 . S
N265 C270 1.360 . S
C266 H258 0.939 . S
C266 N265 1.305 . S
C266 C269 1.407 . S
C267 H261 0.930 . S
C267 C268 1.410 . S
C267 C269 1.345 . S
C268 C267 1.410 . S
C268 C270 1.417 . S
C268 C300 1.432 . S
C269 H255 0.930 . S
C269 C266 1.407 . S
C269 C267 1.345 . S
C270 N265 1.360 . S
C270 C268 1.417 . S
C270 C274 1.432 . S
H271 C276 0.930 . S
N272 Tb234 2.600 . S
N272 C274 1.359 . S
N272 C275 1.327 . S
C273 H259 0.931 . S
C273 C275 1.392 . S
C273 C276 1.370 . S
C274 C270 1.432 . S
C274 N272 1.359 . S
C274 C277 1.414 . S
C275 H257 0.930 . S
C275 N272 1.327 . S
C275 C273 1.392 . S
C276 H271 0.930 . S
C276 C273 1.370 . S
C276 C277 1.385 . S
C277 C274 1.414 . S
C277 C276 1.385 . S
C277 C299 1.444 . S
O278 Tb234 2.546 . S
O278 C298 1.251 1_565 S
O279 Tb234 2.610 1_544 S
O279 Tb245 2.362 . S
O279 C290 1.283 1_554 S
O280 Tb245 2.421 . S
O280 C297 1.262 . S
O281 Tb234 2.320 1_545 S
O281 C297 1.260 1_556 S
O282 Tb234 2.552 1_545 S
O282 C290 1.243 . S
O283 Tb234 2.413 1_545 S
O283 C298 1.256 . S
O284 Tb245 2.546 . S
O284 C309 1.251 . S
O285 Tb234 2.362 1_554 S
O285 Tb245 2.610 1_565 S
O285 C301 1.283 . S
O286 Tb234 2.421 1_554 S
O286 C308 1.262 . S
O287 Tb245 2.320 1_565 S
O287 C308 1.260 . S
O288 Tb245 2.552 1_565 S
O288 C301 1.243 . S
O289 Tb245 2.413 1_565 S
O289 C309 1.256 1_565 S
C290 O279 1.283 1_556 S
C290 O282 1.243 . S
C291 C293 1.382 . S
C291 C295 1.393 1_545 S
C291 C298 1.500 . S
C292 C293 1.400 . S
C292 C294 1.384 . S
C293 C291 1.382 . S
C293 C292 1.400 . S
C293 H310 0.930 . S
C294 C292 1.384 . S
C294 C296 1.375 1_545 S
C294 H311 0.931 . S
C295 C291 1.393 1_565 S
C295 C296 1.405 . S
C295 H312 0.930 . S
C296 C294 1.375 1_565 S
C296 C295 1.405 . S
C296 H313 0.944 . S
C297 O280 1.262 . S
C297 O281 1.260 1_554 S
C298 Tb234 2.833 1_545 S
C298 O278 1.251 1_545 S
C298 O283 1.256 . S
C298 C291 1.500 . S
C299 H264 0.929 . S
C299 C277 1.444 . S
C299 C300 1.317 . S
C300 H262 0.930 . S
C300 C268 1.432 . S
C300 C299 1.317 . S
C301 O285 1.283 . S
C301 O288 1.243 . S
C302 C303 1.369 1_545 S
C302 C306 1.404 . S
C302 C309 1.502 . S
C303 C302 1.369 1_565 S
C303 C304 1.400 . S
C303 H314 0.930 . S
C304 C303 1.400 . S
C304 C305 1.384 . S
C305 C304 1.384 . S
C305 C307 1.392 1_565 S
C305 H315 0.931 . S
C306 C302 1.404 . S
C306 C307 1.401 . S
C306 H316 0.930 . S
C307 C305 1.392 1_545 S
C307 C306 1.401 . S
C307 H317 0.930 . S
C308 O286 1.262 . S
C308 O287 1.260 . S
C309 Tb245 2.833 . S
C309 O284 1.251 . S
C309 O289 1.256 1_545 S
C309 C302 1.502 . S
H310 C293 0.930 . S
H311 C294 0.931 . S
H312 C295 0.930 . S
H313 C296 0.944 . S
H314 C303 0.930 . S
H315 C305 0.931 . S
H316 C306 0.930 . S
H317 C307 0.930 . S
Tb318 N349 2.660 . S
Tb318 N356 2.600 . S
Tb318 O362 2.546 . S
Tb318 O363 2.610 1_456 S
Tb318 O365 2.320 1_455 S
Tb318 O366 2.552 1_455 S
Tb318 O367 2.420 . S
Tb318 O369 2.362 1_556 S
Tb318 O370 2.421 1_556 S
Tb318 C382 2.833 . S
C319 C322 1.432 . S
C319 C323 1.414 . S
C319 N326 1.359 . S
C320 C322 1.417 . S
C320 C324 1.432 . S
C320 C332 1.410 . S
C321 C323 1.444 . S
C321 C324 1.317 . S
C321 H344 0.929 . S
C322 C319 1.432 . S
C322 C320 1.417 . S
C322 N330 1.360 . S
C323 C319 1.414 . S
C323 C321 1.444 . S
C323 C328 1.385 . S
C324 C320 1.432 . S
C324 C321 1.317 . S
C324 H336 0.930 . S
C325 C327 1.392 . S
C325 C328 1.370 . S
C325 H337 0.931 . S
N326 C319 1.359 . S
N326 C327 1.327 . S
N326 Tb329 2.600 . S
C327 C325 1.392 . S
C327 N326 1.327 . S
C327 H334 0.930 . S
C328 C323 1.385 . S
C328 C325 1.370 . S
C328 H347 0.930 . S
Tb329 N326 2.600 . S
Tb329 N330 2.660 . S
Tb329 O363 2.362 . S
Tb329 O364 2.421 . S
Tb329 O368 2.546 . S
Tb329 O369 2.610 1_655 S
Tb329 O371 2.320 1_655 S
Tb329 O372 2.552 1_655 S
Tb329 O373 2.413 1_655 S
Tb329 C393 2.833 1_655 S
N330 C322 1.360 . S
N330 Tb329 2.660 . S
N330 C331 1.305 . S
C331 N330 1.305 . S
C331 C333 1.407 . S
C331 H338 0.929 . S
C332 C320 1.410 . S
C332 C333 1.345 . S
C332 H340 0.930 . S
C333 C331 1.407 . S
C333 C332 1.345 . S
C333 H335 0.930 . S
H334 C327 0.930 . S
H335 C333 0.930 . S
H336 C324 0.930 . S
H337 C325 0.931 . S
H338 C331 0.929 . S
H339 C353 0.930 . S
H340 C332 0.930 . S
H341 C359 0.930 . S
H342 C350 0.930 . S
H343 C357 0.931 . S
H344 C321 0.929 . S
H345 C351 0.930 . S
H346 C384 0.930 . S
H347 C328 0.930 . S
H348 C383 0.929 . S
N349 Tb318 2.660 . S
N349 C350 1.305 . S
N349 C354 1.360 . S
C350 H342 0.930 . S
C350 N349 1.305 . S
C350 C353 1.407 . S
C351 H345 0.930 . S
C351 C352 1.410 . S
C351 C353 1.345 . S
C352 C351 1.410 . S
C352 C354 1.417 . S
C352 C384 1.432 . S
C353 H339 0.930 . S
C353 C350 1.407 . S
C353 C351 1.345 . S
C354 N349 1.360 . S
C354 C352 1.417 . S
C354 C358 1.432 . S
H355 C360 0.930 . S
N356 Tb318 2.600 . S
N356 C358 1.359 . S
N356 C359 1.327 . S
C357 H343 0.931 . S
C357 C359 1.392 . S
C357 C360 1.370 . S
C358 C354 1.432 . S
C358 N356 1.359 . S
C358 C361 1.414 . S
C359 H341 0.930 . S
C359 N356 1.327 . S
C359 C357 1.392 . S
C360 H355 0.930 . S
C360 C357 1.370 . S
C360 C361 1.385 . S
C361 C358 1.414 . S
C361 C360 1.385 . S
C361 C383 1.444 . S
O362 Tb318 2.546 . S
O362 C382 1.251 . S
O363 Tb318 2.610 1_654 S
O363 Tb329 2.362 . S
O363 C374 1.283 1_554 S
O364 Tb329 2.421 . S
O364 C381 1.262 . S
O365 Tb318 2.320 1_655 S
O365 C381 1.260 1_556 S
O366 Tb318 2.552 1_655 S
O366 C374 1.243 . S
O367 Tb318 2.420 . S
O367 C382 1.254 . S
O368 Tb329 2.546 . S
O368 C393 1.251 1_655 S
O369 Tb318 2.362 1_554 S
O369 Tb329 2.610 1_455 S
O369 C385 1.283 . S
O370 Tb318 2.421 1_554 S
O370 C392 1.262 . S
O371 Tb329 2.320 1_455 S
O371 C392 1.260 . S
O372 Tb329 2.552 1_455 S
O372 C385 1.243 . S
O373 Tb329 2.413 1_455 S
O373 C393 1.256 . S
C374 O363 1.283 1_556 S
C374 O366 1.243 . S
C375 C377 1.382 1_455 S
C375 C379 1.393 . S
C375 C382 1.500 . S
C376 C377 1.400 . S
C376 C378 1.384 . S
C377 C375 1.382 1_655 S
C377 C376 1.400 . S
C377 H394 0.930 . S
C378 C376 1.384 . S
C378 C380 1.392 1_655 S
C378 H395 0.931 . S
C379 C375 1.393 . S
C379 C380 1.401 . S
C379 H396 0.930 . S
C380 C378 1.392 1_455 S
C380 C379 1.401 . S
C380 H397 0.930 . S
C381 O364 1.262 . S
C381 O365 1.260 1_554 S
C382 Tb318 2.833 . S
C382 O362 1.251 . S
C382 O367 1.254 . S
C382 C375 1.500 . S
C383 H348 0.929 . S
C383 C361 1.444 . S
C383 C384 1.317 . S
C384 H346 0.930 . S
C384 C352 1.432 . S
C384 C383 1.317 . S
C385 O369 1.283 . S
C385 O372 1.243 . S
C386 C387 1.382 . S
C386 C390 1.393 1_455 S
C386 C393 1.500 . S
C387 C386 1.382 . S
C387 C388 1.400 . S
C387 H398 0.930 . S
C388 C387 1.400 . S
C388 C389 1.384 . S
C389 C388 1.384 . S
C389 C391 1.392 1_455 S
C389 H399 0.931 . S
C390 C386 1.393 1_655 S
C390 C391 1.401 . S
C390 H400 0.930 . S
C391 C389 1.392 1_655 S
C391 C390 1.401 . S
C391 H401 0.930 . S
C392 O370 1.262 . S
C392 O371 1.260 . S
C393 Tb329 2.833 1_455 S
C393 O368 1.251 1_455 S
C393 O373 1.256 . S
C393 C386 1.500 . S
H394 C377 0.930 . S
H395 C378 0.931 . S
H396 C379 0.930 . S
H397 C380 0.930 . S
H398 C387 0.930 . S
H399 C389 0.931 . S
H400 C390 0.930 . S
H401 C391 0.930 . S
Tb402 N433 2.660 . S
Tb402 N440 2.600 . S
Tb402 O446 2.546 . S
Tb402 O447 2.610 . S
Tb402 O449 2.320 . S
Tb402 O450 2.552 . S
Tb402 O451 2.413 . S
Tb402 O453 2.362 . S
Tb402 O454 2.421 . S
Tb402 C466 2.833 . S
C403 C406 1.432 . S
C403 C407 1.414 . S
C403 N410 1.359 . S
C404 C406 1.417 . S
C404 C408 1.432 . S
C404 C416 1.410 . S
C405 C407 1.444 . S
C405 C408 1.317 . S
C405 H428 0.929 . S
C406 C403 1.432 . S
C406 C404 1.417 . S
C406 N414 1.360 . S
C407 C403 1.414 . S
C407 C405 1.444 . S
C407 C412 1.385 . S
C408 C404 1.432 . S
C408 C405 1.317 . S
C408 H420 0.930 . S
C409 C411 1.392 . S
C409 C412 1.370 . S
C409 H421 0.931 . S
N410 C403 1.359 . S
N410 C411 1.327 . S
N410 Tb413 2.600 . S
C411 C409 1.392 . S
C411 N410 1.327 . S
C411 H418 0.930 . S
C412 C407 1.385 . S
C412 C409 1.370 . S
C412 H431 0.930 . S
Tb413 N410 2.600 . S
Tb413 N414 2.660 . S
Tb413 O447 2.362 1_556 S
Tb413 O448 2.421 1_556 S
Tb413 O452 2.546 . S
Tb413 O453 2.610 1_556 S
Tb413 O455 2.320 . S
Tb413 O456 2.552 . S
Tb413 O457 2.413 . S
Tb413 C477 2.833 . S
N414 C406 1.360 . S
N414 Tb413 2.660 . S
N414 C415 1.305 . S
C415 N414 1.305 . S
C415 C417 1.407 . S
C415 H422 0.930 . S
C416 C404 1.410 . S
C416 C417 1.345 . S
C416 H424 0.930 . S
C417 C415 1.407 . S
C417 C416 1.345 . S
C417 H419 0.930 . S
H418 C411 0.930 . S
H419 C417 0.930 . S
H420 C408 0.930 . S
H421 C409 0.931 . S
H422 C415 0.930 . S
H423 C437 0.930 . S
H424 C416 0.930 . S
H425 C443 0.930 . S
H426 C434 0.930 . S
H427 C441 0.931 . S
H428 C405 0.929 . S
H429 C435 0.930 . S
H430 C468 0.930 . S
H431 C412 0.930 . S
H432 C467 0.929 . S
N433 Tb402 2.660 . S
N433 C434 1.305 . S
N433 C438 1.360 . S
C434 H426 0.930 . S
C434 N433 1.305 . S
C434 C437 1.407 . S
C435 H429 0.930 . S
C435 C436 1.410 . S
C435 C437 1.345 . S
C436 C435 1.410 . S
C436 C438 1.417 . S
C436 C468 1.432 . S
C437 H423 0.930 . S
C437 C434 1.407 . S
C437 C435 1.345 . S
C438 N433 1.360 . S
C438 C436 1.417 . S
C438 C442 1.432 . S
H439 C444 0.930 . S
N440 Tb402 2.600 . S
N440 C442 1.359 . S
N440 C443 1.327 . S
C441 H427 0.931 . S
C441 C443 1.392 . S
C441 C444 1.370 . S
C442 C438 1.432 . S
C442 N440 1.359 . S
C442 C445 1.414 . S
C443 H425 0.930 . S
C443 N440 1.327 . S
C443 C441 1.392 . S
C444 H439 0.930 . S
C444 C441 1.370 . S
C444 C445 1.385 . S
C445 C442 1.414 . S
C445 C444 1.385 . S
C445 C467 1.444 . S
O446 Tb402 2.546 . S
O446 C466 1.251 . S
O447 Tb402 2.610 . S
O447 Tb413 2.362 1_554 S
O447 C458 1.283 . S
O448 Tb413 2.421 1_554 S
O448 C465 1.262 . S
O449 Tb402 2.320 . S
O449 C465 1.260 . S
O450 Tb402 2.552 . S
O450 C458 1.243 . S
O451 Tb402 2.413 . S
O451 C466 1.256 . S
O452 Tb413 2.546 . S
O452 C477 1.251 . S
O453 Tb402 2.362 . S
O453 Tb413 2.610 1_554 S
O453 C469 1.283 1_554 S
O454 Tb402 2.421 . S
O454 C476 1.262 . S
O455 Tb413 2.320 . S
O455 C476 1.260 1_556 S
O456 Tb413 2.552 . S
O456 C469 1.243 . S
O457 Tb413 2.413 . S
O457 C477 1.256 . S
C458 O447 1.283 . S
C458 O450 1.243 . S
C459 C461 1.382 . S
C459 C463 1.393 . S
C459 C466 1.500 . S
C460 C461 1.400 . S
C460 C462 1.384 . S
C461 C459 1.382 . S
C461 C460 1.400 . S
C461 H478 0.930 . S
C462 C460 1.384 . S
C462 C464 1.392 . S
C462 H479 0.931 . S
C463 C459 1.393 . S
C463 C464 1.401 . S
C463 H480 0.930 . S
C464 C462 1.392 . S
C464 C463 1.401 . S
C464 H481 0.930 . S
C465 O448 1.262 . S
C465 O449 1.260 . S
C466 Tb402 2.833 . S
C466 O446 1.251 . S
C466 O451 1.256 . S
C466 C459 1.500 . S
C467 H432 0.929 . S
C467 C445 1.444 . S
C467 C468 1.317 . S
C468 H430 0.930 . S
C468 C436 1.432 . S
C468 C467 1.317 . S
C469 O453 1.283 1_556 S
C469 O456 1.243 . S
C470 C471 1.382 . S
C470 C474 1.393 . S
C470 C477 1.500 . S
C471 C470 1.382 . S
C471 C472 1.400 . S
C471 H482 0.930 . S
C472 C471 1.400 . S
C472 C473 1.384 . S
C473 C472 1.384 . S
C473 C475 1.392 . S
C473 H483 0.931 . S
C474 C470 1.393 . S
C474 C475 1.401 . S
C474 H484 0.930 . S
C475 C473 1.392 . S
C475 C474 1.401 . S
C475 H485 0.930 . S
C476 O454 1.262 . S
C476 O455 1.260 1_554 S
C477 Tb413 2.833 . S
C477 O452 1.251 . S
C477 O457 1.256 . S
C477 C470 1.500 . S
H478 C461 0.930 . S
H479 C462 0.931 . S
H480 C463 0.930 . S
H481 C464 0.930 . S
H482 C471 0.930 . S
H483 C473 0.931 . S
H484 C474 0.930 . S
H485 C475 0.930 . S
Tb486 N517 2.660 . S
Tb486 N524 2.600 . S
Tb486 O530 2.546 . S
Tb486 O531 2.610 . S
Tb486 O533 2.320 . S
Tb486 O534 2.552 . S
Tb486 O535 2.413 . S
Tb486 O537 2.362 . S
Tb486 O538 2.421 . S
Tb486 C550 2.833 . S
C487 C490 1.432 . S
C487 C491 1.414 . S
C487 N494 1.359 . S
C488 C490 1.417 . S
C488 C492 1.432 . S
C488 C500 1.410 . S
C489 C491 1.444 . S
C489 C492 1.317 . S
C489 H512 0.929 . S
C490 C487 1.432 . S
C490 C488 1.417 . S
C490 N498 1.360 . S
C491 C487 1.414 . S
C491 C489 1.444 . S
C491 C496 1.385 . S
C492 C488 1.432 . S
C492 C489 1.317 . S
C492 H504 0.930 . S
C493 C495 1.392 . S
C493 C496 1.370 . S
C493 H505 0.931 . S
N494 C487 1.359 . S
N494 C495 1.327 . S
N494 Tb497 2.600 . S
C495 C493 1.392 . S
C495 N494 1.327 . S
C495 H502 0.930 . S
C496 C491 1.385 . S
C496 C493 1.370 . S
C496 H515 0.930 . S
Tb497 N494 2.600 . S
Tb497 N498 2.660 . S
Tb497 O531 2.362 . S
Tb497 O532 2.421 . S
Tb497 O536 2.546 . S
Tb497 O537 2.610 . S
Tb497 O539 2.320 . S
Tb497 O540 2.552 . S
Tb497 O541 2.413 . S
Tb497 C561 2.833 . S
N498 C490 1.360 . S
N498 Tb497 2.660 . S
N498 C499 1.305 . S
C499 N498 1.305 . S
C499 C501 1.407 . S
C499 H506 0.930 . S
C500 C488 1.410 . S
C500 C501 1.345 . S
C500 H508 0.930 . S
C501 C499 1.407 . S
C501 C500 1.345 . S
C501 H503 0.930 . S
H502 C495 0.930 . S
H503 C501 0.930 . S
H504 C492 0.930 . S
H505 C493 0.931 . S
H506 C499 0.930 . S
H507 C521 0.930 . S
H508 C500 0.930 . S
H509 C527 0.930 . S
H510 C518 0.930 . S
H511 C525 0.931 . S
H512 C489 0.929 . S
H513 C519 0.930 . S
H514 C552 0.930 . S
H515 C496 0.930 . S
H516 C551 0.929 . S
N517 Tb486 2.660 . S
N517 C518 1.305 . S
N517 C522 1.360 . S
C518 H510 0.930 . S
C518 N517 1.305 . S
C518 C521 1.407 . S
C519 H513 0.930 . S
C519 C520 1.410 . S
C519 C521 1.345 . S
C520 C519 1.410 . S
C520 C522 1.417 . S
C520 C552 1.432 . S
C521 H507 0.930 . S
C521 C518 1.407 . S
C521 C519 1.345 . S
C522 N517 1.360 . S
C522 C520 1.417 . S
C522 C526 1.432 . S
H523 C528 0.930 . S
N524 Tb486 2.600 . S
N524 C526 1.359 . S
N524 C527 1.327 . S
C525 H511 0.931 . S
C525 C527 1.392 . S
C525 C528 1.370 . S
C526 C522 1.432 . S
C526 N524 1.359 . S
C526 C529 1.414 . S
C527 H509 0.930 . S
C527 N524 1.327 . S
C527 C525 1.392 . S
C528 H523 0.930 . S
C528 C525 1.370 . S
C528 C529 1.385 . S
C529 C526 1.414 . S
C529 C528 1.385 . S
C529 C551 1.444 . S
O530 Tb486 2.546 . S
O530 C550 1.251 . S
O531 Tb486 2.610 . S
O531 Tb497 2.362 . S
O531 C542 1.283 . S
O532 Tb497 2.421 . S
O532 C549 1.262 . S
O533 Tb486 2.320 . S
O533 C549 1.260 . S
O534 Tb486 2.552 . S
O534 C542 1.243 . S
O535 Tb486 2.413 . S
O535 C550 1.256 . S
O536 Tb497 2.546 . S
O536 C561 1.251 . S
O537 Tb486 2.362 . S
O537 Tb497 2.610 . S
O537 C553 1.283 . S
O538 Tb486 2.421 . S
O538 C560 1.262 . S
O539 Tb497 2.320 . S
O539 C560 1.260 . S
O540 Tb497 2.552 . S
O540 C553 1.243 . S
O541 Tb497 2.413 . S
O541 C561 1.256 . S
C542 O531 1.283 . S
C542 O534 1.243 . S
C543 C545 1.382 . S
C543 C547 1.393 . S
C543 C550 1.500 . S
C544 C545 1.400 . S
C544 C546 1.384 . S
C545 C543 1.382 . S
C545 C544 1.400 . S
C545 H562 0.930 . S
C546 C544 1.384 . S
C546 C548 1.392 . S
C546 H563 0.931 . S
C547 C543 1.393 . S
C547 C548 1.401 . S
C547 H564 0.930 . S
C548 C546 1.392 . S
C548 C547 1.401 . S
C548 H565 0.930 . S
C549 O532 1.262 . S
C549 O533 1.260 . S
C550 Tb486 2.833 . S
C550 O530 1.251 . S
C550 O535 1.256 . S
C550 C543 1.500 . S
C551 H516 0.929 . S
C551 C529 1.444 . S
C551 C552 1.317 . S
C552 H514 0.930 . S
C552 C520 1.432 . S
C552 C551 1.317 . S
C553 O537 1.283 . S
C553 O540 1.243 . S
C554 C555 1.382 . S
C554 C558 1.393 . S
C554 C561 1.500 . S
C555 C554 1.382 . S
C555 C556 1.400 . S
C555 H566 0.930 . S
C556 C555 1.400 . S
C556 C557 1.384 . S
C557 C556 1.384 . S
C557 C559 1.392 . S
C557 H567 0.931 . S
C558 C554 1.393 . S
C558 C559 1.401 . S
C558 H568 0.930 . S
C559 C557 1.392 . S
C559 C558 1.401 . S
C559 H569 0.930 . S
C560 O538 1.262 . S
C560 O539 1.260 . S
C561 Tb497 2.833 . S
C561 O536 1.251 . S
C561 O541 1.256 . S
C561 C554 1.500 . S
H562 C545 0.930 . S
H563 C546 0.931 . S
H564 C547 0.930 . S
H565 C548 0.930 . S
H566 C555 0.930 . S
H567 C557 0.931 . S
H568 C558 0.930 . S
H569 C559 0.930 . S
Tb570 N601 2.660 . S
Tb570 N608 2.600 . S
Tb570 O614 2.546 . S
Tb570 O615 2.610 . S
Tb570 O617 2.320 . S
Tb570 O618 2.552 . S
Tb570 O619 2.413 . S
Tb570 O621 2.362 . S
Tb570 O622 2.421 . S
Tb570 C634 2.833 . S
C571 C574 1.432 . S
C571 C575 1.414 . S
C571 N578 1.359 . S
C572 C574 1.417 . S
C572 C576 1.432 . S
C572 C584 1.410 . S
C573 C575 1.444 . S
C573 C576 1.317 . S
C573 H596 0.929 . S
C574 C571 1.432 . S
C574 C572 1.417 . S
C574 N582 1.360 . S
C575 C571 1.414 . S
C575 C573 1.444 . S
C575 C580 1.385 . S
C576 C572 1.432 . S
C576 C573 1.317 . S
C576 H588 0.930 . S
C577 C579 1.392 . S
C577 C580 1.370 . S
C577 H589 0.931 . S
N578 C571 1.359 . S
N578 C579 1.327 . S
N578 Tb581 2.600 . S
C579 C577 1.392 . S
C579 N578 1.327 . S
C579 H586 0.930 . S
C580 C575 1.385 . S
C580 C577 1.370 . S
C580 H599 0.930 . S
Tb581 N578 2.600 . S
Tb581 N582 2.660 . S
Tb581 O615 2.362 . S
Tb581 O616 2.421 . S
Tb581 O620 2.546 . S
Tb581 O621 2.610 . S
Tb581 O623 2.320 . S
Tb581 O624 2.552 . S
Tb581 O625 2.413 . S
Tb581 C645 2.833 . S
N582 C574 1.360 . S
N582 Tb581 2.660 . S
N582 C583 1.305 . S
C583 N582 1.305 . S
C583 C585 1.407 . S
C583 H590 0.930 . S
C584 C572 1.410 . S
C584 C585 1.345 . S
C584 H592 0.930 . S
C585 C583 1.407 . S
C585 C584 1.345 . S
C585 H587 0.930 . S
H586 C579 0.930 . S
H587 C585 0.930 . S
H588 C576 0.930 . S
H589 C577 0.931 . S
H590 C583 0.930 . S
H591 C605 0.930 . S
H592 C584 0.930 . S
H593 C611 0.930 . S
H594 C602 0.930 . S
H595 C609 0.931 . S
H596 C573 0.929 . S
H597 C603 0.930 . S
H598 C636 0.930 . S
H599 C580 0.930 . S
H600 C635 0.929 . S
N601 Tb570 2.660 . S
N601 C602 1.305 . S
N601 C606 1.360 . S
C602 H594 0.930 . S
C602 N601 1.305 . S
C602 C605 1.407 . S
C603 H597 0.930 . S
C603 C604 1.410 . S
C603 C605 1.345 . S
C604 C603 1.410 . S
C604 C606 1.417 . S
C604 C636 1.432 . S
C605 H591 0.930 . S
C605 C602 1.407 . S
C605 C603 1.345 . S
C606 N601 1.360 . S
C606 C604 1.417 . S
C606 C610 1.432 . S
H607 C612 0.930 . S
N608 Tb570 2.600 . S
N608 C610 1.359 . S
N608 C611 1.327 . S
C609 H595 0.931 . S
C609 C611 1.392 . S
C609 C612 1.370 . S
C610 C606 1.432 . S
C610 N608 1.359 . S
C610 C613 1.414 . S
C611 H593 0.930 . S
C611 N608 1.327 . S
C611 C609 1.392 . S
C612 H607 0.930 . S
C612 C609 1.370 . S
C612 C613 1.385 . S
C613 C610 1.414 . S
C613 C612 1.385 . S
C613 C635 1.444 . S
O614 Tb570 2.546 . S
O614 C634 1.251 . S
O615 Tb570 2.610 . S
O615 Tb581 2.362 . S
O615 C626 1.283 . S
O616 Tb581 2.421 . S
O616 C633 1.262 . S
O617 Tb570 2.320 . S
O617 C633 1.260 . S
O618 Tb570 2.552 . S
O618 C626 1.243 . S
O619 Tb570 2.413 . S
O619 C634 1.256 . S
O620 Tb581 2.546 . S
O620 C645 1.251 . S
O621 Tb570 2.362 . S
O621 Tb581 2.610 . S
O621 C637 1.283 . S
O622 Tb570 2.421 . S
O622 C644 1.262 . S
O623 Tb581 2.320 . S
O623 C644 1.260 . S
O624 Tb581 2.552 . S
O624 C637 1.243 . S
O625 Tb581 2.413 . S
O625 C645 1.256 . S
C626 O615 1.283 . S
C626 O618 1.243 . S
C627 C629 1.382 . S
C627 C631 1.393 . S
C627 C634 1.500 . S
C628 C629 1.400 . S
C628 C630 1.384 . S
C629 C627 1.382 . S
C629 C628 1.400 . S
C629 H646 0.930 . S
C630 C628 1.384 . S
C630 C632 1.392 . S
C630 H647 0.931 . S
C631 C627 1.393 . S
C631 C632 1.401 . S
C631 H648 0.930 . S
C632 C630 1.392 . S
C632 C631 1.401 . S
C632 H649 0.930 . S
C633 O616 1.262 . S
C633 O617 1.260 . S
C634 Tb570 2.833 . S
C634 O614 1.251 . S
C634 O619 1.256 . S
C634 C627 1.500 . S
C635 H600 0.929 . S
C635 C613 1.444 . S
C635 C636 1.317 . S
C636 H598 0.930 . S
C636 C604 1.432 . S
C636 C635 1.317 . S
C637 O621 1.283 . S
C637 O624 1.243 . S
C638 C639 1.382 . S
C638 C642 1.393 . S
C638 C645 1.500 . S
C639 C638 1.382 . S
C639 C640 1.400 . S
C639 H650 0.930 . S
C640 C639 1.400 . S
C640 C641 1.384 . S
C641 C640 1.384 . S
C641 C643 1.392 . S
C641 H651 0.931 . S
C642 C638 1.393 . S
C642 C643 1.401 . S
C642 H652 0.930 . S
C643 C641 1.392 . S
C643 C642 1.401 . S
C643 H653 0.930 . S
C644 O622 1.262 . S
C644 O623 1.260 . S
C645 Tb581 2.833 . S
C645 O620 1.251 . S
C645 O625 1.256 . S
C645 C638 1.500 . S
H646 C629 0.930 . S
H647 C630 0.931 . S
H648 C631 0.930 . S
H649 C632 0.930 . S
H650 C639 0.930 . S
H651 C641 0.931 . S
H652 C642 0.930 . S
H653 C643 0.930 . S
Tb654 N685 2.660 . S
Tb654 N692 2.600 . S
Tb654 O698 2.546 . S
Tb654 O699 2.610 . S
Tb654 O701 2.320 . S
Tb654 O702 2.552 . S
Tb654 O703 2.413 . S
Tb654 O705 2.362 . S
Tb654 O706 2.421 . S
Tb654 C718 2.833 . S
C655 C658 1.432 . S
C655 C659 1.414 . S
C655 N662 1.359 . S
C656 C658 1.417 . S
C656 C660 1.432 . S
C656 C668 1.410 . S
C657 C659 1.444 . S
C657 C660 1.317 . S
C657 H680 0.929 . S
C658 C655 1.432 . S
C658 C656 1.417 . S
C658 N666 1.360 . S
C659 C655 1.414 . S
C659 C657 1.444 . S
C659 C664 1.385 . S
C660 C656 1.432 . S
C660 C657 1.317 . S
C660 H672 0.930 . S
C661 C663 1.392 . S
C661 C664 1.370 . S
C661 H673 0.931 . S
N662 C655 1.359 . S
N662 C663 1.327 . S
N662 Tb665 2.600 . S
C663 C661 1.392 . S
C663 N662 1.327 . S
C663 H670 0.930 . S
C664 C659 1.385 . S
C664 C661 1.370 . S
C664 H683 0.930 . S
Tb665 N662 2.600 . S
Tb665 N666 2.660 . S
Tb665 O699 2.362 . S
Tb665 O700 2.421 . S
Tb665 O704 2.546 . S
Tb665 O705 2.610 . S
Tb665 O707 2.320 . S
Tb665 O708 2.552 . S
Tb665 O709 2.413 . S
Tb665 C729 2.833 . S
N666 C658 1.360 . S
N666 Tb665 2.660 . S
N666 C667 1.305 . S
C667 N666 1.305 . S
C667 C669 1.407 . S
C667 H674 0.930 . S
C668 C656 1.410 . S
C668 C669 1.345 . S
C668 H676 0.930 . S
C669 C667 1.407 . S
C669 C668 1.345 . S
C669 H671 0.930 . S
H670 C663 0.930 . S
H671 C669 0.930 . S
H672 C660 0.930 . S
H673 C661 0.931 . S
H674 C667 0.930 . S
H675 C689 0.930 . S
H676 C668 0.930 . S
H677 C695 0.930 . S
H678 C686 0.930 . S
H679 C693 0.931 . S
H680 C657 0.929 . S
H681 C687 0.930 . S
H682 C720 0.930 . S
H683 C664 0.930 . S
H684 C719 0.929 . S
N685 Tb654 2.660 . S
N685 C686 1.305 . S
N685 C690 1.360 . S
C686 H678 0.930 . S
C686 N685 1.305 . S
C686 C689 1.407 . S
C687 H681 0.930 . S
C687 C688 1.410 . S
C687 C689 1.345 . S
C688 C687 1.410 . S
C688 C690 1.417 . S
C688 C720 1.432 . S
C689 H675 0.930 . S
C689 C686 1.407 . S
C689 C687 1.345 . S
C690 N685 1.360 . S
C690 C688 1.417 . S
C690 C694 1.432 . S
H691 C696 0.930 . S
N692 Tb654 2.600 . S
N692 C694 1.359 . S
N692 C695 1.327 . S
C693 H679 0.931 . S
C693 C695 1.392 . S
C693 C696 1.370 . S
C694 C690 1.432 . S
C694 N692 1.359 . S
C694 C697 1.414 . S
C695 H677 0.930 . S
C695 N692 1.327 . S
C695 C693 1.392 . S
C696 H691 0.930 . S
C696 C693 1.370 . S
C696 C697 1.385 . S
C697 C694 1.414 . S
C697 C696 1.385 . S
C697 C719 1.444 . S
O698 Tb654 2.546 . S
O698 C718 1.251 . S
O699 Tb654 2.610 . S
O699 Tb665 2.362 . S
O699 C710 1.283 . S
O700 Tb665 2.421 . S
O700 C717 1.262 . S
O701 Tb654 2.320 . S
O701 C717 1.260 . S
O702 Tb654 2.552 . S
O702 C710 1.243 . S
O703 Tb654 2.413 . S
O703 C718 1.256 . S
O704 Tb665 2.546 . S
O704 C729 1.251 . S
O705 Tb654 2.362 . S
O705 Tb665 2.610 . S
O705 C721 1.283 . S
O706 Tb654 2.421 . S
O706 C728 1.262 . S
O707 Tb665 2.320 . S
O707 C728 1.260 . S
O708 Tb665 2.552 . S
O708 C721 1.243 . S
O709 Tb665 2.413 . S
O709 C729 1.256 . S
C710 O699 1.283 . S
C710 O702 1.243 . S
C711 C713 1.382 . S
C711 C715 1.393 . S
C711 C718 1.500 . S
C712 C713 1.400 . S
C712 C714 1.384 . S
C713 C711 1.382 . S
C713 C712 1.400 . S
C713 H730 0.930 . S
C714 C712 1.384 . S
C714 C716 1.392 . S
C714 H731 0.931 . S
C715 C711 1.393 . S
C715 C716 1.401 . S
C715 H732 0.930 . S
C716 C714 1.392 . S
C716 C715 1.401 . S
C716 H733 0.930 . S
C717 O700 1.262 . S
C717 O701 1.260 . S
C718 Tb654 2.833 . S
C718 O698 1.251 . S
C718 O703 1.256 . S
C718 C711 1.500 . S
C719 H684 0.929 . S
C719 C697 1.444 . S
C719 C720 1.317 . S
C720 H682 0.930 . S
C720 C688 1.432 . S
C720 C719 1.317 . S
C721 O705 1.283 . S
C721 O708 1.243 . S
C722 C723 1.382 . S
C722 C726 1.393 . S
C722 C729 1.500 . S
C723 C722 1.382 . S
C723 C724 1.400 . S
C723 H734 0.930 . S
C724 C723 1.400 . S
C724 C725 1.384 . S
C725 C724 1.384 . S
C725 C727 1.392 . S
C725 H735 0.931 . S
C726 C722 1.393 . S
C726 C727 1.401 . S
C726 H736 0.930 . S
C727 C725 1.392 . S
C727 C726 1.401 . S
C727 H737 0.930 . S
C728 O706 1.262 . S
C728 O707 1.260 . S
C729 Tb665 2.833 . S
C729 O704 1.251 . S
C729 O709 1.256 . S
C729 C722 1.500 . S
H730 C713 0.930 . S
H731 C714 0.931 . S
H732 C715 0.930 . S
H733 C716 0.930 . S
H734 C723 0.930 . S
H735 C725 0.931 . S
H736 C726 0.930 . S
H737 C727 0.930 . S
Tb738 N769 2.660 . S
Tb738 N776 2.600 . S
Tb738 O782 2.546 . S
Tb738 O783 2.610 . S
Tb738 O785 2.320 . S
Tb738 O786 2.552 . S
Tb738 O787 2.413 . S
Tb738 O789 2.362 . S
Tb738 O790 2.421 . S
Tb738 C802 2.833 . S
C739 C742 1.432 . S
C739 C743 1.414 . S
C739 N746 1.359 . S
C740 C742 1.417 . S
C740 C744 1.432 . S
C740 C752 1.410 . S
C741 C743 1.444 . S
C741 C744 1.317 . S
C741 H764 0.929 . S
C742 C739 1.432 . S
C742 C740 1.417 . S
C742 N750 1.360 . S
C743 C739 1.414 . S
C743 C741 1.444 . S
C743 C748 1.385 . S
C744 C740 1.432 . S
C744 C741 1.317 . S
C744 H756 0.930 . S
C745 C747 1.392 . S
C745 C748 1.370 . S
C745 H757 0.931 . S
N746 C739 1.359 . S
N746 C747 1.327 . S
N746 Tb749 2.600 . S
C747 C745 1.392 . S
C747 N746 1.327 . S
C747 H754 0.930 . S
C748 C743 1.385 . S
C748 C745 1.370 . S
C748 H767 0.930 . S
Tb749 N746 2.600 . S
Tb749 N750 2.660 . S
Tb749 O783 2.362 . S
Tb749 O784 2.421 . S
Tb749 O788 2.546 . S
Tb749 O789 2.610 . S
Tb749 O791 2.320 . S
Tb749 O792 2.552 . S
Tb749 O793 2.413 . S
Tb749 C813 2.833 . S
N750 C742 1.360 . S
N750 Tb749 2.660 . S
N750 C751 1.305 . S
C751 N750 1.305 . S
C751 C753 1.407 . S
C751 H758 0.930 . S
C752 C740 1.410 . S
C752 C753 1.345 . S
C752 H760 0.930 . S
C753 C751 1.407 . S
C753 C752 1.345 . S
C753 H755 0.930 . S
H754 C747 0.930 . S
H755 C753 0.930 . S
H756 C744 0.930 . S
H757 C745 0.931 . S
H758 C751 0.930 . S
H759 C773 0.930 . S
H760 C752 0.930 . S
H761 C779 0.930 . S
H762 C770 0.930 . S
H763 C777 0.931 . S
H764 C741 0.929 . S
H765 C771 0.930 . S
H766 C804 0.930 . S
H767 C748 0.930 . S
H768 C803 0.929 . S
N769 Tb738 2.660 . S
N769 C770 1.305 . S
N769 C774 1.360 . S
C770 H762 0.930 . S
C770 N769 1.305 . S
C770 C773 1.407 . S
C771 H765 0.930 . S
C771 C772 1.410 . S
C771 C773 1.345 . S
C772 C771 1.410 . S
C772 C774 1.417 . S
C772 C804 1.432 . S
C773 H759 0.930 . S
C773 C770 1.407 . S
C773 C771 1.345 . S
C774 N769 1.360 . S
C774 C772 1.417 . S
C774 C778 1.432 . S
H775 C780 0.930 . S
N776 Tb738 2.600 . S
N776 C778 1.359 . S
N776 C779 1.327 . S
C777 H763 0.931 . S
C777 C779 1.392 . S
C777 C780 1.370 . S
C778 C774 1.432 . S
C778 N776 1.359 . S
C778 C781 1.414 . S
C779 H761 0.930 . S
C779 N776 1.327 . S
C779 C777 1.392 . S
C780 H775 0.930 . S
C780 C777 1.370 . S
C780 C781 1.385 . S
C781 C778 1.414 . S
C781 C780 1.385 . S
C781 C803 1.444 . S
O782 Tb738 2.546 . S
O782 C802 1.251 . S
O783 Tb738 2.610 . S
O783 Tb749 2.362 . S
O783 C794 1.283 . S
O784 Tb749 2.421 . S
O784 C801 1.262 . S
O785 Tb738 2.320 . S
O785 C801 1.260 . S
O786 Tb738 2.552 . S
O786 C794 1.243 . S
O787 Tb738 2.413 . S
O787 C802 1.256 . S
O788 Tb749 2.546 . S
O788 C813 1.251 . S
O789 Tb738 2.362 . S
O789 Tb749 2.610 . S
O789 C805 1.283 . S
O790 Tb738 2.421 . S
O790 C812 1.262 . S
O791 Tb749 2.320 . S
O791 C812 1.260 . S
O792 Tb749 2.552 . S
O792 C805 1.243 . S
O793 Tb749 2.413 . S
O793 C813 1.256 . S
C794 O783 1.283 . S
C794 O786 1.243 . S
C795 C797 1.382 . S
C795 C799 1.393 . S
C795 C802 1.500 . S
C796 C797 1.400 . S
C796 C798 1.384 . S
C797 C795 1.382 . S
C797 C796 1.400 . S
C797 H814 0.930 . S
C798 C796 1.384 . S
C798 C800 1.392 . S
C798 H815 0.931 . S
C799 C795 1.393 . S
C799 C800 1.401 . S
C799 H816 0.930 . S
C800 C798 1.392 . S
C800 C799 1.401 . S
C800 H817 0.930 . S
C801 O784 1.262 . S
C801 O785 1.260 . S
C802 Tb738 2.833 . S
C802 O782 1.251 . S
C802 O787 1.256 . S
C802 C795 1.500 . S
C803 H768 0.929 . S
C803 C781 1.444 . S
C803 C804 1.317 . S
C804 H766 0.930 . S
C804 C772 1.432 . S
C804 C803 1.317 . S
C805 O789 1.283 . S
C805 O792 1.243 . S
C806 C807 1.382 . S
C806 C810 1.393 . S
C806 C813 1.500 . S
C807 C806 1.382 . S
C807 C808 1.400 . S
C807 H818 0.930 . S
C808 C807 1.400 . S
C808 C809 1.384 . S
C809 C808 1.384 . S
C809 C811 1.392 . S
C809 H819 0.931 . S
C810 C806 1.393 . S
C810 C811 1.401 . S
C810 H820 0.930 . S
C811 C809 1.392 . S
C811 C810 1.401 . S
C811 H821 0.930 . S
C812 O790 1.262 . S
C812 O791 1.260 . S
C813 Tb749 2.833 . S
C813 O788 1.251 . S
C813 O793 1.256 . S
C813 C806 1.500 . S
H814 C797 0.930 . S
H815 C798 0.931 . S
H816 C799 0.930 . S
H817 C800 0.930 . S
H818 C807 0.930 . S
H819 C809 0.931 . S
H820 C810 0.930 . S
H821 C811 0.930 . S
Tb822 N853 2.660 . S
Tb822 N860 2.600 . S
Tb822 O866 2.546 . S
Tb822 O867 2.610 . S
Tb822 O869 2.320 . S
Tb822 O870 2.552 . S
Tb822 O871 2.413 . S
Tb822 O873 2.362 . S
Tb822 O874 2.421 . S
Tb822 C886 2.833 . S
C823 C826 1.432 . S
C823 C827 1.414 . S
C823 N830 1.359 . S
C824 C826 1.417 . S
C824 C828 1.432 . S
C824 C836 1.410 . S
C825 C827 1.444 . S
C825 C828 1.317 . S
C825 H848 0.929 . S
C826 C823 1.432 . S
C826 C824 1.417 . S
C826 N834 1.360 . S
C827 C823 1.414 . S
C827 C825 1.444 . S
C827 C832 1.385 . S
C828 C824 1.432 . S
C828 C825 1.317 . S
C828 H840 0.930 . S
C829 C831 1.392 . S
C829 C832 1.370 . S
C829 H841 0.931 . S
N830 C823 1.359 . S
N830 C831 1.327 . S
N830 Tb833 2.600 . S
C831 C829 1.392 . S
C831 N830 1.327 . S
C831 H838 0.930 . S
C832 C827 1.385 . S
C832 C829 1.370 . S
C832 H851 0.930 . S
Tb833 N830 2.600 . S
Tb833 N834 2.660 . S
Tb833 O867 2.362 . S
Tb833 O868 2.421 . S
Tb833 O872 2.546 . S
Tb833 O873 2.610 . S
Tb833 O875 2.320 . S
Tb833 O876 2.552 . S
Tb833 O877 2.413 . S
Tb833 C897 2.833 . S
N834 C826 1.360 . S
N834 Tb833 2.660 . S
N834 C835 1.305 . S
C835 N834 1.305 . S
C835 C837 1.407 . S
C835 H842 0.930 . S
C836 C824 1.410 . S
C836 C837 1.345 . S
C836 H844 0.930 . S
C837 C835 1.407 . S
C837 C836 1.345 . S
C837 H839 0.930 . S
H838 C831 0.930 . S
H839 C837 0.930 . S
H840 C828 0.930 . S
H841 C829 0.931 . S
H842 C835 0.930 . S
H843 C857 0.930 . S
H844 C836 0.930 . S
H845 C863 0.930 . S
H846 C854 0.930 . S
H847 C861 0.931 . S
H848 C825 0.929 . S
H849 C855 0.930 . S
H850 C888 0.930 . S
H851 C832 0.930 . S
H852 C887 0.929 . S
N853 Tb822 2.660 . S
N853 C854 1.305 . S
N853 C858 1.360 . S
C854 H846 0.930 . S
C854 N853 1.305 . S
C854 C857 1.407 . S
C855 H849 0.930 . S
C855 C856 1.410 . S
C855 C857 1.345 . S
C856 C855 1.410 . S
C856 C858 1.417 . S
C856 C888 1.432 . S
C857 H843 0.930 . S
C857 C854 1.407 . S
C857 C855 1.345 . S
C858 N853 1.360 . S
C858 C856 1.417 . S
C858 C862 1.432 . S
H859 C864 0.930 . S
N860 Tb822 2.600 . S
N860 C862 1.359 . S
N860 C863 1.327 . S
C861 H847 0.931 . S
C861 C863 1.392 . S
C861 C864 1.370 . S
C862 C858 1.432 . S
C862 N860 1.359 . S
C862 C865 1.414 . S
C863 H845 0.930 . S
C863 N860 1.327 . S
C863 C861 1.392 . S
C864 H859 0.930 . S
C864 C861 1.370 . S
C864 C865 1.385 . S
C865 C862 1.414 . S
C865 C864 1.385 . S
C865 C887 1.444 . S
O866 Tb822 2.546 . S
O866 C886 1.251 . S
O867 Tb822 2.610 . S
O867 Tb833 2.362 . S
O867 C878 1.283 . S
O868 Tb833 2.421 . S
O868 C885 1.262 . S
O869 Tb822 2.320 . S
O869 C885 1.260 . S
O870 Tb822 2.552 . S
O870 C878 1.243 . S
O871 Tb822 2.413 . S
O871 C886 1.256 . S
O872 Tb833 2.546 . S
O872 C897 1.251 . S
O873 Tb822 2.362 . S
O873 Tb833 2.610 . S
O873 C889 1.283 . S
O874 Tb822 2.421 . S
O874 C896 1.262 . S
O875 Tb833 2.320 . S
O875 C896 1.260 . S
O876 Tb833 2.552 . S
O876 C889 1.243 . S
O877 Tb833 2.413 . S
O877 C897 1.256 . S
C878 O867 1.283 . S
C878 O870 1.243 . S
C879 C881 1.382 . S
C879 C883 1.393 . S
C879 C886 1.500 . S
C880 C881 1.400 . S
C880 C882 1.384 . S
C881 C879 1.382 . S
C881 C880 1.400 . S
C881 H898 0.930 . S
C882 C880 1.384 . S
C882 C884 1.392 . S
C882 H899 0.931 . S
C883 C879 1.393 . S
C883 C884 1.401 . S
C883 H900 0.930 . S
C884 C882 1.392 . S
C884 C883 1.401 . S
C884 H901 0.930 . S
C885 O868 1.262 . S
C885 O869 1.260 . S
C886 Tb822 2.833 . S
C886 O866 1.251 . S
C886 O871 1.256 . S
C886 C879 1.500 . S
C887 H852 0.929 . S
C887 C865 1.444 . S
C887 C888 1.317 . S
C888 H850 0.930 . S
C888 C856 1.432 . S
C888 C887 1.317 . S
C889 O873 1.283 . S
C889 O876 1.243 . S
C890 C891 1.382 . S
C890 C894 1.393 . S
C890 C897 1.500 . S
C891 C890 1.382 . S
C891 C892 1.400 . S
C891 H902 0.930 . S
C892 C891 1.400 . S
C892 C893 1.384 . S
C893 C892 1.384 . S
C893 C895 1.392 . S
C893 H903 0.931 . S
C894 C890 1.393 . S
C894 C895 1.401 . S
C894 H904 0.930 . S
C895 C893 1.392 . S
C895 C894 1.401 . S
C895 H905 0.930 . S
C896 O874 1.262 . S
C896 O875 1.260 . S
C897 Tb833 2.833 . S
C897 O872 1.251 . S
C897 O877 1.256 . S
C897 C890 1.500 . S
H898 C881 0.930 . S
H899 C882 0.931 . S
H900 C883 0.930 . S
H901 C884 0.930 . S
H902 C891 0.930 . S
H903 C893 0.931 . S
H904 C894 0.930 . S
H905 C895 0.930 . S
Tb906 N937 2.660 . S
Tb906 N944 2.600 . S
Tb906 O950 2.546 . S
Tb906 O951 2.610 . S
Tb906 O953 2.320 . S
Tb906 O954 2.552 . S
Tb906 O955 2.413 . S
Tb906 O957 2.362 . S
Tb906 O958 2.421 . S
Tb906 C970 2.833 . S
C907 C910 1.432 . S
C907 C911 1.414 . S
C907 N914 1.359 . S
C908 C910 1.417 . S
C908 C912 1.432 . S
C908 C920 1.410 . S
C909 C911 1.444 . S
C909 C912 1.317 . S
C909 H932 0.929 . S
C910 C907 1.432 . S
C910 C908 1.417 . S
C910 N918 1.360 . S
C911 C907 1.414 . S
C911 C909 1.444 . S
C911 C916 1.385 . S
C912 C908 1.432 . S
C912 C909 1.317 . S
C912 H924 0.930 . S
C913 C915 1.392 . S
C913 C916 1.370 . S
C913 H925 0.931 . S
N914 C907 1.359 . S
N914 C915 1.327 . S
N914 Tb917 2.600 . S
C915 C913 1.392 . S
C915 N914 1.327 . S
C915 H922 0.930 . S
C916 C911 1.385 . S
C916 C913 1.370 . S
C916 H935 0.930 . S
Tb917 N914 2.600 . S
Tb917 N918 2.660 . S
Tb917 O951 2.362 . S
Tb917 O952 2.421 . S
Tb917 O956 2.546 . S
Tb917 O957 2.610 . S
Tb917 O959 2.320 . S
Tb917 O960 2.552 . S
Tb917 O961 2.413 . S
Tb917 C981 2.833 . S
N918 C910 1.360 . S
N918 Tb917 2.660 . S
N918 C919 1.305 . S
C919 N918 1.305 . S
C919 C921 1.407 . S
C919 H926 0.930 . S
C920 C908 1.410 . S
C920 C921 1.345 . S
C920 H928 0.930 . S
C921 C919 1.407 . S
C921 C920 1.345 . S
C921 H923 0.930 . S
H922 C915 0.930 . S
H923 C921 0.930 . S
H924 C912 0.930 . S
H925 C913 0.931 . S
H926 C919 0.930 . S
H927 C941 0.930 . S
H928 C920 0.930 . S
H929 C947 0.930 . S
H930 C938 0.930 . S
H931 C945 0.931 . S
H932 C909 0.929 . S
H933 C939 0.930 . S
H934 C972 0.930 . S
H935 C916 0.930 . S
H936 C971 0.929 . S
N937 Tb906 2.660 . S
N937 C938 1.305 . S
N937 C942 1.360 . S
C938 H930 0.930 . S
C938 N937 1.305 . S
C938 C941 1.407 . S
C939 H933 0.930 . S
C939 C940 1.410 . S
C939 C941 1.345 . S
C940 C939 1.410 . S
C940 C942 1.417 . S
C940 C972 1.432 . S
C941 H927 0.930 . S
C941 C938 1.407 . S
C941 C939 1.345 . S
C942 N937 1.360 . S
C942 C940 1.417 . S
C942 C946 1.432 . S
H943 C948 0.930 . S
N944 Tb906 2.600 . S
N944 C946 1.359 . S
N944 C947 1.327 . S
C945 H931 0.931 . S
C945 C947 1.392 . S
C945 C948 1.370 . S
C946 C942 1.432 . S
C946 N944 1.359 . S
C946 C949 1.414 . S
C947 H929 0.930 . S
C947 N944 1.327 . S
C947 C945 1.392 . S
C948 H943 0.930 . S
C948 C945 1.370 . S
C948 C949 1.385 . S
C949 C946 1.414 . S
C949 C948 1.385 . S
C949 C971 1.444 . S
O950 Tb906 2.546 . S
O950 C970 1.251 . S
O951 Tb906 2.610 . S
O951 Tb917 2.362 . S
O951 C962 1.283 . S
O952 Tb917 2.421 . S
O952 C969 1.262 . S
O953 Tb906 2.320 . S
O953 C969 1.260 . S
O954 Tb906 2.552 . S
O954 C962 1.243 . S
O955 Tb906 2.413 . S
O955 C970 1.256 . S
O956 Tb917 2.546 . S
O956 C981 1.251 . S
O957 Tb906 2.362 . S
O957 Tb917 2.610 . S
O957 C973 1.283 . S
O958 Tb906 2.421 . S
O958 C980 1.262 . S
O959 Tb917 2.320 . S
O959 C980 1.260 . S
O960 Tb917 2.552 . S
O960 C973 1.243 . S
O961 Tb917 2.413 . S
O961 C981 1.256 . S
C962 O951 1.283 . S
C962 O954 1.243 . S
C963 C965 1.382 . S
C963 C967 1.393 . S
C963 C970 1.500 . S
C964 C965 1.400 . S
C964 C966 1.384 . S
C965 C963 1.382 . S
C965 C964 1.400 . S
C965 H982 0.930 . S
C966 C964 1.384 . S
C966 C968 1.392 . S
C966 H983 0.931 . S
C967 C963 1.393 . S
C967 C968 1.401 . S
C967 H984 0.930 . S
C968 C966 1.392 . S
C968 C967 1.401 . S
C968 H985 0.930 . S
C969 O952 1.262 . S
C969 O953 1.260 . S
C970 Tb906 2.833 . S
C970 O950 1.251 . S
C970 O955 1.256 . S
C970 C963 1.500 . S
C971 H936 0.929 . S
C971 C949 1.444 . S
C971 C972 1.317 . S
C972 H934 0.930 . S
C972 C940 1.432 . S
C972 C971 1.317 . S
C973 O957 1.283 . S
C973 O960 1.243 . S
C974 C975 1.382 . S
C974 C978 1.393 . S
C974 C981 1.500 . S
C975 C974 1.382 . S
C975 C976 1.400 . S
C975 H986 0.930 . S
C976 C975 1.400 . S
C976 C977 1.384 . S
C977 C976 1.384 . S
C977 C979 1.392 . S
C977 H987 0.931 . S
C978 C974 1.393 . S
C978 C979 1.401 . S
C978 H988 0.930 . S
C979 C977 1.392 . S
C979 C978 1.401 . S
C979 H989 0.930 . S
C980 O958 1.262 . S
C980 O959 1.260 . S
C981 Tb917 2.833 . S
C981 O956 1.251 . S
C981 O961 1.256 . S
C981 C974 1.500 . S
H982 C965 0.930 . S
H983 C966 0.931 . S
H984 C967 0.930 . S
H985 C968 0.930 . S
H986 C975 0.930 . S
H987 C977 0.931 . S
H988 C978 0.930 . S
H989 C979 0.930 . S
H990 C998 0.929 . S
H991 C1000 0.930 . S
H992 C1002 0.930 . S
H993 C1005 0.929 . S
H994 C1008 0.930 . S
H995 C1010 0.960 . S
H996 C1010 0.960 . S
H997 C1010 0.960 . S
C998 H990 0.929 . S
C998 C999 1.377 . S
C998 C1000 1.384 . S
C999 C998 1.377 . S
C999 C1005 1.390 . S
C1000 H991 0.930 . S
C1000 C998 1.384 . S
C1000 C1001 1.372 . S
C1001 C1000 1.372 . S
C1001 C1002 1.400 . S
C1001 C1006 1.490 . S
C1002 H992 0.930 . S
C1002 C1001 1.400 . S
C1002 C1005 1.386 . S
H1003 C1019 0.930 . S
H1004 C1020 0.931 . S
C1005 H993 0.929 . S
C1005 C999 1.390 . S
C1005 C1002 1.386 . S
C1006 C1001 1.490 . S
C1006 C1008 1.395 . S
C1006 C1009 1.403 . S
H1007 C1013 0.930 . S
C1008 H994 0.930 . S
C1008 C1006 1.395 . S
C1008 C1011 1.403 . S
C1009 C1006 1.403 . S
C1009 C1010 1.524 . S
C1009 C1013 1.400 . S
C1010 H995 0.960 . S
C1010 H996 0.960 . S
C1010 H997 0.960 . S
C1010 C1009 1.524 . S
C1011 C1008 1.403 . S
C1011 C1012 1.392 . S
C1011 C1015 1.495 . S
C1012 C1011 1.392 . S
C1012 C1013 1.385 . S
C1012 C1014 1.478 . S
C1013 H1007 0.930 . S
C1013 C1009 1.400 . S
C1013 C1012 1.385 . S
C1014 C1012 1.478 . S
C1014 C1016 1.381 . S
C1014 C1020 1.383 . S
C1015 C1011 1.495 . S
C1015 H1021 0.959 . S
C1015 H1022 0.961 . S
C1015 H1023 0.960 . S
C1016 C1014 1.381 . S
C1016 C1017 1.394 . S
C1016 H1024 0.930 . S
C1017 C1016 1.394 . S
C1017 C1018 1.383 . S
C1017 H1025 0.929 . S
C1018 C1017 1.383 . S
C1018 C1019 1.377 . S
C1019 H1003 0.930 . S
C1019 C1018 1.377 . S
C1019 C1020 1.379 . S
C1020 H1004 0.931 . S
C1020 C1014 1.383 . S
C1020 C1019 1.379 . S
H1021 C1015 0.959 . S
H1022 C1015 0.961 . S
H1023 C1015 0.960 . S
H1024 C1016 0.930 . S
H1025 C1017 0.929 . S
H1026 C1034 0.929 . S
H1027 C1036 0.930 . S
H1028 C1038 0.930 . S
H1029 C1041 0.929 . S
H1030 C1044 0.930 . S
H1031 C1046 0.960 . S
H1032 C1046 0.960 . S
H1033 C1046 0.960 . S
C1034 H1026 0.929 . S
C1034 C1035 1.377 . S
C1034 C1036 1.384 . S
C1035 C1034 1.377 . S
C1035 C1041 1.390 . S
C1036 H1027 0.930 . S
C1036 C1034 1.384 . S
C1036 C1037 1.372 . S
C1037 C1036 1.372 . S
C1037 C1038 1.400 . S
C1037 C1042 1.490 . S
C1038 H1028 0.930 . S
C1038 C1037 1.400 . S
C1038 C1041 1.386 . S
H1039 C1055 0.930 . S
H1040 C1056 0.931 . S
C1041 H1029 0.929 . S
C1041 C1035 1.390 . S
C1041 C1038 1.386 . S
C1042 C1037 1.490 . S
C1042 C1044 1.395 . S
C1042 C1045 1.403 . S
H1043 C1049 0.930 . S
C1044 H1030 0.930 . S
C1044 C1042 1.395 . S
C1044 C1047 1.403 . S
C1045 C1042 1.403 . S
C1045 C1046 1.524 . S
C1045 C1049 1.400 . S
C1046 H1031 0.960 . S
C1046 H1032 0.960 . S
C1046 H1033 0.960 . S
C1046 C1045 1.524 . S
C1047 C1044 1.403 . S
C1047 C1048 1.392 . S
C1047 C1051 1.495 . S
C1048 C1047 1.392 . S
C1048 C1049 1.385 . S
C1048 C1050 1.478 . S
C1049 H1043 0.930 . S
C1049 C1045 1.400 . S
C1049 C1048 1.385 . S
C1050 C1048 1.478 . S
C1050 C1052 1.381 . S
C1050 C1056 1.383 . S
C1051 C1047 1.495 . S
C1051 H1057 0.959 . S
C1051 H1058 0.961 . S
C1051 H1059 0.960 . S
C1052 C1050 1.381 . S
C1052 C1053 1.394 . S
C1052 H1060 0.930 . S
C1053 C1052 1.394 . S
C1053 C1054 1.383 . S
C1053 H1061 0.929 . S
C1054 C1053 1.383 . S
C1054 C1055 1.377 . S
C1055 H1039 0.930 . S
C1055 C1054 1.377 . S
C1055 C1056 1.379 . S
C1056 H1040 0.931 . S
C1056 C1050 1.383 . S
C1056 C1055 1.379 . S
H1057 C1051 0.959 . S
H1058 C1051 0.961 . S
H1059 C1051 0.960 . S
H1060 C1052 0.930 . S
H1061 C1053 0.929 . S
H1062 C1070 0.929 . S
H1063 C1072 0.930 . S
H1064 C1074 0.930 . S
H1065 C1077 0.929 . S
H1066 C1080 0.930 . S
H1067 C1082 0.960 . S
H1068 C1082 0.960 . S
H1069 C1082 0.960 . S
C1070 H1062 0.929 . S
C1070 C1071 1.377 . S
C1070 C1072 1.384 . S
C1071 C1070 1.377 . S
C1071 C1077 1.390 . S
C1072 H1063 0.930 . S
C1072 C1070 1.384 . S
C1072 C1073 1.372 . S
C1073 C1072 1.372 . S
C1073 C1074 1.400 . S
C1073 C1078 1.490 . S
C1074 H1064 0.930 . S
C1074 C1073 1.400 . S
C1074 C1077 1.386 . S
H1075 C1091 0.930 . S
H1076 C1092 0.931 . S
C1077 H1065 0.929 . S
C1077 C1071 1.390 . S
C1077 C1074 1.386 . S
C1078 C1073 1.490 . S
C1078 C1080 1.395 . S
C1078 C1081 1.403 . S
H1079 C1085 0.930 . S
C1080 H1066 0.930 . S
C1080 C1078 1.395 . S
C1080 C1083 1.403 . S
C1081 C1078 1.403 . S
C1081 C1082 1.524 . S
C1081 C1085 1.400 . S
C1082 H1067 0.960 . S
C1082 H1068 0.960 . S
C1082 H1069 0.960 . S
C1082 C1081 1.524 . S
C1083 C1080 1.403 . S
C1083 C1084 1.392 . S
C1083 C1087 1.495 . S
C1084 C1083 1.392 . S
C1084 C1085 1.385 . S
C1084 C1086 1.478 . S
C1085 H1079 0.930 . S
C1085 C1081 1.400 . S
C1085 C1084 1.385 . S
C1086 C1084 1.478 . S
C1086 C1088 1.381 . S
C1086 C1092 1.383 . S
C1087 C1083 1.495 . S
C1087 H1093 0.959 . S
C1087 H1094 0.961 . S
C1087 H1095 0.960 . S
C1088 C1086 1.381 . S
C1088 C1089 1.394 . S
C1088 H1096 0.930 . S
C1089 C1088 1.394 . S
C1089 C1090 1.383 . S
C1089 H1097 0.929 . S
C1090 C1089 1.383 . S
C1090 C1091 1.377 . S
C1091 H1075 0.930 . S
C1091 C1090 1.377 . S
C1091 C1092 1.379 . S
C1092 H1076 0.931 . S
C1092 C1086 1.383 . S
C1092 C1091 1.379 . S
H1093 C1087 0.959 . S
H1094 C1087 0.961 . S
H1095 C1087 0.960 . S
H1096 C1088 0.930 . S
H1097 C1089 0.929 . S
H1098 C1106 0.929 . S
H1099 C1108 0.930 . S
H1100 C1110 0.930 . S
H1101 C1113 0.929 . S
H1102 C1116 0.930 . S
H1103 C1118 0.960 . S
H1104 C1118 0.960 . S
H1105 C1118 0.960 . S
C1106 H1098 0.929 . S
C1106 C1107 1.377 . S
C1106 C1108 1.384 . S
C1107 C1106 1.377 . S
C1107 C1113 1.390 . S
C1108 H1099 0.930 . S
C1108 C1106 1.384 . S
C1108 C1109 1.372 . S
C1109 C1108 1.372 . S
C1109 C1110 1.400 . S
C1109 C1114 1.490 . S
C1110 H1100 0.930 . S
C1110 C1109 1.400 . S
C1110 C1113 1.386 . S
H1111 C1127 0.930 . S
H1112 C1128 0.931 . S
C1113 H1101 0.929 . S
C1113 C1107 1.390 . S
C1113 C1110 1.386 . S
C1114 C1109 1.490 . S
C1114 C1116 1.395 . S
C1114 C1117 1.403 . S
H1115 C1121 0.930 . S
C1116 H1102 0.930 . S
C1116 C1114 1.395 . S
C1116 C1119 1.403 . S
C1117 C1114 1.403 . S
C1117 C1118 1.524 . S
C1117 C1121 1.400 . S
C1118 H1103 0.960 . S
C1118 H1104 0.960 . S
C1118 H1105 0.960 . S
C1118 C1117 1.524 . S
C1119 C1116 1.403 . S
C1119 C1120 1.392 . S
C1119 C1123 1.495 1_556 S
C1120 C1119 1.392 . S
C1120 C1121 1.385 . S
C1120 C1122 1.478 . S
C1121 H1115 0.930 . S
C1121 C1117 1.400 . S
C1121 C1120 1.385 . S
C1122 C1120 1.478 . S
C1122 C1124 1.381 1_556 S
C1122 C1128 1.383 . S
C1123 C1119 1.495 1_554 S
C1123 H1129 0.959 . S
C1123 H1130 0.961 . S
C1123 H1131 0.960 . S
C1124 C1122 1.381 1_554 S
C1124 C1125 1.394 . S
C1124 H1132 0.930 . S
C1125 C1124 1.394 . S
C1125 C1126 1.383 1_554 S
C1125 H1133 0.929 . S
C1126 C1125 1.383 1_556 S
C1126 C1127 1.377 . S
C1127 H1111 0.930 . S
C1127 C1126 1.377 . S
C1127 C1128 1.379 . S
C1128 H1112 0.931 . S
C1128 C1122 1.383 . S
C1128 C1127 1.379 . S
H1129 C1123 0.959 . S
H1130 C1123 0.961 . S
H1131 C1123 0.960 . S
H1132 C1124 0.930 . S
H1133 C1125 0.929 . S
H1134 C1142 0.929 . S
H1135 C1144 0.930 . S
H1136 C1146 0.930 . S
H1137 C1149 0.929 . S
H1138 C1152 0.930 . S
H1139 C1154 0.936 1_554 S
H1140 C1154 0.968 . S
H1141 C1154 0.955 1_554 S
C1142 H1134 0.929 . S
C1142 C1143 1.377 . S
C1142 C1144 1.384 . S
C1143 C1142 1.377 . S
C1143 C1149 1.390 . S
C1144 H1135 0.930 . S
C1144 C1142 1.384 . S
C1144 C1145 1.372 . S
C1145 C1144 1.372 . S
C1145 C1146 1.400 . S
C1145 C1150 1.490 . S
C1146 H1136 0.930 . S
C1146 C1145 1.400 . S
C1146 C1149 1.386 . S
H1147 C1163 0.930 . S
H1148 C1164 0.931 . S
C1149 H1137 0.929 . S
C1149 C1143 1.390 . S
C1149 C1146 1.386 . S
C1150 C1145 1.490 . S
C1150 C1152 1.395 . S
C1150 C1153 1.403 . S
H1151 C1157 0.869 1_554 S
C1152 H1138 0.930 . S
C1152 C1150 1.395 . S
C1152 C1155 1.403 . S
C1153 C1150 1.403 . S
C1153 C1154 1.544 . S
C1153 C1157 1.400 . S
C1154 H1139 0.936 1_556 S
C1154 H1140 0.968 . S
C1154 H1141 0.955 1_556 S
C1154 C1153 1.544 . S
C1155 C1152 1.403 . S
C1155 C1156 1.392 . S
C1155 C1159 1.495 . S
C1156 C1155 1.392 . S
C1156 C1157 1.385 . S
C1156 C1158 1.478 . S
C1157 H1151 0.869 1_556 S
C1157 C1153 1.400 . S
C1157 C1156 1.385 . S
C1158 C1156 1.478 . S
C1158 C1160 1.381 . S
C1158 C1164 1.383 . S
C1159 C1155 1.495 . S
C1159 H1165 0.959 . S
C1159 H1166 0.961 . S
C1159 H1167 0.960 . S
C1160 C1158 1.381 . S
C1160 C1161 1.394 . S
C1160 H1168 0.930 . S
C1161 C1160 1.394 . S
C1161 C1162 1.383 . S
C1161 H1169 0.929 . S
C1162 C1161 1.383 . S
C1162 C1163 1.377 1_556 S
C1163 H1147 0.930 . S
C1163 C1162 1.377 1_554 S
C1163 C1164 1.379 1_554 S
C1164 H1148 0.931 . S
C1164 C1158 1.383 . S
C1164 C1163 1.379 1_556 S
H1165 C1159 0.959 . S
H1166 C1159 0.961 . S
H1167 C1159 0.960 . S
H1168 C1160 0.930 . S
H1169 C1161 0.929 . S
H1170 C1178 0.929 . S
H1171 C1180 0.930 . S
H1172 C1182 0.930 . S
H1173 C1185 0.929 . S
H1174 C1188 0.885 1_554 S
H1175 C1190 0.960 . S
H1176 C1190 0.960 . S
H1177 C1190 0.960 . S
C1178 H1170 0.929 . S
C1178 C1179 1.377 . S
C1178 C1180 1.384 . S
C1179 C1178 1.377 . S
C1179 C1185 1.390 . S
C1180 H1171 0.930 . S
C1180 C1178 1.384 . S
C1180 C1181 1.372 . S
C1181 C1180 1.372 . S
C1181 C1182 1.400 . S
C1181 C1186 1.490 . S
C1182 H1172 0.930 . S
C1182 C1181 1.400 . S
C1182 C1185 1.386 . S
H1183 C1199 0.930 . S
H1184 C1200 0.931 . S
C1185 H1173 0.929 . S
C1185 C1179 1.390 . S
C1185 C1182 1.386 . S
C1186 C1181 1.490 . S
C1186 C1188 1.395 . S
C1186 C1189 1.403 . S
H1187 C1193 0.930 . S
C1188 H1174 0.885 1_556 S
C1188 C1186 1.395 . S
C1188 C1191 1.411 . S
C1189 C1186 1.403 . S
C1189 C1190 1.524 . S
C1189 C1193 1.400 . S
C1190 H1175 0.960 . S
C1190 H1176 0.960 . S
C1190 H1177 0.960 . S
C1190 C1189 1.524 . S
C1191 C1188 1.411 . S
C1191 C1192 1.406 . S
C1191 C1195 1.474 1_556 S
C1192 C1191 1.406 . S
C1192 C1193 1.385 . S
C1192 C1194 1.478 . S
C1193 H1187 0.930 . S
C1193 C1189 1.400 . S
C1193 C1192 1.385 . S
C1194 C1192 1.478 . S
C1194 C1196 1.366 1_556 S
C1194 C1200 1.383 . S
C1195 C1191 1.474 1_554 S
C1195 H1201 0.959 . S
C1195 H1202 0.961 . S
C1195 H1203 0.960 . S
C1196 C1194 1.366 1_554 S
C1196 C1197 1.402 . S
C1196 H1204 0.938 . S
C1197 C1196 1.402 . S
C1197 C1198 1.389 . S
C1197 H1205 0.929 . S
C1198 C1197 1.389 . S
C1198 C1199 1.365 1_554 S
C1199 H1183 0.930 . S
C1199 C1198 1.365 1_556 S
C1199 C1200 1.379 . S
C1200 H1184 0.931 . S
C1200 C1194 1.383 . S
C1200 C1199 1.379 . S
H1201 C1195 0.959 . S
H1202 C1195 0.961 . S
H1203 C1195 0.960 . S
H1204 C1196 0.938 . S
H1205 C1197 0.929 . S
H1206 C1214 0.929 . S
H1207 C1216 0.930 . S
H1208 C1218 0.930 . S
H1209 C1221 0.929 . S
H1210 C1224 0.930 . S
H1211 C1226 0.960 . S
H1212 C1226 0.960 . S
H1213 C1226 0.960 . S
C1214 H1206 0.929 . S
C1214 C1215 1.377 . S
C1214 C1216 1.384 . S
C1215 C1214 1.377 . S
C1215 C1221 1.390 . S
C1216 H1207 0.930 . S
C1216 C1214 1.384 . S
C1216 C1217 1.372 . S
C1217 C1216 1.372 . S
C1217 C1218 1.400 . S
C1217 C1222 1.490 . S
C1218 H1208 0.930 . S
C1218 C1217 1.400 . S
C1218 C1221 1.386 . S
H1219 C1235 0.930 . S
H1220 C1236 0.931 . S
C1221 H1209 0.929 . S
C1221 C1215 1.390 . S
C1221 C1218 1.386 . S
C1222 C1217 1.490 . S
C1222 C1224 1.395 . S
C1222 C1225 1.403 . S
H1223 C1229 0.930 . S
C1224 H1210 0.930 . S
C1224 C1222 1.395 . S
C1224 C1227 1.403 . S
C1225 C1222 1.403 . S
C1225 C1226 1.524 . S
C1225 C1229 1.400 . S
C1226 H1211 0.960 . S
C1226 H1212 0.960 . S
C1226 H1213 0.960 . S
C1226 C1225 1.524 . S
C1227 C1224 1.403 . S
C1227 C1228 1.392 . S
C1227 C1231 1.495 . S
C1228 C1227 1.392 . S
C1228 C1229 1.385 . S
C1228 C1230 1.478 . S
C1229 H1223 0.930 . S
C1229 C1225 1.400 . S
C1229 C1228 1.385 . S
C1230 C1228 1.478 . S
C1230 C1232 1.381 . S
C1230 C1236 1.383 1_556 S
C1231 C1227 1.495 . S
C1231 H1237 0.959 . S
C1231 H1238 0.961 . S
C1231 H1239 0.960 . S
C1232 C1230 1.381 . S
C1232 C1233 1.394 . S
C1232 H1240 0.930 . S
C1233 C1232 1.394 . S
C1233 C1234 1.383 . S
C1233 H1241 0.929 . S
C1234 C1233 1.383 . S
C1234 C1235 1.377 1_556 S
C1235 H1219 0.930 . S
C1235 C1234 1.377 1_554 S
C1235 C1236 1.379 . S
C1236 H1220 0.931 . S
C1236 C1230 1.383 1_554 S
C1236 C1235 1.379 . S
H1237 C1231 0.959 . S
H1238 C1231 0.961 . S
H1239 C1231 0.960 . S
H1240 C1232 0.930 . S
H1241 C1233 0.929 . S
H1242 C1250 0.929 . S
H1243 C1252 0.930 . S
H1244 C1254 0.930 . S
H1245 C1257 0.929 . S
H1246 C1260 0.930 . S
H1247 C1262 0.992 . S
H1248 C1262 0.976 . S
H1249 C1262 0.960 . S
C1250 H1242 0.929 . S
C1250 C1251 1.377 . S
C1250 C1252 1.384 . S
C1251 C1250 1.377 . S
C1251 C1257 1.390 . S
C1252 H1243 0.930 . S
C1252 C1250 1.384 . S
C1252 C1253 1.372 . S
C1253 C1252 1.372 . S
C1253 C1254 1.400 . S
C1253 C1258 1.490 . S
C1254 H1244 0.930 . S
C1254 C1253 1.400 . S
C1254 C1257 1.386 . S
H1255 C1271 0.930 . S
H1256 C1272 0.931 . S
C1257 H1245 0.929 . S
C1257 C1251 1.390 . S
C1257 C1254 1.386 . S
C1258 C1253 1.490 . S
C1258 C1260 1.395 . S
C1258 C1261 1.403 . S
H1259 C1265 0.930 . S
C1260 H1246 0.930 . S
C1260 C1258 1.395 . S
C1260 C1263 1.403 . S
C1261 C1258 1.403 . S
C1261 C1262 1.524 . S
C1261 C1265 1.400 . S
C1262 H1247 0.992 . S
C1262 H1248 0.976 . S
C1262 H1249 0.960 . S
C1262 C1261 1.524 . S
C1263 C1260 1.403 . S
C1263 C1264 1.392 . S
C1263 C1267 1.495 . S
C1264 C1263 1.392 . S
C1264 C1265 1.385 . S
C1264 C1266 1.478 . S
C1265 H1259 0.930 . S
C1265 C1261 1.400 . S
C1265 C1264 1.385 . S
C1266 C1264 1.478 . S
C1266 C1268 1.381 . S
C1266 C1272 1.383 . S
C1267 C1263 1.495 . S
C1267 H1273 0.959 . S
C1267 H1274 0.961 . S
C1267 H1275 0.960 . S
C1268 C1266 1.381 . S
C1268 C1269 1.394 1_556 S
C1268 H1276 0.943 . S
C1269 C1268 1.394 1_554 S
C1269 C1270 1.383 1_554 S
C1269 H1277 0.929 . S
C1270 C1269 1.383 1_556 S
C1270 C1271 1.377 . S
C1271 H1255 0.930 . S
C1271 C1270 1.377 . S
C1271 C1272 1.379 . S
C1272 H1256 0.931 . S
C1272 C1266 1.383 . S
C1272 C1271 1.379 . S
H1273 C1267 0.959 . S
H1274 C1267 0.961 . S
H1275 C1267 0.960 . S
H1276 C1268 0.943 . S
H1277 C1269 0.929 . S
H1278 C1286 0.929 . S
H1279 C1288 0.930 . S
H1280 C1290 0.930 . S
H1281 C1293 0.929 . S
H1282 C1296 0.930 . S
H1283 C1298 0.960 . S
H1284 C1298 0.960 . S
H1285 C1298 0.960 . S
C1286 H1278 0.929 . S
C1286 C1287 1.377 . S
C1286 C1288 1.384 . S
C1287 C1286 1.377 . S
C1287 C1293 1.390 . S
C1288 H1279 0.930 . S
C1288 C1286 1.384 . S
C1288 C1289 1.372 . S
C1289 C1288 1.372 . S
C1289 C1290 1.400 . S
C1289 C1294 1.490 . S
C1290 H1280 0.930 . S
C1290 C1289 1.400 . S
C1290 C1293 1.386 . S
H1291 C1307 0.930 . S
H1292 C1308 0.931 . S
C1293 H1281 0.929 . S
C1293 C1287 1.390 . S
C1293 C1290 1.386 . S
C1294 C1289 1.490 . S
C1294 C1296 1.395 . S
C1294 C1297 1.403 . S
H1295 C1301 0.930 . S
C1296 H1282 0.930 . S
C1296 C1294 1.395 . S
C1296 C1299 1.403 . S
C1297 C1294 1.403 . S
C1297 C1298 1.524 . S
C1297 C1301 1.400 . S
C1298 H1283 0.960 . S
C1298 H1284 0.960 . S
C1298 H1285 0.960 . S
C1298 C1297 1.524 . S
C1299 C1296 1.403 . S
C1299 C1300 1.392 . S
C1299 C1303 1.495 1_556 S
C1300 C1299 1.392 . S
C1300 C1301 1.385 . S
C1300 C1302 1.478 . S
C1301 H1295 0.930 . S
C1301 C1297 1.400 . S
C1301 C1300 1.385 . S
C1302 C1300 1.478 . S
C1302 C1304 1.381 . S
C1302 C1308 1.383 1_556 S
C1303 C1299 1.495 1_554 S
C1303 H1309 0.959 . S
C1303 H1310 0.961 . S
C1303 H1311 0.966 . S
C1304 C1302 1.381 . S
C1304 C1305 1.394 . S
C1304 H1312 0.930 . S
C1305 C1304 1.394 . S
C1305 C1306 1.367 1_556 S
C1305 H1313 0.929 . S
C1306 C1305 1.367 1_554 S
C1306 C1307 1.387 . S
C1307 H1291 0.930 . S
C1307 C1306 1.387 . S
C1307 C1308 1.379 . S
C1308 H1292 0.931 . S
C1308 C1302 1.383 1_554 S
C1308 C1307 1.379 . S
H1309 C1303 0.959 . S
H1310 C1303 0.961 . S
H1311 C1303 0.966 . S
H1312 C1304 0.930 . S
H1313 C1305 0.929 . S
H1314 C1322 0.929 . S
H1315 C1324 0.930 . S
H1316 C1326 0.930 . S
H1317 C1329 0.929 . S
H1318 C1332 0.930 . S
H1319 C1334 0.960 . S
H1320 C1334 0.960 . S
H1321 C1334 0.960 . S
C1322 H1314 0.929 . S
C1322 C1323 1.377 . S
C1322 C1324 1.384 . S
C1323 C1322 1.377 . S
C1323 C1329 1.390 . S
C1324 H1315 0.930 . S
C1324 C1322 1.384 . S
C1324 C1325 1.372 . S
C1325 C1324 1.372 . S
C1325 C1326 1.400 . S
C1325 C1330 1.490 . S
C1326 H1316 0.930 . S
C1326 C1325 1.400 . S
C1326 C1329 1.386 . S
H1327 C1343 0.930 . S
H1328 C1344 0.931 . S
C1329 H1317 0.929 . S
C1329 C1323 1.390 . S
C1329 C1326 1.386 . S
C1330 C1325 1.490 . S
C1330 C1332 1.395 . S
C1330 C1333 1.403 . S
H1331 C1337 0.930 . S
C1332 H1318 0.930 . S
C1332 C1330 1.395 . S
C1332 C1335 1.403 . S
C1333 C1330 1.403 . S
C1333 C1334 1.524 . S
C1333 C1337 1.400 . S
C1334 H1319 0.960 . S
C1334 H1320 0.960 . S
C1334 H1321 0.960 . S
C1334 C1333 1.524 . S
C1335 C1332 1.403 . S
C1335 C1336 1.392 . S
C1335 C1339 1.495 . S
C1336 C1335 1.392 . S
C1336 C1337 1.385 . S
C1336 C1338 1.478 . S
C1337 H1331 0.930 . S
C1337 C1333 1.400 . S
C1337 C1336 1.385 . S
C1338 C1336 1.478 . S
C1338 C1340 1.381 . S
C1338 C1344 1.383 . S
C1339 C1335 1.495 . S
C1339 H1345 0.959 . S
C1339 H1346 0.961 . S
C1339 H1347 0.960 . S
C1340 C1338 1.381 . S
C1340 C1341 1.394 . S
C1340 H1348 0.930 . S
C1341 C1340 1.394 . S
C1341 C1342 1.383 . S
C1341 H1349 0.929 . S
C1342 C1341 1.383 . S
C1342 C1343 1.377 . S
C1343 H1327 0.930 . S
C1343 C1342 1.377 . S
C1343 C1344 1.379 . S
C1344 H1328 0.931 . S
C1344 C1338 1.383 . S
C1344 C1343 1.379 . S
H1345 C1339 0.959 . S
H1346 C1339 0.961 . S
H1347 C1339 0.960 . S
H1348 C1340 0.930 . S
H1349 C1341 0.929 . S
H1350 C1358 0.929 . S
H1351 C1360 0.930 . S
H1352 C1362 0.930 . S
H1353 C1365 0.929 . S
H1354 C1368 0.930 . S
H1355 C1370 0.960 . S
H1356 C1370 0.960 . S
H1357 C1370 0.960 . S
C1358 H1350 0.929 . S
C1358 C1359 1.377 . S
C1358 C1360 1.384 . S
C1359 C1358 1.377 . S
C1359 C1365 1.390 . S
C1360 H1351 0.930 . S
C1360 C1358 1.384 . S
C1360 C1361 1.372 . S
C1361 C1360 1.372 . S
C1361 C1362 1.400 . S
C1361 C1366 1.490 . S
C1362 H1352 0.930 . S
C1362 C1361 1.400 . S
C1362 C1365 1.386 . S
H1363 C1379 0.930 . S
H1364 C1380 0.931 . S
C1365 H1353 0.929 . S
C1365 C1359 1.390 . S
C1365 C1362 1.386 . S
C1366 C1361 1.490 . S
C1366 C1368 1.395 . S
C1366 C1369 1.403 . S
H1367 C1373 0.930 . S
C1368 H1354 0.930 . S
C1368 C1366 1.395 . S
C1368 C1371 1.403 . S
C1369 C1366 1.403 . S
C1369 C1370 1.524 . S
C1369 C1373 1.400 . S
C1370 H1355 0.960 . S
C1370 H1356 0.960 . S
C1370 H1357 0.960 . S
C1370 C1369 1.524 . S
C1371 C1368 1.403 . S
C1371 C1372 1.392 . S
C1371 C1375 1.495 . S
C1372 C1371 1.392 . S
C1372 C1373 1.385 . S
C1372 C1374 1.478 . S
C1373 H1367 0.930 . S
C1373 C1369 1.400 . S
C1373 C1372 1.385 . S
C1374 C1372 1.478 . S
C1374 C1376 1.381 . S
C1374 C1380 1.383 . S
C1375 C1371 1.495 . S
C1375 H1381 0.959 . S
C1375 H1382 0.961 . S
C1375 H1383 0.960 . S
C1376 C1374 1.381 . S
C1376 C1377 1.394 . S
C1376 H1384 0.930 . S
C1377 C1376 1.394 . S
C1377 C1378 1.383 . S
C1377 H1385 0.929 . S
C1378 C1377 1.383 . S
C1378 C1379 1.377 . S
C1379 H1363 0.930 . S
C1379 C1378 1.377 . S
C1379 C1380 1.379 . S
C1380 H1364 0.931 . S
C1380 C1374 1.383 . S
C1380 C1379 1.379 . S
H1381 C1375 0.959 . S
H1382 C1375 0.961 . S
H1383 C1375 0.960 . S
H1384 C1376 0.930 . S
H1385 C1377 0.929 . S
H1386 C1394 0.929 . S
H1387 C1396 0.930 . S
H1388 C1398 0.930 . S
H1389 C1401 0.929 . S
H1390 C1404 0.930 . S
H1391 C1406 0.960 . S
H1392 C1406 0.960 . S
H1393 C1406 0.960 . S
C1394 H1386 0.929 . S
C1394 C1395 1.377 . S
C1394 C1396 1.384 . S
C1395 C1394 1.377 . S
C1395 C1401 1.390 . S
C1396 H1387 0.930 . S
C1396 C1394 1.384 . S
C1396 C1397 1.372 . S
C1397 C1396 1.372 . S
C1397 C1398 1.400 . S
C1397 C1402 1.490 . S
C1398 H1388 0.930 . S
C1398 C1397 1.400 . S
C1398 C1401 1.386 . S
H1399 C1415 0.930 . S
H1400 C1416 0.931 . S
C1401 H1389 0.929 . S
C1401 C1395 1.390 . S
C1401 C1398 1.386 . S
C1402 C1397 1.490 . S
C1402 C1404 1.395 . S
C1402 C1405 1.403 . S
H1403 C1409 0.930 . S
C1404 H1390 0.930 . S
C1404 C1402 1.395 . S
C1404 C1407 1.403 . S
C1405 C1402 1.403 . S
C1405 C1406 1.524 . S
C1405 C1409 1.400 . S
C1406 H1391 0.960 . S
C1406 H1392 0.960 . S
C1406 H1393 0.960 . S
C1406 C1405 1.524 . S
C1407 C1404 1.403 . S
C1407 C1408 1.392 . S
C1407 C1411 1.495 . S
C1408 C1407 1.392 . S
C1408 C1409 1.385 . S
C1408 C1410 1.478 . S
C1409 H1403 0.930 . S
C1409 C1405 1.400 . S
C1409 C1408 1.385 . S
C1410 C1408 1.478 . S
C1410 C1412 1.381 . S
C1410 C1416 1.383 . S
C1411 C1407 1.495 . S
C1411 H1417 0.959 . S
C1411 H1418 0.961 . S
C1411 H1419 0.960 . S
C1412 C1410 1.381 . S
C1412 C1413 1.394 . S
C1412 H1420 0.930 . S
C1413 C1412 1.394 . S
C1413 C1414 1.383 . S
C1413 H1421 0.929 . S
C1414 C1413 1.383 . S
C1414 C1415 1.377 . S
C1415 H1399 0.930 . S
C1415 C1414 1.377 . S
C1415 C1416 1.379 . S
C1416 H1400 0.931 . S
C1416 C1410 1.383 . S
C1416 C1415 1.379 . S
H1417 C1411 0.959 . S
H1418 C1411 0.961 . S
H1419 C1411 0.960 . S
H1420 C1412 0.930 . S
H1421 C1413 0.929 . S
H1422 C1430 0.929 . S
H1423 C1432 0.930 . S
H1424 C1434 0.930 . S
H1425 C1437 0.929 . S
H1426 C1440 0.930 . S
H1427 C1442 0.960 . S
H1428 C1442 0.960 . S
H1429 C1442 0.960 1_655 S
C1430 H1422 0.929 . S
C1430 C1431 1.377 . S
C1430 C1432 1.384 . S
C1431 C1430 1.377 . S
C1431 C1437 1.390 . S
C1432 H1423 0.930 . S
C1432 C1430 1.384 . S
C1432 C1433 1.372 . S
C1433 C1432 1.372 . S
C1433 C1434 1.400 . S
C1433 C1438 1.490 . S
C1434 H1424 0.930 . S
C1434 C1433 1.400 . S
C1434 C1437 1.386 . S
H1435 C1451 0.930 . S
H1436 C1452 0.931 . S
C1437 H1425 0.929 . S
C1437 C1431 1.390 . S
C1437 C1434 1.386 . S
C1438 C1433 1.490 . S
C1438 C1440 1.395 . S
C1438 C1441 1.403 1_655 S
H1439 C1445 0.930 . S
C1440 H1426 0.930 . S
C1440 C1438 1.395 . S
C1440 C1443 1.403 1_655 S
C1441 C1438 1.403 1_455 S
C1441 C1442 1.524 . S
C1441 C1445 1.400 . S
C1442 H1427 0.960 . S
C1442 H1428 0.960 . S
C1442 H1429 0.960 1_455 S
C1442 C1441 1.524 . S
C1443 C1440 1.403 1_455 S
C1443 C1444 1.392 . S
C1443 C1447 1.495 . S
C1444 C1443 1.392 . S
C1444 C1445 1.385 . S
C1444 C1446 1.478 . S
C1445 H1439 0.930 . S
C1445 C1441 1.400 . S
C1445 C1444 1.385 . S
C1446 C1444 1.478 . S
C1446 C1448 1.381 . S
C1446 C1452 1.383 . S
C1447 C1443 1.495 . S
C1447 H1453 0.959 . S
C1447 H1454 0.961 . S
C1447 H1455 0.960 . S
C1448 C1446 1.381 . S
C1448 C1449 1.394 . S
C1448 H1456 0.930 . S
C1449 C1448 1.394 . S
C1449 C1450 1.383 . S
C1449 H1457 0.929 . S
C1450 C1449 1.383 . S
C1450 C1451 1.377 . S
C1451 H1435 0.930 . S
C1451 C1450 1.377 . S
C1451 C1452 1.379 . S
C1452 H1436 0.931 . S
C1452 C1446 1.383 . S
C1452 C1451 1.379 . S
H1453 C1447 0.959 . S
H1454 C1447 0.961 . S
H1455 C1447 0.960 . S
H1456 C1448 0.930 . S
H1457 C1449 0.929 . S
H1458 C1466 0.929 . S
H1459 C1468 0.930 . S
H1460 C1470 0.930 . S
H1461 C1473 0.929 . S
H1462 C1476 0.930 . S
H1463 C1478 0.960 . S
H1464 C1478 0.960 . S
H1465 C1478 0.960 . S
C1466 H1458 0.929 . S
C1466 C1467 1.377 . S
C1466 C1468 1.384 . S
C1467 C1466 1.377 . S
C1467 C1473 1.390 . S
C1468 H1459 0.930 . S
C1468 C1466 1.384 . S
C1468 C1469 1.372 . S
C1469 C1468 1.372 . S
C1469 C1470 1.400 . S
C1469 C1474 1.490 . S
C1470 H1460 0.930 . S
C1470 C1469 1.400 . S
C1470 C1473 1.386 . S
H1471 C1487 0.930 . S
H1472 C1488 0.931 . S
C1473 H1461 0.929 . S
C1473 C1467 1.390 . S
C1473 C1470 1.386 . S
C1474 C1469 1.490 . S
C1474 C1476 1.395 . S
C1474 C1477 1.403 . S
H1475 C1481 0.930 . S
C1476 H1462 0.930 . S
C1476 C1474 1.395 . S
C1476 C1479 1.403 . S
C1477 C1474 1.403 . S
C1477 C1478 1.524 . S
C1477 C1481 1.400 . S
C1478 H1463 0.960 . S
C1478 H1464 0.960 . S
C1478 H1465 0.960 . S
C1478 C1477 1.524 . S
C1479 C1476 1.403 . S
C1479 C1480 1.392 . S
C1479 C1483 1.495 . S
C1480 C1479 1.392 . S
C1480 C1481 1.385 . S
C1480 C1482 1.478 . S
C1481 H1475 0.930 . S
C1481 C1477 1.400 . S
C1481 C1480 1.385 . S
C1482 C1480 1.478 . S
C1482 C1484 1.381 . S
C1482 C1488 1.383 . S
C1483 C1479 1.495 . S
C1483 H1489 0.959 . S
C1483 H1490 0.961 . S
C1483 H1491 0.960 . S
C1484 C1482 1.381 . S
C1484 C1485 1.394 . S
C1484 H1492 0.930 . S
C1485 C1484 1.394 . S
C1485 C1486 1.383 . S
C1485 H1493 0.929 . S
C1486 C1485 1.383 . S
C1486 C1487 1.377 . S
C1487 H1471 0.930 . S
C1487 C1486 1.377 . S
C1487 C1488 1.379 . S
C1488 H1472 0.931 . S
C1488 C1482 1.383 . S
C1488 C1487 1.379 . S
H1489 C1483 0.959 . S
H1490 C1483 0.961 . S
H1491 C1483 0.960 . S
H1492 C1484 0.930 . S
H1493 C1485 0.929 . S
H1494 C1502 0.929 . S
H1495 C1504 0.930 . S
H1496 C1506 0.930 . S
H1497 C1509 0.929 . S
H1498 C1512 0.930 . S
H1499 C1514 0.960 . S
H1500 C1514 0.960 . S
H1501 C1514 0.960 . S
C1502 H1494 0.929 . S
C1502 C1503 1.377 . S
C1502 C1504 1.384 . S
C1503 C1502 1.377 . S
C1503 C1509 1.390 . S
C1504 H1495 0.930 . S
C1504 C1502 1.384 . S
C1504 C1505 1.372 . S
C1505 C1504 1.372 . S
C1505 C1506 1.400 . S
C1505 C1510 1.490 . S
C1506 H1496 0.930 . S
C1506 C1505 1.400 . S
C1506 C1509 1.386 . S
H1507 C1523 0.930 . S
H1508 C1524 0.931 . S
C1509 H1497 0.929 . S
C1509 C1503 1.390 . S
C1509 C1506 1.386 . S
C1510 C1505 1.490 . S
C1510 C1512 1.395 . S
C1510 C1513 1.403 . S
H1511 C1517 0.930 . S
C1512 H1498 0.930 . S
C1512 C1510 1.395 . S
C1512 C1515 1.403 1_545 S
C1513 C1510 1.403 . S
C1513 C1514 1.524 . S
C1513 C1517 1.400 1_545 S
C1514 H1499 0.960 . S
C1514 H1500 0.960 . S
C1514 H1501 0.960 . S
C1514 C1513 1.524 . S
C1515 C1512 1.403 1_565 S
C1515 C1516 1.392 . S
C1515 C1519 1.495 . S
C1516 C1515 1.392 . S
C1516 C1517 1.385 . S
C1516 C1518 1.478 . S
C1517 H1511 0.930 . S
C1517 C1513 1.400 1_565 S
C1517 C1516 1.385 . S
C1518 C1516 1.478 . S
C1518 C1520 1.381 . S
C1518 C1524 1.383 . S
C1519 C1515 1.495 . S
C1519 H1525 0.959 . S
C1519 H1526 0.961 . S
C1519 H1527 0.960 . S
C1520 C1518 1.381 . S
C1520 C1521 1.394 . S
C1520 H1528 0.930 . S
C1521 C1520 1.394 . S
C1521 C1522 1.383 . S
C1521 H1529 0.929 . S
C1522 C1521 1.383 . S
C1522 C1523 1.377 . S
C1523 H1507 0.930 . S
C1523 C1522 1.377 . S
C1523 C1524 1.379 . S
C1524 H1508 0.931 . S
C1524 C1518 1.383 . S
C1524 C1523 1.379 . S
H1525 C1519 0.959 . S
H1526 C1519 0.961 . S
H1527 C1519 0.960 . S
H1528 C1520 0.930 . S
H1529 C1521 0.929 . S
H1530 C1538 0.929 . S
H1531 C1540 0.930 . S
H1532 C1542 0.930 . S
H1533 C1545 0.929 . S
H1534 C1548 0.930 . S
H1535 C1550 0.960 . S
H1536 C1550 0.960 . S
H1537 C1550 0.960 . S
C1538 H1530 0.929 . S
C1538 C1539 1.377 . S
C1538 C1540 1.384 . S
C1539 C1538 1.377 . S
C1539 C1545 1.390 . S
C1540 H1531 0.930 . S
C1540 C1538 1.384 . S
C1540 C1541 1.372 . S
C1541 C1540 1.372 . S
C1541 C1542 1.400 . S
C1541 C1546 1.490 . S
C1542 H1532 0.930 . S
C1542 C1541 1.400 . S
C1542 C1545 1.386 . S
H1543 C1559 0.930 . S
H1544 C1560 0.931 . S
C1545 H1533 0.929 . S
C1545 C1539 1.390 . S
C1545 C1542 1.386 . S
C1546 C1541 1.490 . S
C1546 C1548 1.395 . S
C1546 C1549 1.403 . S
H1547 C1553 0.930 . S
C1548 H1534 0.930 . S
C1548 C1546 1.395 . S
C1548 C1551 1.403 . S
C1549 C1546 1.403 . S
C1549 C1550 1.524 . S
C1549 C1553 1.400 . S
C1550 H1535 0.960 . S
C1550 H1536 0.960 . S
C1550 H1537 0.960 . S
C1550 C1549 1.524 . S
C1551 C1548 1.403 . S
C1551 C1552 1.392 . S
C1551 C1555 1.495 . S
C1552 C1551 1.392 . S
C1552 C1553 1.385 . S
C1552 C1554 1.478 . S
C1553 H1547 0.930 . S
C1553 C1549 1.400 . S
C1553 C1552 1.385 . S
C1554 C1552 1.478 . S
C1554 C1556 1.381 . S
C1554 C1560 1.383 . S
C1555 C1551 1.495 . S
C1555 H1561 0.959 . S
C1555 H1562 0.961 . S
C1555 H1563 0.960 . S
C1556 C1554 1.381 . S
C1556 C1557 1.394 . S
C1556 H1564 0.930 . S
C1557 C1556 1.394 . S
C1557 C1558 1.383 . S
C1557 H1565 0.929 . S
C1558 C1557 1.383 . S
C1558 C1559 1.377 . S
C1559 H1543 0.930 . S
C1559 C1558 1.377 . S
C1559 C1560 1.379 . S
C1560 H1544 0.931 . S
C1560 C1554 1.383 . S
C1560 C1559 1.379 . S
H1561 C1555 0.959 . S
H1562 C1555 0.961 . S
H1563 C1555 0.960 . S
H1564 C1556 0.930 . S
H1565 C1557 0.929 . S
H1566 C1574 0.929 . S
H1567 C1576 0.930 . S
H1568 C1578 0.930 . S
H1569 C1581 0.929 . S
H1570 C1584 0.930 . S
H1571 C1586 0.960 . S
H1572 C1586 0.960 . S
H1573 C1586 0.960 . S
C1574 H1566 0.929 . S
C1574 C1575 1.377 . S
C1574 C1576 1.384 . S
C1575 C1574 1.377 . S
C1575 C1581 1.390 . S
C1576 H1567 0.930 . S
C1576 C1574 1.384 . S
C1576 C1577 1.372 . S
C1577 C1576 1.372 . S
C1577 C1578 1.400 . S
C1577 C1582 1.490 . S
C1578 H1568 0.930 . S
C1578 C1577 1.400 . S
C1578 C1581 1.386 . S
H1579 C1595 0.930 . S
H1580 C1596 0.931 . S
C1581 H1569 0.929 . S
C1581 C1575 1.390 . S
C1581 C1578 1.386 . S
C1582 C1577 1.490 . S
C1582 C1584 1.395 . S
C1582 C1585 1.403 . S
H1583 C1589 0.930 . S
C1584 H1570 0.930 . S
C1584 C1582 1.395 . S
C1584 C1587 1.403 . S
C1585 C1582 1.403 . S
C1585 C1586 1.524 . S
C1585 C1589 1.400 . S
C1586 H1571 0.960 . S
C1586 H1572 0.960 . S
C1586 H1573 0.960 . S
C1586 C1585 1.524 . S
C1587 C1584 1.403 . S
C1587 C1588 1.392 . S
C1587 C1591 1.495 . S
C1588 C1587 1.392 . S
C1588 C1589 1.385 . S
C1588 C1590 1.478 . S
C1589 H1583 0.930 . S
C1589 C1585 1.400 . S
C1589 C1588 1.385 . S
C1590 C1588 1.478 . S
C1590 C1592 1.381 . S
C1590 C1596 1.383 . S
C1591 C1587 1.495 . S
C1591 H1597 0.959 . S
C1591 H1598 0.961 . S
C1591 H1599 0.960 . S
C1592 C1590 1.381 . S
C1592 C1593 1.394 . S
C1592 H1600 0.930 . S
C1593 C1592 1.394 . S
C1593 C1594 1.383 . S
C1593 H1601 0.929 . S
C1594 C1593 1.383 . S
C1594 C1595 1.377 . S
C1595 H1579 0.930 . S
C1595 C1594 1.377 . S
C1595 C1596 1.379 . S
C1596 H1580 0.931 . S
C1596 C1590 1.383 . S
C1596 C1595 1.379 . S
H1597 C1591 0.959 . S
H1598 C1591 0.961 . S
H1599 C1591 0.960 . S
H1600 C1592 0.930 . S
H1601 C1593 0.929 . S
H1602 C1610 0.929 . S
H1603 C1612 0.930 . S
H1604 C1614 0.930 . S
H1605 C1617 0.929 . S
H1606 C1620 0.930 . S
H1607 C1622 0.960 . S
H1608 C1622 0.960 . S
H1609 C1622 0.960 . S
C1610 H1602 0.929 . S
C1610 C1611 1.377 . S
C1610 C1612 1.384 . S
C1611 C1610 1.377 . S
C1611 C1617 1.390 . S
C1612 H1603 0.930 . S
C1612 C1610 1.384 . S
C1612 C1613 1.372 . S
C1613 C1612 1.372 . S
C1613 C1614 1.400 . S
C1613 C1618 1.490 . S
C1614 H1604 0.930 . S
C1614 C1613 1.400 . S
C1614 C1617 1.386 . S
H1615 C1631 0.930 . S
H1616 C1632 0.931 . S
C1617 H1605 0.929 . S
C1617 C1611 1.390 . S
C1617 C1614 1.386 . S
C1618 C1613 1.490 . S
C1618 C1620 1.395 . S
C1618 C1621 1.403 . S
H1619 C1625 0.930 . S
C1620 H1606 0.930 . S
C1620 C1618 1.395 . S
C1620 C1623 1.403 . S
C1621 C1618 1.403 . S
C1621 C1622 1.524 . S
C1621 C1625 1.400 . S
C1622 H1607 0.960 . S
C1622 H1608 0.960 . S
C1622 H1609 0.960 . S
C1622 C1621 1.524 . S
C1623 C1620 1.403 . S
C1623 C1624 1.392 . S
C1623 C1627 1.495 . S
C1624 C1623 1.392 . S
C1624 C1625 1.385 . S
C1624 C1626 1.478 . S
C1625 H1619 0.930 . S
C1625 C1621 1.400 . S
C1625 C1624 1.385 . S
C1626 C1624 1.478 . S
C1626 C1628 1.381 . S
C1626 C1632 1.383 . S
C1627 C1623 1.495 . S
C1627 H1633 0.959 . S
C1627 H1634 0.961 . S
C1627 H1635 0.960 . S
C1628 C1626 1.381 . S
C1628 C1629 1.394 . S
C1628 H1636 0.930 . S
C1629 C1628 1.394 . S
C1629 C1630 1.383 . S
C1629 H1637 0.929 . S
C1630 C1629 1.383 . S
C1630 C1631 1.377 . S
C1631 H1615 0.930 . S
C1631 C1630 1.377 . S
C1631 C1632 1.379 . S
C1632 H1616 0.931 . S
C1632 C1626 1.383 . S
C1632 C1631 1.379 . S
H1633 C1627 0.959 . S
H1634 C1627 0.961 . S
H1635 C1627 0.960 . S
H1636 C1628 0.930 . S
H1637 C1629 0.929 . S
H1638 C1646 0.929 . S
H1639 C1648 0.930 . S
H1640 C1650 0.930 . S
H1641 C1653 0.929 . S
H1642 C1656 0.930 . S
H1643 C1658 0.960 . S
H1644 C1658 0.960 . S
H1645 C1658 0.960 . S
C1646 H1638 0.929 . S
C1646 C1647 1.377 . S
C1646 C1648 1.384 . S
C1647 C1646 1.377 . S
C1647 C1653 1.390 . S
C1648 H1639 0.930 . S
C1648 C1646 1.384 . S
C1648 C1649 1.372 . S
C1649 C1648 1.372 . S
C1649 C1650 1.400 . S
C1649 C1654 1.490 . S
C1650 H1640 0.930 . S
C1650 C1649 1.400 . S
C1650 C1653 1.386 . S
H1651 C1667 0.930 . S
H1652 C1668 0.931 . S
C1653 H1641 0.929 . S
C1653 C1647 1.390 . S
C1653 C1650 1.386 . S
C1654 C1649 1.490 . S
C1654 C1656 1.395 . S
C1654 C1657 1.403 . S
H1655 C1661 0.930 . S
C1656 H1642 0.930 . S
C1656 C1654 1.395 . S
C1656 C1659 1.403 . S
C1657 C1654 1.403 . S
C1657 C1658 1.524 . S
C1657 C1661 1.400 . S
C1658 H1643 0.960 . S
C1658 H1644 0.960 . S
C1658 H1645 0.960 . S
C1658 C1657 1.524 . S
C1659 C1656 1.403 . S
C1659 C1660 1.392 . S
C1659 C1663 1.495 . S
C1660 C1659 1.392 . S
C1660 C1661 1.385 . S
C1660 C1662 1.478 . S
C1661 H1655 0.930 . S
C1661 C1657 1.400 . S
C1661 C1660 1.385 . S
C1662 C1660 1.478 . S
C1662 C1664 1.381 . S
C1662 C1668 1.383 . S
C1663 C1659 1.495 . S
C1663 H1669 0.959 . S
C1663 H1670 0.961 . S
C1663 H1671 0.960 . S
C1664 C1662 1.381 . S
C1664 C1665 1.394 . S
C1664 H1672 0.930 . S
C1665 C1664 1.394 . S
C1665 C1666 1.383 . S
C1665 H1673 0.929 . S
C1666 C1665 1.383 . S
C1666 C1667 1.377 . S
C1667 H1651 0.930 . S
C1667 C1666 1.377 . S
C1667 C1668 1.379 . S
C1668 H1652 0.931 . S
C1668 C1662 1.383 . S
C1668 C1667 1.379 . S
H1669 C1663 0.959 . S
H1670 C1663 0.961 . S
H1671 C1663 0.960 . S
H1672 C1664 0.930 . S
H1673 C1665 0.929 . S
H1674 C1682 0.929 . S
H1675 C1684 0.930 . S
H1676 C1686 0.930 . S
H1677 C1689 0.929 . S
H1678 C1692 0.930 . S
H1679 C1694 0.960 . S
H1680 C1694 0.960 . S
H1681 C1694 0.960 . S
C1682 H1674 0.929 . S
C1682 C1683 1.377 . S
C1682 C1684 1.384 . S
C1683 C1682 1.377 . S
C1683 C1689 1.390 . S
C1684 H1675 0.930 . S
C1684 C1682 1.384 . S
C1684 C1685 1.372 . S
C1685 C1684 1.372 . S
C1685 C1686 1.400 . S
C1685 C1690 1.490 . S
C1686 H1676 0.930 . S
C1686 C1685 1.400 . S
C1686 C1689 1.386 . S
H1687 C1703 0.930 . S
H1688 C1704 0.931 . S
C1689 H1677 0.929 . S
C1689 C1683 1.390 . S
C1689 C1686 1.386 . S
C1690 C1685 1.490 . S
C1690 C1692 1.395 . S
C1690 C1693 1.403 . S
H1691 C1697 0.930 . S
C1692 H1678 0.930 . S
C1692 C1690 1.395 . S
C1692 C1695 1.403 . S
C1693 C1690 1.403 . S
C1693 C1694 1.524 . S
C1693 C1697 1.400 . S
C1694 H1679 0.960 . S
C1694 H1680 0.960 . S
C1694 H1681 0.960 . S
C1694 C1693 1.524 . S
C1695 C1692 1.403 . S
C1695 C1696 1.392 . S
C1695 C1699 1.495 . S
C1696 C1695 1.392 . S
C1696 C1697 1.385 . S
C1696 C1698 1.478 . S
C1697 H1691 0.930 . S
C1697 C1693 1.400 . S
C1697 C1696 1.385 . S
C1698 C1696 1.478 . S
C1698 C1700 1.381 . S
C1698 C1704 1.383 . S
C1699 C1695 1.495 . S
C1699 H1705 0.959 . S
C1699 H1706 0.961 . S
C1699 H1707 0.960 . S
C1700 C1698 1.381 . S
C1700 C1701 1.394 . S
C1700 H1708 0.930 . S
C1701 C1700 1.394 . S
C1701 C1702 1.383 . S
C1701 H1709 0.929 . S
C1702 C1701 1.383 . S
C1702 C1703 1.377 . S
C1703 H1687 0.930 . S
C1703 C1702 1.377 . S
C1703 C1704 1.379 . S
C1704 H1688 0.931 . S
C1704 C1698 1.383 . S
C1704 C1703 1.379 . S
H1705 C1699 0.959 . S
H1706 C1699 0.961 . S
H1707 C1699 0.960 . S
H1708 C1700 0.930 . S
H1709 C1701 0.929 . S
H1710 C1718 0.929 . S
H1711 C1720 0.930 . S
H1712 C1722 0.930 . S
H1713 C1725 0.929 . S
H1714 C1728 0.930 . S
H1715 C1730 0.960 . S
H1716 C1730 0.960 . S
H1717 C1730 0.960 . S
C1718 H1710 0.929 . S
C1718 C1719 1.377 . S
C1718 C1720 1.384 . S
C1719 C1718 1.377 . S
C1719 C1725 1.390 . S
C1720 H1711 0.930 . S
C1720 C1718 1.384 . S
C1720 C1721 1.372 . S
C1721 C1720 1.372 . S
C1721 C1722 1.400 . S
C1721 C1726 1.490 . S
C1722 H1712 0.930 . S
C1722 C1721 1.400 . S
C1722 C1725 1.386 . S
H1723 C1739 0.930 . S
H1724 C1740 0.931 . S
C1725 H1713 0.929 . S
C1725 C1719 1.390 . S
C1725 C1722 1.386 . S
C1726 C1721 1.490 . S
C1726 C1728 1.395 . S
C1726 C1729 1.403 . S
H1727 C1733 0.930 . S
C1728 H1714 0.930 . S
C1728 C1726 1.395 . S
C1728 C1731 1.403 . S
C1729 C1726 1.403 . S
C1729 C1730 1.524 . S
C1729 C1733 1.400 . S
C1730 H1715 0.960 . S
C1730 H1716 0.960 . S
C1730 H1717 0.960 . S
C1730 C1729 1.524 . S
C1731 C1728 1.403 . S
C1731 C1732 1.392 . S
C1731 C1735 1.495 . S
C1732 C1731 1.392 . S
C1732 C1733 1.385 . S
C1732 C1734 1.478 . S
C1733 H1727 0.930 . S
C1733 C1729 1.400 . S
C1733 C1732 1.385 . S
C1734 C1732 1.478 . S
C1734 C1736 1.381 . S
C1734 C1740 1.383 . S
C1735 C1731 1.495 . S
C1735 H1741 0.959 . S
C1735 H1742 0.961 . S
C1735 H1743 0.960 . S
C1736 C1734 1.381 . S
C1736 C1737 1.394 . S
C1736 H1744 0.930 . S
C1737 C1736 1.394 . S
C1737 C1738 1.383 . S
C1737 H1745 0.929 . S
C1738 C1737 1.383 . S
C1738 C1739 1.377 . S
C1739 H1723 0.930 . S
C1739 C1738 1.377 . S
C1739 C1740 1.379 . S
C1740 H1724 0.931 . S
C1740 C1734 1.383 . S
C1740 C1739 1.379 . S
H1741 C1735 0.959 . S
H1742 C1735 0.961 . S
H1743 C1735 0.960 . S
H1744 C1736 0.930 . S
H1745 C1737 0.929 . S
H1746 C1754 0.929 . S
H1747 C1756 0.930 . S
H1748 C1758 0.930 1_565 S
H1749 C1761 0.929 . S
H1750 C1764 0.930 . S
H1751 C1766 0.960 . S
H1752 C1766 0.960 . S
H1753 C1766 0.960 . S
C1754 H1746 0.929 . S
C1754 C1755 1.377 . S
C1754 C1756 1.384 . S
C1755 C1754 1.377 . S
C1755 C1761 1.390 . S
C1756 H1747 0.930 . S
C1756 C1754 1.384 . S
C1756 C1757 1.372 1_545 S
C1757 C1756 1.372 1_565 S
C1757 C1758 1.400 1_565 S
C1757 C1762 1.490 . S
C1758 H1748 0.930 1_545 S
C1758 C1757 1.400 1_545 S
C1758 C1761 1.386 . S
H1759 C1775 0.930 . S
H1760 C1776 0.931 . S
C1761 H1749 0.929 . S
C1761 C1755 1.390 . S
C1761 C1758 1.386 . S
C1762 C1757 1.490 . S
C1762 C1764 1.395 . S
C1762 C1765 1.403 . S
H1763 C1769 0.930 . S
C1764 H1750 0.930 . S
C1764 C1762 1.395 . S
C1764 C1767 1.403 . S
C1765 C1762 1.403 . S
C1765 C1766 1.524 . S
C1765 C1769 1.400 . S
C1766 H1751 0.960 . S
C1766 H1752 0.960 . S
C1766 H1753 0.960 . S
C1766 C1765 1.524 . S
C1767 C1764 1.403 . S
C1767 C1768 1.392 . S
C1767 C1771 1.495 . S
C1768 C1767 1.392 . S
C1768 C1769 1.385 . S
C1768 C1770 1.478 . S
C1769 H1763 0.930 . S
C1769 C1765 1.400 . S
C1769 C1768 1.385 . S
C1770 C1768 1.478 . S
C1770 C1772 1.381 . S
C1770 C1776 1.383 . S
C1771 C1767 1.495 . S
C1771 H1777 0.959 . S
C1771 H1778 0.961 . S
C1771 H1779 0.960 . S
C1772 C1770 1.381 . S
C1772 C1773 1.394 . S
C1772 H1780 0.930 . S
C1773 C1772 1.394 . S
C1773 C1774 1.383 . S
C1773 H1781 0.929 . S
C1774 C1773 1.383 . S
C1774 C1775 1.377 . S
C1775 H1759 0.930 . S
C1775 C1774 1.377 . S
C1775 C1776 1.379 . S
C1776 H1760 0.931 . S
C1776 C1770 1.383 . S
C1776 C1775 1.379 . S
H1777 C1771 0.959 . S
H1778 C1771 0.961 . S
H1779 C1771 0.960 . S
H1780 C1772 0.930 . S
H1781 C1773 0.929 . S
H1782 C1790 0.929 . S
H1783 C1792 0.929 . S
H1784 C1794 0.930 . S
H1785 C1797 0.929 . S
H1786 C1800 0.930 . S
H1787 C1802 0.960 . S
H1788 C1802 0.960 . S
H1789 C1802 0.960 . S
C1790 H1782 0.929 . S
C1790 C1791 1.377 . S
C1790 C1792 1.387 1_655 S
C1791 C1790 1.377 . S
C1791 C1797 1.390 . S
C1792 H1783 0.929 . S
C1792 C1790 1.387 1_455 S
C1792 C1793 1.370 . S
C1793 C1792 1.370 . S
C1793 C1794 1.400 . S
C1793 C1798 1.490 . S
C1794 H1784 0.930 . S
C1794 C1793 1.400 . S
C1794 C1797 1.386 1_455 S
H1795 C1811 0.930 . S
H1796 C1812 0.931 . S
C1797 H1785 0.929 . S
C1797 C1791 1.390 . S
C1797 C1794 1.386 1_655 S
C1798 C1793 1.490 . S
C1798 C1800 1.395 . S
C1798 C1801 1.403 . S
H1799 C1805 0.930 . S
C1800 H1786 0.930 . S
C1800 C1798 1.395 . S
C1800 C1803 1.403 . S
C1801 C1798 1.403 . S
C1801 C1802 1.524 . S
C1801 C1805 1.400 . S
C1802 H1787 0.960 . S
C1802 H1788 0.960 . S
C1802 H1789 0.960 . S
C1802 C1801 1.524 . S
C1803 C1800 1.403 . S
C1803 C1804 1.392 . S
C1803 C1807 1.495 . S
C1804 C1803 1.392 . S
C1804 C1805 1.385 . S
C1804 C1806 1.478 . S
C1805 H1799 0.930 . S
C1805 C1801 1.400 . S
C1805 C1804 1.385 . S
C1806 C1804 1.478 . S
C1806 C1808 1.381 . S
C1806 C1812 1.383 . S
C1807 C1803 1.495 . S
C1807 H1813 0.959 . S
C1807 H1814 0.961 . S
C1807 H1815 0.960 . S
C1808 C1806 1.381 . S
C1808 C1809 1.394 . S
C1808 H1816 0.930 . S
C1809 C1808 1.394 . S
C1809 C1810 1.383 . S
C1809 H1817 0.929 . S
C1810 C1809 1.383 . S
C1810 C1811 1.377 . S
C1811 H1795 0.930 . S
C1811 C1810 1.377 . S
C1811 C1812 1.379 . S
C1812 H1796 0.931 . S
C1812 C1806 1.383 . S
C1812 C1811 1.379 . S
H1813 C1807 0.959 . S
H1814 C1807 0.961 . S
H1815 C1807 0.960 . S
H1816 C1808 0.930 . S
H1817 C1809 0.929 . S
H1818 C1826 0.929 . S
H1819 C1828 0.930 . S
H1820 C1830 0.930 . S
H1821 C1833 0.929 . S
H1822 C1836 0.930 . S
H1823 C1838 0.960 . S
H1824 C1838 0.960 . S
H1825 C1838 0.960 . S
C1826 H1818 0.929 . S
C1826 C1827 1.377 . S
C1826 C1828 1.384 . S
C1827 C1826 1.377 . S
C1827 C1833 1.390 . S
C1828 H1819 0.930 . S
C1828 C1826 1.384 . S
C1828 C1829 1.372 . S
C1829 C1828 1.372 . S
C1829 C1830 1.400 . S
C1829 C1834 1.490 . S
C1830 H1820 0.930 . S
C1830 C1829 1.400 . S
C1830 C1833 1.386 . S
H1831 C1847 0.930 . S
H1832 C1848 0.931 . S
C1833 H1821 0.929 . S
C1833 C1827 1.390 . S
C1833 C1830 1.386 . S
C1834 C1829 1.490 . S
C1834 C1836 1.395 . S
C1834 C1837 1.403 . S
H1835 C1841 0.930 . S
C1836 H1822 0.930 . S
C1836 C1834 1.395 . S
C1836 C1839 1.403 . S
C1837 C1834 1.403 . S
C1837 C1838 1.524 . S
C1837 C1841 1.400 . S
C1838 H1823 0.960 . S
C1838 H1824 0.960 . S
C1838 H1825 0.960 . S
C1838 C1837 1.524 . S
C1839 C1836 1.403 . S
C1839 C1840 1.392 . S
C1839 C1843 1.495 . S
C1840 C1839 1.392 . S
C1840 C1841 1.385 . S
C1840 C1842 1.478 . S
C1841 H1835 0.930 . S
C1841 C1837 1.400 . S
C1841 C1840 1.385 . S
C1842 C1840 1.478 . S
C1842 C1844 1.381 . S
C1842 C1848 1.383 . S
C1843 C1839 1.495 . S
C1843 H1849 0.959 . S
C1843 H1850 0.961 . S
C1843 H1851 0.960 . S
C1844 C1842 1.381 . S
C1844 C1845 1.394 . S
C1844 H1852 0.930 . S
C1845 C1844 1.394 . S
C1845 C1846 1.383 . S
C1845 H1853 0.929 . S
C1846 C1845 1.383 . S
C1846 C1847 1.377 . S
C1847 H1831 0.930 . S
C1847 C1846 1.377 . S
C1847 C1848 1.379 . S
C1848 H1832 0.931 . S
C1848 C1842 1.383 . S
C1848 C1847 1.379 . S
H1849 C1843 0.959 . S
H1850 C1843 0.961 . S
H1851 C1843 0.960 . S
H1852 C1844 0.930 . S
H1853 C1845 0.929 . S
H1854 C1862 0.929 . S
H1855 C1864 0.930 . S
H1856 C1866 0.930 . S
H1857 C1869 0.929 . S
H1858 C1872 0.930 . S
H1859 C1874 0.960 . S
H1860 C1874 0.960 . S
H1861 C1874 0.960 . S
C1862 H1854 0.929 . S
C1862 C1863 1.377 . S
C1862 C1864 1.384 . S
C1863 C1862 1.377 . S
C1863 C1869 1.390 . S
C1864 H1855 0.930 . S
C1864 C1862 1.384 . S
C1864 C1865 1.372 . S
C1865 C1864 1.372 . S
C1865 C1866 1.400 . S
C1865 C1870 1.490 . S
C1866 H1856 0.930 . S
C1866 C1865 1.400 . S
C1866 C1869 1.386 . S
H1867 C1883 0.930 . S
H1868 C1884 0.931 . S
C1869 H1857 0.929 . S
C1869 C1863 1.390 . S
C1869 C1866 1.386 . S
C1870 C1865 1.490 . S
C1870 C1872 1.395 . S
C1870 C1873 1.403 . S
H1871 C1877 0.930 . S
C1872 H1858 0.930 . S
C1872 C1870 1.395 . S
C1872 C1875 1.403 . S
C1873 C1870 1.403 . S
C1873 C1874 1.524 . S
C1873 C1877 1.400 . S
C1874 H1859 0.960 . S
C1874 H1860 0.960 . S
C1874 H1861 0.960 . S
C1874 C1873 1.524 . S
C1875 C1872 1.403 . S
C1875 C1876 1.392 . S
C1875 C1879 1.495 . S
C1876 C1875 1.392 . S
C1876 C1877 1.385 . S
C1876 C1878 1.478 . S
C1877 H1871 0.930 . S
C1877 C1873 1.400 . S
C1877 C1876 1.385 . S
C1878 C1876 1.478 . S
C1878 C1880 1.381 . S
C1878 C1884 1.383 . S
C1879 C1875 1.495 . S
C1879 H1885 0.959 . S
C1879 H1886 0.961 . S
C1879 H1887 0.960 . S
C1880 C1878 1.381 . S
C1880 C1881 1.394 . S
C1880 H1888 0.930 . S
C1881 C1880 1.394 . S
C1881 C1882 1.383 . S
C1881 H1889 0.929 . S
C1882 C1881 1.383 . S
C1882 C1883 1.377 . S
C1883 H1867 0.930 . S
C1883 C1882 1.377 . S
C1883 C1884 1.379 . S
C1884 H1868 0.931 . S
C1884 C1878 1.383 . S
C1884 C1883 1.379 . S
H1885 C1879 0.959 . S
H1886 C1879 0.961 . S
H1887 C1879 0.960 . S
H1888 C1880 0.930 . S
H1889 C1881 0.929 . S
H1890 C1898 0.929 . S
H1891 C1900 0.930 . S
H1892 C1902 0.930 . S
H1893 C1905 0.929 . S
H1894 C1908 0.930 . S
H1895 C1910 0.960 . S
H1896 C1910 0.960 . S
H1897 C1910 0.960 . S
C1898 H1890 0.929 . S
C1898 C1899 1.377 . S
C1898 C1900 1.384 . S
C1899 C1898 1.377 . S
C1899 C1905 1.390 . S
C1900 H1891 0.930 . S
C1900 C1898 1.384 . S
C1900 C1901 1.372 . S
C1901 C1900 1.372 . S
C1901 C1902 1.400 . S
C1901 C1906 1.490 . S
C1902 H1892 0.930 . S
C1902 C1901 1.400 . S
C1902 C1905 1.386 . S
H1903 C1919 0.930 . S
H1904 C1920 0.931 . S
C1905 H1893 0.929 . S
C1905 C1899 1.390 . S
C1905 C1902 1.386 . S
C1906 C1901 1.490 . S
C1906 C1908 1.395 . S
C1906 C1909 1.403 . S
H1907 C1913 0.930 . S
C1908 H1894 0.930 . S
C1908 C1906 1.395 . S
C1908 C1911 1.403 . S
C1909 C1906 1.403 . S
C1909 C1910 1.524 . S
C1909 C1913 1.400 . S
C1910 H1895 0.960 . S
C1910 H1896 0.960 . S
C1910 H1897 0.960 . S
C1910 C1909 1.524 . S
C1911 C1908 1.403 . S
C1911 C1912 1.392 . S
C1911 C1915 1.495 . S
C1912 C1911 1.392 . S
C1912 C1913 1.385 . S
C1912 C1914 1.478 . S
C1913 H1907 0.930 . S
C1913 C1909 1.400 . S
C1913 C1912 1.385 . S
C1914 C1912 1.478 . S
C1914 C1916 1.381 . S
C1914 C1920 1.383 . S
C1915 C1911 1.495 . S
C1915 H1921 0.959 . S
C1915 H1922 0.961 . S
C1915 H1923 0.960 . S
C1916 C1914 1.381 . S
C1916 C1917 1.394 . S
C1916 H1924 0.930 . S
C1917 C1916 1.394 . S
C1917 C1918 1.383 . S
C1917 H1925 0.929 . S
C1918 C1917 1.383 . S
C1918 C1919 1.377 . S
C1919 H1903 0.930 . S
C1919 C1918 1.377 . S
C1919 C1920 1.379 . S
C1920 H1904 0.931 . S
C1920 C1914 1.383 . S
C1920 C1919 1.379 . S
H1921 C1915 0.959 . S
H1922 C1915 0.961 . S
H1923 C1915 0.960 . S
H1924 C1916 0.930 . S
H1925 C1917 0.929 . S
H1926 C1934 0.929 . S
H1927 C1936 0.930 . S
H1928 C1938 0.930 . S
H1929 C1941 0.929 . S
H1930 C1944 0.930 . S
H1931 C1946 0.960 . S
H1932 C1946 0.960 . S
H1933 C1946 0.960 . S
C1934 H1926 0.929 . S
C1934 C1935 1.377 . S
C1934 C1936 1.384 . S
C1935 C1934 1.377 . S
C1935 C1941 1.390 . S
C1936 H1927 0.930 . S
C1936 C1934 1.384 . S
C1936 C1937 1.372 . S
C1937 C1936 1.372 . S
C1937 C1938 1.400 . S
C1937 C1942 1.490 . S
C1938 H1928 0.930 . S
C1938 C1937 1.400 . S
C1938 C1941 1.386 . S
H1939 C1955 0.930 . S
H1940 C1956 0.931 . S
C1941 H1929 0.929 . S
C1941 C1935 1.390 . S
C1941 C1938 1.386 . S
C1942 C1937 1.490 . S
C1942 C1944 1.395 . S
C1942 C1945 1.403 . S
H1943 C1949 0.930 . S
C1944 H1930 0.930 . S
C1944 C1942 1.395 . S
C1944 C1947 1.403 . S
C1945 C1942 1.403 . S
C1945 C1946 1.524 . S
C1945 C1949 1.400 . S
C1946 H1931 0.960 . S
C1946 H1932 0.960 . S
C1946 H1933 0.960 . S
C1946 C1945 1.524 . S
C1947 C1944 1.403 . S
C1947 C1948 1.392 . S
C1947 C1951 1.495 . S
C1948 C1947 1.392 . S
C1948 C1949 1.385 . S
C1948 C1950 1.478 . S
C1949 H1943 0.930 . S
C1949 C1945 1.400 . S
C1949 C1948 1.385 . S
C1950 C1948 1.478 . S
C1950 C1952 1.381 . S
C1950 C1956 1.383 . S
C1951 C1947 1.495 . S
C1951 H1957 0.959 . S
C1951 H1958 0.961 . S
C1951 H1959 0.960 . S
C1952 C1950 1.381 . S
C1952 C1953 1.394 . S
C1952 H1960 0.930 . S
C1953 C1952 1.394 . S
C1953 C1954 1.383 . S
C1953 H1961 0.929 . S
C1954 C1953 1.383 . S
C1954 C1955 1.377 . S
C1955 H1939 0.930 . S
C1955 C1954 1.377 . S
C1955 C1956 1.379 . S
C1956 H1940 0.931 . S
C1956 C1950 1.383 . S
C1956 C1955 1.379 . S
H1957 C1951 0.959 . S
H1958 C1951 0.961 . S
H1959 C1951 0.960 . S
H1960 C1952 0.930 . S
H1961 C1953 0.929 . S
H1962 C1970 0.929 . S
H1963 C1972 0.930 . S
H1964 C1974 0.930 . S
H1965 C1977 0.929 . S
H1966 C1980 0.930 . S
H1967 C1982 0.960 . S
H1968 C1982 0.960 . S
H1969 C1982 0.960 . S
C1970 H1962 0.929 . S
C1970 C1971 1.377 . S
C1970 C1972 1.384 . S
C1971 C1970 1.377 . S
C1971 C1977 1.390 . S
C1972 H1963 0.930 . S
C1972 C1970 1.384 . S
C1972 C1973 1.372 . S
C1973 C1972 1.372 . S
C1973 C1974 1.400 . S
C1973 C1978 1.490 . S
C1974 H1964 0.930 . S
C1974 C1973 1.400 . S
C1974 C1977 1.386 . S
H1975 C1991 0.930 . S
H1976 C1992 0.931 . S
C1977 H1965 0.929 . S
C1977 C1971 1.390 . S
C1977 C1974 1.386 . S
C1978 C1973 1.490 . S
C1978 C1980 1.395 1_565 S
C1978 C1981 1.403 . S
H1979 C1985 0.930 . S
C1980 H1966 0.930 . S
C1980 C1978 1.395 1_545 S
C1980 C1983 1.403 . S
C1981 C1978 1.403 . S
C1981 C1982 1.524 . S
C1981 C1985 1.400 1_565 S
C1982 H1967 0.960 . S
C1982 H1968 0.960 . S
C1982 H1969 0.960 . S
C1982 C1981 1.524 . S
C1983 C1980 1.403 . S
C1983 C1984 1.392 . S
C1983 C1987 1.495 . S
C1984 C1983 1.392 . S
C1984 C1985 1.385 . S
C1984 C1986 1.478 . S
C1985 H1979 0.930 . S
C1985 C1981 1.400 1_545 S
C1985 C1984 1.385 . S
C1986 C1984 1.478 . S
C1986 C1988 1.381 . S
C1986 C1992 1.383 . S
C1987 C1983 1.495 . S
C1987 H1993 0.959 . S
C1987 H1994 0.961 . S
C1987 H1995 0.960 . S
C1988 C1986 1.381 . S
C1988 C1989 1.394 . S
C1988 H1996 0.930 . S
C1989 C1988 1.394 . S
C1989 C1990 1.383 . S
C1989 H1997 0.929 . S
C1990 C1989 1.383 . S
C1990 C1991 1.377 . S
C1991 H1975 0.930 . S
C1991 C1990 1.377 . S
C1991 C1992 1.379 . S
C1992 H1976 0.931 . S
C1992 C1986 1.383 . S
C1992 C1991 1.379 . S
H1993 C1987 0.959 . S
H1994 C1987 0.961 . S
H1995 C1987 0.960 . S
H1996 C1988 0.930 . S
H1997 C1989 0.929 . S
H1998 C2006 0.929 . S
H1999 C2008 0.930 . S
H2000 C2010 0.930 . S
H2001 C2013 0.929 . S
H2002 C2016 0.930 . S
H2003 C2018 0.960 1_655 S
H2004 C2018 0.960 . S
H2005 C2018 0.960 . S
C2006 H1998 0.929 . S
C2006 C2007 1.377 . S
C2006 C2008 1.384 . S
C2007 C2006 1.377 . S
C2007 C2013 1.390 . S
C2008 H1999 0.930 . S
C2008 C2006 1.384 . S
C2008 C2009 1.372 . S
C2009 C2008 1.372 . S
C2009 C2010 1.400 . S
C2009 C2014 1.490 . S
C2010 H2000 0.930 . S
C2010 C2009 1.400 . S
C2010 C2013 1.386 . S
H2011 C2027 0.930 . S
H2012 C2028 0.931 . S
C2013 H2001 0.929 . S
C2013 C2007 1.390 . S
C2013 C2010 1.386 . S
C2014 C2009 1.490 . S
C2014 C2016 1.395 . S
C2014 C2017 1.449 . S
H2015 C2021 0.930 . S
C2016 H2002 0.930 . S
C2016 C2014 1.395 . S
C2016 C2019 1.403 1_455 S
C2017 C2014 1.449 . S
C2017 C2018 1.530 . S
C2017 C2021 1.347 1_455 S
C2018 H2003 0.960 1_455 S
C2018 H2004 0.960 . S
C2018 H2005 0.960 . S
C2018 C2017 1.530 . S
C2019 C2016 1.403 1_655 S
C2019 C2020 1.392 . S
C2019 C2023 1.495 . S
C2020 C2019 1.392 . S
C2020 C2021 1.385 . S
C2020 C2022 1.478 . S
C2021 H2015 0.930 . S
C2021 C2017 1.347 1_655 S
C2021 C2020 1.385 . S
C2022 C2020 1.478 . S
C2022 C2024 1.381 . S
C2022 C2028 1.383 . S
C2023 C2019 1.495 . S
C2023 H2029 1.013 . S
C2023 H2030 0.961 . S
C2023 H2031 0.960 . S
C2024 C2022 1.381 . S
C2024 C2025 1.394 . S
C2024 H2032 0.930 . S
C2025 C2024 1.394 . S
C2025 C2026 1.383 . S
C2025 H2033 0.929 . S
C2026 C2025 1.383 . S
C2026 C2027 1.377 . S
C2027 H2011 0.930 . S
C2027 C2026 1.377 . S
C2027 C2028 1.379 . S
C2028 H2012 0.931 . S
C2028 C2022 1.383 . S
C2028 C2027 1.379 . S
H2029 C2023 1.013 . S
H2030 C2023 0.961 . S
H2031 C2023 0.960 . S
H2032 C2024 0.930 . S
H2033 C2025 0.929 . S
H2034 C2042 0.929 . S
H2035 C2044 0.930 . S
H2036 C2046 0.930 . S
H2037 C2049 0.929 . S
H2038 C2052 0.930 . S
H2039 C2054 0.960 . S
H2040 C2054 0.960 . S
H2041 C2054 0.960 . S
C2042 H2034 0.929 . S
C2042 C2043 1.377 . S
C2042 C2044 1.384 . S
C2043 C2042 1.377 . S
C2043 C2049 1.390 . S
C2044 H2035 0.930 . S
C2044 C2042 1.384 . S
C2044 C2045 1.372 . S
C2045 C2044 1.372 . S
C2045 C2046 1.400 . S
C2045 C2050 1.490 . S
C2046 H2036 0.930 . S
C2046 C2045 1.400 . S
C2046 C2049 1.386 . S
H2047 C2063 0.930 . S
H2048 C2064 0.931 . S
C2049 H2037 0.929 . S
C2049 C2043 1.390 . S
C2049 C2046 1.386 . S
C2050 C2045 1.490 . S
C2050 C2052 1.395 . S
C2050 C2053 1.403 . S
H2051 C2057 0.930 . S
C2052 H2038 0.930 . S
C2052 C2050 1.395 . S
C2052 C2055 1.403 . S
C2053 C2050 1.403 . S
C2053 C2054 1.524 . S
C2053 C2057 1.400 . S
C2054 H2039 0.960 . S
C2054 H2040 0.960 . S
C2054 H2041 0.960 . S
C2054 C2053 1.524 . S
C2055 C2052 1.403 . S
C2055 C2056 1.392 . S
C2055 C2059 1.495 . S
C2056 C2055 1.392 . S
C2056 C2057 1.385 . S
C2056 C2058 1.478 . S
C2057 H2051 0.930 . S
C2057 C2053 1.400 . S
C2057 C2056 1.385 . S
C2058 C2056 1.478 . S
C2058 C2060 1.381 . S
C2058 C2064 1.383 . S
C2059 C2055 1.495 . S
C2059 H2065 0.959 . S
C2059 H2066 0.961 . S
C2059 H2067 0.960 . S
C2060 C2058 1.381 . S
C2060 C2061 1.394 . S
C2060 H2068 0.930 . S
C2061 C2060 1.394 . S
C2061 C2062 1.383 . S
C2061 H2069 0.929 . S
C2062 C2061 1.383 . S
C2062 C2063 1.377 . S
C2063 H2047 0.930 . S
C2063 C2062 1.377 . S
C2063 C2064 1.379 . S
C2064 H2048 0.931 . S
C2064 C2058 1.383 . S
C2064 C2063 1.379 . S
H2065 C2059 0.959 . S
H2066 C2059 0.961 . S
H2067 C2059 0.960 . S
H2068 C2060 0.930 . S
H2069 C2061 0.929 . S
H2070 C2078 0.929 . S
H2071 C2080 0.919 1_655 S
H2072 C2082 0.914 1_655 S
H2073 C2085 0.929 . S
H2074 C2088 0.930 . S
H2075 C2090 0.960 . S
H2076 C2090 0.960 . S
H2077 C2090 0.960 . S
C2078 H2070 0.929 . S
C2078 C2079 1.377 . S
C2078 C2080 1.425 . S
C2079 C2078 1.377 . S
C2079 C2085 1.390 . S
C2080 H2071 0.919 1_455 S
C2080 C2078 1.425 . S
C2080 C2081 1.345 1_455 S
C2081 C2080 1.345 1_655 S
C2081 C2082 1.400 1_655 S
C2081 C2086 1.490 . S
C2082 H2072 0.914 1_455 S
C2082 C2081 1.400 1_455 S
C2082 C2085 1.386 . S
H2083 C2099 0.930 . S
H2084 C2100 0.931 . S
C2085 H2073 0.929 . S
C2085 C2079 1.390 . S
C2085 C2082 1.386 . S
C2086 C2081 1.490 . S
C2086 C2088 1.395 . S
C2086 C2089 1.403 . S
H2087 C2093 0.930 . S
C2088 H2074 0.930 . S
C2088 C2086 1.395 . S
C2088 C2091 1.403 . S
C2089 C2086 1.403 . S
C2089 C2090 1.524 . S
C2089 C2093 1.400 . S
C2090 H2075 0.960 . S
C2090 H2076 0.960 . S
C2090 H2077 0.960 . S
C2090 C2089 1.524 . S
C2091 C2088 1.403 . S
C2091 C2092 1.392 . S
C2091 C2095 1.495 . S
C2092 C2091 1.392 . S
C2092 C2093 1.385 . S
C2092 C2094 1.478 . S
C2093 H2087 0.930 . S
C2093 C2089 1.400 . S
C2093 C2092 1.385 . S
C2094 C2092 1.478 . S
C2094 C2096 1.381 . S
C2094 C2100 1.383 . S
C2095 C2091 1.495 . S
C2095 H2101 0.959 . S
C2095 H2102 0.961 . S
C2095 H2103 0.960 . S
C2096 C2094 1.381 . S
C2096 C2097 1.394 . S
C2096 H2104 0.930 . S
C2097 C2096 1.394 . S
C2097 C2098 1.383 . S
C2097 H2105 0.929 . S
C2098 C2097 1.383 . S
C2098 C2099 1.377 . S
C2099 H2083 0.930 . S
C2099 C2098 1.377 . S
C2099 C2100 1.379 . S
C2100 H2084 0.931 . S
C2100 C2094 1.383 . S
C2100 C2099 1.379 . S
H2101 C2095 0.959 . S
H2102 C2095 0.961 . S
H2103 C2095 0.960 . S
H2104 C2096 0.930 . S
H2105 C2097 0.929 . S
H2106 C2114 0.929 . S
H2107 C2116 0.930 . S
H2108 C2118 0.930 . S
H2109 C2121 0.929 . S
H2110 C2124 0.930 . S
H2111 C2126 0.960 . S
H2112 C2126 0.960 . S
H2113 C2126 0.960 . S
C2114 H2106 0.929 . S
C2114 C2115 1.377 . S
C2114 C2116 1.384 . S
C2115 C2114 1.377 . S
C2115 C2121 1.390 . S
C2116 H2107 0.930 . S
C2116 C2114 1.384 . S
C2116 C2117 1.372 . S
C2117 C2116 1.372 . S
C2117 C2118 1.400 . S
C2117 C2122 1.490 . S
C2118 H2108 0.930 . S
C2118 C2117 1.400 . S
C2118 C2121 1.386 . S
H2119 C2135 0.930 . S
H2120 C2136 0.931 . S
C2121 H2109 0.929 . S
C2121 C2115 1.390 . S
C2121 C2118 1.386 . S
C2122 C2117 1.490 . S
C2122 C2124 1.395 . S
C2122 C2125 1.403 . S
H2123 C2129 0.930 . S
C2124 H2110 0.930 . S
C2124 C2122 1.395 . S
C2124 C2127 1.403 . S
C2125 C2122 1.403 . S
C2125 C2126 1.524 . S
C2125 C2129 1.400 . S
C2126 H2111 0.960 . S
C2126 H2112 0.960 . S
C2126 H2113 0.960 . S
C2126 C2125 1.524 . S
C2127 C2124 1.403 . S
C2127 C2128 1.392 . S
C2127 C2131 1.495 . S
C2128 C2127 1.392 . S
C2128 C2129 1.385 . S
C2128 C2130 1.478 . S
C2129 H2123 0.930 . S
C2129 C2125 1.400 . S
C2129 C2128 1.385 . S
C2130 C2128 1.478 . S
C2130 C2132 1.381 . S
C2130 C2136 1.383 . S
C2131 C2127 1.495 . S
C2131 H2137 0.959 . S
C2131 H2138 0.961 . S
C2131 H2139 0.960 . S
C2132 C2130 1.381 . S
C2132 C2133 1.394 . S
C2132 H2140 0.930 . S
C2133 C2132 1.394 . S
C2133 C2134 1.383 . S
C2133 H2141 0.929 . S
C2134 C2133 1.383 . S
C2134 C2135 1.377 . S
C2135 H2119 0.930 . S
C2135 C2134 1.377 . S
C2135 C2136 1.379 . S
C2136 H2120 0.931 . S
C2136 C2130 1.383 . S
C2136 C2135 1.379 . S
H2137 C2131 0.959 . S
H2138 C2131 0.961 . S
H2139 C2131 0.960 . S
H2140 C2132 0.930 . S
H2141 C2133 0.929 . S
H2142 C2150 0.929 . S
H2143 C2152 0.930 . S
H2144 C2154 0.930 1_545 S
H2145 C2157 0.929 . S
H2146 C2160 0.930 . S
H2147 C2162 0.960 . S
H2148 C2162 0.960 . S
H2149 C2162 0.960 . S
C2150 H2142 0.929 . S
C2150 C2151 1.377 . S
C2150 C2152 1.384 1_565 S
C2151 C2150 1.377 . S
C2151 C2157 1.390 . S
C2152 H2143 0.930 . S
C2152 C2150 1.384 1_545 S
C2152 C2153 1.372 . S
C2153 C2152 1.372 . S
C2153 C2154 1.400 1_545 S
C2153 C2158 1.490 . S
C2154 H2144 0.930 1_565 S
C2154 C2153 1.400 1_565 S
C2154 C2157 1.386 . S
H2155 C2171 0.930 . S
H2156 C2172 0.931 . S
C2157 H2145 0.929 . S
C2157 C2151 1.390 . S
C2157 C2154 1.386 . S
C2158 C2153 1.490 . S
C2158 C2160 1.395 . S
C2158 C2161 1.403 . S
H2159 C2165 0.930 . S
C2160 H2146 0.930 . S
C2160 C2158 1.395 . S
C2160 C2163 1.403 . S
C2161 C2158 1.403 . S
C2161 C2162 1.524 . S
C2161 C2165 1.400 . S
C2162 H2147 0.960 . S
C2162 H2148 0.960 . S
C2162 H2149 0.960 . S
C2162 C2161 1.524 . S
C2163 C2160 1.403 . S
C2163 C2164 1.392 . S
C2163 C2167 1.495 . S
C2164 C2163 1.392 . S
C2164 C2165 1.385 . S
C2164 C2166 1.478 . S
C2165 H2159 0.930 . S
C2165 C2161 1.400 . S
C2165 C2164 1.385 . S
C2166 C2164 1.478 . S
C2166 C2168 1.381 . S
C2166 C2172 1.383 . S
C2167 C2163 1.495 . S
C2167 H2173 0.959 . S
C2167 H2174 0.961 . S
C2167 H2175 0.960 . S
C2168 C2166 1.381 . S
C2168 C2169 1.394 . S
C2168 H2176 0.930 . S
C2169 C2168 1.394 . S
C2169 C2170 1.383 . S
C2169 H2177 0.929 . S
C2170 C2169 1.383 . S
C2170 C2171 1.377 . S
C2171 H2155 0.930 . S
C2171 C2170 1.377 . S
C2171 C2172 1.379 . S
C2172 H2156 0.931 . S
C2172 C2166 1.383 . S
C2172 C2171 1.379 . S
H2173 C2167 0.959 . S
H2174 C2167 0.961 . S
H2175 C2167 0.960 . S
H2176 C2168 0.930 . S
H2177 C2169 0.929 . S
H2178 C2186 0.929 . S
H2179 C2188 0.930 . S
H2180 C2190 0.930 . S
H2181 C2193 0.929 . S
H2182 C2196 0.930 . S
H2183 C2198 0.960 . S
H2184 C2198 0.960 . S
H2185 C2198 0.960 . S
C2186 H2178 0.929 . S
C2186 C2187 1.377 . S
C2186 C2188 1.384 . S
C2187 C2186 1.377 . S
C2187 C2193 1.390 . S
C2188 H2179 0.930 . S
C2188 C2186 1.384 . S
C2188 C2189 1.372 . S
C2189 C2188 1.372 . S
C2189 C2190 1.400 . S
C2189 C2194 1.490 . S
C2190 H2180 0.930 . S
C2190 C2189 1.400 . S
C2190 C2193 1.386 . S
H2191 C2207 0.930 . S
H2192 C2208 0.931 . S
C2193 H2181 0.929 . S
C2193 C2187 1.390 . S
C2193 C2190 1.386 . S
C2194 C2189 1.490 . S
C2194 C2196 1.395 . S
C2194 C2197 1.403 . S
H2195 C2201 0.930 . S
C2196 H2182 0.930 . S
C2196 C2194 1.395 . S
C2196 C2199 1.403 . S
C2197 C2194 1.403 . S
C2197 C2198 1.524 . S
C2197 C2201 1.400 . S
C2198 H2183 0.960 . S
C2198 H2184 0.960 . S
C2198 H2185 0.960 . S
C2198 C2197 1.524 . S
C2199 C2196 1.403 . S
C2199 C2200 1.392 . S
C2199 C2203 1.495 . S
C2200 C2199 1.392 . S
C2200 C2201 1.385 . S
C2200 C2202 1.478 . S
C2201 H2195 0.930 . S
C2201 C2197 1.400 . S
C2201 C2200 1.385 . S
C2202 C2200 1.478 . S
C2202 C2204 1.381 . S
C2202 C2208 1.383 . S
C2203 C2199 1.495 . S
C2203 H2209 0.959 . S
C2203 H2210 0.961 . S
C2203 H2211 0.960 . S
C2204 C2202 1.381 . S
C2204 C2205 1.394 . S
C2204 H2212 0.930 . S
C2205 C2204 1.394 . S
C2205 C2206 1.383 . S
C2205 H2213 0.929 . S
C2206 C2205 1.383 . S
C2206 C2207 1.377 . S
C2207 H2191 0.930 . S
C2207 C2206 1.377 . S
C2207 C2208 1.379 . S
C2208 H2192 0.931 . S
C2208 C2202 1.383 . S
C2208 C2207 1.379 . S
H2209 C2203 0.959 . S
H2210 C2203 0.961 . S
H2211 C2203 0.960 . S
H2212 C2204 0.930 . S
H2213 C2205 0.929 . S
H2214 C2222 0.929 . S
H2215 C2224 0.930 . S
H2216 C2226 0.930 . S
H2217 C2229 0.929 . S
H2218 C2232 0.930 . S
H2219 C2234 0.960 . S
H2220 C2234 0.960 . S
H2221 C2234 0.960 . S
C2222 H2214 0.929 . S
C2222 C2223 1.377 . S
C2222 C2224 1.384 . S
C2223 C2222 1.377 . S
C2223 C2229 1.390 . S
C2224 H2215 0.930 . S
C2224 C2222 1.384 . S
C2224 C2225 1.372 . S
C2225 C2224 1.372 . S
C2225 C2226 1.400 . S
C2225 C2230 1.490 . S
C2226 H2216 0.930 . S
C2226 C2225 1.400 . S
C2226 C2229 1.386 . S
H2227 C2243 0.930 . S
H2228 C2244 0.931 . S
C2229 H2217 0.929 . S
C2229 C2223 1.390 . S
C2229 C2226 1.386 . S
C2230 C2225 1.490 . S
C2230 C2232 1.395 . S
C2230 C2233 1.403 . S
H2231 C2237 0.930 . S
C2232 H2218 0.930 . S
C2232 C2230 1.395 . S
C2232 C2235 1.403 . S
C2233 C2230 1.403 . S
C2233 C2234 1.524 . S
C2233 C2237 1.400 . S
C2234 H2219 0.960 . S
C2234 H2220 0.960 . S
C2234 H2221 0.960 . S
C2234 C2233 1.524 . S
C2235 C2232 1.403 . S
C2235 C2236 1.392 . S
C2235 C2239 1.495 . S
C2236 C2235 1.392 . S
C2236 C2237 1.385 . S
C2236 C2238 1.478 . S
C2237 H2231 0.930 . S
C2237 C2233 1.400 . S
C2237 C2236 1.385 . S
C2238 C2236 1.478 . S
C2238 C2240 1.381 . S
C2238 C2244 1.383 . S
C2239 C2235 1.495 . S
C2239 H2245 0.959 . S
C2239 H2246 0.961 . S
C2239 H2247 0.960 . S
C2240 C2238 1.381 . S
C2240 C2241 1.394 . S
C2240 H2248 0.930 . S
C2241 C2240 1.394 . S
C2241 C2242 1.383 . S
C2241 H2249 0.929 . S
C2242 C2241 1.383 . S
C2242 C2243 1.377 . S
C2243 H2227 0.930 . S
C2243 C2242 1.377 . S
C2243 C2244 1.379 . S
C2244 H2228 0.931 . S
C2244 C2238 1.383 . S
C2244 C2243 1.379 . S
H2245 C2239 0.959 . S
H2246 C2239 0.961 . S
H2247 C2239 0.960 . S
H2248 C2240 0.930 . S
H2249 C2241 0.929 . S
H2250 C2258 0.929 . S
H2251 C2260 0.930 . S
H2252 C2262 0.930 . S
H2253 C2265 0.929 . S
H2254 C2268 0.930 . S
H2255 C2270 0.960 . S
H2256 C2270 0.960 . S
H2257 C2270 0.960 . S
C2258 H2250 0.929 . S
C2258 C2259 1.377 . S
C2258 C2260 1.384 . S
C2259 C2258 1.377 . S
C2259 C2265 1.390 . S
C2260 H2251 0.930 . S
C2260 C2258 1.384 . S
C2260 C2261 1.372 . S
C2261 C2260 1.372 . S
C2261 C2262 1.400 . S
C2261 C2266 1.490 . S
C2262 H2252 0.930 . S
C2262 C2261 1.400 . S
C2262 C2265 1.386 . S
H2263 C2279 0.930 . S
H2264 C2280 0.931 . S
C2265 H2253 0.929 . S
C2265 C2259 1.390 . S
C2265 C2262 1.386 . S
C2266 C2261 1.490 . S
C2266 C2268 1.395 . S
C2266 C2269 1.403 . S
H2267 C2273 0.930 . S
C2268 H2254 0.930 . S
C2268 C2266 1.395 . S
C2268 C2271 1.403 . S
C2269 C2266 1.403 . S
C2269 C2270 1.524 . S
C2269 C2273 1.400 . S
C2270 H2255 0.960 . S
C2270 H2256 0.960 . S
C2270 H2257 0.960 . S
C2270 C2269 1.524 . S
C2271 C2268 1.403 . S
C2271 C2272 1.392 . S
C2271 C2275 1.495 . S
C2272 C2271 1.392 . S
C2272 C2273 1.385 . S
C2272 C2274 1.478 . S
C2273 H2267 0.930 . S
C2273 C2269 1.400 . S
C2273 C2272 1.385 . S
C2274 C2272 1.478 . S
C2274 C2276 1.381 . S
C2274 C2280 1.383 . S
C2275 C2271 1.495 . S
C2275 H2281 0.959 . S
C2275 H2282 0.961 . S
C2275 H2283 0.960 . S
C2276 C2274 1.381 . S
C2276 C2277 1.394 . S
C2276 H2284 0.930 . S
C2277 C2276 1.394 . S
C2277 C2278 1.383 . S
C2277 H2285 0.929 . S
C2278 C2277 1.383 . S
C2278 C2279 1.377 . S
C2279 H2263 0.930 . S
C2279 C2278 1.377 . S
C2279 C2280 1.379 . S
C2280 H2264 0.931 . S
C2280 C2274 1.383 . S
C2280 C2279 1.379 . S
H2281 C2275 0.959 . S
H2282 C2275 0.961 . S
H2283 C2275 0.960 . S
H2284 C2276 0.930 . S
H2285 C2277 0.929 . S
H2286 C2294 0.929 . S
H2287 C2296 0.930 . S
H2288 C2298 0.930 . S
H2289 C2301 0.929 . S
H2290 C2304 0.930 . S
H2291 C2306 0.960 . S
H2292 C2306 0.960 . S
H2293 C2306 0.960 . S
C2294 H2286 0.929 . S
C2294 C2295 1.377 . S
C2294 C2296 1.384 . S
C2295 C2294 1.377 . S
C2295 C2301 1.390 . S
C2296 H2287 0.930 . S
C2296 C2294 1.384 . S
C2296 C2297 1.372 . S
C2297 C2296 1.372 . S
C2297 C2298 1.400 . S
C2297 C2302 1.490 . S
C2298 H2288 0.930 . S
C2298 C2297 1.400 . S
C2298 C2301 1.386 . S
H2299 C2315 0.930 . S
H2300 C2316 0.931 . S
C2301 H2289 0.929 . S
C2301 C2295 1.390 . S
C2301 C2298 1.386 . S
C2302 C2297 1.490 . S
C2302 C2304 1.395 . S
C2302 C2305 1.403 . S
H2303 C2309 0.930 . S
C2304 H2290 0.930 . S
C2304 C2302 1.395 . S
C2304 C2307 1.403 . S
C2305 C2302 1.403 . S
C2305 C2306 1.524 . S
C2305 C2309 1.400 . S
C2306 H2291 0.960 . S
C2306 H2292 0.960 . S
C2306 H2293 0.960 . S
C2306 C2305 1.524 . S
C2307 C2304 1.403 . S
C2307 C2308 1.392 . S
C2307 C2311 1.495 . S
C2308 C2307 1.392 . S
C2308 C2309 1.385 . S
C2308 C2310 1.478 . S
C2309 H2303 0.930 . S
C2309 C2305 1.400 . S
C2309 C2308 1.385 . S
C2310 C2308 1.478 . S
C2310 C2312 1.381 . S
C2310 C2316 1.383 . S
C2311 C2307 1.495 . S
C2311 H2317 0.959 . S
C2311 H2318 0.961 . S
C2311 H2319 0.960 . S
C2312 C2310 1.381 . S
C2312 C2313 1.394 . S
C2312 H2320 0.930 . S
C2313 C2312 1.394 . S
C2313 C2314 1.383 . S
C2313 H2321 0.929 . S
C2314 C2313 1.383 . S
C2314 C2315 1.377 . S
C2315 H2299 0.930 . S
C2315 C2314 1.377 . S
C2315 C2316 1.379 . S
C2316 H2300 0.931 . S
C2316 C2310 1.383 . S
C2316 C2315 1.379 . S
H2317 C2311 0.959 . S
H2318 C2311 0.961 . S
H2319 C2311 0.960 . S
H2320 C2312 0.930 . S
H2321 C2313 0.929 . S
H2322 C2330 0.929 . S
H2323 C2332 0.930 . S
H2324 C2334 0.930 . S
H2325 C2337 0.929 . S
H2326 C2340 0.930 . S
H2327 C2342 0.960 . S
H2328 C2342 0.960 . S
H2329 C2342 0.960 . S
C2330 H2322 0.929 . S
C2330 C2331 1.377 . S
C2330 C2332 1.384 . S
C2331 C2330 1.377 . S
C2331 C2337 1.390 . S
C2332 H2323 0.930 . S
C2332 C2330 1.384 . S
C2332 C2333 1.372 . S
C2333 C2332 1.372 . S
C2333 C2334 1.400 . S
C2333 C2338 1.490 . S
C2334 H2324 0.930 . S
C2334 C2333 1.400 . S
C2334 C2337 1.386 . S
H2335 C2351 0.930 . S
H2336 C2352 0.931 . S
C2337 H2325 0.929 . S
C2337 C2331 1.390 . S
C2337 C2334 1.386 . S
C2338 C2333 1.490 . S
C2338 C2340 1.395 . S
C2338 C2341 1.403 . S
H2339 C2345 0.930 . S
C2340 H2326 0.930 . S
C2340 C2338 1.395 . S
C2340 C2343 1.403 . S
C2341 C2338 1.403 . S
C2341 C2342 1.524 . S
C2341 C2345 1.400 . S
C2342 H2327 0.960 . S
C2342 H2328 0.960 . S
C2342 H2329 0.960 . S
C2342 C2341 1.524 . S
C2343 C2340 1.403 . S
C2343 C2344 1.392 . S
C2343 C2347 1.495 . S
C2344 C2343 1.392 . S
C2344 C2345 1.385 . S
C2344 C2346 1.478 . S
C2345 H2339 0.930 . S
C2345 C2341 1.400 . S
C2345 C2344 1.385 . S
C2346 C2344 1.478 . S
C2346 C2348 1.381 . S
C2346 C2352 1.383 . S
C2347 C2343 1.495 . S
C2347 H2353 0.959 . S
C2347 H2354 0.961 . S
C2347 H2355 0.960 . S
C2348 C2346 1.381 . S
C2348 C2349 1.394 . S
C2348 H2356 0.930 . S
C2349 C2348 1.394 . S
C2349 C2350 1.383 . S
C2349 H2357 0.929 . S
C2350 C2349 1.383 . S
C2350 C2351 1.377 . S
C2351 H2335 0.930 . S
C2351 C2350 1.377 . S
C2351 C2352 1.379 . S
C2352 H2336 0.931 . S
C2352 C2346 1.383 . S
C2352 C2351 1.379 . S
H2353 C2347 0.959 . S
H2354 C2347 0.961 . S
H2355 C2347 0.960 . S
H2356 C2348 0.930 . S
H2357 C2349 0.929 . S
H2358 C2366 0.929 . S
H2359 C2368 0.930 . S
H2360 C2370 0.930 . S
H2361 C2373 0.929 . S
H2362 C2376 0.930 . S
H2363 C2378 0.960 . S
H2364 C2378 0.960 . S
H2365 C2378 0.960 . S
C2366 H2358 0.929 . S
C2366 C2367 1.377 . S
C2366 C2368 1.384 . S
C2367 C2366 1.377 . S
C2367 C2373 1.390 . S
C2368 H2359 0.930 . S
C2368 C2366 1.384 . S
C2368 C2369 1.372 . S
C2369 C2368 1.372 . S
C2369 C2370 1.400 . S
C2369 C2374 1.490 . S
C2370 H2360 0.930 . S
C2370 C2369 1.400 . S
C2370 C2373 1.386 . S
H2371 C2387 0.930 . S
H2372 C2388 0.931 . S
C2373 H2361 0.929 . S
C2373 C2367 1.390 . S
C2373 C2370 1.386 . S
C2374 C2369 1.490 . S
C2374 C2376 1.395 . S
C2374 C2377 1.403 . S
H2375 C2381 0.930 . S
C2376 H2362 0.930 . S
C2376 C2374 1.395 . S
C2376 C2379 1.403 . S
C2377 C2374 1.403 . S
C2377 C2378 1.524 . S
C2377 C2381 1.400 . S
C2378 H2363 0.960 . S
C2378 H2364 0.960 . S
C2378 H2365 0.960 . S
C2378 C2377 1.524 . S
C2379 C2376 1.403 . S
C2379 C2380 1.392 . S
C2379 C2383 1.495 . S
C2380 C2379 1.392 . S
C2380 C2381 1.385 . S
C2380 C2382 1.478 . S
C2381 H2375 0.930 . S
C2381 C2377 1.400 . S
C2381 C2380 1.385 . S
C2382 C2380 1.478 . S
C2382 C2384 1.381 . S
C2382 C2388 1.383 . S
C2383 C2379 1.495 . S
C2383 H2389 0.959 . S
C2383 H2390 0.961 . S
C2383 H2391 0.960 . S
C2384 C2382 1.381 . S
C2384 C2385 1.394 . S
C2384 H2392 0.930 . S
C2385 C2384 1.394 . S
C2385 C2386 1.383 . S
C2385 H2393 0.929 . S
C2386 C2385 1.383 . S
C2386 C2387 1.377 . S
C2387 H2371 0.930 . S
C2387 C2386 1.377 . S
C2387 C2388 1.379 . S
C2388 H2372 0.931 . S
C2388 C2382 1.383 . S
C2388 C2387 1.379 . S
H2389 C2383 0.959 . S
H2390 C2383 0.961 . S
H2391 C2383 0.960 . S
H2392 C2384 0.930 . S
H2393 C2385 0.929 . S
H2394 C2402 0.929 . S
H2395 C2404 0.930 . S
H2396 C2406 0.930 . S
H2397 C2409 0.929 . S
H2398 C2412 0.930 . S
H2399 C2414 0.960 . S
H2400 C2414 0.960 . S
H2401 C2414 0.960 . S
C2402 H2394 0.929 . S
C2402 C2403 1.377 . S
C2402 C2404 1.384 . S
C2403 C2402 1.377 . S
C2403 C2409 1.390 . S
C2404 H2395 0.930 . S
C2404 C2402 1.384 . S
C2404 C2405 1.372 . S
C2405 C2404 1.372 . S
C2405 C2406 1.400 . S
C2405 C2410 1.490 . S
C2406 H2396 0.930 . S
C2406 C2405 1.400 . S
C2406 C2409 1.386 . S
H2407 C2423 0.930 . S
H2408 C2424 0.931 . S
C2409 H2397 0.929 . S
C2409 C2403 1.390 . S
C2409 C2406 1.386 . S
C2410 C2405 1.490 . S
C2410 C2412 1.395 . S
C2410 C2413 1.403 . S
H2411 C2417 0.930 . S
C2412 H2398 0.930 . S
C2412 C2410 1.395 . S
C2412 C2415 1.403 . S
C2413 C2410 1.403 . S
C2413 C2414 1.524 . S
C2413 C2417 1.400 . S
C2414 H2399 0.960 . S
C2414 H2400 0.960 . S
C2414 H2401 0.960 . S
C2414 C2413 1.524 . S
C2415 C2412 1.403 . S
C2415 C2416 1.392 . S
C2415 C2419 1.495 . S
C2416 C2415 1.392 . S
C2416 C2417 1.385 . S
C2416 C2418 1.478 . S
C2417 H2411 0.930 . S
C2417 C2413 1.400 . S
C2417 C2416 1.385 . S
C2418 C2416 1.478 . S
C2418 C2420 1.381 . S
C2418 C2424 1.383 . S
C2419 C2415 1.495 . S
C2419 H2425 0.959 . S
C2419 H2426 0.961 . S
C2419 H2427 0.960 . S
C2420 C2418 1.381 . S
C2420 C2421 1.394 . S
C2420 H2428 0.930 . S
C2421 C2420 1.394 . S
C2421 C2422 1.383 . S
C2421 H2429 0.929 . S
C2422 C2421 1.383 . S
C2422 C2423 1.377 . S
C2423 H2407 0.930 . S
C2423 C2422 1.377 . S
C2423 C2424 1.379 . S
C2424 H2408 0.931 . S
C2424 C2418 1.383 . S
C2424 C2423 1.379 . S
H2425 C2419 0.959 . S
H2426 C2419 0.961 . S
H2427 C2419 0.960 . S
H2428 C2420 0.930 . S
H2429 C2421 0.929 . S
H2430 C2438 0.929 . S
H2431 C2440 0.930 . S
H2432 C2442 0.930 . S
H2433 C2445 0.929 . S
H2434 C2448 0.930 . S
H2435 C2450 0.960 . S
H2436 C2450 0.960 . S
H2437 C2450 0.960 . S
C2438 H2430 0.929 . S
C2438 C2439 1.377 . S
C2438 C2440 1.384 . S
C2439 C2438 1.377 . S
C2439 C2445 1.390 . S
C2440 H2431 0.930 . S
C2440 C2438 1.384 . S
C2440 C2441 1.372 . S
C2441 C2440 1.372 . S
C2441 C2442 1.400 . S
C2441 C2446 1.490 . S
C2442 H2432 0.930 . S
C2442 C2441 1.400 . S
C2442 C2445 1.386 . S
H2443 C2459 0.930 . S
H2444 C2460 0.931 . S
C2445 H2433 0.929 . S
C2445 C2439 1.390 . S
C2445 C2442 1.386 . S
C2446 C2441 1.490 . S
C2446 C2448 1.395 . S
C2446 C2449 1.403 . S
H2447 C2453 0.930 . S
C2448 H2434 0.930 . S
C2448 C2446 1.395 . S
C2448 C2451 1.403 . S
C2449 C2446 1.403 . S
C2449 C2450 1.524 . S
C2449 C2453 1.400 . S
C2450 H2435 0.960 . S
C2450 H2436 0.960 . S
C2450 H2437 0.960 . S
C2450 C2449 1.524 . S
C2451 C2448 1.403 . S
C2451 C2452 1.392 . S
C2451 C2455 1.495 . S
C2452 C2451 1.392 . S
C2452 C2453 1.385 . S
C2452 C2454 1.478 . S
C2453 H2447 0.930 . S
C2453 C2449 1.400 . S
C2453 C2452 1.385 . S
C2454 C2452 1.478 . S
C2454 C2456 1.381 . S
C2454 C2460 1.383 . S
C2455 C2451 1.495 . S
C2455 H2461 0.959 . S
C2455 H2462 0.961 . S
C2455 H2463 0.960 . S
C2456 C2454 1.381 . S
C2456 C2457 1.394 . S
C2456 H2464 0.930 . S
C2457 C2456 1.394 . S
C2457 C2458 1.383 . S
C2457 H2465 0.929 . S
C2458 C2457 1.383 . S
C2458 C2459 1.377 . S
C2459 H2443 0.930 . S
C2459 C2458 1.377 . S
C2459 C2460 1.379 . S
C2460 H2444 0.931 . S
C2460 C2454 1.383 . S
C2460 C2459 1.379 . S
H2461 C2455 0.959 . S
H2462 C2455 0.961 . S
H2463 C2455 0.960 . S
H2464 C2456 0.930 . S
H2465 C2457 0.929 . S
H2466 C2474 0.929 . S
H2467 C2476 0.930 . S
H2468 C2478 0.930 . S
H2469 C2481 0.929 . S
H2470 C2484 0.930 . S
H2471 C2486 0.960 . S
H2472 C2486 0.960 . S
H2473 C2486 0.960 . S
C2474 H2466 0.929 . S
C2474 C2475 1.377 . S
C2474 C2476 1.384 . S
C2475 C2474 1.377 . S
C2475 C2481 1.390 . S
C2476 H2467 0.930 . S
C2476 C2474 1.384 . S
C2476 C2477 1.372 . S
C2477 C2476 1.372 . S
C2477 C2478 1.400 . S
C2477 C2482 1.490 . S
C2478 H2468 0.930 . S
C2478 C2477 1.400 . S
C2478 C2481 1.386 . S
H2479 C2495 0.930 . S
H2480 C2496 0.931 . S
C2481 H2469 0.929 . S
C2481 C2475 1.390 . S
C2481 C2478 1.386 . S
C2482 C2477 1.490 . S
C2482 C2484 1.395 . S
C2482 C2485 1.403 . S
H2483 C2489 0.930 . S
C2484 H2470 0.930 . S
C2484 C2482 1.395 . S
C2484 C2487 1.403 . S
C2485 C2482 1.403 . S
C2485 C2486 1.524 . S
C2485 C2489 1.400 . S
C2486 H2471 0.960 . S
C2486 H2472 0.960 . S
C2486 H2473 0.960 . S
C2486 C2485 1.524 . S
C2487 C2484 1.403 . S
C2487 C2488 1.392 . S
C2487 C2491 1.495 . S
C2488 C2487 1.392 . S
C2488 C2489 1.385 . S
C2488 C2490 1.478 . S
C2489 H2483 0.930 . S
C2489 C2485 1.400 . S
C2489 C2488 1.385 . S
C2490 C2488 1.478 . S
C2490 C2492 1.381 . S
C2490 C2496 1.383 . S
C2491 C2487 1.495 . S
C2491 H2497 0.959 . S
C2491 H2498 0.961 . S
C2491 H2499 0.960 . S
C2492 C2490 1.381 . S
C2492 C2493 1.394 . S
C2492 H2500 0.930 . S
C2493 C2492 1.394 . S
C2493 C2494 1.383 . S
C2493 H2501 0.929 . S
C2494 C2493 1.383 . S
C2494 C2495 1.377 . S
C2495 H2479 0.930 . S
C2495 C2494 1.377 . S
C2495 C2496 1.379 . S
C2496 H2480 0.931 . S
C2496 C2490 1.383 . S
C2496 C2495 1.379 . S
H2497 C2491 0.959 . S
H2498 C2491 0.961 . S
H2499 C2491 0.960 . S
H2500 C2492 0.930 . S
H2501 C2493 0.929 . S
H2502 C2510 0.929 . S
H2503 C2512 0.930 . S
H2504 C2514 0.930 . S
H2505 C2517 0.929 . S
H2506 C2520 0.930 . S
H2507 C2522 0.960 . S
H2508 C2522 0.960 . S
H2509 C2522 0.960 . S
C2510 H2502 0.929 . S
C2510 C2511 1.377 . S
C2510 C2512 1.384 . S
C2511 C2510 1.377 . S
C2511 C2517 1.390 . S
C2512 H2503 0.930 . S
C2512 C2510 1.384 . S
C2512 C2513 1.372 . S
C2513 C2512 1.372 . S
C2513 C2514 1.400 . S
C2513 C2518 1.490 . S
C2514 H2504 0.930 . S
C2514 C2513 1.400 . S
C2514 C2517 1.386 . S
H2515 C2531 0.930 . S
H2516 C2532 0.931 . S
C2517 H2505 0.929 . S
C2517 C2511 1.390 . S
C2517 C2514 1.386 . S
C2518 C2513 1.490 . S
C2518 C2520 1.395 . S
C2518 C2521 1.403 . S
H2519 C2525 0.930 . S
C2520 H2506 0.930 . S
C2520 C2518 1.395 . S
C2520 C2523 1.403 . S
C2521 C2518 1.403 . S
C2521 C2522 1.524 . S
C2521 C2525 1.400 . S
C2522 H2507 0.960 . S
C2522 H2508 0.960 . S
C2522 H2509 0.960 . S
C2522 C2521 1.524 . S
C2523 C2520 1.403 . S
C2523 C2524 1.392 . S
C2523 C2527 1.495 . S
C2524 C2523 1.392 . S
C2524 C2525 1.385 . S
C2524 C2526 1.478 . S
C2525 H2519 0.930 . S
C2525 C2521 1.400 . S
C2525 C2524 1.385 . S
C2526 C2524 1.478 . S
C2526 C2528 1.381 . S
C2526 C2532 1.383 . S
C2527 C2523 1.495 . S
C2527 H2533 0.959 . S
C2527 H2534 0.961 . S
C2527 H2535 0.960 . S
C2528 C2526 1.381 . S
C2528 C2529 1.394 . S
C2528 H2536 0.930 . S
C2529 C2528 1.394 . S
C2529 C2530 1.383 . S
C2529 H2537 0.929 . S
C2530 C2529 1.383 . S
C2530 C2531 1.377 . S
C2531 H2515 0.930 . S
C2531 C2530 1.377 . S
C2531 C2532 1.379 . S
C2532 H2516 0.931 . S
C2532 C2526 1.383 . S
C2532 C2531 1.379 . S
H2533 C2527 0.959 . S
H2534 C2527 0.961 . S
H2535 C2527 0.960 . S
H2536 C2528 0.930 . S
H2537 C2529 0.929 . S
H2538 C2546 0.929 . S
H2539 C2548 0.930 . S
H2540 C2550 0.930 . S
H2541 C2553 0.929 . S
H2542 C2556 0.930 . S
H2543 C2558 0.960 . S
H2544 C2558 0.960 . S
H2545 C2558 0.960 . S
C2546 H2538 0.929 . S
C2546 C2547 1.377 . S
C2546 C2548 1.384 . S
C2547 C2546 1.377 . S
C2547 C2553 1.390 . S
C2548 H2539 0.930 . S
C2548 C2546 1.384 . S
C2548 C2549 1.372 . S
C2549 C2548 1.372 . S
C2549 C2550 1.400 . S
C2549 C2554 1.490 . S
C2550 H2540 0.930 . S
C2550 C2549 1.400 . S
C2550 C2553 1.386 . S
H2551 C2567 0.930 . S
H2552 C2568 0.931 . S
C2553 H2541 0.929 . S
C2553 C2547 1.390 . S
C2553 C2550 1.386 . S
C2554 C2549 1.490 . S
C2554 C2556 1.395 . S
C2554 C2557 1.403 . S
H2555 C2561 0.930 . S
C2556 H2542 0.930 . S
C2556 C2554 1.395 . S
C2556 C2559 1.403 . S
C2557 C2554 1.403 . S
C2557 C2558 1.524 . S
C2557 C2561 1.400 . S
C2558 H2543 0.960 . S
C2558 H2544 0.960 . S
C2558 H2545 0.960 . S
C2558 C2557 1.524 . S
C2559 C2556 1.403 . S
C2559 C2560 1.392 . S
C2559 C2563 1.495 . S
C2560 C2559 1.392 . S
C2560 C2561 1.385 . S
C2560 C2562 1.478 . S
C2561 H2555 0.930 . S
C2561 C2557 1.400 . S
C2561 C2560 1.385 . S
C2562 C2560 1.478 . S
C2562 C2564 1.381 . S
C2562 C2568 1.383 . S
C2563 C2559 1.495 . S
C2563 H2569 0.959 . S
C2563 H2570 0.961 . S
C2563 H2571 0.960 . S
C2564 C2562 1.381 . S
C2564 C2565 1.394 . S
C2564 H2572 0.930 . S
C2565 C2564 1.394 . S
C2565 C2566 1.383 . S
C2565 H2573 0.929 . S
C2566 C2565 1.383 . S
C2566 C2567 1.377 . S
C2567 H2551 0.930 . S
C2567 C2566 1.377 . S
C2567 C2568 1.379 . S
C2568 H2552 0.931 . S
C2568 C2562 1.383 . S
C2568 C2567 1.379 . S
H2569 C2563 0.959 . S
H2570 C2563 0.961 . S
H2571 C2563 0.960 . S
H2572 C2564 0.930 . S
H2573 C2565 0.929 . S
H2574 C2582 0.929 . S
H2575 C2584 0.930 . S
H2576 C2586 0.930 . S
H2577 C2589 0.929 . S
H2578 C2592 0.930 . S
H2579 C2594 0.960 . S
H2580 C2594 0.960 . S
H2581 C2594 0.960 . S
C2582 H2574 0.929 . S
C2582 C2583 1.377 . S
C2582 C2584 1.384 . S
C2583 C2582 1.377 . S
C2583 C2589 1.390 . S
C2584 H2575 0.930 . S
C2584 C2582 1.384 . S
C2584 C2585 1.372 . S
C2585 C2584 1.372 . S
C2585 C2586 1.400 . S
C2585 C2590 1.490 . S
C2586 H2576 0.930 . S
C2586 C2585 1.400 . S
C2586 C2589 1.386 . S
H2587 C2603 0.930 . S
H2588 C2604 0.931 . S
C2589 H2577 0.929 . S
C2589 C2583 1.390 . S
C2589 C2586 1.386 . S
C2590 C2585 1.490 . S
C2590 C2592 1.395 . S
C2590 C2593 1.403 . S
H2591 C2597 0.930 . S
C2592 H2578 0.930 . S
C2592 C2590 1.395 . S
C2592 C2595 1.403 . S
C2593 C2590 1.403 . S
C2593 C2594 1.524 . S
C2593 C2597 1.400 . S
C2594 H2579 0.960 . S
C2594 H2580 0.960 . S
C2594 H2581 0.960 . S
C2594 C2593 1.524 . S
C2595 C2592 1.403 . S
C2595 C2596 1.392 . S
C2595 C2599 1.495 . S
C2596 C2595 1.392 . S
C2596 C2597 1.385 . S
C2596 C2598 1.478 . S
C2597 H2591 0.930 . S
C2597 C2593 1.400 . S
C2597 C2596 1.385 . S
C2598 C2596 1.478 . S
C2598 C2600 1.381 . S
C2598 C2604 1.383 . S
C2599 C2595 1.495 . S
C2599 H2605 0.959 . S
C2599 H2606 0.961 . S
C2599 H2607 0.960 . S
C2600 C2598 1.381 . S
C2600 C2601 1.394 . S
C2600 H2608 0.930 . S
C2601 C2600 1.394 . S
C2601 C2602 1.383 . S
C2601 H2609 0.929 . S
C2602 C2601 1.383 . S
C2602 C2603 1.377 . S
C2603 H2587 0.930 . S
C2603 C2602 1.377 . S
C2603 C2604 1.379 . S
C2604 H2588 0.931 . S
C2604 C2598 1.383 . S
C2604 C2603 1.379 . S
H2605 C2599 0.959 . S
H2606 C2599 0.961 . S
H2607 C2599 0.960 . S
H2608 C2600 0.930 . S
H2609 C2601 0.929 . S
H2610 C2618 0.929 . S
H2611 C2620 0.930 . S
H2612 C2622 0.930 . S
H2613 C2625 0.929 . S
H2614 C2628 0.930 . S
H2615 C2630 0.960 . S
H2616 C2630 0.960 . S
H2617 C2630 0.960 . S
C2618 H2610 0.929 . S
C2618 C2619 1.377 . S
C2618 C2620 1.384 . S
C2619 C2618 1.377 . S
C2619 C2625 1.390 . S
C2620 H2611 0.930 . S
C2620 C2618 1.384 . S
C2620 C2621 1.372 . S
C2621 C2620 1.372 . S
C2621 C2622 1.400 . S
C2621 C2626 1.490 . S
C2622 H2612 0.930 . S
C2622 C2621 1.400 . S
C2622 C2625 1.386 . S
H2623 C2639 0.930 . S
H2624 C2640 0.931 . S
C2625 H2613 0.929 . S
C2625 C2619 1.390 . S
C2625 C2622 1.386 . S
C2626 C2621 1.490 . S
C2626 C2628 1.395 . S
C2626 C2629 1.403 . S
H2627 C2633 0.930 . S
C2628 H2614 0.930 . S
C2628 C2626 1.395 . S
C2628 C2631 1.403 . S
C2629 C2626 1.403 . S
C2629 C2630 1.524 . S
C2629 C2633 1.400 . S
C2630 H2615 0.960 . S
C2630 H2616 0.960 . S
C2630 H2617 0.960 . S
C2630 C2629 1.524 . S
C2631 C2628 1.403 . S
C2631 C2632 1.392 . S
C2631 C2635 1.495 . S
C2632 C2631 1.392 . S
C2632 C2633 1.385 . S
C2632 C2634 1.478 . S
C2633 H2627 0.930 . S
C2633 C2629 1.400 . S
C2633 C2632 1.385 . S
C2634 C2632 1.478 . S
C2634 C2636 1.381 . S
C2634 C2640 1.383 . S
C2635 C2631 1.495 . S
C2635 H2641 0.959 . S
C2635 H2642 0.961 . S
C2635 H2643 0.960 . S
C2636 C2634 1.381 . S
C2636 C2637 1.394 . S
C2636 H2644 0.930 . S
C2637 C2636 1.394 . S
C2637 C2638 1.383 . S
C2637 H2645 0.929 . S
C2638 C2637 1.383 . S
C2638 C2639 1.377 . S
C2639 H2623 0.930 . S
C2639 C2638 1.377 . S
C2639 C2640 1.379 . S
C2640 H2624 0.931 . S
C2640 C2634 1.383 . S
C2640 C2639 1.379 . S
H2641 C2635 0.959 . S
H2642 C2635 0.961 . S
H2643 C2635 0.960 . S
H2644 C2636 0.930 . S
H2645 C2637 0.929 . S
H2646 C2654 0.929 . S
H2647 C2656 0.930 . S
H2648 C2658 0.930 . S
H2649 C2661 0.929 . S
H2650 C2664 0.930 . S
H2651 C2666 0.960 . S
H2652 C2666 0.960 . S
H2653 C2666 0.960 . S
C2654 H2646 0.929 . S
C2654 C2655 1.377 . S
C2654 C2656 1.384 . S
C2655 C2654 1.377 . S
C2655 C2661 1.390 . S
C2656 H2647 0.930 . S
C2656 C2654 1.384 . S
C2656 C2657 1.372 . S
C2657 C2656 1.372 . S
C2657 C2658 1.400 . S
C2657 C2662 1.490 . S
C2658 H2648 0.930 . S
C2658 C2657 1.400 . S
C2658 C2661 1.386 . S
H2659 C2675 0.930 . S
H2660 C2676 0.931 . S
C2661 H2649 0.929 . S
C2661 C2655 1.390 . S
C2661 C2658 1.386 . S
C2662 C2657 1.490 . S
C2662 C2664 1.395 . S
C2662 C2665 1.403 . S
H2663 C2669 0.930 . S
C2664 H2650 0.930 . S
C2664 C2662 1.395 . S
C2664 C2667 1.403 . S
C2665 C2662 1.403 . S
C2665 C2666 1.524 . S
C2665 C2669 1.400 . S
C2666 H2651 0.960 . S
C2666 H2652 0.960 . S
C2666 H2653 0.960 . S
C2666 C2665 1.524 . S
C2667 C2664 1.403 . S
C2667 C2668 1.392 . S
C2667 C2671 1.495 . S
C2668 C2667 1.392 . S
C2668 C2669 1.385 . S
C2668 C2670 1.478 . S
C2669 H2663 0.930 . S
C2669 C2665 1.400 . S
C2669 C2668 1.385 . S
C2670 C2668 1.478 . S
C2670 C2672 1.381 . S
C2670 C2676 1.383 . S
C2671 C2667 1.495 . S
C2671 H2677 0.959 . S
C2671 H2678 0.961 . S
C2671 H2679 0.960 . S
C2672 C2670 1.381 . S
C2672 C2673 1.394 . S
C2672 H2680 0.930 . S
C2673 C2672 1.394 . S
C2673 C2674 1.383 . S
C2673 H2681 0.929 . S
C2674 C2673 1.383 . S
C2674 C2675 1.377 . S
C2675 H2659 0.930 . S
C2675 C2674 1.377 . S
C2675 C2676 1.379 . S
C2676 H2660 0.931 . S
C2676 C2670 1.383 . S
C2676 C2675 1.379 . S
H2677 C2671 0.959 . S
H2678 C2671 0.961 . S
H2679 C2671 0.960 . S
H2680 C2672 0.930 . S
H2681 C2673 0.929 . S
H2682 C2690 0.929 . S
H2683 C2692 0.930 . S
H2684 C2694 0.930 . S
H2685 C2697 0.929 . S
H2686 C2700 0.930 . S
H2687 C2702 0.960 . S
H2688 C2702 0.960 . S
H2689 C2702 0.960 . S
C2690 H2682 0.929 . S
C2690 C2691 1.377 . S
C2690 C2692 1.384 . S
C2691 C2690 1.377 . S
C2691 C2697 1.390 . S
C2692 H2683 0.930 . S
C2692 C2690 1.384 . S
C2692 C2693 1.372 . S
C2693 C2692 1.372 . S
C2693 C2694 1.400 . S
C2693 C2698 1.490 . S
C2694 H2684 0.930 . S
C2694 C2693 1.400 . S
C2694 C2697 1.386 . S
H2695 C2711 0.930 . S
H2696 C2712 0.931 . S
C2697 H2685 0.929 . S
C2697 C2691 1.390 . S
C2697 C2694 1.386 . S
C2698 C2693 1.490 . S
C2698 C2700 1.395 . S
C2698 C2701 1.403 . S
H2699 C2705 0.930 . S
C2700 H2686 0.930 . S
C2700 C2698 1.395 . S
C2700 C2703 1.403 . S
C2701 C2698 1.403 . S
C2701 C2702 1.524 . S
C2701 C2705 1.400 . S
C2702 H2687 0.960 . S
C2702 H2688 0.960 . S
C2702 H2689 0.960 . S
C2702 C2701 1.524 . S
C2703 C2700 1.403 . S
C2703 C2704 1.392 . S
C2703 C2707 1.495 . S
C2704 C2703 1.392 . S
C2704 C2705 1.385 . S
C2704 C2706 1.478 . S
C2705 H2699 0.930 . S
C2705 C2701 1.400 . S
C2705 C2704 1.385 . S
C2706 C2704 1.478 . S
C2706 C2708 1.381 . S
C2706 C2712 1.383 . S
C2707 C2703 1.495 . S
C2707 H2713 0.959 . S
C2707 H2714 0.961 . S
C2707 H2715 0.960 . S
C2708 C2706 1.381 . S
C2708 C2709 1.394 . S
C2708 H2716 0.930 . S
C2709 C2708 1.394 . S
C2709 C2710 1.383 . S
C2709 H2717 0.929 . S
C2710 C2709 1.383 . S
C2710 C2711 1.377 . S
C2711 H2695 0.930 . S
C2711 C2710 1.377 . S
C2711 C2712 1.379 . S
C2712 H2696 0.931 . S
C2712 C2706 1.383 . S
C2712 C2711 1.379 . S
H2713 C2707 0.959 . S
H2714 C2707 0.961 . S
H2715 C2707 0.960 . S
H2716 C2708 0.930 . S
H2717 C2709 0.929 . S
H2718 C2726 0.929 . S
H2719 C2728 0.930 . S
H2720 C2730 0.930 . S
H2721 C2733 0.929 . S
H2722 C2736 0.930 . S
H2723 C2738 0.960 . S
H2724 C2738 0.960 . S
H2725 C2738 0.960 . S
C2726 H2718 0.929 . S
C2726 C2727 1.377 . S
C2726 C2728 1.384 . S
C2727 C2726 1.377 . S
C2727 C2733 1.390 . S
C2728 H2719 0.930 . S
C2728 C2726 1.384 . S
C2728 C2729 1.372 . S
C2729 C2728 1.372 . S
C2729 C2730 1.400 . S
C2729 C2734 1.490 . S
C2730 H2720 0.930 . S
C2730 C2729 1.400 . S
C2730 C2733 1.386 . S
H2731 C2747 0.930 . S
H2732 C2748 0.931 . S
C2733 H2721 0.929 . S
C2733 C2727 1.390 . S
C2733 C2730 1.386 . S
C2734 C2729 1.490 . S
C2734 C2736 1.395 . S
C2734 C2737 1.403 . S
H2735 C2741 0.930 . S
C2736 H2722 0.930 . S
C2736 C2734 1.395 . S
C2736 C2739 1.403 . S
C2737 C2734 1.403 . S
C2737 C2738 1.524 . S
C2737 C2741 1.400 . S
C2738 H2723 0.960 . S
C2738 H2724 0.960 . S
C2738 H2725 0.960 . S
C2738 C2737 1.524 . S
C2739 C2736 1.403 . S
C2739 C2740 1.392 . S
C2739 C2743 1.495 . S
C2740 C2739 1.392 . S
C2740 C2741 1.385 . S
C2740 C2742 1.478 . S
C2741 H2735 0.930 . S
C2741 C2737 1.400 . S
C2741 C2740 1.385 . S
C2742 C2740 1.478 . S
C2742 C2744 1.381 . S
C2742 C2748 1.383 . S
C2743 C2739 1.495 . S
C2743 H2749 0.959 . S
C2743 H2750 0.961 . S
C2743 H2751 0.960 . S
C2744 C2742 1.381 . S
C2744 C2745 1.394 . S
C2744 H2752 0.930 . S
C2745 C2744 1.394 . S
C2745 C2746 1.383 . S
C2745 H2753 0.929 . S
C2746 C2745 1.383 . S
C2746 C2747 1.377 . S
C2747 H2731 0.930 . S
C2747 C2746 1.377 . S
C2747 C2748 1.379 . S
C2748 H2732 0.931 . S
C2748 C2742 1.383 . S
C2748 C2747 1.379 . S
H2749 C2743 0.959 . S
H2750 C2743 0.961 . S
H2751 C2743 0.960 . S
H2752 C2744 0.930 . S
H2753 C2745 0.929 . S
H2754 C2762 0.929 . S
H2755 C2764 0.930 . S
H2756 C2766 0.930 . S
H2757 C2769 0.929 . S
H2758 C2772 0.930 . S
H2759 C2774 0.960 . S
H2760 C2774 0.960 . S
H2761 C2774 0.960 . S
C2762 H2754 0.929 . S
C2762 C2763 1.377 . S
C2762 C2764 1.384 . S
C2763 C2762 1.377 . S
C2763 C2769 1.390 . S
C2764 H2755 0.930 . S
C2764 C2762 1.384 . S
C2764 C2765 1.372 . S
C2765 C2764 1.372 . S
C2765 C2766 1.400 . S
C2765 C2770 1.490 . S
C2766 H2756 0.930 . S
C2766 C2765 1.400 . S
C2766 C2769 1.386 . S
H2767 C2783 0.930 . S
H2768 C2784 0.931 . S
C2769 H2757 0.929 . S
C2769 C2763 1.390 . S
C2769 C2766 1.386 . S
C2770 C2765 1.490 . S
C2770 C2772 1.395 . S
C2770 C2773 1.403 . S
H2771 C2777 0.930 . S
C2772 H2758 0.930 . S
C2772 C2770 1.395 . S
C2772 C2775 1.403 . S
C2773 C2770 1.403 . S
C2773 C2774 1.524 . S
C2773 C2777 1.400 . S
C2774 H2759 0.960 . S
C2774 H2760 0.960 . S
C2774 H2761 0.960 . S
C2774 C2773 1.524 . S
C2775 C2772 1.403 . S
C2775 C2776 1.392 . S
C2775 C2779 1.495 . S
C2776 C2775 1.392 . S
C2776 C2777 1.385 . S
C2776 C2778 1.478 . S
C2777 H2771 0.930 . S
C2777 C2773 1.400 . S
C2777 C2776 1.385 . S
C2778 C2776 1.478 . S
C2778 C2780 1.381 . S
C2778 C2784 1.383 . S
C2779 C2775 1.495 . S
C2779 H2785 0.959 . S
C2779 H2786 0.961 . S
C2779 H2787 0.960 . S
C2780 C2778 1.381 . S
C2780 C2781 1.394 . S
C2780 H2788 0.930 . S
C2781 C2780 1.394 . S
C2781 C2782 1.383 . S
C2781 H2789 0.929 . S
C2782 C2781 1.383 . S
C2782 C2783 1.377 . S
C2783 H2767 0.930 . S
C2783 C2782 1.377 . S
C2783 C2784 1.379 . S
C2784 H2768 0.931 . S
C2784 C2778 1.383 . S
C2784 C2783 1.379 . S
H2785 C2779 0.959 . S
H2786 C2779 0.961 . S
H2787 C2779 0.960 . S
H2788 C2780 0.930 . S
H2789 C2781 0.929 . S
H2790 C2798 0.929 . S
H2791 C2800 0.930 . S
H2792 C2802 0.930 . S
H2793 C2805 0.929 . S
H2794 C2808 0.930 . S
H2795 C2810 0.960 . S
H2796 C2810 0.960 . S
H2797 C2810 0.960 . S
C2798 H2790 0.929 . S
C2798 C2799 1.377 . S
C2798 C2800 1.384 . S
C2799 C2798 1.377 . S
C2799 C2805 1.390 . S
C2800 H2791 0.930 . S
C2800 C2798 1.384 . S
C2800 C2801 1.372 . S
C2801 C2800 1.372 . S
C2801 C2802 1.400 . S
C2801 C2806 1.490 . S
C2802 H2792 0.930 . S
C2802 C2801 1.400 . S
C2802 C2805 1.386 . S
H2803 C2819 0.930 . S
H2804 C2820 0.931 . S
C2805 H2793 0.929 . S
C2805 C2799 1.390 . S
C2805 C2802 1.386 . S
C2806 C2801 1.490 . S
C2806 C2808 1.395 . S
C2806 C2809 1.403 . S
H2807 C2813 0.930 . S
C2808 H2794 0.930 . S
C2808 C2806 1.395 . S
C2808 C2811 1.403 . S
C2809 C2806 1.403 . S
C2809 C2810 1.524 . S
C2809 C2813 1.400 . S
C2810 H2795 0.960 . S
C2810 H2796 0.960 . S
C2810 H2797 0.960 . S
C2810 C2809 1.524 . S
C2811 C2808 1.403 . S
C2811 C2812 1.392 . S
C2811 C2815 1.495 . S
C2812 C2811 1.392 . S
C2812 C2813 1.385 . S
C2812 C2814 1.478 . S
C2813 H2807 0.930 . S
C2813 C2809 1.400 . S
C2813 C2812 1.385 . S
C2814 C2812 1.478 . S
C2814 C2816 1.381 . S
C2814 C2820 1.383 . S
C2815 C2811 1.495 . S
C2815 H2821 0.959 . S
C2815 H2822 0.961 . S
C2815 H2823 0.960 . S
C2816 C2814 1.381 . S
C2816 C2817 1.394 . S
C2816 H2824 0.930 . S
C2817 C2816 1.394 . S
C2817 C2818 1.383 . S
C2817 H2825 0.929 . S
C2818 C2817 1.383 . S
C2818 C2819 1.377 . S
C2819 H2803 0.930 . S
C2819 C2818 1.377 . S
C2819 C2820 1.379 . S
C2820 H2804 0.931 . S
C2820 C2814 1.383 . S
C2820 C2819 1.379 . S
H2821 C2815 0.959 . S
H2822 C2815 0.961 . S
H2823 C2815 0.960 . S
H2824 C2816 0.930 . S
H2825 C2817 0.929 . S
H2826 C2834 0.929 . S
H2827 C2836 0.930 . S
H2828 C2838 0.930 . S
H2829 C2841 0.929 . S
H2830 C2844 0.930 . S
H2831 C2846 0.960 . S
H2832 C2846 0.960 . S
H2833 C2846 0.960 . S
C2834 H2826 0.929 . S
C2834 C2835 1.377 . S
C2834 C2836 1.384 . S
C2835 C2834 1.377 . S
C2835 C2841 1.390 . S
C2836 H2827 0.930 . S
C2836 C2834 1.384 . S
C2836 C2837 1.372 . S
C2837 C2836 1.372 . S
C2837 C2838 1.400 . S
C2837 C2842 1.490 . S
C2838 H2828 0.930 . S
C2838 C2837 1.400 . S
C2838 C2841 1.386 . S
H2839 C2855 0.930 . S
H2840 C2856 0.931 . S
C2841 H2829 0.929 . S
C2841 C2835 1.390 . S
C2841 C2838 1.386 . S
C2842 C2837 1.490 . S
C2842 C2844 1.395 . S
C2842 C2845 1.403 . S
H2843 C2849 0.930 . S
C2844 H2830 0.930 . S
C2844 C2842 1.395 . S
C2844 C2847 1.403 . S
C2845 C2842 1.403 . S
C2845 C2846 1.524 . S
C2845 C2849 1.400 . S
C2846 H2831 0.960 . S
C2846 H2832 0.960 . S
C2846 H2833 0.960 . S
C2846 C2845 1.524 . S
C2847 C2844 1.403 . S
C2847 C2848 1.392 . S
C2847 C2851 1.495 . S
C2848 C2847 1.392 . S
C2848 C2849 1.385 . S
C2848 C2850 1.478 . S
C2849 H2843 0.930 . S
C2849 C2845 1.400 . S
C2849 C2848 1.385 . S
C2850 C2848 1.478 . S
C2850 C2852 1.381 . S
C2850 C2856 1.383 . S
C2851 C2847 1.495 . S
C2851 H2857 0.959 . S
C2851 H2858 0.961 . S
C2851 H2859 0.960 . S
C2852 C2850 1.381 . S
C2852 C2853 1.394 . S
C2852 H2860 0.930 . S
C2853 C2852 1.394 . S
C2853 C2854 1.383 . S
C2853 H2861 0.929 . S
C2854 C2853 1.383 . S
C2854 C2855 1.377 . S
C2855 H2839 0.930 . S
C2855 C2854 1.377 . S
C2855 C2856 1.379 . S
C2856 H2840 0.931 . S
C2856 C2850 1.383 . S
C2856 C2855 1.379 . S
H2857 C2851 0.959 . S
H2858 C2851 0.961 . S
H2859 C2851 0.960 . S
H2860 C2852 0.930 . S
H2861 C2853 0.929 . S
H2862 C2870 0.929 . S
H2863 C2872 0.930 . S
H2864 C2874 0.930 . S
H2865 C2877 0.929 . S
H2866 C2880 0.930 . S
H2867 C2882 0.960 . S
H2868 C2882 0.960 . S
H2869 C2882 0.960 . S
C2870 H2862 0.929 . S
C2870 C2871 1.377 . S
C2870 C2872 1.384 . S
C2871 C2870 1.377 . S
C2871 C2877 1.390 . S
C2872 H2863 0.930 . S
C2872 C2870 1.384 . S
C2872 C2873 1.372 . S
C2873 C2872 1.372 . S
C2873 C2874 1.400 . S
C2873 C2878 1.490 . S
C2874 H2864 0.930 . S
C2874 C2873 1.400 . S
C2874 C2877 1.386 . S
H2875 C2891 0.930 . S
H2876 C2892 0.931 . S
C2877 H2865 0.929 . S
C2877 C2871 1.390 . S
C2877 C2874 1.386 . S
C2878 C2873 1.490 . S
C2878 C2880 1.395 . S
C2878 C2881 1.403 . S
H2879 C2885 0.930 . S
C2880 H2866 0.930 . S
C2880 C2878 1.395 . S
C2880 C2883 1.403 . S
C2881 C2878 1.403 . S
C2881 C2882 1.524 . S
C2881 C2885 1.400 . S
C2882 H2867 0.960 . S
C2882 H2868 0.960 . S
C2882 H2869 0.960 . S
C2882 C2881 1.524 . S
C2883 C2880 1.403 . S
C2883 C2884 1.392 . S
C2883 C2887 1.495 . S
C2884 C2883 1.392 . S
C2884 C2885 1.385 . S
C2884 C2886 1.478 . S
C2885 H2879 0.930 . S
C2885 C2881 1.400 . S
C2885 C2884 1.385 . S
C2886 C2884 1.478 . S
C2886 C2888 1.381 . S
C2886 C2892 1.383 . S
C2887 C2883 1.495 . S
C2887 H2893 0.959 . S
C2887 H2894 0.961 . S
C2887 H2895 0.960 . S
C2888 C2886 1.381 . S
C2888 C2889 1.394 . S
C2888 H2896 0.930 . S
C2889 C2888 1.394 . S
C2889 C2890 1.383 . S
C2889 H2897 0.929 . S
C2890 C2889 1.383 . S
C2890 C2891 1.377 . S
C2891 H2875 0.930 . S
C2891 C2890 1.377 . S
C2891 C2892 1.379 . S
C2892 H2876 0.931 . S
C2892 C2886 1.383 . S
C2892 C2891 1.379 . S
H2893 C2887 0.959 . S
H2894 C2887 0.961 . S
H2895 C2887 0.960 . S
H2896 C2888 0.930 . S
H2897 C2889 0.929 . S
H2898 C2906 0.929 . S
H2899 C2908 0.930 . S
H2900 C2910 0.930 . S
H2901 C2913 0.929 . S
H2902 C2916 0.930 . S
H2903 C2918 0.960 . S
H2904 C2918 0.960 . S
H2905 C2918 0.960 . S
C2906 H2898 0.929 . S
C2906 C2907 1.377 . S
C2906 C2908 1.384 . S
C2907 C2906 1.377 . S
C2907 C2913 1.390 . S
C2908 H2899 0.930 . S
C2908 C2906 1.384 . S
C2908 C2909 1.372 . S
C2909 C2908 1.372 . S
C2909 C2910 1.400 . S
C2909 C2914 1.490 . S
C2910 H2900 0.930 . S
C2910 C2909 1.400 . S
C2910 C2913 1.386 . S
H2911 C2927 0.930 . S
H2912 C2928 0.931 . S
C2913 H2901 0.929 . S
C2913 C2907 1.390 . S
C2913 C2910 1.386 . S
C2914 C2909 1.490 . S
C2914 C2916 1.395 . S
C2914 C2917 1.403 . S
H2915 C2921 0.930 . S
C2916 H2902 0.930 . S
C2916 C2914 1.395 . S
C2916 C2919 1.403 . S
C2917 C2914 1.403 . S
C2917 C2918 1.524 . S
C2917 C2921 1.400 . S
C2918 H2903 0.960 . S
C2918 H2904 0.960 . S
C2918 H2905 0.960 . S
C2918 C2917 1.524 . S
C2919 C2916 1.403 . S
C2919 C2920 1.392 . S
C2919 C2923 1.495 . S
C2920 C2919 1.392 . S
C2920 C2921 1.385 . S
C2920 C2922 1.478 . S
C2921 H2915 0.930 . S
C2921 C2917 1.400 . S
C2921 C2920 1.385 . S
C2922 C2920 1.478 . S
C2922 C2924 1.381 . S
C2922 C2928 1.383 . S
C2923 C2919 1.495 . S
C2923 H2929 0.959 . S
C2923 H2930 0.961 . S
C2923 H2931 0.960 . S
C2924 C2922 1.381 . S
C2924 C2925 1.394 . S
C2924 H2932 0.930 . S
C2925 C2924 1.394 . S
C2925 C2926 1.383 . S
C2925 H2933 0.929 . S
C2926 C2925 1.383 . S
C2926 C2927 1.377 . S
C2927 H2911 0.930 . S
C2927 C2926 1.377 . S
C2927 C2928 1.379 . S
C2928 H2912 0.931 . S
C2928 C2922 1.383 . S
C2928 C2927 1.379 . S
H2929 C2923 0.959 . S
H2930 C2923 0.961 . S
H2931 C2923 0.960 . S
H2932 C2924 0.930 . S
H2933 C2925 0.929 . S
C999 C177 1.434 . S
C1018 C301 1.359 . S
C1035 C190 1.463 . S
C1054 C385 1.375 . S
C1071 C164 1.427 . S
C1090 C465 1.424 . S
C1107 C151 1.404 . S
C1126 C381 1.381 1_556 S
C1162 C469 1.322 . S
C1143 C125 1.411 . S
C1179 C138 1.379 . S
C1198 C297 1.369 . S
C1234 C290 1.415 . S
C1215 C147 1.437 . S
C1270 C374 1.453 . S
C1251 C121 1.465 . S
C1287 C134 1.453 . S
C1306 C476 1.460 . S
C1323 C173 1.419 . S
C1342 C392 1.416 . S
C1359 C186 1.405 . S
C1378 C458 1.425 . S
C1414 C308 1.428 . S
C1395 C160 1.411 . S
C1450 C553 1.405 . S
C1431 C21 1.435 . S
C1467 C34 1.463 . S
C1486 C637 1.375 . S
C1503 C8 1.429 . S
C1522 C717 1.429 . S
C1539 C229 1.403 . S
C1558 C633 1.391 . S
C1575 C203 1.413 . S
C1594 C721 1.375 . S
C1611 C216 1.377 . S
C1630 C549 1.380 . S
C1647 C225 1.434 . S
C1666 C542 1.434 . S
C1683 C199 1.463 . S
C1702 C626 1.427 . S
C1738 C728 1.501 . S
C1719 C212 1.462 . S
C1755 C17 1.426 . S
C1774 C644 1.467 . S
C1810 C710 1.428 . S
C1791 C30 1.403 . S
C1827 C4 1.410 . S
C1846 C560 1.444 . S
C1882 C805 1.343 . S
C1863 C99 1.436 . S
C1899 C112 1.463 . S
C1918 C889 1.433 . S
C1954 C969 1.407 . S
C1935 C86 1.431 . S
C1990 C885 1.407 . S
C1971 C73 1.402 . S
C2026 C973 1.382 . S
C2007 C47 1.412 . S
C2043 C60 1.378 . S
C2062 C801 1.383 . S
C2079 C69 1.438 . S
C2098 C794 1.412 . S
C2115 C43 1.458 . S
C2134 C878 1.484 . S
C2170 C980 1.454 . S
C2151 C56 1.458 . S
C2187 C95 1.424 . S
C2206 C896 1.426 . S
C2223 C108 1.407 . S
C2242 C962 1.416 . S
C2259 C82 1.408 . S
C2278 C812 1.445 . S
C2295 C204 1.550 . S
C2314 C304 1.454 . S
C2350 C388 1.457 . S
C2331 C217 1.625 . S
C2367 C230 1.566 . S
C2386 C460 1.409 . S
C2403 C87 1.596 . S
C2422 C376 1.358 . S
C2439 C100 1.578 . S
C2458 C472 1.395 . S
C2494 C292 1.318 . S
C2475 C113 1.517 . S
C2511 C48 1.546 . S
C2530 C556 1.426 . S
C2547 C61 1.628 . S
C2566 C640 1.455 . S
C2583 C74 1.565 . S
C2602 C712 1.397 . S
C2619 C165 1.600 . S
C2638 C628 1.431 . S
C2674 C724 1.457 . S
C2655 C178 1.583 . S
C2691 C191 1.516 . S
C2710 C544 1.304 . S
C2727 C126 1.548 . S
C2746 C808 1.387 . S
C2763 C139 1.627 . S
C2782 C892 1.480 . S
C2818 C964 1.356 . S
C2799 C152 1.563 . S
C2835 C9 1.598 . S
C2854 C880 1.401 . S
C2871 C22 1.579 . S
C2890 C976 1.395 . S
C2907 C35 1.518 . S
C2926 C796 1.335 . S
