# Generated by pormake.
# Topology anh, (6,3)-cn, num edge types: 1
# Building blocks:
#     Node 0, Type 0, BuildingBlock: BETGAK_clean_sbu_0, # of connection points: 6
#     Node 1, Type 0, BuildingBlock: BETGAK_clean_sbu_0, # of connection points: 6
#     Node 2, Type 0, BuildingBlock: BETGAK_clean_sbu_0, # of connection points: 6
#     Node 3, Type 1, BuildingBlock: KAKCAD_clean_linker_0, # of connection points: 3
#     Node 4, Type 1, BuildingBlock: KAKCAD_clean_linker_0, # of connection points: 3
#     Node 5, Type 1, BuildingBlock: KAKCAD_clean_linker_0, # of connection points: 3
#     Node 6, Type 1, BuildingBlock: KAKCAD_clean_linker_0, # of connection points: 3
#     Node 7, Type 1, BuildingBlock: KAKCAD_clean_linker_0, # of connection points: 3
#     Node 8, Type 1, BuildingBlock: KAKCAD_clean_linker_0, # of connection points: 3
#     Edge 9, Type (0, 1), BuildingBlock: XUDNAN_clean_linker_2, # of connection points: 2
#     Edge 10, Type (0, 1), BuildingBlock: XUDNAN_clean_linker_2, # of connection points: 2
#     Edge 11, Type (0, 1), BuildingBlock: XUDNAN_clean_linker_2, # of connection points: 2
#     Edge 12, Type (0, 1), BuildingBlock: XUDNAN_clean_linker_2, # of connection points: 2
#     Edge 13, Type (0, 1), BuildingBlock: XUDNAN_clean_linker_2, # of connection points: 2
#     Edge 14, Type (0, 1), BuildingBlock: XUDNAN_clean_linker_2, # of connection points: 2
#     Edge 15, Type (0, 1), BuildingBlock: XUDNAN_clean_linker_2, # of connection points: 2
#     Edge 16, Type (0, 1), BuildingBlock: XUDNAN_clean_linker_2, # of connection points: 2
#     Edge 17, Type (0, 1), BuildingBlock: XUDNAN_clean_linker_2, # of connection points: 2
#     Edge 18, Type (0, 1), BuildingBlock: XUDNAN_clean_linker_2, # of connection points: 2
#     Edge 19, Type (0, 1), BuildingBlock: XUDNAN_clean_linker_2, # of connection points: 2
#     Edge 20, Type (0, 1), BuildingBlock: XUDNAN_clean_linker_2, # of connection points: 2
#     Edge 21, Type (0, 1), BuildingBlock: XUDNAN_clean_linker_2, # of connection points: 2
#     Edge 22, Type (0, 1), BuildingBlock: XUDNAN_clean_linker_2, # of connection points: 2
#     Edge 23, Type (0, 1), BuildingBlock: XUDNAN_clean_linker_2, # of connection points: 2
#     Edge 24, Type (0, 1), BuildingBlock: XUDNAN_clean_linker_2, # of connection points: 2
#     Edge 25, Type (0, 1), BuildingBlock: XUDNAN_clean_linker_2, # of connection points: 2
#     Edge 26, Type (0, 1), BuildingBlock: XUDNAN_clean_linker_2, # of connection points: 2
# Relax obj value: 0.183
# Max RMSD: 0.207
# Mean RMSD: 0.155
data_MOF--net-anh--node1-BETGAK_clean_sbu_0--node2-KAKCAD_clean_linker_0--edge1-XUDNAN_clean_linker_2
_symmetry_space_group_name_H-M    P1
_symmetry_Int_Tables_number       1
_symmetry_cell_setting            triclinic
loop_
_symmetry_equiv_pos_as_xyz
'x, y, z'
_cell_length_a     35.870881
_cell_length_b     43.35907
_cell_length_c     66.731299
_cell_angle_alpha  93.234501
_cell_angle_beta   88.475256
_cell_angle_gamma 128.43679
loop_
_atom_site_label
_atom_site_type_symbol
_atom_site_fract_x
_atom_site_fract_y
_atom_site_fract_z
_atom_type_partial_charge
La0 La 0.15055 0.53564 0.15977 0.0
La1 La 1.08478 0.55629 0.16782 0.0
C2 C 0.21055 0.52668 0.14818 0.0
C3 C 0.25895 0.54858 0.14055 0.0
C4 C 0.27928 0.5296 0.13956 0.0
C5 C 0.32724 0.55056 0.13519 0.0
C6 C 0.3558 0.59096 0.13174 0.0
C7 C 0.335 0.60974 0.13181 0.0
C8 C 0.28666 0.58863 0.13638 0.0
C9 C 0.12077 0.52906 0.197 0.0
C10 C 0.19502 0.62631 0.16408 0.0
C11 C 1.03521 0.57279 0.1845 0.0
C12 C 0.98391 0.54868 0.1882 0.0
C13 C 0.95101 0.51922 0.17405 0.0
C14 C 0.90302 0.49247 0.17892 0.0
C15 C 0.88704 0.49412 0.19818 0.0
C16 C 0.92018 0.52392 0.21225 0.0
C17 C 0.96817 0.55098 0.20727 0.0
C18 C 0.09312 0.54115 0.12966 0.0
C19 C 1.0412 0.46753 0.16063 0.0
O20 O 0.20742 0.53639 0.16671 0.0
O21 O 0.17767 0.52052 0.1363 0.0
O22 O 0.12679 0.50522 0.18809 0.0
O23 O 0.13254 0.55539 0.18533 0.0
O24 O 0.20198 0.60002 0.15969 0.0
O25 O 0.15244 0.61613 0.16829 0.0
O26 O 1.04949 0.58073 0.16584 0.0
O27 O 1.05575 0.56142 0.19406 0.0
O28 O 1.05421 0.53263 0.1373 0.0
O29 O 0.12497 0.55914 0.14297 0.0
O30 O 1.03702 0.49248 0.17061 0.0
O31 O 1.08155 0.47965 0.15193 0.0
H32 H 0.25835 0.49875 0.1428 0.0
H33 H 0.34225 0.53522 0.13478 0.0
H34 H 0.35637 0.6408 0.12902 0.0
H35 H 0.27131 0.60366 0.13721 0.0
H36 H 0.96249 0.5163 0.15938 0.0
H37 H 0.87846 0.47063 0.16748 0.0
H38 H 0.90925 0.5259 0.22724 0.0
H39 H 0.99332 0.57294 0.21856 0.0
La40 La 0.60765 0.01499 0.49034 0.0
La41 La 0.5534 0.04048 0.47466 0.0
C42 C 0.63379 0.98249 0.50917 0.0
C43 C 0.62777 0.94555 0.50744 0.0
C44 C 0.63423 0.93198 0.48907 0.0
C45 C 0.63339 0.89927 0.4882 0.0
C46 C 0.62553 0.87926 0.50562 0.0
C47 C 0.61684 0.89177 0.52379 0.0
C48 C 0.61819 0.92477 0.52469 0.0
C49 C 0.6211 0.03152 0.45225 0.0
C50 C 0.50073 0.95069 0.47308 0.0
C51 C 0.52971 0.0765 0.4577 0.0
C52 C 0.54346 0.11648 0.4613 0.0
C53 C 0.51861 0.12285 0.47531 0.0
C54 C 0.53387 0.16088 0.48012 0.0
C55 C 0.57403 0.19356 0.47087 0.0
C56 C 0.5978 0.18703 0.45627 0.0
C57 C 0.58271 0.14893 0.45155 0.0
C58 C 0.54095 0.02459 0.51292 0.0
C59 C 0.66056 0.10457 0.49069 0.0
O60 O 0.65897 1.00763 0.49525 0.0
O61 O 0.59601 0.97951 0.51385 0.0
O62 O 0.65343 0.03746 0.46393 0.0
O63 O 0.58246 0.01406 0.46144 0.0
O64 O 0.5359 0.95843 0.48435 0.0
O65 O 0.50363 0.97902 0.46466 0.0
O66 O 0.5049 0.05178 0.47182 0.0
O67 O 0.56276 0.07449 0.45087 0.0
O68 O 0.50844 0.01845 0.50132 0.0
O69 O 0.57931 0.04196 0.50354 0.0
O70 O 0.62611 0.09595 0.47871 0.0
O71 O 0.65653 0.0769 0.5004 0.0
H72 H 0.64117 0.94722 0.47547 0.0
H73 H 0.63965 0.88996 0.47397 0.0
H74 H 0.61103 0.87709 0.53747 0.0
H75 H 0.61308 0.93473 0.539 0.0
H76 H 0.488 0.09854 0.48302 0.0
H77 H 0.51496 0.1647 0.49161 0.0
H78 H 0.62829 0.21139 0.44855 0.0
H79 H 0.60234 0.14503 0.44051 0.0
La80 La 0.64914 0.57372 0.84334 0.0
La81 La 0.58665 0.48503 0.83994 0.0
C82 C 0.6898 0.64598 0.84007 0.0
C83 C 0.67873 0.66928 0.83067 0.0
C84 C 0.70939 0.71038 0.83374 0.0
C85 C 0.69968 0.73305 0.8247 0.0
C86 C 0.65906 0.7149 0.81241 0.0
C87 C 0.62816 0.67354 0.80956 0.0
C88 C 0.63796 0.65095 0.81859 0.0
C89 C 0.62845 0.53793 0.8771 0.0
C90 C 0.53616 0.52276 0.83983 0.0
C91 C 0.54829 0.41408 0.84577 0.0
C92 C 0.56294 0.38891 0.84322 0.0
C93 C 0.5354 0.3542 0.83096 0.0
C94 C 0.54892 0.33025 0.82795 0.0
C95 C 0.59021 0.34043 0.83723 0.0
C96 C 0.61758 0.37502 0.8497 0.0
C97 C 0.60415 0.3991 0.85263 0.0
C98 C 0.60546 0.5184 0.80548 0.0
C99 C 0.70154 0.53675 0.8424 0.0
O100 O 0.66338 0.62597 0.85532 0.0
O101 O 0.6964 0.6252 0.82777 0.0
O102 O 0.6695 0.57104 0.87359 0.0
O103 O 0.60115 0.52737 0.86246 0.0
O104 O 0.57837 0.55508 0.83465 0.0
O105 O 0.53172 0.49206 0.84598 0.0
O106 O 0.54248 0.42566 0.82928 0.0
O107 O 0.57031 0.44245 0.85977 0.0
O108 O 0.56702 0.48352 0.80906 0.0
O109 O 0.63391 0.53145 0.82012 0.0
O110 O 0.6588 0.50169 0.84327 0.0
O111 O 0.7063 0.5693 0.84055 0.0
H112 H 0.74107 0.72498 0.84302 0.0
H113 H 0.72449 0.76483 0.82701 0.0
H114 H 0.59622 0.65856 0.80043 0.0
H115 H 0.61381 0.61924 0.81605 0.0
H116 H 0.50338 0.34563 0.82364 0.0
H117 H 0.5267 0.30348 0.81851 0.0
H118 H 0.64974 0.38377 0.85695 0.0
H119 H 0.62617 0.42571 0.86219 0.0
C120 C 0.62981 0.10581 0.29978 0.0
C121 C 0.61727 0.07324 0.31004 0.0
C122 C 0.62375 0.10287 0.27895 0.0
C123 C 0.60595 0.06748 0.2679 0.0
C124 C 0.59319 0.03487 0.27835 0.0
C125 C 0.59836 0.03763 0.29918 0.0
C126 C 0.60233 0.06483 0.24554 0.0
C127 C 0.63668 0.09711 0.23427 0.0
C128 C 0.63485 0.0946 0.21315 0.0
C129 C 0.59911 0.05802 0.20322 0.0
C130 C 0.56476 0.02488 0.21427 0.0
C131 C 0.56579 0.0294 0.23535 0.0
C132 C 0.52855 0.98497 0.20431 0.0
C133 C 0.50779 0.98015 0.18557 0.0
C134 C 0.51383 0.95088 0.21388 0.0
C135 C 0.4782 0.91332 0.20551 0.0
C136 C 0.45717 0.90864 0.18705 0.0
C137 C 0.67191 0.13024 0.20193 0.0
C138 C 0.68948 0.16803 0.2096 0.0
C139 C 0.69237 0.12737 0.18438 0.0
C140 C 0.73089 0.16141 0.17539 0.0
C141 C 0.75041 0.19927 0.18386 0.0
C142 C 0.72835 0.20196 0.20086 0.0
C143 C 0.47271 0.94228 0.17694 0.0
H144 H 0.64419 0.13352 0.30789 0.0
H145 H 0.63314 0.12839 0.27154 0.0
H146 H 0.5804 1.00739 0.27042 0.0
H147 H 0.58904 1.01226 0.30676 0.0
H148 H 0.66608 0.12407 0.24199 0.0
H149 H 0.53797 1.00499 0.24397 0.0
H150 H 0.59841 0.05528 0.18699 0.0
H151 H 0.51784 1.00549 0.17775 0.0
H152 H 0.52994 0.95304 0.22792 0.0
H153 H 0.46742 0.88777 0.21338 0.0
H154 H 0.67396 0.17154 0.2228 0.0
H155 H 0.67995 0.09889 0.17798 0.0
H156 H 0.45699 0.93925 0.1626 0.0
H157 H 0.74215 0.23025 0.20804 0.0
H158 H 0.74592 0.15792 0.16202 0.0
C159 C 0.61819 0.57199 0.65136 0.0
C160 C 0.64183 0.56104 0.66145 0.0
C161 C 0.61482 0.56846 0.63043 0.0
C162 C 0.636 0.55474 0.61906 0.0
C163 C 0.66019 0.54424 0.62931 0.0
C164 C 0.6626 0.54695 0.65029 0.0
C165 C 0.63261 0.55134 0.59667 0.0
C166 C 0.63269 0.57853 0.58612 0.0
C167 C 0.62737 0.57488 0.5651 0.0
C168 C 0.6242 0.5443 0.55449 0.0
C169 C 0.62616 0.51778 0.56466 0.0
C170 C 0.62926 0.52101 0.58573 0.0
C171 C 0.62654 0.48741 0.55333 0.0
C172 C 0.59605 0.46551 0.53674 0.0
C173 C 0.65822 0.48056 0.55898 0.0
C174 C 0.65951 0.4526 0.54831 0.0
C175 C 0.62915 0.43073 0.5317 0.0
C176 C 0.62606 0.60358 0.55444 0.0
C177 C 0.6051 0.61949 0.5635 0.0
C178 C 0.64678 0.61624 0.53545 0.0
C179 C 0.64739 0.64459 0.52604 0.0
C180 C 0.62817 0.66169 0.53551 0.0
C181 C 0.60667 0.64842 0.55433 0.0
C182 C 0.59724 0.43738 0.52608 0.0
H183 H 0.6014 0.58246 0.65972 0.0
H184 H 0.59493 0.57598 0.62322 0.0
H185 H 0.67777 0.5343 0.62117 0.0
H186 H 0.68124 0.53854 0.65781 0.0
H187 H 0.63799 0.60327 0.59431 0.0
H188 H 0.62835 0.49937 0.59359 0.0
H189 H 0.62076 0.54132 0.53829 0.0
H190 H 0.571 0.46988 0.5321 0.0
H191 H 0.68255 0.49722 0.57155 0.0
H192 H 0.68405 0.44786 0.55322 0.0
H193 H 0.58774 0.60992 0.57788 0.0
H194 H 0.66364 0.60505 0.52799 0.0
H195 H 0.57358 0.42118 0.51328 0.0
H196 H 0.59201 0.66102 0.56235 0.0
H197 H 0.66339 0.65327 0.51138 0.0
C198 C 0.15151 0.53843 0.97026 0.0
C199 C 0.11165 0.52662 0.98187 0.0
C200 C 0.14842 0.53368 0.94937 0.0
C201 C 0.10488 0.5154 0.93923 0.0
C202 C 1.06442 0.50202 0.95086 0.0
C203 C 1.06786 0.50796 0.97183 0.0
C204 C 0.10265 0.5118 0.91669 0.0
C205 C 0.13453 0.50904 0.90576 0.0
C206 C 0.1387 0.51182 0.88476 0.0
C207 C 0.10515 0.5125 0.87425 0.0
C208 C 1.06977 0.51202 0.88488 0.0
C209 C 1.07061 0.51326 0.90603 0.0
C210 C 1.03226 0.51174 0.87486 0.0
C211 C 1.0431 0.53649 0.85922 0.0
C212 C 0.98574 0.48949 0.88267 0.0
C213 C 0.95239 0.49384 0.87617 0.0
C214 C 0.96393 0.52034 0.86137 0.0
C215 C 0.17945 0.51495 0.87488 0.0
C216 C 0.22322 0.53487 0.88535 0.0
C217 C 0.17513 0.49668 0.85596 0.0
C218 C 0.21261 0.49708 0.84829 0.0
C219 C 0.25501 0.51517 0.85947 0.0
C220 C 0.2598 0.53439 0.87797 0.0
C221 C 1.00947 0.54065 0.85256 0.0
H222 H 0.18566 0.55173 0.97721 0.0
H223 H 0.18087 0.54528 0.94125 0.0
H224 H 1.02992 0.48708 0.94383 0.0
H225 H 1.03624 0.49855 0.98005 0.0
H226 H 0.15695 0.50503 0.91377 0.0
H227 H 1.04679 0.51659 0.91426 0.0
H228 H 0.10665 0.51358 0.85806 0.0
H229 H 1.07829 0.55406 0.85275 0.0
H230 H 0.97548 0.4695 0.89449 0.0
H231 H 0.91823 0.47761 0.8835 0.0
H232 H 0.22934 0.55079 0.89956 0.0
H233 H 0.14239 0.48112 0.84735 0.0
H234 H 1.01975 0.56058 0.84073 0.0
H235 H 0.29232 0.54955 0.88673 0.0
H236 H 0.20793 0.48232 0.83385 0.0
C237 C 1.04452 0.50077 0.35492 0.0
C238 C 1.08069 0.50703 0.34254 0.0
C239 C 1.04664 0.49872 0.37564 0.0
C240 C 1.08554 0.50385 0.38429 0.0
C241 C 0.12122 0.50934 0.37185 0.0
C242 C 0.11852 0.51046 0.35108 0.0
C243 C 0.09048 0.50634 0.40634 0.0
C244 C 1.05445 0.4756 0.41787 0.0
C245 C 1.05813 0.47881 0.4389 0.0
C246 C 0.09769 0.51375 0.44844 0.0
C247 C 0.13355 0.54525 0.43699 0.0
C248 C 0.13006 0.54081 0.41594 0.0
C249 C 0.17186 0.58446 0.44657 0.0
C250 C 0.16029 0.60254 0.46068 0.0
C251 C 0.21888 0.60631 0.43961 0.0
C252 C 0.25277 0.64615 0.4456 0.0
C253 C 0.24011 0.66498 0.45848 0.0
C254 C 1.01995 0.44547 0.45063 0.0
C255 C 0.97261 0.43051 0.4481 0.0
C256 C 1.02998 0.42641 0.46309 0.0
C257 C 0.99295 0.3918 0.47213 0.0
C258 C 0.94515 0.37591 0.46913 0.0
C259 C 0.93569 0.39642 0.45742 0.0
C260 C 0.19401 0.64245 0.46649 0.0
H261 H 1.01514 0.49819 0.34859 0.0
H262 H 1.01894 0.49475 0.385 0.0
H263 H 0.15153 0.51341 0.37826 0.0
H264 H 0.14697 0.51567 0.34177 0.0
H265 H 1.02375 0.44894 0.41044 0.0
H266 H 0.15678 0.56518 0.40695 0.0
H267 H 0.09994 0.51673 0.46469 0.0
H268 H 0.1243 0.58656 0.46619 0.0
H269 H 0.22883 0.59304 0.4288 0.0
H270 H 0.28796 0.66279 0.43913 0.0
H271 H 0.96413 0.44497 0.43865 0.0
H272 H 1.06627 0.4373 0.4651 0.0
H273 H 0.18344 0.65617 0.4766 0.0
H274 H 0.89964 0.38589 0.45516 0.0
H275 H 1.00183 0.37675 0.48078 0.0
C276 C 0.54039 0.97908 0.66973 0.0
C277 C 0.56734 1.01175 0.65766 0.0
C278 C 0.55243 0.98266 0.68991 0.0
C279 C 0.59154 0.01904 0.69851 0.0
C280 C 0.61854 0.05175 0.68646 0.0
C281 C 0.6067 0.04809 0.6662 0.0
C282 C 0.60398 0.02266 0.71999 0.0
C283 C 0.60416 0.99373 0.7282 0.0
C284 C 0.61445 0.99597 0.74862 0.0
C285 C 0.6253 0.02805 0.76093 0.0
C286 C 0.62497 0.05733 0.75299 0.0
C287 C 0.61442 0.05433 0.73245 0.0
C288 C 0.63306 0.09002 0.76608 0.0
C289 C 0.61286 0.0829 0.78529 0.0
C290 C 0.65829 0.12806 0.7589 0.0
C291 C 0.66126 0.15766 0.77018 0.0
C292 C 0.63948 0.15008 0.78901 0.0
C293 C 0.6133 0.96422 0.75672 0.0
C294 C 0.57542 0.92462 0.75149 0.0
C295 C 0.65125 0.97303 0.76832 0.0
C296 C 0.65251 0.94284 0.77358 0.0
C297 C 0.61576 0.90339 0.76737 0.0
C298 C 0.5766 0.89458 0.75678 0.0
C299 C 0.61618 0.11267 0.79666 0.0
H300 H 0.51009 0.95064 0.66352 0.0
H301 H 0.53073 0.95702 0.69887 0.0
H302 H 0.64906 0.08007 0.69267 0.0
H303 H 0.62786 0.07384 0.65729 0.0
H304 H 0.59687 0.96953 0.71854 0.0
H305 H 0.61245 0.07586 0.72626 0.0
H306 H 0.63332 0.02988 0.7767 0.0
H307 H 0.59271 0.05387 0.79121 0.0
H308 H 0.67516 0.13483 0.74436 0.0
H309 H 0.68014 0.18642 0.76405 0.0
H310 H 0.54526 0.91692 0.7429 0.0
H311 H 0.68096 1.00333 0.77249 0.0
H312 H 0.59872 0.10589 0.81106 0.0
H313 H 0.54717 0.86442 0.7522 0.0
H314 H 0.68322 0.95057 0.78172 0.0
C315 C 0.58579 0.38967 0.00925 0.0
C316 C 0.61822 0.42346 0.99836 0.0
C317 C 0.58431 0.3927 0.03019 0.0
C318 C 0.61547 0.42951 0.04051 0.0
C319 C 0.65145 0.46215 0.02985 0.0
C320 C 0.65271 0.45925 0.00901 0.0
C321 C 0.60627 0.43554 0.06153 0.0
C322 C 0.59807 0.41055 0.07646 0.0
C323 C 0.58974 0.41721 0.09639 0.0
C324 C 0.58794 0.44838 0.10099 0.0
C325 C 0.59504 0.47302 0.08603 0.0
C326 C 0.6046 0.46651 0.06644 0.0
C327 C 0.59209 0.50537 0.09054 0.0
C328 C 0.56858 0.51197 0.07704 0.0
C329 C 0.61252 0.52981 0.10813 0.0
C330 C 0.6087 0.55976 0.11225 0.0
C331 C 0.58453 0.56588 0.09883 0.0
C332 C 0.58833 0.39478 0.11279 0.0
C333 C 0.62193 0.38819 0.11322 0.0
C334 C 0.55805 0.38441 0.1293 0.0
C335 C 0.56448 0.37136 0.14662 0.0
C336 C 0.60148 0.36868 0.14776 0.0
C337 C 0.62846 0.37534 0.13045 0.0
C338 C 0.56497 0.54187 0.0811 0.0
H339 H 0.55943 0.36145 0.00153 0.0
H340 H 0.55646 0.367 0.03811 0.0
H341 H 0.67653 0.49072 0.03754 0.0
H342 H 0.67817 0.48605 0.0013 0.0
H343 H 0.59937 0.3866 0.07266 0.0
H344 H 0.61056 0.48565 0.05485 0.0
H345 H 0.58178 0.45391 0.11628 0.0
H346 H 0.55169 0.49324 0.06353 0.0
H347 H 0.63144 0.52581 0.11868 0.0
H348 H 0.62406 0.57778 0.12606 0.0
H349 H 0.64613 0.39614 0.10087 0.0
H350 H 0.53104 0.38834 0.12922 0.0
H351 H 0.5449 0.54498 0.07072 0.0
H352 H 0.65789 0.37438 0.13068 0.0
H353 H 0.54257 0.36588 0.15954 0.0
H354 H 0.41703 0.59227 0.15504 0.0
H355 H 0.40797 0.63487 0.09978 0.0
H356 H 0.48551 0.65254 0.0894 0.0
H357 H 0.55624 0.66045 0.15889 0.0
H358 H 0.55189 0.62005 0.16813 0.0
H359 H 0.50727 0.62575 0.17465 0.0
H360 H 0.44168 0.55436 0.16081 0.0
H361 H 0.48567 0.54856 0.15414 0.0
H362 H 0.44503 0.54047 0.13523 0.0
H363 H 0.54788 0.64624 0.08072 0.0
H364 H 0.58747 0.61629 0.07445 0.0
H365 H 0.55474 0.57521 0.13484 0.0
C366 C 0.43281 0.60719 0.14123 0.0
C367 C 0.40706 0.6124 0.12819 0.0
C368 C 0.42772 0.63125 0.11006 0.0
C369 C 0.47177 0.64138 0.1041 0.0
C370 C 0.49472 0.63293 0.11661 0.0
C371 C 0.47625 0.61688 0.13505 0.0
C372 C 0.50159 0.60291 0.14385 0.0
C373 C 0.53101 0.62885 0.16248 0.0
C374 C 0.4664 0.55901 0.14875 0.0
C375 C 0.53361 0.60959 0.12658 0.0
C376 C 0.53077 0.62853 0.11137 0.0
C377 C 0.5515 0.6325 0.09274 0.0
C378 C 0.57361 0.61511 0.08925 0.0
C379 C 0.57409 0.59345 0.1042 0.0
C380 C 0.55603 0.59251 0.12336 0.0
H381 H 0.69154 0.16267 0.46505 0.0
H382 H 0.72981 0.13936 0.52014 0.0
H383 H 0.80536 0.20781 0.52181 0.0
H384 H 0.80626 0.21823 0.44421 0.0
H385 H 0.801 0.25179 0.43243 0.0
H386 H 0.74859 0.20239 0.43672 0.0
H387 H 0.71113 0.23001 0.45657 0.0
H388 H 0.76341 0.27956 0.45229 0.0
H389 H 0.74326 0.26487 0.47753 0.0
H390 H 0.87778 0.27898 0.51679 0.0
H391 H 0.94214 0.34488 0.50479 0.0
H392 H 0.85743 0.31835 0.45169 0.0
C393 C 0.71539 0.17207 0.47768 0.0
C394 C 0.70461 0.14586 0.49261 0.0
C395 C 0.73731 0.15907 0.5086 0.0
C396 C 0.7802 0.19788 0.50969 0.0
C397 C 0.78991 0.22288 0.49458 0.0
C398 C 0.75845 0.21034 0.47883 0.0
C399 C 0.7783 0.24185 0.46379 0.0
C400 C 0.78388 0.22772 0.44307 0.0
C401 C 0.74718 0.25484 0.46248 0.0
C402 C 0.82611 0.27415 0.47345 0.0
C403 C 0.83201 0.26292 0.4913 0.0
C404 C 0.87356 0.28798 0.50278 0.0
C405 C 0.91013 0.32532 0.49574 0.0
C406 C 0.90527 0.33716 0.47722 0.0
C407 C 0.86236 0.31095 0.46608 0.0
H408 H 0.67002 0.78051 0.82779 0.0
H409 H 0.62676 0.70403 0.77395 0.0
H410 H 0.61055 0.74364 0.75692 0.0
H411 H 0.58379 0.79678 0.82384 0.0
H412 H 0.62396 0.84774 0.83271 0.0
H413 H 0.63178 0.81317 0.84086 0.0
H414 H 0.71857 0.8574 0.82812 0.0
H415 H 0.71103 0.89212 0.81993 0.0
H416 H 0.72994 0.87126 0.80239 0.0
H417 H 0.59963 0.79137 0.74559 0.0
H418 H 0.59461 0.84453 0.74055 0.0
H419 H 0.64551 0.89085 0.80156 0.0
C420 C 0.65747 0.77224 0.81237 0.0
C421 C 0.64943 0.73898 0.80225 0.0
C422 C 0.63243 0.72894 0.78214 0.0
C423 C 0.62341 0.75142 0.77229 0.0
C424 C 0.63166 0.78392 0.7827 0.0
C425 C 0.64833 0.7944 0.80228 0.0
C426 C 0.65424 0.83081 0.80999 0.0
C427 C 0.62148 0.82155 0.82791 0.0
C428 C 0.70656 0.86491 0.81542 0.0
C429 C 0.63835 0.83916 0.79165 0.0
C430 C 0.62543 0.81166 0.77612 0.0
C431 C 0.60943 0.81298 0.75767 0.0
C432 C 0.60642 0.84316 0.755 0.0
C433 C 0.61926 0.87168 0.77071 0.0
C434 C 0.63566 0.86963 0.78924 0.0
H435 H 0.82343 0.41604 0.18619 0.0
H436 H 0.83402 0.50931 0.22032 0.0
H437 H 0.74704 0.46771 0.22156 0.0
H438 H 0.74859 0.40061 0.15349 0.0
H439 H 0.71421 0.34792 0.14959 0.0
H440 H 0.77386 0.37679 0.15889 0.0
H441 H 0.74275 0.33266 0.18977 0.0
H442 H 0.68264 0.30455 0.18026 0.0
H443 H 0.69726 0.32721 0.20528 0.0
H444 H 0.66643 0.43015 0.20938 0.0
H445 H 0.60639 0.40584 0.1833 0.0
H446 H 0.64047 0.33299 0.15632 0.0
C447 C 0.80728 0.42713 0.19445 0.0
C448 C 0.83559 0.46604 0.20299 0.0
C449 C 0.81333 0.47945 0.21386 0.0
C450 C 0.76364 0.45582 0.2147 0.0
C451 C 0.73653 0.41875 0.20466 0.0
C452 C 0.75767 0.40422 0.1949 0.0
C453 C 0.72241 0.36844 0.18129 0.0
C454 C 0.74086 0.37382 0.15956 0.0
C455 C 0.71055 0.33099 0.18965 0.0
C456 C 0.68007 0.36831 0.18286 0.0
C457 C 0.688 0.39616 0.19728 0.0
C458 C 0.65903 0.40741 0.19853 0.0
C459 C 0.62449 0.39314 0.18357 0.0
C460 C 0.61941 0.36804 0.16747 0.0
C461 C 0.64408 0.35245 0.16839 0.0
H462 H 0.48863 0.88188 0.47696 0.0
H463 H 0.41342 0.92659 0.46222 0.0
H464 H 0.33875 0.8586 0.4583 0.0
H465 H 0.42496 0.79843 0.441 0.0
H466 H 0.42424 0.76592 0.45699 0.0
H467 H 0.47189 0.81823 0.45927 0.0
H468 H 0.45386 0.81868 0.49706 0.0
H469 H 0.40594 0.76639 0.4949 0.0
H470 H 0.39469 0.79949 0.50467 0.0
H471 H 0.27205 0.78666 0.45685 0.0
H472 H 0.21804 0.714 0.4546 0.0
H473 H 0.33585 0.71442 0.46855 0.0
C474 C 0.45641 0.87729 0.4729 0.0
C475 C 0.45682 0.90956 0.46993 0.0
C476 C 0.41405 0.90237 0.46446 0.0
C477 C 0.37136 0.86385 0.46231 0.0
C478 C 0.37204 0.83274 0.46544 0.0
C479 C 0.41345 0.83886 0.47035 0.0
C480 C 0.40438 0.79993 0.47207 0.0
C481 C 0.43307 0.79537 0.4564 0.0
C482 C 0.41537 0.7959 0.49345 0.0
C483 C 0.35139 0.77109 0.46744 0.0
C484 C 0.3335 0.79079 0.46392 0.0
C485 C 0.28558 0.77084 0.45955 0.0
C486 C 0.25512 0.72958 0.45846 0.0
C487 C 0.27267 0.70859 0.46153 0.0
C488 C 0.3215 0.72973 0.46613 0.0
H489 H 0.59026 0.30565 0.80169 0.0
H490 H 0.62173 0.31711 0.86523 0.0
H491 H 0.64132 0.27172 0.85977 0.0
H492 H 0.53368 0.20367 0.79492 0.0
H493 H 0.5575 0.20729 0.77026 0.0
H494 H 0.54857 0.24223 0.77913 0.0
H495 H 0.63727 0.2998 0.77255 0.0
H496 H 0.64649 0.26501 0.76366 0.0
H497 H 0.68298 0.30056 0.78382 0.0
H498 H 0.65216 0.22129 0.84749 0.0
H499 H 0.65686 0.17252 0.82915 0.0
H500 H 0.6189 0.19516 0.77378 0.0
C501 C 0.60131 0.29865 0.81446 0.0
C502 C 0.60433 0.3148 0.8339 0.0
C503 C 0.61956 0.30533 0.85018 0.0
C504 C 0.63056 0.27946 0.84723 0.0
C505 C 0.62655 0.26364 0.82789 0.0
C506 C 0.61264 0.27315 0.81177 0.0
C507 C 0.61032 0.25173 0.79256 0.0
C508 C 0.5595 0.22462 0.78371 0.0
C509 C 0.64642 0.28103 0.77725 0.0
C510 C 0.62441 0.22818 0.8004 0.0
C511 C 0.63364 0.23538 0.82081 0.0
C512 C 0.64545 0.21572 0.83147 0.0
C513 C 0.64783 0.18798 0.82098 0.0
C514 C 0.63869 0.18037 0.80004 0.0
C515 C 0.62704 0.20095 0.7897 0.0
H516 H 0.56565 0.80703 0.52227 0.0
H517 H 0.69606 0.88017 0.4885 0.0
H518 H 0.70784 0.83 0.49021 0.0
H519 H 0.60574 0.77372 0.55571 0.0
H520 H 0.55057 0.72424 0.55639 0.0
H521 H 0.55004 0.76418 0.55103 0.0
H522 H 0.50417 0.72746 0.51773 0.0
H523 H 0.5043 0.68724 0.52306 0.0
H524 H 0.52817 0.71149 0.49977 0.0
H525 H 0.71024 0.77583 0.49895 0.0
H526 H 0.70099 0.71982 0.51237 0.0
H527 H 0.56562 0.67894 0.5383 0.0
C528 C 0.59634 0.81219 0.51504 0.0
C529 C 0.62988 0.84738 0.50519 0.0
C530 C 0.66961 0.85316 0.49588 0.0
C531 C 0.6767 0.82491 0.49684 0.0
C532 C 0.64337 0.7908 0.50692 0.0
C533 C 0.60363 0.78405 0.51563 0.0
C534 C 0.57406 0.74549 0.52608 0.0
C535 C 0.56988 0.75234 0.54864 0.0
C536 C 0.52475 0.71619 0.51606 0.0
C537 C 0.60422 0.73229 0.52246 0.0
C538 C 0.64394 0.75879 0.51134 0.0
C539 C 0.67869 0.75436 0.50728 0.0
C540 C 0.67286 0.72212 0.51488 0.0
C541 C 0.63231 0.69434 0.52632 0.0
C542 C 0.5973 0.6995 0.52981 0.0
H543 H 0.71116 0.47941 0.85078 0.0
H544 H 0.7933 0.6023 0.83665 0.0
H545 H 0.86715 0.61024 0.83905 0.0
H546 H 0.79448 0.49441 0.88699 0.0
H547 H 0.78547 0.44948 0.87981 0.0
H548 H 0.7382 0.45252 0.87637 0.0
H549 H 0.73266 0.4325 0.83865 0.0
H550 H 0.7797 0.42914 0.842 0.0
H551 H 0.78525 0.46043 0.82346 0.0
H552 H 0.9331 0.60615 0.84367 0.0
H553 H 0.9865 0.59058 0.85059 0.0
H554 H 0.86376 0.46974 0.86114 0.0
C555 C 0.74462 0.50792 0.84805 0.0
C556 C 0.74585 0.54019 0.84344 0.0
C557 C 0.7908 0.57701 0.84019 0.0
C558 C 0.83324 0.58188 0.8415 0.0
C559 C 0.83082 0.54973 0.84612 0.0
C560 C 0.78774 0.51341 0.84936 0.0
C561 C 0.79566 0.48402 0.85451 0.0
C562 C 0.77737 0.46924 0.87568 0.0
C563 C 0.7719 0.44948 0.83871 0.0
C564 C 0.84986 0.50958 0.85367 0.0
C565 C 0.86921 0.54734 0.84875 0.0
C566 C 0.91828 0.57653 0.84735 0.0
C567 C 0.94851 0.56717 0.85113 0.0
C568 C 0.93013 0.5287 0.85625 0.0
C569 C 0.87968 0.49955 0.85742 0.0
H570 H 0.21658 0.68723 0.18964 0.0
H571 H 0.26651 0.66024 0.13687 0.0
H572 H 0.33616 0.73076 0.1354 0.0
H573 H 0.25619 0.78368 0.17625 0.0
H574 H 0.27489 0.80496 0.20148 0.0
H575 H 0.22691 0.753 0.19735 0.0
H576 H 0.27165 0.73684 0.21864 0.0
H577 H 0.3196 0.78869 0.2229 0.0
H578 H 0.33163 0.75665 0.21214 0.0
H579 H 0.4005 0.80456 0.13974 0.0
H580 H 0.45945 0.87439 0.15196 0.0
H581 H 0.37101 0.85218 0.20339 0.0
C582 C 0.24195 0.69637 0.17766 0.0
C583 C 0.23614 0.66853 0.16325 0.0
C584 C 0.2705 0.68123 0.14805 0.0
C585 C 0.30994 0.72121 0.14703 0.0
C586 C 0.31486 0.74802 0.16151 0.0
C587 C 0.28217 0.73605 0.17672 0.0
C588 C 0.29777 0.77021 0.19136 0.0
C589 C 0.26179 0.77844 0.19162 0.0
C590 C 0.30564 0.76264 0.21251 0.0
C591 C 0.34435 0.80321 0.18206 0.0
C592 C 0.35315 0.79 0.16463 0.0
C593 C 0.39399 0.81521 0.15337 0.0
C594 C 0.42712 0.85477 0.16033 0.0
C595 C 0.41952 0.8684 0.17852 0.0
C596 C 0.37745 0.84235 0.18939 0.0
H597 H 0.52194 0.21914 0.48103 0.0
H598 H 0.66705 0.26011 0.47557 0.0
H599 H 0.697 0.32643 0.48829 0.0
H600 H 0.54475 0.31013 0.46797 0.0
H601 H 0.50349 0.30511 0.48619 0.0
H602 H 0.49357 0.26182 0.47484 0.0
H603 H 0.49056 0.23824 0.51011 0.0
H604 H 0.50048 0.28141 0.52156 0.0
H605 H 0.5398 0.27043 0.52734 0.0
H606 H 0.71106 0.38712 0.50378 0.0
H607 H 0.70819 0.43769 0.52075 0.0
H608 H 0.55384 0.35635 0.5174 0.0
C609 C 0.56005 0.24203 0.48242 0.0
C610 C 0.59209 0.23427 0.47716 0.0
C611 C 0.64172 0.26534 0.47909 0.0
C612 C 0.65911 0.30312 0.48644 0.0
C613 C 0.62648 0.30947 0.49178 0.0
C614 C 0.578 0.27982 0.48983 0.0
C615 C 0.55042 0.29378 0.4976 0.0
C616 C 0.52135 0.29264 0.48064 0.0
C617 C 0.51844 0.26953 0.5152 0.0
C618 C 0.59096 0.33576 0.50454 0.0
C619 C 0.63455 0.3443 0.50093 0.0
C620 C 0.67714 0.38081 0.50661 0.0
C621 C 0.67512 0.40925 0.51636 0.0
C622 C 0.6308 0.40101 0.52044 0.0
C623 C 0.58828 0.3638 0.51424 0.0
H624 H 0.46267 0.49402 0.86695 0.0
H625 H 0.51477 0.5506 0.8103 0.0
H626 H 0.4464 0.55117 0.80811 0.0
H627 H 0.33537 0.43411 0.8565 0.0
H628 H 0.32125 0.44251 0.88132 0.0
H629 H 0.37192 0.44347 0.87767 0.0
H630 H 0.4266 0.51352 0.89481 0.0
H631 H 0.37612 0.51274 0.89855 0.0
H632 H 0.42743 0.5521 0.8854 0.0
H633 H 0.37049 0.5444 0.81186 0.0
H634 H 0.30003 0.53859 0.82318 0.0
H635 H 0.3012 0.49266 0.87897 0.0
C636 C 0.4592 0.50596 0.85395 0.0
C637 C 0.49369 0.52158 0.83857 0.0
C638 C 0.48864 0.53812 0.82215 0.0
C639 C 0.44979 0.53848 0.82076 0.0
C640 C 0.41645 0.523 0.83616 0.0
C641 C 0.42122 0.50764 0.85263 0.0
C642 C 0.38256 0.4958 0.86787 0.0
C643 C 0.3509 0.45133 0.87102 0.0
C644 C 0.40449 0.51998 0.88784 0.0
C645 C 0.35515 0.50658 0.85738 0.0
C646 C 0.37481 0.52161 0.83894 0.0
C647 C 0.35506 0.53287 0.82633 0.0
C648 C 0.31482 0.52927 0.83282 0.0
C649 C 0.29496 0.51526 0.85195 0.0
C650 C 0.31557 0.50364 0.86429 0.0
H651 H 0.94816 0.43142 0.1714 0.0
H652 H 1.0422 0.4066 0.14882 0.0
H653 H 0.97641 0.33533 0.15004 0.0
H654 H 0.8858 0.35678 0.20574 0.0
H655 H 0.82842 0.34417 0.20099 0.0
H656 H 0.88178 0.39326 0.197 0.0
H657 H 0.85499 0.38714 0.16053 0.0
H658 H 0.80164 0.33762 0.16412 0.0
H659 H 0.8413 0.34693 0.14396 0.0
H660 H 0.90308 0.26725 0.15667 0.0
H661 H 0.82665 0.20695 0.16715 0.0
H662 H 0.7776 0.27487 0.1833 0.0
C663 C 0.95482 0.411 0.16651 0.0
C664 C 1.00052 0.42472 0.16005 0.0
C665 C 1.00759 0.39694 0.15376 0.0
C666 C 0.9704 0.35633 0.15441 0.0
C667 C 0.92606 0.34382 0.16111 0.0
C668 C 0.91789 0.37027 0.16684 0.0
C669 C 0.86706 0.34893 0.17382 0.0
C670 C 0.86572 0.36153 0.19569 0.0
C671 C 0.83964 0.35558 0.15977 0.0
C672 C 0.84862 0.3065 0.1719 0.0
C673 C 0.88313 0.30424 0.16438 0.0
C674 C 0.87542 0.26853 0.16222 0.0
C675 C 0.83148 0.23424 0.16809 0.0
C676 C 0.79532 0.23558 0.17596 0.0
C677 C 0.80419 0.27242 0.17753 0.0
H678 H 1.03183 0.49442 0.09794 0.0
H679 H 0.17885 0.5932 0.11267 0.0
H680 H 0.19828 0.60074 0.07674 0.0
H681 H 1.0612 0.45373 0.05686 0.0
H682 H 1.01057 0.43733 0.04162 0.0
H683 H 1.00733 0.44018 0.06858 0.0
H684 H 0.98371 0.48543 0.06596 0.0
H685 H 0.98723 0.48294 0.039 0.0
H686 H 1.0217 0.53014 0.05264 0.0
H687 H 0.20096 0.60108 0.03965 0.0
H688 H 0.19021 0.58892 0.00324 0.0
H689 H 1.044 0.48426 0.0116 0.0
C690 C 1.06801 0.51756 0.0935 0.0
C691 C 0.10375 0.54351 0.10802 0.0
C692 C 0.15091 0.57309 0.10178 0.0
C693 C 0.16229 0.57772 0.0814 0.0
C694 C 0.12635 0.55201 0.06741 0.0
C695 C 1.08038 0.52199 0.0731 0.0
C696 C 1.04938 0.49738 0.05484 0.0
C697 C 1.03105 0.45462 0.05552 0.0
C698 C 1.00806 0.49909 0.05301 0.0
C699 C 1.08505 0.51869 0.03809 0.0
C700 C 0.12895 0.55039 0.04577 0.0
C701 C 0.16709 0.57575 0.03343 0.0
C702 C 0.16062 0.5682 0.01265 0.0
C703 C 0.11661 0.53483 0.00418 0.0
C704 C 1.07821 0.51001 0.01728 0.0
H705 H 0.55569 1.0018 0.42206 0.0
H706 H 0.70487 0.09326 0.43685 0.0
H707 H 0.71894 0.11739 0.40257 0.0
H708 H 0.57508 0.97893 0.37294 0.0
H709 H 0.52293 0.96907 0.36209 0.0
H710 H 0.52392 0.96159 0.38827 0.0
H711 H 0.50363 1.00839 0.39777 0.0
H712 H 0.50267 0.01612 0.37159 0.0
H713 H 0.54088 0.0577 0.38897 0.0
H714 H 0.71676 0.13053 0.36654 0.0
H715 H 0.70027 0.12818 0.33046 0.0
H716 H 0.55368 0.02541 0.33865 0.0
C717 C 0.59117 0.02712 0.41807 0.0
C718 C 0.62925 0.04589 0.43195 0.0
C719 C 0.67537 0.07852 0.42628 0.0
C720 C 0.68358 0.09253 0.40694 0.0
C721 C 0.64533 0.07317 0.39347 0.0
C722 C 0.60014 0.04092 0.39871 0.0
C723 C 0.56598 0.02363 0.38103 0.0
C724 C 0.54581 0.98077 0.37578 0.0
C725 C 0.52592 0.02666 0.38509 0.0
C726 C 0.59912 0.05087 0.36493 0.0
C727 C 0.64452 0.0797 0.3725 0.0
C728 C 0.68134 0.10815 0.36045 0.0
C729 C 0.67166 0.1067 0.34004 0.0
C730 C 0.6258 0.07664 0.3319 0.0
C731 C 0.58907 0.04862 0.34456 0.0
H732 H 0.58676 0.47634 0.77032 0.0
H733 H 0.65272 0.59438 0.79514 0.0
H734 H 0.67169 0.61918 0.76089 0.0
H735 H 0.67187 0.50566 0.73008 0.0
H736 H 0.62725 0.46762 0.71256 0.0
H737 H 0.61998 0.45983 0.73907 0.0
H738 H 0.53784 0.44461 0.73749 0.0
H739 H 0.54488 0.45244 0.71101 0.0
H740 H 0.53365 0.48015 0.72751 0.0
H741 H 0.67792 0.62956 0.72361 0.0
H742 H 0.67641 0.62583 0.68638 0.0
H743 H 0.61061 0.50159 0.68623 0.0
C744 C 0.6055 0.50746 0.76849 0.0
C745 C 0.61884 0.53373 0.78527 0.0
C746 C 0.64326 0.57415 0.78245 0.0
C747 C 0.65377 0.58833 0.76305 0.0
C748 C 0.64014 0.56163 0.74675 0.0
C749 C 0.61704 0.52212 0.7493 0.0
C750 C 0.60642 0.49952 0.72937 0.0
C751 C 0.63298 0.48214 0.72768 0.0
C752 C 0.5525 0.46729 0.72616 0.0
C753 C 0.62638 0.53232 0.71514 0.0
C754 C 0.64541 0.5679 0.72542 0.0
C755 C 0.66371 0.60199 0.71541 0.0
C756 C 0.6626 0.59962 0.69434 0.0
C757 C 0.6439 0.56356 0.68361 0.0
C758 C 0.62584 0.52963 0.69416 0.0
H759 H 0.61028 0.04687 0.54021 0.0
H760 H 0.45854 0.98467 0.53391 0.0
H761 H 0.44843 0.97275 0.57015 0.0
H762 H 0.60222 0.98466 0.57743 0.0
H763 H 0.65459 0.02534 0.59099 0.0
H764 H 0.64936 0.02725 0.56438 0.0
H765 H 0.66304 0.09321 0.57039 0.0
H766 H 0.66808 0.09144 0.597 0.0
H767 H 0.62495 0.09562 0.58742 0.0
H768 H 0.4551 0.9692 0.60703 0.0
H769 H 0.47818 0.97503 0.6424 0.0
H770 H 0.62582 0.04019 0.62488 0.0
C771 C 0.57492 0.03051 0.54647 0.0
C772 C 0.53511 0.01661 0.53437 0.0
C773 C 0.48943 0.99553 0.54301 0.0
C774 C 0.48335 0.98858 0.56354 0.0
C775 C 0.52336 1.00295 0.57514 0.0
C776 C 0.56827 0.02346 0.56695 0.0
C777 C 0.60551 0.0367 0.58286 0.0
C778 C 0.62931 0.01732 0.57866 0.0
C779 C 0.64257 0.08193 0.58451 0.0
C780 C 0.57461 0.02095 0.60132 0.0
C781 C 0.52729 1.00127 0.59649 0.0
C782 C 0.492 0.98436 0.611 0.0
C783 C 0.50541 0.9877 0.63102 0.0
C784 C 0.55373 1.008 0.63636 0.0
C785 C 0.58867 0.02478 0.62125 0.0
H786 H 0.69215 0.54058 0.90038 0.0
H787 H 0.54133 0.47734 0.89006 0.0
H788 H 0.52252 0.43176 0.9163 0.0
H789 H 0.68279 0.45288 0.9121 0.0
H790 H 0.72854 0.48013 0.93123 0.0
H791 H 0.73036 0.50477 0.90989 0.0
H792 H 0.73304 0.5556 0.93367 0.0
H793 H 0.73199 0.53153 0.95498 0.0
H794 H 0.68758 0.53825 0.95235 0.0
H795 H 0.51995 0.39835 0.94556 0.0
H796 H 0.53323 0.38381 0.97836 0.0
H797 H 0.68602 0.46608 0.96942 0.0
C798 C 0.65524 0.51694 0.90362 0.0
C799 C 0.61807 0.51212 0.89326 0.0
C800 C 0.57018 0.48117 0.89786 0.0
C801 C 0.55919 0.45497 0.91255 0.0
C802 C 0.59657 0.46007 0.92238 0.0
C803 C 0.64365 0.49037 0.91821 0.0
C804 C 0.67694 0.49145 0.93225 0.0
C805 C 0.70639 0.48172 0.92068 0.0
C806 C 0.70925 0.53157 0.94401 0.0
C807 C 0.64113 0.45862 0.94576 0.0
C808 C 0.59503 0.44022 0.93941 0.0
C809 C 0.55582 0.41185 0.9505 0.0
C810 C 0.56382 0.40352 0.96912 0.0
C811 C 0.61076 0.42372 0.97657 0.0
C812 C 0.64974 0.45013 0.96419 0.0
H813 H 0.10118 0.47657 0.22471 0.0
H814 H 0.12303 0.58575 0.21824 0.0
H815 H 0.1074 0.58812 0.25424 0.0
H816 H 1.01047 0.43556 0.26356 0.0
H817 H 1.03501 0.41692 0.27707 0.0
H818 H 1.04215 0.42101 0.25028 0.0
H819 H 0.13362 0.46392 0.25473 0.0
H820 H 0.12678 0.45993 0.2815 0.0
H821 H 0.16449 0.50785 0.27108 0.0
H822 H 0.09058 0.57936 0.29085 0.0
H823 H 1.08295 0.56427 0.32663 0.0
H824 H 1.0807 0.46493 0.3103 0.0
C825 C 0.10195 0.50062 0.23086 0.0
C826 C 0.11131 0.53012 0.21856 0.0
C827 C 0.11369 0.56187 0.22721 0.0
C828 C 0.10527 0.56365 0.24769 0.0
C829 C 0.09568 0.53394 0.2594 0.0
C830 C 0.09478 0.50336 0.25141 0.0
C831 C 0.08801 0.47728 0.26768 0.0
C832 C 1.04112 0.4352 0.26445 0.0
C833 C 0.13078 0.47727 0.26881 0.0
C834 C 1.08576 0.49826 0.28604 0.0
C835 C 0.08927 0.53039 0.28084 0.0
C836 C 0.08784 0.55432 0.29513 0.0
C837 C 1.08336 0.54551 0.31535 0.0
C838 C 1.08127 0.51354 0.32104 0.0
C839 C 1.08228 0.48954 0.30622 0.0
loop_
_geom_bond_atom_site_label_1
_geom_bond_atom_site_label_2
_geom_bond_distance
_geom_bond_site_symmetry_2
_ccdc_geom_bond_type
La0 C2 2.928 . S
La0 O20 2.521 . S
La0 O21 2.628 . S
La0 O22 2.554 . S
La0 O23 2.757 . S
La0 O24 2.470 . S
La0 O29 2.482 . S
La0 O31 2.503 1_455 S
La1 C11 2.928 . S
La1 O23 2.482 1_655 S
La1 O25 2.503 1_655 S
La1 O26 2.521 . S
La1 O27 2.628 . S
La1 O28 2.554 . S
La1 O29 2.757 1_655 S
La1 O30 2.470 . S
C2 La0 2.928 . S
C2 C3 1.503 . S
C2 O20 1.261 . S
C2 O21 1.243 . S
C3 C2 1.503 . S
C3 C4 1.394 . S
C3 C8 1.373 . S
C4 C3 1.394 . S
C4 C5 1.380 . S
C4 H32 0.930 . S
C5 C4 1.380 . S
C5 C6 1.376 . S
C5 H33 0.930 . S
C6 C5 1.376 . S
C6 C7 1.370 . S
C7 C6 1.370 . S
C7 C8 1.396 . S
C7 H34 0.929 . S
C8 C3 1.373 . S
C8 C7 1.396 . S
C8 H35 0.929 . S
C9 O22 1.240 . S
C9 O23 1.289 . S
C10 O24 1.258 . S
C10 O25 1.256 . S
C11 La1 2.928 . S
C11 C12 1.503 . S
C11 O26 1.261 . S
C11 O27 1.243 . S
C12 C11 1.503 . S
C12 C13 1.394 . S
C12 C17 1.373 . S
C13 C12 1.394 . S
C13 C14 1.380 . S
C13 H36 0.930 . S
C14 C13 1.380 . S
C14 C15 1.376 . S
C14 H37 0.930 . S
C15 C14 1.376 . S
C15 C16 1.370 . S
C16 C15 1.370 . S
C16 C17 1.396 . S
C16 H38 0.929 . S
C17 C12 1.373 . S
C17 C16 1.396 . S
C17 H39 0.929 . S
C18 O28 1.238 1_455 S
C18 O29 1.289 . S
C19 O30 1.258 . S
C19 O31 1.256 . S
O20 La0 2.521 . S
O20 C2 1.261 . S
O21 La0 2.628 . S
O21 C2 1.243 . S
O22 La0 2.554 . S
O22 C9 1.240 . S
O23 La0 2.757 . S
O23 La1 2.482 1_455 S
O23 C9 1.289 . S
O24 La0 2.470 . S
O24 C10 1.258 . S
O25 La1 2.503 1_455 S
O25 C10 1.256 . S
O26 La1 2.521 . S
O26 C11 1.261 . S
O27 La1 2.628 . S
O27 C11 1.243 . S
O28 La1 2.554 . S
O28 C18 1.238 1_655 S
O29 La0 2.482 . S
O29 La1 2.757 1_455 S
O29 C18 1.289 . S
O30 La1 2.470 . S
O30 C19 1.258 . S
O31 La0 2.503 1_655 S
O31 C19 1.256 . S
H32 C4 0.930 . S
H33 C5 0.930 . S
H34 C7 0.929 . S
H35 C8 0.929 . S
H36 C13 0.930 . S
H37 C14 0.930 . S
H38 C16 0.929 . S
H39 C17 0.929 . S
La40 C42 2.928 . S
La40 O60 2.521 . S
La40 O61 2.628 . S
La40 O62 2.554 . S
La40 O63 2.757 1_565 S
La40 O64 2.470 . S
La40 O69 2.498 . S
La40 O71 2.503 1_565 S
La41 C51 2.928 . S
La41 O63 2.482 . S
La41 O65 2.503 1_545 S
La41 O66 2.521 . S
La41 O67 2.628 . S
La41 O68 2.554 . S
La41 O69 2.731 1_545 S
La41 O70 2.470 . S
C42 La40 2.928 . S
C42 C43 1.503 . S
C42 O60 1.261 . S
C42 O61 1.243 . S
C43 C42 1.503 . S
C43 C44 1.394 . S
C43 C48 1.373 . S
C44 C43 1.394 . S
C44 C45 1.380 . S
C44 H72 0.930 . S
C45 C44 1.380 . S
C45 C46 1.376 . S
C45 H73 0.930 . S
C46 C45 1.376 . S
C46 C47 1.370 . S
C47 C46 1.370 . S
C47 C48 1.396 . S
C47 H74 0.929 . S
C48 C43 1.373 . S
C48 C47 1.396 . S
C48 H75 0.929 . S
C49 O62 1.240 1_545 S
C49 O63 1.289 . S
C50 O64 1.258 . S
C50 O65 1.256 . S
C51 La41 2.928 . S
C51 C52 1.503 . S
C51 O66 1.261 . S
C51 O67 1.243 . S
C52 C51 1.503 . S
C52 C53 1.394 . S
C52 C57 1.373 . S
C53 C52 1.394 . S
C53 C54 1.380 . S
C53 H76 0.930 . S
C54 C53 1.380 . S
C54 C55 1.376 . S
C54 H77 0.930 . S
C55 C54 1.376 . S
C55 C56 1.370 . S
C56 C55 1.370 . S
C56 C57 1.396 . S
C56 H78 0.929 . S
C57 C52 1.373 . S
C57 C56 1.396 . S
C57 H79 0.929 . S
C58 O68 1.240 . S
C58 O69 1.275 1_545 S
C59 O70 1.258 . S
C59 O71 1.256 . S
O60 La40 2.521 . S
O60 C42 1.261 . S
O61 La40 2.628 . S
O61 C42 1.243 . S
O62 La40 2.554 . S
O62 C49 1.240 1_565 S
O63 La40 2.757 1_545 S
O63 La41 2.482 . S
O63 C49 1.289 . S
O64 La40 2.470 . S
O64 C50 1.258 . S
O65 La41 2.503 1_565 S
O65 C50 1.256 . S
O66 La41 2.521 . S
O66 C51 1.261 . S
O67 La41 2.628 . S
O67 C51 1.243 . S
O68 La41 2.554 . S
O68 C58 1.240 . S
O69 La40 2.498 . S
O69 La41 2.731 1_565 S
O69 C58 1.275 1_565 S
O70 La41 2.470 . S
O70 C59 1.258 . S
O71 La40 2.503 1_545 S
O71 C59 1.256 . S
H72 C44 0.930 . S
H73 C45 0.930 . S
H74 C47 0.929 . S
H75 C48 0.929 . S
H76 C53 0.930 . S
H77 C54 0.930 . S
H78 C56 0.929 . S
H79 C57 0.929 . S
La80 C82 2.928 . S
La80 O100 2.521 . S
La80 O101 2.628 . S
La80 O102 2.554 . S
La80 O103 2.757 . S
La80 O104 2.470 . S
La80 O109 2.482 . S
La80 O111 2.503 . S
La81 C91 2.928 . S
La81 O103 2.482 . S
La81 O105 2.503 . S
La81 O106 2.521 . S
La81 O107 2.628 . S
La81 O108 2.554 . S
La81 O109 2.757 . S
La81 O110 2.470 . S
C82 La80 2.928 . S
C82 C83 1.503 . S
C82 O100 1.261 . S
C82 O101 1.243 . S
C83 C82 1.503 . S
C83 C84 1.394 . S
C83 C88 1.373 . S
C84 C83 1.394 . S
C84 C85 1.380 . S
C84 H112 0.930 . S
C85 C84 1.380 . S
C85 C86 1.376 . S
C85 H113 0.930 . S
C86 C85 1.376 . S
C86 C87 1.370 . S
C87 C86 1.370 . S
C87 C88 1.396 . S
C87 H114 0.929 . S
C88 C83 1.373 . S
C88 C87 1.396 . S
C88 H115 0.929 . S
C89 O102 1.240 . S
C89 O103 1.289 . S
C90 O104 1.258 . S
C90 O105 1.256 . S
C91 La81 2.928 . S
C91 C92 1.503 . S
C91 O106 1.261 . S
C91 O107 1.243 . S
C92 C91 1.503 . S
C92 C93 1.394 . S
C92 C97 1.373 . S
C93 C92 1.394 . S
C93 C94 1.380 . S
C93 H116 0.930 . S
C94 C93 1.380 . S
C94 C95 1.376 . S
C94 H117 0.930 . S
C95 C94 1.376 . S
C95 C96 1.370 . S
C96 C95 1.370 . S
C96 C97 1.396 . S
C96 H118 0.929 . S
C97 C92 1.373 . S
C97 C96 1.396 . S
C97 H119 0.929 . S
C98 O108 1.240 . S
C98 O109 1.289 . S
C99 O110 1.258 . S
C99 O111 1.256 . S
O100 La80 2.521 . S
O100 C82 1.261 . S
O101 La80 2.628 . S
O101 C82 1.243 . S
O102 La80 2.554 . S
O102 C89 1.240 . S
O103 La80 2.757 . S
O103 La81 2.482 . S
O103 C89 1.289 . S
O104 La80 2.470 . S
O104 C90 1.258 . S
O105 La81 2.503 . S
O105 C90 1.256 . S
O106 La81 2.521 . S
O106 C91 1.261 . S
O107 La81 2.628 . S
O107 C91 1.243 . S
O108 La81 2.554 . S
O108 C98 1.240 . S
O109 La80 2.482 . S
O109 La81 2.757 . S
O109 C98 1.289 . S
O110 La81 2.470 . S
O110 C99 1.258 . S
O111 La80 2.503 . S
O111 C99 1.256 . S
H112 C84 0.930 . S
H113 C85 0.930 . S
H114 C87 0.929 . S
H115 C88 0.929 . S
H116 C93 0.930 . S
H117 C94 0.930 . S
H118 C96 0.929 . S
H119 C97 0.929 . S
C120 C121 1.386 . S
C120 C122 1.397 . S
C120 H144 0.931 . S
C121 C120 1.386 . S
C121 C125 1.397 1_545 S
C122 C120 1.397 . S
C122 C123 1.384 . S
C122 H145 0.930 . S
C123 C122 1.384 . S
C123 C124 1.377 1_545 S
C123 C126 1.481 . S
C124 C123 1.377 1_565 S
C124 C125 1.389 . S
C124 H146 0.929 . S
C125 C121 1.397 1_565 S
C125 C124 1.389 . S
C125 H147 0.931 . S
C126 C123 1.481 . S
C126 C127 1.387 . S
C126 C131 1.390 1_545 S
C127 C126 1.387 . S
C127 C128 1.401 . S
C127 H148 0.930 . S
C128 C127 1.401 . S
C128 C129 1.376 . S
C128 C137 1.511 . S
C129 C128 1.376 . S
C129 C130 1.392 1_545 S
C129 H150 0.931 . S
C130 C129 1.392 1_565 S
C130 C131 1.361 . S
C130 C132 1.500 . S
C131 C126 1.390 1_565 S
C131 C130 1.361 . S
C131 H149 0.931 . S
C132 C130 1.500 . S
C132 C133 1.371 . S
C132 C134 1.365 . S
C133 C132 1.371 . S
C133 C143 1.386 . S
C133 H151 0.931 . S
C134 C132 1.365 . S
C134 C135 1.409 . S
C134 H152 0.929 . S
C135 C134 1.409 . S
C135 C136 1.380 . S
C135 H153 0.930 . S
C136 C135 1.380 . S
C136 C143 1.357 . S
C137 C128 1.511 . S
C137 C138 1.341 . S
C137 C139 1.371 . S
C138 C137 1.341 . S
C138 C142 1.394 . S
C138 H154 0.930 . S
C139 C137 1.371 . S
C139 C140 1.392 . S
C139 H155 0.931 . S
C140 C139 1.392 . S
C140 C141 1.331 . S
C140 H158 0.932 . S
C141 C140 1.331 . S
C141 C142 1.336 . S
C142 C138 1.394 . S
C142 C141 1.336 . S
C142 H157 0.929 . S
C143 C133 1.386 . S
C143 C136 1.357 . S
C143 H156 0.928 . S
H144 C120 0.931 . S
H145 C122 0.930 . S
H146 C124 0.929 . S
H147 C125 0.931 . S
H148 C127 0.930 . S
H149 C131 0.931 . S
H150 C129 0.931 . S
H151 C133 0.931 . S
H152 C134 0.929 . S
H153 C135 0.930 . S
H154 C138 0.930 . S
H155 C139 0.931 . S
H156 C143 0.928 . S
H157 C142 0.929 . S
H158 C140 0.932 . S
C159 C160 1.386 . S
C159 C161 1.397 . S
C159 H183 0.931 . S
C160 C159 1.386 . S
C160 C164 1.397 . S
C161 C159 1.397 . S
C161 C162 1.384 . S
C161 H184 0.930 . S
C162 C161 1.384 . S
C162 C163 1.377 . S
C162 C165 1.481 . S
C163 C162 1.377 . S
C163 C164 1.389 . S
C163 H185 0.929 . S
C164 C160 1.397 . S
C164 C163 1.389 . S
C164 H186 0.931 . S
C165 C162 1.481 . S
C165 C166 1.387 . S
C165 C170 1.390 . S
C166 C165 1.387 . S
C166 C167 1.401 . S
C166 H187 0.930 . S
C167 C166 1.401 . S
C167 C168 1.376 . S
C167 C176 1.511 . S
C168 C167 1.376 . S
C168 C169 1.392 . S
C168 H189 0.931 . S
C169 C168 1.392 . S
C169 C170 1.361 . S
C169 C171 1.500 . S
C170 C165 1.390 . S
C170 C169 1.361 . S
C170 H188 0.931 . S
C171 C169 1.500 . S
C171 C172 1.371 . S
C171 C173 1.365 . S
C172 C171 1.371 . S
C172 C182 1.386 . S
C172 H190 0.931 . S
C173 C171 1.365 . S
C173 C174 1.409 . S
C173 H191 0.929 . S
C174 C173 1.409 . S
C174 C175 1.380 . S
C174 H192 0.930 . S
C175 C174 1.380 . S
C175 C182 1.357 . S
C176 C167 1.511 . S
C176 C177 1.341 . S
C176 C178 1.371 . S
C177 C176 1.341 . S
C177 C181 1.394 . S
C177 H193 0.930 . S
C178 C176 1.371 . S
C178 C179 1.392 . S
C178 H194 0.931 . S
C179 C178 1.392 . S
C179 C180 1.331 . S
C179 H197 0.932 . S
C180 C179 1.331 . S
C180 C181 1.336 . S
C181 C177 1.394 . S
C181 C180 1.336 . S
C181 H196 0.929 . S
C182 C172 1.386 . S
C182 C175 1.357 . S
C182 H195 0.928 . S
H183 C159 0.931 . S
H184 C161 0.930 . S
H185 C163 0.929 . S
H186 C164 0.931 . S
H187 C166 0.930 . S
H188 C170 0.931 . S
H189 C168 0.931 . S
H190 C172 0.931 . S
H191 C173 0.929 . S
H192 C174 0.930 . S
H193 C177 0.930 . S
H194 C178 0.931 . S
H195 C182 0.928 . S
H196 C181 0.929 . S
H197 C179 0.932 . S
C198 C199 1.386 . S
C198 C200 1.397 . S
C198 H222 0.931 . S
C199 C198 1.386 . S
C199 C203 1.397 . S
C200 C198 1.397 . S
C200 C201 1.384 . S
C200 H223 0.930 . S
C201 C200 1.384 . S
C201 C202 1.377 . S
C201 C204 1.481 . S
C202 C201 1.377 . S
C202 C203 1.389 . S
C202 H224 0.929 1_455 S
C203 C199 1.397 . S
C203 C202 1.389 . S
C203 H225 0.931 1_455 S
C204 C201 1.481 . S
C204 C205 1.387 . S
C204 C209 1.390 . S
C205 C204 1.387 . S
C205 C206 1.401 . S
C205 H226 0.930 . S
C206 C205 1.401 . S
C206 C207 1.376 . S
C206 C215 1.511 . S
C207 C206 1.376 . S
C207 C208 1.392 . S
C207 H228 0.931 . S
C208 C207 1.392 . S
C208 C209 1.361 . S
C208 C210 1.500 1_455 S
C209 C204 1.390 . S
C209 C208 1.361 . S
C209 H227 0.931 1_455 S
C210 C208 1.500 1_655 S
C210 C211 1.371 . S
C210 C212 1.365 . S
C211 C210 1.371 . S
C211 C221 1.386 . S
C211 H229 0.931 1_655 S
C212 C210 1.365 . S
C212 C213 1.409 . S
C212 H230 0.929 . S
C213 C212 1.409 . S
C213 C214 1.380 . S
C213 H231 0.930 . S
C214 C213 1.380 . S
C214 C221 1.357 . S
C215 C206 1.511 . S
C215 C216 1.341 . S
C215 C217 1.371 . S
C216 C215 1.341 . S
C216 C220 1.394 . S
C216 H232 0.930 . S
C217 C215 1.371 . S
C217 C218 1.392 . S
C217 H233 0.931 . S
C218 C217 1.392 . S
C218 C219 1.331 . S
C218 H236 0.932 . S
C219 C218 1.331 . S
C219 C220 1.336 . S
C220 C216 1.394 . S
C220 C219 1.336 . S
C220 H235 0.929 . S
C221 C211 1.386 . S
C221 C214 1.357 . S
C221 H234 0.928 . S
H222 C198 0.931 . S
H223 C200 0.930 . S
H224 C202 0.929 1_655 S
H225 C203 0.931 1_655 S
H226 C205 0.930 . S
H227 C209 0.931 1_655 S
H228 C207 0.931 . S
H229 C211 0.931 1_455 S
H230 C212 0.929 . S
H231 C213 0.930 . S
H232 C216 0.930 . S
H233 C217 0.931 . S
H234 C221 0.928 . S
H235 C220 0.929 . S
H236 C218 0.932 . S
C237 C238 1.397 . S
C237 C239 1.397 . S
C237 H261 0.931 . S
C238 C237 1.397 . S
C238 C242 1.386 1_655 S
C239 C237 1.397 . S
C239 C240 1.384 . S
C239 H262 0.930 . S
C240 C239 1.384 . S
C240 C241 1.377 1_655 S
C240 C243 1.481 . S
C241 C240 1.377 1_455 S
C241 C242 1.389 . S
C241 H263 0.929 . S
C242 C238 1.386 1_455 S
C242 C241 1.389 . S
C242 H264 0.931 . S
C243 C240 1.481 . S
C243 C244 1.387 . S
C243 C248 1.390 1_655 S
C244 C243 1.387 . S
C244 C245 1.401 . S
C244 H265 0.930 . S
C245 C244 1.401 . S
C245 C246 1.376 . S
C245 C254 1.511 . S
C246 C245 1.376 . S
C246 C247 1.392 1_655 S
C246 H267 0.931 . S
C247 C246 1.392 1_455 S
C247 C248 1.361 . S
C247 C249 1.500 . S
C248 C243 1.390 1_455 S
C248 C247 1.361 . S
C248 H266 0.931 . S
C249 C247 1.500 . S
C249 C250 1.371 . S
C249 C251 1.365 . S
C250 C249 1.371 . S
C250 C260 1.386 . S
C250 H268 0.931 . S
C251 C249 1.365 . S
C251 C252 1.409 . S
C251 H269 0.929 . S
C252 C251 1.409 . S
C252 C253 1.380 . S
C252 H270 0.930 . S
C253 C252 1.380 . S
C253 C260 1.357 . S
C254 C245 1.511 . S
C254 C255 1.341 . S
C254 C256 1.371 . S
C255 C254 1.341 . S
C255 C259 1.394 . S
C255 H271 0.930 . S
C256 C254 1.371 . S
C256 C257 1.392 . S
C256 H272 0.931 . S
C257 C256 1.392 . S
C257 C258 1.331 . S
C257 H275 0.932 . S
C258 C257 1.331 . S
C258 C259 1.336 . S
C259 C255 1.394 . S
C259 C258 1.336 . S
C259 H274 0.929 . S
C260 C250 1.386 . S
C260 C253 1.357 . S
C260 H273 0.928 . S
H261 C237 0.931 . S
H262 C239 0.930 . S
H263 C241 0.929 . S
H264 C242 0.931 . S
H265 C244 0.930 . S
H266 C248 0.931 . S
H267 C246 0.931 . S
H268 C250 0.931 . S
H269 C251 0.929 . S
H270 C252 0.930 . S
H271 C255 0.930 . S
H272 C256 0.931 . S
H273 C260 0.928 . S
H274 C259 0.929 . S
H275 C257 0.932 . S
C276 C277 1.386 . S
C276 C278 1.397 . S
C276 H300 0.931 . S
C277 C276 1.386 . S
C277 C281 1.397 1_565 S
C278 C276 1.397 . S
C278 C279 1.404 . S
C278 H301 0.930 . S
C279 C278 1.404 . S
C279 C280 1.357 1_565 S
C279 C282 1.483 1_565 S
C280 C279 1.357 1_545 S
C280 C281 1.389 . S
C280 H302 0.929 . S
C281 C277 1.397 1_545 S
C281 C280 1.389 . S
C281 H303 0.931 . S
C282 C279 1.483 1_545 S
C282 C283 1.370 1_545 S
C282 C287 1.407 . S
C283 C282 1.370 1_565 S
C283 C284 1.401 . S
C283 H304 0.930 . S
C284 C283 1.401 . S
C284 C285 1.376 1_565 S
C284 C293 1.511 . S
C285 C284 1.376 1_545 S
C285 C286 1.392 . S
C285 H306 0.931 . S
C286 C285 1.392 . S
C286 C287 1.361 . S
C286 C288 1.500 . S
C287 C282 1.407 . S
C287 C286 1.361 . S
C287 H305 0.931 . S
C288 C286 1.500 . S
C288 C289 1.371 . S
C288 C290 1.365 . S
C289 C288 1.371 . S
C289 C299 1.386 . S
C289 H307 0.931 . S
C290 C288 1.365 . S
C290 C291 1.409 . S
C290 H308 0.929 . S
C291 C290 1.409 . S
C291 C292 1.380 . S
C291 H309 0.930 . S
C292 C291 1.380 . S
C292 C299 1.357 . S
C293 C284 1.511 . S
C293 C294 1.341 . S
C293 C295 1.371 . S
C294 C293 1.341 . S
C294 C298 1.394 . S
C294 H310 0.930 . S
C295 C293 1.371 . S
C295 C296 1.392 . S
C295 H311 0.931 . S
C296 C295 1.392 . S
C296 C297 1.331 . S
C296 H314 0.932 . S
C297 C296 1.331 . S
C297 C298 1.336 . S
C298 C294 1.394 . S
C298 C297 1.336 . S
C298 H313 0.929 . S
C299 C289 1.386 . S
C299 C292 1.357 . S
C299 H312 0.928 . S
H300 C276 0.931 . S
H301 C278 0.930 . S
H302 C280 0.929 . S
H303 C281 0.931 . S
H304 C283 0.930 . S
H305 C287 0.931 . S
H306 C285 0.931 . S
H307 C289 0.931 . S
H308 C290 0.929 . S
H309 C291 0.930 . S
H310 C294 0.930 . S
H311 C295 0.931 . S
H312 C299 0.928 . S
H313 C298 0.929 . S
H314 C296 0.932 . S
C315 C316 1.386 . S
C315 C317 1.397 . S
C315 H339 0.931 . S
C316 C315 1.386 . S
C316 C320 1.397 . S
C317 C315 1.397 . S
C317 C318 1.384 . S
C317 H340 0.930 . S
C318 C317 1.384 . S
C318 C319 1.377 . S
C318 C321 1.481 . S
C319 C318 1.377 . S
C319 C320 1.389 . S
C319 H341 0.929 . S
C320 C316 1.397 . S
C320 C319 1.389 . S
C320 H342 0.931 . S
C321 C318 1.481 . S
C321 C322 1.387 . S
C321 C326 1.390 . S
C322 C321 1.387 . S
C322 C323 1.401 . S
C322 H343 0.930 . S
C323 C322 1.401 . S
C323 C324 1.376 . S
C323 C332 1.511 . S
C324 C323 1.376 . S
C324 C325 1.392 . S
C324 H345 0.931 . S
C325 C324 1.392 . S
C325 C326 1.361 . S
C325 C327 1.500 . S
C326 C321 1.390 . S
C326 C325 1.361 . S
C326 H344 0.931 . S
C327 C325 1.500 . S
C327 C328 1.371 . S
C327 C329 1.365 . S
C328 C327 1.371 . S
C328 C338 1.386 . S
C328 H346 0.931 . S
C329 C327 1.365 . S
C329 C330 1.409 . S
C329 H347 0.929 . S
C330 C329 1.409 . S
C330 C331 1.380 . S
C330 H348 0.930 . S
C331 C330 1.380 . S
C331 C338 1.357 . S
C332 C323 1.511 . S
C332 C333 1.341 . S
C332 C334 1.371 . S
C333 C332 1.341 . S
C333 C337 1.394 . S
C333 H349 0.930 . S
C334 C332 1.371 . S
C334 C335 1.392 . S
C334 H350 0.931 . S
C335 C334 1.392 . S
C335 C336 1.331 . S
C335 H353 0.932 . S
C336 C335 1.331 . S
C336 C337 1.336 . S
C337 C333 1.394 . S
C337 C336 1.336 . S
C337 H352 0.929 . S
C338 C328 1.386 . S
C338 C331 1.357 . S
C338 H351 0.928 . S
H339 C315 0.931 . S
H340 C317 0.930 . S
H341 C319 0.929 . S
H342 C320 0.931 . S
H343 C322 0.930 . S
H344 C326 0.931 . S
H345 C324 0.931 . S
H346 C328 0.931 . S
H347 C329 0.929 . S
H348 C330 0.930 . S
H349 C333 0.930 . S
H350 C334 0.931 . S
H351 C338 0.928 . S
H352 C337 0.929 . S
H353 C335 0.932 . S
H354 C366 0.930 . S
H355 C368 0.930 . S
H356 C369 0.930 . S
H357 C373 0.959 . S
H358 C373 0.959 . S
H359 C373 0.961 . S
H360 C374 0.960 . S
H361 C374 0.961 . S
H362 C374 0.959 . S
H363 C377 0.929 . S
H364 C378 0.931 . S
H365 C380 0.930 . S
C366 H354 0.930 . S
C366 C367 1.399 . S
C366 C371 1.399 . S
C367 C366 1.399 . S
C367 C368 1.376 . S
C368 H355 0.930 . S
C368 C367 1.376 . S
C368 C369 1.388 . S
C369 H356 0.930 . S
C369 C368 1.388 . S
C369 C370 1.390 . S
C370 C369 1.390 . S
C370 C371 1.394 . S
C370 C376 1.465 . S
C371 C366 1.399 . S
C371 C370 1.394 . S
C371 C372 1.516 . S
C372 C371 1.516 . S
C372 C373 1.502 . S
C372 C374 1.561 . S
C372 C375 1.526 . S
C373 H357 0.959 . S
C373 H358 0.959 . S
C373 H359 0.961 . S
C373 C372 1.502 . S
C374 H360 0.960 . S
C374 H361 0.961 . S
C374 H362 0.959 . S
C374 C372 1.561 . S
C375 C372 1.526 . S
C375 C376 1.396 . S
C375 C380 1.390 . S
C376 C370 1.465 . S
C376 C375 1.396 . S
C376 C377 1.399 . S
C377 H363 0.929 . S
C377 C376 1.399 . S
C377 C378 1.385 . S
C378 H364 0.931 . S
C378 C377 1.385 . S
C378 C379 1.389 . S
C379 C378 1.389 . S
C379 C380 1.387 . S
C380 H365 0.930 . S
C380 C375 1.390 . S
C380 C379 1.387 . S
H381 C393 0.930 . S
H382 C395 0.930 . S
H383 C396 0.930 . S
H384 C400 0.959 . S
H385 C400 0.959 . S
H386 C400 0.961 . S
H387 C401 0.960 . S
H388 C401 0.961 . S
H389 C401 0.959 . S
H390 C404 0.929 . S
H391 C405 0.931 . S
H392 C407 0.930 . S
C393 H381 0.930 . S
C393 C394 1.399 . S
C393 C398 1.399 . S
C394 C393 1.399 . S
C394 C395 1.376 . S
C395 H382 0.930 . S
C395 C394 1.376 . S
C395 C396 1.388 . S
C396 H383 0.930 . S
C396 C395 1.388 . S
C396 C397 1.390 . S
C397 C396 1.390 . S
C397 C398 1.394 . S
C397 C403 1.465 . S
C398 C393 1.399 . S
C398 C397 1.394 . S
C398 C399 1.516 . S
C399 C398 1.516 . S
C399 C400 1.502 . S
C399 C401 1.561 . S
C399 C402 1.526 . S
C400 H384 0.959 . S
C400 H385 0.959 . S
C400 H386 0.961 . S
C400 C399 1.502 . S
C401 H387 0.960 . S
C401 H388 0.961 . S
C401 H389 0.959 . S
C401 C399 1.561 . S
C402 C399 1.526 . S
C402 C403 1.396 . S
C402 C407 1.390 . S
C403 C397 1.465 . S
C403 C402 1.396 . S
C403 C404 1.399 . S
C404 H390 0.929 . S
C404 C403 1.399 . S
C404 C405 1.385 . S
C405 H391 0.931 . S
C405 C404 1.385 . S
C405 C406 1.389 . S
C406 C405 1.389 . S
C406 C407 1.387 . S
C407 H392 0.930 . S
C407 C402 1.390 . S
C407 C406 1.387 . S
H408 C420 0.930 . S
H409 C422 0.930 . S
H410 C423 0.930 . S
H411 C427 0.959 . S
H412 C427 0.959 . S
H413 C427 0.961 . S
H414 C428 0.960 . S
H415 C428 0.961 . S
H416 C428 0.959 . S
H417 C431 0.929 . S
H418 C432 0.931 . S
H419 C434 0.930 . S
C420 H408 0.930 . S
C420 C421 1.399 . S
C420 C425 1.399 . S
C421 C420 1.399 . S
C421 C422 1.376 . S
C422 H409 0.930 . S
C422 C421 1.376 . S
C422 C423 1.388 . S
C423 H410 0.930 . S
C423 C422 1.388 . S
C423 C424 1.390 . S
C424 C423 1.390 . S
C424 C425 1.394 . S
C424 C430 1.465 . S
C425 C420 1.399 . S
C425 C424 1.394 . S
C425 C426 1.516 . S
C426 C425 1.516 . S
C426 C427 1.502 . S
C426 C428 1.561 . S
C426 C429 1.526 . S
C427 H411 0.959 . S
C427 H412 0.959 . S
C427 H413 0.961 . S
C427 C426 1.502 . S
C428 H414 0.960 . S
C428 H415 0.961 . S
C428 H416 0.959 . S
C428 C426 1.561 . S
C429 C426 1.526 . S
C429 C430 1.396 . S
C429 C434 1.390 . S
C430 C424 1.465 . S
C430 C429 1.396 . S
C430 C431 1.399 . S
C431 H417 0.929 . S
C431 C430 1.399 . S
C431 C432 1.385 . S
C432 H418 0.931 . S
C432 C431 1.385 . S
C432 C433 1.389 . S
C433 C432 1.389 . S
C433 C434 1.387 . S
C434 H419 0.930 . S
C434 C429 1.390 . S
C434 C433 1.387 . S
H435 C447 0.930 . S
H436 C449 0.930 . S
H437 C450 0.930 . S
H438 C454 0.959 . S
H439 C454 0.959 . S
H440 C454 0.961 . S
H441 C455 0.960 . S
H442 C455 0.961 . S
H443 C455 0.959 . S
H444 C458 0.929 . S
H445 C459 0.931 . S
H446 C461 0.930 . S
C447 H435 0.930 . S
C447 C448 1.399 . S
C447 C452 1.399 . S
C448 C447 1.399 . S
C448 C449 1.376 . S
C449 H436 0.930 . S
C449 C448 1.376 . S
C449 C450 1.388 . S
C450 H437 0.930 . S
C450 C449 1.388 . S
C450 C451 1.390 . S
C451 C450 1.390 . S
C451 C452 1.394 . S
C451 C457 1.465 . S
C452 C447 1.399 . S
C452 C451 1.394 . S
C452 C453 1.516 . S
C453 C452 1.516 . S
C453 C454 1.502 . S
C453 C455 1.561 . S
C453 C456 1.526 . S
C454 H438 0.959 . S
C454 H439 0.959 . S
C454 H440 0.961 . S
C454 C453 1.502 . S
C455 H441 0.960 . S
C455 H442 0.961 . S
C455 H443 0.959 . S
C455 C453 1.561 . S
C456 C453 1.526 . S
C456 C457 1.396 . S
C456 C461 1.390 . S
C457 C451 1.465 . S
C457 C456 1.396 . S
C457 C458 1.399 . S
C458 H444 0.929 . S
C458 C457 1.399 . S
C458 C459 1.385 . S
C459 H445 0.931 . S
C459 C458 1.385 . S
C459 C460 1.389 . S
C460 C459 1.389 . S
C460 C461 1.387 . S
C461 H446 0.930 . S
C461 C456 1.390 . S
C461 C460 1.387 . S
H462 C474 0.930 . S
H463 C476 0.930 . S
H464 C477 0.930 . S
H465 C481 0.959 . S
H466 C481 0.959 . S
H467 C481 0.961 . S
H468 C482 0.960 . S
H469 C482 0.961 . S
H470 C482 0.959 . S
H471 C485 0.929 . S
H472 C486 0.931 . S
H473 C488 0.930 . S
C474 H462 0.930 . S
C474 C475 1.399 . S
C474 C479 1.399 . S
C475 C474 1.399 . S
C475 C476 1.376 . S
C476 H463 0.930 . S
C476 C475 1.376 . S
C476 C477 1.388 . S
C477 H464 0.930 . S
C477 C476 1.388 . S
C477 C478 1.390 . S
C478 C477 1.390 . S
C478 C479 1.394 . S
C478 C484 1.465 . S
C479 C474 1.399 . S
C479 C478 1.394 . S
C479 C480 1.516 . S
C480 C479 1.516 . S
C480 C481 1.502 . S
C480 C482 1.561 . S
C480 C483 1.526 . S
C481 H465 0.959 . S
C481 H466 0.959 . S
C481 H467 0.961 . S
C481 C480 1.502 . S
C482 H468 0.960 . S
C482 H469 0.961 . S
C482 H470 0.959 . S
C482 C480 1.561 . S
C483 C480 1.526 . S
C483 C484 1.396 . S
C483 C488 1.390 . S
C484 C478 1.465 . S
C484 C483 1.396 . S
C484 C485 1.399 . S
C485 H471 0.929 . S
C485 C484 1.399 . S
C485 C486 1.385 . S
C486 H472 0.931 . S
C486 C485 1.385 . S
C486 C487 1.389 . S
C487 C486 1.389 . S
C487 C488 1.387 . S
C488 H473 0.930 . S
C488 C483 1.390 . S
C488 C487 1.387 . S
H489 C501 0.930 . S
H490 C503 0.930 . S
H491 C504 0.930 . S
H492 C508 0.959 . S
H493 C508 0.959 . S
H494 C508 0.961 . S
H495 C509 0.960 . S
H496 C509 0.961 . S
H497 C509 0.959 . S
H498 C512 0.929 . S
H499 C513 0.931 . S
H500 C515 0.930 . S
C501 H489 0.930 . S
C501 C502 1.399 . S
C501 C506 1.399 . S
C502 C501 1.399 . S
C502 C503 1.376 . S
C503 H490 0.930 . S
C503 C502 1.376 . S
C503 C504 1.388 . S
C504 H491 0.930 . S
C504 C503 1.388 . S
C504 C505 1.390 . S
C505 C504 1.390 . S
C505 C506 1.394 . S
C505 C511 1.465 . S
C506 C501 1.399 . S
C506 C505 1.394 . S
C506 C507 1.516 . S
C507 C506 1.516 . S
C507 C508 1.502 . S
C507 C509 1.561 . S
C507 C510 1.526 . S
C508 H492 0.959 . S
C508 H493 0.959 . S
C508 H494 0.961 . S
C508 C507 1.502 . S
C509 H495 0.960 . S
C509 H496 0.961 . S
C509 H497 0.959 . S
C509 C507 1.561 . S
C510 C507 1.526 . S
C510 C511 1.396 . S
C510 C515 1.390 . S
C511 C505 1.465 . S
C511 C510 1.396 . S
C511 C512 1.399 . S
C512 H498 0.929 . S
C512 C511 1.399 . S
C512 C513 1.385 . S
C513 H499 0.931 . S
C513 C512 1.385 . S
C513 C514 1.389 . S
C514 C513 1.389 . S
C514 C515 1.387 . S
C515 H500 0.930 . S
C515 C510 1.390 . S
C515 C514 1.387 . S
H516 C528 0.930 . S
H517 C530 0.930 . S
H518 C531 0.930 . S
H519 C535 0.959 . S
H520 C535 0.959 . S
H521 C535 0.961 . S
H522 C536 0.960 . S
H523 C536 0.961 . S
H524 C536 0.959 . S
H525 C539 0.929 . S
H526 C540 0.931 . S
H527 C542 0.930 . S
C528 H516 0.930 . S
C528 C529 1.399 . S
C528 C533 1.399 . S
C529 C528 1.399 . S
C529 C530 1.376 . S
C530 H517 0.930 . S
C530 C529 1.376 . S
C530 C531 1.388 . S
C531 H518 0.930 . S
C531 C530 1.388 . S
C531 C532 1.390 . S
C532 C531 1.390 . S
C532 C533 1.394 . S
C532 C538 1.465 . S
C533 C528 1.399 . S
C533 C532 1.394 . S
C533 C534 1.516 . S
C534 C533 1.516 . S
C534 C535 1.502 . S
C534 C536 1.561 . S
C534 C537 1.526 . S
C535 H519 0.959 . S
C535 H520 0.959 . S
C535 H521 0.961 . S
C535 C534 1.502 . S
C536 H522 0.960 . S
C536 H523 0.961 . S
C536 H524 0.959 . S
C536 C534 1.561 . S
C537 C534 1.526 . S
C537 C538 1.396 . S
C537 C542 1.390 . S
C538 C532 1.465 . S
C538 C537 1.396 . S
C538 C539 1.399 . S
C539 H525 0.929 . S
C539 C538 1.399 . S
C539 C540 1.385 . S
C540 H526 0.931 . S
C540 C539 1.385 . S
C540 C541 1.389 . S
C541 C540 1.389 . S
C541 C542 1.387 . S
C542 H527 0.930 . S
C542 C537 1.390 . S
C542 C541 1.387 . S
H543 C555 0.930 . S
H544 C557 0.930 . S
H545 C558 0.930 . S
H546 C562 0.959 . S
H547 C562 0.959 . S
H548 C562 0.961 . S
H549 C563 0.960 . S
H550 C563 0.961 . S
H551 C563 0.959 . S
H552 C566 0.929 . S
H553 C567 0.931 . S
H554 C569 0.930 . S
C555 H543 0.930 . S
C555 C556 1.399 . S
C555 C560 1.399 . S
C556 C555 1.399 . S
C556 C557 1.376 . S
C557 H544 0.930 . S
C557 C556 1.376 . S
C557 C558 1.388 . S
C558 H545 0.930 . S
C558 C557 1.388 . S
C558 C559 1.390 . S
C559 C558 1.390 . S
C559 C560 1.394 . S
C559 C565 1.465 . S
C560 C555 1.399 . S
C560 C559 1.394 . S
C560 C561 1.516 . S
C561 C560 1.516 . S
C561 C562 1.502 . S
C561 C563 1.561 . S
C561 C564 1.526 . S
C562 H546 0.959 . S
C562 H547 0.959 . S
C562 H548 0.961 . S
C562 C561 1.502 . S
C563 H549 0.960 . S
C563 H550 0.961 . S
C563 H551 0.959 . S
C563 C561 1.561 . S
C564 C561 1.526 . S
C564 C565 1.396 . S
C564 C569 1.390 . S
C565 C559 1.465 . S
C565 C564 1.396 . S
C565 C566 1.399 . S
C566 H552 0.929 . S
C566 C565 1.399 . S
C566 C567 1.385 . S
C567 H553 0.931 . S
C567 C566 1.385 . S
C567 C568 1.389 . S
C568 C567 1.389 . S
C568 C569 1.387 . S
C569 H554 0.930 . S
C569 C564 1.390 . S
C569 C568 1.387 . S
H570 C582 0.930 . S
H571 C584 0.930 . S
H572 C585 0.930 . S
H573 C589 0.959 . S
H574 C589 0.959 . S
H575 C589 0.961 . S
H576 C590 0.960 . S
H577 C590 0.961 . S
H578 C590 0.959 . S
H579 C593 0.929 . S
H580 C594 0.931 . S
H581 C596 0.930 . S
C582 H570 0.930 . S
C582 C583 1.399 . S
C582 C587 1.399 . S
C583 C582 1.399 . S
C583 C584 1.376 . S
C584 H571 0.930 . S
C584 C583 1.376 . S
C584 C585 1.388 . S
C585 H572 0.930 . S
C585 C584 1.388 . S
C585 C586 1.390 . S
C586 C585 1.390 . S
C586 C587 1.394 . S
C586 C592 1.465 . S
C587 C582 1.399 . S
C587 C586 1.394 . S
C587 C588 1.516 . S
C588 C587 1.516 . S
C588 C589 1.502 . S
C588 C590 1.561 . S
C588 C591 1.526 . S
C589 H573 0.959 . S
C589 H574 0.959 . S
C589 H575 0.961 . S
C589 C588 1.502 . S
C590 H576 0.960 . S
C590 H577 0.961 . S
C590 H578 0.959 . S
C590 C588 1.561 . S
C591 C588 1.526 . S
C591 C592 1.396 . S
C591 C596 1.390 . S
C592 C586 1.465 . S
C592 C591 1.396 . S
C592 C593 1.399 . S
C593 H579 0.929 . S
C593 C592 1.399 . S
C593 C594 1.385 . S
C594 H580 0.931 . S
C594 C593 1.385 . S
C594 C595 1.389 . S
C595 C594 1.389 . S
C595 C596 1.387 . S
C596 H581 0.930 . S
C596 C591 1.390 . S
C596 C595 1.387 . S
H597 C609 0.930 . S
H598 C611 0.930 . S
H599 C612 0.930 . S
H600 C616 0.959 . S
H601 C616 0.959 . S
H602 C616 0.961 . S
H603 C617 0.960 . S
H604 C617 0.961 . S
H605 C617 0.959 . S
H606 C620 0.929 . S
H607 C621 0.931 . S
H608 C623 0.930 . S
C609 H597 0.930 . S
C609 C610 1.399 . S
C609 C614 1.399 . S
C610 C609 1.399 . S
C610 C611 1.376 . S
C611 H598 0.930 . S
C611 C610 1.376 . S
C611 C612 1.388 . S
C612 H599 0.930 . S
C612 C611 1.388 . S
C612 C613 1.390 . S
C613 C612 1.390 . S
C613 C614 1.394 . S
C613 C619 1.465 . S
C614 C609 1.399 . S
C614 C613 1.394 . S
C614 C615 1.516 . S
C615 C614 1.516 . S
C615 C616 1.502 . S
C615 C617 1.561 . S
C615 C618 1.526 . S
C616 H600 0.959 . S
C616 H601 0.959 . S
C616 H602 0.961 . S
C616 C615 1.502 . S
C617 H603 0.960 . S
C617 H604 0.961 . S
C617 H605 0.959 . S
C617 C615 1.561 . S
C618 C615 1.526 . S
C618 C619 1.396 . S
C618 C623 1.390 . S
C619 C613 1.465 . S
C619 C618 1.396 . S
C619 C620 1.399 . S
C620 H606 0.929 . S
C620 C619 1.399 . S
C620 C621 1.385 . S
C621 H607 0.931 . S
C621 C620 1.385 . S
C621 C622 1.389 . S
C622 C621 1.389 . S
C622 C623 1.387 . S
C623 H608 0.930 . S
C623 C618 1.390 . S
C623 C622 1.387 . S
H624 C636 0.930 . S
H625 C638 0.930 . S
H626 C639 0.930 . S
H627 C643 0.959 . S
H628 C643 0.959 . S
H629 C643 0.961 . S
H630 C644 0.960 . S
H631 C644 0.961 . S
H632 C644 0.959 . S
H633 C647 0.929 . S
H634 C648 0.931 . S
H635 C650 0.930 . S
C636 H624 0.930 . S
C636 C637 1.399 . S
C636 C641 1.399 . S
C637 C636 1.399 . S
C637 C638 1.376 . S
C638 H625 0.930 . S
C638 C637 1.376 . S
C638 C639 1.388 . S
C639 H626 0.930 . S
C639 C638 1.388 . S
C639 C640 1.390 . S
C640 C639 1.390 . S
C640 C641 1.394 . S
C640 C646 1.465 . S
C641 C636 1.399 . S
C641 C640 1.394 . S
C641 C642 1.516 . S
C642 C641 1.516 . S
C642 C643 1.502 . S
C642 C644 1.561 . S
C642 C645 1.526 . S
C643 H627 0.959 . S
C643 H628 0.959 . S
C643 H629 0.961 . S
C643 C642 1.502 . S
C644 H630 0.960 . S
C644 H631 0.961 . S
C644 H632 0.959 . S
C644 C642 1.561 . S
C645 C642 1.526 . S
C645 C646 1.396 . S
C645 C650 1.390 . S
C646 C640 1.465 . S
C646 C645 1.396 . S
C646 C647 1.399 . S
C647 H633 0.929 . S
C647 C646 1.399 . S
C647 C648 1.385 . S
C648 H634 0.931 . S
C648 C647 1.385 . S
C648 C649 1.389 . S
C649 C648 1.389 . S
C649 C650 1.387 . S
C650 H635 0.930 . S
C650 C645 1.390 . S
C650 C649 1.387 . S
H651 C663 0.930 . S
H652 C665 0.930 . S
H653 C666 0.930 . S
H654 C670 0.959 . S
H655 C670 0.959 . S
H656 C670 0.961 . S
H657 C671 0.960 . S
H658 C671 0.961 . S
H659 C671 0.959 . S
H660 C674 0.929 . S
H661 C675 0.931 . S
H662 C677 0.930 . S
C663 H651 0.930 . S
C663 C664 1.399 . S
C663 C668 1.399 . S
C664 C663 1.399 . S
C664 C665 1.376 . S
C665 H652 0.930 . S
C665 C664 1.376 . S
C665 C666 1.388 . S
C666 H653 0.930 . S
C666 C665 1.388 . S
C666 C667 1.390 . S
C667 C666 1.390 . S
C667 C668 1.394 . S
C667 C673 1.465 . S
C668 C663 1.399 . S
C668 C667 1.394 . S
C668 C669 1.516 . S
C669 C668 1.516 . S
C669 C670 1.502 . S
C669 C671 1.561 . S
C669 C672 1.526 . S
C670 H654 0.959 . S
C670 H655 0.959 . S
C670 H656 0.961 . S
C670 C669 1.502 . S
C671 H657 0.960 . S
C671 H658 0.961 . S
C671 H659 0.959 . S
C671 C669 1.561 . S
C672 C669 1.526 . S
C672 C673 1.396 . S
C672 C677 1.390 . S
C673 C667 1.465 . S
C673 C672 1.396 . S
C673 C674 1.399 . S
C674 H660 0.929 . S
C674 C673 1.399 . S
C674 C675 1.385 . S
C675 H661 0.931 . S
C675 C674 1.385 . S
C675 C676 1.389 . S
C676 C675 1.389 . S
C676 C677 1.387 . S
C677 H662 0.930 . S
C677 C672 1.390 . S
C677 C676 1.387 . S
H678 C690 0.930 . S
H679 C692 0.930 . S
H680 C693 0.930 . S
H681 C697 0.959 . S
H682 C697 0.959 . S
H683 C697 0.961 . S
H684 C698 0.960 . S
H685 C698 0.961 . S
H686 C698 0.959 . S
H687 C701 0.929 . S
H688 C702 0.960 . S
H689 C704 0.930 . S
C690 H678 0.930 . S
C690 C691 1.399 . S
C690 C695 1.399 . S
C691 C690 1.399 . S
C691 C692 1.376 . S
C692 H679 0.930 . S
C692 C691 1.376 . S
C692 C693 1.388 . S
C693 H680 0.930 . S
C693 C692 1.388 . S
C693 C694 1.390 . S
C694 C693 1.390 . S
C694 C695 1.394 . S
C694 C700 1.465 . S
C695 C690 1.399 . S
C695 C694 1.394 . S
C695 C696 1.516 . S
C696 C695 1.516 . S
C696 C697 1.502 . S
C696 C698 1.561 1_455 S
C696 C699 1.526 . S
C697 H681 0.959 . S
C697 H682 0.959 . S
C697 H683 0.961 . S
C697 C696 1.502 . S
C698 H684 0.960 . S
C698 H685 0.961 . S
C698 H686 0.959 . S
C698 C696 1.561 1_655 S
C699 C696 1.526 . S
C699 C700 1.396 . S
C699 C704 1.390 . S
C700 C694 1.465 . S
C700 C699 1.396 . S
C700 C701 1.399 . S
C701 H687 0.929 . S
C701 C700 1.399 . S
C701 C702 1.385 . S
C702 H688 0.960 . S
C702 C701 1.385 . S
C702 C703 1.398 . S
C703 C702 1.398 . S
C703 C704 1.401 . S
C704 H689 0.930 . S
C704 C699 1.390 . S
C704 C703 1.401 . S
H705 C717 0.930 . S
H706 C719 0.930 . S
H707 C720 0.930 . S
H708 C724 0.959 . S
H709 C724 0.959 . S
H710 C724 0.961 . S
H711 C725 0.960 . S
H712 C725 0.961 . S
H713 C725 0.959 1_545 S
H714 C728 0.929 . S
H715 C729 0.931 . S
H716 C731 0.930 . S
C717 H705 0.930 . S
C717 C718 1.399 1_565 S
C717 C722 1.396 1_565 S
C718 C717 1.399 1_545 S
C718 C719 1.376 . S
C719 H706 0.930 . S
C719 C718 1.376 . S
C719 C720 1.388 . S
C720 H707 0.930 . S
C720 C719 1.388 . S
C720 C721 1.390 . S
C721 C720 1.390 . S
C721 C722 1.401 . S
C721 C727 1.465 . S
C722 C717 1.396 1_545 S
C722 C721 1.401 . S
C722 C723 1.513 1_545 S
C723 C722 1.513 1_565 S
C723 C724 1.502 . S
C723 C725 1.561 . S
C723 C726 1.526 1_565 S
C724 H708 0.959 . S
C724 H709 0.959 . S
C724 H710 0.961 . S
C724 C723 1.502 . S
C725 H711 0.960 . S
C725 H712 0.961 . S
C725 H713 0.959 1_565 S
C725 C723 1.561 . S
C726 C723 1.526 1_545 S
C726 C727 1.396 . S
C726 C731 1.390 1_545 S
C727 C721 1.465 . S
C727 C726 1.396 . S
C727 C728 1.399 . S
C728 H714 0.929 . S
C728 C727 1.399 . S
C728 C729 1.385 . S
C729 H715 0.931 . S
C729 C728 1.385 . S
C729 C730 1.389 . S
C730 C729 1.389 . S
C730 C731 1.387 1_545 S
C731 H716 0.930 . S
C731 C726 1.390 1_565 S
C731 C730 1.387 1_565 S
H732 C744 0.930 . S
H733 C746 0.930 . S
H734 C747 0.930 . S
H735 C751 0.959 . S
H736 C751 0.959 . S
H737 C751 0.961 . S
H738 C752 0.960 . S
H739 C752 0.961 . S
H740 C752 0.959 . S
H741 C755 0.929 . S
H742 C756 0.931 . S
H743 C758 0.930 . S
C744 H732 0.930 . S
C744 C745 1.399 . S
C744 C749 1.399 . S
C745 C744 1.399 . S
C745 C746 1.376 . S
C746 H733 0.930 . S
C746 C745 1.376 . S
C746 C747 1.388 . S
C747 H734 0.930 . S
C747 C746 1.388 . S
C747 C748 1.390 . S
C748 C747 1.390 . S
C748 C749 1.394 . S
C748 C754 1.465 . S
C749 C744 1.399 . S
C749 C748 1.394 . S
C749 C750 1.516 . S
C750 C749 1.516 . S
C750 C751 1.502 . S
C750 C752 1.561 . S
C750 C753 1.526 . S
C751 H735 0.959 . S
C751 H736 0.959 . S
C751 H737 0.961 . S
C751 C750 1.502 . S
C752 H738 0.960 . S
C752 H739 0.961 . S
C752 H740 0.959 . S
C752 C750 1.561 . S
C753 C750 1.526 . S
C753 C754 1.396 . S
C753 C758 1.390 . S
C754 C748 1.465 . S
C754 C753 1.396 . S
C754 C755 1.399 . S
C755 H741 0.929 . S
C755 C754 1.399 . S
C755 C756 1.385 . S
C756 H742 0.931 . S
C756 C755 1.385 . S
C756 C757 1.389 . S
C757 C756 1.389 . S
C757 C758 1.387 . S
C758 H743 0.930 . S
C758 C753 1.390 . S
C758 C757 1.387 . S
H759 C771 0.930 . S
H760 C773 0.930 . S
H761 C774 0.930 . S
H762 C778 0.959 . S
H763 C778 0.959 . S
H764 C778 0.961 . S
H765 C779 0.960 . S
H766 C779 0.961 . S
H767 C779 0.959 . S
H768 C782 0.929 . S
H769 C783 0.931 . S
H770 C785 0.930 . S
C771 H759 0.930 . S
C771 C772 1.399 . S
C771 C776 1.399 . S
C772 C771 1.399 . S
C772 C773 1.376 1_545 S
C773 H760 0.930 . S
C773 C772 1.376 1_565 S
C773 C774 1.388 . S
C774 H761 0.930 . S
C774 C773 1.388 . S
C774 C775 1.390 . S
C775 C774 1.390 . S
C775 C776 1.394 1_565 S
C775 C781 1.465 . S
C776 C771 1.399 . S
C776 C775 1.394 1_545 S
C776 C777 1.516 . S
C777 C776 1.516 . S
C777 C778 1.502 . S
C777 C779 1.561 . S
C777 C780 1.526 . S
C778 H762 0.959 . S
C778 H763 0.959 . S
C778 H764 0.961 . S
C778 C777 1.502 . S
C779 H765 0.960 . S
C779 H766 0.961 . S
C779 H767 0.959 . S
C779 C777 1.561 . S
C780 C777 1.526 . S
C780 C781 1.396 1_545 S
C780 C785 1.390 . S
C781 C775 1.465 . S
C781 C780 1.396 1_565 S
C781 C782 1.399 . S
C782 H768 0.929 . S
C782 C781 1.399 . S
C782 C783 1.385 . S
C783 H769 0.931 . S
C783 C782 1.385 . S
C783 C784 1.389 . S
C784 C783 1.389 . S
C784 C785 1.387 1_565 S
C785 H770 0.930 . S
C785 C780 1.390 . S
C785 C784 1.387 1_545 S
H786 C798 0.930 . S
H787 C800 0.930 . S
H788 C801 0.930 . S
H789 C805 0.959 . S
H790 C805 0.959 . S
H791 C805 0.961 . S
H792 C806 0.960 . S
H793 C806 0.961 . S
H794 C806 0.959 . S
H795 C809 0.929 . S
H796 C810 0.931 . S
H797 C812 0.930 . S
C798 H786 0.930 . S
C798 C799 1.399 . S
C798 C803 1.399 . S
C799 C798 1.399 . S
C799 C800 1.376 . S
C800 H787 0.930 . S
C800 C799 1.376 . S
C800 C801 1.388 . S
C801 H788 0.930 . S
C801 C800 1.388 . S
C801 C802 1.390 . S
C802 C801 1.390 . S
C802 C803 1.394 . S
C802 C808 1.465 . S
C803 C798 1.399 . S
C803 C802 1.394 . S
C803 C804 1.516 . S
C804 C803 1.516 . S
C804 C805 1.502 . S
C804 C806 1.561 . S
C804 C807 1.526 . S
C805 H789 0.959 . S
C805 H790 0.959 . S
C805 H791 0.961 . S
C805 C804 1.502 . S
C806 H792 0.960 . S
C806 H793 0.961 . S
C806 H794 0.959 . S
C806 C804 1.561 . S
C807 C804 1.526 . S
C807 C808 1.396 . S
C807 C812 1.390 . S
C808 C802 1.465 . S
C808 C807 1.396 . S
C808 C809 1.399 . S
C809 H795 0.929 . S
C809 C808 1.399 . S
C809 C810 1.385 . S
C810 H796 0.931 . S
C810 C809 1.385 . S
C810 C811 1.389 . S
C811 C810 1.389 . S
C811 C812 1.387 . S
C812 H797 0.930 . S
C812 C807 1.390 . S
C812 C811 1.387 . S
H813 C825 0.930 . S
H814 C827 0.930 . S
H815 C828 0.930 . S
H816 C832 0.959 . S
H817 C832 0.959 . S
H818 C832 0.961 . S
H819 C833 0.960 . S
H820 C833 0.961 . S
H821 C833 0.959 1_455 S
H822 C836 0.929 . S
H823 C837 0.931 . S
H824 C839 0.930 . S
C825 H813 0.930 . S
C825 C826 1.399 1_655 S
C825 C830 1.399 . S
C826 C825 1.399 1_455 S
C826 C827 1.376 . S
C827 H814 0.930 . S
C827 C826 1.376 . S
C827 C828 1.388 . S
C828 H815 0.930 . S
C828 C827 1.388 . S
C828 C829 1.390 . S
C829 C828 1.390 . S
C829 C830 1.394 1_455 S
C829 C835 1.465 . S
C830 C825 1.399 . S
C830 C829 1.394 1_655 S
C830 C831 1.516 . S
C831 C830 1.516 . S
C831 C832 1.502 . S
C831 C833 1.561 . S
C831 C834 1.526 . S
C832 H816 0.959 . S
C832 H817 0.959 . S
C832 H818 0.961 . S
C832 C831 1.502 . S
C833 H819 0.960 . S
C833 H820 0.961 . S
C833 H821 0.959 1_655 S
C833 C831 1.561 . S
C834 C831 1.526 . S
C834 C835 1.396 1_655 S
C834 C839 1.390 . S
C835 C829 1.465 . S
C835 C834 1.396 1_455 S
C835 C836 1.399 . S
C836 H822 0.929 . S
C836 C835 1.399 . S
C836 C837 1.385 . S
C837 H823 0.931 . S
C837 C836 1.385 . S
C837 C838 1.389 . S
C838 C837 1.389 . S
C838 C839 1.387 1_455 S
C839 H824 0.930 . S
C839 C834 1.390 . S
C839 C838 1.387 1_655 S
C367 C6 0.510 . S
C379 C331 0.541 . S
C394 C59 1.916 . S
C406 C258 1.916 . S
C421 C86 1.208 . S
C433 C297 1.220 . S
C448 C15 0.446 . S
C460 C336 0.348 . S
C487 C253 1.948 . S
C475 C50 1.994 . S
C514 C292 1.313 . S
C502 C95 1.313 . S
C529 C46 1.178 . S
C541 C180 1.204 . S
C556 C99 3.125 . S
C568 C214 3.070 . S
C583 C10 2.060 . S
C595 C136 2.023 . S
C622 C175 1.285 . S
C610 C55 1.278 . S
C649 C219 2.996 . S
C637 C90 3.014 . S
C664 C19 1.906 . S
C676 C141 1.881 . S
C703 C199 1.749 1_554 S
C691 C18 1.660 . S
C718 C49 1.332 . S
C730 C121 1.373 . S
C745 C98 1.471 . S
C757 C160 1.503 . S
C784 C277 1.485 . S
C772 C58 1.412 . S
C811 C316 1.098 1_556 S
C799 C89 1.091 . S
C826 C9 1.306 . S
C838 C238 1.355 1_455 S
