# Generated by pormake.
# Topology anh, (6,3)-cn, num edge types: 1
# Building blocks:
#     Node 0, Type 0, BuildingBlock: VOLQOD_clean_sbu_1, # of connection points: 6
#     Node 1, Type 0, BuildingBlock: VOLQOD_clean_sbu_1, # of connection points: 6
#     Node 2, Type 0, BuildingBlock: VOLQOD_clean_sbu_1, # of connection points: 6
#     Node 3, Type 1, BuildingBlock: ESEHIV_clean_linker_0, # of connection points: 3
#     Node 4, Type 1, BuildingBlock: ESEHIV_clean_linker_0, # of connection points: 3
#     Node 5, Type 1, BuildingBlock: ESEHIV_clean_linker_0, # of connection points: 3
#     Node 6, Type 1, BuildingBlock: ESEHIV_clean_linker_0, # of connection points: 3
#     Node 7, Type 1, BuildingBlock: ESEHIV_clean_linker_0, # of connection points: 3
#     Node 8, Type 1, BuildingBlock: ESEHIV_clean_linker_0, # of connection points: 3
#     Edge 9, Type (0, 1), BuildingBlock: XUDNAN_clean_linker_2, # of connection points: 2
#     Edge 10, Type (0, 1), BuildingBlock: XUDNAN_clean_linker_2, # of connection points: 2
#     Edge 11, Type (0, 1), BuildingBlock: XUDNAN_clean_linker_2, # of connection points: 2
#     Edge 12, Type (0, 1), BuildingBlock: XUDNAN_clean_linker_2, # of connection points: 2
#     Edge 13, Type (0, 1), BuildingBlock: XUDNAN_clean_linker_2, # of connection points: 2
#     Edge 14, Type (0, 1), BuildingBlock: XUDNAN_clean_linker_2, # of connection points: 2
#     Edge 15, Type (0, 1), BuildingBlock: XUDNAN_clean_linker_2, # of connection points: 2
#     Edge 16, Type (0, 1), BuildingBlock: XUDNAN_clean_linker_2, # of connection points: 2
#     Edge 17, Type (0, 1), BuildingBlock: XUDNAN_clean_linker_2, # of connection points: 2
#     Edge 18, Type (0, 1), BuildingBlock: XUDNAN_clean_linker_2, # of connection points: 2
#     Edge 19, Type (0, 1), BuildingBlock: XUDNAN_clean_linker_2, # of connection points: 2
#     Edge 20, Type (0, 1), BuildingBlock: XUDNAN_clean_linker_2, # of connection points: 2
#     Edge 21, Type (0, 1), BuildingBlock: XUDNAN_clean_linker_2, # of connection points: 2
#     Edge 22, Type (0, 1), BuildingBlock: XUDNAN_clean_linker_2, # of connection points: 2
#     Edge 23, Type (0, 1), BuildingBlock: XUDNAN_clean_linker_2, # of connection points: 2
#     Edge 24, Type (0, 1), BuildingBlock: XUDNAN_clean_linker_2, # of connection points: 2
#     Edge 25, Type (0, 1), BuildingBlock: XUDNAN_clean_linker_2, # of connection points: 2
#     Edge 26, Type (0, 1), BuildingBlock: XUDNAN_clean_linker_2, # of connection points: 2
# Relax obj value: 0.167
# Max RMSD: 0.230
# Mean RMSD: 0.114
data_MOF--net-anh--node1-VOLQOD_clean_sbu_1--node2-ESEHIV_clean_linker_0--edge1-XUDNAN_clean_linker_2
_symmetry_space_group_name_H-M    P1
_symmetry_Int_Tables_number       1
_symmetry_cell_setting            triclinic
loop_
_symmetry_equiv_pos_as_xyz
'x, y, z'
_cell_length_a     27.09797
_cell_length_b     26.95185
_cell_length_c     57.964433
_cell_angle_alpha  90.034195
_cell_angle_beta   89.951551
_cell_angle_gamma 120.43689
loop_
_atom_site_label
_atom_site_type_symbol
_atom_site_fract_x
_atom_site_fract_y
_atom_site_fract_z
_atom_type_partial_charge
O0 O -0.0084 0.57056 0.20739 0.0
Zn1 Zn -0.00527 0.57498 0.1726 0.0
O2 O -0.01084 0.50526 0.15956 0.0
Zn3 Zn 0.91986 0.46455 0.14194 0.0
Zn4 Zn -0.01022 0.45567 0.18423 0.0
Zn5 Zn 0.05184 0.52559 0.13835 0.0
O6 O 0.93331 0.45461 0.10866 0.0
O7 O 0.02725 0.51095 0.10512 0.0
O8 O 0.93215 0.58924 0.16096 0.0
O9 O 0.87775 0.507 0.14237 0.0
O10 O 0.86714 0.38955 0.15619 0.0
O11 O 0.91291 0.38144 0.18636 0.0
O12 O 0.05445 0.43904 0.1798 0.0
O13 O 0.07225 0.64246 0.16596 0.0
O14 O 0.08863 0.47951 0.14559 0.0
O15 O 0.11323 0.60791 0.14291 0.0
C16 C -0.00237 0.53804 0.22166 0.0
C17 C 0.97817 0.47866 0.09622 0.0
C18 C 0.86828 0.36221 0.17382 0.0
C19 C 0.88695 0.55532 0.14976 0.0
C20 C 0.08802 0.44973 0.16271 0.0
C21 C 0.11531 0.64898 0.15455 0.0
O22 O 0.00046 0.49458 0.21488 0.0
O23 O 0.45684 0.98589 0.45136 0.0
Zn24 Zn 0.43715 0.99032 0.48465 0.0
O25 O 0.49458 0.99331 0.50534 0.0
Zn26 Zn 0.54006 0.0701 0.51776 0.0
Zn27 Zn 0.54242 0.9743 0.48709 0.0
Zn28 Zn 0.45897 0.93866 0.53038 0.0
O29 O 0.54356 0.0685 0.55243 0.0
O30 O 0.47361 0.97984 0.56095 0.0
O31 O 0.42514 0.05768 0.48936 0.0
O32 O 0.50185 0.11508 0.51039 0.0
O33 O 0.61813 0.11308 0.503 0.0
O34 O 0.61534 0.04696 0.47921 0.0
O35 O 0.55738 0.91716 0.50323 0.0
O36 O 0.36405 0.9171 0.49051 0.0
O37 O 0.49588 0.89032 0.53258 0.0
O38 O 0.3743 0.88356 0.52417 0.0
C39 C 0.47909 0.95756 0.44341 0.0
C40 C 0.51147 0.03057 0.56714 0.0
C41 C 0.64019 0.09819 0.487 0.0
C42 C 0.45685 0.10526 0.49964 0.0
C43 C 0.53415 0.88688 0.52114 0.0
C44 C 0.34425 0.88006 0.50666 0.0
O45 O 0.50632 0.94159 0.4564 0.0
O46 O 0.43613 0.4263 0.78751 0.0
Zn47 Zn 0.42992 0.42808 0.82199 0.0
O48 O 0.49533 0.49811 0.83408 0.0
Zn49 Zn 0.46997 0.54702 0.84677 0.0
Zn50 Zn 0.55055 0.53918 0.80972 0.0
Zn51 Zn 0.53077 0.47921 0.85863 0.0
O52 O 0.46685 0.54425 0.88148 0.0
O53 O 0.51054 0.4956 0.89003 0.0
O54 O 0.35488 0.42527 0.82808 0.0
O55 O 0.39125 0.51819 0.83619 0.0
O56 O 0.51587 0.62807 0.83541 0.0
O57 O 0.56547 0.61997 0.80666 0.0
O58 O 0.62629 0.5472 0.81739 0.0
O59 O 0.43109 0.35814 0.83333 0.0
O60 O 0.61545 0.52418 0.85469 0.0
O61 O 0.50686 0.39552 0.85648 0.0
C62 C 0.47489 0.45638 0.77284 0.0
C63 C 0.48501 0.52216 0.89615 0.0
C64 C 0.55033 0.64981 0.81851 0.0
C65 C 0.34941 0.46913 0.83084 0.0
C66 C 0.64676 0.54477 0.83684 0.0
C67 C 0.46623 0.35253 0.8461 0.0
O68 O 0.52201 0.50017 0.77898 0.0
H69 H 0.42004 0.87697 0.26604 0.0
H70 H 0.5659 0.04612 0.2775 0.0
H71 H 0.5026 0.98987 0.20872 0.0
C72 C 0.45386 0.91772 0.25936 0.0
C73 C 0.45722 0.92865 0.23561 0.0
C74 C 0.49334 0.9597 0.27456 0.0
C75 C 0.53593 0.01316 0.26583 0.0
C76 C 0.53916 0.02431 0.24207 0.0
C77 C 0.50034 0.98145 0.22711 0.0
H78 H 0.48885 0.54575 0.60868 0.0
H79 H 0.41603 0.36573 0.59367 0.0
H80 H 0.47779 0.48886 0.53844 0.0
C81 C 0.47728 0.51143 0.5963 0.0
C82 C 0.48644 0.52444 0.57266 0.0
C83 C 0.45204 0.45437 0.6041 0.0
C84 C 0.4344 0.40988 0.58789 0.0
C85 C 0.44346 0.42227 0.56426 0.0
C86 C 0.46983 0.47948 0.55671 0.0
H87 H 0.93238 0.52787 0.92407 0.0
H88 H 0.08013 0.50851 0.92673 0.0
H89 H 0.04032 0.56768 0.86456 0.0
C90 C 0.97013 0.53206 0.91579 0.0
C91 C 0.98232 0.55018 0.8927 0.0
C92 C 0.0058 0.51798 0.92826 0.0
C93 C 0.05342 0.52082 0.91733 0.0
C94 C 0.06539 0.53761 0.89411 0.0
C95 C 0.03079 0.55404 0.88234 0.0
H96 H 0.92622 0.44855 0.38417 0.0
H97 H 0.05857 0.61757 0.40231 0.0
H98 H 0.96307 0.49659 0.45595 0.0
C99 C 0.94939 0.47971 0.39754 0.0
C100 C 0.93649 0.46496 0.42102 0.0
C101 C -0.00803 0.53487 0.39073 0.0
C102 C 0.02496 0.57515 0.4076 0.0
C103 C 0.01626 0.56067 0.43113 0.0
C104 C 0.9707 0.50636 0.43777 0.0
H105 H 0.51991 0.1113 0.74677 0.0
H106 H 0.5656 0.9843 0.73045 0.0
H107 H 0.54844 0.02024 0.80131 0.0
C108 C 0.53048 0.07948 0.75242 0.0
C109 C 0.53228 0.06925 0.77613 0.0
C110 C 0.54215 0.04875 0.73587 0.0
C111 C 0.55667 0.00818 0.74319 0.0
C112 C 0.55948 -0.00204 0.76675 0.0
C113 C 0.54691 0.02843 0.7831 0.0
H114 H 0.39224 0.5108 0.07498 0.0
H115 H 0.56683 0.55659 0.06218 0.0
H116 H 0.50046 0.5194 0.13091 0.0
C117 C 0.43269 0.51698 0.08106 0.0
C118 C 0.43958 0.51055 0.10475 0.0
C119 C 0.47728 0.53147 0.06515 0.0
C120 C 0.53143 0.54561 0.07377 0.0
C121 C 0.54007 0.54321 0.09749 0.0
C122 C 0.49382 0.52388 0.11278 0.0
H123 H 0.11599 0.39788 0.12952 0.0
H124 H 0.16569 0.47658 0.19698 0.0
H125 H 0.26065 0.48569 0.19233 0.0
H126 H 0.20731 0.32322 0.13186 0.0
H127 H 0.22174 0.33613 0.10142 0.0
H128 H 0.15374 0.32142 0.11289 0.0
H129 H 0.16958 0.41588 0.09448 0.0
H130 H 0.23806 0.43196 0.08356 0.0
H131 H 0.23272 0.48311 0.10189 0.0
H132 H 0.35591 0.51245 0.17543 0.0
H133 H 0.43944 0.54078 0.1504 0.0
H134 H 0.32612 0.43424 0.09548 0.0
C135 C 0.14584 0.41379 0.14381 0.0
C136 C 0.13376 0.43579 0.1637 0.0
C137 C 0.17398 0.45825 0.18187 0.0
C138 C 0.22809 0.46388 0.17928 0.0
C139 C 0.24025 0.44514 0.15874 0.0
C140 C 0.1994 0.41844 0.14166 0.0
C141 C 0.22482 0.40809 0.12022 0.0
C142 C 0.20046 0.34336 0.11638 0.0
C143 C 0.21577 0.43649 0.09881 0.0
C144 C 0.28716 0.43771 0.12711 0.0
C145 C 0.29528 0.45823 0.14945 0.0
C146 C 0.34996 0.49449 0.15826 0.0
C147 C 0.39734 0.51038 0.14384 0.0
C148 C 0.38988 0.48983 0.12082 0.0
C149 C 0.33384 0.45148 0.11282 0.0
H150 H 0.74238 0.19064 0.50198 0.0
H151 H 0.63976 0.10947 0.44108 0.0
H152 H 0.70499 0.19409 0.41779 0.0
H153 H 0.77919 0.33191 0.4907 0.0
H154 H 0.85281 0.36579 0.49983 0.0
H155 H 0.80047 0.2977 0.51202 0.0
H156 H 0.8608 0.25239 0.49948 0.0
H157 H 0.91401 0.32075 0.48769 0.0
H158 H 0.88247 0.25736 0.46975 0.0
H159 H 0.76739 0.29297 0.4036 0.0
H160 H 0.84017 0.39186 0.39529 0.0
H161 H 0.91785 0.40374 0.46248 0.0
C162 C 0.73488 0.19032 0.48362 0.0
C163 C 0.68642 0.14373 0.47321 0.0
C164 C 0.67722 0.14454 0.44923 0.0
C165 C 0.71367 0.19254 0.43592 0.0
C166 C 0.76014 0.23851 0.44673 0.0
C167 C 0.77241 0.23713 0.46977 0.0
C168 C 0.82635 0.29229 0.47669 0.0
C169 C 0.81392 0.32376 0.49595 0.0
C170 C 0.87372 0.27995 0.48382 0.0
C171 C 0.84081 0.32543 0.45414 0.0
C172 C 0.80118 0.29381 0.43735 0.0
C173 C 0.80073 0.31721 0.41611 0.0
C174 C 0.84334 0.37382 0.41147 0.0
C175 C 0.88815 0.40623 0.42751 0.0
C176 C 0.88577 0.38125 0.44938 0.0
H177 H 0.5052 0.71583 0.83182 0.0
H178 H 0.63629 0.71729 0.78821 0.0
H179 H 0.65968 0.81229 0.77291 0.0
H180 H 0.45302 0.77054 0.79093 0.0
H181 H 0.43807 0.81288 0.81072 0.0
H182 H 0.43753 0.74952 0.82078 0.0
H183 H 0.51269 0.80986 0.85203 0.0
H184 H 0.51327 0.87354 0.84214 0.0
H185 H 0.57916 0.87247 0.84361 0.0
H186 H 0.66218 0.90214 0.75968 0.0
H187 H 0.64314 0.97978 0.7493 0.0
H188 H 0.50792 0.91681 0.80061 0.0
C189 C 0.5399 0.73674 0.81952 0.0
C190 C 0.56924 0.70938 0.81134 0.0
C191 C 0.61341 0.73761 0.79479 0.0
C192 C 0.62712 0.79162 0.78606 0.0
C193 C 0.59629 0.81669 0.79407 0.0
C194 C 0.55373 0.79025 0.81049 0.0
C195 C 0.52341 0.82357 0.8147 0.0
C196 C 0.45924 0.78694 0.80893 0.0
C197 C 0.53272 0.84621 0.8396 0.0
C198 C 0.55456 0.87213 0.79764 0.0
C199 C 0.59695 0.86787 0.78613 0.0
C200 C 0.62948 0.90625 0.76873 0.0
C201 C 0.61804 0.94986 0.76284 0.0
C202 C 0.57408 0.95433 0.77416 0.0
C203 C 0.54252 0.91522 0.79195 0.0
H204 H 0.7728 0.48368 0.15227 0.0
H205 H 0.9017 0.65978 0.13641 0.0
H206 H 0.82546 0.67852 0.12312 0.0
H207 H 0.68566 0.45827 0.10523 0.0
H208 H 0.6189 0.41584 0.12032 0.0
H209 H 0.6827 0.41849 0.1307 0.0
H210 H 0.66958 0.45328 0.17071 0.0
H211 H 0.60516 0.45004 0.16057 0.0
H212 H 0.66219 0.51598 0.17257 0.0
H213 H 0.73567 0.67251 0.10654 0.0
H214 H 0.63901 0.64612 0.09237 0.0
H215 H 0.56976 0.47573 0.12163 0.0
C216 C 0.78481 0.52654 0.14644 0.0
C217 C 0.84276 0.5704 0.14526 0.0
C218 C 0.85728 0.62593 0.13757 0.0
C219 C 0.81436 0.63675 0.12993 0.0
C220 C 0.75748 0.59184 0.13068 0.0
C221 C 0.74269 0.53821 0.13924 0.0
C222 C 0.67899 0.49658 0.13766 0.0
C223 C 0.66584 0.44424 0.12258 0.0
C224 C 0.65242 0.47789 0.16182 0.0
C225 C 0.66016 0.53441 0.1261 0.0
C226 C 0.70593 0.5892 0.12214 0.0
C227 C 0.69941 0.6302 0.11002 0.0
C228 C 0.64466 0.61483 0.10194 0.0
C229 C 0.59737 0.55927 0.10624 0.0
C230 C 0.60524 0.51883 0.11857 0.0
H231 H 0.32098 0.81095 0.4703 0.0
H232 H 0.24558 0.83064 0.53297 0.0
H233 H 0.1519 0.74535 0.52204 0.0
H234 H 0.20736 0.77391 0.43354 0.0
H235 H 0.21621 0.72199 0.41722 0.0
H236 H 0.27691 0.78077 0.43119 0.0
H237 H 0.29699 0.70896 0.45309 0.0
H238 H 0.23657 0.64979 0.43901 0.0
H239 H 0.24095 0.6524 0.47005 0.0
H240 H 0.06411 0.66287 0.50117 0.0
H241 H -0.00626 0.59009 0.47407 0.0
H242 H 0.13198 0.62398 0.42704 0.0
C243 C 0.28482 0.79673 0.48186 0.0
C244 C 0.28974 0.82692 0.50234 0.0
C245 C 0.24212 0.80747 0.51722 0.0
C246 C 0.18903 0.75931 0.51111 0.0
C247 C 0.1853 0.73093 0.4904 0.0
C248 C 0.23248 0.74862 0.47627 0.0
C249 C 0.21805 0.7125 0.45473 0.0
C250 C 0.23034 0.74952 0.4329 0.0
C251 C 0.25003 0.67892 0.4542 0.0
C252 C 0.15474 0.67286 0.45834 0.0
C253 C 0.13624 0.68353 0.47899 0.0
C254 C 0.07844 0.65369 0.48515 0.0
C255 C 0.03879 0.61238 0.46969 0.0
C256 C 0.0573 0.60166 0.44835 0.0
C257 C 0.11621 0.63172 0.44302 0.0
H258 H 0.40593 0.26161 0.81697 0.0
H259 H 0.53033 0.3217 0.87253 0.0
H260 H 0.54978 0.24355 0.86418 0.0
H261 H 0.35769 0.10185 0.82211 0.0
H262 H 0.35201 0.09417 0.79117 0.0
H263 H 0.33699 0.14468 0.80534 0.0
H264 H 0.41168 0.22589 0.77911 0.0
H265 H 0.42799 0.17631 0.76526 0.0
H266 H 0.48435 0.24034 0.77871 0.0
H267 H 0.57105 0.17418 0.84467 0.0
H268 H 0.5879 0.11471 0.81707 0.0
H269 H 0.44898 0.09854 0.77435 0.0
C270 C 0.43533 0.25683 0.8281 0.0
C271 C 0.46648 0.29775 0.84544 0.0
C272 C 0.50573 0.29075 0.8592 0.0
C273 C 0.51703 0.2464 0.85461 0.0
C274 C 0.48827 0.20903 0.83639 0.0
C275 C 0.44736 0.21307 0.82361 0.0
C276 C 0.42809 0.17276 0.80308 0.0
C277 C 0.36494 0.12555 0.80558 0.0
C278 C 0.4387 0.20583 0.78021 0.0
C279 C 0.46711 0.14818 0.80548 0.0
C280 C 0.50066 0.16868 0.82505 0.0
C281 C 0.54384 0.15645 0.82968 0.0
C282 C 0.5531 0.1226 0.81387 0.0
C283 C 0.51957 0.10165 0.79358 0.0
C284 C 0.47543 0.11397 0.78966 0.0
H285 H 0.48277 0.77811 0.50531 0.0
H286 H 0.61184 0.896 0.55303 0.0
H287 H 0.62322 0.81631 0.56826 0.0
H288 H 0.41363 0.66683 0.54344 0.0
H289 H 0.39626 0.60956 0.52315 0.0
H290 H 0.40616 0.67714 0.51319 0.0
H291 H 0.48409 0.68701 0.48451 0.0
H292 H 0.47418 0.61907 0.49432 0.0
H293 H 0.54433 0.6826 0.49505 0.0
H294 H 0.61145 0.72222 0.58127 0.0
H295 H 0.57673 0.62098 0.59174 0.0
H296 H 0.45256 0.5644 0.53618 0.0
C297 C 0.51478 0.78717 0.5184 0.0
C298 C 0.5475 0.84273 0.52777 0.0
C299 C 0.58748 0.85351 0.54545 0.0
C300 C 0.59414 0.80865 0.55412 0.0
C301 C 0.56034 0.75368 0.54484 0.0
C302 C 0.5216 0.74287 0.52728 0.0
C303 C 0.48593 0.67923 0.52206 0.0
C304 C 0.42172 0.65691 0.52569 0.0
C305 C 0.49787 0.66622 0.49753 0.0
C306 C 0.509 0.65561 0.54002 0.0
C307 C 0.55258 0.69924 0.55271 0.0
C308 C 0.5779 0.68774 0.57126 0.0
C309 C 0.55757 0.63016 0.57719 0.0
C310 C 0.51193 0.58485 0.56477 0.0
C311 C 0.48825 0.59801 0.5457 0.0
H312 H 0.71435 0.58665 0.87478 0.0
H313 H 0.71437 0.54002 0.80315 0.0
H314 H 0.81007 0.55171 0.80838 0.0
H315 H 0.87567 0.69255 0.87832 0.0
H316 H 0.8774 0.67111 0.90762 0.0
H317 H 0.81482 0.67096 0.89696 0.0
H318 H 0.75233 0.56399 0.90888 0.0
H319 H 0.81448 0.56333 0.91916 0.0
H320 H 0.76928 0.51191 0.8977 0.0
H321 H 0.88979 0.54305 0.82372 0.0
H322 H 0.95716 0.52845 0.84643 0.0
H323 H 0.91452 0.59352 0.9074 0.0
C324 C 0.73548 0.5808 0.86004 0.0
C325 C 0.70736 0.56226 0.83861 0.0
C326 C 0.73567 0.55464 0.81965 0.0
C327 C 0.78993 0.56122 0.82246 0.0
C328 C 0.81553 0.57702 0.84413 0.0
C329 C 0.79004 0.58837 0.86245 0.0
C330 C 0.82419 0.59954 0.88443 0.0
C331 C 0.84954 0.66228 0.89229 0.0
C332 C 0.78789 0.55715 0.90365 0.0
C333 C 0.8704 0.5883 0.87599 0.0
C334 C 0.86484 0.5759 0.85267 0.0
C335 C 0.89663 0.55548 0.84171 0.0
C336 C 0.93525 0.54763 0.85489 0.0
C337 C 0.94289 0.56138 0.87878 0.0
C338 C 0.91039 0.58289 0.88924 0.0
H339 H 0.14238 0.728 0.18874 0.0
H340 H 0.21592 0.68442 0.13113 0.0
H341 H 0.31281 0.75638 0.14454 0.0
H342 H 0.25406 0.88406 0.19272 0.0
H343 H 0.25027 0.88188 0.22378 0.0
H344 H 0.1875 0.83573 0.20697 0.0
H345 H 0.1772 0.74742 0.22908 0.0
H346 H 0.24076 0.79286 0.24547 0.0
H347 H 0.23582 0.73376 0.229 0.0
H348 H 0.40124 0.82392 0.16695 0.0
H349 H 0.47457 0.88638 0.19552 0.0
H350 H 0.34184 0.88037 0.23928 0.0
C351 C 0.17864 0.73505 0.17836 0.0
C352 C 0.17155 0.70087 0.15878 0.0
C353 C 0.22034 0.71047 0.14609 0.0
C354 C 0.27552 0.75111 0.15361 0.0
C355 C 0.28096 0.78165 0.17378 0.0
C356 C 0.23378 0.77462 0.18581 0.0
C357 C 0.25084 0.80816 0.20817 0.0
C358 C 0.23473 0.85527 0.20788 0.0
C359 C 0.22459 0.76814 0.22915 0.0
C360 C 0.3149 0.83374 0.20722 0.0
C361 C 0.3316 0.81869 0.18712 0.0
C362 C 0.38871 0.83643 0.18264 0.0
C363 C 0.42989 0.87144 0.19896 0.0
C364 C 0.41345 0.8874 0.21957 0.0
C365 C 0.35525 0.86794 0.22378 0.0
H366 H 0.52757 0.22082 0.5007 0.0
H367 H 0.34849 0.08806 0.5024 0.0
H368 H 0.32265 0.16106 0.51293 0.0
H369 H 0.52924 0.29119 0.54801 0.0
H370 H 0.57727 0.36331 0.53794 0.0
H371 H 0.58034 0.30398 0.5255 0.0
H372 H 0.56453 0.33283 0.48473 0.0
H373 H 0.56203 0.39299 0.49703 0.0
H374 H 0.50366 0.34133 0.47945 0.0
H375 H 0.31966 0.24262 0.53228 0.0
H376 H 0.33892 0.32839 0.55513 0.0
H377 H 0.51894 0.40944 0.53825 0.0
C378 C 0.48276 0.20761 0.50247 0.0
C379 C 0.43993 0.14916 0.50077 0.0
C380 C 0.38178 0.13291 0.50339 0.0
C381 C 0.3668 0.17406 0.50938 0.0
C382 C 0.41044 0.23121 0.512 0.0
C383 C 0.46719 0.2482 0.50802 0.0
C384 C 0.50657 0.31075 0.51421 0.0
C385 C 0.5509 0.31764 0.5325 0.0
C386 C 0.53592 0.34659 0.49256 0.0
C387 C 0.46364 0.32529 0.52388 0.0
C388 C 0.40826 0.27915 0.5222 0.0
C389 C 0.36244 0.27973 0.53293 0.0
C390 C 0.37368 0.3283 0.54591 0.0
C391 C 0.4301 0.37548 0.54783 0.0
C392 C 0.47523 0.37449 0.53625 0.0
H393 H 0.25515 0.40303 0.85695 0.0
H394 H 0.32367 0.53209 0.80312 0.0
H395 H 0.2509 0.55831 0.81173 0.0
H396 H 0.09677 0.36757 0.85059 0.0
H397 H 0.08725 0.35828 0.88138 0.0
H398 H 0.13333 0.33845 0.86662 0.0
H399 H 0.21522 0.40424 0.89451 0.0
H400 H 0.17075 0.42673 0.90863 0.0
H401 H 0.23805 0.4797 0.89615 0.0
H402 H 0.19561 0.59079 0.83356 0.0
H403 H 0.13671 0.60967 0.86029 0.0
H404 H 0.095 0.45416 0.89831 0.0
C405 C 0.25188 0.43378 0.84599 0.0
C406 C 0.29388 0.4651 0.82919 0.0
C407 C 0.2908 0.50717 0.81577 0.0
C408 C 0.25001 0.52262 0.82067 0.0
C409 C 0.21225 0.49472 0.83877 0.0
C410 C 0.21091 0.44947 0.85064 0.0
C411 C 0.16991 0.43126 0.87088 0.0
C412 C 0.11876 0.37027 0.86714 0.0
C413 C 0.20035 0.43579 0.89388 0.0
C414 C 0.15189 0.47591 0.86939 0.0
C415 C 0.17701 0.51206 0.85078 0.0
C416 C 0.17308 0.56103 0.84748 0.0
C417 C 0.13972 0.57149 0.86285 0.0
C418 C 0.10949 0.53237 0.88098 0.0
C419 C 0.11694 0.48469 0.88455 0.0
H420 H 0.85004 0.28341 0.20828 0.0
H421 H 0.76261 0.32761 0.15646 0.0
H422 H 0.6701 0.25135 0.17088 0.0
H423 H 0.75349 0.1294 0.20427 0.0
H424 H 0.75609 0.11698 0.23468 0.0
H425 H 0.81647 0.17662 0.2208 0.0
H426 H 0.81215 0.24622 0.25051 0.0
H427 H 0.75113 0.18683 0.26425 0.0
H428 H 0.74666 0.24749 0.25391 0.0
H429 H 0.58755 0.17418 0.19082 0.0
H430 H 0.51746 0.0879 0.21204 0.0
H431 H 0.65532 0.08763 0.25004 0.0
C432 C 0.81142 0.2767 0.1999 0.0
C433 C 0.81381 0.31173 0.18127 0.0
C434 C 0.76223 0.3014 0.1707 0.0
C435 C 0.70923 0.25844 0.17887 0.0
C436 C 0.70829 0.22564 0.19749 0.0
C437 C 0.75773 0.23319 0.20766 0.0
C438 C 0.74384 0.18948 0.22673 0.0
C439 C 0.76895 0.15082 0.22128 0.0
C440 C 0.76469 0.21931 0.25024 0.0
C441 C 0.67898 0.1562 0.22543 0.0
C442 C 0.65971 0.17875 0.20868 0.0
C443 C 0.60192 0.15569 0.20389 0.0
C444 C 0.56253 0.10674 0.21598 0.0
C445 C 0.58119 0.08092 0.23241 0.0
C446 C 0.64006 0.10684 0.23765 0.0
H447 H 0.06245 0.53179 0.06347 0.0
H448 H 0.88112 0.40819 0.07165 0.0
H449 H 0.87028 0.39969 0.02939 0.0
H450 H 0.04853 0.60538 0.01649 0.0
H451 H 0.1124 0.61745 0.00185 0.0
H452 H 0.10739 0.60988 0.03273 0.0
H453 H 0.12883 0.52661 0.03014 0.0
H454 H 0.13409 0.53405 -0.0008 0.0
H455 H 0.08498 0.46543 0.01201 0.0
H456 H 0.87716 0.41001 0.98661 0.0
H457 H 0.90188 0.43803 0.94581 0.0
H458 H 0.07843 0.55491 0.96531 0.0
C459 C 0.02062 0.50223 0.05641 0.0
C460 C 0.97266 0.4706 0.07091 0.0
C461 C 0.91854 0.43288 0.06093 0.0
C462 C 0.91193 0.4276 0.03693 0.0
C463 C 0.95986 0.46008 0.02316 0.0
C464 C 0.01322 0.49645 0.0325 0.0
C465 C 0.0571 0.52886 0.01383 0.0
C466 C 0.08284 0.59425 0.01638 0.0
C467 C 0.10402 0.51275 0.0138 0.0
C468 C 0.01972 0.50598 0.99259 0.0
C469 C 0.96387 0.46602 0.99836 0.0
C470 C 0.92083 0.44084 0.98183 0.0
C471 C 0.93517 0.45727 0.95876 0.0
C472 C -0.00801 0.49857 0.95249 0.0
C473 C 0.03484 0.52262 0.96962 0.0
H474 H 0.47307 0.02093 0.40785 0.0
H475 H 0.47923 0.86652 0.42298 0.0
H476 H 0.47961 0.8481 0.38122 0.0
H477 H 0.38401 0.96816 0.35613 0.0
H478 H 0.42334 0.03619 0.34138 0.0
H479 H 0.41834 0.03428 0.3724 0.0
H480 H 0.52903 0.09259 0.37523 0.0
H481 H 0.53441 0.09433 0.34425 0.0
H482 H 0.57034 0.06592 0.36113 0.0
H483 H 0.48127 0.84756 0.33797 0.0
H484 H 0.48868 0.86753 0.29604 0.0
H485 H 0.48739 0.02524 0.30923 0.0
C486 C 0.47348 0.98273 0.40233 0.0
C487 C 0.47558 0.9448 0.41854 0.0
C488 C 0.47749 0.896 0.41076 0.0
C489 C 0.47756 0.88512 0.38712 0.0
C490 C 0.47637 0.92384 0.37155 0.0
C491 C 0.47465 0.97182 0.37881 0.0
C492 C 0.47735 0.00858 0.35857 0.0
C493 C 0.42248 0.01198 0.35703 0.0
C494 C 0.53098 0.06891 0.35988 0.0
C495 C 0.48129 0.974 0.33881 0.0
C496 C 0.47988 0.92488 0.34666 0.0
C497 C 0.48244 0.88589 0.33161 0.0
C498 C 0.48659 0.89749 0.3079 0.0
C499 C 0.48896 0.94799 0.29958 0.0
C500 C 0.4863 0.98665 0.31525 0.0
H501 H 0.54408 0.5147 0.73611 0.0
H502 H 0.37954 0.36563 0.7534 0.0
H503 H 0.35747 0.3459 0.71197 0.0
H504 H 0.49629 0.56214 0.68965 0.0
H505 H 0.55929 0.58514 0.67218 0.0
H506 H 0.56443 0.58486 0.70312 0.0
H507 H 0.60877 0.51945 0.70039 0.0
H508 H 0.60424 0.51994 0.66939 0.0
H509 H 0.57142 0.45252 0.68475 0.0
H510 H 0.35053 0.34641 0.66867 0.0
H511 H 0.36044 0.36628 0.62676 0.0
H512 H 0.52994 0.5139 0.63812 0.0
C513 C 0.50373 0.4774 0.73125 0.0
C514 C 0.46358 0.44176 0.74805 0.0
C515 C 0.41106 0.39362 0.74087 0.0
C516 C 0.39811 0.38197 0.71737 0.0
C517 C 0.4382 0.41866 0.70128 0.0
C518 C 0.49011 0.46514 0.70791 0.0
C519 C 0.52483 0.49927 0.68725 0.0
C520 C 0.53689 0.56152 0.68811 0.0
C521 C 0.58061 0.49767 0.68534 0.0
C522 C 0.48379 0.46548 0.668 0.0
C523 C 0.43424 0.41889 0.67639 0.0
C524 C 0.38942 0.38241 0.66186 0.0
C525 C 0.39548 0.39393 0.6381 0.0
C526 C 0.44589 0.44167 0.62918 0.0
C527 C 0.49059 0.47748 0.64442 0.0
H528 H 0.47131 0.95688 0.60403 0.0
H529 H 0.56904 0.1383 0.58635 0.0
H530 H 0.58329 0.1632 0.62777 0.0
H531 H 0.40176 0.97126 0.65519 0.0
H532 H 0.40685 0.9162 0.67079 0.0
H533 H 0.40142 0.91295 0.63979 0.0
H534 H 0.49475 0.90875 0.6372 0.0
H535 H 0.5005 0.91204 0.66816 0.0
H536 H 0.55895 0.96435 0.65077 0.0
H537 H 0.5888 0.16811 0.67123 0.0
H538 H 0.589 0.15211 0.71328 0.0
H539 H 0.4894 0.96767 0.70216 0.0
C540 C 0.49519 0.00189 0.60884 0.0
C541 C 0.51883 0.04565 0.59194 0.0
C542 C 0.55054 0.10401 0.59899 0.0
C543 C 0.55869 0.11861 0.62247 0.0
C544 C 0.53509 0.07437 0.63867 0.0
C545 C 0.50418 0.0172 0.63216 0.0
C546 C 0.48565 0.97773 0.6529 0.0
C547 C 0.42002 0.94247 0.65477 0.0
C548 C 0.51153 0.93842 0.65221 0.0
C549 C 0.51145 0.0216 0.6721 0.0
C550 C 0.53928 0.07714 0.66359 0.0
C551 C 0.56696 0.12481 0.6781 0.0
C552 C 0.56666 0.11537 0.70192 0.0
C553 C 0.53935 0.05872 0.7109 0.0
C554 C 0.51103 0.01144 0.69574 0.0
H555 H 0.56009 0.58011 0.93104 0.0
H556 H 0.38053 0.46513 0.91596 0.0
H557 H 0.35784 0.45866 0.95766 0.0
H558 H 0.56803 0.51548 0.9823 0.0
H559 H 0.61456 0.58159 0.99735 0.0
H560 H 0.61644 0.57934 0.96634 0.0
H561 H 0.59625 0.66345 0.96381 0.0
H562 H 0.59475 0.66627 0.99485 0.0
H563 H 0.53456 0.65746 0.97829 0.0
H564 H 0.35728 0.45496 0.00069 0.0
H565 H 0.37557 0.46223 0.04219 0.0
H566 H 0.55388 0.59175 0.02955 0.0
C567 C 0.51602 0.55429 0.93664 0.0
C568 C 0.47184 0.52292 0.92061 0.0
C569 C 0.41461 0.48949 0.92821 0.0
C570 C 0.40146 0.48556 0.95176 0.0
C571 C 0.44601 0.51649 0.96729 0.0
C572 C 0.50195 0.55121 0.96005 0.0
C573 C 0.54158 0.58001 0.98035 0.0
C574 C 0.58787 0.56307 0.98165 0.0
C575 C 0.56835 0.6457 0.97926 0.0
C576 C 0.49948 0.55439 0.00015 0.0
C577 C 0.44475 0.51767 0.9922 0.0
C578 C 0.39959 0.48506 0.00716 0.0
C579 C 0.41055 0.49013 0.0309 0.0
C580 C 0.46612 0.5287 0.03971 0.0
C581 C 0.51087 0.56161 0.02385 0.0
H582 H -0.00164 0.47152 0.25717 0.0
H583 H 0.00574 0.63328 0.24278 0.0
H584 H 0.01146 0.65338 0.2846 0.0
H585 H 0.90925 0.43458 0.30625 0.0
H586 H 0.94429 0.40289 0.32162 0.0
H587 H 0.94421 0.40316 0.29058 0.0
H588 H 0.05506 0.45487 0.29039 0.0
H589 H 0.0555 0.45483 0.32147 0.0
H590 H 0.09583 0.52156 0.30593 0.0
H591 H 0.0128 0.65379 0.32827 0.0
H592 H 0.00567 0.63249 0.37006 0.0
H593 H -0.00171 0.47104 0.35528 0.0
C594 C 0.00162 0.51144 0.26273 0.0
C595 C 0.00165 0.55085 0.24665 0.0
C596 C 0.00552 0.60235 0.25475 0.0
C597 C 0.00903 0.61427 0.27847 0.0
C598 C 0.00868 0.57431 0.29382 0.0
C599 C 0.00498 0.52391 0.28625 0.0
C600 C 0.00305 0.48688 0.30622 0.0
C601 C 0.94685 0.42844 0.30615 0.0
C602 C 0.05549 0.4791 0.30598 0.0
C603 C 0.00537 0.52388 0.32626 0.0
C604 C 0.00914 0.57439 0.31882 0.0
C605 C 0.01025 0.61456 0.33429 0.0
C606 C 0.00649 0.60226 0.35797 0.0
C607 C 0.00132 0.5501 0.36588 0.0
C608 C 0.0017 0.51103 0.34975 0.0
loop_
_geom_bond_atom_site_label_1
_geom_bond_atom_site_label_2
_geom_bond_distance
_geom_bond_site_symmetry_2
_ccdc_geom_bond_type
O0 Zn1 1.953 . S
O0 C16 1.225 1_655 S
Zn1 O0 1.953 . S
Zn1 O2 1.949 1_655 S
Zn1 O8 1.919 . S
Zn1 O13 1.924 1_655 S
O2 Zn1 1.949 1_455 S
O2 Zn3 1.923 1_455 S
O2 Zn4 1.950 . S
O2 Zn5 1.945 . S
Zn3 O2 1.923 1_655 S
Zn3 O6 1.933 . S
Zn3 O9 1.941 . S
Zn3 O10 1.965 . S
Zn4 O2 1.950 . S
Zn4 O11 1.938 1_455 S
Zn4 O12 1.906 . S
Zn4 O22 1.953 . S
Zn5 O2 1.945 . S
Zn5 O7 1.932 . S
Zn5 O14 1.977 . S
Zn5 O15 1.910 . S
O6 Zn3 1.933 . S
O6 C17 1.226 1_655 S
O7 Zn5 1.932 . S
O7 C17 1.307 . S
O8 Zn1 1.919 . S
O8 C19 1.253 . S
O9 Zn3 1.941 . S
O9 C19 1.283 . S
O10 Zn3 1.965 . S
O10 C18 1.303 . S
O11 Zn4 1.938 1_655 S
O11 C18 1.247 . S
O12 Zn4 1.906 . S
O12 C20 1.304 . S
O13 Zn1 1.924 1_455 S
O13 C21 1.311 . S
O14 Zn5 1.977 . S
O14 C20 1.272 . S
O15 Zn5 1.910 . S
O15 C21 1.231 . S
C16 O0 1.225 1_455 S
C16 O22 1.298 . S
C17 O6 1.226 1_455 S
C17 O7 1.307 . S
C18 O10 1.303 . S
C18 O11 1.247 . S
C19 O8 1.253 . S
C19 O9 1.283 . S
C20 O12 1.304 . S
C20 O14 1.272 . S
C21 O13 1.311 . S
C21 O15 1.231 . S
O22 Zn4 1.953 . S
O22 C16 1.298 . S
O23 Zn24 1.953 . S
O23 C39 1.225 . S
Zn24 O23 1.953 . S
Zn24 O25 1.949 . S
Zn24 O31 1.919 . S
Zn24 O36 1.924 1_545 S
O25 Zn24 1.949 . S
O25 Zn26 1.923 . S
O25 Zn27 1.950 1_545 S
O25 Zn28 1.945 1_545 S
Zn26 O25 1.923 . S
Zn26 O29 1.933 . S
Zn26 O32 1.941 . S
Zn26 O33 1.965 . S
Zn27 O25 1.950 1_565 S
Zn27 O34 1.938 1_565 S
Zn27 O35 1.906 . S
Zn27 O45 1.953 . S
Zn28 O25 1.945 1_565 S
Zn28 O30 1.932 . S
Zn28 O37 1.977 . S
Zn28 O38 1.910 . S
O29 Zn26 1.933 . S
O29 C40 1.226 . S
O30 Zn28 1.932 . S
O30 C40 1.307 1_565 S
O31 Zn24 1.919 . S
O31 C42 1.253 . S
O32 Zn26 1.941 . S
O32 C42 1.283 . S
O33 Zn26 1.965 . S
O33 C41 1.303 . S
O34 Zn27 1.938 1_545 S
O34 C41 1.247 . S
O35 Zn27 1.906 . S
O35 C43 1.304 . S
O36 Zn24 1.924 1_565 S
O36 C44 1.311 . S
O37 Zn28 1.977 . S
O37 C43 1.272 . S
O38 Zn28 1.910 . S
O38 C44 1.231 . S
C39 O23 1.225 . S
C39 O45 1.298 1_545 S
C40 O29 1.226 . S
C40 O30 1.307 1_545 S
C41 O33 1.303 . S
C41 O34 1.247 . S
C42 O31 1.253 . S
C42 O32 1.283 . S
C43 O35 1.304 . S
C43 O37 1.272 . S
C44 O36 1.311 . S
C44 O38 1.231 . S
O45 Zn27 1.953 . S
O45 C39 1.298 1_565 S
O46 Zn47 1.953 . S
O46 C62 1.225 . S
Zn47 O46 1.953 . S
Zn47 O48 1.949 . S
Zn47 O54 1.919 . S
Zn47 O59 1.924 . S
O48 Zn47 1.949 . S
O48 Zn49 1.923 . S
O48 Zn50 1.950 . S
O48 Zn51 1.945 . S
Zn49 O48 1.923 . S
Zn49 O52 1.933 . S
Zn49 O55 1.941 . S
Zn49 O56 1.965 . S
Zn50 O48 1.950 . S
Zn50 O57 1.938 . S
Zn50 O58 1.906 . S
Zn50 O68 1.953 . S
Zn51 O48 1.945 . S
Zn51 O53 1.932 . S
Zn51 O60 1.977 . S
Zn51 O61 1.910 . S
O52 Zn49 1.933 . S
O52 C63 1.226 . S
O53 Zn51 1.932 . S
O53 C63 1.307 . S
O54 Zn47 1.919 . S
O54 C65 1.253 . S
O55 Zn49 1.941 . S
O55 C65 1.283 . S
O56 Zn49 1.965 . S
O56 C64 1.303 . S
O57 Zn50 1.938 . S
O57 C64 1.247 . S
O58 Zn50 1.906 . S
O58 C66 1.304 . S
O59 Zn47 1.924 . S
O59 C67 1.311 . S
O60 Zn51 1.977 . S
O60 C66 1.272 . S
O61 Zn51 1.910 . S
O61 C67 1.231 . S
C62 O46 1.225 . S
C62 O68 1.298 . S
C63 O52 1.226 . S
C63 O53 1.307 . S
C64 O56 1.303 . S
C64 O57 1.247 . S
C65 O54 1.253 . S
C65 O55 1.283 . S
C66 O58 1.304 . S
C66 O60 1.272 . S
C67 O59 1.311 . S
C67 O61 1.231 . S
O68 Zn50 1.953 . S
O68 C62 1.298 . S
H69 C72 0.931 . S
H70 C75 0.928 . S
H71 C77 0.930 . S
C72 H69 0.931 . S
C72 C73 1.413 . S
C72 C74 1.360 1_565 S
C73 C72 1.413 . S
C73 C77 1.429 1_565 S
C74 C72 1.360 1_545 S
C74 C75 1.372 . S
C75 H70 0.928 . S
C75 C74 1.372 . S
C75 C76 1.404 . S
C76 C75 1.404 . S
C76 C77 1.391 . S
C77 H71 0.930 . S
C77 C73 1.429 1_545 S
C77 C76 1.391 . S
H78 C81 0.931 . S
H79 C84 0.928 . S
H80 C86 0.930 . S
C81 H78 0.931 . S
C81 C82 1.413 . S
C81 C83 1.360 . S
C82 C81 1.413 . S
C82 C86 1.429 . S
C83 C81 1.360 . S
C83 C84 1.372 . S
C84 H79 0.928 . S
C84 C83 1.372 . S
C84 C85 1.404 . S
C85 C84 1.404 . S
C85 C86 1.391 . S
C86 H80 0.930 . S
C86 C82 1.429 . S
C86 C85 1.391 . S
H87 C90 0.931 . S
H88 C93 0.928 . S
H89 C95 0.930 . S
C90 H87 0.931 . S
C90 C91 1.413 . S
C90 C92 1.360 1_655 S
C91 C90 1.413 . S
C91 C95 1.429 1_655 S
C92 C90 1.360 1_455 S
C92 C93 1.372 . S
C93 H88 0.928 . S
C93 C92 1.372 . S
C93 C94 1.404 . S
C94 C93 1.404 . S
C94 C95 1.391 . S
C95 H89 0.930 . S
C95 C91 1.429 1_455 S
C95 C94 1.391 . S
H96 C99 0.931 . S
H97 C102 0.928 . S
H98 C104 0.930 . S
C99 H96 0.931 . S
C99 C100 1.413 . S
C99 C101 1.360 1_655 S
C100 C99 1.413 . S
C100 C104 1.429 1_655 S
C101 C99 1.360 1_455 S
C101 C102 1.372 . S
C102 H97 0.928 . S
C102 C101 1.372 . S
C102 C103 1.404 . S
C103 C102 1.404 . S
C103 C104 1.391 . S
C104 H98 0.930 . S
C104 C100 1.429 1_455 S
C104 C103 1.391 . S
H105 C108 0.931 . S
H106 C111 0.928 . S
H107 C113 0.930 . S
C108 H105 0.931 . S
C108 C109 1.413 . S
C108 C110 1.353 1_545 S
C109 C108 1.413 . S
C109 C113 1.410 1_545 S
C110 C108 1.353 1_565 S
C110 C111 1.379 . S
C111 H106 0.928 . S
C111 C110 1.379 . S
C111 C112 1.404 . S
C112 C111 1.404 . S
C112 C113 1.409 . S
C113 H107 0.930 . S
C113 C109 1.410 1_565 S
C113 C112 1.409 . S
H114 C117 0.931 . S
H115 C120 0.928 . S
H116 C122 0.930 . S
C117 H114 0.931 . S
C117 C118 1.413 . S
C117 C119 1.360 . S
C118 C117 1.413 . S
C118 C122 1.429 . S
C119 C117 1.360 . S
C119 C120 1.372 . S
C120 H115 0.928 . S
C120 C119 1.372 . S
C120 C121 1.404 . S
C121 C120 1.404 . S
C121 C122 1.391 . S
C122 H116 0.930 . S
C122 C118 1.429 . S
C122 C121 1.391 . S
H123 C135 0.930 . S
H124 C137 0.930 . S
H125 C138 0.930 . S
H126 C142 0.959 . S
H127 C142 0.959 . S
H128 C142 0.961 . S
H129 C143 0.960 . S
H130 C143 0.961 . S
H131 C143 0.959 . S
H132 C146 0.929 . S
H133 C147 0.931 . S
H134 C149 0.930 . S
C135 H123 0.930 . S
C135 C136 1.399 . S
C135 C140 1.399 . S
C136 C135 1.399 . S
C136 C137 1.376 . S
C137 H124 0.930 . S
C137 C136 1.376 . S
C137 C138 1.388 . S
C138 H125 0.930 . S
C138 C137 1.388 . S
C138 C139 1.390 . S
C139 C138 1.390 . S
C139 C140 1.394 . S
C139 C145 1.465 . S
C140 C135 1.399 . S
C140 C139 1.394 . S
C140 C141 1.516 . S
C141 C140 1.516 . S
C141 C142 1.502 . S
C141 C143 1.561 . S
C141 C144 1.526 . S
C142 H126 0.959 . S
C142 H127 0.959 . S
C142 H128 0.961 . S
C142 C141 1.502 . S
C143 H129 0.960 . S
C143 H130 0.961 . S
C143 H131 0.959 . S
C143 C141 1.561 . S
C144 C141 1.526 . S
C144 C145 1.396 . S
C144 C149 1.390 . S
C145 C139 1.465 . S
C145 C144 1.396 . S
C145 C146 1.399 . S
C146 H132 0.929 . S
C146 C145 1.399 . S
C146 C147 1.385 . S
C147 H133 0.931 . S
C147 C146 1.385 . S
C147 C148 1.389 . S
C148 C147 1.389 . S
C148 C149 1.387 . S
C149 H134 0.930 . S
C149 C144 1.390 . S
C149 C148 1.387 . S
H150 C162 0.930 . S
H151 C164 0.930 . S
H152 C165 0.930 . S
H153 C169 0.959 . S
H154 C169 0.959 . S
H155 C169 0.961 . S
H156 C170 0.960 . S
H157 C170 0.961 . S
H158 C170 0.959 . S
H159 C173 0.929 . S
H160 C174 0.931 . S
H161 C176 0.930 . S
C162 H150 0.930 . S
C162 C163 1.399 . S
C162 C167 1.399 . S
C163 C162 1.399 . S
C163 C164 1.376 . S
C164 H151 0.930 . S
C164 C163 1.376 . S
C164 C165 1.388 . S
C165 H152 0.930 . S
C165 C164 1.388 . S
C165 C166 1.390 . S
C166 C165 1.390 . S
C166 C167 1.394 . S
C166 C172 1.465 . S
C167 C162 1.399 . S
C167 C166 1.394 . S
C167 C168 1.516 . S
C168 C167 1.516 . S
C168 C169 1.502 . S
C168 C170 1.561 . S
C168 C171 1.526 . S
C169 H153 0.959 . S
C169 H154 0.959 . S
C169 H155 0.961 . S
C169 C168 1.502 . S
C170 H156 0.960 . S
C170 H157 0.961 . S
C170 H158 0.959 . S
C170 C168 1.561 . S
C171 C168 1.526 . S
C171 C172 1.396 . S
C171 C176 1.390 . S
C172 C166 1.465 . S
C172 C171 1.396 . S
C172 C173 1.399 . S
C173 H159 0.929 . S
C173 C172 1.399 . S
C173 C174 1.385 . S
C174 H160 0.931 . S
C174 C173 1.385 . S
C174 C175 1.389 . S
C175 C174 1.389 . S
C175 C176 1.387 . S
C176 H161 0.930 . S
C176 C171 1.390 . S
C176 C175 1.387 . S
H177 C189 0.930 . S
H178 C191 0.930 . S
H179 C192 0.930 . S
H180 C196 0.959 . S
H181 C196 0.959 . S
H182 C196 0.961 . S
H183 C197 0.960 . S
H184 C197 0.961 . S
H185 C197 0.959 . S
H186 C200 0.929 . S
H187 C201 0.931 . S
H188 C203 0.930 . S
C189 H177 0.930 . S
C189 C190 1.399 . S
C189 C194 1.399 . S
C190 C189 1.399 . S
C190 C191 1.376 . S
C191 H178 0.930 . S
C191 C190 1.376 . S
C191 C192 1.388 . S
C192 H179 0.930 . S
C192 C191 1.388 . S
C192 C193 1.390 . S
C193 C192 1.390 . S
C193 C194 1.394 . S
C193 C199 1.465 . S
C194 C189 1.399 . S
C194 C193 1.394 . S
C194 C195 1.516 . S
C195 C194 1.516 . S
C195 C196 1.502 . S
C195 C197 1.561 . S
C195 C198 1.526 . S
C196 H180 0.959 . S
C196 H181 0.959 . S
C196 H182 0.961 . S
C196 C195 1.502 . S
C197 H183 0.960 . S
C197 H184 0.961 . S
C197 H185 0.959 . S
C197 C195 1.561 . S
C198 C195 1.526 . S
C198 C199 1.396 . S
C198 C203 1.390 . S
C199 C193 1.465 . S
C199 C198 1.396 . S
C199 C200 1.399 . S
C200 H186 0.929 . S
C200 C199 1.399 . S
C200 C201 1.385 . S
C201 H187 0.931 . S
C201 C200 1.385 . S
C201 C202 1.389 . S
C202 C201 1.389 . S
C202 C203 1.387 . S
C203 H188 0.930 . S
C203 C198 1.390 . S
C203 C202 1.387 . S
H204 C216 0.930 . S
H205 C218 0.930 . S
H206 C219 0.930 . S
H207 C223 0.959 . S
H208 C223 0.959 . S
H209 C223 0.961 . S
H210 C224 0.960 . S
H211 C224 0.961 . S
H212 C224 0.959 . S
H213 C227 0.929 . S
H214 C228 0.931 . S
H215 C230 0.930 . S
C216 H204 0.930 . S
C216 C217 1.399 . S
C216 C221 1.399 . S
C217 C216 1.399 . S
C217 C218 1.376 . S
C218 H205 0.930 . S
C218 C217 1.376 . S
C218 C219 1.388 . S
C219 H206 0.930 . S
C219 C218 1.388 . S
C219 C220 1.390 . S
C220 C219 1.390 . S
C220 C221 1.394 . S
C220 C226 1.465 . S
C221 C216 1.399 . S
C221 C220 1.394 . S
C221 C222 1.516 . S
C222 C221 1.516 . S
C222 C223 1.502 . S
C222 C224 1.561 . S
C222 C225 1.526 . S
C223 H207 0.959 . S
C223 H208 0.959 . S
C223 H209 0.961 . S
C223 C222 1.502 . S
C224 H210 0.960 . S
C224 H211 0.961 . S
C224 H212 0.959 . S
C224 C222 1.561 . S
C225 C222 1.526 . S
C225 C226 1.396 . S
C225 C230 1.390 . S
C226 C220 1.465 . S
C226 C225 1.396 . S
C226 C227 1.399 . S
C227 H213 0.929 . S
C227 C226 1.399 . S
C227 C228 1.385 . S
C228 H214 0.931 . S
C228 C227 1.385 . S
C228 C229 1.389 . S
C229 C228 1.389 . S
C229 C230 1.387 . S
C230 H215 0.930 . S
C230 C225 1.390 . S
C230 C229 1.387 . S
H231 C243 0.930 . S
H232 C245 0.930 . S
H233 C246 0.930 . S
H234 C250 0.959 . S
H235 C250 0.959 . S
H236 C250 0.961 . S
H237 C251 0.960 . S
H238 C251 0.961 . S
H239 C251 0.959 . S
H240 C254 0.929 . S
H241 C255 0.931 . S
H242 C257 0.930 . S
C243 H231 0.930 . S
C243 C244 1.399 . S
C243 C248 1.399 . S
C244 C243 1.399 . S
C244 C245 1.376 . S
C245 H232 0.930 . S
C245 C244 1.376 . S
C245 C246 1.388 . S
C246 H233 0.930 . S
C246 C245 1.388 . S
C246 C247 1.390 . S
C247 C246 1.390 . S
C247 C248 1.394 . S
C247 C253 1.465 . S
C248 C243 1.399 . S
C248 C247 1.394 . S
C248 C249 1.516 . S
C249 C248 1.516 . S
C249 C250 1.502 . S
C249 C251 1.561 . S
C249 C252 1.526 . S
C250 H234 0.959 . S
C250 H235 0.959 . S
C250 H236 0.961 . S
C250 C249 1.502 . S
C251 H237 0.960 . S
C251 H238 0.961 . S
C251 H239 0.959 . S
C251 C249 1.561 . S
C252 C249 1.526 . S
C252 C253 1.396 . S
C252 C257 1.390 . S
C253 C247 1.465 . S
C253 C252 1.396 . S
C253 C254 1.399 . S
C254 H240 0.929 . S
C254 C253 1.399 . S
C254 C255 1.385 . S
C255 H241 0.931 . S
C255 C254 1.385 . S
C255 C256 1.389 . S
C256 C255 1.389 . S
C256 C257 1.387 . S
C257 H242 0.930 . S
C257 C252 1.390 . S
C257 C256 1.387 . S
H258 C270 0.930 . S
H259 C272 0.930 . S
H260 C273 0.930 . S
H261 C277 0.959 . S
H262 C277 0.959 . S
H263 C277 0.961 . S
H264 C278 0.960 . S
H265 C278 0.961 . S
H266 C278 0.959 . S
H267 C281 0.929 . S
H268 C282 0.931 . S
H269 C284 0.930 . S
C270 H258 0.930 . S
C270 C271 1.399 . S
C270 C275 1.399 . S
C271 C270 1.399 . S
C271 C272 1.376 . S
C272 H259 0.930 . S
C272 C271 1.376 . S
C272 C273 1.388 . S
C273 H260 0.930 . S
C273 C272 1.388 . S
C273 C274 1.390 . S
C274 C273 1.390 . S
C274 C275 1.394 . S
C274 C280 1.465 . S
C275 C270 1.399 . S
C275 C274 1.394 . S
C275 C276 1.516 . S
C276 C275 1.516 . S
C276 C277 1.502 . S
C276 C278 1.561 . S
C276 C279 1.526 . S
C277 H261 0.959 . S
C277 H262 0.959 . S
C277 H263 0.961 . S
C277 C276 1.502 . S
C278 H264 0.960 . S
C278 H265 0.961 . S
C278 H266 0.959 . S
C278 C276 1.561 . S
C279 C276 1.526 . S
C279 C280 1.396 . S
C279 C284 1.390 . S
C280 C274 1.465 . S
C280 C279 1.396 . S
C280 C281 1.399 . S
C281 H267 0.929 . S
C281 C280 1.399 . S
C281 C282 1.385 . S
C282 H268 0.931 . S
C282 C281 1.385 . S
C282 C283 1.389 . S
C283 C282 1.389 . S
C283 C284 1.387 . S
C284 H269 0.930 . S
C284 C279 1.390 . S
C284 C283 1.387 . S
H285 C297 0.930 . S
H286 C299 0.930 . S
H287 C300 0.930 . S
H288 C304 0.959 . S
H289 C304 0.959 . S
H290 C304 0.961 . S
H291 C305 0.960 . S
H292 C305 0.961 . S
H293 C305 0.959 . S
H294 C308 0.929 . S
H295 C309 0.931 . S
H296 C311 0.930 . S
C297 H285 0.930 . S
C297 C298 1.399 . S
C297 C302 1.399 . S
C298 C297 1.399 . S
C298 C299 1.376 . S
C299 H286 0.930 . S
C299 C298 1.376 . S
C299 C300 1.388 . S
C300 H287 0.930 . S
C300 C299 1.388 . S
C300 C301 1.390 . S
C301 C300 1.390 . S
C301 C302 1.394 . S
C301 C307 1.465 . S
C302 C297 1.399 . S
C302 C301 1.394 . S
C302 C303 1.516 . S
C303 C302 1.516 . S
C303 C304 1.502 . S
C303 C305 1.561 . S
C303 C306 1.526 . S
C304 H288 0.959 . S
C304 H289 0.959 . S
C304 H290 0.961 . S
C304 C303 1.502 . S
C305 H291 0.960 . S
C305 H292 0.961 . S
C305 H293 0.959 . S
C305 C303 1.561 . S
C306 C303 1.526 . S
C306 C307 1.396 . S
C306 C311 1.390 . S
C307 C301 1.465 . S
C307 C306 1.396 . S
C307 C308 1.399 . S
C308 H294 0.929 . S
C308 C307 1.399 . S
C308 C309 1.385 . S
C309 H295 0.931 . S
C309 C308 1.385 . S
C309 C310 1.389 . S
C310 C309 1.389 . S
C310 C311 1.387 . S
C311 H296 0.930 . S
C311 C306 1.390 . S
C311 C310 1.387 . S
H312 C324 0.930 . S
H313 C326 0.930 . S
H314 C327 0.930 . S
H315 C331 0.959 . S
H316 C331 0.959 . S
H317 C331 0.961 . S
H318 C332 0.960 . S
H319 C332 0.961 . S
H320 C332 0.959 . S
H321 C335 0.929 . S
H322 C336 0.931 . S
H323 C338 0.930 . S
C324 H312 0.930 . S
C324 C325 1.399 . S
C324 C329 1.399 . S
C325 C324 1.399 . S
C325 C326 1.376 . S
C326 H313 0.930 . S
C326 C325 1.376 . S
C326 C327 1.388 . S
C327 H314 0.930 . S
C327 C326 1.388 . S
C327 C328 1.390 . S
C328 C327 1.390 . S
C328 C329 1.394 . S
C328 C334 1.465 . S
C329 C324 1.399 . S
C329 C328 1.394 . S
C329 C330 1.516 . S
C330 C329 1.516 . S
C330 C331 1.502 . S
C330 C332 1.561 . S
C330 C333 1.526 . S
C331 H315 0.959 . S
C331 H316 0.959 . S
C331 H317 0.961 . S
C331 C330 1.502 . S
C332 H318 0.960 . S
C332 H319 0.961 . S
C332 H320 0.959 . S
C332 C330 1.561 . S
C333 C330 1.526 . S
C333 C334 1.396 . S
C333 C338 1.390 . S
C334 C328 1.465 . S
C334 C333 1.396 . S
C334 C335 1.399 . S
C335 H321 0.929 . S
C335 C334 1.399 . S
C335 C336 1.385 . S
C336 H322 0.931 . S
C336 C335 1.385 . S
C336 C337 1.389 . S
C337 C336 1.389 . S
C337 C338 1.387 . S
C338 H323 0.930 . S
C338 C333 1.390 . S
C338 C337 1.387 . S
H339 C351 0.930 . S
H340 C353 0.930 . S
H341 C354 0.930 . S
H342 C358 0.959 . S
H343 C358 0.959 . S
H344 C358 0.961 . S
H345 C359 0.960 . S
H346 C359 0.961 . S
H347 C359 0.959 . S
H348 C362 0.929 . S
H349 C363 0.931 . S
H350 C365 0.930 . S
C351 H339 0.930 . S
C351 C352 1.399 . S
C351 C356 1.399 . S
C352 C351 1.399 . S
C352 C353 1.376 . S
C353 H340 0.930 . S
C353 C352 1.376 . S
C353 C354 1.388 . S
C354 H341 0.930 . S
C354 C353 1.388 . S
C354 C355 1.390 . S
C355 C354 1.390 . S
C355 C356 1.394 . S
C355 C361 1.465 . S
C356 C351 1.399 . S
C356 C355 1.394 . S
C356 C357 1.516 . S
C357 C356 1.516 . S
C357 C358 1.502 . S
C357 C359 1.561 . S
C357 C360 1.526 . S
C358 H342 0.959 . S
C358 H343 0.959 . S
C358 H344 0.961 . S
C358 C357 1.502 . S
C359 H345 0.960 . S
C359 H346 0.961 . S
C359 H347 0.959 . S
C359 C357 1.561 . S
C360 C357 1.526 . S
C360 C361 1.396 . S
C360 C365 1.390 . S
C361 C355 1.465 . S
C361 C360 1.396 . S
C361 C362 1.399 . S
C362 H348 0.929 . S
C362 C361 1.399 . S
C362 C363 1.385 . S
C363 H349 0.931 . S
C363 C362 1.385 . S
C363 C364 1.389 . S
C364 C363 1.389 . S
C364 C365 1.387 . S
C365 H350 0.930 . S
C365 C360 1.390 . S
C365 C364 1.387 . S
H366 C378 0.930 . S
H367 C380 0.930 . S
H368 C381 0.930 . S
H369 C385 0.959 . S
H370 C385 0.959 . S
H371 C385 0.961 . S
H372 C386 0.960 . S
H373 C386 0.961 . S
H374 C386 0.959 . S
H375 C389 0.929 . S
H376 C390 0.931 . S
H377 C392 0.930 . S
C378 H366 0.930 . S
C378 C379 1.399 . S
C378 C383 1.399 . S
C379 C378 1.399 . S
C379 C380 1.376 . S
C380 H367 0.930 . S
C380 C379 1.376 . S
C380 C381 1.388 . S
C381 H368 0.930 . S
C381 C380 1.388 . S
C381 C382 1.390 . S
C382 C381 1.390 . S
C382 C383 1.394 . S
C382 C388 1.465 . S
C383 C378 1.399 . S
C383 C382 1.394 . S
C383 C384 1.516 . S
C384 C383 1.516 . S
C384 C385 1.502 . S
C384 C386 1.561 . S
C384 C387 1.526 . S
C385 H369 0.959 . S
C385 H370 0.959 . S
C385 H371 0.961 . S
C385 C384 1.502 . S
C386 H372 0.960 . S
C386 H373 0.961 . S
C386 H374 0.959 . S
C386 C384 1.561 . S
C387 C384 1.526 . S
C387 C388 1.396 . S
C387 C392 1.390 . S
C388 C382 1.465 . S
C388 C387 1.396 . S
C388 C389 1.399 . S
C389 H375 0.929 . S
C389 C388 1.399 . S
C389 C390 1.385 . S
C390 H376 0.931 . S
C390 C389 1.385 . S
C390 C391 1.389 . S
C391 C390 1.389 . S
C391 C392 1.387 . S
C392 H377 0.930 . S
C392 C387 1.390 . S
C392 C391 1.387 . S
H393 C405 0.930 . S
H394 C407 0.930 . S
H395 C408 0.930 . S
H396 C412 0.959 . S
H397 C412 0.959 . S
H398 C412 0.961 . S
H399 C413 0.960 . S
H400 C413 0.961 . S
H401 C413 0.959 . S
H402 C416 0.929 . S
H403 C417 0.931 . S
H404 C419 0.930 . S
C405 H393 0.930 . S
C405 C406 1.399 . S
C405 C410 1.399 . S
C406 C405 1.399 . S
C406 C407 1.376 . S
C407 H394 0.930 . S
C407 C406 1.376 . S
C407 C408 1.388 . S
C408 H395 0.930 . S
C408 C407 1.388 . S
C408 C409 1.390 . S
C409 C408 1.390 . S
C409 C410 1.394 . S
C409 C415 1.465 . S
C410 C405 1.399 . S
C410 C409 1.394 . S
C410 C411 1.516 . S
C411 C410 1.516 . S
C411 C412 1.502 . S
C411 C413 1.561 . S
C411 C414 1.526 . S
C412 H396 0.959 . S
C412 H397 0.959 . S
C412 H398 0.961 . S
C412 C411 1.502 . S
C413 H399 0.960 . S
C413 H400 0.961 . S
C413 H401 0.959 . S
C413 C411 1.561 . S
C414 C411 1.526 . S
C414 C415 1.396 . S
C414 C419 1.390 . S
C415 C409 1.465 . S
C415 C414 1.396 . S
C415 C416 1.399 . S
C416 H402 0.929 . S
C416 C415 1.399 . S
C416 C417 1.385 . S
C417 H403 0.931 . S
C417 C416 1.385 . S
C417 C418 1.389 . S
C418 C417 1.389 . S
C418 C419 1.387 . S
C419 H404 0.930 . S
C419 C414 1.390 . S
C419 C418 1.387 . S
H420 C432 0.930 . S
H421 C434 0.930 . S
H422 C435 0.930 . S
H423 C439 0.959 . S
H424 C439 0.959 . S
H425 C439 0.961 . S
H426 C440 0.960 . S
H427 C440 0.961 . S
H428 C440 0.959 . S
H429 C443 0.929 . S
H430 C444 0.931 . S
H431 C446 0.930 . S
C432 H420 0.930 . S
C432 C433 1.399 . S
C432 C437 1.399 . S
C433 C432 1.399 . S
C433 C434 1.376 . S
C434 H421 0.930 . S
C434 C433 1.376 . S
C434 C435 1.388 . S
C435 H422 0.930 . S
C435 C434 1.388 . S
C435 C436 1.390 . S
C436 C435 1.390 . S
C436 C437 1.394 . S
C436 C442 1.465 . S
C437 C432 1.399 . S
C437 C436 1.394 . S
C437 C438 1.516 . S
C438 C437 1.516 . S
C438 C439 1.502 . S
C438 C440 1.561 . S
C438 C441 1.526 . S
C439 H423 0.959 . S
C439 H424 0.959 . S
C439 H425 0.961 . S
C439 C438 1.502 . S
C440 H426 0.960 . S
C440 H427 0.961 . S
C440 H428 0.959 . S
C440 C438 1.561 . S
C441 C438 1.526 . S
C441 C442 1.396 . S
C441 C446 1.390 . S
C442 C436 1.465 . S
C442 C441 1.396 . S
C442 C443 1.399 . S
C443 H429 0.929 . S
C443 C442 1.399 . S
C443 C444 1.385 . S
C444 H430 0.931 . S
C444 C443 1.385 . S
C444 C445 1.389 . S
C445 C444 1.389 . S
C445 C446 1.387 . S
C446 H431 0.930 . S
C446 C441 1.390 . S
C446 C445 1.387 . S
H447 C459 0.930 . S
H448 C461 0.925 . S
H449 C462 0.923 . S
H450 C466 0.959 . S
H451 C466 0.959 1_455 S
H452 C466 0.961 . S
H453 C467 0.960 . S
H454 C467 0.961 . S
H455 C467 0.959 . S
H456 C470 0.929 . S
H457 C471 0.931 . S
H458 C473 0.930 . S
C459 H447 0.930 . S
C459 C460 1.399 . S
C459 C464 1.399 . S
C460 C459 1.399 . S
C460 C461 1.376 . S
C461 H448 0.925 . S
C461 C460 1.376 . S
C461 C462 1.388 . S
C462 H449 0.923 . S
C462 C461 1.388 . S
C462 C463 1.390 . S
C463 C462 1.390 . S
C463 C464 1.394 . S
C463 C469 1.465 . S
C464 C459 1.399 . S
C464 C463 1.394 . S
C464 C465 1.516 . S
C465 C464 1.516 . S
C465 C466 1.502 1_455 S
C465 C467 1.561 . S
C465 C468 1.502 1_554 S
C466 H450 0.959 . S
C466 H451 0.959 1_655 S
C466 H452 0.961 . S
C466 C465 1.502 1_655 S
C467 H453 0.960 . S
C467 H454 0.961 . S
C467 H455 0.959 . S
C467 C465 1.561 . S
C468 C465 1.502 1_556 S
C468 C469 1.387 1_556 S
C468 C473 1.419 . S
C469 C463 1.465 . S
C469 C468 1.387 1_554 S
C469 C470 1.399 1_554 S
C470 H456 0.929 . S
C470 C469 1.399 1_556 S
C470 C471 1.385 . S
C471 H457 0.931 . S
C471 C470 1.385 . S
C471 C472 1.389 . S
C472 C471 1.389 . S
C472 C473 1.387 . S
C473 H458 0.930 . S
C473 C468 1.419 . S
C473 C472 1.387 . S
H474 C486 0.930 . S
H475 C488 0.930 . S
H476 C489 0.930 . S
H477 C493 0.959 . S
H478 C493 0.959 . S
H479 C493 0.961 . S
H480 C494 0.960 . S
H481 C494 0.961 . S
H482 C494 0.959 . S
H483 C497 0.929 . S
H484 C498 0.931 . S
H485 C500 0.930 . S
C486 H474 0.930 . S
C486 C487 1.399 . S
C486 C491 1.399 . S
C487 C486 1.399 . S
C487 C488 1.376 1_545 S
C488 H475 0.930 . S
C488 C487 1.376 1_565 S
C488 C489 1.388 . S
C489 H476 0.930 . S
C489 C488 1.388 . S
C489 C490 1.390 . S
C490 C489 1.390 . S
C490 C491 1.394 1_565 S
C490 C496 1.465 . S
C491 C486 1.399 . S
C491 C490 1.394 1_545 S
C491 C492 1.516 . S
C492 C491 1.516 . S
C492 C493 1.502 . S
C492 C494 1.561 . S
C492 C495 1.526 . S
C493 H477 0.959 . S
C493 H478 0.959 . S
C493 H479 0.961 . S
C493 C492 1.502 . S
C494 H480 0.960 . S
C494 H481 0.961 . S
C494 H482 0.959 . S
C494 C492 1.561 . S
C495 C492 1.526 . S
C495 C496 1.396 1_545 S
C495 C500 1.390 . S
C496 C490 1.465 . S
C496 C495 1.396 1_565 S
C496 C497 1.399 . S
C497 H483 0.929 . S
C497 C496 1.399 . S
C497 C498 1.385 . S
C498 H484 0.931 . S
C498 C497 1.385 . S
C498 C499 1.389 1_565 S
C499 C498 1.389 1_545 S
C499 C500 1.387 . S
C500 H485 0.930 . S
C500 C495 1.390 . S
C500 C499 1.387 . S
H501 C513 0.930 . S
H502 C515 0.930 . S
H503 C516 0.930 . S
H504 C520 0.959 . S
H505 C520 0.959 . S
H506 C520 0.961 . S
H507 C521 0.960 . S
H508 C521 0.961 . S
H509 C521 0.959 . S
H510 C524 0.929 . S
H511 C525 0.931 . S
H512 C527 0.930 . S
C513 H501 0.930 . S
C513 C514 1.399 . S
C513 C518 1.399 . S
C514 C513 1.399 . S
C514 C515 1.376 . S
C515 H502 0.930 . S
C515 C514 1.376 . S
C515 C516 1.388 . S
C516 H503 0.930 . S
C516 C515 1.388 . S
C516 C517 1.390 . S
C517 C516 1.390 . S
C517 C518 1.394 . S
C517 C523 1.465 . S
C518 C513 1.399 . S
C518 C517 1.394 . S
C518 C519 1.516 . S
C519 C518 1.516 . S
C519 C520 1.502 . S
C519 C521 1.561 . S
C519 C522 1.526 . S
C520 H504 0.959 . S
C520 H505 0.959 . S
C520 H506 0.961 . S
C520 C519 1.502 . S
C521 H507 0.960 . S
C521 H508 0.961 . S
C521 H509 0.959 . S
C521 C519 1.561 . S
C522 C519 1.526 . S
C522 C523 1.396 . S
C522 C527 1.390 . S
C523 C517 1.465 . S
C523 C522 1.396 . S
C523 C524 1.399 . S
C524 H510 0.929 . S
C524 C523 1.399 . S
C524 C525 1.385 . S
C525 H511 0.931 . S
C525 C524 1.385 . S
C525 C526 1.389 . S
C526 C525 1.389 . S
C526 C527 1.387 . S
C527 H512 0.930 . S
C527 C522 1.390 . S
C527 C526 1.387 . S
H528 C540 0.930 . S
H529 C542 0.930 . S
H530 C543 0.930 . S
H531 C547 0.959 . S
H532 C547 0.959 . S
H533 C547 0.961 . S
H534 C548 0.960 . S
H535 C548 0.961 . S
H536 C548 0.959 . S
H537 C551 0.929 . S
H538 C552 0.931 . S
H539 C554 0.930 . S
C540 H528 0.930 . S
C540 C541 1.399 1_565 S
C540 C545 1.399 . S
C541 C540 1.399 1_545 S
C541 C542 1.376 . S
C542 H529 0.930 . S
C542 C541 1.376 . S
C542 C543 1.388 . S
C543 H530 0.930 . S
C543 C542 1.388 . S
C543 C544 1.390 . S
C544 C543 1.390 . S
C544 C545 1.394 1_545 S
C544 C550 1.465 . S
C545 C540 1.399 . S
C545 C544 1.394 1_565 S
C545 C546 1.516 . S
C546 C545 1.516 . S
C546 C547 1.502 . S
C546 C548 1.561 . S
C546 C549 1.526 . S
C547 H531 0.959 . S
C547 H532 0.959 . S
C547 H533 0.961 . S
C547 C546 1.502 . S
C548 H534 0.960 . S
C548 H535 0.961 . S
C548 H536 0.959 . S
C548 C546 1.561 . S
C549 C546 1.526 . S
C549 C550 1.396 1_565 S
C549 C554 1.390 . S
C550 C544 1.465 . S
C550 C549 1.396 1_545 S
C550 C551 1.399 . S
C551 H537 0.929 . S
C551 C550 1.399 . S
C551 C552 1.385 . S
C552 H538 0.931 . S
C552 C551 1.385 . S
C552 C553 1.389 . S
C553 C552 1.389 . S
C553 C554 1.387 1_545 S
C554 H539 0.930 . S
C554 C549 1.390 . S
C554 C553 1.387 1_565 S
H555 C567 0.930 . S
H556 C569 0.930 . S
H557 C570 0.930 . S
H558 C574 0.959 . S
H559 C574 0.959 . S
H560 C574 0.961 . S
H561 C575 0.960 . S
H562 C575 0.961 . S
H563 C575 0.959 . S
H564 C578 0.929 . S
H565 C579 0.931 . S
H566 C581 0.930 . S
C567 H555 0.930 . S
C567 C568 1.399 . S
C567 C572 1.399 . S
C568 C567 1.399 . S
C568 C569 1.376 . S
C569 H556 0.930 . S
C569 C568 1.376 . S
C569 C570 1.388 . S
C570 H557 0.930 . S
C570 C569 1.388 . S
C570 C571 1.390 . S
C571 C570 1.390 . S
C571 C572 1.394 . S
C571 C577 1.465 . S
C572 C567 1.399 . S
C572 C571 1.394 . S
C572 C573 1.516 . S
C573 C572 1.516 . S
C573 C574 1.502 . S
C573 C575 1.561 . S
C573 C576 1.526 1_556 S
C574 H558 0.959 . S
C574 H559 0.959 . S
C574 H560 0.961 . S
C574 C573 1.502 . S
C575 H561 0.960 . S
C575 H562 0.961 . S
C575 H563 0.959 . S
C575 C573 1.561 . S
C576 C573 1.526 1_554 S
C576 C577 1.396 1_554 S
C576 C581 1.390 . S
C577 C571 1.465 . S
C577 C576 1.396 1_556 S
C577 C578 1.399 1_556 S
C578 H564 0.929 . S
C578 C577 1.399 1_554 S
C578 C579 1.385 . S
C579 H565 0.931 . S
C579 C578 1.385 . S
C579 C580 1.389 . S
C580 C579 1.389 . S
C580 C581 1.387 . S
C581 H566 0.930 . S
C581 C576 1.390 . S
C581 C580 1.387 . S
H582 C594 0.930 . S
H583 C596 0.930 . S
H584 C597 0.930 . S
H585 C601 0.959 . S
H586 C601 0.959 . S
H587 C601 0.961 . S
H588 C602 0.960 . S
H589 C602 0.961 . S
H590 C602 0.959 1_455 S
H591 C605 0.929 . S
H592 C606 0.931 . S
H593 C608 0.930 . S
C594 H582 0.930 . S
C594 C595 1.399 1_655 S
C594 C599 1.399 . S
C595 C594 1.399 1_455 S
C595 C596 1.376 . S
C596 H583 0.930 . S
C596 C595 1.376 . S
C596 C597 1.388 . S
C597 H584 0.930 . S
C597 C596 1.388 . S
C597 C598 1.390 . S
C598 C597 1.390 . S
C598 C599 1.394 1_455 S
C598 C604 1.465 . S
C599 C594 1.399 . S
C599 C598 1.394 1_655 S
C599 C600 1.516 . S
C600 C599 1.516 . S
C600 C601 1.502 . S
C600 C602 1.561 . S
C600 C603 1.526 . S
C601 H585 0.959 . S
C601 H586 0.959 . S
C601 H587 0.961 . S
C601 C600 1.502 . S
C602 H588 0.960 . S
C602 H589 0.961 . S
C602 H590 0.959 1_655 S
C602 C600 1.561 . S
C603 C600 1.526 . S
C603 C604 1.396 1_655 S
C603 C608 1.390 . S
C604 C598 1.465 . S
C604 C603 1.396 1_455 S
C604 C605 1.399 . S
C605 H591 0.929 . S
C605 C604 1.399 . S
C605 C606 1.385 . S
C606 H592 0.931 . S
C606 C605 1.385 . S
C606 C607 1.389 . S
C607 C606 1.389 . S
C607 C608 1.387 1_455 S
C608 H593 0.930 . S
C608 C603 1.390 . S
C608 C607 1.387 1_655 S
C136 C20 1.194 . S
C148 C118 1.267 . S
C163 C41 1.292 . S
C175 C100 1.276 . S
C190 C64 1.302 . S
C202 C112 1.274 . S
C217 C19 1.284 . S
C229 C121 1.272 . S
C256 C103 1.286 . S
C244 C44 1.262 . S
C283 C109 1.264 . S
C271 C67 1.278 . S
C298 C43 1.273 . S
C310 C82 1.251 . S
C325 C66 1.187 . S
C337 C91 1.278 . S
C352 C21 1.265 . S
C364 C73 1.303 . S
C391 C85 1.261 . S
C379 C42 1.286 . S
C418 C94 1.310 . S
C406 C65 1.205 . S
C433 C18 1.273 . S
C445 C76 1.289 . S
C472 C92 1.462 . S
C460 C17 1.458 . S
C487 C39 1.463 . S
C499 C74 1.463 . S
C514 C62 1.474 . S
C526 C83 1.474 . S
C553 C110 1.449 1_545 S
C541 C40 1.442 . S
C580 C119 1.464 . S
C568 C63 1.466 . S
C595 C16 1.460 . S
C607 C101 1.459 . S
