# Generated by pormake.
# Topology hwx, (6,3)-cn, num edge types: 1
# Building blocks:
#     Node 0, Type 0, BuildingBlock: OJICUG_clean_sbu_0, # of connection points: 6
#     Node 1, Type 0, BuildingBlock: OJICUG_clean_sbu_0, # of connection points: 6
#     Node 2, Type 0, BuildingBlock: OJICUG_clean_sbu_0, # of connection points: 6
#     Node 3, Type 0, BuildingBlock: OJICUG_clean_sbu_0, # of connection points: 6
#     Node 4, Type 1, BuildingBlock: QEWDON_clean_linker_0, # of connection points: 3
#     Node 5, Type 1, BuildingBlock: QEWDON_clean_linker_0, # of connection points: 3
#     Node 6, Type 1, BuildingBlock: QEWDON_clean_linker_0, # of connection points: 3
#     Node 7, Type 1, BuildingBlock: QEWDON_clean_linker_0, # of connection points: 3
#     Node 8, Type 1, BuildingBlock: QEWDON_clean_linker_0, # of connection points: 3
#     Node 9, Type 1, BuildingBlock: QEWDON_clean_linker_0, # of connection points: 3
#     Node 10, Type 1, BuildingBlock: QEWDON_clean_linker_0, # of connection points: 3
#     Node 11, Type 1, BuildingBlock: QEWDON_clean_linker_0, # of connection points: 3
#     Edge 12, Type (0, 1), BuildingBlock: CIFDUS_clean_linker_0, # of connection points: 2
#     Edge 13, Type (0, 1), BuildingBlock: CIFDUS_clean_linker_0, # of connection points: 2
#     Edge 14, Type (0, 1), BuildingBlock: CIFDUS_clean_linker_0, # of connection points: 2
#     Edge 15, Type (0, 1), BuildingBlock: CIFDUS_clean_linker_0, # of connection points: 2
#     Edge 16, Type (0, 1), BuildingBlock: CIFDUS_clean_linker_0, # of connection points: 2
#     Edge 17, Type (0, 1), BuildingBlock: CIFDUS_clean_linker_0, # of connection points: 2
#     Edge 18, Type (0, 1), BuildingBlock: CIFDUS_clean_linker_0, # of connection points: 2
#     Edge 19, Type (0, 1), BuildingBlock: CIFDUS_clean_linker_0, # of connection points: 2
#     Edge 20, Type (0, 1), BuildingBlock: CIFDUS_clean_linker_0, # of connection points: 2
#     Edge 21, Type (0, 1), BuildingBlock: CIFDUS_clean_linker_0, # of connection points: 2
#     Edge 22, Type (0, 1), BuildingBlock: CIFDUS_clean_linker_0, # of connection points: 2
#     Edge 23, Type (0, 1), BuildingBlock: CIFDUS_clean_linker_0, # of connection points: 2
#     Edge 24, Type (0, 1), BuildingBlock: CIFDUS_clean_linker_0, # of connection points: 2
#     Edge 25, Type (0, 1), BuildingBlock: CIFDUS_clean_linker_0, # of connection points: 2
#     Edge 26, Type (0, 1), BuildingBlock: CIFDUS_clean_linker_0, # of connection points: 2
#     Edge 27, Type (0, 1), BuildingBlock: CIFDUS_clean_linker_0, # of connection points: 2
#     Edge 28, Type (0, 1), BuildingBlock: CIFDUS_clean_linker_0, # of connection points: 2
#     Edge 29, Type (0, 1), BuildingBlock: CIFDUS_clean_linker_0, # of connection points: 2
#     Edge 30, Type (0, 1), BuildingBlock: CIFDUS_clean_linker_0, # of connection points: 2
#     Edge 31, Type (0, 1), BuildingBlock: CIFDUS_clean_linker_0, # of connection points: 2
#     Edge 32, Type (0, 1), BuildingBlock: CIFDUS_clean_linker_0, # of connection points: 2
#     Edge 33, Type (0, 1), BuildingBlock: CIFDUS_clean_linker_0, # of connection points: 2
#     Edge 34, Type (0, 1), BuildingBlock: CIFDUS_clean_linker_0, # of connection points: 2
#     Edge 35, Type (0, 1), BuildingBlock: CIFDUS_clean_linker_0, # of connection points: 2
# Relax obj value: 0.002
# Max RMSD: 0.096
# Mean RMSD: 0.075
data_MOF--net-hwx--node1-OJICUG_clean_sbu_0--node2-QEWDON_clean_linker_0--edge1-CIFDUS_clean_linker_0
_symmetry_space_group_name_H-M    P1
_symmetry_Int_Tables_number       1
_symmetry_cell_setting            triclinic
loop_
_symmetry_equiv_pos_as_xyz
'x, y, z'
_cell_length_a     48.965029
_cell_length_b     49.0474
_cell_length_c     17.645946
_cell_angle_alpha  92.478884
_cell_angle_beta   92.434265
_cell_angle_gamma 89.988318
loop_
_atom_site_label
_atom_site_type_symbol
_atom_site_fract_x
_atom_site_fract_y
_atom_site_fract_z
_atom_type_partial_charge
Sc0 Sc 0.23773 0.23866 0.08738 0.0
Sc1 Sc 0.19382 0.19214 0.98148 0.0
Sc2 Sc 0.22868 0.24264 0.88947 0.0
O3 O 0.22005 0.2245 0.98641 0.0
C4 C 0.22638 0.29459 0.00194 0.0
C5 C 0.17527 0.22817 0.12603 0.0
C6 C 0.16504 0.22998 0.85961 0.0
C7 C 0.2368 0.17386 0.1096 0.0
C8 C 0.2876 0.24113 0.97788 0.0
C9 C 0.23047 0.17901 0.84035 0.0
O10 O 0.23354 0.28155 0.06051 0.0
O11 O 0.17154 0.20976 0.07353 0.0
O12 O 0.18662 0.24325 0.84788 0.0
O13 O 0.24509 0.19793 0.12852 0.0
O14 O 0.27167 0.24454 0.92018 0.0
O15 O 0.21433 0.17142 0.8899 0.0
O16 O 0.27874 0.23733 0.0436 0.0
O17 O 0.2189 0.16906 0.05681 0.0
O18 O 0.23684 0.20388 0.83302 0.0
O19 O 0.19786 0.24103 0.13802 0.0
O20 O 0.22206 0.28292 0.93693 0.0
O21 O 0.16466 0.21067 0.90509 0.0
Sc22 Sc 0.27741 0.73478 0.39172 0.0
Sc23 Sc 0.32261 0.69966 0.51287 0.0
Sc24 Sc 0.27041 0.74062 0.58949 0.0
O25 O 0.29017 0.72509 0.49807 0.0
C26 C 0.27323 0.79217 0.48528 0.0
C27 C 0.34233 0.73538 0.37903 0.0
C28 C 0.33292 0.74192 0.65133 0.0
C29 C 0.2904 0.67105 0.3707 0.0
C30 C 0.22046 0.7291 0.46987 0.0
C31 C 0.28115 0.67909 0.63408 0.0
O32 O 0.27355 0.77729 0.42441 0.0
O33 O 0.34641 0.71887 0.43165 0.0
O34 O 0.30771 0.74755 0.656 0.0
O35 O 0.27928 0.69302 0.34947 0.0
O36 O 0.23033 0.73535 0.53602 0.0
O37 O 0.3025 0.67734 0.59576 0.0
O38 O 0.23505 0.72682 0.4121 0.0
O39 O 0.30666 0.66999 0.42856 0.0
O40 O 0.266 0.7003 0.63554 0.0
O41 O 0.31862 0.74377 0.3588 0.0
O42 O 0.27327 0.78222 0.551 0.0
O43 O 0.34215 0.72628 0.59919 0.0
Sc44 Sc 0.77309 0.77507 0.93133 0.0
Sc45 Sc 0.82284 0.82307 0.00286 0.0
Sc46 Sc 0.78187 0.78922 0.12799 0.0
O47 O 0.79261 0.79577 0.02063 0.0
C48 C 0.7234 0.78459 0.04066 0.0
C49 C 0.77799 0.83523 0.87102 0.0
C50 C 0.78926 0.85372 0.13305 0.0
C51 C 0.8349 0.77621 0.87811 0.0
C52 C 0.78334 0.72883 0.05236 0.0
C53 C 0.84677 0.79621 0.15106 0.0
O54 O 0.73281 0.77979 0.97548 0.0
O55 O 0.7988 0.84117 0.91408 0.0
O56 O 0.77799 0.83219 0.15465 0.0
O57 O 0.81049 0.76729 0.87448 0.0
O58 O 0.78487 0.74577 0.10914 0.0
O59 O 0.85024 0.80819 0.09 0.0
O60 O 0.77885 0.73613 0.98439 0.0
O61 O 0.84271 0.79592 0.92296 0.0
O62 O 0.82353 0.78899 0.17239 0.0
O63 O 0.7659 0.8122 0.87083 0.0
O64 O 0.73877 0.78842 0.09987 0.0
O65 O 0.80659 0.85352 0.08123 0.0
Sc66 Sc 0.73575 0.29314 0.60386 0.0
Sc67 Sc 0.68806 0.33173 0.49784 0.0
Sc68 Sc 0.72416 0.27839 0.4082 0.0
O69 O 0.71607 0.30108 0.50345 0.0
C70 C 0.78403 0.28758 0.48797 0.0
C71 C 0.73071 0.35797 0.6219 0.0
C72 C 0.72125 0.33977 0.3506 0.0
C73 C 0.67265 0.30097 0.64542 0.0
C74 C 0.72745 0.23253 0.5304 0.0
C75 C 0.66032 0.2869 0.38179 0.0
O76 O 0.77595 0.29254 0.55503 0.0
O77 O 0.71063 0.35924 0.57455 0.0
O78 O 0.72674 0.31443 0.34268 0.0
O79 O 0.69688 0.29221 0.65931 0.0
O80 O 0.72333 0.2398 0.46261 0.0
O81 O 0.66049 0.30933 0.42036 0.0
O82 O 0.73219 0.24958 0.58566 0.0
O83 O 0.66635 0.31554 0.58929 0.0
O84 O 0.68153 0.2722 0.37516 0.0
O85 O 0.74252 0.33565 0.63686 0.0
O86 O 0.76756 0.28206 0.43154 0.0
O87 O 0.70815 0.34979 0.40598 0.0
H88 H 0.25282 0.52412 0.09709 0.0
C89 C 0.24719 0.53572 0.04789 0.0
C90 C 0.23851 0.5629 0.05794 0.0
C91 C 0.25083 0.52431 0.97449 0.0
H92 H 0.22776 0.59977 0.00219 0.0
C93 C 0.23273 0.57831 -0.00591 0.0
C94 C 0.23698 0.56766 0.92068 0.0
C95 C 0.24568 0.54043 0.91119 0.0
C96 C 0.26448 0.49744 0.96455 0.0
H97 H 0.24969 0.53217 0.85478 0.0
C98 C 0.25429 0.47368 -0.00396 0.0
C99 C 0.26855 0.44881 0.98809 0.0
C100 C 0.28882 0.4959 0.92509 0.0
H101 H 0.29719 0.5139 0.90107 0.0
C102 C 0.30296 0.47134 0.91773 0.0
H103 H 0.23546 0.47453 0.02621 0.0
C104 C 0.29298 0.44796 0.94919 0.0
H105 H 0.30415 0.429 0.94226 0.0
H106 H 0.32176 0.47043 0.88759 0.0
H107 H 0.98886 0.72354 0.40454 0.0
C108 C 0.97858 0.72829 0.45671 0.0
C109 C 0.95405 0.74308 0.45471 0.0
C110 C 0.98949 0.71893 0.52579 0.0
H111 H 0.9213 0.7592 0.52105 0.0
C112 C 0.94064 0.74839 0.52237 0.0
C113 C 0.95118 0.73899 0.59148 0.0
C114 C 0.97581 0.7244 0.59326 0.0
C115 C 0.01391 0.70142 0.52586 0.0
H116 H 0.98385 0.7166 0.64628 0.0
C117 C 0.03997 0.71264 0.51812 0.0
C118 C 0.06303 0.69558 0.51451 0.0
C119 C 0.01095 0.67311 0.53052 0.0
H120 H 0.99094 0.66418 0.53625 0.0
C121 C 0.03374 0.65611 0.52638 0.0
H122 H 0.04226 0.73453 0.51452 0.0
C123 C 0.05964 0.66721 0.51809 0.0
H124 H 0.07712 0.65369 0.51597 0.0
H125 H 0.03133 0.63426 0.52964 0.0
H126 H 0.8027 0.49655 0.9232 0.0
C127 C 0.79294 0.48578 0.96711 0.0
C128 C 0.77917 0.46117 0.94878 0.0
C129 C 0.7951 0.49574 0.0431 0.0
H130 H 0.75662 0.42791 -0.00931 0.0
C131 C 0.76727 0.4469 0.00585 0.0
C132 C 0.76994 0.45608 0.08209 0.0
C133 C 0.78369 0.48077 0.10036 0.0
C134 C 0.81158 0.5203 0.06435 0.0
H135 H 0.78637 0.48792 0.1592 0.0
C136 C 0.80289 0.54636 0.04324 0.0
C137 C 0.81797 0.56973 0.06865 0.0
C138 C 0.83576 0.51763 0.10896 0.0
H139 H 0.84272 0.4977 0.12566 0.0
C140 C 0.85115 0.54061 0.13229 0.0
H141 H 0.78393 0.54849 0.01001 0.0
C142 C 0.84231 0.56649 0.11265 0.0
H143 H 0.85452 0.58406 0.13202 0.0
H144 H 0.86986 0.53839 0.16639 0.0
H145 H 0.01719 0.26579 0.58952 0.0
C146 C 0.02959 0.27008 0.54201 0.0
C147 C 0.05698 0.27833 0.5553 0.0
C148 C 0.01898 0.26531 0.4672 0.0
H149 H 0.09493 0.2869 0.50397 0.0
C150 C 0.0734 0.28228 0.49347 0.0
C151 C 0.06354 0.27672 0.41888 0.0
C152 C 0.03614 0.26869 0.40605 0.0
C153 C 0.99163 0.25263 0.45231 0.0
H154 H 0.02847 0.26387 0.34848 0.0
C155 C 0.96749 0.26485 0.47892 0.0
C156 C 0.9418 0.25291 0.45888 0.0
C157 C 0.98977 0.22798 0.40867 0.0
H158 H 1.008 0.21802 0.38847 0.0
C159 C 0.96448 0.21586 0.39065 0.0
H160 H 0.96861 0.28396 0.5121 0.0
C161 C 0.94066 0.2283 0.41501 0.0
H162 H 0.92118 0.21867 0.39945 0.0
H163 H 0.96333 0.19688 0.35699 0.0
H164 H 0.76089 1.00041 0.40984 0.0
C165 C 0.75844 0.98867 0.45976 0.0
C166 C 0.75143 0.96087 0.45167 0.0
C167 C 0.76404 1.00077 0.53239 0.0
H168 H 0.74693 0.92355 0.50932 0.0
C169 C 0.75023 0.94537 0.51654 0.0
C170 C 0.75622 0.95701 0.58932 0.0
C171 C 0.76233 0.98501 0.59666 0.0
C172 C 0.77607 0.0284 0.54184 0.0
H173 H 0.76712 0.99445 0.65231 0.0
C174 C 0.76109 0.05187 0.52313 0.0
C175 C 0.77246 0.07794 0.53994 0.0
C176 C 0.80267 0.0312 0.57433 0.0
H177 H 0.81452 0.01335 0.58883 0.0
C178 C 0.81415 0.05695 0.58901 0.0
H179 H 0.74044 0.04991 0.49887 0.0
C180 C 0.79909 0.08021 0.57255 0.0
H181 H 0.80825 0.10008 0.58534 0.0
H182 H 0.83465 0.05891 0.61414 0.0
H183 H 0.51762 0.21981 0.08309 0.0
C184 C 0.53138 0.22579 0.04024 0.0
C185 C 0.55811 0.23419 0.0618 0.0
C186 C 0.52304 0.22388 0.96267 0.0
H187 H 0.59693 0.24729 0.02375 0.0
C188 C 0.57626 0.24094 0.00652 0.0
C189 C 0.56836 0.23943 0.92958 0.0
C190 C 0.54162 0.23122 0.90769 0.0
C191 C 0.49617 0.21168 0.93774 0.0
H192 H 0.53556 0.22971 0.84785 0.0
C193 C 0.47139 0.22075 0.96866 0.0
C194 C 0.44624 0.20949 0.9404 0.0
C195 C 0.49542 0.19063 0.88097 0.0
H196 H 0.51411 0.18296 0.85722 0.0
C197 C 0.47065 0.17909 0.85448 0.0
H198 H 0.47159 0.2371 0.01198 0.0
C199 C 0.44624 0.18854 0.88348 0.0
H200 H 0.42719 0.17949 0.86127 0.0
H201 H 0.47037 0.16289 0.8108 0.0
H202 H 0.2869 0.02374 0.5929 0.0
C203 C 0.28557 0.03607 0.54337 0.0
C204 C 0.27624 0.06313 0.55033 0.0
C205 C 0.29516 0.02578 0.4734 0.0
H206 H 0.26799 0.1001 0.49216 0.0
C207 C 0.27552 0.0793 0.48693 0.0
C208 C 0.2849 0.06955 0.41745 0.0
C209 C 0.2944 0.04264 0.41026 0.0
C210 C 0.30902 0.99884 0.46791 0.0
H211 H 0.30199 0.03514 0.35644 0.0
C212 C 0.29673 0.97476 0.49176 0.0
C213 C 0.31032 0.94952 0.48319 0.0
C214 C 0.33514 0.99732 0.43774 0.0
H215 H 0.3452 0.01552 0.42005 0.0
C216 C 0.34869 0.97242 0.4306 0.0
H217 H 0.27651 0.97552 0.51444 0.0
C218 C 0.33633 0.94864 0.45271 0.0
H219 H 0.347 0.9294 0.44552 0.0
H220 H 0.36878 0.97153 0.40724 0.0
H221 H 0.48572 0.76201 0.91784 0.0
C222 C 0.47685 0.77117 0.96806 0.0
C223 C 0.45031 0.78221 0.96388 0.0
C224 C 0.49085 0.76907 0.03873 0.0
H225 H 0.4188 0.80173 0.02821 0.0
C226 C 0.43905 0.7929 0.03094 0.0
C227 C 0.45145 0.78823 0.1022 0.0
C228 C 0.47797 0.77734 0.10547 0.0
C229 C 0.51626 0.75304 0.04469 0.0
H230 H 0.48783 0.77339 0.1601 0.0
C231 C 0.5414 0.76381 0.02441 0.0
C232 C 0.56552 0.74867 0.0356 0.0
C233 C 0.51533 0.72692 0.07412 0.0
H234 H 0.49609 0.71837 0.08999 0.0
C235 C 0.5392 0.71173 0.08374 0.0
H236 H 0.54232 0.7841 0.00262 0.0
C237 C 0.56422 0.7226 0.06511 0.0
H238 H 0.58267 0.71076 0.07423 0.0
H239 H 0.53834 0.69164 0.10661 0.0
H240 H 0.16671 0.2742 0.21598 0.0
H241 H 0.13061 0.19651 0.14375 0.0
H242 H 0.09155 0.20614 0.22095 0.0
H243 H 0.06867 0.23515 0.31461 0.0
H244 H 0.10399 0.31281 0.38853 0.0
H245 H 0.14199 0.30483 0.30452 0.0
C246 C 0.15032 0.25938 0.21731 0.0
C247 C 0.15182 0.23458 0.17442 0.0
C248 C 0.12759 0.2651 0.26171 0.0
C249 C 0.13014 0.21577 0.1761 0.0
C250 C 0.10768 0.22124 0.22022 0.0
C251 C 0.08427 0.25068 0.31082 0.0
C252 C 0.08343 0.27457 0.35753 0.0
C253 C 0.10625 0.24573 0.2636 0.0
C254 C 0.10419 0.29422 0.35312 0.0
C255 C 0.12599 0.28959 0.30544 0.0
H256 H 0.23525 0.66976 0.71487 0.0
H257 H 0.31218 0.63368 0.65285 0.0
H258 H 0.30341 0.59463 0.72747 0.0
H259 H 0.27622 0.57215 0.81872 0.0
H260 H 0.19955 0.60722 0.88415 0.0
H261 H 0.20576 0.64478 0.7994 0.0
C262 C 0.25002 0.65332 0.71749 0.0
C263 C 0.27447 0.65505 0.67861 0.0
C264 C 0.24492 0.63053 0.76103 0.0
C265 C 0.29322 0.63326 0.68225 0.0
C266 C 0.28826 0.61073 0.72496 0.0
C267 C 0.26043 0.58753 0.81279 0.0
C268 C 0.23746 0.58683 0.85763 0.0
C269 C 0.26441 0.6093 0.7654 0.0
C270 C 0.21749 0.60733 0.85032 0.0
C271 C 0.22111 0.6289 0.80222 0.0
H272 H 0.87939 0.75185 0.15849 0.0
H273 H 0.86603 0.83189 0.26022 0.0
H274 H 0.90147 0.82388 0.3589 0.0
H275 H 0.93247 0.79228 0.42323 0.0
H276 H 0.94487 0.71146 0.32492 0.0
H277 H 0.91435 0.72176 0.21639 0.0
C278 C 0.88473 0.76759 0.20168 0.0
C279 C 0.8704 0.79235 0.203 0.0
C280 C 0.90491 0.76268 0.25847 0.0
C281 C 0.87707 0.81272 0.25878 0.0
C282 C 0.89721 0.80812 0.31502 0.0
C283 C 0.92879 0.7771 0.37736 0.0
C284 C 0.94061 0.7511 0.38225 0.0
C285 C 0.91073 0.78293 0.3165 0.0
C286 C 0.93606 0.73168 0.32215 0.0
C287 C 0.9184 0.73746 0.26056 0.0
H288 H 0.77961 0.36932 0.69686 0.0
H289 H 0.69992 0.40343 0.64667 0.0
H290 H 0.71005 0.44202 0.73482 0.0
H291 H 0.73872 0.46221 0.84065 0.0
H292 H 0.81821 0.4285 0.89135 0.0
H293 H 0.81139 0.39407 0.78756 0.0
C294 C 0.76465 0.38542 0.7044 0.0
C295 C 0.73887 0.38319 0.66632 0.0
C296 C 0.77062 0.40771 0.75519 0.0
C297 C 0.71987 0.40448 0.67563 0.0
C298 C 0.7256 0.42659 0.72622 0.0
C299 C 0.75492 0.44801 0.82654 0.0
C300 C 0.779 0.44789 0.87238 0.0
C301 C 0.75053 0.42795 0.76812 0.0
C302 C 0.79973 0.42912 0.85543 0.0
C303 C 0.79565 0.40923 0.79694 0.0
H304 H 0.64594 0.23639 0.32167 0.0
H305 H 0.61701 0.31938 0.34516 0.0
H306 H 0.57804 0.30832 0.25914 0.0
H307 H 0.55676 0.27726 0.16074 0.0
H308 H 0.58601 0.19483 0.13428 0.0
H309 H 0.61962 0.20309 0.23945 0.0
C310 C 0.63089 0.25194 0.3088 0.0
C311 C 0.63478 0.2788 0.33853 0.0
C312 C 0.60841 0.24547 0.25903 0.0
C313 C 0.61476 0.29858 0.32251 0.0
C314 C 0.5924 0.29231 0.27321 0.0
C315 C 0.56963 0.26081 0.18075 0.0
C316 C 0.56884 0.23544 0.14101 0.0
C317 C 0.58955 0.2661 0.23909 0.0
C318 C 0.58601 0.21435 0.16548 0.0
C319 C 0.60554 0.21925 0.22458 0.0
H320 H 0.2145 0.12602 0.80728 0.0
H321 H 0.27748 0.18473 0.76676 0.0
H322 H 0.30019 0.15132 0.68571 0.0
H323 H 0.29999 0.10743 0.61653 0.0
H324 H 0.23543 0.04961 0.64415 0.0
H325 H 0.21611 0.08005 0.7426 0.0
C326 C 0.23325 0.13141 0.78092 0.0
C327 C 0.24397 0.15804 0.79206 0.0
C328 C 0.24611 0.11212 0.73294 0.0
C329 C 0.26841 0.16464 0.75794 0.0
C330 C 0.28159 0.14546 0.71205 0.0
C331 C 0.28204 0.10125 0.64559 0.0
C332 C 0.26904 0.0765 0.62345 0.0
C333 C 0.27034 0.11942 0.69802 0.0
C334 C 0.24585 0.06853 0.66102 0.0
C335 C 0.23463 0.08612 0.71627 0.0
H336 H 0.34982 0.78284 0.30596 0.0
H337 H 0.38941 0.70726 0.3625 0.0
H338 H 0.42892 0.71938 0.29213 0.0
H339 H 0.44993 0.74863 0.20373 0.0
H340 H 0.41192 0.82493 0.14725 0.0
H341 H 0.37438 0.81555 0.22967 0.0
C342 C 0.36717 0.76913 0.30295 0.0
C343 C 0.36647 0.74401 0.33844 0.0
C344 C 0.39017 0.77637 0.26286 0.0
C345 C 0.38932 0.72667 0.33542 0.0
C346 C 0.41199 0.73358 0.29524 0.0
C347 C 0.43407 0.76382 0.21142 0.0
C348 C 0.43371 0.78735 0.16858 0.0
C349 C 0.41242 0.75811 0.25766 0.0
C350 C 0.41258 0.80647 0.17882 0.0
C351 C 0.39099 0.80103 0.22553 0.0
H352 H 0.79929 0.88565 0.85651 0.0
H353 H 0.73414 0.83248 0.76767 0.0
H354 H 0.71968 0.86694 0.67805 0.0
H355 H 0.72726 0.91113 0.62059 0.0
H356 H 0.79507 0.96183 0.70524 0.0
H357 H 0.80594 0.92972 0.80269 0.0
C358 C 0.78182 0.88147 0.8179 0.0
C359 C 0.76802 0.85629 0.81857 0.0
C360 C 0.77386 0.90112 0.76618 0.0
C361 C 0.74531 0.85155 0.7682 0.0
C362 C 0.737 0.87127 0.71698 0.0
C363 C 0.74443 0.9152 0.66032 0.0
C364 C 0.76023 0.93905 0.65501 0.0
C365 C 0.75141 0.89598 0.71472 0.0
C366 C 0.78207 0.9441 0.70826 0.0
C367 C 0.78862 0.92548 0.76363 0.0
H368 H 0.89036 0.78393 0.87778 0.0
H369 H 0.82369 0.74027 0.75868 0.0
H370 H 0.85465 0.7227 0.6643 0.0
H371 H 0.89958 0.72276 0.60903 0.0
H372 H 0.96664 0.766 0.72526 0.0
H373 H 0.93677 0.78031 0.82812 0.0
C374 C 0.88263 0.77042 0.83149 0.0
C375 C 0.85458 0.7638 0.82504 0.0
C376 C 0.90062 0.76027 0.77694 0.0
C377 C 0.84507 0.74593 0.76513 0.0
C378 C 0.86277 0.73583 0.71088 0.0
C379 C 0.90768 0.73498 0.65761 0.0
C380 C 0.93506 0.74354 0.65981 0.0
C381 C 0.89039 0.74331 0.7154 0.0
C382 C 0.94557 0.75915 0.72289 0.0
C383 C 0.92846 0.76749 0.78116 0.0
H384 H 0.71685 0.39549 0.34937 0.0
H385 H 0.74948 0.32586 0.22472 0.0
H386 H 0.76808 0.35585 0.13373 0.0
H387 H 0.77545 0.40141 0.08938 0.0
H388 H 0.74228 0.4715 0.20944 0.0
H389 H 0.72415 0.44173 0.30361 0.0
C390 C 0.72792 0.38684 0.30215 0.0
C391 C 0.7316 0.35835 0.29409 0.0
C392 C 0.73871 0.40426 0.24959 0.0
C393 C 0.74617 0.34762 0.23258 0.0
C394 C 0.75693 0.36476 0.18042 0.0
C395 C 0.76397 0.41022 0.13562 0.0
C396 C 0.75991 0.4386 0.14181 0.0
C397 C 0.75331 0.39304 0.18838 0.0
C398 C 0.74574 0.44972 0.20349 0.0
C399 C 0.73523 0.43269 0.25698 0.0
H400 H 0.15059 0.27886 0.80335 0.0
H401 H 0.12185 0.19632 0.82108 0.0
H402 H 0.08188 0.20595 0.73903 0.0
H403 H 0.0589 0.23585 0.64778 0.0
H404 H 0.08801 0.31807 0.62883 0.0
H405 H 0.12349 0.31089 0.72767 0.0
C406 C 0.13543 0.26307 0.78976 0.0
C407 C 0.13947 0.23676 0.81684 0.0
C408 C 0.11244 0.26878 0.74282 0.0
C409 C 0.11935 0.21668 0.80032 0.0
C410 C 0.09647 0.22216 0.75342 0.0
C411 C 0.0723 0.25252 0.66766 0.0
C412 C 0.07096 0.27742 0.63119 0.0
C413 C 0.09322 0.2479 0.72258 0.0
C414 C 0.08869 0.29876 0.65647 0.0
C415 C 0.10918 0.29453 0.71217 0.0
H416 H 0.2414 0.65711 0.30497 0.0
H417 H 0.32385 0.62784 0.33883 0.0
H418 H 0.31334 0.58801 0.25386 0.0
H419 H 0.28238 0.56531 0.15674 0.0
H420 H 0.2 0.59491 0.1239 0.0
H421 H 0.20848 0.63042 0.22357 0.0
C422 C 0.25698 0.64186 0.29413 0.0
C423 C 0.28351 0.64561 0.32638 0.0
C424 C 0.25071 0.61903 0.24597 0.0
C425 C 0.30336 0.62544 0.31379 0.0
C426 C 0.29735 0.60271 0.2653 0.0
C427 C 0.266 0.57887 0.17356 0.0
C428 C 0.24065 0.57766 0.13294 0.0
C429 C 0.2713 0.59971 0.22944 0.0
C430 C 0.21967 0.59556 0.15449 0.0
C431 C 0.22461 0.61602 0.21079 0.0
H432 H 0.38716 0.75562 0.6469 0.0
H433 H 0.32044 0.7494 0.79776 0.0
H434 H 0.35092 0.7614 0.9062 0.0
H435 H 0.39616 0.77021 0.95859 0.0
H436 H 0.46329 0.78201 0.81207 0.0
H437 H 0.43302 0.77024 0.70115 0.0
C438 C 0.37938 0.75716 0.70356 0.0
C439 C 0.35163 0.75156 0.71444 0.0
C440 C 0.39701 0.76467 0.76615 0.0
C441 C 0.34166 0.7538 0.78786 0.0
C442 C 0.35908 0.76051 0.84999 0.0
C443 C 0.40429 0.77148 0.90271 0.0
C444 C 0.43208 0.77763 0.8944 0.0
C445 C 0.38675 0.76572 0.83977 0.0
C446 C 0.44207 0.77734 0.8207 0.0
C447 C 0.42472 0.77072 0.75716 0.0
H448 H 0.74283 0.86712 0.20386 0.0
H449 H 0.82189 0.8989 0.15378 0.0
H450 H 0.81473 0.93861 0.23925 0.0
H451 H 0.78912 0.9601 0.34343 0.0
H452 H 0.71063 0.92746 0.39476 0.0
H453 H 0.71409 0.89264 0.29233 0.0
C454 C 0.75832 0.88295 0.21083 0.0
C455 C 0.78307 0.87982 0.17388 0.0
C456 C 0.75414 0.90557 0.26032 0.0
C457 C 0.80273 0.90074 0.18206 0.0
C458 C 0.79869 0.92341 0.23114 0.0
C459 C 0.77236 0.946 0.33015 0.0
C460 C 0.74973 0.94614 0.37662 0.0
C461 C 0.77489 0.92553 0.27262 0.0
C462 C 0.72825 0.92759 0.35964 0.0
C463 C 0.73035 0.90756 0.30163 0.0
H464 H 0.67302 0.2598 0.74444 0.0
H465 H 0.62155 0.32318 0.65412 0.0
H466 H 0.58393 0.30839 0.72895 0.0
H467 H 0.56577 0.278 0.82312 0.0
H468 H 0.61752 0.21513 0.91369 0.0
H469 H 0.65464 0.22882 0.83504 0.0
C470 C 0.65366 0.27053 0.74146 0.0
C471 C 0.6503 0.29272 0.69405 0.0
C472 C 0.63196 0.26177 0.78414 0.0
C473 C 0.62484 0.30607 0.69023 0.0
C474 C 0.60322 0.29758 0.73288 0.0
C475 C 0.58504 0.26709 0.82438 0.0
C476 C 0.58897 0.24557 0.87365 0.0
C477 C 0.60651 0.27544 0.78004 0.0
C478 C 0.61412 0.23175 0.87591 0.0
C479 C 0.63536 0.23966 0.83134 0.0
H480 H 0.27639 0.17342 0.22422 0.0
H481 H 0.22057 0.12063 0.0905 0.0
H482 H 0.23371 0.08238 0.16701 0.0
H483 H 0.25712 0.06489 0.28124 0.0
H484 H 0.312 0.11762 0.41664 0.0
H485 H 0.30368 0.1545 0.32968 0.0
C486 C 0.26729 0.15351 0.21129 0.0
C487 C 0.24717 0.15022 0.15231 0.0
C488 C 0.27484 0.1314 0.25589 0.0
C489 C 0.23589 0.12405 0.13601 0.0
C490 C 0.2434 0.10201 0.17975 0.0
C491 C 0.26784 0.0842 0.29007 0.0
C492 C 0.28512 0.08863 0.35481 0.0
C493 C 0.26235 0.10556 0.24098 0.0
C494 C 0.29865 0.11384 0.36672 0.0
C495 C 0.29371 0.13498 0.31746 0.0
H496 H 0.25683 0.3295 0.09582 0.0
H497 H 0.19444 0.3276 0.91561 0.0
H498 H 0.19887 0.37681 0.90415 0.0
H499 H 0.22516 0.41913 0.93239 0.0
H500 H 0.29016 0.4203 0.10452 0.0
H501 H 0.27988 0.37303 0.13315 0.0
C502 C 0.24372 0.33999 0.05548 0.0
C503 C 0.22545 0.32486 0.00639 0.0
C504 C 0.24706 0.36825 0.04733 0.0
C505 C 0.20882 0.33874 0.95371 0.0
C506 C 0.21138 0.36689 0.94697 0.0
C507 C 0.23642 0.4092 0.97771 0.0
C508 C 0.25815 0.42308 0.01695 0.0
C509 C 0.23109 0.3817 -0.00843 0.0
C510 C 0.27314 0.40996 0.07433 0.0
C511 C 0.2674 0.3829 0.0902 0.0
H512 H 0.1801 0.74859 0.55776 0.0
H513 H 0.19462 0.69514 0.36297 0.0
H514 H 0.14671 0.68081 0.35747 0.0
H515 H 0.10138 0.68128 0.41347 0.0
H516 H 0.08668 0.7358 0.60559 0.0
H517 H 0.13393 0.7521 0.60645 0.0
C518 C 0.17272 0.73395 0.51376 0.0
C519 C 0.19092 0.72275 0.4613 0.0
C520 C 0.14516 0.72595 0.51066 0.0
C521 C 0.181 0.70411 0.40393 0.0
C522 C 0.15365 0.69579 0.40099 0.0
C523 C 0.10857 0.69686 0.4551 0.0
C524 C 0.09077 0.70721 0.50978 0.0
C525 C 0.13567 0.70623 0.45488 0.0
C526 C 0.10007 0.72764 0.56287 0.0
C527 C 0.12707 0.73684 0.56359 0.0
H528 H 0.78118 0.68474 0.95027 0.0
H529 H 0.79662 0.70677 0.18815 0.0
H530 H 0.80746 0.6597 0.21358 0.0
H531 H 0.81441 0.61258 0.16892 0.0
H532 H 0.79922 0.58932 0.9326 0.0
H533 H 0.78607 0.63638 0.90628 0.0
C534 C 0.78676 0.67924 0.00772 0.0
C535 C 0.78819 0.69953 0.06692 0.0
C536 C 0.79306 0.65186 0.02241 0.0
C537 C 0.79537 0.69182 0.14113 0.0
C538 C 0.80164 0.66482 0.15596 0.0
C539 C 0.80827 0.61783 0.11157 0.0
C540 C 0.80811 0.59763 0.05263 0.0
C541 C 0.80087 0.64477 0.09704 0.0
C542 C 0.7995 0.60455 0.97894 0.0
C543 C 0.79212 0.63147 0.96388 0.0
H544 H 0.82789 0.28495 0.59127 0.0
H545 H 0.80742 0.28856 0.35124 0.0
H546 H 0.85495 0.28129 0.32249 0.0
H547 H 0.90147 0.26909 0.36324 0.0
H548 H 0.9233 0.26473 0.60122 0.0
H549 H 0.87645 0.27756 0.63313 0.0
C550 C 0.8339 0.28456 0.53282 0.0
C551 C 0.81381 0.28685 0.47359 0.0
C552 C 0.86158 0.28013 0.51616 0.0
C553 C 0.82216 0.28641 0.39814 0.0
C554 C 0.84944 0.28229 0.38141 0.0
C555 C 0.89604 0.27148 0.42215 0.0
C556 C 0.91564 0.26591 0.47983 0.0
C557 C 0.86916 0.2784 0.43965 0.0
C558 C 0.90852 0.26911 0.55596 0.0
C559 C 0.88169 0.2762 0.57404 0.0
H560 H 0.72566 0.18901 0.42714 0.0
H561 H 0.73455 0.20937 0.66772 0.0
H562 H 0.74625 0.1623 0.6921 0.0
H563 H 0.75954 0.1168 0.64436 0.0
H564 H 0.75125 0.09569 0.4051 0.0
H565 H 0.73337 0.14145 0.38094 0.0
C566 C 0.72968 0.18309 0.48504 0.0
C567 C 0.72969 0.20298 0.54525 0.0
C568 C 0.73672 0.15586 0.49889 0.0
C569 C 0.73473 0.19473 0.61998 0.0
C570 C 0.74149 0.16776 0.63415 0.0
C571 C 0.75331 0.12215 0.58715 0.0
C572 C 0.75684 0.1032 0.52644 0.0
C573 C 0.74342 0.14841 0.57391 0.0
C574 C 0.7486 0.11007 0.45257 0.0
C575 C 0.73859 0.13624 0.43883 0.0
H576 H 0.33057 0.22959 0.07872 0.0
H577 H 0.3124 0.25105 0.84683 0.0
H578 H 0.36003 0.24573 0.81802 0.0
H579 H 0.40627 0.23132 0.85388 0.0
H580 H 0.42618 0.20976 0.08347 0.0
H581 H 0.37884 0.21921 0.11818 0.0
C582 C 0.33708 0.2334 0.02218 0.0
C583 C 0.31754 0.24037 0.96502 0.0
C584 C 0.36493 0.23027 0.00532 0.0
C585 C 0.32661 0.24536 0.89213 0.0
C586 C 0.354 0.24236 0.87528 0.0
C587 C 0.4003 0.22915 0.91185 0.0
C588 C 0.41951 0.21981 0.96601 0.0
C589 C 0.37319 0.23429 0.9308 0.0
C590 C 0.41169 0.21711 0.04099 0.0
C591 C 0.38459 0.22229 0.06054 0.0
H592 H 0.28346 0.8329 0.5959 0.0
H593 H 0.26494 0.81952 0.35549 0.0
H594 H 0.27153 0.86765 0.33584 0.0
H595 H 0.2872 0.91281 0.38348 0.0
H596 H 0.3067 0.92734 0.62176 0.0
H597 H 0.29471 0.8799 0.64597 0.0
C598 C 0.28047 0.84059 0.53946 0.0
C599 C 0.27409 0.8223 0.47727 0.0
C600 C 0.2845 0.86862 0.52802 0.0
C601 C 0.27023 0.83282 0.40452 0.0
C602 C 0.27395 0.86047 0.39298 0.0
C603 C 0.28807 0.90569 0.44091 0.0
C604 C 0.29747 0.9234 0.50091 0.0
C605 C 0.28172 0.87841 0.45383 0.0
C606 C 0.29907 0.91403 0.57501 0.0
C607 C 0.29248 0.88688 0.5886 0.0
H608 H 0.68295 0.7759 0.93005 0.0
H609 H 0.6961 0.79103 0.172 0.0
H610 H 0.64776 0.78372 0.19034 0.0
H611 H 0.60256 0.76856 0.1398 0.0
H612 H 0.58872 0.75325 0.89927 0.0
H613 H 0.63641 0.76529 0.87796 0.0
C614 C 0.67522 0.77793 0.9867 0.0
C615 C 0.69337 0.78362 0.04956 0.0
C616 C 0.64726 0.77354 -0.00284 0.0
C617 C 0.68281 0.78642 0.12247 0.0
C618 C 0.6551 0.7822 0.13321 0.0
C619 C 0.60998 0.76843 0.08271 0.0
C620 C 0.59248 0.76016 0.02107 0.0
C621 C 0.6373 0.7751 0.0713 0.0
C622 C 0.60202 0.7598 0.94724 0.0
C623 C 0.62925 0.7665 0.93527 0.0
loop_
_geom_bond_atom_site_label_1
_geom_bond_atom_site_label_2
_geom_bond_distance
_geom_bond_site_symmetry_2
_ccdc_geom_bond_type
Sc0 O3 2.025 . S
Sc0 O10 2.105 . S
Sc0 O13 2.105 . S
Sc0 O16 2.105 . S
Sc0 O19 2.105 . S
Sc1 O3 2.025 . S
Sc1 O11 2.105 . S
Sc1 O15 2.105 1_554 S
Sc1 O17 2.105 . S
Sc1 O21 2.105 1_554 S
Sc2 O3 2.025 1_556 S
Sc2 O12 2.105 . S
Sc2 O14 2.105 . S
Sc2 O18 2.105 . S
Sc2 O20 2.105 . S
O3 Sc0 2.025 . S
O3 Sc1 2.025 . S
O3 Sc2 2.025 1_554 S
C4 O10 1.268 . S
C4 O20 1.268 1_554 S
C5 O11 1.268 . S
C5 O19 1.268 . S
C6 O12 1.268 . S
C6 O21 1.268 . S
C7 O13 1.268 . S
C7 O17 1.268 . S
C8 O14 1.268 1_554 S
C8 O16 1.268 . S
C9 O15 1.268 . S
C9 O18 1.268 . S
O10 Sc0 2.105 . S
O10 C4 1.268 . S
O11 Sc1 2.105 . S
O11 C5 1.268 . S
O12 Sc2 2.105 . S
O12 C6 1.268 . S
O13 Sc0 2.105 . S
O13 C7 1.268 . S
O14 Sc2 2.105 . S
O14 C8 1.268 1_556 S
O15 Sc1 2.105 1_556 S
O15 C9 1.268 . S
O16 Sc0 2.105 . S
O16 C8 1.268 . S
O17 Sc1 2.105 . S
O17 C7 1.268 . S
O18 Sc2 2.105 . S
O18 C9 1.268 . S
O19 Sc0 2.105 . S
O19 C5 1.268 . S
O20 Sc2 2.105 . S
O20 C4 1.268 1_556 S
O21 Sc1 2.105 1_556 S
O21 C6 1.268 . S
Sc22 O25 2.025 . S
Sc22 O32 2.105 . S
Sc22 O35 2.105 . S
Sc22 O38 2.105 . S
Sc22 O41 2.105 . S
Sc23 O25 2.025 . S
Sc23 O33 2.105 . S
Sc23 O37 2.105 . S
Sc23 O39 2.105 . S
Sc23 O43 2.105 . S
Sc24 O25 2.025 . S
Sc24 O34 2.105 . S
Sc24 O36 2.105 . S
Sc24 O40 2.105 . S
Sc24 O42 2.105 . S
O25 Sc22 2.025 . S
O25 Sc23 2.025 . S
O25 Sc24 2.025 . S
C26 O32 1.268 . S
C26 O42 1.268 . S
C27 O33 1.268 . S
C27 O41 1.268 . S
C28 O34 1.268 . S
C28 O43 1.268 . S
C29 O35 1.268 . S
C29 O39 1.268 . S
C30 O36 1.268 . S
C30 O38 1.268 . S
C31 O37 1.268 . S
C31 O40 1.268 . S
O32 Sc22 2.105 . S
O32 C26 1.268 . S
O33 Sc23 2.105 . S
O33 C27 1.268 . S
O34 Sc24 2.105 . S
O34 C28 1.268 . S
O35 Sc22 2.105 . S
O35 C29 1.268 . S
O36 Sc24 2.105 . S
O36 C30 1.268 . S
O37 Sc23 2.105 . S
O37 C31 1.268 . S
O38 Sc22 2.105 . S
O38 C30 1.268 . S
O39 Sc23 2.105 . S
O39 C29 1.268 . S
O40 Sc24 2.105 . S
O40 C31 1.268 . S
O41 Sc22 2.105 . S
O41 C27 1.268 . S
O42 Sc24 2.105 . S
O42 C26 1.268 . S
O43 Sc23 2.105 . S
O43 C28 1.268 . S
Sc44 O47 2.025 1_556 S
Sc44 O54 2.105 . S
Sc44 O57 2.105 . S
Sc44 O60 2.105 . S
Sc44 O63 2.105 . S
Sc45 O47 2.025 . S
Sc45 O55 2.105 1_554 S
Sc45 O59 2.105 . S
Sc45 O61 2.105 1_554 S
Sc45 O65 2.105 . S
Sc46 O47 2.025 . S
Sc46 O56 2.105 . S
Sc46 O58 2.105 . S
Sc46 O62 2.105 . S
Sc46 O64 2.105 . S
O47 Sc44 2.025 1_554 S
O47 Sc45 2.025 . S
O47 Sc46 2.025 . S
C48 O54 1.268 1_554 S
C48 O64 1.268 . S
C49 O55 1.268 . S
C49 O63 1.268 . S
C50 O56 1.268 . S
C50 O65 1.268 . S
C51 O57 1.268 . S
C51 O61 1.268 . S
C52 O58 1.268 . S
C52 O60 1.268 1_554 S
C53 O59 1.268 . S
C53 O62 1.268 . S
O54 Sc44 2.105 . S
O54 C48 1.268 1_556 S
O55 Sc45 2.105 1_556 S
O55 C49 1.268 . S
O56 Sc46 2.105 . S
O56 C50 1.268 . S
O57 Sc44 2.105 . S
O57 C51 1.268 . S
O58 Sc46 2.105 . S
O58 C52 1.268 . S
O59 Sc45 2.105 . S
O59 C53 1.268 . S
O60 Sc44 2.105 . S
O60 C52 1.268 1_556 S
O61 Sc45 2.105 1_556 S
O61 C51 1.268 . S
O62 Sc46 2.105 . S
O62 C53 1.268 . S
O63 Sc44 2.105 . S
O63 C49 1.268 . S
O64 Sc46 2.105 . S
O64 C48 1.268 . S
O65 Sc45 2.105 . S
O65 C50 1.268 . S
Sc66 O69 2.025 . S
Sc66 O76 2.105 . S
Sc66 O79 2.105 . S
Sc66 O82 2.105 . S
Sc66 O85 2.105 . S
Sc67 O69 2.025 . S
Sc67 O77 2.105 . S
Sc67 O81 2.105 . S
Sc67 O83 2.105 . S
Sc67 O87 2.105 . S
Sc68 O69 2.025 . S
Sc68 O78 2.105 . S
Sc68 O80 2.105 . S
Sc68 O84 2.105 . S
Sc68 O86 2.105 . S
O69 Sc66 2.025 . S
O69 Sc67 2.025 . S
O69 Sc68 2.025 . S
C70 O76 1.268 . S
C70 O86 1.268 . S
C71 O77 1.268 . S
C71 O85 1.268 . S
C72 O78 1.268 . S
C72 O87 1.268 . S
C73 O79 1.268 . S
C73 O83 1.268 . S
C74 O80 1.268 . S
C74 O82 1.268 . S
C75 O81 1.268 . S
C75 O84 1.268 . S
O76 Sc66 2.105 . S
O76 C70 1.268 . S
O77 Sc67 2.105 . S
O77 C71 1.268 . S
O78 Sc68 2.105 . S
O78 C72 1.268 . S
O79 Sc66 2.105 . S
O79 C73 1.268 . S
O80 Sc68 2.105 . S
O80 C74 1.268 . S
O81 Sc67 2.105 . S
O81 C75 1.268 . S
O82 Sc66 2.105 . S
O82 C74 1.268 . S
O83 Sc67 2.105 . S
O83 C73 1.268 . S
O84 Sc68 2.105 . S
O84 C75 1.268 . S
O85 Sc66 2.105 . S
O85 C71 1.268 . S
O86 Sc68 2.105 . S
O86 C70 1.268 . S
O87 Sc67 2.105 . S
O87 C72 1.268 . S
H88 C89 0.949 . S
C89 H88 0.949 . S
C89 C90 1.395 . S
C89 C91 1.391 1_554 S
C90 C89 1.395 . S
C90 C93 1.390 . S
C91 C89 1.391 1_556 S
C91 C95 1.387 . S
C91 C96 1.491 . S
H92 C93 0.950 . S
C93 C90 1.390 . S
C93 H92 0.950 . S
C93 C94 1.378 1_554 S
C94 C93 1.378 1_556 S
C94 C95 1.409 . S
C95 C91 1.387 . S
C95 C94 1.409 . S
C95 H97 0.951 . S
C96 C91 1.491 . S
C96 C98 1.382 1_556 S
C96 C100 1.404 . S
H97 C95 0.951 . S
C98 C96 1.382 1_554 S
C98 C99 1.390 1_554 S
C98 H103 0.949 . S
C99 C98 1.390 1_556 S
C99 C104 1.399 . S
C100 C96 1.404 . S
C100 H101 0.950 . S
C100 C102 1.375 . S
H101 C100 0.950 . S
C102 C100 1.375 . S
C102 C104 1.382 . S
C102 H106 0.950 . S
H103 C98 0.949 . S
C104 C99 1.399 . S
C104 C102 1.382 . S
C104 H105 0.952 . S
H105 C104 0.952 . S
H106 C102 0.950 . S
H107 C108 0.949 . S
C108 H107 0.949 . S
C108 C109 1.395 . S
C108 C110 1.391 . S
C109 C108 1.395 . S
C109 C112 1.390 . S
C110 C108 1.391 . S
C110 C114 1.387 . S
C110 C115 1.491 1_655 S
H111 C112 0.950 . S
C112 C109 1.390 . S
C112 H111 0.950 . S
C112 C113 1.378 . S
C113 C112 1.378 . S
C113 C114 1.409 . S
C114 C110 1.387 . S
C114 C113 1.409 . S
C114 H116 0.951 . S
C115 C110 1.491 1_455 S
C115 C117 1.382 . S
C115 C119 1.404 . S
H116 C114 0.951 . S
C117 C115 1.382 . S
C117 C118 1.390 . S
C117 H122 0.949 . S
C118 C117 1.390 . S
C118 C123 1.399 . S
C119 C115 1.404 . S
C119 H120 0.950 . S
C119 C121 1.375 . S
H120 C119 0.950 . S
C121 C119 1.375 . S
C121 C123 1.382 . S
C121 H125 0.950 . S
H122 C117 0.949 . S
C123 C118 1.399 . S
C123 C121 1.382 . S
C123 H124 0.952 . S
H124 C123 0.952 . S
H125 C121 0.950 . S
H126 C127 0.949 . S
C127 H126 0.949 . S
C127 C128 1.395 . S
C127 C129 1.391 1_556 S
C128 C127 1.395 . S
C128 C131 1.390 1_556 S
C129 C127 1.391 1_554 S
C129 C133 1.387 . S
C129 C134 1.491 . S
H130 C131 0.950 . S
C131 C128 1.390 1_554 S
C131 H130 0.950 . S
C131 C132 1.378 . S
C132 C131 1.378 . S
C132 C133 1.409 . S
C133 C129 1.387 . S
C133 C132 1.409 . S
C133 H135 0.951 . S
C134 C129 1.491 . S
C134 C136 1.382 . S
C134 C138 1.404 . S
H135 C133 0.951 . S
C136 C134 1.382 . S
C136 C137 1.390 . S
C136 H141 0.949 1_554 S
C137 C136 1.390 . S
C137 C142 1.399 . S
C138 C134 1.404 . S
C138 H139 0.950 . S
C138 C140 1.375 . S
H139 C138 0.950 . S
C140 C138 1.375 . S
C140 C142 1.382 . S
C140 H144 0.950 . S
H141 C136 0.949 1_556 S
C142 C137 1.399 . S
C142 C140 1.382 . S
C142 H143 0.952 . S
H143 C142 0.952 . S
H144 C140 0.950 . S
H145 C146 0.949 . S
C146 H145 0.949 . S
C146 C147 1.395 . S
C146 C148 1.391 . S
C147 C146 1.395 . S
C147 C150 1.390 . S
C148 C146 1.391 . S
C148 C152 1.387 . S
C148 C153 1.491 1_455 S
H149 C150 0.950 . S
C150 C147 1.390 . S
C150 H149 0.950 . S
C150 C151 1.378 . S
C151 C150 1.378 . S
C151 C152 1.409 . S
C152 C148 1.387 . S
C152 C151 1.409 . S
C152 H154 0.951 . S
C153 C148 1.491 1_655 S
C153 C155 1.382 . S
C153 C157 1.404 . S
H154 C152 0.951 . S
C155 C153 1.382 . S
C155 C156 1.390 . S
C155 H160 0.949 . S
C156 C155 1.390 . S
C156 C161 1.399 . S
C157 C153 1.404 . S
C157 H158 0.950 . S
C157 C159 1.375 . S
H158 C157 0.950 . S
C159 C157 1.375 . S
C159 C161 1.382 . S
C159 H163 0.950 . S
H160 C155 0.949 . S
C161 C156 1.399 . S
C161 C159 1.382 . S
C161 H162 0.952 . S
H162 C161 0.952 . S
H163 C159 0.950 . S
H164 C165 0.949 . S
C165 H164 0.949 . S
C165 C166 1.395 . S
C165 C167 1.391 . S
C166 C165 1.395 . S
C166 C169 1.390 . S
C167 C165 1.391 . S
C167 C171 1.387 . S
C167 C172 1.491 1_565 S
H168 C169 0.950 . S
C169 C166 1.390 . S
C169 H168 0.950 . S
C169 C170 1.378 . S
C170 C169 1.378 . S
C170 C171 1.409 . S
C171 C167 1.387 . S
C171 C170 1.409 . S
C171 H173 0.951 . S
C172 C167 1.491 1_545 S
C172 C174 1.382 . S
C172 C176 1.404 . S
H173 C171 0.951 . S
C174 C172 1.382 . S
C174 C175 1.390 . S
C174 H179 0.949 . S
C175 C174 1.390 . S
C175 C180 1.399 . S
C176 C172 1.404 . S
C176 H177 0.950 . S
C176 C178 1.375 . S
H177 C176 0.950 . S
C178 C176 1.375 . S
C178 C180 1.382 . S
C178 H182 0.950 . S
H179 C174 0.949 . S
C180 C175 1.399 . S
C180 C178 1.382 . S
C180 H181 0.952 . S
H181 C180 0.952 . S
H182 C178 0.950 . S
H183 C184 0.949 . S
C184 H183 0.949 . S
C184 C185 1.395 . S
C184 C186 1.391 1_554 S
C185 C184 1.395 . S
C185 C188 1.390 . S
C186 C184 1.391 1_556 S
C186 C190 1.387 . S
C186 C191 1.491 . S
H187 C188 0.950 . S
C188 C185 1.390 . S
C188 H187 0.950 . S
C188 C189 1.378 1_554 S
C189 C188 1.378 1_556 S
C189 C190 1.409 . S
C190 C186 1.387 . S
C190 C189 1.409 . S
C190 H192 0.951 . S
C191 C186 1.491 . S
C191 C193 1.382 1_556 S
C191 C195 1.404 . S
H192 C190 0.951 . S
C193 C191 1.382 1_554 S
C193 C194 1.390 1_554 S
C193 H198 0.949 . S
C194 C193 1.390 1_556 S
C194 C199 1.399 . S
C195 C191 1.404 . S
C195 H196 0.950 . S
C195 C197 1.375 . S
H196 C195 0.950 . S
C197 C195 1.375 . S
C197 C199 1.382 . S
C197 H201 0.950 . S
H198 C193 0.949 . S
C199 C194 1.399 . S
C199 C197 1.382 . S
C199 H200 0.952 . S
H200 C199 0.952 . S
H201 C197 0.950 . S
H202 C203 0.949 . S
C203 H202 0.949 . S
C203 C204 1.395 . S
C203 C205 1.391 . S
C204 C203 1.395 . S
C204 C207 1.390 . S
C205 C203 1.391 . S
C205 C209 1.387 . S
C205 C210 1.491 1_545 S
H206 C207 0.950 . S
C207 C204 1.390 . S
C207 H206 0.950 . S
C207 C208 1.378 . S
C208 C207 1.378 . S
C208 C209 1.409 . S
C209 C205 1.387 . S
C209 C208 1.409 . S
C209 H211 0.951 . S
C210 C205 1.491 1_565 S
C210 C212 1.382 . S
C210 C214 1.404 . S
H211 C209 0.951 . S
C212 C210 1.382 . S
C212 C213 1.390 . S
C212 H217 0.949 . S
C213 C212 1.390 . S
C213 C218 1.399 . S
C214 C210 1.404 . S
C214 H215 0.950 . S
C214 C216 1.375 . S
H215 C214 0.950 . S
C216 C214 1.375 . S
C216 C218 1.382 . S
C216 H220 0.950 . S
H217 C212 0.949 . S
C218 C213 1.399 . S
C218 C216 1.382 . S
C218 H219 0.952 . S
H219 C218 0.952 . S
H220 C216 0.950 . S
H221 C222 0.949 . S
C222 H221 0.949 . S
C222 C223 1.395 . S
C222 C224 1.391 1_556 S
C223 C222 1.395 . S
C223 C226 1.390 1_556 S
C224 C222 1.391 1_554 S
C224 C228 1.387 . S
C224 C229 1.491 . S
H225 C226 0.950 . S
C226 C223 1.390 1_554 S
C226 H225 0.950 . S
C226 C227 1.378 . S
C227 C226 1.378 . S
C227 C228 1.409 . S
C228 C224 1.387 . S
C228 C227 1.409 . S
C228 H230 0.951 . S
C229 C224 1.491 . S
C229 C231 1.382 . S
C229 C233 1.404 . S
H230 C228 0.951 . S
C231 C229 1.382 . S
C231 C232 1.390 . S
C231 H236 0.949 1_554 S
C232 C231 1.390 . S
C232 C237 1.399 . S
C233 C229 1.404 . S
C233 H234 0.950 . S
C233 C235 1.375 . S
H234 C233 0.950 . S
C235 C233 1.375 . S
C235 C237 1.382 . S
C235 H239 0.950 . S
H236 C231 0.949 1_556 S
C237 C232 1.399 . S
C237 C235 1.382 . S
C237 H238 0.952 . S
H238 C237 0.952 . S
H239 C235 0.950 . S
H240 C246 0.930 . S
H241 C249 0.930 . S
H242 C250 0.930 . S
H243 C251 0.930 . S
H244 C254 0.930 . S
H245 C255 0.930 . S
C246 H240 0.930 . S
C246 C247 1.355 . S
C246 C248 1.415 . S
C247 C246 1.355 . S
C247 C249 1.419 . S
C248 C246 1.415 . S
C248 C253 1.425 . S
C248 C255 1.409 . S
C249 H241 0.930 . S
C249 C247 1.419 . S
C249 C250 1.362 . S
C250 H242 0.930 . S
C250 C249 1.362 . S
C250 C253 1.409 . S
C251 H243 0.930 . S
C251 C252 1.355 . S
C251 C253 1.415 . S
C252 C251 1.355 . S
C252 C254 1.419 . S
C253 C248 1.425 . S
C253 C250 1.409 . S
C253 C251 1.415 . S
C254 H244 0.930 . S
C254 C252 1.419 . S
C254 C255 1.362 . S
C255 H245 0.930 . S
C255 C248 1.409 . S
C255 C254 1.362 . S
H256 C262 0.930 . S
H257 C265 0.930 . S
H258 C266 0.930 . S
H259 C267 0.930 . S
H260 C270 0.930 . S
H261 C271 0.930 . S
C262 H256 0.930 . S
C262 C263 1.355 . S
C262 C264 1.415 . S
C263 C262 1.355 . S
C263 C265 1.419 . S
C264 C262 1.415 . S
C264 C269 1.425 . S
C264 C271 1.409 . S
C265 H257 0.930 . S
C265 C263 1.419 . S
C265 C266 1.362 . S
C266 H258 0.930 . S
C266 C265 1.362 . S
C266 C269 1.409 . S
C267 H259 0.930 . S
C267 C268 1.355 . S
C267 C269 1.415 . S
C268 C267 1.355 . S
C268 C270 1.419 . S
C269 C264 1.425 . S
C269 C266 1.409 . S
C269 C267 1.415 . S
C270 H260 0.930 . S
C270 C268 1.419 . S
C270 C271 1.362 . S
C271 H261 0.930 . S
C271 C264 1.409 . S
C271 C270 1.362 . S
H272 C278 0.930 . S
H273 C281 0.930 . S
H274 C282 0.930 . S
H275 C283 0.930 . S
H276 C286 0.930 . S
H277 C287 0.930 . S
C278 H272 0.930 . S
C278 C279 1.355 . S
C278 C280 1.415 . S
C279 C278 1.355 . S
C279 C281 1.419 . S
C280 C278 1.415 . S
C280 C285 1.425 . S
C280 C287 1.409 . S
C281 H273 0.930 . S
C281 C279 1.419 . S
C281 C282 1.362 . S
C282 H274 0.930 . S
C282 C281 1.362 . S
C282 C285 1.409 . S
C283 H275 0.930 . S
C283 C284 1.355 . S
C283 C285 1.415 . S
C284 C283 1.355 . S
C284 C286 1.419 . S
C285 C280 1.425 . S
C285 C282 1.409 . S
C285 C283 1.415 . S
C286 H276 0.930 . S
C286 C284 1.419 . S
C286 C287 1.362 . S
C287 H277 0.930 . S
C287 C280 1.409 . S
C287 C286 1.362 . S
H288 C294 0.930 . S
H289 C297 0.930 . S
H290 C298 0.930 . S
H291 C299 0.930 . S
H292 C302 0.930 . S
H293 C303 0.930 . S
C294 H288 0.930 . S
C294 C295 1.355 . S
C294 C296 1.415 . S
C295 C294 1.355 . S
C295 C297 1.419 . S
C296 C294 1.415 . S
C296 C301 1.425 . S
C296 C303 1.409 . S
C297 H289 0.930 . S
C297 C295 1.419 . S
C297 C298 1.362 . S
C298 H290 0.930 . S
C298 C297 1.362 . S
C298 C301 1.409 . S
C299 H291 0.930 . S
C299 C300 1.355 . S
C299 C301 1.415 . S
C300 C299 1.355 . S
C300 C302 1.419 . S
C301 C296 1.425 . S
C301 C298 1.409 . S
C301 C299 1.415 . S
C302 H292 0.930 . S
C302 C300 1.419 . S
C302 C303 1.362 . S
C303 H293 0.930 . S
C303 C296 1.409 . S
C303 C302 1.362 . S
H304 C310 0.930 . S
H305 C313 0.930 . S
H306 C314 0.930 . S
H307 C315 0.930 . S
H308 C318 0.930 . S
H309 C319 0.930 . S
C310 H304 0.930 . S
C310 C311 1.355 . S
C310 C312 1.415 . S
C311 C310 1.355 . S
C311 C313 1.419 . S
C312 C310 1.415 . S
C312 C317 1.425 . S
C312 C319 1.409 . S
C313 H305 0.930 . S
C313 C311 1.419 . S
C313 C314 1.362 . S
C314 H306 0.930 . S
C314 C313 1.362 . S
C314 C317 1.409 . S
C315 H307 0.930 . S
C315 C316 1.355 . S
C315 C317 1.415 . S
C316 C315 1.355 . S
C316 C318 1.419 . S
C317 C312 1.425 . S
C317 C314 1.409 . S
C317 C315 1.415 . S
C318 H308 0.930 . S
C318 C316 1.419 . S
C318 C319 1.362 . S
C319 H309 0.930 . S
C319 C312 1.409 . S
C319 C318 1.362 . S
H320 C326 0.930 . S
H321 C329 0.930 . S
H322 C330 0.930 . S
H323 C331 0.930 . S
H324 C334 0.930 . S
H325 C335 0.930 . S
C326 H320 0.930 . S
C326 C327 1.355 . S
C326 C328 1.415 . S
C327 C326 1.355 . S
C327 C329 1.419 . S
C328 C326 1.415 . S
C328 C333 1.425 . S
C328 C335 1.409 . S
C329 H321 0.930 . S
C329 C327 1.419 . S
C329 C330 1.362 . S
C330 H322 0.930 . S
C330 C329 1.362 . S
C330 C333 1.409 . S
C331 H323 0.930 . S
C331 C332 1.355 . S
C331 C333 1.415 . S
C332 C331 1.355 . S
C332 C334 1.419 . S
C333 C328 1.425 . S
C333 C330 1.409 . S
C333 C331 1.415 . S
C334 H324 0.930 . S
C334 C332 1.419 . S
C334 C335 1.362 . S
C335 H325 0.930 . S
C335 C328 1.409 . S
C335 C334 1.362 . S
H336 C342 0.930 . S
H337 C345 0.930 . S
H338 C346 0.930 . S
H339 C347 0.930 . S
H340 C350 0.930 . S
H341 C351 0.930 . S
C342 H336 0.930 . S
C342 C343 1.355 . S
C342 C344 1.415 . S
C343 C342 1.355 . S
C343 C345 1.419 . S
C344 C342 1.415 . S
C344 C349 1.425 . S
C344 C351 1.409 . S
C345 H337 0.930 . S
C345 C343 1.419 . S
C345 C346 1.362 . S
C346 H338 0.930 . S
C346 C345 1.362 . S
C346 C349 1.409 . S
C347 H339 0.930 . S
C347 C348 1.355 . S
C347 C349 1.415 . S
C348 C347 1.355 . S
C348 C350 1.419 . S
C349 C344 1.425 . S
C349 C346 1.409 . S
C349 C347 1.415 . S
C350 H340 0.930 . S
C350 C348 1.419 . S
C350 C351 1.362 . S
C351 H341 0.930 . S
C351 C344 1.409 . S
C351 C350 1.362 . S
H352 C358 0.930 . S
H353 C361 0.930 . S
H354 C362 0.930 . S
H355 C363 0.930 . S
H356 C366 0.930 . S
H357 C367 0.930 . S
C358 H352 0.930 . S
C358 C359 1.355 . S
C358 C360 1.415 . S
C359 C358 1.355 . S
C359 C361 1.419 . S
C360 C358 1.415 . S
C360 C365 1.425 . S
C360 C367 1.409 . S
C361 H353 0.930 . S
C361 C359 1.419 . S
C361 C362 1.362 . S
C362 H354 0.930 . S
C362 C361 1.362 . S
C362 C365 1.409 . S
C363 H355 0.930 . S
C363 C364 1.355 . S
C363 C365 1.415 . S
C364 C363 1.355 . S
C364 C366 1.419 . S
C365 C360 1.425 . S
C365 C362 1.409 . S
C365 C363 1.415 . S
C366 H356 0.930 . S
C366 C364 1.419 . S
C366 C367 1.362 . S
C367 H357 0.930 . S
C367 C360 1.409 . S
C367 C366 1.362 . S
H368 C374 0.930 . S
H369 C377 0.930 . S
H370 C378 0.930 . S
H371 C379 0.930 . S
H372 C382 0.930 . S
H373 C383 0.930 . S
C374 H368 0.930 . S
C374 C375 1.355 . S
C374 C376 1.415 . S
C375 C374 1.355 . S
C375 C377 1.419 . S
C376 C374 1.415 . S
C376 C381 1.425 . S
C376 C383 1.409 . S
C377 H369 0.930 . S
C377 C375 1.419 . S
C377 C378 1.362 . S
C378 H370 0.930 . S
C378 C377 1.362 . S
C378 C381 1.409 . S
C379 H371 0.930 . S
C379 C380 1.355 . S
C379 C381 1.415 . S
C380 C379 1.355 . S
C380 C382 1.419 . S
C381 C376 1.425 . S
C381 C378 1.409 . S
C381 C379 1.415 . S
C382 H372 0.930 . S
C382 C380 1.419 . S
C382 C383 1.362 . S
C383 H373 0.930 . S
C383 C376 1.409 . S
C383 C382 1.362 . S
H384 C390 0.930 . S
H385 C393 0.930 . S
H386 C394 0.930 . S
H387 C395 0.930 . S
H388 C398 0.930 . S
H389 C399 0.930 . S
C390 H384 0.930 . S
C390 C391 1.355 . S
C390 C392 1.415 . S
C391 C390 1.355 . S
C391 C393 1.419 . S
C392 C390 1.415 . S
C392 C397 1.425 . S
C392 C399 1.409 . S
C393 H385 0.930 . S
C393 C391 1.419 . S
C393 C394 1.362 . S
C394 H386 0.930 . S
C394 C393 1.362 . S
C394 C397 1.409 . S
C395 H387 0.930 . S
C395 C396 1.355 . S
C395 C397 1.415 . S
C396 C395 1.355 . S
C396 C398 1.419 . S
C397 C392 1.425 . S
C397 C394 1.409 . S
C397 C395 1.415 . S
C398 H388 0.930 . S
C398 C396 1.419 . S
C398 C399 1.362 . S
C399 H389 0.930 . S
C399 C392 1.409 . S
C399 C398 1.362 . S
H400 C406 0.930 . S
H401 C409 0.930 . S
H402 C410 0.930 . S
H403 C411 0.930 . S
H404 C414 0.930 . S
H405 C415 0.930 . S
C406 H400 0.930 . S
C406 C407 1.355 . S
C406 C408 1.415 . S
C407 C406 1.355 . S
C407 C409 1.419 . S
C408 C406 1.415 . S
C408 C413 1.425 . S
C408 C415 1.409 . S
C409 H401 0.930 . S
C409 C407 1.419 . S
C409 C410 1.362 . S
C410 H402 0.930 . S
C410 C409 1.362 . S
C410 C413 1.409 . S
C411 H403 0.930 . S
C411 C412 1.355 . S
C411 C413 1.415 . S
C412 C411 1.355 . S
C412 C414 1.419 . S
C413 C408 1.425 . S
C413 C410 1.409 . S
C413 C411 1.415 . S
C414 H404 0.930 . S
C414 C412 1.419 . S
C414 C415 1.362 . S
C415 H405 0.930 . S
C415 C408 1.409 . S
C415 C414 1.362 . S
H416 C422 0.930 . S
H417 C425 0.930 . S
H418 C426 0.930 . S
H419 C427 0.930 . S
H420 C430 0.930 . S
H421 C431 0.930 . S
C422 H416 0.930 . S
C422 C423 1.355 . S
C422 C424 1.415 . S
C423 C422 1.355 . S
C423 C425 1.419 . S
C424 C422 1.415 . S
C424 C429 1.425 . S
C424 C431 1.409 . S
C425 H417 0.930 . S
C425 C423 1.419 . S
C425 C426 1.362 . S
C426 H418 0.930 . S
C426 C425 1.362 . S
C426 C429 1.409 . S
C427 H419 0.930 . S
C427 C428 1.355 . S
C427 C429 1.415 . S
C428 C427 1.355 . S
C428 C430 1.419 . S
C429 C424 1.425 . S
C429 C426 1.409 . S
C429 C427 1.415 . S
C430 H420 0.930 . S
C430 C428 1.419 . S
C430 C431 1.362 . S
C431 H421 0.930 . S
C431 C424 1.409 . S
C431 C430 1.362 . S
H432 C438 0.930 . S
H433 C441 0.930 . S
H434 C442 0.930 . S
H435 C443 0.930 . S
H436 C446 0.930 . S
H437 C447 0.930 . S
C438 H432 0.930 . S
C438 C439 1.355 . S
C438 C440 1.415 . S
C439 C438 1.355 . S
C439 C441 1.419 . S
C440 C438 1.415 . S
C440 C445 1.425 . S
C440 C447 1.409 . S
C441 H433 0.930 . S
C441 C439 1.419 . S
C441 C442 1.362 . S
C442 H434 0.930 . S
C442 C441 1.362 . S
C442 C445 1.409 . S
C443 H435 0.930 . S
C443 C444 1.355 . S
C443 C445 1.415 . S
C444 C443 1.355 . S
C444 C446 1.419 . S
C445 C440 1.425 . S
C445 C442 1.409 . S
C445 C443 1.415 . S
C446 H436 0.930 . S
C446 C444 1.419 . S
C446 C447 1.362 . S
C447 H437 0.930 . S
C447 C440 1.409 . S
C447 C446 1.362 . S
H448 C454 0.930 . S
H449 C457 0.930 . S
H450 C458 0.930 . S
H451 C459 0.930 . S
H452 C462 0.930 . S
H453 C463 0.930 . S
C454 H448 0.930 . S
C454 C455 1.355 . S
C454 C456 1.415 . S
C455 C454 1.355 . S
C455 C457 1.419 . S
C456 C454 1.415 . S
C456 C461 1.425 . S
C456 C463 1.409 . S
C457 H449 0.930 . S
C457 C455 1.419 . S
C457 C458 1.362 . S
C458 H450 0.930 . S
C458 C457 1.362 . S
C458 C461 1.409 . S
C459 H451 0.930 . S
C459 C460 1.355 . S
C459 C461 1.415 . S
C460 C459 1.355 . S
C460 C462 1.419 . S
C461 C456 1.425 . S
C461 C458 1.409 . S
C461 C459 1.415 . S
C462 H452 0.930 . S
C462 C460 1.419 . S
C462 C463 1.362 . S
C463 H453 0.930 . S
C463 C456 1.409 . S
C463 C462 1.362 . S
H464 C470 0.930 . S
H465 C473 0.930 . S
H466 C474 0.930 . S
H467 C475 0.930 . S
H468 C478 0.930 . S
H469 C479 0.930 . S
C470 H464 0.930 . S
C470 C471 1.355 . S
C470 C472 1.415 . S
C471 C470 1.355 . S
C471 C473 1.419 . S
C472 C470 1.415 . S
C472 C477 1.425 . S
C472 C479 1.409 . S
C473 H465 0.930 . S
C473 C471 1.419 . S
C473 C474 1.362 . S
C474 H466 0.930 . S
C474 C473 1.362 . S
C474 C477 1.409 . S
C475 H467 0.930 . S
C475 C476 1.355 . S
C475 C477 1.415 . S
C476 C475 1.355 . S
C476 C478 1.419 . S
C477 C472 1.425 . S
C477 C474 1.409 . S
C477 C475 1.415 . S
C478 H468 0.930 . S
C478 C476 1.419 . S
C478 C479 1.362 . S
C479 H469 0.930 . S
C479 C472 1.409 . S
C479 C478 1.362 . S
H480 C486 0.930 . S
H481 C489 0.930 . S
H482 C490 0.930 . S
H483 C491 0.930 . S
H484 C494 0.930 . S
H485 C495 0.930 . S
C486 H480 0.930 . S
C486 C487 1.355 . S
C486 C488 1.415 . S
C487 C486 1.355 . S
C487 C489 1.419 . S
C488 C486 1.415 . S
C488 C493 1.425 . S
C488 C495 1.409 . S
C489 H481 0.930 . S
C489 C487 1.419 . S
C489 C490 1.362 . S
C490 H482 0.930 . S
C490 C489 1.362 . S
C490 C493 1.409 . S
C491 H483 0.930 . S
C491 C492 1.355 . S
C491 C493 1.415 . S
C492 C491 1.355 . S
C492 C494 1.419 . S
C493 C488 1.425 . S
C493 C490 1.409 . S
C493 C491 1.415 . S
C494 H484 0.930 . S
C494 C492 1.419 . S
C494 C495 1.362 . S
C495 H485 0.930 . S
C495 C488 1.409 . S
C495 C494 1.362 . S
H496 C502 0.930 . S
H497 C505 0.930 . S
H498 C506 0.930 . S
H499 C507 0.930 . S
H500 C510 0.930 . S
H501 C511 0.930 . S
C502 H496 0.930 . S
C502 C503 1.355 . S
C502 C504 1.415 . S
C503 C502 1.355 . S
C503 C505 1.419 1_554 S
C504 C502 1.415 . S
C504 C509 1.425 1_554 S
C504 C511 1.409 . S
C505 H497 0.930 . S
C505 C503 1.419 1_556 S
C505 C506 1.362 . S
C506 H498 0.930 . S
C506 C505 1.362 . S
C506 C509 1.409 . S
C507 H499 0.930 . S
C507 C508 1.355 1_556 S
C507 C509 1.415 . S
C508 C507 1.355 1_554 S
C508 C510 1.419 . S
C509 C504 1.425 1_556 S
C509 C506 1.409 . S
C509 C507 1.415 . S
C510 H500 0.930 . S
C510 C508 1.419 . S
C510 C511 1.362 . S
C511 H501 0.930 . S
C511 C504 1.409 . S
C511 C510 1.362 . S
H512 C518 0.930 . S
H513 C521 0.930 . S
H514 C522 0.930 . S
H515 C523 0.930 . S
H516 C526 0.930 . S
H517 C527 0.930 . S
C518 H512 0.930 . S
C518 C519 1.355 . S
C518 C520 1.415 . S
C519 C518 1.355 . S
C519 C521 1.419 . S
C520 C518 1.415 . S
C520 C525 1.425 . S
C520 C527 1.409 . S
C521 H513 0.930 . S
C521 C519 1.419 . S
C521 C522 1.362 . S
C522 H514 0.930 . S
C522 C521 1.362 . S
C522 C525 1.409 . S
C523 H515 0.930 . S
C523 C524 1.355 . S
C523 C525 1.415 . S
C524 C523 1.355 . S
C524 C526 1.419 . S
C525 C520 1.425 . S
C525 C522 1.409 . S
C525 C523 1.415 . S
C526 H516 0.930 . S
C526 C524 1.419 . S
C526 C527 1.362 . S
C527 H517 0.930 . S
C527 C520 1.409 . S
C527 C526 1.362 . S
H528 C534 0.930 . S
H529 C537 0.930 . S
H530 C538 0.930 . S
H531 C539 0.930 . S
H532 C542 0.930 . S
H533 C543 0.930 . S
C534 H528 0.930 . S
C534 C535 1.355 . S
C534 C536 1.415 . S
C535 C534 1.355 . S
C535 C537 1.419 . S
C536 C534 1.415 . S
C536 C541 1.425 . S
C536 C543 1.409 . S
C537 H529 0.930 . S
C537 C535 1.419 . S
C537 C538 1.362 . S
C538 H530 0.930 . S
C538 C537 1.362 . S
C538 C541 1.409 . S
C539 H531 0.930 . S
C539 C540 1.355 . S
C539 C541 1.415 . S
C540 C539 1.355 . S
C540 C542 1.419 . S
C541 C536 1.425 . S
C541 C538 1.409 . S
C541 C539 1.415 . S
C542 H532 0.930 . S
C542 C540 1.419 . S
C542 C543 1.362 . S
C543 H533 0.930 . S
C543 C536 1.409 . S
C543 C542 1.362 . S
H544 C550 0.930 . S
H545 C553 0.930 . S
H546 C554 0.930 . S
H547 C555 0.930 . S
H548 C558 0.930 . S
H549 C559 0.930 . S
C550 H544 0.930 . S
C550 C551 1.355 . S
C550 C552 1.415 . S
C551 C550 1.355 . S
C551 C553 1.419 . S
C552 C550 1.415 . S
C552 C557 1.425 . S
C552 C559 1.409 . S
C553 H545 0.930 . S
C553 C551 1.419 . S
C553 C554 1.362 . S
C554 H546 0.930 . S
C554 C553 1.362 . S
C554 C557 1.409 . S
C555 H547 0.930 . S
C555 C556 1.355 . S
C555 C557 1.415 . S
C556 C555 1.355 . S
C556 C558 1.419 . S
C557 C552 1.425 . S
C557 C554 1.409 . S
C557 C555 1.415 . S
C558 H548 0.930 . S
C558 C556 1.419 . S
C558 C559 1.362 . S
C559 H549 0.930 . S
C559 C552 1.409 . S
C559 C558 1.362 . S
H560 C566 0.930 . S
H561 C569 0.930 . S
H562 C570 0.930 . S
H563 C571 0.930 . S
H564 C574 0.930 . S
H565 C575 0.930 . S
C566 H560 0.930 . S
C566 C567 1.355 . S
C566 C568 1.415 . S
C567 C566 1.355 . S
C567 C569 1.419 . S
C568 C566 1.415 . S
C568 C573 1.425 . S
C568 C575 1.409 . S
C569 H561 0.930 . S
C569 C567 1.419 . S
C569 C570 1.362 . S
C570 H562 0.930 . S
C570 C569 1.362 . S
C570 C573 1.409 . S
C571 H563 0.930 . S
C571 C572 1.355 . S
C571 C573 1.415 . S
C572 C571 1.355 . S
C572 C574 1.419 . S
C573 C568 1.425 . S
C573 C570 1.409 . S
C573 C571 1.415 . S
C574 H564 0.930 . S
C574 C572 1.419 . S
C574 C575 1.362 . S
C575 H565 0.930 . S
C575 C568 1.409 . S
C575 C574 1.362 . S
H576 C582 0.930 . S
H577 C585 0.930 . S
H578 C586 0.930 . S
H579 C587 0.930 . S
H580 C590 0.930 . S
H581 C591 0.930 . S
C582 H576 0.930 . S
C582 C583 1.355 . S
C582 C584 1.415 . S
C583 C582 1.355 . S
C583 C585 1.419 1_554 S
C584 C582 1.415 . S
C584 C589 1.425 1_554 S
C584 C591 1.409 . S
C585 H577 0.930 . S
C585 C583 1.419 1_556 S
C585 C586 1.362 . S
C586 H578 0.930 . S
C586 C585 1.362 . S
C586 C589 1.409 . S
C587 H579 0.930 . S
C587 C588 1.355 1_556 S
C587 C589 1.415 . S
C588 C587 1.355 1_554 S
C588 C590 1.419 . S
C589 C584 1.425 1_556 S
C589 C586 1.409 . S
C589 C587 1.415 . S
C590 H580 0.930 . S
C590 C588 1.419 . S
C590 C591 1.362 . S
C591 H581 0.930 . S
C591 C584 1.409 . S
C591 C590 1.362 . S
H592 C598 0.930 . S
H593 C601 0.930 . S
H594 C602 0.930 . S
H595 C603 0.930 . S
H596 C606 0.930 . S
H597 C607 0.930 . S
C598 H592 0.930 . S
C598 C599 1.355 . S
C598 C600 1.415 . S
C599 C598 1.355 . S
C599 C601 1.419 . S
C600 C598 1.415 . S
C600 C605 1.425 . S
C600 C607 1.409 . S
C601 H593 0.930 . S
C601 C599 1.419 . S
C601 C602 1.362 . S
C602 H594 0.930 . S
C602 C601 1.362 . S
C602 C605 1.409 . S
C603 H595 0.930 . S
C603 C604 1.355 . S
C603 C605 1.415 . S
C604 C603 1.355 . S
C604 C606 1.419 . S
C605 C600 1.425 . S
C605 C602 1.409 . S
C605 C603 1.415 . S
C606 H596 0.930 . S
C606 C604 1.419 . S
C606 C607 1.362 . S
C607 H597 0.930 . S
C607 C600 1.409 . S
C607 C606 1.362 . S
H608 C614 0.930 . S
H609 C617 0.930 . S
H610 C618 0.930 . S
H611 C619 0.930 . S
H612 C622 0.930 . S
H613 C623 0.930 . S
C614 H608 0.930 . S
C614 C615 1.355 1_556 S
C614 C616 1.415 . S
C615 C614 1.355 1_554 S
C615 C617 1.419 . S
C616 C614 1.415 . S
C616 C621 1.425 1_556 S
C616 C623 1.409 . S
C617 H609 0.930 . S
C617 C615 1.419 . S
C617 C618 1.362 . S
C618 H610 0.930 . S
C618 C617 1.362 . S
C618 C621 1.409 . S
C619 H611 0.930 . S
C619 C620 1.355 . S
C619 C621 1.415 . S
C620 C619 1.355 . S
C620 C622 1.419 1_554 S
C621 C616 1.425 1_554 S
C621 C618 1.409 . S
C621 C619 1.415 . S
C622 H612 0.930 . S
C622 C620 1.419 1_556 S
C622 C623 1.362 . S
C623 H613 0.930 . S
C623 C616 1.409 . S
C623 C622 1.362 . S
C247 C5 1.468 . S
C252 C151 1.478 . S
C263 C31 1.487 . S
C268 C94 1.504 . S
C284 C109 1.525 . S
C279 C53 1.519 . S
C295 C71 1.487 . S
C300 C128 1.487 . S
C316 C185 1.492 . S
C311 C75 1.486 . S
C332 C204 1.459 . S
C327 C9 1.545 . S
C348 C227 1.497 . S
C343 C27 1.496 . S
C364 C170 1.462 . S
C359 C49 1.490 . S
C375 C51 1.449 . S
C380 C113 1.494 . S
C391 C72 1.513 . S
C396 C132 1.486 . S
C407 C6 1.526 . S
C412 C147 1.489 . S
C428 C90 1.445 . S
C423 C29 1.511 . S
C439 C28 1.485 . S
C444 C223 1.503 . S
C460 C166 1.506 . S
C455 C50 1.518 . S
C476 C189 1.489 . S
C471 C73 1.507 . S
C487 C7 1.482 . S
C492 C208 1.469 . S
C508 C99 1.397 1_554 S
C503 C4 1.512 . S
C524 C118 1.459 . S
C519 C30 1.523 . S
C535 C52 1.489 . S
C540 C137 1.387 . S
C551 C70 1.523 . S
C556 C156 1.319 . S
C572 C175 1.391 . S
C567 C74 1.513 . S
C583 C8 1.490 . S
C588 C194 1.419 1_554 S
C599 C26 1.495 . S
C604 C213 1.441 . S
C615 C48 1.523 . S
C620 C232 1.343 . S
