# Generated by pormake.
# Topology hwx, (6,3)-cn, num edge types: 1
# Building blocks:
#     Node 0, Type 0, BuildingBlock: IZENUY_clean_sbu_0, # of connection points: 6
#     Node 1, Type 0, BuildingBlock: IZENUY_clean_sbu_0, # of connection points: 6
#     Node 2, Type 0, BuildingBlock: IZENUY_clean_sbu_0, # of connection points: 6
#     Node 3, Type 0, BuildingBlock: IZENUY_clean_sbu_0, # of connection points: 6
#     Node 4, Type 1, BuildingBlock: BETDIP_clean_linker_0, # of connection points: 3
#     Node 5, Type 1, BuildingBlock: BETDIP_clean_linker_0, # of connection points: 3
#     Node 6, Type 1, BuildingBlock: BETDIP_clean_linker_0, # of connection points: 3
#     Node 7, Type 1, BuildingBlock: BETDIP_clean_linker_0, # of connection points: 3
#     Node 8, Type 1, BuildingBlock: BETDIP_clean_linker_0, # of connection points: 3
#     Node 9, Type 1, BuildingBlock: BETDIP_clean_linker_0, # of connection points: 3
#     Node 10, Type 1, BuildingBlock: BETDIP_clean_linker_0, # of connection points: 3
#     Node 11, Type 1, BuildingBlock: BETDIP_clean_linker_0, # of connection points: 3
#     Edge 12, Type (0, 1), BuildingBlock: KIFKEQ_clean_linker_1, # of connection points: 2
#     Edge 13, Type (0, 1), BuildingBlock: KIFKEQ_clean_linker_1, # of connection points: 2
#     Edge 14, Type (0, 1), BuildingBlock: KIFKEQ_clean_linker_1, # of connection points: 2
#     Edge 15, Type (0, 1), BuildingBlock: KIFKEQ_clean_linker_1, # of connection points: 2
#     Edge 16, Type (0, 1), BuildingBlock: KIFKEQ_clean_linker_1, # of connection points: 2
#     Edge 17, Type (0, 1), BuildingBlock: KIFKEQ_clean_linker_1, # of connection points: 2
#     Edge 18, Type (0, 1), BuildingBlock: KIFKEQ_clean_linker_1, # of connection points: 2
#     Edge 19, Type (0, 1), BuildingBlock: KIFKEQ_clean_linker_1, # of connection points: 2
#     Edge 20, Type (0, 1), BuildingBlock: KIFKEQ_clean_linker_1, # of connection points: 2
#     Edge 21, Type (0, 1), BuildingBlock: KIFKEQ_clean_linker_1, # of connection points: 2
#     Edge 22, Type (0, 1), BuildingBlock: KIFKEQ_clean_linker_1, # of connection points: 2
#     Edge 23, Type (0, 1), BuildingBlock: KIFKEQ_clean_linker_1, # of connection points: 2
#     Edge 24, Type (0, 1), BuildingBlock: KIFKEQ_clean_linker_1, # of connection points: 2
#     Edge 25, Type (0, 1), BuildingBlock: KIFKEQ_clean_linker_1, # of connection points: 2
#     Edge 26, Type (0, 1), BuildingBlock: KIFKEQ_clean_linker_1, # of connection points: 2
#     Edge 27, Type (0, 1), BuildingBlock: KIFKEQ_clean_linker_1, # of connection points: 2
#     Edge 28, Type (0, 1), BuildingBlock: KIFKEQ_clean_linker_1, # of connection points: 2
#     Edge 29, Type (0, 1), BuildingBlock: KIFKEQ_clean_linker_1, # of connection points: 2
#     Edge 30, Type (0, 1), BuildingBlock: KIFKEQ_clean_linker_1, # of connection points: 2
#     Edge 31, Type (0, 1), BuildingBlock: KIFKEQ_clean_linker_1, # of connection points: 2
#     Edge 32, Type (0, 1), BuildingBlock: KIFKEQ_clean_linker_1, # of connection points: 2
#     Edge 33, Type (0, 1), BuildingBlock: KIFKEQ_clean_linker_1, # of connection points: 2
#     Edge 34, Type (0, 1), BuildingBlock: KIFKEQ_clean_linker_1, # of connection points: 2
#     Edge 35, Type (0, 1), BuildingBlock: KIFKEQ_clean_linker_1, # of connection points: 2
# Relax obj value: 0.003
# Max RMSD: 0.061
# Mean RMSD: 0.048
data_MOF--net-hwx--node1-IZENUY_clean_sbu_0--node2-BETDIP_clean_linker_0--edge1-KIFKEQ_clean_linker_1
_symmetry_space_group_name_H-M    P1
_symmetry_Int_Tables_number       1
_symmetry_cell_setting            triclinic
loop_
_symmetry_equiv_pos_as_xyz
'x, y, z'
_cell_length_a     52.327141
_cell_length_b     52.328424
_cell_length_c     21.10913
_cell_angle_alpha  91.353589
_cell_angle_beta   91.482987
_cell_angle_gamma 89.754538
loop_
_atom_site_label
_atom_site_type_symbol
_atom_site_fract_x
_atom_site_fract_y
_atom_site_fract_z
_atom_type_partial_charge
Fe0 Fe 0.24521 0.23877 0.09222 0.0
Fe1 Fe 0.24452 0.24071 0.94702 0.0
O2 O 0.23295 0.22766 0.01756 0.0
Fe3 Fe 0.20913 0.20357 0.01348 0.0
O4 O 0.18721 0.22309 0.05946 0.0
O5 O 0.21528 0.23447 0.13383 0.0
O6 O 0.23472 0.2712 0.07711 0.0
C7 C 0.24103 0.28391 0.02999 0.0
C8 C 0.24256 0.18751 0.11319 0.0
O9 O 0.25009 0.27284 0.98147 0.0
C10 C 0.23925 0.18799 0.91563 0.0
O11 O 0.27749 0.24506 0.06444 0.0
O12 O 0.27701 0.23066 0.96583 0.0
O13 O 0.22108 0.18689 0.08406 0.0
O14 O 0.25644 0.20715 0.11262 0.0
C15 C 0.19347 0.23758 0.91686 0.0
O16 O 0.24101 0.21107 0.89966 0.0
O17 O 0.22932 0.18233 0.96724 0.0
C18 C 0.28915 0.23672 0.01631 0.0
O19 O 0.21293 0.25165 0.92302 0.0
O20 O 0.19288 0.21589 0.9422 0.0
C21 C 0.19236 0.23264 0.11369 0.0
Fe22 Fe 0.26539 0.73823 0.5916 0.0
Fe23 Fe 0.30141 0.70177 0.52018 0.0
O24 O 0.27873 0.72701 0.51967 0.0
Fe25 Fe 0.26942 0.74102 0.44702 0.0
O26 O 0.26423 0.77311 0.4813 0.0
O27 O 0.27727 0.77032 0.58064 0.0
O28 O 0.29435 0.7323 0.64018 0.0
C29 C 0.3175 0.72927 0.62528 0.0
C30 C 0.22323 0.73833 0.50442 0.0
O31 O 0.32316 0.71998 0.5718 0.0
C32 C 0.27304 0.68828 0.41452 0.0
O33 O 0.25258 0.70697 0.60793 0.0
O34 O 0.2876 0.68535 0.58696 0.0
O35 O 0.23631 0.73218 0.45699 0.0
O36 O 0.234 0.74605 0.5558 0.0
C37 C 0.32079 0.7356 0.43028 0.0
O38 O 0.2812 0.68183 0.46854 0.0
O39 O 0.2729 0.71154 0.39922 0.0
C40 C 0.26561 0.68667 0.61047 0.0
O41 O 0.31939 0.71355 0.45344 0.0
O42 O 0.30198 0.75075 0.43227 0.0
C43 C 0.27253 0.78352 0.53247 0.0
Fe44 Fe 0.76622 0.77726 0.92046 0.0
Fe45 Fe 0.76801 0.77543 0.06605 0.0
O46 O 0.778 0.78921 0.99486 0.0
Fe47 Fe 0.79991 0.815 0.99832 0.0
O48 O 0.787 0.83053 0.92731 0.0
O49 O 0.75294 0.80813 0.8996 0.0
O50 O 0.73449 0.76913 0.94915 0.0
C51 C 0.72271 0.77649 0.99805 0.0
C52 C 0.81862 0.78707 0.89877 0.0
O53 O 0.73476 0.783 0.04838 0.0
C54 C 0.81877 0.78256 0.09437 0.0
O55 O 0.77858 0.74543 0.93542 0.0
O56 O 0.7646 0.74293 0.03234 0.0
O57 O 0.8231 0.79689 0.95303 0.0
O58 O 0.79586 0.78339 0.87866 0.0
C59 C 0.76914 0.82858 0.09607 0.0
O60 O 0.80061 0.76684 0.08864 0.0
O61 O 0.81694 0.80437 0.07 0.0
C62 C 0.77358 0.73241 0.98304 0.0
O63 O 0.76953 0.80548 0.11289 0.0
O64 O 0.77817 0.83478 0.04381 0.0
C65 C 0.76555 0.82859 0.89857 0.0
Fe66 Fe 0.71015 0.31442 0.49883 0.0
Fe67 Fe 0.74201 0.27498 0.57185 0.0
O68 O 0.73279 0.28912 0.49921 0.0
Fe69 Fe 0.74606 0.27798 0.42712 0.0
O70 O 0.75884 0.30927 0.41076 0.0
O71 O 0.72381 0.33079 0.43178 0.0
O72 O 0.73052 0.3343 0.55016 0.0
C73 C 0.73874 0.32787 0.60417 0.0
C74 C 0.69388 0.28692 0.39397 0.0
O75 O 0.73884 0.3046 0.61962 0.0
C76 C 0.73879 0.23254 0.48596 0.0
O77 O 0.69224 0.30283 0.56586 0.0
O78 O 0.70938 0.26551 0.58662 0.0
O79 O 0.71701 0.28391 0.37885 0.0
O80 O 0.68829 0.29622 0.44751 0.0
C81 C 0.78824 0.27743 0.51442 0.0
O82 O 0.74689 0.24282 0.5375 0.0
O83 O 0.73424 0.24585 0.43789 0.0
C84 C 0.69069 0.28079 0.58886 0.0
O85 O 0.77521 0.2834 0.56205 0.0
O86 O 0.77749 0.27019 0.46261 0.0
C87 C 0.74575 0.32953 0.40806 0.0
H88 H 0.23508 0.51969 0.90009 0.0
H89 H 0.24354 0.52604 0.10382 0.0
H90 H 0.24016 0.5935 0.99227 0.0
H91 H 0.25278 0.48547 0.09912 0.0
C92 C 0.24489 0.47687 0.05572 0.0
C93 C 0.23682 0.53127 0.94323 0.0
C94 C 0.23708 0.55798 0.93981 0.0
C95 C 0.23899 0.51938 0.00208 0.0
C96 C 0.24173 0.53464 0.05793 0.0
C97 C 0.24268 0.56142 0.05464 0.0
C98 C 0.23977 0.57285 0.99544 0.0
N99 N 0.23839 0.49218 0.00281 0.0
H100 H 0.98522 0.75728 0.60808 0.0
H101 H 0.9828 0.74964 0.40388 0.0
H102 H 0.91507 0.77017 0.50243 0.0
H103 H 0.02377 0.75903 0.4136 0.0
C104 C 0.03102 0.75157 0.45813 0.0
C105 C 0.97464 0.75787 0.56332 0.0
C106 C 0.94855 0.76439 0.56231 0.0
C107 C 0.98748 0.75321 0.50647 0.0
C108 C 0.97362 0.75386 0.44824 0.0
C109 C 0.94763 0.76043 0.44693 0.0
C110 C 0.93531 0.76556 0.50384 0.0
N111 N 0.01432 0.74852 0.50957 0.0
H112 H 0.77593 0.49652 0.11851 0.0
H113 H 0.76848 0.4916 0.91472 0.0
H114 H 0.7709 0.4232 0.02384 0.0
H115 H 0.79134 0.5296 0.92406 0.0
C116 C 0.78228 0.53904 0.96404 0.0
C117 C 0.77448 0.48515 0.07499 0.0
C118 C 0.77391 0.45842 0.07753 0.0
C119 C 0.7736 0.49729 0.01636 0.0
C120 C 0.7707 0.48242 0.95995 0.0
C121 C 0.76914 0.45562 0.96238 0.0
C122 C 0.77157 0.44387 0.02132 0.0
N123 N 0.77443 0.52445 0.01605 0.0
H124 H 0.02682 0.26398 0.40482 0.0
H125 H 0.02769 0.2648 0.60912 0.0
H126 H 0.09825 0.26698 0.51057 0.0
H127 H 0.99018 0.28718 0.59117 0.0
C128 C 0.98132 0.27639 0.55194 0.0
C129 C 0.03734 0.26467 0.44974 0.0
C130 C 0.06417 0.26566 0.45078 0.0
C131 C 0.02393 0.26542 0.50651 0.0
C132 C 0.03765 0.26554 0.56488 0.0
C133 C 0.06444 0.2663 0.56625 0.0
C134 C 0.07751 0.26681 0.50929 0.0
N135 N 0.99676 0.26574 0.50344 0.0
H136 H 0.7363 0.99397 0.60522 0.0
H137 H 0.73423 0.99259 0.40092 0.0
H138 H 0.73124 0.92238 0.50187 0.0
H139 H 0.7141 0.03126 0.41783 0.0
C140 C 0.72537 0.03965 0.45689 0.0
C141 C 0.73498 0.98339 0.56049 0.0
C142 C 0.73331 0.95662 0.56004 0.0
C143 C 0.73431 0.99664 0.50341 0.0
C144 C 0.73351 0.98273 0.44534 0.0
C145 C 0.73226 0.95591 0.44446 0.0
C146 C 0.73167 0.9431 0.50204 0.0
N147 N 0.7351 0.02382 0.50591 0.0
H148 H 0.52567 0.24709 0.88108 0.0
H149 H 0.52948 0.25501 0.08496 0.0
H150 H 0.59672 0.26606 0.97642 0.0
H151 H 0.48872 0.26884 0.06779 0.0
C152 C 0.48116 0.25586 0.0311 0.0
C153 C 0.53659 0.25069 0.92467 0.0
C154 C 0.56261 0.25675 0.92238 0.0
C155 C 0.52427 0.2507 0.98297 0.0
C156 C 0.53858 0.25553 0.03958 0.0
C157 C 0.56475 0.26133 0.03765 0.0
C158 C 0.57649 0.26186 0.97873 0.0
N159 N 0.49745 0.24632 0.98304 0.0
H160 H 0.26961 0.02121 0.407 0.0
H161 H 0.27203 0.02334 0.61131 0.0
H162 H 0.27357 0.09323 0.50875 0.0
H163 H 0.29353 0.98536 0.5947 0.0
C164 C 0.28222 0.97649 0.55637 0.0
C165 C 0.27076 0.03196 0.4515 0.0
C166 C 0.27188 0.05874 0.45139 0.0
C167 C 0.27184 0.01895 0.50889 0.0
C168 C 0.27244 0.03305 0.56663 0.0
C169 C 0.27319 0.05987 0.56689 0.0
C170 C 0.2734 0.07251 0.50904 0.0
N171 N 0.27178 0.99176 0.50713 0.0
H172 H 0.48638 0.76758 0.13806 0.0
H173 H 0.48213 0.75925 0.93428 0.0
H174 H 0.41474 0.75026 0.04361 0.0
H175 H 0.52261 0.74428 0.95162 0.0
C176 C 0.5305 0.75731 0.98781 0.0
C177 C 0.47532 0.76417 0.09459 0.0
C178 C 0.44915 0.75884 0.09717 0.0
C179 C 0.48757 0.76371 0.03617 0.0
C180 C 0.47306 0.7591 0.97975 0.0
C181 C 0.44675 0.75402 0.98198 0.0
C182 C 0.43506 0.75396 0.04103 0.0
N183 N 0.51448 0.76742 0.03579 0.0
H184 H 0.14029 0.22946 0.09193 0.0
H185 H 0.19726 0.25198 0.23419 0.0
H186 H 0.10651 0.24044 0.1661 0.0
H187 H 0.16388 0.26224 0.30789 0.0
H188 H 0.10181 0.29777 0.41669 0.0
H189 H 0.13052 0.29243 0.32821 0.0
H190 H 0.08891 0.22504 0.26437 0.0
H191 H 0.0597 0.23097 0.35229 0.0
C192 C 0.14562 0.23676 0.13884 0.0
C193 C 0.17151 0.23977 0.15709 0.0
C194 C 0.12627 0.24296 0.18138 0.0
C195 C 0.13245 0.25239 0.24285 0.0
C196 C 0.15834 0.25556 0.26058 0.0
C197 C 0.17756 0.24942 0.21832 0.0
C198 C 0.09859 0.28208 0.38307 0.0
C199 C 0.07876 0.26463 0.39156 0.0
C200 C 0.11509 0.27891 0.3326 0.0
C201 C 0.11235 0.258 0.28988 0.0
C202 C 0.09151 0.24141 0.2962 0.0
C203 C 0.0748 0.24475 0.34654 0.0
H204 H 0.27848 0.63639 0.59738 0.0
H205 H 0.23305 0.68852 0.70956 0.0
H206 H 0.26735 0.60151 0.66581 0.0
H207 H 0.22306 0.65418 0.78029 0.0
H208 H 0.19941 0.58815 0.89128 0.0
H209 H 0.20225 0.6164 0.80123 0.0
H210 H 0.27827 0.5873 0.76609 0.0
H211 H 0.27442 0.55816 0.85358 0.0
C212 C 0.26607 0.64035 0.63675 0.0
C213 C 0.25679 0.6652 0.64846 0.0
C214 C 0.25979 0.62039 0.67629 0.0
C215 C 0.24451 0.62491 0.72934 0.0
C216 C 0.23452 0.64969 0.73952 0.0
C217 C 0.24039 0.66953 0.69918 0.0
C218 C 0.2163 0.58736 0.86268 0.0
C219 C 0.23661 0.57097 0.87857 0.0
C220 C 0.21816 0.60376 0.81169 0.0
C221 C 0.24067 0.60457 0.77662 0.0
C222 C 0.26047 0.58711 0.79104 0.0
C223 C 0.25836 0.57038 0.84128 0.0
H224 H 0.82793 0.73983 0.16511 0.0
H225 H 0.86025 0.81284 0.11938 0.0
H226 H 0.86267 0.73337 0.24298 0.0
H227 H 0.8948 0.80622 0.19655 0.0
H228 H 0.92216 0.80233 0.40719 0.0
H229 H 0.89378 0.80605 0.31451 0.0
H230 H 0.91108 0.72806 0.25857 0.0
H231 H 0.93976 0.72443 0.35221 0.0
C232 C 0.84257 0.75433 0.17101 0.0
C233 C 0.84104 0.77705 0.13677 0.0
C234 C 0.86255 0.75053 0.21527 0.0
C235 C 0.88128 0.76942 0.22618 0.0
C236 C 0.88041 0.79151 0.18975 0.0
C237 C 0.86058 0.79527 0.1455 0.0
C238 C 0.92016 0.78612 0.37454 0.0
C239 C 0.93304 0.76311 0.38655 0.0
C240 C 0.90403 0.78826 0.32138 0.0
C241 C 0.90022 0.76734 0.27931 0.0
C242 C 0.9136 0.74443 0.29045 0.0
C243 C 0.93009 0.7424 0.34351 0.0
H244 H 0.75054 0.32109 0.72923 0.0
H245 H 0.74148 0.3799 0.58979 0.0
H246 H 0.75804 0.35368 0.81143 0.0
H247 H 0.74901 0.41267 0.67299 0.0
H248 H 0.79034 0.45855 0.8446 0.0
H249 H 0.78381 0.42879 0.75383 0.0
H250 H 0.72918 0.38686 0.86012 0.0
H251 H 0.73533 0.41646 0.94958 0.0
C252 C 0.75027 0.34096 0.71593 0.0
C253 C 0.74512 0.34786 0.65292 0.0
C254 C 0.75447 0.35965 0.76319 0.0
C255 C 0.75379 0.38571 0.7487 0.0
C256 C 0.74965 0.3927 0.68541 0.0
C257 C 0.74523 0.37394 0.63794 0.0
C258 C 0.7767 0.44317 0.84802 0.0
C259 C 0.76375 0.43953 0.90465 0.0
C260 C 0.773 0.42616 0.79623 0.0
C261 C 0.75637 0.40525 0.8005 0.0
C262 C 0.7426 0.40241 0.85605 0.0
C263 C 0.74616 0.41937 0.90731 0.0
H264 H 0.69926 0.2801 0.26669 0.0
H265 H 0.64217 0.28356 0.41115 0.0
H266 H 0.66573 0.27486 0.18548 0.0
H267 H 0.60848 0.27805 0.329 0.0
H268 H 0.56456 0.23656 0.15114 0.0
H269 H 0.59423 0.24303 0.242 0.0
H270 H 0.62974 0.30505 0.14631 0.0
H271 H 0.59992 0.29916 0.05677 0.0
C272 C 0.67957 0.27959 0.28123 0.0
C273 C 0.67339 0.28241 0.3454 0.0
C274 C 0.66037 0.27673 0.23462 0.0
C275 C 0.63455 0.2763 0.25105 0.0
C276 C 0.62827 0.27833 0.31524 0.0
C277 C 0.64753 0.28158 0.36205 0.0
C278 C 0.57834 0.25191 0.15019 0.0
C279 C 0.58021 0.26704 0.09629 0.0
C280 C 0.59532 0.25555 0.20204 0.0
C281 C 0.61449 0.27423 0.20047 0.0
C282 C 0.61545 0.29017 0.14809 0.0
C283 C 0.59842 0.28673 0.09682 0.0
H284 H 0.25731 0.19373 0.79693 0.0
H285 H 0.23838 0.13591 0.93079 0.0
H286 H 0.26807 0.16075 0.7197 0.0
H287 H 0.24992 0.10262 0.85331 0.0
H288 H 0.23991 0.05497 0.66327 0.0
H289 H 0.23402 0.08442 0.7533 0.0
H290 H 0.29879 0.12844 0.69558 0.0
H291 H 0.30409 0.09937 0.60483 0.0
C292 C 0.25568 0.17395 0.81022 0.0
C293 C 0.24683 0.16751 0.87007 0.0
C294 C 0.2621 0.15497 0.76595 0.0
C295 C 0.26004 0.12897 0.78033 0.0
C296 C 0.25153 0.12245 0.84052 0.0
C297 C 0.245 0.14153 0.88497 0.0
C298 C 0.25316 0.07066 0.67075 0.0
C299 C 0.27228 0.07509 0.62686 0.0
C300 C 0.24984 0.08753 0.72234 0.0
C301 C 0.26569 0.10904 0.73117 0.0
C302 C 0.28583 0.11244 0.68932 0.0
C303 C 0.28898 0.09575 0.63755 0.0
H304 H 0.32787 0.7772 0.35556 0.0
H305 H 0.36517 0.70845 0.42093 0.0
H306 H 0.36319 0.7844 0.28468 0.0
H307 H 0.40044 0.71589 0.35093 0.0
H308 H 0.42995 0.71592 0.14484 0.0
H309 H 0.40208 0.71238 0.23489 0.0
H310 H 0.41003 0.79339 0.27473 0.0
H311 H 0.43813 0.79677 0.18362 0.0
C312 C 0.34375 0.76386 0.35562 0.0
C313 C 0.34344 0.74199 0.39306 0.0
C314 C 0.36408 0.7681 0.31532 0.0
C315 C 0.38447 0.75055 0.31176 0.0
C316 C 0.3848 0.72951 0.35186 0.0
C317 C 0.36456 0.72528 0.39201 0.0
C318 C 0.4262 0.73281 0.17389 0.0
C319 C 0.43619 0.75655 0.15797 0.0
C320 C 0.41031 0.73083 0.2255 0.0
C321 C 0.40384 0.75262 0.26196 0.0
C322 C 0.41459 0.77631 0.24726 0.0
C323 C 0.4308 0.77823 0.19573 0.0
H324 H 0.77809 0.87903 0.90874 0.0
H325 H 0.73402 0.82514 0.7935 0.0
H326 H 0.76705 0.91282 0.83537 0.0
H327 H 0.7241 0.85838 0.71813 0.0
H328 H 0.69783 0.92399 0.60322 0.0
H329 H 0.70232 0.89548 0.69268 0.0
H330 H 0.77745 0.92663 0.73569 0.0
H331 H 0.77198 0.95606 0.64848 0.0
C332 C 0.76602 0.87443 0.8676 0.0
C333 C 0.75702 0.84941 0.8567 0.0
C334 C 0.75982 0.89377 0.82519 0.0
C335 C 0.74484 0.88846 0.77012 0.0
C336 C 0.7353 0.86348 0.76034 0.0
C337 C 0.74111 0.84427 0.80342 0.0
C338 C 0.715 0.92502 0.63297 0.0
C339 C 0.73454 0.94217 0.6194 0.0
C340 C 0.71777 0.9085 0.68377 0.0
C341 C 0.74043 0.90833 0.72127 0.0
C342 C 0.75956 0.92631 0.70879 0.0
C343 C 0.75653 0.94318 0.65868 0.0
H344 H 0.81521 0.78073 0.77055 0.0
H345 H 0.87012 0.78418 0.92713 0.0
H346 H 0.84992 0.77654 0.69653 0.0
H347 H 0.90506 0.77956 0.85203 0.0
H348 H 0.94919 0.73791 0.67336 0.0
H349 H 0.91983 0.74375 0.76172 0.0
H350 H 0.8866 0.80944 0.67079 0.0
H351 H 0.91605 0.80411 0.58393 0.0
C352 C 0.83467 0.78038 0.7893 0.0
C353 C 0.8399 0.78296 0.85475 0.0
C354 C 0.85454 0.7781 0.74681 0.0
C355 C 0.88009 0.77797 0.76871 0.0
C356 C 0.88547 0.77966 0.83416 0.0
C357 C 0.86551 0.78238 0.8769 0.0
C358 C 0.93608 0.75398 0.67327 0.0
C359 C 0.93454 0.77025 0.62121 0.0
C360 C 0.91929 0.75726 0.72361 0.0
C361 C 0.90073 0.77675 0.72217 0.0
C362 C 0.90046 0.794 0.67234 0.0
C363 C 0.91727 0.7909 0.62266 0.0
H364 H 0.77843 0.32768 0.30909 0.0
H365 H 0.73227 0.37969 0.41972 0.0
H366 H 0.78804 0.36187 0.2375 0.0
H367 H 0.74297 0.4144 0.35038 0.0
H368 H 0.73601 0.45749 0.16235 0.0
H369 H 0.73207 0.42819 0.24957 0.0
H370 H 0.8085 0.39984 0.21619 0.0
H371 H 0.81148 0.42826 0.1265 0.0
C372 C 0.77084 0.34662 0.31894 0.0
C373 C 0.75437 0.35095 0.36953 0.0
C374 C 0.77648 0.36636 0.27808 0.0
C375 C 0.76616 0.39106 0.28756 0.0
C376 C 0.75078 0.39559 0.34042 0.0
C377 C 0.74476 0.37572 0.38051 0.0
C378 C 0.75212 0.44538 0.17495 0.0
C379 C 0.77406 0.44509 0.13833 0.0
C380 C 0.74996 0.42857 0.22503 0.0
C381 C 0.76988 0.41131 0.23996 0.0
C382 C 0.79251 0.41233 0.20537 0.0
C383 C 0.79443 0.42883 0.15458 0.0
H384 H 0.19574 0.26954 0.81693 0.0
H385 H 0.14375 0.22212 0.91711 0.0
H386 H 0.16238 0.2783 0.73829 0.0
H387 H 0.10969 0.23207 0.8406 0.0
H388 H 0.06671 0.22707 0.64787 0.0
H389 H 0.09634 0.22207 0.73776 0.0
H390 H 0.12466 0.29857 0.71078 0.0
H391 H 0.09605 0.30255 0.61831 0.0
C392 C 0.17696 0.26143 0.82285 0.0
C393 C 0.17242 0.24497 0.87286 0.0
C394 C 0.15767 0.2666 0.77791 0.0
C395 C 0.13315 0.25587 0.78255 0.0
C396 C 0.1284 0.24023 0.83434 0.0
C397 C 0.14788 0.23464 0.87856 0.0
C398 C 0.07906 0.24287 0.6621 0.0
C399 C 0.07924 0.26515 0.62659 0.0
C400 C 0.09601 0.24013 0.7138 0.0
C401 C 0.11323 0.25983 0.73169 0.0
C402 C 0.11226 0.2827 0.69772 0.0
C403 C 0.09568 0.28518 0.64522 0.0
H404 H 0.27139 0.6361 0.42742 0.0
H405 H 0.2602 0.69554 0.29036 0.0
H406 H 0.26383 0.60368 0.3434 0.0
H407 H 0.25267 0.6633 0.20744 0.0
H408 H 0.27543 0.60152 0.0663 0.0
H409 H 0.28167 0.63091 0.1562 0.0
H410 H 0.22859 0.5876 0.26384 0.0
H411 H 0.22194 0.5581 0.17276 0.0
C412 C 0.26717 0.64226 0.37964 0.0
C413 C 0.2667 0.66842 0.36551 0.0
C414 C 0.26274 0.6237 0.33172 0.0
C415 C 0.25799 0.63101 0.26888 0.0
C416 C 0.25673 0.65713 0.25529 0.0
C417 C 0.26096 0.6756 0.30298 0.0
C418 C 0.26493 0.5983 0.10893 0.0
C419 C 0.24781 0.57777 0.11199 0.0
C420 C 0.26856 0.61511 0.16044 0.0
C421 C 0.2553 0.61175 0.21657 0.0
C422 C 0.23903 0.59059 0.22103 0.0
C423 C 0.23527 0.57374 0.16903 0.0
H424 H 0.36929 0.73204 0.60867 0.0
H425 H 0.31193 0.73665 0.75238 0.0
H426 H 0.40287 0.73741 0.69109 0.0
H427 H 0.34536 0.74179 0.83388 0.0
H428 H 0.41062 0.71704 0.96386 0.0
H429 H 0.38071 0.71145 0.87442 0.0
H430 H 0.41767 0.77221 0.77721 0.0
H431 H 0.44746 0.77837 0.86796 0.0
C432 C 0.36384 0.73425 0.65767 0.0
C433 C 0.33794 0.73376 0.67402 0.0
C434 C 0.38305 0.73742 0.70464 0.0
C435 C 0.37666 0.73974 0.76872 0.0
C436 C 0.3508 0.73969 0.78484 0.0
C437 C 0.33166 0.73689 0.73806 0.0
C438 C 0.41241 0.72927 0.92352 0.0
C439 C 0.43109 0.7485 0.92355 0.0
C440 C 0.39532 0.726 0.8723 0.0
C441 C 0.39667 0.74167 0.81949 0.0
C442 C 0.41626 0.7599 0.81751 0.0
C443 C 0.43331 0.76336 0.86928 0.0
H444 H 0.75101 0.82223 0.21467 0.0
H445 H 0.76791 0.88058 0.08048 0.0
H446 H 0.73925 0.85499 0.29187 0.0
H447 H 0.7555 0.91353 0.15781 0.0
H448 H 0.7654 0.96127 0.3478 0.0
H449 H 0.77167 0.93185 0.25792 0.0
H450 H 0.70761 0.8869 0.31583 0.0
H451 H 0.70176 0.91605 0.4062 0.0
C452 C 0.75198 0.84206 0.20132 0.0
C453 C 0.76059 0.84873 0.14143 0.0
C454 C 0.745 0.86089 0.24554 0.0
C455 C 0.74633 0.88693 0.23104 0.0
C456 C 0.75449 0.89366 0.17071 0.0
C457 C 0.76151 0.87476 0.12632 0.0
C458 C 0.75233 0.94542 0.34038 0.0
C459 C 0.73326 0.94078 0.38426 0.0
C460 C 0.7559 0.92855 0.28889 0.0
C461 C 0.74038 0.90679 0.28018 0.0
C462 C 0.72029 0.90312 0.32199 0.0
C463 C 0.71684 0.91987 0.37355 0.0
H464 H 0.68303 0.23865 0.66136 0.0
H465 H 0.64686 0.30868 0.60058 0.0
H466 H 0.64773 0.23142 0.7323 0.0
H467 H 0.61163 0.30124 0.6707 0.0
H468 H 0.58284 0.29974 0.87744 0.0
H469 H 0.61057 0.30362 0.78724 0.0
H470 H 0.60056 0.22325 0.74194 0.0
H471 H 0.57258 0.21952 0.83318 0.0
C472 C 0.6674 0.25228 0.66233 0.0
C473 C 0.66804 0.2745 0.62617 0.0
C474 C 0.64709 0.24803 0.70264 0.0
C475 C 0.62704 0.26591 0.70751 0.0
C476 C 0.62701 0.28733 0.6687 0.0
C477 C 0.64723 0.29157 0.6285 0.0
C478 C 0.58614 0.28307 0.84724 0.0
C479 C 0.57561 0.25938 0.86171 0.0
C480 C 0.60193 0.28526 0.79553 0.0
C481 C 0.60776 0.26372 0.75747 0.0
C482 C 0.59648 0.24012 0.77068 0.0
C483 C 0.58036 0.23801 0.8223 0.0
H484 H 0.27566 0.18886 0.21529 0.0
H485 H 0.22578 0.13813 0.10598 0.0
H486 H 0.28443 0.15526 0.29016 0.0
H487 H 0.23561 0.10384 0.17902 0.0
H488 H 0.23162 0.0616 0.3681 0.0
H489 H 0.22638 0.09099 0.28062 0.0
H490 H 0.3042 0.11683 0.31291 0.0
H491 H 0.30854 0.08848 0.40276 0.0
C492 C 0.26698 0.17031 0.20655 0.0
C493 C 0.24986 0.16622 0.15502 0.0
C494 C 0.27215 0.15088 0.24934 0.0
C495 C 0.26072 0.12665 0.24108 0.0
C496 C 0.24437 0.12233 0.18792 0.0
C497 C 0.23884 0.14194 0.14573 0.0
C498 C 0.24765 0.0733 0.35544 0.0
C499 C 0.27044 0.07291 0.39176 0.0
C500 C 0.24476 0.09012 0.30518 0.0
C501 C 0.26478 0.10663 0.28971 0.0
C502 C 0.28811 0.10498 0.32422 0.0
C503 C 0.29078 0.08854 0.37519 0.0
H504 H 0.22545 0.3148 0.12864 0.0
H505 H 0.25436 0.31728 0.93888 0.0
H506 H 0.22489 0.36142 0.13443 0.0
H507 H 0.25422 0.36376 0.94524 0.0
H508 H 0.2278 0.44685 0.95468 0.0
H509 H 0.22532 0.40029 0.94892 0.0
H510 H 0.25529 0.39668 0.14119 0.0
H511 H 0.25734 0.44331 0.14718 0.0
C512 C 0.23171 0.32525 0.08819 0.0
C513 C 0.24006 0.31224 0.03341 0.0
C514 C 0.2315 0.35198 0.09165 0.0
C515 C 0.23957 0.36633 0.04036 0.0
C516 C 0.24759 0.35332 0.98532 0.0
C517 C 0.24783 0.32662 0.98188 0.0
C518 C 0.23379 0.43612 0.99576 0.0
C519 C 0.24284 0.44867 0.05142 0.0
C520 C 0.23248 0.40943 0.99236 0.0
C521 C 0.24015 0.39474 0.04456 0.0
C522 C 0.24894 0.4074 0.10041 0.0
C523 C 0.25027 0.43408 0.10374 0.0
H524 H 0.18903 0.75435 0.59303 0.0
H525 H 0.19321 0.72283 0.40242 0.0
H526 H 0.14264 0.75617 0.58221 0.0
H527 H 0.14672 0.72413 0.39221 0.0
H528 H 0.06671 0.75984 0.37089 0.0
H529 H 0.11301 0.75549 0.38233 0.0
H530 H 0.10466 0.72988 0.57384 0.0
H531 H 0.05832 0.73482 0.56262 0.0
C532 C 0.18007 0.74765 0.54893 0.0
C533 C 0.19491 0.73862 0.49841 0.0
C534 C 0.15341 0.74852 0.54291 0.0
C535 C 0.14091 0.74035 0.48631 0.0
C536 C 0.15574 0.73095 0.43614 0.0
C537 C 0.18241 0.7301 0.4421 0.0
C538 C 0.07481 0.7532 0.41533 0.0
C539 C 0.05896 0.74776 0.46584 0.0
C540 C 0.10132 0.75054 0.4218 0.0
C541 C 0.1126 0.74231 0.47901 0.0
C542 C 0.09664 0.73658 0.52941 0.0
C543 C 0.07007 0.73927 0.5229 0.0
H544 H 0.77764 0.70135 0.87727 0.0
H545 H 0.77507 0.69954 0.08144 0.0
H546 H 0.77939 0.65479 0.87225 0.0
H547 H 0.77797 0.65315 0.07684 0.0
H548 H 0.75608 0.56995 0.04698 0.0
H549 H 0.75419 0.61645 0.05013 0.0
H550 H 0.80482 0.61855 0.89161 0.0
H551 H 0.80565 0.5719 0.88699 0.0
C552 C 0.77776 0.69101 0.92114 0.0
C553 C 0.77605 0.70416 0.97971 0.0
C554 C 0.7789 0.66427 0.91835 0.0
C555 C 0.77871 0.65002 0.97413 0.0
C556 C 0.77756 0.66331 0.03275 0.0
C557 C 0.77608 0.68999 0.03546 0.0
C558 C 0.76679 0.58036 0.01283 0.0
C559 C 0.7811 0.56733 0.96681 0.0
C560 C 0.76587 0.60709 0.01485 0.0
C561 C 0.77947 0.62146 0.97136 0.0
C562 C 0.79378 0.60826 0.92532 0.0
C563 C 0.79443 0.58151 0.92286 0.0
H564 H 0.81808 0.28051 0.62287 0.0
H565 H 0.82246 0.27369 0.41906 0.0
H566 H 0.86455 0.27927 0.63212 0.0
H567 H 0.86891 0.27344 0.42804 0.0
H568 H 0.95106 0.24857 0.46747 0.0
H569 H 0.90448 0.24824 0.45962 0.0
H570 H 0.90145 0.30366 0.61455 0.0
H571 H 0.94799 0.30308 0.62375 0.0
C572 C 0.82896 0.27894 0.57998 0.0
C573 C 0.81653 0.27712 0.52024 0.0
C574 C 0.85566 0.27837 0.58523 0.0
C575 C 0.8706 0.27626 0.53083 0.0
C576 C 0.8581 0.27461 0.47107 0.0
C577 C 0.83141 0.27491 0.46587 0.0
C578 C 0.9404 0.26063 0.49985 0.0
C579 C 0.95309 0.27591 0.54619 0.0
C580 C 0.91368 0.26058 0.49515 0.0
C581 C 0.89908 0.27598 0.53634 0.0
C582 C 0.91194 0.29123 0.58268 0.0
C583 C 0.93863 0.29107 0.58772 0.0
H584 H 0.73321 0.20231 0.37857 0.0
H585 H 0.73924 0.19879 0.58268 0.0
H586 H 0.73076 0.15583 0.37131 0.0
H587 H 0.73583 0.15247 0.57568 0.0
H588 H 0.7549 0.06857 0.54071 0.0
H589 H 0.75847 0.11502 0.54636 0.0
H590 H 0.70391 0.12074 0.3899 0.0
H591 H 0.70123 0.07423 0.38296 0.0
C592 C 0.7338 0.19164 0.42193 0.0
C593 C 0.73654 0.20429 0.48117 0.0
C594 C 0.73226 0.16494 0.41783 0.0
C595 C 0.73314 0.15025 0.47291 0.0
C596 C 0.7356 0.16302 0.53215 0.0
C597 C 0.73739 0.18965 0.5362 0.0
C598 C 0.74371 0.07978 0.50755 0.0
C599 C 0.72772 0.06782 0.46145 0.0
C600 C 0.74561 0.10645 0.51097 0.0
C601 C 0.73142 0.12178 0.46871 0.0
C602 C 0.71544 0.10966 0.42261 0.0
C603 C 0.71374 0.083 0.41887 0.0
H604 H 0.32105 0.24014 0.12017 0.0
H605 H 0.32138 0.23337 0.91582 0.0
H606 H 0.36742 0.24264 0.12342 0.0
H607 H 0.3679 0.2368 0.91885 0.0
H608 H 0.4538 0.22328 0.95067 0.0
H609 H 0.40758 0.21655 0.94737 0.0
H610 H 0.39954 0.27235 0.09998 0.0
H611 H 0.44566 0.27829 0.10448 0.0
C612 C 0.33103 0.23927 0.07585 0.0
C613 C 0.31748 0.23678 0.01771 0.0
C614 C 0.35767 0.24086 0.07767 0.0
C615 C 0.37148 0.24027 0.02136 0.0
C616 C 0.35796 0.2371 0.9632 0.0
C617 C 0.33125 0.23526 0.96142 0.0
C618 C 0.44211 0.23401 0.98356 0.0
C619 C 0.45327 0.25131 0.02794 0.0
C620 C 0.4156 0.23027 0.98147 0.0
C621 C 0.39975 0.24383 0.02353 0.0
C622 C 0.4111 0.26117 0.06769 0.0
C623 C 0.43753 0.26474 0.07003 0.0
H624 H 0.278 0.81408 0.63935 0.0
H625 H 0.27164 0.81689 0.43515 0.0
H626 H 0.27969 0.86064 0.64564 0.0
H627 H 0.27426 0.86325 0.44118 0.0
H628 H 0.25291 0.94654 0.47453 0.0
H629 H 0.25042 0.90003 0.47041 0.0
H630 H 0.30589 0.89628 0.62541 0.0
H631 H 0.30753 0.94289 0.63082 0.0
C632 C 0.27719 0.82462 0.59578 0.0
C633 C 0.27454 0.81176 0.53679 0.0
C634 C 0.27829 0.85134 0.59932 0.0
C635 C 0.27701 0.86581 0.54391 0.0
C636 C 0.27475 0.85284 0.48493 0.0
C637 C 0.27342 0.82619 0.48144 0.0
C638 C 0.26454 0.93576 0.5077 0.0
C639 C 0.28049 0.94828 0.55291 0.0
C640 C 0.26325 0.90906 0.50515 0.0
C641 C 0.27804 0.89428 0.54741 0.0
C642 C 0.29394 0.90696 0.59271 0.0
C643 C 0.29504 0.93365 0.59558 0.0
H644 H 0.69079 0.77962 0.09915 0.0
H645 H 0.69048 0.7711 0.89504 0.0
H646 H 0.64433 0.77573 0.09732 0.0
H647 H 0.64414 0.76813 0.89296 0.0
H648 H 0.5655 0.73375 0.91494 0.0
H649 H 0.61173 0.73905 0.91842 0.0
H650 H 0.60481 0.79609 0.06863 0.0
H651 H 0.55852 0.79 0.06641 0.0
C652 C 0.6808 0.77716 0.05385 0.0
C653 C 0.69439 0.77541 0.99729 0.0
C654 C 0.65412 0.77508 0.05274 0.0
C655 C 0.6404 0.77142 0.99501 0.0
C656 C 0.65404 0.77034 0.93843 0.0
C657 C 0.68066 0.77219 0.93958 0.0
C658 C 0.57392 0.74741 0.94867 0.0
C659 C 0.55847 0.7614 0.9904 0.0
C660 C 0.6004 0.75062 0.95043 0.0
C661 C 0.6121 0.76812 0.99361 0.0
C662 C 0.59654 0.78221 0.03532 0.0
C663 C 0.56998 0.77884 0.03384 0.0
loop_
_geom_bond_atom_site_label_1
_geom_bond_atom_site_label_2
_geom_bond_distance
_geom_bond_site_symmetry_2
_ccdc_geom_bond_type
Fe0 O2 1.918 . S
Fe0 O5 1.997 . S
Fe0 O6 2.002 . S
Fe0 O11 1.976 . S
Fe0 O14 1.996 . S
Fe1 O2 1.918 1_556 S
Fe1 O9 1.997 . S
Fe1 O12 1.996 . S
Fe1 O16 1.976 . S
Fe1 O19 2.002 . S
O2 Fe0 1.918 . S
O2 Fe1 1.918 1_554 S
O2 Fe3 1.918 . S
Fe3 O2 1.918 . S
Fe3 O4 2.002 . S
Fe3 O13 1.976 . S
Fe3 O17 1.996 1_554 S
Fe3 O20 1.997 1_554 S
O4 Fe3 2.002 . S
O4 C21 1.295 . S
O5 Fe0 1.997 . S
O5 C21 1.235 . S
O6 Fe0 2.002 . S
O6 C7 1.295 . S
C7 O6 1.295 . S
C7 O9 1.235 1_554 S
C8 O13 1.287 . S
C8 O14 1.255 . S
O9 Fe1 1.997 . S
O9 C7 1.235 1_556 S
C10 O16 1.287 . S
C10 O17 1.255 . S
O11 Fe0 1.976 . S
O11 C18 1.287 . S
O12 Fe1 1.996 . S
O12 C18 1.255 1_556 S
O13 Fe3 1.976 . S
O13 C8 1.287 . S
O14 Fe0 1.996 . S
O14 C8 1.255 . S
C15 O19 1.295 . S
C15 O20 1.235 . S
O16 Fe1 1.976 . S
O16 C10 1.287 . S
O17 Fe3 1.996 1_556 S
O17 C10 1.255 . S
C18 O11 1.287 . S
C18 O12 1.255 1_554 S
O19 Fe1 2.002 . S
O19 C15 1.295 . S
O20 Fe3 1.997 1_556 S
O20 C15 1.235 . S
C21 O4 1.295 . S
C21 O5 1.235 . S
Fe22 O24 1.918 . S
Fe22 O27 1.997 . S
Fe22 O28 2.002 . S
Fe22 O33 1.976 . S
Fe22 O36 1.996 . S
Fe23 O24 1.918 . S
Fe23 O31 1.997 . S
Fe23 O34 1.996 . S
Fe23 O38 1.976 . S
Fe23 O41 2.002 . S
O24 Fe22 1.918 . S
O24 Fe23 1.918 . S
O24 Fe25 1.918 . S
Fe25 O24 1.918 . S
Fe25 O26 2.002 . S
Fe25 O35 1.976 . S
Fe25 O39 1.996 . S
Fe25 O42 1.997 . S
O26 Fe25 2.002 . S
O26 C43 1.295 . S
O27 Fe22 1.997 . S
O27 C43 1.235 . S
O28 Fe22 2.002 . S
O28 C29 1.295 . S
C29 O28 1.295 . S
C29 O31 1.235 . S
C30 O35 1.287 . S
C30 O36 1.255 . S
O31 Fe23 1.997 . S
O31 C29 1.235 . S
C32 O38 1.287 . S
C32 O39 1.255 . S
O33 Fe22 1.976 . S
O33 C40 1.287 . S
O34 Fe23 1.996 . S
O34 C40 1.255 . S
O35 Fe25 1.976 . S
O35 C30 1.287 . S
O36 Fe22 1.996 . S
O36 C30 1.255 . S
C37 O41 1.295 . S
C37 O42 1.235 . S
O38 Fe23 1.976 . S
O38 C32 1.287 . S
O39 Fe25 1.996 . S
O39 C32 1.255 . S
C40 O33 1.287 . S
C40 O34 1.255 . S
O41 Fe23 2.002 . S
O41 C37 1.295 . S
O42 Fe25 1.997 . S
O42 C37 1.235 . S
C43 O26 1.295 . S
C43 O27 1.235 . S
Fe44 O46 1.918 1_556 S
Fe44 O49 1.997 . S
Fe44 O50 2.002 . S
Fe44 O55 1.976 . S
Fe44 O58 1.996 . S
Fe45 O46 1.918 . S
Fe45 O53 1.997 . S
Fe45 O56 1.996 . S
Fe45 O60 1.976 . S
Fe45 O63 2.002 . S
O46 Fe44 1.918 1_554 S
O46 Fe45 1.918 . S
O46 Fe47 1.918 . S
Fe47 O46 1.918 . S
Fe47 O48 2.002 1_554 S
Fe47 O57 1.976 1_554 S
Fe47 O61 1.996 . S
Fe47 O64 1.997 . S
O48 Fe47 2.002 1_556 S
O48 C65 1.295 . S
O49 Fe44 1.997 . S
O49 C65 1.235 . S
O50 Fe44 2.002 . S
O50 C51 1.295 1_556 S
C51 O50 1.295 1_554 S
C51 O53 1.235 . S
C52 O57 1.287 . S
C52 O58 1.255 . S
O53 Fe45 1.997 . S
O53 C51 1.235 . S
C54 O60 1.287 . S
C54 O61 1.255 . S
O55 Fe44 1.976 . S
O55 C62 1.287 1_556 S
O56 Fe45 1.996 . S
O56 C62 1.255 . S
O57 Fe47 1.976 1_556 S
O57 C52 1.287 . S
O58 Fe44 1.996 . S
O58 C52 1.255 . S
C59 O63 1.295 . S
C59 O64 1.235 . S
O60 Fe45 1.976 . S
O60 C54 1.287 . S
O61 Fe47 1.996 . S
O61 C54 1.255 . S
C62 O55 1.287 1_554 S
C62 O56 1.255 . S
O63 Fe45 2.002 . S
O63 C59 1.295 . S
O64 Fe47 1.997 . S
O64 C59 1.235 . S
C65 O48 1.295 . S
C65 O49 1.235 . S
Fe66 O68 1.918 . S
Fe66 O71 1.997 . S
Fe66 O72 2.002 . S
Fe66 O77 1.976 . S
Fe66 O80 1.996 . S
Fe67 O68 1.918 . S
Fe67 O75 1.997 . S
Fe67 O78 1.996 . S
Fe67 O82 1.976 . S
Fe67 O85 2.002 . S
O68 Fe66 1.918 . S
O68 Fe67 1.918 . S
O68 Fe69 1.918 . S
Fe69 O68 1.918 . S
Fe69 O70 2.002 . S
Fe69 O79 1.976 . S
Fe69 O83 1.996 . S
Fe69 O86 1.997 . S
O70 Fe69 2.002 . S
O70 C87 1.295 . S
O71 Fe66 1.997 . S
O71 C87 1.235 . S
O72 Fe66 2.002 . S
O72 C73 1.295 . S
C73 O72 1.295 . S
C73 O75 1.235 . S
C74 O79 1.287 . S
C74 O80 1.255 . S
O75 Fe67 1.997 . S
O75 C73 1.235 . S
C76 O82 1.287 . S
C76 O83 1.255 . S
O77 Fe66 1.976 . S
O77 C84 1.287 . S
O78 Fe67 1.996 . S
O78 C84 1.255 . S
O79 Fe69 1.976 . S
O79 C74 1.287 . S
O80 Fe66 1.996 . S
O80 C74 1.255 . S
C81 O85 1.295 . S
C81 O86 1.235 . S
O82 Fe67 1.976 . S
O82 C76 1.287 . S
O83 Fe69 1.996 . S
O83 C76 1.255 . S
C84 O77 1.287 . S
C84 O78 1.255 . S
O85 Fe67 2.002 . S
O85 C81 1.295 . S
O86 Fe69 1.997 . S
O86 C81 1.235 . S
C87 O70 1.295 . S
C87 O71 1.235 . S
H88 C93 0.930 . S
H89 C96 0.930 . S
H90 C98 0.930 1_554 S
H91 C92 1.016 . S
C92 H91 1.016 . S
C92 N99 1.286 1_554 S
C93 H88 0.930 . S
C93 C94 1.397 . S
C93 C95 1.361 . S
C94 C93 1.397 . S
C94 C98 1.400 . S
C95 C93 1.361 . S
C95 C96 1.393 1_556 S
C95 N99 1.413 . S
C96 H89 0.930 . S
C96 C95 1.393 1_554 S
C96 C97 1.399 . S
C97 C96 1.399 . S
C97 C98 1.372 1_554 S
C98 H90 0.930 1_556 S
C98 C94 1.400 . S
C98 C97 1.372 1_556 S
N99 C92 1.286 1_556 S
N99 C95 1.413 . S
H100 C105 0.930 . S
H101 C108 0.940 . S
H102 C110 0.930 . S
H103 C104 1.016 . S
C104 H103 1.016 . S
C104 N111 1.286 . S
C105 H100 0.930 . S
C105 C106 1.397 . S
C105 C107 1.361 1_655 S
C106 C105 1.397 . S
C106 C110 1.390 . S
C107 C105 1.361 1_455 S
C107 C108 1.393 1_455 S
C107 N111 1.413 . S
C108 H101 0.940 . S
C108 C107 1.393 1_655 S
C108 C109 1.399 . S
C109 C108 1.399 . S
C109 C110 1.381 . S
C110 H102 0.930 . S
C110 C106 1.390 . S
C110 C109 1.381 . S
N111 C104 1.286 . S
N111 C107 1.413 . S
H112 C117 0.930 . S
H113 C120 0.930 . S
H114 C122 0.930 . S
H115 C116 1.016 1_556 S
C116 H115 1.016 1_554 S
C116 N123 1.286 . S
C117 H112 0.930 . S
C117 C118 1.397 . S
C117 C119 1.361 . S
C118 C117 1.397 . S
C118 C122 1.390 . S
C119 C117 1.361 . S
C119 C120 1.393 1_554 S
C119 N123 1.413 . S
C120 H113 0.930 . S
C120 C119 1.393 1_556 S
C120 C121 1.399 . S
C121 C120 1.399 . S
C121 C122 1.381 1_556 S
C122 H114 0.930 . S
C122 C118 1.390 . S
C122 C121 1.381 1_554 S
N123 C116 1.286 . S
N123 C119 1.413 . S
H124 C129 0.930 . S
H125 C132 0.930 . S
H126 C134 0.930 . S
H127 C128 1.016 . S
C128 H127 1.016 . S
C128 N135 1.286 . S
C129 H124 0.930 . S
C129 C130 1.397 . S
C129 C131 1.358 1_455 S
C130 C129 1.397 . S
C130 C134 1.390 . S
C131 C129 1.358 1_655 S
C131 C132 1.391 1_655 S
C131 N135 1.417 . S
C132 H125 0.930 . S
C132 C131 1.391 1_455 S
C132 C133 1.399 . S
C133 C132 1.399 . S
C133 C134 1.381 . S
C134 H126 0.930 . S
C134 C130 1.390 . S
C134 C133 1.381 . S
N135 C128 1.286 . S
N135 C131 1.417 . S
H136 C141 0.930 . S
H137 C144 0.928 1_545 S
H138 C146 0.930 . S
H139 C140 1.016 . S
C140 H139 1.016 . S
C140 N147 1.286 . S
C141 H136 0.930 . S
C141 C142 1.397 . S
C141 C143 1.361 1_565 S
C142 C141 1.397 . S
C142 C146 1.390 . S
C143 C141 1.361 1_545 S
C143 C144 1.393 1_545 S
C143 N147 1.413 . S
C144 H137 0.928 1_565 S
C144 C143 1.393 1_565 S
C144 C145 1.399 . S
C145 C144 1.399 . S
C145 C146 1.381 . S
C146 H138 0.930 . S
C146 C142 1.390 . S
C146 C145 1.381 . S
N147 C140 1.286 . S
N147 C143 1.413 . S
H148 C153 0.930 . S
H149 C156 0.930 . S
H150 C158 0.930 . S
H151 C152 1.016 . S
C152 H151 1.016 . S
C152 N159 1.286 1_554 S
C153 H148 0.930 . S
C153 C154 1.397 . S
C153 C155 1.361 . S
C154 C153 1.397 . S
C154 C158 1.390 1_556 S
C155 C153 1.361 . S
C155 C156 1.393 1_556 S
C155 N159 1.413 . S
C156 H149 0.930 . S
C156 C155 1.393 1_554 S
C156 C157 1.399 . S
C157 C156 1.399 . S
C157 C158 1.381 . S
C158 H150 0.930 . S
C158 C154 1.390 1_554 S
C158 C157 1.381 . S
N159 C152 1.286 1_556 S
N159 C155 1.413 . S
H160 C165 0.930 . S
H161 C168 0.930 1_565 S
H162 C170 0.930 . S
H163 C164 1.016 . S
C164 H163 1.016 . S
C164 N171 1.286 . S
C165 H160 0.930 . S
C165 C166 1.397 . S
C165 C167 1.361 1_545 S
C166 C165 1.397 . S
C166 C170 1.390 . S
C167 C165 1.361 1_565 S
C167 C168 1.393 1_565 S
C167 N171 1.413 . S
C168 H161 0.930 1_545 S
C168 C167 1.393 1_545 S
C168 C169 1.399 . S
C169 C168 1.399 . S
C169 C170 1.381 . S
C170 H162 0.930 . S
C170 C166 1.390 . S
C170 C169 1.381 . S
N171 C164 1.286 . S
N171 C167 1.413 . S
H172 C177 0.930 . S
H173 C180 0.930 . S
H174 C182 0.930 . S
H175 C176 1.016 . S
C176 H175 1.016 . S
C176 N183 1.286 1_556 S
C177 H172 0.930 . S
C177 C178 1.397 . S
C177 C179 1.361 . S
C178 C177 1.397 . S
C178 C182 1.390 . S
C179 C177 1.361 . S
C179 C180 1.393 1_554 S
C179 N183 1.413 . S
C180 H173 0.930 . S
C180 C179 1.393 1_556 S
C180 C181 1.399 . S
C181 C180 1.399 . S
C181 C182 1.381 1_556 S
C182 H174 0.930 . S
C182 C178 1.390 . S
C182 C181 1.381 1_554 S
N183 C176 1.286 1_554 S
N183 C179 1.413 . S
H184 C192 0.950 . S
H185 C197 0.950 . S
H186 C194 0.950 . S
H187 C196 0.950 . S
H188 C198 0.950 . S
H189 C200 0.950 . S
H190 C202 0.950 . S
H191 C203 0.950 . S
C192 H184 0.950 . S
C192 C193 1.386 . S
C192 C194 1.391 . S
C193 C192 1.386 . S
C193 C197 1.393 . S
C194 H186 0.950 . S
C194 C192 1.391 . S
C194 C195 1.400 . S
C195 C194 1.400 . S
C195 C196 1.398 . S
C195 C201 1.491 . S
C196 H187 0.950 . S
C196 C195 1.398 . S
C196 C197 1.391 . S
C197 H185 0.950 . S
C197 C193 1.393 . S
C197 C196 1.391 . S
C198 H188 0.950 . S
C198 C199 1.386 . S
C198 C200 1.391 . S
C199 C198 1.386 . S
C199 C203 1.393 . S
C200 H189 0.950 . S
C200 C198 1.391 . S
C200 C201 1.400 . S
C201 C195 1.491 . S
C201 C200 1.400 . S
C201 C202 1.398 . S
C202 H190 0.950 . S
C202 C201 1.398 . S
C202 C203 1.391 . S
C203 H191 0.950 . S
C203 C199 1.393 . S
C203 C202 1.391 . S
H204 C212 0.950 . S
H205 C217 0.950 . S
H206 C214 0.950 . S
H207 C216 0.950 . S
H208 C218 0.950 . S
H209 C220 0.950 . S
H210 C222 0.950 . S
H211 C223 0.950 . S
C212 H204 0.950 . S
C212 C213 1.386 . S
C212 C214 1.391 . S
C213 C212 1.386 . S
C213 C217 1.393 . S
C214 H206 0.950 . S
C214 C212 1.391 . S
C214 C215 1.400 . S
C215 C214 1.400 . S
C215 C216 1.398 . S
C215 C221 1.491 . S
C216 H207 0.950 . S
C216 C215 1.398 . S
C216 C217 1.391 . S
C217 H205 0.950 . S
C217 C213 1.393 . S
C217 C216 1.391 . S
C218 H208 0.950 . S
C218 C219 1.386 . S
C218 C220 1.391 . S
C219 C218 1.386 . S
C219 C223 1.393 . S
C220 H209 0.950 . S
C220 C218 1.391 . S
C220 C221 1.400 . S
C221 C215 1.491 . S
C221 C220 1.400 . S
C221 C222 1.398 . S
C222 H210 0.950 . S
C222 C221 1.398 . S
C222 C223 1.391 . S
C223 H211 0.950 . S
C223 C219 1.393 . S
C223 C222 1.391 . S
H224 C232 0.950 . S
H225 C237 0.950 . S
H226 C234 0.950 . S
H227 C236 0.950 . S
H228 C238 0.950 . S
H229 C240 0.950 . S
H230 C242 0.950 . S
H231 C243 0.950 . S
C232 H224 0.950 . S
C232 C233 1.386 . S
C232 C234 1.391 . S
C233 C232 1.386 . S
C233 C237 1.393 . S
C234 H226 0.950 . S
C234 C232 1.391 . S
C234 C235 1.400 . S
C235 C234 1.400 . S
C235 C236 1.398 . S
C235 C241 1.491 . S
C236 H227 0.950 . S
C236 C235 1.398 . S
C236 C237 1.391 . S
C237 H225 0.950 . S
C237 C233 1.393 . S
C237 C236 1.391 . S
C238 H228 0.950 . S
C238 C239 1.386 . S
C238 C240 1.391 . S
C239 C238 1.386 . S
C239 C243 1.393 . S
C240 H229 0.950 . S
C240 C238 1.391 . S
C240 C241 1.400 . S
C241 C235 1.491 . S
C241 C240 1.400 . S
C241 C242 1.398 . S
C242 H230 0.950 . S
C242 C241 1.398 . S
C242 C243 1.391 . S
C243 H231 0.950 . S
C243 C239 1.393 . S
C243 C242 1.391 . S
H244 C252 0.950 . S
H245 C257 0.950 . S
H246 C254 0.950 . S
H247 C256 0.950 . S
H248 C258 0.950 . S
H249 C260 0.950 . S
H250 C262 0.950 . S
H251 C263 0.950 . S
C252 H244 0.950 . S
C252 C253 1.386 . S
C252 C254 1.391 . S
C253 C252 1.386 . S
C253 C257 1.393 . S
C254 H246 0.950 . S
C254 C252 1.391 . S
C254 C255 1.400 . S
C255 C254 1.400 . S
C255 C256 1.398 . S
C255 C261 1.491 . S
C256 H247 0.950 . S
C256 C255 1.398 . S
C256 C257 1.391 . S
C257 H245 0.950 . S
C257 C253 1.393 . S
C257 C256 1.391 . S
C258 H248 0.950 . S
C258 C259 1.386 . S
C258 C260 1.391 . S
C259 C258 1.386 . S
C259 C263 1.393 . S
C260 H249 0.950 . S
C260 C258 1.391 . S
C260 C261 1.400 . S
C261 C255 1.491 . S
C261 C260 1.400 . S
C261 C262 1.398 . S
C262 H250 0.950 . S
C262 C261 1.398 . S
C262 C263 1.391 . S
C263 H251 0.950 . S
C263 C259 1.393 . S
C263 C262 1.391 . S
H264 C272 0.950 . S
H265 C277 0.950 . S
H266 C274 0.950 . S
H267 C276 0.950 . S
H268 C278 0.950 . S
H269 C280 0.950 . S
H270 C282 0.950 . S
H271 C283 0.950 . S
C272 H264 0.950 . S
C272 C273 1.386 . S
C272 C274 1.391 . S
C273 C272 1.386 . S
C273 C277 1.393 . S
C274 H266 0.950 . S
C274 C272 1.391 . S
C274 C275 1.400 . S
C275 C274 1.400 . S
C275 C276 1.398 . S
C275 C281 1.491 . S
C276 H267 0.950 . S
C276 C275 1.398 . S
C276 C277 1.391 . S
C277 H265 0.950 . S
C277 C273 1.393 . S
C277 C276 1.391 . S
C278 H268 0.950 . S
C278 C279 1.386 . S
C278 C280 1.391 . S
C279 C278 1.386 . S
C279 C283 1.393 . S
C280 H269 0.950 . S
C280 C278 1.391 . S
C280 C281 1.400 . S
C281 C275 1.491 . S
C281 C280 1.400 . S
C281 C282 1.398 . S
C282 H270 0.950 . S
C282 C281 1.398 . S
C282 C283 1.391 . S
C283 H271 0.950 . S
C283 C279 1.393 . S
C283 C282 1.391 . S
H284 C292 0.950 . S
H285 C297 0.950 . S
H286 C294 0.950 . S
H287 C296 0.950 . S
H288 C298 0.950 . S
H289 C300 0.950 . S
H290 C302 0.950 . S
H291 C303 0.950 . S
C292 H284 0.950 . S
C292 C293 1.386 . S
C292 C294 1.391 . S
C293 C292 1.386 . S
C293 C297 1.393 . S
C294 H286 0.950 . S
C294 C292 1.391 . S
C294 C295 1.400 . S
C295 C294 1.400 . S
C295 C296 1.398 . S
C295 C301 1.491 . S
C296 H287 0.950 . S
C296 C295 1.398 . S
C296 C297 1.391 . S
C297 H285 0.950 . S
C297 C293 1.393 . S
C297 C296 1.391 . S
C298 H288 0.950 . S
C298 C299 1.386 . S
C298 C300 1.391 . S
C299 C298 1.386 . S
C299 C303 1.393 . S
C300 H289 0.950 . S
C300 C298 1.391 . S
C300 C301 1.400 . S
C301 C295 1.491 . S
C301 C300 1.400 . S
C301 C302 1.398 . S
C302 H290 0.950 . S
C302 C301 1.398 . S
C302 C303 1.391 . S
C303 H291 0.950 . S
C303 C299 1.393 . S
C303 C302 1.391 . S
H304 C312 0.950 . S
H305 C317 0.950 . S
H306 C314 0.950 . S
H307 C316 0.950 . S
H308 C318 0.950 . S
H309 C320 0.950 . S
H310 C322 0.950 . S
H311 C323 0.950 . S
C312 H304 0.950 . S
C312 C313 1.386 . S
C312 C314 1.391 . S
C313 C312 1.386 . S
C313 C317 1.393 . S
C314 H306 0.950 . S
C314 C312 1.391 . S
C314 C315 1.400 . S
C315 C314 1.400 . S
C315 C316 1.398 . S
C315 C321 1.491 . S
C316 H307 0.950 . S
C316 C315 1.398 . S
C316 C317 1.391 . S
C317 H305 0.950 . S
C317 C313 1.393 . S
C317 C316 1.391 . S
C318 H308 0.950 . S
C318 C319 1.386 . S
C318 C320 1.391 . S
C319 C318 1.386 . S
C319 C323 1.393 . S
C320 H309 0.950 . S
C320 C318 1.391 . S
C320 C321 1.400 . S
C321 C315 1.491 . S
C321 C320 1.400 . S
C321 C322 1.398 . S
C322 H310 0.950 . S
C322 C321 1.398 . S
C322 C323 1.391 . S
C323 H311 0.950 . S
C323 C319 1.393 . S
C323 C322 1.391 . S
H324 C332 0.950 . S
H325 C337 0.950 . S
H326 C334 0.950 . S
H327 C336 0.950 . S
H328 C338 0.950 . S
H329 C340 0.950 . S
H330 C342 0.950 . S
H331 C343 0.950 . S
C332 H324 0.950 . S
C332 C333 1.386 . S
C332 C334 1.391 . S
C333 C332 1.386 . S
C333 C337 1.393 . S
C334 H326 0.950 . S
C334 C332 1.391 . S
C334 C335 1.400 . S
C335 C334 1.400 . S
C335 C336 1.398 . S
C335 C341 1.491 . S
C336 H327 0.950 . S
C336 C335 1.398 . S
C336 C337 1.391 . S
C337 H325 0.950 . S
C337 C333 1.393 . S
C337 C336 1.391 . S
C338 H328 0.950 . S
C338 C339 1.386 . S
C338 C340 1.391 . S
C339 C338 1.386 . S
C339 C343 1.393 . S
C340 H329 0.950 . S
C340 C338 1.391 . S
C340 C341 1.400 . S
C341 C335 1.491 . S
C341 C340 1.400 . S
C341 C342 1.398 . S
C342 H330 0.950 . S
C342 C341 1.398 . S
C342 C343 1.391 . S
C343 H331 0.950 . S
C343 C339 1.393 . S
C343 C342 1.391 . S
H344 C352 0.950 . S
H345 C357 0.950 . S
H346 C354 0.950 . S
H347 C356 0.950 . S
H348 C358 0.950 . S
H349 C360 0.950 . S
H350 C362 0.950 . S
H351 C363 0.950 . S
C352 H344 0.950 . S
C352 C353 1.386 . S
C352 C354 1.391 . S
C353 C352 1.386 . S
C353 C357 1.393 . S
C354 H346 0.950 . S
C354 C352 1.391 . S
C354 C355 1.400 . S
C355 C354 1.400 . S
C355 C356 1.398 . S
C355 C361 1.491 . S
C356 H347 0.950 . S
C356 C355 1.398 . S
C356 C357 1.391 . S
C357 H345 0.950 . S
C357 C353 1.393 . S
C357 C356 1.391 . S
C358 H348 0.950 . S
C358 C359 1.386 . S
C358 C360 1.391 . S
C359 C358 1.386 . S
C359 C363 1.393 . S
C360 H349 0.950 . S
C360 C358 1.391 . S
C360 C361 1.400 . S
C361 C355 1.491 . S
C361 C360 1.400 . S
C361 C362 1.398 . S
C362 H350 0.950 . S
C362 C361 1.398 . S
C362 C363 1.391 . S
C363 H351 0.950 . S
C363 C359 1.393 . S
C363 C362 1.391 . S
H364 C372 0.950 . S
H365 C377 0.950 . S
H366 C374 0.950 . S
H367 C376 0.950 . S
H368 C378 0.950 . S
H369 C380 0.950 . S
H370 C382 0.950 . S
H371 C383 0.950 . S
C372 H364 0.950 . S
C372 C373 1.386 . S
C372 C374 1.391 . S
C373 C372 1.386 . S
C373 C377 1.393 . S
C374 H366 0.950 . S
C374 C372 1.391 . S
C374 C375 1.400 . S
C375 C374 1.400 . S
C375 C376 1.398 . S
C375 C381 1.491 . S
C376 H367 0.950 . S
C376 C375 1.398 . S
C376 C377 1.391 . S
C377 H365 0.950 . S
C377 C373 1.393 . S
C377 C376 1.391 . S
C378 H368 0.950 . S
C378 C379 1.386 . S
C378 C380 1.391 . S
C379 C378 1.386 . S
C379 C383 1.393 . S
C380 H369 0.950 . S
C380 C378 1.391 . S
C380 C381 1.400 . S
C381 C375 1.491 . S
C381 C380 1.400 . S
C381 C382 1.398 . S
C382 H370 0.950 . S
C382 C381 1.398 . S
C382 C383 1.391 . S
C383 H371 0.950 . S
C383 C379 1.393 . S
C383 C382 1.391 . S
H384 C392 0.950 . S
H385 C397 0.950 . S
H386 C394 0.950 . S
H387 C396 0.950 . S
H388 C398 0.950 . S
H389 C400 0.950 . S
H390 C402 0.950 . S
H391 C403 0.950 . S
C392 H384 0.950 . S
C392 C393 1.386 . S
C392 C394 1.391 . S
C393 C392 1.386 . S
C393 C397 1.393 . S
C394 H386 0.950 . S
C394 C392 1.391 . S
C394 C395 1.400 . S
C395 C394 1.400 . S
C395 C396 1.398 . S
C395 C401 1.491 . S
C396 H387 0.950 . S
C396 C395 1.398 . S
C396 C397 1.391 . S
C397 H385 0.950 . S
C397 C393 1.393 . S
C397 C396 1.391 . S
C398 H388 0.950 . S
C398 C399 1.386 . S
C398 C400 1.391 . S
C399 C398 1.386 . S
C399 C403 1.393 . S
C400 H389 0.950 . S
C400 C398 1.391 . S
C400 C401 1.400 . S
C401 C395 1.491 . S
C401 C400 1.400 . S
C401 C402 1.398 . S
C402 H390 0.950 . S
C402 C401 1.398 . S
C402 C403 1.391 . S
C403 H391 0.950 . S
C403 C399 1.393 . S
C403 C402 1.391 . S
H404 C412 0.950 . S
H405 C417 0.950 . S
H406 C414 0.950 . S
H407 C416 0.950 . S
H408 C418 0.950 . S
H409 C420 0.950 . S
H410 C422 0.950 . S
H411 C423 0.950 . S
C412 H404 0.950 . S
C412 C413 1.386 . S
C412 C414 1.391 . S
C413 C412 1.386 . S
C413 C417 1.393 . S
C414 H406 0.950 . S
C414 C412 1.391 . S
C414 C415 1.400 . S
C415 C414 1.400 . S
C415 C416 1.398 . S
C415 C421 1.491 . S
C416 H407 0.950 . S
C416 C415 1.398 . S
C416 C417 1.391 . S
C417 H405 0.950 . S
C417 C413 1.393 . S
C417 C416 1.391 . S
C418 H408 0.950 . S
C418 C419 1.386 . S
C418 C420 1.391 . S
C419 C418 1.386 . S
C419 C423 1.393 . S
C420 H409 0.950 . S
C420 C418 1.391 . S
C420 C421 1.400 . S
C421 C415 1.491 . S
C421 C420 1.400 . S
C421 C422 1.398 . S
C422 H410 0.950 . S
C422 C421 1.398 . S
C422 C423 1.391 . S
C423 H411 0.950 . S
C423 C419 1.393 . S
C423 C422 1.391 . S
H424 C432 0.950 . S
H425 C437 0.950 . S
H426 C434 0.950 . S
H427 C436 0.950 . S
H428 C438 0.950 . S
H429 C440 0.950 . S
H430 C442 0.950 . S
H431 C443 0.950 . S
C432 H424 0.950 . S
C432 C433 1.386 . S
C432 C434 1.391 . S
C433 C432 1.386 . S
C433 C437 1.393 . S
C434 H426 0.950 . S
C434 C432 1.391 . S
C434 C435 1.400 . S
C435 C434 1.400 . S
C435 C436 1.398 . S
C435 C441 1.491 . S
C436 H427 0.950 . S
C436 C435 1.398 . S
C436 C437 1.391 . S
C437 H425 0.950 . S
C437 C433 1.393 . S
C437 C436 1.391 . S
C438 H428 0.950 . S
C438 C439 1.386 . S
C438 C440 1.391 . S
C439 C438 1.386 . S
C439 C443 1.393 . S
C440 H429 0.950 . S
C440 C438 1.391 . S
C440 C441 1.400 . S
C441 C435 1.491 . S
C441 C440 1.400 . S
C441 C442 1.398 . S
C442 H430 0.950 . S
C442 C441 1.398 . S
C442 C443 1.391 . S
C443 H431 0.950 . S
C443 C439 1.393 . S
C443 C442 1.391 . S
H444 C452 0.950 . S
H445 C457 0.950 . S
H446 C454 0.950 . S
H447 C456 0.950 . S
H448 C458 0.950 . S
H449 C460 0.950 . S
H450 C462 0.950 . S
H451 C463 0.950 . S
C452 H444 0.950 . S
C452 C453 1.386 . S
C452 C454 1.391 . S
C453 C452 1.386 . S
C453 C457 1.393 . S
C454 H446 0.950 . S
C454 C452 1.391 . S
C454 C455 1.400 . S
C455 C454 1.400 . S
C455 C456 1.398 . S
C455 C461 1.491 . S
C456 H447 0.950 . S
C456 C455 1.398 . S
C456 C457 1.391 . S
C457 H445 0.950 . S
C457 C453 1.393 . S
C457 C456 1.391 . S
C458 H448 0.950 . S
C458 C459 1.386 . S
C458 C460 1.391 . S
C459 C458 1.386 . S
C459 C463 1.393 . S
C460 H449 0.950 . S
C460 C458 1.391 . S
C460 C461 1.400 . S
C461 C455 1.491 . S
C461 C460 1.400 . S
C461 C462 1.398 . S
C462 H450 0.950 . S
C462 C461 1.398 . S
C462 C463 1.391 . S
C463 H451 0.950 . S
C463 C459 1.393 . S
C463 C462 1.391 . S
H464 C472 0.950 . S
H465 C477 0.950 . S
H466 C474 0.950 . S
H467 C476 0.950 . S
H468 C478 0.950 . S
H469 C480 0.950 . S
H470 C482 0.950 . S
H471 C483 0.950 . S
C472 H464 0.950 . S
C472 C473 1.386 . S
C472 C474 1.391 . S
C473 C472 1.386 . S
C473 C477 1.393 . S
C474 H466 0.950 . S
C474 C472 1.391 . S
C474 C475 1.400 . S
C475 C474 1.400 . S
C475 C476 1.398 . S
C475 C481 1.491 . S
C476 H467 0.950 . S
C476 C475 1.398 . S
C476 C477 1.391 . S
C477 H465 0.950 . S
C477 C473 1.393 . S
C477 C476 1.391 . S
C478 H468 0.950 . S
C478 C479 1.386 . S
C478 C480 1.391 . S
C479 C478 1.386 . S
C479 C483 1.393 . S
C480 H469 0.950 . S
C480 C478 1.391 . S
C480 C481 1.400 . S
C481 C475 1.491 . S
C481 C480 1.400 . S
C481 C482 1.398 . S
C482 H470 0.950 . S
C482 C481 1.398 . S
C482 C483 1.391 . S
C483 H471 0.950 . S
C483 C479 1.393 . S
C483 C482 1.391 . S
H484 C492 0.950 . S
H485 C497 0.950 . S
H486 C494 0.950 . S
H487 C496 0.950 . S
H488 C498 0.950 . S
H489 C500 0.950 . S
H490 C502 0.950 . S
H491 C503 0.950 . S
C492 H484 0.950 . S
C492 C493 1.386 . S
C492 C494 1.391 . S
C493 C492 1.386 . S
C493 C497 1.393 . S
C494 H486 0.950 . S
C494 C492 1.391 . S
C494 C495 1.400 . S
C495 C494 1.400 . S
C495 C496 1.398 . S
C495 C501 1.491 . S
C496 H487 0.950 . S
C496 C495 1.398 . S
C496 C497 1.391 . S
C497 H485 0.950 . S
C497 C493 1.393 . S
C497 C496 1.391 . S
C498 H488 0.950 . S
C498 C499 1.386 . S
C498 C500 1.391 . S
C499 C498 1.386 . S
C499 C503 1.393 . S
C500 H489 0.950 . S
C500 C498 1.391 . S
C500 C501 1.400 . S
C501 C495 1.491 . S
C501 C500 1.400 . S
C501 C502 1.398 . S
C502 H490 0.950 . S
C502 C501 1.398 . S
C502 C503 1.391 . S
C503 H491 0.950 . S
C503 C499 1.393 . S
C503 C502 1.391 . S
H504 C512 0.950 . S
H505 C517 0.950 . S
H506 C514 0.950 . S
H507 C516 0.950 . S
H508 C518 0.950 . S
H509 C520 0.950 . S
H510 C522 0.950 . S
H511 C523 0.950 . S
C512 H504 0.950 . S
C512 C513 1.386 . S
C512 C514 1.391 . S
C513 C512 1.386 . S
C513 C517 1.393 1_554 S
C514 H506 0.950 . S
C514 C512 1.391 . S
C514 C515 1.400 . S
C515 C514 1.400 . S
C515 C516 1.398 1_554 S
C515 C521 1.491 . S
C516 H507 0.950 . S
C516 C515 1.398 1_556 S
C516 C517 1.391 . S
C517 H505 0.950 . S
C517 C513 1.393 1_556 S
C517 C516 1.391 . S
C518 H508 0.950 . S
C518 C519 1.386 1_556 S
C518 C520 1.391 . S
C519 C518 1.386 1_554 S
C519 C523 1.393 . S
C520 H509 0.950 . S
C520 C518 1.391 . S
C520 C521 1.400 1_556 S
C521 C515 1.491 . S
C521 C520 1.400 1_554 S
C521 C522 1.398 . S
C522 H510 0.950 . S
C522 C521 1.398 . S
C522 C523 1.391 . S
C523 H511 0.950 . S
C523 C519 1.393 . S
C523 C522 1.391 . S
H524 C532 0.950 . S
H525 C537 0.950 . S
H526 C534 0.950 . S
H527 C536 0.950 . S
H528 C538 0.950 . S
H529 C540 0.950 . S
H530 C542 0.950 . S
H531 C543 0.950 . S
C532 H524 0.950 . S
C532 C533 1.386 . S
C532 C534 1.391 . S
C533 C532 1.386 . S
C533 C537 1.393 . S
C534 H526 0.950 . S
C534 C532 1.391 . S
C534 C535 1.400 . S
C535 C534 1.400 . S
C535 C536 1.398 . S
C535 C541 1.491 . S
C536 H527 0.950 . S
C536 C535 1.398 . S
C536 C537 1.391 . S
C537 H525 0.950 . S
C537 C533 1.393 . S
C537 C536 1.391 . S
C538 H528 0.950 . S
C538 C539 1.386 . S
C538 C540 1.391 . S
C539 C538 1.386 . S
C539 C543 1.393 . S
C540 H529 0.950 . S
C540 C538 1.391 . S
C540 C541 1.400 . S
C541 C535 1.491 . S
C541 C540 1.400 . S
C541 C542 1.398 . S
C542 H530 0.950 . S
C542 C541 1.398 . S
C542 C543 1.391 . S
C543 H531 0.950 . S
C543 C539 1.393 . S
C543 C542 1.391 . S
H544 C552 0.950 . S
H545 C557 0.950 . S
H546 C554 0.950 . S
H547 C556 0.950 . S
H548 C558 0.950 . S
H549 C560 0.950 . S
H550 C562 0.950 . S
H551 C563 0.950 . S
C552 H544 0.950 . S
C552 C553 1.386 1_556 S
C552 C554 1.391 . S
C553 C552 1.386 1_554 S
C553 C557 1.393 . S
C554 H546 0.950 . S
C554 C552 1.391 . S
C554 C555 1.400 1_556 S
C555 C554 1.400 1_554 S
C555 C556 1.398 . S
C555 C561 1.491 . S
C556 H547 0.950 . S
C556 C555 1.398 . S
C556 C557 1.391 . S
C557 H545 0.950 . S
C557 C553 1.393 . S
C557 C556 1.391 . S
C558 H548 0.950 . S
C558 C559 1.386 . S
C558 C560 1.391 . S
C559 C558 1.386 . S
C559 C563 1.393 1_554 S
C560 H549 0.950 . S
C560 C558 1.391 . S
C560 C561 1.400 . S
C561 C555 1.491 . S
C561 C560 1.400 . S
C561 C562 1.398 1_554 S
C562 H550 0.950 . S
C562 C561 1.398 1_556 S
C562 C563 1.391 . S
C563 H551 0.950 . S
C563 C559 1.393 1_556 S
C563 C562 1.391 . S
H564 C572 0.950 . S
H565 C577 0.950 . S
H566 C574 0.950 . S
H567 C576 0.950 . S
H568 C578 0.950 . S
H569 C580 0.950 . S
H570 C582 0.950 . S
H571 C583 0.950 . S
C572 H564 0.950 . S
C572 C573 1.386 . S
C572 C574 1.391 . S
C573 C572 1.386 . S
C573 C577 1.393 . S
C574 H566 0.950 . S
C574 C572 1.391 . S
C574 C575 1.400 . S
C575 C574 1.400 . S
C575 C576 1.398 . S
C575 C581 1.491 . S
C576 H567 0.950 . S
C576 C575 1.398 . S
C576 C577 1.391 . S
C577 H565 0.950 . S
C577 C573 1.393 . S
C577 C576 1.391 . S
C578 H568 0.950 . S
C578 C579 1.386 . S
C578 C580 1.391 . S
C579 C578 1.386 . S
C579 C583 1.393 . S
C580 H569 0.950 . S
C580 C578 1.391 . S
C580 C581 1.400 . S
C581 C575 1.491 . S
C581 C580 1.400 . S
C581 C582 1.398 . S
C582 H570 0.950 . S
C582 C581 1.398 . S
C582 C583 1.391 . S
C583 H571 0.950 . S
C583 C579 1.393 . S
C583 C582 1.391 . S
H584 C592 0.950 . S
H585 C597 0.950 . S
H586 C594 0.950 . S
H587 C596 0.950 . S
H588 C598 0.950 . S
H589 C600 0.950 . S
H590 C602 0.950 . S
H591 C603 0.950 . S
C592 H584 0.950 . S
C592 C593 1.386 . S
C592 C594 1.391 . S
C593 C592 1.386 . S
C593 C597 1.393 . S
C594 H586 0.950 . S
C594 C592 1.391 . S
C594 C595 1.400 . S
C595 C594 1.400 . S
C595 C596 1.398 . S
C595 C601 1.491 . S
C596 H587 0.950 . S
C596 C595 1.398 . S
C596 C597 1.391 . S
C597 H585 0.950 . S
C597 C593 1.393 . S
C597 C596 1.391 . S
C598 H588 0.950 . S
C598 C599 1.386 . S
C598 C600 1.391 . S
C599 C598 1.386 . S
C599 C603 1.393 . S
C600 H589 0.950 . S
C600 C598 1.391 . S
C600 C601 1.400 . S
C601 C595 1.491 . S
C601 C600 1.400 . S
C601 C602 1.398 . S
C602 H590 0.950 . S
C602 C601 1.398 . S
C602 C603 1.391 . S
C603 H591 0.950 . S
C603 C599 1.393 . S
C603 C602 1.391 . S
H604 C612 0.950 . S
H605 C617 0.950 . S
H606 C614 0.950 . S
H607 C616 0.950 . S
H608 C618 0.950 . S
H609 C620 0.950 . S
H610 C622 0.950 . S
H611 C623 0.950 . S
C612 H604 0.950 . S
C612 C613 1.386 . S
C612 C614 1.391 . S
C613 C612 1.386 . S
C613 C617 1.393 1_554 S
C614 H606 0.950 . S
C614 C612 1.391 . S
C614 C615 1.400 . S
C615 C614 1.400 . S
C615 C616 1.398 1_554 S
C615 C621 1.491 . S
C616 H607 0.950 . S
C616 C615 1.398 1_556 S
C616 C617 1.391 . S
C617 H605 0.950 . S
C617 C613 1.393 1_556 S
C617 C616 1.391 . S
C618 H608 0.950 . S
C618 C619 1.386 1_556 S
C618 C620 1.391 . S
C619 C618 1.386 1_554 S
C619 C623 1.393 . S
C620 H609 0.950 . S
C620 C618 1.391 . S
C620 C621 1.400 1_556 S
C621 C615 1.491 . S
C621 C620 1.400 1_554 S
C621 C622 1.398 . S
C622 H610 0.950 . S
C622 C621 1.398 . S
C622 C623 1.391 . S
C623 H611 0.950 . S
C623 C619 1.393 . S
C623 C622 1.391 . S
H624 C632 0.950 . S
H625 C637 0.950 . S
H626 C634 0.950 . S
H627 C636 0.950 . S
H628 C638 0.950 . S
H629 C640 0.950 . S
H630 C642 0.950 . S
H631 C643 0.950 . S
C632 H624 0.950 . S
C632 C633 1.386 . S
C632 C634 1.391 . S
C633 C632 1.386 . S
C633 C637 1.393 . S
C634 H626 0.950 . S
C634 C632 1.391 . S
C634 C635 1.400 . S
C635 C634 1.400 . S
C635 C636 1.398 . S
C635 C641 1.491 . S
C636 H627 0.950 . S
C636 C635 1.398 . S
C636 C637 1.391 . S
C637 H625 0.950 . S
C637 C633 1.393 . S
C637 C636 1.391 . S
C638 H628 0.950 . S
C638 C639 1.386 . S
C638 C640 1.391 . S
C639 C638 1.386 . S
C639 C643 1.393 . S
C640 H629 0.950 . S
C640 C638 1.391 . S
C640 C641 1.400 . S
C641 C635 1.491 . S
C641 C640 1.400 . S
C641 C642 1.398 . S
C642 H630 0.950 . S
C642 C641 1.398 . S
C642 C643 1.391 . S
C643 H631 0.950 . S
C643 C639 1.393 . S
C643 C642 1.391 . S
H644 C652 0.950 . S
H645 C657 0.950 . S
H646 C654 0.950 . S
H647 C656 0.950 . S
H648 C658 0.950 . S
H649 C660 0.950 . S
H650 C662 0.950 . S
H651 C663 0.950 . S
C652 H644 0.950 . S
C652 C653 1.386 . S
C652 C654 1.391 . S
C653 C652 1.386 . S
C653 C657 1.393 1_554 S
C654 H646 0.950 . S
C654 C652 1.391 . S
C654 C655 1.400 . S
C655 C654 1.400 . S
C655 C656 1.398 1_554 S
C655 C661 1.491 . S
C656 H647 0.950 . S
C656 C655 1.398 1_556 S
C656 C657 1.391 . S
C657 H645 0.950 . S
C657 C653 1.393 1_556 S
C657 C656 1.391 . S
C658 H648 0.950 . S
C658 C659 1.386 1_556 S
C658 C660 1.391 . S
C659 C658 1.386 1_554 S
C659 C663 1.393 . S
C660 H649 0.950 . S
C660 C658 1.391 . S
C660 C661 1.400 1_556 S
C661 C655 1.491 . S
C661 C660 1.400 1_554 S
C661 C662 1.398 . S
C662 H650 0.950 . S
C662 C661 1.398 . S
C662 C663 1.391 . S
C663 H651 0.950 . S
C663 C659 1.393 . S
C663 C662 1.391 . S
C193 C21 1.481 . S
C199 C130 1.495 . S
C213 C40 1.489 . S
C219 C94 1.489 . S
C239 C109 1.440 . S
C233 C54 1.471 . S
C253 C73 1.527 . S
C259 C121 1.499 . S
C279 C157 1.442 . S
C273 C74 1.465 . S
C299 C169 1.469 . S
C293 C10 1.509 . S
C319 C178 1.496 . S
C313 C37 1.500 . S
C339 C142 1.515 . S
C333 C65 1.502 . S
C353 C52 1.444 . S
C359 C106 1.437 . S
C373 C87 1.508 . S
C379 C118 1.514 . S
C393 C15 1.509 . S
C399 C133 1.508 . S
C419 C97 1.476 . S
C413 C32 1.496 . S
C433 C29 1.504 . S
C439 C181 1.503 . S
C459 C145 1.523 . S
C453 C59 1.524 . S
C479 C154 1.451 . S
C473 C84 1.448 . S
C493 C8 1.477 . S
C499 C166 1.470 . S
C519 C92 1.524 . S
C513 C7 1.525 . S
C539 C104 1.485 . S
C533 C30 1.487 . S
C553 C62 1.532 . S
C559 C116 1.521 . S
C573 C81 1.499 . S
C579 C128 1.513 . S
C599 C140 1.523 . S
C593 C76 1.530 . S
C613 C18 1.488 . S
C619 C152 1.484 . S
C633 C43 1.532 . S
C639 C164 1.525 . S
C653 C51 1.509 . S
C659 C176 1.509 1_554 S
