# Generated by pormake.
# Topology pyr, (3,6)-cn, num edge types: 1
# Building blocks:
#     Node 0, Type 0, BuildingBlock: KAKCAD_clean_linker_0, # of connection points: 3
#     Node 1, Type 0, BuildingBlock: KAKCAD_clean_linker_0, # of connection points: 3
#     Node 2, Type 0, BuildingBlock: KAKCAD_clean_linker_0, # of connection points: 3
#     Node 3, Type 0, BuildingBlock: KAKCAD_clean_linker_0, # of connection points: 3
#     Node 4, Type 0, BuildingBlock: KAKCAD_clean_linker_0, # of connection points: 3
#     Node 5, Type 0, BuildingBlock: KAKCAD_clean_linker_0, # of connection points: 3
#     Node 6, Type 0, BuildingBlock: KAKCAD_clean_linker_0, # of connection points: 3
#     Node 7, Type 0, BuildingBlock: KAKCAD_clean_linker_0, # of connection points: 3
#     Node 8, Type 1, BuildingBlock: VOLQOD_clean_sbu_1, # of connection points: 6
#     Node 9, Type 1, BuildingBlock: VOLQOD_clean_sbu_1, # of connection points: 6
#     Node 10, Type 1, BuildingBlock: VOLQOD_clean_sbu_1, # of connection points: 6
#     Node 11, Type 1, BuildingBlock: VOLQOD_clean_sbu_1, # of connection points: 6
#     Edge 12, Type (0, 1), BuildingBlock: OJICUG_clean_linker_0, # of connection points: 2
#     Edge 13, Type (0, 1), BuildingBlock: OJICUG_clean_linker_0, # of connection points: 2
#     Edge 14, Type (0, 1), BuildingBlock: OJICUG_clean_linker_0, # of connection points: 2
#     Edge 15, Type (0, 1), BuildingBlock: OJICUG_clean_linker_0, # of connection points: 2
#     Edge 16, Type (0, 1), BuildingBlock: OJICUG_clean_linker_0, # of connection points: 2
#     Edge 17, Type (0, 1), BuildingBlock: OJICUG_clean_linker_0, # of connection points: 2
#     Edge 18, Type (0, 1), BuildingBlock: OJICUG_clean_linker_0, # of connection points: 2
#     Edge 19, Type (0, 1), BuildingBlock: OJICUG_clean_linker_0, # of connection points: 2
#     Edge 20, Type (0, 1), BuildingBlock: OJICUG_clean_linker_0, # of connection points: 2
#     Edge 21, Type (0, 1), BuildingBlock: OJICUG_clean_linker_0, # of connection points: 2
#     Edge 22, Type (0, 1), BuildingBlock: OJICUG_clean_linker_0, # of connection points: 2
#     Edge 23, Type (0, 1), BuildingBlock: OJICUG_clean_linker_0, # of connection points: 2
#     Edge 24, Type (0, 1), BuildingBlock: OJICUG_clean_linker_0, # of connection points: 2
#     Edge 25, Type (0, 1), BuildingBlock: OJICUG_clean_linker_0, # of connection points: 2
#     Edge 26, Type (0, 1), BuildingBlock: OJICUG_clean_linker_0, # of connection points: 2
#     Edge 27, Type (0, 1), BuildingBlock: OJICUG_clean_linker_0, # of connection points: 2
#     Edge 28, Type (0, 1), BuildingBlock: OJICUG_clean_linker_0, # of connection points: 2
#     Edge 29, Type (0, 1), BuildingBlock: OJICUG_clean_linker_0, # of connection points: 2
#     Edge 30, Type (0, 1), BuildingBlock: OJICUG_clean_linker_0, # of connection points: 2
#     Edge 31, Type (0, 1), BuildingBlock: OJICUG_clean_linker_0, # of connection points: 2
#     Edge 32, Type (0, 1), BuildingBlock: OJICUG_clean_linker_0, # of connection points: 2
#     Edge 33, Type (0, 1), BuildingBlock: OJICUG_clean_linker_0, # of connection points: 2
#     Edge 34, Type (0, 1), BuildingBlock: OJICUG_clean_linker_0, # of connection points: 2
#     Edge 35, Type (0, 1), BuildingBlock: OJICUG_clean_linker_0, # of connection points: 2
# Relax obj value: 0.035
# Max RMSD: 0.119
# Mean RMSD: 0.043
data_MOF--net-pry--node1-VOLQOD_clean_sbu_1--node2-KAKCAD_clean_linker_0--edge1-OJICUG_clean_linker_0
_symmetry_space_group_name_H-M    P1
_symmetry_Int_Tables_number       1
_symmetry_cell_setting            triclinic
loop_
_symmetry_equiv_pos_as_xyz
'x, y, z'
_cell_length_a     35.938262
_cell_length_b     35.887112
_cell_length_c     36.040573
_cell_angle_alpha  90.383281
_cell_angle_beta   89.870286
_cell_angle_gamma 90.238819
loop_
_atom_site_label
_atom_site_type_symbol
_atom_site_fract_x
_atom_site_fract_y
_atom_site_fract_z
_atom_type_partial_charge
C0 C 0.04397 0.08985 0.23894 0.0
C1 C 0.06879 0.07966 0.26719 0.0
C2 C 0.05735 0.10005 0.20394 0.0
C3 C 0.09578 0.10014 0.19652 0.0
C4 C 0.12045 0.08945 0.22469 0.0
C5 C 0.10712 0.0792 0.25949 0.0
C6 C 0.11059 0.11267 0.16016 0.0
C7 C 0.09616 0.14449 0.14296 0.0
C8 C 0.11291 0.1589 0.1108 0.0
C9 C 0.14411 0.14086 0.09561 0.0
C10 C 0.15887 0.10907 0.11248 0.0
C11 C 0.14146 0.09476 0.14425 0.0
C12 C 0.19434 0.09278 0.09906 0.0
C13 C 0.20144 0.08816 0.06094 0.0
C14 C 0.22211 0.08318 0.12462 0.0
C15 C 0.25628 0.06952 0.11242 0.0
C16 C 0.26359 0.06511 0.07433 0.0
C17 C 0.09984 0.19461 0.0951 0.0
C18 C 0.06165 0.20181 0.09112 0.0
C19 C 0.12564 0.22241 0.08539 0.0
C20 C 0.11357 0.25679 0.07234 0.0
C21 C 0.07539 0.2642 0.06859 0.0
C22 C 0.04954 0.23624 0.07792 0.0
C23 C 0.23574 0.07442 0.04869 0.0
H24 H 0.01429 0.0907 0.2441 0.0
H25 H 0.03764 0.10793 0.18273 0.0
H26 H 0.15025 0.08977 0.22017 0.0
H27 H 0.12695 0.07097 0.28045 0.0
H28 H 0.07327 0.15936 0.15581 0.0
H29 H 0.15248 0.06991 0.15706 0.0
H30 H 0.15772 0.15239 0.07137 0.0
H31 H 0.18046 0.09509 0.04062 0.0
H32 H 0.21783 0.0872 0.15414 0.0
H33 H 0.27738 0.06338 0.13287 0.0
H34 H 0.04116 0.18077 0.09815 0.0
H35 H 0.15523 0.218 0.08887 0.0
H36 H 0.24041 0.07097 0.01917 0.0
H37 H 0.01995 0.24091 0.07493 0.0
H38 H 0.13421 0.27793 0.06614 0.0
C39 C 0.39915 0.9471 0.75889 0.0
C40 C 0.4377 0.94863 0.76496 0.0
C41 C 0.38509 0.93497 0.72484 0.0
C42 C 0.40928 0.92433 0.69597 0.0
C43 C 0.4479 0.92667 0.70179 0.0
C44 C 0.46198 0.93859 0.736 0.0
C45 C 0.39408 0.90913 0.66069 0.0
C46 C 0.36163 0.92413 0.64525 0.0
C47 C 0.345 0.90766 0.61398 0.0
C48 C 0.36178 0.87651 0.59734 0.0
C49 C 0.39423 0.86101 0.61242 0.0
C50 C 0.4103 0.87767 0.64394 0.0
C51 C 0.40944 0.82555 0.59745 0.0
C52 C 0.38526 0.79628 0.58762 0.0
C53 C 0.44807 0.81995 0.59461 0.0
C54 C 0.46216 0.78567 0.58253 0.0
C55 C 0.43787 0.75639 0.57293 0.0
C56 C 0.30836 0.92092 0.60084 0.0
C57 C 0.27959 0.92743 0.6265 0.0
C58 C 0.30131 0.92563 0.56282 0.0
C59 C 0.26602 0.93645 0.55073 0.0
C60 C 0.23711 0.94224 0.57642 0.0
C61 C 0.24433 0.93786 0.61441 0.0
C62 C 0.3993 0.76215 0.57548 0.0
H63 H 0.37978 0.95409 0.7809 0.0
H64 H 0.35521 0.9328 0.72161 0.0
H65 H 0.46726 0.91911 0.67996 0.0
H66 H 0.49184 0.93988 0.73984 0.0
H67 H 0.34893 0.94847 0.65786 0.0
H68 H 0.43426 0.86482 0.65673 0.0
H69 H 0.34877 0.86347 0.57343 0.0
H70 H 0.3554 0.79932 0.59031 0.0
H71 H 0.4674 0.84209 0.60173 0.0
H72 H 0.49201 0.78213 0.5805 0.0
H73 H 0.28409 0.92358 0.65593 0.0
H74 H 0.32305 0.92088 0.54249 0.0
H75 H 0.37986 0.73991 0.56897 0.0
H76 H 0.22265 0.94251 0.63484 0.0
H77 H 0.26112 0.93949 0.52126 0.0
C78 C 0.73876 0.46721 0.93404 0.0
C79 C 0.76657 0.44237 0.94545 0.0
C80 C 0.70428 0.4538 0.9218 0.0
C81 C 0.69698 0.41529 0.92065 0.0
C82 C 0.7249 0.39053 0.93198 0.0
C83 C 0.75923 0.40392 0.94431 0.0
C84 C 0.66059 0.40074 0.90735 0.0
C85 C 0.64367 0.41571 0.87571 0.0
C86 C 0.60996 0.40096 0.86194 0.0
C87 C 0.59353 0.37057 0.88052 0.0
C88 C 0.61096 0.35434 0.91124 0.0
C89 C 0.64383 0.37032 0.92505 0.0
C90 C 0.5971 0.3186 0.9267 0.0
C91 C 0.55888 0.31194 0.93203 0.0
C92 C 0.62245 0.29004 0.93461 0.0
C93 C 0.61001 0.25562 0.94739 0.0
C94 C 0.57185 0.24877 0.95259 0.0
C95 C 0.59368 0.4154 0.82668 0.0
C96 C 0.59874 0.4528 0.8161 0.0
C97 C 0.57429 0.39144 0.80236 0.0
C98 C 0.56089 0.40426 0.76849 0.0
C99 C 0.56763 0.4411 0.75702 0.0
C100 C 0.58642 0.46531 0.78158 0.0
C101 C 0.54637 0.27733 0.94487 0.0
H102 H 0.74353 0.49702 0.9349 0.0
H103 H 0.68321 0.47358 0.91359 0.0
H104 H 0.72051 0.36067 0.93068 0.0
H105 H 0.78035 0.38406 0.95221 0.0
H106 H 0.65789 0.43772 0.86088 0.0
H107 H 0.6567 0.35859 0.94948 0.0
H108 H 0.56783 0.35849 0.8704 0.0
H109 H 0.5387 0.33349 0.92637 0.0
H110 H 0.652 0.29391 0.92995 0.0
H111 H 0.63033 0.23399 0.95225 0.0
H112 H 0.61268 0.47253 0.83423 0.0
H113 H 0.57015 0.36231 0.80874 0.0
H114 H 0.5168 0.27298 0.9489 0.0
H115 H 0.59257 0.4938 0.77398 0.0
H116 H 0.54556 0.38485 0.75118 0.0
C117 C 0.91146 0.55596 0.26659 0.0
C118 C 0.94932 0.55939 0.25741 0.0
C119 C 0.89832 0.5683 0.30096 0.0
C120 C 0.92272 0.58431 0.32709 0.0
C121 C 0.96084 0.58654 0.31846 0.0
C122 C 0.974 0.57422 0.28396 0.0
C123 C 0.90763 0.60142 0.36162 0.0
C124 C 0.87786 0.58449 0.38055 0.0
C125 C 0.8586 0.60353 0.40891 0.0
C126 C 0.8711 0.63922 0.41951 0.0
C127 C 0.9019 0.65579 0.40211 0.0
C128 C 0.92004 0.63677 0.37323 0.0
C129 C 0.91339 0.69415 0.41236 0.0
C130 C 0.88668 0.72245 0.41558 0.0
C131 C 0.95099 0.70275 0.41886 0.0
C132 C 0.96159 0.73894 0.42893 0.0
C133 C 0.93483 0.76723 0.43217 0.0
C134 C 0.82343 0.58799 0.42481 0.0
C135 C 0.79945 0.56627 0.40262 0.0
C136 C 0.81204 0.59692 0.46122 0.0
C137 C 0.77678 0.58655 0.47412 0.0
C138 C 0.75231 0.5661 0.45129 0.0
C139 C 0.76478 0.55497 0.41589 0.0
C140 C 0.8973 0.75864 0.42527 0.0
H141 H 0.89162 0.54522 0.24659 0.0
H142 H 0.86869 0.56682 0.30634 0.0
H143 H 0.9804 0.59835 0.33815 0.0
H144 H 0.00343 0.57675 0.27789 0.0
H145 H 0.86919 0.55671 0.37235 0.0
H146 H 0.94236 0.65058 0.35834 0.0
H147 H 0.85628 0.65488 0.44059 0.0
H148 H 0.85755 0.71666 0.41029 0.0
H149 H 0.97208 0.68137 0.41661 0.0
H150 H 0.99075 0.7449 0.43385 0.0
H151 H 0.8066 0.55901 0.37431 0.0
H152 H 0.82998 0.61272 0.47965 0.0
H153 H 0.87606 0.77983 0.42787 0.0
H154 H 0.74743 0.53812 0.39783 0.0
H155 H 0.76838 0.59574 0.50153 0.0
C156 C 0.95656 0.92308 0.77429 0.0
C157 C 0.94475 0.9581 0.76178 0.0
C158 C 0.94987 0.91198 0.81065 0.0
C159 C 0.93221 0.936 0.83614 0.0
C160 C 0.92228 0.9719 0.82424 0.0
C161 C 0.92813 0.98269 0.78743 0.0
C162 C 0.92149 0.92216 0.87366 0.0
C163 C 0.94265 0.89446 0.89107 0.0
C164 C 0.92875 0.87514 0.92193 0.0
C165 C 0.89497 0.88657 0.93791 0.0
C166 C 0.87422 0.91548 0.92212 0.0
C167 C 0.88752 0.93287 0.88988 0.0
C168 C 0.83669 0.92475 0.93664 0.0
C169 C 0.81167 0.89624 0.94641 0.0
C170 C 0.8249 0.96199 0.93888 0.0
C171 C 0.78858 0.97048 0.94986 0.0
C172 C 0.7633 0.94188 0.95873 0.0
C173 C 0.94615 0.83955 0.9335 0.0
C174 C 0.95889 0.81436 0.90627 0.0
C175 C 0.94654 0.82857 0.9709 0.0
C176 C 0.95761 0.79257 0.98056 0.0
C177 C 0.96845 0.76691 0.95298 0.0
C178 C 0.97004 0.7786 0.91592 0.0
C179 C 0.77541 0.90472 0.95739 0.0
H180 H 0.97049 0.90371 0.75583 0.0
H181 H 0.95744 0.88386 0.81812 0.0
H182 H 0.90925 0.9915 0.84311 0.0
H183 H 0.91855 0.00987 0.77894 0.0
H184 H 0.9693 0.88643 0.87952 0.0
H185 H 0.86999 0.95294 0.87609 0.0
H186 H 0.8838 0.87173 0.96155 0.0
H187 H 0.8197 0.86723 0.9445 0.0
H188 H 0.84365 0.98454 0.93172 0.0
H189 H 0.78 -0.00063 0.95035 0.0
H190 H 0.95852 0.82149 0.87713 0.0
H191 H 0.93726 0.84742 0.99258 0.0
H192 H 0.75673 0.88209 0.9645 0.0
H193 H 0.97891 0.75969 0.89411 0.0
H194 H 0.95608 0.78434 0.00938 0.0
C195 C 0.56683 0.02971 0.29278 0.0
C196 C 0.562 0.0554 0.26394 0.0
C197 C 0.57387 0.04225 0.32897 0.0
C198 C 0.57554 0.08062 0.33687 0.0
C199 C 0.56984 0.10615 0.30808 0.0
C200 C 0.56321 0.09368 0.27204 0.0
C201 C 0.58536 0.09461 0.37435 0.0
C202 C 0.61689 0.08095 0.39258 0.0
C203 C 0.63027 0.09847 0.42495 0.0
C204 C 0.61107 0.12942 0.4394 0.0
C205 C 0.57969 0.1436 0.42124 0.0
C206 C 0.56643 0.1253 0.38938 0.0
C207 C 0.56442 0.18047 0.43216 0.0
C208 C 0.56101 0.1909 0.46969 0.0
C209 C 0.55632 0.20682 0.40467 0.0
C210 C 0.54635 0.24306 0.41439 0.0
C211 C 0.54451 0.25398 0.45181 0.0
C212 C 0.66683 0.08756 0.44061 0.0
C213 C 0.6774 0.04992 0.44214 0.0
C214 C 0.69255 0.1151 0.4517 0.0
C215 C 0.7282 0.10533 0.46321 0.0
C216 C 0.73912 0.06784 0.46357 0.0
C217 C 0.71325 0.04017 0.45338 0.0
C218 C 0.5511 0.22733 0.47943 0.0
H219 H 0.56611 3e-05 0.28715 0.0
H220 H 0.5782 0.02204 0.35072 0.0
H221 H 0.57154 0.13589 0.3132 0.0
H222 H 0.55919 0.11406 0.25038 0.0
H223 H 0.63264 0.05851 0.37991 0.0
H224 H 0.5422 0.13601 0.37518 0.0
H225 H 0.62186 0.1438 0.46364 0.0
H226 H 0.56681 0.17114 0.49149 0.0
H227 H 0.55919 0.20001 0.37549 0.0
H228 H 0.54084 0.2628 0.39248 0.0
H229 H 0.65812 0.02803 0.43416 0.0
H230 H 0.68576 0.14441 0.45007 0.0
H231 H 0.55 0.23497 0.50853 0.0
H232 H 0.72086 0.011 0.45379 0.0
H233 H 0.74773 0.12729 0.47035 0.0
C234 C 0.27458 0.56695 0.098 0.0
C235 C 0.26606 0.56551 0.06006 0.0
C236 C 0.31084 0.57385 0.10971 0.0
C237 C 0.33949 0.57952 0.08374 0.0
C238 C 0.33117 0.57768 0.04568 0.0
C239 C 0.29473 0.57043 0.03391 0.0
C240 C 0.37723 0.58949 0.09703 0.0
C241 C 0.39215 0.571 0.12769 0.0
C242 C 0.42363 0.58501 0.14608 0.0
C243 C 0.44193 0.6164 0.13165 0.0
C244 C 0.42783 0.63495 0.10043 0.0
C245 C 0.39561 0.621 0.08305 0.0
C246 C 0.44328 0.67172 0.08933 0.0
C247 C 0.45316 0.69812 0.11661 0.0
C248 C 0.44544 0.68189 0.05176 0.0
C249 C 0.45593 0.71807 0.04182 0.0
C250 C 0.46442 0.74479 0.06927 0.0
C251 C 0.43363 0.5706 0.18329 0.0
C252 C 0.4053 0.56222 0.20895 0.0
C253 C 0.47094 0.56802 0.19465 0.0
C254 C 0.47959 0.55842 0.2312 0.0
C255 C 0.45109 0.55132 0.25704 0.0
C256 C 0.41393 0.55252 0.24524 0.0
C257 C 0.46376 0.73411 0.10669 0.0
H258 H 0.25309 0.56285 0.11874 0.0
H259 H 0.31623 0.57572 0.13923 0.0
H260 H 0.35278 0.58201 0.02514 0.0
H261 H 0.28878 0.56955 0.00447 0.0
H262 H 0.37791 0.54668 0.1385 0.0
H263 H 0.38305 0.6364 0.06058 0.0
H264 H 0.46588 0.62779 0.14605 0.0
H265 H 0.45129 0.69155 0.14584 0.0
H266 H 0.43827 0.66211 0.03008 0.0
H267 H 0.45604 0.72548 0.01274 0.0
H268 H 0.37623 0.56453 0.20149 0.0
H269 H 0.49339 0.57408 0.1755 0.0
H270 H 0.47073 0.75385 0.12848 0.0
H271 H 0.39135 0.5466 0.26431 0.0
H272 H 0.50852 0.55784 0.23952 0.0
C273 C 0.0874 0.27799 0.55569 0.0
C274 C 0.05192 0.26527 0.56629 0.0
C275 C 0.09897 0.31413 0.56403 0.0
C276 C 0.075 0.33933 0.58213 0.0
C277 C 0.03877 0.32725 0.59112 0.0
C278 C 0.0275 0.29058 0.58363 0.0
C279 C 0.08904 0.37682 0.59384 0.0
C280 C 0.1174 0.39452 0.57347 0.0
C281 C 0.13677 0.42525 0.58815 0.0
C282 C 0.12471 0.44105 0.62176 0.0
C283 C 0.09528 0.42497 0.64185 0.0
C284 C 0.0778 0.39273 0.62783 0.0
C285 C 0.08574 0.43913 0.67948 0.0
C286 C 0.1141 0.44914 0.70447 0.0
C287 C 0.04849 0.44111 0.69131 0.0
C288 C 0.03987 0.45216 0.7276 0.0
C289 C 0.06835 0.46135 0.75278 0.0
C290 C 0.17312 0.43659 0.57193 0.0
C291 C 0.19834 0.40902 0.56021 0.0
C292 C 0.1847 0.47408 0.57194 0.0
C293 C 0.22125 0.4835 0.56218 0.0
C294 C 0.24685 0.45559 0.55234 0.0
C295 C 0.23467 0.41842 0.55043 0.0
C296 C 0.1055 0.46023 0.74061 0.0
H297 H 0.10673 0.25986 0.54132 0.0
H298 H 0.12735 0.32166 0.55724 0.0
H299 H 0.01923 0.34588 0.60452 0.0
H300 H -1e-05 0.28191 0.59239 0.0
H301 H 0.12596 0.38323 0.54687 0.0
H302 H 0.05723 0.3787 0.64478 0.0
H303 H 0.13958 0.46469 0.63339 0.0
H304 H 0.14311 0.4474 0.69649 0.0
H305 H 0.02604 0.43377 0.6726 0.0
H306 H 0.01099 0.45248 0.73622 0.0
H307 H 0.19068 0.3798 0.56035 0.0
H308 H 0.16586 0.49599 0.58054 0.0
H309 H 0.12805 0.46761 0.75918 0.0
H310 H 0.25357 0.39637 0.54232 0.0
H311 H 0.22987 0.51241 0.56391 0.0
O312 O 0.9819 0.09791 0.545 0.0
Zn313 Zn 0.96148 0.04559 0.54174 0.0
O314 O 0.99244 0.01371 0.51004 0.0
Zn315 Zn 0.96514 0.00016 0.46509 0.0
Zn316 Zn 0.03774 0.04059 0.49698 0.0
Zn317 Zn 0.00565 0.9685 0.5365 0.0
O318 O 0.96234 0.94456 0.45856 0.0
O319 O 0.98855 0.92235 0.50945 0.0
O320 O 0.90919 0.04834 0.52197 0.0
O321 O 0.91234 0.01805 0.46813 0.0
O322 O 0.98949 0.02155 0.41942 0.0
O323 O 0.04096 0.04754 0.44193 0.0
O324 O 0.08384 0.01402 0.51391 0.0
O325 O 0.95879 0.02525 0.5938 0.0
O326 O 0.06105 0.96451 0.54278 0.0
O327 O 0.98345 0.9688 0.58753 0.0
C328 C 0.01362 0.11126 0.53643 0.0
C329 C 0.97222 0.91722 0.47853 0.0
C330 C 0.01991 0.03927 0.41469 0.0
C331 C 0.89392 0.03626 0.49236 0.0
C332 C 0.08859 0.98422 0.53222 0.0
C333 C 0.96731 0.99362 0.60708 0.0
O334 O 0.03805 0.09172 0.51978 0.0
O335 O 0.50138 0.08319 0.97861 0.0
Zn336 Zn 0.47964 0.03143 0.98245 0.0
O337 O 0.51109 -0.00121 0.0123 0.0
Zn338 Zn 0.52828 0.95666 0.98213 0.0
Zn339 Zn 0.55393 0.02705 0.03042 0.0
Zn340 Zn 0.4826 0.98003 0.05448 0.0
O341 O 0.51203 0.90742 0.00373 0.0
O342 O 0.48009 0.92426 0.05381 0.0
O343 O 0.4739 0.01103 0.93072 0.0
O344 O 0.50803 0.95959 0.93027 0.0
O345 O 0.58408 0.9561 0.9787 0.0
O346 O 0.60209 0.00452 0.01291 0.0
O347 O 0.5548 0.02876 0.08601 0.0
O348 O 0.42833 0.03604 0.00454 0.0
O349 O 0.50543 0.99574 0.10313 0.0
O350 O 0.43022 -0.00074 0.05375 0.0
C351 C 0.5304 0.09831 0.99235 0.0
C352 C 0.49295 0.8991 0.03234 0.0
C353 C 0.60969 0.97653 0.99242 0.0
C354 C 0.48681 0.98254 0.91391 0.0
C355 C 0.53405 0.01514 0.1112 0.0
C356 C 0.41267 0.02136 0.03263 0.0
O357 O 0.55262 0.07992 0.01263 0.0
O358 O 0.53698 0.51776 0.59604 0.0
Zn359 Zn 0.53353 0.53984 0.54452 0.0
O360 O 0.50256 0.50832 0.51172 0.0
Zn361 Zn 0.53172 0.48971 0.46997 0.0
Zn362 Zn 0.48301 0.46597 0.53932 0.0
Zn363 Zn 0.46128 0.53711 0.49215 0.0
O364 O 0.51045 0.5046 0.42085 0.0
O365 O 0.46169 0.53887 0.4365 0.0
O366 O 0.58611 0.54423 0.52391 0.0
O367 O 0.58298 0.51077 0.47178 0.0
O368 O 0.53476 0.43388 0.46983 0.0
O369 O 0.49728 0.4172 0.51581 0.0
O370 O 0.42713 0.46745 0.5425 0.0
O371 O 0.51208 0.59199 0.54893 0.0
O372 O 0.41197 0.51603 0.508 0.0
O373 O 0.4636 0.58943 0.51087 0.0
C374 C 0.52441 0.48749 0.60958 0.0
C375 C 0.48273 0.52448 0.4119 0.0
C376 C 0.51881 0.40878 0.48901 0.0
C377 C 0.60096 0.53141 0.49433 0.0
C378 C 0.40271 0.48858 0.52823 0.0
C379 C 0.48442 0.60743 0.53322 0.0
O380 O 0.50412 0.46532 0.59068 0.0
O381 O 0.97745 0.5 0.08859 0.0
Zn382 Zn 0.98227 0.47985 0.03643 0.0
O383 O 0.0136 0.51237 0.00591 0.0
Zn384 Zn 0.98491 0.53118 0.96405 0.0
Zn385 Zn 0.03147 0.55426 0.036 0.0
Zn386 Zn 0.05608 0.48427 0.98697 0.0
O387 O 0.00692 0.51516 0.91494 0.0
O388 O 0.05576 0.48162 0.93147 0.0
O389 O 0.93078 0.47489 0.01468 0.0
O390 O 0.93247 0.51168 0.96541 0.0
O391 O 0.98288 0.58709 0.96503 0.0
O392 O 0.0148 0.60338 0.01526 0.0
O393 O 0.08727 0.55534 0.03774 0.0
O394 O 0.0042 0.42837 0.04018 0.0
O395 O 0.10466 0.50754 0.00249 0.0
O396 O 0.05537 0.43179 0.00576 0.0
C397 C 0.99139 0.52815 0.10529 0.0
C398 C 0.03495 0.49521 0.90652 0.0
C399 C 0.9958 0.61201 0.98684 0.0
C400 C 0.91502 0.4894 0.98665 0.0
C401 C 0.11263 0.5355 0.02292 0.0
C402 C 0.03329 0.41345 0.02649 0.0
O403 O 0.01265 0.55096 0.08845 0.0
C404 C 0.02321 0.04804 0.30984 0.0
C405 C 0.05515 0.07021 0.30489 0.0
H406 H 0.98699 0.02071 0.3484 0.0
C407 C 0.07461 0.08293 0.33632 0.0
H408 H 0.00779 0.03758 0.28615 0.0
C409 C 0.06295 0.07306 0.37184 0.0
C410 C 0.0314 0.05037 0.37687 0.0
H411 H 0.09888 0.10069 0.33351 0.0
H412 H 0.07881 0.08324 0.39537 0.0
C413 C 0.01142 0.03823 0.34549 0.0
C414 C 0.48024 0.93773 0.81867 0.0
C415 C 0.45227 0.95907 0.80201 0.0
H416 H 0.51302 0.92828 0.86711 0.0
C417 C 0.43697 0.98923 0.82175 0.0
H418 H 0.49227 0.9141 0.80423 0.0
C419 C 0.44879 0.99737 0.85778 0.0
C420 C 0.47599 0.97536 0.87492 0.0
H421 H 0.41564 0.00637 0.80941 0.0
H422 H 0.43604 0.0205 0.87242 0.0
C423 C 0.49191 0.94572 0.8548 0.0
C424 C 0.54711 0.49106 0.71211 0.0
C425 C 0.55623 0.45356 0.7192 0.0
H426 H 0.53051 0.53139 0.67161 0.0
C427 C 0.55493 0.42789 0.68947 0.0
H428 H 0.54707 0.51168 0.73414 0.0
C429 C 0.54399 0.43903 0.65418 0.0
C430 C 0.5353 0.47637 0.64726 0.0
H431 H 0.56291 0.39911 0.69305 0.0
H432 H 0.54318 0.41851 0.632 0.0
C433 C 0.53731 0.50243 0.67635 0.0
C434 C 0.98702 0.57342 0.20054 0.0
C435 C 0.96234 0.54969 0.21944 0.0
H436 H 0.01544 0.58538 0.14981 0.0
C437 C 0.94846 0.51796 0.20095 0.0
H438 H 0.99782 0.59837 0.21382 0.0
C439 C 0.95832 0.51062 0.1641 0.0
C440 C 0.98226 0.53489 0.14488 0.0
H441 H 0.92973 0.4989 0.2149 0.0
H442 H 0.94676 0.48616 0.15057 0.0
C443 C 0.99687 0.56612 0.1637 0.0
C444 C 0.31906 0.02358 0.08096 0.0
C445 C 0.30065 0.05199 0.06172 0.0
H446 H 0.36865 0.99158 0.08687 0.0
C447 C 0.3187 0.06898 0.03156 0.0
H448 H 0.30566 0.0095 0.10391 0.0
C449 C 0.35479 0.05852 0.02158 0.0
C450 C 0.37363 0.03091 0.0416 0.0
H451 H 0.30542 0.09122 0.01641 0.0
H452 H 0.36821 0.07271 -0.0013 0.0
C453 C 0.35514 0.01321 0.07107 0.0
C454 C 0.19393 0.98051 0.5377 0.0
C455 C 0.19925 0.95222 0.56387 0.0
H456 H 0.15476 0.01306 0.5073 0.0
C457 C 0.16805 0.93384 0.57867 0.0
H458 H 0.21753 0.99524 0.52601 0.0
C459 C 0.1322 0.94385 0.56791 0.0
C460 C 0.12673 0.97269 0.54231 0.0
H461 H 0.17138 0.91161 0.59856 0.0
H462 H 0.10878 0.92927 0.5801 0.0
C463 C 0.158 0.9908 0.52716 0.0
C464 C 0.82196 0.48429 0.93756 0.0
C465 C 0.80356 0.45624 0.95756 0.0
H466 H 0.87151 0.51674 0.93097 0.0
C467 C 0.8214 0.44044 0.98832 0.0
H468 H 0.80906 0.49675 0.91353 0.0
C469 C 0.85724 0.45179 -0.00168 0.0
C470 C 0.8761 0.47911 0.97767 0.0
H471 H 0.80769 0.4191 0.00457 0.0
H472 H 0.87037 0.43865 0.02184 0.0
C473 C 0.85786 0.49556 0.94745 0.0
C474 C 0.70426 0.55176 0.5008 0.0
C475 C 0.71337 0.5579 0.46324 0.0
H476 H 0.66117 0.53914 0.54033 0.0
C477 C 0.68464 0.55663 0.43677 0.0
H478 H 0.72553 0.55213 0.52201 0.0
C479 C 0.64831 0.54807 0.44719 0.0
C480 C 0.63939 0.54169 0.48449 0.0
H481 H 0.68996 0.56254 0.40783 0.0
H482 H 0.62699 0.54686 0.42599 0.0
C483 C 0.66746 0.54418 0.51138 0.0
C484 C 0.08229 0.32028 0.02794 0.0
C485 C 0.06283 0.30141 0.05604 0.0
H486 H 0.08821 0.37023 0.99651 0.0
C487 C 0.03235 0.31905 0.07312 0.0
H488 H 0.10547 0.30723 0.01375 0.0
C489 C 0.02218 0.35513 0.06298 0.0
C490 C 0.04239 0.37439 0.03566 0.0
H491 H 0.01701 0.30545 0.09514 0.0
H492 H -0.00096 0.36821 0.07722 0.0
C493 C 0.07226 0.35636 0.01794 0.0
C494 C 0.52816 0.19403 0.94829 0.0
C495 C 0.55907 0.21144 0.96494 0.0
H496 H 0.49484 0.14462 0.94378 0.0
C497 C 0.57907 0.19206 0.9921 0.0
H498 H 0.51237 0.20809 0.92703 0.0
C499 C 0.5693 0.15564 0.00142 0.0
C500 C 0.53915 0.13773 0.98395 0.0
H501 H 0.60261 0.20493 0.00594 0.0
H502 H 0.58574 0.1414 0.02206 0.0
C503 C 0.51827 0.15755 0.95773 0.0
C504 C 0.96979 0.81171 0.47321 0.0
C505 C 0.94576 0.80557 0.4431 0.0
H506 H 0.99685 0.85181 0.50822 0.0
C507 C 0.93134 0.83632 0.4241 0.0
H508 H 0.98106 0.78848 0.48852 0.0
C509 C 0.9404 0.87255 0.43525 0.0
C510 C 0.96385 0.8788 0.46586 0.0
H511 H 0.91304 0.83235 0.40054 0.0
H512 H 0.92858 0.89564 0.42015 0.0
C513 C 0.97862 0.84797 0.4846 0.0
C514 C 0.48192 0.70261 0.57979 0.0
C515 C 0.45233 0.71957 0.56092 0.0
H516 H 0.51539 0.65373 0.58594 0.0
C517 C 0.43521 0.7003 0.53151 0.0
H518 H 0.4955 0.71673 0.60274 0.0
C519 C 0.44638 0.66434 0.52206 0.0
C520 C 0.47503 0.64671 0.54174 0.0
H521 H 0.41281 0.7129 0.51599 0.0
H522 H 0.43204 0.65016 0.49961 0.0
C523 C 0.49319 0.66648 0.57028 0.0
C524 C 0.94577 0.94028 0.69427 0.0
C525 C 0.94884 0.96806 0.7219 0.0
H526 H 0.94957 0.92662 0.63654 0.0
C527 C 0.95606 0.005 0.71094 0.0
H528 H 0.93896 0.91177 0.70128 0.0
C529 C 0.96082 0.01366 0.67342 0.0
C530 C 0.95923 0.98546 0.64628 0.0
H531 H 0.95898 0.02711 0.73131 0.0
H532 H 0.96704 0.04217 0.66578 0.0
C533 C 0.95144 0.94879 0.65702 0.0
C534 C 0.57706 0.05932 0.1965 0.0
C535 C 0.55645 0.0428 0.2252 0.0
H536 H 0.58641 0.06335 0.13817 0.0
C537 C 0.52966 0.01559 0.21641 0.0
H538 H 0.59823 0.08004 0.2026 0.0
C539 C 0.52267 0.00607 0.17936 0.0
C540 C 0.54268 0.02334 0.15054 0.0
H541 H 0.51333 0.00256 0.23808 0.0
H542 H 0.50128 0.98558 0.17332 0.0
C543 C 0.57036 0.04961 0.1596 0.0
C544 C 0.48928 0.52119 0.30683 0.0
C545 C 0.45966 0.54436 0.29662 0.0
H546 H 0.51974 0.49651 0.35125 0.0
C547 C 0.438 0.56112 0.3246 0.0
H548 H 0.50629 0.50769 0.28589 0.0
C549 C 0.44548 0.55458 0.36192 0.0
C550 C 0.47492 0.53123 0.37222 0.0
H551 H 0.41542 0.5797 0.31768 0.0
H552 H 0.4282 0.56801 0.38268 0.0
C553 C 0.49683 0.51466 0.34427 0.0
C554 C 0.08165 0.45599 0.82064 0.0
C555 C 0.05966 0.47056 0.79204 0.0
H556 H 0.09117 0.4523 0.8789 0.0
C557 C 0.02938 0.49349 0.80133 0.0
H558 H 0.10477 0.43769 0.81446 0.0
C559 C 0.02135 0.50173 0.83849 0.0
C560 C 0.04343 0.48713 0.86706 0.0
H561 H 0.01212 0.50538 0.77989 0.0
H562 H -0.00214 0.51952 0.84476 0.0
C563 C 0.07367 0.4642 0.85766 0.0
C564 C 0.69503 0.92872 0.95322 0.0
C565 C 0.72403 0.95059 0.96798 0.0
H566 H 0.63639 0.91973 0.94922 0.0
C567 C 0.71516 0.98103 0.99103 0.0
H568 H 0.70092 0.90544 0.93488 0.0
C569 C 0.67806 0.98943 -0.0009 0.0
C570 C 0.64905 0.96758 0.98423 0.0
H571 H 0.73691 -0.00182 0.00311 0.0
H572 H 0.67217 0.01306 0.01698 0.0
C573 C 0.658 0.93709 0.96125 0.0
C574 C 0.79649 0.07513 0.50247 0.0
C575 C 0.77808 0.05806 0.47245 0.0
H576 H 0.84745 0.08154 0.53245 0.0
C577 C 0.79775 0.03308 0.44964 0.0
H578 H 0.7819 0.09432 0.52063 0.0
C579 C 0.83529 0.0259 0.45623 0.0
C580 C 0.85392 0.04335 0.48594 0.0
H581 H 0.78439 0.01987 0.42604 0.0
H582 H 0.84975 0.00683 0.43783 0.0
C583 C 0.83399 0.06773 0.50925 0.0
C584 C 0.19831 0.57949 0.06565 0.0
C585 C 0.22708 0.55948 0.04831 0.0
H586 H 0.13978 0.58782 0.07112 0.0
C587 C 0.21814 0.53272 0.02114 0.0
H588 H 0.2045 0.60064 0.08635 0.0
C589 C 0.18095 0.5252 0.01243 0.0
C590 C 0.15209 0.54458 0.03052 0.0
H591 H 0.23984 0.51683 0.00749 0.0
H592 H 0.17484 0.50387 0.99191 0.0
C593 C 0.16125 0.57221 0.05679 0.0
C594 C 0.29743 0.49576 0.52538 0.0
C595 C 0.28667 0.46459 0.54622 0.0
H596 H 0.34253 0.52777 0.50316 0.0
C597 C 0.31432 0.44188 0.56165 0.0
H598 H 0.27673 0.51365 0.51303 0.0
C599 C 0.35191 0.44983 0.55601 0.0
C600 C 0.36278 0.48073 0.5348 0.0
H601 H 0.30691 0.41805 0.57846 0.0
H602 H 0.37241 0.43163 0.56824 0.0
C603 C 0.33512 0.50371 0.51964 0.0
C604 C 0.96132 0.69889 0.93929 0.0
C605 C 0.97569 0.72737 0.96214 0.0
H606 H 0.95626 0.64045 0.92913 0.0
C607 C 0.99638 0.71766 0.99363 0.0
H608 H 0.9446 0.70542 0.91524 0.0
C609 C 0.00292 0.68019 0.0018 0.0
C610 C 0.98875 0.65174 0.9787 0.0
H611 H 0.00793 0.73901 0.01165 0.0
H612 H 0.01919 0.67358 0.02612 0.0
C613 C 0.96779 0.66157 0.94743 0.0
C614 C 0.4942 0.7933 0.02854 0.0
C615 C 0.47195 0.78418 0.05933 0.0
H616 H 0.51847 0.83675 0.99584 0.0
C617 C 0.45636 0.81311 0.08066 0.0
H618 H 0.50677 0.77163 0.0117 0.0
C619 C 0.46316 0.85025 0.07177 0.0
C620 C 0.48562 0.8595 0.04119 0.0
H621 H 0.43845 0.80707 0.10409 0.0
H622 H 0.45064 0.87172 0.08892 0.0
C623 C 0.501 0.8306 0.01957 0.0
C624 C 0.0684 0.1974 0.56191 0.0
C625 C 0.04125 0.22553 0.56006 0.0
H626 H 0.08093 0.13952 0.55541 0.0
C627 C 0.00429 0.21522 0.55192 0.0
H628 H 0.09688 0.20382 0.56936 0.0
C629 C 0.99496 0.17787 0.54524 0.0
C630 C 0.02254 0.1503 0.54575 0.0
H631 H 0.98265 0.23599 0.54984 0.0
H632 H 0.96643 0.17073 0.53853 0.0
C633 C 0.05925 0.16038 0.55429 0.0
C634 C 0.55535 0.32199 0.44153 0.0
C635 C 0.5377 0.29353 0.46168 0.0
H636 H 0.56332 0.38048 0.43431 0.0
C637 C 0.51401 0.3032 0.49122 0.0
H638 H 0.57432 0.31543 0.41905 0.0
C639 C 0.50784 0.34063 0.50018 0.0
C640 C 0.52535 0.3691 0.47983 0.0
H641 H 0.49986 0.28186 0.50708 0.0
H642 H 0.48926 0.34721 0.52298 0.0
C643 C 0.54922 0.35932 0.45046 0.0
loop_
_geom_bond_atom_site_label_1
_geom_bond_atom_site_label_2
_geom_bond_distance
_geom_bond_site_symmetry_2
_ccdc_geom_bond_type
C0 C1 1.386 . S
C0 C2 1.397 . S
C0 H24 0.931 . S
C1 C0 1.386 . S
C1 C5 1.397 . S
C2 C0 1.397 . S
C2 C3 1.384 . S
C2 H25 0.930 . S
C3 C2 1.384 . S
C3 C4 1.377 . S
C3 C6 1.481 . S
C4 C3 1.377 . S
C4 C5 1.389 . S
C4 H26 0.929 . S
C5 C1 1.397 . S
C5 C4 1.389 . S
C5 H27 0.931 . S
C6 C3 1.481 . S
C6 C7 1.387 . S
C6 C11 1.390 . S
C7 C6 1.387 . S
C7 C8 1.401 . S
C7 H28 0.930 . S
C8 C7 1.401 . S
C8 C9 1.376 . S
C8 C17 1.511 . S
C9 C8 1.376 . S
C9 C10 1.392 . S
C9 H30 0.931 . S
C10 C9 1.392 . S
C10 C11 1.361 . S
C10 C12 1.500 . S
C11 C6 1.390 . S
C11 C10 1.361 . S
C11 H29 0.931 . S
C12 C10 1.500 . S
C12 C13 1.371 . S
C12 C14 1.365 . S
C13 C12 1.371 . S
C13 C23 1.386 . S
C13 H31 0.931 . S
C14 C12 1.365 . S
C14 C15 1.409 . S
C14 H32 0.929 . S
C15 C14 1.409 . S
C15 C16 1.380 . S
C15 H33 0.930 . S
C16 C15 1.380 . S
C16 C23 1.357 . S
C17 C8 1.511 . S
C17 C18 1.341 . S
C17 C19 1.371 . S
C18 C17 1.341 . S
C18 C22 1.394 . S
C18 H34 0.930 . S
C19 C17 1.371 . S
C19 C20 1.392 . S
C19 H35 0.931 . S
C20 C19 1.392 . S
C20 C21 1.331 . S
C20 H38 0.932 . S
C21 C20 1.331 . S
C21 C22 1.336 . S
C22 C18 1.394 . S
C22 C21 1.336 . S
C22 H37 0.929 . S
C23 C13 1.386 . S
C23 C16 1.357 . S
C23 H36 0.928 . S
H24 C0 0.931 . S
H25 C2 0.930 . S
H26 C4 0.929 . S
H27 C5 0.931 . S
H28 C7 0.930 . S
H29 C11 0.931 . S
H30 C9 0.931 . S
H31 C13 0.931 . S
H32 C14 0.929 . S
H33 C15 0.930 . S
H34 C18 0.930 . S
H35 C19 0.931 . S
H36 C23 0.928 . S
H37 C22 0.929 . S
H38 C20 0.932 . S
C39 C40 1.386 . S
C39 C41 1.397 . S
C39 H63 0.931 . S
C40 C39 1.386 . S
C40 C44 1.397 . S
C41 C39 1.397 . S
C41 C42 1.384 . S
C41 H64 0.930 . S
C42 C41 1.384 . S
C42 C43 1.377 . S
C42 C45 1.481 . S
C43 C42 1.377 . S
C43 C44 1.389 . S
C43 H65 0.929 . S
C44 C40 1.397 . S
C44 C43 1.389 . S
C44 H66 0.931 . S
C45 C42 1.481 . S
C45 C46 1.387 . S
C45 C50 1.390 . S
C46 C45 1.387 . S
C46 C47 1.401 . S
C46 H67 0.930 . S
C47 C46 1.401 . S
C47 C48 1.376 . S
C47 C56 1.511 . S
C48 C47 1.376 . S
C48 C49 1.392 . S
C48 H69 0.931 . S
C49 C48 1.392 . S
C49 C50 1.361 . S
C49 C51 1.500 . S
C50 C45 1.390 . S
C50 C49 1.361 . S
C50 H68 0.931 . S
C51 C49 1.500 . S
C51 C52 1.371 . S
C51 C53 1.365 . S
C52 C51 1.371 . S
C52 C62 1.386 . S
C52 H70 0.931 . S
C53 C51 1.365 . S
C53 C54 1.409 . S
C53 H71 0.929 . S
C54 C53 1.409 . S
C54 C55 1.380 . S
C54 H72 0.930 . S
C55 C54 1.380 . S
C55 C62 1.357 . S
C56 C47 1.511 . S
C56 C57 1.341 . S
C56 C58 1.371 . S
C57 C56 1.341 . S
C57 C61 1.394 . S
C57 H73 0.930 . S
C58 C56 1.371 . S
C58 C59 1.392 . S
C58 H74 0.931 . S
C59 C58 1.392 . S
C59 C60 1.331 . S
C59 H77 0.932 . S
C60 C59 1.331 . S
C60 C61 1.336 . S
C61 C57 1.394 . S
C61 C60 1.336 . S
C61 H76 0.929 . S
C62 C52 1.386 . S
C62 C55 1.357 . S
C62 H75 0.928 . S
H63 C39 0.931 . S
H64 C41 0.930 . S
H65 C43 0.929 . S
H66 C44 0.931 . S
H67 C46 0.930 . S
H68 C50 0.931 . S
H69 C48 0.931 . S
H70 C52 0.931 . S
H71 C53 0.929 . S
H72 C54 0.930 . S
H73 C57 0.930 . S
H74 C58 0.931 . S
H75 C62 0.928 . S
H76 C61 0.929 . S
H77 C59 0.932 . S
C78 C79 1.386 . S
C78 C80 1.397 . S
C78 H102 0.931 . S
C79 C78 1.386 . S
C79 C83 1.397 . S
C80 C78 1.397 . S
C80 C81 1.384 . S
C80 H103 0.930 . S
C81 C80 1.384 . S
C81 C82 1.377 . S
C81 C84 1.481 . S
C82 C81 1.377 . S
C82 C83 1.389 . S
C82 H104 0.929 . S
C83 C79 1.397 . S
C83 C82 1.389 . S
C83 H105 0.931 . S
C84 C81 1.481 . S
C84 C85 1.387 . S
C84 C89 1.390 . S
C85 C84 1.387 . S
C85 C86 1.401 . S
C85 H106 0.930 . S
C86 C85 1.401 . S
C86 C87 1.376 . S
C86 C95 1.511 . S
C87 C86 1.376 . S
C87 C88 1.392 . S
C87 H108 0.931 . S
C88 C87 1.392 . S
C88 C89 1.361 . S
C88 C90 1.500 . S
C89 C84 1.390 . S
C89 C88 1.361 . S
C89 H107 0.931 . S
C90 C88 1.500 . S
C90 C91 1.371 . S
C90 C92 1.365 . S
C91 C90 1.371 . S
C91 C101 1.386 . S
C91 H109 0.931 . S
C92 C90 1.365 . S
C92 C93 1.409 . S
C92 H110 0.929 . S
C93 C92 1.409 . S
C93 C94 1.380 . S
C93 H111 0.930 . S
C94 C93 1.380 . S
C94 C101 1.357 . S
C95 C86 1.511 . S
C95 C96 1.341 . S
C95 C97 1.371 . S
C96 C95 1.341 . S
C96 C100 1.394 . S
C96 H112 0.930 . S
C97 C95 1.371 . S
C97 C98 1.392 . S
C97 H113 0.931 . S
C98 C97 1.392 . S
C98 C99 1.331 . S
C98 H116 0.932 . S
C99 C98 1.331 . S
C99 C100 1.336 . S
C100 C96 1.394 . S
C100 C99 1.336 . S
C100 H115 0.929 . S
C101 C91 1.386 . S
C101 C94 1.357 . S
C101 H114 0.928 . S
H102 C78 0.931 . S
H103 C80 0.930 . S
H104 C82 0.929 . S
H105 C83 0.931 . S
H106 C85 0.930 . S
H107 C89 0.931 . S
H108 C87 0.931 . S
H109 C91 0.931 . S
H110 C92 0.929 . S
H111 C93 0.930 . S
H112 C96 0.930 . S
H113 C97 0.931 . S
H114 C101 0.928 . S
H115 C100 0.929 . S
H116 C98 0.932 . S
C117 C118 1.386 . S
C117 C119 1.397 . S
C117 H141 0.931 . S
C118 C117 1.386 . S
C118 C122 1.397 . S
C119 C117 1.397 . S
C119 C120 1.384 . S
C119 H142 0.930 . S
C120 C119 1.384 . S
C120 C121 1.377 . S
C120 C123 1.481 . S
C121 C120 1.377 . S
C121 C122 1.389 . S
C121 H143 0.929 . S
C122 C118 1.397 . S
C122 C121 1.389 . S
C122 H144 0.931 . S
C123 C120 1.481 . S
C123 C124 1.387 . S
C123 C128 1.390 . S
C124 C123 1.387 . S
C124 C125 1.401 . S
C124 H145 0.930 . S
C125 C124 1.401 . S
C125 C126 1.376 . S
C125 C134 1.511 . S
C126 C125 1.376 . S
C126 C127 1.392 . S
C126 H147 0.931 . S
C127 C126 1.392 . S
C127 C128 1.361 . S
C127 C129 1.500 . S
C128 C123 1.390 . S
C128 C127 1.361 . S
C128 H146 0.931 . S
C129 C127 1.500 . S
C129 C130 1.371 . S
C129 C131 1.365 . S
C130 C129 1.371 . S
C130 C140 1.386 . S
C130 H148 0.931 . S
C131 C129 1.365 . S
C131 C132 1.409 . S
C131 H149 0.929 . S
C132 C131 1.409 . S
C132 C133 1.380 . S
C132 H150 0.930 . S
C133 C132 1.380 . S
C133 C140 1.357 . S
C134 C125 1.511 . S
C134 C135 1.341 . S
C134 C136 1.371 . S
C135 C134 1.341 . S
C135 C139 1.394 . S
C135 H151 0.930 . S
C136 C134 1.371 . S
C136 C137 1.392 . S
C136 H152 0.931 . S
C137 C136 1.392 . S
C137 C138 1.331 . S
C137 H155 0.932 . S
C138 C137 1.331 . S
C138 C139 1.336 . S
C139 C135 1.394 . S
C139 C138 1.336 . S
C139 H154 0.929 . S
C140 C130 1.386 . S
C140 C133 1.357 . S
C140 H153 0.928 . S
H141 C117 0.931 . S
H142 C119 0.930 . S
H143 C121 0.929 . S
H144 C122 0.931 . S
H145 C124 0.930 . S
H146 C128 0.931 . S
H147 C126 0.931 . S
H148 C130 0.931 . S
H149 C131 0.929 . S
H150 C132 0.930 . S
H151 C135 0.930 . S
H152 C136 0.931 . S
H153 C140 0.928 . S
H154 C139 0.929 . S
H155 C137 0.932 . S
C156 C157 1.386 . S
C156 C158 1.397 . S
C156 H180 0.931 . S
C157 C156 1.386 . S
C157 C161 1.397 1_565 S
C158 C156 1.397 . S
C158 C159 1.384 . S
C158 H181 0.930 . S
C159 C158 1.384 . S
C159 C160 1.377 . S
C159 C162 1.481 . S
C160 C159 1.377 . S
C160 C161 1.389 1_565 S
C160 H182 0.929 1_565 S
C161 C157 1.397 1_545 S
C161 C160 1.389 1_545 S
C161 H183 0.931 . S
C162 C159 1.481 . S
C162 C163 1.387 . S
C162 C167 1.390 . S
C163 C162 1.387 . S
C163 C164 1.401 . S
C163 H184 0.930 . S
C164 C163 1.401 . S
C164 C165 1.376 . S
C164 C173 1.511 . S
C165 C164 1.376 . S
C165 C166 1.392 . S
C165 H186 0.931 . S
C166 C165 1.392 . S
C166 C167 1.361 . S
C166 C168 1.500 . S
C167 C162 1.390 . S
C167 C166 1.361 . S
C167 H185 0.931 . S
C168 C166 1.500 . S
C168 C169 1.371 . S
C168 C170 1.380 . S
C169 C168 1.371 . S
C169 C179 1.386 . S
C169 H187 0.931 . S
C170 C168 1.380 . S
C170 C171 1.403 1_565 S
C170 H188 0.921 1_565 S
C171 C170 1.403 1_545 S
C171 C172 1.380 1_545 S
C171 H189 0.930 . S
C172 C171 1.380 1_565 S
C172 C179 1.357 . S
C173 C164 1.511 . S
C173 C174 1.341 . S
C173 C175 1.371 . S
C174 C173 1.341 . S
C174 C178 1.394 . S
C174 H190 0.930 . S
C175 C173 1.371 . S
C175 C176 1.392 . S
C175 H191 0.931 . S
C176 C175 1.392 . S
C176 C177 1.331 . S
C176 H194 0.932 1_556 S
C177 C176 1.331 . S
C177 C178 1.336 . S
C178 C174 1.394 . S
C178 C177 1.336 . S
C178 H193 0.929 . S
C179 C169 1.386 . S
C179 C172 1.357 . S
C179 H192 0.928 . S
H180 C156 0.931 . S
H181 C158 0.930 . S
H182 C160 0.929 1_545 S
H183 C161 0.931 . S
H184 C163 0.930 . S
H185 C167 0.931 . S
H186 C165 0.931 . S
H187 C169 0.931 . S
H188 C170 0.921 1_545 S
H189 C171 0.930 . S
H190 C174 0.930 . S
H191 C175 0.931 . S
H192 C179 0.928 . S
H193 C178 0.929 . S
H194 C176 0.932 1_554 S
C195 C196 1.386 . S
C195 C197 1.397 . S
C195 H219 0.931 1_545 S
C196 C195 1.386 . S
C196 C200 1.397 . S
C197 C195 1.397 . S
C197 C198 1.384 . S
C197 H220 0.930 . S
C198 C197 1.384 . S
C198 C199 1.377 . S
C198 C201 1.481 . S
C199 C198 1.377 . S
C199 C200 1.389 . S
C199 H221 0.929 . S
C200 C196 1.397 . S
C200 C199 1.389 . S
C200 H222 0.931 . S
C201 C198 1.481 . S
C201 C202 1.387 . S
C201 C206 1.390 . S
C202 C201 1.387 . S
C202 C203 1.401 . S
C202 H223 0.930 . S
C203 C202 1.401 . S
C203 C204 1.376 . S
C203 C212 1.511 . S
C204 C203 1.376 . S
C204 C205 1.392 . S
C204 H225 0.931 . S
C205 C204 1.392 . S
C205 C206 1.361 . S
C205 C207 1.500 . S
C206 C201 1.390 . S
C206 C205 1.361 . S
C206 H224 0.931 . S
C207 C205 1.500 . S
C207 C208 1.371 . S
C207 C209 1.365 . S
C208 C207 1.371 . S
C208 C218 1.386 . S
C208 H226 0.931 . S
C209 C207 1.365 . S
C209 C210 1.409 . S
C209 H227 0.929 . S
C210 C209 1.409 . S
C210 C211 1.380 . S
C210 H228 0.930 . S
C211 C210 1.380 . S
C211 C218 1.357 . S
C212 C203 1.511 . S
C212 C213 1.341 . S
C212 C214 1.371 . S
C213 C212 1.341 . S
C213 C217 1.394 . S
C213 H229 0.930 . S
C214 C212 1.371 . S
C214 C215 1.392 . S
C214 H230 0.931 . S
C215 C214 1.392 . S
C215 C216 1.331 . S
C215 H233 0.932 . S
C216 C215 1.331 . S
C216 C217 1.336 . S
C217 C213 1.394 . S
C217 C216 1.336 . S
C217 H232 0.929 1_545 S
C218 C208 1.386 . S
C218 C211 1.357 . S
C218 H231 0.928 . S
H219 C195 0.931 1_565 S
H220 C197 0.930 . S
H221 C199 0.929 . S
H222 C200 0.931 . S
H223 C202 0.930 . S
H224 C206 0.931 . S
H225 C204 0.931 . S
H226 C208 0.931 . S
H227 C209 0.929 . S
H228 C210 0.930 . S
H229 C213 0.930 . S
H230 C214 0.931 . S
H231 C218 0.928 . S
H232 C217 0.929 1_565 S
H233 C215 0.932 . S
C234 C235 1.386 . S
C234 C236 1.397 . S
C234 H258 0.931 . S
C235 C234 1.386 . S
C235 C239 1.397 . S
C236 C234 1.397 . S
C236 C237 1.384 . S
C236 H259 0.930 . S
C237 C236 1.384 . S
C237 C238 1.377 . S
C237 C240 1.481 . S
C238 C237 1.377 . S
C238 C239 1.389 . S
C238 H260 0.929 . S
C239 C235 1.397 . S
C239 C238 1.389 . S
C239 H261 0.931 1_554 S
C240 C237 1.481 . S
C240 C241 1.387 . S
C240 C245 1.390 . S
C241 C240 1.387 . S
C241 C242 1.401 . S
C241 H262 0.930 . S
C242 C241 1.401 . S
C242 C243 1.376 . S
C242 C251 1.511 . S
C243 C242 1.376 . S
C243 C244 1.392 . S
C243 H264 0.931 . S
C244 C243 1.392 . S
C244 C245 1.361 . S
C244 C246 1.500 . S
C245 C240 1.390 . S
C245 C244 1.361 . S
C245 H263 0.931 . S
C246 C244 1.500 . S
C246 C247 1.371 . S
C246 C248 1.365 . S
C247 C246 1.371 . S
C247 C257 1.386 . S
C247 H265 0.931 . S
C248 C246 1.365 . S
C248 C249 1.409 . S
C248 H266 0.929 . S
C249 C248 1.409 . S
C249 C250 1.380 . S
C249 H267 0.930 1_554 S
C250 C249 1.380 . S
C250 C257 1.357 . S
C251 C242 1.511 . S
C251 C252 1.341 . S
C251 C253 1.371 . S
C252 C251 1.341 . S
C252 C256 1.394 . S
C252 H268 0.930 . S
C253 C251 1.371 . S
C253 C254 1.392 . S
C253 H269 0.931 . S
C254 C253 1.392 . S
C254 C255 1.331 . S
C254 H272 0.932 . S
C255 C254 1.331 . S
C255 C256 1.336 . S
C256 C252 1.394 . S
C256 C255 1.336 . S
C256 H271 0.929 . S
C257 C247 1.386 . S
C257 C250 1.357 . S
C257 H270 0.928 . S
H258 C234 0.931 . S
H259 C236 0.930 . S
H260 C238 0.929 . S
H261 C239 0.931 1_556 S
H262 C241 0.930 . S
H263 C245 0.931 . S
H264 C243 0.931 . S
H265 C247 0.931 . S
H266 C248 0.929 . S
H267 C249 0.930 1_556 S
H268 C252 0.930 . S
H269 C253 0.931 . S
H270 C257 0.928 . S
H271 C256 0.929 . S
H272 C254 0.932 . S
C273 C274 1.386 . S
C273 C275 1.397 . S
C273 H297 0.931 . S
C274 C273 1.386 . S
C274 C278 1.397 . S
C275 C273 1.397 . S
C275 C276 1.384 . S
C275 H298 0.930 . S
C276 C275 1.384 . S
C276 C277 1.377 . S
C276 C279 1.481 . S
C277 C276 1.377 . S
C277 C278 1.389 . S
C277 H299 0.929 . S
C278 C274 1.397 . S
C278 C277 1.389 . S
C278 H300 0.947 . S
C279 C276 1.481 . S
C279 C280 1.387 . S
C279 C284 1.390 . S
C280 C279 1.387 . S
C280 C281 1.401 . S
C280 H301 0.930 . S
C281 C280 1.401 . S
C281 C282 1.376 . S
C281 C290 1.511 . S
C282 C281 1.376 . S
C282 C283 1.392 . S
C282 H303 0.931 . S
C283 C282 1.392 . S
C283 C284 1.361 . S
C283 C285 1.500 . S
C284 C279 1.390 . S
C284 C283 1.361 . S
C284 H302 0.931 . S
C285 C283 1.500 . S
C285 C286 1.371 . S
C285 C287 1.365 . S
C286 C285 1.371 . S
C286 C296 1.386 . S
C286 H304 0.931 . S
C287 C285 1.365 . S
C287 C288 1.409 . S
C287 H305 0.929 . S
C288 C287 1.409 . S
C288 C289 1.380 . S
C288 H306 0.930 . S
C289 C288 1.380 . S
C289 C296 1.357 . S
C290 C281 1.511 . S
C290 C291 1.341 . S
C290 C292 1.371 . S
C291 C290 1.341 . S
C291 C295 1.394 . S
C291 H307 0.930 . S
C292 C290 1.371 . S
C292 C293 1.392 . S
C292 H308 0.931 . S
C293 C292 1.392 . S
C293 C294 1.331 . S
C293 H311 0.932 . S
C294 C293 1.331 . S
C294 C295 1.336 . S
C295 C291 1.394 . S
C295 C294 1.336 . S
C295 H310 0.929 . S
C296 C286 1.386 . S
C296 C289 1.357 . S
C296 H309 0.928 . S
H297 C273 0.931 . S
H298 C275 0.930 . S
H299 C277 0.929 . S
H300 C278 0.947 . S
H301 C280 0.930 . S
H302 C284 0.931 . S
H303 C282 0.931 . S
H304 C286 0.931 . S
H305 C287 0.929 . S
H306 C288 0.930 . S
H307 C291 0.930 . S
H308 C292 0.931 . S
H309 C296 0.928 . S
H310 C295 0.929 . S
H311 C293 0.932 . S
O312 Zn313 1.953 . S
O312 C328 1.225 1_655 S
Zn313 O312 1.953 . S
Zn313 O314 1.949 1_655 S
Zn313 O320 1.919 . S
Zn313 O325 1.924 . S
O314 Zn313 1.949 1_455 S
O314 Zn315 1.923 1_445 S
O314 Zn316 1.950 . S
O314 Zn317 1.945 1_545 S
Zn315 O314 1.923 1_665 S
Zn315 O318 1.933 . S
Zn315 O321 1.941 1_565 S
Zn315 O322 1.965 1_665 S
Zn316 O314 1.950 . S
Zn316 O323 1.938 . S
Zn316 O324 1.899 1_545 S
Zn316 O334 1.953 . S
Zn317 O314 1.945 1_565 S
Zn317 O319 1.932 1_455 S
Zn317 O326 1.977 . S
Zn317 O327 1.910 1_455 S
O318 Zn315 1.933 . S
O318 C329 1.226 . S
O319 Zn317 1.932 1_655 S
O319 C329 1.307 . S
O320 Zn313 1.919 . S
O320 C331 1.253 . S
O321 Zn315 1.941 1_545 S
O321 C331 1.283 . S
O322 Zn315 1.965 1_445 S
O322 C330 1.303 . S
O323 Zn316 1.938 . S
O323 C330 1.247 . S
O324 Zn316 1.899 1_565 S
O324 C332 1.314 . S
O325 Zn313 1.924 . S
O325 C333 1.294 1_545 S
O326 Zn317 1.977 . S
O326 C332 1.272 . S
O327 Zn317 1.910 1_655 S
O327 C333 1.250 . S
C328 O312 1.225 1_455 S
C328 O334 1.298 . S
C329 O318 1.226 . S
C329 O319 1.307 . S
C330 O322 1.303 . S
C330 O323 1.247 . S
C331 O320 1.253 . S
C331 O321 1.283 . S
C332 O324 1.314 . S
C332 O326 1.272 . S
C333 O325 1.294 1_565 S
C333 O327 1.250 . S
O334 Zn316 1.953 . S
O334 C328 1.298 . S
O335 Zn336 1.953 . S
O335 C351 1.225 . S
Zn336 O335 1.953 . S
Zn336 O337 1.949 1_556 S
Zn336 O343 1.919 . S
Zn336 O348 1.924 1_556 S
O337 Zn336 1.949 1_554 S
O337 Zn338 1.923 1_544 S
O337 Zn339 1.950 . S
O337 Zn340 1.945 1_545 S
Zn338 O337 1.923 1_566 S
Zn338 O341 1.933 1_556 S
Zn338 O344 1.941 . S
Zn338 O345 1.965 . S
Zn339 O337 1.950 . S
Zn339 O346 1.938 . S
Zn339 O347 1.906 . S
Zn339 O357 1.953 . S
Zn340 O337 1.945 1_565 S
Zn340 O342 1.932 . S
Zn340 O349 1.977 1_565 S
Zn340 O350 1.910 1_565 S
O341 Zn338 1.933 1_554 S
O341 C352 1.226 . S
O342 Zn340 1.932 . S
O342 C352 1.307 . S
O343 Zn336 1.919 . S
O343 C354 1.253 1_545 S
O344 Zn338 1.941 . S
O344 C354 1.283 . S
O345 Zn338 1.965 . S
O345 C353 1.303 . S
O346 Zn339 1.938 . S
O346 C353 1.247 1_544 S
O347 Zn339 1.906 . S
O347 C355 1.304 . S
O348 Zn336 1.924 1_554 S
O348 C356 1.311 . S
O349 Zn340 1.977 1_545 S
O349 C355 1.272 . S
O350 Zn340 1.910 1_545 S
O350 C356 1.231 . S
C351 O335 1.225 . S
C351 O357 1.298 1_556 S
C352 O341 1.226 . S
C352 O342 1.307 . S
C353 O345 1.303 . S
C353 O346 1.247 1_566 S
C354 O343 1.253 1_565 S
C354 O344 1.283 . S
C355 O347 1.304 . S
C355 O349 1.272 . S
C356 O348 1.311 . S
C356 O350 1.231 . S
O357 Zn339 1.953 . S
O357 C351 1.298 1_554 S
O358 Zn359 1.953 . S
O358 C374 1.225 . S
Zn359 O358 1.953 . S
Zn359 O360 1.949 . S
Zn359 O366 1.919 . S
Zn359 O371 1.924 . S
O360 Zn359 1.949 . S
O360 Zn361 1.923 . S
O360 Zn362 1.950 . S
O360 Zn363 1.945 . S
Zn361 O360 1.923 . S
Zn361 O364 1.933 . S
Zn361 O367 1.941 . S
Zn361 O368 1.965 . S
Zn362 O360 1.950 . S
Zn362 O369 1.938 . S
Zn362 O370 1.906 . S
Zn362 O380 1.953 . S
Zn363 O360 1.945 . S
Zn363 O365 1.932 . S
Zn363 O372 1.977 . S
Zn363 O373 1.910 . S
O364 Zn361 1.933 . S
O364 C375 1.226 . S
O365 Zn363 1.932 . S
O365 C375 1.307 . S
O366 Zn359 1.919 . S
O366 C377 1.253 . S
O367 Zn361 1.941 . S
O367 C377 1.283 . S
O368 Zn361 1.965 . S
O368 C376 1.303 . S
O369 Zn362 1.938 . S
O369 C376 1.247 . S
O370 Zn362 1.906 . S
O370 C378 1.304 . S
O371 Zn359 1.924 . S
O371 C379 1.311 . S
O372 Zn363 1.977 . S
O372 C378 1.272 . S
O373 Zn363 1.910 . S
O373 C379 1.231 . S
C374 O358 1.225 . S
C374 O380 1.298 . S
C375 O364 1.226 . S
C375 O365 1.307 . S
C376 O368 1.303 . S
C376 O369 1.247 . S
C377 O366 1.253 . S
C377 O367 1.283 . S
C378 O370 1.304 . S
C378 O372 1.272 . S
C379 O371 1.311 . S
C379 O373 1.231 . S
O380 Zn362 1.953 . S
O380 C374 1.298 . S
O381 Zn382 1.953 . S
O381 C397 1.225 . S
Zn382 O381 1.953 . S
Zn382 O383 1.949 1_655 S
Zn382 O389 1.919 . S
Zn382 O394 1.924 . S
O383 Zn382 1.949 1_455 S
O383 Zn384 1.923 1_454 S
O383 Zn385 1.950 . S
O383 Zn386 1.945 1_554 S
Zn384 O383 1.923 1_656 S
Zn384 O387 1.933 1_655 S
Zn384 O390 1.941 . S
Zn384 O391 1.965 . S
Zn385 O383 1.950 . S
Zn385 O392 1.938 . S
Zn385 O393 1.906 . S
Zn385 O403 1.953 . S
Zn386 O383 1.945 1_556 S
Zn386 O388 1.932 . S
Zn386 O395 1.977 1_556 S
Zn386 O396 1.910 1_556 S
O387 Zn384 1.933 1_455 S
O387 C398 1.226 . S
O388 Zn386 1.932 . S
O388 C398 1.307 . S
O389 Zn382 1.919 . S
O389 C400 1.253 1_554 S
O390 Zn384 1.941 . S
O390 C400 1.283 . S
O391 Zn384 1.965 . S
O391 C399 1.303 . S
O392 Zn385 1.938 . S
O392 C399 1.247 1_454 S
O393 Zn385 1.906 . S
O393 C401 1.304 . S
O394 Zn382 1.924 . S
O394 C402 1.311 1_655 S
O395 Zn386 1.977 1_554 S
O395 C401 1.272 . S
O396 Zn386 1.910 1_554 S
O396 C402 1.231 . S
C397 O381 1.225 . S
C397 O403 1.298 1_655 S
C398 O387 1.226 . S
C398 O388 1.307 . S
C399 O391 1.303 . S
C399 O392 1.247 1_656 S
C400 O389 1.253 1_556 S
C400 O390 1.283 . S
C401 O393 1.304 . S
C401 O395 1.272 . S
C402 O394 1.311 1_455 S
C402 O396 1.231 . S
O403 Zn385 1.953 . S
O403 C397 1.298 1_455 S
C404 C405 1.387 . S
C404 H408 0.950 . S
C404 C413 1.390 . S
C405 C404 1.387 . S
C405 C407 1.387 . S
H406 C413 0.950 . S
C407 C405 1.387 . S
C407 C409 1.390 . S
C407 H411 0.950 . S
H408 C404 0.950 . S
C409 C407 1.390 . S
C409 C410 1.387 . S
C409 H412 0.950 . S
C410 C409 1.387 . S
C410 C413 1.387 . S
H411 C407 0.950 . S
H412 C409 0.950 . S
C413 C404 1.390 . S
C413 H406 0.950 . S
C413 C410 1.387 . S
C414 C415 1.387 . S
C414 H418 0.950 . S
C414 C423 1.390 . S
C415 C414 1.387 . S
C415 C417 1.387 . S
H416 C423 0.950 . S
C417 C415 1.387 . S
C417 C419 1.390 . S
C417 H421 0.950 . S
H418 C414 0.950 . S
C419 C417 1.390 . S
C419 C420 1.387 . S
C419 H422 0.950 . S
C420 C419 1.387 . S
C420 C423 1.387 . S
H421 C417 0.950 . S
H422 C419 0.950 . S
C423 C414 1.390 . S
C423 H416 0.950 . S
C423 C420 1.387 . S
C424 C425 1.387 . S
C424 H428 0.950 . S
C424 C433 1.390 . S
C425 C424 1.387 . S
C425 C427 1.387 . S
H426 C433 0.950 . S
C427 C425 1.387 . S
C427 C429 1.390 . S
C427 H431 0.950 . S
H428 C424 0.950 . S
C429 C427 1.390 . S
C429 C430 1.387 . S
C429 H432 0.950 . S
C430 C429 1.387 . S
C430 C433 1.387 . S
H431 C427 0.950 . S
H432 C429 0.950 . S
C433 C424 1.390 . S
C433 H426 0.950 . S
C433 C430 1.387 . S
C434 C435 1.387 . S
C434 H438 0.950 . S
C434 C443 1.390 . S
C435 C434 1.387 . S
C435 C437 1.387 . S
H436 C443 0.950 . S
C437 C435 1.387 . S
C437 C439 1.390 . S
C437 H441 0.950 . S
H438 C434 0.950 . S
C439 C437 1.390 . S
C439 C440 1.387 . S
C439 H442 0.950 . S
C440 C439 1.387 . S
C440 C443 1.387 . S
H441 C437 0.950 . S
H442 C439 0.950 . S
C443 C434 1.390 . S
C443 H436 0.950 . S
C443 C440 1.387 . S
C444 C445 1.387 . S
C444 H448 0.950 . S
C444 C453 1.390 . S
C445 C444 1.387 . S
C445 C447 1.387 . S
H446 C453 0.950 . S
C447 C445 1.387 . S
C447 C449 1.390 . S
C447 H451 0.950 . S
H448 C444 0.950 . S
C449 C447 1.390 . S
C449 C450 1.387 . S
C449 H452 0.950 . S
C450 C449 1.387 . S
C450 C453 1.387 . S
H451 C447 0.950 . S
H452 C449 0.950 . S
C453 C444 1.390 . S
C453 H446 0.950 . S
C453 C450 1.387 . S
C454 C455 1.387 . S
C454 H458 0.950 . S
C454 C463 1.390 . S
C455 C454 1.387 . S
C455 C457 1.387 . S
H456 C463 0.950 1_545 S
C457 C455 1.387 . S
C457 C459 1.390 . S
C457 H461 0.950 . S
H458 C454 0.950 . S
C459 C457 1.390 . S
C459 C460 1.387 . S
C459 H462 0.950 . S
C460 C459 1.387 . S
C460 C463 1.387 . S
H461 C457 0.950 . S
H462 C459 0.950 . S
C463 C454 1.390 . S
C463 H456 0.950 1_565 S
C463 C460 1.387 . S
C464 C465 1.387 . S
C464 H468 0.950 . S
C464 C473 1.390 . S
C465 C464 1.387 . S
C465 C467 1.387 . S
H466 C473 0.950 . S
C467 C465 1.387 . S
C467 C469 1.390 . S
C467 H471 0.950 1_556 S
H468 C464 0.950 . S
C469 C467 1.390 . S
C469 C470 1.387 . S
C469 H472 0.950 1_556 S
C470 C469 1.387 . S
C470 C473 1.387 . S
H471 C467 0.950 1_554 S
H472 C469 0.950 1_554 S
C473 C464 1.390 . S
C473 H466 0.950 . S
C473 C470 1.387 . S
C474 C475 1.387 . S
C474 H478 0.950 . S
C474 C483 1.390 . S
C475 C474 1.387 . S
C475 C477 1.387 . S
H476 C483 0.950 . S
C477 C475 1.387 . S
C477 C479 1.390 . S
C477 H481 0.950 . S
H478 C474 0.950 . S
C479 C477 1.390 . S
C479 C480 1.387 . S
C479 H482 0.950 . S
C480 C479 1.387 . S
C480 C483 1.387 . S
H481 C477 0.950 . S
H482 C479 0.950 . S
C483 C474 1.390 . S
C483 H476 0.950 . S
C483 C480 1.387 . S
C484 C485 1.387 . S
C484 H488 0.950 . S
C484 C493 1.390 . S
C485 C484 1.387 . S
C485 C487 1.387 . S
H486 C493 0.950 . S
C487 C485 1.387 . S
C487 C489 1.390 . S
C487 H491 0.950 . S
H488 C484 0.950 . S
C489 C487 1.390 . S
C489 C490 1.387 . S
C489 H492 0.950 . S
C490 C489 1.387 . S
C490 C493 1.387 . S
H491 C487 0.950 . S
H492 C489 0.950 . S
C493 C484 1.390 . S
C493 H486 0.950 . S
C493 C490 1.387 . S
C494 C495 1.387 . S
C494 H498 0.950 . S
C494 C503 1.390 . S
C495 C494 1.387 . S
C495 C497 1.390 . S
H496 C503 0.950 . S
C497 C495 1.390 . S
C497 C499 1.390 1_556 S
C497 H501 0.948 1_556 S
H498 C494 0.950 . S
C499 C497 1.390 1_554 S
C499 C500 1.387 1_554 S
C499 H502 0.950 . S
C500 C499 1.387 1_556 S
C500 C503 1.387 . S
H501 C497 0.948 1_554 S
H502 C499 0.950 . S
C503 C494 1.390 . S
C503 H496 0.950 . S
C503 C500 1.387 . S
C504 C505 1.387 . S
C504 H508 0.950 1_655 S
C504 C513 1.390 . S
C505 C504 1.387 . S
C505 C507 1.387 . S
H506 C513 0.951 1_455 S
C507 C505 1.387 . S
C507 C509 1.390 . S
C507 H511 0.950 . S
H508 C504 0.950 1_455 S
C509 C507 1.390 . S
C509 C510 1.387 . S
C509 H512 0.950 . S
C510 C509 1.387 . S
C510 C513 1.386 . S
H511 C507 0.950 . S
H512 C509 0.950 . S
C513 C504 1.390 . S
C513 H506 0.951 1_655 S
C513 C510 1.386 . S
C514 C515 1.387 . S
C514 H518 0.950 . S
C514 C523 1.390 . S
C515 C514 1.387 . S
C515 C517 1.387 . S
H516 C523 0.950 . S
C517 C515 1.387 . S
C517 C519 1.390 . S
C517 H521 0.950 . S
H518 C514 0.950 . S
C519 C517 1.390 . S
C519 C520 1.387 . S
C519 H522 0.950 . S
C520 C519 1.387 . S
C520 C523 1.387 . S
H521 C517 0.950 . S
H522 C519 0.950 . S
C523 C514 1.390 . S
C523 H516 0.950 . S
C523 C520 1.387 . S
C524 C525 1.387 1_565 S
C524 H528 0.950 . S
C524 C533 1.390 . S
C525 C524 1.387 1_545 S
C525 C527 1.387 . S
H526 C533 0.950 . S
C527 C525 1.387 . S
C527 C529 1.390 . S
C527 H531 0.950 . S
H528 C524 0.950 . S
C529 C527 1.390 . S
C529 C530 1.387 . S
C529 H532 0.950 . S
C530 C529 1.387 . S
C530 C533 1.387 1_545 S
H531 C527 0.950 . S
H532 C529 0.950 . S
C533 C524 1.390 . S
C533 H526 0.950 . S
C533 C530 1.387 1_565 S
C534 C535 1.387 . S
C534 H538 0.950 . S
C534 C543 1.390 . S
C535 C534 1.387 . S
C535 C537 1.387 1_545 S
H536 C543 0.950 . S
C537 C535 1.387 1_565 S
C537 C539 1.390 . S
C537 H541 0.950 . S
H538 C534 0.950 . S
C539 C537 1.390 . S
C539 C540 1.387 1_565 S
C539 H542 0.950 . S
C540 C539 1.387 1_545 S
C540 C543 1.387 . S
H541 C537 0.950 . S
H542 C539 0.950 . S
C543 C534 1.390 . S
C543 H536 0.950 . S
C543 C540 1.387 . S
C544 C545 1.387 . S
C544 H548 0.950 . S
C544 C553 1.390 . S
C545 C544 1.387 . S
C545 C547 1.387 . S
H546 C553 0.950 . S
C547 C545 1.387 . S
C547 C549 1.390 . S
C547 H551 0.950 . S
H548 C544 0.950 . S
C549 C547 1.390 . S
C549 C550 1.387 . S
C549 H552 0.950 . S
C550 C549 1.387 . S
C550 C553 1.387 . S
H551 C547 0.950 . S
H552 C549 0.950 . S
C553 C544 1.390 . S
C553 H546 0.950 . S
C553 C550 1.387 . S
C554 C555 1.387 . S
C554 H558 0.950 . S
C554 C563 1.390 . S
C555 C554 1.387 . S
C555 C557 1.387 . S
H556 C563 0.950 . S
C557 C555 1.387 . S
C557 C559 1.390 . S
C557 H561 0.950 . S
H558 C554 0.950 . S
C559 C557 1.390 . S
C559 C560 1.387 . S
C559 H562 0.950 . S
C560 C559 1.387 . S
C560 C563 1.387 . S
H561 C557 0.950 . S
H562 C559 0.950 . S
C563 C554 1.390 . S
C563 H556 0.950 . S
C563 C560 1.387 . S
C564 C565 1.391 . S
C564 H568 0.950 . S
C564 C573 1.390 . S
C565 C564 1.391 . S
C565 C567 1.383 1_546 S
H566 C573 0.950 . S
C567 C565 1.383 1_564 S
C567 C569 1.390 . S
C567 H571 0.950 . S
H568 C564 0.950 . S
C569 C567 1.390 . S
C569 C570 1.387 1_554 S
C569 H572 0.950 . S
C570 C569 1.387 1_556 S
C570 C573 1.387 1_565 S
H571 C567 0.950 . S
H572 C569 0.950 . S
C573 C564 1.390 . S
C573 H566 0.950 . S
C573 C570 1.387 1_545 S
C574 C575 1.387 . S
C574 H578 0.950 . S
C574 C583 1.390 . S
C575 C574 1.387 . S
C575 C577 1.387 1_545 S
H576 C583 0.950 . S
C577 C575 1.387 1_565 S
C577 C579 1.390 . S
C577 H581 0.950 . S
H578 C574 0.950 . S
C579 C577 1.390 . S
C579 C580 1.387 1_565 S
C579 H582 0.950 . S
C580 C579 1.387 1_545 S
C580 C583 1.387 . S
H581 C577 0.950 . S
H582 C579 0.950 . S
C583 C574 1.390 . S
C583 H576 0.950 . S
C583 C580 1.387 . S
C584 C585 1.387 . S
C584 H588 0.950 . S
C584 C593 1.390 . S
C585 C584 1.387 . S
C585 C587 1.387 . S
H586 C593 0.950 . S
C587 C585 1.387 . S
C587 C589 1.390 . S
C587 H591 0.950 . S
H588 C584 0.950 . S
C589 C587 1.390 . S
C589 C590 1.387 . S
C589 H592 0.950 1_554 S
C590 C589 1.387 . S
C590 C593 1.387 . S
H591 C587 0.950 . S
H592 C589 0.950 1_556 S
C593 C584 1.390 . S
C593 H586 0.950 . S
C593 C590 1.387 . S
C594 C595 1.387 . S
C594 H598 0.950 . S
C594 C603 1.390 . S
C595 C594 1.387 . S
C595 C597 1.387 . S
H596 C603 0.950 . S
C597 C595 1.387 . S
C597 C599 1.390 . S
C597 H601 0.950 . S
H598 C594 0.950 . S
C599 C597 1.390 . S
C599 C600 1.387 . S
C599 H602 0.950 . S
C600 C599 1.387 . S
C600 C603 1.387 . S
H601 C597 0.950 . S
H602 C599 0.950 . S
C603 C594 1.390 . S
C603 H596 0.950 . S
C603 C600 1.387 . S
C604 C605 1.387 . S
C604 H608 0.950 . S
C604 C613 1.390 . S
C605 C604 1.387 . S
C605 C607 1.387 1_556 S
H606 C613 0.950 . S
C607 C605 1.387 1_554 S
C607 C609 1.390 . S
C607 H611 0.950 . S
H608 C604 0.950 . S
C609 C607 1.390 . S
C609 C610 1.387 1_554 S
C609 H612 0.950 . S
C610 C609 1.387 1_556 S
C610 C613 1.387 . S
H611 C607 0.950 . S
H612 C609 0.950 . S
C613 C604 1.390 . S
C613 H606 0.950 . S
C613 C610 1.387 . S
C614 C615 1.387 . S
C614 H618 0.950 . S
C614 C623 1.390 . S
C615 C614 1.387 . S
C615 C617 1.387 . S
H616 C623 0.950 . S
C617 C615 1.387 . S
C617 C619 1.390 . S
C617 H621 0.950 . S
H618 C614 0.950 . S
C619 C617 1.390 . S
C619 C620 1.387 . S
C619 H622 0.950 . S
C620 C619 1.387 . S
C620 C623 1.387 . S
H621 C617 0.950 . S
H622 C619 0.950 . S
C623 C614 1.390 . S
C623 H616 0.950 . S
C623 C620 1.387 . S
C624 C625 1.387 . S
C624 H628 0.950 . S
C624 C633 1.390 . S
C625 C624 1.387 . S
C625 C627 1.387 . S
H626 C633 0.950 . S
C627 C625 1.387 . S
C627 C629 1.390 . S
C627 H631 0.950 1_455 S
H628 C624 0.950 . S
C629 C627 1.390 . S
C629 C630 1.387 . S
C629 H632 0.950 1_455 S
C630 C629 1.387 . S
C630 C633 1.387 . S
H631 C627 0.950 1_655 S
H632 C629 0.950 1_655 S
C633 C624 1.390 . S
C633 H626 0.950 . S
C633 C630 1.387 . S
C634 C635 1.387 . S
C634 H638 0.950 . S
C634 C643 1.390 . S
C635 C634 1.387 . S
C635 C637 1.387 . S
H636 C643 0.950 . S
C637 C635 1.387 . S
C637 C639 1.390 . S
C637 H641 0.950 . S
H638 C634 0.950 . S
C639 C637 1.390 . S
C639 C640 1.387 . S
C639 H642 0.950 . S
C640 C639 1.387 . S
C640 C643 1.387 . S
H641 C637 0.950 . S
H642 C639 0.950 . S
C643 C634 1.390 . S
C643 H636 0.950 . S
C643 C640 1.387 . S
C405 C1 1.618 . S
C410 C330 1.603 . S
C415 C40 1.600 . S
C420 C354 1.565 . S
C430 C374 1.504 . S
C425 C99 1.484 . S
C435 C118 1.477 . S
C440 C397 1.508 . S
C450 C356 1.645 . S
C445 C16 1.697 . S
C460 C332 1.636 . S
C455 C60 1.675 . S
C470 C400 1.606 . S
C465 C79 1.668 . S
C480 C377 1.571 . S
C475 C138 1.621 . S
C485 C21 1.453 . S
C490 C402 1.403 . S
C500 C351 1.669 . S
C495 C94 1.641 . S
C505 C133 1.618 . S
C510 C329 1.640 . S
C515 C55 1.448 . S
C520 C379 1.399 . S
C530 C333 1.792 1_545 S
C525 C157 1.715 1_545 S
C535 C196 1.685 . S
C540 C355 1.720 . S
C545 C255 1.778 . S
C550 C375 1.832 . S
C555 C289 1.790 . S
C560 C398 1.834 . S
C565 C172 1.683 1_545 S
C570 C353 1.681 . S
C580 C331 1.754 . S
C575 C216 1.679 . S
C590 C401 1.593 . S
C585 C235 1.596 . S
C600 C378 1.592 . S
C595 C294 1.591 . S
C605 C177 1.895 . S
C610 C399 1.893 . S
C620 C352 1.697 . S
C615 C250 1.656 . S
C630 C328 1.689 . S
C625 C274 1.641 . S
C635 C211 1.880 . S
C640 C376 1.872 . S
