# Generated by pormake.
# Topology eea, (3,6)-cn, num edge types: 1
# Building blocks:
#     Node 0, Type 0, BuildingBlock: PAMTOO_clean_linker_0, # of connection points: 3
#     Node 1, Type 0, BuildingBlock: PAMTOO_clean_linker_0, # of connection points: 3
#     Node 2, Type 0, BuildingBlock: PAMTOO_clean_linker_0, # of connection points: 3
#     Node 3, Type 0, BuildingBlock: PAMTOO_clean_linker_0, # of connection points: 3
#     Node 4, Type 0, BuildingBlock: PAMTOO_clean_linker_0, # of connection points: 3
#     Node 5, Type 0, BuildingBlock: PAMTOO_clean_linker_0, # of connection points: 3
#     Node 6, Type 0, BuildingBlock: PAMTOO_clean_linker_0, # of connection points: 3
#     Node 7, Type 0, BuildingBlock: PAMTOO_clean_linker_0, # of connection points: 3
#     Node 8, Type 0, BuildingBlock: PAMTOO_clean_linker_0, # of connection points: 3
#     Node 9, Type 0, BuildingBlock: PAMTOO_clean_linker_0, # of connection points: 3
#     Node 10, Type 0, BuildingBlock: PAMTOO_clean_linker_0, # of connection points: 3
#     Node 11, Type 0, BuildingBlock: PAMTOO_clean_linker_0, # of connection points: 3
#     Node 12, Type 0, BuildingBlock: PAMTOO_clean_linker_0, # of connection points: 3
#     Node 13, Type 0, BuildingBlock: PAMTOO_clean_linker_0, # of connection points: 3
#     Node 14, Type 0, BuildingBlock: PAMTOO_clean_linker_0, # of connection points: 3
#     Node 15, Type 0, BuildingBlock: PAMTOO_clean_linker_0, # of connection points: 3
#     Node 16, Type 0, BuildingBlock: PAMTOO_clean_linker_0, # of connection points: 3
#     Node 17, Type 0, BuildingBlock: PAMTOO_clean_linker_0, # of connection points: 3
#     Node 18, Type 1, BuildingBlock: CUWYAW_clean_sbu_0, # of connection points: 6
#     Node 19, Type 1, BuildingBlock: CUWYAW_clean_sbu_0, # of connection points: 6
#     Node 20, Type 1, BuildingBlock: CUWYAW_clean_sbu_0, # of connection points: 6
#     Node 21, Type 1, BuildingBlock: CUWYAW_clean_sbu_0, # of connection points: 6
#     Node 22, Type 1, BuildingBlock: CUWYAW_clean_sbu_0, # of connection points: 6
#     Node 23, Type 1, BuildingBlock: CUWYAW_clean_sbu_0, # of connection points: 6
#     Node 24, Type 1, BuildingBlock: CUWYAW_clean_sbu_0, # of connection points: 6
#     Node 25, Type 1, BuildingBlock: CUWYAW_clean_sbu_0, # of connection points: 6
#     Node 26, Type 1, BuildingBlock: CUWYAW_clean_sbu_0, # of connection points: 6
#     Edge 27, Type (0, 1), BuildingBlock: XUDNAN_clean_linker_2, # of connection points: 2
#     Edge 28, Type (0, 1), BuildingBlock: XUDNAN_clean_linker_2, # of connection points: 2
#     Edge 29, Type (0, 1), BuildingBlock: XUDNAN_clean_linker_2, # of connection points: 2
#     Edge 30, Type (0, 1), BuildingBlock: XUDNAN_clean_linker_2, # of connection points: 2
#     Edge 31, Type (0, 1), BuildingBlock: XUDNAN_clean_linker_2, # of connection points: 2
#     Edge 32, Type (0, 1), BuildingBlock: XUDNAN_clean_linker_2, # of connection points: 2
#     Edge 33, Type (0, 1), BuildingBlock: XUDNAN_clean_linker_2, # of connection points: 2
#     Edge 34, Type (0, 1), BuildingBlock: XUDNAN_clean_linker_2, # of connection points: 2
#     Edge 35, Type (0, 1), BuildingBlock: XUDNAN_clean_linker_2, # of connection points: 2
#     Edge 36, Type (0, 1), BuildingBlock: XUDNAN_clean_linker_2, # of connection points: 2
#     Edge 37, Type (0, 1), BuildingBlock: XUDNAN_clean_linker_2, # of connection points: 2
#     Edge 38, Type (0, 1), BuildingBlock: XUDNAN_clean_linker_2, # of connection points: 2
#     Edge 39, Type (0, 1), BuildingBlock: XUDNAN_clean_linker_2, # of connection points: 2
#     Edge 40, Type (0, 1), BuildingBlock: XUDNAN_clean_linker_2, # of connection points: 2
#     Edge 41, Type (0, 1), BuildingBlock: XUDNAN_clean_linker_2, # of connection points: 2
#     Edge 42, Type (0, 1), BuildingBlock: XUDNAN_clean_linker_2, # of connection points: 2
#     Edge 43, Type (0, 1), BuildingBlock: XUDNAN_clean_linker_2, # of connection points: 2
#     Edge 44, Type (0, 1), BuildingBlock: XUDNAN_clean_linker_2, # of connection points: 2
#     Edge 45, Type (0, 1), BuildingBlock: XUDNAN_clean_linker_2, # of connection points: 2
#     Edge 46, Type (0, 1), BuildingBlock: XUDNAN_clean_linker_2, # of connection points: 2
#     Edge 47, Type (0, 1), BuildingBlock: XUDNAN_clean_linker_2, # of connection points: 2
#     Edge 48, Type (0, 1), BuildingBlock: XUDNAN_clean_linker_2, # of connection points: 2
#     Edge 49, Type (0, 1), BuildingBlock: XUDNAN_clean_linker_2, # of connection points: 2
#     Edge 50, Type (0, 1), BuildingBlock: XUDNAN_clean_linker_2, # of connection points: 2
#     Edge 51, Type (0, 1), BuildingBlock: XUDNAN_clean_linker_2, # of connection points: 2
#     Edge 52, Type (0, 1), BuildingBlock: XUDNAN_clean_linker_2, # of connection points: 2
#     Edge 53, Type (0, 1), BuildingBlock: XUDNAN_clean_linker_2, # of connection points: 2
#     Edge 54, Type (0, 1), BuildingBlock: XUDNAN_clean_linker_2, # of connection points: 2
#     Edge 55, Type (0, 1), BuildingBlock: XUDNAN_clean_linker_2, # of connection points: 2
#     Edge 56, Type (0, 1), BuildingBlock: XUDNAN_clean_linker_2, # of connection points: 2
#     Edge 57, Type (0, 1), BuildingBlock: XUDNAN_clean_linker_2, # of connection points: 2
#     Edge 58, Type (0, 1), BuildingBlock: XUDNAN_clean_linker_2, # of connection points: 2
#     Edge 59, Type (0, 1), BuildingBlock: XUDNAN_clean_linker_2, # of connection points: 2
#     Edge 60, Type (0, 1), BuildingBlock: XUDNAN_clean_linker_2, # of connection points: 2
#     Edge 61, Type (0, 1), BuildingBlock: XUDNAN_clean_linker_2, # of connection points: 2
#     Edge 62, Type (0, 1), BuildingBlock: XUDNAN_clean_linker_2, # of connection points: 2
#     Edge 63, Type (0, 1), BuildingBlock: XUDNAN_clean_linker_2, # of connection points: 2
#     Edge 64, Type (0, 1), BuildingBlock: XUDNAN_clean_linker_2, # of connection points: 2
#     Edge 65, Type (0, 1), BuildingBlock: XUDNAN_clean_linker_2, # of connection points: 2
#     Edge 66, Type (0, 1), BuildingBlock: XUDNAN_clean_linker_2, # of connection points: 2
#     Edge 67, Type (0, 1), BuildingBlock: XUDNAN_clean_linker_2, # of connection points: 2
#     Edge 68, Type (0, 1), BuildingBlock: XUDNAN_clean_linker_2, # of connection points: 2
#     Edge 69, Type (0, 1), BuildingBlock: XUDNAN_clean_linker_2, # of connection points: 2
#     Edge 70, Type (0, 1), BuildingBlock: XUDNAN_clean_linker_2, # of connection points: 2
#     Edge 71, Type (0, 1), BuildingBlock: XUDNAN_clean_linker_2, # of connection points: 2
#     Edge 72, Type (0, 1), BuildingBlock: XUDNAN_clean_linker_2, # of connection points: 2
#     Edge 73, Type (0, 1), BuildingBlock: XUDNAN_clean_linker_2, # of connection points: 2
#     Edge 74, Type (0, 1), BuildingBlock: XUDNAN_clean_linker_2, # of connection points: 2
#     Edge 75, Type (0, 1), BuildingBlock: XUDNAN_clean_linker_2, # of connection points: 2
#     Edge 76, Type (0, 1), BuildingBlock: XUDNAN_clean_linker_2, # of connection points: 2
#     Edge 77, Type (0, 1), BuildingBlock: XUDNAN_clean_linker_2, # of connection points: 2
#     Edge 78, Type (0, 1), BuildingBlock: XUDNAN_clean_linker_2, # of connection points: 2
#     Edge 79, Type (0, 1), BuildingBlock: XUDNAN_clean_linker_2, # of connection points: 2
#     Edge 80, Type (0, 1), BuildingBlock: XUDNAN_clean_linker_2, # of connection points: 2
# Relax obj value: 0.057
# Max RMSD: 0.207
# Mean RMSD: 0.146
data_MOF--net-eea--node1-CUWYAW_clean_sbu_0--node2-PAMTOO_clean_linker_0--edge1-XUDNAN_clean_linker_2
_symmetry_space_group_name_H-M    P1
_symmetry_Int_Tables_number       1
_symmetry_cell_setting            triclinic
loop_
_symmetry_equiv_pos_as_xyz
'x, y, z'
_cell_length_a     54.599569
_cell_length_b     54.235682
_cell_length_c     69.565745
_cell_angle_alpha  93.213739
_cell_angle_beta   93.361388
_cell_angle_gamma 119.81441
loop_
_atom_site_label
_atom_site_type_symbol
_atom_site_fract_x
_atom_site_fract_y
_atom_site_fract_z
_atom_type_partial_charge
H0 H 0.24011 0.08613 0.42851 0.0
H1 H 0.22851 0.15838 0.42238 0.0
H2 H 0.21041 0.09859 0.37318 0.0
H3 H 0.22887 0.15647 0.35977 0.0
C4 C 0.23158 0.16633 0.37476 0.0
O5 O 0.21208 0.14614 0.38547 0.0
H6 H 0.2537 0.17345 0.38081 0.0
C7 C 0.23385 0.09826 0.41966 0.0
C8 C 0.225 0.08907 0.39988 0.0
C9 C 0.23523 0.12319 0.42805 0.0
C10 C 0.22762 0.13908 0.41631 0.0
C11 C 0.21864 0.13016 0.39663 0.0
C12 C 0.21698 0.10502 0.38849 0.0
H13 H 0.96353 0.1851 0.43882 0.0
H14 H 0.88386 0.10579 0.43323 0.0
H15 H 0.93185 0.13317 0.38427 0.0
H16 H 0.86539 0.09654 0.37372 0.0
C17 C 0.86107 0.08664 0.38762 0.0
O18 O 0.88642 0.0921 0.39719 0.0
H19 H 0.8509 0.09612 0.39645 0.0
C20 C 0.94699 0.16632 0.43007 0.0
C21 C 0.95041 0.16185 0.41051 0.0
C22 C 0.9229 0.1465 0.4385 0.0
C23 C 0.90201 0.12198 0.42694 0.0
C24 C 0.90506 0.11734 0.4074 0.0
C25 C 0.92905 0.13747 0.39914 0.0
H26 H 0.85511 0.79277 0.4408 0.0
H27 H 0.93849 0.8022 0.44571 0.0
H28 H 0.90285 0.80908 0.3912 0.0
H29 H 0.93083 0.77132 0.39427 0.0
C30 C 0.95047 0.78815 0.40301 0.0
O31 O 0.94688 0.81058 0.40951 0.0
H32 H 0.95427 0.77835 0.41564 0.0
C33 C 0.87416 0.79668 0.43437 0.0
C34 C 0.87601 0.80092 0.4146 0.0
C35 C 0.89648 0.79702 0.44584 0.0
C36 C 0.92115 0.8022 0.4373 0.0
C37 C 0.92324 0.80624 0.41762 0.0
C38 C 0.90076 0.80562 0.40635 0.0
H39 H 0.06789 0.23737 0.58229 0.0
H40 H 0.14275 0.2315 0.57442 0.0
H41 H 0.10138 0.20578 0.62595 0.0
H42 H 0.16833 0.24648 0.62577 0.0
C43 C 0.17004 0.23115 0.61537 0.0
O44 O 0.14341 0.21057 0.60704 0.0
H45 H 0.18296 0.24351 0.60392 0.0
C46 C 0.08344 0.23172 0.5873 0.0
C47 C 0.08178 0.22117 0.6055 0.0
C48 C 0.10551 0.23597 0.57587 0.0
C49 C 0.12527 0.22813 0.58263 0.0
C50 C 0.12374 0.21731 0.60061 0.0
C51 C 0.10219 0.21402 0.61203 0.0
H52 H 0.79329 0.83887 0.58985 0.0
H53 H 0.7925 0.91771 0.58837 0.0
H54 H 0.81527 0.89582 0.64201 0.0
H55 H 0.78215 0.92732 0.64457 0.0
C56 C 0.79199 0.94159 0.63305 0.0
O57 O 0.81086 0.93527 0.62476 0.0
H58 H 0.77498 0.93814 0.62177 0.0
C59 C 0.79533 0.8579 0.59745 0.0
C60 C 0.80436 0.86442 0.61743 0.0
C61 C 0.79073 0.87696 0.58697 0.0
C62 C 0.79491 0.90244 0.59649 0.0
C63 C 0.80363 0.90912 0.61629 0.0
C64 C 0.80804 0.89006 0.62673 0.0
H65 H 0.15762 0.93258 0.58102 0.0
H66 H 0.07251 0.8612 0.5778 0.0
H67 H 0.11424 0.90948 0.6325 0.0
H68 H 0.08272 0.84224 0.62793 0.0
C69 C 0.06345 0.83924 0.61928 0.0
O70 O 0.06753 0.86546 0.61476 0.0
H71 H 0.06039 0.82569 0.60573 0.0
C72 C 0.13897 0.91879 0.58803 0.0
C73 C 0.13895 0.92398 0.60806 0.0
C74 C 0.11528 0.89617 0.57689 0.0
C75 C 0.09088 0.87902 0.58601 0.0
C76 C 0.09053 0.88362 0.60604 0.0
C77 C 0.11449 0.90625 0.61701 0.0
H78 H 0.90404 0.41224 0.75705 0.0
H79 H 0.88019 0.47679 0.75437 0.0
H80 H 0.86621 0.42088 0.70364 0.0
H81 H 0.88588 0.48292 0.69577 0.0
C82 C 0.87903 0.48898 0.70909 0.0
O83 O 0.86184 0.46462 0.71781 0.0
H84 H 0.89832 0.50347 0.7191 0.0
C85 C 0.8949 0.42276 0.749 0.0
C86 C 0.88508 0.41345 0.72934 0.0
C87 C 0.89336 0.44559 0.75831 0.0
C88 C 0.88186 0.4593 0.74756 0.0
C89 C 0.87238 0.45066 0.72789 0.0
C90 C 0.87363 0.42749 0.71884 0.0
H91 H 0.61058 0.50935 0.7633 0.0
H92 H 0.5456 0.42123 0.76275 0.0
H93 H 0.57843 0.45403 0.70976 0.0
H94 H 0.51389 0.40919 0.70588 0.0
C95 C 0.51467 0.39841 0.71883 0.0
O96 O 0.54267 0.40869 0.72575 0.0
H97 H 0.50351 0.40303 0.73015 0.0
C98 C 0.59645 0.48873 0.75534 0.0
C99 C 0.59707 0.48487 0.73516 0.0
C100 C 0.578 0.46586 0.76541 0.0
C101 C 0.55977 0.4391 0.75517 0.0
C102 C 0.5595 0.43507 0.73514 0.0
C103 C 0.57812 0.45783 0.72517 0.0
H104 H 0.50764 0.0846 0.76756 0.0
H105 H 0.59293 0.09859 0.77237 0.0
H106 H 0.56212 0.12127 0.72237 0.0
H107 H 0.59955 0.09849 0.71303 0.0
C108 C 0.61161 0.10298 0.72748 0.0
O109 O 0.60559 0.12026 0.73934 0.0
H110 H 0.60491 0.08236 0.73369 0.0
C111 C 0.52804 0.09241 0.76194 0.0
C112 C 0.53212 0.10332 0.74373 0.0
C113 C 0.54965 0.09007 0.77237 0.0
C114 C 0.57578 0.09961 0.76452 0.0
C115 C 0.58015 0.11068 0.74652 0.0
C116 C 0.55839 0.1125 0.73622 0.0
H117 H 0.72506 0.5689 0.91754 0.0
H118 H 0.80267 0.56779 0.91136 0.0
H119 H 0.76335 0.54613 0.96401 0.0
H120 H 0.8284 0.58861 0.96405 0.0
C121 C 0.83183 0.57435 0.95377 0.0
O122 O 0.80608 0.55196 0.94558 0.0
H123 H 0.84393 0.58731 0.94224 0.0
C124 C 0.74174 0.56525 0.92327 0.0
C125 C 0.7413 0.55705 0.94217 0.0
C126 C 0.76379 0.5694 0.9119 0.0
C127 C 0.78517 0.56437 0.91957 0.0
C128 C 0.78501 0.55615 0.93831 0.0
C129 C 0.76321 0.55259 0.94956 0.0
H130 H 0.44631 0.1743 0.92546 0.0
H131 H 0.46782 0.26212 0.93712 0.0
H132 H 0.48829 0.2211 0.98079 0.0
H133 H 0.4814 0.27069 1.00032 0.0
C134 C 0.47376 0.27233 0.98555 0.0
O135 O 0.48969 0.26816 0.97239 0.0
H136 H 0.45095 0.2554 0.98301 0.0
C137 C 0.45564 0.19382 0.93508 0.0
C138 C 0.46758 0.19461 0.95379 0.0
C139 C 0.45543 0.21799 0.92881 0.0
C140 C 0.46738 0.24309 0.94156 0.0
C141 C 0.47908 0.24407 0.96018 0.0
C142 C 0.47945 0.22005 0.96621 0.0
H143 H 0.8345 0.2828 0.9229 0.0
H144 H 0.75778 0.20087 0.91512 0.0
H145 H 0.78791 0.24527 0.97156 0.0
H146 H 0.7577 0.18318 0.97226 0.0
C147 C 0.7445 0.17708 0.95814 0.0
O148 O 0.74664 0.20124 0.95101 0.0
H149 H 0.75247 0.16673 0.94797 0.0
C150 C 0.8172 0.26539 0.92903 0.0
C151 C 0.81428 0.26755 0.94901 0.0
C152 C 0.79716 0.24133 0.91663 0.0
C153 C 0.77364 0.2195 0.92434 0.0
C154 C 0.77035 0.22135 0.94403 0.0
C155 C 0.79078 0.24489 0.95631 0.0
H156 H 0.5585 0.73061 0.09238 0.0
H157 H 0.5538 0.80773 0.09604 0.0
H158 H 0.53544 0.75923 0.04131 0.0
H159 H 0.56371 0.81879 0.03598 0.0
C160 C 0.5624 0.82712 0.05063 0.0
O161 O 0.54072 0.80541 0.05912 0.0
H162 H 0.58308 0.8346 0.05933 0.0
C163 C 0.55428 0.74571 0.08549 0.0
C164 C 0.54708 0.74187 0.0653 0.0
C165 C 0.55623 0.76909 0.09685 0.0
C166 C 0.55153 0.78908 0.08773 0.0
C167 C 0.54436 0.78555 0.06776 0.0
C168 C 0.54158 0.76179 0.0567 0.0
H169 H 0.27714 0.83618 0.10209 0.0
H170 H 0.20722 0.75148 0.08579 0.0
H171 H 0.26746 0.79395 0.04532 0.0
H172 H 0.20398 0.74894 0.02463 0.0
C173 C 0.19725 0.74197 0.03908 0.0
O174 O 0.22089 0.74731 0.05099 0.0
H175 H 0.18744 0.75424 0.04487 0.0
C176 C 0.2656 0.81798 0.09136 0.0
C177 C 0.27581 0.81839 0.07313 0.0
C178 C 0.24122 0.7938 0.09625 0.0
C179 C 0.22617 0.77023 0.08235 0.0
C180 C 0.23527 0.77066 0.06393 0.0
C181 C 0.26006 0.79458 0.05934 0.0
H182 H 0.18636 0.46075 0.10753 0.0
H183 H 0.26477 0.46004 0.11258 0.0
H184 H 0.23052 0.46378 0.05708 0.0
H185 H 0.25641 0.42588 0.06209 0.0
C186 C 0.27644 0.44293 0.07032 0.0
O187 O 0.27355 0.46598 0.07628 0.0
H188 H 0.28059 0.43384 0.08323 0.0
C189 C 0.20346 0.46058 0.10059 0.0
C190 C 0.20507 0.46289 0.08043 0.0
C191 C 0.22454 0.45899 0.11231 0.0
C192 C 0.24812 0.46087 0.10388 0.0
C193 C 0.25017 0.46307 0.08408 0.0
C194 C 0.22851 0.46325 0.07242 0.0
H195 H 0.39885 0.90563 0.24681 0.0
H196 H 0.48164 0.91404 0.24784 0.0
H197 H 0.43748 0.89203 0.29821 0.0
H198 H 0.49862 0.92223 0.30861 0.0
C199 C 0.50516 0.91942 0.29419 0.0
O200 O 0.4818 0.89844 0.28257 0.0
H201 H 0.51404 0.94013 0.28772 0.0
C202 C 0.41632 0.90516 0.25459 0.0
C203 C 0.41425 0.89754 0.27383 0.0
C204 C 0.44087 0.91197 0.24516 0.0
C205 C 0.46315 0.91025 0.25501 0.0
C206 C 0.46143 0.90259 0.27393 0.0
C207 C 0.43755 0.89701 0.28338 0.0
H208 H 0.12137 0.50997 0.26137 0.0
H209 H 0.13166 0.59413 0.26398 0.0
H210 H 0.14134 0.56002 0.31631 0.0
H211 H 0.11658 0.59967 0.32272 0.0
C212 C 0.12088 0.60787 0.30828 0.0
O213 O 0.14228 0.6042 0.30152 0.0
H214 H 0.10085 0.59539 0.2985 0.0
C215 C 0.1259 0.52951 0.26974 0.0
C216 C 0.13127 0.53212 0.28997 0.0
C217 C 0.12603 0.5517 0.26019 0.0
C218 C 0.1315 0.57679 0.2711 0.0
C219 C 0.13704 0.57981 0.29128 0.0
C220 C 0.13721 0.55761 0.30069 0.0
H221 H 0.49051 0.63612 0.24658 0.0
H222 H 0.41281 0.55563 0.23724 0.0
H223 H 0.44484 0.59536 0.29493 0.0
H224 H 0.41923 0.52899 0.28392 0.0
C225 C 0.39927 0.52641 0.27661 0.0
O226 O 0.40254 0.55277 0.27353 0.0
H227 H 0.39484 0.51367 0.26244 0.0
C228 C 0.47296 0.61873 0.25252 0.0
C229 C 0.47086 0.61935 0.27267 0.0
C230 C 0.45262 0.5955 0.23974 0.0
C231 C 0.429 0.57331 0.24699 0.0
C232 C 0.4261 0.5737 0.26682 0.0
C233 C 0.44721 0.59621 0.27961 0.0
C234 C 0.53555 0.02672 0.06839 0.0
Eu235 Eu 0.51804 0.02029 0.03172 0.0
C236 C 0.52331 0.01188 0.0856 0.0
C237 C 0.52902 0.02776 0.10357 0.0
C238 C 0.51651 0.01427 0.11982 0.0
C239 C 0.49783 0.98456 0.11842 0.0
C240 C 0.49241 0.96866 0.10039 0.0
C241 C 0.50508 0.98216 0.08419 0.0
C242 C 0.49854 0.05103 0.01389 0.0
C243 C 0.45093 0.96909 0.02637 0.0
C244 C 0.46728 0.98855 0.9548 0.0
Eu245 Eu 0.4864 0.99456 0.9911 0.0
C246 C 0.47832 0.99859 0.93602 0.0
C247 C 0.47538 0.9786 0.92103 0.0
C248 C 0.48522 0.98727 0.9031 0.0
C249 C 0.49809 0.01619 0.89961 0.0
C250 C 0.50073 0.03624 0.91454 0.0
C251 C 0.49105 0.02756 0.93258 0.0
C252 C 0.50689 0.96422 0.00858 0.0
C253 C 0.55465 0.04428 0.9966 0.0
O254 O 0.54122 0.01274 0.05509 0.0
O255 O 0.5239 0.04054 0.06099 0.0
O256 O 0.52236 0.06244 0.02487 0.0
O257 O 0.48542 0.02415 0.01369 0.0
O258 O 0.4759 0.98225 0.03675 0.0
O259 O 0.44821 0.97294 0.00793 0.0
O260 O 0.46775 0.00722 0.96781 0.0
O261 O 0.474 0.97092 0.96241 0.0
O262 O 0.48328 0.95249 0.99732 0.0
O263 O 0.51926 0.99105 0.00898 0.0
O264 O 0.53017 0.03036 0.98551 0.0
O265 O 0.55642 0.04165 0.01535 0.0
H266 H 0.54291 0.05072 0.10499 0.0
H267 H 0.52096 0.02725 0.13338 0.0
H268 H 0.47843 0.94573 0.0988 0.0
H269 H 0.50032 0.96936 0.0705 0.0
H270 H 0.46538 0.95612 0.92316 0.0
H271 H 0.48246 0.97119 0.89186 0.0
H272 H 0.51073 0.0587 0.91238 0.0
H273 H 0.4936 0.04357 0.9438 0.0
C274 C 1.00623 0.52096 0.06947 0.0
Eu275 Eu 1.00306 0.49964 0.03435 0.0
C276 C 0.02104 0.52283 0.08831 0.0
C277 C 0.02894 0.50255 0.09239 0.0
C278 C 0.04358 0.50501 0.11022 0.0
C279 C 0.05086 0.52796 0.12423 0.0
C280 C 0.04303 0.54832 0.11994 0.0
C281 C 0.02822 0.54572 0.10215 0.0
C282 C 0.9715 0.4451 0.01775 0.0
C283 C 0.04635 0.48024 0.02059 0.0
C284 C 0.99314 0.46407 0.95307 0.0
Eu285 Eu 1.00539 0.48895 0.98823 0.0
C286 C 0.98338 0.46749 0.93357 0.0
C287 C 1.00151 0.48954 0.92283 0.0
C288 C 0.99222 0.49175 0.90416 0.0
C289 C 0.96461 0.47199 0.89577 0.0
C290 C 0.94648 0.45006 0.9066 0.0
C291 C 0.95579 0.44781 0.92524 0.0
C292 C 0.04466 0.54316 0.0031 0.0
C293 C 0.9656 0.51385 1.00219 0.0
O294 O 0.02247 0.53578 0.05651 0.0
O295 O 0.98602 0.4955 0.06227 0.0
O296 O 0.98221 0.45185 0.03575 0.0
O297 O 0.97596 0.46738 0.0102 0.0
O298 O 0.04086 0.49377 0.03461 0.0
O299 O 0.03274 0.47281 1.00283 0.0
O300 O 0.97483 0.45642 0.966 0.0
O301 O 0.01897 0.483 0.96037 0.0
O302 O 0.04049 0.53493 0.98467 0.0
O303 O 0.02722 0.5226 0.01142 0.0
O304 O 0.97514 0.506 0.98728 0.0
O305 O 0.97345 0.51324 0.02054 0.0
H306 H 0.02381 0.48483 0.08178 0.0
H307 H 0.04893 0.48874 0.11308 0.0
H308 H 0.0487 0.56655 0.13019 0.0
H309 H 0.02258 0.56176 0.09914 0.0
H310 H 0.02299 0.50496 0.92872 0.0
H311 H 0.00692 0.50865 0.89616 0.0
H312 H 0.92498 0.43467 0.90072 0.0
H313 H 0.94138 0.43054 0.93313 0.0
C314 C 0.49082 0.49315 0.94657 0.0
Eu315 Eu 0.50201 0.50916 0.98368 0.0
C316 C 0.50561 0.49192 0.92979 0.0
C317 C 0.49531 0.4937 0.9113 0.0
C318 C 0.5085 0.49195 0.89506 0.0
C319 C 0.53238 0.48846 0.89698 0.0
C320 C 0.54295 0.48719 0.91565 0.0
C321 C 0.52964 0.48884 0.9319 0.0
C322 C 0.51407 0.56049 1.00076 0.0
C323 C 0.5685 0.53002 0.99792 0.0
C324 C 0.53327 0.53599 0.06376 0.0
Eu325 Eu 0.52186 0.51969 0.02676 0.0
C326 C 0.52066 0.54286 0.07985 0.0
C327 C 0.52968 0.54157 0.09884 0.0
C328 C 0.5188 0.54881 0.11448 0.0
C329 C 0.49885 0.55775 0.1114 0.0
C330 C 0.48957 0.55875 0.09232 0.0
C331 C 0.50018 0.55105 0.07664 0.0
C332 C 0.50958 0.4682 0.00972 0.0
C333 C 0.45552 0.4984 0.0126 0.0
O334 O 0.48791 0.47586 0.95977 0.0
O335 O 0.49743 0.5186 0.95401 0.0
O336 O 0.49424 0.54635 0.98673 0.0
O337 O 0.52822 0.54829 0.00399 0.0
O338 O 0.54724 0.51753 0.98403 0.0
O339 O 0.56468 0.53625 0.01573 0.0
O340 O 0.54173 0.55371 0.05037 0.0
O341 O 0.52059 0.50924 0.05665 0.0
O342 O 0.53019 0.48289 0.02323 0.0
O343 O 0.4955 0.48053 0.00659 0.0
O344 O 0.47705 0.5126 0.02615 0.0
O345 O 0.45926 0.49101 0.99506 0.0
H346 H 0.47677 0.49607 0.90938 0.0
H347 H 0.49947 0.49255 0.88093 0.0
H348 H 0.56148 0.48486 0.91771 0.0
H349 H 0.53793 0.48741 0.94605 0.0
H350 H 0.5454 0.53522 0.10159 0.0
H351 H 0.52652 0.54808 0.12902 0.0
H352 H 0.47403 0.56532 0.08954 0.0
H353 H 0.49255 0.55168 0.06207 0.0
C354 C 0.20235 0.36345 0.40425 0.0
Eu355 Eu 0.18715 0.36155 0.3677 0.0
C356 C 0.18803 0.3491 0.42098 0.0
C357 C 0.15985 0.3419 0.42304 0.0
C358 C 0.14694 0.32929 0.43937 0.0
C359 C 0.16181 0.32331 0.45382 0.0
C360 C 0.18969 0.32969 0.45139 0.0
C361 C 0.20271 0.34258 0.43515 0.0
C362 C 0.16545 0.39224 0.35233 0.0
C363 C 0.12254 0.30646 0.35773 0.0
C364 C 0.14462 0.34103 0.28943 0.0
Eu365 Eu 0.16104 0.34226 0.3257 0.0
C366 C 0.15602 0.35778 0.27284 0.0
C367 C 0.14757 0.3439 0.25403 0.0
C368 C 0.15825 0.35914 0.23804 0.0
C369 C 0.17764 0.38873 0.2405 0.0
C370 C 0.18605 0.4026 0.25945 0.0
C371 C 0.17541 0.38727 0.27545 0.0
C372 C 0.18211 0.31097 0.34078 0.0
C373 C 0.22756 0.39451 0.33634 0.0
O374 O 0.20488 0.3474 0.39068 0.0
O375 O 0.19519 0.38114 0.39727 0.0
O376 O 0.18845 0.40345 0.36413 0.0
O377 O 0.15434 0.36544 0.34992 0.0
O378 O 0.1458 0.32103 0.36979 0.0
O379 O 0.12131 0.31275 0.33968 0.0
O380 O 0.13878 0.35324 0.30382 0.0
O381 O 0.1568 0.32687 0.2953 0.0
O382 O 0.15964 0.30027 0.32847 0.0
O383 O 0.19348 0.33782 0.34351 0.0
O384 O 0.20435 0.38247 0.3239 0.0
O385 O 0.22716 0.3868 0.35402 0.0
H386 H 0.14792 0.3463 0.41213 0.0
H387 H 0.12531 0.32427 0.44072 0.0
H388 H 0.20173 0.32549 0.46234 0.0
H389 H 0.22438 0.34778 0.43376 0.0
H390 H 0.13278 0.32112 0.2517 0.0
H391 H 0.15165 0.34758 0.22377 0.0
H392 H 0.20066 0.42537 0.26195 0.0
H393 H 0.18231 0.39847 0.28985 0.0
C394 C 0.67194 0.85697 0.39787 0.0
Eu395 Eu 0.67406 0.84039 0.36235 0.0
C396 C 0.68836 0.86037 0.41641 0.0
C397 C 0.67892 0.86463 0.43393 0.0
C398 C 0.69379 0.86657 0.4516 0.0
C399 C 0.71833 0.86411 0.45208 0.0
C400 C 0.72765 0.85985 0.43439 0.0
C401 C 0.71287 0.85809 0.41678 0.0
C402 C 0.63826 0.78782 0.34323 0.0
C403 C 0.71697 0.81734 0.35504 0.0
C404 C 0.68845 0.81648 0.28614 0.0
Eu405 Eu 0.68573 0.83408 0.32116 0.0
C406 C 0.67072 0.80888 0.2676 0.0
C407 C 0.68342 0.81371 0.25024 0.0
C408 C 0.66709 0.80808 0.23257 0.0
C409 C 0.63765 0.7974 0.23194 0.0
C410 C 0.62496 0.79216 0.24945 0.0
C411 C 0.64137 0.79803 0.2671 0.0
C412 C 0.72089 0.88641 0.34054 0.0
C413 C 0.64363 0.85764 0.32783 0.0
O414 O 0.68559 0.87468 0.38521 0.0
O415 O 0.65619 0.83072 0.39 0.0
O416 O 0.6478 0.79235 0.36134 0.0
O417 O 0.64701 0.81141 0.33624 0.0
O418 O 0.70945 0.83065 0.36779 0.0
O419 O 0.70786 0.81346 0.33649 0.0
O420 O 0.67753 0.79939 0.29968 0.0
O421 O 0.70131 0.84343 0.29277 0.0
O422 O 0.71197 0.88256 0.32234 0.0
O423 O 0.71235 0.86268 0.34717 0.0
O424 O 0.65048 0.84328 0.31546 0.0
O425 O 0.65224 0.86156 0.34657 0.0
H426 H 0.65999 0.86636 0.43394 0.0
H427 H 0.68618 0.87029 0.46486 0.0
H428 H 0.74615 0.85741 0.43411 0.0
H429 H 0.72047 0.85469 0.40343 0.0
H430 H 0.7061 0.82233 0.25036 0.0
H431 H 0.6777 0.81285 0.21947 0.0
H432 H 0.60233 0.78354 0.24954 0.0
H433 H 0.63114 0.79431 0.28038 0.0
C434 C 0.16282 0.84603 0.27661 0.0
Eu435 Eu 0.17495 0.85691 0.31396 0.0
C436 C 0.17227 0.83755 0.25938 0.0
C437 C 0.16515 0.8435 0.24125 0.0
C438 C 0.17368 0.8357 0.22455 0.0
C439 C 0.18952 0.82175 0.22567 0.0
C440 C 0.19678 0.81592 0.24396 0.0
C441 C 0.18829 0.82385 0.26071 0.0
C442 C 0.19114 0.90712 0.33486 0.0
C443 C 0.23881 0.86817 0.32774 0.0
C444 C 0.2108 0.88499 0.39485 0.0
Eu445 Eu 0.19542 0.86275 0.35905 0.0
C446 C 0.19699 0.88097 0.41285 0.0
C447 C 0.21175 0.89988 0.42937 0.0
C448 C 0.19817 0.898 0.44611 0.0
C449 C 0.16948 0.87714 0.44666 0.0
C450 C 0.15484 0.85796 0.43006 0.0
C451 C 0.16849 0.85987 0.4133 0.0
C452 C 0.17184 0.80756 0.34324 0.0
C453 C 0.12906 0.84262 0.34485 0.0
O454 O 0.15076 0.8268 0.28879 0.0
O455 O 0.18011 0.87164 0.2852 0.0
O456 O 0.17058 0.89584 0.32103 0.0
O457 O 0.2027 0.89207 0.33641 0.0
O458 O 0.21818 0.86031 0.31359 0.0
O459 O 0.23605 0.87281 0.34621 0.0
O460 O 0.20167 0.89537 0.38148 0.0
O461 O 0.21456 0.86424 0.38788 0.0
O462 O 0.1815 0.8157 0.36137 0.0
O463 O 0.17462 0.82893 0.33526 0.0
O464 O 0.15003 0.85343 0.359 0.0
O465 O 0.13291 0.83899 0.32649 0.0
H466 H 0.1528 0.85408 0.23998 0.0
H467 H 0.16739 0.84015 0.2107 0.0
H468 H 0.20921 0.80546 0.24532 0.0
H469 H 0.19417 0.81928 0.27465 0.0
H470 H 0.23363 0.91654 0.42919 0.0
H471 H 0.21 0.91347 0.45845 0.0
H472 H 0.13285 0.84147 0.42999 0.0
H473 H 0.15669 0.8452 0.4006 0.0
C474 C 0.84641 0.67144 0.73191 0.0
Eu475 Eu 0.83434 0.6759 0.69587 0.0
C476 C 0.83178 0.65715 0.74854 0.0
C477 C 0.80415 0.65142 0.75098 0.0
C478 C 0.79172 0.64032 0.76781 0.0
C479 C 0.80662 0.63456 0.78241 0.0
C480 C 0.83384 0.63926 0.77949 0.0
C481 C 0.84629 0.6505 0.76272 0.0
C482 C 0.83031 0.71989 0.68236 0.0
C483 C 0.76606 0.63586 0.68307 0.0
C484 C 0.80148 0.66962 0.61734 0.0
Eu485 Eu 0.81268 0.66611 0.65372 0.0
C486 C 0.81527 0.68758 0.6018 0.0
C487 C 0.80969 0.67463 0.58285 0.0
C488 C 0.82252 0.69085 0.56773 0.0
C489 C 0.84118 0.7205 0.5712 0.0
C490 C 0.84691 0.73345 0.59031 0.0
C491 C 0.83409 0.71712 0.6055 0.0
C492 C 0.81799 0.62286 0.66733 0.0
C493 C 0.88071 0.70657 0.66703 0.0
O494 O 0.84666 0.65516 0.71741 0.0
O495 O 0.84206 0.69168 0.7263 0.0
O496 O 0.85005 0.72287 0.69519 0.0
O497 O 0.8123 0.6937 0.67808 0.0
O498 O 0.78767 0.64342 0.69621 0.0
O499 O 0.76997 0.64481 0.66561 0.0
O500 O 0.79464 0.68106 0.63161 0.0
O501 O 0.812 0.65401 0.62319 0.0
O502 O 0.79738 0.61918 0.65505 0.0
O503 O 0.8356 0.64917 0.67125 0.0
O504 O 0.85921 0.70072 0.65418 0.0
O505 O 0.87648 0.69543 0.68375 0.0
H506 H 0.79246 0.65618 0.74013 0.0
H507 H 0.77062 0.63663 0.76953 0.0
H508 H 0.84601 0.63534 0.79051 0.0
H509 H 0.86762 0.65474 0.76107 0.0
H510 H 0.79543 0.65184 0.57974 0.0
H511 H 0.81807 0.68 0.55332 0.0
H512 H 0.86099 0.75624 0.59351 0.0
H513 H 0.83882 0.72755 0.62007 0.0
C514 C 0.33814 0.16442 0.73468 0.0
Eu515 Eu 0.33472 0.15201 0.69748 0.0
C516 C 0.35657 0.17388 0.75319 0.0
C517 C 0.35763 0.15391 0.76477 0.0
C518 C 0.37081 0.1624 0.78373 0.0
C519 C 0.38293 0.19096 0.79154 0.0
C520 C 0.38321 0.21115 0.7796 0.0
C521 C 0.37013 0.2027 0.76067 0.0
C522 C 0.29559 0.10104 0.67789 0.0
C523 C 0.37913 0.13164 0.68633 0.0
C524 C 0.33641 0.13076 0.61873 0.0
Eu525 Eu 0.34281 0.14495 0.65591 0.0
C526 C 0.32527 0.13634 0.60055 0.0
C527 C 0.34427 0.15478 0.58827 0.0
C528 C 0.3343 0.15913 0.57056 0.0
C529 C 0.30508 0.14492 0.56459 0.0
C530 C 0.286 0.12664 0.57693 0.0
C531 C 0.29598 0.1224 0.59473 0.0
C532 C 0.38419 0.19489 0.67467 0.0
C533 C 0.29879 0.16691 0.66756 0.0
O534 O 0.34388 0.18304 0.72201 0.0
O535 O 0.32894 0.13854 0.72664 0.0
O536 O 0.2892 0.115 0.69042 0.0
O537 O 0.3219 0.11401 0.67681 0.0
O538 O 0.37366 0.14679 0.69913 0.0
O539 O 0.36561 0.12368 0.66873 0.0
O540 O 0.31813 0.11538 0.63055 0.0
O541 O 0.35963 0.15205 0.62784 0.0
O542 O 0.38816 0.17982 0.66143 0.0
O543 O 0.35801 0.18391 0.67685 0.0
O544 O 0.30852 0.15745 0.6537 0.0
O545 O 0.30757 0.16902 0.68593 0.0
H546 H 0.34716 0.13149 0.75953 0.0
H547 H 0.37008 0.14631 0.79261 0.0
H548 H 0.39276 0.23339 0.78511 0.0
H549 H 0.36957 0.21861 0.7522 0.0
H550 H 0.36696 0.16552 0.59221 0.0
H551 H 0.34958 0.17298 0.56126 0.0
H552 H 0.26335 0.11554 0.57279 0.0
H553 H 0.28073 0.10793 0.60379 0.0
C554 C 0.83093 0.1566 0.62311 0.0
Eu555 Eu 0.84701 0.17712 0.65941 0.0
C556 C 0.84472 0.15692 0.60542 0.0
C557 C 0.87234 0.17886 0.60335 0.0
C558 C 0.88491 0.1791 0.58632 0.0
C559 C 0.87019 0.15733 0.57103 0.0
C560 C 0.84261 0.13525 0.57332 0.0
C561 C 0.83004 0.13507 0.59034 0.0
C562 C 0.86167 0.23065 0.67416 0.0
C563 C 0.91599 0.20237 0.66788 0.0
C564 C 0.89182 0.21488 0.73651 0.0
Eu565 Eu 0.87511 0.194 0.7004 0.0
C566 C 0.8791 0.21901 0.75365 0.0
C567 C 0.88766 0.21441 0.77184 0.0
C568 C 0.87535 0.21733 0.78826 0.0
C569 C 0.85423 0.225 0.78684 0.0
C570 C 0.84584 0.22979 0.76853 0.0
C571 C 0.8581 0.22676 0.75209 0.0
C572 C 0.86308 0.14148 0.68569 0.0
C573 C 0.80661 0.16882 0.69242 0.0
O574 O 0.83361 0.14213 0.63668 0.0
O575 O 0.83394 0.18096 0.63005 0.0
O576 O 0.83838 0.21405 0.66314 0.0
O577 O 0.87635 0.21878 0.67618 0.0
O578 O 0.89257 0.18749 0.65586 0.0
O579 O 0.91512 0.21098 0.68583 0.0
O580 O 0.8939 0.23047 0.72231 0.0
O581 O 0.88362 0.18843 0.73042 0.0
O582 O 0.88564 0.15898 0.69706 0.0
O583 O 0.84682 0.15171 0.68333 0.0
O584 O 0.83047 0.18518 0.70363 0.0
O585 O 0.80683 0.15924 0.67455 0.0
H586 H 0.88411 0.19594 0.61483 0.0
H587 H 0.90598 0.19666 0.58501 0.0
H588 H 0.83079 0.11789 0.56203 0.0
H589 H 0.80878 0.11784 0.59171 0.0
H590 H 0.90369 0.20823 0.77332 0.0
H591 H 0.88202 0.21296 0.802 0.0
H592 H 0.82989 0.23604 0.76688 0.0
H593 H 0.85107 0.23035 0.73818 0.0
H594 H 0.29282 0.84231 0.03844 0.0
H595 H 0.3232 0.8492 0.09882 0.0
H596 H 0.36917 0.88961 0.09327 0.0
H597 H 0.35871 0.85641 0.02006 0.0
H598 H 0.35607 0.8763 1.00092 0.0
H599 H 0.32436 0.84879 0.00962 0.0
H600 H 0.30774 0.88527 0.01667 0.0
H601 H 0.33948 0.91293 0.00807 0.0
H602 H 0.33064 0.91776 0.03202 0.0
H603 H 0.41149 0.9288 0.08197 0.0
H604 H 0.45004 0.96313 0.06483 0.0
H605 H 0.39551 0.93012 0.01065 0.0
C606 C 0.30912 0.85223 0.0505 0.0
C607 C 0.30382 0.84277 0.06924 0.0
C608 C 0.32601 0.85648 0.08452 0.0
C609 C 0.35244 0.8794 0.08149 0.0
C610 C 0.35677 0.88828 0.06301 0.0
C611 C 0.33598 0.87505 0.04768 0.0
C612 C 0.34706 0.8883 0.02909 0.0
C613 C 0.34652 0.86613 0.01403 0.0
C614 C 0.33022 0.90187 0.02099 0.0
C615 C 0.37731 0.91095 0.03648 0.0
C616 C 0.38213 0.91054 0.05616 0.0
C617 C 0.40808 0.92922 0.06654 0.0
C618 C 0.42997 0.94863 0.05656 0.0
C619 C 0.42613 0.94921 0.03626 0.0
C620 C 0.39921 0.93024 0.02613 0.0
H621 H 0.14938 0.44847 0.08738 0.0
H622 H 0.21003 0.48496 0.04463 0.0
H623 H 0.17423 0.4876 0.02375 0.0
H624 H 0.08524 0.41025 0.05559 0.0
H625 H 0.06514 0.42052 0.07038 0.0
H626 H 0.09421 0.41769 0.08142 0.0
H627 H 0.11768 0.46985 0.09704 0.0
H628 H 0.08854 0.47273 0.08622 0.0
H629 H 0.12438 0.49804 0.0819 0.0
H630 H 0.13141 0.486 0.00668 0.0
H631 H 0.08802 0.48824 0.99772 0.0
H632 H 0.05853 0.46113 0.05343 0.0
C633 C 0.1557 0.45729 0.0738 0.0
C634 C 0.18301 0.46547 0.06783 0.0
C635 C 0.18928 0.47687 0.04962 0.0
C636 C 0.16901 0.47889 0.03752 0.0
C637 C 0.14256 0.47042 0.04387 0.0
C638 C 0.13612 0.46061 0.06181 0.0
C639 C 0.10713 0.45576 0.066 0.0
C640 C 0.08673 0.42417 0.06849 0.0
C641 C 0.10959 0.47526 0.08384 0.0
C642 C 0.09838 0.46437 0.04759 0.0
C643 C 0.11884 0.47206 0.0348 0.0
C644 C 0.11532 0.48021 0.01663 0.0
C645 C 0.09056 0.48123 0.0116 0.0
C646 C 0.07003 0.47486 0.02487 0.0
C647 C 0.07395 0.46611 0.04302 0.0
H648 H 0.52891 0.68648 0.07428 0.0
H649 H 0.56317 0.74228 0.02861 0.0
H650 H 0.55953 0.70231 0.00771 0.0
H651 H 0.56671 0.64756 0.0651 0.0
H652 H 0.53782 0.61392 0.07055 0.0
H653 H 0.54295 0.64684 0.08229 0.0
H654 H 0.49154 0.63267 0.07022 0.0
H655 H 0.48611 0.59967 0.05846 0.0
H656 H 0.47994 0.62361 0.04471 0.0
H657 H 0.54932 0.65588 0.99082 0.0
H658 H 0.53579 0.60608 0.97988 0.0
H659 H 0.51223 0.58112 0.03696 0.0
C660 C 0.53608 0.69051 0.06001 0.0
C661 C 0.54594 0.71767 0.05309 0.0
C662 C 0.55477 0.72165 0.03417 0.0
C663 C 0.55308 0.6991 0.0222 0.0
C664 C 0.54299 0.67268 0.02939 0.0
C665 C 0.53496 0.66829 0.04793 0.0
C666 C 0.52488 0.63765 0.05204 0.0
C667 C 0.54425 0.63644 0.06847 0.0
C668 C 0.49377 0.62252 0.05662 0.0
C669 C 0.52803 0.62549 0.03277 0.0
C670 C 0.53844 0.64608 0.01991 0.0
C671 C 0.54161 0.63967 1.00084 0.0
C672 C 0.53389 0.61144 0.99474 0.0
C673 C 0.52356 0.5902 0.00775 0.0
C674 C 0.52075 0.5973 0.02699 0.0
H675 H 0.87181 0.30454 0.94606 0.0
H676 H 0.804 0.29099 0.98166 0.0
H677 H 0.8378 0.33234 0.00389 0.0
H678 H 0.92891 0.33079 0.98375 0.0
H679 H 0.95444 0.35807 0.9704 0.0
H680 H 0.92556 0.32584 0.95768 0.0
H681 H 0.91009 0.35575 0.93784 0.0
H682 H 0.93922 0.38797 0.95035 0.0
H683 H 0.9035 0.38156 0.95038 0.0
H684 H 0.8787 0.37454 0.02287 0.0
H685 H 0.92314 0.41888 0.03504 0.0
H686 H 0.96334 0.40919 0.98553 0.0
C687 C 0.86379 0.31023 0.95838 0.0
C688 C 0.835 0.29357 0.96214 0.0
C689 C 0.82595 0.30225 0.97864 0.0
C690 C 0.845 0.32605 0.99136 0.0
C691 C 0.87306 0.34162 0.98728 0.0
C692 C 0.88237 0.33448 0.971 0.0
C693 C 0.91333 0.35606 0.96941 0.0
C694 C 0.93164 0.34183 0.97037 0.0
C695 C 0.91672 0.37123 0.95089 0.0
C696 C 0.91986 0.37636 0.98737 0.0
C697 C 0.89639 0.36726 0.99762 0.0
C698 C 0.89718 0.38199 0.01492 0.0
C699 C 0.92248 0.40699 0.02178 0.0
C700 C 0.94641 0.41722 0.01118 0.0
C701 C 0.94517 0.40171 0.99381 0.0
H702 H 0.68411 0.53318 0.931 0.0
H703 H 0.74685 0.57481 0.98073 0.0
H704 H 0.70957 0.57191 1.00052 0.0
H705 H 0.64461 0.5683 0.94022 0.0
H706 H 0.61061 0.5373 0.93228 0.0
H707 H 0.64202 0.54165 0.92222 0.0
H708 H 0.63107 0.49225 0.93226 0.0
H709 H 0.59975 0.48774 0.94256 0.0
H710 H 0.62654 0.4851 0.9572 0.0
H711 H 0.66545 0.56568 0.01473 0.0
H712 H 0.61791 0.55567 0.02233 0.0
H713 H 0.58438 0.51908 0.9631 0.0
C714 C 0.69008 0.54179 0.94603 0.0
C715 C 0.71851 0.5542 0.95428 0.0
C716 C 0.72522 0.56483 0.97411 0.0
C717 C 0.7042 0.56346 0.98545 0.0
C718 C 0.67649 0.55136 0.9768 0.0
C719 C 0.66937 0.54062 0.95755 0.0
C720 C 0.63806 0.52884 0.95172 0.0
C721 C 0.63358 0.545 0.93566 0.0
C722 C 0.62297 0.49657 0.94557 0.0
C723 C 0.62877 0.53498 0.97063 0.0
C724 C 0.6512 0.54787 0.98495 0.0
C725 C 0.64773 0.55555 0.00363 0.0
C726 C 0.62061 0.54981 0.0078 0.0
C727 C 0.59726 0.53656 0.99334 0.0
C728 C 0.60163 0.52918 0.97452 0.0
H729 H 0.51003 0.19166 0.97502 0.0
H730 H 0.4238 0.13905 0.94803 0.0
H731 H 0.42252 0.09632 0.95979 0.0
H732 H 0.53287 0.14036 0.96531 0.0
H733 H 0.55434 0.14992 0.98813 0.0
H734 H 0.5487 0.17615 0.97704 0.0
H735 H 0.52936 0.18517 0.00821 0.0
H736 H 0.53492 0.15896 0.01939 0.0
H737 H 0.50028 0.15554 0.01776 0.0
H738 H 0.43023 0.05933 0.97549 0.0
H739 H 0.44669 0.03128 0.99351 0.0
H740 H 0.52765 0.1082 0.01021 0.0
C741 C 0.49083 0.17118 0.97162 0.0
C742 C 0.46704 0.16875 0.96054 0.0
C743 C 0.44245 0.14144 0.95625 0.0
C744 C 0.44146 0.11704 0.96296 0.0
C745 C 0.46524 0.12024 0.97392 0.0
C746 C 0.48949 0.14662 0.97817 0.0
C747 C 0.51207 0.14436 0.99038 0.0
C748 C 0.53855 0.15322 0.97956 0.0
C749 C 0.51959 0.16205 0.01011 0.0
C750 C 0.49663 0.11265 0.99253 0.0
C751 C 0.46967 0.09905 0.98288 0.0
C752 C 0.45136 0.06976 0.983 0.0
C753 C 0.46088 0.05399 0.99323 0.0
C754 C 0.48845 0.06755 0.00314 0.0
C755 C 0.50645 0.09725 1.00275 0.0
H756 H 0.71955 0.15662 0.99163 0.0
H757 H 0.70063 0.15065 0.92958 0.0
H758 H 0.65004 0.11636 0.93266 0.0
H759 H 0.67196 0.08244 0.99725 0.0
H760 H 0.66175 0.08953 0.02016 0.0
H761 H 0.69629 0.11385 0.0131 0.0
H762 H 0.68618 0.15558 0.01779 0.0
H763 H 0.65161 0.13139 0.02486 0.0
H764 H 0.65494 0.1527 0.00514 0.0
H765 H 0.60178 0.08306 0.94251 0.0
H766 H 0.55901 0.0522 0.95816 0.0
H767 H 0.60923 0.07911 0.01403 0.0
C768 C 0.7047 0.14806 0.97872 0.0
C769 C 0.71383 0.15621 0.96033 0.0
C770 C 0.69389 0.14459 0.94375 0.0
C771 C 0.66521 0.12518 0.94538 0.0
C772 C 0.65685 0.11755 0.96371 0.0
C773 C 0.67598 0.12855 0.98009 0.0
C774 C 0.66146 0.11659 0.99803 0.0
C775 C 0.67359 0.09959 0.0077 0.0
C776 C 0.66368 0.14049 0.0123 0.0
C777 C 0.63118 0.09712 0.98918 0.0
C778 C 0.62902 0.09808 0.96937 0.0
C779 C 0.60323 0.0821 0.958 0.0
C780 C 0.57901 0.0646 0.96708 0.0
C781 C 0.58065 0.06308 0.98738 0.0
C782 C 0.60719 0.07966 0.99851 0.0
H783 H 0.8687 0.55888 0.93913 0.0
H784 H 0.83272 0.56461 0.99195 0.0
H785 H 0.86258 0.54929 0.0099 0.0
H786 H 0.87395 0.49595 0.94902 0.0
H787 H 0.907 0.50846 0.93847 0.0
H788 H 0.88203 0.51879 0.92969 0.0
H789 H 0.92104 0.57206 0.93631 0.0
H790 H 0.94605 0.56188 0.94522 0.0
H791 H 0.93942 0.58571 0.96023 0.0
H792 H 0.89811 0.53614 0.02236 0.0
H793 H 0.93473 0.5229 0.02842 0.0
H794 H 0.94747 0.52465 0.96732 0.0
C795 C 0.86705 0.55668 0.95445 0.0
C796 C 0.84876 0.56326 0.96429 0.0
C797 C 0.84685 0.55993 0.98427 0.0
C798 C 0.86371 0.55127 0.99454 0.0
C799 C 0.88211 0.54568 0.98455 0.0
C800 C 0.88369 0.54795 0.96492 0.0
C801 C 0.90544 0.54089 0.95774 0.0
C802 C 0.89125 0.51445 0.94285 0.0
C803 C 0.9294 0.56668 0.94939 0.0
C804 C 0.91605 0.53463 0.97645 0.0
C805 C 0.90231 0.53757 0.99171 0.0
C806 C 0.90887 0.53358 0.0105 0.0
C807 C 0.92986 0.52616 0.01379 0.0
C808 C 0.9441 0.52266 0.99836 0.0
C809 C 0.93699 0.52702 0.97944 0.0
H810 H 0.51468 0.32372 0.00451 0.0
H811 H 0.43909 0.28582 0.96397 0.0
H812 H 0.44138 0.33265 0.96407 0.0
H813 H 0.49842 0.368 0.03309 0.0
H814 H 0.53426 0.39764 0.03716 0.0
H815 H 0.52796 0.36187 0.03258 0.0
H816 H 0.55881 0.37698 0.00382 0.0
H817 H 0.56532 0.41289 0.00838 0.0
H818 H 0.55055 0.39369 0.98477 0.0
H819 H 0.44963 0.38274 0.97111 0.0
H820 H 0.46442 0.43243 0.98333 0.0
H821 H 0.53545 0.43771 0.01848 0.0
C822 C 0.49885 0.32547 0.9955 0.0
C823 C 0.47647 0.30124 0.98444 0.0
C824 C 0.45619 0.30418 0.97269 0.0
C825 C 0.45738 0.33066 0.97264 0.0
C826 C 0.47926 0.35403 0.98419 0.0
C827 C 0.49982 0.35174 0.99523 0.0
C828 C 0.52054 0.37979 0.00687 0.0
C829 C 0.52026 0.37662 0.02872 0.0
C830 C 0.55058 0.39153 1.00058 0.0
C831 C 0.50804 0.39804 1.00107 0.0
C832 C 0.48432 0.38288 0.98789 0.0
C833 C 0.46842 0.39493 0.9812 0.0
C834 C 0.47697 0.42314 0.98819 0.0
C835 C 0.5012 0.43896 1.00168 0.0
C836 C 0.51697 0.42622 0.00803 0.0
H837 H 0.16276 0.70807 0.00675 0.0
H838 H 0.18097 0.70562 0.0679 0.0
H839 H 0.1436 0.65485 0.06545 0.0
H840 H 0.08701 0.66275 0.00504 0.0
H841 H 0.08344 0.64524 0.9814 0.0
H842 H 0.11189 0.68134 0.98788 0.0
H843 H 0.14857 0.66629 0.97961 0.0
H844 H 0.12022 0.63018 0.97302 0.0
H845 H 0.14865 0.63729 0.99103 0.0
H846 H 0.10504 0.60397 0.05616 0.0
H847 H 0.06748 0.5569 0.0407 0.0
H848 H 0.07285 0.59264 0.98593 0.0
C849 C 0.15902 0.69672 0.01956 0.0
C850 C 0.17522 0.7106 0.03742 0.0
C851 C 0.16923 0.69529 0.054 0.0
C852 C 0.14797 0.66646 0.05276 0.0
C853 C 0.13262 0.65333 0.03489 0.0
C854 C 0.1378 0.66795 0.01858 0.0
C855 C 0.11806 0.64887 1.00116 0.0
C856 C 0.09897 0.66023 0.99342 0.0
C857 C 0.13488 0.64546 0.98527 0.0
C858 C 0.10107 0.62122 0.0102 0.0
C859 C 0.10979 0.62426 0.02967 0.0
C860 C 0.0977 0.60148 0.04101 0.0
C861 C 0.07608 0.57492 0.0322 0.0
C862 C 0.0666 0.57145 0.01237 0.0
C863 C 0.07942 0.59487 1.00122 0.0
H864 H 0.33372 0.46951 0.08206 0.0
H865 H 0.2738 0.4372 0.03067 0.0
H866 H 0.31319 0.44951 0.01024 0.0
H867 H 0.39138 0.52925 0.06072 0.0
H868 H 0.41878 0.52549 0.07361 0.0
H869 H 0.3861 0.5156 0.08408 0.0
H870 H 0.37856 0.46502 0.08753 0.0
H871 H 0.41116 0.47481 0.07702 0.0
H872 H 0.37854 0.44403 0.06649 0.0
H873 H 0.35863 0.46223 0.9956 0.0
H874 H 0.40712 0.47656 0.98762 0.0
H875 H 0.43796 0.50176 0.04849 0.0
C876 C 0.32905 0.46531 0.06649 0.0
C877 C 0.30075 0.45212 0.05789 0.0
C878 C 0.29532 0.44706 0.03749 0.0
C879 C 0.31755 0.454 0.0258 0.0
C880 C 0.34515 0.46636 0.03472 0.0
C881 C 0.35105 0.47226 0.05459 0.0
C882 C 0.38254 0.4851 0.06052 0.0
C883 C 0.39545 0.51568 0.07031 0.0
C884 C 0.388 0.4661 0.07366 0.0
C885 C 0.39332 0.48501 0.04092 0.0
C886 C 0.37142 0.47417 0.02624 0.0
C887 C 0.37598 0.47101 0.00697 0.0
C888 C 0.40362 0.47913 1.00258 0.0
C889 C 0.42645 0.49039 0.01738 0.0
C890 C 0.42109 0.49346 0.03679 0.0
H891 H 0.51582 0.82611 0.03214 0.0
H892 H 0.59777 0.88357 0.06379 0.0
H893 H 0.59153 0.92467 0.05773 0.0
H894 H 0.52118 0.8702 0.99547 0.0
H895 H 0.48451 0.86111 0.99369 0.0
H896 H 0.49431 0.83594 1.00174 0.0
H897 H 0.47026 0.83317 0.03321 0.0
H898 H 0.46021 0.85821 0.02518 0.0
H899 H 0.48041 0.86554 0.04831 0.0
H900 H 0.57828 0.95976 0.04589 0.0
H901 H 0.55782 0.98626 0.03039 0.0
H902 H 0.48355 0.90618 0.00742 0.0
C903 C 0.53212 0.84732 0.0381 0.0
C904 C 0.55711 0.85169 0.04863 0.0
C905 C 0.57833 0.87976 0.05588 0.0
C906 C 0.57498 0.90322 0.05249 0.0
C907 C 0.55024 0.89826 0.04187 0.0
C908 C 0.52903 0.87099 0.03493 0.0
C909 C 0.50497 0.87167 0.02338 0.0
C910 C 0.50103 0.85898 1.00232 0.0
C911 C 0.47733 0.85623 0.0331 0.0
C912 C 0.51624 0.90358 0.02457 0.0
C913 C 0.54237 0.91852 0.03534 0.0
C914 C 0.55761 0.94828 0.03771 0.0
C915 C 0.5458 0.96316 0.0289 0.0
C916 C 0.51893 0.94829 0.018 0.0
C917 C 0.504 0.91811 0.01587 0.0
H918 H 0.96218 0.19533 0.37969 0.0
H919 H 1.00124 0.17051 0.42494 0.0
H920 H 0.04833 0.20202 0.41432 0.0
H921 H 0.01102 0.20272 0.34298 0.0
H922 H 0.01221 0.23394 0.33428 0.0
H923 H 0.98091 0.20779 0.34425 0.0
H924 H 0.98416 0.24716 0.36886 0.0
H925 H 0.0154 0.27341 0.35895 0.0
H926 H 0.01652 0.26905 0.38443 0.0
H927 H 0.09065 0.23662 0.40037 0.0
H928 H 0.12776 0.27521 0.38464 0.0
H929 H 0.0637 0.28074 0.34805 0.0
C930 C 0.98071 0.19639 0.38712 0.0
C931 C 0.97817 0.18045 0.40311 0.0
C932 C 1.00281 0.1826 0.41272 0.0
C933 C 0.0296 0.20033 0.40673 0.0
C934 C 0.03154 0.21599 0.39112 0.0
C935 C 0.00793 0.21445 0.38144 0.0
C936 C 0.01667 0.23513 0.36584 0.0
C937 C 1.00447 0.21892 0.34564 0.0
C938 C 0.00765 0.25752 0.36976 0.0
C939 C 0.04884 0.24865 0.3685 0.0
C940 C 0.05664 0.23687 0.3831 0.0
C941 C 0.08485 0.24598 0.38889 0.0
C942 C 0.10581 0.26809 0.37986 0.0
C943 C 0.09877 0.28123 0.36514 0.0
C944 C 0.06977 0.27099 0.35912 0.0
H945 H 0.84229 0.82335 0.42448 0.0
H946 H 0.85477 0.77578 0.37753 0.0
H947 H 0.81453 0.77341 0.35769 0.0
H948 H 0.76533 0.78466 0.41753 0.0
H949 H 0.76255 0.81594 0.42334 0.0
H950 H 0.79224 0.81376 0.43395 0.0
H951 H 0.82696 0.86132 0.42065 0.0
H952 H 0.79733 0.86361 0.41009 0.0
H953 H 0.82369 0.86478 0.39514 0.0
H954 H 0.77325 0.77667 0.34275 0.0
H955 H 0.73483 0.78648 0.33348 0.0
H956 H 0.74845 0.83101 0.39041 0.0
C957 C 0.83642 0.81218 0.41009 0.0
C958 C 0.85183 0.79978 0.40258 0.0
C959 C 0.84364 0.7858 0.38354 0.0
C960 C 0.82064 0.78413 0.37221 0.0
C961 C 0.8059 0.79647 0.38009 0.0
C962 C 0.81347 0.81027 0.39859 0.0
C963 C 0.79441 0.8222 0.40348 0.0
C964 C 0.77764 0.8083 0.42059 0.0
C965 C 0.81163 0.85492 0.40757 0.0
C966 C 0.77506 0.81309 0.38479 0.0
C967 C 0.78199 0.7982 0.37152 0.0
C968 C 0.76757 0.78821 0.35306 0.0
C969 C 0.74574 0.79389 0.34793 0.0
C970 C 0.73847 0.80944 0.3612 0.0
C971 C 0.75323 0.81884 0.37995 0.0
H972 H 0.18452 0.04526 0.37383 0.0
H973 H 0.26614 0.07487 0.40633 0.0
H974 H 0.26609 0.03158 0.39344 0.0
H975 H 0.15528 0.97098 0.38013 0.0
H976 H 0.13711 0.95856 0.3561 0.0
H977 H 0.14352 0.99208 0.36766 0.0
H978 H 0.16929 0.01793 0.33862 0.0
H979 H 0.16283 0.98446 0.32693 0.0
H980 H 0.19852 0.01434 0.33116 0.0
H981 H 0.25708 0.98483 0.37754 0.0
H982 H 0.24005 0.93814 0.35887 0.0
H983 H 0.16463 0.93877 0.33626 0.0
C984 C 0.2025 0.04276 0.37807 0.0
C985 C 0.22523 0.06341 0.39124 0.0
C986 C 0.24824 0.05916 0.39655 0.0
C987 C 0.2485 0.03469 0.38922 0.0
C988 C 0.22563 0.01461 0.37651 0.0
C989 C 0.2031 0.01837 0.37089 0.0
C990 C 0.18113 0.99334 0.3571 0.0
C991 C 0.15257 0.97783 0.36577 0.0
C992 C 0.17776 1.00311 0.33728 0.0
C993 C 0.19487 0.97499 0.35586 0.0
C994 C 0.22051 0.98765 0.36721 0.0
C995 C 0.23705 0.97472 0.36857 0.0
C996 C 0.22718 0.94818 0.35797 0.0
C997 C 0.20102 0.93485 0.34621 0.0
C998 C 0.18473 0.9485 0.34515 0.0
H999 H 0.52818 0.65567 0.26828 0.0
H1000 H 0.46458 0.64038 0.30815 0.0
H1001 H 0.50086 0.67994 0.33063 0.0
H1002 H 0.58779 0.67782 0.30276 0.0
H1003 H 0.61235 0.70591 0.28945 0.0
H1004 H 0.58193 0.67497 0.27675 0.0
H1005 H 0.56587 0.70739 0.2607 0.0
H1006 H 0.59672 0.73818 0.27307 0.0
H1007 H 0.56191 0.73308 0.27577 0.0
H1008 H 0.54435 0.72029 0.34952 0.0
H1009 H 0.59081 0.76207 0.36179 0.0
H1010 H 0.62458 0.75587 0.30801 0.0
C1011 C 0.52143 0.66064 0.28152 0.0
C1012 C 0.49307 0.64405 0.28627 0.0
C1013 C 0.48604 0.65165 0.30415 0.0
C1014 C 0.50654 0.67446 0.31705 0.0
C1015 C 0.53403 0.69015 0.31182 0.0
C1016 C 0.54141 0.68392 0.29434 0.0
C1017 C 0.57216 0.70515 0.29182 0.0
C1018 C 0.58958 0.69005 0.2901 0.0
C1019 C 0.57426 0.72195 0.2743 0.0
C1020 C 0.58092 0.7242 0.31069 0.0
C1021 C 0.55867 0.7148 0.32214 0.0
C1022 C 0.56181 0.72803 0.3406 0.0
C1023 C 0.58828 0.75163 0.34748 0.0
C1024 C 0.61111 0.76214 0.3358 0.0
C1025 C 0.60735 0.74833 0.31714 0.0
H1026 H 0.37344 0.91411 0.26768 0.0
H1027 H 0.39353 0.86119 0.30268 0.0
H1028 H 0.35305 0.85064 0.32087 0.0
H1029 H 0.34682 0.94136 0.30332 0.0
H1030 H 0.31762 0.93784 0.28755 0.0
H1031 H 0.34948 0.94317 0.27767 0.0
H1032 H 0.32007 0.89719 0.25423 0.0
H1033 H 0.28808 0.89186 0.26392 0.0
H1034 H 0.29699 0.86401 0.26383 0.0
H1035 H 0.31196 0.84787 0.33694 0.0
H1036 H 0.2684 0.84687 0.34617 0.0
H1037 H 0.26982 0.89457 0.29787 0.0
C1038 C 0.36938 0.9 0.27895 0.0
C1039 C 0.38794 0.88951 0.28394 0.0
C1040 C 0.38108 0.87102 0.29895 0.0
C1041 C 0.35769 0.86445 0.30933 0.0
C1042 C 0.34043 0.8756 0.30427 0.0
C1043 C 0.34544 0.89233 0.2891 0.0
C1044 C 0.32235 0.90001 0.28589 0.0
C1045 C 0.33482 0.93253 0.28878 0.0
C1046 C 0.3059 0.88752 0.26578 0.0
C1047 C 0.30393 0.88533 0.30183 0.0
C1048 C 0.31508 0.8718 0.31246 0.0
C1049 C 0.30278 0.85803 0.32856 0.0
C1050 C 0.27817 0.8577 0.33377 0.0
C1051 C 0.26575 0.87046 0.32267 0.0
C1052 C 0.27879 0.8844 0.30647 0.0
H1053 H 0.17118 0.53249 0.31631 0.0
H1054 H 0.08873 0.47663 0.28474 0.0
H1055 H 0.0877 0.43496 0.29819 0.0
H1056 H 0.19824 0.48549 0.30885 0.0
H1057 H 0.21778 0.49456 0.33241 0.0
H1058 H 0.21125 0.52033 0.32147 0.0
H1059 H 0.18766 0.52533 0.35157 0.0
H1060 H 0.19425 0.49966 0.36265 0.0
H1061 H 0.15871 0.49389 0.35963 0.0
H1062 H 0.09645 0.39909 0.31384 0.0
H1063 H 0.11442 0.37154 0.33088 0.0
H1064 H 0.19155 0.45031 0.35191 0.0
C1065 C 0.15272 0.51153 0.31256 0.0
C1066 C 0.12996 0.50774 0.29955 0.0
C1067 C 0.10639 0.47994 0.29464 0.0
C1068 C 0.1056 0.45617 0.30224 0.0
C1069 C 0.12857 0.4605 0.31472 0.0
C1070 C 0.15169 0.48746 0.31989 0.0
C1071 C 0.17415 0.48599 0.33288 0.0
C1072 C 0.202 0.49726 0.32333 0.0
C1073 C 0.17896 0.50218 0.35287 0.0
C1074 C 0.16008 0.45404 0.33413 0.0
C1075 C 0.13376 0.43974 0.32358 0.0
C1076 C 0.11699 0.41006 0.32221 0.0
C1077 C 0.12739 0.39458 0.33185 0.0
C1078 C 0.15436 0.40878 0.34264 0.0
C1079 C 0.17078 0.4389 0.34384 0.0
H1080 H 0.34286 0.48712 0.26484 0.0
H1081 H 0.40172 0.53091 0.31607 0.0
H1082 H 0.36358 0.50346 0.33673 0.0
H1083 H 0.28025 0.48306 0.28531 0.0
H1084 H 0.25603 0.44804 0.27333 0.0
H1085 H 0.28723 0.47209 0.2623 0.0
H1086 H 0.30278 0.43419 0.26033 0.0
H1087 H 0.27153 0.40987 0.27114 0.0
H1088 H 0.30612 0.41883 0.28196 0.0
H1089 H 0.32066 0.4691 0.35163 0.0
H1090 H 0.27476 0.43143 0.36032 0.0
H1091 H 0.24231 0.40986 0.29957 0.0
C1092 C 0.34753 0.49104 0.28042 0.0
C1093 C 0.37527 0.51084 0.28895 0.0
C1094 C 0.38066 0.51564 0.30934 0.0
C1095 C 0.35914 0.50019 0.32114 0.0
C1096 C 0.33221 0.48029 0.31232 0.0
C1097 C 0.32617 0.47584 0.29244 0.0
C1098 C 0.29553 0.45261 0.28674 0.0
C1099 C 0.27878 0.46469 0.2763 0.0
C1100 C 0.29391 0.42738 0.27431 0.0
C1101 C 0.28554 0.44428 0.30652 0.0
C1102 C 0.30709 0.46064 0.32102 0.0
C1103 C 0.30355 0.45633 0.34042 0.0
C1104 C 0.27735 0.43472 0.34519 0.0
C1105 C 0.25482 0.41759 0.33066 0.0
C1106 C 0.259 0.42268 0.31104 0.0
H1107 H 0.52817 0.90873 0.3272 0.0
H1108 H 0.53281 0.91139 0.26529 0.0
H1109 H 0.56947 0.89722 0.26752 0.0
H1110 H 0.60356 0.93703 0.34037 0.0
H1111 H 0.59812 0.91436 0.35955 0.0
H1112 H 0.57247 0.92499 0.35323 0.0
H1113 H 0.53276 0.8719 0.34782 0.0
H1114 H 0.55827 0.86111 0.35414 0.0
H1115 H 0.53671 0.84761 0.33126 0.0
H1116 H 0.60408 0.88156 0.27611 0.0
H1117 H 0.63554 0.86575 0.29038 0.0
H1118 H 0.61009 0.874 0.3473 0.0
C1119 C 0.53703 0.90639 0.31416 0.0
C1120 C 0.52772 0.91109 0.29601 0.0
C1121 C 0.53971 0.90784 0.27926 0.0
C1122 C 0.56051 0.89985 0.28042 0.0
C1123 C 0.56921 0.89533 0.29848 0.0
C1124 C 0.55798 0.89855 0.31508 0.0
C1125 C 0.57107 0.89215 0.33263 0.0
C1126 C 0.58727 0.91872 0.34731 0.0
C1127 C 0.54835 0.86668 0.34201 0.0
C1128 C 0.59124 0.88463 0.32325 0.0
C1129 C 0.58971 0.88663 0.30353 0.0
C1130 C 0.60557 0.88005 0.29154 0.0
C1131 C 0.62337 0.871 0.29983 0.0
C1132 C 0.62539 0.86863 0.32 0.0
C1133 C 0.60924 0.87584 0.33189 0.0
H1134 H 0.13532 0.64558 0.34086 0.0
H1135 H 0.12498 0.64 0.27827 0.0
H1136 H 0.13633 0.69049 0.27997 0.0
H1137 H 0.1039 0.68877 0.34974 0.0
H1138 H 0.12821 0.70941 0.37067 0.0
H1139 H 0.12006 0.67328 0.36438 0.0
H1140 H 0.17357 0.69068 0.36343 0.0
H1141 H 0.18189 0.72683 0.36986 0.0
H1142 H 0.19405 0.7183 0.3483 0.0
H1143 H 0.14814 0.74188 0.28892 0.0
H1144 H 0.16095 0.78967 0.3043 0.0
H1145 H 0.16287 0.76074 0.36088 0.0
C1146 C 0.1356 0.65507 0.32753 0.0
C1147 C 0.1292 0.63899 0.30941 0.0
C1148 C 0.12981 0.65208 0.29226 0.0
C1149 C 0.13616 0.68066 0.29312 0.0
C1150 C 0.14194 0.69585 0.31125 0.0
C1151 C 0.14185 0.6835 0.32814 0.0
C1152 C 0.14865 0.70428 0.3458 0.0
C1153 C 0.12372 0.69327 0.35838 0.0
C1154 C 0.17618 0.71038 0.35753 0.0
C1155 C 0.1525 0.73023 0.33627 0.0
C1156 C 0.14854 0.72505 0.31633 0.0
C1157 C 0.15119 0.74608 0.30453 0.0
C1158 C 0.15827 0.77311 0.31335 0.0
C1159 C 0.16258 0.77879 0.33374 0.0
C1160 C 0.15954 0.75697 0.34525 0.0
H1161 H 0.82826 0.05523 0.35389 0.0
H1162 H 0.84747 0.04657 0.41362 0.0
H1163 H 0.8137 0.99449 0.40823 0.0
H1164 H 0.75349 1.00378 0.35081 0.0
H1165 H 0.75167 0.99038 0.32615 0.0
H1166 H 0.77763 0.02677 0.33467 0.0
H1167 H 0.81777 0.01818 0.32419 0.0
H1168 H 0.79192 0.98178 0.31561 0.0
H1169 H 0.82101 0.98927 0.33313 0.0
H1170 H 0.77826 0.94311 0.39605 0.0
H1171 H 0.74311 0.89669 0.3783 0.0
H1172 H 0.74593 0.93906 0.32672 0.0
C1173 C 0.82548 0.0423 0.36577 0.0
C1174 C 0.84091 0.05477 0.38407 0.0
C1175 C 0.83624 0.03728 0.3994 0.0
C1176 C 0.81706 0.00775 0.39648 0.0
C1177 C 0.80241 0.99605 0.3782 0.0
C1178 C 0.80629 0.0128 0.36312 0.0
C1179 C 0.78761 0.99501 0.34496 0.0
C1180 C 0.76634 1.00456 0.33879 0.0
C1181 C 0.80566 0.99613 0.32851 0.0
C1182 C 0.77274 0.96562 0.35212 0.0
C1183 C 0.78159 0.96666 0.37133 0.0
C1184 C 0.77111 0.9421 0.38104 0.0
C1185 C 0.75112 0.91583 0.37085 0.0
C1186 C 0.7417 0.9143 0.35118 0.0
C1187 C 0.75266 0.93959 0.34177 0.0
H1188 H 1.00682 0.808 0.41502 0.0
H1189 H 0.94963 0.79137 0.36383 0.0
H1190 H 0.98921 0.80453 0.34341 0.0
H1191 H 0.06916 0.8692 0.3988 0.0
H1192 H 0.09365 0.85949 0.40954 0.0
H1193 H 0.06123 0.85029 0.42015 0.0
H1194 H 0.04801 0.79721 0.41756 0.0
H1195 H 0.08032 0.80629 0.40686 0.0
H1196 H 0.04664 0.77968 0.39439 0.0
H1197 H 0.0342 0.81623 0.32844 0.0
H1198 H 0.08206 0.82867 0.32005 0.0
H1199 H 0.11041 0.83864 0.38111 0.0
C1200 C 1.0028 0.80745 0.39952 0.0
C1201 C 0.97518 0.79838 0.39089 0.0
C1202 C 0.97063 0.79804 0.37062 0.0
C1203 C 0.99295 0.80546 0.35895 0.0
C1204 C 0.01979 0.81353 0.36782 0.0
C1205 C 0.02491 0.81489 0.38767 0.0
C1206 C 0.05562 0.82375 0.39349 0.0
C1207 C 0.07081 0.85239 0.40625 0.0
C1208 C 0.05775 0.80033 0.40367 0.0
C1209 C 0.06683 0.82676 0.37381 0.0
C1210 C 0.04583 0.82075 0.3592 0.0
C1211 C 0.05088 0.82123 0.33977 0.0
C1212 C 0.07814 0.82821 0.33515 0.0
C1213 C 0.10013 0.83473 0.34988 0.0
C1214 C 0.09422 0.83397 0.36947 0.0
H1215 H 0.18751 0.16878 0.35555 0.0
H1216 H 0.26603 0.22086 0.39234 0.0
H1217 H 0.26109 0.26341 0.38888 0.0
H1218 H 0.19783 0.219 0.32248 0.0
H1219 H 0.1613 0.21026 0.31931 0.0
H1220 H 0.16986 0.18361 0.32588 0.0
H1221 H 0.14204 0.17589 0.35603 0.0
H1222 H 0.13323 0.20242 0.34946 0.0
H1223 H 0.15074 0.20603 0.37308 0.0
H1224 H 0.24949 0.30102 0.37909 0.0
H1225 H 0.23078 0.3301 0.36509 0.0
H1226 H 0.15913 0.25317 0.33551 0.0
C1227 C 0.20338 0.1891 0.36308 0.0
C1228 C 0.2272 0.19166 0.37414 0.0
C1229 C 0.24767 0.21853 0.38377 0.0
C1230 C 0.24503 0.24278 0.38188 0.0
C1231 C 0.22162 0.23971 0.37049 0.0
C1232 C 0.20097 0.21348 0.36143 0.0
C1233 C 0.17833 0.21609 0.34957 0.0
C1234 C 0.17676 0.20669 0.32804 0.0
C1235 C 0.14937 0.1991 0.35751 0.0
C1236 C 0.18979 0.24795 0.353 0.0
C1237 C 0.21472 0.26123 0.36516 0.0
C1238 C 0.22977 0.29078 0.36977 0.0
C1239 C 0.21901 0.30713 0.36177 0.0
C1240 C 0.19341 0.29387 0.34939 0.0
C1241 C 0.17867 0.26389 0.34505 0.0
H1242 H 0.65332 0.52332 0.74716 0.0
H1243 H 0.58889 0.49981 0.69917 0.0
H1244 H 0.62439 0.53717 0.6811 0.0
H1245 H 0.6903 0.60013 0.74305 0.0
H1246 H 0.72487 0.60458 0.74921 0.0
H1247 H 0.69427 0.57677 0.75878 0.0
H1248 H 0.70573 0.53893 0.74461 0.0
H1249 H 0.73653 0.56661 0.7352 0.0
H1250 H 0.71001 0.53661 0.71918 0.0
H1251 H 0.66786 0.57627 0.66765 0.0
H1252 H 0.71537 0.61308 0.66006 0.0
H1253 H 0.75089 0.61123 0.7171 0.0
C1254 C 0.64648 0.52631 0.733 0.0
C1255 C 0.61816 0.50853 0.72465 0.0
C1256 C 0.61044 0.51289 0.70585 0.0
C1257 C 0.63045 0.53421 0.6955 0.0
C1258 C 0.65819 0.55116 0.7041 0.0
C1259 C 0.66619 0.54747 0.72246 0.0
C1260 C 0.69753 0.56788 0.72821 0.0
C1261 C 0.70199 0.58856 0.74586 0.0
C1262 C 0.71337 0.55152 0.73201 0.0
C1263 C 0.70602 0.58335 0.71014 0.0
C1264 C 0.68304 0.57356 0.69642 0.0
C1265 C 0.68595 0.5842 0.67836 0.0
C1266 C 0.71306 0.60516 0.67417 0.0
C1267 C 0.737 0.61528 0.68795 0.0
C1268 C 0.73314 0.60425 0.70622 0.0
H1269 H 0.49694 0.12294 0.75578 0.0
H1270 H 0.51456 0.08575 0.70537 0.0
H1271 H 0.47683 0.08799 0.68555 0.0
H1272 H 0.42036 0.08741 0.74438 0.0
H1273 H 0.41799 0.11806 0.75298 0.0
H1274 H 0.44576 0.11269 0.76343 0.0
H1275 H 0.48346 0.16298 0.7554 0.0
H1276 H 0.45579 0.16845 0.74491 0.0
H1277 H 0.48389 0.17206 0.73084 0.0
H1278 H 0.43748 0.09446 0.67105 0.0
H1279 H 0.4001 0.10606 0.66261 0.0
H1280 H 0.40825 0.14008 0.72215 0.0
C1281 C 0.49264 0.11503 0.74061 0.0
C1282 C 0.50876 0.10418 0.73212 0.0
C1283 C 0.50271 0.09439 0.71215 0.0
C1284 C 0.48122 0.09544 0.70079 0.0
C1285 C 0.46591 0.10645 0.70954 0.0
C1286 C 0.47136 0.11617 0.72898 0.0
C1287 C 0.45229 0.1278 0.7346 0.0
C1288 C 0.43295 0.11045 0.74974 0.0
C1289 C 0.46992 0.15972 0.74186 0.0
C1290 C 0.43536 0.12314 0.71529 0.0
C1291 C 0.44346 0.11063 0.70108 0.0
C1292 C 0.43095 0.10425 0.68207 0.0
C1293 C 0.40967 0.11091 0.67742 0.0
C1294 C 0.40115 0.12401 0.69167 0.0
C1295 C 0.41424 0.1301 0.71088 0.0
H1296 H 0.84413 0.36518 0.70658 0.0
H1297 H 0.93168 0.40722 0.7316 0.0
H1298 H 0.93534 0.36569 0.71944 0.0
H1299 H 0.82601 0.29539 0.71783 0.0
H1300 H 0.80349 0.27718 0.69574 0.0
H1301 H 0.80798 0.31092 0.70523 0.0
H1302 H 0.82456 0.33175 0.67275 0.0
H1303 H 0.81991 0.29799 0.66311 0.0
H1304 H 0.85368 0.33017 0.66302 0.0
H1305 H 0.92895 0.31876 0.70652 0.0
H1306 H 0.91344 0.26992 0.69226 0.0
H1307 H 0.83011 0.25757 0.67504 0.0
C1308 C 0.86419 0.36581 0.70914 0.0
C1309 C 0.88763 0.38946 0.72008 0.0
C1310 C 0.9134 0.38928 0.72341 0.0
C1311 C 0.91571 0.3658 0.71652 0.0
C1312 C 0.89209 0.34257 0.70622 0.0
C1313 C 0.86686 0.34238 0.70239 0.0
C1314 C 0.84447 0.31417 0.6915 0.0
C1315 C 0.81898 0.29849 0.70328 0.0
C1316 C 0.83511 0.3188 0.6714 0.0
C1317 C 0.86102 0.29854 0.68997 0.0
C1318 C 0.88845 0.31538 0.69859 0.0
C1319 C 0.9076 0.30546 0.69959 0.0
C1320 C 0.89857 0.27765 0.6915 0.0
C1321 C 0.87064 0.26001 0.68248 0.0
C1322 C 0.85167 0.27068 0.6817 0.0
H1323 H 0.14485 0.96694 0.6348 0.0
H1324 H 0.19264 0.93374 0.60642 0.0
H1325 H 0.2373 0.97452 0.622 0.0
H1326 H 0.19266 0.04008 0.6301 0.0
H1327 H 0.1888 0.05335 0.6534 0.0
H1328 H 0.16013 0.02055 0.64118 0.0
H1329 H 0.15963 0.99392 0.67105 0.0
H1330 H 0.18818 0.02672 0.68342 0.0
H1331 H 0.19188 0.99553 0.68056 0.0
H1332 H 0.27677 0.02003 0.6385 0.0
H1333 H 0.30913 0.06692 0.65652 0.0
H1334 H 0.23691 0.07154 0.67515 0.0
C1335 C 0.16472 0.96804 0.6322 0.0
C1336 C 0.16527 0.94718 0.61933 0.0
C1337 C 0.19172 0.94958 0.61607 0.0
C1338 C 0.21721 0.97263 0.6249 0.0
C1339 C 0.21604 0.9932 0.63708 0.0
C1340 C 0.19055 0.99112 0.64092 0.0
C1341 C 0.19561 0.01686 0.65413 0.0
C1342 C 0.18359 0.0337 0.6441 0.0
C1343 C 0.18308 0.0077 0.67344 0.0
C1344 C 0.22785 0.03376 0.6569 0.0
C1345 C 0.23909 0.0196 0.6469 0.0
C1346 C 0.26824 0.03119 0.64657 0.0
C1347 C 0.28646 0.05789 0.65681 0.0
C1348 C 0.27557 0.07279 0.66733 0.0
C1349 C 0.24583 0.06049 0.66739 0.0
H1350 H 0.02491 0.20185 0.59516 0.0
H1351 H 0.08909 0.23706 0.64437 0.0
H1352 H 0.05386 0.23649 0.66523 0.0
H1353 H 0.99047 0.24151 0.60781 0.0
H1354 H 0.95511 0.21275 0.59995 0.0
H1355 H 0.98484 0.21498 0.58857 0.0
H1356 H 0.9708 0.1639 0.5965 0.0
H1357 H 0.94068 0.16122 0.60757 0.0
H1358 H 0.966 0.15507 0.62112 0.0
H1359 H 0.01248 0.23361 0.68063 0.0
H1360 H 0.96672 0.22594 0.69019 0.0
H1361 H 0.92846 0.1921 0.63125 0.0
C1362 C 0.03155 0.20945 0.61032 0.0
C1363 C 0.05985 0.21939 0.61812 0.0
C1364 C 0.06753 0.22892 0.63809 0.0
C1365 C 0.0477 0.2289 0.65004 0.0
C1366 C 0.02015 0.21921 0.64187 0.0
C1367 C 0.01194 0.20946 0.62252 0.0
C1368 C 0.98087 0.2001 0.61749 0.0
C1369 C 0.97765 0.21844 0.60257 0.0
C1370 C 0.96357 0.16817 0.61025 0.0
C1371 C 0.97294 0.20603 0.63708 0.0
C1372 C 0.99603 0.21725 0.65087 0.0
C1373 C 0.99422 0.22475 0.66998 0.0
C1374 C 0.96806 0.22037 0.67525 0.0
C1375 C 0.94383 0.20839 0.66152 0.0
C1376 C 0.94648 0.20128 0.64213 0.0
H1377 H 0.77686 0.80507 0.61617 0.0
H1378 H 0.85116 0.88247 0.64301 0.0
H1379 H 0.86538 0.85366 0.66165 0.0
H1380 H 0.76156 0.76622 0.658 0.0
H1381 H 0.75117 0.7322 0.64506 0.0
H1382 H 0.74683 0.75857 0.63306 0.0
H1383 H 0.77662 0.75606 0.60619 0.0
H1384 H 0.7812 0.72975 0.61814 0.0
H1385 H 0.81177 0.76214 0.61272 0.0
H1386 H 0.87177 0.81752 0.67775 0.0
H1387 H 0.86976 0.77555 0.69095 0.0
H1388 H 0.79123 0.72012 0.6547 0.0
C1389 C 0.79621 0.8159 0.62588 0.0
C1390 C 0.81267 0.84619 0.62827 0.0
C1391 C 0.83781 0.85945 0.64119 0.0
C1392 C 0.84624 0.84323 0.65175 0.0
C1393 C 0.82945 0.81361 0.64927 0.0
C1394 C 0.80499 0.79992 0.63666 0.0
C1395 C 0.79074 0.76766 0.63716 0.0
C1396 C 0.7608 0.75545 0.64371 0.0
C1397 C 0.79004 0.75304 0.61738 0.0
C1398 C 0.81076 0.76555 0.65227 0.0
C1399 C 0.83307 0.79241 0.65883 0.0
C1400 C 0.85441 0.79637 0.67273 0.0
C1401 C 0.85302 0.77232 0.68018 0.0
C1402 C 0.83035 0.74447 0.6739 0.0
C1403 C 0.80889 0.74108 0.65972 0.0
H1404 H 0.00691 0.80724 0.60496 0.0
H1405 H 0.06242 0.83643 0.65845 0.0
H1406 H 0.02157 0.80661 0.6764 0.0
H1407 H 0.94448 0.8036 0.62629 0.0
H1408 H 0.91955 0.77196 0.61085 0.0
H1409 H 0.9527 0.79726 0.60243 0.0
H1410 H 0.96406 0.75682 0.59541 0.0
H1411 H 0.93109 0.73152 0.604 0.0
H1412 H 0.96407 0.73575 0.61456 0.0
H1413 H 0.97605 0.77035 0.68798 0.0
H1414 H 0.92764 0.73344 0.69328 0.0
H1415 H 0.90037 0.72829 0.63253 0.0
C1416 C 0.01024 0.80768 0.62051 0.0
C1417 C 0.03781 0.82395 0.63036 0.0
C1418 C 0.0415 0.82403 0.65067 0.0
C1419 C 0.01843 0.80712 0.66095 0.0
C1420 C 0.9917 0.79055 0.65075 0.0
C1421 C 0.98732 0.79101 0.63103 0.0
C1422 C 0.95646 0.77058 0.62357 0.0
C1423 C 0.94247 0.78683 0.6153 0.0
C1424 C 0.95378 0.74729 0.6085 0.0
C1425 C 0.94438 0.75818 0.64211 0.0
C1426 C 0.96514 0.76999 0.65758 0.0
C1427 C 0.95954 0.76119 0.67603 0.0
C1428 C 0.93195 0.74002 0.67886 0.0
C1429 C 0.91009 0.72788 0.66336 0.0
C1430 C 0.91652 0.73719 0.64473 0.0
H1431 H 0.20696 0.21488 0.60157 0.0
H1432 H 0.16613 0.2172 0.65268 0.0
H1433 H 0.19334 0.19937 0.67111 0.0
H1434 H 0.21005 0.14982 0.61056 0.0
H1435 H 0.24421 0.16303 0.6015 0.0
H1436 H 0.22011 0.17404 0.59199 0.0
H1437 H 0.25893 0.227 0.60063 0.0
H1438 H 0.28303 0.21614 0.61028 0.0
H1439 H 0.27517 0.23911 0.62518 0.0
H1440 H 0.22773 0.18557 0.68462 0.0
H1441 H 0.26462 0.1731 0.69207 0.0
H1442 H 0.28285 0.17812 0.63202 0.0
C1443 C 0.20354 0.21122 0.61658 0.0
C1444 C 0.1847 0.21765 0.62584 0.0
C1445 C 0.18062 0.21256 0.64543 0.0
C1446 C 0.19598 0.20247 0.65597 0.0
C1447 C 0.21505 0.19718 0.64662 0.0
C1448 C 0.21864 0.201 0.62729 0.0
C1449 C 0.24106 0.19433 0.62091 0.0
C1450 C 0.22807 0.16878 0.60532 0.0
C1451 C 0.26602 0.22072 0.61384 0.0
C1452 C 0.24989 0.18675 0.63977 0.0
C1453 C 0.23457 0.18856 0.65437 0.0
C1454 C 0.23964 0.18378 0.67326 0.0
C1455 C 0.26081 0.17685 0.67736 0.0
C1456 C 0.2767 0.17457 0.66265 0.0
C1457 C 0.27097 0.17947 0.64356 0.0
H1458 H 0.77545 0.98232 0.63126 0.0
H1459 H 0.84254 0.96938 0.65592 0.0
H1460 H 0.86788 0.01905 0.67124 0.0
H1461 H 0.82022 0.05617 0.62156 0.0
H1462 H 0.79538 0.06708 0.62826 0.0
H1463 H 0.78269 0.03077 0.61864 0.0
H1464 H 0.75612 0.01242 0.64899 0.0
H1465 H 0.76869 0.04866 0.65868 0.0
H1466 H 0.77548 0.02532 0.67267 0.0
H1467 H 0.88615 0.06964 0.68354 0.0
H1468 H 0.89561 0.11798 0.6937 0.0
H1469 H 0.81605 0.09887 0.6624 0.0
C1470 C 0.79561 0.9901 0.63975 0.0
C1471 C 0.80744 0.97224 0.64203 0.0
C1472 C 0.83346 0.9829 0.65366 0.0
C1473 C 0.84795 0.01104 0.66243 0.0
C1474 C 0.83595 0.0282 0.65969 0.0
C1475 C 0.81031 0.0182 0.64875 0.0
C1476 C 0.80185 0.04103 0.64866 0.0
C1477 C 0.79993 0.04924 0.62806 0.0
C1478 C 0.77388 0.03127 0.6578 0.0
C1479 C 0.82673 0.06537 0.66131 0.0
C1480 C 0.84618 0.05743 0.66735 0.0
C1481 C 0.87105 0.07607 0.67896 0.0
C1482 C 0.8762 0.10353 0.68466 0.0
C1483 C 0.85655 0.11223 0.67891 0.0
C1484 C 0.83145 0.09284 0.66703 0.0
H1485 H 0.45816 0.35836 0.7202 0.0
H1486 H 0.53704 0.36692 0.70326 0.0
H1487 H 0.51238 0.31537 0.69268 0.0
H1488 H 0.42927 0.28679 0.7371 0.0
H1489 H 0.39343 0.27511 0.72744 0.0
H1490 H 0.41747 0.31234 0.7352 0.0
H1491 H 0.40849 0.32572 0.70139 0.0
H1492 H 0.38441 0.28859 0.69355 0.0
H1493 H 0.41415 0.3093 0.68015 0.0
H1494 H 0.47967 0.26394 0.68301 0.0
H1495 H 0.44006 0.21559 0.67269 0.0
H1496 H 0.38087 0.23893 0.6948 0.0
C1497 C 0.47027 0.3492 0.71458 0.0
C1498 C 0.49977 0.36651 0.71317 0.0
C1499 C 0.51469 0.354 0.70504 0.0
C1500 C 0.50084 0.32472 0.69897 0.0
C1501 C 0.47191 0.30821 0.70082 0.0
C1502 C 0.45667 0.31991 0.70831 0.0
C1503 C 0.42536 0.29751 0.70756 0.0
C1504 C 0.41583 0.29266 0.72805 0.0
C1505 C 0.40703 0.30578 0.69491 0.0
C1506 C 0.42538 0.27153 0.69818 0.0
C1507 C 0.4526 0.27829 0.69467 0.0
C1508 C 0.45829 0.25837 0.68573 0.0
C1509 C 0.43558 0.23094 0.67989 0.0
C1510 C 0.40736 0.22349 0.68286 0.0
C1511 C 0.40223 0.24397 0.69243 0.0
H1512 H 0.6381 0.10216 0.69498 0.0
H1513 H 0.65598 0.13374 0.75575 0.0
H1514 H 0.70734 0.1544 0.75302 0.0
H1515 H 0.69145 0.08207 0.6941 0.0
H1516 H 0.70058 0.09248 0.67023 0.0
H1517 H 0.66529 0.08127 0.67662 0.0
H1518 H 0.67007 0.12887 0.66715 0.0
H1519 H 0.70533 0.14018 0.66065 0.0
H1520 H 0.69959 0.16223 0.67806 0.0
H1521 H 0.75637 0.17105 0.74391 0.0
H1522 H 0.80019 0.18212 0.72948 0.0
H1523 H 0.7514 0.13908 0.67431 0.0
C1524 C 0.65291 0.11382 0.70762 0.0
C1525 C 0.64312 0.11712 0.72547 0.0
C1526 C 0.66306 0.13166 0.74184 0.0
C1527 C 0.69224 0.14334 0.74043 0.0
C1528 C 0.7012 0.13997 0.72259 0.0
C1529 C 0.68218 0.12551 0.70647 0.0
C1530 C 0.69747 0.12424 0.68918 0.0
C1531 C 0.68814 0.09317 0.68212 0.0
C1532 C 0.69284 0.13981 0.67279 0.0
C1533 C 0.72808 0.1402 0.69812 0.0
C1534 C 0.72962 0.14911 0.7174 0.0
C1535 C 0.7554 0.1642 0.72883 0.0
C1536 C 0.78027 0.1704 0.72042 0.0
C1537 C 0.77947 0.16154 0.70067 0.0
C1538 C 0.75285 0.14616 0.68941 0.0
H1539 H 0.89864 0.54698 0.71333 0.0
H1540 H 0.82494 0.46602 0.69117 0.0
H1541 H 0.80059 0.49149 0.67976 0.0
H1542 H 0.85996 0.58295 0.72899 0.0
H1543 H 0.88582 0.61689 0.72166 0.0
H1544 H 0.89664 0.59227 0.7294 0.0
H1545 H 0.91839 0.59388 0.69706 0.0
H1546 H 0.9076 0.61843 0.68921 0.0
H1547 H 0.89652 0.58549 0.67452 0.0
H1548 H 0.7852 0.52572 0.66945 0.0
H1549 H 0.77986 0.56623 0.66035 0.0
H1550 H 0.8638 0.62558 0.68875 0.0
C1551 C 0.87715 0.53462 0.70641 0.0
C1552 C 0.86333 0.50443 0.70357 0.0
C1553 C 0.83559 0.48906 0.6939 0.0
C1554 C 0.82167 0.50337 0.68735 0.0
C1555 C 0.83584 0.53311 0.69043 0.0
C1556 C 0.86296 0.54861 0.69975 0.0
C1557 C 0.87393 0.5805 0.70037 0.0
C1558 C 0.87941 0.59394 0.72136 0.0
C1559 C 0.90069 0.59544 0.68965 0.0
C1560 C 0.84893 0.58054 0.68965 0.0
C1561 C 0.82713 0.55294 0.68419 0.0
C1562 C 0.80208 0.54739 0.67373 0.0
C1563 C 0.79928 0.57058 0.6686 0.0
C1564 C 0.8214 0.59905 0.67382 0.0
C1565 C 0.84647 0.60405 0.68464 0.0
H1566 H 0.48761 0.9535 0.22985 0.0
H1567 H 0.39954 0.88843 0.21427 0.0
H1568 H 0.40415 0.90041 0.18042 0.0
H1569 H 0.48914 1.00478 0.19813 0.0
H1570 H 0.52468 0.01605 0.19225 0.0
H1571 H 0.51408 1.00299 0.21534 0.0
H1572 H 0.52894 0.96502 0.20864 0.0
H1573 H 0.53956 0.97794 0.18553 0.0
H1574 H 0.5141 0.94081 0.18686 0.0
H1575 H 0.41908 0.91848 0.14777 0.0
H1576 H 0.44253 0.94208 0.11947 0.0
H1577 H 0.52109 0.99474 0.15634 0.0
C1578 C 0.46926 0.94169 0.21934 0.0
C1579 C 0.44316 0.92 0.22483 0.0
C1580 C 0.41964 0.90539 0.21058 0.0
C1581 C 0.42211 0.91193 0.19125 0.0
C1582 C 0.44823 0.93321 0.18634 0.0
C1583 C 0.47135 0.94796 0.20001 0.0
C1584 C 0.49714 0.96967 0.19099 0.0
C1585 C 0.50682 1.00018 0.19969 0.0
C1586 C 0.52136 0.96295 0.19313 0.0
C1587 C 0.48501 0.96474 0.17005 0.0
C1588 C 0.45677 0.9436 0.16765 0.0
C1589 C 0.44118 0.93506 0.14953 0.0
C1590 C 0.45477 0.94848 0.13348 0.0
C1591 C 0.48372 0.9703 0.13559 0.0
C1592 C 0.49888 0.97842 0.15421 0.0
H1593 H 0.08862 0.56186 0.23898 0.0
H1594 H 0.14946 0.53323 0.23337 0.0
H1595 H 0.13784 0.52522 0.19785 0.0
H1596 H 0.03645 0.51086 0.20278 0.0
H1597 H 0.0256 0.53494 0.19396 0.0
H1598 H 0.03989 0.53997 0.21878 0.0
H1599 H 0.07826 0.59183 0.21424 0.0
H1600 H 0.06404 0.58698 0.1894 0.0
H1601 H 0.10096 0.59819 0.19509 0.0
H1602 H 0.11899 0.51962 0.16304 0.0
H1603 H 0.09372 0.51596 0.13149 0.0
H1604 H 0.04363 0.54624 0.16009 0.0
C1605 C 0.09977 0.55431 0.23022 0.0
C1606 C 0.12002 0.54828 0.23885 0.0
C1607 C 0.13379 0.53787 0.22699 0.0
C1608 C 0.12741 0.53336 0.20684 0.0
C1609 C 0.10712 0.53924 0.19879 0.0
C1610 C 0.09346 0.54943 0.2101 0.0
C1611 C 0.07166 0.55291 0.19792 0.0
C1612 C 0.04163 0.53351 0.20371 0.0
C1613 C 0.07919 0.58435 0.19924 0.0
C1614 C 0.07514 0.54302 0.178 0.0
C1615 C 0.09581 0.53539 0.1788 0.0
C1616 C 0.1027 0.52546 0.16224 0.0
C1617 C 0.08804 0.52324 0.14439 0.0
C1618 C 0.06654 0.53069 0.14322 0.0
C1619 C 0.06017 0.54073 0.16035 0.0
H1620 H 0.45205 0.55161 0.21822 0.0
H1621 H 0.46342 0.63614 0.21464 0.0
H1622 H 0.47284 0.63418 0.18032 0.0
H1623 H 0.50823 0.56209 0.19096 0.0
H1624 H 0.49065 0.52615 0.17931 0.0
H1625 H 0.48196 0.53309 0.20281 0.0
H1626 H 0.42895 0.50916 0.18967 0.0
H1627 H 0.43748 0.5021 0.1661 0.0
H1628 H 0.41899 0.52169 0.1688 0.0
H1629 H 0.48267 0.6234 0.14664 0.0
H1630 H 0.49555 0.6063 0.11726 0.0
H1631 H 0.47957 0.52971 0.14357 0.0
C1632 C 0.45598 0.56945 0.21006 0.0
C1633 C 0.45669 0.59389 0.21892 0.0
C1634 C 0.46268 0.6172 0.20802 0.0
C1635 C 0.46792 0.6162 0.18854 0.0
C1636 C 0.4673 0.59183 0.18026 0.0
C1637 C 0.46164 0.56895 0.19073 0.0
C1638 C 0.46432 0.54622 0.17897 0.0
C1639 C 0.48768 0.54164 0.18859 0.0
C1640 C 0.43573 0.51813 0.17569 0.0
C1641 C 0.47274 0.55999 0.16032 0.0
C1642 C 0.47392 0.58609 0.16121 0.0
C1643 C 0.48168 0.60293 0.14577 0.0
C1644 C 0.48884 0.59302 0.12912 0.0
C1645 C 0.48856 0.56673 0.12819 0.0
C1646 C 0.48008 0.54995 0.14394 0.0
H1647 H 0.88924 0.41267 0.78812 0.0
H1648 H 0.92302 0.50074 0.77563 0.0
H1649 H 0.94299 0.51699 0.8097 0.0
H1650 H 0.87185 0.42069 0.83663 0.0
H1651 H 0.88265 0.39675 0.84579 0.0
H1652 H 0.86943 0.39198 0.82072 0.0
H1653 H 0.91544 0.39466 0.81035 0.0
H1654 H 0.92877 0.39938 0.83537 0.0
H1655 H 0.94934 0.42519 0.81919 0.0
H1656 H 0.96094 0.52373 0.84499 0.0
H1657 H 0.9755 0.5204 0.87858 0.0
H1658 H 0.932 0.42804 0.86741 0.0
C1659 C 0.90088 0.4354 0.79247 0.0
C1660 C 0.90442 0.45539 0.77909 0.0
C1661 C 0.91953 0.48493 0.78559 0.0
C1662 C 0.93114 0.4944 0.80492 0.0
C1663 C 0.92752 0.47411 0.81761 0.0
C1664 C 0.91276 0.44523 0.81165 0.0
C1665 C 0.9127 0.42784 0.82797 0.0
C1666 C 0.88235 0.40816 0.83307 0.0
C1667 C 0.92745 0.41077 0.82291 0.0
C1668 C 0.92996 0.45148 0.84402 0.0
C1669 C 0.93818 0.478 0.8378 0.0
C1670 C 0.95462 0.50306 0.85001 0.0
C1671 C 0.96295 0.50095 0.86904 0.0
C1672 C 0.95498 0.47398 0.87571 0.0
C1673 C 0.93814 0.44898 0.86294 0.0
H1674 H 0.5682 0.50357 0.78686 0.0
H1675 H 0.58624 0.43474 0.79165 0.0
H1676 H 0.58101 0.43627 0.82669 0.0
H1677 H 0.60257 0.54245 0.83534 0.0
H1678 H 0.57533 0.55132 0.83898 0.0
H1679 H 0.58419 0.54741 0.81487 0.0
H1680 H 0.53158 0.50969 0.80437 0.0
H1681 H 0.5226 0.51334 0.82844 0.0
H1682 H 0.51409 0.47872 0.81753 0.0
H1683 H 0.56981 0.44232 0.86038 0.0
H1684 H 0.5522 0.4515 0.89021 0.0
H1685 H 0.54084 0.51628 0.86382 0.0
C1686 C 0.57176 0.4894 0.79545 0.0
C1687 C 0.57791 0.46923 0.78669 0.0
C1688 C 0.58166 0.45041 0.79819 0.0
C1689 C 0.57881 0.4512 0.81808 0.0
C1690 C 0.57212 0.47088 0.82625 0.0
C1691 C 0.56867 0.48969 0.81534 0.0
C1692 C 0.55918 0.50704 0.82738 0.0
C1693 C 0.58167 0.53895 0.82925 0.0
C1694 C 0.53014 0.50187 0.81892 0.0
C1695 C 0.55717 0.49455 0.84658 0.0
C1696 C 0.56513 0.47402 0.84569 0.0
C1697 C 0.5639 0.45863 0.86134 0.0
C1698 C 0.55398 0.46412 0.87829 0.0
C1699 C 0.5452 0.4847 0.87949 0.0
C1700 C 0.54723 0.50031 0.86341 0.0
H1701 H 0.5222 0.09683 0.80283 0.0
H1702 H 0.56556 0.05229 0.78401 0.0
H1703 H 0.55808 0.02986 0.81458 0.0
H1704 H 0.54913 0.11026 0.85336 0.0
H1705 H 0.51642 0.10439 0.86214 0.0
H1706 H 0.52533 0.11739 0.83882 0.0
H1707 H 0.47772 0.07513 0.82276 0.0
H1708 H 0.46862 0.06206 0.84604 0.0
H1709 H 0.46888 0.03908 0.8264 0.0
H1710 H 0.54542 0.0115 0.84681 0.0
H1711 H 0.52838 0.99842 0.8788 0.0
H1712 H 0.49277 0.05429 0.87724 0.0
C1713 C 0.53002 0.08227 0.80511 0.0
C1714 C 0.54471 0.07656 0.79098 0.0
C1715 C 0.55473 0.05748 0.79466 0.0
C1716 C 0.55043 0.04446 0.81197 0.0
C1717 C 0.53607 0.05067 0.82559 0.0
C1718 C 0.52599 0.0691 0.82241 0.0
C1719 C 0.51113 0.07192 0.8395 0.0
C1720 C 0.52642 0.10283 0.84901 0.0
C1721 C 0.47972 0.06142 0.8333 0.0
C1722 C 0.51433 0.05208 0.85269 0.0
C1723 C 0.52878 0.04007 0.84433 0.0
C1724 C 0.53405 0.02075 0.8535 0.0
C1725 C 0.52416 0.01334 0.87165 0.0
C1726 C 0.50912 0.02519 0.88056 0.0
C1727 C 0.5044 0.04504 0.87093 0.0
H1728 H 0.12637 0.22697 0.54238 0.0
H1729 H 0.09366 0.2784 0.56798 0.0
H1730 H 0.10116 0.30339 0.53863 0.0
H1731 H 0.18266 0.2844 0.52209 0.0
H1732 H 0.1808 0.26309 0.50062 0.0
H1733 H 0.16992 0.24678 0.52274 0.0
H1734 H 0.12073 0.20996 0.50509 0.0
H1735 H 0.13147 0.22616 0.48289 0.0
H1736 H 0.09986 0.22237 0.49234 0.0
H1737 H 0.11396 0.32444 0.50707 0.0
H1738 H 0.13352 0.34162 0.47628 0.0
H1739 H 0.16115 0.27924 0.47207 0.0
C1740 C 0.12074 0.24346 0.54192 0.0
C1741 C 0.10897 0.25022 0.5576 0.0
C1742 C 0.10185 0.27196 0.55609 0.0
C1743 C 0.10627 0.28656 0.53948 0.0
C1744 C 0.11814 0.27952 0.52447 0.0
C1745 C 0.12545 0.25862 0.52557 0.0
C1746 C 0.13959 0.25647 0.50792 0.0
C1747 C 0.17005 0.26309 0.51369 0.0
C1748 C 0.12185 0.22699 0.49638 0.0
C1749 C 0.13941 0.2797 0.49688 0.0
C1750 C 0.12655 0.29244 0.50657 0.0
C1751 C 0.12397 0.31456 0.49932 0.0
C1752 C 0.13503 0.32409 0.48178 0.0
C1753 C 0.1488 0.31175 0.47178 0.0
C1754 C 0.15086 0.28917 0.47945 0.0
H1755 H 0.7391 0.85 0.5653 0.0
H1756 H 0.82966 0.89583 0.56108 0.0
H1757 H 0.82105 0.89535 0.52567 0.0
H1758 H 0.71941 0.80526 0.51803 0.0
H1759 H 0.68749 0.80691 0.51318 0.0
H1760 H 0.70086 0.80835 0.53778 0.0
H1761 H 0.70153 0.85589 0.54594 0.0
H1762 H 0.68853 0.8548 0.52135 0.0
H1763 H 0.72108 0.88554 0.53202 0.0
H1764 H 0.80272 0.89401 0.49151 0.0
H1765 H 0.7761 0.89002 0.46054 0.0
H1766 H 0.69695 0.84352 0.48645 0.0
C1767 C 0.75698 0.85918 0.55675 0.0
C1768 C 0.78503 0.87252 0.56567 0.0
C1769 C 0.80806 0.88508 0.5543 0.0
C1770 C 0.80335 0.88498 0.53424 0.0
C1771 C 0.77544 0.8721 0.52583 0.0
C1772 C 0.7526 0.85911 0.53665 0.0
C1773 C 0.72479 0.84789 0.52412 0.0
C1774 C 0.70709 0.81516 0.52322 0.0
C1775 C 0.70801 0.86188 0.53129 0.0
C1776 C 0.7356 0.85746 0.50474 0.0
C1777 C 0.76486 0.87117 0.50603 0.0
C1778 C 0.77977 0.88287 0.49024 0.0
C1779 C 0.7644 0.88037 0.47265 0.0
C1780 C 0.73433 0.86626 0.47087 0.0
C1781 C 0.71988 0.85462 0.48724 0.0
H1782 H 0.15979 0.8971 0.55996 0.0
H1783 H 0.07423 0.88115 0.54649 0.0
H1784 H 0.07769 0.87221 0.51173 0.0
H1785 H 0.18887 0.93502 0.51944 0.0
H1786 H 0.21175 0.92039 0.516 0.0
H1787 H 0.20178 0.92397 0.53975 0.0
H1788 H 0.18225 0.87001 0.54245 0.0
H1789 H 0.19216 0.86625 0.51868 0.0
H1790 H 0.15602 0.84418 0.52398 0.0
H1791 H 0.09174 0.86722 0.47806 0.0
H1792 H 0.11494 0.86667 0.44872 0.0
H1793 H 0.19105 0.88554 0.48472 0.0
C1794 C 0.14178 0.89185 0.54973 0.0
C1795 C 0.11676 0.88997 0.55598 0.0
C1796 C 0.09352 0.88251 0.54209 0.0
C1797 C 0.09534 0.8775 0.5223 0.0
C1798 C 0.12047 0.87987 0.51666 0.0
C1799 C 0.14322 0.88679 0.53001 0.0
C1800 C 0.16807 0.88859 0.52028 0.0
C1801 C 0.19415 0.91879 0.52409 0.0
C1802 C 0.17502 0.8659 0.52673 0.0
C1803 C 0.15597 0.88202 0.4993 0.0
C1804 C 0.12844 0.87689 0.49746 0.0
C1805 C 0.1132 0.87098 0.47938 0.0
C1806 C 0.12653 0.87054 0.46277 0.0
C1807 C 0.15488 0.87604 0.46433 0.0
C1808 C 0.16951 0.88155 0.48294 0.0
H1809 H 0.59626 0.76137 0.11744 0.0
H1810 H 0.53233 0.78559 0.1246 0.0
H1811 H 0.54523 0.79407 0.1599 0.0
H1812 H 0.58573 0.72445 0.16124 0.0
H1813 H 0.62294 0.73661 0.16647 0.0
H1814 H 0.60804 0.73156 0.14178 0.0
H1815 H 0.64523 0.78383 0.1372 0.0
H1816 H 0.66014 0.78909 0.16188 0.0
H1817 H 0.64816 0.81249 0.15343 0.0
H1818 H 0.56632 0.80186 0.19419 0.0
H1819 H 0.59389 0.80808 0.22522 0.0
H1820 H 0.64283 0.77683 0.19608 0.0
C1821 C 0.58467 0.76803 0.12645 0.0
C1822 C 0.56332 0.7729 0.1182 0.0
C1823 C 0.54902 0.7821 0.13052 0.0
C1824 C 0.55606 0.78679 0.15061 0.0
C1825 C 0.57737 0.78207 0.15822 0.0
C1826 C 0.59139 0.77278 0.14656 0.0
C1827 C 0.61392 0.76996 0.15841 0.0
C1828 C 0.60725 0.73879 0.15688 0.0
C1829 C 0.64362 0.79004 0.15237 0.0
C1830 C 0.61059 0.77945 0.17852 0.0
C1831 C 0.58932 0.78624 0.17808 0.0
C1832 C 0.58281 0.79628 0.19476 0.0
C1833 C 0.5985 0.79956 0.21236 0.0
C1834 C 0.62048 0.79277 0.21323 0.0
C1835 C 0.62637 0.78243 0.19598 0.0
H1836 H 0.23844 0.83555 0.11879 0.0
H1837 H 0.22431 0.74942 0.11881 0.0
H1838 H 0.21063 0.74752 0.15214 0.0
H1839 H 0.26836 0.85883 0.16855 0.0
H1840 H 0.25161 0.87988 0.17254 0.0
H1841 H 0.26036 0.87448 0.14868 0.0
H1842 H 0.20802 0.85414 0.13501 0.0
H1843 H 0.19913 0.85953 0.15881 0.0
H1844 H 0.18023 0.82462 0.14556 0.0
H1845 H 0.19882 0.75516 0.18564 0.0
H1846 H 0.18752 0.77096 0.2162 0.0
H1847 H 0.20988 0.85225 0.19442 0.0
C1848 C 0.23261 0.81635 0.12585 0.0
C1849 C 0.23238 0.7926 0.11616 0.0
C1850 C 0.22428 0.76773 0.12583 0.0
C1851 C 0.21668 0.76653 0.14482 0.0
C1852 C 0.21725 0.79035 0.15396 0.0
C1853 C 0.22488 0.81475 0.14478 0.0
C1854 C 0.22329 0.83721 0.15772 0.0
C1855 C 0.25265 0.86419 0.16213 0.0
C1856 C 0.20136 0.84427 0.14874 0.0
C1857 C 0.21346 0.82159 0.17559 0.0
C1858 C 0.21027 0.79466 0.17318 0.0
C1859 C 0.2013 0.77623 0.1877 0.0
C1860 C 0.19511 0.78546 0.20506 0.0
C1861 C 0.19779 0.81282 0.20772 0.0
C1862 C 0.20733 0.83111 0.19278 0.0
H1863 H 0.1773 0.42233 0.12966 0.0
H1864 H 0.2663 0.4863 0.14251 0.0
H1865 H 0.26351 0.47671 0.17682 0.0
H1866 H 0.15398 0.43706 0.17538 0.0
H1867 H 0.12872 0.39992 0.17688 0.0
H1868 H 0.1373 0.41319 0.15359 0.0
H1869 H 0.15096 0.37485 0.14473 0.0
H1870 H 0.14266 0.36163 0.16803 0.0
H1871 H 0.17731 0.37278 0.16033 0.0
H1872 H 0.25186 0.45801 0.20939 0.0
H1873 H 0.23203 0.43228 0.23779 0.0
H1874 H 0.15012 0.38141 0.20416 0.0
C1875 C 0.19605 0.43474 0.13976 0.0
C1876 C 0.22205 0.45507 0.13333 0.0
C1877 C 0.24622 0.47043 0.14701 0.0
C1878 C 0.24481 0.46523 0.16657 0.0
C1879 C 0.21904 0.44466 0.17234 0.0
C1880 C 0.19503 0.42978 0.15938 0.0
C1881 C 0.17023 0.40802 0.16921 0.0
C1882 C 0.14614 0.41498 0.16874 0.0
C1883 C 0.15968 0.37752 0.16002 0.0
C1884 C 0.18417 0.4127 0.18963 0.0
C1885 C 0.21229 0.43402 0.19115 0.0
C1886 C 0.22975 0.44153 0.20842 0.0
C1887 C 0.21821 0.42686 0.22455 0.0
C1888 C 0.1894 0.40484 0.22339 0.0
C1889 C 0.17226 0.39792 0.20561 0.0
H1890 H 0.78265 0.55574 0.87909 0.0
H1891 H 0.74907 0.60855 0.90072 0.0
H1892 H 0.75276 0.62774 0.86914 0.0
H1893 H 0.83474 0.60886 0.85341 0.0
H1894 H 0.83156 0.58419 0.83362 0.0
H1895 H 0.82365 0.57233 0.8573 0.0
H1896 H 0.77365 0.53209 0.84302 0.0
H1897 H 0.78141 0.54387 0.81927 0.0
H1898 H 0.75057 0.54109 0.82937 0.0
H1899 H 0.76224 0.64317 0.83578 0.0
H1900 H 0.77885 0.65523 0.80357 0.0
H1901 H 0.80811 0.59403 0.80391 0.0
C1902 C 0.77603 0.57132 0.87726 0.0
C1903 C 0.76521 0.58026 0.89249 0.0
C1904 C 0.7567 0.60065 0.88925 0.0
C1905 C 0.7589 0.61189 0.87135 0.0
C1906 C 0.76982 0.60274 0.85678 0.0
C1907 C 0.77837 0.58302 0.85954 0.0
C1908 C 0.7909 0.57803 0.84186 0.0
C1909 C 0.82206 0.58636 0.84685 0.0
C1910 C 0.77306 0.54692 0.83285 0.0
C1911 C 0.78846 0.59837 0.82886 0.0
C1912 C 0.77591 0.61214 0.83766 0.0
C1913 C 0.77189 0.63236 0.82868 0.0
C1914 C 0.78125 0.63894 0.81032 0.0
C1915 C 0.79469 0.62551 0.80114 0.0
C1916 C 0.79803 0.60476 0.81055 0.0
H1917 H 0.45737 0.19121 0.89439 0.0
H1918 H 0.42351 0.2423 0.91866 0.0
H1919 H 0.40299 0.24216 0.88616 0.0
H1920 H 0.47458 0.22311 0.84969 0.0
H1921 H 0.46372 0.19001 0.83528 0.0
H1922 H 0.47649 0.19455 0.86043 0.0
H1923 H 0.43008 0.14914 0.86661 0.0
H1924 H 0.41722 0.14438 0.84146 0.0
H1925 H 0.39641 0.14657 0.85996 0.0
H1926 H 0.38625 0.23681 0.85127 0.0
H1927 H 0.37217 0.22451 0.81622 0.0
H1928 H 0.41526 0.17546 0.81434 0.0
C1929 C 0.44543 0.20216 0.89293 0.0
C1930 C 0.44237 0.21703 0.90915 0.0
C1931 C 0.42676 0.23129 0.90648 0.0
C1932 C 0.41484 0.23119 0.88807 0.0
C1933 C 0.41846 0.21655 0.87243 0.0
C1934 C 0.43317 0.2021 0.87465 0.0
C1935 C 0.43341 0.18757 0.85543 0.0
C1936 C 0.46386 0.19953 0.84989 0.0
C1937 C 0.41838 0.15498 0.8559 0.0
C1938 C 0.41652 0.19612 0.84211 0.0
C1939 C 0.40829 0.213 0.85223 0.0
C1940 C 0.39261 0.22367 0.84316 0.0
C1941 C 0.3849 0.21673 0.82321 0.0
C1942 C 0.39278 0.1992 0.81249 0.0
C1943 C 0.40885 0.18882 0.82214 0.0
H1944 H 0.84609 0.25525 0.89956 0.0
H1945 H 0.75584 0.222 0.88608 0.0
H1946 H 0.76085 0.2156 0.85141 0.0
H1947 H 0.86842 0.29413 0.8567 0.0
H1948 H 0.89633 0.28596 0.85396 0.0
H1949 H 0.88577 0.28892 0.87764 0.0
H1950 H 0.87652 0.23814 0.88276 0.0
H1951 H 0.88688 0.23495 0.85906 0.0
H1952 H 0.8526 0.20856 0.8654 0.0
H1953 H 0.77528 0.21078 0.81834 0.0
H1954 H 0.79811 0.2083 0.7893 0.0
H1955 H 0.87935 0.24651 0.82411 0.0
C1956 C 0.82745 0.24706 0.8893 0.0
C1957 C 0.80053 0.23902 0.89561 0.0
C1958 C 0.77661 0.22792 0.88168 0.0
C1959 C 0.77927 0.22438 0.86192 0.0
C1960 C 0.80602 0.23218 0.85625 0.0
C1961 C 0.82973 0.24342 0.86951 0.0
C1962 C 0.85592 0.24943 0.85965 0.0
C1963 C 0.8779 0.28152 0.86213 0.0
C1964 C 0.86872 0.23171 0.86717 0.0
C1965 C 0.84316 0.23944 0.83882 0.0
C1966 C 0.81438 0.22968 0.83716 0.0
C1967 C 0.79787 0.21866 0.81943 0.0
C1968 C 0.8111 0.21751 0.80297 0.0
C1969 C 0.84061 0.22733 0.8043 0.0
C1970 C 0.85674 0.23858 0.82254 0.0
H1971 H 0.22356 0.09037 0.45868 0.0
H1972 H 0.27096 0.17802 0.44455 0.0
H1973 H 0.29083 0.19371 0.47869 0.0
H1974 H 0.20886 0.10574 0.50727 0.0
H1975 H 0.2136 0.07813 0.51703 0.0
H1976 H 0.20084 0.07421 0.49193 0.0
H1977 H 0.24189 0.0669 0.48177 0.0
H1978 H 0.25473 0.07075 0.5068 0.0
H1979 H 0.278 0.09349 0.49015 0.0
H1980 H 0.30866 0.19931 0.5138 0.0
H1981 H 0.3228 0.19435 0.54713 0.0
H1982 H 0.26472 0.10291 0.538 0.0
C1983 C 0.238 0.11291 0.46275 0.0
C1984 C 0.2456 0.13296 0.44888 0.0
C1985 C 0.26441 0.16228 0.45491 0.0
C1986 C 0.27593 0.17139 0.47427 0.0
C1987 C 0.26836 0.15097 0.48746 0.0
C1988 C 0.24975 0.12234 0.48197 0.0
C1989 C 0.24628 0.10449 0.49868 0.0
C1990 C 0.21557 0.08978 0.50404 0.0
C1991 C 0.2558 0.08263 0.49407 0.0
C1992 C 0.26633 0.12747 0.51435 0.0
C1993 C 0.2787 0.15417 0.50765 0.0
C1994 C 0.29893 0.17854 0.51925 0.0
C1995 C 0.30693 0.1755 0.53811 0.0
C1996 C 0.2948 0.14827 0.54519 0.0
C1997 C 0.27398 0.12407 0.53316 0.0
H1998 H 0.87538 0.13624 0.45651 0.0
H1999 H 0.96504 0.16525 0.46842 0.0
H2000 H 0.96144 0.17151 0.50334 0.0
H2001 H 0.87245 0.18402 0.4933 0.0
H2002 H 0.83784 0.15806 0.49939 0.0
H2003 H 0.84751 0.15616 0.47527 0.0
H2004 H 0.83575 0.10402 0.47802 0.0
H2005 H 0.82608 0.10579 0.50217 0.0
H2006 H 0.85269 0.09624 0.4979 0.0
H2007 H 0.94799 0.17394 0.53718 0.0
H2008 H 0.92575 0.17276 0.56725 0.0
H2009 H 0.8449 0.14259 0.53343 0.0
C2010 C 0.89424 0.1438 0.46646 0.0
C2011 C 0.92056 0.15044 0.45961 0.0
C2012 C 0.94475 0.1605 0.47319 0.0
C2013 C 0.94288 0.16394 0.4931 0.0
C2014 C 0.91667 0.15724 0.49933 0.0
C2015 C 0.89278 0.14741 0.48642 0.0
C2016 C 0.86716 0.14177 0.49692 0.0
C2017 C 0.85557 0.16116 0.49086 0.0
C2018 C 0.84406 0.11007 0.49355 0.0
C2019 C 0.88037 0.14985 0.51774 0.0
C2020 C 0.90895 0.15871 0.51881 0.0
C2021 C 0.92564 0.16716 0.53649 0.0
C2022 C 0.91283 0.16659 0.55352 0.0
C2023 C 0.88354 0.15769 0.55282 0.0
C2024 C 0.86723 0.1492 0.53458 0.0
H2025 H 0.84925 0.75722 0.46151 0.0
H2026 H 0.93719 0.82281 0.47698 0.0
H2027 H 0.93253 0.81149 0.51097 0.0
H2028 H 0.82249 0.77008 0.50537 0.0
H2029 H 0.79731 0.73275 0.50624 0.0
H2030 H 0.80763 0.74654 0.4833 0.0
H2031 H 0.82272 0.70896 0.47554 0.0
H2032 H 0.81257 0.69514 0.49848 0.0
H2033 H 0.84806 0.70699 0.49226 0.0
H2034 H 0.91833 0.79169 0.54333 0.0
H2035 H 0.89591 0.76506 0.57099 0.0
H2036 H 0.81682 0.71433 0.53425 0.0
C2037 C 0.86745 0.7696 0.47206 0.0
C2038 C 0.89359 0.79098 0.4665 0.0
C2039 C 0.91701 0.80612 0.48078 0.0
C2040 C 0.91452 0.79998 0.50017 0.0
C2041 C 0.88844 0.77871 0.5051 0.0
C2042 C 0.8653 0.76385 0.49143 0.0
C2043 C 0.83976 0.74166 0.50032 0.0
C2044 C 0.81536 0.74816 0.49871 0.0
C2045 C 0.83023 0.7114 0.4911 0.0
C2046 C 0.85218 0.74612 0.52109 0.0
C2047 C 0.88025 0.76761 0.52362 0.0
C2048 C 0.89627 0.77499 0.54153 0.0
C2049 C 0.88329 0.75984 0.5572 0.0
C2050 C 0.85456 0.73755 0.55487 0.0
C2051 C 0.83889 0.73097 0.53654 0.0
loop_
_geom_bond_atom_site_label_1
_geom_bond_atom_site_label_2
_geom_bond_distance
_geom_bond_site_symmetry_2
_ccdc_geom_bond_type
H0 C7 0.929 . S
H1 C10 0.930 . S
H2 C12 0.929 . S
H3 C4 0.969 . S
C4 H3 0.969 . S
C4 O5 1.550 . S
C4 H6 0.973 . S
O5 C4 1.550 . S
O5 C11 1.412 . S
H6 C4 0.973 . S
C7 H0 0.929 . S
C7 C8 1.400 . S
C7 C9 1.364 . S
C8 C7 1.400 . S
C8 C12 1.377 . S
C9 C7 1.364 . S
C9 C10 1.374 . S
C10 H1 0.930 . S
C10 C9 1.374 . S
C10 C11 1.383 . S
C11 O5 1.412 . S
C11 C10 1.383 . S
C11 C12 1.394 . S
C12 H2 0.929 . S
C12 C8 1.377 . S
C12 C11 1.394 . S
H13 C20 0.929 . S
H14 C23 0.930 . S
H15 C25 0.929 . S
H16 C17 0.969 . S
C17 H16 0.969 . S
C17 O18 1.550 . S
C17 H19 0.973 . S
O18 C17 1.550 . S
O18 C24 1.412 . S
H19 C17 0.973 . S
C20 H13 0.929 . S
C20 C21 1.400 . S
C20 C22 1.364 . S
C21 C20 1.400 . S
C21 C25 1.377 . S
C22 C20 1.364 . S
C22 C23 1.374 . S
C23 H14 0.930 . S
C23 C22 1.374 . S
C23 C24 1.383 . S
C24 O18 1.412 . S
C24 C23 1.383 . S
C24 C25 1.394 . S
C25 H15 0.929 . S
C25 C21 1.377 . S
C25 C24 1.394 . S
H26 C33 0.929 . S
H27 C36 0.930 . S
H28 C38 0.929 . S
H29 C30 0.969 . S
C30 H29 0.969 . S
C30 O31 1.550 . S
C30 H32 0.973 . S
O31 C30 1.550 . S
O31 C37 1.412 . S
H32 C30 0.973 . S
C33 H26 0.929 . S
C33 C34 1.400 . S
C33 C35 1.364 . S
C34 C33 1.400 . S
C34 C38 1.377 . S
C35 C33 1.364 . S
C35 C36 1.374 . S
C36 H27 0.930 . S
C36 C35 1.374 . S
C36 C37 1.383 . S
C37 O31 1.412 . S
C37 C36 1.383 . S
C37 C38 1.394 . S
C38 H28 0.929 . S
C38 C34 1.377 . S
C38 C37 1.394 . S
H39 C46 0.929 . S
H40 C49 0.930 . S
H41 C51 0.929 . S
H42 C43 0.969 . S
C43 H42 0.969 . S
C43 O44 1.550 . S
C43 H45 0.973 . S
O44 C43 1.550 . S
O44 C50 1.412 . S
H45 C43 0.973 . S
C46 H39 0.929 . S
C46 C47 1.400 . S
C46 C48 1.364 . S
C47 C46 1.400 . S
C47 C51 1.377 . S
C48 C46 1.364 . S
C48 C49 1.374 . S
C49 H40 0.930 . S
C49 C48 1.374 . S
C49 C50 1.383 . S
C50 O44 1.412 . S
C50 C49 1.383 . S
C50 C51 1.394 . S
C51 H41 0.929 . S
C51 C47 1.377 . S
C51 C50 1.394 . S
H52 C59 0.929 . S
H53 C62 0.930 . S
H54 C64 0.929 . S
H55 C56 0.969 . S
C56 H55 0.969 . S
C56 O57 1.550 . S
C56 H58 0.973 . S
O57 C56 1.550 . S
O57 C63 1.412 . S
H58 C56 0.973 . S
C59 H52 0.929 . S
C59 C60 1.400 . S
C59 C61 1.364 . S
C60 C59 1.400 . S
C60 C64 1.377 . S
C61 C59 1.364 . S
C61 C62 1.374 . S
C62 H53 0.930 . S
C62 C61 1.374 . S
C62 C63 1.383 . S
C63 O57 1.412 . S
C63 C62 1.383 . S
C63 C64 1.394 . S
C64 H54 0.929 . S
C64 C60 1.377 . S
C64 C63 1.394 . S
H65 C72 0.929 . S
H66 C75 0.930 . S
H67 C77 0.929 . S
H68 C69 0.969 . S
C69 H68 0.969 . S
C69 O70 1.550 . S
C69 H71 0.973 . S
O70 C69 1.550 . S
O70 C76 1.412 . S
H71 C69 0.973 . S
C72 H65 0.929 . S
C72 C73 1.400 . S
C72 C74 1.364 . S
C73 C72 1.400 . S
C73 C77 1.377 . S
C74 C72 1.364 . S
C74 C75 1.374 . S
C75 H66 0.930 . S
C75 C74 1.374 . S
C75 C76 1.383 . S
C76 O70 1.412 . S
C76 C75 1.383 . S
C76 C77 1.394 . S
C77 H67 0.929 . S
C77 C73 1.377 . S
C77 C76 1.394 . S
H78 C85 0.929 . S
H79 C88 0.930 . S
H80 C90 0.929 . S
H81 C82 0.969 . S
C82 H81 0.969 . S
C82 O83 1.550 . S
C82 H84 0.973 . S
O83 C82 1.550 . S
O83 C89 1.412 . S
H84 C82 0.973 . S
C85 H78 0.929 . S
C85 C86 1.400 . S
C85 C87 1.364 . S
C86 C85 1.400 . S
C86 C90 1.377 . S
C87 C85 1.364 . S
C87 C88 1.374 . S
C88 H79 0.930 . S
C88 C87 1.374 . S
C88 C89 1.383 . S
C89 O83 1.412 . S
C89 C88 1.383 . S
C89 C90 1.394 . S
C90 H80 0.929 . S
C90 C86 1.377 . S
C90 C89 1.394 . S
H91 C98 0.929 . S
H92 C101 0.930 . S
H93 C103 0.929 . S
H94 C95 0.969 . S
C95 H94 0.969 . S
C95 O96 1.550 . S
C95 H97 0.973 . S
O96 C95 1.550 . S
O96 C102 1.412 . S
H97 C95 0.973 . S
C98 H91 0.929 . S
C98 C99 1.400 . S
C98 C100 1.364 . S
C99 C98 1.400 . S
C99 C103 1.377 . S
C100 C98 1.364 . S
C100 C101 1.374 . S
C101 H92 0.930 . S
C101 C100 1.374 . S
C101 C102 1.383 . S
C102 O96 1.412 . S
C102 C101 1.383 . S
C102 C103 1.394 . S
C103 H93 0.929 . S
C103 C99 1.377 . S
C103 C102 1.394 . S
H104 C111 0.929 . S
H105 C114 0.930 . S
H106 C116 0.929 . S
H107 C108 0.969 . S
C108 H107 0.969 . S
C108 O109 1.550 . S
C108 H110 0.973 . S
O109 C108 1.550 . S
O109 C115 1.412 . S
H110 C108 0.973 . S
C111 H104 0.929 . S
C111 C112 1.400 . S
C111 C113 1.364 . S
C112 C111 1.400 . S
C112 C116 1.377 . S
C113 C111 1.364 . S
C113 C114 1.374 . S
C114 H105 0.930 . S
C114 C113 1.374 . S
C114 C115 1.383 . S
C115 O109 1.412 . S
C115 C114 1.383 . S
C115 C116 1.394 . S
C116 H106 0.929 . S
C116 C112 1.377 . S
C116 C115 1.394 . S
H117 C124 0.929 . S
H118 C127 0.930 . S
H119 C129 0.929 . S
H120 C121 0.969 . S
C121 H120 0.969 . S
C121 O122 1.550 . S
C121 H123 0.973 . S
O122 C121 1.550 . S
O122 C128 1.412 . S
H123 C121 0.973 . S
C124 H117 0.929 . S
C124 C125 1.400 . S
C124 C126 1.364 . S
C125 C124 1.400 . S
C125 C129 1.377 . S
C126 C124 1.364 . S
C126 C127 1.374 . S
C127 H118 0.930 . S
C127 C126 1.374 . S
C127 C128 1.383 . S
C128 O122 1.412 . S
C128 C127 1.383 . S
C128 C129 1.394 . S
C129 H119 0.929 . S
C129 C125 1.377 . S
C129 C128 1.394 . S
H130 C137 0.929 . S
H131 C140 0.930 . S
H132 C142 0.929 . S
H133 C134 0.969 . S
C134 H133 0.969 . S
C134 O135 1.550 . S
C134 H136 0.973 . S
O135 C134 1.550 . S
O135 C141 1.412 . S
H136 C134 0.973 . S
C137 H130 0.929 . S
C137 C138 1.400 . S
C137 C139 1.364 . S
C138 C137 1.400 . S
C138 C142 1.377 . S
C139 C137 1.364 . S
C139 C140 1.374 . S
C140 H131 0.930 . S
C140 C139 1.374 . S
C140 C141 1.383 . S
C141 O135 1.412 . S
C141 C140 1.383 . S
C141 C142 1.394 . S
C142 H132 0.929 . S
C142 C138 1.377 . S
C142 C141 1.394 . S
H143 C150 0.929 . S
H144 C153 0.930 . S
H145 C155 0.929 . S
H146 C147 0.969 . S
C147 H146 0.969 . S
C147 O148 1.550 . S
C147 H149 0.973 . S
O148 C147 1.550 . S
O148 C154 1.412 . S
H149 C147 0.973 . S
C150 H143 0.929 . S
C150 C151 1.400 . S
C150 C152 1.364 . S
C151 C150 1.400 . S
C151 C155 1.377 . S
C152 C150 1.364 . S
C152 C153 1.374 . S
C153 H144 0.930 . S
C153 C152 1.374 . S
C153 C154 1.383 . S
C154 O148 1.412 . S
C154 C153 1.383 . S
C154 C155 1.394 . S
C155 H145 0.929 . S
C155 C151 1.377 . S
C155 C154 1.394 . S
H156 C163 0.929 . S
H157 C166 0.930 . S
H158 C168 0.929 . S
H159 C160 0.969 . S
C160 H159 0.969 . S
C160 O161 1.550 . S
C160 H162 0.973 . S
O161 C160 1.550 . S
O161 C167 1.412 . S
H162 C160 0.973 . S
C163 H156 0.929 . S
C163 C164 1.400 . S
C163 C165 1.364 . S
C164 C163 1.400 . S
C164 C168 1.377 . S
C165 C163 1.364 . S
C165 C166 1.374 . S
C166 H157 0.930 . S
C166 C165 1.374 . S
C166 C167 1.383 . S
C167 O161 1.412 . S
C167 C166 1.383 . S
C167 C168 1.394 . S
C168 H158 0.929 . S
C168 C164 1.377 . S
C168 C167 1.394 . S
H169 C176 0.929 . S
H170 C179 0.930 . S
H171 C181 0.929 . S
H172 C173 0.969 . S
C173 H172 0.969 . S
C173 O174 1.550 . S
C173 H175 0.973 . S
O174 C173 1.550 . S
O174 C180 1.412 . S
H175 C173 0.973 . S
C176 H169 0.929 . S
C176 C177 1.400 . S
C176 C178 1.364 . S
C177 C176 1.400 . S
C177 C181 1.377 . S
C178 C176 1.364 . S
C178 C179 1.374 . S
C179 H170 0.930 . S
C179 C178 1.374 . S
C179 C180 1.383 . S
C180 O174 1.412 . S
C180 C179 1.383 . S
C180 C181 1.394 . S
C181 H171 0.929 . S
C181 C177 1.377 . S
C181 C180 1.394 . S
H182 C189 0.929 . S
H183 C192 0.930 . S
H184 C194 0.929 . S
H185 C186 0.969 . S
C186 H185 0.969 . S
C186 O187 1.550 . S
C186 H188 0.973 . S
O187 C186 1.550 . S
O187 C193 1.412 . S
H188 C186 0.973 . S
C189 H182 0.929 . S
C189 C190 1.400 . S
C189 C191 1.364 . S
C190 C189 1.400 . S
C190 C194 1.377 . S
C191 C189 1.364 . S
C191 C192 1.374 . S
C192 H183 0.930 . S
C192 C191 1.374 . S
C192 C193 1.383 . S
C193 O187 1.412 . S
C193 C192 1.383 . S
C193 C194 1.394 . S
C194 H184 0.929 . S
C194 C190 1.377 . S
C194 C193 1.394 . S
H195 C202 0.929 . S
H196 C205 0.930 . S
H197 C207 0.929 . S
H198 C199 0.969 . S
C199 H198 0.969 . S
C199 O200 1.550 . S
C199 H201 0.973 . S
O200 C199 1.550 . S
O200 C206 1.412 . S
H201 C199 0.973 . S
C202 H195 0.929 . S
C202 C203 1.400 . S
C202 C204 1.364 . S
C203 C202 1.400 . S
C203 C207 1.377 . S
C204 C202 1.364 . S
C204 C205 1.374 . S
C205 H196 0.930 . S
C205 C204 1.374 . S
C205 C206 1.383 . S
C206 O200 1.412 . S
C206 C205 1.383 . S
C206 C207 1.394 . S
C207 H197 0.929 . S
C207 C203 1.377 . S
C207 C206 1.394 . S
H208 C215 0.929 . S
H209 C218 0.930 . S
H210 C220 0.929 . S
H211 C212 0.969 . S
C212 H211 0.969 . S
C212 O213 1.550 . S
C212 H214 0.973 . S
O213 C212 1.550 . S
O213 C219 1.412 . S
H214 C212 0.973 . S
C215 H208 0.929 . S
C215 C216 1.400 . S
C215 C217 1.364 . S
C216 C215 1.400 . S
C216 C220 1.377 . S
C217 C215 1.364 . S
C217 C218 1.374 . S
C218 H209 0.930 . S
C218 C217 1.374 . S
C218 C219 1.383 . S
C219 O213 1.412 . S
C219 C218 1.383 . S
C219 C220 1.394 . S
C220 H210 0.929 . S
C220 C216 1.377 . S
C220 C219 1.394 . S
H221 C228 0.929 . S
H222 C231 0.930 . S
H223 C233 0.929 . S
H224 C225 0.969 . S
C225 H224 0.969 . S
C225 O226 1.550 . S
C225 H227 0.973 . S
O226 C225 1.550 . S
O226 C232 1.412 . S
H227 C225 0.973 . S
C228 H221 0.929 . S
C228 C229 1.400 . S
C228 C230 1.364 . S
C229 C228 1.400 . S
C229 C233 1.377 . S
C230 C228 1.364 . S
C230 C231 1.374 . S
C231 H222 0.930 . S
C231 C230 1.374 . S
C231 C232 1.383 . S
C232 O226 1.412 . S
C232 C231 1.383 . S
C232 C233 1.394 . S
C233 H223 0.929 . S
C233 C229 1.377 . S
C233 C232 1.394 . S
C234 Eu235 2.835 . S
C234 C236 1.500 1_545 S
C234 O254 1.257 1_545 S
C234 O255 1.260 . S
Eu235 C234 2.835 . S
Eu235 O254 2.473 1_545 S
Eu235 O255 2.480 . S
Eu235 O256 2.430 . S
Eu235 O257 2.670 1_554 S
Eu235 O258 2.394 1_545 S
Eu235 O263 2.355 1_545 S
Eu235 O265 2.374 . S
C236 C234 1.500 1_565 S
C236 C237 1.377 1_565 S
C236 C241 1.377 . S
C237 C236 1.377 1_545 S
C237 C238 1.396 . S
C237 H266 0.931 . S
C238 C237 1.396 . S
C238 C239 1.381 1_545 S
C238 H267 0.933 . S
C239 C238 1.381 1_565 S
C239 C240 1.394 . S
C240 C239 1.394 . S
C240 C241 1.378 . S
C240 H268 0.931 . S
C241 C236 1.377 . S
C241 C240 1.378 . S
C241 H269 0.931 . S
C242 O256 1.259 . S
C242 O257 1.270 1_554 S
C243 O258 1.251 . S
C243 O259 1.251 1_554 S
C244 Eu245 2.835 1_545 S
C244 C246 1.500 . S
C244 O260 1.257 . S
C244 O261 1.260 1_545 S
Eu245 C244 2.835 1_565 S
Eu245 O257 2.355 1_565 S
Eu245 O259 2.374 . S
Eu245 O260 2.473 1_565 S
Eu245 O261 2.480 . S
Eu245 O262 2.430 . S
Eu245 O263 2.670 1_556 S
Eu245 O264 2.394 1_565 S
C246 C244 1.500 . S
C246 C247 1.377 . S
C246 C251 1.377 . S
C247 C246 1.377 . S
C247 C248 1.395 . S
C247 H270 0.931 1_545 S
C248 C247 1.395 . S
C248 C249 1.383 . S
C248 H271 0.896 1_545 S
C249 C248 1.383 . S
C249 C250 1.394 . S
C250 C249 1.394 . S
C250 C251 1.378 . S
C250 H272 0.931 . S
C251 C246 1.377 . S
C251 C250 1.378 . S
C251 H273 0.931 . S
C252 O262 1.259 1_554 S
C252 O263 1.270 . S
C253 O264 1.251 . S
C253 O265 1.251 1_556 S
O254 C234 1.257 1_565 S
O254 Eu235 2.473 1_565 S
O255 C234 1.260 . S
O255 Eu235 2.480 . S
O256 Eu235 2.430 . S
O256 C242 1.259 . S
O257 Eu235 2.670 1_556 S
O257 C242 1.270 1_556 S
O257 Eu245 2.355 1_545 S
O258 Eu235 2.394 1_565 S
O258 C243 1.251 . S
O259 C243 1.251 1_556 S
O259 Eu245 2.374 . S
O260 C244 1.257 . S
O260 Eu245 2.473 1_545 S
O261 C244 1.260 1_565 S
O261 Eu245 2.480 . S
O262 Eu245 2.430 . S
O262 C252 1.259 1_556 S
O263 Eu235 2.355 1_565 S
O263 Eu245 2.670 1_554 S
O263 C252 1.270 . S
O264 Eu245 2.394 1_545 S
O264 C253 1.251 . S
O265 Eu235 2.374 . S
O265 C253 1.251 1_554 S
H266 C237 0.931 . S
H267 C238 0.933 . S
H268 C240 0.931 . S
H269 C241 0.931 . S
H270 C247 0.931 1_565 S
H271 C248 0.896 1_565 S
H272 C250 0.931 . S
H273 C251 0.931 . S
C274 Eu275 2.835 1_455 S
C274 C276 1.500 . S
C274 O294 1.257 . S
C274 O295 1.260 1_455 S
Eu275 C274 2.835 1_655 S
Eu275 O294 2.473 1_655 S
Eu275 O295 2.480 . S
Eu275 O296 2.430 . S
Eu275 O297 2.670 1_554 S
Eu275 O298 2.394 1_655 S
Eu275 O303 2.355 1_655 S
Eu275 O305 2.374 . S
C276 C274 1.500 . S
C276 C277 1.377 . S
C276 C281 1.377 . S
C277 C276 1.377 . S
C277 C278 1.395 . S
C277 H306 0.931 1_455 S
C278 C277 1.395 . S
C278 C279 1.383 . S
C278 H307 0.931 . S
C279 C278 1.383 . S
C279 C280 1.394 . S
C280 C279 1.394 . S
C280 C281 1.378 . S
C280 H308 0.931 . S
C281 C276 1.377 . S
C281 C280 1.378 . S
C281 H309 0.931 . S
C282 O296 1.259 . S
C282 O297 1.270 1_554 S
C283 O298 1.251 . S
C283 O299 1.251 . S
C284 Eu285 2.835 1_655 S
C284 C286 1.500 . S
C284 O300 1.257 . S
C284 O301 1.260 1_655 S
Eu285 C284 2.835 1_455 S
Eu285 O297 2.355 1_455 S
Eu285 O299 2.374 1_556 S
Eu285 O300 2.473 1_455 S
Eu285 O301 2.480 . S
Eu285 O302 2.430 . S
Eu285 O303 2.670 1_556 S
Eu285 O304 2.394 1_455 S
C286 C284 1.500 . S
C286 C287 1.385 . S
C286 C291 1.377 . S
C287 C286 1.385 . S
C287 C288 1.404 . S
C287 H310 0.915 1_655 S
C288 C287 1.404 . S
C288 C289 1.383 . S
C288 H311 0.931 1_655 S
C289 C288 1.383 . S
C289 C290 1.394 . S
C290 C289 1.394 . S
C290 C291 1.378 . S
C290 H312 0.931 . S
C291 C286 1.377 . S
C291 C290 1.378 . S
C291 H313 0.931 . S
C292 O302 1.259 1_554 S
C292 O303 1.270 . S
C293 O304 1.251 . S
C293 O305 1.251 1_556 S
O294 C274 1.257 . S
O294 Eu275 2.473 1_455 S
O295 C274 1.260 1_655 S
O295 Eu275 2.480 . S
O296 Eu275 2.430 . S
O296 C282 1.259 . S
O297 Eu275 2.670 1_556 S
O297 C282 1.270 1_556 S
O297 Eu285 2.355 1_655 S
O298 Eu275 2.394 1_455 S
O298 C283 1.251 . S
O299 C283 1.251 . S
O299 Eu285 2.374 1_554 S
O300 C284 1.257 . S
O300 Eu285 2.473 1_655 S
O301 C284 1.260 1_455 S
O301 Eu285 2.480 . S
O302 Eu285 2.430 . S
O302 C292 1.259 1_556 S
O303 Eu275 2.355 1_455 S
O303 Eu285 2.670 1_554 S
O303 C292 1.270 . S
O304 Eu285 2.394 1_655 S
O304 C293 1.251 . S
O305 Eu275 2.374 . S
O305 C293 1.251 1_554 S
H306 C277 0.931 1_655 S
H307 C278 0.931 . S
H308 C280 0.931 . S
H309 C281 0.931 . S
H310 C287 0.915 1_455 S
H311 C288 0.931 1_455 S
H312 C290 0.931 . S
H313 C291 0.931 . S
C314 Eu315 2.835 . S
C314 C316 1.500 . S
C314 O334 1.257 . S
C314 O335 1.260 . S
Eu315 C314 2.835 . S
Eu315 O334 2.473 . S
Eu315 O335 2.480 . S
Eu315 O336 2.430 . S
Eu315 O337 2.670 1_556 S
Eu315 O338 2.394 . S
Eu315 O343 2.340 1_556 S
Eu315 O345 2.374 1_556 S
C316 C314 1.500 . S
C316 C317 1.377 . S
C316 C321 1.377 . S
C317 C316 1.377 . S
C317 C318 1.395 . S
C317 H346 0.931 . S
C318 C317 1.395 . S
C318 C319 1.383 . S
C318 H347 0.931 . S
C319 C318 1.383 . S
C319 C320 1.394 . S
C320 C319 1.394 . S
C320 C321 1.378 . S
C320 H348 0.931 . S
C321 C316 1.377 . S
C321 C320 1.378 . S
C321 H349 0.931 . S
C322 O336 1.259 1_554 S
C322 O337 1.270 . S
C323 O338 1.251 . S
C323 O339 1.251 1_556 S
C324 Eu325 2.835 . S
C324 C326 1.500 . S
C324 O340 1.257 . S
C324 O341 1.260 . S
Eu325 C324 2.835 . S
Eu325 O337 2.355 . S
Eu325 O339 2.374 . S
Eu325 O340 2.473 . S
Eu325 O341 2.480 . S
Eu325 O342 2.430 . S
Eu325 O343 2.694 . S
Eu325 O344 2.394 . S
C326 C324 1.500 . S
C326 C327 1.377 . S
C326 C331 1.377 . S
C327 C326 1.377 . S
C327 C328 1.395 . S
C327 H350 0.931 . S
C328 C327 1.395 . S
C328 C329 1.383 . S
C328 H351 0.931 . S
C329 C328 1.383 . S
C329 C330 1.394 . S
C330 C329 1.394 . S
C330 C331 1.378 . S
C330 H352 0.931 . S
C331 C326 1.377 . S
C331 C330 1.378 . S
C331 H353 0.931 . S
C332 O342 1.259 . S
C332 O343 1.283 . S
C333 O344 1.251 . S
C333 O345 1.251 . S
O334 C314 1.257 . S
O334 Eu315 2.473 . S
O335 C314 1.260 . S
O335 Eu315 2.480 . S
O336 Eu315 2.430 . S
O336 C322 1.259 1_556 S
O337 Eu315 2.670 1_554 S
O337 C322 1.270 . S
O337 Eu325 2.355 . S
O338 Eu315 2.394 . S
O338 C323 1.251 . S
O339 C323 1.251 1_554 S
O339 Eu325 2.374 . S
O340 C324 1.257 . S
O340 Eu325 2.473 . S
O341 C324 1.260 . S
O341 Eu325 2.480 . S
O342 Eu325 2.430 . S
O342 C332 1.259 . S
O343 Eu315 2.340 1_554 S
O343 Eu325 2.694 . S
O343 C332 1.283 . S
O344 Eu325 2.394 . S
O344 C333 1.251 . S
O345 Eu315 2.374 1_554 S
O345 C333 1.251 . S
H346 C317 0.931 . S
H347 C318 0.931 . S
H348 C320 0.931 . S
H349 C321 0.931 . S
H350 C327 0.931 . S
H351 C328 0.931 . S
H352 C330 0.931 . S
H353 C331 0.931 . S
C354 Eu355 2.835 . S
C354 C356 1.500 . S
C354 O374 1.257 . S
C354 O375 1.260 . S
Eu355 C354 2.835 . S
Eu355 O374 2.473 . S
Eu355 O375 2.480 . S
Eu355 O376 2.430 . S
Eu355 O377 2.670 . S
Eu355 O378 2.394 . S
Eu355 O383 2.355 . S
Eu355 O385 2.374 . S
C356 C354 1.500 . S
C356 C357 1.377 . S
C356 C361 1.377 . S
C357 C356 1.377 . S
C357 C358 1.395 . S
C357 H386 0.931 . S
C358 C357 1.395 . S
C358 C359 1.383 . S
C358 H387 0.931 . S
C359 C358 1.383 . S
C359 C360 1.394 . S
C360 C359 1.394 . S
C360 C361 1.378 . S
C360 H388 0.931 . S
C361 C356 1.377 . S
C361 C360 1.378 . S
C361 H389 0.931 . S
C362 O376 1.259 . S
C362 O377 1.270 . S
C363 O378 1.251 . S
C363 O379 1.251 . S
C364 Eu365 2.835 . S
C364 C366 1.500 . S
C364 O380 1.257 . S
C364 O381 1.260 . S
Eu365 C364 2.835 . S
Eu365 O377 2.355 . S
Eu365 O379 2.374 . S
Eu365 O380 2.473 . S
Eu365 O381 2.480 . S
Eu365 O382 2.430 . S
Eu365 O383 2.670 . S
Eu365 O384 2.394 . S
C366 C364 1.500 . S
C366 C367 1.377 . S
C366 C371 1.377 . S
C367 C366 1.377 . S
C367 C368 1.395 . S
C367 H390 0.931 . S
C368 C367 1.395 . S
C368 C369 1.383 . S
C368 H391 0.931 . S
C369 C368 1.383 . S
C369 C370 1.394 . S
C370 C369 1.394 . S
C370 C371 1.378 . S
C370 H392 0.931 . S
C371 C366 1.377 . S
C371 C370 1.378 . S
C371 H393 0.931 . S
C372 O382 1.259 . S
C372 O383 1.270 . S
C373 O384 1.251 . S
C373 O385 1.251 . S
O374 C354 1.257 . S
O374 Eu355 2.473 . S
O375 C354 1.260 . S
O375 Eu355 2.480 . S
O376 Eu355 2.430 . S
O376 C362 1.259 . S
O377 Eu355 2.670 . S
O377 C362 1.270 . S
O377 Eu365 2.355 . S
O378 Eu355 2.394 . S
O378 C363 1.251 . S
O379 C363 1.251 . S
O379 Eu365 2.374 . S
O380 C364 1.257 . S
O380 Eu365 2.473 . S
O381 C364 1.260 . S
O381 Eu365 2.480 . S
O382 Eu365 2.430 . S
O382 C372 1.259 . S
O383 Eu355 2.355 . S
O383 Eu365 2.670 . S
O383 C372 1.270 . S
O384 Eu365 2.394 . S
O384 C373 1.251 . S
O385 Eu355 2.374 . S
O385 C373 1.251 . S
H386 C357 0.931 . S
H387 C358 0.931 . S
H388 C360 0.931 . S
H389 C361 0.931 . S
H390 C367 0.931 . S
H391 C368 0.931 . S
H392 C370 0.931 . S
H393 C371 0.931 . S
C394 Eu395 2.835 . S
C394 C396 1.500 . S
C394 O414 1.257 . S
C394 O415 1.260 . S
Eu395 C394 2.835 . S
Eu395 O414 2.473 . S
Eu395 O415 2.480 . S
Eu395 O416 2.430 . S
Eu395 O417 2.670 . S
Eu395 O418 2.394 . S
Eu395 O423 2.355 . S
Eu395 O425 2.374 . S
C396 C394 1.500 . S
C396 C397 1.377 . S
C396 C401 1.377 . S
C397 C396 1.377 . S
C397 C398 1.395 . S
C397 H426 0.931 . S
C398 C397 1.395 . S
C398 C399 1.383 . S
C398 H427 0.931 . S
C399 C398 1.383 . S
C399 C400 1.394 . S
C400 C399 1.394 . S
C400 C401 1.378 . S
C400 H428 0.931 . S
C401 C396 1.377 . S
C401 C400 1.378 . S
C401 H429 0.931 . S
C402 O416 1.259 . S
C402 O417 1.270 . S
C403 O418 1.251 . S
C403 O419 1.251 . S
C404 Eu405 2.835 . S
C404 C406 1.500 . S
C404 O420 1.257 . S
C404 O421 1.260 . S
Eu405 C404 2.835 . S
Eu405 O417 2.355 . S
Eu405 O419 2.374 . S
Eu405 O420 2.473 . S
Eu405 O421 2.480 . S
Eu405 O422 2.430 . S
Eu405 O423 2.670 . S
Eu405 O424 2.394 . S
C406 C404 1.500 . S
C406 C407 1.377 . S
C406 C411 1.377 . S
C407 C406 1.377 . S
C407 C408 1.395 . S
C407 H430 0.931 . S
C408 C407 1.395 . S
C408 C409 1.383 . S
C408 H431 0.931 . S
C409 C408 1.383 . S
C409 C410 1.394 . S
C410 C409 1.394 . S
C410 C411 1.378 . S
C410 H432 0.931 . S
C411 C406 1.377 . S
C411 C410 1.378 . S
C411 H433 0.931 . S
C412 O422 1.259 . S
C412 O423 1.270 . S
C413 O424 1.251 . S
C413 O425 1.251 . S
O414 C394 1.257 . S
O414 Eu395 2.473 . S
O415 C394 1.260 . S
O415 Eu395 2.480 . S
O416 Eu395 2.430 . S
O416 C402 1.259 . S
O417 Eu395 2.670 . S
O417 C402 1.270 . S
O417 Eu405 2.355 . S
O418 Eu395 2.394 . S
O418 C403 1.251 . S
O419 C403 1.251 . S
O419 Eu405 2.374 . S
O420 C404 1.257 . S
O420 Eu405 2.473 . S
O421 C404 1.260 . S
O421 Eu405 2.480 . S
O422 Eu405 2.430 . S
O422 C412 1.259 . S
O423 Eu395 2.355 . S
O423 Eu405 2.670 . S
O423 C412 1.270 . S
O424 Eu405 2.394 . S
O424 C413 1.251 . S
O425 Eu395 2.374 . S
O425 C413 1.251 . S
H426 C397 0.931 . S
H427 C398 0.931 . S
H428 C400 0.931 . S
H429 C401 0.931 . S
H430 C407 0.931 . S
H431 C408 0.931 . S
H432 C410 0.931 . S
H433 C411 0.931 . S
C434 Eu435 2.835 . S
C434 C436 1.500 . S
C434 O454 1.257 . S
C434 O455 1.260 . S
Eu435 C434 2.835 . S
Eu435 O454 2.473 . S
Eu435 O455 2.480 . S
Eu435 O456 2.430 . S
Eu435 O457 2.670 . S
Eu435 O458 2.394 . S
Eu435 O463 2.355 . S
Eu435 O465 2.374 . S
C436 C434 1.500 . S
C436 C437 1.377 . S
C436 C441 1.377 . S
C437 C436 1.377 . S
C437 C438 1.395 . S
C437 H466 0.931 . S
C438 C437 1.395 . S
C438 C439 1.383 . S
C438 H467 0.931 . S
C439 C438 1.383 . S
C439 C440 1.394 . S
C440 C439 1.394 . S
C440 C441 1.378 . S
C440 H468 0.931 . S
C441 C436 1.377 . S
C441 C440 1.378 . S
C441 H469 0.931 . S
C442 O456 1.259 . S
C442 O457 1.270 . S
C443 O458 1.251 . S
C443 O459 1.251 . S
C444 Eu445 2.835 . S
C444 C446 1.500 . S
C444 O460 1.257 . S
C444 O461 1.260 . S
Eu445 C444 2.835 . S
Eu445 O457 2.355 . S
Eu445 O459 2.374 . S
Eu445 O460 2.473 . S
Eu445 O461 2.480 . S
Eu445 O462 2.430 . S
Eu445 O463 2.670 . S
Eu445 O464 2.394 . S
C446 C444 1.500 . S
C446 C447 1.377 . S
C446 C451 1.377 . S
C447 C446 1.377 . S
C447 C448 1.395 . S
C447 H470 0.931 . S
C448 C447 1.395 . S
C448 C449 1.383 . S
C448 H471 0.931 . S
C449 C448 1.383 . S
C449 C450 1.394 . S
C450 C449 1.394 . S
C450 C451 1.378 . S
C450 H472 0.931 . S
C451 C446 1.377 . S
C451 C450 1.378 . S
C451 H473 0.931 . S
C452 O462 1.259 . S
C452 O463 1.270 . S
C453 O464 1.251 . S
C453 O465 1.251 . S
O454 C434 1.257 . S
O454 Eu435 2.473 . S
O455 C434 1.260 . S
O455 Eu435 2.480 . S
O456 Eu435 2.430 . S
O456 C442 1.259 . S
O457 Eu435 2.670 . S
O457 C442 1.270 . S
O457 Eu445 2.355 . S
O458 Eu435 2.394 . S
O458 C443 1.251 . S
O459 C443 1.251 . S
O459 Eu445 2.374 . S
O460 C444 1.257 . S
O460 Eu445 2.473 . S
O461 C444 1.260 . S
O461 Eu445 2.480 . S
O462 Eu445 2.430 . S
O462 C452 1.259 . S
O463 Eu435 2.355 . S
O463 Eu445 2.670 . S
O463 C452 1.270 . S
O464 Eu445 2.394 . S
O464 C453 1.251 . S
O465 Eu435 2.374 . S
O465 C453 1.251 . S
H466 C437 0.931 . S
H467 C438 0.931 . S
H468 C440 0.931 . S
H469 C441 0.931 . S
H470 C447 0.931 . S
H471 C448 0.931 . S
H472 C450 0.931 . S
H473 C451 0.931 . S
C474 Eu475 2.835 . S
C474 C476 1.500 . S
C474 O494 1.257 . S
C474 O495 1.260 . S
Eu475 C474 2.835 . S
Eu475 O494 2.473 . S
Eu475 O495 2.480 . S
Eu475 O496 2.430 . S
Eu475 O497 2.670 . S
Eu475 O498 2.394 . S
Eu475 O503 2.355 . S
Eu475 O505 2.374 . S
C476 C474 1.500 . S
C476 C477 1.377 . S
C476 C481 1.377 . S
C477 C476 1.377 . S
C477 C478 1.395 . S
C477 H506 0.931 . S
C478 C477 1.395 . S
C478 C479 1.383 . S
C478 H507 0.931 . S
C479 C478 1.383 . S
C479 C480 1.394 . S
C480 C479 1.394 . S
C480 C481 1.378 . S
C480 H508 0.931 . S
C481 C476 1.377 . S
C481 C480 1.378 . S
C481 H509 0.931 . S
C482 O496 1.259 . S
C482 O497 1.270 . S
C483 O498 1.251 . S
C483 O499 1.251 . S
C484 Eu485 2.835 . S
C484 C486 1.500 . S
C484 O500 1.257 . S
C484 O501 1.260 . S
Eu485 C484 2.835 . S
Eu485 O497 2.355 . S
Eu485 O499 2.374 . S
Eu485 O500 2.473 . S
Eu485 O501 2.480 . S
Eu485 O502 2.430 . S
Eu485 O503 2.670 . S
Eu485 O504 2.394 . S
C486 C484 1.500 . S
C486 C487 1.377 . S
C486 C491 1.377 . S
C487 C486 1.377 . S
C487 C488 1.395 . S
C487 H510 0.931 . S
C488 C487 1.395 . S
C488 C489 1.383 . S
C488 H511 0.931 . S
C489 C488 1.383 . S
C489 C490 1.394 . S
C490 C489 1.394 . S
C490 C491 1.378 . S
C490 H512 0.931 . S
C491 C486 1.377 . S
C491 C490 1.378 . S
C491 H513 0.931 . S
C492 O502 1.259 . S
C492 O503 1.270 . S
C493 O504 1.251 . S
C493 O505 1.251 . S
O494 C474 1.257 . S
O494 Eu475 2.473 . S
O495 C474 1.260 . S
O495 Eu475 2.480 . S
O496 Eu475 2.430 . S
O496 C482 1.259 . S
O497 Eu475 2.670 . S
O497 C482 1.270 . S
O497 Eu485 2.355 . S
O498 Eu475 2.394 . S
O498 C483 1.251 . S
O499 C483 1.251 . S
O499 Eu485 2.374 . S
O500 C484 1.257 . S
O500 Eu485 2.473 . S
O501 C484 1.260 . S
O501 Eu485 2.480 . S
O502 Eu485 2.430 . S
O502 C492 1.259 . S
O503 Eu475 2.355 . S
O503 Eu485 2.670 . S
O503 C492 1.270 . S
O504 Eu485 2.394 . S
O504 C493 1.251 . S
O505 Eu475 2.374 . S
O505 C493 1.251 . S
H506 C477 0.931 . S
H507 C478 0.931 . S
H508 C480 0.931 . S
H509 C481 0.931 . S
H510 C487 0.931 . S
H511 C488 0.931 . S
H512 C490 0.931 . S
H513 C491 0.931 . S
C514 Eu515 2.835 . S
C514 C516 1.500 . S
C514 O534 1.257 . S
C514 O535 1.260 . S
Eu515 C514 2.835 . S
Eu515 O534 2.473 . S
Eu515 O535 2.480 . S
Eu515 O536 2.430 . S
Eu515 O537 2.670 . S
Eu515 O538 2.394 . S
Eu515 O543 2.355 . S
Eu515 O545 2.374 . S
C516 C514 1.500 . S
C516 C517 1.377 . S
C516 C521 1.377 . S
C517 C516 1.377 . S
C517 C518 1.395 . S
C517 H546 0.931 . S
C518 C517 1.395 . S
C518 C519 1.383 . S
C518 H547 0.931 . S
C519 C518 1.383 . S
C519 C520 1.394 . S
C520 C519 1.394 . S
C520 C521 1.378 . S
C520 H548 0.931 . S
C521 C516 1.377 . S
C521 C520 1.378 . S
C521 H549 0.931 . S
C522 O536 1.259 . S
C522 O537 1.270 . S
C523 O538 1.251 . S
C523 O539 1.251 . S
C524 Eu525 2.835 . S
C524 C526 1.500 . S
C524 O540 1.257 . S
C524 O541 1.260 . S
Eu525 C524 2.835 . S
Eu525 O537 2.355 . S
Eu525 O539 2.374 . S
Eu525 O540 2.473 . S
Eu525 O541 2.480 . S
Eu525 O542 2.430 . S
Eu525 O543 2.670 . S
Eu525 O544 2.394 . S
C526 C524 1.500 . S
C526 C527 1.377 . S
C526 C531 1.377 . S
C527 C526 1.377 . S
C527 C528 1.395 . S
C527 H550 0.931 . S
C528 C527 1.395 . S
C528 C529 1.383 . S
C528 H551 0.931 . S
C529 C528 1.383 . S
C529 C530 1.394 . S
C530 C529 1.394 . S
C530 C531 1.378 . S
C530 H552 0.931 . S
C531 C526 1.377 . S
C531 C530 1.378 . S
C531 H553 0.931 . S
C532 O542 1.259 . S
C532 O543 1.270 . S
C533 O544 1.251 . S
C533 O545 1.251 . S
O534 C514 1.257 . S
O534 Eu515 2.473 . S
O535 C514 1.260 . S
O535 Eu515 2.480 . S
O536 Eu515 2.430 . S
O536 C522 1.259 . S
O537 Eu515 2.670 . S
O537 C522 1.270 . S
O537 Eu525 2.355 . S
O538 Eu515 2.394 . S
O538 C523 1.251 . S
O539 C523 1.251 . S
O539 Eu525 2.374 . S
O540 C524 1.257 . S
O540 Eu525 2.473 . S
O541 C524 1.260 . S
O541 Eu525 2.480 . S
O542 Eu525 2.430 . S
O542 C532 1.259 . S
O543 Eu515 2.355 . S
O543 Eu525 2.670 . S
O543 C532 1.270 . S
O544 Eu525 2.394 . S
O544 C533 1.251 . S
O545 Eu515 2.374 . S
O545 C533 1.251 . S
H546 C517 0.931 . S
H547 C518 0.931 . S
H548 C520 0.931 . S
H549 C521 0.931 . S
H550 C527 0.931 . S
H551 C528 0.931 . S
H552 C530 0.931 . S
H553 C531 0.931 . S
C554 Eu555 2.835 . S
C554 C556 1.500 . S
C554 O574 1.257 . S
C554 O575 1.260 . S
Eu555 C554 2.835 . S
Eu555 O574 2.473 . S
Eu555 O575 2.480 . S
Eu555 O576 2.430 . S
Eu555 O577 2.670 . S
Eu555 O578 2.394 . S
Eu555 O583 2.355 . S
Eu555 O585 2.374 . S
C556 C554 1.500 . S
C556 C557 1.377 . S
C556 C561 1.377 . S
C557 C556 1.377 . S
C557 C558 1.395 . S
C557 H586 0.931 . S
C558 C557 1.395 . S
C558 C559 1.383 . S
C558 H587 0.931 . S
C559 C558 1.383 . S
C559 C560 1.394 . S
C560 C559 1.394 . S
C560 C561 1.378 . S
C560 H588 0.931 . S
C561 C556 1.377 . S
C561 C560 1.378 . S
C561 H589 0.931 . S
C562 O576 1.259 . S
C562 O577 1.270 . S
C563 O578 1.251 . S
C563 O579 1.251 . S
C564 Eu565 2.835 . S
C564 C566 1.500 . S
C564 O580 1.257 . S
C564 O581 1.260 . S
Eu565 C564 2.835 . S
Eu565 O577 2.355 . S
Eu565 O579 2.374 . S
Eu565 O580 2.473 . S
Eu565 O581 2.480 . S
Eu565 O582 2.430 . S
Eu565 O583 2.670 . S
Eu565 O584 2.394 . S
C566 C564 1.500 . S
C566 C567 1.377 . S
C566 C571 1.377 . S
C567 C566 1.377 . S
C567 C568 1.395 . S
C567 H590 0.931 . S
C568 C567 1.395 . S
C568 C569 1.383 . S
C568 H591 0.931 . S
C569 C568 1.383 . S
C569 C570 1.394 . S
C570 C569 1.394 . S
C570 C571 1.378 . S
C570 H592 0.931 . S
C571 C566 1.377 . S
C571 C570 1.378 . S
C571 H593 0.931 . S
C572 O582 1.259 . S
C572 O583 1.270 . S
C573 O584 1.251 . S
C573 O585 1.251 . S
O574 C554 1.257 . S
O574 Eu555 2.473 . S
O575 C554 1.260 . S
O575 Eu555 2.480 . S
O576 Eu555 2.430 . S
O576 C562 1.259 . S
O577 Eu555 2.670 . S
O577 C562 1.270 . S
O577 Eu565 2.355 . S
O578 Eu555 2.394 . S
O578 C563 1.251 . S
O579 C563 1.251 . S
O579 Eu565 2.374 . S
O580 C564 1.257 . S
O580 Eu565 2.473 . S
O581 C564 1.260 . S
O581 Eu565 2.480 . S
O582 Eu565 2.430 . S
O582 C572 1.259 . S
O583 Eu555 2.355 . S
O583 Eu565 2.670 . S
O583 C572 1.270 . S
O584 Eu565 2.394 . S
O584 C573 1.251 . S
O585 Eu555 2.374 . S
O585 C573 1.251 . S
H586 C557 0.931 . S
H587 C558 0.931 . S
H588 C560 0.931 . S
H589 C561 0.931 . S
H590 C567 0.931 . S
H591 C568 0.931 . S
H592 C570 0.931 . S
H593 C571 0.931 . S
H594 C606 0.930 . S
H595 C608 0.930 . S
H596 C609 0.930 . S
H597 C613 0.949 1_554 S
H598 C613 0.973 . S
H599 C613 0.964 . S
H600 C614 0.960 . S
H601 C614 0.961 . S
H602 C614 0.951 1_554 S
H603 C617 0.929 . S
H604 C618 0.931 . S
H605 C620 0.930 1_556 S
C606 H594 0.930 . S
C606 C607 1.399 . S
C606 C611 1.399 . S
C607 C606 1.399 . S
C607 C608 1.376 . S
C608 H595 0.930 . S
C608 C607 1.376 . S
C608 C609 1.388 . S
C609 H596 0.930 . S
C609 C608 1.388 . S
C609 C610 1.390 . S
C610 C609 1.390 . S
C610 C611 1.394 . S
C610 C616 1.465 . S
C611 C606 1.399 . S
C611 C610 1.394 . S
C611 C612 1.516 . S
C612 C611 1.516 . S
C612 C613 1.495 1_554 S
C612 C614 1.561 1_554 S
C612 C615 1.526 . S
C613 H597 0.949 1_556 S
C613 H598 0.973 . S
C613 H599 0.964 . S
C613 C612 1.495 1_556 S
C614 H600 0.960 . S
C614 H601 0.961 . S
C614 H602 0.951 1_556 S
C614 C612 1.561 1_556 S
C615 C612 1.526 . S
C615 C616 1.396 . S
C615 C620 1.390 . S
C616 C610 1.465 . S
C616 C615 1.396 . S
C616 C617 1.399 . S
C617 H603 0.929 . S
C617 C616 1.399 . S
C617 C618 1.385 . S
C618 H604 0.931 . S
C618 C617 1.385 . S
C618 C619 1.389 . S
C619 C618 1.389 . S
C619 C620 1.387 . S
C620 H605 0.930 1_554 S
C620 C615 1.390 . S
C620 C619 1.387 . S
H621 C633 0.930 . S
H622 C635 0.930 . S
H623 C636 0.930 . S
H624 C640 0.959 . S
H625 C640 0.959 . S
H626 C640 0.961 . S
H627 C641 0.960 . S
H628 C641 0.961 . S
H629 C641 0.959 . S
H630 C644 0.929 . S
H631 C645 0.931 . S
H632 C647 0.930 . S
C633 H621 0.930 . S
C633 C634 1.399 . S
C633 C638 1.399 . S
C634 C633 1.399 . S
C634 C635 1.376 . S
C635 H622 0.930 . S
C635 C634 1.376 . S
C635 C636 1.388 . S
C636 H623 0.930 . S
C636 C635 1.388 . S
C636 C637 1.390 . S
C637 C636 1.390 . S
C637 C638 1.394 . S
C637 C643 1.465 . S
C638 C633 1.399 . S
C638 C637 1.394 . S
C638 C639 1.516 . S
C639 C638 1.516 . S
C639 C640 1.502 . S
C639 C641 1.561 . S
C639 C642 1.526 . S
C640 H624 0.959 . S
C640 H625 0.959 . S
C640 H626 0.961 . S
C640 C639 1.502 . S
C641 H627 0.960 . S
C641 H628 0.961 . S
C641 H629 0.959 . S
C641 C639 1.561 . S
C642 C639 1.526 . S
C642 C643 1.396 . S
C642 C647 1.390 . S
C643 C637 1.465 . S
C643 C642 1.396 . S
C643 C644 1.399 . S
C644 H630 0.929 . S
C644 C643 1.399 . S
C644 C645 1.385 . S
C645 H631 0.931 . S
C645 C644 1.385 . S
C645 C646 1.389 . S
C646 C645 1.389 . S
C646 C647 1.387 . S
C647 H632 0.930 . S
C647 C642 1.390 . S
C647 C646 1.387 . S
H648 C660 0.930 . S
H649 C662 0.930 . S
H650 C663 0.930 1_556 S
H651 C667 0.959 . S
H652 C667 0.959 . S
H653 C667 0.961 . S
H654 C668 0.960 . S
H655 C668 0.961 . S
H656 C668 0.959 . S
H657 C671 0.929 . S
H658 C672 0.931 . S
H659 C674 0.930 . S
C660 H648 0.930 . S
C660 C661 1.399 . S
C660 C665 1.399 . S
C661 C660 1.399 . S
C661 C662 1.376 . S
C662 H649 0.930 . S
C662 C661 1.376 . S
C662 C663 1.388 . S
C663 H650 0.930 1_554 S
C663 C662 1.388 . S
C663 C664 1.390 . S
C664 C663 1.390 . S
C664 C665 1.394 . S
C664 C670 1.465 . S
C665 C660 1.399 . S
C665 C664 1.394 . S
C665 C666 1.516 . S
C666 C665 1.516 . S
C666 C667 1.502 . S
C666 C668 1.561 . S
C666 C669 1.526 . S
C667 H651 0.959 . S
C667 H652 0.959 . S
C667 H653 0.961 . S
C667 C666 1.502 . S
C668 H654 0.960 . S
C668 H655 0.961 . S
C668 H656 0.959 . S
C668 C666 1.561 . S
C669 C666 1.526 . S
C669 C670 1.396 . S
C669 C674 1.390 . S
C670 C664 1.465 . S
C670 C669 1.396 . S
C670 C671 1.399 1_554 S
C671 H657 0.929 . S
C671 C670 1.399 1_556 S
C671 C672 1.385 . S
C672 H658 0.931 . S
C672 C671 1.385 . S
C672 C673 1.389 1_556 S
C673 C672 1.389 1_554 S
C673 C674 1.387 . S
C674 H659 0.930 . S
C674 C669 1.390 . S
C674 C673 1.387 . S
H675 C687 0.930 . S
H676 C689 0.930 . S
H677 C690 0.930 1_554 S
H678 C694 0.959 . S
H679 C694 0.959 . S
H680 C694 0.961 . S
H681 C695 0.960 . S
H682 C695 0.961 . S
H683 C695 0.959 . S
H684 C698 0.929 . S
H685 C699 0.931 . S
H686 C701 0.930 . S
C687 H675 0.930 . S
C687 C688 1.399 . S
C687 C692 1.399 . S
C688 C687 1.399 . S
C688 C689 1.376 . S
C689 H676 0.930 . S
C689 C688 1.376 . S
C689 C690 1.388 . S
C690 H677 0.930 1_556 S
C690 C689 1.388 . S
C690 C691 1.390 . S
C691 C690 1.390 . S
C691 C692 1.394 . S
C691 C697 1.465 . S
C692 C687 1.399 . S
C692 C691 1.394 . S
C692 C693 1.516 . S
C693 C692 1.516 . S
C693 C694 1.502 . S
C693 C695 1.561 . S
C693 C696 1.526 . S
C694 H678 0.959 . S
C694 H679 0.959 . S
C694 H680 0.961 . S
C694 C693 1.502 . S
C695 H681 0.960 . S
C695 H682 0.961 . S
C695 H683 0.959 . S
C695 C693 1.561 . S
C696 C693 1.526 . S
C696 C697 1.396 . S
C696 C701 1.390 . S
C697 C691 1.465 . S
C697 C696 1.396 . S
C697 C698 1.399 1_556 S
C698 H684 0.929 . S
C698 C697 1.399 1_554 S
C698 C699 1.385 . S
C699 H685 0.931 . S
C699 C698 1.385 . S
C699 C700 1.389 1_554 S
C700 C699 1.389 1_556 S
C700 C701 1.387 . S
C701 H686 0.930 . S
C701 C696 1.390 . S
C701 C700 1.387 . S
H702 C714 0.930 . S
H703 C716 0.930 . S
H704 C717 0.930 . S
H705 C721 0.959 . S
H706 C721 0.959 . S
H707 C721 0.961 . S
H708 C722 0.960 . S
H709 C722 0.961 . S
H710 C722 0.959 . S
H711 C725 0.929 . S
H712 C726 0.945 . S
H713 C728 0.930 . S
C714 H702 0.930 . S
C714 C715 1.399 . S
C714 C719 1.399 . S
C715 C714 1.399 . S
C715 C716 1.376 . S
C716 H703 0.930 . S
C716 C715 1.376 . S
C716 C717 1.388 . S
C717 H704 0.930 . S
C717 C716 1.388 . S
C717 C718 1.390 . S
C718 C717 1.390 . S
C718 C719 1.394 . S
C718 C724 1.465 . S
C719 C714 1.399 . S
C719 C718 1.394 . S
C719 C720 1.516 . S
C720 C719 1.516 . S
C720 C721 1.502 . S
C720 C722 1.561 . S
C720 C723 1.526 . S
C721 H705 0.959 . S
C721 H706 0.959 . S
C721 H707 0.961 . S
C721 C720 1.502 . S
C722 H708 0.960 . S
C722 H709 0.961 . S
C722 H710 0.959 . S
C722 C720 1.561 . S
C723 C720 1.526 . S
C723 C724 1.396 . S
C723 C728 1.390 . S
C724 C718 1.465 . S
C724 C723 1.396 . S
C724 C725 1.399 . S
C725 H711 0.929 . S
C725 C724 1.399 . S
C725 C726 1.385 . S
C726 H712 0.945 . S
C726 C725 1.385 . S
C726 C727 1.389 . S
C727 C726 1.389 . S
C727 C728 1.387 . S
C728 H713 0.930 . S
C728 C723 1.390 . S
C728 C727 1.387 . S
H729 C741 0.930 1_554 S
H730 C743 0.930 . S
H731 C744 0.930 . S
H732 C748 0.959 . S
H733 C748 0.959 . S
H734 C748 0.961 . S
H735 C749 0.960 . S
H736 C749 0.961 . S
H737 C749 0.959 . S
H738 C752 0.929 . S
H739 C753 0.931 . S
H740 C755 0.930 . S
C741 H729 0.930 1_556 S
C741 C742 1.399 . S
C741 C746 1.399 . S
C742 C741 1.399 . S
C742 C743 1.376 . S
C743 H730 0.930 . S
C743 C742 1.376 . S
C743 C744 1.388 . S
C744 H731 0.930 . S
C744 C743 1.388 . S
C744 C745 1.390 . S
C745 C744 1.390 . S
C745 C746 1.394 . S
C745 C751 1.465 . S
C746 C741 1.399 . S
C746 C745 1.394 . S
C746 C747 1.516 1_556 S
C747 C746 1.516 1_554 S
C747 C748 1.502 . S
C747 C749 1.561 . S
C747 C750 1.526 . S
C748 H732 0.959 . S
C748 H733 0.959 . S
C748 H734 0.961 . S
C748 C747 1.502 . S
C749 H735 0.960 . S
C749 H736 0.961 . S
C749 H737 0.959 . S
C749 C747 1.561 . S
C750 C747 1.526 . S
C750 C751 1.396 1_554 S
C750 C755 1.390 . S
C751 C745 1.465 . S
C751 C750 1.396 1_556 S
C751 C752 1.399 . S
C752 H738 0.929 . S
C752 C751 1.399 . S
C752 C753 1.385 . S
C753 H739 0.931 . S
C753 C752 1.385 . S
C753 C754 1.389 . S
C754 C753 1.389 . S
C754 C755 1.387 1_556 S
C755 H740 0.930 . S
C755 C750 1.390 . S
C755 C754 1.387 1_554 S
H756 C768 0.930 . S
H757 C770 0.930 . S
H758 C771 0.930 . S
H759 C775 0.959 1_556 S
H760 C775 0.959 . S
H761 C775 0.961 . S
H762 C776 0.960 . S
H763 C776 0.961 . S
H764 C776 0.959 . S
H765 C779 0.929 . S
H766 C780 0.931 . S
H767 C782 0.874 1_554 S
C768 H756 0.930 . S
C768 C769 1.399 . S
C768 C773 1.399 . S
C769 C768 1.399 . S
C769 C770 1.376 . S
C770 H757 0.930 . S
C770 C769 1.376 . S
C770 C771 1.388 . S
C771 H758 0.930 . S
C771 C770 1.388 . S
C771 C772 1.390 . S
C772 C771 1.390 . S
C772 C773 1.394 . S
C772 C778 1.465 . S
C773 C768 1.399 . S
C773 C772 1.394 . S
C773 C774 1.516 1_556 S
C774 C773 1.516 1_554 S
C774 C775 1.502 . S
C774 C776 1.561 . S
C774 C777 1.526 1_554 S
C775 H759 0.959 1_554 S
C775 H760 0.959 . S
C775 H761 0.961 . S
C775 C774 1.502 . S
C776 H762 0.960 . S
C776 H763 0.961 . S
C776 H764 0.959 . S
C776 C774 1.561 . S
C777 C774 1.526 1_556 S
C777 C778 1.396 . S
C777 C782 1.418 . S
C778 C772 1.465 . S
C778 C777 1.396 . S
C778 C779 1.399 . S
C779 H765 0.929 . S
C779 C778 1.399 . S
C779 C780 1.385 . S
C780 H766 0.931 . S
C780 C779 1.385 . S
C780 C781 1.389 . S
C781 C780 1.389 . S
C781 C782 1.418 . S
C782 H767 0.874 1_556 S
C782 C777 1.418 . S
C782 C781 1.418 . S
H783 C795 0.930 . S
H784 C797 0.930 . S
H785 C798 0.930 . S
H786 C802 0.959 . S
H787 C802 0.959 . S
H788 C802 0.961 . S
H789 C803 0.960 . S
H790 C803 0.961 . S
H791 C803 0.959 . S
H792 C806 0.929 1_554 S
H793 C807 0.931 1_554 S
H794 C809 0.930 . S
C795 H783 0.930 . S
C795 C796 1.399 . S
C795 C800 1.399 . S
C796 C795 1.399 . S
C796 C797 1.376 . S
C797 H784 0.930 . S
C797 C796 1.376 . S
C797 C798 1.388 . S
C798 H785 0.930 . S
C798 C797 1.388 . S
C798 C799 1.390 . S
C799 C798 1.390 . S
C799 C800 1.394 . S
C799 C805 1.465 . S
C800 C795 1.399 . S
C800 C799 1.394 . S
C800 C801 1.516 . S
C801 C800 1.516 . S
C801 C802 1.502 . S
C801 C803 1.561 . S
C801 C804 1.526 . S
C802 H786 0.959 . S
C802 H787 0.959 . S
C802 H788 0.961 . S
C802 C801 1.502 . S
C803 H789 0.960 . S
C803 H790 0.961 . S
C803 H791 0.959 . S
C803 C801 1.561 . S
C804 C801 1.526 . S
C804 C805 1.396 . S
C804 C809 1.390 . S
C805 C799 1.465 . S
C805 C804 1.396 . S
C805 C806 1.399 . S
C806 H792 0.929 1_556 S
C806 C805 1.399 . S
C806 C807 1.385 . S
C807 H793 0.931 1_556 S
C807 C806 1.385 . S
C807 C808 1.389 . S
C808 C807 1.389 . S
C808 C809 1.387 . S
C809 H794 0.930 . S
C809 C804 1.390 . S
C809 C808 1.387 . S
H810 C822 0.930 . S
H811 C824 0.930 . S
H812 C825 0.930 . S
H813 C829 0.959 . S
H814 C829 0.959 . S
H815 C829 0.961 . S
H816 C830 0.960 . S
H817 C830 0.961 . S
H818 C830 0.959 . S
H819 C833 0.929 . S
H820 C834 0.931 . S
H821 C836 0.930 . S
C822 H810 0.930 . S
C822 C823 1.399 1_554 S
C822 C827 1.399 . S
C823 C822 1.399 1_556 S
C823 C824 1.376 . S
C824 H811 0.930 . S
C824 C823 1.376 . S
C824 C825 1.388 . S
C825 H812 0.930 . S
C825 C824 1.388 . S
C825 C826 1.390 . S
C826 C825 1.390 . S
C826 C827 1.394 1_556 S
C826 C832 1.465 . S
C827 C822 1.399 . S
C827 C826 1.394 1_554 S
C827 C828 1.516 . S
C828 C827 1.516 . S
C828 C829 1.502 . S
C828 C830 1.561 . S
C828 C831 1.526 . S
C829 H813 0.959 . S
C829 H814 0.959 . S
C829 H815 0.961 . S
C829 C828 1.502 . S
C830 H816 0.960 . S
C830 H817 0.961 . S
C830 H818 0.959 . S
C830 C828 1.561 . S
C831 C828 1.526 . S
C831 C832 1.396 1_554 S
C831 C836 1.390 . S
C832 C826 1.465 . S
C832 C831 1.396 1_556 S
C832 C833 1.399 . S
C833 H819 0.929 . S
C833 C832 1.399 . S
C833 C834 1.385 . S
C834 H820 0.931 . S
C834 C833 1.385 . S
C834 C835 1.389 . S
C835 C834 1.389 . S
C835 C836 1.387 1_556 S
C836 H821 0.930 . S
C836 C831 1.390 . S
C836 C835 1.387 1_554 S
H837 C849 0.930 . S
H838 C851 0.930 . S
H839 C852 0.930 . S
H840 C856 0.959 1_554 S
H841 C856 0.959 . S
H842 C856 0.961 . S
H843 C857 0.960 . S
H844 C857 0.961 . S
H845 C857 0.959 . S
H846 C860 0.929 . S
H847 C861 0.931 . S
H848 C863 0.930 1_556 S
C849 H837 0.930 . S
C849 C850 1.399 . S
C849 C854 1.399 . S
C850 C849 1.399 . S
C850 C851 1.376 . S
C851 H838 0.930 . S
C851 C850 1.376 . S
C851 C852 1.388 . S
C852 H839 0.930 . S
C852 C851 1.388 . S
C852 C853 1.390 . S
C853 C852 1.390 . S
C853 C854 1.394 . S
C853 C859 1.465 . S
C854 C849 1.399 . S
C854 C853 1.394 . S
C854 C855 1.516 . S
C855 C854 1.516 . S
C855 C856 1.502 1_554 S
C855 C857 1.561 1_554 S
C855 C858 1.526 . S
C856 H840 0.959 1_556 S
C856 H841 0.959 . S
C856 H842 0.961 . S
C856 C855 1.502 1_556 S
C857 H843 0.960 . S
C857 H844 0.961 . S
C857 H845 0.959 . S
C857 C855 1.561 1_556 S
C858 C855 1.526 . S
C858 C859 1.396 . S
C858 C863 1.390 . S
C859 C853 1.465 . S
C859 C858 1.396 . S
C859 C860 1.399 . S
C860 H846 0.929 . S
C860 C859 1.399 . S
C860 C861 1.385 . S
C861 H847 0.931 . S
C861 C860 1.385 . S
C861 C862 1.389 . S
C862 C861 1.389 . S
C862 C863 1.387 . S
C863 H848 0.930 1_554 S
C863 C858 1.390 . S
C863 C862 1.387 . S
H864 C876 0.930 . S
H865 C878 0.930 . S
H866 C879 0.930 . S
H867 C883 0.959 . S
H868 C883 0.959 . S
H869 C883 0.961 . S
H870 C884 0.960 . S
H871 C884 0.961 . S
H872 C884 0.959 . S
H873 C887 0.929 . S
H874 C888 0.931 . S
H875 C890 0.930 . S
C876 H864 0.930 . S
C876 C877 1.399 . S
C876 C881 1.399 . S
C877 C876 1.399 . S
C877 C878 1.376 . S
C878 H865 0.930 . S
C878 C877 1.376 . S
C878 C879 1.388 . S
C879 H866 0.930 . S
C879 C878 1.388 . S
C879 C880 1.390 . S
C880 C879 1.390 . S
C880 C881 1.394 . S
C880 C886 1.465 . S
C881 C876 1.399 . S
C881 C880 1.394 . S
C881 C882 1.516 . S
C882 C881 1.516 . S
C882 C883 1.502 . S
C882 C884 1.561 . S
C882 C885 1.526 . S
C883 H867 0.959 . S
C883 H868 0.959 . S
C883 H869 0.961 . S
C883 C882 1.502 . S
C884 H870 0.960 . S
C884 H871 0.961 . S
C884 H872 0.959 . S
C884 C882 1.561 . S
C885 C882 1.526 . S
C885 C886 1.396 . S
C885 C890 1.390 . S
C886 C880 1.465 . S
C886 C885 1.396 . S
C886 C887 1.399 . S
C887 H873 0.929 . S
C887 C886 1.399 . S
C887 C888 1.385 . S
C888 H874 0.931 . S
C888 C887 1.385 . S
C888 C889 1.389 . S
C889 C888 1.389 . S
C889 C890 1.387 . S
C890 H875 0.930 . S
C890 C885 1.390 . S
C890 C889 1.387 . S
H891 C903 0.930 . S
H892 C905 0.930 . S
H893 C906 0.930 . S
H894 C910 0.959 . S
H895 C910 0.959 . S
H896 C910 0.961 . S
H897 C911 0.960 . S
H898 C911 0.961 . S
H899 C911 0.959 . S
H900 C914 0.929 . S
H901 C915 0.931 . S
H902 C917 0.891 1_556 S
C903 H891 0.930 . S
C903 C904 1.399 . S
C903 C908 1.399 . S
C904 C903 1.399 . S
C904 C905 1.376 . S
C905 H892 0.930 . S
C905 C904 1.376 . S
C905 C906 1.388 . S
C906 H893 0.930 . S
C906 C905 1.388 . S
C906 C907 1.390 . S
C907 C906 1.390 . S
C907 C908 1.394 . S
C907 C913 1.465 . S
C908 C903 1.399 . S
C908 C907 1.394 . S
C908 C909 1.516 1_554 S
C909 C908 1.516 1_556 S
C909 C910 1.502 . S
C909 C911 1.561 . S
C909 C912 1.526 1_556 S
C910 H894 0.959 . S
C910 H895 0.959 . S
C910 H896 0.961 . S
C910 C909 1.502 . S
C911 H897 0.960 . S
C911 H898 0.961 . S
C911 H899 0.959 . S
C911 C909 1.561 . S
C912 C909 1.526 1_554 S
C912 C913 1.396 . S
C912 C917 1.404 . S
C913 C907 1.465 . S
C913 C912 1.396 . S
C913 C914 1.399 . S
C914 H900 0.929 . S
C914 C913 1.399 . S
C914 C915 1.385 . S
C915 H901 0.931 . S
C915 C914 1.385 . S
C915 C916 1.389 . S
C916 C915 1.389 . S
C916 C917 1.413 . S
C917 H902 0.891 1_554 S
C917 C912 1.404 . S
C917 C916 1.413 . S
H918 C930 0.930 . S
H919 C932 0.930 . S
H920 C933 0.930 . S
H921 C937 0.959 . S
H922 C937 0.959 . S
H923 C937 0.961 . S
H924 C938 0.960 . S
H925 C938 0.961 . S
H926 C938 0.959 . S
H927 C941 0.929 . S
H928 C942 0.931 . S
H929 C944 0.930 . S
C930 H918 0.930 . S
C930 C931 1.399 . S
C930 C935 1.399 . S
C931 C930 1.399 . S
C931 C932 1.376 . S
C932 H919 0.930 . S
C932 C931 1.376 . S
C932 C933 1.388 . S
C933 H920 0.930 . S
C933 C932 1.388 . S
C933 C934 1.390 . S
C934 C933 1.390 . S
C934 C935 1.394 . S
C934 C940 1.465 1_655 S
C935 C930 1.399 . S
C935 C934 1.394 . S
C935 C936 1.516 . S
C936 C935 1.516 . S
C936 C937 1.502 . S
C936 C938 1.561 . S
C936 C939 1.526 1_655 S
C937 H921 0.959 . S
C937 H922 0.959 . S
C937 H923 0.961 . S
C937 C936 1.502 . S
C938 H924 0.960 . S
C938 H925 0.961 . S
C938 H926 0.959 . S
C938 C936 1.561 . S
C939 C936 1.526 1_455 S
C939 C940 1.396 . S
C939 C944 1.390 . S
C940 C934 1.465 1_455 S
C940 C939 1.396 . S
C940 C941 1.399 . S
C941 H927 0.929 . S
C941 C940 1.399 . S
C941 C942 1.385 . S
C942 H928 0.931 . S
C942 C941 1.385 . S
C942 C943 1.389 . S
C943 C942 1.389 . S
C943 C944 1.387 . S
C944 H929 0.930 . S
C944 C939 1.390 . S
C944 C943 1.387 . S
H945 C957 0.930 . S
H946 C959 0.930 . S
H947 C960 0.930 . S
H948 C964 0.959 . S
H949 C964 0.959 . S
H950 C964 0.961 . S
H951 C965 0.960 . S
H952 C965 0.961 . S
H953 C965 0.959 . S
H954 C968 0.929 . S
H955 C969 0.931 . S
H956 C971 0.930 . S
C957 H945 0.930 . S
C957 C958 1.399 . S
C957 C962 1.399 . S
C958 C957 1.399 . S
C958 C959 1.376 . S
C959 H946 0.930 . S
C959 C958 1.376 . S
C959 C960 1.388 . S
C960 H947 0.930 . S
C960 C959 1.388 . S
C960 C961 1.390 . S
C961 C960 1.390 . S
C961 C962 1.394 . S
C961 C967 1.465 . S
C962 C957 1.399 . S
C962 C961 1.394 . S
C962 C963 1.516 . S
C963 C962 1.516 . S
C963 C964 1.502 . S
C963 C965 1.561 . S
C963 C966 1.526 . S
C964 H948 0.959 . S
C964 H949 0.959 . S
C964 H950 0.961 . S
C964 C963 1.502 . S
C965 H951 0.960 . S
C965 H952 0.961 . S
C965 H953 0.959 . S
C965 C963 1.561 . S
C966 C963 1.526 . S
C966 C967 1.396 . S
C966 C971 1.390 . S
C967 C961 1.465 . S
C967 C966 1.396 . S
C967 C968 1.399 . S
C968 H954 0.929 . S
C968 C967 1.399 . S
C968 C969 1.385 . S
C969 H955 0.931 . S
C969 C968 1.385 . S
C969 C970 1.389 . S
C970 C969 1.389 . S
C970 C971 1.387 . S
C971 H956 0.930 . S
C971 C966 1.390 . S
C971 C970 1.387 . S
H972 C984 0.930 . S
H973 C986 0.930 . S
H974 C987 0.930 . S
H975 C991 0.959 . S
H976 C991 0.959 1_565 S
H977 C991 0.961 . S
H978 C992 0.960 . S
H979 C992 0.961 1_565 S
H980 C992 0.959 . S
H981 C995 0.929 1_545 S
H982 C996 0.931 . S
H983 C998 0.930 . S
C984 H972 0.930 . S
C984 C985 1.399 . S
C984 C989 1.399 . S
C985 C984 1.399 . S
C985 C986 1.376 . S
C986 H973 0.930 . S
C986 C985 1.376 . S
C986 C987 1.388 . S
C987 H974 0.930 . S
C987 C986 1.388 . S
C987 C988 1.390 . S
C988 C987 1.390 . S
C988 C989 1.394 . S
C988 C994 1.465 . S
C989 C984 1.399 . S
C989 C988 1.394 . S
C989 C990 1.516 . S
C990 C989 1.516 . S
C990 C991 1.502 . S
C990 C992 1.561 . S
C990 C993 1.526 1_545 S
C991 H975 0.959 . S
C991 H976 0.959 1_545 S
C991 H977 0.961 . S
C991 C990 1.502 . S
C992 H978 0.960 . S
C992 H979 0.961 1_545 S
C992 H980 0.959 . S
C992 C990 1.561 . S
C993 C990 1.526 1_565 S
C993 C994 1.396 1_565 S
C993 C998 1.390 . S
C994 C988 1.465 . S
C994 C993 1.396 1_545 S
C994 C995 1.399 1_545 S
C995 H981 0.929 1_565 S
C995 C994 1.399 1_565 S
C995 C996 1.385 . S
C996 H982 0.931 . S
C996 C995 1.385 . S
C996 C997 1.389 . S
C997 C996 1.389 . S
C997 C998 1.387 . S
C998 H983 0.930 . S
C998 C993 1.390 . S
C998 C997 1.387 . S
H999 C1011 0.930 . S
H1000 C1013 0.930 . S
H1001 C1014 0.930 . S
H1002 C1018 0.959 . S
H1003 C1018 0.959 . S
H1004 C1018 0.961 . S
H1005 C1019 0.960 . S
H1006 C1019 0.961 . S
H1007 C1019 0.959 . S
H1008 C1022 0.929 . S
H1009 C1023 0.931 . S
H1010 C1025 0.930 . S
C1011 H999 0.930 . S
C1011 C1012 1.399 . S
C1011 C1016 1.399 . S
C1012 C1011 1.399 . S
C1012 C1013 1.376 . S
C1013 H1000 0.930 . S
C1013 C1012 1.376 . S
C1013 C1014 1.388 . S
C1014 H1001 0.930 . S
C1014 C1013 1.388 . S
C1014 C1015 1.390 . S
C1015 C1014 1.390 . S
C1015 C1016 1.394 . S
C1015 C1021 1.465 . S
C1016 C1011 1.399 . S
C1016 C1015 1.394 . S
C1016 C1017 1.516 . S
C1017 C1016 1.516 . S
C1017 C1018 1.502 . S
C1017 C1019 1.561 . S
C1017 C1020 1.526 . S
C1018 H1002 0.959 . S
C1018 H1003 0.959 . S
C1018 H1004 0.961 . S
C1018 C1017 1.502 . S
C1019 H1005 0.960 . S
C1019 H1006 0.961 . S
C1019 H1007 0.959 . S
C1019 C1017 1.561 . S
C1020 C1017 1.526 . S
C1020 C1021 1.396 . S
C1020 C1025 1.390 . S
C1021 C1015 1.465 . S
C1021 C1020 1.396 . S
C1021 C1022 1.399 . S
C1022 H1008 0.929 . S
C1022 C1021 1.399 . S
C1022 C1023 1.385 . S
C1023 H1009 0.931 . S
C1023 C1022 1.385 . S
C1023 C1024 1.389 . S
C1024 C1023 1.389 . S
C1024 C1025 1.387 . S
C1025 H1010 0.930 . S
C1025 C1020 1.390 . S
C1025 C1024 1.387 . S
H1026 C1038 0.930 . S
H1027 C1040 0.930 . S
H1028 C1041 0.930 . S
H1029 C1045 0.959 . S
H1030 C1045 0.959 . S
H1031 C1045 0.961 . S
H1032 C1046 0.960 . S
H1033 C1046 0.961 . S
H1034 C1046 0.959 . S
H1035 C1049 0.929 . S
H1036 C1050 0.931 . S
H1037 C1052 0.930 . S
C1038 H1026 0.930 . S
C1038 C1039 1.399 . S
C1038 C1043 1.399 . S
C1039 C1038 1.399 . S
C1039 C1040 1.376 . S
C1040 H1027 0.930 . S
C1040 C1039 1.376 . S
C1040 C1041 1.388 . S
C1041 H1028 0.930 . S
C1041 C1040 1.388 . S
C1041 C1042 1.390 . S
C1042 C1041 1.390 . S
C1042 C1043 1.394 . S
C1042 C1048 1.465 . S
C1043 C1038 1.399 . S
C1043 C1042 1.394 . S
C1043 C1044 1.516 . S
C1044 C1043 1.516 . S
C1044 C1045 1.502 . S
C1044 C1046 1.561 . S
C1044 C1047 1.526 . S
C1045 H1029 0.959 . S
C1045 H1030 0.959 . S
C1045 H1031 0.961 . S
C1045 C1044 1.502 . S
C1046 H1032 0.960 . S
C1046 H1033 0.961 . S
C1046 H1034 0.959 . S
C1046 C1044 1.561 . S
C1047 C1044 1.526 . S
C1047 C1048 1.396 . S
C1047 C1052 1.390 . S
C1048 C1042 1.465 . S
C1048 C1047 1.396 . S
C1048 C1049 1.399 . S
C1049 H1035 0.929 . S
C1049 C1048 1.399 . S
C1049 C1050 1.385 . S
C1050 H1036 0.931 . S
C1050 C1049 1.385 . S
C1050 C1051 1.389 . S
C1051 C1050 1.389 . S
C1051 C1052 1.387 . S
C1052 H1037 0.930 . S
C1052 C1047 1.390 . S
C1052 C1051 1.387 . S
H1053 C1065 0.930 . S
H1054 C1067 0.930 . S
H1055 C1068 0.930 . S
H1056 C1072 0.959 . S
H1057 C1072 0.959 . S
H1058 C1072 0.961 . S
H1059 C1073 0.960 . S
H1060 C1073 0.961 . S
H1061 C1073 0.959 . S
H1062 C1076 0.929 . S
H1063 C1077 0.931 . S
H1064 C1079 0.930 . S
C1065 H1053 0.930 . S
C1065 C1066 1.399 . S
C1065 C1070 1.399 . S
C1066 C1065 1.399 . S
C1066 C1067 1.376 . S
C1067 H1054 0.930 . S
C1067 C1066 1.376 . S
C1067 C1068 1.388 . S
C1068 H1055 0.930 . S
C1068 C1067 1.388 . S
C1068 C1069 1.390 . S
C1069 C1068 1.390 . S
C1069 C1070 1.394 . S
C1069 C1075 1.465 . S
C1070 C1065 1.399 . S
C1070 C1069 1.394 . S
C1070 C1071 1.516 . S
C1071 C1070 1.516 . S
C1071 C1072 1.502 . S
C1071 C1073 1.561 . S
C1071 C1074 1.526 . S
C1072 H1056 0.959 . S
C1072 H1057 0.959 . S
C1072 H1058 0.961 . S
C1072 C1071 1.502 . S
C1073 H1059 0.960 . S
C1073 H1060 0.961 . S
C1073 H1061 0.959 . S
C1073 C1071 1.561 . S
C1074 C1071 1.526 . S
C1074 C1075 1.396 . S
C1074 C1079 1.390 . S
C1075 C1069 1.465 . S
C1075 C1074 1.396 . S
C1075 C1076 1.399 . S
C1076 H1062 0.929 . S
C1076 C1075 1.399 . S
C1076 C1077 1.385 . S
C1077 H1063 0.931 . S
C1077 C1076 1.385 . S
C1077 C1078 1.389 . S
C1078 C1077 1.389 . S
C1078 C1079 1.387 . S
C1079 H1064 0.930 . S
C1079 C1074 1.390 . S
C1079 C1078 1.387 . S
H1080 C1092 0.930 . S
H1081 C1094 0.930 . S
H1082 C1095 0.930 . S
H1083 C1099 0.959 . S
H1084 C1099 0.959 . S
H1085 C1099 0.961 . S
H1086 C1100 0.960 . S
H1087 C1100 0.961 . S
H1088 C1100 0.959 . S
H1089 C1103 0.929 . S
H1090 C1104 0.931 . S
H1091 C1106 0.930 . S
C1092 H1080 0.930 . S
C1092 C1093 1.399 . S
C1092 C1097 1.399 . S
C1093 C1092 1.399 . S
C1093 C1094 1.376 . S
C1094 H1081 0.930 . S
C1094 C1093 1.376 . S
C1094 C1095 1.388 . S
C1095 H1082 0.930 . S
C1095 C1094 1.388 . S
C1095 C1096 1.390 . S
C1096 C1095 1.390 . S
C1096 C1097 1.394 . S
C1096 C1102 1.465 . S
C1097 C1092 1.399 . S
C1097 C1096 1.394 . S
C1097 C1098 1.516 . S
C1098 C1097 1.516 . S
C1098 C1099 1.502 . S
C1098 C1100 1.561 . S
C1098 C1101 1.526 . S
C1099 H1083 0.959 . S
C1099 H1084 0.959 . S
C1099 H1085 0.961 . S
C1099 C1098 1.502 . S
C1100 H1086 0.960 . S
C1100 H1087 0.961 . S
C1100 H1088 0.959 . S
C1100 C1098 1.561 . S
C1101 C1098 1.526 . S
C1101 C1102 1.396 . S
C1101 C1106 1.390 . S
C1102 C1096 1.465 . S
C1102 C1101 1.396 . S
C1102 C1103 1.399 . S
C1103 H1089 0.929 . S
C1103 C1102 1.399 . S
C1103 C1104 1.385 . S
C1104 H1090 0.931 . S
C1104 C1103 1.385 . S
C1104 C1105 1.389 . S
C1105 C1104 1.389 . S
C1105 C1106 1.387 . S
C1106 H1091 0.930 . S
C1106 C1101 1.390 . S
C1106 C1105 1.387 . S
H1107 C1119 0.930 . S
H1108 C1121 0.930 . S
H1109 C1122 0.930 . S
H1110 C1126 0.959 . S
H1111 C1126 0.959 . S
H1112 C1126 0.961 . S
H1113 C1127 0.960 . S
H1114 C1127 0.961 . S
H1115 C1127 0.959 . S
H1116 C1130 0.929 . S
H1117 C1131 0.931 . S
H1118 C1133 0.930 . S
C1119 H1107 0.930 . S
C1119 C1120 1.399 . S
C1119 C1124 1.399 . S
C1120 C1119 1.399 . S
C1120 C1121 1.376 . S
C1121 H1108 0.930 . S
C1121 C1120 1.376 . S
C1121 C1122 1.388 . S
C1122 H1109 0.930 . S
C1122 C1121 1.388 . S
C1122 C1123 1.390 . S
C1123 C1122 1.390 . S
C1123 C1124 1.394 . S
C1123 C1129 1.465 . S
C1124 C1119 1.399 . S
C1124 C1123 1.394 . S
C1124 C1125 1.516 . S
C1125 C1124 1.516 . S
C1125 C1126 1.502 . S
C1125 C1127 1.561 . S
C1125 C1128 1.526 . S
C1126 H1110 0.959 . S
C1126 H1111 0.959 . S
C1126 H1112 0.961 . S
C1126 C1125 1.502 . S
C1127 H1113 0.960 . S
C1127 H1114 0.961 . S
C1127 H1115 0.959 . S
C1127 C1125 1.561 . S
C1128 C1125 1.526 . S
C1128 C1129 1.396 . S
C1128 C1133 1.390 . S
C1129 C1123 1.465 . S
C1129 C1128 1.396 . S
C1129 C1130 1.399 . S
C1130 H1116 0.929 . S
C1130 C1129 1.399 . S
C1130 C1131 1.385 . S
C1131 H1117 0.931 . S
C1131 C1130 1.385 . S
C1131 C1132 1.389 . S
C1132 C1131 1.389 . S
C1132 C1133 1.387 . S
C1133 H1118 0.930 . S
C1133 C1128 1.390 . S
C1133 C1132 1.387 . S
H1134 C1146 0.930 . S
H1135 C1148 0.930 . S
H1136 C1149 0.930 . S
H1137 C1153 0.959 . S
H1138 C1153 0.959 . S
H1139 C1153 0.961 . S
H1140 C1154 0.960 . S
H1141 C1154 0.961 . S
H1142 C1154 0.959 . S
H1143 C1157 0.929 . S
H1144 C1158 0.931 . S
H1145 C1160 0.930 . S
C1146 H1134 0.930 . S
C1146 C1147 1.399 . S
C1146 C1151 1.399 . S
C1147 C1146 1.399 . S
C1147 C1148 1.376 . S
C1148 H1135 0.930 . S
C1148 C1147 1.376 . S
C1148 C1149 1.388 . S
C1149 H1136 0.930 . S
C1149 C1148 1.388 . S
C1149 C1150 1.390 . S
C1150 C1149 1.390 . S
C1150 C1151 1.394 . S
C1150 C1156 1.465 . S
C1151 C1146 1.399 . S
C1151 C1150 1.394 . S
C1151 C1152 1.516 . S
C1152 C1151 1.516 . S
C1152 C1153 1.502 . S
C1152 C1154 1.561 . S
C1152 C1155 1.526 . S
C1153 H1137 0.959 . S
C1153 H1138 0.959 . S
C1153 H1139 0.961 . S
C1153 C1152 1.502 . S
C1154 H1140 0.960 . S
C1154 H1141 0.961 . S
C1154 H1142 0.959 . S
C1154 C1152 1.561 . S
C1155 C1152 1.526 . S
C1155 C1156 1.396 . S
C1155 C1160 1.390 . S
C1156 C1150 1.465 . S
C1156 C1155 1.396 . S
C1156 C1157 1.399 . S
C1157 H1143 0.929 . S
C1157 C1156 1.399 . S
C1157 C1158 1.385 . S
C1158 H1144 0.931 . S
C1158 C1157 1.385 . S
C1158 C1159 1.389 . S
C1159 C1158 1.389 . S
C1159 C1160 1.387 . S
C1160 H1145 0.930 . S
C1160 C1155 1.390 . S
C1160 C1159 1.387 . S
H1161 C1173 0.930 . S
H1162 C1175 0.930 . S
H1163 C1176 0.930 . S
H1164 C1180 0.959 . S
H1165 C1180 0.959 . S
H1166 C1180 0.961 . S
H1167 C1181 0.960 . S
H1168 C1181 0.961 . S
H1169 C1181 0.959 . S
H1170 C1184 0.929 . S
H1171 C1185 0.931 . S
H1172 C1187 0.930 . S
C1173 H1161 0.930 . S
C1173 C1174 1.399 . S
C1173 C1178 1.399 1_545 S
C1174 C1173 1.399 . S
C1174 C1175 1.376 . S
C1175 H1162 0.930 . S
C1175 C1174 1.376 . S
C1175 C1176 1.388 1_545 S
C1176 H1163 0.930 . S
C1176 C1175 1.388 1_565 S
C1176 C1177 1.390 . S
C1177 C1176 1.390 . S
C1177 C1178 1.394 . S
C1177 C1183 1.465 . S
C1178 C1173 1.399 1_565 S
C1178 C1177 1.394 . S
C1178 C1179 1.516 . S
C1179 C1178 1.516 . S
C1179 C1180 1.502 . S
C1179 C1181 1.561 . S
C1179 C1182 1.526 . S
C1180 H1164 0.959 . S
C1180 H1165 0.959 . S
C1180 H1166 0.961 . S
C1180 C1179 1.502 . S
C1181 H1167 0.960 . S
C1181 H1168 0.961 . S
C1181 H1169 0.959 . S
C1181 C1179 1.561 . S
C1182 C1179 1.526 . S
C1182 C1183 1.396 . S
C1182 C1187 1.390 . S
C1183 C1177 1.465 . S
C1183 C1182 1.396 . S
C1183 C1184 1.399 . S
C1184 H1170 0.929 . S
C1184 C1183 1.399 . S
C1184 C1185 1.385 . S
C1185 H1171 0.931 . S
C1185 C1184 1.385 . S
C1185 C1186 1.389 . S
C1186 C1185 1.389 . S
C1186 C1187 1.387 . S
C1187 H1172 0.930 . S
C1187 C1182 1.390 . S
C1187 C1186 1.387 . S
H1188 C1200 0.930 . S
H1189 C1202 0.930 . S
H1190 C1203 0.930 . S
H1191 C1207 0.959 . S
H1192 C1207 0.959 . S
H1193 C1207 0.961 . S
H1194 C1208 0.960 . S
H1195 C1208 0.961 . S
H1196 C1208 0.959 . S
H1197 C1211 0.929 . S
H1198 C1212 0.931 . S
H1199 C1214 0.930 . S
C1200 H1188 0.930 . S
C1200 C1201 1.399 1_455 S
C1200 C1205 1.399 . S
C1201 C1200 1.399 1_655 S
C1201 C1202 1.376 . S
C1202 H1189 0.930 . S
C1202 C1201 1.376 . S
C1202 C1203 1.388 1_655 S
C1203 H1190 0.930 . S
C1203 C1202 1.388 1_455 S
C1203 C1204 1.390 . S
C1204 C1203 1.390 . S
C1204 C1205 1.394 . S
C1204 C1210 1.465 . S
C1205 C1200 1.399 . S
C1205 C1204 1.394 . S
C1205 C1206 1.516 . S
C1206 C1205 1.516 . S
C1206 C1207 1.502 . S
C1206 C1208 1.561 . S
C1206 C1209 1.526 . S
C1207 H1191 0.959 . S
C1207 H1192 0.959 . S
C1207 H1193 0.961 . S
C1207 C1206 1.502 . S
C1208 H1194 0.960 . S
C1208 H1195 0.961 . S
C1208 H1196 0.959 . S
C1208 C1206 1.561 . S
C1209 C1206 1.526 . S
C1209 C1210 1.396 . S
C1209 C1214 1.390 . S
C1210 C1204 1.465 . S
C1210 C1209 1.396 . S
C1210 C1211 1.399 . S
C1211 H1197 0.929 . S
C1211 C1210 1.399 . S
C1211 C1212 1.385 . S
C1212 H1198 0.931 . S
C1212 C1211 1.385 . S
C1212 C1213 1.389 . S
C1213 C1212 1.389 . S
C1213 C1214 1.387 . S
C1214 H1199 0.930 . S
C1214 C1209 1.390 . S
C1214 C1213 1.387 . S
H1215 C1227 0.930 . S
H1216 C1229 0.930 . S
H1217 C1230 0.930 . S
H1218 C1234 0.959 . S
H1219 C1234 0.959 . S
H1220 C1234 0.961 . S
H1221 C1235 0.960 . S
H1222 C1235 0.961 . S
H1223 C1235 0.959 . S
H1224 C1238 0.929 . S
H1225 C1239 0.931 . S
H1226 C1241 0.930 . S
C1227 H1215 0.930 . S
C1227 C1228 1.399 . S
C1227 C1232 1.399 . S
C1228 C1227 1.399 . S
C1228 C1229 1.376 . S
C1229 H1216 0.930 . S
C1229 C1228 1.376 . S
C1229 C1230 1.388 . S
C1230 H1217 0.930 . S
C1230 C1229 1.388 . S
C1230 C1231 1.390 . S
C1231 C1230 1.390 . S
C1231 C1232 1.394 . S
C1231 C1237 1.465 . S
C1232 C1227 1.399 . S
C1232 C1231 1.394 . S
C1232 C1233 1.516 . S
C1233 C1232 1.516 . S
C1233 C1234 1.502 . S
C1233 C1235 1.561 . S
C1233 C1236 1.526 . S
C1234 H1218 0.959 . S
C1234 H1219 0.959 . S
C1234 H1220 0.961 . S
C1234 C1233 1.502 . S
C1235 H1221 0.960 . S
C1235 H1222 0.961 . S
C1235 H1223 0.959 . S
C1235 C1233 1.561 . S
C1236 C1233 1.526 . S
C1236 C1237 1.396 . S
C1236 C1241 1.390 . S
C1237 C1231 1.465 . S
C1237 C1236 1.396 . S
C1237 C1238 1.399 . S
C1238 H1224 0.929 . S
C1238 C1237 1.399 . S
C1238 C1239 1.385 . S
C1239 H1225 0.931 . S
C1239 C1238 1.385 . S
C1239 C1240 1.389 . S
C1240 C1239 1.389 . S
C1240 C1241 1.387 . S
C1241 H1226 0.930 . S
C1241 C1236 1.390 . S
C1241 C1240 1.387 . S
H1242 C1254 0.930 . S
H1243 C1256 0.930 . S
H1244 C1257 0.930 . S
H1245 C1261 0.959 . S
H1246 C1261 0.959 . S
H1247 C1261 0.961 . S
H1248 C1262 0.960 . S
H1249 C1262 0.961 . S
H1250 C1262 0.959 . S
H1251 C1265 0.929 . S
H1252 C1266 0.931 . S
H1253 C1268 0.930 . S
C1254 H1242 0.930 . S
C1254 C1255 1.399 . S
C1254 C1259 1.399 . S
C1255 C1254 1.399 . S
C1255 C1256 1.376 . S
C1256 H1243 0.930 . S
C1256 C1255 1.376 . S
C1256 C1257 1.388 . S
C1257 H1244 0.930 . S
C1257 C1256 1.388 . S
C1257 C1258 1.390 . S
C1258 C1257 1.390 . S
C1258 C1259 1.394 . S
C1258 C1264 1.465 . S
C1259 C1254 1.399 . S
C1259 C1258 1.394 . S
C1259 C1260 1.516 . S
C1260 C1259 1.516 . S
C1260 C1261 1.502 . S
C1260 C1262 1.561 . S
C1260 C1263 1.526 . S
C1261 H1245 0.959 . S
C1261 H1246 0.959 . S
C1261 H1247 0.961 . S
C1261 C1260 1.502 . S
C1262 H1248 0.960 . S
C1262 H1249 0.961 . S
C1262 H1250 0.959 . S
C1262 C1260 1.561 . S
C1263 C1260 1.526 . S
C1263 C1264 1.396 . S
C1263 C1268 1.390 . S
C1264 C1258 1.465 . S
C1264 C1263 1.396 . S
C1264 C1265 1.399 . S
C1265 H1251 0.929 . S
C1265 C1264 1.399 . S
C1265 C1266 1.385 . S
C1266 H1252 0.931 . S
C1266 C1265 1.385 . S
C1266 C1267 1.389 . S
C1267 C1266 1.389 . S
C1267 C1268 1.387 . S
C1268 H1253 0.930 . S
C1268 C1263 1.390 . S
C1268 C1267 1.387 . S
H1269 C1281 0.930 . S
H1270 C1283 0.930 . S
H1271 C1284 0.930 . S
H1272 C1288 0.959 . S
H1273 C1288 0.959 . S
H1274 C1288 0.961 . S
H1275 C1289 0.960 . S
H1276 C1289 0.961 . S
H1277 C1289 0.959 . S
H1278 C1292 0.929 . S
H1279 C1293 0.931 . S
H1280 C1295 0.930 . S
C1281 H1269 0.930 . S
C1281 C1282 1.399 . S
C1281 C1286 1.399 . S
C1282 C1281 1.399 . S
C1282 C1283 1.376 . S
C1283 H1270 0.930 . S
C1283 C1282 1.376 . S
C1283 C1284 1.388 . S
C1284 H1271 0.930 . S
C1284 C1283 1.388 . S
C1284 C1285 1.390 . S
C1285 C1284 1.390 . S
C1285 C1286 1.394 . S
C1285 C1291 1.465 . S
C1286 C1281 1.399 . S
C1286 C1285 1.394 . S
C1286 C1287 1.516 . S
C1287 C1286 1.516 . S
C1287 C1288 1.502 . S
C1287 C1289 1.561 . S
C1287 C1290 1.526 . S
C1288 H1272 0.959 . S
C1288 H1273 0.959 . S
C1288 H1274 0.961 . S
C1288 C1287 1.502 . S
C1289 H1275 0.960 . S
C1289 H1276 0.961 . S
C1289 H1277 0.959 . S
C1289 C1287 1.561 . S
C1290 C1287 1.526 . S
C1290 C1291 1.396 . S
C1290 C1295 1.390 . S
C1291 C1285 1.465 . S
C1291 C1290 1.396 . S
C1291 C1292 1.399 . S
C1292 H1278 0.929 . S
C1292 C1291 1.399 . S
C1292 C1293 1.385 . S
C1293 H1279 0.931 . S
C1293 C1292 1.385 . S
C1293 C1294 1.389 . S
C1294 C1293 1.389 . S
C1294 C1295 1.387 . S
C1295 H1280 0.930 . S
C1295 C1290 1.390 . S
C1295 C1294 1.387 . S
H1296 C1308 0.930 . S
H1297 C1310 0.930 . S
H1298 C1311 0.930 . S
H1299 C1315 0.959 . S
H1300 C1315 0.959 . S
H1301 C1315 0.961 . S
H1302 C1316 0.960 . S
H1303 C1316 0.961 . S
H1304 C1316 0.959 . S
H1305 C1319 0.929 . S
H1306 C1320 0.931 . S
H1307 C1322 0.930 . S
C1308 H1296 0.930 . S
C1308 C1309 1.399 . S
C1308 C1313 1.399 . S
C1309 C1308 1.399 . S
C1309 C1310 1.376 . S
C1310 H1297 0.930 . S
C1310 C1309 1.376 . S
C1310 C1311 1.388 . S
C1311 H1298 0.930 . S
C1311 C1310 1.388 . S
C1311 C1312 1.390 . S
C1312 C1311 1.390 . S
C1312 C1313 1.394 . S
C1312 C1318 1.465 . S
C1313 C1308 1.399 . S
C1313 C1312 1.394 . S
C1313 C1314 1.516 . S
C1314 C1313 1.516 . S
C1314 C1315 1.502 . S
C1314 C1316 1.561 . S
C1314 C1317 1.526 . S
C1315 H1299 0.959 . S
C1315 H1300 0.959 . S
C1315 H1301 0.961 . S
C1315 C1314 1.502 . S
C1316 H1302 0.960 . S
C1316 H1303 0.961 . S
C1316 H1304 0.959 . S
C1316 C1314 1.561 . S
C1317 C1314 1.526 . S
C1317 C1318 1.396 . S
C1317 C1322 1.390 . S
C1318 C1312 1.465 . S
C1318 C1317 1.396 . S
C1318 C1319 1.399 . S
C1319 H1305 0.929 . S
C1319 C1318 1.399 . S
C1319 C1320 1.385 . S
C1320 H1306 0.931 . S
C1320 C1319 1.385 . S
C1320 C1321 1.389 . S
C1321 C1320 1.389 . S
C1321 C1322 1.387 . S
C1322 H1307 0.930 . S
C1322 C1317 1.390 . S
C1322 C1321 1.387 . S
H1323 C1335 0.930 . S
H1324 C1337 0.930 . S
H1325 C1338 0.930 . S
H1326 C1342 0.970 . S
H1327 C1342 0.970 . S
H1328 C1342 0.952 1_565 S
H1329 C1343 0.960 . S
H1330 C1343 0.961 . S
H1331 C1343 0.959 . S
H1332 C1346 0.929 . S
H1333 C1347 0.931 . S
H1334 C1349 0.930 . S
C1335 H1323 0.930 . S
C1335 C1336 1.399 . S
C1335 C1340 1.399 . S
C1336 C1335 1.399 . S
C1336 C1337 1.376 . S
C1337 H1324 0.930 . S
C1337 C1336 1.376 . S
C1337 C1338 1.388 . S
C1338 H1325 0.930 . S
C1338 C1337 1.388 . S
C1338 C1339 1.390 . S
C1339 C1338 1.390 . S
C1339 C1340 1.394 . S
C1339 C1345 1.465 1_565 S
C1340 C1335 1.399 . S
C1340 C1339 1.394 . S
C1340 C1341 1.516 . S
C1341 C1340 1.516 . S
C1341 C1342 1.489 1_565 S
C1341 C1343 1.561 . S
C1341 C1344 1.526 1_565 S
C1342 H1326 0.970 . S
C1342 H1327 0.970 . S
C1342 H1328 0.952 1_545 S
C1342 C1341 1.489 1_545 S
C1343 H1329 0.960 . S
C1343 H1330 0.961 . S
C1343 H1331 0.959 . S
C1343 C1341 1.561 . S
C1344 C1341 1.526 1_545 S
C1344 C1345 1.396 . S
C1344 C1349 1.390 . S
C1345 C1339 1.465 1_545 S
C1345 C1344 1.396 . S
C1345 C1346 1.399 . S
C1346 H1332 0.929 . S
C1346 C1345 1.399 . S
C1346 C1347 1.385 . S
C1347 H1333 0.931 . S
C1347 C1346 1.385 . S
C1347 C1348 1.389 . S
C1348 C1347 1.389 . S
C1348 C1349 1.387 . S
C1349 H1334 0.930 . S
C1349 C1344 1.390 . S
C1349 C1348 1.387 . S
H1350 C1362 0.930 . S
H1351 C1364 0.930 . S
H1352 C1365 0.930 . S
H1353 C1369 0.959 . S
H1354 C1369 0.959 . S
H1355 C1369 0.961 . S
H1356 C1370 0.960 . S
H1357 C1370 0.961 . S
H1358 C1370 0.959 . S
H1359 C1373 0.929 1_455 S
H1360 C1374 0.931 . S
H1361 C1376 0.930 . S
C1362 H1350 0.930 . S
C1362 C1363 1.399 . S
C1362 C1367 1.399 . S
C1363 C1362 1.399 . S
C1363 C1364 1.376 . S
C1364 H1351 0.930 . S
C1364 C1363 1.376 . S
C1364 C1365 1.388 . S
C1365 H1352 0.930 . S
C1365 C1364 1.388 . S
C1365 C1366 1.390 . S
C1366 C1365 1.390 . S
C1366 C1367 1.394 . S
C1366 C1372 1.465 1_455 S
C1367 C1362 1.399 . S
C1367 C1366 1.394 . S
C1367 C1368 1.516 1_455 S
C1368 C1367 1.516 1_655 S
C1368 C1369 1.502 . S
C1368 C1370 1.561 . S
C1368 C1371 1.526 . S
C1369 H1353 0.959 . S
C1369 H1354 0.959 . S
C1369 H1355 0.961 . S
C1369 C1368 1.502 . S
C1370 H1356 0.960 . S
C1370 H1357 0.961 . S
C1370 H1358 0.959 . S
C1370 C1368 1.561 . S
C1371 C1368 1.526 . S
C1371 C1372 1.396 . S
C1371 C1376 1.390 . S
C1372 C1366 1.465 1_655 S
C1372 C1371 1.396 . S
C1372 C1373 1.399 . S
C1373 H1359 0.929 1_655 S
C1373 C1372 1.399 . S
C1373 C1374 1.385 . S
C1374 H1360 0.931 . S
C1374 C1373 1.385 . S
C1374 C1375 1.389 . S
C1375 C1374 1.389 . S
C1375 C1376 1.387 . S
C1376 H1361 0.930 . S
C1376 C1371 1.390 . S
C1376 C1375 1.387 . S
H1377 C1389 0.930 . S
H1378 C1391 0.930 . S
H1379 C1392 0.930 . S
H1380 C1396 0.959 . S
H1381 C1396 0.959 . S
H1382 C1396 0.961 . S
H1383 C1397 0.960 . S
H1384 C1397 0.961 . S
H1385 C1397 0.959 . S
H1386 C1400 0.929 . S
H1387 C1401 0.931 . S
H1388 C1403 0.930 . S
C1389 H1377 0.930 . S
C1389 C1390 1.399 . S
C1389 C1394 1.399 . S
C1390 C1389 1.399 . S
C1390 C1391 1.376 . S
C1391 H1378 0.930 . S
C1391 C1390 1.376 . S
C1391 C1392 1.388 . S
C1392 H1379 0.930 . S
C1392 C1391 1.388 . S
C1392 C1393 1.390 . S
C1393 C1392 1.390 . S
C1393 C1394 1.394 . S
C1393 C1399 1.465 . S
C1394 C1389 1.399 . S
C1394 C1393 1.394 . S
C1394 C1395 1.516 . S
C1395 C1394 1.516 . S
C1395 C1396 1.502 . S
C1395 C1397 1.561 . S
C1395 C1398 1.526 . S
C1396 H1380 0.959 . S
C1396 H1381 0.959 . S
C1396 H1382 0.961 . S
C1396 C1395 1.502 . S
C1397 H1383 0.960 . S
C1397 H1384 0.961 . S
C1397 H1385 0.959 . S
C1397 C1395 1.561 . S
C1398 C1395 1.526 . S
C1398 C1399 1.396 . S
C1398 C1403 1.390 . S
C1399 C1393 1.465 . S
C1399 C1398 1.396 . S
C1399 C1400 1.399 . S
C1400 H1386 0.929 . S
C1400 C1399 1.399 . S
C1400 C1401 1.385 . S
C1401 H1387 0.931 . S
C1401 C1400 1.385 . S
C1401 C1402 1.389 . S
C1402 C1401 1.389 . S
C1402 C1403 1.387 . S
C1403 H1388 0.930 . S
C1403 C1398 1.390 . S
C1403 C1402 1.387 . S
H1404 C1416 0.930 . S
H1405 C1418 0.930 . S
H1406 C1419 0.931 1_655 S
H1407 C1423 0.959 . S
H1408 C1423 0.959 . S
H1409 C1423 0.961 . S
H1410 C1424 0.960 . S
H1411 C1424 0.961 . S
H1412 C1424 0.959 . S
H1413 C1427 0.929 . S
H1414 C1428 0.931 . S
H1415 C1430 0.930 . S
C1416 H1404 0.930 . S
C1416 C1417 1.399 . S
C1416 C1421 1.399 1_455 S
C1417 C1416 1.399 . S
C1417 C1418 1.376 . S
C1418 H1405 0.930 . S
C1418 C1417 1.376 . S
C1418 C1419 1.388 . S
C1419 H1406 0.931 1_455 S
C1419 C1418 1.388 . S
C1419 C1420 1.390 1_455 S
C1420 C1419 1.390 1_655 S
C1420 C1421 1.394 . S
C1420 C1426 1.465 . S
C1421 C1416 1.399 1_655 S
C1421 C1420 1.394 . S
C1421 C1422 1.516 . S
C1422 C1421 1.516 . S
C1422 C1423 1.502 . S
C1422 C1424 1.561 . S
C1422 C1425 1.526 . S
C1423 H1407 0.959 . S
C1423 H1408 0.959 . S
C1423 H1409 0.961 . S
C1423 C1422 1.502 . S
C1424 H1410 0.960 . S
C1424 H1411 0.961 . S
C1424 H1412 0.959 . S
C1424 C1422 1.561 . S
C1425 C1422 1.526 . S
C1425 C1426 1.396 . S
C1425 C1430 1.390 . S
C1426 C1420 1.465 . S
C1426 C1425 1.396 . S
C1426 C1427 1.399 . S
C1427 H1413 0.929 . S
C1427 C1426 1.399 . S
C1427 C1428 1.385 . S
C1428 H1414 0.931 . S
C1428 C1427 1.385 . S
C1428 C1429 1.389 . S
C1429 C1428 1.389 . S
C1429 C1430 1.387 . S
C1430 H1415 0.930 . S
C1430 C1425 1.390 . S
C1430 C1429 1.387 . S
H1431 C1443 0.930 . S
H1432 C1445 0.930 . S
H1433 C1446 0.930 . S
H1434 C1450 0.959 . S
H1435 C1450 0.959 . S
H1436 C1450 0.961 . S
H1437 C1451 0.960 . S
H1438 C1451 0.961 . S
H1439 C1451 0.959 . S
H1440 C1454 0.929 . S
H1441 C1455 0.931 . S
H1442 C1457 0.930 . S
C1443 H1431 0.930 . S
C1443 C1444 1.399 . S
C1443 C1448 1.399 . S
C1444 C1443 1.399 . S
C1444 C1445 1.376 . S
C1445 H1432 0.930 . S
C1445 C1444 1.376 . S
C1445 C1446 1.388 . S
C1446 H1433 0.930 . S
C1446 C1445 1.388 . S
C1446 C1447 1.390 . S
C1447 C1446 1.390 . S
C1447 C1448 1.394 . S
C1447 C1453 1.465 . S
C1448 C1443 1.399 . S
C1448 C1447 1.394 . S
C1448 C1449 1.516 . S
C1449 C1448 1.516 . S
C1449 C1450 1.502 . S
C1449 C1451 1.561 . S
C1449 C1452 1.526 . S
C1450 H1434 0.959 . S
C1450 H1435 0.959 . S
C1450 H1436 0.961 . S
C1450 C1449 1.502 . S
C1451 H1437 0.960 . S
C1451 H1438 0.961 . S
C1451 H1439 0.959 . S
C1451 C1449 1.561 . S
C1452 C1449 1.526 . S
C1452 C1453 1.396 . S
C1452 C1457 1.390 . S
C1453 C1447 1.465 . S
C1453 C1452 1.396 . S
C1453 C1454 1.399 . S
C1454 H1440 0.929 . S
C1454 C1453 1.399 . S
C1454 C1455 1.385 . S
C1455 H1441 0.931 . S
C1455 C1454 1.385 . S
C1455 C1456 1.389 . S
C1456 C1455 1.389 . S
C1456 C1457 1.387 . S
C1457 H1442 0.930 . S
C1457 C1452 1.390 . S
C1457 C1456 1.387 . S
H1458 C1470 0.930 . S
H1459 C1472 0.930 . S
H1460 C1473 0.930 . S
H1461 C1477 0.959 . S
H1462 C1477 0.959 . S
H1463 C1477 0.961 . S
H1464 C1478 0.960 . S
H1465 C1478 0.961 . S
H1466 C1478 0.959 . S
H1467 C1481 0.929 . S
H1468 C1482 0.931 . S
H1469 C1484 0.930 . S
C1470 H1458 0.930 . S
C1470 C1471 1.399 . S
C1470 C1475 1.399 1_565 S
C1471 C1470 1.399 . S
C1471 C1472 1.376 . S
C1472 H1459 0.930 . S
C1472 C1471 1.376 . S
C1472 C1473 1.388 1_565 S
C1473 H1460 0.930 . S
C1473 C1472 1.388 1_545 S
C1473 C1474 1.390 . S
C1474 C1473 1.390 . S
C1474 C1475 1.394 . S
C1474 C1480 1.465 . S
C1475 C1470 1.399 1_545 S
C1475 C1474 1.394 . S
C1475 C1476 1.516 . S
C1476 C1475 1.516 . S
C1476 C1477 1.502 . S
C1476 C1478 1.561 . S
C1476 C1479 1.526 . S
C1477 H1461 0.959 . S
C1477 H1462 0.959 . S
C1477 H1463 0.961 . S
C1477 C1476 1.502 . S
C1478 H1464 0.960 . S
C1478 H1465 0.961 . S
C1478 H1466 0.959 . S
C1478 C1476 1.561 . S
C1479 C1476 1.526 . S
C1479 C1480 1.396 . S
C1479 C1484 1.390 . S
C1480 C1474 1.465 . S
C1480 C1479 1.396 . S
C1480 C1481 1.399 . S
C1481 H1467 0.929 . S
C1481 C1480 1.399 . S
C1481 C1482 1.385 . S
C1482 H1468 0.931 . S
C1482 C1481 1.385 . S
C1482 C1483 1.389 . S
C1483 C1482 1.389 . S
C1483 C1484 1.387 . S
C1484 H1469 0.930 . S
C1484 C1479 1.390 . S
C1484 C1483 1.387 . S
H1485 C1497 0.930 . S
H1486 C1499 0.930 . S
H1487 C1500 0.930 . S
H1488 C1504 0.959 . S
H1489 C1504 0.959 . S
H1490 C1504 0.961 . S
H1491 C1505 0.960 . S
H1492 C1505 0.961 . S
H1493 C1505 0.959 . S
H1494 C1508 0.929 . S
H1495 C1509 0.931 . S
H1496 C1511 0.930 . S
C1497 H1485 0.930 . S
C1497 C1498 1.399 . S
C1497 C1502 1.399 . S
C1498 C1497 1.399 . S
C1498 C1499 1.376 . S
C1499 H1486 0.930 . S
C1499 C1498 1.376 . S
C1499 C1500 1.388 . S
C1500 H1487 0.930 . S
C1500 C1499 1.388 . S
C1500 C1501 1.390 . S
C1501 C1500 1.390 . S
C1501 C1502 1.394 . S
C1501 C1507 1.465 . S
C1502 C1497 1.399 . S
C1502 C1501 1.394 . S
C1502 C1503 1.516 . S
C1503 C1502 1.516 . S
C1503 C1504 1.502 . S
C1503 C1505 1.561 . S
C1503 C1506 1.526 . S
C1504 H1488 0.959 . S
C1504 H1489 0.959 . S
C1504 H1490 0.961 . S
C1504 C1503 1.502 . S
C1505 H1491 0.960 . S
C1505 H1492 0.961 . S
C1505 H1493 0.959 . S
C1505 C1503 1.561 . S
C1506 C1503 1.526 . S
C1506 C1507 1.396 . S
C1506 C1511 1.390 . S
C1507 C1501 1.465 . S
C1507 C1506 1.396 . S
C1507 C1508 1.399 . S
C1508 H1494 0.929 . S
C1508 C1507 1.399 . S
C1508 C1509 1.385 . S
C1509 H1495 0.931 . S
C1509 C1508 1.385 . S
C1509 C1510 1.389 . S
C1510 C1509 1.389 . S
C1510 C1511 1.387 . S
C1511 H1496 0.930 . S
C1511 C1506 1.390 . S
C1511 C1510 1.387 . S
H1512 C1524 0.930 . S
H1513 C1526 0.930 . S
H1514 C1527 0.930 . S
H1515 C1531 0.959 . S
H1516 C1531 0.959 . S
H1517 C1531 0.961 . S
H1518 C1532 0.960 . S
H1519 C1532 0.961 . S
H1520 C1532 0.959 . S
H1521 C1535 0.929 . S
H1522 C1536 0.931 . S
H1523 C1538 0.930 . S
C1524 H1512 0.930 . S
C1524 C1525 1.399 . S
C1524 C1529 1.399 . S
C1525 C1524 1.399 . S
C1525 C1526 1.376 . S
C1526 H1513 0.930 . S
C1526 C1525 1.376 . S
C1526 C1527 1.388 . S
C1527 H1514 0.930 . S
C1527 C1526 1.388 . S
C1527 C1528 1.390 . S
C1528 C1527 1.390 . S
C1528 C1529 1.394 . S
C1528 C1534 1.465 . S
C1529 C1524 1.399 . S
C1529 C1528 1.394 . S
C1529 C1530 1.516 . S
C1530 C1529 1.516 . S
C1530 C1531 1.502 . S
C1530 C1532 1.561 . S
C1530 C1533 1.526 . S
C1531 H1515 0.959 . S
C1531 H1516 0.959 . S
C1531 H1517 0.961 . S
C1531 C1530 1.502 . S
C1532 H1518 0.960 . S
C1532 H1519 0.961 . S
C1532 H1520 0.959 . S
C1532 C1530 1.561 . S
C1533 C1530 1.526 . S
C1533 C1534 1.396 . S
C1533 C1538 1.390 . S
C1534 C1528 1.465 . S
C1534 C1533 1.396 . S
C1534 C1535 1.399 . S
C1535 H1521 0.929 . S
C1535 C1534 1.399 . S
C1535 C1536 1.385 . S
C1536 H1522 0.931 . S
C1536 C1535 1.385 . S
C1536 C1537 1.389 . S
C1537 C1536 1.389 . S
C1537 C1538 1.387 . S
C1538 H1523 0.930 . S
C1538 C1533 1.390 . S
C1538 C1537 1.387 . S
H1539 C1551 0.930 . S
H1540 C1553 0.930 . S
H1541 C1554 0.930 . S
H1542 C1558 0.959 . S
H1543 C1558 0.959 . S
H1544 C1558 0.961 . S
H1545 C1559 0.960 . S
H1546 C1559 0.961 . S
H1547 C1559 0.959 . S
H1548 C1562 0.929 . S
H1549 C1563 0.931 . S
H1550 C1565 0.930 . S
C1551 H1539 0.930 . S
C1551 C1552 1.399 . S
C1551 C1556 1.399 . S
C1552 C1551 1.399 . S
C1552 C1553 1.376 . S
C1553 H1540 0.930 . S
C1553 C1552 1.376 . S
C1553 C1554 1.388 . S
C1554 H1541 0.930 . S
C1554 C1553 1.388 . S
C1554 C1555 1.390 . S
C1555 C1554 1.390 . S
C1555 C1556 1.394 . S
C1555 C1561 1.465 . S
C1556 C1551 1.399 . S
C1556 C1555 1.394 . S
C1556 C1557 1.516 . S
C1557 C1556 1.516 . S
C1557 C1558 1.502 . S
C1557 C1559 1.561 . S
C1557 C1560 1.526 . S
C1558 H1542 0.959 . S
C1558 H1543 0.959 . S
C1558 H1544 0.961 . S
C1558 C1557 1.502 . S
C1559 H1545 0.960 . S
C1559 H1546 0.961 . S
C1559 H1547 0.959 . S
C1559 C1557 1.561 . S
C1560 C1557 1.526 . S
C1560 C1561 1.396 . S
C1560 C1565 1.390 . S
C1561 C1555 1.465 . S
C1561 C1560 1.396 . S
C1561 C1562 1.399 . S
C1562 H1548 0.929 . S
C1562 C1561 1.399 . S
C1562 C1563 1.385 . S
C1563 H1549 0.931 . S
C1563 C1562 1.385 . S
C1563 C1564 1.389 . S
C1564 C1563 1.389 . S
C1564 C1565 1.387 . S
C1565 H1550 0.930 . S
C1565 C1560 1.390 . S
C1565 C1564 1.387 . S
H1566 C1578 0.930 . S
H1567 C1580 0.930 . S
H1568 C1581 0.930 . S
H1569 C1585 0.959 1_565 S
H1570 C1585 0.959 . S
H1571 C1585 0.961 . S
H1572 C1586 0.960 . S
H1573 C1586 0.961 1_545 S
H1574 C1586 0.959 . S
H1575 C1589 0.929 . S
H1576 C1590 0.931 . S
H1577 C1592 0.914 1_545 S
C1578 H1566 0.930 . S
C1578 C1579 1.399 . S
C1578 C1583 1.399 . S
C1579 C1578 1.399 . S
C1579 C1580 1.376 . S
C1580 H1567 0.930 . S
C1580 C1579 1.376 . S
C1580 C1581 1.388 . S
C1581 H1568 0.930 . S
C1581 C1580 1.388 . S
C1581 C1582 1.390 . S
C1582 C1581 1.390 . S
C1582 C1583 1.394 . S
C1582 C1588 1.465 . S
C1583 C1578 1.399 . S
C1583 C1582 1.394 . S
C1583 C1584 1.516 . S
C1584 C1583 1.516 . S
C1584 C1585 1.502 1_565 S
C1584 C1586 1.561 . S
C1584 C1587 1.526 . S
C1585 H1569 0.959 1_545 S
C1585 H1570 0.959 . S
C1585 H1571 0.961 . S
C1585 C1584 1.502 1_545 S
C1586 H1572 0.960 . S
C1586 H1573 0.961 1_565 S
C1586 H1574 0.959 . S
C1586 C1584 1.561 . S
C1587 C1584 1.526 . S
C1587 C1588 1.396 . S
C1587 C1592 1.390 . S
C1588 C1582 1.465 . S
C1588 C1587 1.396 . S
C1588 C1589 1.399 . S
C1589 H1575 0.929 . S
C1589 C1588 1.399 . S
C1589 C1590 1.385 . S
C1590 H1576 0.931 . S
C1590 C1589 1.385 . S
C1590 C1591 1.389 . S
C1591 C1590 1.389 . S
C1591 C1592 1.387 . S
C1592 H1577 0.914 1_565 S
C1592 C1587 1.390 . S
C1592 C1591 1.387 . S
H1593 C1605 0.930 . S
H1594 C1607 0.930 . S
H1595 C1608 0.930 . S
H1596 C1612 0.959 . S
H1597 C1612 0.959 . S
H1598 C1612 0.961 . S
H1599 C1613 0.960 . S
H1600 C1613 0.961 . S
H1601 C1613 0.959 . S
H1602 C1616 0.929 . S
H1603 C1617 0.931 . S
H1604 C1619 0.930 . S
C1605 H1593 0.930 . S
C1605 C1606 1.399 . S
C1605 C1610 1.399 . S
C1606 C1605 1.399 . S
C1606 C1607 1.376 . S
C1607 H1594 0.930 . S
C1607 C1606 1.376 . S
C1607 C1608 1.388 . S
C1608 H1595 0.930 . S
C1608 C1607 1.388 . S
C1608 C1609 1.390 . S
C1609 C1608 1.390 . S
C1609 C1610 1.394 . S
C1609 C1615 1.465 . S
C1610 C1605 1.399 . S
C1610 C1609 1.394 . S
C1610 C1611 1.516 . S
C1611 C1610 1.516 . S
C1611 C1612 1.502 . S
C1611 C1613 1.561 . S
C1611 C1614 1.526 . S
C1612 H1596 0.959 . S
C1612 H1597 0.959 . S
C1612 H1598 0.961 . S
C1612 C1611 1.502 . S
C1613 H1599 0.960 . S
C1613 H1600 0.961 . S
C1613 H1601 0.959 . S
C1613 C1611 1.561 . S
C1614 C1611 1.526 . S
C1614 C1615 1.396 . S
C1614 C1619 1.390 . S
C1615 C1609 1.465 . S
C1615 C1614 1.396 . S
C1615 C1616 1.399 . S
C1616 H1602 0.929 . S
C1616 C1615 1.399 . S
C1616 C1617 1.385 . S
C1617 H1603 0.931 . S
C1617 C1616 1.385 . S
C1617 C1618 1.389 . S
C1618 C1617 1.389 . S
C1618 C1619 1.387 . S
C1619 H1604 0.930 . S
C1619 C1614 1.390 . S
C1619 C1618 1.387 . S
H1620 C1632 0.930 . S
H1621 C1634 0.930 . S
H1622 C1635 0.930 . S
H1623 C1639 0.959 . S
H1624 C1639 0.959 . S
H1625 C1639 0.961 . S
H1626 C1640 0.960 . S
H1627 C1640 0.961 . S
H1628 C1640 0.959 . S
H1629 C1643 0.929 . S
H1630 C1644 0.931 . S
H1631 C1646 0.930 . S
C1632 H1620 0.930 . S
C1632 C1633 1.399 . S
C1632 C1637 1.399 . S
C1633 C1632 1.399 . S
C1633 C1634 1.376 . S
C1634 H1621 0.930 . S
C1634 C1633 1.376 . S
C1634 C1635 1.388 . S
C1635 H1622 0.930 . S
C1635 C1634 1.388 . S
C1635 C1636 1.390 . S
C1636 C1635 1.390 . S
C1636 C1637 1.394 . S
C1636 C1642 1.465 . S
C1637 C1632 1.399 . S
C1637 C1636 1.394 . S
C1637 C1638 1.516 . S
C1638 C1637 1.516 . S
C1638 C1639 1.502 . S
C1638 C1640 1.561 . S
C1638 C1641 1.526 . S
C1639 H1623 0.959 . S
C1639 H1624 0.959 . S
C1639 H1625 0.961 . S
C1639 C1638 1.502 . S
C1640 H1626 0.960 . S
C1640 H1627 0.961 . S
C1640 H1628 0.959 . S
C1640 C1638 1.561 . S
C1641 C1638 1.526 . S
C1641 C1642 1.396 . S
C1641 C1646 1.390 . S
C1642 C1636 1.465 . S
C1642 C1641 1.396 . S
C1642 C1643 1.399 . S
C1643 H1629 0.929 . S
C1643 C1642 1.399 . S
C1643 C1644 1.385 . S
C1644 H1630 0.931 . S
C1644 C1643 1.385 . S
C1644 C1645 1.389 . S
C1645 C1644 1.389 . S
C1645 C1646 1.387 . S
C1646 H1631 0.930 . S
C1646 C1641 1.390 . S
C1646 C1645 1.387 . S
H1647 C1659 0.930 . S
H1648 C1661 0.930 . S
H1649 C1662 0.930 . S
H1650 C1666 0.959 . S
H1651 C1666 0.959 . S
H1652 C1666 0.961 . S
H1653 C1667 0.960 . S
H1654 C1667 0.961 . S
H1655 C1667 0.959 . S
H1656 C1670 0.929 . S
H1657 C1671 0.931 . S
H1658 C1673 0.930 . S
C1659 H1647 0.930 . S
C1659 C1660 1.399 . S
C1659 C1664 1.399 . S
C1660 C1659 1.399 . S
C1660 C1661 1.376 . S
C1661 H1648 0.930 . S
C1661 C1660 1.376 . S
C1661 C1662 1.388 . S
C1662 H1649 0.930 . S
C1662 C1661 1.388 . S
C1662 C1663 1.390 . S
C1663 C1662 1.390 . S
C1663 C1664 1.394 . S
C1663 C1669 1.465 . S
C1664 C1659 1.399 . S
C1664 C1663 1.394 . S
C1664 C1665 1.516 . S
C1665 C1664 1.516 . S
C1665 C1666 1.502 . S
C1665 C1667 1.561 . S
C1665 C1668 1.526 . S
C1666 H1650 0.959 . S
C1666 H1651 0.959 . S
C1666 H1652 0.961 . S
C1666 C1665 1.502 . S
C1667 H1653 0.960 . S
C1667 H1654 0.961 . S
C1667 H1655 0.959 . S
C1667 C1665 1.561 . S
C1668 C1665 1.526 . S
C1668 C1669 1.396 . S
C1668 C1673 1.390 . S
C1669 C1663 1.465 . S
C1669 C1668 1.396 . S
C1669 C1670 1.399 . S
C1670 H1656 0.929 . S
C1670 C1669 1.399 . S
C1670 C1671 1.385 . S
C1671 H1657 0.931 . S
C1671 C1670 1.385 . S
C1671 C1672 1.389 . S
C1672 C1671 1.389 . S
C1672 C1673 1.387 . S
C1673 H1658 0.930 . S
C1673 C1668 1.390 . S
C1673 C1672 1.387 . S
H1674 C1686 0.930 . S
H1675 C1688 0.930 . S
H1676 C1689 0.930 . S
H1677 C1693 0.959 . S
H1678 C1693 0.959 . S
H1679 C1693 0.961 . S
H1680 C1694 0.960 . S
H1681 C1694 0.961 . S
H1682 C1694 0.959 . S
H1683 C1697 0.929 . S
H1684 C1698 0.931 . S
H1685 C1700 0.930 . S
C1686 H1674 0.930 . S
C1686 C1687 1.399 . S
C1686 C1691 1.399 . S
C1687 C1686 1.399 . S
C1687 C1688 1.376 . S
C1688 H1675 0.930 . S
C1688 C1687 1.376 . S
C1688 C1689 1.388 . S
C1689 H1676 0.930 . S
C1689 C1688 1.388 . S
C1689 C1690 1.390 . S
C1690 C1689 1.390 . S
C1690 C1691 1.394 . S
C1690 C1696 1.465 . S
C1691 C1686 1.399 . S
C1691 C1690 1.394 . S
C1691 C1692 1.516 . S
C1692 C1691 1.516 . S
C1692 C1693 1.502 . S
C1692 C1694 1.561 . S
C1692 C1695 1.526 . S
C1693 H1677 0.959 . S
C1693 H1678 0.959 . S
C1693 H1679 0.961 . S
C1693 C1692 1.502 . S
C1694 H1680 0.960 . S
C1694 H1681 0.961 . S
C1694 H1682 0.959 . S
C1694 C1692 1.561 . S
C1695 C1692 1.526 . S
C1695 C1696 1.396 . S
C1695 C1700 1.390 . S
C1696 C1690 1.465 . S
C1696 C1695 1.396 . S
C1696 C1697 1.399 . S
C1697 H1683 0.929 . S
C1697 C1696 1.399 . S
C1697 C1698 1.385 . S
C1698 H1684 0.931 . S
C1698 C1697 1.385 . S
C1698 C1699 1.389 . S
C1699 C1698 1.389 . S
C1699 C1700 1.387 . S
C1700 H1685 0.930 . S
C1700 C1695 1.390 . S
C1700 C1699 1.387 . S
H1701 C1713 0.930 . S
H1702 C1715 0.930 . S
H1703 C1716 0.930 . S
H1704 C1720 0.959 . S
H1705 C1720 0.959 . S
H1706 C1720 0.961 . S
H1707 C1721 0.960 . S
H1708 C1721 0.961 . S
H1709 C1721 0.959 . S
H1710 C1724 0.929 . S
H1711 C1725 0.931 . S
H1712 C1727 0.930 . S
C1713 H1701 0.930 . S
C1713 C1714 1.399 . S
C1713 C1718 1.399 . S
C1714 C1713 1.399 . S
C1714 C1715 1.376 . S
C1715 H1702 0.930 . S
C1715 C1714 1.376 . S
C1715 C1716 1.388 . S
C1716 H1703 0.930 . S
C1716 C1715 1.388 . S
C1716 C1717 1.390 . S
C1717 C1716 1.390 . S
C1717 C1718 1.394 . S
C1717 C1723 1.465 . S
C1718 C1713 1.399 . S
C1718 C1717 1.394 . S
C1718 C1719 1.516 . S
C1719 C1718 1.516 . S
C1719 C1720 1.502 . S
C1719 C1721 1.561 . S
C1719 C1722 1.526 . S
C1720 H1704 0.959 . S
C1720 H1705 0.959 . S
C1720 H1706 0.961 . S
C1720 C1719 1.502 . S
C1721 H1707 0.960 . S
C1721 H1708 0.961 . S
C1721 H1709 0.959 . S
C1721 C1719 1.561 . S
C1722 C1719 1.526 . S
C1722 C1723 1.396 . S
C1722 C1727 1.390 . S
C1723 C1717 1.465 . S
C1723 C1722 1.396 . S
C1723 C1724 1.399 . S
C1724 H1710 0.929 . S
C1724 C1723 1.399 . S
C1724 C1725 1.385 . S
C1725 H1711 0.931 . S
C1725 C1724 1.385 . S
C1725 C1726 1.389 . S
C1726 C1725 1.389 . S
C1726 C1727 1.387 . S
C1727 H1712 0.930 . S
C1727 C1722 1.390 . S
C1727 C1726 1.387 . S
H1728 C1740 0.930 . S
H1729 C1742 0.930 . S
H1730 C1743 0.930 . S
H1731 C1747 0.959 . S
H1732 C1747 0.959 . S
H1733 C1747 0.961 . S
H1734 C1748 0.960 . S
H1735 C1748 0.961 . S
H1736 C1748 0.959 . S
H1737 C1751 0.929 . S
H1738 C1752 0.931 . S
H1739 C1754 0.930 . S
C1740 H1728 0.930 . S
C1740 C1741 1.399 . S
C1740 C1745 1.399 . S
C1741 C1740 1.399 . S
C1741 C1742 1.376 . S
C1742 H1729 0.930 . S
C1742 C1741 1.376 . S
C1742 C1743 1.388 . S
C1743 H1730 0.930 . S
C1743 C1742 1.388 . S
C1743 C1744 1.390 . S
C1744 C1743 1.390 . S
C1744 C1745 1.394 . S
C1744 C1750 1.465 . S
C1745 C1740 1.399 . S
C1745 C1744 1.394 . S
C1745 C1746 1.516 . S
C1746 C1745 1.516 . S
C1746 C1747 1.502 . S
C1746 C1748 1.561 . S
C1746 C1749 1.526 . S
C1747 H1731 0.959 . S
C1747 H1732 0.959 . S
C1747 H1733 0.961 . S
C1747 C1746 1.502 . S
C1748 H1734 0.960 . S
C1748 H1735 0.961 . S
C1748 H1736 0.959 . S
C1748 C1746 1.561 . S
C1749 C1746 1.526 . S
C1749 C1750 1.396 . S
C1749 C1754 1.390 . S
C1750 C1744 1.465 . S
C1750 C1749 1.396 . S
C1750 C1751 1.399 . S
C1751 H1737 0.929 . S
C1751 C1750 1.399 . S
C1751 C1752 1.385 . S
C1752 H1738 0.931 . S
C1752 C1751 1.385 . S
C1752 C1753 1.389 . S
C1753 C1752 1.389 . S
C1753 C1754 1.387 . S
C1754 H1739 0.930 . S
C1754 C1749 1.390 . S
C1754 C1753 1.387 . S
H1755 C1767 0.930 . S
H1756 C1769 0.930 . S
H1757 C1770 0.930 . S
H1758 C1774 0.959 . S
H1759 C1774 0.959 . S
H1760 C1774 0.961 . S
H1761 C1775 0.960 . S
H1762 C1775 0.961 . S
H1763 C1775 0.959 . S
H1764 C1778 0.929 . S
H1765 C1779 0.931 . S
H1766 C1781 0.930 . S
C1767 H1755 0.930 . S
C1767 C1768 1.399 . S
C1767 C1772 1.399 . S
C1768 C1767 1.399 . S
C1768 C1769 1.376 . S
C1769 H1756 0.930 . S
C1769 C1768 1.376 . S
C1769 C1770 1.388 . S
C1770 H1757 0.930 . S
C1770 C1769 1.388 . S
C1770 C1771 1.390 . S
C1771 C1770 1.390 . S
C1771 C1772 1.394 . S
C1771 C1777 1.465 . S
C1772 C1767 1.399 . S
C1772 C1771 1.394 . S
C1772 C1773 1.516 . S
C1773 C1772 1.516 . S
C1773 C1774 1.502 . S
C1773 C1775 1.561 . S
C1773 C1776 1.526 . S
C1774 H1758 0.959 . S
C1774 H1759 0.959 . S
C1774 H1760 0.961 . S
C1774 C1773 1.502 . S
C1775 H1761 0.960 . S
C1775 H1762 0.961 . S
C1775 H1763 0.959 . S
C1775 C1773 1.561 . S
C1776 C1773 1.526 . S
C1776 C1777 1.396 . S
C1776 C1781 1.390 . S
C1777 C1771 1.465 . S
C1777 C1776 1.396 . S
C1777 C1778 1.399 . S
C1778 H1764 0.929 . S
C1778 C1777 1.399 . S
C1778 C1779 1.385 . S
C1779 H1765 0.931 . S
C1779 C1778 1.385 . S
C1779 C1780 1.389 . S
C1780 C1779 1.389 . S
C1780 C1781 1.387 . S
C1781 H1766 0.930 . S
C1781 C1776 1.390 . S
C1781 C1780 1.387 . S
H1782 C1794 0.930 . S
H1783 C1796 0.930 . S
H1784 C1797 0.930 . S
H1785 C1801 0.959 . S
H1786 C1801 0.959 . S
H1787 C1801 0.961 . S
H1788 C1802 0.960 . S
H1789 C1802 0.961 . S
H1790 C1802 0.959 . S
H1791 C1805 0.929 . S
H1792 C1806 0.931 . S
H1793 C1808 0.930 . S
C1794 H1782 0.930 . S
C1794 C1795 1.399 . S
C1794 C1799 1.399 . S
C1795 C1794 1.399 . S
C1795 C1796 1.376 . S
C1796 H1783 0.930 . S
C1796 C1795 1.376 . S
C1796 C1797 1.388 . S
C1797 H1784 0.930 . S
C1797 C1796 1.388 . S
C1797 C1798 1.390 . S
C1798 C1797 1.390 . S
C1798 C1799 1.394 . S
C1798 C1804 1.465 . S
C1799 C1794 1.399 . S
C1799 C1798 1.394 . S
C1799 C1800 1.516 . S
C1800 C1799 1.516 . S
C1800 C1801 1.502 . S
C1800 C1802 1.561 . S
C1800 C1803 1.526 . S
C1801 H1785 0.959 . S
C1801 H1786 0.959 . S
C1801 H1787 0.961 . S
C1801 C1800 1.502 . S
C1802 H1788 0.960 . S
C1802 H1789 0.961 . S
C1802 H1790 0.959 . S
C1802 C1800 1.561 . S
C1803 C1800 1.526 . S
C1803 C1804 1.396 . S
C1803 C1808 1.390 . S
C1804 C1798 1.465 . S
C1804 C1803 1.396 . S
C1804 C1805 1.399 . S
C1805 H1791 0.929 . S
C1805 C1804 1.399 . S
C1805 C1806 1.385 . S
C1806 H1792 0.931 . S
C1806 C1805 1.385 . S
C1806 C1807 1.389 . S
C1807 C1806 1.389 . S
C1807 C1808 1.387 . S
C1808 H1793 0.930 . S
C1808 C1803 1.390 . S
C1808 C1807 1.387 . S
H1809 C1821 0.930 . S
H1810 C1823 0.930 . S
H1811 C1824 0.930 . S
H1812 C1828 0.959 . S
H1813 C1828 0.959 . S
H1814 C1828 0.961 . S
H1815 C1829 0.960 . S
H1816 C1829 0.961 . S
H1817 C1829 0.959 . S
H1818 C1832 0.929 . S
H1819 C1833 0.931 . S
H1820 C1835 0.930 . S
C1821 H1809 0.930 . S
C1821 C1822 1.399 . S
C1821 C1826 1.399 . S
C1822 C1821 1.399 . S
C1822 C1823 1.376 . S
C1823 H1810 0.930 . S
C1823 C1822 1.376 . S
C1823 C1824 1.388 . S
C1824 H1811 0.930 . S
C1824 C1823 1.388 . S
C1824 C1825 1.390 . S
C1825 C1824 1.390 . S
C1825 C1826 1.394 . S
C1825 C1831 1.465 . S
C1826 C1821 1.399 . S
C1826 C1825 1.394 . S
C1826 C1827 1.516 . S
C1827 C1826 1.516 . S
C1827 C1828 1.502 . S
C1827 C1829 1.561 . S
C1827 C1830 1.526 . S
C1828 H1812 0.959 . S
C1828 H1813 0.959 . S
C1828 H1814 0.961 . S
C1828 C1827 1.502 . S
C1829 H1815 0.960 . S
C1829 H1816 0.961 . S
C1829 H1817 0.959 . S
C1829 C1827 1.561 . S
C1830 C1827 1.526 . S
C1830 C1831 1.396 . S
C1830 C1835 1.390 . S
C1831 C1825 1.465 . S
C1831 C1830 1.396 . S
C1831 C1832 1.399 . S
C1832 H1818 0.929 . S
C1832 C1831 1.399 . S
C1832 C1833 1.385 . S
C1833 H1819 0.931 . S
C1833 C1832 1.385 . S
C1833 C1834 1.389 . S
C1834 C1833 1.389 . S
C1834 C1835 1.387 . S
C1835 H1820 0.930 . S
C1835 C1830 1.390 . S
C1835 C1834 1.387 . S
H1836 C1848 0.930 . S
H1837 C1850 0.930 . S
H1838 C1851 0.930 . S
H1839 C1855 0.959 . S
H1840 C1855 0.959 . S
H1841 C1855 0.961 . S
H1842 C1856 0.960 . S
H1843 C1856 0.961 . S
H1844 C1856 0.959 . S
H1845 C1859 0.929 . S
H1846 C1860 0.931 . S
H1847 C1862 0.930 . S
C1848 H1836 0.930 . S
C1848 C1849 1.399 . S
C1848 C1853 1.399 . S
C1849 C1848 1.399 . S
C1849 C1850 1.376 . S
C1850 H1837 0.930 . S
C1850 C1849 1.376 . S
C1850 C1851 1.388 . S
C1851 H1838 0.930 . S
C1851 C1850 1.388 . S
C1851 C1852 1.390 . S
C1852 C1851 1.390 . S
C1852 C1853 1.394 . S
C1852 C1858 1.465 . S
C1853 C1848 1.399 . S
C1853 C1852 1.394 . S
C1853 C1854 1.516 . S
C1854 C1853 1.516 . S
C1854 C1855 1.502 . S
C1854 C1856 1.561 . S
C1854 C1857 1.526 . S
C1855 H1839 0.959 . S
C1855 H1840 0.959 . S
C1855 H1841 0.961 . S
C1855 C1854 1.502 . S
C1856 H1842 0.960 . S
C1856 H1843 0.961 . S
C1856 H1844 0.959 . S
C1856 C1854 1.561 . S
C1857 C1854 1.526 . S
C1857 C1858 1.396 . S
C1857 C1862 1.390 . S
C1858 C1852 1.465 . S
C1858 C1857 1.396 . S
C1858 C1859 1.399 . S
C1859 H1845 0.929 . S
C1859 C1858 1.399 . S
C1859 C1860 1.385 . S
C1860 H1846 0.931 . S
C1860 C1859 1.385 . S
C1860 C1861 1.389 . S
C1861 C1860 1.389 . S
C1861 C1862 1.387 . S
C1862 H1847 0.930 . S
C1862 C1857 1.390 . S
C1862 C1861 1.387 . S
H1863 C1875 0.930 . S
H1864 C1877 0.930 . S
H1865 C1878 0.930 . S
H1866 C1882 0.959 . S
H1867 C1882 0.959 . S
H1868 C1882 0.961 . S
H1869 C1883 0.960 . S
H1870 C1883 0.961 . S
H1871 C1883 0.959 . S
H1872 C1886 0.929 . S
H1873 C1887 0.931 . S
H1874 C1889 0.930 . S
C1875 H1863 0.930 . S
C1875 C1876 1.399 . S
C1875 C1880 1.399 . S
C1876 C1875 1.399 . S
C1876 C1877 1.376 . S
C1877 H1864 0.930 . S
C1877 C1876 1.376 . S
C1877 C1878 1.388 . S
C1878 H1865 0.930 . S
C1878 C1877 1.388 . S
C1878 C1879 1.390 . S
C1879 C1878 1.390 . S
C1879 C1880 1.394 . S
C1879 C1885 1.465 . S
C1880 C1875 1.399 . S
C1880 C1879 1.394 . S
C1880 C1881 1.516 . S
C1881 C1880 1.516 . S
C1881 C1882 1.502 . S
C1881 C1883 1.561 . S
C1881 C1884 1.526 . S
C1882 H1866 0.959 . S
C1882 H1867 0.959 . S
C1882 H1868 0.961 . S
C1882 C1881 1.502 . S
C1883 H1869 0.960 . S
C1883 H1870 0.961 . S
C1883 H1871 0.959 . S
C1883 C1881 1.561 . S
C1884 C1881 1.526 . S
C1884 C1885 1.396 . S
C1884 C1889 1.390 . S
C1885 C1879 1.465 . S
C1885 C1884 1.396 . S
C1885 C1886 1.399 . S
C1886 H1872 0.929 . S
C1886 C1885 1.399 . S
C1886 C1887 1.385 . S
C1887 H1873 0.931 . S
C1887 C1886 1.385 . S
C1887 C1888 1.389 . S
C1888 C1887 1.389 . S
C1888 C1889 1.387 . S
C1889 H1874 0.930 . S
C1889 C1884 1.390 . S
C1889 C1888 1.387 . S
H1890 C1902 0.930 . S
H1891 C1904 0.930 . S
H1892 C1905 0.930 . S
H1893 C1909 0.959 . S
H1894 C1909 0.959 . S
H1895 C1909 0.961 . S
H1896 C1910 0.960 . S
H1897 C1910 0.961 . S
H1898 C1910 0.959 . S
H1899 C1913 0.929 . S
H1900 C1914 0.931 . S
H1901 C1916 0.930 . S
C1902 H1890 0.930 . S
C1902 C1903 1.399 . S
C1902 C1907 1.399 . S
C1903 C1902 1.399 . S
C1903 C1904 1.376 . S
C1904 H1891 0.930 . S
C1904 C1903 1.376 . S
C1904 C1905 1.388 . S
C1905 H1892 0.930 . S
C1905 C1904 1.388 . S
C1905 C1906 1.390 . S
C1906 C1905 1.390 . S
C1906 C1907 1.394 . S
C1906 C1912 1.465 . S
C1907 C1902 1.399 . S
C1907 C1906 1.394 . S
C1907 C1908 1.516 . S
C1908 C1907 1.516 . S
C1908 C1909 1.502 . S
C1908 C1910 1.561 . S
C1908 C1911 1.526 . S
C1909 H1893 0.959 . S
C1909 H1894 0.959 . S
C1909 H1895 0.961 . S
C1909 C1908 1.502 . S
C1910 H1896 0.960 . S
C1910 H1897 0.961 . S
C1910 H1898 0.959 . S
C1910 C1908 1.561 . S
C1911 C1908 1.526 . S
C1911 C1912 1.396 . S
C1911 C1916 1.390 . S
C1912 C1906 1.465 . S
C1912 C1911 1.396 . S
C1912 C1913 1.399 . S
C1913 H1899 0.929 . S
C1913 C1912 1.399 . S
C1913 C1914 1.385 . S
C1914 H1900 0.931 . S
C1914 C1913 1.385 . S
C1914 C1915 1.389 . S
C1915 C1914 1.389 . S
C1915 C1916 1.387 . S
C1916 H1901 0.930 . S
C1916 C1911 1.390 . S
C1916 C1915 1.387 . S
H1917 C1929 0.930 . S
H1918 C1931 0.930 . S
H1919 C1932 0.930 . S
H1920 C1936 0.959 . S
H1921 C1936 0.959 . S
H1922 C1936 0.961 . S
H1923 C1937 0.960 . S
H1924 C1937 0.961 . S
H1925 C1937 0.959 . S
H1926 C1940 0.929 . S
H1927 C1941 0.931 . S
H1928 C1943 0.930 . S
C1929 H1917 0.930 . S
C1929 C1930 1.399 . S
C1929 C1934 1.399 . S
C1930 C1929 1.399 . S
C1930 C1931 1.376 . S
C1931 H1918 0.930 . S
C1931 C1930 1.376 . S
C1931 C1932 1.388 . S
C1932 H1919 0.930 . S
C1932 C1931 1.388 . S
C1932 C1933 1.390 . S
C1933 C1932 1.390 . S
C1933 C1934 1.394 . S
C1933 C1939 1.465 . S
C1934 C1929 1.399 . S
C1934 C1933 1.394 . S
C1934 C1935 1.516 . S
C1935 C1934 1.516 . S
C1935 C1936 1.502 . S
C1935 C1937 1.561 . S
C1935 C1938 1.526 . S
C1936 H1920 0.959 . S
C1936 H1921 0.959 . S
C1936 H1922 0.961 . S
C1936 C1935 1.502 . S
C1937 H1923 0.960 . S
C1937 H1924 0.961 . S
C1937 H1925 0.959 . S
C1937 C1935 1.561 . S
C1938 C1935 1.526 . S
C1938 C1939 1.396 . S
C1938 C1943 1.390 . S
C1939 C1933 1.465 . S
C1939 C1938 1.396 . S
C1939 C1940 1.399 . S
C1940 H1926 0.929 . S
C1940 C1939 1.399 . S
C1940 C1941 1.385 . S
C1941 H1927 0.931 . S
C1941 C1940 1.385 . S
C1941 C1942 1.389 . S
C1942 C1941 1.389 . S
C1942 C1943 1.387 . S
C1943 H1928 0.930 . S
C1943 C1938 1.390 . S
C1943 C1942 1.387 . S
H1944 C1956 0.930 . S
H1945 C1958 0.930 . S
H1946 C1959 0.930 . S
H1947 C1963 0.959 . S
H1948 C1963 0.959 . S
H1949 C1963 0.961 . S
H1950 C1964 0.960 . S
H1951 C1964 0.961 . S
H1952 C1964 0.959 . S
H1953 C1967 0.929 . S
H1954 C1968 0.931 . S
H1955 C1970 0.930 . S
C1956 H1944 0.930 . S
C1956 C1957 1.399 . S
C1956 C1961 1.399 . S
C1957 C1956 1.399 . S
C1957 C1958 1.376 . S
C1958 H1945 0.930 . S
C1958 C1957 1.376 . S
C1958 C1959 1.388 . S
C1959 H1946 0.930 . S
C1959 C1958 1.388 . S
C1959 C1960 1.390 . S
C1960 C1959 1.390 . S
C1960 C1961 1.394 . S
C1960 C1966 1.465 . S
C1961 C1956 1.399 . S
C1961 C1960 1.394 . S
C1961 C1962 1.516 . S
C1962 C1961 1.516 . S
C1962 C1963 1.502 . S
C1962 C1964 1.561 . S
C1962 C1965 1.526 . S
C1963 H1947 0.959 . S
C1963 H1948 0.959 . S
C1963 H1949 0.961 . S
C1963 C1962 1.502 . S
C1964 H1950 0.960 . S
C1964 H1951 0.961 . S
C1964 H1952 0.959 . S
C1964 C1962 1.561 . S
C1965 C1962 1.526 . S
C1965 C1966 1.396 . S
C1965 C1970 1.390 . S
C1966 C1960 1.465 . S
C1966 C1965 1.396 . S
C1966 C1967 1.399 . S
C1967 H1953 0.929 . S
C1967 C1966 1.399 . S
C1967 C1968 1.385 . S
C1968 H1954 0.931 . S
C1968 C1967 1.385 . S
C1968 C1969 1.389 . S
C1969 C1968 1.389 . S
C1969 C1970 1.387 . S
C1970 H1955 0.930 . S
C1970 C1965 1.390 . S
C1970 C1969 1.387 . S
H1971 C1983 0.930 . S
H1972 C1985 0.930 . S
H1973 C1986 0.930 . S
H1974 C1990 0.959 . S
H1975 C1990 0.959 . S
H1976 C1990 0.961 . S
H1977 C1991 0.960 . S
H1978 C1991 0.961 . S
H1979 C1991 0.959 . S
H1980 C1994 0.929 . S
H1981 C1995 0.931 . S
H1982 C1997 0.930 . S
C1983 H1971 0.930 . S
C1983 C1984 1.399 . S
C1983 C1988 1.399 . S
C1984 C1983 1.399 . S
C1984 C1985 1.376 . S
C1985 H1972 0.930 . S
C1985 C1984 1.376 . S
C1985 C1986 1.388 . S
C1986 H1973 0.930 . S
C1986 C1985 1.388 . S
C1986 C1987 1.390 . S
C1987 C1986 1.390 . S
C1987 C1988 1.394 . S
C1987 C1993 1.465 . S
C1988 C1983 1.399 . S
C1988 C1987 1.394 . S
C1988 C1989 1.516 . S
C1989 C1988 1.516 . S
C1989 C1990 1.502 . S
C1989 C1991 1.561 . S
C1989 C1992 1.526 . S
C1990 H1974 0.959 . S
C1990 H1975 0.959 . S
C1990 H1976 0.961 . S
C1990 C1989 1.502 . S
C1991 H1977 0.960 . S
C1991 H1978 0.961 . S
C1991 H1979 0.959 . S
C1991 C1989 1.561 . S
C1992 C1989 1.526 . S
C1992 C1993 1.396 . S
C1992 C1997 1.390 . S
C1993 C1987 1.465 . S
C1993 C1992 1.396 . S
C1993 C1994 1.399 . S
C1994 H1980 0.929 . S
C1994 C1993 1.399 . S
C1994 C1995 1.385 . S
C1995 H1981 0.931 . S
C1995 C1994 1.385 . S
C1995 C1996 1.389 . S
C1996 C1995 1.389 . S
C1996 C1997 1.387 . S
C1997 H1982 0.930 . S
C1997 C1992 1.390 . S
C1997 C1996 1.387 . S
H1998 C2010 0.930 . S
H1999 C2012 0.930 . S
H2000 C2013 0.930 . S
H2001 C2017 0.959 . S
H2002 C2017 0.959 . S
H2003 C2017 0.961 . S
H2004 C2018 0.960 . S
H2005 C2018 0.961 . S
H2006 C2018 0.959 . S
H2007 C2021 0.929 . S
H2008 C2022 0.931 . S
H2009 C2024 0.930 . S
C2010 H1998 0.930 . S
C2010 C2011 1.399 . S
C2010 C2015 1.399 . S
C2011 C2010 1.399 . S
C2011 C2012 1.376 . S
C2012 H1999 0.930 . S
C2012 C2011 1.376 . S
C2012 C2013 1.388 . S
C2013 H2000 0.930 . S
C2013 C2012 1.388 . S
C2013 C2014 1.390 . S
C2014 C2013 1.390 . S
C2014 C2015 1.394 . S
C2014 C2020 1.465 . S
C2015 C2010 1.399 . S
C2015 C2014 1.394 . S
C2015 C2016 1.516 . S
C2016 C2015 1.516 . S
C2016 C2017 1.502 . S
C2016 C2018 1.561 . S
C2016 C2019 1.526 . S
C2017 H2001 0.959 . S
C2017 H2002 0.959 . S
C2017 H2003 0.961 . S
C2017 C2016 1.502 . S
C2018 H2004 0.960 . S
C2018 H2005 0.961 . S
C2018 H2006 0.959 . S
C2018 C2016 1.561 . S
C2019 C2016 1.526 . S
C2019 C2020 1.396 . S
C2019 C2024 1.390 . S
C2020 C2014 1.465 . S
C2020 C2019 1.396 . S
C2020 C2021 1.399 . S
C2021 H2007 0.929 . S
C2021 C2020 1.399 . S
C2021 C2022 1.385 . S
C2022 H2008 0.931 . S
C2022 C2021 1.385 . S
C2022 C2023 1.389 . S
C2023 C2022 1.389 . S
C2023 C2024 1.387 . S
C2024 H2009 0.930 . S
C2024 C2019 1.390 . S
C2024 C2023 1.387 . S
H2025 C2037 0.930 . S
H2026 C2039 0.930 . S
H2027 C2040 0.930 . S
H2028 C2044 0.959 . S
H2029 C2044 0.959 . S
H2030 C2044 0.961 . S
H2031 C2045 0.960 . S
H2032 C2045 0.961 . S
H2033 C2045 0.959 . S
H2034 C2048 0.929 . S
H2035 C2049 0.931 . S
H2036 C2051 0.930 . S
C2037 H2025 0.930 . S
C2037 C2038 1.399 . S
C2037 C2042 1.399 . S
C2038 C2037 1.399 . S
C2038 C2039 1.376 . S
C2039 H2026 0.930 . S
C2039 C2038 1.376 . S
C2039 C2040 1.388 . S
C2040 H2027 0.930 . S
C2040 C2039 1.388 . S
C2040 C2041 1.390 . S
C2041 C2040 1.390 . S
C2041 C2042 1.394 . S
C2041 C2047 1.465 . S
C2042 C2037 1.399 . S
C2042 C2041 1.394 . S
C2042 C2043 1.516 . S
C2043 C2042 1.516 . S
C2043 C2044 1.502 . S
C2043 C2045 1.561 . S
C2043 C2046 1.526 . S
C2044 H2028 0.959 . S
C2044 H2029 0.959 . S
C2044 H2030 0.961 . S
C2044 C2043 1.502 . S
C2045 H2031 0.960 . S
C2045 H2032 0.961 . S
C2045 H2033 0.959 . S
C2045 C2043 1.561 . S
C2046 C2043 1.526 . S
C2046 C2047 1.396 . S
C2046 C2051 1.390 . S
C2047 C2041 1.465 . S
C2047 C2046 1.396 . S
C2047 C2048 1.399 . S
C2048 H2034 0.929 . S
C2048 C2047 1.399 . S
C2048 C2049 1.385 . S
C2049 H2035 0.931 . S
C2049 C2048 1.385 . S
C2049 C2050 1.389 . S
C2050 C2049 1.389 . S
C2050 C2051 1.387 . S
C2051 H2036 0.930 . S
C2051 C2046 1.390 . S
C2051 C2050 1.387 . S
C607 C177 1.650 . S
C619 C243 1.650 . S
C634 C190 1.760 . S
C646 C283 1.777 . S
C661 C164 1.599 . S
C673 C322 1.523 . S
C688 C151 1.474 . S
C700 C282 1.396 1_556 S
C727 C323 1.480 . S
C715 C125 1.501 . S
C742 C138 1.350 . S
C754 C242 1.374 1_556 S
C781 C253 1.648 . S
C769 C147 1.613 . S
C808 C293 1.604 . S
C796 C121 1.597 . S
C823 C134 1.568 . S
C835 C332 1.686 1_556 S
C850 C173 1.448 . S
C862 C292 1.521 . S
C877 C186 1.424 . S
C889 C333 1.403 . S
C916 C252 1.494 . S
C904 C160 1.412 . S
C943 C363 1.652 . S
C931 C21 1.648 . S
C958 C34 1.775 . S
C970 C403 1.756 . S
C985 C8 1.612 . S
C997 C442 1.560 . S
C1012 C229 1.472 . S
C1024 C402 1.396 . S
C1039 C203 1.490 . S
C1051 C443 1.501 . S
C1066 C216 1.350 . S
C1078 C362 1.373 . S
C1093 C225 1.634 . S
C1105 C373 1.597 . S
C1120 C199 1.612 . S
C1132 C413 1.660 . S
C1159 C452 1.654 . S
C1147 C212 1.625 . S
C1174 C17 1.454 . S
C1186 C412 1.518 . S
C1213 C453 1.405 . S
C1201 C30 1.404 . S
C1228 C4 1.407 . S
C1240 C372 1.495 . S
C1267 C483 1.656 . S
C1255 C99 1.643 . S
C1282 C112 1.779 . S
C1294 C523 1.750 . S
C1321 C562 1.593 . S
C1309 C86 1.581 . S
C1348 C522 1.473 . S
C1336 C73 1.467 . S
C1375 C563 1.483 . S
C1363 C47 1.499 . S
C1390 C60 1.333 . S
C1402 C482 1.346 . S
C1417 C69 1.654 . S
C1429 C493 1.630 . S
C1444 C43 1.597 . S
C1456 C533 1.604 . S
C1483 C572 1.640 . S
C1471 C56 1.642 . S
C1498 C95 1.477 . S
C1510 C532 1.476 . S
C1525 C108 1.443 . S
C1537 C573 1.464 . S
C1552 C82 1.456 . S
C1564 C492 1.469 . S
C1579 C204 1.500 . S
C1591 C239 1.478 . S
C1618 C279 1.933 . S
C1606 C217 1.893 . S
C1633 C230 1.535 . S
C1645 C329 1.577 . S
C1660 C87 1.775 . S
C1672 C289 1.762 . S
C1687 C100 1.681 . S
C1699 C319 1.656 . S
C1726 C249 1.315 . S
C1714 C113 1.329 . S
C1741 C48 1.474 . S
C1753 C359 1.504 . S
C1768 C61 1.932 . S
C1780 C399 1.895 . S
C1795 C74 1.535 . S
C1807 C449 1.577 . S
C1822 C165 1.747 . S
C1834 C409 1.782 . S
C1861 C439 1.656 . S
C1849 C178 1.681 . S
C1876 C191 1.326 . S
C1888 C369 1.313 . S
C1903 C126 1.477 . S
C1915 C479 1.500 . S
C1930 C139 1.933 . S
C1942 C519 1.894 . S
C1969 C569 1.571 . S
C1957 C152 1.546 . S
C1984 C9 1.774 . S
C1996 C529 1.761 . S
C2011 C22 1.650 . S
C2023 C559 1.685 . S
C2038 C35 1.323 . S
C2050 C489 1.313 . S
