# Generated by pormake.
# Topology rtl, (3,6)-cn, num edge types: 1
# Building blocks:
#     Node 0, Type 0, BuildingBlock: QEWDON_clean_linker_0, # of connection points: 3
#     Node 1, Type 0, BuildingBlock: QEWDON_clean_linker_0, # of connection points: 3
#     Node 2, Type 0, BuildingBlock: QEWDON_clean_linker_0, # of connection points: 3
#     Node 3, Type 0, BuildingBlock: QEWDON_clean_linker_0, # of connection points: 3
#     Node 4, Type 1, BuildingBlock: CIFDUS_clean_sbu_1, # of connection points: 6
#     Node 5, Type 1, BuildingBlock: CIFDUS_clean_sbu_1, # of connection points: 6
#     Edge 6, Type (0, 1), BuildingBlock: XIVTED_clean_linker_0, # of connection points: 2
#     Edge 7, Type (0, 1), BuildingBlock: XIVTED_clean_linker_0, # of connection points: 2
#     Edge 8, Type (0, 1), BuildingBlock: XIVTED_clean_linker_0, # of connection points: 2
#     Edge 9, Type (0, 1), BuildingBlock: XIVTED_clean_linker_0, # of connection points: 2
#     Edge 10, Type (0, 1), BuildingBlock: XIVTED_clean_linker_0, # of connection points: 2
#     Edge 11, Type (0, 1), BuildingBlock: XIVTED_clean_linker_0, # of connection points: 2
#     Edge 12, Type (0, 1), BuildingBlock: XIVTED_clean_linker_0, # of connection points: 2
#     Edge 13, Type (0, 1), BuildingBlock: XIVTED_clean_linker_0, # of connection points: 2
#     Edge 14, Type (0, 1), BuildingBlock: XIVTED_clean_linker_0, # of connection points: 2
#     Edge 15, Type (0, 1), BuildingBlock: XIVTED_clean_linker_0, # of connection points: 2
#     Edge 16, Type (0, 1), BuildingBlock: XIVTED_clean_linker_0, # of connection points: 2
#     Edge 17, Type (0, 1), BuildingBlock: XIVTED_clean_linker_0, # of connection points: 2
# Relax obj value: 0.037
# Max RMSD: 0.172
# Mean RMSD: 0.135
data_MOF--net-rtl--node1-CIFDUS_clean_sbu_1--node2-QEWDON_clean_linker_0--edge1-XIVTED_clean_linker_0
_symmetry_space_group_name_H-M    P1
_symmetry_Int_Tables_number       1
_symmetry_cell_setting            triclinic
loop_
_symmetry_equiv_pos_as_xyz
'x, y, z'
_cell_length_a     38.022317
_cell_length_b     37.90792
_cell_length_c     21.82389
_cell_angle_alpha  91.538282
_cell_angle_beta   99.271466
_cell_angle_gamma 89.770843
loop_
_atom_site_label
_atom_site_type_symbol
_atom_site_fract_x
_atom_site_fract_y
_atom_site_fract_z
_atom_type_partial_charge
H0 H 0.2277 0.86005 0.18306 0.0
C1 C 0.21263 0.86389 0.13715 0.0
C2 C 0.18025 0.88265 0.13073 0.0
C3 C 0.22731 0.85305 0.08449 0.0
H4 H 0.13733 0.90422 0.06589 0.0
C5 C 0.16193 0.88925 0.07081 0.0
C6 C 0.17592 0.87849 0.01743 0.0
C7 C 0.20879 0.86043 0.02491 0.0
C8 C 0.26534 0.8423 0.0917 0.0
H9 H 0.22079 0.8533 0.9845 0.0
C10 C 0.27705 0.8073 0.10411 0.0
C11 C 0.31391 0.79886 0.11082 0.0
C12 C 0.29045 0.8685 0.08608 0.0
H13 H 0.28201 0.89543 0.07663 0.0
C14 C 0.32654 0.8604 0.09256 0.0
H15 H 0.25772 0.787 0.10854 0.0
C16 C 0.33819 0.82603 0.10458 0.0
H17 H 0.3664 0.82065 0.10755 0.0
H18 H 0.34562 0.88086 0.08773 0.0
H19 H 0.72523 0.70717 0.51876 0.0
C20 C 0.71177 0.70224 0.55781 0.0
C21 C 0.67829 0.68482 0.54804 0.0
C22 C 0.72939 0.71037 0.61878 0.0
H23 H 0.6367 0.66431 0.59448 0.0
C24 C 0.66263 0.67682 0.60036 0.0
C25 C 0.68022 0.68349 0.66093 0.0
C26 C 0.71301 0.70116 0.6698 0.0
C27 C 0.76788 0.7205 0.63138 0.0
H28 H 0.72712 0.70548 0.71669 0.0
C29 C 0.78124 0.75342 0.61541 0.0
C30 C 0.81799 0.76202 0.63345 0.0
C31 C 0.79156 0.69643 0.66405 0.0
H32 H 0.78216 0.67105 0.67649 0.0
C33 C 0.82728 0.70482 0.68225 0.0
H34 H 0.76324 0.77207 0.58988 0.0
C35 C 0.84028 0.73727 0.66789 0.0
H36 H 0.86806 0.74304 0.68482 0.0
H37 H 0.84498 0.68617 0.70839 0.0
H38 H 0.78157 0.19962 0.07126 0.0
C39 C 0.79467 0.19546 0.03109 0.0
C40 C 0.82793 0.17794 0.0376 0.0
C41 C 0.7767 0.20433 0.97154 0.0
H42 H 0.8687 0.15719 0.9881 0.0
C43 C 0.84315 0.17049 0.984 0.0
C44 C 0.82528 0.17815 0.92464 0.0
C45 C 0.79255 0.1959 0.91884 0.0
C46 C 0.73805 0.21308 0.96129 0.0
H47 H 0.77792 0.20056 0.87286 0.0
C48 C 0.72453 0.24734 0.97111 0.0
C49 C 0.68744 0.25438 0.95483 0.0
C50 C 0.71442 0.18618 0.93608 0.0
H51 H 0.7242 0.15984 0.92797 0.0
C52 C 0.67827 0.19297 0.91951 0.0
H53 H 0.74269 0.26813 0.99077 0.0
C54 C 0.66494 0.22665 0.92804 0.0
H55 H 0.63679 0.23095 0.91254 0.0
H56 H 0.66048 0.17207 0.89906 0.0
H57 H 0.33571 0.3044 0.5827 0.0
C58 C 0.33877 0.32078 0.54395 0.0
C59 C 0.35422 0.35461 0.55518 0.0
C60 C 0.32877 0.30756 0.48259 0.0
H61 H 0.37302 0.40029 0.5138 0.0
C62 C 0.35979 0.37498 0.50464 0.0
C63 C 0.35091 0.36199 0.44309 0.0
C64 C 0.33479 0.32848 0.4328 0.0
C65 C 0.31897 0.26973 0.46941 0.0
H66 H 0.32801 0.31786 0.38579 0.0
C67 C 0.28602 0.25504 0.4789 0.0
C68 C 0.27767 0.21916 0.46172 0.0
C69 C 0.34324 0.24834 0.44343 0.0
H70 H 0.36854 0.25894 0.43567 0.0
C71 C 0.33518 0.21334 0.42645 0.0
H72 H 0.26715 0.27138 0.49894 0.0
C73 C 0.30277 0.19896 0.43499 0.0
H74 H 0.29719 0.17189 0.41948 0.0
H75 H 0.35406 0.19732 0.40585 0.0
O76 O 0.97951 0.06108 0.45413 0.0
Mn77 Mn 1.00477 0.03143 0.53011 0.0
O78 O 0.95103 0.02164 0.38547 0.0
Mn79 Mn 0.96705 0.98274 0.43052 0.0
O80 O 0.03019 1.00197 0.60598 0.0
O81 O 0.04178 0.07221 0.54879 0.0
Mn82 Mn 0.04229 0.08031 0.62968 0.0
O83 O 0.96884 0.05479 0.58436 0.0
O84 O 0.06072 0.04129 0.67248 0.0
O85 O 0.04051 0.00798 0.47544 0.0
O86 O 0.01037 0.96494 0.41778 0.0
O87 O 0.0734 0.11224 0.61076 0.0
O88 O 0.99891 0.09701 0.6441 0.0
C89 C 0.94406 0.96509 0.50449 0.0
C90 C 0.95948 0.05323 0.40215 0.0
C91 C 0.05204 0.00969 0.65604 0.0
C92 C 0.0656 0.09772 0.55586 0.0
C93 C 0.97005 0.08122 0.62293 0.0
C94 C 0.03923 0.98108 0.4378 0.0
O95 O 0.9677 0.99077 0.51143 0.0
O96 O 0.93469 0.95194 0.44886 0.0
O97 O 0.52939 0.5659 0.12015 0.0
Mn98 Mn 0.50604 0.53103 0.04684 0.0
O99 O 0.56861 0.53459 0.1846 0.0
Mn100 Mn 0.55178 0.49206 0.1495 0.0
O101 O 0.4819 0.49665 0.97298 0.0
O102 O 0.46638 0.56861 0.02735 0.0
Mn103 Mn 0.46372 0.57322 0.94584 0.0
O104 O 0.53933 0.5545 0.9898 0.0
O105 O 0.44816 0.53153 0.90573 0.0
O106 O 0.47364 0.50717 0.10467 0.0
O107 O 0.5105 0.47515 0.1726 0.0
O108 O 0.4303 0.60339 0.96534 0.0
O109 O 0.50544 0.59216 0.92891 0.0
C110 C 0.57041 0.46918 0.07239 0.0
C111 C 0.55435 0.5637 0.16746 0.0
C112 C 0.45902 0.50114 0.92323 0.0
C113 C 0.44102 0.59251 0.021 0.0
C114 C 0.53563 0.57925 0.94996 0.0
C115 C 0.47941 0.48534 0.14951 0.0
O116 O 0.54556 0.49354 0.06701 0.0
O117 O 0.58371 0.46049 0.12836 0.0
H118 H 0.20909 0.24689 0.44409 0.0
H119 H 0.11923 0.06291 0.51098 0.0
H120 H 0.2671 0.15143 0.49679 0.0
H121 H 0.06275 0.16167 0.50322 0.0
H122 H 0.17051 0.09304 0.48062 0.0
H123 H 0.15312 0.21527 0.44822 0.0
C124 C 0.21021 0.21947 0.4569 0.0
C125 C 0.24315 0.20193 0.46957 0.0
C126 C 0.14652 0.10801 0.48371 0.0
C127 C 0.17894 0.1652 0.47259 0.0
C128 C 0.11688 0.09055 0.49951 0.0
C129 C 0.0864 0.10965 0.50861 0.0
C130 C 0.14576 0.14491 0.47718 0.0
C131 C 0.08548 0.14582 0.49554 0.0
C132 C 0.17817 0.20129 0.45852 0.0
C133 C 0.24256 0.1661 0.48525 0.0
N134 N 0.11482 0.16238 0.48148 0.0
N135 N 0.21121 0.14907 0.48603 0.0
H136 H 0.28485 0.73591 0.05961 0.0
H137 H 0.46987 0.63858 0.11397 0.0
H138 H 0.37553 0.77748 0.18481 0.0
H139 H 0.37212 0.58669 0.03411 0.0
H140 H 0.43509 0.68578 0.1549 0.0
H141 H 0.31424 0.67825 0.06161 0.0
C142 C 0.31056 0.73284 0.08855 0.0
C143 C 0.32793 0.76203 0.12092 0.0
C144 C 0.42116 0.66344 0.13038 0.0
C145 C 0.36228 0.69595 0.12247 0.0
C146 C 0.44114 0.63608 0.1081 0.0
C147 C 0.42387 0.60849 0.07111 0.0
C148 C 0.38372 0.66342 0.11442 0.0
C149 C 0.38647 0.60732 0.06303 0.0
C150 C 0.32751 0.69985 0.08946 0.0
C151 C 0.36146 0.75615 0.15744 0.0
N152 N 0.36767 0.63476 0.08297 0.0
N153 N 0.37774 0.72413 0.15627 0.0
H154 H 0.78942 0.83004 0.62924 0.0
H155 H 0.9757 0.91796 0.58721 0.0
H156 H 0.88447 0.77266 0.60337 0.0
H157 H 0.87595 0.9701 0.52653 0.0
H158 H 0.94323 0.86975 0.62586 0.0
H159 H 0.82059 0.88554 0.61518 0.0
C160 C 0.81662 0.82892 0.62042 0.0
C161 C 0.8343 0.79629 0.6186 0.0
C162 C 0.92846 0.89229 0.6059 0.0
C163 C 0.87051 0.85985 0.60493 0.0
C164 C 0.94713 0.92027 0.58525 0.0
C165 C 0.9286 0.94841 0.55452 0.0
C166 C 0.89093 0.89245 0.59589 0.0
C167 C 0.89131 0.94921 0.55103 0.0
C168 C 0.83452 0.86067 0.61315 0.0
C169 C 0.86979 0.79691 0.60726 0.0
N170 N 0.87362 0.92144 0.57051 0.0
N171 N 0.88662 0.82792 0.60153 0.0
H172 H 0.7154 0.32146 0.94472 0.0
H173 H 0.53414 0.4179 0.99943 0.0
H174 H 0.62176 0.26913 0.98669 0.0
H175 H 0.63563 0.4706 0.0377 0.0
H176 H 0.56345 0.36612 0.96052 0.0
H177 H 0.6851 0.37854 0.95342 0.0
C178 C 0.68866 0.32178 0.95581 0.0
C179 C 0.67116 0.29 0.96409 0.0
C180 C 0.57918 0.38946 0.97552 0.0
C181 C 0.6359 0.35526 0.97173 0.0
C182 C 0.56226 0.41935 0.99629 0.0
C183 C 0.5824 0.44876 0.02111 0.0
C184 C 0.61652 0.38902 0.97952 0.0
C185 C 0.61907 0.44862 0.01803 0.0
C186 C 0.67124 0.35438 0.96002 0.0
C187 C 0.63624 0.29248 0.97791 0.0
N188 N 0.6351 0.41904 0.99873 0.0
N189 N 0.61987 0.32426 0.98083 0.0
H190 H 0.1704 0.84974 0.23741 0.0
H191 H 0.0863 0.02065 0.38517 0.0
H192 H 0.15971 0.95074 0.15012 0.0
H193 H 0.06218 0.91382 0.42685 0.0
H194 H 0.12752 0.99762 0.31737 0.0
H195 H 0.14409 0.87518 0.32449 0.0
C196 C 0.16286 0.87733 0.23692 0.0
C197 C 0.16673 0.89801 0.18607 0.0
C198 C 0.11375 0.9793 0.34249 0.0
C199 C 0.13713 0.92741 0.2857 0.0
C200 C 0.09062 0.99245 0.3817 0.0
C201 C 0.07089 0.96906 0.41154 0.0
C202 C 0.11741 0.94258 0.33392 0.0
C203 C 0.07693 0.9327 0.40457 0.0
C204 C 0.14782 0.89182 0.28648 0.0
C205 C 0.15658 0.93369 0.18789 0.0
N206 N 0.09944 0.92058 0.3663 0.0
N207 N 0.14219 0.94723 0.23669 0.0
H208 H 0.665 0.7171 0.76709 0.0
H209 H 0.58746 0.54277 0.90005 0.0
H210 H 0.66284 0.6149 0.67521 0.0
H211 H 0.55221 0.64795 0.9391 0.0
H212 H 0.62906 0.56795 0.83712 0.0
H213 H 0.63671 0.69107 0.8493 0.0
C214 C 0.65893 0.68916 0.76467 0.0
C215 C 0.66577 0.66821 0.71396 0.0
C216 C 0.61269 0.5855 0.86055 0.0
C217 C 0.63408 0.63817 0.80791 0.0
C218 C 0.58929 0.57116 0.89692 0.0
C219 C 0.56645 0.59336 0.92469 0.0
C220 C 0.61353 0.62226 0.85287 0.0
C221 C 0.56939 0.62997 0.91829 0.0
C222 C 0.64277 0.67432 0.81138 0.0
C223 C 0.65749 0.63206 0.71309 0.0
N224 N 0.59231 0.64326 0.88296 0.0
N225 N 0.64206 0.61822 0.75917 0.0
H226 H 0.83893 0.20872 0.15691 0.0
H227 H 0.97043 0.05282 0.28395 0.0
H228 H 0.85681 0.11256 0.05614 0.0
H229 H 0.91855 0.11333 0.41351 0.0
H230 H 0.93877 0.08674 0.19921 0.0
H231 H 0.87411 0.18375 0.25147 0.0
C232 C 0.84999 0.18245 0.15462 0.0
C233 C 0.84558 0.16313 0.09786 0.0
C234 C 0.9345 0.09307 0.24615 0.0
C235 C 0.88616 0.13496 0.20487 0.0
C236 C 0.9529 0.07394 0.29465 0.0
C237 C 0.94716 0.0803 0.35578 0.0
C238 C 0.90965 0.11878 0.25819 0.0
C239 C 0.92394 0.10788 0.36697 0.0
C240 C 0.87017 0.16835 0.20841 0.0
C241 C 0.86038 0.12909 0.09791 0.0
N242 N 0.90561 0.12598 0.31838 0.0
N243 N 0.88015 0.11644 0.14995 0.0
H244 H 0.41016 0.33186 0.64105 0.0
H245 H 0.38961 0.49451 0.87526 0.0
H246 H 0.32791 0.41087 0.61295 0.0
H247 H 0.48982 0.44032 0.87972 0.0
H248 H 0.36226 0.45388 0.79347 0.0
H249 H 0.43544 0.36195 0.74017 0.0
C250 C 0.39701 0.35507 0.65653 0.0
C251 C 0.3667 0.36878 0.61923 0.0
C252 C 0.39014 0.45043 0.81252 0.0
C253 C 0.39541 0.40327 0.73185 0.0
C254 C 0.40579 0.47355 0.85964 0.0
C255 C 0.44217 0.47105 0.88415 0.0
C256 C 0.41087 0.42437 0.7887 0.0
C257 C 0.46168 0.44315 0.86227 0.0
C258 C 0.41159 0.37235 0.71269 0.0
C259 C 0.35108 0.39929 0.64058 0.0
N260 N 0.44587 0.42109 0.81508 0.0
N261 N 0.36554 0.4154 0.69524 0.0
H262 H 0.67683 0.71462 0.43176 0.0
H263 H 0.52512 0.5841 0.26723 0.0
H264 H 0.63936 0.62399 0.51855 0.0
H265 H 0.61033 0.6091 0.16758 0.0
H266 H 0.5549 0.61902 0.35676 0.0
H267 H 0.64353 0.69283 0.33119 0.0
C268 C 0.6617 0.69039 0.43014 0.0
C269 C 0.66032 0.67187 0.48488 0.0
C270 C 0.5665 0.61782 0.31454 0.0
C271 C 0.62136 0.64772 0.37056 0.0
C272 C 0.54926 0.59835 0.26321 0.0
C273 C 0.56494 0.59433 0.2096 0.0
C274 C 0.59965 0.63354 0.31236 0.0
C275 C 0.59705 0.61225 0.2077 0.0
C276 C 0.64256 0.67817 0.37279 0.0
C277 C 0.64021 0.64042 0.47906 0.0
N278 N 0.61359 0.63094 0.25861 0.0
N279 N 0.62131 0.62978 0.42359 0.0
H280 H 0.83778 0.21275 0.82088 0.0
H281 H 0.92117 0.04186 0.67158 0.0
H282 H 0.84394 0.11011 0.90228 0.0
H283 H 0.94809 0.14871 0.63483 0.0
H284 H 0.87873 0.06495 0.73697 0.0
H285 H 0.86511 0.18799 0.73425 0.0
C286 C 0.84454 0.18498 0.8201 0.0
C287 C 0.83916 0.16357 0.86918 0.0
C288 C 0.8934 0.08329 0.71344 0.0
C289 C 0.86982 0.13498 0.77023 0.0
C290 C 0.91725 0.0701 0.67562 0.0
C291 C 0.93809 0.09346 0.64796 0.0
C292 C 0.8902 0.11999 0.72286 0.0
C293 C 0.93251 0.12986 0.65556 0.0
C294 C 0.86014 0.17086 0.77085 0.0
C295 C 0.84825 0.12766 0.86585 0.0
N296 N 0.90932 0.14202 0.69254 0.0
N297 N 0.86321 0.11453 0.81746 0.0
H298 H 0.35011 0.43407 0.42486 0.0
H299 H 0.45992 0.41688 0.14195 0.0
H300 H 0.37758 0.33533 0.34142 0.0
H301 H 0.43413 0.51721 0.22053 0.0
H302 H 0.42219 0.38745 0.20554 0.0
H303 H 0.37414 0.46557 0.34401 0.0
C304 C 0.36094 0.41893 0.38946 0.0
C305 C 0.36184 0.3818 0.39055 0.0
C306 C 0.42409 0.41596 0.2083 0.0
C307 C 0.38925 0.41792 0.29723 0.0
C308 C 0.44538 0.43277 0.17146 0.0
C309 C 0.44969 0.46951 0.1754 0.0
C310 C 0.40747 0.43589 0.25076 0.0
C311 C 0.43095 0.48886 0.2154 0.0
C312 C 0.3745 0.437 0.34304 0.0
C313 C 0.37575 0.36382 0.34256 0.0
N314 N 0.41099 0.47179 0.2522 0.0
N315 N 0.38906 0.38199 0.29846 0.0
H316 H 0.20657 0.90606 0.92364 0.0
H317 H 0.02207 0.95245 0.70477 0.0
H318 H 0.10423 0.87758 0.96886 0.0
H319 H 0.12214 0.00467 0.70113 0.0
H320 H 0.05231 0.9141 0.78696 0.0
H321 H 0.17651 0.93105 0.82708 0.0
C322 C 0.1778 0.90443 0.91281 0.0
C323 C 0.15798 0.88979 0.95487 0.0
C324 C 0.06765 0.93363 0.76735 0.0
C325 C 0.12315 0.91894 0.8441 0.0
C326 C 0.05048 0.95524 0.72019 0.0
C327 C 0.06968 0.98177 0.69638 0.0
C328 C 0.10427 0.93834 0.78978 0.0
C329 C 0.10636 0.98462 0.71847 0.0
C330 C 0.16059 0.919 0.85778 0.0
C331 C 0.12061 0.889 0.93829 0.0
N332 N 0.12236 0.96335 0.7638 0.0
N333 N 0.1044 0.90353 0.88446 0.0
loop_
_geom_bond_atom_site_label_1
_geom_bond_atom_site_label_2
_geom_bond_distance
_geom_bond_site_symmetry_2
_ccdc_geom_bond_type
H0 C1 0.949 . S
C1 H0 0.949 . S
C1 C2 1.395 . S
C1 C3 1.391 . S
C2 C1 1.395 . S
C2 C5 1.390 . S
C3 C1 1.391 . S
C3 C7 1.387 . S
C3 C8 1.491 . S
H4 C5 0.950 . S
C5 C2 1.390 . S
C5 H4 0.950 . S
C5 C6 1.378 . S
C6 C5 1.378 . S
C6 C7 1.409 . S
C7 C3 1.387 . S
C7 C6 1.409 . S
C7 H9 0.951 1_554 S
C8 C3 1.491 . S
C8 C10 1.382 . S
C8 C12 1.404 . S
H9 C7 0.951 1_556 S
C10 C8 1.382 . S
C10 C11 1.390 . S
C10 H15 0.949 . S
C11 C10 1.390 . S
C11 C16 1.399 . S
C12 C8 1.404 . S
C12 H13 0.950 1_554 S
C12 C14 1.375 . S
H13 C12 0.950 1_556 S
C14 C12 1.375 . S
C14 C16 1.382 . S
C14 H18 0.950 1_554 S
H15 C10 0.949 . S
C16 C11 1.399 . S
C16 C14 1.382 . S
C16 H17 0.952 . S
H17 C16 0.952 . S
H18 C14 0.950 1_556 S
H19 C20 0.949 . S
C20 H19 0.949 . S
C20 C21 1.395 . S
C20 C22 1.391 . S
C21 C20 1.395 . S
C21 C24 1.390 . S
C22 C20 1.391 . S
C22 C26 1.387 . S
C22 C27 1.491 . S
H23 C24 0.950 . S
C24 C21 1.390 . S
C24 H23 0.950 . S
C24 C25 1.378 . S
C25 C24 1.378 . S
C25 C26 1.409 . S
C26 C22 1.387 . S
C26 C25 1.409 . S
C26 H28 0.951 . S
C27 C22 1.491 . S
C27 C29 1.382 . S
C27 C31 1.404 . S
H28 C26 0.951 . S
C29 C27 1.382 . S
C29 C30 1.390 . S
C29 H34 0.949 . S
C30 C29 1.390 . S
C30 C35 1.399 . S
C31 C27 1.404 . S
C31 H32 0.950 . S
C31 C33 1.375 . S
H32 C31 0.950 . S
C33 C31 1.375 . S
C33 C35 1.382 . S
C33 H37 0.950 . S
H34 C29 0.949 . S
C35 C30 1.399 . S
C35 C33 1.382 . S
C35 H36 0.952 . S
H36 C35 0.952 . S
H37 C33 0.950 . S
H38 C39 0.949 . S
C39 H38 0.949 . S
C39 C40 1.395 . S
C39 C41 1.391 1_554 S
C40 C39 1.395 . S
C40 C43 1.396 . S
C41 C39 1.391 1_556 S
C41 C45 1.387 . S
C41 C46 1.491 . S
H42 C43 0.951 . S
C43 C40 1.396 . S
C43 H42 0.951 . S
C43 C44 1.371 1_554 S
C44 C43 1.371 1_556 S
C44 C45 1.409 . S
C45 C41 1.387 . S
C45 C44 1.409 . S
C45 H47 0.951 . S
C46 C41 1.491 . S
C46 C48 1.390 . S
C46 C50 1.404 . S
H47 C45 0.951 . S
C48 C46 1.390 . S
C48 C49 1.391 . S
C48 H53 0.939 1_556 S
C49 C48 1.391 . S
C49 C54 1.399 . S
C50 C46 1.404 . S
C50 H51 0.950 . S
C50 C52 1.375 . S
H51 C50 0.950 . S
C52 C50 1.375 . S
C52 C54 1.382 . S
C52 H56 0.950 . S
H53 C48 0.939 1_554 S
C54 C49 1.399 . S
C54 C52 1.382 . S
C54 H55 0.952 . S
H55 C54 0.952 . S
H56 C52 0.950 . S
H57 C58 0.949 . S
C58 H57 0.949 . S
C58 C59 1.395 . S
C58 C60 1.391 . S
C59 C58 1.395 . S
C59 C62 1.390 . S
C60 C58 1.391 . S
C60 C64 1.387 . S
C60 C65 1.491 . S
H61 C62 0.950 . S
C62 C59 1.390 . S
C62 H61 0.950 . S
C62 C63 1.378 . S
C63 C62 1.378 . S
C63 C64 1.409 . S
C64 C60 1.387 . S
C64 C63 1.409 . S
C64 H66 0.951 . S
C65 C60 1.491 . S
C65 C67 1.382 . S
C65 C69 1.404 . S
H66 C64 0.951 . S
C67 C65 1.382 . S
C67 C68 1.390 . S
C67 H72 0.949 . S
C68 C67 1.390 . S
C68 C73 1.399 . S
C69 C65 1.404 . S
C69 H70 0.950 . S
C69 C71 1.375 . S
H70 C69 0.950 . S
C71 C69 1.375 . S
C71 C73 1.382 . S
C71 H75 0.950 . S
H72 C67 0.949 . S
C73 C68 1.399 . S
C73 C71 1.382 . S
C73 H74 0.952 . S
H74 C73 0.952 . S
H75 C71 0.950 . S
O76 Mn77 2.163 1_655 S
O76 C90 1.244 . S
Mn77 O76 2.163 1_455 S
Mn77 O80 2.160 1_545 S
Mn77 O81 2.221 . S
Mn77 O83 2.163 1_455 S
Mn77 O85 2.160 1_545 S
Mn77 O95 2.221 1_445 S
O78 Mn79 2.087 1_545 S
O78 C90 1.256 . S
Mn79 O78 2.087 1_565 S
Mn79 O86 2.089 1_655 S
Mn79 O95 2.290 . S
Mn79 O96 2.251 . S
O80 Mn77 2.160 1_565 S
O80 C91 1.239 . S
O81 Mn77 2.221 . S
O81 Mn82 2.290 . S
O81 C92 1.278 . S
Mn82 O81 2.290 . S
Mn82 O84 2.089 . S
Mn82 O87 2.251 . S
Mn82 O88 2.087 . S
O83 Mn77 2.163 1_655 S
O83 C93 1.244 . S
O84 Mn82 2.089 . S
O84 C91 1.256 1_545 S
O85 Mn77 2.160 1_565 S
O85 C94 1.239 . S
O86 Mn79 2.089 1_455 S
O86 C94 1.256 . S
O87 Mn82 2.251 . S
O87 C92 1.241 . S
O88 Mn82 2.087 . S
O88 C93 1.256 1_455 S
C89 O95 1.278 . S
C89 O96 1.241 . S
C90 O76 1.244 . S
C90 O78 1.256 . S
C91 O80 1.239 . S
C91 O84 1.256 1_565 S
C92 O81 1.278 . S
C92 O87 1.241 . S
C93 O83 1.244 . S
C93 O88 1.256 1_655 S
C94 O85 1.239 . S
C94 O86 1.256 . S
O95 Mn77 2.221 1_665 S
O95 Mn79 2.290 . S
O95 C89 1.278 . S
O96 Mn79 2.251 . S
O96 C89 1.241 . S
O97 Mn98 2.163 . S
O97 C111 1.244 . S
Mn98 O97 2.163 . S
Mn98 O101 2.160 1_554 S
Mn98 O102 2.221 . S
Mn98 O104 2.163 1_554 S
Mn98 O106 2.160 . S
Mn98 O116 2.221 . S
O99 Mn100 2.087 . S
O99 C111 1.256 . S
Mn100 O99 2.087 . S
Mn100 O107 2.089 . S
Mn100 O116 2.290 . S
Mn100 O117 2.251 . S
O101 Mn98 2.160 1_556 S
O101 C112 1.239 . S
O102 Mn98 2.221 . S
O102 Mn103 2.290 1_554 S
O102 C113 1.278 . S
Mn103 O102 2.290 1_556 S
Mn103 O105 2.089 . S
Mn103 O108 2.251 . S
Mn103 O109 2.087 . S
O104 Mn98 2.163 1_556 S
O104 C114 1.244 . S
O105 Mn103 2.089 . S
O105 C112 1.256 . S
O106 Mn98 2.160 . S
O106 C115 1.239 . S
O107 Mn100 2.089 . S
O107 C115 1.256 . S
O108 Mn103 2.251 . S
O108 C113 1.241 1_556 S
O109 Mn103 2.087 . S
O109 C114 1.256 . S
C110 O116 1.278 . S
C110 O117 1.241 . S
C111 O97 1.244 . S
C111 O99 1.256 . S
C112 O101 1.239 . S
C112 O105 1.256 . S
C113 O102 1.278 . S
C113 O108 1.241 1_554 S
C114 O104 1.244 . S
C114 O109 1.256 . S
C115 O106 1.239 . S
C115 O107 1.256 . S
O116 Mn98 2.221 . S
O116 Mn100 2.290 . S
O116 C110 1.278 . S
O117 Mn100 2.251 . S
O117 C110 1.241 . S
H118 C124 0.930 . S
H119 C128 0.930 . S
H120 C133 0.929 . S
H121 C131 0.929 . S
H122 C126 0.929 . S
H123 C132 0.929 . S
C124 H118 0.930 . S
C124 C125 1.367 . S
C124 C132 1.378 . S
C125 C124 1.367 . S
C125 C133 1.433 . S
C126 H122 0.929 . S
C126 C128 1.378 . S
C126 C130 1.350 . S
C127 C130 1.463 . S
C127 C132 1.350 . S
C127 N135 1.427 . S
C128 H119 0.930 . S
C128 C126 1.378 . S
C128 C129 1.367 . S
C129 C128 1.367 . S
C129 C131 1.433 . S
C130 C126 1.350 . S
C130 C127 1.463 . S
C130 N134 1.427 . S
C131 H121 0.929 . S
C131 C129 1.433 . S
C131 N134 1.384 . S
C132 H123 0.929 . S
C132 C124 1.378 . S
C132 C127 1.350 . S
C133 H120 0.929 . S
C133 C125 1.433 . S
C133 N135 1.384 . S
N134 C130 1.427 . S
N134 C131 1.384 . S
N135 C127 1.427 . S
N135 C133 1.384 . S
H136 C142 0.930 . S
H137 C146 0.930 . S
H138 C151 0.929 . S
H139 C149 0.929 . S
H140 C144 0.929 . S
H141 C150 0.929 . S
C142 H136 0.930 . S
C142 C143 1.367 . S
C142 C150 1.378 . S
C143 C142 1.367 . S
C143 C151 1.433 . S
C144 H140 0.929 . S
C144 C146 1.378 . S
C144 C148 1.350 . S
C145 C148 1.463 . S
C145 C150 1.350 . S
C145 N153 1.427 . S
C146 H137 0.930 . S
C146 C144 1.378 . S
C146 C147 1.367 . S
C147 C146 1.367 . S
C147 C149 1.433 . S
C148 C144 1.350 . S
C148 C145 1.463 . S
C148 N152 1.427 . S
C149 H139 0.929 . S
C149 C147 1.433 . S
C149 N152 1.384 . S
C150 H141 0.929 . S
C150 C142 1.378 . S
C150 C145 1.350 . S
C151 H138 0.929 . S
C151 C143 1.433 . S
C151 N153 1.384 . S
N152 C148 1.427 . S
N152 C149 1.384 . S
N153 C145 1.427 . S
N153 C151 1.384 . S
H154 C160 0.930 . S
H155 C164 0.930 . S
H156 C169 0.929 . S
H157 C167 0.929 . S
H158 C162 0.929 . S
H159 C168 0.929 . S
C160 H154 0.930 . S
C160 C161 1.367 . S
C160 C168 1.378 . S
C161 C160 1.367 . S
C161 C169 1.433 . S
C162 H158 0.929 . S
C162 C164 1.378 . S
C162 C166 1.350 . S
C163 C166 1.463 . S
C163 C168 1.350 . S
C163 N171 1.427 . S
C164 H155 0.930 . S
C164 C162 1.378 . S
C164 C165 1.367 . S
C165 C164 1.367 . S
C165 C167 1.433 . S
C166 C162 1.350 . S
C166 C163 1.463 . S
C166 N170 1.427 . S
C167 H157 0.929 . S
C167 C165 1.433 . S
C167 N170 1.384 . S
C168 H159 0.929 . S
C168 C160 1.378 . S
C168 C163 1.350 . S
C169 H156 0.929 . S
C169 C161 1.433 . S
C169 N171 1.384 . S
N170 C166 1.427 . S
N170 C167 1.384 . S
N171 C163 1.427 . S
N171 C169 1.384 . S
H172 C178 0.930 . S
H173 C182 0.930 . S
H174 C187 0.929 . S
H175 C185 0.929 . S
H176 C180 0.929 . S
H177 C186 0.929 . S
C178 H172 0.930 . S
C178 C179 1.367 1_556 S
C178 C186 1.378 . S
C179 C178 1.367 1_554 S
C179 C187 1.433 . S
C180 H176 0.929 . S
C180 C182 1.378 . S
C180 C184 1.350 . S
C181 C184 1.463 . S
C181 C186 1.350 1_554 S
C181 N189 1.427 . S
C182 H173 0.930 . S
C182 C180 1.378 . S
C182 C183 1.367 . S
C183 C182 1.367 . S
C183 C185 1.433 1_554 S
C184 C180 1.350 . S
C184 C181 1.463 . S
C184 N188 1.427 1_554 S
C185 H175 0.929 . S
C185 C183 1.433 1_556 S
C185 N188 1.384 . S
C186 H177 0.929 . S
C186 C178 1.378 . S
C186 C181 1.350 1_556 S
C187 H174 0.929 . S
C187 C179 1.433 . S
C187 N189 1.384 . S
N188 C184 1.427 1_556 S
N188 C185 1.384 . S
N189 C181 1.427 . S
N189 C187 1.384 . S
H190 C196 0.930 . S
H191 C200 0.930 . S
H192 C205 0.929 . S
H193 C203 0.929 . S
H194 C198 0.929 . S
H195 C204 0.929 . S
C196 H190 0.930 . S
C196 C197 1.367 . S
C196 C204 1.378 . S
C197 C196 1.367 . S
C197 C205 1.433 . S
C198 H194 0.929 . S
C198 C200 1.378 . S
C198 C202 1.350 . S
C199 C202 1.463 . S
C199 C204 1.350 . S
C199 N207 1.427 . S
C200 H191 0.930 . S
C200 C198 1.378 . S
C200 C201 1.367 . S
C201 C200 1.367 . S
C201 C203 1.433 . S
C202 C198 1.350 . S
C202 C199 1.463 . S
C202 N206 1.427 . S
C203 H193 0.929 . S
C203 C201 1.433 . S
C203 N206 1.384 . S
C204 H195 0.929 . S
C204 C196 1.378 . S
C204 C199 1.350 . S
C205 H192 0.929 . S
C205 C197 1.433 . S
C205 N207 1.384 . S
N206 C202 1.427 . S
N206 C203 1.384 . S
N207 C199 1.427 . S
N207 C205 1.384 . S
H208 C214 0.930 . S
H209 C218 0.930 . S
H210 C223 0.929 . S
H211 C221 0.929 . S
H212 C216 0.929 . S
H213 C222 0.929 . S
C214 H208 0.930 . S
C214 C215 1.367 . S
C214 C222 1.378 . S
C215 C214 1.367 . S
C215 C223 1.433 . S
C216 H212 0.929 . S
C216 C218 1.378 . S
C216 C220 1.350 . S
C217 C220 1.463 . S
C217 C222 1.350 . S
C217 N225 1.427 . S
C218 H209 0.930 . S
C218 C216 1.378 . S
C218 C219 1.367 . S
C219 C218 1.367 . S
C219 C221 1.433 . S
C220 C216 1.350 . S
C220 C217 1.463 . S
C220 N224 1.427 . S
C221 H211 0.929 . S
C221 C219 1.433 . S
C221 N224 1.384 . S
C222 H213 0.929 . S
C222 C214 1.378 . S
C222 C217 1.350 . S
C223 H210 0.929 . S
C223 C215 1.433 . S
C223 N225 1.384 . S
N224 C220 1.427 . S
N224 C221 1.384 . S
N225 C217 1.427 . S
N225 C223 1.384 . S
H226 C232 0.930 . S
H227 C236 0.930 . S
H228 C241 0.929 . S
H229 C239 0.929 . S
H230 C234 0.929 . S
H231 C240 0.929 . S
C232 H226 0.930 . S
C232 C233 1.367 . S
C232 C240 1.378 . S
C233 C232 1.367 . S
C233 C241 1.433 . S
C234 H230 0.929 . S
C234 C236 1.378 . S
C234 C238 1.350 . S
C235 C238 1.463 . S
C235 C240 1.350 . S
C235 N243 1.427 . S
C236 H227 0.930 . S
C236 C234 1.378 . S
C236 C237 1.367 . S
C237 C236 1.367 . S
C237 C239 1.433 . S
C238 C234 1.350 . S
C238 C235 1.463 . S
C238 N242 1.427 . S
C239 H229 0.929 . S
C239 C237 1.433 . S
C239 N242 1.384 . S
C240 H231 0.929 . S
C240 C232 1.378 . S
C240 C235 1.350 . S
C241 H228 0.929 . S
C241 C233 1.433 . S
C241 N243 1.384 . S
N242 C238 1.427 . S
N242 C239 1.384 . S
N243 C235 1.427 . S
N243 C241 1.384 . S
H244 C250 0.930 . S
H245 C254 0.930 . S
H246 C259 0.929 . S
H247 C257 0.929 . S
H248 C252 0.929 . S
H249 C258 0.929 . S
C250 H244 0.930 . S
C250 C251 1.367 . S
C250 C258 1.378 . S
C251 C250 1.367 . S
C251 C259 1.433 . S
C252 H248 0.929 . S
C252 C254 1.378 . S
C252 C256 1.350 . S
C253 C256 1.463 . S
C253 C258 1.350 . S
C253 N261 1.427 . S
C254 H245 0.930 . S
C254 C252 1.378 . S
C254 C255 1.367 . S
C255 C254 1.367 . S
C255 C257 1.433 . S
C256 C252 1.350 . S
C256 C253 1.463 . S
C256 N260 1.427 . S
C257 H247 0.929 . S
C257 C255 1.433 . S
C257 N260 1.384 . S
C258 H249 0.929 . S
C258 C250 1.378 . S
C258 C253 1.350 . S
C259 H246 0.929 . S
C259 C251 1.433 . S
C259 N261 1.384 . S
N260 C256 1.427 . S
N260 C257 1.384 . S
N261 C253 1.427 . S
N261 C259 1.384 . S
H262 C268 0.930 . S
H263 C272 0.930 . S
H264 C277 0.929 . S
H265 C275 0.929 . S
H266 C270 0.929 . S
H267 C276 0.929 . S
C268 H262 0.930 . S
C268 C269 1.367 . S
C268 C276 1.378 . S
C269 C268 1.367 . S
C269 C277 1.433 . S
C270 H266 0.929 . S
C270 C272 1.378 . S
C270 C274 1.350 . S
C271 C274 1.463 . S
C271 C276 1.350 . S
C271 N279 1.427 . S
C272 H263 0.930 . S
C272 C270 1.378 . S
C272 C273 1.367 . S
C273 C272 1.367 . S
C273 C275 1.433 . S
C274 C270 1.350 . S
C274 C271 1.463 . S
C274 N278 1.427 . S
C275 H265 0.929 . S
C275 C273 1.433 . S
C275 N278 1.384 . S
C276 H267 0.929 . S
C276 C268 1.378 . S
C276 C271 1.350 . S
C277 H264 0.929 . S
C277 C269 1.433 . S
C277 N279 1.384 . S
N278 C274 1.427 . S
N278 C275 1.384 . S
N279 C271 1.427 . S
N279 C277 1.384 . S
H280 C286 0.930 . S
H281 C290 0.930 . S
H282 C295 0.929 . S
H283 C293 0.929 . S
H284 C288 0.929 . S
H285 C294 0.929 . S
C286 H280 0.930 . S
C286 C287 1.367 . S
C286 C294 1.378 . S
C287 C286 1.367 . S
C287 C295 1.433 . S
C288 H284 0.929 . S
C288 C290 1.378 . S
C288 C292 1.350 . S
C289 C292 1.463 . S
C289 C294 1.350 . S
C289 N297 1.427 . S
C290 H281 0.930 . S
C290 C288 1.378 . S
C290 C291 1.367 . S
C291 C290 1.367 . S
C291 C293 1.433 . S
C292 C288 1.350 . S
C292 C289 1.463 . S
C292 N296 1.427 . S
C293 H283 0.929 . S
C293 C291 1.433 . S
C293 N296 1.384 . S
C294 H285 0.929 . S
C294 C286 1.378 . S
C294 C289 1.350 . S
C295 H282 0.929 . S
C295 C287 1.433 . S
C295 N297 1.384 . S
N296 C292 1.427 . S
N296 C293 1.384 . S
N297 C289 1.427 . S
N297 C295 1.384 . S
H298 C304 0.930 . S
H299 C308 0.930 . S
H300 C313 0.929 . S
H301 C311 0.929 . S
H302 C306 0.929 . S
H303 C312 0.929 . S
C304 H298 0.930 . S
C304 C305 1.367 . S
C304 C312 1.378 . S
C305 C304 1.367 . S
C305 C313 1.433 . S
C306 H302 0.929 . S
C306 C308 1.378 . S
C306 C310 1.350 . S
C307 C310 1.463 . S
C307 C312 1.350 . S
C307 N315 1.427 . S
C308 H299 0.930 . S
C308 C306 1.378 . S
C308 C309 1.367 . S
C309 C308 1.367 . S
C309 C311 1.433 . S
C310 C306 1.350 . S
C310 C307 1.463 . S
C310 N314 1.427 . S
C311 H301 0.929 . S
C311 C309 1.433 . S
C311 N314 1.384 . S
C312 H303 0.929 . S
C312 C304 1.378 . S
C312 C307 1.350 . S
C313 H300 0.929 . S
C313 C305 1.433 . S
C313 N315 1.384 . S
N314 C310 1.427 . S
N314 C311 1.384 . S
N315 C307 1.427 . S
N315 C313 1.384 . S
H316 C322 0.930 . S
H317 C326 0.930 . S
H318 C331 0.929 . S
H319 C329 0.929 1_545 S
H320 C324 0.929 . S
H321 C330 0.929 . S
C322 H316 0.930 . S
C322 C323 1.367 . S
C322 C330 1.378 . S
C323 C322 1.367 . S
C323 C331 1.433 . S
C324 H320 0.929 . S
C324 C326 1.378 . S
C324 C328 1.350 . S
C325 C328 1.463 . S
C325 C330 1.350 . S
C325 N333 1.427 . S
C326 H317 0.930 . S
C326 C324 1.378 . S
C326 C327 1.367 . S
C327 C326 1.367 . S
C327 C329 1.433 . S
C328 C324 1.350 . S
C328 C325 1.463 . S
C328 N332 1.427 . S
C329 H319 0.929 1_565 S
C329 C327 1.433 . S
C329 N332 1.384 . S
C330 H321 0.929 . S
C330 C322 1.378 . S
C330 C325 1.350 . S
C331 H318 0.929 . S
C331 C323 1.433 . S
C331 N333 1.384 . S
N332 C328 1.427 . S
N332 C329 1.384 . S
N333 C325 1.427 . S
N333 C331 1.384 . S
C129 C92 1.268 . S
C125 C68 1.372 . S
C143 C11 1.365 . S
C147 C113 1.340 . S
C161 C30 1.545 . S
C165 C89 1.438 . S
C179 C49 1.533 1_554 S
C183 C110 1.414 . S
C201 C94 1.565 . S
C197 C2 1.557 . S
C219 C114 1.602 . S
C215 C25 1.665 . S
C233 C40 1.630 . S
C237 C90 1.603 . S
C251 C59 1.553 . S
C255 C112 1.510 . S
C273 C111 1.498 . S
C269 C21 1.529 . S
C291 C93 1.503 . S
C287 C44 1.560 . S
C309 C115 1.452 . S
C305 C63 1.485 . S
C323 C6 1.495 1_556 S
C327 C91 1.446 . S
