# Generated by pormake.
# Topology eea, (3,6)-cn, num edge types: 1
# Building blocks:
#     Node 0, Type 0, BuildingBlock: ESEHIV_clean_linker_0, # of connection points: 3
#     Node 1, Type 0, BuildingBlock: ESEHIV_clean_linker_0, # of connection points: 3
#     Node 2, Type 0, BuildingBlock: ESEHIV_clean_linker_0, # of connection points: 3
#     Node 3, Type 0, BuildingBlock: ESEHIV_clean_linker_0, # of connection points: 3
#     Node 4, Type 0, BuildingBlock: ESEHIV_clean_linker_0, # of connection points: 3
#     Node 5, Type 0, BuildingBlock: ESEHIV_clean_linker_0, # of connection points: 3
#     Node 6, Type 0, BuildingBlock: ESEHIV_clean_linker_0, # of connection points: 3
#     Node 7, Type 0, BuildingBlock: ESEHIV_clean_linker_0, # of connection points: 3
#     Node 8, Type 0, BuildingBlock: ESEHIV_clean_linker_0, # of connection points: 3
#     Node 9, Type 0, BuildingBlock: ESEHIV_clean_linker_0, # of connection points: 3
#     Node 10, Type 0, BuildingBlock: ESEHIV_clean_linker_0, # of connection points: 3
#     Node 11, Type 0, BuildingBlock: ESEHIV_clean_linker_0, # of connection points: 3
#     Node 12, Type 0, BuildingBlock: ESEHIV_clean_linker_0, # of connection points: 3
#     Node 13, Type 0, BuildingBlock: ESEHIV_clean_linker_0, # of connection points: 3
#     Node 14, Type 0, BuildingBlock: ESEHIV_clean_linker_0, # of connection points: 3
#     Node 15, Type 0, BuildingBlock: ESEHIV_clean_linker_0, # of connection points: 3
#     Node 16, Type 0, BuildingBlock: ESEHIV_clean_linker_0, # of connection points: 3
#     Node 17, Type 0, BuildingBlock: ESEHIV_clean_linker_0, # of connection points: 3
#     Node 18, Type 1, BuildingBlock: NUHQIS_clean_sbu_0, # of connection points: 6
#     Node 19, Type 1, BuildingBlock: NUHQIS_clean_sbu_0, # of connection points: 6
#     Node 20, Type 1, BuildingBlock: NUHQIS_clean_sbu_0, # of connection points: 6
#     Node 21, Type 1, BuildingBlock: NUHQIS_clean_sbu_0, # of connection points: 6
#     Node 22, Type 1, BuildingBlock: NUHQIS_clean_sbu_0, # of connection points: 6
#     Node 23, Type 1, BuildingBlock: NUHQIS_clean_sbu_0, # of connection points: 6
#     Node 24, Type 1, BuildingBlock: NUHQIS_clean_sbu_0, # of connection points: 6
#     Node 25, Type 1, BuildingBlock: NUHQIS_clean_sbu_0, # of connection points: 6
#     Node 26, Type 1, BuildingBlock: NUHQIS_clean_sbu_0, # of connection points: 6
#     Edge 27, Type (0, 1), BuildingBlock: CIFDUS_clean_linker_0, # of connection points: 2
#     Edge 28, Type (0, 1), BuildingBlock: CIFDUS_clean_linker_0, # of connection points: 2
#     Edge 29, Type (0, 1), BuildingBlock: CIFDUS_clean_linker_0, # of connection points: 2
#     Edge 30, Type (0, 1), BuildingBlock: CIFDUS_clean_linker_0, # of connection points: 2
#     Edge 31, Type (0, 1), BuildingBlock: CIFDUS_clean_linker_0, # of connection points: 2
#     Edge 32, Type (0, 1), BuildingBlock: CIFDUS_clean_linker_0, # of connection points: 2
#     Edge 33, Type (0, 1), BuildingBlock: CIFDUS_clean_linker_0, # of connection points: 2
#     Edge 34, Type (0, 1), BuildingBlock: CIFDUS_clean_linker_0, # of connection points: 2
#     Edge 35, Type (0, 1), BuildingBlock: CIFDUS_clean_linker_0, # of connection points: 2
#     Edge 36, Type (0, 1), BuildingBlock: CIFDUS_clean_linker_0, # of connection points: 2
#     Edge 37, Type (0, 1), BuildingBlock: CIFDUS_clean_linker_0, # of connection points: 2
#     Edge 38, Type (0, 1), BuildingBlock: CIFDUS_clean_linker_0, # of connection points: 2
#     Edge 39, Type (0, 1), BuildingBlock: CIFDUS_clean_linker_0, # of connection points: 2
#     Edge 40, Type (0, 1), BuildingBlock: CIFDUS_clean_linker_0, # of connection points: 2
#     Edge 41, Type (0, 1), BuildingBlock: CIFDUS_clean_linker_0, # of connection points: 2
#     Edge 42, Type (0, 1), BuildingBlock: CIFDUS_clean_linker_0, # of connection points: 2
#     Edge 43, Type (0, 1), BuildingBlock: CIFDUS_clean_linker_0, # of connection points: 2
#     Edge 44, Type (0, 1), BuildingBlock: CIFDUS_clean_linker_0, # of connection points: 2
#     Edge 45, Type (0, 1), BuildingBlock: CIFDUS_clean_linker_0, # of connection points: 2
#     Edge 46, Type (0, 1), BuildingBlock: CIFDUS_clean_linker_0, # of connection points: 2
#     Edge 47, Type (0, 1), BuildingBlock: CIFDUS_clean_linker_0, # of connection points: 2
#     Edge 48, Type (0, 1), BuildingBlock: CIFDUS_clean_linker_0, # of connection points: 2
#     Edge 49, Type (0, 1), BuildingBlock: CIFDUS_clean_linker_0, # of connection points: 2
#     Edge 50, Type (0, 1), BuildingBlock: CIFDUS_clean_linker_0, # of connection points: 2
#     Edge 51, Type (0, 1), BuildingBlock: CIFDUS_clean_linker_0, # of connection points: 2
#     Edge 52, Type (0, 1), BuildingBlock: CIFDUS_clean_linker_0, # of connection points: 2
#     Edge 53, Type (0, 1), BuildingBlock: CIFDUS_clean_linker_0, # of connection points: 2
#     Edge 54, Type (0, 1), BuildingBlock: CIFDUS_clean_linker_0, # of connection points: 2
#     Edge 55, Type (0, 1), BuildingBlock: CIFDUS_clean_linker_0, # of connection points: 2
#     Edge 56, Type (0, 1), BuildingBlock: CIFDUS_clean_linker_0, # of connection points: 2
#     Edge 57, Type (0, 1), BuildingBlock: CIFDUS_clean_linker_0, # of connection points: 2
#     Edge 58, Type (0, 1), BuildingBlock: CIFDUS_clean_linker_0, # of connection points: 2
#     Edge 59, Type (0, 1), BuildingBlock: CIFDUS_clean_linker_0, # of connection points: 2
#     Edge 60, Type (0, 1), BuildingBlock: CIFDUS_clean_linker_0, # of connection points: 2
#     Edge 61, Type (0, 1), BuildingBlock: CIFDUS_clean_linker_0, # of connection points: 2
#     Edge 62, Type (0, 1), BuildingBlock: CIFDUS_clean_linker_0, # of connection points: 2
#     Edge 63, Type (0, 1), BuildingBlock: CIFDUS_clean_linker_0, # of connection points: 2
#     Edge 64, Type (0, 1), BuildingBlock: CIFDUS_clean_linker_0, # of connection points: 2
#     Edge 65, Type (0, 1), BuildingBlock: CIFDUS_clean_linker_0, # of connection points: 2
#     Edge 66, Type (0, 1), BuildingBlock: CIFDUS_clean_linker_0, # of connection points: 2
#     Edge 67, Type (0, 1), BuildingBlock: CIFDUS_clean_linker_0, # of connection points: 2
#     Edge 68, Type (0, 1), BuildingBlock: CIFDUS_clean_linker_0, # of connection points: 2
#     Edge 69, Type (0, 1), BuildingBlock: CIFDUS_clean_linker_0, # of connection points: 2
#     Edge 70, Type (0, 1), BuildingBlock: CIFDUS_clean_linker_0, # of connection points: 2
#     Edge 71, Type (0, 1), BuildingBlock: CIFDUS_clean_linker_0, # of connection points: 2
#     Edge 72, Type (0, 1), BuildingBlock: CIFDUS_clean_linker_0, # of connection points: 2
#     Edge 73, Type (0, 1), BuildingBlock: CIFDUS_clean_linker_0, # of connection points: 2
#     Edge 74, Type (0, 1), BuildingBlock: CIFDUS_clean_linker_0, # of connection points: 2
#     Edge 75, Type (0, 1), BuildingBlock: CIFDUS_clean_linker_0, # of connection points: 2
#     Edge 76, Type (0, 1), BuildingBlock: CIFDUS_clean_linker_0, # of connection points: 2
#     Edge 77, Type (0, 1), BuildingBlock: CIFDUS_clean_linker_0, # of connection points: 2
#     Edge 78, Type (0, 1), BuildingBlock: CIFDUS_clean_linker_0, # of connection points: 2
#     Edge 79, Type (0, 1), BuildingBlock: CIFDUS_clean_linker_0, # of connection points: 2
#     Edge 80, Type (0, 1), BuildingBlock: CIFDUS_clean_linker_0, # of connection points: 2
# Relax obj value: 0.034
# Max RMSD: 0.130
# Mean RMSD: 0.098
data_MOF--net-eea--node1-NUHQIS_clean_sbu_0--node2-ESEHIV_clean_linker_0--edge1-CIFDUS_clean_linker_0
_symmetry_space_group_name_H-M    P1
_symmetry_Int_Tables_number       1
_symmetry_cell_setting            triclinic
loop_
_symmetry_equiv_pos_as_xyz
'x, y, z'
_cell_length_a     41.436947
_cell_length_b     41.279279
_cell_length_c     65.257049
_cell_angle_alpha  93.014295
_cell_angle_beta   93.272964
_cell_angle_gamma 119.62056
loop_
_atom_site_label
_atom_site_type_symbol
_atom_site_fract_x
_atom_site_fract_y
_atom_site_fract_z
_atom_type_partial_charge
H0 H 0.32352 0.21203 0.43827 0.0
H1 H 0.31071 0.1019 0.43519 0.0
H2 H 0.25612 0.13054 0.38771 0.0
C3 C 0.31174 0.1842 0.43049 0.0
C4 C 0.28844 0.17456 0.41208 0.0
C5 C 0.31906 0.15794 0.43936 0.0
C6 C 0.30546 0.12257 0.42858 0.0
C7 C 0.28397 0.11322 0.40952 0.0
C8 C 0.27505 0.13904 0.4016 0.0
H9 H 0.84743 0.08937 0.4413 0.0
H10 H 0.94979 0.19412 0.44457 0.0
H11 H 0.91023 0.11961 0.38872 0.0
C12 C 0.87164 0.10908 0.43417 0.0
C13 C 0.87685 0.09981 0.41407 0.0
C14 C 0.89727 0.14359 0.44509 0.0
C15 C 0.92901 0.16853 0.43572 0.0
C16 C 0.93436 0.16041 0.41533 0.0
C17 C 0.90766 0.126 0.40464 0.0
H18 H 0.83257 0.75182 0.45483 0.0
H19 H 0.93419 0.74854 0.45184 0.0
H20 H 0.89439 0.78815 0.40202 0.0
C21 C 0.85689 0.75744 0.44697 0.0
C22 C 0.86106 0.77233 0.42777 0.0
C23 C 0.88285 0.74837 0.45575 0.0
C24 C 0.91349 0.75438 0.44487 0.0
C25 C 0.91796 0.76841 0.42531 0.0
C26 C 0.8915 0.77739 0.41699 0.0
H27 H 0.07636 0.25215 0.5723 0.0
H28 H 0.1688 0.2325 0.57581 0.0
H29 H 0.099 0.20705 0.62571 0.0
C30 C 0.09296 0.24269 0.5807 0.0
C31 C 0.08306 0.2286 0.60005 0.0
C32 C 0.12378 0.24409 0.57182 0.0
C33 C 0.14549 0.23192 0.58279 0.0
C34 C 0.1374 0.21898 0.60248 0.0
C35 C 0.10594 0.2174 0.61081 0.0
H36 H 0.72154 0.90777 0.58406 0.0
H37 H 0.73005 0.80879 0.58898 0.0
H38 H 0.78655 0.90157 0.63576 0.0
C39 C 0.73186 0.89224 0.59247 0.0
C40 C 0.7552 0.90892 0.6108 0.0
C41 C 0.72265 0.8562 0.58451 0.0
C42 C 0.73666 0.83645 0.59524 0.0
C43 C 0.75952 0.85259 0.6139 0.0
C44 C 0.76858 0.8888 0.62154 0.0
H45 H 0.05147 0.80388 0.57057 0.0
H46 H 0.15361 0.90965 0.57612 0.0
H47 H 0.08739 0.8756 0.62733 0.0
C48 C 0.07158 0.82946 0.57973 0.0
C49 C 0.06554 0.83628 0.60015 0.0
C50 C 0.10321 0.85598 0.57093 0.0
C51 C 0.12926 0.88909 0.58286 0.0
C52 C 0.12383 0.89622 0.60325 0.0
C53 C 0.09192 0.86976 0.61171 0.0
H54 H 0.95569 0.53908 0.78365 0.0
H55 H 0.9658 0.44057 0.77665 0.0
H56 H 0.91667 0.46961 0.72621 0.0
C57 C 0.95151 0.51467 0.77422 0.0
C58 C 0.93434 0.50699 0.75402 0.0
C59 C 0.96312 0.49097 0.78245 0.0
C60 C 0.95831 0.45979 0.77006 0.0
C61 C 0.94176 0.45196 0.7497 0.0
C62 C 0.93007 0.47587 0.74178 0.0
H63 H 0.49172 0.42932 0.7729 0.0
H64 H 0.59339 0.53221 0.76816 0.0
H65 H 0.55698 0.43883 0.72239 0.0
C66 C 0.51602 0.44567 0.76479 0.0
C67 C 0.52124 0.42974 0.74669 0.0
C68 C 0.54195 0.48245 0.77268 0.0
C69 C 0.5735 0.50366 0.76219 0.0
C70 C 0.57855 0.48834 0.74361 0.0
C71 C 0.55243 0.4513 0.73616 0.0
H72 H 0.50801 0.07864 0.78451 0.0
H73 H 0.61562 0.08764 0.78421 0.0
H74 H 0.57742 0.13177 0.73617 0.0
C75 C 0.53396 0.08836 0.77754 0.0
C76 C 0.53904 0.10614 0.75918 0.0
C77 C 0.56152 0.08203 0.78686 0.0
C78 C 0.59443 0.09277 0.7772 0.0
C79 C 0.60037 0.11038 0.7587 0.0
C80 C 0.57248 0.11701 0.74991 0.0
H81 H 0.74155 0.58463 0.90777 0.0
H82 H 0.84512 0.58502 0.91474 0.0
H83 H 0.77043 0.54558 0.96217 0.0
C84 C 0.76043 0.57867 0.91677 0.0
C85 C 0.75095 0.56349 0.93591 0.0
C86 C 0.79399 0.58589 0.90888 0.0
C87 C 0.81915 0.57928 0.92074 0.0
C88 C 0.8114 0.5656 0.94022 0.0
C89 C 0.77689 0.55709 0.94747 0.0
H90 H 0.39671 0.23533 0.91578 0.0
H91 H 0.39627 0.1312 0.91514 0.0
H92 H 0.42309 0.20064 0.9722 0.0
C93 C 0.40007 0.21485 0.92397 0.0
C94 C 0.41109 0.22207 0.94525 0.0
C95 C 0.39435 0.18196 0.91306 0.0
C96 C 0.39972 0.15606 0.9237 0.0
C97 C 0.4099 0.16221 0.94512 0.0
C98 C 0.41506 0.19524 0.95577 0.0
H99 H 0.72292 0.14024 0.90718 0.0
H100 H 0.8207 0.24766 0.90586 0.0
H101 H 0.76458 0.22011 0.96101 0.0
C102 C 0.74297 0.16736 0.91494 0.0
C103 C 0.73975 0.17674 0.93557 0.0
C104 C 0.77248 0.19256 0.90429 0.0
C105 C 0.79803 0.22805 0.91407 0.0
C106 C 0.79511 0.23837 0.93439 0.0
C107 C 0.76621 0.21243 0.94513 0.0
H108 H 0.6374 0.87116 0.10952 0.0
H109 H 0.63452 0.76578 0.10887 0.0
H110 H 0.59596 0.79531 0.05426 0.0
C111 C 0.63133 0.84503 0.10123 0.0
C112 C 0.61551 0.83629 0.08063 0.0
C113 C 0.639 0.82007 0.11134 0.0
C114 C 0.63021 0.78581 0.10079 0.0
C115 C 0.61426 0.7764 0.08029 0.0
C116 C 0.60738 0.80199 0.07025 0.0
H117 H 0.16625 0.76559 0.10874 0.0
H118 H 0.27435 0.86436 0.11483 0.0
H119 H 0.24295 0.78222 0.0632 0.0
C120 C 0.19328 0.7819 0.10307 0.0
C121 C 0.20108 0.7694 0.08451 0.0
C122 C 0.21972 0.81568 0.11434 0.0
C123 C 0.25399 0.83807 0.10635 0.0
C124 C 0.26232 0.82653 0.08763 0.0
C125 C 0.23586 0.79198 0.07703 0.0
H126 H 0.17971 0.42325 0.11897 0.0
H127 H 0.28187 0.42208 0.11355 0.0
H128 H 0.24155 0.4665 0.06664 0.0
C129 C 0.20342 0.42909 0.11047 0.0
C130 C 0.20696 0.44541 0.09172 0.0
C131 C 0.2304 0.42087 0.1186 0.0
C132 C 0.26124 0.42889 0.10753 0.0
C133 C 0.26561 0.44525 0.0887 0.0
C134 C 0.23802 0.45302 0.0808 0.0
H135 H 0.39332 0.91076 0.24448 0.0
H136 H 0.49362 0.90373 0.24881 0.0
H137 H 0.41647 0.86015 0.29496 0.0
C138 C 0.41126 0.90237 0.25247 0.0
C139 C 0.40062 0.88438 0.27068 0.0
C140 C 0.44479 0.90955 0.24441 0.0
C141 C 0.46785 0.89843 0.25491 0.0
C142 C 0.45799 0.88069 0.27325 0.0
C143 C 0.42434 0.87388 0.28093 0.0
H144 H 0.01803 0.54827 0.26567 0.0
H145 H 0.02963 0.45043 0.26483 0.0
H146 H 0.07437 0.53097 0.3178 0.0
C147 C 0.02776 0.53154 0.27326 0.0
C148 C 0.0469 0.54395 0.29308 0.0
C149 C 0.02206 0.49829 0.26278 0.0
C150 C 0.03348 0.47593 0.27287 0.0
C151 C 0.05153 0.48722 0.29296 0.0
C152 C 0.05823 0.52123 0.30289 0.0
H153 H 0.39563 0.47041 0.23778 0.0
H154 H 0.49479 0.57598 0.23536 0.0
H155 H 0.44471 0.54754 0.29246 0.0
C156 C 0.41706 0.49699 0.24549 0.0
C157 C 0.41587 0.50629 0.26646 0.0
C158 C 0.44622 0.52158 0.23445 0.0
C159 C 0.47343 0.55637 0.24425 0.0
C160 C 0.47332 0.56624 0.26514 0.0
C161 C 0.44441 0.54088 0.27616 0.0
Tb162 Tb 0.49597 0.97742 0.99213 0.0
Eu163 Eu 0.52252 0.01977 0.04018 0.0
C164 C 0.53272 0.95095 0.02509 0.0
C165 C 0.44244 0.9468 0.02768 0.0
C166 C 0.49268 0.96973 0.93532 0.0
C167 C 0.49486 0.96559 0.89807 0.0
C168 C 0.48532 0.94826 0.91646 0.0
C169 C 0.5103 0.00886 0.93559 0.0
C170 C 0.51963 0.02617 0.91724 0.0
C171 C 0.51176 0.00477 0.89819 0.0
C172 C 0.48182 0.95143 0.95464 0.0
O173 O 0.4932 0.02828 0.99071 0.0
O174 O 0.48988 0.0435 0.02478 0.0
O175 O 0.56265 0.06166 0.02029 0.0
O176 O 0.55554 0.01803 0.9944 0.0
C177 C 0.48547 0.04629 1.005 0.0
O178 O 0.50941 0.04055 0.0681 0.0
O179 O 0.56153 0.04046 0.06811 0.0
O180 O 0.54965 0.98504 0.0343 0.0
O181 O 0.50466 0.93976 1.01087 0.0
O182 O 0.44499 0.95254 1.008 0.0
O183 O 0.4716 0.96373 0.04132 0.0
C184 C 0.57352 0.05232 1.00353 0.0
O185 O 0.50883 0.95339 0.96687 0.0
O186 O 0.4597 0.95873 0.96487 0.0
C187 C 0.53052 0.02615 0.09862 0.0
C188 C 0.51138 0.99042 0.13553 0.0
C189 C 0.52897 0.02969 0.1359 0.0
C190 C 0.53841 0.04734 0.11763 0.0
C191 C 0.5131 0.98701 0.09814 0.0
C192 C 0.50369 0.96934 0.11638 0.0
C193 C 0.5385 0.0447 0.0793 0.0
H194 H 0.48812 0.94823 0.8837 0.0
H195 H 0.47185 0.91804 0.91592 0.0
H196 H 0.51661 0.02604 0.94999 0.0
H197 H 0.53309 0.0564 0.91798 0.0
H198 H 0.53572 0.04686 0.15034 0.0
H199 H 0.55163 0.07756 0.11832 0.0
H200 H 0.50635 0.97008 0.08359 0.0
H201 H 0.48972 0.93907 0.11541 0.0
Tb202 Tb 0.01593 0.50597 1.0006 0.0
Eu203 Eu 0.97383 0.47934 0.04274 0.0
C204 C 0.043 0.56195 0.04086 0.0
C205 C 0.04899 0.47841 0.0361 0.0
C206 C 0.03438 0.52402 0.94623 0.0
C207 C 0.04884 0.539 0.91133 0.0
C208 C 0.06061 0.54054 0.93201 0.0
C209 C 0.99619 0.50628 0.93972 0.0
C210 C 0.98436 0.50465 0.91903 0.0
C211 C 0.01058 0.52081 0.90458 0.0
C212 C 0.04712 0.52513 0.96775 0.0
O213 O 0.96401 0.45382 0.99123 0.0
O214 O 0.95805 0.42786 0.02181 0.0
O215 O 0.93306 0.48311 0.0198 0.0
O216 O 0.97566 0.52546 1.00023 0.0
C217 C 0.94991 0.42443 1.00185 0.0
O218 O 0.95469 0.44018 0.06632 0.0
O219 O 0.94145 0.48483 0.0665 0.0
O220 O 0.01101 0.54164 0.04841 0.0
O221 O 0.05254 0.5499 0.02453 0.0
O222 O 0.04083 0.47695 0.01618 0.0
O223 O 0.03095 0.48623 0.04962 0.0
C224 C 0.94183 0.50774 1.00615 0.0
O225 O 0.04324 0.54774 0.98075 0.0
O226 O 0.03643 0.4927 0.97474 0.0
C227 C 0.95228 0.46663 0.09848 0.0
C228 C 0.9743 0.48303 0.14107 0.0
C229 C 0.93678 0.4583 0.1338 0.0
C230 C 0.92589 0.45019 0.11264 0.0
C231 C 0.98971 0.4913 0.10558 0.0
C232 C 1.00066 0.49943 0.12671 0.0
C233 C 0.9407 0.45779 0.07634 0.0
H234 H 0.06968 0.55217 0.90063 0.0
H235 H 0.0902 0.5545 0.93688 0.0
H236 H 0.97561 0.49341 0.9506 0.0
H237 H 0.95472 0.49009 0.91427 0.0
H238 H 0.91577 0.44561 0.14446 0.0
H239 H 0.89685 0.43112 0.10734 0.0
H240 H 0.01045 0.50414 0.09477 0.0
H241 H 0.02983 0.51819 0.1318 0.0
Tb242 Tb 0.51187 0.49116 0.0268 0.0
Eu243 Eu 0.4868 0.51209 0.98257 0.0
C244 C 0.48213 0.43415 0.98701 0.0
C245 C 0.56832 0.52007 0.99276 0.0
C246 C 0.51909 0.47988 0.08276 0.0
C247 C 0.52712 0.47367 0.11919 0.0
C248 C 0.53392 0.46861 0.09886 0.0
C249 C 0.49718 0.49616 0.08716 0.0
C250 C 0.49013 0.50102 0.10749 0.0
C251 C 0.5052 0.48998 0.12375 0.0
C252 C 0.52572 0.47349 0.06142 0.0
O253 O 0.53635 0.55198 0.02941 0.0
O254 O 0.49596 0.55765 1.00626 0.0
O255 O 0.43444 0.48163 0.99919 0.0
O256 O 0.46386 0.49739 0.03191 0.0
C257 C 0.52164 0.57128 0.02191 0.0
O258 O 0.49512 0.55314 0.96072 0.0
O259 O 0.45127 0.49541 0.95359 0.0
O260 O 0.49233 0.4618 0.97542 0.0
O261 O 0.47992 0.43885 1.00684 0.0
O262 O 0.55622 0.49842 1.0079 0.0
O263 O 0.54868 0.53305 0.98338 0.0
C264 C 0.43354 0.48522 0.01931 0.0
O265 O 0.49591 0.45238 0.04895 0.0
O266 O 0.54947 0.50283 0.05292 0.0
C267 C 0.4852 0.52751 0.92646 0.0
C268 C 0.5138 0.52753 0.88818 0.0
C269 C 0.49218 0.54478 0.89131 0.0
C270 C 0.47801 0.54474 0.91029 0.0
C271 C 0.50714 0.51073 0.92357 0.0
C272 C 0.52123 0.51066 0.90462 0.0
C273 C 0.47092 0.52799 0.94654 0.0
H274 H 0.5388 0.46454 0.13134 0.0
H275 H 0.55067 0.45576 0.09571 0.0
H276 H 0.48561 0.50513 0.07488 0.0
H277 H 0.4735 0.51404 0.11052 0.0
H278 H 0.48636 0.5585 0.87912 0.0
H279 H 0.46152 0.55822 0.91235 0.0
H280 H 0.51323 0.49752 0.93597 0.0
H281 H 0.5373 0.49668 0.90273 0.0
Tb282 Tb 0.16974 0.31157 0.32116 0.0
Eu283 Eu 0.19021 0.35745 0.36848 0.0
C284 C 0.20588 0.28942 0.35699 0.0
C285 C 0.11458 0.28018 0.35619 0.0
C286 C 0.16389 0.2968 0.26389 0.0
C287 C 0.15257 0.28535 0.22656 0.0
C288 C 0.14657 0.27212 0.24608 0.0
C289 C 0.18784 0.33498 0.26195 0.0
C290 C 0.19396 0.34827 0.24238 0.0
C291 C 0.17604 0.32365 0.22443 0.0
C292 C 0.15559 0.2825 0.2843 0.0
O293 O 0.16972 0.36342 0.31812 0.0
O294 O 0.15235 0.37185 0.34968 0.0
O295 O 0.23292 0.39715 0.34859 0.0
O296 O 0.22924 0.35195 0.3248 0.0
C297 C 0.15385 0.37685 0.32997 0.0
O298 O 0.17313 0.38011 0.39397 0.0
O299 O 0.22658 0.3828 0.39727 0.0
O300 O 0.21724 0.32178 0.36758 0.0
O301 O 0.18163 0.27725 0.34063 0.0
O302 O 0.11824 0.28383 0.33639 0.0
O303 O 0.14164 0.30067 0.37056 0.0
C304 C 0.24629 0.38666 0.33335 0.0
O305 O 0.18388 0.28741 0.29659 0.0
O306 O 0.1333 0.29034 0.29399 0.0
C307 C 0.19319 0.37201 0.42696 0.0
C308 C 0.17369 0.34371 0.46588 0.0
C309 C 0.19422 0.38255 0.46413 0.0
C310 C 0.20379 0.39648 0.44491 0.0
C311 C 0.17318 0.33324 0.42856 0.0
C312 C 0.16358 0.31923 0.44779 0.0
C313 C 0.20179 0.38715 0.40663 0.0
H314 H 0.13875 0.26552 0.21311 0.0
H315 H 0.12803 0.24257 0.24727 0.0
H316 H 0.20134 0.35453 0.27555 0.0
H317 H 0.21191 0.37795 0.24134 0.0
H318 H 0.20308 0.40233 0.47767 0.0
H319 H 0.21924 0.42648 0.44406 0.0
H320 H 0.16453 0.31378 0.41488 0.0
H321 H 0.14746 0.28923 0.4484 0.0
Tb322 Tb 0.68728 0.84037 0.32822 0.0
Eu323 Eu 0.64055 0.82 0.36926 0.0
C324 C 0.71139 0.89935 0.36605 0.0
C325 C 0.71146 0.80922 0.36529 0.0
C326 C 0.71156 0.85867 0.27495 0.0
C327 C 0.72807 0.87227 0.24014 0.0
C328 C 0.73852 0.87221 0.26087 0.0
C329 C 0.67408 0.8457 0.26822 0.0
C330 C 0.66358 0.84568 0.24751 0.0
C331 C 0.69043 0.85871 0.23319 0.0
C332 C 0.72253 0.85796 0.29658 0.0
O333 O 0.63431 0.79049 0.31747 0.0
O334 O 0.61615 0.76684 0.34858 0.0
O335 O 0.60391 0.82738 0.34523 0.0
O336 O 0.65026 0.86364 0.32516 0.0
C337 C 0.61314 0.76317 0.3284 0.0
O338 O 0.61127 0.77956 0.39111 0.0
O339 O 0.61796 0.83496 0.39524 0.0
O340 O 0.67696 0.88235 0.37091 0.0
O341 O 0.72293 0.88255 0.3532 0.0
O342 O 0.70522 0.80715 0.34519 0.0
O343 O 0.69466 0.8209 0.37766 0.0
C344 C 0.61619 0.8502 0.33062 0.0
O345 O 0.72064 0.88192 0.30954 0.0
O346 O 0.70818 0.82489 0.30328 0.0
C347 C 0.62231 0.80665 0.42488 0.0
C348 C 0.64998 0.80872 0.46564 0.0
C349 C 0.6113 0.79049 0.45999 0.0
C350 C 0.59759 0.78942 0.43973 0.0
C351 C 0.66087 0.82493 0.43041 0.0
C352 C 0.6746 0.82601 0.45062 0.0
C353 C 0.60806 0.80354 0.40336 0.0
H354 H 0.74946 0.88295 0.22955 0.0
H355 H 0.76761 0.88254 0.2659 0.0
H356 H 0.65293 0.83522 0.27897 0.0
H357 H 0.63432 0.83462 0.24262 0.0
H358 H 0.59164 0.77662 0.47116 0.0
H359 H 0.56774 0.7748 0.4356 0.0
H360 H 0.68035 0.83815 0.41905 0.0
H361 H 0.70451 0.84076 0.45453 0.0
Tb362 Tb 0.16688 0.81669 0.3659 0.0
Eu363 Eu 0.14698 0.84519 0.32281 0.0
C364 C 0.12782 0.76046 0.32663 0.0
C365 C 0.22152 0.84142 0.3307 0.0
C366 C 0.16742 0.79814 0.42039 0.0
C367 C 0.16726 0.78618 0.45642 0.0
C368 C 0.17883 0.78453 0.43685 0.0
C369 C 0.14402 0.81312 0.42361 0.0
C370 C 0.1325 0.81484 0.44315 0.0
C371 C 0.14414 0.80157 0.45982 0.0
C372 C 0.17977 0.79665 0.39989 0.0
O373 O 0.16967 0.86943 0.3746 0.0
O374 O 0.18613 0.89605 0.34432 0.0
O375 O 0.10543 0.84317 0.34455 0.0
O376 O 0.1081 0.80068 0.36501 0.0
C377 C 0.18527 0.89908 0.36437 0.0
O378 O 0.16668 0.88601 0.30003 0.0
O379 O 0.11019 0.83936 0.29573 0.0
O380 O 0.11685 0.78241 0.31878 0.0
O381 O 0.15318 0.7717 0.34238 0.0
O382 O 0.21854 0.84299 0.35067 0.0
O383 O 0.19325 0.83337 0.31729 0.0
C384 C 0.09181 0.8193 0.35863 0.0
O385 O 0.15357 0.77422 0.38568 0.0
O386 O 0.20174 0.82895 0.39325 0.0
C387 C 0.14339 0.85833 0.26578 0.0
C388 C 0.15902 0.84091 0.22621 0.0
C389 C 0.18376 0.87508 0.23775 0.0
C390 C 0.17598 0.88372 0.25724 0.0
C391 C 0.11813 0.82462 0.25401 0.0
C392 C 0.12584 0.81605 0.23449 0.0
C393 C 0.13693 0.86656 0.28716 0.0
H394 H 0.17704 0.77611 0.46898 0.0
H395 H 0.19688 0.77286 0.4346 0.0
H396 H 0.13475 0.82356 0.411 0.0
H397 H 0.11431 0.8264 0.44519 0.0
H398 H 0.20972 0.89479 0.23201 0.0
H399 H 0.19595 0.91004 0.26584 0.0
H400 H 0.09258 0.80452 0.25997 0.0
H401 H 0.10576 0.78979 0.2259 0.0
Tb402 Tb 0.81969 0.64649 0.66049 0.0
Eu403 Eu 0.85001 0.69607 0.70643 0.0
C404 C 0.85762 0.62426 0.69596 0.0
C405 C 0.77058 0.61983 0.69762 0.0
C406 C 0.81106 0.63626 0.60391 0.0
C407 C 0.8142 0.63269 0.56677 0.0
C408 C 0.80515 0.61517 0.58511 0.0
C409 C 0.82626 0.67515 0.60414 0.0
C410 C 0.83548 0.6927 0.58588 0.0
C411 C 0.8295 0.67174 0.56689 0.0
C412 C 0.80321 0.61822 0.6234 0.0
O413 O 0.7913 0.67822 0.66464 0.0
O414 O 0.83652 0.72953 0.68483 0.0
O415 O 0.89981 0.71489 0.68823 0.0
O416 O 0.86673 0.70118 0.65671 0.0
C417 C 0.80714 0.71374 0.67124 0.0
O418 O 0.84293 0.72829 0.73164 0.0
O419 O 0.88888 0.71728 0.73434 0.0
O420 O 0.8483 0.64165 0.7097 0.0
O421 O 0.85493 0.62824 0.6762 0.0
O422 O 0.78028 0.60892 0.68082 0.0
O423 O 0.78947 0.65411 0.70659 0.0
C424 C 0.89857 0.71779 0.6683 0.0
O425 O 0.83247 0.62345 0.63483 0.0
O426 O 0.78037 0.623 0.63441 0.0
C427 C 0.8584 0.71449 0.76466 0.0
C428 C 0.8376 0.68575 0.80335 0.0
C429 C 0.81481 0.69509 0.79114 0.0
C430 C 0.82507 0.70928 0.77208 0.0
C431 C 0.88141 0.70559 0.77697 0.0
C432 C 0.87109 0.69129 0.79602 0.0
C433 C 0.86885 0.72837 0.74407 0.0
H434 H 0.80876 0.61555 0.55246 0.0
H435 H 0.79363 0.58515 0.58461 0.0
H436 H 0.8313 0.69205 0.61849 0.0
H437 H 0.84775 0.72283 0.58672 0.0
H438 H 0.78865 0.69087 0.79617 0.0
H439 H 0.80662 0.71585 0.76308 0.0
H440 H 0.90741 0.70951 0.77184 0.0
H441 H 0.88964 0.68499 0.80512 0.0
Tb442 Tb 0.36113 0.16317 0.65412 0.0
Eu443 Eu 0.31632 0.149 0.69616 0.0
C444 C 0.38384 0.22769 0.68863 0.0
C445 C 0.38999 0.14056 0.69374 0.0
C446 C 0.38981 0.18381 0.60129 0.0
C447 C 0.41185 0.19872 0.56755 0.0
C448 C 0.41757 0.19228 0.5879 0.0
C449 C 0.35695 0.18352 0.5945 0.0
C450 C 0.35106 0.18963 0.57416 0.0
C451 C 0.37808 0.19644 0.56029 0.0
C452 C 0.39379 0.172 0.62161 0.0
O453 O 0.32736 0.10321 0.65646 0.0
O454 O 0.27947 0.10276 0.672 0.0
O455 O 0.29086 0.17379 0.67488 0.0
O456 O 0.31251 0.16736 0.64386 0.0
C457 C 0.29202 0.08642 0.65971 0.0
O458 O 0.28583 0.11248 0.71947 0.0
O459 O 0.29533 0.16923 0.72063 0.0
O460 O 0.37021 0.20299 0.70209 0.0
O461 O 0.37529 0.21774 0.66877 0.0
O462 O 0.39834 0.15951 0.67744 0.0
O463 O 0.35803 0.12914 0.70174 0.0
C464 C 0.29099 0.17514 0.65475 0.0
O465 O 0.40567 0.19738 0.63719 0.0
O466 O 0.36564 0.14055 0.62572 0.0
C467 C 0.29419 0.14401 0.75219 0.0
C468 C 0.31505 0.15602 0.79497 0.0
C469 C 0.27735 0.13992 0.78733 0.0
C470 C 0.26704 0.134 0.76612 0.0
C471 C 0.33181 0.15974 0.75963 0.0
C472 C 0.34217 0.1657 0.78086 0.0
C473 C 0.28306 0.13867 0.72998 0.0
H474 H 0.43348 0.20456 0.55739 0.0
H475 H 0.44316 0.19274 0.59298 0.0
H476 H 0.33518 0.17699 0.60466 0.0
H477 H 0.32454 0.18719 0.56908 0.0
H478 H 0.25574 0.13166 0.79776 0.0
H479 H 0.23787 0.12175 0.76058 0.0
H480 H 0.35314 0.16772 0.74902 0.0
H481 H 0.37147 0.17852 0.78622 0.0
Tb482 Tb 0.85762 0.17944 0.69895 0.0
Eu483 Eu 0.82462 0.18544 0.65277 0.0
C484 C 0.82078 0.11154 0.66559 0.0
C485 C 0.90863 0.19878 0.66188 0.0
C486 C 0.86491 0.17139 0.75546 0.0
C487 C 0.86693 0.15633 0.79081 0.0
C488 C 0.8785 0.15787 0.77099 0.0
C489 C 0.83838 0.18195 0.75977 0.0
C490 C 0.82675 0.18041 0.7796 0.0
C491 C 0.84158 0.16841 0.79549 0.0
C492 C 0.88025 0.17643 0.7353 0.0
O493 O 0.88215 0.23788 0.69288 0.0
O494 O 0.83324 0.23469 0.67332 0.0
O495 O 0.77477 0.15833 0.67152 0.0
O496 O 0.80567 0.17861 0.70407 0.0
C497 C 0.86283 0.25335 0.68647 0.0
O498 O 0.82707 0.21743 0.62676 0.0
O499 O 0.78503 0.15866 0.62539 0.0
O500 O 0.83144 0.13522 0.65156 0.0
O501 O 0.82082 0.12259 0.68482 0.0
O502 O 0.90004 0.18291 0.6793 0.0
O503 O 0.88636 0.20738 0.65125 0.0
C504 C 0.77469 0.16368 0.69163 0.0
O505 O 0.8642 0.14779 0.7215 0.0
O506 O 0.88726 0.20725 0.72738 0.0
C507 C 0.81282 0.1808 0.59458 0.0
C508 C 0.83364 0.1642 0.55656 0.0
C509 C 0.85853 0.19656 0.56944 0.0
C510 C 0.84831 0.20472 0.58827 0.0
C511 C 0.7877 0.14887 0.58149 0.0
C512 C 0.79804 0.14056 0.56275 0.0
C513 C 0.80225 0.1878 0.615 0.0
H514 H 0.87842 0.14637 0.8026 0.0
H515 H 0.89883 0.14941 0.76793 0.0
H516 H 0.82762 0.19259 0.748 0.0
H517 H 0.80746 0.19022 0.78267 0.0
H518 H 0.88625 0.21515 0.56517 0.0
H519 H 0.86848 0.2295 0.59798 0.0
H520 H 0.76015 0.13001 0.58589 0.0
H521 H 0.77808 0.11566 0.55304 0.0
H522 H 0.27601 0.84074 0.04759 0.0
H523 H 0.33137 0.86486 0.10911 0.0
H524 H 0.39146 0.9033 0.09588 0.0
H525 H 0.42827 0.93022 0.06711 0.0
H526 H 0.37384 0.90628 1.00533 0.0
H527 H 0.31348 0.86697 0.01841 0.0
C528 C 0.30125 0.85413 0.05809 0.0
C529 C 0.29899 0.84997 0.07938 0.0
C530 C 0.33591 0.87606 0.05033 0.0
C531 C 0.33204 0.868 0.09274 0.0
C532 C 0.36652 0.88979 0.08516 0.0
C533 C 0.40332 0.91634 0.05638 0.0
C534 C 0.40577 0.9213 0.03519 0.0
C535 C 0.36876 0.89407 0.06401 0.0
C536 C 0.37293 0.90299 0.02168 0.0
C537 C 0.33835 0.88056 0.02917 0.0
H538 H 0.17538 0.43612 0.05225 0.0
H539 H 0.17481 0.47764 0.11424 0.0
H540 H 0.12576 0.49072 0.10273 0.0
H541 H 0.08223 0.48977 0.0752 0.0
H542 H 0.08385 0.45001 0.01296 0.0
H543 H 0.13324 0.43728 0.0244 0.0
C544 C 0.16481 0.4484 0.06319 0.0
C545 C 0.17859 0.45542 0.08414 0.0
C546 C 0.1366 0.45613 0.05645 0.0
C547 C 0.16429 0.47117 0.0981 0.0
C548 C 0.1363 0.47887 0.09152 0.0
C549 C 0.0933 0.47824 0.06413 0.0
C550 C 0.07908 0.47073 0.04326 0.0
C551 C 0.12199 0.47119 0.07077 0.0
C552 C 0.09413 0.4561 0.02913 0.0
C553 C 0.12245 0.44877 0.03565 0.0
H554 H 0.55094 0.73035 0.05544 0.0
H555 H 0.65287 0.73841 0.08183 0.0
H556 H 0.63277 0.67526 0.06663 0.0
H557 H 0.58591 0.61746 0.04609 0.0
H558 H 0.48532 0.61083 0.01857 0.0
H559 H 0.50552 0.67391 0.03377 0.0
C560 C 0.56908 0.71859 0.05759 0.0
C561 C 0.6033 0.73909 0.06982 0.0
C562 C 0.55755 0.68244 0.04867 0.0
C563 C 0.62613 0.72306 0.07273 0.0
C564 C 0.61473 0.68699 0.06399 0.0
C565 C 0.56839 0.6298 0.04348 0.0
C566 C 0.53414 0.60944 0.03129 0.0
C567 C 0.58037 0.66632 0.05206 0.0
C568 C 0.5119 0.62594 0.02785 0.0
C569 C 0.52339 0.66201 0.03655 0.0
H570 H 0.83165 0.25577 0.97285 0.0
H571 H 0.82155 0.30556 0.91813 0.0
H572 H 0.86954 0.3673 0.93372 0.0
H573 H 0.91424 0.40729 0.96302 0.0
H574 H 0.92336 0.35724 0.01794 0.0
H575 H 0.87594 0.2957 1.00217 0.0
C576 C 0.83965 0.2802 0.96444 0.0
C577 C 0.82303 0.27605 0.94437 0.0
C578 C 0.86726 0.31562 0.97349 0.0
C579 C 0.83416 0.30794 0.93354 0.0
C580 C 0.86154 0.34327 0.94245 0.0
C581 C 0.90603 0.3829 0.97149 0.0
C582 C 0.92243 0.38698 0.99163 0.0
C583 C 0.8784 0.34745 0.9624 0.0
C584 C 0.91121 0.35503 1.00242 0.0
C585 C 0.88401 0.31974 0.99344 0.0
H586 H 0.73325 0.56442 0.97612 0.0
H587 H 0.68382 0.54028 0.91304 0.0
H588 H 0.6247 0.52775 0.92498 0.0
H589 H 0.58591 0.52233 0.95327 0.0
H590 H 0.63242 0.53773 0.01614 0.0
H591 H 0.69325 0.55381 1.00432 0.0
C592 C 0.7096 0.55579 0.96485 0.0
C593 C 0.71395 0.55415 0.94355 0.0
C594 C 0.67478 0.54679 0.97182 0.0
C595 C 0.68241 0.5433 0.92948 0.0
C596 C 0.64814 0.53558 0.93629 0.0
C597 C 0.60946 0.52933 0.96435 0.0
C598 C 0.60489 0.52927 0.98554 0.0
C599 C 0.64398 0.53732 0.95741 0.0
C600 C 0.63534 0.53765 0.99975 0.0
C601 C 0.67011 0.5469 0.99298 0.0
H602 H 0.46142 0.17684 0.9778 0.0
H603 H 0.37372 0.08565 0.93725 0.0
H604 H 0.38956 0.04205 0.95225 0.0
H605 H 0.43019 0.03007 0.97574 0.0
H606 H 0.51272 0.11921 0.01895 0.0
H607 H 0.4961 0.16331 1.00449 0.0
C608 C 0.44497 0.14736 0.97251 0.0
C609 C 0.41683 0.13498 0.956 0.0
C610 C 0.45326 0.12202 0.98173 0.0
C611 C 0.3964 0.09649 0.94937 0.0
C612 C 0.40516 0.07133 0.95809 0.0
C613 C 0.44414 0.05911 0.98209 0.0
C614 C 0.47269 0.07172 0.99819 0.0
C615 C 0.43391 0.08389 0.97402 0.0
C616 C 0.49051 0.10911 1.00656 0.0
C617 C 0.48116 0.13425 0.99823 0.0
H618 H 0.70143 0.18994 0.96493 0.0
H619 H 0.71008 0.10053 0.93296 0.0
H620 H 0.66011 0.05488 0.95117 0.0
H621 H 0.61359 0.03985 0.9759 0.0
H622 H 0.60695 0.12879 1.00963 0.0
H623 H 0.65744 0.17511 0.99151 0.0
C624 C 0.6929 0.16057 0.96211 0.0
C625 C 0.70953 0.14898 0.94726 0.0
C626 C 0.66466 0.13428 0.97311 0.0
C627 C 0.69738 0.11053 0.94377 0.0
C628 C 0.66897 0.08427 0.95438 0.0
C629 C 0.62328 0.06938 0.97941 0.0
C630 C 0.6064 0.08078 0.9941 0.0
C631 C 0.65232 0.0958 0.969 0.0
C632 C 0.61957 0.11921 0.99851 0.0
C633 C 0.6483 0.1457 0.98805 0.0
H634 H 0.8004 0.5092 0.96472 0.0
H635 H 0.88707 0.61174 0.9445 0.0
H636 H 0.93445 0.60289 0.96289 0.0
H637 H 0.95188 0.56565 0.98406 0.0
H638 H 0.86592 0.46479 1.00596 0.0
H639 H 0.81795 0.47388 0.98798 0.0
C640 C 0.82959 0.52992 0.96455 0.0
C641 C 0.83988 0.5608 0.95284 0.0
C642 C 0.85701 0.52504 0.97552 0.0
C643 C 0.87808 0.58713 0.95282 0.0
C644 C 0.90534 0.58229 0.9635 0.0
C645 C 0.92266 0.54568 0.98499 0.0
C646 C 0.91264 0.51449 0.99631 0.0
C647 C 0.8952 0.55118 0.97472 0.0
C648 C 0.87455 0.48913 0.99744 0.0
C649 C 0.84704 0.49424 0.98708 0.0
H650 H 0.45135 0.29046 0.93168 0.0
H651 H 0.39352 0.23607 0.98347 0.0
H652 H 0.4116 0.29701 1.00148 0.0
H653 H 0.44327 0.36597 1.00216 0.0
H654 H 0.49906 0.41899 0.94945 0.0
H655 H 0.48194 0.35831 0.93211 0.0
C656 C 0.44219 0.29183 0.94678 0.0
C657 C 0.42089 0.25875 0.95614 0.0
C658 C 0.45237 0.32676 0.95691 0.0
C659 C 0.41012 0.26115 0.97596 0.0
C660 C 0.42034 0.29597 0.98623 0.0
C661 C 0.45179 0.3642 0.98693 0.0
C662 C 0.47235 0.39699 0.97713 0.0
C663 C 0.44149 0.329 0.97685 0.0
C664 C 0.48303 0.39422 0.95733 0.0
C665 C 0.47329 0.35951 0.94737 0.0
H666 H 0.15128 0.7052 0.10062 0.0
H667 H 0.18749 0.7502 0.04256 0.0
H668 H 0.14332 0.68983 0.02416 0.0
H669 H 0.09357 0.62416 0.02437 0.0
H670 H 0.05298 0.58168 0.0821 0.0
H671 H 0.09894 0.64154 0.10071 0.0
C672 C 0.1492 0.7023 0.08392 0.0
C673 C 0.17317 0.73261 0.07315 0.0
C674 C 0.12271 0.66786 0.07331 0.0
C675 C 0.17025 0.72744 0.05146 0.0
C676 C 0.14466 0.69291 0.04083 0.0
C677 C 0.09486 0.62812 0.04103 0.0
C678 C 0.07009 0.59861 0.05188 0.0
C679 C 0.12077 0.66291 0.05159 0.0
C680 C 0.07166 0.6041 0.07342 0.0
C681 C 0.09801 0.63826 0.08406 0.0
H682 H 0.27229 0.43699 0.04719 0.0
H683 H 0.33702 0.47819 0.10643 0.0
H684 H 0.39374 0.49398 0.09018 0.0
H685 H 0.42515 0.49573 0.0596 0.0
H686 H 0.36237 0.45538 0.99985 0.0
H687 H 0.30491 0.44018 0.01582 0.0
C688 C 0.29885 0.44969 0.0565 0.0
C689 C 0.30012 0.45591 0.0781 0.0
C690 C 0.33177 0.45894 0.04698 0.0
C691 C 0.3349 0.47229 0.08988 0.0
C692 C 0.36749 0.4816 0.08058 0.0
C693 C 0.39901 0.48359 0.04994 0.0
C694 C 0.39829 0.47662 0.02848 0.0
C695 C 0.36624 0.47485 0.0592 0.0
C696 C 0.36392 0.46108 0.01638 0.0
C697 C 0.331 0.45233 0.02553 0.0
H698 H 0.55419 0.81915 0.05452 0.0
H699 H 0.65705 0.91274 0.08326 0.0
H700 H 0.64083 0.95616 0.06814 0.0
H701 H 0.59672 0.9677 0.0478 0.0
H702 H 0.49479 0.87453 0.018 0.0
H703 H 0.51197 0.83077 0.03206 0.0
C704 C 0.57341 0.84902 0.0572 0.0
C705 C 0.60666 0.86257 0.07021 0.0
C706 C 0.56415 0.87391 0.04824 0.0
C707 C 0.63092 0.90145 0.0737 0.0
C708 C 0.6218 0.92635 0.06494 0.0
C709 C 0.57829 0.93781 0.04427 0.0
C710 C 0.54439 0.9244 0.03199 0.0
C711 C 0.58831 0.9129 0.0524 0.0
C712 C 0.52107 0.88561 0.02739 0.0
C713 C 0.53081 0.86057 0.0355 0.0
H714 H 0.97116 0.14602 0.38531 0.0
H715 H 0.97275 0.23743 0.42194 0.0
H716 H 0.02839 0.28173 0.40704 0.0
H717 H 0.07749 0.29496 0.38405 0.0
H718 H 0.07172 0.20546 0.34409 0.0
H719 H 0.01564 0.16002 0.35923 0.0
C720 C 0.98286 0.17559 0.3898 0.0
C721 C 0.96755 0.1878 0.4052 0.0
C722 C 0.014 0.20141 0.38039 0.0
C723 C 0.98421 0.22656 0.41081 0.0
C724 C 0.01592 0.2522 0.40206 0.0
C725 C 0.06359 0.2655 0.37853 0.0
C726 C 0.07849 0.2533 0.36312 0.0
C727 C 0.03118 0.23992 0.38697 0.0
C728 C 0.0604 0.2153 0.35589 0.0
C729 C 0.02859 0.18942 0.36464 0.0
H730 H 0.83046 0.75981 0.38785 0.0
H731 H 0.82869 0.80682 0.44815 0.0
H732 H 0.78155 0.82108 0.43446 0.0
H733 H 0.741 0.82075 0.40531 0.0
H734 H 0.7443 0.77551 0.34478 0.0
H735 H 0.79076 0.76047 0.35859 0.0
C736 C 0.82012 0.77358 0.39796 0.0
C737 C 0.83316 0.78207 0.41904 0.0
C738 C 0.79315 0.78203 0.38995 0.0
C739 C 0.81887 0.79942 0.43193 0.0
C740 C 0.79198 0.80778 0.4241 0.0
C741 C 0.75175 0.80747 0.39513 0.0
C742 C 0.739 0.79926 0.37402 0.0
C743 C 0.77883 0.79914 0.40314 0.0
C744 C 0.75353 0.78224 0.36109 0.0
C745 C 0.78018 0.7736 0.36897 0.0
H746 H 0.24913 0.04574 0.42517 0.0
H747 H 0.28435 0.0969 0.3686 0.0
H748 H 0.25672 0.03515 0.34954 0.0
H749 H 0.222 0.96676 0.34893 0.0
H750 H 0.18665 0.91561 0.4056 0.0
H751 H 0.21506 0.97724 0.42462 0.0
C752 C 0.25115 0.04331 0.40872 0.0
C753 C 0.26881 0.07573 0.3983 0.0
C754 C 0.23504 0.00778 0.39786 0.0
C755 C 0.27067 0.07225 0.37691 0.0
C756 C 0.25494 0.03701 0.36603 0.0
C757 C 0.22044 0.96904 0.36543 0.0
C758 C 0.20213 0.93657 0.37577 0.0
C759 C 0.23686 0.00458 0.37632 0.0
C760 C 0.20051 0.94011 0.3972 0.0
C761 C 0.2168 0.97537 0.40813 0.0
H762 H 0.46866 0.61229 0.29515 0.0
H763 H 0.54737 0.60274 0.2582 0.0
H764 H 0.59653 0.66402 0.27304 0.0
H765 H 0.61796 0.72044 0.29706 0.0
H766 H 0.54129 0.72651 0.33685 0.0
H767 H 0.49082 0.66647 0.3206 0.0
C768 C 0.49663 0.62322 0.29052 0.0
C769 C 0.50384 0.60285 0.27528 0.0
C770 C 0.52529 0.65807 0.29964 0.0
C771 C 0.54043 0.61802 0.26943 0.0
C772 C 0.56881 0.65305 0.27804 0.0
C773 C 0.59009 0.70855 0.30201 0.0
C774 C 0.58305 0.72768 0.31793 0.0
C775 C 0.56157 0.67342 0.29311 0.0
C776 C 0.54714 0.71202 0.32456 0.0
C777 C 0.51835 0.67776 0.31531 0.0
H778 H 0.38616 0.88846 0.31098 0.0
H779 H 0.33309 0.86035 0.24871 0.0
H780 H 0.27365 0.84498 0.26176 0.0
H781 H 0.23636 0.83847 0.2907 0.0
H782 H 0.28853 0.86432 0.35309 0.0
H783 H 0.3484 0.88065 0.34008 0.0
C784 C 0.36157 0.8786 0.30022 0.0
C785 C 0.36441 0.87574 0.27882 0.0
C786 C 0.32715 0.86908 0.30785 0.0
C787 C 0.33215 0.86354 0.26521 0.0
C788 C 0.29796 0.85437 0.27267 0.0
C789 C 0.26074 0.84756 0.30153 0.0
C790 C 0.25775 0.85008 0.32291 0.0
C791 C 0.2951 0.85692 0.29395 0.0
C792 C 0.28983 0.86197 0.33659 0.0
C793 C 0.32416 0.87143 0.32914 0.0
H794 H 0.09212 0.45991 0.27589 0.0
H795 H 0.0461 0.4672 0.33241 0.0
H796 H 0.07438 0.43431 0.34922 0.0
H797 H 0.11246 0.40365 0.34771 0.0
H798 H 0.15831 0.39716 0.29079 0.0
H799 H 0.12974 0.42948 0.27433 0.0
C800 C 0.08784 0.45381 0.2918 0.0
C801 C 0.06683 0.46558 0.30286 0.0
C802 C 0.10436 0.43527 0.30134 0.0
C803 C 0.06223 0.45834 0.32362 0.0
C804 C 0.07837 0.43958 0.33321 0.0
C805 C 0.11633 0.40946 0.33174 0.0
C806 C 0.13753 0.39797 0.32057 0.0
C807 C 0.09966 0.42805 0.32224 0.0
C808 C 0.14213 0.40562 0.29983 0.0
C809 C 0.12575 0.42408 0.29033 0.0
H810 H 0.37988 0.52182 0.2962 0.0
H811 H 0.38374 0.42996 0.26381 0.0
H812 H 0.3328 0.38557 0.28204 0.0
H813 H 0.2863 0.37239 0.30645 0.0
H814 H 0.28278 0.46346 0.3399 0.0
H815 H 0.33523 0.50856 0.32241 0.0
C816 C 0.36996 0.49214 0.29329 0.0
C817 C 0.38553 0.47943 0.27835 0.0
C818 C 0.34085 0.46656 0.30412 0.0
C819 C 0.37186 0.44071 0.27476 0.0
C820 C 0.34288 0.41521 0.28534 0.0
C821 C 0.29705 0.40211 0.31008 0.0
C822 C 0.28041 0.41443 0.32446 0.0
C823 C 0.32699 0.42779 0.29991 0.0
C824 C 0.29505 0.45311 0.32898 0.0
C825 C 0.32494 0.47893 0.31888 0.0
H826 H 0.53425 0.91866 0.27925 0.0
H827 H 0.4375 0.81692 0.29278 0.0
H828 H 0.47742 0.79961 0.31262 0.0
H829 H 0.54006 0.81286 0.32594 0.0
H830 H 0.63675 0.91254 0.3104 0.0
H831 H 0.59669 0.93072 0.29138 0.0
C832 C 0.52182 0.89244 0.28627 0.0
C833 C 0.48274 0.86938 0.28457 0.0
C834 C 0.545 0.88222 0.29739 0.0
C835 C 0.46736 0.83573 0.29412 0.0
C836 C 0.49021 0.82562 0.3054 0.0
C837 C 0.55231 0.83869 0.31852 0.0
C838 C 0.59134 0.86141 0.31974 0.0
C839 C 0.52908 0.8487 0.30722 0.0
C840 C 0.60679 0.8945 0.30973 0.0
C841 C 0.5839 0.90495 0.29883 0.0
H842 H 0.06744 0.60726 0.27362 0.0
H843 H 0.05274 0.56697 0.33413 0.0
H844 H 0.0779 0.63073 0.34982 0.0
H845 H 0.10546 0.69821 0.34637 0.0
H846 H 0.11357 0.7371 0.28584 0.0
H847 H 0.08859 0.67314 0.27002 0.0
C848 C 0.06868 0.612 0.29021 0.0
C849 C 0.05834 0.58209 0.30262 0.0
C850 C 0.08212 0.64852 0.29912 0.0
C851 C 0.06118 0.5894 0.32416 0.0
C852 C 0.07537 0.62585 0.33317 0.0
C853 C 0.10166 0.69249 0.32972 0.0
C854 C 0.11161 0.72198 0.3172 0.0
C855 C 0.08634 0.65565 0.3208 0.0
C856 C 0.10606 0.71457 0.29568 0.0
C857 C 0.09188 0.67813 0.28668 0.0
H858 H 0.80095 0.06088 0.41334 0.0
H859 H 0.8933 0.05474 0.38989 0.0
H860 H 0.85035 0.99296 0.37236 0.0
H861 H 0.78672 0.93973 0.36455 0.0
H862 H 0.69485 0.94505 0.38935 0.0
H863 H 0.73757 0.0077 0.40576 0.0
C864 C 0.81177 0.04593 0.40456 0.0
C865 C 0.85036 0.06254 0.40298 0.0
C866 C 0.78701 0.0101 0.39483 0.0
C867 C 0.86371 0.04294 0.39117 0.0
C868 C 0.83919 0.00744 0.38125 0.0
C869 C 0.77601 0.95462 0.37349 0.0
C870 C 0.73761 0.9376 0.37571 0.0
C871 C 0.8008 0.99064 0.38307 0.0
C872 C 0.72428 0.95732 0.38743 0.0
C873 C 0.74869 0.99324 0.39682 0.0
H874 H 0.95832 0.82277 0.39969 0.0
H875 H 0.94928 0.72339 0.42383 0.0
H876 H 1.00156 0.7305 0.40553 0.0
H877 H 0.05012 0.76461 0.38283 0.0
H878 H 0.05776 0.86195 0.35692 0.0
H879 H 0.0051 0.85514 0.37525 0.0
C880 C 0.96732 0.80229 0.40078 0.0
C881 C 0.94974 0.77278 0.41349 0.0
C882 C 0.99711 0.80597 0.38973 0.0
C883 C 0.96255 0.74698 0.41473 0.0
C884 C 0.99235 0.75077 0.40406 0.0
C885 C 0.04025 0.78432 0.38106 0.0
C886 C 0.05808 0.81383 0.36847 0.0
C887 C 0.00992 0.78019 0.39158 0.0
C888 C 0.04458 0.83887 0.36638 0.0
C889 C 0.01453 0.83508 0.37696 0.0
H890 H 0.27263 0.18418 0.37226 0.0
H891 H 0.27417 0.22239 0.43551 0.0
H892 H 0.25094 0.26261 0.42388 0.0
H893 H 0.2275 0.28509 0.39599 0.0
H894 H 0.21862 0.24155 0.33312 0.0
H895 H 0.24609 0.20413 0.34447 0.0
C896 C 0.26752 0.20089 0.38358 0.0
C897 C 0.27564 0.20028 0.40476 0.0
C898 C 0.25234 0.22268 0.37688 0.0
C899 C 0.26935 0.22287 0.41908 0.0
C900 C 0.25551 0.2456 0.41248 0.0
C901 C 0.2317 0.26745 0.3848 0.0
C902 C 0.2213 0.26606 0.3638 0.0
C903 C 0.24665 0.2455 0.39145 0.0
C904 C 0.2263 0.2428 0.34941 0.0
C905 C 0.24214 0.2216 0.35587 0.0
H906 H 0.65113 0.53286 0.75863 0.0
H907 H 0.57867 0.49273 0.70198 0.0
H908 H 0.63208 0.52658 0.68225 0.0
H909 H 0.6997 0.56976 0.68116 0.0
H910 H 0.77103 0.61187 0.73816 0.0
H911 H 0.71815 0.57498 0.75759 0.0
C912 C 0.64702 0.53182 0.742 0.0
C913 C 0.61101 0.51036 0.73183 0.0
C914 C 0.67781 0.55147 0.73074 0.0
C915 C 0.6062 0.50882 0.71019 0.0
C916 C 0.63672 0.52819 0.69887 0.0
C917 C 0.70355 0.57018 0.69777 0.0
C918 C 0.73901 0.59317 0.70825 0.0
C919 C 0.67271 0.54967 0.70896 0.0
C920 C 0.74381 0.5942 0.72982 0.0
C921 C 0.7136 0.5733 0.74095 0.0
H922 H 0.51838 0.10521 0.71825 0.0
H923 H 0.49278 0.12432 0.77943 0.0
H924 H 0.44293 0.13359 0.7648 0.0
H925 H 0.40677 0.13762 0.73453 0.0
H926 H 0.43671 0.12473 0.67367 0.0
H927 H 0.4847 0.11233 0.68826 0.0
C928 C 0.50236 0.11191 0.72848 0.0
C929 C 0.50945 0.11349 0.75001 0.0
C930 C 0.47423 0.11838 0.71998 0.0
C931 C 0.48767 0.12181 0.76281 0.0
C932 C 0.45918 0.12748 0.75446 0.0
C933 C 0.42367 0.13182 0.7245 0.0
C934 C 0.41801 0.13184 0.70304 0.0
C935 C 0.45209 0.12575 0.73306 0.0
C936 C 0.44054 0.12492 0.69025 0.0
C937 C 0.46801 0.11781 0.69858 0.0
H938 H 0.87954 0.40454 0.72432 0.0
H939 H 0.98705 0.42137 0.74733 0.0
H940 H 0.97258 0.36186 0.72913 0.0
H941 H 0.92835 0.30398 0.70797 0.0
H942 H 0.82179 0.2884 0.68405 0.0
H943 H 0.83755 0.34929 0.70087 0.0
C944 C 0.90022 0.3957 0.72502 0.0
C945 C 0.93428 0.41737 0.73728 0.0
C946 C 0.89193 0.36175 0.71434 0.0
C947 C 0.96036 0.40495 0.73829 0.0
C948 C 0.95221 0.37104 0.7278 0.0
C949 C 0.90867 0.31402 0.70631 0.0
C950 C 0.87386 0.29161 0.69491 0.0
C951 C 0.91787 0.349 0.71602 0.0
C952 C 0.8488 0.30513 0.69273 0.0
C953 C 0.85771 0.33987 0.70242 0.0
H954 H 0.19972 0.93118 0.60597 0.0
H955 H 0.10856 0.94128 0.62808 0.0
H956 H 0.15263 0.99978 0.64832 0.0
H957 H 0.2167 0.04888 0.65893 0.0
H958 H 0.30829 0.04064 0.63595 0.0
H959 H 0.26431 0.98068 0.61672 0.0
C960 C 0.18953 0.94634 0.61511 0.0
C961 C 0.1509 0.93179 0.61555 0.0
C962 C 0.21504 0.98026 0.62654 0.0
C963 C 0.13813 0.95152 0.6277 0.0
C964 C 0.1633 0.98511 0.63919 0.0
C965 C 0.22715 0.0339 0.64985 0.0
C966 C 0.26574 0.04921 0.64893 0.0
C967 C 0.20177 0.99977 0.63867 0.0
C968 C 0.27871 0.02949 0.63695 0.0
C969 C 0.25359 0.99523 0.62592 0.0
H970 H 0.0694 0.23355 0.64085 0.0
H971 H 0.01667 0.2129 0.57876 0.0
H972 H 0.95994 0.2047 0.59228 0.0
H973 H 0.92368 0.20068 0.62167 0.0
H974 H 0.97369 0.21384 0.68355 0.0
H975 H 0.03235 0.22638 0.67012 0.0
C976 C 0.04551 0.22668 0.63013 0.0
C977 C 0.04817 0.22423 0.60863 0.0
C978 C 0.01202 0.22027 0.63801 0.0
C979 C 0.01652 0.21611 0.59531 0.0
C980 C 0.9836 0.21089 0.60304 0.0
C981 C 0.94749 0.20647 0.63223 0.0
C982 C 0.94429 0.20652 0.65362 0.0
C983 C 0.98091 0.21269 0.62435 0.0
C984 C 0.97529 0.21353 0.66703 0.0
C985 C 0.0089 0.2208 0.65934 0.0
H986 H 0.72167 0.78013 0.62226 0.0
H987 H 0.8304 0.87921 0.6317 0.0
H988 H 0.85411 0.84597 0.65193 0.0
H989 H 0.84435 0.78799 0.66609 0.0
H990 H 0.73611 0.68843 0.65526 0.0
H991 H 0.7118 0.72258 0.63651 0.0
C992 C 0.75063 0.79431 0.62859 0.0
C993 C 0.77421 0.83199 0.6255 0.0
C994 C 0.76411 0.77501 0.64009 0.0
C995 C 0.81156 0.85024 0.63405 0.0
C996 C 0.82518 0.83126 0.64558 0.0
C997 C 0.81533 0.77403 0.65989 0.0
C998 C 0.79202 0.73589 0.66209 0.0
C999 C 0.8017 0.79362 0.6487 0.0
C1000 C 0.75461 0.71785 0.65371 0.0
C1001 C 0.74069 0.73729 0.64294 0.0
H1002 H 0.05918 0.81642 0.63956 0.0
H1003 H 0.99407 0.79669 0.58146 0.0
H1004 H 0.93694 0.75767 0.59735 0.0
H1005 H 0.90532 0.73193 0.62805 0.0
H1006 H 0.97023 0.75433 0.68655 0.0
H1007 H 0.02759 0.79058 0.67023 0.0
C1008 C 0.0325 0.80384 0.63036 0.0
C1009 C 0.03106 0.80976 0.60934 0.0
C1010 C 0.99968 0.78238 0.63972 0.0
C1011 C 0.99621 0.79234 0.59759 0.0
C1012 C 0.96344 0.77033 0.60672 0.0
C1013 C 0.93196 0.74476 0.63729 0.0
C1014 C 0.93337 0.74055 0.65856 0.0
C1015 C 0.96483 0.76562 0.62783 0.0
C1016 C 0.96824 0.75729 0.6702 0.0
C1017 C 1.00109 0.77792 0.66087 0.0
H1018 H 0.21271 0.24454 0.60129 0.0
H1019 H 0.11701 0.16507 0.63028 0.0
H1020 H 0.15618 0.14709 0.65 0.0
H1021 H 0.21772 0.15239 0.65871 0.0
H1022 H 0.31055 0.22462 0.62583 0.0
H1023 H 0.27218 0.24586 0.60757 0.0
C1024 C 0.19987 0.2227 0.61153 0.0
C1025 C 0.1615 0.20682 0.61419 0.0
C1026 C 0.22223 0.21089 0.62219 0.0
C1027 C 0.1464 0.17907 0.62812 0.0
C1028 C 0.1688 0.16825 0.63933 0.0
C1029 C 0.22944 0.17285 0.64757 0.0
C1030 C 0.26699 0.18723 0.64375 0.0
C1031 C 0.20677 0.18394 0.63653 0.0
C1032 C 0.28173 0.2132 0.62903 0.0
C1033 C 0.2598 0.22538 0.61861 0.0
H1034 H 0.75954 0.93777 0.65005 0.0
H1035 H 0.77869 0.96807 0.58774 0.0
H1036 H 0.80027 0.03317 0.59937 0.0
H1037 H 0.81456 0.08125 0.62695 0.0
H1038 H 0.79686 0.05264 0.68963 0.0
H1039 H 0.77427 0.98688 0.67811 0.0
C1040 C 0.76862 0.95872 0.63908 0.0
C1041 C 0.76734 0.94814 0.61806 0.0
C1042 C 0.7814 0.99624 0.6459 0.0
C1043 C 0.77881 0.97542 0.60394 0.0
C1044 C 0.79142 0.01267 0.61059 0.0
C1045 C 0.80586 0.06077 0.63819 0.0
C1046 C 0.80747 0.07184 0.65913 0.0
C1047 C 0.79292 0.02334 0.6315 0.0
C1048 C 0.79593 0.04481 0.67341 0.0
C1049 C 0.783 0.00726 0.66684 0.0
H1050 H 0.49295 0.40158 0.70708 0.0
H1051 H 0.48972 0.36943 0.76915 0.0
H1052 H 0.44621 0.30433 0.75664 0.0
H1053 H 0.41025 0.25658 0.72817 0.0
H1054 H 0.41445 0.28797 0.66585 0.0
H1055 H 0.45691 0.35342 0.6784 0.0
C1056 C 0.48292 0.38026 0.71783 0.0
C1057 C 0.49449 0.39033 0.739 0.0
C1058 C 0.45824 0.34283 0.71052 0.0
C1059 C 0.48084 0.3625 0.75281 0.0
C1060 C 0.45616 0.32524 0.74566 0.0
C1061 C 0.42033 0.27768 0.71728 0.0
C1062 C 0.40918 0.26737 0.6961 0.0
C1063 C 0.44478 0.31512 0.72456 0.0
C1064 C 0.42263 0.29513 0.68224 0.0
C1065 C 0.4469 0.33256 0.6894 0.0
H1066 H 0.61063 0.10626 0.71753 0.0
H1067 H 0.67122 0.14298 0.77798 0.0
H1068 H 0.72965 0.16237 0.76269 0.0
H1069 H 0.76387 0.16904 0.73232 0.0
H1070 H 0.70415 0.13304 0.67167 0.0
H1071 H 0.64542 0.11387 0.68686 0.0
C1072 C 0.63662 0.1188 0.72737 0.0
C1073 C 0.63617 0.12281 0.74898 0.0
C1074 C 0.67046 0.13019 0.71842 0.0
C1075 C 0.67033 0.13881 0.76139 0.0
C1076 C 0.70393 0.1502 0.75263 0.0
C1077 C 0.73812 0.1571 0.72233 0.0
C1078 C 0.73877 0.15262 0.70079 0.0
C1079 C 0.70436 0.14596 0.73118 0.0
C1080 C 0.70479 0.13695 0.68826 0.0
C1081 C 0.67107 0.12591 0.69696 0.0
H1082 H 0.93523 0.52942 0.71531 0.0
H1083 H 0.89767 0.53576 0.77503 0.0
H1084 H 0.87083 0.57248 0.76226 0.0
H1085 H 0.85728 0.60201 0.73425 0.0
H1086 H 0.89203 0.59371 0.67398 0.0
H1087 H 0.91973 0.55744 0.68677 0.0
C1088 C 0.92088 0.53853 0.72549 0.0
C1089 C 0.9188 0.53005 0.74615 0.0
C1090 C 0.90468 0.55893 0.71793 0.0
C1091 C 0.90049 0.54254 0.75918 0.0
C1092 C 0.88476 0.56323 0.75185 0.0
C1093 C 0.87086 0.59227 0.72385 0.0
C1094 C 0.87268 0.60066 0.70321 0.0
C1095 C 0.88665 0.57152 0.73127 0.0
C1096 C 0.89015 0.58755 0.68994 0.0
C1097 C 0.90613 0.56695 0.69726 0.0
H1098 H 0.47478 0.89281 0.21193 0.0
H1099 H 0.4395 0.96999 0.2334 0.0
H1100 H 0.45668 0.00149 0.20188 0.0
H1101 H 0.48156 0.0072 0.16806 0.0
H1102 H 0.51788 0.93073 0.14684 0.0
H1103 H 0.50051 0.89909 0.17831 0.0
C1104 C 0.47115 0.91673 0.20982 0.0
C1105 C 0.45575 0.92886 0.22511 0.0
C1106 C 0.48121 0.93488 0.19161 0.0
C1107 C 0.45078 0.95962 0.22186 0.0
C1108 C 0.46082 0.97785 0.20385 0.0
C1109 C 0.48605 0.98385 0.17038 0.0
C1110 C 0.50106 0.97147 0.15498 0.0
C1111 C 0.47605 0.96573 0.1886 0.0
C1112 C 0.50599 0.94068 0.15822 0.0
C1113 C 0.49624 0.92264 0.17631 0.0
H1114 H 0.04173 0.54584 0.23291 0.0
H1115 H 0.97088 0.42988 0.24293 0.0
H1116 H 0.9497 0.4149 0.2061 0.0
H1117 H 0.95233 0.43481 0.17102 0.0
H1118 H 0.02249 0.55124 0.16154 0.0
H1119 H 0.0429 0.56599 0.19831 0.0
C1120 C 0.02116 0.51737 0.22712 0.0
C1121 C 0.00766 0.48906 0.24067 0.0
C1122 C 0.00919 0.50903 0.20603 0.0
C1123 C 0.98179 0.45214 0.2328 0.0
C1124 C 0.96962 0.4436 0.21177 0.0
C1125 C 0.97176 0.46347 0.17704 0.0
C1126 C 0.98595 0.49185 0.16353 0.0
C1127 C 0.98326 0.47182 0.19824 0.0
C1128 C 0.01156 0.52877 0.17154 0.0
C1129 C 0.02308 0.53729 0.19258 0.0
H1130 H 0.50844 0.5296 0.21881 0.0
H1131 H 0.39187 0.48948 0.20183 0.0
H1132 H 0.39954 0.47563 0.16599 0.0
H1133 H 0.44027 0.47687 0.13932 0.0
H1134 H 0.55697 0.51804 0.15698 0.0
H1135 H 0.54839 0.52974 0.1927 0.0
C1136 C 0.48471 0.51799 0.20724 0.0
C1137 C 0.44973 0.51096 0.21291 0.0
C1138 C 0.48941 0.51039 0.18679 0.0
C1139 C 0.41907 0.49507 0.19786 0.0
C1140 C 0.42351 0.48736 0.17736 0.0
C1141 C 0.46381 0.48855 0.151 0.0
C1142 C 0.49923 0.49654 0.14547 0.0
C1143 C 0.45868 0.49527 0.17161 0.0
C1144 C 0.52936 0.51122 0.16083 0.0
C1145 C 0.52453 0.51809 0.18125 0.0
H1146 H 0.93642 0.50942 0.81538 0.0
H1147 H 0.02269 0.48611 0.7987 0.0
H1148 H 0.04516 0.49362 0.83506 0.0
H1149 H 0.03921 0.50525 0.87152 0.0
H1150 H 0.95372 0.52986 0.88809 0.0
H1151 H 0.93197 0.52339 0.85173 0.0
C1152 C 0.96051 0.50656 0.81968 0.0
C1153 C 0.97795 0.49733 0.80439 0.0
C1154 C 0.97323 0.51091 0.84055 0.0
C1155 C 0.00863 0.49292 0.81022 0.0
C1156 C 0.02154 0.49732 0.83098 0.0
C1157 C 0.01615 0.5097 0.86717 0.0
C1158 C 0.9981 0.518 0.88249 0.0
C1159 C 0.00391 0.5061 0.84626 0.0
C1160 C 0.96779 0.52299 0.87661 0.0
C1161 C 0.95547 0.5195 0.85583 0.0
H1162 H 0.58665 0.5092 0.80878 0.0
H1163 H 0.48118 0.48818 0.77979 0.0
H1164 H 0.46416 0.50284 0.81284 0.0
H1165 H 0.47653 0.51534 0.85032 0.0
H1166 H 0.58147 0.53543 0.87989 0.0
H1167 H 0.60124 0.52701 0.8464 0.0
C1168 C 0.56037 0.50872 0.80972 0.0
C1169 C 0.53517 0.49772 0.79197 0.0
C1170 C 0.55037 0.51628 0.82892 0.0
C1171 C 0.50093 0.49659 0.79332 0.0
C1172 C 0.49114 0.50479 0.81221 0.0
C1173 C 0.50406 0.51868 0.84946 0.0
C1174 C 0.5273 0.52576 0.86768 0.0
C1175 C 0.51523 0.51373 0.83018 0.0
C1176 C 0.56267 0.52934 0.86618 0.0
C1177 C 0.57412 0.52475 0.84701 0.0
H1178 H 0.53386 0.09748 0.82062 0.0
H1179 H 0.57624 0.02703 0.79807 0.0
H1180 H 0.56502 0.99717 0.83035 0.0
H1181 H 0.54205 0.99028 0.86496 0.0
H1182 H 0.49953 0.06093 0.88709 0.0
H1183 H 0.51179 0.09124 0.8551 0.0
C1184 C 0.54044 0.07542 0.82269 0.0
C1185 C 0.55571 0.06445 0.80681 0.0
C1186 C 0.53387 0.05833 0.84129 0.0
C1187 C 0.56473 0.03629 0.81002 0.0
C1188 C 0.55811 0.01903 0.82846 0.0
C1189 C 0.5353 0.01219 0.86274 0.0
C1190 C 0.5199 0.02326 0.87853 0.0
C1191 C 0.5425 0.02967 0.8442 0.0
C1192 C 0.51182 0.05208 0.87541 0.0
C1193 C 0.51864 0.06935 0.85703 0.0
H1194 H 0.12391 0.30447 0.55592 0.0
H1195 H 0.14457 0.21388 0.54033 0.0
H1196 H 0.16169 0.23633 0.50658 0.0
H1197 H 0.17179 0.28223 0.48145 0.0
H1198 H 0.14966 0.37197 0.49669 0.0
H1199 H 0.13227 0.34934 0.53036 0.0
C1200 C 0.1318 0.28939 0.54508 0.0
C1201 C 0.1331 0.25757 0.55087 0.0
C1202 C 0.14158 0.30243 0.52554 0.0
C1203 C 0.14386 0.23877 0.53657 0.0
C1204 C 0.15348 0.25149 0.51715 0.0
C1205 C 0.16283 0.29669 0.49202 0.0
C1206 C 0.16238 0.32903 0.4864 0.0
C1207 C 0.15262 0.28339 0.51147 0.0
C1208 C 0.15104 0.34747 0.50058 0.0
C1209 C 0.1408 0.33438 0.51987 0.0
H1210 H 0.73991 0.82806 0.5511 0.0
H1211 H 0.65637 0.85139 0.57258 0.0
H1212 H 0.62477 0.83601 0.53772 0.0
H1213 H 0.62458 0.82212 0.50075 0.0
H1214 H 0.70881 0.79996 0.47897 0.0
H1215 H 0.7366 0.80887 0.51431 0.0
C1216 C 0.71431 0.8289 0.54818 0.0
C1217 C 0.70045 0.84087 0.56428 0.0
C1218 C 0.69682 0.82086 0.52802 0.0
C1219 C 0.66757 0.84241 0.56032 0.0
C1220 C 0.6496 0.83373 0.54042 0.0
C1221 C 0.64858 0.81851 0.50375 0.0
C1222 C 0.66477 0.81071 0.48723 0.0
C1223 C 0.66452 0.82387 0.52407 0.0
C1224 C 0.69618 0.80662 0.49139 0.0
C1225 C 0.71199 0.81151 0.5116 0.0
H1226 H 0.0987 0.7937 0.55127 0.0
H1227 H 0.12093 0.90524 0.54177 0.0
H1228 H 0.13458 0.89788 0.50649 0.0
H1229 H 0.14269 0.8609 0.47882 0.0
H1230 H 0.12097 0.7494 0.48799 0.0
H1231 H 0.10484 0.75563 0.5229 0.0
C1232 C 0.10612 0.81616 0.54136 0.0
C1233 C 0.109 0.85002 0.54913 0.0
C1234 C 0.11431 0.81187 0.5211 0.0
C1235 C 0.11898 0.87907 0.5362 0.0
C1236 C 0.1267 0.87486 0.51602 0.0
C1237 C 0.13394 0.83774 0.48835 0.0
C1238 C 0.13305 0.80475 0.48079 0.0
C1239 C 0.12483 0.84156 0.50838 0.0
C1240 C 0.1223 0.77528 0.4935 0.0
C1241 C 0.1129 0.77875 0.51343 0.0
H1242 H 0.61855 0.84863 0.14338 0.0
H1243 H 0.69524 0.81081 0.12821 0.0
H1244 H 0.71876 0.82065 0.16448 0.0
H1245 H 0.71535 0.83696 0.20057 0.0
H1246 H 0.63935 0.8756 0.21594 0.0
H1247 H 0.61772 0.86847 0.17948 0.0
C1248 C 0.64082 0.84313 0.14799 0.0
C1249 C 0.65502 0.82886 0.13316 0.0
C1250 C 0.65411 0.84871 0.16889 0.0
C1251 C 0.68353 0.82136 0.13939 0.0
C1252 C 0.69706 0.82708 0.1601 0.0
C1253 C 0.69452 0.84445 0.19594 0.0
C1254 C 0.67894 0.8567 0.21097 0.0
C1255 C 0.68224 0.8403 0.175 0.0
C1256 C 0.65145 0.86563 0.2047 0.0
C1257 C 0.63919 0.86173 0.18385 0.0
H1258 H 0.18772 0.77158 0.14509 0.0
H1259 H 0.2334 0.88521 0.12927 0.0
H1260 H 0.21898 0.90316 0.16238 0.0
H1261 H 0.19203 0.88615 0.19557 0.0
H1262 H 0.14727 0.7724 0.21125 0.0
H1263 H 0.1618 0.75485 0.17827 0.0
C1264 C 0.19425 0.80023 0.14879 0.0
C1265 C 0.21147 0.82695 0.13462 0.0
C1266 C 0.18575 0.8103 0.1678 0.0
C1267 C 0.22042 0.86412 0.13991 0.0
C1268 C 0.21198 0.87435 0.15881 0.0
C1269 C 0.18572 0.85758 0.19187 0.0
C1270 C 0.16824 0.83064 0.20593 0.0
C1271 C 0.19456 0.84765 0.17287 0.0
C1272 C 0.15997 0.79365 0.20066 0.0
C1273 C 0.16856 0.78359 0.18182 0.0
H1274 H 0.1676 0.36647 0.13327 0.0
H1275 H 0.28531 0.44021 0.15004 0.0
H1276 H 0.27922 0.41656 0.18398 0.0
H1277 H 0.24008 0.37575 0.20933 0.0
H1278 H 0.1221 0.30344 0.19259 0.0
H1279 H 0.1287 0.3259 0.15842 0.0
C1280 C 0.19192 0.37758 0.14438 0.0
C1281 C 0.22685 0.40518 0.13902 0.0
C1282 C 0.18816 0.36414 0.16398 0.0
C1283 C 0.25814 0.41866 0.15356 0.0
C1284 C 0.25463 0.40534 0.17308 0.0
C1285 C 0.21578 0.36508 0.19824 0.0
C1286 C 0.18066 0.33779 0.20359 0.0
C1287 C 0.21973 0.37824 0.17852 0.0
C1288 C 0.14957 0.324 0.18888 0.0
C1289 C 0.15327 0.33698 0.16932 0.0
H1290 H 0.78514 0.64089 0.89216 0.0
H1291 H 0.82283 0.56222 0.87877 0.0
H1292 H 0.83959 0.58597 0.84525 0.0
H1293 H 0.84385 0.62918 0.81964 0.0
H1294 H 0.80641 0.70809 0.83292 0.0
H1295 H 0.7886 0.68364 0.86623 0.0
C1296 C 0.79668 0.6287 0.88183 0.0
C1297 C 0.80289 0.59992 0.88812 0.0
C1298 C 0.80625 0.64248 0.86246 0.0
C1299 C 0.81827 0.58478 0.87454 0.0
C1300 C 0.82771 0.59822 0.85528 0.0
C1301 C 0.83208 0.64128 0.82987 0.0
C1302 C 0.82659 0.67054 0.82369 0.0
C1303 C 0.82206 0.62722 0.84912 0.0
C1304 C 0.81062 0.6853 0.83709 0.0
C1305 C 0.80059 0.67146 0.85624 0.0
H1306 H 0.34269 0.19291 0.89176 0.0
H1307 H 0.42224 0.15573 0.88355 0.0
H1308 H 0.40453 0.14411 0.84643 0.0
H1309 H 0.3664 0.14443 0.81628 0.0
H1310 H 0.28823 0.18344 0.82442 0.0
H1311 H 0.3055 0.19444 0.86156 0.0
C1312 C 0.35639 0.18258 0.88183 0.0
C1313 C 0.38367 0.17512 0.89045 0.0
C1314 C 0.34627 0.1762 0.86048 0.0
C1315 C 0.40076 0.16121 0.87737 0.0
C1316 C 0.39082 0.15477 0.85612 0.0
C1317 C 0.3534 0.15568 0.82616 0.0
C1318 C 0.326 0.163 0.81755 0.0
C1319 C 0.36361 0.16216 0.8475 0.0
C1320 C 0.30902 0.17704 0.83064 0.0
C1321 C 0.31903 0.18355 0.85188 0.0
H1322 H 0.83636 0.20151 0.89041 0.0
H1323 H 0.7204 0.15974 0.87076 0.0
H1324 H 0.73093 0.14691 0.83537 0.0
H1325 H 0.7742 0.1506 0.80973 0.0
H1326 H 0.89038 0.19383 0.83004 0.0
H1327 H 0.8786 0.20285 0.8654 0.0
C1328 C 0.81338 0.18963 0.87836 0.0
C1329 C 0.77776 0.18198 0.88312 0.0
C1330 C 0.81971 0.18259 0.85815 0.0
C1331 C 0.74808 0.16583 0.86747 0.0
C1332 C 0.75415 0.15869 0.84723 0.0
C1333 C 0.7969 0.16197 0.82191 0.0
C1334 C 0.83313 0.17143 0.81716 0.0
C1335 C 0.79001 0.16744 0.84233 0.0
C1336 C 0.86213 0.18574 0.83321 0.0
C1337 C 0.8555 0.1912 0.85346 0.0
H1338 H 0.31124 0.19709 0.47163 0.0
H1339 H 0.36844 0.1372 0.4553 0.0
H1340 H 0.39345 0.14571 0.49121 0.0
H1341 H 0.39528 0.16628 0.52745 0.0
H1342 H 0.34108 0.22947 0.5431 0.0
H1343 H 0.31926 0.22408 0.50692 0.0
C1344 C 0.33001 0.18672 0.47569 0.0
C1345 C 0.33774 0.16635 0.46068 0.0
C1346 C 0.34468 0.19214 0.49624 0.0
C1347 C 0.36141 0.1524 0.46653 0.0
C1348 C 0.37592 0.15744 0.48706 0.0
C1349 C 0.37951 0.17973 0.52294 0.0
C1350 C 0.3695 0.1979 0.53806 0.0
C1351 C 0.36721 0.17673 0.50209 0.0
C1352 C 0.34856 0.21465 0.53187 0.0
C1353 C 0.33617 0.21171 0.51117 0.0
H1354 H 0.86778 0.09849 0.47622 0.0
H1355 H 0.91055 0.21229 0.46102 0.0
H1356 H 0.89639 0.22903 0.49436 0.0
H1357 H 0.86901 0.21082 0.52724 0.0
H1358 H 0.82342 0.09642 0.54165 0.0
H1359 H 0.84057 0.08031 0.50901 0.0
C1360 C 0.87375 0.12691 0.48007 0.0
C1361 C 0.89023 0.15399 0.46597 0.0
C1362 C 0.86465 0.13621 0.4991 0.0
C1363 C 0.89844 0.19087 0.47158 0.0
C1364 C 0.89002 0.20046 0.49061 0.0
C1365 C 0.86312 0.18244 0.5233 0.0
C1366 C 0.84484 0.15484 0.53683 0.0
C1367 C 0.87281 0.17329 0.50442 0.0
C1368 C 0.83703 0.11809 0.53139 0.0
C1369 C 0.847 0.1089 0.51278 0.0
H1370 H 0.85718 0.76644 0.48979 0.0
H1371 H 0.8954 0.6922 0.46734 0.0
H1372 H 0.88341 0.66285 0.49967 0.0
H1373 H 0.86033 0.6569 0.53408 0.0
H1374 H 0.8192 0.7292 0.55558 0.0
H1375 H 0.83387 0.76029 0.52391 0.0
C1376 C 0.86265 0.74364 0.49184 0.0
C1377 C 0.87714 0.73163 0.47597 0.0
C1378 C 0.85507 0.72636 0.51038 0.0
C1379 C 0.88473 0.70251 0.47926 0.0
C1380 C 0.87757 0.68543 0.49774 0.0
C1381 C 0.85426 0.67923 0.53179 0.0
C1382 C 0.83867 0.69057 0.54735 0.0
C1383 C 0.86242 0.69688 0.51335 0.0
C1384 C 0.83166 0.72009 0.54413 0.0
C1385 C 0.83984 0.73782 0.52591 0.0
loop_
_geom_bond_atom_site_label_1
_geom_bond_atom_site_label_2
_geom_bond_distance
_geom_bond_site_symmetry_2
_ccdc_geom_bond_type
H0 C3 0.931 . S
H1 C6 0.928 . S
H2 C8 0.930 . S
C3 H0 0.931 . S
C3 C4 1.413 . S
C3 C5 1.360 . S
C4 C3 1.413 . S
C4 C8 1.429 . S
C5 C3 1.360 . S
C5 C6 1.372 . S
C6 H1 0.928 . S
C6 C5 1.372 . S
C6 C7 1.404 . S
C7 C6 1.404 . S
C7 C8 1.391 . S
C8 H2 0.930 . S
C8 C4 1.429 . S
C8 C7 1.391 . S
H9 C12 0.931 . S
H10 C15 0.928 . S
H11 C17 0.930 . S
C12 H9 0.931 . S
C12 C13 1.413 . S
C12 C14 1.360 . S
C13 C12 1.413 . S
C13 C17 1.429 . S
C14 C12 1.360 . S
C14 C15 1.372 . S
C15 H10 0.928 . S
C15 C14 1.372 . S
C15 C16 1.404 . S
C16 C15 1.404 . S
C16 C17 1.391 . S
C17 H11 0.930 . S
C17 C13 1.429 . S
C17 C16 1.391 . S
H18 C21 0.931 . S
H19 C24 0.928 . S
H20 C26 0.930 . S
C21 H18 0.931 . S
C21 C22 1.413 . S
C21 C23 1.360 . S
C22 C21 1.413 . S
C22 C26 1.429 . S
C23 C21 1.360 . S
C23 C24 1.372 . S
C24 H19 0.928 . S
C24 C23 1.372 . S
C24 C25 1.404 . S
C25 C24 1.404 . S
C25 C26 1.391 . S
C26 H20 0.930 . S
C26 C22 1.429 . S
C26 C25 1.391 . S
H27 C30 0.931 . S
H28 C33 0.928 . S
H29 C35 0.930 . S
C30 H27 0.931 . S
C30 C31 1.413 . S
C30 C32 1.360 . S
C31 C30 1.413 . S
C31 C35 1.429 . S
C32 C30 1.360 . S
C32 C33 1.372 . S
C33 H28 0.928 . S
C33 C32 1.372 . S
C33 C34 1.404 . S
C34 C33 1.404 . S
C34 C35 1.391 . S
C35 H29 0.930 . S
C35 C31 1.429 . S
C35 C34 1.391 . S
H36 C39 0.931 . S
H37 C42 0.928 . S
H38 C44 0.930 . S
C39 H36 0.931 . S
C39 C40 1.413 . S
C39 C41 1.360 . S
C40 C39 1.413 . S
C40 C44 1.429 . S
C41 C39 1.360 . S
C41 C42 1.372 . S
C42 H37 0.928 . S
C42 C41 1.372 . S
C42 C43 1.404 . S
C43 C42 1.404 . S
C43 C44 1.391 . S
C44 H38 0.930 . S
C44 C40 1.429 . S
C44 C43 1.391 . S
H45 C48 0.931 . S
H46 C51 0.928 . S
H47 C53 0.930 . S
C48 H45 0.931 . S
C48 C49 1.413 . S
C48 C50 1.360 . S
C49 C48 1.413 . S
C49 C53 1.429 . S
C50 C48 1.360 . S
C50 C51 1.372 . S
C51 H46 0.928 . S
C51 C50 1.372 . S
C51 C52 1.404 . S
C52 C51 1.404 . S
C52 C53 1.391 . S
C53 H47 0.930 . S
C53 C49 1.429 . S
C53 C52 1.391 . S
H54 C57 0.931 . S
H55 C60 0.928 . S
H56 C62 0.930 . S
C57 H54 0.931 . S
C57 C58 1.413 . S
C57 C59 1.360 . S
C58 C57 1.413 . S
C58 C62 1.429 . S
C59 C57 1.360 . S
C59 C60 1.372 . S
C60 H55 0.928 . S
C60 C59 1.372 . S
C60 C61 1.404 . S
C61 C60 1.404 . S
C61 C62 1.391 . S
C62 H56 0.930 . S
C62 C58 1.429 . S
C62 C61 1.391 . S
H63 C66 0.931 . S
H64 C69 0.928 . S
H65 C71 0.930 . S
C66 H63 0.931 . S
C66 C67 1.413 . S
C66 C68 1.360 . S
C67 C66 1.413 . S
C67 C71 1.429 . S
C68 C66 1.360 . S
C68 C69 1.372 . S
C69 H64 0.928 . S
C69 C68 1.372 . S
C69 C70 1.404 . S
C70 C69 1.404 . S
C70 C71 1.391 . S
C71 H65 0.930 . S
C71 C67 1.429 . S
C71 C70 1.391 . S
H72 C75 0.931 . S
H73 C78 0.928 . S
H74 C80 0.930 . S
C75 H72 0.931 . S
C75 C76 1.413 . S
C75 C77 1.360 . S
C76 C75 1.413 . S
C76 C80 1.429 . S
C77 C75 1.360 . S
C77 C78 1.372 . S
C78 H73 0.928 . S
C78 C77 1.372 . S
C78 C79 1.404 . S
C79 C78 1.404 . S
C79 C80 1.391 . S
C80 H74 0.930 . S
C80 C76 1.429 . S
C80 C79 1.391 . S
H81 C84 0.931 . S
H82 C87 0.928 . S
H83 C89 0.930 . S
C84 H81 0.931 . S
C84 C85 1.413 . S
C84 C86 1.360 . S
C85 C84 1.413 . S
C85 C89 1.429 . S
C86 C84 1.360 . S
C86 C87 1.372 . S
C87 H82 0.928 . S
C87 C86 1.372 . S
C87 C88 1.404 . S
C88 C87 1.404 . S
C88 C89 1.391 . S
C89 H83 0.930 . S
C89 C85 1.429 . S
C89 C88 1.391 . S
H90 C93 0.931 . S
H91 C96 0.928 . S
H92 C98 0.930 . S
C93 H90 0.931 . S
C93 C94 1.413 . S
C93 C95 1.360 . S
C94 C93 1.413 . S
C94 C98 1.429 . S
C95 C93 1.360 . S
C95 C96 1.372 . S
C96 H91 0.928 . S
C96 C95 1.372 . S
C96 C97 1.404 . S
C97 C96 1.404 . S
C97 C98 1.391 . S
C98 H92 0.930 . S
C98 C94 1.429 . S
C98 C97 1.391 . S
H99 C102 0.931 . S
H100 C105 0.928 . S
H101 C107 0.930 . S
C102 H99 0.931 . S
C102 C103 1.413 . S
C102 C104 1.360 . S
C103 C102 1.413 . S
C103 C107 1.429 . S
C104 C102 1.360 . S
C104 C105 1.372 . S
C105 H100 0.928 . S
C105 C104 1.372 . S
C105 C106 1.404 . S
C106 C105 1.404 . S
C106 C107 1.391 . S
C107 H101 0.930 . S
C107 C103 1.429 . S
C107 C106 1.391 . S
H108 C111 0.931 . S
H109 C114 0.928 . S
H110 C116 0.930 . S
C111 H108 0.931 . S
C111 C112 1.413 . S
C111 C113 1.360 . S
C112 C111 1.413 . S
C112 C116 1.429 . S
C113 C111 1.360 . S
C113 C114 1.372 . S
C114 H109 0.928 . S
C114 C113 1.372 . S
C114 C115 1.404 . S
C115 C114 1.404 . S
C115 C116 1.391 . S
C116 H110 0.930 . S
C116 C112 1.429 . S
C116 C115 1.391 . S
H117 C120 0.931 . S
H118 C123 0.928 . S
H119 C125 0.930 . S
C120 H117 0.931 . S
C120 C121 1.413 . S
C120 C122 1.360 . S
C121 C120 1.413 . S
C121 C125 1.429 . S
C122 C120 1.360 . S
C122 C123 1.372 . S
C123 H118 0.928 . S
C123 C122 1.372 . S
C123 C124 1.404 . S
C124 C123 1.404 . S
C124 C125 1.391 . S
C125 H119 0.930 . S
C125 C121 1.429 . S
C125 C124 1.391 . S
H126 C129 0.931 . S
H127 C132 0.928 . S
H128 C134 0.930 . S
C129 H126 0.931 . S
C129 C130 1.413 . S
C129 C131 1.360 . S
C130 C129 1.413 . S
C130 C134 1.429 . S
C131 C129 1.360 . S
C131 C132 1.372 . S
C132 H127 0.928 . S
C132 C131 1.372 . S
C132 C133 1.404 . S
C133 C132 1.404 . S
C133 C134 1.391 . S
C134 H128 0.930 . S
C134 C130 1.429 . S
C134 C133 1.391 . S
H135 C138 0.931 . S
H136 C141 0.928 . S
H137 C143 0.930 . S
C138 H135 0.931 . S
C138 C139 1.413 . S
C138 C140 1.360 . S
C139 C138 1.413 . S
C139 C143 1.429 . S
C140 C138 1.360 . S
C140 C141 1.372 . S
C141 H136 0.928 . S
C141 C140 1.372 . S
C141 C142 1.404 . S
C142 C141 1.404 . S
C142 C143 1.391 . S
C143 H137 0.930 . S
C143 C139 1.429 . S
C143 C142 1.391 . S
H144 C147 0.931 . S
H145 C150 0.928 . S
H146 C152 0.930 . S
C147 H144 0.931 . S
C147 C148 1.413 . S
C147 C149 1.360 . S
C148 C147 1.413 . S
C148 C152 1.429 . S
C149 C147 1.360 . S
C149 C150 1.372 . S
C150 H145 0.928 . S
C150 C149 1.372 . S
C150 C151 1.404 . S
C151 C150 1.404 . S
C151 C152 1.391 . S
C152 H146 0.930 . S
C152 C148 1.429 . S
C152 C151 1.391 . S
H153 C156 0.931 . S
H154 C159 0.928 . S
H155 C161 0.930 . S
C156 H153 0.931 . S
C156 C157 1.413 . S
C156 C158 1.360 . S
C157 C156 1.413 . S
C157 C161 1.429 . S
C158 C156 1.360 . S
C158 C159 1.372 . S
C159 H154 0.928 . S
C159 C158 1.372 . S
C159 C160 1.404 . S
C160 C159 1.404 . S
C160 C161 1.391 . S
C161 H155 0.930 . S
C161 C157 1.429 . S
C161 C160 1.391 . S
Tb162 C172 2.825 . S
Tb162 O173 2.347 1_565 S
Tb162 O176 2.366 1_565 S
Tb162 O181 2.418 . S
Tb162 O182 2.420 . S
Tb162 O185 2.479 . S
Tb162 O186 2.481 . S
Eu163 O174 2.418 . S
Eu163 O175 2.384 . S
Eu163 O178 2.479 . S
Eu163 O179 2.490 . S
Eu163 O180 2.347 1_545 S
Eu163 O183 2.366 1_545 S
Eu163 C193 2.825 . S
C164 O180 1.259 . S
C164 O181 1.265 1_554 S
C165 O182 1.213 1_554 S
C165 O183 1.265 . S
C166 C168 1.380 . S
C166 C169 1.374 1_565 S
C166 C172 1.507 . S
C167 C168 1.384 . S
C167 C171 1.387 1_565 S
C167 H194 0.930 . S
C168 C166 1.380 . S
C168 C167 1.384 . S
C168 H195 0.931 . S
C169 C166 1.374 1_545 S
C169 C170 1.390 . S
C169 H196 0.930 . S
C170 C169 1.390 . S
C170 C171 1.391 . S
C170 H197 0.930 . S
C171 C167 1.387 1_545 S
C171 C170 1.391 . S
C172 Tb162 2.825 . S
C172 C166 1.507 . S
C172 O185 1.238 . S
C172 O186 1.262 . S
O173 Tb162 2.347 1_545 S
O173 C177 1.259 . S
O174 Eu163 2.418 . S
O174 C177 1.265 1_554 S
O175 Eu163 2.384 . S
O175 C184 1.255 1_554 S
O176 Tb162 2.366 1_545 S
O176 C184 1.265 . S
C177 O173 1.259 . S
C177 O174 1.265 1_556 S
O178 Eu163 2.479 . S
O178 C193 1.238 . S
O179 Eu163 2.490 . S
O179 C193 1.276 . S
O180 Eu163 2.347 1_565 S
O180 C164 1.259 . S
O181 Tb162 2.418 . S
O181 C164 1.265 1_556 S
O182 Tb162 2.420 . S
O182 C165 1.213 1_556 S
O183 Eu163 2.366 1_565 S
O183 C165 1.265 . S
C184 O175 1.255 1_556 S
C184 O176 1.265 . S
O185 Tb162 2.479 . S
O185 C172 1.238 . S
O186 Tb162 2.481 . S
O186 C172 1.262 . S
C187 C190 1.380 . S
C187 C191 1.374 1_545 S
C187 C193 1.507 . S
C188 C189 1.387 1_565 S
C188 C192 1.391 . S
C189 C188 1.387 1_545 S
C189 C190 1.384 . S
C189 H198 0.930 . S
C190 C187 1.380 . S
C190 C189 1.384 . S
C190 H199 0.931 . S
C191 C187 1.374 1_565 S
C191 C192 1.390 . S
C191 H200 0.930 . S
C192 C188 1.391 . S
C192 C191 1.390 . S
C192 H201 0.930 . S
C193 Eu163 2.825 . S
C193 O178 1.238 . S
C193 O179 1.276 . S
C193 C187 1.507 . S
H194 C167 0.930 . S
H195 C168 0.931 . S
H196 C169 0.930 . S
H197 C170 0.930 . S
H198 C189 0.930 . S
H199 C190 0.931 . S
H200 C191 0.930 . S
H201 C192 0.930 . S
Tb202 C212 2.825 . S
Tb202 O213 2.347 1_455 S
Tb202 O216 2.366 1_455 S
Tb202 O221 2.418 . S
Tb202 O222 2.384 1_556 S
Tb202 O225 2.479 . S
Tb202 O226 2.471 1_455 S
Eu203 O214 2.418 . S
Eu203 O215 2.349 1_554 S
Eu203 O218 2.479 . S
Eu203 O219 2.471 1_655 S
Eu203 O220 2.347 1_655 S
Eu203 O223 2.366 1_655 S
Eu203 C233 2.825 . S
C204 O220 1.259 . S
C204 O221 1.265 1_554 S
C205 O222 1.255 . S
C205 O223 1.265 . S
C206 C208 1.380 . S
C206 C209 1.374 1_455 S
C206 C212 1.507 . S
C207 C208 1.384 . S
C207 C211 1.387 1_455 S
C207 H234 0.930 . S
C208 C206 1.380 . S
C208 C207 1.384 . S
C208 H235 0.931 . S
C209 C206 1.374 1_655 S
C209 C210 1.390 . S
C209 H236 0.930 . S
C210 C209 1.390 . S
C210 C211 1.391 . S
C210 H237 0.930 . S
C211 C207 1.387 1_655 S
C211 C210 1.391 . S
C212 Tb202 2.825 . S
C212 C206 1.507 . S
C212 O225 1.238 . S
C212 O226 1.247 1_455 S
O213 Tb202 2.347 1_655 S
O213 C217 1.259 . S
O214 Eu203 2.418 . S
O214 C217 1.265 1_554 S
O215 Eu203 2.349 1_556 S
O215 C224 1.298 . S
O216 Tb202 2.366 1_655 S
O216 C224 1.265 . S
C217 O213 1.259 . S
C217 O214 1.265 1_556 S
O218 Eu203 2.479 . S
O218 C233 1.238 . S
O219 Eu203 2.471 1_455 S
O219 C233 1.247 1_455 S
O220 Eu203 2.347 1_455 S
O220 C204 1.259 . S
O221 Tb202 2.418 . S
O221 C204 1.265 1_556 S
O222 Tb202 2.384 1_554 S
O222 C205 1.255 . S
O223 Eu203 2.366 1_455 S
O223 C205 1.265 . S
C224 O215 1.298 . S
C224 O216 1.265 . S
O225 Tb202 2.479 . S
O225 C212 1.238 . S
O226 Tb202 2.471 1_655 S
O226 C212 1.247 1_655 S
C227 C230 1.380 . S
C227 C231 1.374 1_655 S
C227 C233 1.507 . S
C228 C229 1.387 1_455 S
C228 C232 1.391 . S
C229 C228 1.387 1_655 S
C229 C230 1.384 . S
C229 H238 0.930 . S
C230 C227 1.380 . S
C230 C229 1.384 . S
C230 H239 0.931 . S
C231 C227 1.374 1_455 S
C231 C232 1.390 . S
C231 H240 0.930 . S
C232 C228 1.391 . S
C232 C231 1.390 . S
C232 H241 0.930 . S
C233 Eu203 2.825 . S
C233 O218 1.238 . S
C233 O219 1.247 1_655 S
C233 C227 1.507 . S
H234 C207 0.930 . S
H235 C208 0.931 . S
H236 C209 0.930 . S
H237 C210 0.930 . S
H238 C229 0.930 . S
H239 C230 0.931 . S
H240 C231 0.930 . S
H241 C232 0.930 . S
Tb242 C252 2.825 . S
Tb242 O253 2.347 . S
Tb242 O256 2.366 . S
Tb242 O261 2.418 . S
Tb242 O262 2.428 . S
Tb242 O265 2.479 . S
Tb242 O266 2.471 . S
Eu243 O254 2.418 . S
Eu243 O255 2.384 1_556 S
Eu243 O258 2.479 . S
Eu243 O259 2.471 . S
Eu243 O260 2.347 . S
Eu243 O263 2.366 . S
Eu243 C273 2.825 . S
C244 O260 1.259 . S
C244 O261 1.265 1_556 S
C245 O262 1.205 1_556 S
C245 O263 1.265 . S
C246 C248 1.380 . S
C246 C249 1.374 . S
C246 C252 1.507 . S
C247 C248 1.384 . S
C247 C251 1.387 . S
C247 H274 0.930 . S
C248 C246 1.380 . S
C248 C247 1.384 . S
C248 H275 0.931 . S
C249 C246 1.374 . S
C249 C250 1.390 . S
C249 H276 0.930 . S
C250 C249 1.390 . S
C250 C251 1.391 . S
C250 H277 0.930 . S
C251 C247 1.387 . S
C251 C250 1.391 . S
C252 Tb242 2.825 . S
C252 C246 1.507 . S
C252 O265 1.238 . S
C252 O266 1.247 . S
O253 Tb242 2.347 . S
O253 C257 1.259 . S
O254 Eu243 2.418 . S
O254 C257 1.265 1_556 S
O255 Eu243 2.384 1_554 S
O255 C264 1.255 . S
O256 Tb242 2.366 . S
O256 C264 1.265 . S
C257 O253 1.259 . S
C257 O254 1.265 1_554 S
O258 Eu243 2.479 . S
O258 C273 1.238 . S
O259 Eu243 2.471 . S
O259 C273 1.247 . S
O260 Eu243 2.347 . S
O260 C244 1.259 . S
O261 Tb242 2.418 . S
O261 C244 1.265 1_554 S
O262 Tb242 2.428 . S
O262 C245 1.205 1_554 S
O263 Eu243 2.366 . S
O263 C245 1.265 . S
C264 O255 1.255 . S
C264 O256 1.265 . S
O265 Tb242 2.479 . S
O265 C252 1.238 . S
O266 Tb242 2.471 . S
O266 C252 1.247 . S
C267 C270 1.380 . S
C267 C271 1.374 . S
C267 C273 1.507 . S
C268 C269 1.387 . S
C268 C272 1.391 . S
C269 C268 1.387 . S
C269 C270 1.384 . S
C269 H278 0.930 . S
C270 C267 1.380 . S
C270 C269 1.384 . S
C270 H279 0.931 . S
C271 C267 1.374 . S
C271 C272 1.390 . S
C271 H280 0.930 . S
C272 C268 1.391 . S
C272 C271 1.390 . S
C272 H281 0.930 . S
C273 Eu243 2.825 . S
C273 O258 1.238 . S
C273 O259 1.247 . S
C273 C267 1.507 . S
H274 C247 0.930 . S
H275 C248 0.931 . S
H276 C249 0.930 . S
H277 C250 0.930 . S
H278 C269 0.930 . S
H279 C270 0.931 . S
H280 C271 0.930 . S
H281 C272 0.930 . S
Tb282 C292 2.825 . S
Tb282 O293 2.347 . S
Tb282 O296 2.366 . S
Tb282 O301 2.418 . S
Tb282 O302 2.384 . S
Tb282 O305 2.479 . S
Tb282 O306 2.471 . S
Eu283 O294 2.418 . S
Eu283 O295 2.384 . S
Eu283 O298 2.479 . S
Eu283 O299 2.471 . S
Eu283 O300 2.347 . S
Eu283 O303 2.366 . S
Eu283 C313 2.825 . S
C284 O300 1.259 . S
C284 O301 1.265 . S
C285 O302 1.255 . S
C285 O303 1.265 . S
C286 C288 1.380 . S
C286 C289 1.374 . S
C286 C292 1.507 . S
C287 C288 1.384 . S
C287 C291 1.387 . S
C287 H314 0.930 . S
C288 C286 1.380 . S
C288 C287 1.384 . S
C288 H315 0.931 . S
C289 C286 1.374 . S
C289 C290 1.390 . S
C289 H316 0.930 . S
C290 C289 1.390 . S
C290 C291 1.391 . S
C290 H317 0.930 . S
C291 C287 1.387 . S
C291 C290 1.391 . S
C292 Tb282 2.825 . S
C292 C286 1.507 . S
C292 O305 1.238 . S
C292 O306 1.247 . S
O293 Tb282 2.347 . S
O293 C297 1.259 . S
O294 Eu283 2.418 . S
O294 C297 1.265 . S
O295 Eu283 2.384 . S
O295 C304 1.255 . S
O296 Tb282 2.366 . S
O296 C304 1.265 . S
C297 O293 1.259 . S
C297 O294 1.265 . S
O298 Eu283 2.479 . S
O298 C313 1.238 . S
O299 Eu283 2.471 . S
O299 C313 1.247 . S
O300 Eu283 2.347 . S
O300 C284 1.259 . S
O301 Tb282 2.418 . S
O301 C284 1.265 . S
O302 Tb282 2.384 . S
O302 C285 1.255 . S
O303 Eu283 2.366 . S
O303 C285 1.265 . S
C304 O295 1.255 . S
C304 O296 1.265 . S
O305 Tb282 2.479 . S
O305 C292 1.238 . S
O306 Tb282 2.471 . S
O306 C292 1.247 . S
C307 C310 1.380 . S
C307 C311 1.374 . S
C307 C313 1.507 . S
C308 C309 1.387 . S
C308 C312 1.391 . S
C309 C308 1.387 . S
C309 C310 1.384 . S
C309 H318 0.930 . S
C310 C307 1.380 . S
C310 C309 1.384 . S
C310 H319 0.931 . S
C311 C307 1.374 . S
C311 C312 1.390 . S
C311 H320 0.930 . S
C312 C308 1.391 . S
C312 C311 1.390 . S
C312 H321 0.930 . S
C313 Eu283 2.825 . S
C313 O298 1.238 . S
C313 O299 1.247 . S
C313 C307 1.507 . S
H314 C287 0.930 . S
H315 C288 0.931 . S
H316 C289 0.930 . S
H317 C290 0.930 . S
H318 C309 0.930 . S
H319 C310 0.931 . S
H320 C311 0.930 . S
H321 C312 0.930 . S
Tb322 C332 2.825 . S
Tb322 O333 2.347 . S
Tb322 O336 2.366 . S
Tb322 O341 2.418 . S
Tb322 O342 2.384 . S
Tb322 O345 2.479 . S
Tb322 O346 2.471 . S
Eu323 O334 2.418 . S
Eu323 O335 2.384 . S
Eu323 O338 2.479 . S
Eu323 O339 2.471 . S
Eu323 O340 2.347 . S
Eu323 O343 2.366 . S
Eu323 C353 2.825 . S
C324 O340 1.259 . S
C324 O341 1.265 . S
C325 O342 1.255 . S
C325 O343 1.265 . S
C326 C328 1.380 . S
C326 C329 1.374 . S
C326 C332 1.507 . S
C327 C328 1.384 . S
C327 C331 1.387 . S
C327 H354 0.930 . S
C328 C326 1.380 . S
C328 C327 1.384 . S
C328 H355 0.931 . S
C329 C326 1.374 . S
C329 C330 1.390 . S
C329 H356 0.930 . S
C330 C329 1.390 . S
C330 C331 1.391 . S
C330 H357 0.930 . S
C331 C327 1.387 . S
C331 C330 1.391 . S
C332 Tb322 2.825 . S
C332 C326 1.507 . S
C332 O345 1.238 . S
C332 O346 1.247 . S
O333 Tb322 2.347 . S
O333 C337 1.259 . S
O334 Eu323 2.418 . S
O334 C337 1.265 . S
O335 Eu323 2.384 . S
O335 C344 1.255 . S
O336 Tb322 2.366 . S
O336 C344 1.265 . S
C337 O333 1.259 . S
C337 O334 1.265 . S
O338 Eu323 2.479 . S
O338 C353 1.238 . S
O339 Eu323 2.471 . S
O339 C353 1.247 . S
O340 Eu323 2.347 . S
O340 C324 1.259 . S
O341 Tb322 2.418 . S
O341 C324 1.265 . S
O342 Tb322 2.384 . S
O342 C325 1.255 . S
O343 Eu323 2.366 . S
O343 C325 1.265 . S
C344 O335 1.255 . S
C344 O336 1.265 . S
O345 Tb322 2.479 . S
O345 C332 1.238 . S
O346 Tb322 2.471 . S
O346 C332 1.247 . S
C347 C350 1.380 . S
C347 C351 1.374 . S
C347 C353 1.507 . S
C348 C349 1.387 . S
C348 C352 1.391 . S
C349 C348 1.387 . S
C349 C350 1.384 . S
C349 H358 0.930 . S
C350 C347 1.380 . S
C350 C349 1.384 . S
C350 H359 0.931 . S
C351 C347 1.374 . S
C351 C352 1.390 . S
C351 H360 0.930 . S
C352 C348 1.391 . S
C352 C351 1.390 . S
C352 H361 0.930 . S
C353 Eu323 2.825 . S
C353 O338 1.238 . S
C353 O339 1.247 . S
C353 C347 1.507 . S
H354 C327 0.930 . S
H355 C328 0.931 . S
H356 C329 0.930 . S
H357 C330 0.930 . S
H358 C349 0.930 . S
H359 C350 0.931 . S
H360 C351 0.930 . S
H361 C352 0.930 . S
Tb362 C372 2.825 . S
Tb362 O373 2.347 . S
Tb362 O376 2.366 . S
Tb362 O381 2.418 . S
Tb362 O382 2.384 . S
Tb362 O385 2.479 . S
Tb362 O386 2.471 . S
Eu363 O374 2.418 . S
Eu363 O375 2.384 . S
Eu363 O378 2.479 . S
Eu363 O379 2.471 . S
Eu363 O380 2.347 . S
Eu363 O383 2.366 . S
Eu363 C393 2.825 . S
C364 O380 1.259 . S
C364 O381 1.265 . S
C365 O382 1.255 . S
C365 O383 1.265 . S
C366 C368 1.380 . S
C366 C369 1.374 . S
C366 C372 1.507 . S
C367 C368 1.384 . S
C367 C371 1.387 . S
C367 H394 0.930 . S
C368 C366 1.380 . S
C368 C367 1.384 . S
C368 H395 0.931 . S
C369 C366 1.374 . S
C369 C370 1.390 . S
C369 H396 0.930 . S
C370 C369 1.390 . S
C370 C371 1.391 . S
C370 H397 0.930 . S
C371 C367 1.387 . S
C371 C370 1.391 . S
C372 Tb362 2.825 . S
C372 C366 1.507 . S
C372 O385 1.238 . S
C372 O386 1.247 . S
O373 Tb362 2.347 . S
O373 C377 1.259 . S
O374 Eu363 2.418 . S
O374 C377 1.265 . S
O375 Eu363 2.384 . S
O375 C384 1.255 . S
O376 Tb362 2.366 . S
O376 C384 1.265 . S
C377 O373 1.259 . S
C377 O374 1.265 . S
O378 Eu363 2.479 . S
O378 C393 1.238 . S
O379 Eu363 2.471 . S
O379 C393 1.247 . S
O380 Eu363 2.347 . S
O380 C364 1.259 . S
O381 Tb362 2.418 . S
O381 C364 1.265 . S
O382 Tb362 2.384 . S
O382 C365 1.255 . S
O383 Eu363 2.366 . S
O383 C365 1.265 . S
C384 O375 1.255 . S
C384 O376 1.265 . S
O385 Tb362 2.479 . S
O385 C372 1.238 . S
O386 Tb362 2.471 . S
O386 C372 1.247 . S
C387 C390 1.380 . S
C387 C391 1.374 . S
C387 C393 1.507 . S
C388 C389 1.387 . S
C388 C392 1.391 . S
C389 C388 1.387 . S
C389 C390 1.384 . S
C389 H398 0.930 . S
C390 C387 1.380 . S
C390 C389 1.384 . S
C390 H399 0.931 . S
C391 C387 1.374 . S
C391 C392 1.390 . S
C391 H400 0.930 . S
C392 C388 1.391 . S
C392 C391 1.390 . S
C392 H401 0.930 . S
C393 Eu363 2.825 . S
C393 O378 1.238 . S
C393 O379 1.247 . S
C393 C387 1.507 . S
H394 C367 0.930 . S
H395 C368 0.931 . S
H396 C369 0.930 . S
H397 C370 0.930 . S
H398 C389 0.930 . S
H399 C390 0.931 . S
H400 C391 0.930 . S
H401 C392 0.930 . S
Tb402 C412 2.825 . S
Tb402 O413 2.347 . S
Tb402 O416 2.366 . S
Tb402 O421 2.418 . S
Tb402 O422 2.384 . S
Tb402 O425 2.479 . S
Tb402 O426 2.471 . S
Eu403 O414 2.418 . S
Eu403 O415 2.384 . S
Eu403 O418 2.479 . S
Eu403 O419 2.471 . S
Eu403 O420 2.347 . S
Eu403 O423 2.366 . S
Eu403 C433 2.825 . S
C404 O420 1.259 . S
C404 O421 1.265 . S
C405 O422 1.255 . S
C405 O423 1.265 . S
C406 C408 1.380 . S
C406 C409 1.374 . S
C406 C412 1.507 . S
C407 C408 1.384 . S
C407 C411 1.387 . S
C407 H434 0.930 . S
C408 C406 1.380 . S
C408 C407 1.384 . S
C408 H435 0.931 . S
C409 C406 1.374 . S
C409 C410 1.390 . S
C409 H436 0.930 . S
C410 C409 1.390 . S
C410 C411 1.391 . S
C410 H437 0.930 . S
C411 C407 1.387 . S
C411 C410 1.391 . S
C412 Tb402 2.825 . S
C412 C406 1.507 . S
C412 O425 1.238 . S
C412 O426 1.247 . S
O413 Tb402 2.347 . S
O413 C417 1.259 . S
O414 Eu403 2.418 . S
O414 C417 1.265 . S
O415 Eu403 2.384 . S
O415 C424 1.255 . S
O416 Tb402 2.366 . S
O416 C424 1.265 . S
C417 O413 1.259 . S
C417 O414 1.265 . S
O418 Eu403 2.479 . S
O418 C433 1.238 . S
O419 Eu403 2.471 . S
O419 C433 1.247 . S
O420 Eu403 2.347 . S
O420 C404 1.259 . S
O421 Tb402 2.418 . S
O421 C404 1.265 . S
O422 Tb402 2.384 . S
O422 C405 1.255 . S
O423 Eu403 2.366 . S
O423 C405 1.265 . S
C424 O415 1.255 . S
C424 O416 1.265 . S
O425 Tb402 2.479 . S
O425 C412 1.238 . S
O426 Tb402 2.471 . S
O426 C412 1.247 . S
C427 C430 1.380 . S
C427 C431 1.374 . S
C427 C433 1.507 . S
C428 C429 1.387 . S
C428 C432 1.391 . S
C429 C428 1.387 . S
C429 C430 1.384 . S
C429 H438 0.930 . S
C430 C427 1.380 . S
C430 C429 1.384 . S
C430 H439 0.931 . S
C431 C427 1.374 . S
C431 C432 1.390 . S
C431 H440 0.930 . S
C432 C428 1.391 . S
C432 C431 1.390 . S
C432 H441 0.930 . S
C433 Eu403 2.825 . S
C433 O418 1.238 . S
C433 O419 1.247 . S
C433 C427 1.507 . S
H434 C407 0.930 . S
H435 C408 0.931 . S
H436 C409 0.930 . S
H437 C410 0.930 . S
H438 C429 0.930 . S
H439 C430 0.931 . S
H440 C431 0.930 . S
H441 C432 0.930 . S
Tb442 C452 2.825 . S
Tb442 O453 2.347 . S
Tb442 O456 2.366 . S
Tb442 O461 2.418 . S
Tb442 O462 2.384 . S
Tb442 O465 2.479 . S
Tb442 O466 2.471 . S
Eu443 O454 2.418 . S
Eu443 O455 2.384 . S
Eu443 O458 2.479 . S
Eu443 O459 2.471 . S
Eu443 O460 2.347 . S
Eu443 O463 2.366 . S
Eu443 C473 2.825 . S
C444 O460 1.259 . S
C444 O461 1.265 . S
C445 O462 1.255 . S
C445 O463 1.265 . S
C446 C448 1.380 . S
C446 C449 1.374 . S
C446 C452 1.507 . S
C447 C448 1.384 . S
C447 C451 1.387 . S
C447 H474 0.930 . S
C448 C446 1.380 . S
C448 C447 1.384 . S
C448 H475 0.931 . S
C449 C446 1.374 . S
C449 C450 1.390 . S
C449 H476 0.930 . S
C450 C449 1.390 . S
C450 C451 1.391 . S
C450 H477 0.930 . S
C451 C447 1.387 . S
C451 C450 1.391 . S
C452 Tb442 2.825 . S
C452 C446 1.507 . S
C452 O465 1.238 . S
C452 O466 1.247 . S
O453 Tb442 2.347 . S
O453 C457 1.259 . S
O454 Eu443 2.418 . S
O454 C457 1.265 . S
O455 Eu443 2.384 . S
O455 C464 1.255 . S
O456 Tb442 2.366 . S
O456 C464 1.265 . S
C457 O453 1.259 . S
C457 O454 1.265 . S
O458 Eu443 2.479 . S
O458 C473 1.238 . S
O459 Eu443 2.471 . S
O459 C473 1.247 . S
O460 Eu443 2.347 . S
O460 C444 1.259 . S
O461 Tb442 2.418 . S
O461 C444 1.265 . S
O462 Tb442 2.384 . S
O462 C445 1.255 . S
O463 Eu443 2.366 . S
O463 C445 1.265 . S
C464 O455 1.255 . S
C464 O456 1.265 . S
O465 Tb442 2.479 . S
O465 C452 1.238 . S
O466 Tb442 2.471 . S
O466 C452 1.247 . S
C467 C470 1.380 . S
C467 C471 1.374 . S
C467 C473 1.507 . S
C468 C469 1.387 . S
C468 C472 1.391 . S
C469 C468 1.387 . S
C469 C470 1.384 . S
C469 H478 0.930 . S
C470 C467 1.380 . S
C470 C469 1.384 . S
C470 H479 0.931 . S
C471 C467 1.374 . S
C471 C472 1.390 . S
C471 H480 0.930 . S
C472 C468 1.391 . S
C472 C471 1.390 . S
C472 H481 0.930 . S
C473 Eu443 2.825 . S
C473 O458 1.238 . S
C473 O459 1.247 . S
C473 C467 1.507 . S
H474 C447 0.930 . S
H475 C448 0.931 . S
H476 C449 0.930 . S
H477 C450 0.930 . S
H478 C469 0.930 . S
H479 C470 0.931 . S
H480 C471 0.930 . S
H481 C472 0.930 . S
Tb482 C492 2.825 . S
Tb482 O493 2.347 . S
Tb482 O496 2.366 . S
Tb482 O501 2.418 . S
Tb482 O502 2.384 . S
Tb482 O505 2.479 . S
Tb482 O506 2.471 . S
Eu483 O494 2.418 . S
Eu483 O495 2.384 . S
Eu483 O498 2.479 . S
Eu483 O499 2.471 . S
Eu483 O500 2.347 . S
Eu483 O503 2.366 . S
Eu483 C513 2.825 . S
C484 O500 1.259 . S
C484 O501 1.265 . S
C485 O502 1.255 . S
C485 O503 1.265 . S
C486 C488 1.380 . S
C486 C489 1.374 . S
C486 C492 1.507 . S
C487 C488 1.384 . S
C487 C491 1.387 . S
C487 H514 0.930 . S
C488 C486 1.380 . S
C488 C487 1.384 . S
C488 H515 0.931 . S
C489 C486 1.374 . S
C489 C490 1.390 . S
C489 H516 0.930 . S
C490 C489 1.390 . S
C490 C491 1.391 . S
C490 H517 0.930 . S
C491 C487 1.387 . S
C491 C490 1.391 . S
C492 Tb482 2.825 . S
C492 C486 1.507 . S
C492 O505 1.238 . S
C492 O506 1.247 . S
O493 Tb482 2.347 . S
O493 C497 1.259 . S
O494 Eu483 2.418 . S
O494 C497 1.265 . S
O495 Eu483 2.384 . S
O495 C504 1.255 . S
O496 Tb482 2.366 . S
O496 C504 1.265 . S
C497 O493 1.259 . S
C497 O494 1.265 . S
O498 Eu483 2.479 . S
O498 C513 1.238 . S
O499 Eu483 2.471 . S
O499 C513 1.247 . S
O500 Eu483 2.347 . S
O500 C484 1.259 . S
O501 Tb482 2.418 . S
O501 C484 1.265 . S
O502 Tb482 2.384 . S
O502 C485 1.255 . S
O503 Eu483 2.366 . S
O503 C485 1.265 . S
C504 O495 1.255 . S
C504 O496 1.265 . S
O505 Tb482 2.479 . S
O505 C492 1.238 . S
O506 Tb482 2.471 . S
O506 C492 1.247 . S
C507 C510 1.380 . S
C507 C511 1.374 . S
C507 C513 1.507 . S
C508 C509 1.387 . S
C508 C512 1.391 . S
C509 C508 1.387 . S
C509 C510 1.384 . S
C509 H518 0.930 . S
C510 C507 1.380 . S
C510 C509 1.384 . S
C510 H519 0.931 . S
C511 C507 1.374 . S
C511 C512 1.390 . S
C511 H520 0.930 . S
C512 C508 1.391 . S
C512 C511 1.390 . S
C512 H521 0.930 . S
C513 Eu483 2.825 . S
C513 O498 1.238 . S
C513 O499 1.247 . S
C513 C507 1.507 . S
H514 C487 0.930 . S
H515 C488 0.931 . S
H516 C489 0.930 . S
H517 C490 0.930 . S
H518 C509 0.930 . S
H519 C510 0.931 . S
H520 C511 0.930 . S
H521 C512 0.930 . S
H522 C528 0.930 . S
H523 C531 0.930 . S
H524 C532 0.930 . S
H525 C533 0.930 . S
H526 C536 0.930 1_556 S
H527 C537 0.930 . S
C528 H522 0.930 . S
C528 C529 1.355 . S
C528 C530 1.415 . S
C529 C528 1.355 . S
C529 C531 1.419 . S
C530 C528 1.415 . S
C530 C535 1.425 . S
C530 C537 1.409 . S
C531 H523 0.930 . S
C531 C529 1.419 . S
C531 C532 1.362 . S
C532 H524 0.930 . S
C532 C531 1.362 . S
C532 C535 1.409 . S
C533 H525 0.930 . S
C533 C534 1.355 . S
C533 C535 1.415 . S
C534 C533 1.355 . S
C534 C536 1.419 . S
C535 C530 1.425 . S
C535 C532 1.409 . S
C535 C533 1.415 . S
C536 H526 0.930 1_554 S
C536 C534 1.419 . S
C536 C537 1.362 . S
C537 H527 0.930 . S
C537 C530 1.409 . S
C537 C536 1.362 . S
H538 C544 0.930 . S
H539 C547 0.930 . S
H540 C548 0.930 . S
H541 C549 0.930 . S
H542 C552 0.981 . S
H543 C553 0.930 . S
C544 H538 0.930 . S
C544 C545 1.355 . S
C544 C546 1.415 . S
C545 C544 1.355 . S
C545 C547 1.419 . S
C546 C544 1.415 . S
C546 C551 1.425 . S
C546 C553 1.409 . S
C547 H539 0.930 . S
C547 C545 1.419 . S
C547 C548 1.362 . S
C548 H540 0.930 . S
C548 C547 1.362 . S
C548 C551 1.409 . S
C549 H541 0.930 . S
C549 C550 1.355 . S
C549 C551 1.415 . S
C550 C549 1.355 . S
C550 C552 1.419 . S
C551 C546 1.425 . S
C551 C548 1.409 . S
C551 C549 1.415 . S
C552 H542 0.981 . S
C552 C550 1.419 . S
C552 C553 1.362 . S
C553 H543 0.930 . S
C553 C546 1.409 . S
C553 C552 1.362 . S
H554 C560 0.930 . S
H555 C563 0.930 . S
H556 C564 0.930 . S
H557 C565 0.930 . S
H558 C568 0.930 . S
H559 C569 0.930 . S
C560 H554 0.930 . S
C560 C561 1.355 . S
C560 C562 1.415 . S
C561 C560 1.355 . S
C561 C563 1.419 . S
C562 C560 1.415 . S
C562 C567 1.425 . S
C562 C569 1.409 . S
C563 H555 0.930 . S
C563 C561 1.419 . S
C563 C564 1.362 . S
C564 H556 0.930 . S
C564 C563 1.362 . S
C564 C567 1.409 . S
C565 H557 0.930 . S
C565 C566 1.355 . S
C565 C567 1.415 . S
C566 C565 1.355 . S
C566 C568 1.419 . S
C567 C562 1.425 . S
C567 C564 1.409 . S
C567 C565 1.415 . S
C568 H558 0.930 . S
C568 C566 1.419 . S
C568 C569 1.362 . S
C569 H559 0.930 . S
C569 C562 1.409 . S
C569 C568 1.362 . S
H570 C576 0.930 . S
H571 C579 0.930 . S
H572 C580 0.930 . S
H573 C581 0.930 . S
H574 C584 0.932 1_554 S
H575 C585 0.930 1_554 S
C576 H570 0.930 . S
C576 C577 1.355 . S
C576 C578 1.415 . S
C577 C576 1.355 . S
C577 C579 1.419 . S
C578 C576 1.415 . S
C578 C583 1.425 . S
C578 C585 1.409 . S
C579 H571 0.930 . S
C579 C577 1.419 . S
C579 C580 1.362 . S
C580 H572 0.930 . S
C580 C579 1.362 . S
C580 C583 1.409 . S
C581 H573 0.930 . S
C581 C582 1.355 . S
C581 C583 1.415 . S
C582 C581 1.355 . S
C582 C584 1.417 . S
C583 C578 1.425 . S
C583 C580 1.409 . S
C583 C581 1.415 . S
C584 H574 0.932 1_556 S
C584 C582 1.417 . S
C584 C585 1.362 . S
C585 H575 0.930 1_556 S
C585 C578 1.409 . S
C585 C584 1.362 . S
H586 C592 0.930 . S
H587 C595 0.930 . S
H588 C596 0.930 . S
H589 C597 0.930 . S
H590 C600 0.930 . S
H591 C601 0.930 . S
C592 H586 0.930 . S
C592 C593 1.355 . S
C592 C594 1.415 . S
C593 C592 1.355 . S
C593 C595 1.419 . S
C594 C592 1.415 . S
C594 C599 1.425 . S
C594 C601 1.409 . S
C595 H587 0.930 . S
C595 C593 1.419 . S
C595 C596 1.362 . S
C596 H588 0.930 . S
C596 C595 1.362 . S
C596 C599 1.409 . S
C597 H589 0.930 . S
C597 C598 1.355 . S
C597 C599 1.415 . S
C598 C597 1.355 . S
C598 C600 1.419 . S
C599 C594 1.425 . S
C599 C596 1.409 . S
C599 C597 1.415 . S
C600 H590 0.930 . S
C600 C598 1.419 . S
C600 C601 1.362 . S
C601 H591 0.930 . S
C601 C594 1.409 . S
C601 C600 1.362 . S
H602 C608 0.930 . S
H603 C611 0.930 . S
H604 C612 0.930 . S
H605 C613 0.930 . S
H606 C616 0.930 . S
H607 C617 0.930 . S
C608 H602 0.930 . S
C608 C609 1.355 . S
C608 C610 1.415 . S
C609 C608 1.355 . S
C609 C611 1.419 . S
C610 C608 1.415 . S
C610 C615 1.425 . S
C610 C617 1.409 . S
C611 H603 0.930 . S
C611 C609 1.419 . S
C611 C612 1.362 . S
C612 H604 0.930 . S
C612 C611 1.362 . S
C612 C615 1.409 . S
C613 H605 0.930 . S
C613 C614 1.355 . S
C613 C615 1.415 . S
C614 C613 1.355 . S
C614 C616 1.419 . S
C615 C610 1.425 . S
C615 C612 1.409 . S
C615 C613 1.415 . S
C616 H606 0.930 . S
C616 C614 1.419 . S
C616 C617 1.362 . S
C617 H607 0.930 . S
C617 C610 1.409 . S
C617 C616 1.362 . S
H618 C624 0.930 . S
H619 C627 0.930 . S
H620 C628 0.930 . S
H621 C629 0.930 . S
H622 C632 0.930 1_554 S
H623 C633 0.930 . S
C624 H618 0.930 . S
C624 C625 1.355 . S
C624 C626 1.415 . S
C625 C624 1.355 . S
C625 C627 1.419 . S
C626 C624 1.415 . S
C626 C631 1.425 . S
C626 C633 1.409 . S
C627 H619 0.930 . S
C627 C625 1.419 . S
C627 C628 1.362 . S
C628 H620 0.930 . S
C628 C627 1.362 . S
C628 C631 1.409 . S
C629 H621 0.930 . S
C629 C630 1.355 . S
C629 C631 1.415 . S
C630 C629 1.355 . S
C630 C632 1.419 . S
C631 C626 1.425 . S
C631 C628 1.409 . S
C631 C629 1.415 . S
C632 H622 0.930 1_556 S
C632 C630 1.419 . S
C632 C633 1.362 . S
C633 H623 0.930 . S
C633 C626 1.409 . S
C633 C632 1.362 . S
H634 C640 0.930 . S
H635 C643 0.930 . S
H636 C644 0.930 . S
H637 C645 0.930 . S
H638 C648 0.930 . S
H639 C649 0.930 . S
C640 H634 0.930 . S
C640 C641 1.355 . S
C640 C642 1.415 . S
C641 C640 1.355 . S
C641 C643 1.419 . S
C642 C640 1.415 . S
C642 C647 1.425 . S
C642 C649 1.409 . S
C643 H635 0.930 . S
C643 C641 1.419 . S
C643 C644 1.362 . S
C644 H636 0.930 . S
C644 C643 1.362 . S
C644 C647 1.409 . S
C645 H637 0.930 . S
C645 C646 1.355 . S
C645 C647 1.415 . S
C646 C645 1.355 . S
C646 C648 1.419 . S
C647 C642 1.425 . S
C647 C644 1.409 . S
C647 C645 1.415 . S
C648 H638 0.930 . S
C648 C646 1.419 . S
C648 C649 1.362 . S
C649 H639 0.930 . S
C649 C642 1.409 . S
C649 C648 1.362 . S
H650 C656 0.930 . S
H651 C659 0.930 . S
H652 C660 0.930 1_554 S
H653 C661 0.930 1_554 S
H654 C664 0.930 . S
H655 C665 0.930 . S
C656 H650 0.930 . S
C656 C657 1.355 . S
C656 C658 1.415 . S
C657 C656 1.355 . S
C657 C659 1.419 . S
C658 C656 1.415 . S
C658 C663 1.425 . S
C658 C665 1.409 . S
C659 H651 0.930 . S
C659 C657 1.419 . S
C659 C660 1.362 . S
C660 H652 0.930 1_556 S
C660 C659 1.362 . S
C660 C663 1.409 . S
C661 H653 0.930 1_556 S
C661 C662 1.355 . S
C661 C663 1.415 . S
C662 C661 1.355 . S
C662 C664 1.419 . S
C663 C658 1.425 . S
C663 C660 1.409 . S
C663 C661 1.415 . S
C664 H654 0.930 . S
C664 C662 1.419 . S
C664 C665 1.362 . S
C665 H655 0.930 . S
C665 C658 1.409 . S
C665 C664 1.362 . S
H666 C672 0.930 . S
H667 C675 0.930 . S
H668 C676 0.930 . S
H669 C677 0.930 . S
H670 C680 0.930 . S
H671 C681 0.930 . S
C672 H666 0.930 . S
C672 C673 1.355 . S
C672 C674 1.415 . S
C673 C672 1.355 . S
C673 C675 1.419 . S
C674 C672 1.415 . S
C674 C679 1.425 . S
C674 C681 1.409 . S
C675 H667 0.930 . S
C675 C673 1.419 . S
C675 C676 1.362 . S
C676 H668 0.930 . S
C676 C675 1.362 . S
C676 C679 1.409 . S
C677 H669 0.930 . S
C677 C678 1.355 . S
C677 C679 1.415 . S
C678 C677 1.355 . S
C678 C680 1.419 . S
C679 C674 1.425 . S
C679 C676 1.409 . S
C679 C677 1.415 . S
C680 H670 0.930 . S
C680 C678 1.419 . S
C680 C681 1.362 . S
C681 H671 0.930 . S
C681 C674 1.409 . S
C681 C680 1.362 . S
H682 C688 0.930 . S
H683 C691 0.930 . S
H684 C692 0.930 . S
H685 C693 0.930 . S
H686 C696 0.930 1_556 S
H687 C697 0.930 . S
C688 H682 0.930 . S
C688 C689 1.355 . S
C688 C690 1.415 . S
C689 C688 1.355 . S
C689 C691 1.419 . S
C690 C688 1.415 . S
C690 C695 1.425 . S
C690 C697 1.409 . S
C691 H683 0.930 . S
C691 C689 1.419 . S
C691 C692 1.362 . S
C692 H684 0.930 . S
C692 C691 1.362 . S
C692 C695 1.409 . S
C693 H685 0.930 . S
C693 C694 1.355 . S
C693 C695 1.415 . S
C694 C693 1.355 . S
C694 C696 1.419 . S
C695 C690 1.425 . S
C695 C692 1.409 . S
C695 C693 1.415 . S
C696 H686 0.930 1_554 S
C696 C694 1.419 . S
C696 C697 1.362 . S
C697 H687 0.930 . S
C697 C690 1.409 . S
C697 C696 1.362 . S
H698 C704 0.930 . S
H699 C707 0.930 . S
H700 C708 0.930 . S
H701 C709 0.930 . S
H702 C712 0.930 . S
H703 C713 0.930 . S
C704 H698 0.930 . S
C704 C705 1.355 . S
C704 C706 1.415 . S
C705 C704 1.355 . S
C705 C707 1.419 . S
C706 C704 1.415 . S
C706 C711 1.425 . S
C706 C713 1.409 . S
C707 H699 0.930 . S
C707 C705 1.419 . S
C707 C708 1.362 . S
C708 H700 0.930 . S
C708 C707 1.362 . S
C708 C711 1.409 . S
C709 H701 0.930 . S
C709 C710 1.355 . S
C709 C711 1.415 . S
C710 C709 1.355 . S
C710 C712 1.419 . S
C711 C706 1.425 . S
C711 C708 1.409 . S
C711 C709 1.415 . S
C712 H702 0.930 . S
C712 C710 1.419 . S
C712 C713 1.362 . S
C713 H703 0.930 . S
C713 C706 1.409 . S
C713 C712 1.362 . S
H714 C720 0.930 . S
H715 C723 0.930 . S
H716 C724 0.930 . S
H717 C725 0.930 . S
H718 C728 0.930 . S
H719 C729 0.930 . S
C720 H714 0.930 . S
C720 C721 1.355 . S
C720 C722 1.415 . S
C721 C720 1.355 . S
C721 C723 1.419 . S
C722 C720 1.415 . S
C722 C727 1.433 1_655 S
C722 C729 1.409 1_655 S
C723 H715 0.930 . S
C723 C721 1.419 . S
C723 C724 1.362 . S
C724 H716 0.930 . S
C724 C723 1.362 . S
C724 C727 1.381 1_655 S
C725 H717 0.930 . S
C725 C726 1.355 . S
C725 C727 1.435 . S
C726 C725 1.355 . S
C726 C728 1.419 . S
C727 C722 1.433 1_455 S
C727 C724 1.381 1_455 S
C727 C725 1.435 . S
C728 H718 0.930 . S
C728 C726 1.419 . S
C728 C729 1.362 . S
C729 H719 0.930 . S
C729 C722 1.409 1_455 S
C729 C728 1.362 . S
H730 C736 0.930 . S
H731 C739 0.930 . S
H732 C740 0.930 . S
H733 C741 0.930 . S
H734 C744 0.930 . S
H735 C745 0.930 . S
C736 H730 0.930 . S
C736 C737 1.355 . S
C736 C738 1.415 . S
C737 C736 1.355 . S
C737 C739 1.419 . S
C738 C736 1.415 . S
C738 C743 1.425 . S
C738 C745 1.409 . S
C739 H731 0.930 . S
C739 C737 1.419 . S
C739 C740 1.362 . S
C740 H732 0.930 . S
C740 C739 1.362 . S
C740 C743 1.409 . S
C741 H733 0.930 . S
C741 C742 1.355 . S
C741 C743 1.415 . S
C742 C741 1.355 . S
C742 C744 1.419 . S
C743 C738 1.425 . S
C743 C740 1.409 . S
C743 C741 1.415 . S
C744 H734 0.930 . S
C744 C742 1.419 . S
C744 C745 1.362 . S
C745 H735 0.930 . S
C745 C738 1.409 . S
C745 C744 1.362 . S
H746 C752 0.930 . S
H747 C755 0.930 . S
H748 C756 0.930 . S
H749 C757 0.930 . S
H750 C760 0.930 . S
H751 C761 0.930 . S
C752 H746 0.930 . S
C752 C753 1.355 . S
C752 C754 1.415 . S
C753 C752 1.355 . S
C753 C755 1.419 . S
C754 C752 1.415 . S
C754 C759 1.425 . S
C754 C761 1.409 1_545 S
C755 H747 0.930 . S
C755 C753 1.419 . S
C755 C756 1.362 . S
C756 H748 0.930 . S
C756 C755 1.362 . S
C756 C759 1.409 . S
C757 H749 0.930 . S
C757 C758 1.355 . S
C757 C759 1.415 1_565 S
C758 C757 1.355 . S
C758 C760 1.419 . S
C759 C754 1.425 . S
C759 C756 1.409 . S
C759 C757 1.415 1_545 S
C760 H750 0.930 . S
C760 C758 1.419 . S
C760 C761 1.362 . S
C761 H751 0.930 . S
C761 C754 1.409 1_565 S
C761 C760 1.362 . S
H762 C768 0.930 . S
H763 C771 0.930 . S
H764 C772 0.930 . S
H765 C773 0.930 . S
H766 C776 0.930 . S
H767 C777 0.930 . S
C768 H762 0.930 . S
C768 C769 1.355 . S
C768 C770 1.415 . S
C769 C768 1.355 . S
C769 C771 1.419 . S
C770 C768 1.415 . S
C770 C775 1.425 . S
C770 C777 1.409 . S
C771 H763 0.930 . S
C771 C769 1.419 . S
C771 C772 1.362 . S
C772 H764 0.930 . S
C772 C771 1.362 . S
C772 C775 1.409 . S
C773 H765 0.930 . S
C773 C774 1.355 . S
C773 C775 1.415 . S
C774 C773 1.355 . S
C774 C776 1.419 . S
C775 C770 1.425 . S
C775 C772 1.409 . S
C775 C773 1.415 . S
C776 H766 0.930 . S
C776 C774 1.419 . S
C776 C777 1.362 . S
C777 H767 0.930 . S
C777 C770 1.409 . S
C777 C776 1.362 . S
H778 C784 0.930 . S
H779 C787 0.930 . S
H780 C788 0.930 . S
H781 C789 0.930 . S
H782 C792 0.930 . S
H783 C793 0.930 . S
C784 H778 0.930 . S
C784 C785 1.355 . S
C784 C786 1.415 . S
C785 C784 1.355 . S
C785 C787 1.419 . S
C786 C784 1.415 . S
C786 C791 1.425 . S
C786 C793 1.409 . S
C787 H779 0.930 . S
C787 C785 1.419 . S
C787 C788 1.362 . S
C788 H780 0.930 . S
C788 C787 1.362 . S
C788 C791 1.409 . S
C789 H781 0.930 . S
C789 C790 1.355 . S
C789 C791 1.415 . S
C790 C789 1.355 . S
C790 C792 1.419 . S
C791 C786 1.425 . S
C791 C788 1.409 . S
C791 C789 1.415 . S
C792 H782 0.930 . S
C792 C790 1.419 . S
C792 C793 1.362 . S
C793 H783 0.930 . S
C793 C786 1.409 . S
C793 C792 1.362 . S
H794 C800 0.930 . S
H795 C803 0.930 . S
H796 C804 0.930 . S
H797 C805 0.930 . S
H798 C808 0.930 . S
H799 C809 0.930 . S
C800 H794 0.930 . S
C800 C801 1.355 . S
C800 C802 1.415 . S
C801 C800 1.355 . S
C801 C803 1.419 . S
C802 C800 1.415 . S
C802 C807 1.425 . S
C802 C809 1.409 . S
C803 H795 0.930 . S
C803 C801 1.419 . S
C803 C804 1.362 . S
C804 H796 0.930 . S
C804 C803 1.362 . S
C804 C807 1.409 . S
C805 H797 0.930 . S
C805 C806 1.355 . S
C805 C807 1.415 . S
C806 C805 1.355 . S
C806 C808 1.419 . S
C807 C802 1.425 . S
C807 C804 1.409 . S
C807 C805 1.415 . S
C808 H798 0.930 . S
C808 C806 1.419 . S
C808 C809 1.362 . S
C809 H799 0.930 . S
C809 C802 1.409 . S
C809 C808 1.362 . S
H810 C816 0.930 . S
H811 C819 0.930 . S
H812 C820 0.930 . S
H813 C821 0.930 . S
H814 C824 0.930 . S
H815 C825 0.930 . S
C816 H810 0.930 . S
C816 C817 1.355 . S
C816 C818 1.415 . S
C817 C816 1.355 . S
C817 C819 1.419 . S
C818 C816 1.415 . S
C818 C823 1.425 . S
C818 C825 1.409 . S
C819 H811 0.930 . S
C819 C817 1.419 . S
C819 C820 1.362 . S
C820 H812 0.930 . S
C820 C819 1.362 . S
C820 C823 1.409 . S
C821 H813 0.930 . S
C821 C822 1.355 . S
C821 C823 1.415 . S
C822 C821 1.355 . S
C822 C824 1.419 . S
C823 C818 1.425 . S
C823 C820 1.409 . S
C823 C821 1.415 . S
C824 H814 0.930 . S
C824 C822 1.419 . S
C824 C825 1.362 . S
C825 H815 0.930 . S
C825 C818 1.409 . S
C825 C824 1.362 . S
H826 C832 0.930 . S
H827 C835 0.930 . S
H828 C836 0.930 . S
H829 C837 0.930 . S
H830 C840 0.930 . S
H831 C841 0.930 . S
C832 H826 0.930 . S
C832 C833 1.355 . S
C832 C834 1.415 . S
C833 C832 1.355 . S
C833 C835 1.419 . S
C834 C832 1.415 . S
C834 C839 1.425 . S
C834 C841 1.409 . S
C835 H827 0.930 . S
C835 C833 1.419 . S
C835 C836 1.362 . S
C836 H828 0.930 . S
C836 C835 1.362 . S
C836 C839 1.409 . S
C837 H829 0.930 . S
C837 C838 1.355 . S
C837 C839 1.415 . S
C838 C837 1.355 . S
C838 C840 1.419 . S
C839 C834 1.425 . S
C839 C836 1.409 . S
C839 C837 1.415 . S
C840 H830 0.930 . S
C840 C838 1.419 . S
C840 C841 1.362 . S
C841 H831 0.930 . S
C841 C834 1.409 . S
C841 C840 1.362 . S
H842 C848 0.930 . S
H843 C851 0.930 . S
H844 C852 0.930 . S
H845 C853 0.930 . S
H846 C856 0.930 . S
H847 C857 0.930 . S
C848 H842 0.930 . S
C848 C849 1.355 . S
C848 C850 1.415 . S
C849 C848 1.355 . S
C849 C851 1.419 . S
C850 C848 1.415 . S
C850 C855 1.425 . S
C850 C857 1.409 . S
C851 H843 0.930 . S
C851 C849 1.419 . S
C851 C852 1.362 . S
C852 H844 0.930 . S
C852 C851 1.362 . S
C852 C855 1.409 . S
C853 H845 0.930 . S
C853 C854 1.355 . S
C853 C855 1.415 . S
C854 C853 1.355 . S
C854 C856 1.419 . S
C855 C850 1.425 . S
C855 C852 1.409 . S
C855 C853 1.415 . S
C856 H846 0.930 . S
C856 C854 1.419 . S
C856 C857 1.362 . S
C857 H847 0.930 . S
C857 C850 1.409 . S
C857 C856 1.362 . S
H858 C864 0.930 . S
H859 C867 0.930 . S
H860 C868 0.930 . S
H861 C869 0.930 . S
H862 C872 0.930 . S
H863 C873 0.930 1_545 S
C864 H858 0.930 . S
C864 C865 1.355 . S
C864 C866 1.415 . S
C865 C864 1.355 . S
C865 C867 1.419 . S
C866 C864 1.415 . S
C866 C871 1.425 . S
C866 C873 1.409 1_545 S
C867 H859 0.930 . S
C867 C865 1.419 . S
C867 C868 1.362 . S
C868 H860 0.930 . S
C868 C867 1.362 . S
C868 C871 1.409 . S
C869 H861 0.930 . S
C869 C870 1.355 . S
C869 C871 1.415 1_565 S
C870 C869 1.355 . S
C870 C872 1.419 . S
C871 C866 1.425 . S
C871 C868 1.409 . S
C871 C869 1.415 1_545 S
C872 H862 0.930 . S
C872 C870 1.419 . S
C872 C873 1.362 . S
C873 H863 0.930 1_565 S
C873 C866 1.409 1_565 S
C873 C872 1.362 . S
H874 C880 0.930 . S
H875 C883 0.930 . S
H876 C884 0.930 1_455 S
H877 C885 0.930 . S
H878 C888 0.930 . S
H879 C889 0.930 . S
C880 H874 0.930 . S
C880 C881 1.355 . S
C880 C882 1.415 1_655 S
C881 C880 1.355 . S
C881 C883 1.419 . S
C882 C880 1.415 1_455 S
C882 C887 1.425 . S
C882 C889 1.409 . S
C883 H875 0.930 . S
C883 C881 1.419 . S
C883 C884 1.362 . S
C884 H876 0.930 1_655 S
C884 C883 1.362 . S
C884 C887 1.409 1_655 S
C885 H877 0.930 . S
C885 C886 1.355 . S
C885 C887 1.415 . S
C886 C885 1.355 . S
C886 C888 1.419 . S
C887 C882 1.425 . S
C887 C884 1.409 1_455 S
C887 C885 1.415 . S
C888 H878 0.930 . S
C888 C886 1.419 . S
C888 C889 1.362 . S
C889 H879 0.930 . S
C889 C882 1.409 . S
C889 C888 1.362 . S
H890 C896 0.930 . S
H891 C899 0.930 . S
H892 C900 0.930 . S
H893 C901 0.930 . S
H894 C904 0.930 . S
H895 C905 0.930 . S
C896 H890 0.930 . S
C896 C897 1.355 . S
C896 C898 1.415 . S
C897 C896 1.355 . S
C897 C899 1.419 . S
C898 C896 1.415 . S
C898 C903 1.425 . S
C898 C905 1.409 . S
C899 H891 0.930 . S
C899 C897 1.419 . S
C899 C900 1.362 . S
C900 H892 0.930 . S
C900 C899 1.362 . S
C900 C903 1.409 . S
C901 H893 0.930 . S
C901 C902 1.355 . S
C901 C903 1.415 . S
C902 C901 1.355 . S
C902 C904 1.419 . S
C903 C898 1.425 . S
C903 C900 1.409 . S
C903 C901 1.415 . S
C904 H894 0.930 . S
C904 C902 1.419 . S
C904 C905 1.362 . S
C905 H895 0.930 . S
C905 C898 1.409 . S
C905 C904 1.362 . S
H906 C912 0.930 . S
H907 C915 0.930 . S
H908 C916 0.930 . S
H909 C917 0.930 . S
H910 C920 0.930 . S
H911 C921 0.930 . S
C912 H906 0.930 . S
C912 C913 1.355 . S
C912 C914 1.415 . S
C913 C912 1.355 . S
C913 C915 1.419 . S
C914 C912 1.415 . S
C914 C919 1.425 . S
C914 C921 1.409 . S
C915 H907 0.930 . S
C915 C913 1.419 . S
C915 C916 1.362 . S
C916 H908 0.930 . S
C916 C915 1.362 . S
C916 C919 1.409 . S
C917 H909 0.930 . S
C917 C918 1.355 . S
C917 C919 1.415 . S
C918 C917 1.355 . S
C918 C920 1.419 . S
C919 C914 1.425 . S
C919 C916 1.409 . S
C919 C917 1.415 . S
C920 H910 0.930 . S
C920 C918 1.419 . S
C920 C921 1.362 . S
C921 H911 0.930 . S
C921 C914 1.409 . S
C921 C920 1.362 . S
H922 C928 0.930 . S
H923 C931 0.930 . S
H924 C932 0.930 . S
H925 C933 0.930 . S
H926 C936 0.930 . S
H927 C937 0.930 . S
C928 H922 0.930 . S
C928 C929 1.355 . S
C928 C930 1.415 . S
C929 C928 1.355 . S
C929 C931 1.419 . S
C930 C928 1.415 . S
C930 C935 1.425 . S
C930 C937 1.409 . S
C931 H923 0.930 . S
C931 C929 1.419 . S
C931 C932 1.362 . S
C932 H924 0.930 . S
C932 C931 1.362 . S
C932 C935 1.409 . S
C933 H925 0.930 . S
C933 C934 1.355 . S
C933 C935 1.415 . S
C934 C933 1.355 . S
C934 C936 1.419 . S
C935 C930 1.425 . S
C935 C932 1.409 . S
C935 C933 1.415 . S
C936 H926 0.930 . S
C936 C934 1.419 . S
C936 C937 1.362 . S
C937 H927 0.930 . S
C937 C930 1.409 . S
C937 C936 1.362 . S
H938 C944 0.930 . S
H939 C947 0.930 . S
H940 C948 0.930 . S
H941 C949 0.930 . S
H942 C952 0.930 . S
H943 C953 0.930 . S
C944 H938 0.930 . S
C944 C945 1.355 . S
C944 C946 1.415 . S
C945 C944 1.355 . S
C945 C947 1.419 . S
C946 C944 1.415 . S
C946 C951 1.425 . S
C946 C953 1.409 . S
C947 H939 0.930 . S
C947 C945 1.419 . S
C947 C948 1.362 . S
C948 H940 0.930 . S
C948 C947 1.362 . S
C948 C951 1.409 . S
C949 H941 0.930 . S
C949 C950 1.355 . S
C949 C951 1.415 . S
C950 C949 1.355 . S
C950 C952 1.419 . S
C951 C946 1.425 . S
C951 C948 1.409 . S
C951 C949 1.415 . S
C952 H942 0.930 . S
C952 C950 1.419 . S
C952 C953 1.362 . S
C953 H943 0.930 . S
C953 C946 1.409 . S
C953 C952 1.362 . S
H954 C960 0.930 . S
H955 C963 0.930 . S
H956 C964 0.930 . S
H957 C965 0.930 . S
H958 C968 0.930 . S
H959 C969 0.930 1_565 S
C960 H954 0.930 . S
C960 C961 1.355 . S
C960 C962 1.415 . S
C961 C960 1.355 . S
C961 C963 1.419 . S
C962 C960 1.415 . S
C962 C967 1.425 . S
C962 C969 1.409 1_565 S
C963 H955 0.930 . S
C963 C961 1.419 . S
C963 C964 1.362 . S
C964 H956 0.930 . S
C964 C963 1.362 . S
C964 C967 1.409 . S
C965 H957 0.930 . S
C965 C966 1.355 . S
C965 C967 1.415 1_545 S
C966 C965 1.355 . S
C966 C968 1.419 . S
C967 C962 1.425 . S
C967 C964 1.409 . S
C967 C965 1.415 1_565 S
C968 H958 0.930 . S
C968 C966 1.419 . S
C968 C969 1.362 . S
C969 H959 0.930 1_545 S
C969 C962 1.409 1_545 S
C969 C968 1.362 . S
H970 C976 0.930 . S
H971 C979 0.930 . S
H972 C980 0.930 . S
H973 C981 0.930 . S
H974 C984 0.930 . S
H975 C985 0.916 1_455 S
C976 H970 0.930 . S
C976 C977 1.355 . S
C976 C978 1.415 . S
C977 C976 1.355 . S
C977 C979 1.419 . S
C978 C976 1.415 . S
C978 C983 1.425 1_455 S
C978 C985 1.399 1_455 S
C979 H971 0.930 . S
C979 C977 1.419 . S
C979 C980 1.362 1_455 S
C980 H972 0.930 . S
C980 C979 1.362 1_655 S
C980 C983 1.409 . S
C981 H973 0.930 . S
C981 C982 1.355 . S
C981 C983 1.415 . S
C982 C981 1.355 . S
C982 C984 1.419 . S
C983 C978 1.425 1_655 S
C983 C980 1.409 . S
C983 C981 1.415 . S
C984 H974 0.930 . S
C984 C982 1.419 . S
C984 C985 1.387 . S
C985 H975 0.916 1_655 S
C985 C978 1.399 1_655 S
C985 C984 1.387 . S
H986 C992 0.930 . S
H987 C995 0.930 . S
H988 C996 0.930 . S
H989 C997 0.930 . S
H990 C1000 0.930 . S
H991 C1001 0.930 . S
C992 H986 0.930 . S
C992 C993 1.355 . S
C992 C994 1.415 . S
C993 C992 1.355 . S
C993 C995 1.419 . S
C994 C992 1.415 . S
C994 C999 1.425 . S
C994 C1001 1.409 . S
C995 H987 0.930 . S
C995 C993 1.419 . S
C995 C996 1.362 . S
C996 H988 0.930 . S
C996 C995 1.362 . S
C996 C999 1.409 . S
C997 H989 0.930 . S
C997 C998 1.355 . S
C997 C999 1.415 . S
C998 C997 1.355 . S
C998 C1000 1.419 . S
C999 C994 1.425 . S
C999 C996 1.409 . S
C999 C997 1.415 . S
C1000 H990 0.930 . S
C1000 C998 1.419 . S
C1000 C1001 1.362 . S
C1001 H991 0.930 . S
C1001 C994 1.409 . S
C1001 C1000 1.362 . S
H1002 C1008 0.930 . S
H1003 C1011 0.930 . S
H1004 C1012 0.958 . S
H1005 C1013 0.930 . S
H1006 C1016 0.930 . S
H1007 C1017 0.930 1_455 S
C1008 H1002 0.930 . S
C1008 C1009 1.355 . S
C1008 C1010 1.415 . S
C1009 C1008 1.355 . S
C1009 C1011 1.419 . S
C1010 C1008 1.415 . S
C1010 C1015 1.425 1_455 S
C1010 C1017 1.409 1_455 S
C1011 H1003 0.930 . S
C1011 C1009 1.419 . S
C1011 C1012 1.362 . S
C1012 H1004 0.958 . S
C1012 C1011 1.362 . S
C1012 C1015 1.409 1_455 S
C1013 H1005 0.930 . S
C1013 C1014 1.355 . S
C1013 C1015 1.415 . S
C1014 C1013 1.355 . S
C1014 C1016 1.419 . S
C1015 C1010 1.425 1_655 S
C1015 C1012 1.409 1_655 S
C1015 C1013 1.415 . S
C1016 H1006 0.930 . S
C1016 C1014 1.419 . S
C1016 C1017 1.362 . S
C1017 H1007 0.930 1_655 S
C1017 C1010 1.409 1_655 S
C1017 C1016 1.362 . S
H1018 C1024 0.930 . S
H1019 C1027 0.930 . S
H1020 C1028 0.930 . S
H1021 C1029 0.930 . S
H1022 C1032 0.930 . S
H1023 C1033 0.930 . S
C1024 H1018 0.930 . S
C1024 C1025 1.355 . S
C1024 C1026 1.415 . S
C1025 C1024 1.355 . S
C1025 C1027 1.419 . S
C1026 C1024 1.415 . S
C1026 C1031 1.425 . S
C1026 C1033 1.409 . S
C1027 H1019 0.930 . S
C1027 C1025 1.419 . S
C1027 C1028 1.362 . S
C1028 H1020 0.930 . S
C1028 C1027 1.362 . S
C1028 C1031 1.409 . S
C1029 H1021 0.930 . S
C1029 C1030 1.355 . S
C1029 C1031 1.415 . S
C1030 C1029 1.355 . S
C1030 C1032 1.419 . S
C1031 C1026 1.425 . S
C1031 C1028 1.409 . S
C1031 C1029 1.415 . S
C1032 H1022 0.930 . S
C1032 C1030 1.419 . S
C1032 C1033 1.362 . S
C1033 H1023 0.930 . S
C1033 C1026 1.409 . S
C1033 C1032 1.362 . S
H1034 C1040 0.930 . S
H1035 C1043 0.930 . S
H1036 C1044 0.930 . S
H1037 C1045 0.930 . S
H1038 C1048 0.930 . S
H1039 C1049 0.930 . S
C1040 H1034 0.930 . S
C1040 C1041 1.355 . S
C1040 C1042 1.415 . S
C1041 C1040 1.355 . S
C1041 C1043 1.419 . S
C1042 C1040 1.415 . S
C1042 C1047 1.425 . S
C1042 C1049 1.409 . S
C1043 H1035 0.930 . S
C1043 C1041 1.419 . S
C1043 C1044 1.362 . S
C1044 H1036 0.930 . S
C1044 C1043 1.362 . S
C1044 C1047 1.409 . S
C1045 H1037 0.930 . S
C1045 C1046 1.355 . S
C1045 C1047 1.415 1_545 S
C1046 C1045 1.355 . S
C1046 C1048 1.419 . S
C1047 C1042 1.425 . S
C1047 C1044 1.409 . S
C1047 C1045 1.415 1_565 S
C1048 H1038 0.930 . S
C1048 C1046 1.419 . S
C1048 C1049 1.362 1_545 S
C1049 H1039 0.930 . S
C1049 C1042 1.409 . S
C1049 C1048 1.362 1_565 S
H1050 C1056 0.930 . S
H1051 C1059 0.930 . S
H1052 C1060 0.930 . S
H1053 C1061 0.930 . S
H1054 C1064 0.930 . S
H1055 C1065 0.930 . S
C1056 H1050 0.930 . S
C1056 C1057 1.355 . S
C1056 C1058 1.415 . S
C1057 C1056 1.355 . S
C1057 C1059 1.419 . S
C1058 C1056 1.415 . S
C1058 C1063 1.425 . S
C1058 C1065 1.409 . S
C1059 H1051 0.930 . S
C1059 C1057 1.419 . S
C1059 C1060 1.362 . S
C1060 H1052 0.930 . S
C1060 C1059 1.362 . S
C1060 C1063 1.409 . S
C1061 H1053 0.930 . S
C1061 C1062 1.355 . S
C1061 C1063 1.415 . S
C1062 C1061 1.355 . S
C1062 C1064 1.419 . S
C1063 C1058 1.425 . S
C1063 C1060 1.409 . S
C1063 C1061 1.415 . S
C1064 H1054 0.930 . S
C1064 C1062 1.419 . S
C1064 C1065 1.362 . S
C1065 H1055 0.930 . S
C1065 C1058 1.409 . S
C1065 C1064 1.362 . S
H1066 C1072 0.930 . S
H1067 C1075 0.930 . S
H1068 C1076 0.930 . S
H1069 C1077 0.930 . S
H1070 C1080 0.930 . S
H1071 C1081 0.930 . S
C1072 H1066 0.930 . S
C1072 C1073 1.355 . S
C1072 C1074 1.415 . S
C1073 C1072 1.355 . S
C1073 C1075 1.419 . S
C1074 C1072 1.415 . S
C1074 C1079 1.425 . S
C1074 C1081 1.409 . S
C1075 H1067 0.930 . S
C1075 C1073 1.419 . S
C1075 C1076 1.362 . S
C1076 H1068 0.930 . S
C1076 C1075 1.362 . S
C1076 C1079 1.409 . S
C1077 H1069 0.930 . S
C1077 C1078 1.355 . S
C1077 C1079 1.415 . S
C1078 C1077 1.355 . S
C1078 C1080 1.419 . S
C1079 C1074 1.425 . S
C1079 C1076 1.409 . S
C1079 C1077 1.415 . S
C1080 H1070 0.930 . S
C1080 C1078 1.419 . S
C1080 C1081 1.362 . S
C1081 H1071 0.930 . S
C1081 C1074 1.409 . S
C1081 C1080 1.362 . S
H1082 C1088 0.930 . S
H1083 C1091 0.930 . S
H1084 C1092 0.930 . S
H1085 C1093 0.930 . S
H1086 C1096 0.930 . S
H1087 C1097 0.930 . S
C1088 H1082 0.930 . S
C1088 C1089 1.355 . S
C1088 C1090 1.415 . S
C1089 C1088 1.355 . S
C1089 C1091 1.419 . S
C1090 C1088 1.415 . S
C1090 C1095 1.425 . S
C1090 C1097 1.409 . S
C1091 H1083 0.930 . S
C1091 C1089 1.419 . S
C1091 C1092 1.362 . S
C1092 H1084 0.930 . S
C1092 C1091 1.362 . S
C1092 C1095 1.409 . S
C1093 H1085 0.930 . S
C1093 C1094 1.355 . S
C1093 C1095 1.415 . S
C1094 C1093 1.355 . S
C1094 C1096 1.419 . S
C1095 C1090 1.425 . S
C1095 C1092 1.409 . S
C1095 C1093 1.415 . S
C1096 H1086 0.930 . S
C1096 C1094 1.419 . S
C1096 C1097 1.362 . S
C1097 H1087 0.930 . S
C1097 C1090 1.409 . S
C1097 C1096 1.362 . S
H1098 C1104 0.930 . S
H1099 C1107 0.930 . S
H1100 C1108 0.930 . S
H1101 C1109 0.930 . S
H1102 C1112 0.930 . S
H1103 C1113 0.930 . S
C1104 H1098 0.930 . S
C1104 C1105 1.355 . S
C1104 C1106 1.415 . S
C1105 C1104 1.355 . S
C1105 C1107 1.419 . S
C1106 C1104 1.415 . S
C1106 C1111 1.425 . S
C1106 C1113 1.409 . S
C1107 H1099 0.930 . S
C1107 C1105 1.419 . S
C1107 C1108 1.362 . S
C1108 H1100 0.930 . S
C1108 C1107 1.362 . S
C1108 C1111 1.409 . S
C1109 H1101 0.930 . S
C1109 C1110 1.355 . S
C1109 C1111 1.415 . S
C1110 C1109 1.355 . S
C1110 C1112 1.419 . S
C1111 C1106 1.425 . S
C1111 C1108 1.409 . S
C1111 C1109 1.415 . S
C1112 H1102 0.930 . S
C1112 C1110 1.419 . S
C1112 C1113 1.362 . S
C1113 H1103 0.930 . S
C1113 C1106 1.409 . S
C1113 C1112 1.362 . S
H1114 C1120 0.930 . S
H1115 C1123 0.930 1_655 S
H1116 C1124 0.930 . S
H1117 C1125 0.931 1_655 S
H1118 C1128 0.930 . S
H1119 C1129 0.930 . S
C1120 H1114 0.930 . S
C1120 C1121 1.355 . S
C1120 C1122 1.415 . S
C1121 C1120 1.355 . S
C1121 C1123 1.419 . S
C1122 C1120 1.415 . S
C1122 C1127 1.425 . S
C1122 C1129 1.409 . S
C1123 H1115 0.930 1_455 S
C1123 C1121 1.419 . S
C1123 C1124 1.362 1_455 S
C1124 H1116 0.930 . S
C1124 C1123 1.362 1_655 S
C1124 C1127 1.409 1_655 S
C1125 H1117 0.931 1_455 S
C1125 C1126 1.355 . S
C1125 C1127 1.415 . S
C1126 C1125 1.355 . S
C1126 C1128 1.419 . S
C1127 C1122 1.425 . S
C1127 C1124 1.409 1_455 S
C1127 C1125 1.415 . S
C1128 H1118 0.930 . S
C1128 C1126 1.419 . S
C1128 C1129 1.362 . S
C1129 H1119 0.930 . S
C1129 C1122 1.409 . S
C1129 C1128 1.362 . S
H1130 C1136 0.930 . S
H1131 C1139 0.930 . S
H1132 C1140 0.930 . S
H1133 C1141 0.930 . S
H1134 C1144 0.930 . S
H1135 C1145 0.930 . S
C1136 H1130 0.930 . S
C1136 C1137 1.355 . S
C1136 C1138 1.415 . S
C1137 C1136 1.355 . S
C1137 C1139 1.419 . S
C1138 C1136 1.415 . S
C1138 C1143 1.425 . S
C1138 C1145 1.409 . S
C1139 H1131 0.930 . S
C1139 C1137 1.419 . S
C1139 C1140 1.362 . S
C1140 H1132 0.930 . S
C1140 C1139 1.362 . S
C1140 C1143 1.409 . S
C1141 H1133 0.930 . S
C1141 C1142 1.355 . S
C1141 C1143 1.415 . S
C1142 C1141 1.355 . S
C1142 C1144 1.419 . S
C1143 C1138 1.425 . S
C1143 C1140 1.409 . S
C1143 C1141 1.415 . S
C1144 H1134 0.930 . S
C1144 C1142 1.419 . S
C1144 C1145 1.362 . S
C1145 H1135 0.930 . S
C1145 C1138 1.409 . S
C1145 C1144 1.362 . S
H1146 C1152 0.930 . S
H1147 C1155 0.930 . S
H1148 C1156 0.930 . S
H1149 C1157 0.930 . S
H1150 C1160 0.930 . S
H1151 C1161 0.930 . S
C1152 H1146 0.930 . S
C1152 C1153 1.355 . S
C1152 C1154 1.415 . S
C1153 C1152 1.355 . S
C1153 C1155 1.419 . S
C1154 C1152 1.415 . S
C1154 C1159 1.425 . S
C1154 C1161 1.409 . S
C1155 H1147 0.930 . S
C1155 C1153 1.419 . S
C1155 C1156 1.362 . S
C1156 H1148 0.930 . S
C1156 C1155 1.362 . S
C1156 C1159 1.409 . S
C1157 H1149 0.930 . S
C1157 C1158 1.355 . S
C1157 C1159 1.415 . S
C1158 C1157 1.355 . S
C1158 C1160 1.419 . S
C1159 C1154 1.425 . S
C1159 C1156 1.409 . S
C1159 C1157 1.415 . S
C1160 H1150 0.930 . S
C1160 C1158 1.419 . S
C1160 C1161 1.362 . S
C1161 H1151 0.930 . S
C1161 C1154 1.409 . S
C1161 C1160 1.362 . S
H1162 C1168 0.930 . S
H1163 C1171 0.930 . S
H1164 C1172 0.930 . S
H1165 C1173 0.930 . S
H1166 C1176 0.930 . S
H1167 C1177 0.930 . S
C1168 H1162 0.930 . S
C1168 C1169 1.355 . S
C1168 C1170 1.415 . S
C1169 C1168 1.355 . S
C1169 C1171 1.419 . S
C1170 C1168 1.415 . S
C1170 C1175 1.425 . S
C1170 C1177 1.409 . S
C1171 H1163 0.930 . S
C1171 C1169 1.419 . S
C1171 C1172 1.362 . S
C1172 H1164 0.930 . S
C1172 C1171 1.362 . S
C1172 C1175 1.409 . S
C1173 H1165 0.930 . S
C1173 C1174 1.355 . S
C1173 C1175 1.415 . S
C1174 C1173 1.355 . S
C1174 C1176 1.419 . S
C1175 C1170 1.425 . S
C1175 C1172 1.409 . S
C1175 C1173 1.415 . S
C1176 H1166 0.930 . S
C1176 C1174 1.419 . S
C1176 C1177 1.362 . S
C1177 H1167 0.930 . S
C1177 C1170 1.409 . S
C1177 C1176 1.362 . S
H1178 C1184 0.930 . S
H1179 C1187 0.930 . S
H1180 C1188 0.930 1_565 S
H1181 C1189 0.930 1_565 S
H1182 C1192 0.930 . S
H1183 C1193 0.930 . S
C1184 H1178 0.930 . S
C1184 C1185 1.355 . S
C1184 C1186 1.415 . S
C1185 C1184 1.355 . S
C1185 C1187 1.419 . S
C1186 C1184 1.415 . S
C1186 C1191 1.425 . S
C1186 C1193 1.409 . S
C1187 H1179 0.930 . S
C1187 C1185 1.419 . S
C1187 C1188 1.362 . S
C1188 H1180 0.930 1_545 S
C1188 C1187 1.362 . S
C1188 C1191 1.409 . S
C1189 H1181 0.930 1_545 S
C1189 C1190 1.355 . S
C1189 C1191 1.415 . S
C1190 C1189 1.355 . S
C1190 C1192 1.419 . S
C1191 C1186 1.425 . S
C1191 C1188 1.409 . S
C1191 C1189 1.415 . S
C1192 H1182 0.930 . S
C1192 C1190 1.419 . S
C1192 C1193 1.362 . S
C1193 H1183 0.930 . S
C1193 C1186 1.409 . S
C1193 C1192 1.362 . S
H1194 C1200 0.930 . S
H1195 C1203 0.930 . S
H1196 C1204 0.930 . S
H1197 C1205 0.930 . S
H1198 C1208 0.930 . S
H1199 C1209 0.930 . S
C1200 H1194 0.930 . S
C1200 C1201 1.355 . S
C1200 C1202 1.415 . S
C1201 C1200 1.355 . S
C1201 C1203 1.419 . S
C1202 C1200 1.415 . S
C1202 C1207 1.425 . S
C1202 C1209 1.409 . S
C1203 H1195 0.930 . S
C1203 C1201 1.419 . S
C1203 C1204 1.362 . S
C1204 H1196 0.930 . S
C1204 C1203 1.362 . S
C1204 C1207 1.409 . S
C1205 H1197 0.930 . S
C1205 C1206 1.355 . S
C1205 C1207 1.415 . S
C1206 C1205 1.355 . S
C1206 C1208 1.419 . S
C1207 C1202 1.425 . S
C1207 C1204 1.409 . S
C1207 C1205 1.415 . S
C1208 H1198 0.930 . S
C1208 C1206 1.419 . S
C1208 C1209 1.362 . S
C1209 H1199 0.930 . S
C1209 C1202 1.409 . S
C1209 C1208 1.362 . S
H1210 C1216 0.930 . S
H1211 C1219 0.930 . S
H1212 C1220 0.930 . S
H1213 C1221 0.930 . S
H1214 C1224 0.930 . S
H1215 C1225 0.930 . S
C1216 H1210 0.930 . S
C1216 C1217 1.355 . S
C1216 C1218 1.415 . S
C1217 C1216 1.355 . S
C1217 C1219 1.419 . S
C1218 C1216 1.415 . S
C1218 C1223 1.425 . S
C1218 C1225 1.409 . S
C1219 H1211 0.930 . S
C1219 C1217 1.419 . S
C1219 C1220 1.362 . S
C1220 H1212 0.930 . S
C1220 C1219 1.362 . S
C1220 C1223 1.409 . S
C1221 H1213 0.930 . S
C1221 C1222 1.355 . S
C1221 C1223 1.415 . S
C1222 C1221 1.355 . S
C1222 C1224 1.419 . S
C1223 C1218 1.425 . S
C1223 C1220 1.409 . S
C1223 C1221 1.415 . S
C1224 H1214 0.930 . S
C1224 C1222 1.419 . S
C1224 C1225 1.362 . S
C1225 H1215 0.930 . S
C1225 C1218 1.409 . S
C1225 C1224 1.362 . S
H1226 C1232 0.930 . S
H1227 C1235 0.930 . S
H1228 C1236 0.930 . S
H1229 C1237 0.930 . S
H1230 C1240 0.930 . S
H1231 C1241 0.930 . S
C1232 H1226 0.930 . S
C1232 C1233 1.355 . S
C1232 C1234 1.415 . S
C1233 C1232 1.355 . S
C1233 C1235 1.419 . S
C1234 C1232 1.415 . S
C1234 C1239 1.425 . S
C1234 C1241 1.409 . S
C1235 H1227 0.930 . S
C1235 C1233 1.419 . S
C1235 C1236 1.362 . S
C1236 H1228 0.930 . S
C1236 C1235 1.362 . S
C1236 C1239 1.409 . S
C1237 H1229 0.930 . S
C1237 C1238 1.355 . S
C1237 C1239 1.415 . S
C1238 C1237 1.355 . S
C1238 C1240 1.419 . S
C1239 C1234 1.425 . S
C1239 C1236 1.409 . S
C1239 C1237 1.415 . S
C1240 H1230 0.930 . S
C1240 C1238 1.419 . S
C1240 C1241 1.362 . S
C1241 H1231 0.930 . S
C1241 C1234 1.409 . S
C1241 C1240 1.362 . S
H1242 C1248 0.930 . S
H1243 C1251 0.930 . S
H1244 C1252 0.930 . S
H1245 C1253 0.930 . S
H1246 C1256 0.930 . S
H1247 C1257 0.930 . S
C1248 H1242 0.930 . S
C1248 C1249 1.355 . S
C1248 C1250 1.415 . S
C1249 C1248 1.355 . S
C1249 C1251 1.419 . S
C1250 C1248 1.415 . S
C1250 C1255 1.425 . S
C1250 C1257 1.409 . S
C1251 H1243 0.930 . S
C1251 C1249 1.419 . S
C1251 C1252 1.362 . S
C1252 H1244 0.930 . S
C1252 C1251 1.362 . S
C1252 C1255 1.409 . S
C1253 H1245 0.930 . S
C1253 C1254 1.355 . S
C1253 C1255 1.415 . S
C1254 C1253 1.355 . S
C1254 C1256 1.419 . S
C1255 C1250 1.425 . S
C1255 C1252 1.409 . S
C1255 C1253 1.415 . S
C1256 H1246 0.930 . S
C1256 C1254 1.419 . S
C1256 C1257 1.362 . S
C1257 H1247 0.930 . S
C1257 C1250 1.409 . S
C1257 C1256 1.362 . S
H1258 C1264 0.930 . S
H1259 C1267 0.930 . S
H1260 C1268 0.930 . S
H1261 C1269 0.930 . S
H1262 C1272 0.930 . S
H1263 C1273 0.930 . S
C1264 H1258 0.930 . S
C1264 C1265 1.355 . S
C1264 C1266 1.415 . S
C1265 C1264 1.355 . S
C1265 C1267 1.419 . S
C1266 C1264 1.415 . S
C1266 C1271 1.425 . S
C1266 C1273 1.409 . S
C1267 H1259 0.930 . S
C1267 C1265 1.419 . S
C1267 C1268 1.362 . S
C1268 H1260 0.930 . S
C1268 C1267 1.362 . S
C1268 C1271 1.409 . S
C1269 H1261 0.930 . S
C1269 C1270 1.355 . S
C1269 C1271 1.415 . S
C1270 C1269 1.355 . S
C1270 C1272 1.419 . S
C1271 C1266 1.425 . S
C1271 C1268 1.409 . S
C1271 C1269 1.415 . S
C1272 H1262 0.930 . S
C1272 C1270 1.419 . S
C1272 C1273 1.362 . S
C1273 H1263 0.930 . S
C1273 C1266 1.409 . S
C1273 C1272 1.362 . S
H1274 C1280 0.930 . S
H1275 C1283 0.930 . S
H1276 C1284 0.930 . S
H1277 C1285 0.930 . S
H1278 C1288 0.930 . S
H1279 C1289 0.930 . S
C1280 H1274 0.930 . S
C1280 C1281 1.355 . S
C1280 C1282 1.415 . S
C1281 C1280 1.355 . S
C1281 C1283 1.419 . S
C1282 C1280 1.415 . S
C1282 C1287 1.425 . S
C1282 C1289 1.409 . S
C1283 H1275 0.930 . S
C1283 C1281 1.419 . S
C1283 C1284 1.362 . S
C1284 H1276 0.930 . S
C1284 C1283 1.362 . S
C1284 C1287 1.409 . S
C1285 H1277 0.930 . S
C1285 C1286 1.355 . S
C1285 C1287 1.415 . S
C1286 C1285 1.355 . S
C1286 C1288 1.419 . S
C1287 C1282 1.425 . S
C1287 C1284 1.409 . S
C1287 C1285 1.415 . S
C1288 H1278 0.930 . S
C1288 C1286 1.419 . S
C1288 C1289 1.362 . S
C1289 H1279 0.930 . S
C1289 C1282 1.409 . S
C1289 C1288 1.362 . S
H1290 C1296 0.930 . S
H1291 C1299 0.930 . S
H1292 C1300 0.930 . S
H1293 C1301 0.930 . S
H1294 C1304 0.930 . S
H1295 C1305 0.930 . S
C1296 H1290 0.930 . S
C1296 C1297 1.355 . S
C1296 C1298 1.415 . S
C1297 C1296 1.355 . S
C1297 C1299 1.419 . S
C1298 C1296 1.415 . S
C1298 C1303 1.425 . S
C1298 C1305 1.409 . S
C1299 H1291 0.930 . S
C1299 C1297 1.419 . S
C1299 C1300 1.362 . S
C1300 H1292 0.930 . S
C1300 C1299 1.362 . S
C1300 C1303 1.409 . S
C1301 H1293 0.930 . S
C1301 C1302 1.355 . S
C1301 C1303 1.415 . S
C1302 C1301 1.355 . S
C1302 C1304 1.419 . S
C1303 C1298 1.425 . S
C1303 C1300 1.409 . S
C1303 C1301 1.415 . S
C1304 H1294 0.930 . S
C1304 C1302 1.419 . S
C1304 C1305 1.362 . S
C1305 H1295 0.930 . S
C1305 C1298 1.409 . S
C1305 C1304 1.362 . S
H1306 C1312 0.930 . S
H1307 C1315 0.930 . S
H1308 C1316 0.930 . S
H1309 C1317 0.930 . S
H1310 C1320 0.930 . S
H1311 C1321 0.930 . S
C1312 H1306 0.930 . S
C1312 C1313 1.355 . S
C1312 C1314 1.415 . S
C1313 C1312 1.355 . S
C1313 C1315 1.419 . S
C1314 C1312 1.415 . S
C1314 C1319 1.425 . S
C1314 C1321 1.409 . S
C1315 H1307 0.930 . S
C1315 C1313 1.419 . S
C1315 C1316 1.362 . S
C1316 H1308 0.930 . S
C1316 C1315 1.362 . S
C1316 C1319 1.409 . S
C1317 H1309 0.930 . S
C1317 C1318 1.355 . S
C1317 C1319 1.415 . S
C1318 C1317 1.355 . S
C1318 C1320 1.419 . S
C1319 C1314 1.425 . S
C1319 C1316 1.409 . S
C1319 C1317 1.415 . S
C1320 H1310 0.930 . S
C1320 C1318 1.419 . S
C1320 C1321 1.362 . S
C1321 H1311 0.930 . S
C1321 C1314 1.409 . S
C1321 C1320 1.362 . S
H1322 C1328 0.930 . S
H1323 C1331 0.930 . S
H1324 C1332 0.930 . S
H1325 C1333 0.930 . S
H1326 C1336 0.930 . S
H1327 C1337 0.930 . S
C1328 H1322 0.930 . S
C1328 C1329 1.355 . S
C1328 C1330 1.415 . S
C1329 C1328 1.355 . S
C1329 C1331 1.419 . S
C1330 C1328 1.415 . S
C1330 C1335 1.425 . S
C1330 C1337 1.409 . S
C1331 H1323 0.930 . S
C1331 C1329 1.419 . S
C1331 C1332 1.362 . S
C1332 H1324 0.930 . S
C1332 C1331 1.362 . S
C1332 C1335 1.409 . S
C1333 H1325 0.930 . S
C1333 C1334 1.355 . S
C1333 C1335 1.415 . S
C1334 C1333 1.355 . S
C1334 C1336 1.419 . S
C1335 C1330 1.425 . S
C1335 C1332 1.409 . S
C1335 C1333 1.415 . S
C1336 H1326 0.930 . S
C1336 C1334 1.419 . S
C1336 C1337 1.362 . S
C1337 H1327 0.930 . S
C1337 C1330 1.409 . S
C1337 C1336 1.362 . S
H1338 C1344 0.930 . S
H1339 C1347 0.930 . S
H1340 C1348 0.930 . S
H1341 C1349 0.930 . S
H1342 C1352 0.930 . S
H1343 C1353 0.930 . S
C1344 H1338 0.930 . S
C1344 C1345 1.355 . S
C1344 C1346 1.415 . S
C1345 C1344 1.355 . S
C1345 C1347 1.419 . S
C1346 C1344 1.415 . S
C1346 C1351 1.425 . S
C1346 C1353 1.409 . S
C1347 H1339 0.930 . S
C1347 C1345 1.419 . S
C1347 C1348 1.362 . S
C1348 H1340 0.930 . S
C1348 C1347 1.362 . S
C1348 C1351 1.409 . S
C1349 H1341 0.930 . S
C1349 C1350 1.355 . S
C1349 C1351 1.415 . S
C1350 C1349 1.355 . S
C1350 C1352 1.419 . S
C1351 C1346 1.425 . S
C1351 C1348 1.409 . S
C1351 C1349 1.415 . S
C1352 H1342 0.930 . S
C1352 C1350 1.419 . S
C1352 C1353 1.362 . S
C1353 H1343 0.930 . S
C1353 C1346 1.409 . S
C1353 C1352 1.362 . S
H1354 C1360 0.930 . S
H1355 C1363 0.930 . S
H1356 C1364 0.930 . S
H1357 C1365 0.930 . S
H1358 C1368 0.930 . S
H1359 C1369 0.930 . S
C1360 H1354 0.930 . S
C1360 C1361 1.355 . S
C1360 C1362 1.415 . S
C1361 C1360 1.355 . S
C1361 C1363 1.419 . S
C1362 C1360 1.415 . S
C1362 C1367 1.425 . S
C1362 C1369 1.409 . S
C1363 H1355 0.930 . S
C1363 C1361 1.419 . S
C1363 C1364 1.362 . S
C1364 H1356 0.930 . S
C1364 C1363 1.362 . S
C1364 C1367 1.409 . S
C1365 H1357 0.930 . S
C1365 C1366 1.355 . S
C1365 C1367 1.415 . S
C1366 C1365 1.355 . S
C1366 C1368 1.419 . S
C1367 C1362 1.425 . S
C1367 C1364 1.409 . S
C1367 C1365 1.415 . S
C1368 H1358 0.930 . S
C1368 C1366 1.419 . S
C1368 C1369 1.362 . S
C1369 H1359 0.930 . S
C1369 C1362 1.409 . S
C1369 C1368 1.362 . S
H1370 C1376 0.930 . S
H1371 C1379 0.930 . S
H1372 C1380 0.930 . S
H1373 C1381 0.930 . S
H1374 C1384 0.930 . S
H1375 C1385 0.930 . S
C1376 H1370 0.930 . S
C1376 C1377 1.355 . S
C1376 C1378 1.415 . S
C1377 C1376 1.355 . S
C1377 C1379 1.419 . S
C1378 C1376 1.415 . S
C1378 C1383 1.425 . S
C1378 C1385 1.409 . S
C1379 H1371 0.930 . S
C1379 C1377 1.419 . S
C1379 C1380 1.362 . S
C1380 H1372 0.930 . S
C1380 C1379 1.362 . S
C1380 C1383 1.409 . S
C1381 H1373 0.930 . S
C1381 C1382 1.355 . S
C1381 C1383 1.415 . S
C1382 C1381 1.355 . S
C1382 C1384 1.419 . S
C1383 C1378 1.425 . S
C1383 C1380 1.409 . S
C1383 C1381 1.415 . S
C1384 H1374 0.930 . S
C1384 C1382 1.419 . S
C1384 C1385 1.362 . S
C1385 H1375 0.930 . S
C1385 C1378 1.409 . S
C1385 C1384 1.362 . S
C529 C124 1.537 . S
C534 C165 1.559 . S
C545 C130 1.686 . S
C550 C205 1.693 . S
C561 C115 1.577 . S
C566 C257 1.564 . S
C577 C106 1.465 . S
C582 C217 1.456 . S
C598 C245 1.453 . S
C593 C85 1.435 . S
C609 C97 1.355 . S
C614 C177 1.346 . S
C630 C184 1.602 . S
C625 C103 1.593 . S
C646 C224 1.691 . S
C641 C88 1.691 . S
C657 C94 1.579 . S
C662 C244 1.593 . S
C673 C121 1.500 . S
C678 C204 1.495 . S
C689 C133 1.432 . S
C694 C264 1.439 . S
C710 C164 1.379 . S
C705 C112 1.381 . S
C726 C285 1.586 . S
C721 C16 1.580 . S
C737 C22 1.686 . S
C742 C325 1.698 . S
C753 C7 1.590 . S
C758 C377 1.582 . S
C769 C160 1.467 . S
C774 C337 1.455 . S
C785 C139 1.435 . S
C790 C365 1.456 . S
C801 C151 1.362 . S
C806 C297 1.362 . S
C817 C157 1.575 . S
C822 C304 1.593 . S
C833 C142 1.674 . S
C838 C344 1.687 . S
C854 C364 1.593 . S
C849 C148 1.572 . S
C865 C13 1.460 . S
C870 C324 1.478 . S
C886 C384 1.448 . S
C881 C25 1.448 . S
C897 C4 1.345 . S
C902 C284 1.350 . S
C918 C405 1.580 . S
C913 C70 1.572 . S
C929 C76 1.687 . S
C934 C445 1.700 . S
C950 C497 1.556 . S
C945 C61 1.567 . S
C966 C457 1.489 . S
C961 C52 1.468 . S
C982 C485 1.455 . S
C977 C31 1.441 . S
C993 C43 1.318 . S
C998 C417 1.357 . S
C1009 C49 1.557 . S
C1014 C424 1.580 . S
C1025 C34 1.669 . S
C1030 C464 1.683 . S
C1046 C484 1.547 . S
C1041 C40 1.550 . S
C1057 C67 1.458 . S
C1062 C444 1.462 . S
C1073 C79 1.415 . S
C1078 C504 1.432 . S
C1089 C58 1.329 . S
C1094 C404 1.351 . S
C1105 C140 1.432 . S
C1110 C188 1.396 . S
C1126 C228 1.697 . S
C1121 C149 1.721 . S
C1137 C158 1.534 . S
C1142 C251 1.531 . S
C1153 C59 1.742 . S
C1158 C211 1.735 . S
C1169 C68 1.526 . S
C1174 C268 1.532 . S
C1190 C171 1.395 . S
C1185 C77 1.428 . S
C1201 C32 1.439 . S
C1206 C308 1.439 . S
C1217 C41 1.728 . S
C1222 C348 1.715 . S
C1233 C50 1.535 . S
C1238 C371 1.544 . S
C1249 C113 1.744 . S
C1254 C331 1.724 . S
C1270 C388 1.526 . S
C1265 C122 1.531 . S
C1281 C131 1.430 . S
C1286 C291 1.406 . S
C1297 C86 1.435 . S
C1302 C428 1.422 . S
C1313 C95 1.701 . S
C1318 C468 1.676 . S
C1334 C491 1.540 . S
C1329 C104 1.534 . S
C1345 C5 1.746 . S
C1350 C451 1.732 . S
C1361 C14 1.531 . S
C1366 C508 1.526 . S
C1377 C23 1.428 . S
C1382 C411 1.395 . S
