# Generated by pormake.
# Topology nom, (4,4)-cn, num edge types: 1
# Building blocks:
#     Node 0, Type 0, BuildingBlock: AZAVOO_clean_linker_0, # of connection points: 4
#     Node 1, Type 0, BuildingBlock: AZAVOO_clean_linker_0, # of connection points: 4
#     Node 2, Type 0, BuildingBlock: AZAVOO_clean_linker_0, # of connection points: 4
#     Node 3, Type 0, BuildingBlock: AZAVOO_clean_linker_0, # of connection points: 4
#     Node 4, Type 0, BuildingBlock: AZAVOO_clean_linker_0, # of connection points: 4
#     Node 5, Type 0, BuildingBlock: AZAVOO_clean_linker_0, # of connection points: 4
#     Node 6, Type 1, BuildingBlock: UXUYUI_clean_sbu_0, # of connection points: 4
#     Node 7, Type 1, BuildingBlock: UXUYUI_clean_sbu_0, # of connection points: 4
#     Node 8, Type 1, BuildingBlock: UXUYUI_clean_sbu_0, # of connection points: 4
#     Node 9, Type 1, BuildingBlock: UXUYUI_clean_sbu_0, # of connection points: 4
#     Node 10, Type 1, BuildingBlock: UXUYUI_clean_sbu_0, # of connection points: 4
#     Node 11, Type 1, BuildingBlock: UXUYUI_clean_sbu_0, # of connection points: 4
#     Edge 12, Type (0, 1), BuildingBlock: EZIPEK_clean_linker_0, # of connection points: 2
#     Edge 13, Type (0, 1), BuildingBlock: EZIPEK_clean_linker_0, # of connection points: 2
#     Edge 14, Type (0, 1), BuildingBlock: EZIPEK_clean_linker_0, # of connection points: 2
#     Edge 15, Type (0, 1), BuildingBlock: EZIPEK_clean_linker_0, # of connection points: 2
#     Edge 16, Type (0, 1), BuildingBlock: EZIPEK_clean_linker_0, # of connection points: 2
#     Edge 17, Type (0, 1), BuildingBlock: EZIPEK_clean_linker_0, # of connection points: 2
#     Edge 18, Type (0, 1), BuildingBlock: EZIPEK_clean_linker_0, # of connection points: 2
#     Edge 19, Type (0, 1), BuildingBlock: EZIPEK_clean_linker_0, # of connection points: 2
#     Edge 20, Type (0, 1), BuildingBlock: EZIPEK_clean_linker_0, # of connection points: 2
#     Edge 21, Type (0, 1), BuildingBlock: EZIPEK_clean_linker_0, # of connection points: 2
#     Edge 22, Type (0, 1), BuildingBlock: EZIPEK_clean_linker_0, # of connection points: 2
#     Edge 23, Type (0, 1), BuildingBlock: EZIPEK_clean_linker_0, # of connection points: 2
#     Edge 24, Type (0, 1), BuildingBlock: EZIPEK_clean_linker_0, # of connection points: 2
#     Edge 25, Type (0, 1), BuildingBlock: EZIPEK_clean_linker_0, # of connection points: 2
#     Edge 26, Type (0, 1), BuildingBlock: EZIPEK_clean_linker_0, # of connection points: 2
#     Edge 27, Type (0, 1), BuildingBlock: EZIPEK_clean_linker_0, # of connection points: 2
#     Edge 28, Type (0, 1), BuildingBlock: EZIPEK_clean_linker_0, # of connection points: 2
#     Edge 29, Type (0, 1), BuildingBlock: EZIPEK_clean_linker_0, # of connection points: 2
#     Edge 30, Type (0, 1), BuildingBlock: EZIPEK_clean_linker_0, # of connection points: 2
#     Edge 31, Type (0, 1), BuildingBlock: EZIPEK_clean_linker_0, # of connection points: 2
#     Edge 32, Type (0, 1), BuildingBlock: EZIPEK_clean_linker_0, # of connection points: 2
#     Edge 33, Type (0, 1), BuildingBlock: EZIPEK_clean_linker_0, # of connection points: 2
#     Edge 34, Type (0, 1), BuildingBlock: EZIPEK_clean_linker_0, # of connection points: 2
#     Edge 35, Type (0, 1), BuildingBlock: EZIPEK_clean_linker_0, # of connection points: 2
# Relax obj value: 0.178
# Max RMSD: 0.225
# Mean RMSD: 0.184
data_MOF--net-nom--node1-UXUYUI_clean_sbu_0--node2-AZAVOO_clean_linker_0--edge1-EZIPEK_clean_linker_0
_symmetry_space_group_name_H-M    P1
_symmetry_Int_Tables_number       1
_symmetry_cell_setting            triclinic
loop_
_symmetry_equiv_pos_as_xyz
'x, y, z'
_cell_length_a     46.910279
_cell_length_b     47.829068
_cell_length_c     58.496214
_cell_angle_alpha  89.99273
_cell_angle_beta   89.857277
_cell_angle_gamma 121.36197
loop_
_atom_site_label
_atom_site_type_symbol
_atom_site_fract_x
_atom_site_fract_y
_atom_site_fract_z
_atom_type_partial_charge
H0 H 0.10581 0.52477 0.1678 0.0
H1 H 0.24454 0.65022 0.4051 0.0
H2 H 0.01028 0.46135 0.28554 0.0
H3 H 0.97333 0.43732 0.25238 0.0
H4 H 0.96781 0.52419 0.24597 0.0
H5 H 0.00471 0.54818 0.27932 0.0
H6 H 0.08158 0.49804 0.2658 0.0
H7 H 0.09265 0.50118 0.22464 0.0
H8 H 0.08409 0.5868 0.22017 0.0
H9 H 0.07297 0.58325 0.26134 0.0
H10 H 0.14405 0.53785 0.29385 0.0
H11 H 0.20148 0.57482 0.27979 0.0
H12 H 0.18594 0.65609 0.28297 0.0
H13 H 0.12858 0.61911 0.29634 0.0
H14 H 0.12043 0.52123 0.35126 0.0
H15 H 0.16851 0.54414 0.37699 0.0
H16 H 0.18256 0.64031 0.36804 0.0
H17 H 0.13425 0.61698 0.34254 0.0
H18 H 0.04727 0.48812 0.36768 0.0
H19 H 0.05501 0.49054 0.40817 0.0
H20 H 0.08116 0.59198 0.40723 0.0
H21 H 0.07329 0.58843 0.36675 0.0
H22 H 0.97542 0.46465 0.3261 0.0
H23 H 0.92066 0.45302 0.34007 0.0
H24 H 0.96432 0.55462 0.35832 0.0
H25 H 0.01833 0.56649 0.34348 0.0
O26 O 0.10141 0.52398 0.18403 0.0
O27 O 0.09699 0.56805 0.18269 0.0
O28 O 0.21709 0.59055 0.39908 0.0
O29 O 0.22556 0.64054 0.3949 0.0
C30 C 0.03844 0.52346 0.30074 0.0
C31 C 0.07102 0.53911 0.29146 0.0
C32 C 0.09886 0.55495 0.30595 0.0
C33 C 0.09448 0.55325 0.32979 0.0
C34 C 0.06203 0.53837 0.33916 0.0
C35 C 0.0339 0.52473 0.32457 0.0
C36 C 0.0098 0.5063 0.28494 0.0
C37 C 7e-05 0.47467 0.27752 0.0
C38 C 0.97922 0.46108 0.2586 0.0
C39 C 0.96801 0.47907 0.24681 0.0
C40 C 0.97614 0.50996 0.25501 0.0
C41 C 0.99693 0.52351 0.27403 0.0
C42 C 0.07629 0.54029 0.2664 0.0
C43 C 0.08195 0.51732 0.25583 0.0
C44 C 0.08836 0.51926 0.23236 0.0
C45 C 0.08936 0.54431 0.21912 0.0
C46 C 0.08358 0.56725 0.22986 0.0
C47 C 0.07709 0.56522 0.25332 0.0
C48 C 0.13253 0.57604 0.29616 0.0
C49 C 0.15303 0.56355 0.29121 0.0
C50 C 0.18555 0.58451 0.28324 0.0
C51 C 0.19778 0.61809 0.28054 0.0
C52 C 0.17685 0.63026 0.285 0.0
C53 C 0.14433 0.60929 0.29263 0.0
C54 C 0.12406 0.5675 0.345 0.0
C55 C 0.13401 0.54724 0.35486 0.0
C56 C 0.16145 0.56039 0.36954 0.0
C57 C 0.17941 0.59409 0.37456 0.0
C58 C 0.16934 0.61429 0.36453 0.0
C59 C 0.14184 0.60108 0.3499 0.0
C60 C 0.05829 0.53763 0.36436 0.0
C61 C 0.05258 0.51015 0.37664 0.0
C62 C 0.05662 0.51168 0.40038 0.0
C63 C 0.06525 0.5405 0.41283 0.0
C64 C 0.07117 0.56805 0.39978 0.0
C65 C 0.06721 0.56644 0.37611 0.0
C66 C 0.00093 0.51641 0.33386 0.0
C67 C 0.97312 0.48437 0.33305 0.0
C68 C 0.94204 0.47773 0.34109 0.0
C69 C 0.93861 0.50299 0.35028 0.0
C70 C 0.96654 0.53483 0.35138 0.0
C71 C 0.99732 0.54152 0.34304 0.0
C72 C 0.09617 0.54629 0.1942 0.0
C73 C 0.20846 0.60815 0.39025 0.0
H74 H 0.57947 0.07662 0.34782 0.0
H75 H 0.58395 0.22077 0.57685 0.0
H76 H 0.572 0.00738 0.46357 0.0
H77 H 0.56561 0.969 0.43341 0.0
H78 H 0.45853 0.92203 0.4382 0.0
H79 H 0.46498 0.96105 0.46826 0.0
H80 H 0.59265 0.07693 0.44727 0.0
H81 H 0.59735 0.08238 0.40561 0.0
H82 H 0.48967 0.02764 0.40038 0.0
H83 H 0.48536 0.02248 0.44205 0.0
H84 H 0.60783 0.12625 0.48448 0.0
H85 H 0.62434 0.18126 0.47053 0.0
H86 H 0.52207 0.14635 0.45253 0.0
H87 H 0.5056 0.09133 0.46635 0.0
H88 H 0.60024 0.09957 0.53574 0.0
H89 H 0.62172 0.1489 0.55918 0.0
H90 H 0.53544 0.15467 0.54156 0.0
H91 H 0.51424 0.10531 0.51824 0.0
H92 H 0.56336 0.01687 0.54646 0.0
H93 H 0.57578 0.02671 0.58746 0.0
H94 H 0.51012 0.06437 0.59275 0.0
H95 H 0.49608 0.0526 0.55219 0.0
H96 H 0.53389 0.96182 0.50992 0.0
H97 H 0.49597 0.90467 0.52216 0.0
H98 H 0.41971 0.9267 0.53729 0.0
H99 H 0.45735 0.9835 0.52507 0.0
O100 O 0.57706 0.07451 0.36427 0.0
O101 O 0.52161 0.04576 0.36252 0.0
O102 O 0.61919 0.19634 0.57704 0.0
O103 O 0.57602 0.20121 0.56774 0.0
C104 C 0.52386 0.01429 0.48285 0.0
C105 C 0.53587 0.04541 0.47287 0.0
C106 C 0.54485 0.07271 0.48685 0.0
C107 C 0.54309 0.06927 0.51084 0.0
C108 C 0.52968 0.03786 0.52088 0.0
C109 C 0.51881 0.01013 0.50675 0.0
C110 C 0.51896 0.98701 0.46801 0.0
C111 C 0.54713 0.98836 0.45849 0.0
C112 C 0.54352 0.96655 0.44133 0.0
C113 C 0.51166 0.94293 0.43356 0.0
C114 C 0.4833 0.94018 0.44405 0.0
C115 C 0.48695 0.96226 0.46117 0.0
C116 C 0.53868 0.04931 0.44763 0.0
C117 C 0.57013 0.0663 0.43708 0.0
C118 C 0.57272 0.06929 0.41329 0.0
C119 C 0.54387 0.05537 0.39965 0.0
C120 C 0.51238 0.03862 0.41036 0.0
C121 C 0.50984 0.03559 0.43414 0.0
C122 C 0.55555 0.10496 0.47641 0.0
C123 C 0.58911 0.13041 0.47724 0.0
C124 C 0.59848 0.16161 0.46934 0.0
C125 C 0.57433 0.16762 0.46061 0.0
C126 C 0.54093 0.14198 0.45921 0.0
C127 C 0.53161 0.11075 0.467 0.0
C128 C 0.55569 0.09887 0.52537 0.0
C129 C 0.58598 0.11148 0.53705 0.0
C130 C 0.59818 0.13965 0.5504 0.0
C131 C 0.58024 0.15568 0.5523 0.0
C132 C 0.54986 0.14292 0.54051 0.0
C133 C 0.53771 0.11477 0.52716 0.0
C134 C 0.52946 0.03481 0.54621 0.0
C135 C 0.55052 0.0259 0.55665 0.0
C136 C 0.55775 0.03167 0.57998 0.0
C137 C 0.54464 0.04718 0.59289 0.0
C138 C 0.52089 0.05287 0.58297 0.0
C139 C 0.51296 0.04624 0.55984 0.0
C140 C 0.4983 0.97675 0.51654 0.0
C141 C 0.50916 0.95437 0.51612 0.0
C142 C 0.48762 0.92192 0.52307 0.0
C143 C 0.45506 0.91159 0.53046 0.0
C144 C 0.44472 0.93427 0.5316 0.0
C145 C 0.4662 0.96661 0.52473 0.0
C146 C 0.5467 0.0582 0.37437 0.0
C147 C 0.59309 0.18561 0.56645 0.0
H148 H 0.52098 0.44981 0.79708 0.0
H149 H 0.58054 0.37299 0.57329 0.0
H150 H 0.53685 0.56116 0.67913 0.0
H151 H 0.52838 0.58525 0.71355 0.0
H152 H 0.42677 0.50406 0.71819 0.0
H153 H 0.43533 0.47989 0.68368 0.0
H154 H 0.55349 0.50572 0.70497 0.0
H155 H 0.54961 0.48914 0.74501 0.0
H156 H 0.44457 0.41793 0.73588 0.0
H157 H 0.449 0.43447 0.69578 0.0
H158 H 0.57904 0.47647 0.6718 0.0
H159 H 0.59167 0.43686 0.68846 0.0
H160 H 0.48759 0.36124 0.68412 0.0
H161 H 0.47501 0.40082 0.66738 0.0
H162 H 0.59073 0.50216 0.62518 0.0
H163 H 0.6181 0.47702 0.60573 0.0
H164 H 0.52208 0.38825 0.59657 0.0
H165 H 0.49501 0.41401 0.61563 0.0
H166 H 0.57463 0.54577 0.61182 0.0
H167 H 0.59894 0.55148 0.5738 0.0
H168 H 0.50321 0.4756 0.54844 0.0
H169 H 0.47932 0.46863 0.58701 0.0
H170 H 0.52397 0.5691 0.62268 0.0
H171 H 0.49116 0.59194 0.60737 0.0
H172 H 0.40039 0.49896 0.61836 0.0
H173 H 0.43288 0.47637 0.63359 0.0
O174 O 0.52189 0.45618 0.78126 0.0
O175 O 0.46795 0.42008 0.77572 0.0
O176 O 0.61905 0.42995 0.58578 0.0
O177 O 0.57033 0.38368 0.58076 0.0
C178 C 0.49556 0.50026 0.66339 0.0
C179 C 0.50488 0.47903 0.67281 0.0
C180 C 0.51836 0.46505 0.65865 0.0
C181 C 0.52483 0.47397 0.63546 0.0
C182 C 0.51551 0.49527 0.62596 0.0
C183 C 0.49902 0.50685 0.63969 0.0
C184 C 0.4867 0.5188 0.67904 0.0
C185 C 0.51233 0.5493 0.68699 0.0
C186 C 0.50757 0.56296 0.70661 0.0
C187 C 0.47707 0.54625 0.71837 0.0
C188 C 0.45042 0.51726 0.7092 0.0
C189 C 0.45523 0.50355 0.68957 0.0
C190 C 0.50141 0.47162 0.69765 0.0
C191 C 0.5296 0.48684 0.71177 0.0
C192 C 0.52735 0.47714 0.73456 0.0
C193 C 0.4968 0.45212 0.74363 0.0
C194 C 0.46848 0.43726 0.72944 0.0
C195 C 0.47083 0.44686 0.70661 0.0
C196 C 0.5262 0.44129 0.66835 0.0
C197 C 0.55906 0.45133 0.67438 0.0
C198 C 0.56619 0.42892 0.6839 0.0
C199 C 0.54048 0.39636 0.68745 0.0
C200 C 0.50761 0.38635 0.68146 0.0
C201 C 0.50049 0.40876 0.67194 0.0
C202 C 0.54086 0.46014 0.62133 0.0
C203 C 0.57561 0.47757 0.61848 0.0
C204 C 0.5912 0.463 0.60762 0.0
C205 C 0.57228 0.43055 0.59968 0.0
C206 C 0.53739 0.41324 0.6025 0.0
C207 C 0.52183 0.42797 0.61318 0.0
C208 C 0.52536 0.50657 0.60214 0.0
C209 C 0.55855 0.53129 0.59786 0.0
C210 C 0.57243 0.5345 0.57621 0.0
C211 C 0.553 0.51353 0.55848 0.0
C212 C 0.51858 0.49184 0.56201 0.0
C213 C 0.50492 0.48795 0.58392 0.0
C214 C 0.48073 0.52111 0.62917 0.0
C215 C 0.49706 0.55369 0.62156 0.0
C216 C 0.47843 0.56664 0.61292 0.0
C217 C 0.44343 0.54702 0.6118 0.0
C218 C 0.42734 0.51437 0.61908 0.0
C219 C 0.44584 0.50155 0.62773 0.0
C220 C 0.49454 0.44173 0.76781 0.0
C221 C 0.58875 0.41483 0.58836 0.0
H222 H 0.08026 0.53274 0.97229 0.0
H223 H 0.24017 0.61212 0.75646 0.0
H224 H 0.97506 0.52123 0.85947 0.0
H225 H 0.93722 0.49202 0.89161 0.0
H226 H 0.94027 0.40579 0.87499 0.0
H227 H 0.97708 0.43462 0.84243 0.0
H228 H 0.05385 0.56066 0.87998 0.0
H229 H 0.06603 0.55784 0.9203 0.0
H230 H 0.04582 0.45964 0.90978 0.0
H231 H 0.03371 0.46283 0.86955 0.0
H232 H 0.11974 0.59236 0.85101 0.0
H233 H 0.17335 0.60494 0.86788 0.0
H234 H 0.14416 0.50365 0.86059 0.0
H235 H 0.09132 0.49136 0.84339 0.0
H236 H 0.10548 0.60238 0.80359 0.0
H237 H 0.16162 0.6356 0.78729 0.0
H238 H 0.16452 0.54777 0.77585 0.0
H239 H 0.10875 0.51503 0.79267 0.0
H240 H 0.03321 0.5637 0.77236 0.0
H241 H 0.05462 0.58003 0.73314 0.0
H242 H 0.07508 0.50203 0.73031 0.0
H243 H 0.05283 0.48521 0.76908 0.0
H244 H 0.95334 0.50515 0.80922 0.0
H245 H 0.8986 0.46344 0.79382 0.0
H246 H 0.94066 0.40704 0.77027 0.0
H247 H 0.99501 0.4482 0.78602 0.0
O248 O 0.0748 0.53314 0.95639 0.0
O249 O 0.06366 0.48255 0.95016 0.0
O250 O 0.21511 0.644 0.76897 0.0
O251 O 0.21795 0.5996 0.76293 0.0
C252 C 0.00977 0.50017 0.83516 0.0
C253 C 0.04048 0.51565 0.84693 0.0
C254 C 0.07057 0.53287 0.83469 0.0
C255 C 0.07043 0.53681 0.81093 0.0
C256 C 0.03997 0.52071 0.79884 0.0
C257 C 0.00953 0.50156 0.81092 0.0
C258 C 0.97881 0.48002 0.84867 0.0
C259 C 0.96613 0.49552 0.86203 0.0
C260 C 0.94469 0.47894 0.88038 0.0
C261 C 0.93645 0.44698 0.88582 0.0
C262 C 0.94644 0.43047 0.87106 0.0
C263 C 0.9673 0.44684 0.85245 0.0
C264 C 0.04214 0.51169 0.87201 0.0
C265 C 0.05134 0.53831 0.88657 0.0
C266 C 0.05867 0.53676 0.90952 0.0
C267 C 0.05711 0.50858 0.91824 0.0
C268 C 0.04735 0.48173 0.90362 0.0
C269 C 0.03991 0.48329 0.88071 0.0
C270 C 0.10199 0.54103 0.84605 0.0
C271 C 0.12497 0.57299 0.85325 0.0
C272 C 0.1552 0.58004 0.86292 0.0
C273 C 0.16224 0.55506 0.8655 0.0
C274 C 0.13881 0.52302 0.85882 0.0
C275 C 0.10891 0.51609 0.84902 0.0
C276 C 0.10287 0.55631 0.79883 0.0
C277 C 0.11817 0.59039 0.79729 0.0
C278 C 0.15031 0.60929 0.78815 0.0
C279 C 0.16753 0.59431 0.7802 0.0
C280 C 0.15192 0.56007 0.78168 0.0
C281 C 0.11996 0.54127 0.79108 0.0
C282 C 0.04131 0.52316 0.77353 0.0
C283 C 0.0407 0.54912 0.76285 0.0
C284 C 0.05315 0.55858 0.74059 0.0
C285 C 0.06694 0.54255 0.72904 0.0
C286 C 0.06467 0.51476 0.73897 0.0
C287 C 0.05174 0.50501 0.76101 0.0
C288 C 0.9782 0.47986 0.79848 0.0
C289 C 0.95089 0.48417 0.80029 0.0
C290 C 0.91982 0.46049 0.79156 0.0
C291 C 0.91589 0.43241 0.7809 0.0
C292 C 0.94347 0.42877 0.77827 0.0
C293 C 0.97442 0.4523 0.7871 0.0
C294 C 0.06538 0.50719 0.94253 0.0
C295 C 0.20161 0.61424 0.77039 0.0
H296 H 0.45698 0.9653 0.84955 0.0
H297 H 0.4709 0.8066 0.06549 0.0
H298 H 0.49134 0.0414 0.96119 0.0
H299 H 0.51134 0.08154 0.93002 0.0
H300 H 0.61281 0.10973 0.94514 0.0
H301 H 0.59265 0.06785 0.9751 0.0
H302 H 0.45365 0.9674 0.94951 0.0
H303 H 0.44495 0.9627 0.9081 0.0
H304 H 0.55075 0.00368 0.89778 0.0
H305 H 0.55918 0.00897 0.93922 0.0
H306 H 0.44353 0.90301 0.97911 0.0
H307 H 0.43693 0.85304 0.96157 0.0
H308 H 0.54188 0.90553 0.94483 0.0
H309 H 0.54856 0.95497 0.96252 0.0
H310 H 0.44568 0.92475 0.03008 0.0
H311 H 0.4255 0.87272 0.0501 0.0
H312 H 0.51877 0.8785 0.0351 0.0
H313 H 0.53846 0.93035 0.01501 0.0
H314 H 0.4831 0.99498 0.05435 0.0
H315 H 0.48499 0.98289 0.09504 0.0
H316 H 0.57192 0.97643 0.08203 0.0
H317 H 0.57001 0.98851 0.04145 0.0
H318 H 0.5208 0.06828 0.02355 0.0
H319 H 0.56107 0.12073 0.04198 0.0
H320 H 0.63788 0.09714 0.03551 0.0
H321 H 0.59773 0.04484 0.01771 0.0
O322 O 0.46096 0.96742 0.86586 0.0
O323 O 0.51565 0.98924 0.8615 0.0
O324 O 0.43093 0.82554 0.06525 0.0
O325 O 0.47819 0.82707 0.05764 0.0
C326 C 0.52768 0.02107 0.98404 0.0
C327 C 0.51187 0.99069 0.97245 0.0
C328 C 0.50235 0.96168 0.98455 0.0
C329 C 0.50508 0.96219 0.0085 0.0
C330 C 0.52089 0.99234 0.02016 0.0
C331 C 0.53347 0.02186 0.00783 0.0
C332 C 0.54047 0.05162 0.97048 0.0
C333 C 0.51796 0.05686 0.95823 0.0
C334 C 0.52934 0.07968 0.94045 0.0
C335 C 0.56348 0.0982 0.93512 0.0
C336 C 0.58635 0.09553 0.94899 0.0
C337 C 0.57486 0.0719 0.96628 0.0
C338 C 0.50708 0.98896 0.94729 0.0
C339 C 0.47493 0.97564 0.93824 0.0
C340 C 0.47004 0.9729 0.9146 0.0
C341 C 0.49721 0.98307 0.89962 0.0
C342 C 0.52935 0.99596 0.90883 0.0
C343 C 0.53426 0.99907 0.93247 0.0
C344 C 0.49645 0.93246 0.97189 0.0
C345 C 0.46487 0.90373 0.97133 0.0
C346 C 0.46115 0.87546 0.96138 0.0
C347 C 0.48898 0.87598 0.95197 0.0
C348 C 0.52023 0.90497 0.95192 0.0
C349 C 0.52395 0.93303 0.96191 0.0
C350 C 0.49347 0.93121 0.02118 0.0
C351 C 0.46168 0.91472 0.0312 0.0
C352 C 0.45022 0.88499 0.04254 0.0
C353 C 0.47053 0.87143 0.04418 0.0
C354 C 0.50251 0.88824 0.03418 0.0
C355 C 0.51384 0.91786 0.02273 0.0
C356 C 0.52642 0.9926 0.04508 0.0
C357 C 0.5032 0.99209 0.06046 0.0
C358 C 0.50429 0.98524 0.08356 0.0
C359 C 0.52862 0.97885 0.09138 0.0
C360 C 0.55319 0.98159 0.07626 0.0
C361 C 0.55209 0.98843 0.05321 0.0
C362 C 0.55658 0.05308 0.01927 0.0
C363 C 0.54627 0.07447 0.02629 0.0
C364 C 0.56906 0.10412 0.0368 0.0
C365 C 0.60233 0.11263 0.03995 0.0
C366 C 0.61231 0.09089 0.0332 0.0
C367 C 0.58952 0.06123 0.02306 0.0
C368 C 0.49197 0.98014 0.87451 0.0
C369 C 0.45857 0.83997 0.05633 0.0
H370 H 0.50375 0.43789 0.00907 0.0
H371 H 0.66798 0.43981 0.22513 0.0
H372 H 0.46904 0.49539 0.13036 0.0
H373 H 0.44477 0.50939 0.09845 0.0
H374 H 0.54099 0.59541 0.08455 0.0
H375 H 0.56477 0.58223 0.11717 0.0
H376 H 0.49962 0.44768 0.10857 0.0
H377 H 0.4935 0.43422 0.06781 0.0
H378 H 0.57434 0.53251 0.05254 0.0
H379 H 0.58045 0.54545 0.09335 0.0
H380 H 0.5449 0.42785 0.14174 0.0
H381 H 0.57843 0.40616 0.12614 0.0
H382 H 0.64887 0.50138 0.0984 0.0
H383 H 0.61623 0.52327 0.1146 0.0
H384 H 0.53302 0.44162 0.19156 0.0
H385 H 0.5578 0.41573 0.21325 0.0
H386 H 0.65594 0.49134 0.19041 0.0
H387 H 0.63078 0.51655 0.16843 0.0
H388 H 0.50436 0.49223 0.20757 0.0
H389 H 0.5095 0.48453 0.24861 0.0
H390 H 0.61675 0.53811 0.24172 0.0
H391 H 0.61164 0.54748 0.20119 0.0
H392 H 0.48292 0.5305 0.17165 0.0
H393 H 0.47797 0.57529 0.18803 0.0
H394 H 0.58497 0.6339 0.1953 0.0
H395 H 0.58999 0.58957 0.17865 0.0
O396 O 0.50652 0.44376 0.02509 0.0
O397 O 0.5482 0.49459 0.01815 0.0
O398 O 0.60662 0.41185 0.22857 0.0
O399 O 0.65752 0.44936 0.21655 0.0
C400 C 0.5349 0.52417 0.13971 0.0
C401 C 0.54538 0.50469 0.12873 0.0
C402 C 0.56155 0.49192 0.14134 0.0
C403 C 0.56492 0.49631 0.16518 0.0
C404 C 0.55451 0.51585 0.1762 0.0
C405 C 0.54079 0.53097 0.1633 0.0
C406 C 0.51863 0.53775 0.12587 0.0
C407 C 0.48444 0.51807 0.12111 0.0
C408 C 0.4707 0.52594 0.10291 0.0
C409 C 0.49135 0.55299 0.08894 0.0
C410 C 0.52481 0.57432 0.09508 0.0
C411 C 0.53832 0.5669 0.11367 0.0
C412 C 0.54003 0.49769 0.10385 0.0
C413 C 0.51572 0.46634 0.09635 0.0
C414 C 0.51243 0.45868 0.07308 0.0
C415 C 0.53348 0.48227 0.05691 0.0
C416 C 0.55772 0.51377 0.06453 0.0
C417 C 0.56102 0.52135 0.0878 0.0
C418 C 0.57824 0.47709 0.12927 0.0
C419 C 0.56726 0.44382 0.13198 0.0
C420 C 0.58619 0.43148 0.12306 0.0
C421 C 0.61585 0.45228 0.11111 0.0
C422 C 0.62583 0.48506 0.10741 0.0
C423 C 0.60724 0.49745 0.11658 0.0
C424 C 0.58013 0.48095 0.17852 0.0
C425 C 0.55986 0.4525 0.19128 0.0
C426 C 0.57408 0.43782 0.20365 0.0
C427 C 0.60888 0.45159 0.20367 0.0
C428 C 0.62908 0.48014 0.19082 0.0
C429 C 0.6148 0.4946 0.17826 0.0
C430 C 0.55764 0.51965 0.20137 0.0
C431 C 0.52895 0.50349 0.21515 0.0
C432 C 0.53186 0.49896 0.23845 0.0
C433 C 0.56345 0.50985 0.24788 0.0
C434 C 0.59216 0.52905 0.2346 0.0
C435 C 0.58926 0.53434 0.21153 0.0
C436 C 0.53682 0.55689 0.17388 0.0
C437 C 0.50525 0.55301 0.17675 0.0
C438 C 0.50242 0.57838 0.18614 0.0
C439 C 0.53114 0.60773 0.19282 0.0
C440 C 0.5626 0.61136 0.19026 0.0
C441 C 0.56542 0.58614 0.18082 0.0
C442 C 0.52998 0.47404 0.03221 0.0
C443 C 0.62413 0.43631 0.21703 0.0
Li444 Li 0.66574 0.46187 0.42808 0.0
Li445 Li 0.65313 0.40916 0.41608 0.0
Li446 Li 0.70523 0.4561 0.40431 0.0
Li447 Li 0.64938 0.44591 0.38869 0.0
C448 C 0.68706 0.43237 0.45867 0.0
N449 N 0.67879 0.41712 0.50471 0.0
C450 C 0.65503 0.41389 0.46803 0.0
C451 C 0.7149 0.44298 0.4727 0.0
C452 C 0.65135 0.40646 0.49134 0.0
C453 C 0.7102 0.43504 0.49594 0.0
C454 C 0.58972 0.40623 0.41915 0.0
C455 C 0.53507 0.36886 0.40376 0.0
N456 N 0.52146 0.36625 0.4248 0.0
C457 C 0.57513 0.40347 0.44056 0.0
C458 C 0.56949 0.38908 0.40054 0.0
C459 C 0.54062 0.38302 0.44309 0.0
C460 C 0.63097 0.48879 0.44475 0.0
N461 N 0.65667 0.48482 0.45065 0.0
C462 C 0.65637 0.50263 0.4887 0.0
C463 C 0.67044 0.49269 0.47186 0.0
C464 C 0.62827 0.50456 0.48337 0.0
C465 C 0.6163 0.49876 0.46095 0.0
H466 H 0.62051 0.48221 0.42776 0.0
H467 H 0.69097 0.4895 0.47609 0.0
C468 C 0.6564 0.35713 0.4351 0.0
N469 N 0.63519 0.36409 0.42424 0.0
C470 C 0.64605 0.32498 0.44105 0.0
C471 C 0.5924 0.30737 0.42399 0.0
C472 C 0.60376 0.33995 0.41845 0.0
C473 C 0.61373 0.29982 0.43547 0.0
H474 H 0.68162 0.37654 0.43885 0.0
H475 H 0.58771 0.34574 0.40915 0.0
C476 C 0.69934 0.51793 0.40759 0.0
N477 N 0.71784 0.5789 0.42463 0.0
C478 C 0.68223 0.53326 0.40085 0.0
C479 C 0.72598 0.53363 0.42286 0.0
C480 C 0.69194 0.5641 0.4097 0.0
C481 C 0.73492 0.56445 0.43132 0.0
C482 C 0.66248 0.39009 0.37618 0.0
C483 C 0.68249 0.37702 0.38071 0.0
C484 C 0.63305 0.37185 0.3637 0.0
C485 C 0.67243 0.34561 0.37289 0.0
C486 C 0.62387 0.34054 0.35617 0.0
N487 N 0.64356 0.32817 0.3609 0.0
C488 C 0.77571 0.48493 0.41024 0.0
C489 C 0.75321 0.46058 0.37426 0.0
C490 C 0.80737 0.49176 0.4035 0.0
N491 N 0.74949 0.46948 0.39561 0.0
C492 C 0.78417 0.46644 0.36698 0.0
C493 C 0.8116 0.48204 0.38173 0.0
H494 H 0.77191 0.49142 0.4272 0.0
H495 H 0.73191 0.44828 0.36302 0.0
C496 C 0.60446 0.46046 0.36936 0.0
N497 N 0.62787 0.45275 0.36429 0.0
C498 C 0.58996 0.4688 0.35197 0.0
C499 C 0.62408 0.46116 0.32454 0.0
C500 C 0.63777 0.45275 0.34246 0.0
C501 C 0.60021 0.46964 0.32936 0.0
H502 H 0.5976 0.46077 0.38698 0.0
H503 H 0.65678 0.44691 0.33908 0.0
O504 O 0.69138 0.44047 0.43596 0.0
O505 O 0.6234 0.42682 0.41621 0.0
O506 O 0.68962 0.48736 0.39968 0.0
O507 O 0.67148 0.42046 0.38415 0.0
H508 H 0.63328 0.40522 0.4574 0.0
H509 H 0.73988 0.45735 0.4657 0.0
H510 H 0.62669 0.39221 0.4988 0.0
H511 H 0.73153 0.44317 0.50701 0.0
H512 H 0.51916 0.35528 0.38953 0.0
H513 H 0.59023 0.41715 0.45506 0.0
H514 H 0.58026 0.39117 0.3838 0.0
H515 H 0.52904 0.3806 0.45957 0.0
H516 H 0.66591 0.50675 0.50599 0.0
H517 H 0.59444 0.49974 0.45646 0.0
H518 H 0.66311 0.31972 0.44972 0.0
H519 H 0.56739 0.28826 0.41928 0.0
H520 H 0.66151 0.52137 0.38908 0.0
H521 H 0.7393 0.52192 0.42833 0.0
H522 H 0.67883 0.57622 0.40473 0.0
H523 H 0.75535 0.57683 0.44326 0.0
H524 H 0.70528 0.39081 0.39044 0.0
H525 H 0.61741 0.38172 0.35996 0.0
H526 H 0.68749 0.33505 0.37644 0.0
H527 H 0.60106 0.32606 0.34659 0.0
H528 H 0.82816 0.50391 0.41523 0.0
H529 H 0.78669 0.45871 0.35008 0.0
H530 H 0.57148 0.47515 0.35609 0.0
H531 H 0.63229 0.46151 0.30716 0.0
Li532 Li 0.22946 0.62425 0.58884 0.0
Li533 Li 0.273 0.61612 0.56942 0.0
Li534 Li 0.27266 0.66758 0.56427 0.0
Li535 Li 0.22895 0.61736 0.54792 0.0
C536 C 0.28965 0.65844 0.61438 0.0
N537 N 0.31115 0.67681 0.65879 0.0
C538 C 0.29563 0.63832 0.62833 0.0
C539 C 0.29516 0.68817 0.62287 0.0
C540 C 0.30633 0.64796 0.65078 0.0
C541 C 0.30588 0.69694 0.64541 0.0
C542 C 0.20061 0.557 0.56259 0.0
C543 C 0.18483 0.51419 0.53482 0.0
N544 N 0.15231 0.50079 0.54107 0.0
C545 C 0.16709 0.54273 0.56887 0.0
C546 C 0.20966 0.54258 0.54556 0.0
C547 C 0.14302 0.51432 0.55773 0.0
C548 C 0.17294 0.61513 0.61277 0.0
N549 N 0.2006 0.61288 0.61473 0.0
C550 C 0.18344 0.58927 0.65199 0.0
C551 C 0.20603 0.59996 0.63375 0.0
C552 C 0.15491 0.59159 0.65042 0.0
C553 C 0.14975 0.60481 0.63061 0.0
H554 H 0.1685 0.62434 0.59716 0.0
H555 H 0.22745 0.59724 0.63456 0.0
C556 C 0.33469 0.62076 0.56584 0.0
N557 N 0.30286 0.60102 0.57349 0.0
C558 C 0.35901 0.61305 0.57054 0.0
C559 C 0.31722 0.56467 0.5907 0.0
C560 C 0.29363 0.57322 0.58552 0.0
C561 C 0.35035 0.58495 0.58335 0.0
H562 H 0.34135 0.64298 0.55665 0.0
H563 H 0.26824 0.55831 0.59167 0.0
C564 C 0.21688 0.67395 0.56774 0.0
N565 N 0.2031 0.72307 0.57341 0.0
C566 C 0.20191 0.68148 0.5501 0.0
C567 C 0.22449 0.69112 0.58834 0.0
C568 C 0.19524 0.70648 0.55328 0.0
C569 C 0.21742 0.71594 0.59085 0.0
C570 C 0.28551 0.65595 0.51989 0.0
C571 C 0.26744 0.66957 0.51163 0.0
C572 C 0.31239 0.65926 0.50722 0.0
C573 C 0.27655 0.68627 0.49078 0.0
C574 C 0.32073 0.67614 0.48643 0.0
N575 N 0.30279 0.68919 0.47871 0.0
C576 C 0.33516 0.72411 0.56772 0.0
C577 C 0.29615 0.73342 0.54883 0.0
C578 C 0.36071 0.75644 0.56383 0.0
N579 N 0.30368 0.71326 0.56018 0.0
C580 C 0.32094 0.766 0.54463 0.0
C581 C 0.35365 0.77762 0.55203 0.0
H582 H 0.34054 0.70736 0.57633 0.0
H583 H 0.27123 0.7241 0.54246 0.0
C584 C 0.16635 0.59318 0.52978 0.0
N585 N 0.19698 0.59884 0.5239 0.0
C586 C 0.14067 0.58079 0.5138 0.0
C587 C 0.17849 0.58043 0.48577 0.0
C588 C 0.20343 0.59239 0.50248 0.0
C589 C 0.14683 0.57482 0.49144 0.0
H590 H 0.162 0.59853 0.54696 0.0
H591 H 0.22797 0.59695 0.4983 0.0
O592 O 0.27933 0.64948 0.59233 0.0
O593 O 0.22439 0.58539 0.57271 0.0
O594 O 0.22376 0.64969 0.56481 0.0
O595 O 0.27741 0.6399 0.54043 0.0
H596 H 0.29176 0.61537 0.62195 0.0
H597 H 0.2915 0.70444 0.61212 0.0
H598 H 0.31081 0.63251 0.66183 0.0
H599 H 0.31014 0.71983 0.65223 0.0
H600 H 0.1914 0.50287 0.52148 0.0
H601 H 0.15975 0.55371 0.582 0.0
H602 H 0.23554 0.55348 0.54049 0.0
H603 H 0.11695 0.5031 0.56228 0.0
H604 H 0.18795 0.57899 0.66706 0.0
H605 H 0.12786 0.60676 0.62891 0.0
H606 H 0.38445 0.62922 0.56477 0.0
H607 H 0.30994 0.5429 0.60072 0.0
H608 H 0.19563 0.66824 0.53409 0.0
H609 H 0.23547 0.68513 0.60227 0.0
H610 H 0.18382 0.71269 0.53974 0.0
H611 H 0.22324 0.72948 0.60669 0.0
H612 H 0.24663 0.66732 0.52122 0.0
H613 H 0.32669 0.64892 0.51342 0.0
H614 H 0.26277 0.69694 0.4842 0.0
H615 H 0.34149 0.6789 0.47645 0.0
H616 H 0.3858 0.76471 0.56961 0.0
H617 H 0.31488 0.78179 0.53531 0.0
H618 H 0.11644 0.57658 0.51867 0.0
H619 H 0.18385 0.57589 0.46861 0.0
Li620 Li 0.67175 0.24633 0.75102 0.0
Li621 Li 0.62482 0.20987 0.77452 0.0
Li622 Li 0.62534 0.19815 0.73423 0.0
Li623 Li 0.61885 0.24251 0.74599 0.0
C624 C 0.67597 0.197 0.77408 0.0
N625 N 0.7158 0.19111 0.80608 0.0
C626 C 0.69327 0.2216 0.79031 0.0
C627 C 0.67892 0.1694 0.77414 0.0
C628 C 0.7133 0.21819 0.80632 0.0
C629 C 0.69917 0.16686 0.79046 0.0
C630 C 0.63523 0.27016 0.78873 0.0
C631 C 0.58895 0.26517 0.81037 0.0
N632 N 0.60985 0.29467 0.82025 0.0
C633 C 0.65624 0.30041 0.79911 0.0
C634 C 0.6013 0.25235 0.7944 0.0
C635 C 0.64294 0.31239 0.815 0.0
C636 C 0.72557 0.30909 0.75327 0.0
N637 N 0.71812 0.27773 0.75083 0.0
C638 C 0.7758 0.29485 0.75295 0.0
C639 C 0.74238 0.27022 0.75001 0.0
C640 C 0.78385 0.32717 0.75646 0.0
C641 C 0.75855 0.33441 0.75612 0.0
H642 H 0.70567 0.3142 0.75373 0.0
H643 H 0.73571 0.24506 0.74792 0.0
C644 C 0.58652 0.16083 0.80715 0.0
N645 N 0.61255 0.19205 0.80449 0.0
C646 C 0.57797 0.14671 0.82889 0.0
C647 C 0.62298 0.19726 0.8447 0.0
C648 C 0.63051 0.21045 0.82271 0.0
C649 C 0.59659 0.16499 0.84786 0.0
H650 H 0.57282 0.14677 0.79233 0.0
H651 H 0.6511 0.23522 0.82016 0.0
C652 C 0.66953 0.24663 0.70419 0.0
N653 N 0.71039 0.25263 0.66803 0.0
C654 C 0.67338 0.26658 0.68554 0.0
C655 C 0.6865 0.22974 0.70446 0.0
C656 C 0.69414 0.2693 0.66743 0.0
C657 C 0.70702 0.23309 0.68601 0.0
C658 C 0.55956 0.18155 0.73917 0.0
C659 C 0.55996 0.19511 0.71791 0.0
C660 C 0.53025 0.15378 0.74685 0.0
C661 C 0.53101 0.18063 0.70467 0.0
C662 C 0.5018 0.13999 0.7331 0.0
N663 N 0.50277 0.15358 0.71246 0.0
C664 C 0.60801 0.1355 0.71587 0.0
C665 C 0.60526 0.17244 0.69022 0.0
C666 C 0.59754 0.11183 0.69862 0.0
N667 N 0.61166 0.16512 0.71133 0.0
C668 C 0.59455 0.14958 0.67267 0.0
C669 C 0.59057 0.11892 0.67679 0.0
H670 H 0.61328 0.13034 0.73282 0.0
H671 H 0.60845 0.19612 0.68694 0.0
C672 C 0.6217 0.29628 0.72677 0.0
N673 N 0.60077 0.26855 0.73862 0.0
C674 C 0.61077 0.31678 0.71939 0.0
C675 C 0.55709 0.28012 0.737 0.0
C676 C 0.56912 0.26028 0.7441 0.0
C677 C 0.57808 0.30851 0.72436 0.0
H678 H 0.64678 0.30218 0.72284 0.0
H679 H 0.5531 0.23809 0.75363 0.0
O680 O 0.65589 0.1995 0.75832 0.0
O681 O 0.64803 0.25827 0.77309 0.0
O682 O 0.64907 0.24369 0.72194 0.0
O683 O 0.58762 0.19507 0.75245 0.0
H684 H 0.69135 0.24315 0.79055 0.0
H685 H 0.66563 0.1501 0.76172 0.0
H686 H 0.72684 0.23707 0.81896 0.0
H687 H 0.70166 0.14561 0.79071 0.0
H688 H 0.56276 0.25165 0.8149 0.0
H689 H 0.68258 0.31447 0.79493 0.0
H690 H 0.58463 0.22887 0.78661 0.0
H691 H 0.65892 0.33577 0.82316 0.0
H692 H 0.79498 0.2887 0.7532 0.0
H693 H 0.76417 0.35918 0.75885 0.0
H694 H 0.5576 0.1216 0.83087 0.0
H695 H 0.63791 0.21181 0.85903 0.0
H696 H 0.66035 0.27975 0.68506 0.0
H697 H 0.68381 0.21409 0.71865 0.0
H698 H 0.69732 0.28463 0.65288 0.0
H699 H 0.72025 0.22013 0.68598 0.0
H700 H 0.58238 0.21655 0.71164 0.0
H701 H 0.52951 0.14297 0.76326 0.0
H702 H 0.53102 0.19087 0.68818 0.0
H703 H 0.47895 0.11847 0.73882 0.0
H704 H 0.59496 0.0884 0.7022 0.0
H705 H 0.58964 0.15583 0.65593 0.0
H706 H 0.62741 0.33861 0.70964 0.0
H707 H 0.5317 0.27325 0.74099 0.0
Li708 Li 0.44232 0.6035 0.92618 0.0
Li709 Li 0.45398 0.65299 0.90602 0.0
Li710 Li 0.39863 0.60384 0.90318 0.0
Li711 Li 0.44586 0.6078 0.88305 0.0
C712 C 0.4174 0.64157 0.94986 0.0
N713 N 0.40971 0.66677 0.99032 0.0
C714 C 0.44537 0.6659 0.96148 0.0
C715 C 0.38551 0.63022 0.95873 0.0
C716 C 0.44096 0.67829 0.98193 0.0
C717 C 0.38214 0.64321 0.97924 0.0
C718 C 0.51409 0.65594 0.91226 0.0
C719 C 0.57149 0.69428 0.90202 0.0
N720 N 0.57878 0.7024 0.92443 0.0
C721 C 0.52222 0.66457 0.93519 0.0
C722 C 0.53898 0.67078 0.89553 0.0
C723 C 0.55503 0.68813 0.941 0.0
C724 C 0.47664 0.58773 0.959 0.0
N725 N 0.44829 0.58767 0.95417 0.0
C726 C 0.42814 0.57146 0.9923 0.0
C727 C 0.42388 0.57903 0.97008 0.0
C728 C 0.45782 0.57293 0.99803 0.0
C729 C 0.48203 0.58049 0.98111 0.0
H730 H 0.49551 0.59454 0.94595 0.0
H731 H 0.40137 0.57868 0.96558 0.0
C732 C 0.44462 0.70295 0.90807 0.0
N733 N 0.47058 0.69799 0.90913 0.0
C734 C 0.44938 0.73344 0.91304 0.0
C735 C 0.50803 0.75378 0.91924 0.0
C736 C 0.50212 0.7227 0.91402 0.0
C737 C 0.48117 0.75888 0.91921 0.0
H738 H 0.41984 0.68265 0.90431 0.0
H739 H 0.52236 0.71822 0.91471 0.0
C740 C 0.38374 0.54067 0.90286 0.0
N741 N 0.32543 0.48 0.90309 0.0
C742 C 0.36322 0.52976 0.88358 0.0
C743 C 0.37476 0.52057 0.92218 0.0
C744 C 0.33378 0.49907 0.88406 0.0
C745 C 0.34515 0.49002 0.92197 0.0
C746 C 0.43873 0.65339 0.85945 0.0
C747 C 0.41763 0.65086 0.8417 0.0
C748 C 0.47319 0.67455 0.85717 0.0
C749 C 0.43142 0.66954 0.8219 0.0
C750 C 0.48603 0.69284 0.83712 0.0
N751 N 0.46505 0.68997 0.82004 0.0
C752 C 0.34973 0.61421 0.89 0.0
C753 C 0.32736 0.56438 0.91072 0.0
C754 C 0.31802 0.60866 0.88623 0.0
N755 N 0.35374 0.59182 0.9015 0.0
C756 C 0.29495 0.55757 0.90704 0.0
C757 C 0.29032 0.57975 0.89435 0.0
H758 H 0.37124 0.63624 0.88348 0.0
H759 H 0.33135 0.54762 0.92056 0.0
C760 C 0.4859 0.59964 0.84941 0.0
N761 N 0.45594 0.59598 0.8548 0.0
C762 C 0.49173 0.59283 0.82722 0.0
C763 C 0.4357 0.57835 0.81696 0.0
C764 C 0.43107 0.58557 0.83916 0.0
C765 C 0.46632 0.58212 0.81083 0.0
H766 H 0.50528 0.60818 0.86218 0.0
H767 H 0.40785 0.58369 0.84382 0.0
O768 O 0.42101 0.6289 0.92984 0.0
O769 O 0.4822 0.63256 0.90623 0.0
O770 O 0.41277 0.57057 0.90274 0.0
O771 O 0.42566 0.63452 0.87866 0.0
H772 H 0.47018 0.67536 0.95472 0.0
H773 H 0.36359 0.61142 0.94993 0.0
H774 H 0.4624 0.69715 0.99109 0.0
H775 H 0.35761 0.63455 0.98635 0.0
H776 H 0.59095 0.70602 0.88924 0.0
H777 H 0.50344 0.65332 0.94839 0.0
H778 H 0.53329 0.66427 0.87771 0.0
H779 H 0.56159 0.69509 0.95868 0.0
H780 H 0.40889 0.56525 0.00502 0.0
H781 H 0.50505 0.58144 0.98511 0.0
H782 H 0.42826 0.73682 0.91304 0.0
H783 H 0.53283 0.77322 0.92405 0.0
H784 H 0.36958 0.54498 0.86855 0.0
H785 H 0.39053 0.52838 0.93713 0.0
H786 H 0.31754 0.49045 0.86932 0.0
H787 H 0.33787 0.47425 0.93682 0.0
H788 H 0.39089 0.63435 0.84309 0.0
H789 H 0.48984 0.67676 0.87069 0.0
H790 H 0.41539 0.66772 0.80799 0.0
H791 H 0.51267 0.70928 0.83513 0.0
H792 H 0.31501 0.62621 0.87645 0.0
H793 H 0.2738 0.53509 0.91357 0.0
H794 H 0.51562 0.59584 0.82285 0.0
H795 H 0.41572 0.57016 0.80462 0.0
Li796 Li 0.79497 0.39385 0.07327 0.0
Li797 Li 0.84003 0.39385 0.0923 0.0
Li798 Li 0.83478 0.38946 0.04904 0.0
Li799 Li 0.79654 0.34395 0.07517 0.0
C800 C 0.84826 0.45616 0.06197 0.0
N801 N 0.8584 0.51549 0.04688 0.0
C802 C 0.85553 0.48116 0.07757 0.0
C803 C 0.84645 0.46152 0.03866 0.0
C804 C 0.86047 0.51092 0.06962 0.0
C805 C 0.85159 0.49163 0.03138 0.0
C806 C 0.79059 0.36863 0.12336 0.0
C807 C 0.79439 0.34829 0.16024 0.0
N808 N 0.78826 0.37015 0.17052 0.0
C809 C 0.78415 0.39079 0.13427 0.0
C810 C 0.79562 0.3471 0.13642 0.0
C811 C 0.78316 0.39123 0.15813 0.0
C812 C 0.73427 0.38295 0.08618 0.0
N813 N 0.76275 0.40638 0.07574 0.0
C814 C 0.74116 0.44174 0.07293 0.0
C815 C 0.76634 0.43511 0.06859 0.0
C816 C 0.71213 0.41827 0.08431 0.0
C817 C 0.70837 0.38832 0.09055 0.0
H818 H 0.73194 0.36018 0.09146 0.0
H819 H 0.78867 0.45308 0.05985 0.0
C820 C 0.88736 0.39897 0.12559 0.0
N821 N 0.86841 0.41118 0.11836 0.0
C822 C 0.90478 0.40964 0.14624 0.0
C823 C 0.88315 0.4454 0.15137 0.0
C824 C 0.86635 0.4342 0.13065 0.0
C825 C 0.90235 0.43285 0.15939 0.0
H826 H 0.88833 0.38046 0.1156 0.0
H827 H 0.85056 0.44293 0.12478 0.0
C828 C 0.75801 0.35859 0.03856 0.0
N829 N 0.70108 0.35283 0.01997 0.0
C830 C 0.72654 0.33228 0.04464 0.0
C831 C 0.76053 0.38182 0.02287 0.0
C832 C 0.69805 0.32981 0.03507 0.0
C833 C 0.73145 0.37854 0.01372 0.0
C834 C 0.84921 0.33766 0.06921 0.0
C835 C 0.85683 0.32966 0.04799 0.0
C836 C 0.84464 0.31808 0.08825 0.0
C837 C 0.85929 0.30187 0.04613 0.0
C838 C 0.84728 0.29047 0.08567 0.0
N839 N 0.85447 0.28299 0.06484 0.0
C840 C 0.88779 0.41929 0.01632 0.0
C841 C 0.83487 0.37967 0.00202 0.0
C842 C 0.9019 0.4233 0.99459 0.0
N843 N 0.85497 0.39711 0.01969 0.0
C844 C 0.84794 0.38307 0.98005 0.0
C845 C 0.88267 0.40314 0.97607 0.0
H846 H 0.90296 0.43406 0.03048 0.0
H847 H 0.80848 0.36312 0.00494 0.0
C848 C 0.74273 0.28523 0.09213 0.0
N849 N 0.76761 0.29815 0.07626 0.0
C850 C 0.71533 0.25356 0.08939 0.0
C851 C 0.74089 0.24853 0.05487 0.0
C852 C 0.76747 0.28043 0.05806 0.0
C853 C 0.71395 0.23535 0.07021 0.0
H854 H 0.74277 0.30037 0.10585 0.0
H855 H 0.78665 0.29187 0.04511 0.0
O856 O 0.84376 0.42698 0.06944 0.0
O857 O 0.79189 0.36795 0.10001 0.0
O858 O 0.78617 0.36191 0.04822 0.0
O859 O 0.84651 0.36466 0.07134 0.0
H860 H 0.85729 0.4777 0.09563 0.0
H861 H 0.841 0.44268 0.02628 0.0
H862 H 0.86596 0.53039 0.08153 0.0
H863 H 0.85012 0.496 0.01339 0.0
H864 H 0.79837 0.33186 0.17057 0.0
H865 H 0.78039 0.40777 0.12444 0.0
H866 H 0.80043 0.32968 0.12825 0.0
H867 H 0.77841 0.40838 0.16681 0.0
H868 H 0.74449 0.46505 0.06788 0.0
H869 H 0.68613 0.36984 0.09938 0.0
H870 H 0.91948 0.39956 0.1521 0.0
H871 H 0.88077 0.46325 0.16123 0.0
H872 H 0.72405 0.31418 0.05684 0.0
H873 H 0.78464 0.40231 0.01793 0.0
H874 H 0.67354 0.30965 0.03973 0.0
H875 H 0.73304 0.39647 0.00168 0.0
H876 H 0.86062 0.34462 0.0331 0.0
H877 H 0.83895 0.32404 0.1048 0.0
H878 H 0.86501 0.29529 0.0298 0.0
H879 H 0.84361 0.27499 0.10024 0.0
H880 H 0.9276 0.44275 0.99266 0.0
H881 H 0.83019 0.37039 0.96659 0.0
H882 H 0.69459 0.24411 0.10128 0.0
H883 H 0.74017 0.23513 0.03973 0.0
Li884 Li 0.49645 0.83039 0.27917 0.0
Li885 Li 0.44648 0.79596 0.2542 0.0
Li886 Li 0.4975 0.7961 0.24875 0.0
Li887 Li 0.49544 0.8426 0.23704 0.0
C888 C 0.46992 0.7565 0.28405 0.0
N889 N 0.47384 0.70339 0.29784 0.0
C890 C 0.44703 0.72523 0.27582 0.0
C891 C 0.49466 0.76078 0.2994 0.0
C892 C 0.44949 0.69869 0.28296 0.0
C893 C 0.49624 0.7336 0.30615 0.0
C894 C 0.44206 0.84817 0.2675 0.0
C895 C 0.39334 0.84942 0.25613 0.0
N896 N 0.39002 0.8574 0.27788 0.0
C897 C 0.43827 0.85658 0.28971 0.0
C898 C 0.41954 0.84476 0.25053 0.0
C899 C 0.41178 0.86109 0.29463 0.0
C900 C 0.53036 0.87958 0.3126 0.0
N901 N 0.50675 0.84759 0.30909 0.0
C902 C 0.48739 0.84177 0.34761 0.0
C903 C 0.48593 0.82843 0.32612 0.0
C904 C 0.51054 0.87503 0.35143 0.0
C905 C 0.53287 0.89387 0.33391 0.0
H906 H 0.54601 0.89432 0.29855 0.0
H907 H 0.46687 0.80329 0.32259 0.0
C908 C 0.3858 0.74314 0.23929 0.0
N909 N 0.39977 0.76743 0.25514 0.0
C910 C 0.35245 0.71811 0.24135 0.0
C911 C 0.3483 0.74422 0.27559 0.0
C912 C 0.38188 0.76836 0.27312 0.0
C913 C 0.33354 0.71846 0.25981 0.0
H914 H 0.40101 0.74239 0.22567 0.0
H915 H 0.39397 0.78701 0.28606 0.0
C916 C 0.56086 0.84293 0.25619 0.0
N917 N 0.61964 0.8428 0.25795 0.0
C918 C 0.57583 0.84104 0.23603 0.0
C919 C 0.57583 0.84488 0.27724 0.0
C920 C 0.60552 0.84094 0.23728 0.0
C921 C 0.60555 0.84478 0.27777 0.0
C922 C 0.46485 0.80038 0.20262 0.0
C923 C 0.48828 0.80153 0.18723 0.0
C924 C 0.43774 0.80191 0.19443 0.0
C925 C 0.48445 0.8047 0.16387 0.0
C926 C 0.43469 0.80488 0.17093 0.0
N927 N 0.45795 0.80628 0.15627 0.0
C928 C 0.4897 0.74322 0.2242 0.0
C929 C 0.53455 0.76218 0.25035 0.0
C930 C 0.49428 0.71808 0.21703 0.0
N931 N 0.50998 0.76499 0.24032 0.0
C932 C 0.54012 0.73734 0.24359 0.0
C933 C 0.51976 0.71507 0.22672 0.0
H934 H 0.46939 0.74489 0.21718 0.0
H935 H 0.5494 0.77868 0.26386 0.0
C936 C 0.49448 0.89482 0.21477 0.0
N937 N 0.50895 0.87646 0.2148 0.0
C938 C 0.49985 0.91588 0.19654 0.0
C939 C 0.53646 0.90021 0.17939 0.0
C940 C 0.53063 0.87971 0.19805 0.0
C941 C 0.52023 0.91781 0.17832 0.0
H942 H 0.47778 0.89221 0.22844 0.0
H943 H 0.54204 0.86511 0.19855 0.0
O944 O 0.46849 0.7829 0.27681 0.0
O945 O 0.46781 0.84353 0.2624 0.0
O946 O 0.53205 0.84349 0.25535 0.0
O947 O 0.4681 0.79709 0.22556 0.0
H948 H 0.42782 0.72158 0.26386 0.0
H949 H 0.51265 0.7849 0.30582 0.0
H950 H 0.43211 0.67437 0.27661 0.0
H951 H 0.51537 0.73655 0.31791 0.0
H952 H 0.37565 0.8467 0.24318 0.0
H953 H 0.45559 0.85965 0.30302 0.0
H954 H 0.42221 0.83848 0.23324 0.0
H955 H 0.40853 0.86754 0.31175 0.0
H956 H 0.46966 0.82677 0.36075 0.0
H957 H 0.55081 0.9197 0.33637 0.0
H958 H 0.34177 0.69822 0.22913 0.0
H959 H 0.33436 0.74479 0.29019 0.0
H960 H 0.56445 0.83923 0.21963 0.0
H961 H 0.56458 0.84637 0.293 0.0
H962 H 0.61727 0.83928 0.22183 0.0
H963 H 0.61738 0.8462 0.29393 0.0
H964 H 0.50939 0.8003 0.19329 0.0
H965 H 0.41911 0.80056 0.20605 0.0
H966 H 0.50255 0.80588 0.15179 0.0
H967 H 0.41386 0.80615 0.16435 0.0
H968 H 0.47794 0.70098 0.20416 0.0
H969 H 0.55978 0.73528 0.25154 0.0
H970 H 0.48691 0.92915 0.19605 0.0
H971 H 0.5522 0.90116 0.16546 0.0
C972 C 0.24031 0.65785 0.25278 0.0
C973 C 0.23298 0.64118 0.27403 0.0
C974 C 0.29241 0.67047 0.28328 0.0
C975 C 0.2991 0.69064 0.26378 0.0
N976 N 0.27892 0.70639 0.23128 0.0
N977 N 0.25138 0.63534 0.31134 0.0
C978 C 0.27295 0.68501 0.24875 0.0
C979 C 0.25885 0.64833 0.28978 0.0
N980 N 0.2162 0.64737 0.23636 0.0
N981 N 0.31812 0.67195 0.2953 0.0
H982 H 0.22705 0.61945 0.31706 0.0
H983 H 0.26914 0.64269 0.32424 0.0
H984 H 0.34312 0.68739 0.29075 0.0
H985 H 0.31452 0.65553 0.30831 0.0
H986 H 0.22096 0.65656 0.21974 0.0
H987 H 0.19209 0.62728 0.23871 0.0
H988 H 0.26005 0.70543 0.22132 0.0
H989 H 0.30243 0.72683 0.22792 0.0
C990 C 0.59367 0.21194 0.43111 0.0
C991 C 0.58376 0.20124 0.45394 0.0
C992 C 0.59003 0.25395 0.4639 0.0
C993 C 0.60246 0.26552 0.44157 0.0
N994 N 0.6198 0.25761 0.40454 0.0
N995 N 0.57569 0.21233 0.49288 0.0
C996 C 0.60521 0.24504 0.42529 0.0
C997 C 0.58279 0.22233 0.47058 0.0
N998 N 0.59145 0.19023 0.41494 0.0
N999 N 0.58443 0.27296 0.47849 0.0
H1000 H 0.56922 0.18896 0.49831 0.0
H1001 H 0.57834 0.22774 0.50633 0.0
H1002 H 0.58997 0.29648 0.47429 0.0
H1003 H 0.57204 0.26469 0.49407 0.0
H1004 H 0.59471 0.19535 0.39751 0.0
H1005 H 0.58404 0.16606 0.41876 0.0
H1006 H 0.62604 0.24522 0.39286 0.0
H1007 H 0.62781 0.28151 0.3995 0.0
C1008 C 0.41068 0.55405 0.58093 0.0
C1009 C 0.42291 0.5604 0.60366 0.0
C1010 C 0.39139 0.58717 0.61182 0.0
C1011 C 0.37629 0.57753 0.58995 0.0
N1012 N 0.36908 0.54971 0.55416 0.0
N1013 N 0.42326 0.58036 0.64157 0.0
C1014 C 0.38541 0.56056 0.57455 0.0
C1015 C 0.41301 0.57647 0.61931 0.0
N1016 N 0.42362 0.5422 0.56541 0.0
N1017 N 0.38548 0.60706 0.62524 0.0
H1018 H 0.43988 0.57374 0.64754 0.0
H1019 H 0.41376 0.58821 0.65449 0.0
H1020 H 0.36933 0.6149 0.6205 0.0
H1021 H 0.39845 0.6179 0.64024 0.0
H1022 H 0.41832 0.54005 0.54801 0.0
H1023 H 0.44196 0.53695 0.56964 0.0
H1024 H 0.37177 0.53404 0.54325 0.0
H1025 H 0.35093 0.5546 0.54874 0.0
C1026 C 0.86157 0.3823 0.79137 0.0
C1027 C 0.88225 0.40524 0.77443 0.0
C1028 C 0.84002 0.3745 0.74513 0.0
C1029 C 0.81831 0.35319 0.76241 0.0
N1030 N 0.80616 0.33849 0.80224 0.0
N1031 N 0.89075 0.42588 0.73588 0.0
C1032 C 0.82849 0.3575 0.78562 0.0
C1033 C 0.8714 0.40206 0.75145 0.0
N1034 N 0.87392 0.38377 0.8128 0.0
N1035 N 0.83079 0.36794 0.7227 0.0
H1036 H 0.9141 0.44608 0.73989 0.0
H1037 H 0.88286 0.42695 0.71947 0.0
H1038 H 0.80775 0.34821 0.71757 0.0
H1039 H 0.84671 0.38045 0.70907 0.0
H1040 H 0.86154 0.36563 0.82514 0.0
H1041 H 0.8978 0.402 0.81787 0.0
H1042 H 0.81069 0.34298 0.81966 0.0
H1043 H 0.78196 0.31936 0.7987 0.0
C1044 C 0.48551 0.84016 0.9197 0.0
C1045 C 0.48634 0.84568 0.94356 0.0
C1046 C 0.48357 0.79414 0.95145 0.0
C1047 C 0.48517 0.78977 0.92759 0.0
N1048 N 0.49221 0.80992 0.88898 0.0
N1049 N 0.49157 0.83134 0.98225 0.0
C1050 C 0.48748 0.81321 0.91167 0.0
C1051 C 0.48688 0.82362 0.9595 0.0
N1052 N 0.48195 0.8602 0.90483 0.0
N1053 N 0.47778 0.76964 0.96633 0.0
H1054 H 0.49354 0.85249 0.98892 0.0
H1055 H 0.49606 0.81811 0.99434 0.0
H1056 H 0.47605 0.74793 0.96119 0.0
H1057 H 0.4723 0.76973 0.98358 0.0
H1058 H 0.47775 0.85561 0.8874 0.0
H1059 H 0.48061 0.8803 0.91019 0.0
H1060 H 0.49745 0.8278 0.87676 0.0
H1061 H 0.49352 0.79025 0.88258 0.0
C1062 C 0.6647 0.44694 0.12011 0.0
C1063 C 0.6388 0.44112 0.10475 0.0
C1064 C 0.66127 0.42083 0.07571 0.0
C1065 C 0.68665 0.42588 0.09128 0.0
N1066 N 0.71083 0.43957 0.12902 0.0
N1067 N 0.6091 0.41902 0.06949 0.0
C1068 C 0.68783 0.43767 0.11373 0.0
C1069 C 0.63607 0.42696 0.08297 0.0
N1070 N 0.6677 0.46226 0.14051 0.0
N1071 N 0.66176 0.41078 0.05389 0.0
H1072 H 0.59061 0.42385 0.07421 0.0
H1073 H 0.60369 0.40581 0.05436 0.0
H1074 H 0.67918 0.40495 0.04829 0.0
H1075 H 0.6462 0.40983 0.04089 0.0
H1076 H 0.68822 0.47096 0.15127 0.0
H1077 H 0.65035 0.46805 0.14628 0.0
H1078 H 0.7105 0.44407 0.14639 0.0
H1079 H 0.72942 0.43472 0.12469 0.0
C1080 C 0.41604 0.85332 0.51835 0.0
C1081 C 0.43096 0.87672 0.53616 0.0
C1082 C 0.39413 0.83555 0.56429 0.0
C1083 C 0.38079 0.81165 0.54671 0.0
N1084 N 0.38349 0.79596 0.50794 0.0
N1085 N 0.43895 0.8891 0.5764 0.0
C1086 C 0.39309 0.82 0.52399 0.0
C1087 C 0.42141 0.8675 0.55926 0.0
N1088 N 0.42272 0.86314 0.49601 0.0
N1089 N 0.37991 0.82805 0.58557 0.0
H1090 H 0.45913 0.91269 0.5733 0.0
H1091 H 0.43547 0.88279 0.59366 0.0
H1092 H 0.3599 0.8049 0.58991 0.0
H1093 H 0.38609 0.84537 0.59838 0.0
H1094 H 0.40972 0.84791 0.48232 0.0
H1095 H 0.43944 0.8873 0.49111 0.0
H1096 H 0.39432 0.80008 0.49178 0.0
H1097 H 0.36672 0.77124 0.51142 0.0
C1098 C 0.55152 0.35095 0.68241 0.0
C1099 C 0.54817 0.37255 0.69719 0.0
C1100 C 0.5641 0.35201 0.73005 0.0
C1101 C 0.56574 0.32921 0.71544 0.0
N1102 N 0.55493 0.30228 0.67888 0.0
N1103 N 0.54531 0.39022 0.73528 0.0
C1104 C 0.55758 0.32725 0.69194 0.0
C1105 C 0.55264 0.37204 0.72112 0.0
N1106 N 0.55009 0.35387 0.65923 0.0
N1107 N 0.57468 0.35533 0.75219 0.0
H1108 H 0.53721 0.40548 0.72926 0.0
H1109 H 0.54467 0.3883 0.75302 0.0
H1110 H 0.58275 0.34071 0.75943 0.0
H1111 H 0.5777 0.37402 0.76295 0.0
H1112 H 0.55616 0.34139 0.6475 0.0
H1113 H 0.5453 0.37071 0.65158 0.0
H1114 H 0.54569 0.29752 0.66227 0.0
H1115 H 0.55924 0.28446 0.68532 0.0
C1116 C 0.21783 0.56299 0.85687 0.0
C1117 C 0.19531 0.56257 0.87325 0.0
C1118 C 0.23553 0.57449 0.90381 0.0
C1119 C 0.25666 0.57191 0.88768 0.0
N1120 N 0.26525 0.5571 0.84994 0.0
N1121 N 0.17985 0.56299 0.91254 0.0
C1122 C 0.24701 0.56421 0.8645 0.0
C1123 C 0.20331 0.56694 0.89684 0.0
N1124 N 0.21173 0.56314 0.83402 0.0
N1125 N 0.24666 0.58514 0.9255 0.0
H1126 H 0.15613 0.55792 0.90796 0.0
H1127 H 0.18297 0.56235 0.93011 0.0
H1128 H 0.27003 0.59058 0.93125 0.0
H1129 H 0.2338 0.5909 0.93727 0.0
H1130 H 0.22903 0.56693 0.82135 0.0
H1131 H 0.19063 0.56253 0.82772 0.0
H1132 H 0.25747 0.54805 0.83348 0.0
H1133 H 0.28662 0.55721 0.855 0.0
C1134 C 0.639 0.17357 0.03615 0.0
C1135 C 0.62761 0.14485 0.04944 0.0
C1136 C 0.67234 0.17556 0.07717 0.0
C1137 C 0.68272 0.2045 0.06437 0.0
N1138 N 0.67032 0.23276 0.03555 0.0
N1139 N 0.6281 0.11968 0.08502 0.0
C1140 C 0.6642 0.20404 0.04509 0.0
C1141 C 0.64259 0.14625 0.07079 0.0
N1142 N 0.62719 0.17164 0.01449 0.0
N1143 N 0.69159 0.17572 0.09472 0.0
H1144 H 0.60607 0.09796 0.08089 0.0
H1145 H 0.63607 0.12017 0.1017 0.0
H1146 H 0.71357 0.19676 0.09987 0.0
H1147 H 0.68719 0.15457 0.10303 0.0
H1148 H 0.63751 0.19137 0.00318 0.0
H1149 H 0.60906 0.14975 0.007 0.0
H1150 H 0.65534 0.23387 0.0229 0.0
H1151 H 0.68828 0.25566 0.04188 0.0
C1152 C 0.51789 0.63446 0.22466 0.0
C1153 C 0.5286 0.63534 0.20183 0.0
C1154 C 0.5387 0.69065 0.19695 0.0
C1155 C 0.52474 0.68841 0.2189 0.0
N1156 N 0.4968 0.65675 0.25261 0.0
N1157 N 0.54443 0.66179 0.16494 0.0
C1158 C 0.51325 0.65995 0.23254 0.0
C1159 C 0.53776 0.6628 0.1876 0.0
N1160 N 0.51301 0.60972 0.23896 0.0
N1161 N 0.55356 0.7197 0.1853 0.0
H1162 H 0.54392 0.64176 0.15742 0.0
H1163 H 0.54765 0.67954 0.15316 0.0
H1164 H 0.55481 0.74068 0.19169 0.0
H1165 H 0.56724 0.72389 0.17031 0.0
H1166 H 0.50875 0.60959 0.25645 0.0
H1167 H 0.51588 0.59047 0.23371 0.0
H1168 H 0.48449 0.6351 0.26201 0.0
H1169 H 0.49325 0.67504 0.25908 0.0
C1170 C 0.89005 0.51092 0.34612 0.0
C1171 C 0.90562 0.49668 0.35817 0.0
C1172 C 0.85818 0.47058 0.38469 0.0
C1173 C 0.84455 0.48783 0.37419 0.0
N1174 N 0.85093 0.52946 0.34774 0.0
N1175 N 0.90757 0.46776 0.39137 0.0
C1176 C 0.86149 0.50948 0.35569 0.0
C1177 C 0.89055 0.47782 0.37816 0.0
N1178 N 0.90191 0.52491 0.32516 0.0
N1179 N 0.83974 0.4464 0.40025 0.0
H1180 H 0.93144 0.47278 0.38726 0.0
H1181 H 0.89928 0.45701 0.4074 0.0
H1182 H 0.81573 0.43997 0.40526 0.0
H1183 H 0.84702 0.43071 0.4066 0.0
H1184 H 0.88951 0.53267 0.31459 0.0
H1185 H 0.92239 0.52583 0.31732 0.0
H1186 H 0.86435 0.54808 0.33587 0.0
H1187 H 0.83048 0.52962 0.35464 0.0
C1188 C 0.08408 0.57377 0.4498 0.0
C1189 C 0.07359 0.54398 0.43825 0.0
C1190 C 0.10218 0.53023 0.46698 0.0
C1191 C 0.12014 0.56352 0.47399 0.0
N1192 N 0.12711 0.61735 0.47252 0.0
N1193 N 0.05108 0.48806 0.44951 0.0
C1194 C 0.11041 0.58533 0.46584 0.0
C1195 C 0.07634 0.51998 0.45054 0.0
N1196 N 0.06629 0.58879 0.44741 0.0
N1197 N 0.10966 0.50844 0.4759 0.0
H1198 H 0.02892 0.48128 0.44088 0.0
H1199 H 0.05009 0.46966 0.45966 0.0
H1200 H 0.12721 0.51457 0.48885 0.0
H1201 H 0.09961 0.48481 0.46949 0.0
H1202 H 0.07087 0.60903 0.45706 0.0
H1203 H 0.04449 0.57825 0.43764 0.0
H1204 H 0.12275 0.63466 0.4652 0.0
H1205 H 0.14704 0.62715 0.48394 0.0
C1206 C 0.53722 0.04961 0.63528 0.0
C1207 C 0.55839 0.06121 0.6158 0.0
C1208 C 0.60353 0.10319 0.63937 0.0
C1209 C 0.58062 0.09544 0.65753 0.0
N1210 N 0.52489 0.06238 0.67279 0.0
N1211 N 0.61089 0.10203 0.59862 0.0
C1212 C 0.54731 0.06862 0.65566 0.0
C1213 C 0.59155 0.08852 0.61769 0.0
N1214 N 0.50763 0.02037 0.63426 0.0
N1215 N 0.63681 0.12477 0.64287 0.0
H1216 H 0.6032 0.09277 0.58221 0.0
H1217 H 0.63358 0.12426 0.59878 0.0
H1218 H 0.64632 0.13588 0.65866 0.0
H1219 H 0.65515 0.12904 0.63091 0.0
H1220 H 0.49245 0.0091 0.64846 0.0
H1221 H 0.49982 0.00588 0.61958 0.0
H1222 H 0.49938 0.04565 0.67128 0.0
H1223 H 0.53149 0.07547 0.68808 0.0
C1224 C 0.47648 0.53782 0.76056 0.0
C1225 C 0.47498 0.55615 0.74201 0.0
C1226 C 0.47357 0.59467 0.76885 0.0
C1227 C 0.47112 0.57412 0.78724 0.0
N1228 N 0.4646 0.5233 0.80052 0.0
N1229 N 0.46845 0.59983 0.72799 0.0
C1230 C 0.4711 0.54493 0.7831 0.0
C1231 C 0.47258 0.58407 0.74599 0.0
N1232 N 0.48417 0.51431 0.75674 0.0
N1233 N 0.47768 0.62462 0.77329 0.0
H1234 H 0.46787 0.59276 0.71104 0.0
H1235 H 0.46304 0.61824 0.72989 0.0
H1236 H 0.47874 0.63322 0.78985 0.0
H1237 H 0.48288 0.64207 0.76072 0.0
H1238 H 0.48941 0.50289 0.76981 0.0
H1239 H 0.48845 0.5084 0.74045 0.0
H1240 H 0.46043 0.49991 0.79794 0.0
H1241 H 0.46049 0.52751 0.81735 0.0
C1242 C 0.8898 0.40558 0.9111 0.0
C1243 C 0.92279 0.43281 0.90875 0.0
C1244 C 0.93289 0.42702 0.949 0.0
C1245 C 0.89816 0.40617 0.95253 0.0
N1246 N 0.85408 0.35802 0.93411 0.0
N1247 N 0.97639 0.46973 0.92617 0.0
C1248 C 0.87887 0.39013 0.93281 0.0
C1249 C 0.94458 0.44356 0.92788 0.0
N1250 N 0.86871 0.39475 0.89281 0.0
N1251 N 0.95476 0.42694 0.96429 0.0
H1252 H 0.98669 0.48222 0.91093 0.0
H1253 H 0.99146 0.4804 0.94047 0.0
H1254 H 0.94647 0.41078 0.97814 0.0
H1255 H 0.98046 0.43933 0.96148 0.0
H1256 H 0.84343 0.37695 0.89431 0.0
H1257 H 0.87593 0.40537 0.87662 0.0
H1258 H 0.84104 0.34417 0.91988 0.0
H1259 H 0.85051 0.34422 0.94884 0.0
C1260 C 0.54613 0.9836 0.13249 0.0
C1261 C 0.52533 0.9642 0.11428 0.0
C1262 C 0.49809 0.91611 0.1393 0.0
C1263 C 0.52112 0.93462 0.15681 0.0
N1264 N 0.56869 0.98495 0.17012 0.0
N1265 N 0.4849 0.91116 0.09901 0.0
C1266 C 0.54557 0.96818 0.15347 0.0
C1267 C 0.50211 0.93023 0.11734 0.0
N1268 N 0.56589 0.01677 0.12979 0.0
N1269 N 0.47203 0.88514 0.14379 0.0
H1270 H 0.48685 0.92053 0.08262 0.0
H1271 H 0.47073 0.88569 0.09957 0.0
H1272 H 0.46847 0.87372 0.1596 0.0
H1273 H 0.45232 0.87176 0.13254 0.0
H1274 H 0.57927 0.03281 0.14302 0.0
H1275 H 0.56704 0.02862 0.11453 0.0
H1276 H 0.58937 0.0084 0.1679 0.0
H1277 H 0.56828 0.97457 0.1859 0.0
C1278 C 0.58382 0.52145 0.28826 0.0
C1279 C 0.56699 0.4983 0.27063 0.0
C1280 C 0.56431 0.45513 0.29476 0.0
C1281 C 0.58607 0.47927 0.3105 0.0
N1282 N 0.61898 0.53603 0.32176 0.0
N1283 N 0.54425 0.44335 0.25594 0.0
C1284 C 0.59622 0.51262 0.30731 0.0
C1285 C 0.55761 0.46506 0.27364 0.0
N1286 N 0.58771 0.55176 0.28677 0.0
N1287 N 0.54988 0.42268 0.3001 0.0
H1288 H 0.53886 0.44925 0.24006 0.0
H1289 H 0.54096 0.42008 0.25639 0.0
H1290 H 0.55426 0.41459 0.31551 0.0
H1291 H 0.53115 0.40397 0.2903 0.0
H1292 H 0.59704 0.56875 0.30002 0.0
H1293 H 0.57857 0.55871 0.27303 0.0
H1294 H 0.63013 0.56105 0.31878 0.0
H1295 H 0.6287 0.53058 0.33592 0.0
C1296 C 0.51674 0.89875 0.41433 0.0
C1297 C 0.50856 0.92339 0.41299 0.0
C1298 C 0.49685 0.91243 0.37213 0.0
C1299 C 0.50912 0.89088 0.37287 0.0
N1300 N 0.53442 0.86609 0.394 0.0
N1301 N 0.49622 0.95771 0.38994 0.0
C1302 C 0.51995 0.88458 0.39383 0.0
C1303 C 0.49995 0.93128 0.39171 0.0
N1304 N 0.52081 0.88853 0.43523 0.0
N1305 N 0.48132 0.91421 0.35291 0.0
H1306 H 0.49836 0.97232 0.40383 0.0
H1307 H 0.49388 0.96688 0.37436 0.0
H1308 H 0.47812 0.90048 0.33824 0.0
H1309 H 0.46878 0.92687 0.35227 0.0
H1310 H 0.52354 0.86845 0.43749 0.0
H1311 H 0.51849 0.89838 0.45054 0.0
H1312 H 0.54604 0.8635 0.4083 0.0
H1313 H 0.5372 0.85536 0.37931 0.0
C1314 C 0.58735 0.53744 0.52267 0.0
C1315 C 0.57 0.51058 0.53792 0.0
C1316 C 0.58719 0.47876 0.5152 0.0
C1317 C 0.60798 0.50694 0.50183 0.0
N1318 N 0.63049 0.56403 0.49362 0.0
N1319 N 0.55858 0.45771 0.55109 0.0
C1320 C 0.60874 0.53658 0.50571 0.0
C1321 C 0.57114 0.48169 0.53477 0.0
N1322 N 0.58269 0.56331 0.52409 0.0
N1323 N 0.58222 0.44897 0.50895 0.0
H1324 H 0.54756 0.45903 0.56618 0.0
H1325 H 0.56194 0.43784 0.55071 0.0
H1326 H 0.59376 0.44566 0.49482 0.0
H1327 H 0.56426 0.427 0.5165 0.0
H1328 H 0.59211 0.58225 0.51218 0.0
H1329 H 0.56686 0.56438 0.53616 0.0
H1330 H 0.63481 0.58723 0.49726 0.0
H1331 H 0.64611 0.56401 0.48089 0.0
C1332 C 0.11955 0.58623 0.70979 0.0
C1333 C 0.08767 0.55703 0.70808 0.0
C1334 C 0.09968 0.55038 0.66827 0.0
C1335 C 0.13074 0.58045 0.66972 0.0
N1336 N 0.16693 0.63061 0.68993 0.0
N1337 N 0.04462 0.51485 0.68468 0.0
C1338 C 0.13959 0.59952 0.6899 0.0
C1339 C 0.07687 0.54019 0.68695 0.0
N1340 N 0.13153 0.60039 0.73063 0.0
N1341 N 0.09257 0.53094 0.64943 0.0
H1342 H 0.02734 0.50698 0.69805 0.0
H1343 H 0.03419 0.5036 0.66914 0.0
H1344 H 0.10855 0.53763 0.63538 0.0
H1345 H 0.07207 0.50716 0.64842 0.0
H1346 H 0.15603 0.61938 0.73327 0.0
H1347 H 0.11792 0.59143 0.74572 0.0
H1348 H 0.1726 0.647 0.70334 0.0
H1349 H 0.18228 0.64115 0.67565 0.0
C1350 C 0.58702 0.10674 0.89531 0.0
C1351 C 0.57458 0.11727 0.91345 0.0
C1352 C 0.57535 0.15864 0.88826 0.0
C1353 C 0.58996 0.14953 0.87077 0.0
N1354 N 0.61723 0.12063 0.85947 0.0
N1355 N 0.56325 0.15731 0.92873 0.0
C1356 C 0.59811 0.12533 0.87487 0.0
C1357 C 0.57065 0.14451 0.91038 0.0
N1358 N 0.58676 0.07812 0.89707 0.0
N1359 N 0.56488 0.17987 0.88352 0.0
H1360 H 0.56011 0.14777 0.94521 0.0
H1361 H 0.56328 0.17909 0.92805 0.0
H1362 H 0.5679 0.19069 0.8675 0.0
H1363 H 0.55084 0.18472 0.89486 0.0
H1364 H 0.59169 0.06739 0.88334 0.0
H1365 H 0.57872 0.06344 0.91162 0.0
H1366 H 0.62694 0.10578 0.86277 0.0
H1367 H 0.62617 0.13399 0.84433 0.0
C1368 C 0.47667 0.58416 0.06176 0.0
C1369 C 0.47951 0.5566 0.06628 0.0
C1370 C 0.46212 0.53709 0.0271 0.0
C1371 C 0.46371 0.56674 0.02181 0.0
N1372 N 0.47611 0.62048 0.03312 0.0
N1373 N 0.48004 0.50924 0.05229 0.0
C1374 C 0.4718 0.59081 0.03891 0.0
C1375 C 0.47341 0.53355 0.04873 0.0
N1376 N 0.47797 0.60352 0.0794 0.0
N1377 N 0.4493 0.51211 0.01156 0.0
H1378 H 0.48899 0.50595 0.06769 0.0
H1379 H 0.47948 0.49406 0.03933 0.0
H1380 H 0.44085 0.51389 0.99547 0.0
H1381 H 0.44414 0.48864 0.0154 0.0
H1382 H 0.47276 0.62208 0.07753 0.0
H1383 H 0.48128 0.5991 0.09636 0.0
H1384 H 0.48556 0.64024 0.04432 0.0
H1385 H 0.47274 0.6263 0.01656 0.0
C1386 C 0.97002 0.47889 0.20399 0.0
C1387 C 0.95101 0.46707 0.22446 0.0
C1388 C 0.90108 0.42996 0.20227 0.0
C1389 C 0.91944 0.44387 0.18179 0.0
N1390 N 0.96994 0.48438 0.16279 0.0
N1391 N 0.89803 0.43442 0.24346 0.0
C1392 C 0.95355 0.46911 0.18254 0.0
C1393 C 0.91638 0.4434 0.22371 0.0
N1394 N 0.00398 0.49872 0.20509 0.0
N1395 N 0.86931 0.40339 0.20116 0.0
H1396 H 0.9086 0.44347 0.25946 0.0
H1397 H 0.87209 0.41994 0.24389 0.0
H1398 H 0.85734 0.39307 0.18573 0.0
H1399 H 0.85572 0.38995 0.21539 0.0
H1400 H 0.01961 0.50511 0.19091 0.0
H1401 H 0.01691 0.50679 0.22048 0.0
H1402 H 0.99359 0.50547 0.16241 0.0
H1403 H 0.95893 0.47739 0.14668 0.0
loop_
_geom_bond_atom_site_label_1
_geom_bond_atom_site_label_2
_geom_bond_distance
_geom_bond_site_symmetry_2
_ccdc_geom_bond_type
H0 O26 0.856 . S
H1 O29 0.854 . S
H2 C37 0.930 . S
H3 C38 0.930 . S
H4 C40 0.930 . S
H5 C41 0.930 . S
H6 C43 0.931 . S
H7 C44 0.930 . S
H8 C46 0.930 . S
H9 C47 0.929 . S
H10 C49 0.930 . S
H11 C50 0.931 . S
H12 C52 0.930 . S
H13 C53 0.929 . S
H14 C55 0.931 . S
H15 C56 0.930 . S
H16 C58 0.930 . S
H17 C59 0.932 . S
H18 C61 0.930 . S
H19 C62 0.929 . S
H20 C64 0.931 . S
H21 C65 0.930 . S
H22 C67 0.929 . S
H23 C68 0.931 . S
H24 C70 0.930 . S
H25 C71 0.929 1_455 S
O26 H0 0.856 . S
O26 C72 1.300 . S
O27 C72 1.209 . S
O28 C73 1.199 . S
O29 H1 0.854 . S
O29 C73 1.297 . S
C30 C31 1.404 . S
C30 C35 1.397 . S
C30 C36 1.492 . S
C31 C30 1.404 . S
C31 C32 1.396 . S
C31 C42 1.492 . S
C32 C31 1.396 . S
C32 C33 1.397 . S
C32 C48 1.509 . S
C33 C32 1.397 . S
C33 C34 1.412 . S
C33 C54 1.485 . S
C34 C33 1.412 . S
C34 C35 1.388 . S
C34 C60 1.490 . S
C35 C30 1.397 . S
C35 C34 1.388 . S
C35 C66 1.519 . S
C36 C30 1.492 . S
C36 C37 1.363 . S
C36 C41 1.390 1_455 S
C37 H2 0.930 . S
C37 C36 1.363 . S
C37 C38 1.372 1_455 S
C38 H3 0.930 . S
C38 C37 1.372 1_655 S
C38 C39 1.383 . S
C39 C38 1.383 . S
C39 C40 1.395 . S
C40 H4 0.930 . S
C40 C39 1.395 . S
C40 C41 1.362 . S
C41 H5 0.930 . S
C41 C36 1.390 1_655 S
C41 C40 1.362 . S
C42 C31 1.492 . S
C42 C43 1.377 . S
C42 C47 1.397 . S
C43 H6 0.931 . S
C43 C42 1.377 . S
C43 C44 1.376 . S
C44 H7 0.930 . S
C44 C43 1.376 . S
C44 C45 1.376 . S
C45 C44 1.376 . S
C45 C46 1.378 . S
C45 C72 1.486 . S
C46 H8 0.930 . S
C46 C45 1.378 . S
C46 C47 1.376 . S
C47 H9 0.929 . S
C47 C42 1.397 . S
C47 C46 1.376 . S
C48 C32 1.509 . S
C48 C49 1.391 . S
C48 C53 1.386 . S
C49 H10 0.930 . S
C49 C48 1.391 . S
C49 C50 1.375 . S
C50 H11 0.931 . S
C50 C49 1.375 . S
C50 C51 1.375 . S
C51 C50 1.375 . S
C51 C52 1.361 . S
C52 H12 0.930 . S
C52 C51 1.361 . S
C52 C53 1.399 . S
C53 H13 0.929 . S
C53 C48 1.386 . S
C53 C52 1.399 . S
C54 C33 1.485 . S
C54 C55 1.394 . S
C54 C59 1.360 . S
C55 H14 0.931 . S
C55 C54 1.394 . S
C55 C56 1.372 . S
C56 H15 0.930 . S
C56 C55 1.372 . S
C56 C57 1.397 . S
C57 C56 1.397 . S
C57 C58 1.390 . S
C57 C73 1.476 . S
C58 H16 0.930 . S
C58 C57 1.390 . S
C58 C59 1.366 . S
C59 H17 0.932 . S
C59 C54 1.360 . S
C59 C58 1.366 . S
C60 C34 1.490 . S
C60 C61 1.380 . S
C60 C65 1.386 . S
C61 H18 0.930 . S
C61 C60 1.380 . S
C61 C62 1.381 . S
C62 H19 0.929 . S
C62 C61 1.381 . S
C62 C63 1.371 . S
C63 C62 1.371 . S
C63 C64 1.380 . S
C64 H20 0.931 . S
C64 C63 1.380 . S
C64 C65 1.387 . S
C65 H21 0.930 . S
C65 C60 1.386 . S
C65 C64 1.387 . S
C66 C35 1.519 . S
C66 C67 1.377 1_455 S
C66 C71 1.361 1_455 S
C67 H22 0.929 . S
C67 C66 1.377 1_655 S
C67 C68 1.386 . S
C68 H23 0.931 . S
C68 C67 1.386 . S
C68 C69 1.363 . S
C69 C68 1.363 . S
C69 C70 1.385 . S
C70 H24 0.930 . S
C70 C69 1.385 . S
C70 C71 1.396 . S
C71 H25 0.929 1_655 S
C71 C66 1.361 1_655 S
C71 C70 1.396 . S
C72 O26 1.300 . S
C72 O27 1.209 . S
C72 C45 1.486 . S
C73 O28 1.199 . S
C73 O29 1.297 . S
C73 C57 1.476 . S
H74 O100 0.856 . S
H75 O103 0.854 . S
H76 C111 0.930 . S
H77 C112 0.930 . S
H78 C114 0.930 . S
H79 C115 0.930 . S
H80 C117 0.931 . S
H81 C118 0.930 . S
H82 C120 0.930 . S
H83 C121 0.929 . S
H84 C123 0.930 . S
H85 C124 0.931 . S
H86 C126 0.930 . S
H87 C127 0.929 . S
H88 C129 0.931 . S
H89 C130 0.930 . S
H90 C132 0.930 . S
H91 C133 0.932 . S
H92 C135 0.930 . S
H93 C136 0.929 . S
H94 C138 0.931 . S
H95 C139 0.930 . S
H96 C141 0.929 . S
H97 C142 0.931 . S
H98 C144 0.930 . S
H99 C145 0.929 1_545 S
O100 H74 0.856 . S
O100 C146 1.300 . S
O101 C146 1.209 . S
O102 C147 1.199 . S
O103 H75 0.854 . S
O103 C147 1.297 . S
C104 C105 1.404 . S
C104 C109 1.397 . S
C104 C110 1.492 . S
C105 C104 1.404 . S
C105 C106 1.396 . S
C105 C116 1.492 . S
C106 C105 1.396 . S
C106 C107 1.397 . S
C106 C122 1.509 . S
C107 C106 1.397 . S
C107 C108 1.412 . S
C107 C128 1.485 . S
C108 C107 1.412 . S
C108 C109 1.388 . S
C108 C134 1.490 . S
C109 C104 1.397 . S
C109 C108 1.388 . S
C109 C140 1.519 . S
C110 C104 1.492 . S
C110 C111 1.363 . S
C110 C115 1.390 1_545 S
C111 H76 0.930 . S
C111 C110 1.363 . S
C111 C112 1.372 1_545 S
C112 H77 0.930 . S
C112 C111 1.372 1_565 S
C112 C113 1.383 . S
C113 C112 1.383 . S
C113 C114 1.395 . S
C114 H78 0.930 . S
C114 C113 1.395 . S
C114 C115 1.362 . S
C115 H79 0.930 . S
C115 C110 1.390 1_565 S
C115 C114 1.362 . S
C116 C105 1.492 . S
C116 C117 1.377 . S
C116 C121 1.397 . S
C117 H80 0.931 . S
C117 C116 1.377 . S
C117 C118 1.376 . S
C118 H81 0.930 . S
C118 C117 1.376 . S
C118 C119 1.376 . S
C119 C118 1.376 . S
C119 C120 1.378 . S
C119 C146 1.486 . S
C120 H82 0.930 . S
C120 C119 1.378 . S
C120 C121 1.376 . S
C121 H83 0.929 . S
C121 C116 1.397 . S
C121 C120 1.376 . S
C122 C106 1.509 . S
C122 C123 1.391 . S
C122 C127 1.386 . S
C123 H84 0.930 . S
C123 C122 1.391 . S
C123 C124 1.375 . S
C124 H85 0.931 . S
C124 C123 1.375 . S
C124 C125 1.375 . S
C125 C124 1.375 . S
C125 C126 1.361 . S
C126 H86 0.930 . S
C126 C125 1.361 . S
C126 C127 1.399 . S
C127 H87 0.929 . S
C127 C122 1.386 . S
C127 C126 1.399 . S
C128 C107 1.485 . S
C128 C129 1.394 . S
C128 C133 1.360 . S
C129 H88 0.931 . S
C129 C128 1.394 . S
C129 C130 1.372 . S
C130 H89 0.930 . S
C130 C129 1.372 . S
C130 C131 1.397 . S
C131 C130 1.397 . S
C131 C132 1.390 . S
C131 C147 1.476 . S
C132 H90 0.930 . S
C132 C131 1.390 . S
C132 C133 1.366 . S
C133 H91 0.932 . S
C133 C128 1.360 . S
C133 C132 1.366 . S
C134 C108 1.490 . S
C134 C135 1.380 . S
C134 C139 1.386 . S
C135 H92 0.930 . S
C135 C134 1.380 . S
C135 C136 1.381 . S
C136 H93 0.929 . S
C136 C135 1.381 . S
C136 C137 1.371 . S
C137 C136 1.371 . S
C137 C138 1.380 . S
C138 H94 0.931 . S
C138 C137 1.380 . S
C138 C139 1.387 . S
C139 H95 0.930 . S
C139 C134 1.386 . S
C139 C138 1.387 . S
C140 C109 1.519 . S
C140 C141 1.377 1_545 S
C140 C145 1.361 1_545 S
C141 H96 0.929 . S
C141 C140 1.377 1_565 S
C141 C142 1.386 . S
C142 H97 0.931 . S
C142 C141 1.386 . S
C142 C143 1.363 . S
C143 C142 1.363 . S
C143 C144 1.385 . S
C144 H98 0.930 . S
C144 C143 1.385 . S
C144 C145 1.396 . S
C145 H99 0.929 1_565 S
C145 C140 1.361 1_565 S
C145 C144 1.396 . S
C146 O100 1.300 . S
C146 O101 1.209 . S
C146 C119 1.486 . S
C147 O102 1.199 . S
C147 O103 1.297 . S
C147 C131 1.476 . S
H148 O174 0.856 . S
H149 O177 0.854 . S
H150 C185 0.930 . S
H151 C186 0.930 . S
H152 C188 0.930 . S
H153 C189 0.930 . S
H154 C191 0.931 . S
H155 C192 0.930 . S
H156 C194 0.930 . S
H157 C195 0.929 . S
H158 C197 0.930 . S
H159 C198 0.931 . S
H160 C200 0.930 . S
H161 C201 0.929 . S
H162 C203 0.931 . S
H163 C204 0.930 . S
H164 C206 0.930 . S
H165 C207 0.932 . S
H166 C209 0.930 . S
H167 C210 0.929 . S
H168 C212 0.931 . S
H169 C213 0.930 . S
H170 C215 0.929 . S
H171 C216 0.931 . S
H172 C218 0.930 . S
H173 C219 0.929 . S
O174 H148 0.856 . S
O174 C220 1.300 . S
O175 C220 1.209 . S
O176 C221 1.199 . S
O177 H149 0.854 . S
O177 C221 1.297 . S
C178 C179 1.404 . S
C178 C183 1.397 . S
C178 C184 1.492 . S
C179 C178 1.404 . S
C179 C180 1.396 . S
C179 C190 1.492 . S
C180 C179 1.396 . S
C180 C181 1.397 . S
C180 C196 1.509 . S
C181 C180 1.397 . S
C181 C182 1.412 . S
C181 C202 1.485 . S
C182 C181 1.412 . S
C182 C183 1.388 . S
C182 C208 1.490 . S
C183 C178 1.397 . S
C183 C182 1.388 . S
C183 C214 1.519 . S
C184 C178 1.492 . S
C184 C185 1.363 . S
C184 C189 1.390 . S
C185 H150 0.930 . S
C185 C184 1.363 . S
C185 C186 1.372 . S
C186 H151 0.930 . S
C186 C185 1.372 . S
C186 C187 1.383 . S
C187 C186 1.383 . S
C187 C188 1.395 . S
C188 H152 0.930 . S
C188 C187 1.395 . S
C188 C189 1.362 . S
C189 H153 0.930 . S
C189 C184 1.390 . S
C189 C188 1.362 . S
C190 C179 1.492 . S
C190 C191 1.377 . S
C190 C195 1.397 . S
C191 H154 0.931 . S
C191 C190 1.377 . S
C191 C192 1.376 . S
C192 H155 0.930 . S
C192 C191 1.376 . S
C192 C193 1.376 . S
C193 C192 1.376 . S
C193 C194 1.378 . S
C193 C220 1.486 . S
C194 H156 0.930 . S
C194 C193 1.378 . S
C194 C195 1.376 . S
C195 H157 0.929 . S
C195 C190 1.397 . S
C195 C194 1.376 . S
C196 C180 1.509 . S
C196 C197 1.391 . S
C196 C201 1.386 . S
C197 H158 0.930 . S
C197 C196 1.391 . S
C197 C198 1.375 . S
C198 H159 0.931 . S
C198 C197 1.375 . S
C198 C199 1.375 . S
C199 C198 1.375 . S
C199 C200 1.361 . S
C200 H160 0.930 . S
C200 C199 1.361 . S
C200 C201 1.399 . S
C201 H161 0.929 . S
C201 C196 1.386 . S
C201 C200 1.399 . S
C202 C181 1.485 . S
C202 C203 1.394 . S
C202 C207 1.360 . S
C203 H162 0.931 . S
C203 C202 1.394 . S
C203 C204 1.372 . S
C204 H163 0.930 . S
C204 C203 1.372 . S
C204 C205 1.397 . S
C205 C204 1.397 . S
C205 C206 1.390 . S
C205 C221 1.476 . S
C206 H164 0.930 . S
C206 C205 1.390 . S
C206 C207 1.366 . S
C207 H165 0.932 . S
C207 C202 1.360 . S
C207 C206 1.366 . S
C208 C182 1.490 . S
C208 C209 1.380 . S
C208 C213 1.386 . S
C209 H166 0.930 . S
C209 C208 1.380 . S
C209 C210 1.381 . S
C210 H167 0.929 . S
C210 C209 1.381 . S
C210 C211 1.371 . S
C211 C210 1.371 . S
C211 C212 1.380 . S
C212 H168 0.931 . S
C212 C211 1.380 . S
C212 C213 1.387 . S
C213 H169 0.930 . S
C213 C208 1.386 . S
C213 C212 1.387 . S
C214 C183 1.519 . S
C214 C215 1.377 . S
C214 C219 1.361 . S
C215 H170 0.929 . S
C215 C214 1.377 . S
C215 C216 1.386 . S
C216 H171 0.931 . S
C216 C215 1.386 . S
C216 C217 1.363 . S
C217 C216 1.363 . S
C217 C218 1.385 . S
C218 H172 0.930 . S
C218 C217 1.385 . S
C218 C219 1.396 . S
C219 H173 0.929 . S
C219 C214 1.361 . S
C219 C218 1.396 . S
C220 O174 1.300 . S
C220 O175 1.209 . S
C220 C193 1.486 . S
C221 O176 1.199 . S
C221 O177 1.297 . S
C221 C205 1.476 . S
H222 O248 0.856 . S
H223 O251 0.854 . S
H224 C259 0.930 1_455 S
H225 C260 0.930 . S
H226 C262 0.930 . S
H227 C263 0.930 . S
H228 C265 0.931 . S
H229 C266 0.930 . S
H230 C268 0.930 . S
H231 C269 0.929 . S
H232 C271 0.930 . S
H233 C272 0.931 . S
H234 C274 0.930 . S
H235 C275 0.929 . S
H236 C277 0.931 . S
H237 C278 0.930 . S
H238 C280 0.930 . S
H239 C281 0.932 . S
H240 C283 0.930 . S
H241 C284 0.929 . S
H242 C286 0.931 . S
H243 C287 0.930 . S
H244 C289 0.929 . S
H245 C290 0.931 . S
H246 C292 0.930 . S
H247 C293 0.967 . S
O248 H222 0.856 . S
O248 C294 1.300 . S
O249 C294 1.209 . S
O250 C295 1.199 . S
O251 H223 0.854 . S
O251 C295 1.297 . S
C252 C253 1.404 . S
C252 C257 1.397 . S
C252 C258 1.492 . S
C253 C252 1.404 . S
C253 C254 1.396 . S
C253 C264 1.492 . S
C254 C253 1.396 . S
C254 C255 1.397 . S
C254 C270 1.509 . S
C255 C254 1.397 . S
C255 C256 1.412 . S
C255 C276 1.485 . S
C256 C255 1.412 . S
C256 C257 1.388 . S
C256 C282 1.490 . S
C257 C252 1.397 . S
C257 C256 1.388 . S
C257 C288 1.519 1_455 S
C258 C252 1.492 . S
C258 C259 1.363 1_455 S
C258 C263 1.390 1_455 S
C259 H224 0.930 1_655 S
C259 C258 1.363 1_655 S
C259 C260 1.372 . S
C260 H225 0.930 . S
C260 C259 1.372 . S
C260 C261 1.383 . S
C261 C260 1.383 . S
C261 C262 1.395 . S
C262 H226 0.930 . S
C262 C261 1.395 . S
C262 C263 1.362 . S
C263 H227 0.930 . S
C263 C258 1.390 1_655 S
C263 C262 1.362 . S
C264 C253 1.492 . S
C264 C265 1.377 . S
C264 C269 1.397 . S
C265 H228 0.931 . S
C265 C264 1.377 . S
C265 C266 1.376 . S
C266 H229 0.930 . S
C266 C265 1.376 . S
C266 C267 1.376 . S
C267 C266 1.376 . S
C267 C268 1.378 . S
C267 C294 1.486 . S
C268 H230 0.930 . S
C268 C267 1.378 . S
C268 C269 1.376 . S
C269 H231 0.929 . S
C269 C264 1.397 . S
C269 C268 1.376 . S
C270 C254 1.509 . S
C270 C271 1.391 . S
C270 C275 1.386 . S
C271 H232 0.930 . S
C271 C270 1.391 . S
C271 C272 1.375 . S
C272 H233 0.931 . S
C272 C271 1.375 . S
C272 C273 1.375 . S
C273 C272 1.375 . S
C273 C274 1.361 . S
C274 H234 0.930 . S
C274 C273 1.361 . S
C274 C275 1.399 . S
C275 H235 0.929 . S
C275 C270 1.386 . S
C275 C274 1.399 . S
C276 C255 1.485 . S
C276 C277 1.394 . S
C276 C281 1.360 . S
C277 H236 0.931 . S
C277 C276 1.394 . S
C277 C278 1.372 . S
C278 H237 0.930 . S
C278 C277 1.372 . S
C278 C279 1.397 . S
C279 C278 1.397 . S
C279 C280 1.390 . S
C279 C295 1.476 . S
C280 H238 0.930 . S
C280 C279 1.390 . S
C280 C281 1.366 . S
C281 H239 0.932 . S
C281 C276 1.360 . S
C281 C280 1.366 . S
C282 C256 1.490 . S
C282 C283 1.380 . S
C282 C287 1.386 . S
C283 H240 0.930 . S
C283 C282 1.380 . S
C283 C284 1.381 . S
C284 H241 0.929 . S
C284 C283 1.381 . S
C284 C285 1.371 . S
C285 C284 1.371 . S
C285 C286 1.380 . S
C286 H242 0.931 . S
C286 C285 1.380 . S
C286 C287 1.387 . S
C287 H243 0.930 . S
C287 C282 1.386 . S
C287 C286 1.387 . S
C288 C257 1.519 1_655 S
C288 C289 1.377 . S
C288 C293 1.361 . S
C289 H244 0.929 . S
C289 C288 1.377 . S
C289 C290 1.386 . S
C290 H245 0.931 . S
C290 C289 1.386 . S
C290 C291 1.363 . S
C291 C290 1.363 . S
C291 C292 1.385 . S
C292 H246 0.930 . S
C292 C291 1.385 . S
C292 C293 1.396 . S
C293 H247 0.967 . S
C293 C288 1.361 . S
C293 C292 1.396 . S
C294 O248 1.300 . S
C294 O249 1.209 . S
C294 C267 1.486 . S
C295 O250 1.199 . S
C295 O251 1.297 . S
C295 C279 1.476 . S
H296 O322 0.856 . S
H297 O325 0.854 . S
H298 C333 0.930 . S
H299 C334 0.930 . S
H300 C336 0.930 . S
H301 C337 0.930 . S
H302 C339 0.931 . S
H303 C340 0.930 . S
H304 C342 0.930 . S
H305 C343 0.929 . S
H306 C345 0.930 . S
H307 C346 0.931 . S
H308 C348 0.930 . S
H309 C349 0.929 . S
H310 C351 0.931 . S
H311 C352 0.930 . S
H312 C354 0.930 . S
H313 C355 0.932 . S
H314 C357 0.930 . S
H315 C358 0.949 . S
H316 C360 0.931 . S
H317 C361 0.930 . S
H318 C363 0.929 1_556 S
H319 C364 0.931 . S
H320 C366 0.930 . S
H321 C367 0.929 . S
O322 H296 0.856 . S
O322 C368 1.300 . S
O323 C368 1.209 . S
O324 C369 1.199 . S
O325 H297 0.854 . S
O325 C369 1.297 . S
C326 C327 1.404 . S
C326 C331 1.397 1_565 S
C326 C332 1.492 1_565 S
C327 C326 1.404 . S
C327 C328 1.396 . S
C327 C338 1.492 . S
C328 C327 1.396 . S
C328 C329 1.411 . S
C328 C344 1.509 . S
C329 C328 1.411 . S
C329 C330 1.407 1_556 S
C329 C350 1.477 1_556 S
C330 C329 1.407 1_554 S
C330 C331 1.388 1_564 S
C330 C356 1.490 . S
C331 C326 1.397 1_545 S
C331 C330 1.388 1_546 S
C331 C362 1.519 1_556 S
C332 C326 1.492 1_545 S
C332 C333 1.363 . S
C332 C337 1.390 . S
C333 H298 0.930 . S
C333 C332 1.363 . S
C333 C334 1.372 . S
C334 H299 0.930 . S
C334 C333 1.372 . S
C334 C335 1.383 . S
C335 C334 1.383 . S
C335 C336 1.395 . S
C336 H300 0.930 . S
C336 C335 1.395 . S
C336 C337 1.362 . S
C337 H301 0.930 . S
C337 C332 1.390 . S
C337 C336 1.362 . S
C338 C327 1.492 . S
C338 C339 1.377 . S
C338 C343 1.397 . S
C339 H302 0.931 . S
C339 C338 1.377 . S
C339 C340 1.376 . S
C340 H303 0.930 . S
C340 C339 1.376 . S
C340 C341 1.376 . S
C341 C340 1.376 . S
C341 C342 1.378 . S
C341 C368 1.486 . S
C342 H304 0.930 . S
C342 C341 1.378 . S
C342 C343 1.376 . S
C343 H305 0.929 . S
C343 C338 1.397 . S
C343 C342 1.376 . S
C344 C328 1.509 . S
C344 C345 1.391 . S
C344 C349 1.386 . S
C345 H306 0.930 . S
C345 C344 1.391 . S
C345 C346 1.375 . S
C346 H307 0.931 . S
C346 C345 1.375 . S
C346 C347 1.375 . S
C347 C346 1.375 . S
C347 C348 1.361 . S
C348 H308 0.930 . S
C348 C347 1.361 . S
C348 C349 1.399 . S
C349 H309 0.929 . S
C349 C344 1.386 . S
C349 C348 1.399 . S
C350 C329 1.477 1_554 S
C350 C351 1.394 . S
C350 C355 1.360 . S
C351 H310 0.931 . S
C351 C350 1.394 . S
C351 C352 1.372 . S
C352 H311 0.930 . S
C352 C351 1.372 . S
C352 C353 1.397 . S
C353 C352 1.397 . S
C353 C354 1.390 . S
C353 C369 1.476 . S
C354 H312 0.930 . S
C354 C353 1.390 . S
C354 C355 1.366 . S
C355 H313 0.932 . S
C355 C350 1.360 . S
C355 C354 1.366 . S
C356 C330 1.490 . S
C356 C357 1.380 . S
C356 C361 1.386 . S
C357 H314 0.930 . S
C357 C356 1.380 . S
C357 C358 1.381 . S
C358 H315 0.949 . S
C358 C357 1.381 . S
C358 C359 1.371 . S
C359 C358 1.371 . S
C359 C360 1.380 . S
C360 H316 0.931 . S
C360 C359 1.380 . S
C360 C361 1.387 . S
C361 H317 0.930 . S
C361 C356 1.386 . S
C361 C360 1.387 . S
C362 C331 1.519 1_554 S
C362 C363 1.377 . S
C362 C367 1.361 . S
C363 H318 0.929 1_554 S
C363 C362 1.377 . S
C363 C364 1.386 . S
C364 H319 0.931 . S
C364 C363 1.386 . S
C364 C365 1.363 . S
C365 C364 1.363 . S
C365 C366 1.385 . S
C366 H320 0.930 . S
C366 C365 1.385 . S
C366 C367 1.396 . S
C367 H321 0.929 . S
C367 C362 1.361 . S
C367 C366 1.396 . S
C368 O322 1.300 . S
C368 O323 1.209 . S
C368 C341 1.486 . S
C369 O324 1.199 . S
C369 O325 1.297 . S
C369 C353 1.476 . S
H370 O396 0.856 . S
H371 O399 0.854 . S
H372 C407 0.930 . S
H373 C408 0.930 . S
H374 C410 0.930 . S
H375 C411 0.930 . S
H376 C413 0.931 . S
H377 C414 0.930 . S
H378 C416 0.930 . S
H379 C417 0.929 . S
H380 C419 0.930 . S
H381 C420 0.931 . S
H382 C422 0.930 . S
H383 C423 0.929 . S
H384 C425 0.931 . S
H385 C426 0.930 . S
H386 C428 0.930 . S
H387 C429 0.932 . S
H388 C431 0.930 . S
H389 C432 0.929 . S
H390 C434 0.931 . S
H391 C435 0.930 . S
H392 C437 0.929 . S
H393 C438 0.931 . S
H394 C440 0.930 . S
H395 C441 0.929 . S
O396 H370 0.856 . S
O396 C442 1.300 . S
O397 C442 1.209 . S
O398 C443 1.199 . S
O399 H371 0.854 . S
O399 C443 1.297 . S
C400 C401 1.404 . S
C400 C405 1.397 . S
C400 C406 1.492 . S
C401 C400 1.404 . S
C401 C402 1.396 . S
C401 C412 1.492 . S
C402 C401 1.396 . S
C402 C403 1.397 . S
C402 C418 1.509 . S
C403 C402 1.397 . S
C403 C404 1.412 . S
C403 C424 1.485 . S
C404 C403 1.412 . S
C404 C405 1.388 . S
C404 C430 1.490 . S
C405 C400 1.397 . S
C405 C404 1.388 . S
C405 C436 1.519 . S
C406 C400 1.492 . S
C406 C407 1.363 . S
C406 C411 1.390 . S
C407 H372 0.930 . S
C407 C406 1.363 . S
C407 C408 1.372 . S
C408 H373 0.930 . S
C408 C407 1.372 . S
C408 C409 1.383 . S
C409 C408 1.383 . S
C409 C410 1.395 . S
C410 H374 0.930 . S
C410 C409 1.395 . S
C410 C411 1.362 . S
C411 H375 0.930 . S
C411 C406 1.390 . S
C411 C410 1.362 . S
C412 C401 1.492 . S
C412 C413 1.377 . S
C412 C417 1.397 . S
C413 H376 0.931 . S
C413 C412 1.377 . S
C413 C414 1.376 . S
C414 H377 0.930 . S
C414 C413 1.376 . S
C414 C415 1.376 . S
C415 C414 1.376 . S
C415 C416 1.378 . S
C415 C442 1.486 . S
C416 H378 0.930 . S
C416 C415 1.378 . S
C416 C417 1.376 . S
C417 H379 0.929 . S
C417 C412 1.397 . S
C417 C416 1.376 . S
C418 C402 1.509 . S
C418 C419 1.391 . S
C418 C423 1.386 . S
C419 H380 0.930 . S
C419 C418 1.391 . S
C419 C420 1.375 . S
C420 H381 0.931 . S
C420 C419 1.375 . S
C420 C421 1.375 . S
C421 C420 1.375 . S
C421 C422 1.361 . S
C422 H382 0.930 . S
C422 C421 1.361 . S
C422 C423 1.399 . S
C423 H383 0.929 . S
C423 C418 1.386 . S
C423 C422 1.399 . S
C424 C403 1.485 . S
C424 C425 1.394 . S
C424 C429 1.360 . S
C425 H384 0.931 . S
C425 C424 1.394 . S
C425 C426 1.372 . S
C426 H385 0.930 . S
C426 C425 1.372 . S
C426 C427 1.397 . S
C427 C426 1.397 . S
C427 C428 1.390 . S
C427 C443 1.476 . S
C428 H386 0.930 . S
C428 C427 1.390 . S
C428 C429 1.366 . S
C429 H387 0.932 . S
C429 C424 1.360 . S
C429 C428 1.366 . S
C430 C404 1.490 . S
C430 C431 1.380 . S
C430 C435 1.386 . S
C431 H388 0.930 . S
C431 C430 1.380 . S
C431 C432 1.381 . S
C432 H389 0.929 . S
C432 C431 1.381 . S
C432 C433 1.371 . S
C433 C432 1.371 . S
C433 C434 1.380 . S
C434 H390 0.931 . S
C434 C433 1.380 . S
C434 C435 1.387 . S
C435 H391 0.930 . S
C435 C430 1.386 . S
C435 C434 1.387 . S
C436 C405 1.519 . S
C436 C437 1.377 . S
C436 C441 1.361 . S
C437 H392 0.929 . S
C437 C436 1.377 . S
C437 C438 1.386 . S
C438 H393 0.931 . S
C438 C437 1.386 . S
C438 C439 1.363 . S
C439 C438 1.363 . S
C439 C440 1.385 . S
C440 H394 0.930 . S
C440 C439 1.385 . S
C440 C441 1.396 . S
C441 H395 0.929 . S
C441 C436 1.361 . S
C441 C440 1.396 . S
C442 O396 1.300 . S
C442 O397 1.209 . S
C442 C415 1.486 . S
C443 O398 1.199 . S
C443 O399 1.297 . S
C443 C427 1.476 . S
Li444 N461 1.990 . S
Li444 O504 1.956 . S
Li444 O505 1.970 . S
Li444 O506 1.961 . S
Li445 N469 1.990 . S
Li445 O504 1.970 . S
Li445 O505 1.956 . S
Li445 O507 1.961 . S
Li446 N491 1.990 . S
Li446 O504 1.961 . S
Li446 O506 1.956 . S
Li446 O507 1.970 . S
Li447 N497 1.990 . S
Li447 O505 1.961 . S
Li447 O506 1.970 . S
Li447 O507 1.956 . S
C448 C450 1.348 . S
C448 C451 1.356 . S
C448 O504 1.325 . S
N449 C452 1.314 . S
N449 C453 1.279 . S
C450 C448 1.348 . S
C450 C452 1.353 . S
C450 H508 0.929 . S
C451 C448 1.356 . S
C451 C453 1.358 . S
C451 H509 0.930 . S
C452 N449 1.314 . S
C452 C450 1.353 . S
C452 H510 0.930 . S
C453 N449 1.279 . S
C453 C451 1.358 . S
C453 H511 0.930 . S
C454 C457 1.348 . S
C454 C458 1.356 . S
C454 O505 1.325 . S
C455 N456 1.279 . S
C455 C458 1.358 . S
C455 H512 0.930 . S
N456 C455 1.279 . S
N456 C459 1.314 . S
C457 C454 1.348 . S
C457 C459 1.353 . S
C457 H513 0.929 . S
C458 C454 1.356 . S
C458 C455 1.358 . S
C458 H514 0.930 . S
C459 N456 1.314 . S
C459 C457 1.353 . S
C459 H515 0.930 . S
C460 N461 1.314 . S
C460 C465 1.353 . S
C460 H466 0.930 . S
N461 Li444 1.990 . S
N461 C460 1.314 . S
N461 C463 1.279 . S
C462 C463 1.358 . S
C462 C464 1.356 . S
C462 H516 0.930 . S
C463 N461 1.279 . S
C463 C462 1.358 . S
C463 H467 0.930 . S
C464 C462 1.356 . S
C464 C465 1.348 . S
C465 C460 1.353 . S
C465 C464 1.348 . S
C465 H517 0.929 . S
H466 C460 0.930 . S
H467 C463 0.930 . S
C468 N469 1.314 . S
C468 C470 1.353 . S
C468 H474 0.930 . S
N469 Li445 1.990 . S
N469 C468 1.314 . S
N469 C472 1.279 . S
C470 C468 1.353 . S
C470 C473 1.348 . S
C470 H518 0.929 . S
C471 C472 1.358 . S
C471 C473 1.356 . S
C471 H519 0.930 . S
C472 N469 1.279 . S
C472 C471 1.358 . S
C472 H475 0.930 . S
C473 C470 1.348 . S
C473 C471 1.356 . S
H474 C468 0.930 . S
H475 C472 0.930 . S
C476 C478 1.348 . S
C476 C479 1.356 . S
C476 O506 1.325 . S
N477 C480 1.314 . S
N477 C481 1.279 . S
C478 C476 1.348 . S
C478 C480 1.353 . S
C478 H520 0.929 . S
C479 C476 1.356 . S
C479 C481 1.358 . S
C479 H521 0.930 . S
C480 N477 1.314 . S
C480 C478 1.353 . S
C480 H522 0.930 . S
C481 N477 1.279 . S
C481 C479 1.358 . S
C481 H523 0.930 . S
C482 C483 1.348 . S
C482 C484 1.356 . S
C482 O507 1.325 . S
C483 C482 1.348 . S
C483 C485 1.353 . S
C483 H524 0.929 . S
C484 C482 1.356 . S
C484 C486 1.358 . S
C484 H525 0.930 . S
C485 C483 1.353 . S
C485 N487 1.314 . S
C485 H526 0.930 . S
C486 C484 1.358 . S
C486 N487 1.279 . S
C486 H527 0.930 . S
N487 C485 1.314 . S
N487 C486 1.279 . S
C488 C490 1.353 . S
C488 N491 1.314 . S
C488 H494 0.930 . S
C489 N491 1.279 . S
C489 C492 1.358 . S
C489 H495 0.930 . S
C490 C488 1.353 . S
C490 C493 1.348 . S
C490 H528 0.929 . S
N491 Li446 1.990 . S
N491 C488 1.314 . S
N491 C489 1.279 . S
C492 C489 1.358 . S
C492 C493 1.356 . S
C492 H529 0.930 . S
C493 C490 1.348 . S
C493 C492 1.356 . S
H494 C488 0.930 . S
H495 C489 0.930 . S
C496 N497 1.314 . S
C496 C498 1.353 . S
C496 H502 0.930 . S
N497 Li447 1.990 . S
N497 C496 1.314 . S
N497 C500 1.279 . S
C498 C496 1.353 . S
C498 C501 1.348 . S
C498 H530 0.929 . S
C499 C500 1.358 . S
C499 C501 1.356 . S
C499 H531 0.930 . S
C500 N497 1.279 . S
C500 C499 1.358 . S
C500 H503 0.930 . S
C501 C498 1.348 . S
C501 C499 1.356 . S
H502 C496 0.930 . S
H503 C500 0.930 . S
O504 Li444 1.956 . S
O504 Li445 1.970 . S
O504 Li446 1.961 . S
O504 C448 1.325 . S
O505 Li444 1.970 . S
O505 Li445 1.956 . S
O505 Li447 1.961 . S
O505 C454 1.325 . S
O506 Li444 1.961 . S
O506 Li446 1.956 . S
O506 Li447 1.970 . S
O506 C476 1.325 . S
O507 Li445 1.961 . S
O507 Li446 1.970 . S
O507 Li447 1.956 . S
O507 C482 1.325 . S
H508 C450 0.929 . S
H509 C451 0.930 . S
H510 C452 0.930 . S
H511 C453 0.930 . S
H512 C455 0.930 . S
H513 C457 0.929 . S
H514 C458 0.930 . S
H515 C459 0.930 . S
H516 C462 0.930 . S
H517 C465 0.929 . S
H518 C470 0.929 . S
H519 C471 0.930 . S
H520 C478 0.929 . S
H521 C479 0.930 . S
H522 C480 0.930 . S
H523 C481 0.930 . S
H524 C483 0.929 . S
H525 C484 0.930 . S
H526 C485 0.930 . S
H527 C486 0.930 . S
H528 C490 0.929 . S
H529 C492 0.930 . S
H530 C498 0.929 . S
H531 C499 0.930 . S
Li532 N549 1.990 . S
Li532 O592 1.956 . S
Li532 O593 1.970 . S
Li532 O594 1.961 . S
Li533 N557 1.990 . S
Li533 O592 1.970 . S
Li533 O593 1.956 . S
Li533 O595 1.961 . S
Li534 N579 1.990 . S
Li534 O592 1.961 . S
Li534 O594 1.956 . S
Li534 O595 1.970 . S
Li535 N585 1.990 . S
Li535 O593 1.961 . S
Li535 O594 1.970 . S
Li535 O595 1.956 . S
C536 C538 1.348 . S
C536 C539 1.356 . S
C536 O592 1.325 . S
N537 C540 1.314 . S
N537 C541 1.279 . S
C538 C536 1.348 . S
C538 C540 1.353 . S
C538 H596 0.929 . S
C539 C536 1.356 . S
C539 C541 1.358 . S
C539 H597 0.930 . S
C540 N537 1.314 . S
C540 C538 1.353 . S
C540 H598 0.930 . S
C541 N537 1.279 . S
C541 C539 1.358 . S
C541 H599 0.930 . S
C542 C545 1.348 . S
C542 C546 1.356 . S
C542 O593 1.325 . S
C543 N544 1.279 . S
C543 C546 1.358 . S
C543 H600 0.930 . S
N544 C543 1.279 . S
N544 C547 1.314 . S
C545 C542 1.348 . S
C545 C547 1.353 . S
C545 H601 0.929 . S
C546 C542 1.356 . S
C546 C543 1.358 . S
C546 H602 0.930 . S
C547 N544 1.314 . S
C547 C545 1.353 . S
C547 H603 0.930 . S
C548 N549 1.314 . S
C548 C553 1.353 . S
C548 H554 0.930 . S
N549 Li532 1.990 . S
N549 C548 1.314 . S
N549 C551 1.279 . S
C550 C551 1.358 . S
C550 C552 1.356 . S
C550 H604 0.930 . S
C551 N549 1.279 . S
C551 C550 1.358 . S
C551 H555 0.930 . S
C552 C550 1.356 . S
C552 C553 1.348 . S
C553 C548 1.353 . S
C553 C552 1.348 . S
C553 H605 0.929 . S
H554 C548 0.930 . S
H555 C551 0.930 . S
C556 N557 1.314 . S
C556 C558 1.353 . S
C556 H562 0.930 . S
N557 Li533 1.990 . S
N557 C556 1.314 . S
N557 C560 1.279 . S
C558 C556 1.353 . S
C558 C561 1.348 . S
C558 H606 0.929 . S
C559 C560 1.358 . S
C559 C561 1.356 . S
C559 H607 0.930 . S
C560 N557 1.279 . S
C560 C559 1.358 . S
C560 H563 0.930 . S
C561 C558 1.348 . S
C561 C559 1.356 . S
H562 C556 0.930 . S
H563 C560 0.930 . S
C564 C566 1.348 . S
C564 C567 1.356 . S
C564 O594 1.325 . S
N565 C568 1.314 . S
N565 C569 1.279 . S
C566 C564 1.348 . S
C566 C568 1.353 . S
C566 H608 0.929 . S
C567 C564 1.356 . S
C567 C569 1.358 . S
C567 H609 0.930 . S
C568 N565 1.314 . S
C568 C566 1.353 . S
C568 H610 0.930 . S
C569 N565 1.279 . S
C569 C567 1.358 . S
C569 H611 0.930 . S
C570 C571 1.348 . S
C570 C572 1.356 . S
C570 O595 1.325 . S
C571 C570 1.348 . S
C571 C573 1.353 . S
C571 H612 0.929 . S
C572 C570 1.356 . S
C572 C574 1.358 . S
C572 H613 0.930 . S
C573 C571 1.353 . S
C573 N575 1.314 . S
C573 H614 0.930 . S
C574 C572 1.358 . S
C574 N575 1.279 . S
C574 H615 0.930 . S
N575 C573 1.314 . S
N575 C574 1.279 . S
C576 C578 1.353 . S
C576 N579 1.314 . S
C576 H582 0.930 . S
C577 N579 1.279 . S
C577 C580 1.358 . S
C577 H583 0.930 . S
C578 C576 1.353 . S
C578 C581 1.348 . S
C578 H616 0.929 . S
N579 Li534 1.990 . S
N579 C576 1.314 . S
N579 C577 1.279 . S
C580 C577 1.358 . S
C580 C581 1.356 . S
C580 H617 0.930 . S
C581 C578 1.348 . S
C581 C580 1.356 . S
H582 C576 0.930 . S
H583 C577 0.930 . S
C584 N585 1.314 . S
C584 C586 1.353 . S
C584 H590 0.930 . S
N585 Li535 1.990 . S
N585 C584 1.314 . S
N585 C588 1.279 . S
C586 C584 1.353 . S
C586 C589 1.348 . S
C586 H618 0.929 . S
C587 C588 1.358 . S
C587 C589 1.356 . S
C587 H619 0.930 . S
C588 N585 1.279 . S
C588 C587 1.358 . S
C588 H591 0.930 . S
C589 C586 1.348 . S
C589 C587 1.356 . S
H590 C584 0.930 . S
H591 C588 0.930 . S
O592 Li532 1.956 . S
O592 Li533 1.970 . S
O592 Li534 1.961 . S
O592 C536 1.325 . S
O593 Li532 1.970 . S
O593 Li533 1.956 . S
O593 Li535 1.961 . S
O593 C542 1.325 . S
O594 Li532 1.961 . S
O594 Li534 1.956 . S
O594 Li535 1.970 . S
O594 C564 1.325 . S
O595 Li533 1.961 . S
O595 Li534 1.970 . S
O595 Li535 1.956 . S
O595 C570 1.325 . S
H596 C538 0.929 . S
H597 C539 0.930 . S
H598 C540 0.930 . S
H599 C541 0.930 . S
H600 C543 0.930 . S
H601 C545 0.929 . S
H602 C546 0.930 . S
H603 C547 0.930 . S
H604 C550 0.930 . S
H605 C553 0.929 . S
H606 C558 0.929 . S
H607 C559 0.930 . S
H608 C566 0.929 . S
H609 C567 0.930 . S
H610 C568 0.930 . S
H611 C569 0.930 . S
H612 C571 0.929 . S
H613 C572 0.930 . S
H614 C573 0.930 . S
H615 C574 0.930 . S
H616 C578 0.929 . S
H617 C580 0.930 . S
H618 C586 0.929 . S
H619 C587 0.930 . S
Li620 N637 1.990 . S
Li620 O680 1.956 . S
Li620 O681 1.970 . S
Li620 O682 1.961 . S
Li621 N645 1.990 . S
Li621 O680 1.970 . S
Li621 O681 1.956 . S
Li621 O683 1.961 . S
Li622 N667 1.990 . S
Li622 O680 1.961 . S
Li622 O682 1.956 . S
Li622 O683 1.970 . S
Li623 N673 1.990 . S
Li623 O681 1.961 . S
Li623 O682 1.970 . S
Li623 O683 1.956 . S
C624 C626 1.348 . S
C624 C627 1.356 . S
C624 O680 1.325 . S
N625 C628 1.314 . S
N625 C629 1.279 . S
C626 C624 1.348 . S
C626 C628 1.353 . S
C626 H684 0.929 . S
C627 C624 1.356 . S
C627 C629 1.358 . S
C627 H685 0.930 . S
C628 N625 1.314 . S
C628 C626 1.353 . S
C628 H686 0.930 . S
C629 N625 1.279 . S
C629 C627 1.358 . S
C629 H687 0.930 . S
C630 C633 1.348 . S
C630 C634 1.356 . S
C630 O681 1.325 . S
C631 N632 1.279 . S
C631 C634 1.358 . S
C631 H688 0.930 . S
N632 C631 1.279 . S
N632 C635 1.314 . S
C633 C630 1.348 . S
C633 C635 1.353 . S
C633 H689 0.929 . S
C634 C630 1.356 . S
C634 C631 1.358 . S
C634 H690 0.930 . S
C635 N632 1.314 . S
C635 C633 1.353 . S
C635 H691 0.930 . S
C636 N637 1.314 . S
C636 C641 1.353 . S
C636 H642 0.930 . S
N637 Li620 1.990 . S
N637 C636 1.314 . S
N637 C639 1.279 . S
C638 C639 1.358 . S
C638 C640 1.356 . S
C638 H692 0.930 . S
C639 N637 1.279 . S
C639 C638 1.358 . S
C639 H643 0.930 . S
C640 C638 1.356 . S
C640 C641 1.348 . S
C641 C636 1.353 . S
C641 C640 1.348 . S
C641 H693 0.929 . S
H642 C636 0.930 . S
H643 C639 0.930 . S
C644 N645 1.314 . S
C644 C646 1.353 . S
C644 H650 0.930 . S
N645 Li621 1.990 . S
N645 C644 1.314 . S
N645 C648 1.279 . S
C646 C644 1.353 . S
C646 C649 1.348 . S
C646 H694 0.929 . S
C647 C648 1.358 . S
C647 C649 1.356 . S
C647 H695 0.930 . S
C648 N645 1.279 . S
C648 C647 1.358 . S
C648 H651 0.930 . S
C649 C646 1.348 . S
C649 C647 1.356 . S
H650 C644 0.930 . S
H651 C648 0.930 . S
C652 C654 1.348 . S
C652 C655 1.356 . S
C652 O682 1.325 . S
N653 C656 1.314 . S
N653 C657 1.279 . S
C654 C652 1.348 . S
C654 C656 1.353 . S
C654 H696 0.929 . S
C655 C652 1.356 . S
C655 C657 1.358 . S
C655 H697 0.930 . S
C656 N653 1.314 . S
C656 C654 1.353 . S
C656 H698 0.930 . S
C657 N653 1.279 . S
C657 C655 1.358 . S
C657 H699 0.930 . S
C658 C659 1.348 . S
C658 C660 1.356 . S
C658 O683 1.325 . S
C659 C658 1.348 . S
C659 C661 1.353 . S
C659 H700 0.929 . S
C660 C658 1.356 . S
C660 C662 1.358 . S
C660 H701 0.930 . S
C661 C659 1.353 . S
C661 N663 1.314 . S
C661 H702 0.930 . S
C662 C660 1.358 . S
C662 N663 1.279 . S
C662 H703 0.930 . S
N663 C661 1.314 . S
N663 C662 1.279 . S
C664 C666 1.353 . S
C664 N667 1.314 . S
C664 H670 0.930 . S
C665 N667 1.279 . S
C665 C668 1.358 . S
C665 H671 0.930 . S
C666 C664 1.353 . S
C666 C669 1.348 . S
C666 H704 0.929 . S
N667 Li622 1.990 . S
N667 C664 1.314 . S
N667 C665 1.279 . S
C668 C665 1.358 . S
C668 C669 1.356 . S
C668 H705 0.930 . S
C669 C666 1.348 . S
C669 C668 1.356 . S
H670 C664 0.930 . S
H671 C665 0.930 . S
C672 N673 1.314 . S
C672 C674 1.353 . S
C672 H678 0.930 . S
N673 Li623 1.990 . S
N673 C672 1.314 . S
N673 C676 1.279 . S
C674 C672 1.353 . S
C674 C677 1.348 . S
C674 H706 0.929 . S
C675 C676 1.358 . S
C675 C677 1.356 . S
C675 H707 0.930 . S
C676 N673 1.279 . S
C676 C675 1.358 . S
C676 H679 0.930 . S
C677 C674 1.348 . S
C677 C675 1.356 . S
H678 C672 0.930 . S
H679 C676 0.930 . S
O680 Li620 1.956 . S
O680 Li621 1.970 . S
O680 Li622 1.961 . S
O680 C624 1.325 . S
O681 Li620 1.970 . S
O681 Li621 1.956 . S
O681 Li623 1.961 . S
O681 C630 1.325 . S
O682 Li620 1.961 . S
O682 Li622 1.956 . S
O682 Li623 1.970 . S
O682 C652 1.325 . S
O683 Li621 1.961 . S
O683 Li622 1.970 . S
O683 Li623 1.956 . S
O683 C658 1.325 . S
H684 C626 0.929 . S
H685 C627 0.930 . S
H686 C628 0.930 . S
H687 C629 0.930 . S
H688 C631 0.930 . S
H689 C633 0.929 . S
H690 C634 0.930 . S
H691 C635 0.930 . S
H692 C638 0.930 . S
H693 C641 0.929 . S
H694 C646 0.929 . S
H695 C647 0.930 . S
H696 C654 0.929 . S
H697 C655 0.930 . S
H698 C656 0.930 . S
H699 C657 0.930 . S
H700 C659 0.929 . S
H701 C660 0.930 . S
H702 C661 0.930 . S
H703 C662 0.930 . S
H704 C666 0.929 . S
H705 C668 0.930 . S
H706 C674 0.929 . S
H707 C675 0.930 . S
Li708 N725 1.990 . S
Li708 O768 1.956 . S
Li708 O769 1.970 . S
Li708 O770 1.961 . S
Li709 N733 1.990 . S
Li709 O768 1.970 . S
Li709 O769 1.956 . S
Li709 O771 1.961 . S
Li710 N755 1.990 . S
Li710 O768 1.961 . S
Li710 O770 1.956 . S
Li710 O771 1.970 . S
Li711 N761 1.990 . S
Li711 O769 1.961 . S
Li711 O770 1.970 . S
Li711 O771 1.956 . S
C712 C714 1.348 . S
C712 C715 1.356 . S
C712 O768 1.325 . S
N713 C716 1.314 . S
N713 C717 1.279 . S
C714 C712 1.348 . S
C714 C716 1.353 . S
C714 H772 0.929 . S
C715 C712 1.356 . S
C715 C717 1.358 . S
C715 H773 0.930 . S
C716 N713 1.314 . S
C716 C714 1.353 . S
C716 H774 0.930 . S
C717 N713 1.279 . S
C717 C715 1.358 . S
C717 H775 0.930 . S
C718 C721 1.348 . S
C718 C722 1.356 . S
C718 O769 1.325 . S
C719 N720 1.279 . S
C719 C722 1.358 . S
C719 H776 0.930 . S
N720 C719 1.279 . S
N720 C723 1.314 . S
C721 C718 1.348 . S
C721 C723 1.353 . S
C721 H777 0.929 . S
C722 C718 1.356 . S
C722 C719 1.358 . S
C722 H778 0.930 . S
C723 N720 1.314 . S
C723 C721 1.353 . S
C723 H779 0.930 . S
C724 N725 1.314 . S
C724 C729 1.353 . S
C724 H730 0.930 . S
N725 Li708 1.990 . S
N725 C724 1.314 . S
N725 C727 1.279 . S
C726 C727 1.377 . S
C726 C728 1.358 . S
C726 H780 0.909 1_556 S
C727 N725 1.279 . S
C727 C726 1.377 . S
C727 H731 0.930 . S
C728 C726 1.358 . S
C728 C729 1.348 . S
C729 C724 1.353 . S
C729 C728 1.348 . S
C729 H781 0.929 . S
H730 C724 0.930 . S
H731 C727 0.930 . S
C732 N733 1.314 . S
C732 C734 1.353 . S
C732 H738 0.930 . S
N733 Li709 1.990 . S
N733 C732 1.314 . S
N733 C736 1.279 . S
C734 C732 1.353 . S
C734 C737 1.348 . S
C734 H782 0.929 . S
C735 C736 1.358 . S
C735 C737 1.356 . S
C735 H783 0.930 . S
C736 N733 1.279 . S
C736 C735 1.358 . S
C736 H739 0.930 . S
C737 C734 1.348 . S
C737 C735 1.356 . S
H738 C732 0.930 . S
H739 C736 0.930 . S
C740 C742 1.348 . S
C740 C743 1.356 . S
C740 O770 1.325 . S
N741 C744 1.314 . S
N741 C745 1.279 . S
C742 C740 1.348 . S
C742 C744 1.353 . S
C742 H784 0.929 . S
C743 C740 1.356 . S
C743 C745 1.358 . S
C743 H785 0.930 . S
C744 N741 1.314 . S
C744 C742 1.353 . S
C744 H786 0.930 . S
C745 N741 1.279 . S
C745 C743 1.358 . S
C745 H787 0.930 . S
C746 C747 1.348 . S
C746 C748 1.356 . S
C746 O771 1.325 . S
C747 C746 1.348 . S
C747 C749 1.353 . S
C747 H788 0.929 . S
C748 C746 1.356 . S
C748 C750 1.358 . S
C748 H789 0.930 . S
C749 C747 1.353 . S
C749 N751 1.314 . S
C749 H790 0.930 . S
C750 C748 1.358 . S
C750 N751 1.279 . S
C750 H791 0.930 . S
N751 C749 1.314 . S
N751 C750 1.279 . S
C752 C754 1.353 . S
C752 N755 1.314 . S
C752 H758 0.930 . S
C753 N755 1.279 . S
C753 C756 1.358 . S
C753 H759 0.930 . S
C754 C752 1.353 . S
C754 C757 1.348 . S
C754 H792 0.929 . S
N755 Li710 1.990 . S
N755 C752 1.314 . S
N755 C753 1.279 . S
C756 C753 1.358 . S
C756 C757 1.356 . S
C756 H793 0.930 . S
C757 C754 1.348 . S
C757 C756 1.356 . S
H758 C752 0.930 . S
H759 C753 0.930 . S
C760 N761 1.314 . S
C760 C762 1.353 . S
C760 H766 0.930 . S
N761 Li711 1.990 . S
N761 C760 1.314 . S
N761 C764 1.279 . S
C762 C760 1.353 . S
C762 C765 1.348 . S
C762 H794 0.929 . S
C763 C764 1.358 . S
C763 C765 1.356 . S
C763 H795 0.930 . S
C764 N761 1.279 . S
C764 C763 1.358 . S
C764 H767 0.930 . S
C765 C762 1.348 . S
C765 C763 1.356 . S
H766 C760 0.930 . S
H767 C764 0.930 . S
O768 Li708 1.956 . S
O768 Li709 1.970 . S
O768 Li710 1.961 . S
O768 C712 1.325 . S
O769 Li708 1.970 . S
O769 Li709 1.956 . S
O769 Li711 1.961 . S
O769 C718 1.325 . S
O770 Li708 1.961 . S
O770 Li710 1.956 . S
O770 Li711 1.970 . S
O770 C740 1.325 . S
O771 Li709 1.961 . S
O771 Li710 1.970 . S
O771 Li711 1.956 . S
O771 C746 1.325 . S
H772 C714 0.929 . S
H773 C715 0.930 . S
H774 C716 0.930 . S
H775 C717 0.930 . S
H776 C719 0.930 . S
H777 C721 0.929 . S
H778 C722 0.930 . S
H779 C723 0.930 . S
H780 C726 0.909 1_554 S
H781 C729 0.929 . S
H782 C734 0.929 . S
H783 C735 0.930 . S
H784 C742 0.929 . S
H785 C743 0.930 . S
H786 C744 0.930 . S
H787 C745 0.930 . S
H788 C747 0.929 . S
H789 C748 0.930 . S
H790 C749 0.930 . S
H791 C750 0.930 . S
H792 C754 0.929 . S
H793 C756 0.930 . S
H794 C762 0.929 . S
H795 C763 0.930 . S
Li796 N813 1.990 . S
Li796 O856 1.956 . S
Li796 O857 1.970 . S
Li796 O858 1.961 . S
Li797 N821 1.990 . S
Li797 O856 1.970 . S
Li797 O857 1.956 . S
Li797 O859 1.961 . S
Li798 N843 1.990 . S
Li798 O856 1.961 . S
Li798 O858 1.956 . S
Li798 O859 1.970 . S
Li799 N849 1.990 . S
Li799 O857 1.961 . S
Li799 O858 1.970 . S
Li799 O859 1.956 . S
C800 C802 1.348 . S
C800 C803 1.356 . S
C800 O856 1.325 . S
N801 C804 1.314 . S
N801 C805 1.279 . S
C802 C800 1.348 . S
C802 C804 1.353 . S
C802 H860 0.929 . S
C803 C800 1.356 . S
C803 C805 1.358 . S
C803 H861 0.930 . S
C804 N801 1.314 . S
C804 C802 1.353 . S
C804 H862 0.930 . S
C805 N801 1.279 . S
C805 C803 1.358 . S
C805 H863 0.930 . S
C806 C809 1.348 . S
C806 C810 1.356 . S
C806 O857 1.325 . S
C807 N808 1.279 . S
C807 C810 1.358 . S
C807 H864 0.930 . S
N808 C807 1.279 . S
N808 C811 1.314 . S
C809 C806 1.348 . S
C809 C811 1.353 . S
C809 H865 0.929 . S
C810 C806 1.356 . S
C810 C807 1.358 . S
C810 H866 0.930 . S
C811 N808 1.314 . S
C811 C809 1.353 . S
C811 H867 0.930 . S
C812 N813 1.314 . S
C812 C817 1.353 . S
C812 H818 0.930 . S
N813 Li796 1.990 . S
N813 C812 1.314 . S
N813 C815 1.279 . S
C814 C815 1.358 . S
C814 C816 1.356 . S
C814 H868 0.930 . S
C815 N813 1.279 . S
C815 C814 1.358 . S
C815 H819 0.930 . S
C816 C814 1.356 . S
C816 C817 1.348 . S
C817 C812 1.353 . S
C817 C816 1.348 . S
C817 H869 0.929 . S
H818 C812 0.930 . S
H819 C815 0.930 . S
C820 N821 1.314 . S
C820 C822 1.353 . S
C820 H826 0.930 . S
N821 Li797 1.990 . S
N821 C820 1.314 . S
N821 C824 1.279 . S
C822 C820 1.353 . S
C822 C825 1.348 . S
C822 H870 0.929 . S
C823 C824 1.358 . S
C823 C825 1.356 . S
C823 H871 0.930 . S
C824 N821 1.279 . S
C824 C823 1.358 . S
C824 H827 0.930 . S
C825 C822 1.348 . S
C825 C823 1.356 . S
H826 C820 0.930 . S
H827 C824 0.930 . S
C828 C830 1.348 . S
C828 C831 1.356 . S
C828 O858 1.325 . S
N829 C832 1.314 1_556 S
N829 C833 1.279 1_556 S
C830 C828 1.348 . S
C830 C832 1.353 . S
C830 H872 0.929 . S
C831 C828 1.356 . S
C831 C833 1.358 . S
C831 H873 0.930 . S
C832 N829 1.314 1_554 S
C832 C830 1.353 . S
C832 H874 0.930 1_554 S
C833 N829 1.279 1_554 S
C833 C831 1.358 . S
C833 H875 0.930 1_554 S
C834 C835 1.348 . S
C834 C836 1.356 . S
C834 O859 1.325 . S
C835 C834 1.348 . S
C835 C837 1.353 . S
C835 H876 0.929 . S
C836 C834 1.356 . S
C836 C838 1.358 . S
C836 H877 0.930 . S
C837 C835 1.353 . S
C837 N839 1.314 . S
C837 H878 0.930 . S
C838 C836 1.358 . S
C838 N839 1.279 . S
C838 H879 0.930 . S
N839 C837 1.314 . S
N839 C838 1.279 . S
C840 C842 1.353 . S
C840 N843 1.314 . S
C840 H846 0.930 . S
C841 N843 1.279 . S
C841 C844 1.358 1_554 S
C841 H847 0.934 . S
C842 C840 1.353 . S
C842 C845 1.348 1_554 S
C842 H880 0.929 . S
N843 Li798 1.990 . S
N843 C840 1.314 . S
N843 C841 1.279 . S
C844 C841 1.358 1_556 S
C844 C845 1.356 . S
C844 H881 0.930 . S
C845 C842 1.348 1_556 S
C845 C844 1.356 . S
H846 C840 0.930 . S
H847 C841 0.934 . S
C848 N849 1.314 . S
C848 C850 1.353 . S
C848 H854 0.930 . S
N849 Li799 1.990 . S
N849 C848 1.314 . S
N849 C852 1.279 . S
C850 C848 1.353 . S
C850 C853 1.348 . S
C850 H882 0.929 . S
C851 C852 1.358 . S
C851 C853 1.356 . S
C851 H883 0.930 . S
C852 N849 1.279 . S
C852 C851 1.358 . S
C852 H855 0.930 . S
C853 C850 1.348 . S
C853 C851 1.356 . S
H854 C848 0.930 . S
H855 C852 0.930 . S
O856 Li796 1.956 . S
O856 Li797 1.970 . S
O856 Li798 1.961 . S
O856 C800 1.325 . S
O857 Li796 1.970 . S
O857 Li797 1.956 . S
O857 Li799 1.961 . S
O857 C806 1.325 . S
O858 Li796 1.961 . S
O858 Li798 1.956 . S
O858 Li799 1.970 . S
O858 C828 1.325 . S
O859 Li797 1.961 . S
O859 Li798 1.970 . S
O859 Li799 1.956 . S
O859 C834 1.325 . S
H860 C802 0.929 . S
H861 C803 0.930 . S
H862 C804 0.930 . S
H863 C805 0.930 . S
H864 C807 0.930 . S
H865 C809 0.929 . S
H866 C810 0.930 . S
H867 C811 0.930 . S
H868 C814 0.930 . S
H869 C817 0.929 . S
H870 C822 0.929 . S
H871 C823 0.930 . S
H872 C830 0.929 . S
H873 C831 0.930 . S
H874 C832 0.930 1_556 S
H875 C833 0.930 1_556 S
H876 C835 0.929 . S
H877 C836 0.930 . S
H878 C837 0.930 . S
H879 C838 0.930 . S
H880 C842 0.929 . S
H881 C844 0.930 . S
H882 C850 0.929 . S
H883 C851 0.930 . S
Li884 N901 1.990 . S
Li884 O944 1.956 . S
Li884 O945 1.970 . S
Li884 O946 1.961 . S
Li885 N909 1.990 . S
Li885 O944 1.970 . S
Li885 O945 1.956 . S
Li885 O947 1.961 . S
Li886 N931 1.990 . S
Li886 O944 1.961 . S
Li886 O946 1.956 . S
Li886 O947 1.970 . S
Li887 N937 1.990 . S
Li887 O945 1.961 . S
Li887 O946 1.970 . S
Li887 O947 1.956 . S
C888 C890 1.348 . S
C888 C891 1.356 . S
C888 O944 1.325 . S
N889 C892 1.314 . S
N889 C893 1.279 . S
C890 C888 1.348 . S
C890 C892 1.353 . S
C890 H948 0.929 . S
C891 C888 1.356 . S
C891 C893 1.358 . S
C891 H949 0.930 . S
C892 N889 1.314 . S
C892 C890 1.353 . S
C892 H950 0.930 . S
C893 N889 1.279 . S
C893 C891 1.358 . S
C893 H951 0.930 . S
C894 C897 1.348 . S
C894 C898 1.356 . S
C894 O945 1.325 . S
C895 N896 1.279 . S
C895 C898 1.358 . S
C895 H952 0.930 . S
N896 C895 1.279 . S
N896 C899 1.314 . S
C897 C894 1.348 . S
C897 C899 1.353 . S
C897 H953 0.929 . S
C898 C894 1.356 . S
C898 C895 1.358 . S
C898 H954 0.930 . S
C899 N896 1.314 . S
C899 C897 1.353 . S
C899 H955 0.930 . S
C900 N901 1.314 . S
C900 C905 1.353 . S
C900 H906 0.930 . S
N901 Li884 1.990 . S
N901 C900 1.314 . S
N901 C903 1.279 . S
C902 C903 1.358 . S
C902 C904 1.356 . S
C902 H956 0.930 . S
C903 N901 1.279 . S
C903 C902 1.358 . S
C903 H907 0.930 . S
C904 C902 1.356 . S
C904 C905 1.348 . S
C905 C900 1.353 . S
C905 C904 1.348 . S
C905 H957 0.929 . S
H906 C900 0.930 . S
H907 C903 0.930 . S
C908 N909 1.314 . S
C908 C910 1.353 . S
C908 H914 0.930 . S
N909 Li885 1.990 . S
N909 C908 1.314 . S
N909 C912 1.279 . S
C910 C908 1.353 . S
C910 C913 1.348 . S
C910 H958 0.929 . S
C911 C912 1.358 . S
C911 C913 1.356 . S
C911 H959 0.930 . S
C912 N909 1.279 . S
C912 C911 1.358 . S
C912 H915 0.930 . S
C913 C910 1.348 . S
C913 C911 1.356 . S
H914 C908 0.930 . S
H915 C912 0.930 . S
C916 C918 1.348 . S
C916 C919 1.356 . S
C916 O946 1.325 . S
N917 C920 1.314 . S
N917 C921 1.279 . S
C918 C916 1.348 . S
C918 C920 1.353 . S
C918 H960 0.929 . S
C919 C916 1.356 . S
C919 C921 1.358 . S
C919 H961 0.930 . S
C920 N917 1.314 . S
C920 C918 1.353 . S
C920 H962 0.930 . S
C921 N917 1.279 . S
C921 C919 1.358 . S
C921 H963 0.930 . S
C922 C923 1.348 . S
C922 C924 1.356 . S
C922 O947 1.325 . S
C923 C922 1.348 . S
C923 C925 1.353 . S
C923 H964 0.929 . S
C924 C922 1.356 . S
C924 C926 1.358 . S
C924 H965 0.930 . S
C925 C923 1.353 . S
C925 N927 1.314 . S
C925 H966 0.930 . S
C926 C924 1.358 . S
C926 N927 1.279 . S
C926 H967 0.930 . S
N927 C925 1.314 . S
N927 C926 1.279 . S
C928 C930 1.353 . S
C928 N931 1.314 . S
C928 H934 0.930 . S
C929 N931 1.279 . S
C929 C932 1.358 . S
C929 H935 0.930 . S
C930 C928 1.353 . S
C930 C933 1.348 . S
C930 H968 0.929 . S
N931 Li886 1.990 . S
N931 C928 1.314 . S
N931 C929 1.279 . S
C932 C929 1.358 . S
C932 C933 1.356 . S
C932 H969 0.930 . S
C933 C930 1.348 . S
C933 C932 1.356 . S
H934 C928 0.930 . S
H935 C929 0.930 . S
C936 N937 1.314 . S
C936 C938 1.353 . S
C936 H942 0.930 . S
N937 Li887 1.990 . S
N937 C936 1.314 . S
N937 C940 1.279 . S
C938 C936 1.353 . S
C938 C941 1.348 . S
C938 H970 0.929 . S
C939 C940 1.358 . S
C939 C941 1.356 . S
C939 H971 0.930 . S
C940 N937 1.279 . S
C940 C939 1.358 . S
C940 H943 0.930 . S
C941 C938 1.348 . S
C941 C939 1.356 . S
H942 C936 0.930 . S
H943 C940 0.930 . S
O944 Li884 1.956 . S
O944 Li885 1.970 . S
O944 Li886 1.961 . S
O944 C888 1.325 . S
O945 Li884 1.970 . S
O945 Li885 1.956 . S
O945 Li887 1.961 . S
O945 C894 1.325 . S
O946 Li884 1.961 . S
O946 Li886 1.956 . S
O946 Li887 1.970 . S
O946 C916 1.325 . S
O947 Li885 1.961 . S
O947 Li886 1.970 . S
O947 Li887 1.956 . S
O947 C922 1.325 . S
H948 C890 0.929 . S
H949 C891 0.930 . S
H950 C892 0.930 . S
H951 C893 0.930 . S
H952 C895 0.930 . S
H953 C897 0.929 . S
H954 C898 0.930 . S
H955 C899 0.930 . S
H956 C902 0.930 . S
H957 C905 0.929 . S
H958 C910 0.929 . S
H959 C911 0.930 . S
H960 C918 0.929 . S
H961 C919 0.930 . S
H962 C920 0.930 . S
H963 C921 0.930 . S
H964 C923 0.929 . S
H965 C924 0.930 . S
H966 C925 0.930 . S
H967 C926 0.930 . S
H968 C930 0.929 . S
H969 C932 0.930 . S
H970 C938 0.929 . S
H971 C939 0.930 . S
C972 C973 1.363 . S
C972 C978 1.379 . S
C972 N980 1.356 . S
C973 C972 1.363 . S
C973 C979 1.363 . S
C974 C975 1.363 . S
C974 C979 1.379 . S
C974 N981 1.356 . S
C975 C974 1.363 . S
C975 C978 1.363 . S
N976 C978 1.356 . S
N976 H988 0.984 . S
N976 H989 0.985 . S
N977 C979 1.356 . S
N977 H982 0.984 . S
N977 H983 0.985 . S
C978 C972 1.379 . S
C978 C975 1.363 . S
C978 N976 1.356 . S
C979 C973 1.363 . S
C979 C974 1.379 . S
C979 N977 1.356 . S
N980 C972 1.356 . S
N980 H986 0.984 . S
N980 H987 0.984 . S
N981 C974 1.356 . S
N981 H984 0.984 . S
N981 H985 0.985 . S
H982 N977 0.984 . S
H983 N977 0.985 . S
H984 N981 0.984 . S
H985 N981 0.985 . S
H986 N980 0.984 . S
H987 N980 0.984 . S
H988 N976 0.984 . S
H989 N976 0.985 . S
C990 C991 1.363 . S
C990 C996 1.379 . S
C990 N998 1.356 . S
C991 C990 1.363 . S
C991 C997 1.363 . S
C992 C993 1.363 . S
C992 C997 1.379 . S
C992 N999 1.356 . S
C993 C992 1.363 . S
C993 C996 1.363 . S
N994 C996 1.356 . S
N994 H1006 0.984 . S
N994 H1007 0.985 . S
N995 C997 1.356 . S
N995 H1000 0.984 . S
N995 H1001 0.985 . S
C996 C990 1.379 . S
C996 C993 1.363 . S
C996 N994 1.356 . S
C997 C991 1.363 . S
C997 C992 1.379 . S
C997 N995 1.356 . S
N998 C990 1.356 . S
N998 H1004 0.984 . S
N998 H1005 0.984 . S
N999 C992 1.356 . S
N999 H1002 0.984 . S
N999 H1003 0.985 . S
H1000 N995 0.984 . S
H1001 N995 0.985 . S
H1002 N999 0.984 . S
H1003 N999 0.985 . S
H1004 N998 0.984 . S
H1005 N998 0.984 . S
H1006 N994 0.984 . S
H1007 N994 0.985 . S
C1008 C1009 1.363 . S
C1008 C1014 1.379 . S
C1008 N1016 1.356 . S
C1009 C1008 1.363 . S
C1009 C1015 1.363 . S
C1010 C1011 1.363 . S
C1010 C1015 1.379 . S
C1010 N1017 1.356 . S
C1011 C1010 1.363 . S
C1011 C1014 1.363 . S
N1012 C1014 1.356 . S
N1012 H1024 0.984 . S
N1012 H1025 0.985 . S
N1013 C1015 1.356 . S
N1013 H1018 0.984 . S
N1013 H1019 0.985 . S
C1014 C1008 1.379 . S
C1014 C1011 1.363 . S
C1014 N1012 1.356 . S
C1015 C1009 1.363 . S
C1015 C1010 1.379 . S
C1015 N1013 1.356 . S
N1016 C1008 1.356 . S
N1016 H1022 0.984 . S
N1016 H1023 0.984 . S
N1017 C1010 1.356 . S
N1017 H1020 0.984 . S
N1017 H1021 0.985 . S
H1018 N1013 0.984 . S
H1019 N1013 0.985 . S
H1020 N1017 0.984 . S
H1021 N1017 0.985 . S
H1022 N1016 0.984 . S
H1023 N1016 0.984 . S
H1024 N1012 0.984 . S
H1025 N1012 0.985 . S
C1026 C1027 1.363 . S
C1026 C1032 1.379 . S
C1026 N1034 1.356 . S
C1027 C1026 1.363 . S
C1027 C1033 1.363 . S
C1028 C1029 1.363 . S
C1028 C1033 1.379 . S
C1028 N1035 1.356 . S
C1029 C1028 1.363 . S
C1029 C1032 1.363 . S
N1030 C1032 1.356 . S
N1030 H1042 0.984 . S
N1030 H1043 0.985 . S
N1031 C1033 1.356 . S
N1031 H1036 0.984 . S
N1031 H1037 0.985 . S
C1032 C1026 1.379 . S
C1032 C1029 1.363 . S
C1032 N1030 1.356 . S
C1033 C1027 1.363 . S
C1033 C1028 1.379 . S
C1033 N1031 1.356 . S
N1034 C1026 1.356 . S
N1034 H1040 0.984 . S
N1034 H1041 0.984 . S
N1035 C1028 1.356 . S
N1035 H1038 0.984 . S
N1035 H1039 0.985 . S
H1036 N1031 0.984 . S
H1037 N1031 0.985 . S
H1038 N1035 0.984 . S
H1039 N1035 0.985 . S
H1040 N1034 0.984 . S
H1041 N1034 0.984 . S
H1042 N1030 0.984 . S
H1043 N1030 0.985 . S
C1044 C1045 1.363 . S
C1044 C1050 1.379 . S
C1044 N1052 1.356 . S
C1045 C1044 1.363 . S
C1045 C1051 1.363 . S
C1046 C1047 1.363 . S
C1046 C1051 1.379 . S
C1046 N1053 1.356 . S
C1047 C1046 1.363 . S
C1047 C1050 1.363 . S
N1048 C1050 1.356 . S
N1048 H1060 0.984 . S
N1048 H1061 0.985 . S
N1049 C1051 1.356 . S
N1049 H1054 0.984 . S
N1049 H1055 0.985 . S
C1050 C1044 1.379 . S
C1050 C1047 1.363 . S
C1050 N1048 1.356 . S
C1051 C1045 1.363 . S
C1051 C1046 1.379 . S
C1051 N1049 1.356 . S
N1052 C1044 1.356 . S
N1052 H1058 0.984 . S
N1052 H1059 0.984 . S
N1053 C1046 1.356 . S
N1053 H1056 0.984 . S
N1053 H1057 0.985 . S
H1054 N1049 0.984 . S
H1055 N1049 0.985 . S
H1056 N1053 0.984 . S
H1057 N1053 0.985 . S
H1058 N1052 0.984 . S
H1059 N1052 0.984 . S
H1060 N1048 0.984 . S
H1061 N1048 0.985 . S
C1062 C1063 1.363 . S
C1062 C1068 1.379 . S
C1062 N1070 1.356 . S
C1063 C1062 1.363 . S
C1063 C1069 1.363 . S
C1064 C1065 1.363 . S
C1064 C1069 1.379 . S
C1064 N1071 1.356 . S
C1065 C1064 1.363 . S
C1065 C1068 1.363 . S
N1066 C1068 1.356 . S
N1066 H1078 0.984 . S
N1066 H1079 0.985 . S
N1067 C1069 1.356 . S
N1067 H1072 0.984 . S
N1067 H1073 0.985 . S
C1068 C1062 1.379 . S
C1068 C1065 1.363 . S
C1068 N1066 1.356 . S
C1069 C1063 1.363 . S
C1069 C1064 1.379 . S
C1069 N1067 1.356 . S
N1070 C1062 1.356 . S
N1070 H1076 0.984 . S
N1070 H1077 0.984 . S
N1071 C1064 1.356 . S
N1071 H1074 0.984 . S
N1071 H1075 0.985 . S
H1072 N1067 0.984 . S
H1073 N1067 0.985 . S
H1074 N1071 0.984 . S
H1075 N1071 0.985 . S
H1076 N1070 0.984 . S
H1077 N1070 0.984 . S
H1078 N1066 0.984 . S
H1079 N1066 0.985 . S
C1080 C1081 1.363 . S
C1080 C1086 1.379 . S
C1080 N1088 1.356 . S
C1081 C1080 1.363 . S
C1081 C1087 1.363 . S
C1082 C1083 1.363 . S
C1082 C1087 1.379 . S
C1082 N1089 1.356 . S
C1083 C1082 1.363 . S
C1083 C1086 1.363 . S
N1084 C1086 1.356 . S
N1084 H1096 0.984 . S
N1084 H1097 0.985 . S
N1085 C1087 1.356 . S
N1085 H1090 0.984 . S
N1085 H1091 0.985 . S
C1086 C1080 1.379 . S
C1086 C1083 1.363 . S
C1086 N1084 1.356 . S
C1087 C1081 1.363 . S
C1087 C1082 1.379 . S
C1087 N1085 1.356 . S
N1088 C1080 1.356 . S
N1088 H1094 0.984 . S
N1088 H1095 0.984 . S
N1089 C1082 1.356 . S
N1089 H1092 0.984 . S
N1089 H1093 0.985 . S
H1090 N1085 0.984 . S
H1091 N1085 0.985 . S
H1092 N1089 0.984 . S
H1093 N1089 0.985 . S
H1094 N1088 0.984 . S
H1095 N1088 0.984 . S
H1096 N1084 0.984 . S
H1097 N1084 0.985 . S
C1098 C1099 1.363 . S
C1098 C1104 1.379 . S
C1098 N1106 1.356 . S
C1099 C1098 1.363 . S
C1099 C1105 1.363 . S
C1100 C1101 1.363 . S
C1100 C1105 1.379 . S
C1100 N1107 1.356 . S
C1101 C1100 1.363 . S
C1101 C1104 1.363 . S
N1102 C1104 1.356 . S
N1102 H1114 0.984 . S
N1102 H1115 0.985 . S
N1103 C1105 1.356 . S
N1103 H1108 0.984 . S
N1103 H1109 0.985 . S
C1104 C1098 1.379 . S
C1104 C1101 1.363 . S
C1104 N1102 1.356 . S
C1105 C1099 1.363 . S
C1105 C1100 1.379 . S
C1105 N1103 1.356 . S
N1106 C1098 1.356 . S
N1106 H1112 0.984 . S
N1106 H1113 0.984 . S
N1107 C1100 1.356 . S
N1107 H1110 0.984 . S
N1107 H1111 0.985 . S
H1108 N1103 0.984 . S
H1109 N1103 0.985 . S
H1110 N1107 0.984 . S
H1111 N1107 0.985 . S
H1112 N1106 0.984 . S
H1113 N1106 0.984 . S
H1114 N1102 0.984 . S
H1115 N1102 0.985 . S
C1116 C1117 1.363 . S
C1116 C1122 1.379 . S
C1116 N1124 1.356 . S
C1117 C1116 1.363 . S
C1117 C1123 1.363 . S
C1118 C1119 1.363 . S
C1118 C1123 1.379 . S
C1118 N1125 1.356 . S
C1119 C1118 1.363 . S
C1119 C1122 1.363 . S
N1120 C1122 1.356 . S
N1120 H1132 0.984 . S
N1120 H1133 0.985 . S
N1121 C1123 1.356 . S
N1121 H1126 0.984 . S
N1121 H1127 0.985 . S
C1122 C1116 1.379 . S
C1122 C1119 1.363 . S
C1122 N1120 1.356 . S
C1123 C1117 1.363 . S
C1123 C1118 1.379 . S
C1123 N1121 1.356 . S
N1124 C1116 1.356 . S
N1124 H1130 0.984 . S
N1124 H1131 0.984 . S
N1125 C1118 1.356 . S
N1125 H1128 0.984 . S
N1125 H1129 0.985 . S
H1126 N1121 0.984 . S
H1127 N1121 0.985 . S
H1128 N1125 0.984 . S
H1129 N1125 0.985 . S
H1130 N1124 0.984 . S
H1131 N1124 0.984 . S
H1132 N1120 0.984 . S
H1133 N1120 0.985 . S
C1134 C1135 1.363 . S
C1134 C1140 1.379 . S
C1134 N1142 1.339 1_554 S
C1135 C1134 1.363 . S
C1135 C1141 1.363 . S
C1136 C1137 1.363 . S
C1136 C1141 1.379 . S
C1136 N1143 1.356 . S
C1137 C1136 1.363 . S
C1137 C1140 1.363 . S
N1138 C1140 1.356 . S
N1138 H1150 0.984 . S
N1138 H1151 0.985 . S
N1139 C1141 1.356 . S
N1139 H1144 0.984 . S
N1139 H1145 0.985 . S
C1140 C1134 1.379 . S
C1140 C1137 1.363 . S
C1140 N1138 1.356 . S
C1141 C1135 1.363 . S
C1141 C1136 1.379 . S
C1141 N1139 1.356 . S
N1142 C1134 1.339 1_556 S
N1142 H1148 1.000 . S
N1142 H1149 0.987 . S
N1143 C1136 1.356 . S
N1143 H1146 0.984 . S
N1143 H1147 0.985 . S
H1144 N1139 0.984 . S
H1145 N1139 0.985 . S
H1146 N1143 0.984 . S
H1147 N1143 0.985 . S
H1148 N1142 1.000 . S
H1149 N1142 0.987 . S
H1150 N1138 0.984 . S
H1151 N1138 0.985 . S
C1152 C1153 1.363 . S
C1152 C1158 1.379 . S
C1152 N1160 1.356 . S
C1153 C1152 1.363 . S
C1153 C1159 1.363 . S
C1154 C1155 1.363 . S
C1154 C1159 1.379 . S
C1154 N1161 1.356 . S
C1155 C1154 1.363 . S
C1155 C1158 1.363 . S
N1156 C1158 1.356 . S
N1156 H1168 0.984 . S
N1156 H1169 0.985 . S
N1157 C1159 1.356 . S
N1157 H1162 0.984 . S
N1157 H1163 0.985 . S
C1158 C1152 1.379 . S
C1158 C1155 1.363 . S
C1158 N1156 1.356 . S
C1159 C1153 1.363 . S
C1159 C1154 1.379 . S
C1159 N1157 1.356 . S
N1160 C1152 1.356 . S
N1160 H1166 0.984 . S
N1160 H1167 0.984 . S
N1161 C1154 1.356 . S
N1161 H1164 0.984 . S
N1161 H1165 0.985 . S
H1162 N1157 0.984 . S
H1163 N1157 0.985 . S
H1164 N1161 0.984 . S
H1165 N1161 0.985 . S
H1166 N1160 0.984 . S
H1167 N1160 0.984 . S
H1168 N1156 0.984 . S
H1169 N1156 0.985 . S
C1170 C1171 1.363 . S
C1170 C1176 1.379 . S
C1170 N1178 1.356 . S
C1171 C1170 1.363 . S
C1171 C1177 1.363 . S
C1172 C1173 1.363 . S
C1172 C1177 1.379 . S
C1172 N1179 1.356 . S
C1173 C1172 1.363 . S
C1173 C1176 1.363 . S
N1174 C1176 1.356 . S
N1174 H1186 0.984 . S
N1174 H1187 0.985 . S
N1175 C1177 1.356 . S
N1175 H1180 0.984 . S
N1175 H1181 0.985 . S
C1176 C1170 1.379 . S
C1176 C1173 1.363 . S
C1176 N1174 1.356 . S
C1177 C1171 1.363 . S
C1177 C1172 1.379 . S
C1177 N1175 1.356 . S
N1178 C1170 1.356 . S
N1178 H1184 0.984 . S
N1178 H1185 0.984 . S
N1179 C1172 1.356 . S
N1179 H1182 0.984 . S
N1179 H1183 0.985 . S
H1180 N1175 0.984 . S
H1181 N1175 0.985 . S
H1182 N1179 0.984 . S
H1183 N1179 0.985 . S
H1184 N1178 0.984 . S
H1185 N1178 0.984 . S
H1186 N1174 0.984 . S
H1187 N1174 0.985 . S
C1188 C1189 1.363 . S
C1188 C1194 1.379 . S
C1188 N1196 1.356 . S
C1189 C1188 1.363 . S
C1189 C1195 1.363 . S
C1190 C1191 1.363 . S
C1190 C1195 1.379 . S
C1190 N1197 1.356 . S
C1191 C1190 1.363 . S
C1191 C1194 1.363 . S
N1192 C1194 1.356 . S
N1192 H1204 0.984 . S
N1192 H1205 0.985 . S
N1193 C1195 1.356 . S
N1193 H1198 0.984 . S
N1193 H1199 0.985 . S
C1194 C1188 1.379 . S
C1194 C1191 1.363 . S
C1194 N1192 1.356 . S
C1195 C1189 1.363 . S
C1195 C1190 1.379 . S
C1195 N1193 1.356 . S
N1196 C1188 1.356 . S
N1196 H1202 0.984 . S
N1196 H1203 0.984 . S
N1197 C1190 1.356 . S
N1197 H1200 0.984 . S
N1197 H1201 0.985 . S
H1198 N1193 0.984 . S
H1199 N1193 0.985 . S
H1200 N1197 0.984 . S
H1201 N1197 0.985 . S
H1202 N1196 0.984 . S
H1203 N1196 0.984 . S
H1204 N1192 0.984 . S
H1205 N1192 0.985 . S
C1206 C1207 1.363 . S
C1206 C1212 1.379 . S
C1206 N1214 1.356 . S
C1207 C1206 1.363 . S
C1207 C1213 1.363 . S
C1208 C1209 1.363 . S
C1208 C1213 1.379 . S
C1208 N1215 1.356 . S
C1209 C1208 1.363 . S
C1209 C1212 1.363 . S
N1210 C1212 1.356 . S
N1210 H1222 0.984 . S
N1210 H1223 0.985 . S
N1211 C1213 1.356 . S
N1211 H1216 0.984 . S
N1211 H1217 0.985 . S
C1212 C1206 1.379 . S
C1212 C1209 1.363 . S
C1212 N1210 1.356 . S
C1213 C1207 1.363 . S
C1213 C1208 1.379 . S
C1213 N1211 1.356 . S
N1214 C1206 1.356 . S
N1214 H1220 0.984 . S
N1214 H1221 0.984 . S
N1215 C1208 1.356 . S
N1215 H1218 0.984 . S
N1215 H1219 0.985 . S
H1216 N1211 0.984 . S
H1217 N1211 0.985 . S
H1218 N1215 0.984 . S
H1219 N1215 0.985 . S
H1220 N1214 0.984 . S
H1221 N1214 0.984 . S
H1222 N1210 0.984 . S
H1223 N1210 0.985 . S
C1224 C1225 1.363 . S
C1224 C1230 1.379 . S
C1224 N1232 1.356 . S
C1225 C1224 1.363 . S
C1225 C1231 1.363 . S
C1226 C1227 1.363 . S
C1226 C1231 1.379 . S
C1226 N1233 1.356 . S
C1227 C1226 1.363 . S
C1227 C1230 1.363 . S
N1228 C1230 1.356 . S
N1228 H1240 0.984 . S
N1228 H1241 0.985 . S
N1229 C1231 1.356 . S
N1229 H1234 0.984 . S
N1229 H1235 0.985 . S
C1230 C1224 1.379 . S
C1230 C1227 1.363 . S
C1230 N1228 1.356 . S
C1231 C1225 1.363 . S
C1231 C1226 1.379 . S
C1231 N1229 1.356 . S
N1232 C1224 1.356 . S
N1232 H1238 0.984 . S
N1232 H1239 0.984 . S
N1233 C1226 1.356 . S
N1233 H1236 0.984 . S
N1233 H1237 0.985 . S
H1234 N1229 0.984 . S
H1235 N1229 0.985 . S
H1236 N1233 0.984 . S
H1237 N1233 0.985 . S
H1238 N1232 0.984 . S
H1239 N1232 0.984 . S
H1240 N1228 0.984 . S
H1241 N1228 0.985 . S
C1242 C1243 1.363 . S
C1242 C1248 1.379 . S
C1242 N1250 1.356 . S
C1243 C1242 1.363 . S
C1243 C1249 1.363 . S
C1244 C1245 1.363 . S
C1244 C1249 1.379 . S
C1244 N1251 1.356 . S
C1245 C1244 1.363 . S
C1245 C1248 1.363 . S
N1246 C1248 1.356 . S
N1246 H1258 0.984 . S
N1246 H1259 0.985 . S
N1247 C1249 1.356 . S
N1247 H1252 0.984 . S
N1247 H1253 1.010 . S
C1248 C1242 1.379 . S
C1248 C1245 1.363 . S
C1248 N1246 1.356 . S
C1249 C1243 1.363 . S
C1249 C1244 1.379 . S
C1249 N1247 1.356 . S
N1250 C1242 1.356 . S
N1250 H1256 0.984 . S
N1250 H1257 0.984 . S
N1251 C1244 1.356 . S
N1251 H1254 0.984 . S
N1251 H1255 0.985 . S
H1252 N1247 0.984 . S
H1253 N1247 1.010 . S
H1254 N1251 0.984 . S
H1255 N1251 0.985 . S
H1256 N1250 0.984 . S
H1257 N1250 0.984 . S
H1258 N1246 0.984 . S
H1259 N1246 0.985 . S
C1260 C1261 1.363 . S
C1260 C1266 1.379 . S
C1260 N1268 1.356 1_565 S
C1261 C1260 1.363 . S
C1261 C1267 1.363 . S
C1262 C1263 1.363 . S
C1262 C1267 1.379 . S
C1262 N1269 1.356 . S
C1263 C1262 1.363 . S
C1263 C1266 1.363 . S
N1264 C1266 1.356 . S
N1264 H1276 0.984 . S
N1264 H1277 0.985 . S
N1265 C1267 1.356 . S
N1265 H1270 0.984 . S
N1265 H1271 0.985 . S
C1266 C1260 1.379 . S
C1266 C1263 1.363 . S
C1266 N1264 1.356 . S
C1267 C1261 1.363 . S
C1267 C1262 1.379 . S
C1267 N1265 1.356 . S
N1268 C1260 1.356 1_545 S
N1268 H1274 0.984 . S
N1268 H1275 0.984 . S
N1269 C1262 1.356 . S
N1269 H1272 0.984 . S
N1269 H1273 0.985 . S
H1270 N1265 0.984 . S
H1271 N1265 0.985 . S
H1272 N1269 0.984 . S
H1273 N1269 0.985 . S
H1274 N1268 0.984 . S
H1275 N1268 0.984 . S
H1276 N1264 0.984 . S
H1277 N1264 0.985 . S
C1278 C1279 1.363 . S
C1278 C1284 1.379 . S
C1278 N1286 1.356 . S
C1279 C1278 1.363 . S
C1279 C1285 1.363 . S
C1280 C1281 1.363 . S
C1280 C1285 1.379 . S
C1280 N1287 1.356 . S
C1281 C1280 1.363 . S
C1281 C1284 1.363 . S
N1282 C1284 1.356 . S
N1282 H1294 0.984 . S
N1282 H1295 0.985 . S
N1283 C1285 1.356 . S
N1283 H1288 0.984 . S
N1283 H1289 0.985 . S
C1284 C1278 1.379 . S
C1284 C1281 1.363 . S
C1284 N1282 1.356 . S
C1285 C1279 1.363 . S
C1285 C1280 1.379 . S
C1285 N1283 1.356 . S
N1286 C1278 1.356 . S
N1286 H1292 0.984 . S
N1286 H1293 0.984 . S
N1287 C1280 1.356 . S
N1287 H1290 0.984 . S
N1287 H1291 0.985 . S
H1288 N1283 0.984 . S
H1289 N1283 0.985 . S
H1290 N1287 0.984 . S
H1291 N1287 0.985 . S
H1292 N1286 0.984 . S
H1293 N1286 0.984 . S
H1294 N1282 0.984 . S
H1295 N1282 0.985 . S
C1296 C1297 1.363 . S
C1296 C1302 1.379 . S
C1296 N1304 1.356 . S
C1297 C1296 1.363 . S
C1297 C1303 1.363 . S
C1298 C1299 1.363 . S
C1298 C1303 1.379 . S
C1298 N1305 1.356 . S
C1299 C1298 1.363 . S
C1299 C1302 1.363 . S
N1300 C1302 1.356 . S
N1300 H1312 0.984 . S
N1300 H1313 0.985 . S
N1301 C1303 1.356 . S
N1301 H1306 0.984 . S
N1301 H1307 0.985 . S
C1302 C1296 1.379 . S
C1302 C1299 1.363 . S
C1302 N1300 1.356 . S
C1303 C1297 1.363 . S
C1303 C1298 1.379 . S
C1303 N1301 1.356 . S
N1304 C1296 1.356 . S
N1304 H1310 0.984 . S
N1304 H1311 0.984 . S
N1305 C1298 1.356 . S
N1305 H1308 0.984 . S
N1305 H1309 0.985 . S
H1306 N1301 0.984 . S
H1307 N1301 0.985 . S
H1308 N1305 0.984 . S
H1309 N1305 0.985 . S
H1310 N1304 0.984 . S
H1311 N1304 0.984 . S
H1312 N1300 0.984 . S
H1313 N1300 0.985 . S
C1314 C1315 1.363 . S
C1314 C1320 1.379 . S
C1314 N1322 1.356 . S
C1315 C1314 1.363 . S
C1315 C1321 1.363 . S
C1316 C1317 1.363 . S
C1316 C1321 1.379 . S
C1316 N1323 1.356 . S
C1317 C1316 1.363 . S
C1317 C1320 1.363 . S
N1318 C1320 1.356 . S
N1318 H1330 0.984 . S
N1318 H1331 0.985 . S
N1319 C1321 1.356 . S
N1319 H1324 0.984 . S
N1319 H1325 0.985 . S
C1320 C1314 1.379 . S
C1320 C1317 1.363 . S
C1320 N1318 1.356 . S
C1321 C1315 1.363 . S
C1321 C1316 1.379 . S
C1321 N1319 1.356 . S
N1322 C1314 1.356 . S
N1322 H1328 0.984 . S
N1322 H1329 0.984 . S
N1323 C1316 1.356 . S
N1323 H1326 0.984 . S
N1323 H1327 0.985 . S
H1324 N1319 0.984 . S
H1325 N1319 0.985 . S
H1326 N1323 0.984 . S
H1327 N1323 0.985 . S
H1328 N1322 0.984 . S
H1329 N1322 0.984 . S
H1330 N1318 0.984 . S
H1331 N1318 0.985 . S
C1332 C1333 1.363 . S
C1332 C1338 1.379 . S
C1332 N1340 1.356 . S
C1333 C1332 1.363 . S
C1333 C1339 1.363 . S
C1334 C1335 1.363 . S
C1334 C1339 1.379 . S
C1334 N1341 1.356 . S
C1335 C1334 1.363 . S
C1335 C1338 1.363 . S
N1336 C1338 1.356 . S
N1336 H1348 0.984 . S
N1336 H1349 0.985 . S
N1337 C1339 1.356 . S
N1337 H1342 0.984 . S
N1337 H1343 0.985 . S
C1338 C1332 1.379 . S
C1338 C1335 1.363 . S
C1338 N1336 1.356 . S
C1339 C1333 1.363 . S
C1339 C1334 1.379 . S
C1339 N1337 1.356 . S
N1340 C1332 1.356 . S
N1340 H1346 0.984 . S
N1340 H1347 0.984 . S
N1341 C1334 1.356 . S
N1341 H1344 0.984 . S
N1341 H1345 0.985 . S
H1342 N1337 0.984 . S
H1343 N1337 0.985 . S
H1344 N1341 0.984 . S
H1345 N1341 0.985 . S
H1346 N1340 0.984 . S
H1347 N1340 0.984 . S
H1348 N1336 0.984 . S
H1349 N1336 0.985 . S
C1350 C1351 1.363 . S
C1350 C1356 1.379 . S
C1350 N1358 1.356 . S
C1351 C1350 1.363 . S
C1351 C1357 1.363 . S
C1352 C1353 1.363 . S
C1352 C1357 1.379 . S
C1352 N1359 1.356 . S
C1353 C1352 1.363 . S
C1353 C1356 1.363 . S
N1354 C1356 1.356 . S
N1354 H1366 0.984 . S
N1354 H1367 0.985 . S
N1355 C1357 1.356 . S
N1355 H1360 0.984 . S
N1355 H1361 0.985 . S
C1356 C1350 1.379 . S
C1356 C1353 1.363 . S
C1356 N1354 1.356 . S
C1357 C1351 1.363 . S
C1357 C1352 1.379 . S
C1357 N1355 1.356 . S
N1358 C1350 1.356 . S
N1358 H1364 0.984 . S
N1358 H1365 0.984 . S
N1359 C1352 1.356 . S
N1359 H1362 0.984 . S
N1359 H1363 0.985 . S
H1360 N1355 0.984 . S
H1361 N1355 0.985 . S
H1362 N1359 0.984 . S
H1363 N1359 0.985 . S
H1364 N1358 0.984 . S
H1365 N1358 0.984 . S
H1366 N1354 0.984 . S
H1367 N1354 0.985 . S
C1368 C1369 1.363 . S
C1368 C1374 1.379 . S
C1368 N1376 1.356 . S
C1369 C1368 1.363 . S
C1369 C1375 1.363 . S
C1370 C1371 1.363 . S
C1370 C1375 1.379 . S
C1370 N1377 1.356 . S
C1371 C1370 1.363 . S
C1371 C1374 1.363 . S
N1372 C1374 1.356 . S
N1372 H1384 0.984 . S
N1372 H1385 0.985 . S
N1373 C1375 1.356 . S
N1373 H1378 0.984 . S
N1373 H1379 0.985 . S
C1374 C1368 1.379 . S
C1374 C1371 1.363 . S
C1374 N1372 1.356 . S
C1375 C1369 1.363 . S
C1375 C1370 1.379 . S
C1375 N1373 1.356 . S
N1376 C1368 1.356 . S
N1376 H1382 0.984 . S
N1376 H1383 0.984 . S
N1377 C1370 1.356 . S
N1377 H1380 0.984 1_554 S
N1377 H1381 0.985 . S
H1378 N1373 0.984 . S
H1379 N1373 0.985 . S
H1380 N1377 0.984 1_556 S
H1381 N1377 0.985 . S
H1382 N1376 0.984 . S
H1383 N1376 0.984 . S
H1384 N1372 0.984 . S
H1385 N1372 0.985 . S
C1386 C1387 1.363 . S
C1386 C1392 1.379 . S
C1386 N1394 1.356 . S
C1387 C1386 1.363 . S
C1387 C1393 1.363 . S
C1388 C1389 1.363 . S
C1388 C1393 1.379 . S
C1388 N1395 1.356 . S
C1389 C1388 1.363 . S
C1389 C1392 1.363 . S
N1390 C1392 1.356 . S
N1390 H1402 0.984 . S
N1390 H1403 0.985 . S
N1391 C1393 1.356 . S
N1391 H1396 0.984 . S
N1391 H1397 0.985 . S
C1392 C1386 1.379 . S
C1392 C1389 1.363 . S
C1392 N1390 1.356 . S
C1393 C1387 1.363 . S
C1393 C1388 1.379 . S
C1393 N1391 1.356 . S
N1394 C1386 1.356 . S
N1394 H1400 0.984 . S
N1394 H1401 0.984 . S
N1395 C1388 1.356 . S
N1395 H1398 0.984 . S
N1395 H1399 0.985 . S
H1396 N1391 0.984 . S
H1397 N1391 0.985 . S
H1398 N1395 0.984 . S
H1399 N1395 0.985 . S
H1400 N1394 0.984 . S
H1401 N1394 0.984 . S
H1402 N1390 0.984 . S
H1403 N1390 0.985 . S
C975 C913 1.339 . S
C973 C51 1.306 . S
C991 C125 1.730 . S
C993 C473 1.732 . S
C1009 C217 2.568 . S
C1011 C561 2.576 . S
C1027 C291 1.928 . S
C1029 C640 1.931 . S
C1047 C737 1.013 . S
C1045 C347 1.011 . S
C1063 C421 1.098 . S
C1065 C816 1.119 . S
C1081 C143 2.578 . S
C1083 C581 2.581 . S
C1099 C199 1.548 . S
C1101 C677 1.537 . S
C1117 C273 1.000 . S
C1119 C757 0.999 . S
C1137 C853 1.666 . S
C1135 C365 1.674 . S
C1155 C933 2.309 . S
C1153 C439 2.347 . S
C1173 C493 2.550 . S
C1171 C69 2.577 . S
C1189 C63 1.457 . S
C1191 C589 1.568 . S
C1207 C137 1.514 . S
C1209 C669 1.586 . S
C1227 C765 1.416 . S
C1225 C187 1.366 . S
C1243 C261 1.420 . S
C1245 C845 1.488 . S
C1263 C941 1.458 . S
C1261 C359 1.311 . S
C1281 C501 1.209 . S
C1279 C433 1.123 . S
C1299 C904 1.757 . S
C1297 C113 1.776 . S
C1315 C211 1.471 . S
C1317 C464 1.512 . S
C1335 C552 1.623 . S
C1333 C285 1.495 . S
C1351 C335 1.328 . S
C1353 C649 1.401 . S
C1369 C409 1.404 . S
C1371 C728 1.470 1_554 S
C1387 C39 1.796 . S
C1389 C825 1.799 . S
