# Generated by pormake.
# Topology pth, (4,4)-cn, num edge types: 1
# Building blocks:
#     Node 0, Type 0, BuildingBlock: QUQFOY_clean_sbu_1, # of connection points: 4
#     Node 1, Type 0, BuildingBlock: QUQFOY_clean_sbu_1, # of connection points: 4
#     Node 2, Type 0, BuildingBlock: QUQFOY_clean_sbu_1, # of connection points: 4
#     Node 3, Type 1, BuildingBlock: MIFKUJ_clean_linker_1, # of connection points: 4
#     Node 4, Type 1, BuildingBlock: MIFKUJ_clean_linker_1, # of connection points: 4
#     Node 5, Type 1, BuildingBlock: MIFKUJ_clean_linker_1, # of connection points: 4
#     Edge 6, Type (0, 1), BuildingBlock: CIFDUS_clean_linker_0, # of connection points: 2
#     Edge 7, Type (0, 1), BuildingBlock: CIFDUS_clean_linker_0, # of connection points: 2
#     Edge 8, Type (0, 1), BuildingBlock: CIFDUS_clean_linker_0, # of connection points: 2
#     Edge 9, Type (0, 1), BuildingBlock: CIFDUS_clean_linker_0, # of connection points: 2
#     Edge 10, Type (0, 1), BuildingBlock: CIFDUS_clean_linker_0, # of connection points: 2
#     Edge 11, Type (0, 1), BuildingBlock: CIFDUS_clean_linker_0, # of connection points: 2
#     Edge 12, Type (0, 1), BuildingBlock: CIFDUS_clean_linker_0, # of connection points: 2
#     Edge 13, Type (0, 1), BuildingBlock: CIFDUS_clean_linker_0, # of connection points: 2
#     Edge 14, Type (0, 1), BuildingBlock: CIFDUS_clean_linker_0, # of connection points: 2
#     Edge 15, Type (0, 1), BuildingBlock: CIFDUS_clean_linker_0, # of connection points: 2
#     Edge 16, Type (0, 1), BuildingBlock: CIFDUS_clean_linker_0, # of connection points: 2
#     Edge 17, Type (0, 1), BuildingBlock: CIFDUS_clean_linker_0, # of connection points: 2
# Relax obj value: 0.029
# Max RMSD: 0.131
# Mean RMSD: 0.087
data_MOF--net-pth--node1-QUQFOY_clean_sbu_1--node2-MIFKUJ_clean_linker_1--edge1-CIFDUS_clean_linker_0
_symmetry_space_group_name_H-M    P1
_symmetry_Int_Tables_number       1
_symmetry_cell_setting            triclinic
loop_
_symmetry_equiv_pos_as_xyz
'x, y, z'
_cell_length_a     25.725169
_cell_length_b     27.643839
_cell_length_c     58.577677
_cell_angle_alpha  90.003133
_cell_angle_beta   89.897597
_cell_angle_gamma 119.93367
loop_
_atom_site_label
_atom_site_type_symbol
_atom_site_fract_x
_atom_site_fract_y
_atom_site_fract_z
_atom_type_partial_charge
O0 O 0.04771 0.09504 0.02777 0.0
Cd1 Cd 0.97668 0.04388 0.04857 0.0
Cd2 Cd 0.03384 0.9841 0.04904 0.0
O3 O 0.10211 0.05501 0.03395 0.0
O4 O 0.93868 0.08904 0.05696 0.0
O5 O 0.98512 0.06378 0.08198 0.0
C6 C 0.95735 0.0908 0.0775 0.0
C7 C 0.05032 0.93946 0.07952 0.0
C8 C 0.09606 0.09384 0.02503 0.0
C9 C 0.9149 0.93254 0.02562 0.0
O10 O 0.9634 0.93169 0.02842 0.0
O11 O 0.90882 0.97177 0.03411 0.0
O12 O 0.07102 0.93965 0.05945 0.0
O13 O 0.02236 0.96688 0.08266 0.0
O14 O 0.97461 0.05695 0.4018 0.0
Cd15 Cd 0.04398 0.07864 0.37942 0.0
Cd16 Cd 0.98524 0.96072 0.3764 0.0
O17 O 0.91958 0.96662 0.39496 0.0
O18 O 0.07402 0.15969 0.37479 0.0
O19 O 0.03593 0.09806 0.34684 0.0
C20 C 0.05744 0.14888 0.35379 0.0
C21 C 0.95883 0.88752 0.35041 0.0
C22 C 0.92734 0.0104 0.40515 0.0
C23 C 0.11111 0.02591 0.39718 0.0
O24 O 0.06401 0.97983 0.39293 0.0
O25 O 0.11473 0.07216 0.39212 0.0
O26 O 0.95023 0.8788 0.37202 0.0
O27 O 0.97919 0.93796 0.34318 0.0
O28 O 0.91833 0.9732 0.69419 0.0
Cd29 Cd 0.97311 0.95584 0.71392 0.0
Cd30 Cd 0.03471 0.0677 0.71674 0.0
O31 O 0.96204 0.06389 0.70015 0.0
O32 O 0.92244 0.8747 0.72037 0.0
O33 O 0.95361 0.93897 0.74738 0.0
C34 C 0.9223 0.88708 0.74158 0.0
C35 C 0.07884 0.12498 0.74841 0.0
C36 C 0.92036 0.01962 0.69117 0.0
C37 C 0.09269 0.01202 0.69145 0.0
O38 O 0.09362 0.05711 0.69651 0.0
O39 O 0.04966 0.9654 0.69818 0.0
O40 O 0.08386 0.14531 0.7282 0.0
O41 O 0.0459 0.07157 0.75091 0.0
H42 H 0.08589 0.47249 0.16882 0.0
H43 H 0.08314 0.39392 0.14818 0.0
H44 H 0.91222 0.28148 0.17921 0.0
H45 H 0.91571 0.35995 0.2002 0.0
H46 H 0.00235 0.51233 0.16928 0.0
H47 H 0.08819 0.43478 0.21747 0.0
H48 H 0.09714 0.36316 0.23877 0.0
H49 H 0.95102 0.33904 0.28247 0.0
H50 H 0.9393 0.40819 0.26027 0.0
H51 H 0.91152 0.54172 0.2524 0.0
H52 H 0.90162 0.61351 0.27293 0.0
H53 H 0.07435 0.73911 0.24683 0.0
H54 H 0.08249 0.66695 0.22559 0.0
H55 H 0.00398 0.51245 0.25398 0.0
H56 H 0.92249 0.5954 0.20348 0.0
H57 H 0.92566 0.67405 0.18378 0.0
H58 H 0.07532 0.69241 0.14321 0.0
H59 H 0.07608 0.61789 0.16497 0.0
C60 C 1.00112 0.42193 0.18607 0.0
C61 C 0.04776 0.43095 0.17109 0.0
C62 C 0.04637 0.38611 0.15949 0.0
C63 C 0.99761 0.33176 0.16225 0.0
C64 C 0.95024 0.32301 0.17681 0.0
C65 C 0.95222 0.36769 0.18876 0.0
C66 C 0.00431 0.46886 0.19946 0.0
C67 C 0.00345 0.51284 0.18779 0.0
C68 C 0.00575 0.46909 0.22362 0.0
C69 C 0.01205 0.42618 0.23684 0.0
C70 C 0.05688 0.41315 0.23121 0.0
C71 C 0.06239 0.37255 0.24348 0.0
C72 C 0.02455 0.3456 0.2621 0.0
C73 C 0.98065 0.35936 0.26812 0.0
C74 C 0.97414 0.39897 0.2555 0.0
C75 C 0.99763 0.59904 0.23745 0.0
C76 C 0.94738 0.58472 0.25125 0.0
C77 C 0.94191 0.62593 0.26302 0.0
C78 C 0.98715 0.68238 0.26159 0.0
C79 C 0.03806 0.69636 0.24803 0.0
C80 C 0.04316 0.65511 0.23605 0.0
C81 C 1.00077 0.55534 0.22383 0.0
C82 C 0.00295 0.51196 0.23547 0.0
C83 C 0.00166 0.55626 0.19963 0.0
C84 C 1.00022 0.60154 0.1863 0.0
C85 C 0.95704 0.61729 0.19077 0.0
C86 C 0.95822 0.6619 0.17907 0.0
C87 C 1.00108 0.69054 0.16184 0.0
C88 C 0.04272 0.673 0.15677 0.0
C89 C 0.04261 0.62948 0.16898 0.0
H90 H 0.627 0.05427 0.51514 0.0
H91 H 0.6985 0.05242 0.48831 0.0
H92 H 0.6052 0.87201 0.49258 0.0
H93 H 0.53147 0.87466 0.51822 0.0
H94 H 0.47968 0.96621 0.5029 0.0
H95 H 0.60407 0.0543 0.58581 0.0
H96 H 0.67753 0.05571 0.61224 0.0
H97 H 0.64957 0.89995 0.5839 0.0
H98 H 0.57229 0.89667 0.55886 0.0
H99 H 0.31806 0.90998 0.55486 0.0
H100 H 0.24238 0.90917 0.58032 0.0
H101 H 0.3821 0.04666 0.61828 0.0
H102 H 0.45686 0.0494 0.59199 0.0
H103 H 0.48862 0.97726 0.58736 0.0
H104 H 0.34895 0.90259 0.50521 0.0
H105 H 0.28487 0.92242 0.48087 0.0
H106 H 0.37308 0.09222 0.50608 0.0
H107 H 0.43401 0.07054 0.53137 0.0
C108 C 0.57492 0.9647 0.51893 0.0
C109 C 0.62256 0.01447 0.51044 0.0
C110 C 0.66356 0.01319 0.49517 0.0
C111 C 0.65818 0.962 0.48829 0.0
C112 C 0.61051 0.91216 0.49718 0.0
C113 C 0.56879 0.91354 0.5121 0.0
C114 C 0.52806 0.96632 0.53287 0.0
C115 C 0.481 0.96768 0.52142 0.0
C116 C 0.53201 0.9717 0.55686 0.0
C117 C 0.58305 0.97571 0.57012 0.0
C118 C 0.61419 0.02068 0.58515 0.0
C119 C 0.6567 0.02164 0.60017 0.0
C120 C 0.66968 0.97788 0.60033 0.0
C121 C 0.64014 0.93396 0.58456 0.0
C122 C 0.59675 0.93258 0.5698 0.0
C123 C 0.39322 0.98005 0.57136 0.0
C124 C 0.33222 0.94097 0.56827 0.0
C125 C 0.28904 0.93993 0.58311 0.0
C126 C 0.30609 0.97756 0.60149 0.0
C127 C 0.36711 0.01749 0.60418 0.0
C128 C 0.41009 0.01883 0.58923 0.0
C129 C 0.43988 0.97708 0.55748 0.0
C130 C 0.48692 0.97546 0.56886 0.0
C131 C 0.43785 0.97452 0.5334 0.0
C132 C 0.39569 0.98498 0.52014 0.0
C133 C 0.35363 0.94376 0.50567 0.0
C134 C 0.31761 0.95552 0.49156 0.0
C135 C 0.32415 0.00927 0.49119 0.0
C136 C 0.36598 0.05019 0.50605 0.0
C137 C 0.40108 0.03799 0.52049 0.0
H138 H 0.41368 0.36074 0.87186 0.0
H139 H 0.33465 0.29662 0.84578 0.0
H140 H 0.30764 0.43165 0.82363 0.0
H141 H 0.38738 0.49534 0.84914 0.0
H142 H 0.50702 0.52003 0.84691 0.0
H143 H 0.46887 0.40393 0.93222 0.0
H144 H 0.39159 0.33384 0.95669 0.0
H145 H 0.25786 0.35844 0.9223 0.0
H146 H 0.33645 0.43181 0.89905 0.0
H147 H 0.54036 0.6151 0.93622 0.0
H148 H 0.6171 0.68389 0.96125 0.0
H149 H 0.75293 0.66725 0.92419 0.0
H150 H 0.67517 0.59551 0.90021 0.0
H151 H 0.50522 0.50945 0.93138 0.0
H152 H 0.59228 0.67055 0.87745 0.0
H153 H 0.67378 0.74364 0.85482 0.0
H154 H 0.71446 0.62093 0.82741 0.0
H155 H 0.63146 0.54819 0.84929 0.0
C156 C 0.40658 0.43282 0.86228 0.0
C157 C 0.39023 0.37621 0.8615 0.0
C158 C 0.34486 0.33961 0.84668 0.0
C159 C 0.31517 0.35911 0.83243 0.0
C160 C 0.33038 0.41545 0.83398 0.0
C161 C 0.37581 0.45191 0.84862 0.0
C162 C 0.45737 0.47328 0.87649 0.0
C163 C 0.5066 0.51758 0.86541 0.0
C164 C 0.45752 0.46946 0.90056 0.0
C165 C 0.40859 0.42293 0.91361 0.0
C166 C 0.42286 0.39417 0.92991 0.0
C167 C 0.37835 0.35355 0.94377 0.0
C168 C 0.31818 0.34011 0.9415 0.0
C169 C 0.30375 0.36812 0.92477 0.0
C170 C 0.34858 0.40951 0.91114 0.0
C171 C 0.60196 0.60053 0.91614 0.0
C172 C 0.58668 0.62616 0.93352 0.0
C173 C 0.63079 0.66599 0.94769 0.0
C174 C 0.69142 0.68153 0.94469 0.0
C175 C 0.70668 0.65595 0.92717 0.0
C176 C 0.66232 0.61549 0.91318 0.0
C177 C 0.55398 0.5567 0.90186 0.0
C178 C 0.50559 0.51161 0.91288 0.0
C179 C 0.55508 0.55904 0.87776 0.0
C180 C 0.60579 0.60404 0.86492 0.0
C181 C 0.61897 0.65965 0.86656 0.0
C182 C 0.66589 0.70141 0.85374 0.0
C183 C 0.7007 0.6883 0.83913 0.0
C184 C 0.68794 0.63254 0.83803 0.0
C185 C 0.64067 0.59085 0.85061 0.0
H186 H 0.03573 0.15069 0.11103 0.0
H187 H 0.86621 0.11308 0.08156 0.0
H188 H 0.86141 0.18159 0.10659 0.0
H189 H 0.90919 0.25729 0.13479 0.0
H190 H 0.08301 0.30104 0.16167 0.0
H191 H 0.08276 0.22543 0.13976 0.0
C192 C 0.99729 0.15686 0.11044 0.0
C193 C 0.95112 0.12668 0.09467 0.0
C194 C 0.9961 0.19799 0.12421 0.0
C195 C 0.90214 0.1358 0.09365 0.0
C196 C 0.8995 0.17507 0.10789 0.0
C197 C 0.94662 0.24973 0.13598 0.0
C198 C 0.99603 0.28445 0.14976 0.0
C199 C 0.94679 0.20721 0.1229 0.0
C200 C 0.04471 0.27492 0.15102 0.0
C201 C 0.04447 0.23167 0.13856 0.0
H202 H 0.80931 0.92972 0.41008 0.0
H203 H 0.94693 0.08542 0.43855 0.0
H204 H 0.87701 0.08256 0.4672 0.0
H205 H 0.77767 0.03645 0.48437 0.0
H206 H 0.63639 0.88496 0.45443 0.0
H207 H 0.70727 0.88482 0.42674 0.0
C208 C 0.82387 0.96293 0.42257 0.0
C209 C 0.88326 0.0077 0.42211 0.0
C210 C 0.78299 0.96162 0.43892 0.0
C211 C 0.90139 0.05061 0.43836 0.0
C212 C 0.8615 0.04899 0.45485 0.0
C213 C 0.76184 1.00373 0.47162 0.0
C214 C 0.70148 0.9609 0.47161 0.0
C215 C 0.80222 1.00485 0.45525 0.0
C216 C 0.68269 0.91811 0.45522 0.0
C217 C 0.72312 0.91823 0.43917 0.0
H218 H 0.90348 0.89925 0.78671 0.0
H219 H 0.8535 0.77581 0.73349 0.0
H220 H 0.78195 0.70391 0.75904 0.0
H221 H 0.72908 0.67689 0.79545 0.0
H222 H 0.77971 0.79828 0.84951 0.0
H223 H 0.8545 0.87023 0.8245 0.0
C224 C 0.87741 0.85651 0.7808 0.0
C225 C 0.88379 0.84313 0.75816 0.0
C226 C 0.83579 0.81506 0.79561 0.0
C227 C 0.84955 0.78747 0.75078 0.0
C228 C 0.80838 0.74622 0.76537 0.0
C229 C 0.75716 0.71874 0.80202 0.0
C230 C 0.74843 0.7319 0.82439 0.0
C231 C 0.80054 0.75968 0.78768 0.0
C232 C 0.78459 0.78695 0.83227 0.0
C233 C 0.82774 0.82811 0.81802 0.0
H234 H 0.95908 0.86386 0.10532 0.0
H235 H 0.14813 0.93356 0.09272 0.0
H236 H 0.1507 0.86553 0.11885 0.0
H237 H 0.09783 0.78305 0.14331 0.0
H238 H 0.9053 0.70469 0.15089 0.0
H239 H 0.90575 0.77986 0.12928 0.0
C240 C 1.00096 0.86467 0.10873 0.0
C241 C 0.05357 0.90396 0.09753 0.0
C242 C 0.00134 0.82363 0.12278 0.0
C243 C 0.10732 0.90389 0.10142 0.0
C244 C 0.10865 0.86487 0.11623 0.0
C245 C 0.05566 0.78165 0.14006 0.0
C246 C 0.00166 0.7376 0.14893 0.0
C247 C 0.05563 0.82375 0.12661 0.0
C248 C 0.94796 0.73816 0.14486 0.0
C249 C 0.94795 0.78104 0.13223 0.0
H250 H 0.16348 0.08248 0.43572 0.0
H251 H 0.1633 0.96386 0.38797 0.0
H252 H 0.23326 0.95141 0.4122 0.0
H253 H 0.28918 0.97009 0.44788 0.0
H254 H 0.27842 0.07932 0.49809 0.0
H255 H 0.21908 0.10046 0.47184 0.0
C256 C 0.17989 0.05483 0.4305 0.0
C257 C 0.15937 0.0247 0.41006 0.0
C258 C 0.21765 0.04589 0.44504 0.0
C259 C 0.17926 0.98778 0.4036 0.0
C260 C 0.21887 0.98047 0.41749 0.0
C261 C 0.27332 0.99797 0.4533 0.0
C262 C 0.28832 0.02275 0.47509 0.0
C263 C 0.23727 0.00838 0.43847 0.0
C264 C 0.2685 0.06006 0.48138 0.0
C265 C 0.23411 0.07196 0.46642 0.0
H266 H 0.15644 0.23606 0.74656 0.0
H267 H 0.08068 0.09664 0.79325 0.0
H268 H 0.14589 0.15703 0.82373 0.0
H269 H 0.22766 0.2491 0.83658 0.0
H270 H 0.30493 0.38614 0.78863 0.0
H271 H 0.23552 0.32703 0.75931 0.0
C272 C 0.15365 0.2188 0.76344 0.0
C273 C 0.11372 0.16187 0.76759 0.0
C274 C 0.19178 0.25339 0.78069 0.0
C275 C 0.11096 0.14036 0.78959 0.0
C276 C 0.14842 0.17483 0.807 0.0
C277 C 0.22939 0.26592 0.81969 0.0
C278 C 0.27135 0.32222 0.81494 0.0
C279 C 0.18964 0.23131 0.80265 0.0
C280 C 0.2725 0.3434 0.79298 0.0
C281 C 0.23304 0.30949 0.7761 0.0
H282 H 0.81731 0.93266 0.67502 0.0
H283 H 0.92548 0.11227 0.67202 0.0
H284 H 0.85834 0.1151 0.64325 0.0
H285 H 0.77175 0.06616 0.61776 0.0
H286 H 0.66078 0.88681 0.62256 0.0
H287 H 0.7276 0.88439 0.65129 0.0
C288 C 0.82608 0.97252 0.6682 0.0
C289 C 0.87651 0.02215 0.67561 0.0
C290 C 0.78746 0.97386 0.65167 0.0
C291 C 0.88688 0.07343 0.66669 0.0
C292 C 0.84871 0.07507 0.65013 0.0
C293 C 0.76156 0.02652 0.62525 0.0
C294 C 0.71134 0.97671 0.61769 0.0
C295 C 0.79925 0.02546 0.64231 0.0
C296 C 0.69978 0.92577 0.62748 0.0
C297 C 0.73761 0.92432 0.64416 0.0
H298 H 0.90807 0.83771 0.00899 0.0
H299 H 0.81304 0.92969 0.01032 0.0
H300 H 0.73621 0.86065 0.98522 0.0
H301 H 0.69777 0.77597 0.962 0.0
H302 H 0.79044 0.68179 0.96204 0.0
H303 H 0.86726 0.75085 0.98706 0.0
C304 C 0.87047 0.84263 1.00387 0.0
C305 C 0.8665 0.88896 0.0115 0.0
C306 C 0.8264 0.80278 0.98946 0.0
C307 C 0.81724 0.89443 1.00476 0.0
C308 C 0.77335 0.85506 0.99033 0.0
C309 C 0.73426 0.77001 0.96769 0.0
C310 C 0.73822 0.72368 0.96 0.0
C311 C 0.77769 0.80927 0.98247 0.0
C312 C 0.78666 0.71747 0.96728 0.0
C313 C 0.83041 0.75671 0.98179 0.0
H314 H 0.99339 0.89471 0.30576 0.0
H315 H 0.90825 0.77734 0.3609 0.0
H316 H 0.90824 0.70366 0.33814 0.0
H317 H 0.93937 0.67414 0.30399 0.0
H318 H 0.02227 0.78974 0.24813 0.0
H319 H 0.0173 0.86257 0.26997 0.0
C320 C 0.97395 0.8528 0.31264 0.0
C321 C 0.95113 0.84177 0.33507 0.0
C322 C 0.9747 0.81045 0.29951 0.0
C323 C 0.92635 0.7872 0.34374 0.0
C324 C 0.92651 0.74496 0.33076 0.0
C325 C 0.95536 0.71486 0.29632 0.0
C326 C 0.98157 0.72623 0.27444 0.0
C327 C 0.95165 0.75637 0.30883 0.0
C328 C 0.003 0.77986 0.2651 0.0
C329 C 0.99971 0.82152 0.27751 0.0
H330 H 0.09818 0.92467 0.67225 0.0
H331 H 0.19295 0.10474 0.67603 0.0
H332 H 0.26625 0.10978 0.64839 0.0
H333 H 0.3015 0.06369 0.62208 0.0
H334 H 0.20923 0.8837 0.61889 0.0
H335 H 0.13614 0.87826 0.64689 0.0
C336 C 0.13516 0.965 0.6672 0.0
C337 C 0.13984 0.01419 0.67622 0.0
C338 C 0.17715 0.96775 0.65111 0.0
C339 C 0.18804 0.06612 0.66938 0.0
C340 C 0.22999 0.06913 0.65349 0.0
C341 C 0.26588 0.02319 0.62768 0.0
C342 C 0.26093 0.97425 0.61827 0.0
C343 C 0.22465 0.02028 0.64409 0.0
C344 C 0.21364 0.92217 0.62548 0.0
C345 C 0.17209 0.91896 0.64169 0.0
H346 H 0.10446 0.18921 1.00831 0.0
H347 H 0.19533 0.09346 1.00847 0.0
H348 H 0.27087 0.16025 0.98221 0.0
H349 H 0.30932 0.24407 0.95839 0.0
H350 H 0.22151 0.3426 0.95998 0.0
H351 H 0.14557 0.27536 0.98584 0.0
C352 C 0.14089 0.18299 1.00268 0.0
C353 C 0.14406 0.13626 0.01032 0.0
C354 C 0.18426 0.22158 0.98763 0.0
C355 C 0.19182 0.12911 1.00294 0.0
C356 C 0.23493 0.16716 0.98782 0.0
C357 C 0.27411 0.25141 0.96458 0.0
C358 C 0.27129 0.29845 0.95705 0.0
C359 C 0.23137 0.21335 0.97997 0.0
C360 C 0.22438 0.30633 0.96501 0.0
C361 C 0.18116 0.26815 0.98003 0.0
H362 H 0.03993 0.14566 0.30757 0.0
H363 H 0.07693 0.25089 0.36678 0.0
H364 H 0.06975 0.32054 0.34372 0.0
H365 H 0.04907 0.35048 0.30706 0.0
H366 H 0.01722 0.24895 0.24724 0.0
H367 H 0.0262 0.17902 0.27008 0.0
C368 C 0.04689 0.18404 0.31535 0.0
C369 C 0.05864 0.1928 0.33891 0.0
C370 C 0.04319 0.22445 0.3019 0.0
C371 C 0.06792 0.24296 0.3487 0.0
C372 C 0.06357 0.28284 0.33555 0.0
C373 C 0.04415 0.31297 0.29911 0.0
C374 C 0.03188 0.30429 0.27567 0.0
C375 C 0.0505 0.27375 0.31222 0.0
C376 C 0.02652 0.25617 0.26534 0.0
C377 C 0.0316 0.21629 0.27838 0.0
loop_
_geom_bond_atom_site_label_1
_geom_bond_atom_site_label_2
_geom_bond_distance
_geom_bond_site_symmetry_2
_ccdc_geom_bond_type
O0 Cd1 2.223 1_455 S
O0 C8 1.315 . S
Cd1 O0 2.223 1_655 S
Cd1 O4 2.297 . S
Cd1 O5 2.439 . S
Cd1 O11 2.240 1_545 S
Cd2 O3 2.240 1_565 S
Cd2 O10 2.223 1_455 S
Cd2 O12 2.297 . S
Cd2 O13 2.439 . S
O3 Cd2 2.240 1_545 S
O3 C8 1.279 . S
O4 Cd1 2.297 . S
O4 C6 1.247 . S
O5 Cd1 2.439 . S
O5 C6 1.208 . S
C6 O4 1.247 . S
C6 O5 1.208 . S
C7 O12 1.247 . S
C7 O13 1.208 . S
C8 O0 1.315 . S
C8 O3 1.279 . S
C9 O10 1.315 . S
C9 O11 1.279 . S
O10 Cd2 2.223 1_655 S
O10 C9 1.315 . S
O11 Cd1 2.240 1_565 S
O11 C9 1.279 . S
O12 Cd2 2.297 . S
O12 C7 1.247 . S
O13 Cd2 2.439 . S
O13 C7 1.208 . S
O14 Cd15 2.223 1_655 S
O14 C22 1.315 . S
Cd15 O14 2.223 1_455 S
Cd15 O18 2.297 . S
Cd15 O19 2.439 . S
Cd15 O25 2.240 . S
Cd16 O17 2.240 . S
Cd16 O24 2.223 1_655 S
Cd16 O26 2.297 . S
Cd16 O27 2.448 . S
O17 Cd16 2.240 . S
O17 C22 1.279 1_565 S
O18 Cd15 2.297 . S
O18 C20 1.247 . S
O19 Cd15 2.439 . S
O19 C20 1.208 . S
C20 O18 1.247 . S
C20 O19 1.208 . S
C21 O26 1.247 . S
C21 O27 1.198 . S
C22 O14 1.315 . S
C22 O17 1.279 1_545 S
C23 O24 1.315 . S
C23 O25 1.279 1_565 S
O24 Cd16 2.223 1_455 S
O24 C23 1.315 . S
O25 Cd15 2.240 . S
O25 C23 1.279 1_545 S
O26 Cd16 2.297 . S
O26 C21 1.247 . S
O27 Cd16 2.448 . S
O27 C21 1.198 . S
O28 Cd29 2.223 . S
O28 C36 1.315 . S
Cd29 O28 2.223 . S
Cd29 O32 2.297 . S
Cd29 O33 2.439 . S
Cd29 O39 2.240 1_655 S
Cd30 O31 2.240 1_455 S
Cd30 O38 2.223 . S
Cd30 O40 2.297 . S
Cd30 O41 2.439 . S
O31 Cd30 2.240 1_655 S
O31 C36 1.279 1_545 S
O32 Cd29 2.297 . S
O32 C34 1.247 . S
O33 Cd29 2.439 . S
O33 C34 1.208 . S
C34 O32 1.247 . S
C34 O33 1.208 . S
C35 O40 1.247 . S
C35 O41 1.208 . S
C36 O28 1.315 . S
C36 O31 1.279 1_565 S
C37 O38 1.315 . S
C37 O39 1.279 1_545 S
O38 Cd30 2.223 . S
O38 C37 1.315 . S
O39 Cd29 2.240 1_455 S
O39 C37 1.279 1_565 S
O40 Cd30 2.297 . S
O40 C35 1.247 . S
O41 Cd30 2.439 . S
O41 C35 1.208 . S
H42 C61 0.949 . S
H43 C62 0.950 . S
H44 C64 0.950 . S
H45 C65 0.950 . S
H46 C67 0.950 . S
H47 C70 0.950 . S
H48 C71 0.950 . S
H49 C73 0.951 . S
H50 C74 0.949 . S
H51 C76 0.949 . S
H52 C77 0.950 . S
H53 C79 0.950 . S
H54 C80 0.950 . S
H55 C82 0.950 . S
H56 C85 0.950 . S
H57 C86 0.950 . S
H58 C88 0.951 . S
H59 C89 0.949 . S
C60 C61 1.376 . S
C60 C65 1.386 1_455 S
C60 C66 1.483 . S
C61 H42 0.949 . S
C61 C60 1.376 . S
C61 C62 1.397 . S
C62 H43 0.950 . S
C62 C61 1.397 . S
C62 C63 1.391 . S
C63 C62 1.391 . S
C63 C64 1.405 1_455 S
C64 H44 0.950 . S
C64 C63 1.405 1_655 S
C64 C65 1.367 . S
C65 H45 0.950 . S
C65 C60 1.386 1_655 S
C65 C64 1.367 . S
C66 C60 1.483 . S
C66 C67 1.382 . S
C66 C68 1.403 1_455 S
C67 H46 0.950 . S
C67 C66 1.382 . S
C67 C83 1.411 . S
C68 C66 1.403 1_655 S
C68 C69 1.489 . S
C68 C82 1.411 . S
C69 C68 1.489 . S
C69 C70 1.383 1_655 S
C69 C74 1.382 . S
C70 H47 0.950 . S
C70 C69 1.383 1_455 S
C70 C71 1.395 . S
C71 H48 0.950 . S
C71 C70 1.395 . S
C71 C72 1.288 1_455 S
C72 C71 1.288 1_655 S
C72 C73 1.392 . S
C73 H49 0.951 . S
C73 C72 1.392 . S
C73 C74 1.392 . S
C74 H50 0.949 . S
C74 C69 1.382 . S
C74 C73 1.392 . S
C75 C76 1.376 . S
C75 C80 1.386 1_655 S
C75 C81 1.483 . S
C76 H51 0.949 . S
C76 C75 1.376 . S
C76 C77 1.397 . S
C77 H52 0.950 . S
C77 C76 1.397 . S
C77 C78 1.391 . S
C78 C77 1.391 . S
C78 C79 1.405 1_655 S
C79 H53 0.950 . S
C79 C78 1.405 1_455 S
C79 C80 1.367 . S
C80 H54 0.950 . S
C80 C75 1.386 1_455 S
C80 C79 1.367 . S
C81 C75 1.483 . S
C81 C82 1.382 . S
C81 C83 1.403 1_655 S
C82 H55 0.950 . S
C82 C68 1.411 . S
C82 C81 1.382 . S
C83 C67 1.411 . S
C83 C81 1.403 1_455 S
C83 C84 1.489 . S
C84 C83 1.489 . S
C84 C85 1.383 1_455 S
C84 C89 1.382 . S
C85 H56 0.950 . S
C85 C84 1.383 1_655 S
C85 C86 1.395 . S
C86 H57 0.950 . S
C86 C85 1.395 . S
C86 C87 1.288 1_655 S
C87 C86 1.288 1_455 S
C87 C88 1.392 . S
C88 H58 0.951 . S
C88 C87 1.392 . S
C88 C89 1.392 . S
C89 H59 0.949 . S
C89 C84 1.382 . S
C89 C88 1.392 . S
H90 C109 0.949 . S
H91 C110 0.950 . S
H92 C112 0.950 . S
H93 C113 0.950 . S
H94 C115 0.950 . S
H95 C118 0.950 . S
H96 C119 0.950 . S
H97 C121 0.951 . S
H98 C122 0.949 . S
H99 C124 0.949 . S
H100 C125 0.950 . S
H101 C127 0.950 . S
H102 C128 0.950 . S
H103 C130 0.950 . S
H104 C133 0.950 . S
H105 C134 0.950 . S
H106 C136 0.951 . S
H107 C137 0.949 . S
C108 C109 1.376 . S
C108 C113 1.386 1_545 S
C108 C114 1.483 . S
C109 H90 0.949 . S
C109 C108 1.376 . S
C109 C110 1.397 . S
C110 H91 0.950 . S
C110 C109 1.397 . S
C110 C111 1.391 . S
C111 C110 1.391 . S
C111 C112 1.405 1_545 S
C112 H92 0.950 . S
C112 C111 1.405 1_565 S
C112 C113 1.367 . S
C113 H93 0.950 . S
C113 C108 1.386 1_565 S
C113 C112 1.367 . S
C114 C108 1.483 . S
C114 C115 1.382 . S
C114 C116 1.403 1_545 S
C115 H94 0.950 . S
C115 C114 1.382 . S
C115 C131 1.411 . S
C116 C114 1.403 1_565 S
C116 C117 1.489 . S
C116 C130 1.411 . S
C117 C116 1.489 . S
C117 C118 1.383 1_565 S
C117 C122 1.382 . S
C118 H95 0.950 . S
C118 C117 1.383 1_545 S
C118 C119 1.395 . S
C119 H96 0.950 . S
C119 C118 1.395 . S
C119 C120 1.288 1_545 S
C120 C119 1.288 1_565 S
C120 C121 1.392 . S
C121 H97 0.951 . S
C121 C120 1.392 . S
C121 C122 1.392 . S
C122 H98 0.949 . S
C122 C117 1.382 . S
C122 C121 1.392 . S
C123 C124 1.376 . S
C123 C128 1.386 1_565 S
C123 C129 1.483 . S
C124 H99 0.949 . S
C124 C123 1.376 . S
C124 C125 1.397 . S
C125 H100 0.950 . S
C125 C124 1.397 . S
C125 C126 1.413 . S
C126 C125 1.413 . S
C126 C127 1.393 1_565 S
C127 H101 0.950 . S
C127 C126 1.393 1_545 S
C127 C128 1.367 . S
C128 H102 0.950 . S
C128 C123 1.386 1_545 S
C128 C127 1.367 . S
C129 C123 1.483 . S
C129 C130 1.382 . S
C129 C131 1.403 1_565 S
C130 H103 0.950 . S
C130 C116 1.411 . S
C130 C129 1.382 . S
C131 C115 1.411 . S
C131 C129 1.403 1_545 S
C131 C132 1.489 . S
C132 C131 1.489 . S
C132 C133 1.383 1_545 S
C132 C137 1.382 . S
C133 H104 0.950 . S
C133 C132 1.383 1_565 S
C133 C134 1.395 . S
C134 H105 0.950 . S
C134 C133 1.395 . S
C134 C135 1.288 1_565 S
C135 C134 1.288 1_545 S
C135 C136 1.392 . S
C136 H106 0.951 . S
C136 C135 1.392 . S
C136 C137 1.392 . S
C137 H107 0.949 . S
C137 C132 1.382 . S
C137 C136 1.392 . S
H138 C157 0.949 . S
H139 C158 0.950 . S
H140 C160 0.950 . S
H141 C161 0.950 . S
H142 C163 0.950 . S
H143 C166 0.950 . S
H144 C167 0.950 . S
H145 C169 0.951 . S
H146 C170 0.949 . S
H147 C172 0.949 . S
H148 C173 0.950 . S
H149 C175 0.950 . S
H150 C176 0.950 . S
H151 C178 0.950 . S
H152 C181 0.950 . S
H153 C182 0.950 . S
H154 C184 0.951 . S
H155 C185 0.949 . S
C156 C157 1.376 . S
C156 C161 1.386 . S
C156 C162 1.483 . S
C157 H138 0.949 . S
C157 C156 1.376 . S
C157 C158 1.397 . S
C158 H139 0.950 . S
C158 C157 1.397 . S
C158 C159 1.391 . S
C159 C158 1.391 . S
C159 C160 1.405 . S
C160 H140 0.950 . S
C160 C159 1.405 . S
C160 C161 1.367 . S
C161 H141 0.950 . S
C161 C156 1.386 . S
C161 C160 1.367 . S
C162 C156 1.483 . S
C162 C163 1.382 . S
C162 C164 1.403 . S
C163 H142 0.950 . S
C163 C162 1.382 . S
C163 C179 1.411 . S
C164 C162 1.403 . S
C164 C165 1.489 . S
C164 C178 1.411 . S
C165 C164 1.489 . S
C165 C166 1.383 . S
C165 C170 1.382 . S
C166 H143 0.950 . S
C166 C165 1.383 . S
C166 C167 1.395 . S
C167 H144 0.950 . S
C167 C166 1.395 . S
C167 C168 1.288 . S
C168 C167 1.288 . S
C168 C169 1.392 . S
C169 H145 0.951 . S
C169 C168 1.392 . S
C169 C170 1.392 . S
C170 H146 0.949 . S
C170 C165 1.382 . S
C170 C169 1.392 . S
C171 C172 1.376 . S
C171 C176 1.386 . S
C171 C177 1.483 . S
C172 H147 0.949 . S
C172 C171 1.376 . S
C172 C173 1.397 . S
C173 H148 0.950 . S
C173 C172 1.397 . S
C173 C174 1.391 . S
C174 C173 1.391 . S
C174 C175 1.405 . S
C175 H149 0.950 . S
C175 C174 1.405 . S
C175 C176 1.367 . S
C176 H150 0.950 . S
C176 C171 1.386 . S
C176 C175 1.367 . S
C177 C171 1.483 . S
C177 C178 1.382 . S
C177 C179 1.403 . S
C178 H151 0.950 . S
C178 C164 1.411 . S
C178 C177 1.382 . S
C179 C163 1.411 . S
C179 C177 1.403 . S
C179 C180 1.489 . S
C180 C179 1.489 . S
C180 C181 1.383 . S
C180 C185 1.382 . S
C181 H152 0.950 . S
C181 C180 1.383 . S
C181 C182 1.395 . S
C182 H153 0.950 . S
C182 C181 1.395 . S
C182 C183 1.288 . S
C183 C182 1.288 . S
C183 C184 1.392 . S
C184 H154 0.951 . S
C184 C183 1.392 . S
C184 C185 1.392 . S
C185 H155 0.949 . S
C185 C180 1.382 . S
C185 C184 1.392 . S
H186 C192 0.930 . S
H187 C195 0.930 . S
H188 C196 0.930 . S
H189 C197 0.930 . S
H190 C200 0.930 . S
H191 C201 0.930 . S
C192 H186 0.930 . S
C192 C193 1.355 1_455 S
C192 C194 1.415 . S
C193 C192 1.355 1_655 S
C193 C195 1.419 . S
C194 C192 1.415 . S
C194 C199 1.425 1_455 S
C194 C201 1.409 . S
C195 H187 0.930 . S
C195 C193 1.419 . S
C195 C196 1.362 . S
C196 H188 0.930 . S
C196 C195 1.362 . S
C196 C199 1.409 . S
C197 H189 0.930 . S
C197 C198 1.355 1_655 S
C197 C199 1.415 . S
C198 C197 1.355 1_455 S
C198 C200 1.419 . S
C199 C194 1.425 1_655 S
C199 C196 1.409 . S
C199 C197 1.415 . S
C200 H190 0.930 . S
C200 C198 1.419 . S
C200 C201 1.362 . S
C201 H191 0.930 . S
C201 C194 1.409 . S
C201 C200 1.362 . S
H202 C208 0.930 . S
H203 C211 0.930 . S
H204 C212 0.930 . S
H205 C213 0.930 . S
H206 C216 0.930 . S
H207 C217 0.930 . S
C208 H202 0.930 . S
C208 C209 1.355 1_565 S
C208 C210 1.415 . S
C209 C208 1.355 1_545 S
C209 C211 1.419 . S
C210 C208 1.415 . S
C210 C215 1.425 1_565 S
C210 C217 1.409 . S
C211 H203 0.930 . S
C211 C209 1.419 . S
C211 C212 1.362 . S
C212 H204 0.930 . S
C212 C211 1.362 . S
C212 C215 1.409 . S
C213 H205 0.930 . S
C213 C214 1.355 1_545 S
C213 C215 1.415 . S
C214 C213 1.355 1_565 S
C214 C216 1.419 . S
C215 C210 1.425 1_545 S
C215 C212 1.409 . S
C215 C213 1.415 . S
C216 H206 0.930 . S
C216 C214 1.419 . S
C216 C217 1.362 . S
C217 H207 0.930 . S
C217 C210 1.409 . S
C217 C216 1.362 . S
H218 C224 0.930 . S
H219 C227 0.930 . S
H220 C228 0.930 . S
H221 C229 0.930 . S
H222 C232 0.930 . S
H223 C233 0.930 . S
C224 H218 0.930 . S
C224 C225 1.355 . S
C224 C226 1.415 . S
C225 C224 1.355 . S
C225 C227 1.419 . S
C226 C224 1.415 . S
C226 C231 1.425 . S
C226 C233 1.409 . S
C227 H219 0.930 . S
C227 C225 1.419 . S
C227 C228 1.362 . S
C228 H220 0.930 . S
C228 C227 1.362 . S
C228 C231 1.409 . S
C229 H221 0.930 . S
C229 C230 1.355 . S
C229 C231 1.415 . S
C230 C229 1.355 . S
C230 C232 1.419 . S
C231 C226 1.425 . S
C231 C228 1.409 . S
C231 C229 1.415 . S
C232 H222 0.930 . S
C232 C230 1.419 . S
C232 C233 1.362 . S
C233 H223 0.930 . S
C233 C226 1.409 . S
C233 C232 1.362 . S
H234 C240 0.930 . S
H235 C243 0.930 . S
H236 C244 0.930 . S
H237 C245 0.930 . S
H238 C248 0.930 . S
H239 C249 0.930 . S
C240 H234 0.930 . S
C240 C241 1.355 1_655 S
C240 C242 1.415 . S
C241 C240 1.355 1_455 S
C241 C243 1.419 . S
C242 C240 1.415 . S
C242 C247 1.425 1_655 S
C242 C249 1.409 . S
C243 H235 0.930 . S
C243 C241 1.419 . S
C243 C244 1.362 . S
C244 H236 0.930 . S
C244 C243 1.362 . S
C244 C247 1.409 . S
C245 H237 0.930 . S
C245 C246 1.355 1_455 S
C245 C247 1.415 . S
C246 C245 1.355 1_655 S
C246 C248 1.419 . S
C247 C242 1.425 1_455 S
C247 C244 1.409 . S
C247 C245 1.415 . S
C248 H238 0.930 . S
C248 C246 1.419 . S
C248 C249 1.362 . S
C249 H239 0.930 . S
C249 C242 1.409 . S
C249 C248 1.362 . S
H250 C256 0.930 . S
H251 C259 0.930 . S
H252 C260 0.930 . S
H253 C261 0.930 . S
H254 C264 0.930 . S
H255 C265 0.930 . S
C256 H250 0.930 . S
C256 C257 1.355 1_545 S
C256 C258 1.415 . S
C257 C256 1.355 1_565 S
C257 C259 1.419 . S
C258 C256 1.415 . S
C258 C263 1.425 1_545 S
C258 C265 1.409 . S
C259 H251 0.930 . S
C259 C257 1.419 . S
C259 C260 1.362 . S
C260 H252 0.930 . S
C260 C259 1.362 . S
C260 C263 1.409 . S
C261 H253 0.930 . S
C261 C262 1.355 1_565 S
C261 C263 1.415 . S
C262 C261 1.355 1_545 S
C262 C264 1.419 . S
C263 C258 1.425 1_565 S
C263 C260 1.409 . S
C263 C261 1.415 . S
C264 H254 0.930 . S
C264 C262 1.419 . S
C264 C265 1.362 . S
C265 H255 0.930 . S
C265 C258 1.409 . S
C265 C264 1.362 . S
H266 C272 0.930 . S
H267 C275 0.930 . S
H268 C276 0.930 . S
H269 C277 0.930 . S
H270 C280 0.930 . S
H271 C281 0.930 . S
C272 H266 0.930 . S
C272 C273 1.355 . S
C272 C274 1.415 . S
C273 C272 1.355 . S
C273 C275 1.419 . S
C274 C272 1.415 . S
C274 C279 1.425 . S
C274 C281 1.409 . S
C275 H267 0.930 . S
C275 C273 1.419 . S
C275 C276 1.362 . S
C276 H268 0.930 . S
C276 C275 1.362 . S
C276 C279 1.409 . S
C277 H269 0.930 . S
C277 C278 1.355 . S
C277 C279 1.415 . S
C278 C277 1.355 . S
C278 C280 1.419 . S
C279 C274 1.425 . S
C279 C276 1.409 . S
C279 C277 1.415 . S
C280 H270 0.930 . S
C280 C278 1.419 . S
C280 C281 1.362 . S
C281 H271 0.930 . S
C281 C274 1.409 . S
C281 C280 1.362 . S
H282 C288 0.930 . S
H283 C291 0.930 . S
H284 C292 0.930 . S
H285 C293 0.930 . S
H286 C296 0.930 . S
H287 C297 0.930 . S
C288 H282 0.930 . S
C288 C289 1.355 . S
C288 C290 1.415 . S
C289 C288 1.355 . S
C289 C291 1.419 . S
C290 C288 1.415 . S
C290 C295 1.425 . S
C290 C297 1.409 1_565 S
C291 H283 0.930 . S
C291 C289 1.419 . S
C291 C292 1.362 . S
C292 H284 0.930 . S
C292 C291 1.362 . S
C292 C295 1.409 . S
C293 H285 0.930 . S
C293 C294 1.355 1_565 S
C293 C295 1.415 . S
C294 C293 1.355 1_545 S
C294 C296 1.419 . S
C295 C290 1.425 . S
C295 C292 1.409 . S
C295 C293 1.415 . S
C296 H286 0.930 . S
C296 C294 1.419 . S
C296 C297 1.362 . S
C297 H287 0.930 . S
C297 C290 1.409 1_545 S
C297 C296 1.362 . S
H298 C304 0.930 . S
H299 C307 0.930 . S
H300 C308 0.930 . S
H301 C309 0.930 . S
H302 C312 0.930 . S
H303 C313 0.930 . S
C304 H298 0.930 . S
C304 C305 1.355 . S
C304 C306 1.415 . S
C305 C304 1.355 . S
C305 C307 1.419 . S
C306 C304 1.415 . S
C306 C311 1.425 . S
C306 C313 1.409 . S
C307 H299 0.930 . S
C307 C305 1.419 . S
C307 C308 1.362 . S
C308 H300 0.930 . S
C308 C307 1.362 . S
C308 C311 1.409 . S
C309 H301 0.930 . S
C309 C310 1.355 . S
C309 C311 1.415 . S
C310 C309 1.355 . S
C310 C312 1.419 . S
C311 C306 1.425 . S
C311 C308 1.409 . S
C311 C309 1.415 . S
C312 H302 0.930 . S
C312 C310 1.419 . S
C312 C313 1.362 . S
C313 H303 0.930 . S
C313 C306 1.409 . S
C313 C312 1.362 . S
H314 C320 0.930 . S
H315 C323 0.930 . S
H316 C324 0.930 . S
H317 C325 0.930 . S
H318 C328 0.930 . S
H319 C329 0.930 . S
C320 H314 0.930 . S
C320 C321 1.355 . S
C320 C322 1.415 . S
C321 C320 1.355 . S
C321 C323 1.419 1_455 S
C322 C320 1.415 . S
C322 C327 1.425 1_455 S
C322 C329 1.409 . S
C323 H315 0.930 . S
C323 C321 1.419 1_655 S
C323 C324 1.362 . S
C324 H316 0.930 . S
C324 C323 1.362 . S
C324 C327 1.409 . S
C325 H317 0.930 . S
C325 C326 1.355 1_655 S
C325 C327 1.415 . S
C326 C325 1.355 1_455 S
C326 C328 1.419 . S
C327 C322 1.425 1_655 S
C327 C324 1.409 . S
C327 C325 1.415 . S
C328 H318 0.930 . S
C328 C326 1.419 . S
C328 C329 1.362 . S
C329 H319 0.930 . S
C329 C322 1.409 . S
C329 C328 1.362 . S
H330 C336 0.930 . S
H331 C339 0.930 . S
H332 C340 0.930 . S
H333 C341 0.930 . S
H334 C344 0.930 . S
H335 C345 0.930 . S
C336 H330 0.930 . S
C336 C337 1.355 1_565 S
C336 C338 1.415 . S
C337 C336 1.355 1_545 S
C337 C339 1.419 . S
C338 C336 1.415 . S
C338 C343 1.425 1_565 S
C338 C345 1.409 . S
C339 H331 0.930 . S
C339 C337 1.419 . S
C339 C340 1.362 . S
C340 H332 0.930 . S
C340 C339 1.362 . S
C340 C343 1.409 . S
C341 H333 0.930 . S
C341 C342 1.355 1_545 S
C341 C343 1.415 . S
C342 C341 1.355 1_565 S
C342 C344 1.419 . S
C343 C338 1.425 1_545 S
C343 C340 1.409 . S
C343 C341 1.415 . S
C344 H334 0.930 . S
C344 C342 1.419 . S
C344 C345 1.362 . S
C345 H335 0.930 . S
C345 C338 1.409 . S
C345 C344 1.362 . S
H346 C352 0.930 1_554 S
H347 C355 0.930 . S
H348 C356 0.930 . S
H349 C357 0.930 . S
H350 C360 0.930 . S
H351 C361 0.930 . S
C352 H346 0.930 1_556 S
C352 C353 1.355 . S
C352 C354 1.415 . S
C353 C352 1.355 . S
C353 C355 1.419 . S
C354 C352 1.415 . S
C354 C359 1.425 . S
C354 C361 1.409 . S
C355 H347 0.930 . S
C355 C353 1.419 . S
C355 C356 1.362 . S
C356 H348 0.930 . S
C356 C355 1.362 . S
C356 C359 1.409 . S
C357 H349 0.930 . S
C357 C358 1.355 . S
C357 C359 1.415 . S
C358 C357 1.355 . S
C358 C360 1.419 . S
C359 C354 1.425 . S
C359 C356 1.409 . S
C359 C357 1.415 . S
C360 H350 0.930 . S
C360 C358 1.419 . S
C360 C361 1.362 . S
C361 H351 0.930 . S
C361 C354 1.409 . S
C361 C360 1.362 . S
H362 C368 0.930 . S
H363 C371 0.930 . S
H364 C372 0.930 . S
H365 C373 0.930 . S
H366 C376 0.930 . S
H367 C377 0.930 . S
C368 H362 0.930 . S
C368 C369 1.355 1_455 S
C368 C370 1.415 . S
C369 C368 1.355 1_655 S
C369 C371 1.419 . S
C370 C368 1.415 . S
C370 C375 1.425 1_455 S
C370 C377 1.409 . S
C371 H363 0.930 . S
C371 C369 1.419 . S
C371 C372 1.362 . S
C372 H364 0.930 . S
C372 C371 1.362 . S
C372 C375 1.409 . S
C373 H365 0.930 . S
C373 C374 1.355 1_655 S
C373 C375 1.415 . S
C374 C373 1.355 1_455 S
C374 C376 1.419 . S
C375 C370 1.425 1_655 S
C375 C372 1.409 . S
C375 C373 1.415 . S
C376 H366 0.930 . S
C376 C374 1.419 . S
C376 C377 1.362 . S
C377 H367 0.930 . S
C377 C370 1.409 . S
C377 C376 1.362 . S
C198 C63 1.487 . S
C193 C6 1.458 . S
C209 C22 1.570 . S
C214 C111 1.616 1_565 S
C225 C34 1.262 . S
C230 C183 1.298 . S
C241 C7 1.455 . S
C246 C87 1.495 1_655 S
C262 C135 1.599 . S
C257 C23 1.567 . S
C273 C35 1.291 . S
C278 C159 1.301 . S
C294 C120 1.601 1_545 S
C289 C36 1.594 . S
C305 C9 1.812 1_556 S
C310 C174 1.831 . S
C326 C78 1.488 1_455 S
C321 C21 1.436 1_455 S
C342 C126 1.603 . S
C337 C37 1.589 . S
C358 C168 1.817 . S
C353 C8 1.805 1_556 S
C369 C20 1.455 1_655 S
C374 C72 1.491 1_455 S
