# Generated by pormake.
# Topology zzz, (3,6)-cn, num edge types: 1
# Building blocks:
#     Node 0, Type 0, BuildingBlock: BELTOD_clean_linker_0, # of connection points: 3
#     Node 1, Type 0, BuildingBlock: BELTOD_clean_linker_0, # of connection points: 3
#     Node 2, Type 0, BuildingBlock: BELTOD_clean_linker_0, # of connection points: 3
#     Node 3, Type 0, BuildingBlock: BELTOD_clean_linker_0, # of connection points: 3
#     Node 4, Type 0, BuildingBlock: BELTOD_clean_linker_0, # of connection points: 3
#     Node 5, Type 0, BuildingBlock: BELTOD_clean_linker_0, # of connection points: 3
#     Node 6, Type 0, BuildingBlock: BELTOD_clean_linker_0, # of connection points: 3
#     Node 7, Type 0, BuildingBlock: BELTOD_clean_linker_0, # of connection points: 3
#     Node 8, Type 1, BuildingBlock: PAMTUU_clean_sbu_0, # of connection points: 6
#     Node 9, Type 1, BuildingBlock: PAMTUU_clean_sbu_0, # of connection points: 6
#     Node 10, Type 1, BuildingBlock: PAMTUU_clean_sbu_0, # of connection points: 6
#     Node 11, Type 1, BuildingBlock: PAMTUU_clean_sbu_0, # of connection points: 6
#     Edge 12, Type (0, 1), BuildingBlock: AJUNOK_clean_linker_0, # of connection points: 2
#     Edge 13, Type (0, 1), BuildingBlock: AJUNOK_clean_linker_0, # of connection points: 2
#     Edge 14, Type (0, 1), BuildingBlock: AJUNOK_clean_linker_0, # of connection points: 2
#     Edge 15, Type (0, 1), BuildingBlock: AJUNOK_clean_linker_0, # of connection points: 2
#     Edge 16, Type (0, 1), BuildingBlock: AJUNOK_clean_linker_0, # of connection points: 2
#     Edge 17, Type (0, 1), BuildingBlock: AJUNOK_clean_linker_0, # of connection points: 2
#     Edge 18, Type (0, 1), BuildingBlock: AJUNOK_clean_linker_0, # of connection points: 2
#     Edge 19, Type (0, 1), BuildingBlock: AJUNOK_clean_linker_0, # of connection points: 2
#     Edge 20, Type (0, 1), BuildingBlock: AJUNOK_clean_linker_0, # of connection points: 2
#     Edge 21, Type (0, 1), BuildingBlock: AJUNOK_clean_linker_0, # of connection points: 2
#     Edge 22, Type (0, 1), BuildingBlock: AJUNOK_clean_linker_0, # of connection points: 2
#     Edge 23, Type (0, 1), BuildingBlock: AJUNOK_clean_linker_0, # of connection points: 2
#     Edge 24, Type (0, 1), BuildingBlock: AJUNOK_clean_linker_0, # of connection points: 2
#     Edge 25, Type (0, 1), BuildingBlock: AJUNOK_clean_linker_0, # of connection points: 2
#     Edge 26, Type (0, 1), BuildingBlock: AJUNOK_clean_linker_0, # of connection points: 2
#     Edge 27, Type (0, 1), BuildingBlock: AJUNOK_clean_linker_0, # of connection points: 2
#     Edge 28, Type (0, 1), BuildingBlock: AJUNOK_clean_linker_0, # of connection points: 2
#     Edge 29, Type (0, 1), BuildingBlock: AJUNOK_clean_linker_0, # of connection points: 2
#     Edge 30, Type (0, 1), BuildingBlock: AJUNOK_clean_linker_0, # of connection points: 2
#     Edge 31, Type (0, 1), BuildingBlock: AJUNOK_clean_linker_0, # of connection points: 2
#     Edge 32, Type (0, 1), BuildingBlock: AJUNOK_clean_linker_0, # of connection points: 2
#     Edge 33, Type (0, 1), BuildingBlock: AJUNOK_clean_linker_0, # of connection points: 2
#     Edge 34, Type (0, 1), BuildingBlock: AJUNOK_clean_linker_0, # of connection points: 2
#     Edge 35, Type (0, 1), BuildingBlock: AJUNOK_clean_linker_0, # of connection points: 2
# Relax obj value: 0.412
# Max RMSD: 0.292
# Mean RMSD: 0.208
data_MOF--net-zzz--node1-PAMTUU_clean_sbu_0--node2-BELTOD_clean_linker_0--edge1-AJUNOK_clean_linker_0
_symmetry_space_group_name_H-M    P1
_symmetry_Int_Tables_number       1
_symmetry_cell_setting            triclinic
loop_
_symmetry_equiv_pos_as_xyz
'x, y, z'
_cell_length_a     39.750091
_cell_length_b     44.207097
_cell_length_c     15.11594
_cell_angle_alpha  100.75676
_cell_angle_beta   89.832466
_cell_angle_gamma 89.024284
loop_
_atom_site_label
_atom_site_type_symbol
_atom_site_fract_x
_atom_site_fract_y
_atom_site_fract_z
_atom_type_partial_charge
P0 P 0.73392 0.4668 0.45927 0.0
H1 H 0.76707 0.44211 0.60083 0.0
H2 H 0.81739 0.45596 0.68815 0.0
H3 H 0.82221 0.54062 0.58567 0.0
H4 H 0.77129 0.52616 0.49612 0.0
H5 H 0.66015 0.46932 0.46208 0.0
H6 H 0.62036 0.48268 0.35326 0.0
H7 H 0.69957 0.52606 0.22918 0.0
H8 H 0.73963 0.51233 0.33842 0.0
H9 H 0.79136 0.48485 0.36308 0.0
H10 H 0.72978 0.40455 0.34762 0.0
O11 O 0.71274 0.44086 0.50356 0.0
H12 H 0.82414 0.45909 0.23486 0.0
H13 H 0.76337 0.3782 0.2176 0.0
C14 C 0.76462 0.48335 0.54301 0.0
C15 C 0.77799 0.46428 0.59938 0.0
C16 C 0.80705 0.47226 0.64978 0.0
C17 C 0.82389 0.49964 0.64536 0.0
C18 C 0.80988 0.51937 0.59108 0.0
C19 C 0.78051 0.51133 0.5405 0.0
C20 C 0.70329 0.4894 0.40863 0.0
C21 C 0.66896 0.48273 0.41389 0.0
C22 C 0.64599 0.49043 0.35105 0.0
C23 C 0.65671 0.50515 0.28126 0.0
C24 C 0.6905 0.51431 0.2811 0.0
C25 C 0.71346 0.5067 0.34441 0.0
C26 C 0.75844 0.4465 0.36605 0.0
C27 C 0.78491 0.4616 0.33249 0.0
C28 C 0.80346 0.44695 0.25838 0.0
C29 C 0.796 0.41681 0.21611 0.0
C30 C 0.76945 0.4015 0.24925 0.0
C31 C 0.75048 0.41646 0.32352 0.0
P32 P 0.08649 0.73622 0.4925 0.0
H33 H 0.06212 0.748 0.68029 0.0
H34 H 0.0361 0.79451 0.76888 0.0
H35 H 1.01975 0.83016 0.52461 0.0
H36 H 0.04256 0.78263 0.43674 0.0
H37 H 0.11577 0.67671 0.41388 0.0
H38 H 0.09528 0.6333 0.30405 0.0
H39 H 0.99878 0.67962 0.30209 0.0
H40 H 1.01977 0.72336 0.41047 0.0
H41 H 0.1237 0.79219 0.54789 0.0
H42 H 0.09789 0.73332 0.29741 0.0
O43 O 0.11251 0.72442 0.5661 0.0
H44 H 0.13921 0.83254 0.46684 0.0
H45 H 0.11573 0.7728 0.21502 0.0
C46 C 0.05528 0.76237 0.55231 0.0
C47 C 0.05157 0.76527 0.64568 0.0
C48 C 0.03722 0.79216 0.69635 0.0
C49 C 1.02764 0.81686 0.65437 0.0
C50 C 1.02729 0.81194 0.55971 0.0
C51 C 0.04052 0.78467 0.5091 0.0
C52 C 0.06921 0.70308 0.42086 0.0
C53 C 0.09005 0.67733 0.39073 0.0
C54 C 0.07829 0.65252 0.32812 0.0
C55 C 0.0455 0.65315 0.29391 0.0
C56 C 1.02434 0.67871 0.32612 0.0
C57 C 0.03622 0.70361 0.38863 0.0
C58 C 0.10961 0.75974 0.42894 0.0
C59 C 0.12301 0.78736 0.47496 0.0
C60 C 0.13206 0.81046 0.42826 0.0
C61 C 0.12877 0.80599 0.33413 0.0
C62 C 0.11817 0.77713 0.28762 0.0
C63 C 0.10829 0.75433 0.33468 0.0
P64 P 0.83704 0.04833 0.55565 0.0
H65 H 0.81618 0.04581 0.73932 0.0
H66 H 0.76296 0.03269 0.79869 0.0
H67 H 0.73357 0.98803 0.53191 0.0
H68 H 0.78633 1.00371 0.47158 0.0
H69 H 0.89836 0.07389 0.50224 0.0
H70 H 0.93597 0.06056 0.37307 0.0
H71 H 0.88164 0.97677 0.28458 0.0
H72 H 0.84323 0.99067 0.41464 0.0
H73 H 0.7909 0.09686 0.6408 0.0
H74 H 0.82195 0.05581 0.37045 0.0
O75 O 0.85797 0.0685 0.64197 0.0
H76 H 0.74238 0.12101 0.58015 0.0
H77 H 0.77423 0.07999 0.31054 0.0
C78 C 0.80616 0.02513 0.60068 0.0
C79 C 0.79907 0.03204 0.69354 0.0
C80 C 0.7682 0.0244 0.72799 0.0
C81 C 0.74349 0.00898 0.67085 0.0
C82 C 0.75164 1.00011 0.57845 0.0
C83 C 0.78238 0.00837 0.54375 0.0
C84 C 0.86827 0.03301 0.46991 0.0
C85 C 0.89493 0.05217 0.45668 0.0
C86 C 0.9165 0.04457 0.38231 0.0
C87 C 0.91199 0.01761 0.3181 0.0
C88 C 0.88569 0.9979 0.33223 0.0
C89 C 0.86391 0.00561 0.40726 0.0
C90 C 0.81022 0.07469 0.51034 0.0
C91 C 0.78821 0.09419 0.56848 0.0
C92 C 0.7605 0.10788 0.53398 0.0
C93 C 0.75478 0.10249 0.44083 0.0
C94 C 0.77845 0.08508 0.38253 0.0
C95 C 0.80582 0.0711 0.41703 0.0
P96 P 0.50972 0.77386 0.26275 0.0
H97 H 0.52348 0.77889 0.45556 0.0
H98 H 0.55245 0.74285 0.53531 0.0
H99 H 0.59328 0.69379 0.28296 0.0
H100 H 0.56578 0.73077 0.20435 0.0
H101 H 0.4761 0.83234 0.25586 0.0
H102 H 0.49165 0.87691 0.1923 0.0
H103 H 0.58765 0.83355 0.10884 0.0
H104 H 0.57174 0.78851 0.1728 0.0
H105 H 0.47898 0.71626 0.27406 0.0
H106 H 0.51313 0.7618 0.0626 0.0
O107 O 0.47693 0.78404 0.3318 0.0
H108 H 0.47407 0.66832 0.16664 0.0
H109 H 0.50606 0.71415 0.95261 0.0
C110 C 0.54171 0.757 0.32374 0.0
C111 C 0.53974 0.76114 0.41781 0.0
C112 C 0.55599 0.74028 0.4632 0.0
C113 C 0.57391 0.71471 0.41481 0.0
C114 C 0.57932 0.713 0.32206 0.0
C115 C 0.56355 0.73419 0.27698 0.0
C116 C 0.52297 0.80728 0.22027 0.0
C117 C 0.50074 0.8325 0.22527 0.0
C118 C 0.50974 0.85813 0.18939 0.0
C119 C 0.54114 0.85901 0.14713 0.0
C120 C 0.56341 0.8336 0.14177 0.0
C121 C 0.5544 0.80794 0.17836 0.0
C122 C 0.49653 0.74255 0.17654 0.0
C123 C 0.4842 0.7162 0.20363 0.0
C124 C 0.48137 0.68873 0.14184 0.0
C125 C 0.49038 0.68707 0.051 0.0
C126 C 0.50004 0.71429 0.02256 0.0
C127 C 0.5036 0.74174 0.08519 0.0
P128 P 0.31898 0.4635 0.15788 0.0
H129 H 0.29804 0.45011 0.96824 0.0
H130 H 0.24596 0.46493 0.9007 0.0
H131 H 0.22945 0.53798 0.12868 0.0
H132 H 0.28116 0.52269 0.19824 0.0
H133 H 0.38181 0.43411 0.19064 0.0
H134 H 0.42331 0.44604 0.30921 0.0
H135 H 0.37978 0.53723 0.38556 0.0
H136 H 0.33803 0.52492 0.26457 0.0
H137 H 0.25025 0.4412 0.14505 0.0
H138 H 0.3208 0.47175 0.35868 0.0
O139 O 0.32858 0.42916 0.09527 0.0
H140 H 0.20371 0.45737 0.24996 0.0
H141 H 0.27441 0.48854 0.46174 0.0
C142 C 0.29402 0.48521 0.08897 0.0
C143 C 0.28427 0.47029 1.00242 0.0
C144 C 0.25418 0.47861 0.96373 0.0
C145 C 0.23316 0.5021 1.01061 0.0
C146 C 0.24483 0.51935 0.09212 0.0
C147 C 0.27494 0.51104 0.13093 0.0
C148 C 0.35692 0.47855 0.21678 0.0
C149 C 0.38205 0.45715 0.22954 0.0
C150 C 0.40555 0.46389 0.29872 0.0
C151 C 0.40464 0.49244 0.35784 0.0
C152 C 0.3813 0.51505 0.34085 0.0
C153 C 0.35757 0.50814 0.2709 0.0
C154 C 0.28897 0.45739 0.24212 0.0
C155 C 0.25588 0.45019 0.21498 0.0
C156 C 0.22927 0.45953 0.27464 0.0
C157 C 0.23584 0.47541 0.36198 0.0
C158 C 0.26893 0.47701 0.39371 0.0
C159 C 0.29551 0.46777 0.33395 0.0
P160 P 0.1076 0.26893 0.29447 0.0
H161 H 0.14288 0.2442 0.12518 0.0
H162 H 0.12997 0.19905 0.01151 0.0
H163 H 1.02912 0.19961 0.1184 0.0
H164 H 0.0416 0.2456 0.22914 0.0
H165 H 0.14452 0.32118 0.38851 0.0
H166 H 0.12652 0.37236 0.46442 0.0
H167 H 1.02724 0.35658 0.35252 0.0
H168 H 0.04581 0.30522 0.27332 0.0
H169 H 0.12898 0.21252 0.35255 0.0
H170 H 0.04627 0.27799 0.40792 0.0
O171 O 0.14946 0.26544 0.29784 0.0
H172 H 0.09908 0.17755 0.43245 0.0
H173 H 1.01634 0.24287 0.48528 0.0
C174 C 0.0935 0.24788 0.18742 0.0
C175 C 0.11751 0.23554 0.12181 0.0
C176 C 0.11024 0.20943 0.05744 0.0
C177 C 0.079 0.19503 0.05867 0.0
C178 C 0.05358 0.20992 0.11648 0.0
C179 C 0.06072 0.23634 0.17995 0.0
C180 C 0.09655 0.30931 0.3249 0.0
C181 C 0.11925 0.32904 0.3769 0.0
C182 C 0.10896 0.35839 0.42046 0.0
C183 C 0.07553 0.36841 0.41426 0.0
C184 C 0.05322 0.34938 0.35798 0.0
C185 C 0.06383 0.32014 0.31255 0.0
C186 C 0.09024 0.24817 0.37525 0.0
C187 C 0.10499 0.21987 0.38427 0.0
C188 C 0.08785 0.19982 0.42919 0.0
C189 C 0.05545 0.20762 0.46394 0.0
C190 C 0.0413 0.23645 0.45849 0.0
C191 C 0.05863 0.25664 0.41475 0.0
P192 P 0.24807 0.04529 0.22315 0.0
H193 H 0.26719 0.06069 0.04924 0.0
H194 H 0.31857 0.04739 0.96152 0.0
H195 H 0.33814 0.97283 0.10307 0.0
H196 H 0.28626 0.98602 0.19014 0.0
H197 H 0.19072 0.07901 0.31245 0.0
H198 H 0.14898 0.06605 0.41542 0.0
H199 H 0.17765 0.97001 0.34076 0.0
H200 H 0.22058 0.98346 0.23731 0.0
H201 H 0.314 0.07304 0.24653 0.0
H202 H 0.25073 0.02082 0.39337 0.0
O203 O 0.24122 0.08111 0.20599 0.0
H204 H 0.36364 0.05397 0.31538 0.0
H205 H 0.29973 1.00063 0.45703 0.0
C206 C 0.27237 0.0245 0.12719 0.0
C207 C 0.28148 0.04051 0.05888 0.0
C208 C 0.31144 0.03319 1.00944 0.0
C209 C 0.33321 0.00947 0.02627 0.0
C210 C 0.3222 0.99122 0.08764 0.0
C211 C 0.29205 0.99854 0.13704 0.0
C212 C 0.20893 0.0323 0.2659 0.0
C213 C 0.18741 0.05493 0.31499 0.0
C214 C 0.16346 0.04747 0.375 0.0
C215 C 0.16028 0.01705 0.38866 0.0
C216 C 0.17993 0.99383 0.33396 0.0
C217 C 0.20405 1.00138 0.27308 0.0
C218 C 0.27869 0.04726 0.31117 0.0
C219 C 0.31056 0.05854 0.29616 0.0
C220 C 0.33895 0.04715 0.33401 0.0
C221 C 0.33547 0.02454 0.38731 0.0
C222 C 0.30321 0.01746 0.41422 0.0
C223 C 0.27495 0.02896 0.37688 0.0
P224 P 0.4453 0.23245 0.50014 0.0
H225 H 0.39711 0.23762 0.35723 0.0
H226 H 0.39771 0.27069 0.24486 0.0
H227 H 0.50316 0.2876 0.29571 0.0
H228 H 0.50295 0.25308 0.40411 0.0
H229 H 0.41286 0.18341 0.57088 0.0
H230 H 0.43286 0.13456 0.6041 0.0
H231 H 0.52964 0.14778 0.48851 0.0
H232 H 0.50894 0.19676 0.45146 0.0
H233 H 0.42007 0.28949 0.60972 0.0
H234 H 0.51607 0.24225 0.55822 0.0
O235 O 0.40433 0.23496 0.52611 0.0
H236 H 0.44844 0.3354 0.68666 0.0
H237 H 0.54453 0.28881 0.63237 0.0
C238 C 0.4497 0.24369 0.39181 0.0
C239 C 0.42071 0.24745 0.34202 0.0
C240 C 0.42095 0.26674 0.2785 0.0
C241 C 0.45008 0.28291 0.2647 0.0
C242 C 0.48014 0.27592 0.30602 0.0
C243 C 0.47999 0.25619 0.3685 0.0
C244 C 0.45945 0.19406 0.50918 0.0
C245 C 0.43815 0.17569 0.55027 0.0
C246 C 0.44953 0.14757 0.56908 0.0
C247 C 0.48271 0.13731 0.54848 0.0
C248 C 0.50388 0.1552 0.50485 0.0
C249 C 0.49216 0.18322 0.4842 0.0
C250 C 0.46579 0.26212 0.57878 0.0
C251 C 0.44713 0.28855 0.61717 0.0
C252 C 0.46334 0.3149 0.66062 0.0
C253 C 0.49857 0.31552 0.66453 0.0
C254 C 0.5173 0.28875 0.62979 0.0
C255 C 0.50096 0.26209 0.58798 0.0
Tb256 Tb 1.00713 0.01555 0.79873 0.0
Tb257 Tb 0.07254 0.99811 0.90969 0.0
C258 C 0.99905 0.00557 0.99714 0.0
C259 C 0.96139 0.06204 0.66822 0.0
C260 C 0.98184 0.11344 0.59772 0.0
C261 C 0.97855 0.0847 0.54082 0.0
C262 C 0.96835 0.05919 0.57579 0.0
C263 C 0.96202 0.09146 0.72338 0.0
C264 C 0.9724 0.11686 0.6885 0.0
C265 C 0.96072 0.03414 0.70908 0.0
O266 O 1.02386 0.05827 0.88271 0.0
O267 O 0.07929 0.04554 0.89659 0.0
O268 O 0.08779 0.99073 0.76725 0.0
O269 O 0.0509 0.02457 0.72105 0.0
O270 O 0.10339 0.00685 0.02408 0.0
O271 O 0.11478 0.96936 0.91426 0.0
O272 O 0.04183 0.95761 0.88663 0.0
O273 O 1.01459 0.96578 0.75988 0.0
O274 O 0.98597 1.00063 0.91605 0.0
O275 O 1.03156 0.01046 1.00878 0.0
C276 C 0.05501 0.06626 0.90268 0.0
O277 O 0.98225 0.01246 0.67498 0.0
O278 O 0.9606 0.0387 0.7969 0.0
C279 C 0.07833 0.00733 0.70758 0.0
C280 C 0.12529 0.96058 0.05918 0.0
C281 C 0.13024 0.9129 0.15903 0.0
C282 C 0.15889 0.92235 0.11735 0.0
C283 C 0.15641 0.94609 0.06797 0.0
C284 C 0.09686 0.95186 0.10285 0.0
C285 C 0.09936 0.92835 0.15271 0.0
C286 C 0.12185 0.98217 0.99667 0.0
C287 C 1.02595 0.94713 0.81177 0.0
H288 H 0.98605 0.0815 0.47068 0.0
H289 H 0.96822 0.03684 0.53177 0.0
H290 H 0.95679 0.0946 0.79491 0.0
H291 H 0.97463 0.1389 0.73339 0.0
H292 H 0.18287 0.91053 0.11946 0.0
H293 H 0.17852 0.95232 0.03377 0.0
H294 H 0.07251 0.96256 0.09604 0.0
H295 H 0.07691 0.92171 0.18457 0.0
Tb296 Tb 0.53339 0.97129 0.76278 0.0
Tb297 Tb 0.54541 0.02851 0.92663 0.0
C298 C 0.55405 0.95953 0.95091 0.0
C299 C 0.49931 0.92743 0.55701 0.0
C300 C 0.44488 0.9452 0.46027 0.0
C301 C 0.44054 0.92319 0.51514 0.0
C302 C 0.46769 0.91423 0.56306 0.0
C303 C 0.50452 0.94577 0.49164 0.0
C304 C 0.47737 0.95485 0.44431 0.0
C305 C 0.52352 0.9282 0.63109 0.0
O306 O 0.48723 0.9761 0.84538 0.0
O307 O 0.49097 0.02712 0.90732 0.0
O308 O 0.54212 0.04734 0.80385 0.0
O309 O 0.51051 0.0107 0.71661 0.0
O310 O 0.53491 0.05112 0.05897 0.0
O311 O 0.56699 0.07156 0.97199 0.0
O312 O 0.59578 0.00983 0.8862 0.0
O313 O 0.58178 0.99133 0.74021 0.0
O314 O 0.56016 0.9519 0.86431 0.0
O315 O 0.54312 0.98737 0.98653 0.0
C316 C 0.47327 1.00188 0.88892 0.0
O317 O 0.54758 0.94795 0.63398 0.0
O318 O 0.51031 0.92932 0.71067 0.0
C319 C 0.52268 0.03862 0.73407 0.0
C320 C 0.57911 0.08209 0.12559 0.0
C321 C 0.63022 0.09859 0.25202 0.0
C322 C 0.61219 0.12142 0.21799 0.0
C323 C 0.58671 0.11318 0.15516 0.0
C324 C 0.59644 0.0593 0.16139 0.0
C325 C 0.62171 0.06754 0.22464 0.0
C326 C 0.55482 0.07377 0.05296 0.0
C327 C 0.6046 1.00069 0.8013 0.0
H328 H 0.41566 0.91516 0.52732 0.0
H329 H 0.46315 0.89954 0.61162 0.0
H330 H 0.52875 0.95584 0.48382 0.0
H331 H 0.4813 0.97204 0.40301 0.0
H332 H 0.6183 0.14549 0.2386 0.0
H333 H 0.57355 0.131 0.12779 0.0
H334 H 0.59109 0.03515 0.13864 0.0
H335 H 0.63557 0.04954 0.24942 0.0
Tb336 Tb 0.49499 0.49195 0.88577 0.0
Tb337 Tb 0.5589 0.50739 0.76586 0.0
C338 C 0.48718 0.50254 0.68418 0.0
C339 C 0.44788 0.44472 0.01782 0.0
C340 C 0.44776 0.39093 0.09357 0.0
C341 C 0.41893 0.40007 0.05099 0.0
C342 C 0.41896 0.42679 0.01378 0.0
C343 C 0.47688 0.43545 0.05938 0.0
C344 C 0.47679 0.40881 0.09705 0.0
C345 C 0.44856 0.47089 0.96995 0.0
O346 O 0.52998 0.45353 0.86588 0.0
O347 O 0.54838 0.45823 0.72782 0.0
O348 O 0.58058 0.49618 0.889 0.0
O349 O 0.53471 0.50852 0.98191 0.0
O350 O 0.58501 0.49986 0.64234 0.0
O351 O 0.60405 0.53088 0.75756 0.0
O352 O 0.53987 0.55116 0.84174 0.0
O353 O 0.48589 0.54002 0.87975 0.0
O354 O 0.47922 0.48569 0.74423 0.0
O355 O 0.51473 0.51869 0.69287 0.0
C356 C 0.54032 0.44073 0.78557 0.0
O357 O 0.46655 0.49453 1.00492 0.0
O358 O 0.45349 0.46314 0.88352 0.0
C359 C 0.56739 0.5038 0.97048 0.0
C360 C 0.60733 0.54713 0.61835 0.0
C361 C 0.60239 0.60131 0.54567 0.0
C362 C 0.62893 0.59721 0.60356 0.0
C363 C 0.63134 0.5703 0.63978 0.0
C364 C 0.5822 0.55044 0.55533 0.0
C365 C 0.57986 0.57722 0.51923 0.0
C366 C 0.60591 0.52198 0.67047 0.0
C367 C 0.50933 0.55994 0.87095 0.0
H368 H 0.39637 0.38648 0.04619 0.0
H369 H 0.39654 0.43319 0.98055 0.0
H370 H 0.49976 0.44854 0.0615 0.0
H371 H 0.49937 0.40225 0.12929 0.0
H372 H 0.64667 0.61546 0.62455 0.0
H373 H 0.65093 0.56828 0.68813 0.0
H374 H 0.56334 0.53303 0.53692 0.0
H375 H 0.55957 0.57967 0.47325 0.0
Tb376 Tb 1.03336 0.53867 0.79488 0.0
Tb377 Tb 1.01774 0.48403 0.9051 0.0
C378 C 1.01775 0.55285 0.99639 0.0
C379 C 0.07919 0.58184 0.65873 0.0
C380 C 0.13651 0.55887 0.55855 0.0
C381 C 0.13902 0.56982 0.65147 0.0
C382 C 0.11055 0.58123 0.70138 0.0
C383 C 0.07777 0.57492 0.56442 0.0
C384 C 0.10612 0.56304 0.5147 0.0
C385 C 0.04802 0.58034 0.71023 0.0
O386 O 0.0818 0.53141 0.85783 0.0
O387 O 0.07261 0.48596 0.90765 0.0
O388 O 1.01695 0.46438 0.76202 0.0
O389 O 0.05428 0.49657 0.71478 0.0
O390 O 0.99654 0.47042 0.01801 0.0
O391 O 1.02228 0.43739 0.91549 0.0
O392 O 0.968 0.50072 0.87084 0.0
O393 O 0.9831 0.52348 0.75253 0.0
O394 O 1.00742 0.55838 0.91889 0.0
O395 O 1.02951 0.5254 1.00169 0.0
C396 C 0.09258 0.50815 0.89408 0.0
O397 O 1.02917 0.55709 0.67739 0.0
O398 O 0.05108 0.58336 0.79742 0.0
C399 C 0.03877 0.47019 0.70234 0.0
C400 C 0.97558 0.42068 0.98913 0.0
C401 C 0.91346 0.39353 0.0118 0.0
C402 C 0.92163 0.40208 0.92925 0.0
C403 C 0.95238 0.41588 0.91831 0.0
C404 C 0.96896 0.40949 0.06784 0.0
C405 C 0.93814 0.39616 0.07939 0.0
C406 C 1.00385 0.44142 0.98841 0.0
C407 C 0.96005 0.51204 0.79873 0.0
H408 H 0.16239 0.56738 0.68645 0.0
H409 H 0.11261 0.58668 0.77403 0.0
H410 H 0.05391 0.57523 0.53007 0.0
H411 H 0.10328 0.55451 0.44321 0.0
H412 H 0.90322 0.40036 0.87592 0.0
H413 H 0.95709 0.4246 0.85708 0.0
H414 H 0.98654 0.41327 0.12335 0.0
H415 H 0.93262 0.39078 0.14483 0.0
C416 C 0.10653 0.02555 0.48072 0.0
C417 C 0.13834 0.01088 0.46466 0.0
C418 C 0.08737 0.02381 0.55806 0.0
C419 C 0.09896 0.0073 0.62378 0.0
H420 H 0.0965 0.03904 0.43364 0.0
H421 H 0.06335 0.03598 0.56672 0.0
S422 S 0.18018 0.96372 0.61322 0.0
N423 N 0.18023 0.97862 0.52088 0.0
N424 N 0.1442 0.97491 0.665 0.0
C425 C 0.1303 0.99167 0.60729 0.0
C426 C 0.14988 0.99351 0.52827 0.0
C427 C 0.52272 0.11324 0.64297 0.0
C428 C 0.49573 0.10996 0.58253 0.0
C429 C 0.53176 0.08963 0.6891 0.0
C430 C 0.51432 0.06161 0.67636 0.0
H431 H 0.53593 0.13482 0.65814 0.0
H432 H 0.55213 0.09385 0.73701 0.0
S433 S 0.44444 0.04032 0.51565 0.0
N434 N 0.45352 0.07583 0.50567 0.0
N435 N 0.47061 0.03111 0.59146 0.0
C436 C 0.4885 0.05738 0.61181 0.0
C437 C 0.47914 0.08164 0.56535 0.0
C438 C 0.42337 0.47496 0.49909 0.0
C439 C 0.42533 0.49669 0.44193 0.0
C440 C 0.44286 0.47746 0.57757 0.0
C441 C 0.46568 0.50159 0.60225 0.0
H442 H 0.40648 0.45576 0.48302 0.0
H443 H 0.44037 0.45989 0.61834 0.0
S444 S 0.48028 0.56479 0.47582 0.0
N445 N 0.45161 0.54344 0.41605 0.0
N446 N 0.4886 0.54809 0.56257 0.0
C447 C 0.46777 0.52365 0.54581 0.0
C448 C 0.44751 0.52127 0.46624 0.0
C449 C 0.03764 0.39348 0.53925 0.0
C450 C 0.06324 0.39629 0.47724 0.0
C451 C 1.02939 0.41779 0.61004 0.0
C452 C 0.04631 0.44603 0.62159 0.0
H453 H 1.02495 0.37178 0.53565 0.0
H454 H 1.01017 0.41397 0.65745 0.0
S455 S 0.11242 0.46619 0.46916 0.0
N456 N 0.10348 0.43009 0.42636 0.0
N457 N 0.08789 0.47613 0.55864 0.0
C458 C 0.07079 0.44966 0.55679 0.0
C459 C 0.07931 0.42472 0.48496 0.0
C460 C 0.96901 0.01522 0.24233 0.0
C461 C 0.93389 0.01148 0.23527 0.0
C462 C 0.98981 0.01259 0.16551 0.0
C463 C 0.9765 0.00633 0.07768 0.0
H464 H 0.98056 0.0206 0.30814 0.0
H465 H 1.01654 0.01604 0.17545 0.0
S466 S 0.88594 0.99452 0.02195 0.0
N467 N 0.88674 1.0011 0.13305 0.0
N468 N 0.92543 0.99595 0.98914 0.0
C469 C 0.94139 1.00198 0.06974 0.0
C470 C 0.92027 1.00456 0.14814 0.0
C471 C 0.5596 0.88001 0.01235 0.0
C472 C 0.54922 0.88543 0.10296 0.0
C473 C 0.56275 0.90429 0.96514 0.0
C474 C 0.55567 0.93507 1.00665 0.0
H475 H 0.56379 0.85665 0.97624 0.0
H476 H 0.56948 0.89863 0.89447 0.0
S477 S 0.53243 0.9618 0.24717 0.0
N478 N 0.53543 0.92396 0.2355 0.0
N479 N 0.54122 0.96968 0.1472 0.0
C480 C 0.54726 0.94093 0.099 0.0
C481 C 0.544 0.91612 0.14695 0.0
C482 C 0.64557 0.49816 0.11454 0.0
C483 C 0.63387 0.50761 0.20374 0.0
C484 C 0.62411 0.4974 0.04028 0.0
C485 C 0.5898 0.50602 0.05131 0.0
H486 H 0.6714 0.49034 0.10186 0.0
H487 H 0.63453 0.48941 0.97352 0.0
S488 S 0.54711 0.53521 0.27093 0.0
N489 N 0.58613 0.52778 0.29857 0.0
N490 N 0.54572 0.5261 0.15996 0.0
C491 C 0.57795 0.51634 0.1403 0.0
C492 C 0.59991 0.51716 0.21599 0.0
C493 C 0.0405 0.59695 0.2284 0.0
C494 C 0.03444 0.62785 0.22125 0.0
C495 C 1.03362 0.5728 0.15678 0.0
C496 C 1.02048 0.57855 0.07491 0.0
H497 H 0.05128 0.59142 0.28928 0.0
H498 H 0.0396 0.54948 0.16503 0.0
S499 S 0.99931 0.65559 0.02303 0.0
N500 N 1.01401 0.66296 0.12666 0.0
N501 N 1.0005 0.61774 0.99266 0.0
C502 C 1.01319 0.60937 0.06815 0.0
C503 C 1.0203 0.63395 0.14111 0.0
C504 C 0.04635 0.17365 0.57597 0.0
C505 C 0.03544 0.18477 0.49963 0.0
C506 C 1.02816 0.15117 0.60878 0.0
C507 C 0.99886 0.13875 0.56523 0.0
H508 H 0.0691 0.18233 0.61024 0.0
H509 H 0.03755 0.14286 0.66726 0.0
S510 S 0.96026 0.16005 0.36221 0.0
N511 N 0.9937 0.18196 0.38136 0.0
N512 N 0.95977 0.13924 0.44232 0.0
C513 C 0.98774 0.14971 0.48887 0.0
C514 C 1.00597 0.1729 0.45628 0.0
C515 C 0.36827 0.99743 0.49002 0.0
C516 C 0.36439 0.00512 0.40456 0.0
C517 C 0.39344 0.97673 0.50582 0.0
C518 C 0.41572 0.96306 0.43681 0.0
H519 H 0.35188 0.00766 0.54532 0.0
H520 H 0.39625 0.9723 0.57357 0.0
S521 S 0.41479 0.97371 0.19948 0.0
N522 N 0.38372 0.99604 0.24845 0.0
N523 N 0.43164 0.9575 0.27928 0.0
C524 C 0.41193 0.97016 0.35074 0.0
C525 C 0.38616 0.99115 0.33438 0.0
C526 C 0.50917 0.36035 0.78696 0.0
C527 C 0.51519 0.34503 0.69835 0.0
C528 C 0.51967 0.39061 0.81608 0.0
C529 C 0.53597 0.407 0.75703 0.0
H530 H 0.49512 0.34924 0.83312 0.0
H531 H 0.51326 0.40165 0.88431 0.0
S532 S 0.55962 0.37587 0.51933 0.0
N533 N 0.54031 0.34722 0.55316 0.0
N534 N 0.55969 0.40444 0.60709 0.0
C535 C 0.54363 0.39125 0.66931 0.0
C536 C 0.53327 0.3602 0.64013 0.0
C537 C 0.20081 0.49399 0.49932 0.0
C538 C 0.21004 0.49621 0.41126 0.0
C539 C 0.17774 0.51509 0.54786 0.0
C540 C 0.16359 0.53921 0.51 0.0
H541 H 0.21118 0.4757 0.53026 0.0
H542 H 0.17019 0.5119 0.61438 0.0
S543 S 0.18346 0.55712 0.28615 0.0
N544 N 0.20587 0.52569 0.29103 0.0
N545 N 0.16283 0.56556 0.38271 0.0
C546 C 0.17371 0.54224 0.42327 0.0
C547 C 0.19688 0.52067 0.37378 0.0
C548 C 0.10691 0.83703 0.22364 0.0
C549 C 0.13176 0.83241 0.28622 0.0
C550 C 0.10692 0.86291 0.18274 0.0
C551 C 0.13163 0.88551 0.20301 0.0
H552 H 0.0866 0.82092 0.20768 0.0
H553 H 0.08727 0.86526 0.13483 0.0
S554 S 0.20284 0.88438 0.36052 0.0
N555 N 0.18266 0.85225 0.36385 0.0
N556 N 0.18182 0.90163 0.28938 0.0
C557 C 0.15693 0.88114 0.26452 0.0
C558 C 0.15712 0.85453 0.30575 0.0
C559 C 0.69281 0.09675 0.43794 0.0
C560 C 0.72154 0.10926 0.40501 0.0
C561 C 0.66244 0.09519 0.39095 0.0
C562 C 0.65976 0.10639 0.31015 0.0
H563 H 0.69445 0.08596 0.49659 0.0
H564 H 0.64142 0.08372 0.4154 0.0
S565 S 0.72651 0.1447 0.20194 0.0
N566 N 0.74461 0.13573 0.29207 0.0
N567 N 0.68737 0.13281 0.20335 0.0
C568 C 0.68752 0.12109 0.2803 0.0
C569 C 0.71851 0.12249 0.32786 0.0
C570 C 0.46822 0.63404 0.99549 0.0
C571 C 0.49271 0.65633 0.99019 0.0
C572 C 0.47294 0.60325 0.95289 0.0
C573 C 0.50231 0.59341 0.90275 0.0
H574 H 0.44572 0.6402 0.03586 0.0
H575 H 0.45399 0.58685 0.9628 0.0
S576 S 0.57201 0.64343 0.85649 0.0
N577 N 0.54617 0.66678 0.92385 0.0
N578 N 0.55433 0.60937 0.84067 0.0
C579 C 0.52579 0.61592 0.89093 0.0
C580 C 0.52115 0.64724 0.9352 0.0
C581 C 0.8244 0.41755 0.0705 0.0
C582 C 0.81794 0.4018 0.14114 0.0
C583 C 0.8538 0.41154 0.01894 0.0
C584 C 0.87777 0.38965 0.03662 0.0
H585 H 0.80842 0.43683 0.06136 0.0
H586 H 0.85939 0.4267 0.97252 0.0
S587 S 0.86724 0.33592 0.1956 0.0
N588 N 0.83382 0.35903 0.2133 0.0
N589 N 0.88885 0.34696 0.11401 0.0
C590 C 0.86884 0.37045 0.09719 0.0
C591 C 0.83892 0.37674 0.15025 0.0
C592 C 0.04524 0.15372 0.96224 0.0
C593 C 0.07465 0.16263 1.0112 0.0
C594 C 0.03941 0.12262 0.9255 0.0
C595 C 0.06269 0.09922 0.9366 0.0
H596 H 1.02641 0.17086 0.95329 0.0
H597 H 1.01624 0.11689 0.88904 0.0
S598 S 0.14297 0.11037 0.0631 0.0
N599 N 0.12679 0.1454 0.07126 0.0
N600 N 0.11618 0.08735 1.00167 0.0
C601 C 0.0924 0.10795 0.9846 0.0
C602 C 0.09826 0.13951 0.02204 0.0
C603 C 0.38789 0.03289 0.98933 0.0
C604 C 0.36845 0.00637 0.9875 0.0
C605 C 0.42126 0.03113 0.9568 0.0
C606 C 0.43709 1.00273 0.92005 0.0
H607 H 0.37745 0.05539 0.01801 0.0
H608 H 0.43479 0.0524 0.96112 0.0
S609 S 0.39725 0.92616 0.8973 0.0
N610 N 0.36759 0.95065 0.94412 0.0
N611 N 0.43008 0.94721 0.88326 0.0
C612 C 0.41787 0.97594 0.91701 0.0
C613 C 0.3838 0.97777 0.95076 0.0
C614 C 0.47307 0.31377 0.15429 0.0
C615 C 0.44821 0.30957 0.21724 0.0
C616 C 0.4727 0.34001 0.11404 0.0
C617 C 0.44743 0.36297 0.13517 0.0
H618 H 0.49301 0.2967 0.13622 0.0
H619 H 0.49228 0.34233 0.06585 0.0
S620 S 0.37837 0.36442 0.30149 0.0
N621 N 0.39889 0.33174 0.30285 0.0
N622 N 0.39798 0.38045 0.22616 0.0
C623 C 0.4226 0.3591 0.19822 0.0
C624 C 0.42304 0.33259 0.2395 0.0
C625 C 0.18889 0.5146 0.90098 0.0
C626 C 0.19732 0.50513 0.98232 0.0
C627 C 0.155 0.51618 0.87338 0.0
C628 C 0.12836 0.50739 0.92464 0.0
H629 H 0.20861 0.52088 0.85859 0.0
H630 H 0.14969 0.52367 0.81049 0.0
S631 S 0.13715 0.48107 0.14297 0.0
N632 N 0.17614 0.48726 0.1138 0.0
N633 N 0.11309 0.4895 0.06169 0.0
C634 C 0.13663 0.49788 1.00589 0.0
C635 C 0.17087 0.49692 0.03469 0.0
C636 C 0.99953 0.86931 0.68062 0.0
C637 C 1.02344 0.84884 0.70694 0.0
C638 C 0.99962 0.90095 0.71705 0.0
C639 C 1.02329 0.91331 0.7823 0.0
H640 H 0.98131 0.86101 0.62902 0.0
H641 H 0.98152 0.91592 0.69227 0.0
S642 S 0.09045 0.86968 0.87777 0.0
N643 N 0.07115 0.84351 0.80415 0.0
N644 N 0.07028 0.90239 0.87516 0.0
C645 C 0.04617 0.8929 0.8129 0.0
C646 C 0.04647 0.86084 0.77476 0.0
C647 C 0.68021 0.01004 0.65287 0.0
C648 C 0.70838 0.00518 0.70547 0.0
C649 C 0.64709 0.00839 0.68451 0.0
C650 C 0.6403 1.00242 0.7711 0.0
H651 H 0.68364 0.01587 0.58702 0.0
H652 H 0.62654 0.01247 0.64102 0.0
S653 S 0.70421 0.98569 0.93438 0.0
N654 N 0.72658 0.99184 0.8474 0.0
N655 N 0.66443 0.99031 0.9078 0.0
C656 C 0.66796 0.99734 0.82457 0.0
C657 C 0.70185 0.99835 0.79166 0.0
C658 C 0.614 0.67257 0.44168 0.0
C659 C 0.58245 0.68773 0.45708 0.0
C660 C 0.62084 0.64502 0.47267 0.0
C661 C 0.59617 0.63149 0.51877 0.0
H662 H 0.63333 0.68183 0.40423 0.0
H663 H 0.64518 0.63375 0.45813 0.0
S664 S 0.51009 0.66216 0.57915 0.0
N665 N 0.52659 0.68709 0.52332 0.0
N666 N 0.53978 0.63588 0.58253 0.0
C667 C 0.56495 0.64678 0.53671 0.0
C668 C 0.558 0.67474 0.50566 0.0
C669 C 0.88488 0.51449 0.64198 0.0
C670 C 0.85749 0.50572 0.69026 0.0
C671 C 0.9175 0.51701 0.67837 0.0
C672 C 0.92448 0.51082 0.76491 0.0
H673 H 0.88138 0.51841 0.57396 0.0
H674 H 0.93758 0.52316 0.63687 0.0
S675 S 0.86095 0.49033 0.92355 0.0
N676 N 0.83912 0.49339 0.83277 0.0
N677 N 0.90028 0.49758 0.90038 0.0
C678 C 0.8971 0.50301 0.81521 0.0
C679 C 0.86377 0.5006 0.77821 0.0
loop_
_geom_bond_atom_site_label_1
_geom_bond_atom_site_label_2
_geom_bond_distance
_geom_bond_site_symmetry_2
_ccdc_geom_bond_type
P0 O11 1.490 . S
P0 C14 1.812 . S
P0 C20 1.803 . S
P0 C26 1.819 . S
H1 C15 0.941 . S
H2 C16 0.939 . S
H3 C18 0.940 . S
H4 C19 0.940 . S
H5 C21 0.939 . S
H6 C22 0.942 . S
H7 C24 0.940 . S
H8 C25 0.939 . S
H9 C27 0.941 . S
H10 C31 0.939 . S
O11 P0 1.490 . S
H12 C28 0.939 . S
H13 C30 0.940 . S
C14 P0 1.812 . S
C14 C15 1.389 . S
C14 C19 1.391 . S
C15 H1 0.941 . S
C15 C14 1.389 . S
C15 C16 1.397 . S
C16 H2 0.939 . S
C16 C15 1.397 . S
C16 C17 1.378 . S
C17 C16 1.378 . S
C17 C18 1.378 . S
C18 H3 0.940 . S
C18 C17 1.378 . S
C18 C19 1.396 . S
C19 H4 0.940 . S
C19 C14 1.391 . S
C19 C18 1.396 . S
C20 P0 1.803 . S
C20 C21 1.378 . S
C20 C25 1.400 . S
C21 H5 0.939 . S
C21 C20 1.378 . S
C21 C22 1.361 . S
C22 H6 0.942 . S
C22 C21 1.361 . S
C22 C23 1.369 . S
C23 C22 1.369 . S
C23 C24 1.404 . S
C24 H7 0.940 . S
C24 C23 1.404 . S
C24 C25 1.389 . S
C25 H8 0.939 . S
C25 C20 1.400 . S
C25 C24 1.389 . S
C26 P0 1.819 . S
C26 C27 1.391 . S
C26 C31 1.391 . S
C27 H9 0.941 . S
C27 C26 1.391 . S
C27 C28 1.396 . S
C28 H12 0.939 . S
C28 C27 1.396 . S
C28 C29 1.397 . S
C29 C28 1.397 . S
C29 C30 1.385 . S
C30 H13 0.940 . S
C30 C29 1.385 . S
C30 C31 1.388 . S
C31 H10 0.939 . S
C31 C26 1.391 . S
C31 C30 1.388 . S
P32 O43 1.490 . S
P32 C46 1.812 . S
P32 C52 1.803 . S
P32 C58 1.819 . S
H33 C47 0.941 . S
H34 C48 0.939 . S
H35 C50 0.940 . S
H36 C51 0.950 . S
H37 C53 0.939 . S
H38 C54 0.942 . S
H39 C56 0.940 . S
H40 C57 0.959 . S
H41 C59 0.941 . S
H42 C63 0.928 1_655 S
O43 P32 1.490 . S
H44 C60 0.939 . S
H45 C62 0.940 . S
C46 P32 1.812 . S
C46 C47 1.389 . S
C46 C51 1.375 1_455 S
C47 H33 0.941 . S
C47 C46 1.389 . S
C47 C48 1.397 . S
C48 H34 0.939 . S
C48 C47 1.397 . S
C48 C49 1.378 . S
C49 C48 1.378 . S
C49 C50 1.378 1_455 S
C50 H35 0.940 . S
C50 C49 1.378 1_655 S
C50 C51 1.402 . S
C51 H36 0.950 . S
C51 C46 1.375 1_655 S
C51 C50 1.402 . S
C52 P32 1.803 . S
C52 C53 1.378 . S
C52 C57 1.368 1_455 S
C53 H37 0.939 . S
C53 C52 1.378 . S
C53 C54 1.361 . S
C54 H38 0.942 . S
C54 C53 1.361 . S
C54 C55 1.369 . S
C55 C54 1.369 . S
C55 C56 1.404 1_455 S
C56 H39 0.940 . S
C56 C55 1.404 1_655 S
C56 C57 1.403 . S
C57 H40 0.959 . S
C57 C52 1.368 1_655 S
C57 C56 1.403 . S
C58 P32 1.819 . S
C58 C59 1.391 . S
C58 C63 1.391 . S
C59 H41 0.941 . S
C59 C58 1.391 . S
C59 C60 1.396 . S
C60 H44 0.939 . S
C60 C59 1.396 . S
C60 C61 1.397 . S
C61 C60 1.397 . S
C61 C62 1.385 1_455 S
C62 H45 0.940 . S
C62 C61 1.385 1_655 S
C62 C63 1.388 1_655 S
C63 H42 0.928 1_455 S
C63 C58 1.391 . S
C63 C62 1.388 1_455 S
P64 O75 1.490 . S
P64 C78 1.812 . S
P64 C84 1.803 . S
P64 C90 1.819 . S
H65 C79 0.941 . S
H66 C80 0.939 . S
H67 C82 0.940 . S
H68 C83 0.947 . S
H69 C85 0.939 . S
H70 C86 0.942 . S
H71 C88 0.940 . S
H72 C89 0.964 . S
H73 C91 0.941 . S
H74 C95 0.930 1_565 S
O75 P64 1.490 . S
H76 C92 0.939 . S
H77 C94 0.940 . S
C78 P64 1.812 . S
C78 C79 1.389 . S
C78 C83 1.375 1_545 S
C79 H65 0.941 . S
C79 C78 1.389 . S
C79 C80 1.397 . S
C80 H66 0.939 . S
C80 C79 1.397 . S
C80 C81 1.378 . S
C81 C80 1.378 . S
C81 C82 1.378 1_545 S
C82 H67 0.940 . S
C82 C81 1.378 1_565 S
C82 C83 1.406 . S
C83 H68 0.947 . S
C83 C78 1.375 1_565 S
C83 C82 1.406 . S
C84 P64 1.803 . S
C84 C85 1.378 . S
C84 C89 1.367 1_545 S
C85 H69 0.939 . S
C85 C84 1.378 . S
C85 C86 1.361 . S
C86 H70 0.942 . S
C86 C85 1.361 . S
C86 C87 1.369 . S
C87 C86 1.369 . S
C87 C88 1.404 1_545 S
C88 H71 0.940 . S
C88 C87 1.404 1_565 S
C88 C89 1.399 . S
C89 H72 0.964 . S
C89 C84 1.367 1_565 S
C89 C88 1.399 . S
C90 P64 1.819 . S
C90 C91 1.391 . S
C90 C95 1.391 . S
C91 H73 0.941 . S
C91 C90 1.391 . S
C91 C92 1.396 . S
C92 H76 0.939 . S
C92 C91 1.396 . S
C92 C93 1.397 . S
C93 C92 1.397 . S
C93 C94 1.385 1_545 S
C94 H77 0.940 . S
C94 C93 1.385 1_565 S
C94 C95 1.388 1_565 S
C95 H74 0.930 1_545 S
C95 C90 1.391 . S
C95 C94 1.388 1_545 S
P96 O107 1.490 . S
P96 C110 1.812 . S
P96 C116 1.803 1_554 S
P96 C122 1.819 1_554 S
H97 C111 0.941 . S
H98 C112 0.939 . S
H99 C114 0.940 . S
H100 C115 0.940 . S
H101 C117 0.939 . S
H102 C118 0.942 . S
H103 C120 0.937 1_554 S
H104 C121 0.939 . S
H105 C123 0.941 . S
H106 C127 0.939 . S
O107 P96 1.490 . S
H108 C124 0.939 . S
H109 C126 0.940 . S
C110 P96 1.812 . S
C110 C111 1.389 . S
C110 C115 1.391 . S
C111 H97 0.941 . S
C111 C110 1.389 . S
C111 C112 1.397 . S
C112 H98 0.939 . S
C112 C111 1.397 . S
C112 C113 1.378 . S
C113 C112 1.378 . S
C113 C114 1.378 . S
C114 H99 0.940 . S
C114 C113 1.378 . S
C114 C115 1.396 . S
C115 H100 0.940 . S
C115 C110 1.391 . S
C115 C114 1.396 . S
C116 P96 1.803 1_556 S
C116 C117 1.378 . S
C116 C121 1.400 1_556 S
C117 H101 0.939 . S
C117 C116 1.378 . S
C117 C118 1.361 . S
C118 H102 0.942 . S
C118 C117 1.361 . S
C118 C119 1.369 . S
C119 C118 1.369 . S
C119 C120 1.412 . S
C120 H103 0.937 1_556 S
C120 C119 1.412 . S
C120 C121 1.384 1_556 S
C121 H104 0.939 . S
C121 C116 1.400 1_554 S
C121 C120 1.384 1_554 S
C122 P96 1.819 1_556 S
C122 C123 1.391 . S
C122 C127 1.391 . S
C123 H105 0.941 . S
C123 C122 1.391 . S
C123 C124 1.396 . S
C124 H108 0.939 . S
C124 C123 1.396 . S
C124 C125 1.397 . S
C125 C124 1.397 . S
C125 C126 1.385 . S
C126 H109 0.940 . S
C126 C125 1.385 . S
C126 C127 1.388 . S
C127 H106 0.939 . S
C127 C122 1.391 . S
C127 C126 1.388 . S
P128 O139 1.490 . S
P128 C142 1.812 . S
P128 C148 1.803 . S
P128 C154 1.819 . S
H129 C143 0.941 . S
H130 C144 0.939 . S
H131 C146 0.940 1_554 S
H132 C147 0.940 . S
H133 C149 0.939 . S
H134 C150 0.942 . S
H135 C152 0.940 . S
H136 C153 0.939 . S
H137 C155 0.941 . S
H138 C159 0.939 . S
O139 P128 1.490 . S
H140 C156 0.939 . S
H141 C158 0.940 . S
C142 P128 1.812 . S
C142 C143 1.389 1_554 S
C142 C147 1.391 . S
C143 H129 0.941 . S
C143 C142 1.389 1_556 S
C143 C144 1.397 . S
C144 H130 0.939 . S
C144 C143 1.397 . S
C144 C145 1.378 . S
C145 C144 1.378 . S
C145 C146 1.378 . S
C146 H131 0.940 1_556 S
C146 C145 1.378 . S
C146 C147 1.396 1_556 S
C147 H132 0.940 . S
C147 C142 1.391 . S
C147 C146 1.396 1_554 S
C148 P128 1.803 . S
C148 C149 1.378 . S
C148 C153 1.400 . S
C149 H133 0.939 . S
C149 C148 1.378 . S
C149 C150 1.361 . S
C150 H134 0.942 . S
C150 C149 1.361 . S
C150 C151 1.369 . S
C151 C150 1.369 . S
C151 C152 1.404 . S
C152 H135 0.940 . S
C152 C151 1.404 . S
C152 C153 1.389 . S
C153 H136 0.939 . S
C153 C148 1.400 . S
C153 C152 1.389 . S
C154 P128 1.819 . S
C154 C155 1.391 . S
C154 C159 1.391 . S
C155 H137 0.941 . S
C155 C154 1.391 . S
C155 C156 1.396 . S
C156 H140 0.939 . S
C156 C155 1.396 . S
C156 C157 1.397 . S
C157 C156 1.397 . S
C157 C158 1.385 . S
C158 H141 0.940 . S
C158 C157 1.385 . S
C158 C159 1.388 . S
C159 H138 0.939 . S
C159 C154 1.391 . S
C159 C158 1.388 . S
P160 O171 1.490 . S
P160 C174 1.812 . S
P160 C180 1.803 . S
P160 C186 1.819 . S
H161 C175 0.941 . S
H162 C176 0.939 . S
H163 C178 0.940 . S
H164 C179 0.945 . S
H165 C181 0.939 . S
H166 C182 0.942 . S
H167 C184 0.940 . S
H168 C185 0.955 . S
H169 C187 0.941 . S
H170 C191 0.932 1_655 S
O171 P160 1.490 . S
H172 C188 0.939 . S
H173 C190 0.940 . S
C174 P160 1.812 . S
C174 C175 1.389 . S
C174 C179 1.383 1_455 S
C175 H161 0.941 . S
C175 C174 1.389 . S
C175 C176 1.397 1_554 S
C176 H162 0.939 . S
C176 C175 1.397 1_556 S
C176 C177 1.378 . S
C177 C176 1.378 . S
C177 C178 1.378 1_456 S
C178 H163 0.940 . S
C178 C177 1.378 1_654 S
C178 C179 1.400 . S
C179 H164 0.945 . S
C179 C174 1.383 1_655 S
C179 C178 1.400 . S
C180 P160 1.803 . S
C180 C181 1.378 . S
C180 C185 1.376 1_455 S
C181 H165 0.939 . S
C181 C180 1.378 . S
C181 C182 1.361 . S
C182 H166 0.942 . S
C182 C181 1.361 . S
C182 C183 1.369 . S
C183 C182 1.369 . S
C183 C184 1.404 1_455 S
C184 H167 0.940 . S
C184 C183 1.404 1_655 S
C184 C185 1.398 . S
C185 H168 0.955 . S
C185 C180 1.376 1_655 S
C185 C184 1.398 . S
C186 P160 1.819 . S
C186 C187 1.391 . S
C186 C191 1.391 . S
C187 H169 0.941 . S
C187 C186 1.391 . S
C187 C188 1.396 . S
C188 H172 0.939 . S
C188 C187 1.396 . S
C188 C189 1.397 . S
C189 C188 1.397 . S
C189 C190 1.385 1_455 S
C190 H173 0.940 . S
C190 C189 1.385 1_655 S
C190 C191 1.388 1_655 S
C191 H170 0.932 1_455 S
C191 C186 1.391 . S
C191 C190 1.388 1_455 S
P192 O203 1.490 . S
P192 C206 1.812 . S
P192 C212 1.803 . S
P192 C218 1.819 . S
H193 C207 0.941 . S
H194 C208 0.939 . S
H195 C210 0.940 1_556 S
H196 C211 0.947 . S
H197 C213 0.939 . S
H198 C214 0.942 . S
H199 C216 0.940 . S
H200 C217 0.951 . S
H201 C219 0.941 . S
H202 C223 0.931 1_565 S
O203 P192 1.490 . S
H204 C220 0.939 . S
H205 C222 0.940 . S
C206 P192 1.812 . S
C206 C207 1.389 . S
C206 C211 1.383 1_545 S
C207 H193 0.941 . S
C207 C206 1.389 . S
C207 C208 1.397 1_554 S
C208 H194 0.939 . S
C208 C207 1.397 1_556 S
C208 C209 1.378 . S
C209 C208 1.378 . S
C209 C210 1.378 1_546 S
C210 H195 0.940 1_554 S
C210 C209 1.378 1_564 S
C210 C211 1.398 . S
C211 H196 0.947 . S
C211 C206 1.383 1_565 S
C211 C210 1.398 . S
C212 P192 1.803 . S
C212 C213 1.378 . S
C212 C217 1.378 1_545 S
C213 H197 0.939 . S
C213 C212 1.378 . S
C213 C214 1.361 . S
C214 H198 0.942 . S
C214 C213 1.361 . S
C214 C215 1.369 . S
C215 C214 1.369 . S
C215 C216 1.404 1_545 S
C216 H199 0.940 . S
C216 C215 1.404 1_565 S
C216 C217 1.401 . S
C217 H200 0.951 . S
C217 C212 1.378 1_565 S
C217 C216 1.401 . S
C218 P192 1.819 . S
C218 C219 1.391 . S
C218 C223 1.391 . S
C219 H201 0.941 . S
C219 C218 1.391 . S
C219 C220 1.396 . S
C220 H204 0.939 . S
C220 C219 1.396 . S
C220 C221 1.397 . S
C221 C220 1.397 . S
C221 C222 1.385 1_545 S
C222 H205 0.940 . S
C222 C221 1.385 1_565 S
C222 C223 1.388 1_565 S
C223 H202 0.931 1_545 S
C223 C218 1.391 . S
C223 C222 1.388 1_545 S
P224 O235 1.490 . S
P224 C238 1.812 . S
P224 C244 1.803 . S
P224 C250 1.819 . S
H225 C239 0.941 . S
H226 C240 0.939 . S
H227 C242 0.940 . S
H228 C243 0.940 . S
H229 C245 0.939 . S
H230 C246 0.942 . S
H231 C248 0.940 . S
H232 C249 0.939 . S
H233 C251 0.941 . S
H234 C255 0.939 . S
O235 P224 1.490 . S
H236 C252 0.939 . S
H237 C254 0.940 . S
C238 P224 1.812 . S
C238 C239 1.389 . S
C238 C243 1.391 . S
C239 H225 0.941 . S
C239 C238 1.389 . S
C239 C240 1.397 . S
C240 H226 0.939 . S
C240 C239 1.397 . S
C240 C241 1.378 . S
C241 C240 1.378 . S
C241 C242 1.378 . S
C242 H227 0.940 . S
C242 C241 1.378 . S
C242 C243 1.396 . S
C243 H228 0.940 . S
C243 C238 1.391 . S
C243 C242 1.396 . S
C244 P224 1.803 . S
C244 C245 1.378 . S
C244 C249 1.400 . S
C245 H229 0.939 . S
C245 C244 1.378 . S
C245 C246 1.361 . S
C246 H230 0.942 . S
C246 C245 1.361 . S
C246 C247 1.369 . S
C247 C246 1.369 . S
C247 C248 1.404 . S
C248 H231 0.940 . S
C248 C247 1.404 . S
C248 C249 1.389 . S
C249 H232 0.939 . S
C249 C244 1.400 . S
C249 C248 1.389 . S
C250 P224 1.819 . S
C250 C251 1.391 . S
C250 C255 1.391 . S
C251 H233 0.941 . S
C251 C250 1.391 . S
C251 C252 1.396 . S
C252 H236 0.939 . S
C252 C251 1.396 . S
C252 C253 1.397 . S
C253 C252 1.397 . S
C253 C254 1.385 . S
C254 H237 0.940 . S
C254 C253 1.385 . S
C254 C255 1.388 . S
C255 H234 0.939 . S
C255 C250 1.391 . S
C255 C254 1.388 . S
Tb256 C265 2.764 . S
Tb256 O266 2.325 . S
Tb256 O269 2.303 1_655 S
Tb256 O273 2.322 1_545 S
Tb256 O274 2.349 . S
Tb256 O277 2.415 . S
Tb256 O278 2.399 . S
Tb257 O267 2.322 1_565 S
Tb257 O268 2.349 . S
Tb257 O270 2.415 . S
Tb257 O271 2.399 . S
Tb257 O272 2.325 . S
Tb257 O275 2.303 1_455 S
Tb257 C286 2.764 . S
C258 O274 1.261 . S
C258 O275 1.257 1_545 S
C259 C262 1.358 . S
C259 C263 1.332 . S
C259 C265 1.504 . S
C260 C261 1.373 . S
C260 C264 1.308 . S
C261 C260 1.373 . S
C261 C262 1.429 . S
C261 H288 0.932 . S
C262 C259 1.358 . S
C262 C261 1.429 . S
C262 H289 0.930 . S
C263 C259 1.332 . S
C263 C264 1.394 . S
C263 H290 0.939 . S
C264 C260 1.308 . S
C264 C263 1.394 . S
C264 H291 0.929 . S
C265 Tb256 2.764 . S
C265 C259 1.504 . S
C265 O277 1.239 . S
C265 O278 1.263 . S
O266 Tb256 2.325 . S
O266 C276 1.236 1_655 S
O267 Tb257 2.322 1_545 S
O267 C276 1.257 . S
O268 Tb257 2.349 . S
O268 C279 1.261 . S
O269 Tb256 2.303 1_455 S
O269 C279 1.257 1_545 S
O270 Tb257 2.415 . S
O270 C286 1.239 . S
O271 Tb257 2.399 . S
O271 C286 1.263 . S
O272 Tb257 2.325 . S
O272 C287 1.236 1_455 S
O273 Tb256 2.322 1_565 S
O273 C287 1.257 . S
O274 Tb256 2.349 . S
O274 C258 1.261 . S
O275 Tb257 2.303 1_655 S
O275 C258 1.257 1_565 S
C276 O266 1.236 1_455 S
C276 O267 1.257 . S
O277 Tb256 2.415 . S
O277 C265 1.239 . S
O278 Tb256 2.399 . S
O278 C265 1.263 . S
C279 O268 1.261 . S
C279 O269 1.257 1_565 S
C280 C283 1.358 . S
C280 C284 1.332 . S
C280 C286 1.504 1_554 S
C281 C282 1.373 . S
C281 C285 1.308 . S
C282 C281 1.373 . S
C282 C283 1.429 . S
C282 H292 0.932 . S
C283 C280 1.358 . S
C283 C282 1.429 . S
C283 H293 0.930 . S
C284 C280 1.332 . S
C284 C285 1.394 . S
C284 H294 0.947 . S
C285 C281 1.308 . S
C285 C284 1.394 . S
C285 H295 0.929 . S
C286 Tb257 2.764 . S
C286 O270 1.239 . S
C286 O271 1.263 . S
C286 C280 1.504 1_556 S
C287 O272 1.236 1_655 S
C287 O273 1.257 . S
H288 C261 0.932 . S
H289 C262 0.930 . S
H290 C263 0.939 . S
H291 C264 0.929 . S
H292 C282 0.932 . S
H293 C283 0.930 . S
H294 C284 0.947 . S
H295 C285 0.929 . S
Tb296 C305 2.764 . S
Tb296 O306 2.325 . S
Tb296 O309 2.303 1_565 S
Tb296 O313 2.322 . S
Tb296 O314 2.349 . S
Tb296 O317 2.415 1_565 S
Tb296 O318 2.399 . S
Tb297 O307 2.322 . S
Tb297 O308 2.349 . S
Tb297 O310 2.415 1_546 S
Tb297 O311 2.399 1_556 S
Tb297 O312 2.325 . S
Tb297 O315 2.303 1_545 S
Tb297 C326 2.764 1_556 S
C298 O314 1.261 . S
C298 O315 1.257 . S
C299 C302 1.358 . S
C299 C303 1.332 1_565 S
C299 C305 1.504 . S
C300 C301 1.373 . S
C300 C304 1.331 . S
C301 C300 1.373 . S
C301 C302 1.429 . S
C301 H328 0.932 . S
C302 C299 1.358 . S
C302 C301 1.429 . S
C302 H329 0.930 . S
C303 C299 1.332 1_545 S
C303 C304 1.395 1_545 S
C303 H330 0.932 . S
C304 C300 1.331 . S
C304 C303 1.395 1_565 S
C304 H331 0.905 1_565 S
C305 Tb296 2.764 . S
C305 C299 1.504 . S
C305 O317 1.239 1_565 S
C305 O318 1.263 . S
O306 Tb296 2.325 . S
O306 C316 1.236 1_565 S
O307 Tb297 2.322 . S
O307 C316 1.257 . S
O308 Tb297 2.349 . S
O308 C319 1.261 . S
O309 Tb296 2.303 1_545 S
O309 C319 1.257 . S
O310 Tb297 2.415 1_564 S
O310 C326 1.239 1_565 S
O311 Tb297 2.399 1_554 S
O311 C326 1.263 . S
O312 Tb297 2.325 . S
O312 C327 1.236 1_545 S
O313 Tb296 2.322 . S
O313 C327 1.257 . S
O314 Tb296 2.349 . S
O314 C298 1.261 . S
O315 Tb297 2.303 1_565 S
O315 C298 1.257 . S
C316 O306 1.236 1_545 S
C316 O307 1.257 . S
O317 Tb296 2.415 1_545 S
O317 C305 1.239 1_545 S
O318 Tb296 2.399 . S
O318 C305 1.263 . S
C319 O308 1.261 . S
C319 O309 1.257 . S
C320 C323 1.358 . S
C320 C324 1.302 1_545 S
C320 C326 1.504 . S
C321 C322 1.373 . S
C321 C325 1.338 . S
C322 C321 1.373 . S
C322 C323 1.429 . S
C322 H332 0.932 . S
C323 C320 1.358 . S
C323 C322 1.429 . S
C323 H333 0.930 . S
C324 C320 1.302 1_565 S
C324 C325 1.399 1_565 S
C324 H334 0.962 . S
C325 C321 1.338 . S
C325 C324 1.399 1_545 S
C325 H335 0.898 1_545 S
C326 Tb297 2.764 1_554 S
C326 O310 1.239 1_545 S
C326 O311 1.263 . S
C326 C320 1.504 . S
C327 O312 1.236 1_565 S
C327 O313 1.257 . S
H328 C301 0.932 . S
H329 C302 0.930 . S
H330 C303 0.932 . S
H331 C304 0.905 1_545 S
H332 C322 0.932 . S
H333 C323 0.930 . S
H334 C324 0.962 . S
H335 C325 0.898 1_565 S
Tb336 C345 2.764 1_556 S
Tb336 O346 2.325 . S
Tb336 O349 2.303 . S
Tb336 O353 2.322 . S
Tb336 O354 2.349 . S
Tb336 O357 2.415 1_556 S
Tb336 O358 2.399 . S
Tb337 O347 2.322 . S
Tb337 O348 2.349 . S
Tb337 O350 2.415 . S
Tb337 O351 2.399 . S
Tb337 O352 2.325 . S
Tb337 O355 2.303 . S
Tb337 C366 2.764 . S
C338 O354 1.261 . S
C338 O355 1.257 . S
C339 C342 1.358 . S
C339 C343 1.332 . S
C339 C345 1.504 . S
C340 C341 1.373 . S
C340 C344 1.308 . S
C341 C340 1.373 . S
C341 C342 1.429 . S
C341 H368 0.932 . S
C342 C339 1.358 . S
C342 C341 1.429 . S
C342 H369 0.930 . S
C343 C339 1.332 . S
C343 C344 1.394 . S
C343 H370 0.932 . S
C344 C340 1.308 . S
C344 C343 1.394 . S
C344 H371 0.929 . S
C345 Tb336 2.764 1_554 S
C345 C339 1.504 . S
C345 O357 1.239 . S
C345 O358 1.263 1_554 S
O346 Tb336 2.325 . S
O346 C356 1.236 . S
O347 Tb337 2.322 . S
O347 C356 1.257 . S
O348 Tb337 2.349 . S
O348 C359 1.261 . S
O349 Tb336 2.303 . S
O349 C359 1.257 . S
O350 Tb337 2.415 . S
O350 C366 1.239 . S
O351 Tb337 2.399 . S
O351 C366 1.263 . S
O352 Tb337 2.325 . S
O352 C367 1.236 . S
O353 Tb336 2.322 . S
O353 C367 1.257 . S
O354 Tb336 2.349 . S
O354 C338 1.261 . S
O355 Tb337 2.303 . S
O355 C338 1.257 . S
C356 O346 1.236 . S
C356 O347 1.257 . S
O357 Tb336 2.415 1_554 S
O357 C345 1.239 . S
O358 Tb336 2.399 . S
O358 C345 1.263 1_556 S
C359 O348 1.261 . S
C359 O349 1.257 . S
C360 C363 1.358 . S
C360 C364 1.332 . S
C360 C366 1.504 . S
C361 C362 1.373 . S
C361 C365 1.308 . S
C362 C361 1.373 . S
C362 C363 1.429 . S
C362 H372 0.932 . S
C363 C360 1.358 . S
C363 C362 1.429 . S
C363 H373 0.930 . S
C364 C360 1.332 . S
C364 C365 1.394 . S
C364 H374 0.932 . S
C365 C361 1.308 . S
C365 C364 1.394 . S
C365 H375 0.929 . S
C366 Tb337 2.764 . S
C366 O350 1.239 . S
C366 O351 1.263 . S
C366 C360 1.504 . S
C367 O352 1.236 . S
C367 O353 1.257 . S
H368 C341 0.932 . S
H369 C342 0.930 . S
H370 C343 0.932 . S
H371 C344 0.929 . S
H372 C362 0.932 . S
H373 C363 0.930 . S
H374 C364 0.932 . S
H375 C365 0.929 . S
Tb376 C385 2.764 . S
Tb376 O386 2.325 . S
Tb376 O389 2.303 . S
Tb376 O393 2.322 1_455 S
Tb376 O394 2.349 . S
Tb376 O397 2.415 . S
Tb376 O398 2.399 . S
Tb377 O387 2.322 1_655 S
Tb377 O388 2.349 . S
Tb377 O390 2.415 1_556 S
Tb377 O391 2.399 . S
Tb377 O392 2.325 . S
Tb377 O395 2.303 . S
Tb377 C406 2.764 1_556 S
C378 O394 1.261 . S
C378 O395 1.257 1_455 S
C379 C382 1.358 . S
C379 C383 1.332 . S
C379 C385 1.504 . S
C380 C381 1.373 . S
C380 C384 1.308 . S
C381 C380 1.373 . S
C381 C382 1.429 . S
C381 H408 0.932 . S
C382 C379 1.358 . S
C382 C381 1.429 . S
C382 H409 0.930 . S
C383 C379 1.332 . S
C383 C384 1.394 . S
C383 H410 0.932 . S
C384 C380 1.308 . S
C384 C383 1.394 . S
C384 H411 0.929 . S
C385 Tb376 2.764 . S
C385 C379 1.504 . S
C385 O397 1.239 . S
C385 O398 1.263 . S
O386 Tb376 2.325 . S
O386 C396 1.236 . S
O387 Tb377 2.322 1_455 S
O387 C396 1.257 . S
O388 Tb377 2.349 . S
O388 C399 1.261 . S
O389 Tb376 2.303 . S
O389 C399 1.257 1_455 S
O390 Tb377 2.415 1_554 S
O390 C406 1.239 . S
O391 Tb377 2.399 . S
O391 C406 1.263 1_556 S
O392 Tb377 2.325 . S
O392 C407 1.236 . S
O393 Tb376 2.322 1_655 S
O393 C407 1.257 . S
O394 Tb376 2.349 . S
O394 C378 1.261 . S
O395 Tb377 2.303 . S
O395 C378 1.257 1_655 S
C396 O386 1.236 . S
C396 O387 1.257 . S
O397 Tb376 2.415 . S
O397 C385 1.239 . S
O398 Tb376 2.399 . S
O398 C385 1.263 . S
C399 O388 1.261 . S
C399 O389 1.257 1_655 S
C400 C403 1.358 . S
C400 C404 1.332 . S
C400 C406 1.504 . S
C401 C402 1.373 . S
C401 C405 1.308 . S
C402 C401 1.373 . S
C402 C403 1.429 . S
C402 H412 0.932 . S
C403 C400 1.358 . S
C403 C402 1.429 . S
C403 H413 0.930 . S
C404 C400 1.332 . S
C404 C405 1.394 . S
C404 H414 0.932 . S
C405 C401 1.308 . S
C405 C404 1.394 . S
C405 H415 0.929 . S
C406 Tb377 2.764 1_554 S
C406 O390 1.239 . S
C406 O391 1.263 1_554 S
C406 C400 1.504 . S
C407 O392 1.236 . S
C407 O393 1.257 . S
H408 C381 0.932 . S
H409 C382 0.930 . S
H410 C383 0.932 . S
H411 C384 0.929 . S
H412 C402 0.932 . S
H413 C403 0.930 . S
H414 C404 0.932 . S
H415 C405 0.929 . S
C416 C417 1.379 . S
C416 C418 1.419 . S
C416 H420 0.930 . S
C417 C416 1.379 . S
C417 C426 1.415 1_545 S
C418 C416 1.419 . S
C418 C419 1.363 . S
C418 H421 0.929 . S
C419 C418 1.363 . S
C419 C425 1.428 1_545 S
H420 C416 0.930 . S
H421 C418 0.929 . S
S422 N423 1.613 . S
S422 N424 1.610 . S
N423 S422 1.613 . S
N423 C426 1.350 . S
N424 S422 1.610 . S
N424 C425 1.351 . S
C425 C419 1.428 1_565 S
C425 N424 1.351 . S
C425 C426 1.434 . S
C426 C417 1.415 1_565 S
C426 N423 1.350 . S
C426 C425 1.434 . S
C427 C428 1.369 . S
C427 C429 1.419 . S
C427 H431 0.930 . S
C428 C427 1.369 . S
C428 C437 1.429 . S
C429 C427 1.419 . S
C429 C430 1.363 . S
C429 H432 0.929 . S
C430 C429 1.363 . S
C430 C436 1.428 . S
H431 C427 0.930 . S
H432 C429 0.929 . S
S433 N434 1.613 . S
S433 N435 1.610 . S
N434 S433 1.613 . S
N434 C437 1.350 . S
N435 S433 1.610 . S
N435 C436 1.351 . S
C436 C430 1.428 . S
C436 N435 1.351 . S
C436 C437 1.434 . S
C437 C428 1.429 . S
C437 N434 1.350 . S
C437 C436 1.434 . S
C438 C439 1.369 . S
C438 C440 1.419 . S
C438 H442 0.930 . S
C439 C438 1.369 . S
C439 C448 1.429 . S
C440 C438 1.419 . S
C440 C441 1.363 . S
C440 H443 0.929 . S
C441 C440 1.363 . S
C441 C447 1.428 . S
H442 C438 0.930 . S
H443 C440 0.929 . S
S444 N445 1.613 . S
S444 N446 1.610 . S
N445 S444 1.613 . S
N445 C448 1.350 . S
N446 S444 1.610 . S
N446 C447 1.351 . S
C447 C441 1.428 . S
C447 N446 1.351 . S
C447 C448 1.434 . S
C448 C439 1.429 . S
C448 N445 1.350 . S
C448 C447 1.434 . S
C449 C450 1.352 1_655 S
C449 C451 1.419 . S
C449 H453 0.930 . S
C450 C449 1.352 1_455 S
C450 C459 1.448 . S
C451 C449 1.419 . S
C451 C452 1.363 1_655 S
C451 H454 0.929 . S
C452 C451 1.363 1_455 S
C452 C458 1.428 . S
H453 C449 0.930 . S
H454 C451 0.929 . S
S455 N456 1.613 . S
S455 N457 1.610 . S
N456 S455 1.613 . S
N456 C459 1.350 . S
N457 S455 1.610 . S
N457 C458 1.351 . S
C458 C452 1.428 . S
C458 N457 1.351 . S
C458 C459 1.434 . S
C459 C450 1.448 . S
C459 N456 1.350 . S
C459 C458 1.434 . S
C460 C461 1.346 1_545 S
C460 C462 1.419 . S
C460 H464 0.930 . S
C461 C460 1.346 1_565 S
C461 C470 1.445 . S
C462 C460 1.419 . S
C462 C463 1.363 1_545 S
C462 H465 0.929 . S
C463 C462 1.363 1_565 S
C463 C469 1.428 . S
H464 C460 0.930 . S
H465 C462 0.929 . S
S466 N467 1.613 . S
S466 N468 1.610 . S
N467 S466 1.613 . S
N467 C470 1.350 . S
N468 S466 1.610 . S
N468 C469 1.351 . S
C469 C463 1.428 . S
C469 N468 1.351 . S
C469 C470 1.434 . S
C470 C461 1.445 . S
C470 N467 1.350 . S
C470 C469 1.434 . S
C471 C472 1.369 . S
C471 C473 1.419 . S
C471 H475 0.930 . S
C472 C471 1.369 . S
C472 C481 1.429 . S
C473 C471 1.419 . S
C473 C474 1.363 . S
C473 H476 0.929 . S
C474 C473 1.363 . S
C474 C480 1.428 . S
H475 C471 0.930 . S
H476 C473 0.929 . S
S477 N478 1.613 . S
S477 N479 1.610 . S
N478 S477 1.613 . S
N478 C481 1.350 1_554 S
N479 S477 1.610 . S
N479 C480 1.351 1_554 S
C480 C474 1.428 . S
C480 N479 1.351 1_556 S
C480 C481 1.434 . S
C481 C472 1.429 . S
C481 N478 1.350 1_556 S
C481 C480 1.434 . S
C482 C483 1.369 . S
C482 C484 1.419 . S
C482 H486 0.930 . S
C483 C482 1.369 . S
C483 C492 1.429 . S
C484 C482 1.419 . S
C484 C485 1.363 . S
C484 H487 0.929 . S
C485 C484 1.363 . S
C485 C491 1.428 . S
H486 C482 0.930 . S
H487 C484 0.929 . S
S488 N489 1.613 . S
S488 N490 1.610 . S
N489 S488 1.613 . S
N489 C492 1.350 . S
N490 S488 1.610 . S
N490 C491 1.351 . S
C491 C485 1.428 . S
C491 N490 1.351 . S
C491 C492 1.434 . S
C492 C483 1.429 . S
C492 N489 1.350 . S
C492 C491 1.434 . S
C493 C494 1.374 . S
C493 C495 1.419 . S
C493 H497 0.930 . S
C494 C493 1.374 . S
C494 C503 1.425 1_655 S
C495 C493 1.419 . S
C495 C496 1.363 . S
C495 H498 0.929 . S
C496 C495 1.363 . S
C496 C502 1.428 1_655 S
H497 C493 0.930 . S
H498 C495 0.929 . S
S499 N500 1.613 . S
S499 N501 1.610 . S
N500 S499 1.613 . S
N500 C503 1.350 . S
N501 S499 1.610 . S
N501 C502 1.351 . S
C502 C496 1.428 1_455 S
C502 N501 1.351 . S
C502 C503 1.434 . S
C503 C494 1.425 1_455 S
C503 N500 1.350 . S
C503 C502 1.434 . S
C504 C505 1.369 . S
C504 C506 1.419 . S
C504 H508 0.930 1_655 S
C505 C504 1.369 . S
C505 C514 1.429 . S
C506 C504 1.419 . S
C506 C507 1.363 . S
C506 H509 0.929 . S
C507 C506 1.363 . S
C507 C513 1.428 . S
H508 C504 0.930 1_455 S
H509 C506 0.929 . S
S510 N511 1.613 . S
S510 N512 1.610 . S
N511 S510 1.613 . S
N511 C514 1.350 . S
N512 S510 1.610 . S
N512 C513 1.351 . S
C513 C507 1.428 . S
C513 N512 1.351 . S
C513 C514 1.434 . S
C514 C505 1.429 . S
C514 N511 1.350 . S
C514 C513 1.434 . S
C515 C516 1.369 . S
C515 C517 1.419 1_545 S
C515 H519 0.930 . S
C516 C515 1.369 . S
C516 C525 1.429 1_545 S
C517 C515 1.419 1_565 S
C517 C518 1.363 . S
C517 H520 0.929 . S
C518 C517 1.363 . S
C518 C524 1.428 . S
H519 C515 0.930 . S
H520 C517 0.929 . S
S521 N522 1.613 . S
S521 N523 1.610 . S
N522 S521 1.613 . S
N522 C525 1.350 . S
N523 S521 1.610 . S
N523 C524 1.351 . S
C524 C518 1.428 . S
C524 N523 1.351 . S
C524 C525 1.434 . S
C525 C516 1.429 1_565 S
C525 N522 1.350 . S
C525 C524 1.434 . S
C526 C527 1.369 . S
C526 C528 1.419 . S
C526 H530 0.930 . S
C527 C526 1.369 . S
C527 C536 1.429 . S
C528 C526 1.419 . S
C528 C529 1.363 . S
C528 H531 0.929 . S
C529 C528 1.363 . S
C529 C535 1.428 . S
H530 C526 0.930 . S
H531 C528 0.929 . S
S532 N533 1.613 . S
S532 N534 1.610 . S
N533 S532 1.613 . S
N533 C536 1.350 . S
N534 S532 1.610 . S
N534 C535 1.351 . S
C535 C529 1.428 . S
C535 N534 1.351 . S
C535 C536 1.434 . S
C536 C527 1.429 . S
C536 N533 1.350 . S
C536 C535 1.434 . S
C537 C538 1.369 . S
C537 C539 1.419 . S
C537 H541 0.930 . S
C538 C537 1.369 . S
C538 C547 1.429 . S
C539 C537 1.419 . S
C539 C540 1.363 . S
C539 H542 0.929 . S
C540 C539 1.363 . S
C540 C546 1.428 . S
H541 C537 0.930 . S
H542 C539 0.929 . S
S543 N544 1.613 . S
S543 N545 1.610 . S
N544 S543 1.613 . S
N544 C547 1.350 . S
N545 S543 1.610 . S
N545 C546 1.351 . S
C546 C540 1.428 . S
C546 N545 1.351 . S
C546 C547 1.434 . S
C547 C538 1.429 . S
C547 N544 1.350 . S
C547 C546 1.434 . S
C548 C549 1.369 . S
C548 C550 1.419 . S
C548 H552 0.930 1_455 S
C549 C548 1.369 . S
C549 C558 1.429 . S
C550 C548 1.419 . S
C550 C551 1.363 . S
C550 H553 0.929 . S
C551 C550 1.363 . S
C551 C557 1.428 . S
H552 C548 0.930 1_655 S
H553 C550 0.929 . S
S554 N555 1.613 . S
S554 N556 1.610 . S
N555 S554 1.613 . S
N555 C558 1.350 . S
N556 S554 1.610 . S
N556 C557 1.351 . S
C557 C551 1.428 . S
C557 N556 1.351 . S
C557 C558 1.434 . S
C558 C549 1.429 . S
C558 N555 1.350 . S
C558 C557 1.434 . S
C559 C560 1.369 . S
C559 C561 1.419 1_565 S
C559 H563 0.930 . S
C560 C559 1.369 . S
C560 C569 1.429 1_565 S
C561 C559 1.419 1_545 S
C561 C562 1.363 . S
C561 H564 0.929 . S
C562 C561 1.363 . S
C562 C568 1.428 . S
H563 C559 0.930 . S
H564 C561 0.929 . S
S565 N566 1.613 . S
S565 N567 1.610 . S
N566 S565 1.613 . S
N566 C569 1.350 . S
N567 S565 1.610 . S
N567 C568 1.351 . S
C568 C562 1.428 . S
C568 N567 1.351 . S
C568 C569 1.434 . S
C569 C560 1.429 1_545 S
C569 N566 1.350 . S
C569 C568 1.434 . S
C570 C571 1.369 . S
C570 C572 1.419 . S
C570 H574 0.930 . S
C571 C570 1.369 . S
C571 C580 1.429 . S
C572 C570 1.419 . S
C572 C573 1.363 . S
C572 H575 0.929 . S
C573 C572 1.363 . S
C573 C579 1.428 . S
H574 C570 0.930 . S
H575 C572 0.929 . S
S576 N577 1.613 1_554 S
S576 N578 1.610 1_554 S
N577 S576 1.613 1_556 S
N577 C580 1.350 . S
N578 S576 1.610 1_556 S
N578 C579 1.351 . S
C579 C573 1.428 . S
C579 N578 1.351 . S
C579 C580 1.434 . S
C580 C571 1.429 . S
C580 N577 1.350 . S
C580 C579 1.434 . S
C581 C582 1.369 . S
C581 C583 1.419 . S
C581 H585 0.930 . S
C582 C581 1.369 . S
C582 C591 1.429 . S
C583 C581 1.419 . S
C583 C584 1.363 . S
C583 H586 0.929 . S
C584 C583 1.363 . S
C584 C590 1.428 . S
H585 C581 0.930 . S
H586 C583 0.929 . S
S587 N588 1.613 . S
S587 N589 1.610 . S
N588 S587 1.613 . S
N588 C591 1.350 . S
N589 S587 1.610 . S
N589 C590 1.351 . S
C590 C584 1.428 . S
C590 N589 1.351 . S
C590 C591 1.434 . S
C591 C582 1.429 . S
C591 N588 1.350 . S
C591 C590 1.434 . S
C592 C593 1.369 1_655 S
C592 C594 1.419 . S
C592 H596 0.930 . S
C593 C592 1.369 1_455 S
C593 C602 1.429 . S
C594 C592 1.419 . S
C594 C595 1.363 1_655 S
C594 H597 0.929 . S
C595 C594 1.363 1_455 S
C595 C601 1.428 . S
H596 C592 0.930 . S
H597 C594 0.929 . S
S598 N599 1.613 . S
S598 N600 1.610 . S
N599 S598 1.613 . S
N599 C602 1.350 1_554 S
N600 S598 1.610 . S
N600 C601 1.351 1_554 S
C601 C595 1.428 . S
C601 N600 1.351 1_556 S
C601 C602 1.434 . S
C602 C593 1.429 . S
C602 N599 1.350 1_556 S
C602 C601 1.434 . S
C603 C604 1.369 . S
C603 C605 1.419 . S
C603 H607 0.930 . S
C604 C603 1.369 . S
C604 C613 1.429 1_545 S
C605 C603 1.419 . S
C605 C606 1.363 . S
C605 H608 0.929 . S
C606 C605 1.363 . S
C606 C612 1.428 1_545 S
H607 C603 0.930 . S
H608 C605 0.929 . S
S609 N610 1.613 . S
S609 N611 1.610 . S
N610 S609 1.613 . S
N610 C613 1.350 . S
N611 S609 1.610 . S
N611 C612 1.351 . S
C612 C606 1.428 1_565 S
C612 N611 1.351 . S
C612 C613 1.434 . S
C613 C604 1.429 1_565 S
C613 N610 1.350 . S
C613 C612 1.434 . S
C614 C615 1.369 . S
C614 C616 1.419 . S
C614 H618 0.930 . S
C615 C614 1.369 . S
C615 C624 1.429 . S
C616 C614 1.419 . S
C616 C617 1.363 . S
C616 H619 0.929 . S
C617 C616 1.363 . S
C617 C623 1.428 . S
H618 C614 0.930 . S
H619 C616 0.929 . S
S620 N621 1.613 . S
S620 N622 1.610 . S
N621 S620 1.613 . S
N621 C624 1.350 . S
N622 S620 1.610 . S
N622 C623 1.351 . S
C623 C617 1.428 . S
C623 N622 1.351 . S
C623 C624 1.434 . S
C624 C615 1.429 . S
C624 N621 1.350 . S
C624 C623 1.434 . S
C625 C626 1.369 . S
C625 C627 1.419 . S
C625 H629 0.930 . S
C626 C625 1.369 . S
C626 C635 1.429 . S
C627 C625 1.419 . S
C627 C628 1.363 . S
C627 H630 0.929 . S
C628 C627 1.363 . S
C628 C634 1.428 . S
H629 C625 0.930 . S
H630 C627 0.929 . S
S631 N632 1.613 . S
S631 N633 1.610 . S
N632 S631 1.613 . S
N632 C635 1.350 1_554 S
N633 S631 1.610 . S
N633 C634 1.351 1_554 S
C634 C628 1.428 . S
C634 N633 1.351 1_556 S
C634 C635 1.434 . S
C635 C626 1.429 . S
C635 N632 1.350 1_556 S
C635 C634 1.434 . S
C636 C637 1.369 . S
C636 C638 1.419 . S
C636 H640 0.930 . S
C637 C636 1.369 . S
C637 C646 1.429 1_655 S
C638 C636 1.419 . S
C638 C639 1.363 . S
C638 H641 0.929 . S
C639 C638 1.363 . S
C639 C645 1.428 1_655 S
H640 C636 0.930 . S
H641 C638 0.929 . S
S642 N643 1.613 . S
S642 N644 1.610 . S
N643 S642 1.613 . S
N643 C646 1.350 . S
N644 S642 1.610 . S
N644 C645 1.351 . S
C645 C639 1.428 1_455 S
C645 N644 1.351 . S
C645 C646 1.434 . S
C646 C637 1.429 1_455 S
C646 N643 1.350 . S
C646 C645 1.434 . S
C647 C648 1.369 1_545 S
C647 C649 1.419 . S
C647 H651 0.930 . S
C648 C647 1.369 1_565 S
C648 C657 1.429 . S
C649 C647 1.419 . S
C649 C650 1.363 1_545 S
C649 H652 0.929 . S
C650 C649 1.363 1_565 S
C650 C656 1.428 . S
H651 C647 0.930 . S
H652 C649 0.929 . S
S653 N654 1.613 . S
S653 N655 1.610 . S
N654 S653 1.613 . S
N654 C657 1.350 . S
N655 S653 1.610 . S
N655 C656 1.351 . S
C656 C650 1.428 . S
C656 N655 1.351 . S
C656 C657 1.434 . S
C657 C648 1.429 . S
C657 N654 1.350 . S
C657 C656 1.434 . S
C658 C659 1.369 . S
C658 C660 1.419 . S
C658 H662 0.930 . S
C659 C658 1.369 . S
C659 C668 1.429 . S
C660 C658 1.419 . S
C660 C661 1.363 . S
C660 H663 0.929 . S
C661 C660 1.363 . S
C661 C667 1.428 . S
H662 C658 0.930 . S
H663 C660 0.929 . S
S664 N665 1.613 . S
S664 N666 1.610 . S
N665 S664 1.613 . S
N665 C668 1.350 . S
N666 S664 1.610 . S
N666 C667 1.351 . S
C667 C661 1.428 . S
C667 N666 1.351 . S
C667 C668 1.434 . S
C668 C659 1.429 . S
C668 N665 1.350 . S
C668 C667 1.434 . S
C669 C670 1.369 . S
C669 C671 1.419 . S
C669 H673 0.930 . S
C670 C669 1.369 . S
C670 C679 1.429 . S
C671 C669 1.419 . S
C671 C672 1.363 . S
C671 H674 0.929 . S
C672 C671 1.363 . S
C672 C678 1.428 . S
H673 C669 0.930 . S
H674 C671 0.929 . S
S675 N676 1.613 . S
S675 N677 1.610 . S
N676 S675 1.613 . S
N676 C679 1.350 . S
N677 S675 1.610 . S
N677 C678 1.351 . S
C678 C672 1.428 . S
C678 N677 1.351 . S
C678 C679 1.434 . S
C679 C670 1.429 . S
C679 N676 1.350 . S
C679 C678 1.434 . S
C417 C215 2.401 . S
C419 C279 2.660 1_545 S
C430 C319 1.734 . S
C428 C247 1.730 . S
C441 C338 2.709 . S
C439 C151 2.501 . S
C452 C399 1.953 1_455 S
C450 C183 1.751 . S
C463 C258 2.664 1_564 S
C461 C87 2.407 1_565 S
C472 C119 1.606 . S
C474 C298 1.737 . S
C483 C23 2.387 . S
C485 C359 2.711 1_554 S
C494 C55 1.743 1_655 S
C496 C378 1.957 1_654 S
C507 C260 1.070 . S
C505 C189 1.205 1_655 S
C518 C300 0.590 . S
C516 C221 0.439 . S
C529 C356 1.460 . S
C527 C253 1.379 . S
C538 C157 0.762 . S
C540 C380 0.768 . S
C549 C61 1.032 . S
C551 C281 1.074 . S
C562 C321 0.589 . S
C560 C93 0.634 1_565 S
C573 C367 1.458 . S
C571 C125 1.144 . S
C582 C29 0.742 . S
C584 C401 0.773 . S
C593 C177 2.160 . S
C595 C276 2.502 . S
C604 C209 2.818 . S
C606 C316 3.176 . S
C617 C340 1.923 . S
C615 C241 1.889 . S
C628 C396 3.161 . S
C626 C145 2.830 . S
C637 C49 2.214 1_655 S
C639 C287 2.508 . S
C650 C327 3.176 . S
C648 C81 2.839 1_565 S
C661 C361 1.918 . S
C659 C113 1.971 . S
C670 C17 2.811 . S
C672 C407 3.163 . S
