# Generated by pormake.
# Topology zzz, (3,6)-cn, num edge types: 1
# Building blocks:
#     Node 0, Type 0, BuildingBlock: BELTOD_clean_linker_0, # of connection points: 3
#     Node 1, Type 0, BuildingBlock: BELTOD_clean_linker_0, # of connection points: 3
#     Node 2, Type 0, BuildingBlock: BELTOD_clean_linker_0, # of connection points: 3
#     Node 3, Type 0, BuildingBlock: BELTOD_clean_linker_0, # of connection points: 3
#     Node 4, Type 0, BuildingBlock: BELTOD_clean_linker_0, # of connection points: 3
#     Node 5, Type 0, BuildingBlock: BELTOD_clean_linker_0, # of connection points: 3
#     Node 6, Type 0, BuildingBlock: BELTOD_clean_linker_0, # of connection points: 3
#     Node 7, Type 0, BuildingBlock: BELTOD_clean_linker_0, # of connection points: 3
#     Node 8, Type 1, BuildingBlock: PAMTOO_clean_sbu_0, # of connection points: 6
#     Node 9, Type 1, BuildingBlock: PAMTOO_clean_sbu_0, # of connection points: 6
#     Node 10, Type 1, BuildingBlock: PAMTOO_clean_sbu_0, # of connection points: 6
#     Node 11, Type 1, BuildingBlock: PAMTOO_clean_sbu_0, # of connection points: 6
#     Edge 12, Type (0, 1), BuildingBlock: OJICUG_clean_linker_0, # of connection points: 2
#     Edge 13, Type (0, 1), BuildingBlock: OJICUG_clean_linker_0, # of connection points: 2
#     Edge 14, Type (0, 1), BuildingBlock: OJICUG_clean_linker_0, # of connection points: 2
#     Edge 15, Type (0, 1), BuildingBlock: OJICUG_clean_linker_0, # of connection points: 2
#     Edge 16, Type (0, 1), BuildingBlock: OJICUG_clean_linker_0, # of connection points: 2
#     Edge 17, Type (0, 1), BuildingBlock: OJICUG_clean_linker_0, # of connection points: 2
#     Edge 18, Type (0, 1), BuildingBlock: OJICUG_clean_linker_0, # of connection points: 2
#     Edge 19, Type (0, 1), BuildingBlock: OJICUG_clean_linker_0, # of connection points: 2
#     Edge 20, Type (0, 1), BuildingBlock: OJICUG_clean_linker_0, # of connection points: 2
#     Edge 21, Type (0, 1), BuildingBlock: OJICUG_clean_linker_0, # of connection points: 2
#     Edge 22, Type (0, 1), BuildingBlock: OJICUG_clean_linker_0, # of connection points: 2
#     Edge 23, Type (0, 1), BuildingBlock: OJICUG_clean_linker_0, # of connection points: 2
#     Edge 24, Type (0, 1), BuildingBlock: OJICUG_clean_linker_0, # of connection points: 2
#     Edge 25, Type (0, 1), BuildingBlock: OJICUG_clean_linker_0, # of connection points: 2
#     Edge 26, Type (0, 1), BuildingBlock: OJICUG_clean_linker_0, # of connection points: 2
#     Edge 27, Type (0, 1), BuildingBlock: OJICUG_clean_linker_0, # of connection points: 2
#     Edge 28, Type (0, 1), BuildingBlock: OJICUG_clean_linker_0, # of connection points: 2
#     Edge 29, Type (0, 1), BuildingBlock: OJICUG_clean_linker_0, # of connection points: 2
#     Edge 30, Type (0, 1), BuildingBlock: OJICUG_clean_linker_0, # of connection points: 2
#     Edge 31, Type (0, 1), BuildingBlock: OJICUG_clean_linker_0, # of connection points: 2
#     Edge 32, Type (0, 1), BuildingBlock: OJICUG_clean_linker_0, # of connection points: 2
#     Edge 33, Type (0, 1), BuildingBlock: OJICUG_clean_linker_0, # of connection points: 2
#     Edge 34, Type (0, 1), BuildingBlock: OJICUG_clean_linker_0, # of connection points: 2
#     Edge 35, Type (0, 1), BuildingBlock: OJICUG_clean_linker_0, # of connection points: 2
# Relax obj value: 0.382
# Max RMSD: 0.284
# Mean RMSD: 0.214
data_MOF--net-zzz--node1-PAMTOO_clean_sbu_0--node2-BELTOD_clean_linker_0--edge1-OJICUG_clean_linker_0
_symmetry_space_group_name_H-M    P1
_symmetry_Int_Tables_number       1
_symmetry_cell_setting            triclinic
loop_
_symmetry_equiv_pos_as_xyz
'x, y, z'
_cell_length_a     47.396917
_cell_length_b     39.297217
_cell_length_c     14.949165
_cell_angle_alpha  93.116854
_cell_angle_beta   79.276863
_cell_angle_gamma 84.180217
loop_
_atom_site_label
_atom_site_type_symbol
_atom_site_fract_x
_atom_site_fract_y
_atom_site_fract_z
_atom_type_partial_charge
P0 P 0.76545 0.46078 0.62273 0.0
H1 H 0.77322 0.48542 0.80466 0.0
H2 H 0.81623 0.50091 0.85749 0.0
H3 H 0.85955 0.50454 0.57771 0.0
H4 H 0.81628 0.4896 0.52558 0.0
H5 H 0.70771 0.44723 0.60462 0.0
H6 H 0.67777 0.46191 0.49395 0.0
H7 H 0.73925 0.52859 0.3744 0.0
H8 H 0.76954 0.51319 0.48587 0.0
H9 H 0.80623 0.40815 0.67186 0.0
H10 H 0.77624 0.43632 0.42764 0.0
O11 O 0.746 0.44561 0.7137 0.0
H12 H 0.84749 0.37212 0.57853 0.0
H13 H 0.8172 0.40117 0.33502 0.0
C14 C 0.79126 0.48649 0.66091 0.0
C15 C 0.79151 0.49087 0.75459 0.0
C16 C 0.81641 0.49922 0.78484 0.0
C17 C 0.84172 0.50329 0.72203 0.0
C18 C 0.84053 0.50181 0.62839 0.0
C19 C 0.81557 0.49353 0.59826 0.0
C20 C 0.74068 0.47958 0.55512 0.0
C21 C 0.71443 0.46585 0.55653 0.0
C22 C 0.69722 0.47428 0.49266 0.0
C23 C 0.70595 0.49648 0.42463 0.0
C24 C 0.73191 0.51115 0.42511 0.0
C25 C 0.74913 0.50274 0.48967 0.0
C26 C 0.78825 0.4252 0.55698 0.0
C27 C 0.80787 0.40557 0.5985 0.0
C28 C 0.83156 0.3852 0.54511 0.0
C29 C 0.83585 0.38413 0.44935 0.0
C30 C 0.81449 0.40112 0.40856 0.0
C31 C 0.79097 0.42159 0.4619 0.0
P32 P 0.02779 0.69202 0.5144 0.0
H33 H 0.02178 0.71957 0.70302 0.0
H34 H 1.01091 0.77832 0.7666 0.0
H35 H 0.97446 0.80557 0.5321 0.0
H36 H 0.98754 0.74688 0.46579 0.0
H37 H 0.04871 0.62148 0.45391 0.0
H38 H 0.03548 0.58066 0.34567 0.0
H39 H 0.96063 0.65057 0.32692 0.0
H40 H 0.97442 0.69178 0.43544 0.0
H41 H 0.073 0.73385 0.53908 0.0
H42 H 0.03372 0.69952 0.31704 0.0
O43 O 0.04714 0.67201 0.5822 0.0
H44 H 0.09302 0.77871 0.44812 0.0
H45 H 0.05395 0.74381 0.22602 0.0
C46 C 1.00528 0.72831 0.57963 0.0
C47 C 1.01035 0.73773 0.66666 0.0
C48 C 1.00415 0.7718 0.70317 0.0
C49 C 0.99236 0.79739 0.65392 0.0
C50 C 0.98434 0.78702 0.5712 0.0
C51 C 0.991 0.75297 0.53409 0.0
C52 C 1.01249 0.65969 0.45362 0.0
C53 C 0.02895 0.62774 0.42874 0.0
C54 C 0.02128 0.60423 0.36656 0.0
C55 C 0.99699 0.61219 0.32683 0.0
C56 C 0.97969 0.64369 0.3552 0.0
C57 C 0.98741 0.66726 0.41794 0.0
C58 C 0.05196 0.71325 0.43485 0.0
C59 C 0.06984 0.73487 0.4693 0.0
C60 C 0.08105 0.76067 0.41773 0.0
C61 C 0.07477 0.76483 0.3306 0.0
C62 C 0.0593 0.74096 0.29279 0.0
C63 C 0.04773 0.71552 0.34495 0.0
P64 P 0.76776 0.04346 0.42253 0.0
H65 H 0.73979 0.04785 0.61468 0.0
H66 H 0.69419 0.03153 0.68779 0.0
H67 H 0.69181 0.96599 0.44754 0.0
H68 H 0.73689 0.98543 0.37156 0.0
H69 H 0.82588 0.0632 0.4125 0.0
H70 H 0.87094 0.04833 0.30483 0.0
H71 H 0.83296 0.96922 0.1721 0.0
H72 H 0.78723 0.98434 0.28206 0.0
H73 H 0.71487 0.08948 0.46686 0.0
H74 H 0.77212 0.04419 0.22111 0.0
O75 O 0.7743 0.07392 0.49584 0.0
H76 H 0.67826 0.10631 0.37852 0.0
H77 H 0.73589 0.06174 0.13204 0.0
C78 C 0.74239 0.01773 0.48725 0.0
C79 C 0.7301 0.02909 0.57813 0.0
C80 C 0.70347 0.01951 0.6206 0.0
C81 C 0.68822 0.99751 0.57444 0.0
C82 C 0.70195 0.98374 0.48566 0.0
C83 C 0.72844 0.99408 0.44235 0.0
C84 C 0.80284 0.02485 0.35654 0.0
C85 C 0.82718 0.04193 0.36225 0.0
C86 C 0.85324 0.03337 0.3 0.0
C87 C 0.8558 0.00765 0.22889 0.0
C88 C 0.83178 0.98941 0.22535 0.0
C89 C 0.80565 0.99774 0.28902 0.0
C90 C 0.74604 0.06492 0.35124 0.0
C91 C 0.71996 0.08413 0.39343 0.0
C92 C 0.69903 0.0939 0.34263 0.0
C93 C 0.70395 0.08482 0.24834 0.0
C94 C 0.7312 0.06838 0.20497 0.0
C95 C 0.75204 0.05834 0.2561 0.0
P96 P 0.47473 0.75953 0.36426 0.0
H97 H 0.48294 0.75841 0.55412 0.0
H98 H 0.50408 0.71171 0.63065 0.0
H99 H 0.54406 0.66012 0.36889 0.0
H100 H 0.52339 0.70735 0.29242 0.0
H101 H 0.44257 0.80865 0.2749 0.0
H102 H 0.45625 0.85046 0.16457 0.0
H103 H 0.54594 0.82531 0.17955 0.0
H104 H 0.53204 0.78249 0.28985 0.0
H105 H 0.4458 0.70042 0.42151 0.0
H106 H 0.4763 0.74406 0.16737 0.0
O107 O 0.44744 0.77756 0.44547 0.0
H108 H 0.43821 0.64808 0.33654 0.0
H109 H 0.46788 0.69255 0.08306 0.0
C110 C 0.50127 0.73624 0.4174 0.0
C111 C 0.49745 0.73799 0.51299 0.0
C112 C 0.50952 0.71115 0.55688 0.0
C113 C 0.52529 0.68199 0.50569 0.0
C114 C 0.53179 0.68217 0.41001 0.0
C115 C 0.52017 0.70933 0.36626 0.0
C116 C 0.48625 0.79253 0.29069 0.0
C117 C 0.46518 0.81226 0.25524 0.0
C118 C 0.47303 0.83602 0.1918 0.0
C119 C 0.50216 0.84094 0.16304 0.0
C120 C 0.52332 0.82199 0.20077 0.0
C121 C 0.51542 0.79759 0.26362 0.0
C122 C 0.46135 0.72635 0.30106 0.0
C123 C 0.44976 0.69933 0.34761 0.0
C124 C 0.44552 0.66943 0.2992 0.0
C125 C 0.45232 0.66642 0.2034 0.0
C126 C 0.46199 0.69445 0.1569 0.0
C127 C 0.46682 0.72402 0.20531 0.0
P128 P 0.25592 0.44038 0.09544 0.0
H129 H 0.23365 0.39173 0.97729 0.0
H130 H 0.1935 0.39893 0.8977 0.0
H131 H 0.19088 0.50911 0.93999 0.0
H132 H 0.23277 0.50131 0.01258 0.0
H133 H 0.3106 0.39485 0.06076 0.0
H134 H 0.35486 0.40304 0.11489 0.0
H135 H 0.32725 0.51195 0.1617 0.0
H136 H 0.28462 0.50364 0.09842 0.0
H137 H 0.19579 0.47347 0.15278 0.0
H138 H 0.27339 0.46372 0.2658 0.0
O139 O 0.25435 0.40016 0.12501 0.0
H140 H 0.17355 0.51672 0.27374 0.0
H141 H 0.25113 0.50758 0.38727 0.0
C142 C 0.23595 0.44597 1.00322 0.0
C143 C 0.22519 0.41749 0.96641 0.0
C144 C 0.20156 0.42173 0.92233 0.0
C145 C 0.18749 0.45465 0.91567 0.0
C146 C 0.20054 0.48321 0.94361 0.0
C147 C 0.22484 0.47885 0.98519 0.0
C148 C 0.29359 0.44845 0.07893 0.0
C149 C 0.31475 0.42074 0.07821 0.0
C150 C 0.3399 0.42546 0.11181 0.0
C151 C 0.34405 0.4579 0.14943 0.0
C152 C 0.325 0.48635 0.1357 0.0
C153 C 0.30038 0.48168 0.09856 0.0
C154 C 0.23734 0.46758 0.19469 0.0
C155 C 0.20854 0.48139 0.2014 0.0
C156 C 0.19576 0.50625 0.27097 0.0
C157 C 0.21123 0.51702 0.33697 0.0
C158 C 0.2391 0.50075 0.33535 0.0
C159 C 0.25186 0.47581 0.26549 0.0
P160 P 0.06536 0.30413 0.07721 0.0
H161 H 0.07229 0.27483 0.88933 0.0
H162 H 0.05751 0.22122 0.83377 0.0
H163 H 0.9967 0.21967 0.08643 0.0
H164 H 1.0121 0.27274 0.14312 0.0
H165 H 0.09156 0.36467 0.12216 0.0
H166 H 0.07873 0.40607 0.25361 0.0
H167 H 0.99355 0.3728 0.31344 0.0
H168 H 1.00688 0.33084 0.18193 0.0
H169 H 0.09589 0.23498 0.0522 0.0
H170 H 0.05745 0.30789 0.27932 0.0
O171 O 0.09477 0.31084 1.00254 0.0
H172 H 0.08996 0.18831 0.15276 0.0
H173 H 0.04973 0.26217 0.37694 0.0
C174 C 0.04315 0.27853 0.02036 0.0
C175 C 0.05477 0.26406 0.93149 0.0
C176 C 0.04662 0.23297 0.90007 0.0
C177 C 0.02632 0.21588 0.95634 0.0
C178 C 1.01232 0.23227 0.04126 0.0
C179 C 0.02077 0.26319 0.07317 0.0
C180 C 0.05027 0.34438 0.14156 0.0
C181 C 0.06963 0.36727 0.16076 0.0
C182 C 0.06227 0.391 0.23688 0.0
C183 C 0.03532 0.39231 0.29599 0.0
C184 C 0.01479 0.37194 0.27082 0.0
C185 C 0.02222 0.34818 0.19436 0.0
C186 C 0.07597 0.27489 0.15682 0.0
C187 C 0.08714 0.24116 0.12416 0.0
C188 C 0.08323 0.2144 0.18147 0.0
C189 C 0.06814 0.22121 0.27212 0.0
C190 C 0.06113 0.25556 0.3075 0.0
C191 C 0.06529 0.28214 0.25053 0.0
P192 P 0.24103 0.05717 0.22332 0.0
H193 H 0.26415 0.06784 0.03139 0.0
H194 H 0.31275 0.05187 0.94306 0.0
H195 H 0.32852 0.97706 0.13407 0.0
H196 H 0.27958 0.99298 0.22201 0.0
H197 H 0.18562 0.09566 0.29873 0.0
H198 H 0.14216 0.0823 0.39676 0.0
H199 H 0.17663 0.97541 0.37244 0.0
H200 H 0.22102 0.98945 0.27363 0.0
H201 H 0.29026 0.0945 0.22685 0.0
H202 H 0.24034 0.0303 0.40488 0.0
O203 O 0.23373 0.0955 0.18454 0.0
H204 H 0.33123 0.08116 0.30153 0.0
H205 H 0.28106 0.01754 0.48021 0.0
C206 C 0.26782 0.03188 0.13443 0.0
C207 C 0.27739 0.04679 0.05232 0.0
C208 C 0.30556 0.03782 1.00183 0.0
C209 C 0.32507 0.01379 0.0324 0.0
C210 C 0.31442 0.99624 0.10925 0.0
C211 C 0.28605 0.00486 0.15886 0.0
C212 C 0.20656 0.04352 0.27636 0.0
C213 C 0.1837 0.06908 0.31172 0.0
C214 C 0.15859 0.06135 0.36856 0.0
C215 C 0.15546 0.02767 0.39303 0.0
C216 C 0.17818 0.00171 0.35582 0.0
C217 C 0.20347 0.00957 0.29803 0.0
C218 C 0.26231 0.06314 0.30933 0.0
C219 C 0.28748 0.07916 0.28526 0.0
C220 C 0.31099 0.07123 0.32709 0.0
C221 C 0.30926 0.04785 0.39498 0.0
C222 C 0.2828 0.03557 0.42764 0.0
C223 C 0.25944 0.043 0.38455 0.0
P224 P 0.44785 0.2743 0.3796 0.0
H225 H 0.42603 0.28755 0.21165 0.0
H226 H 0.44075 0.32649 0.09507 0.0
H227 H 0.51936 0.33527 0.19848 0.0
H228 H 0.5056 0.294 0.30826 0.0
H229 H 0.41357 0.23306 0.50094 0.0
H230 H 0.4252 0.18075 0.5724 0.0
H231 H 0.51086 0.16827 0.40534 0.0
H232 H 0.49874 0.22109 0.33222 0.0
H233 H 0.43111 0.34634 0.43596 0.0
H234 H 0.49207 0.26526 0.49435 0.0
O235 O 0.41209 0.28313 0.39118 0.0
H236 H 0.45552 0.38852 0.50941 0.0
H237 H 0.5168 0.30727 0.56597 0.0
C238 C 0.46439 0.28817 0.27027 0.0
C239 C 0.44704 0.29667 0.20653 0.0
C240 C 0.45525 0.31983 0.14097 0.0
C241 C 0.48077 0.3357 0.13887 0.0
C242 C 0.49949 0.32416 0.19691 0.0
C243 C 0.4916 0.30024 0.26055 0.0
C244 C 0.45509 0.23078 0.40995 0.0
C245 C 0.43461 0.21863 0.4773 0.0
C246 C 0.44144 0.18888 0.51938 0.0
C247 C 0.46913 0.17057 0.49594 0.0
C248 C 0.48929 0.18172 0.42487 0.0
C249 C 0.48236 0.21176 0.3825 0.0
C250 C 0.45949 0.30261 0.46039 0.0
C251 C 0.44911 0.33748 0.46722 0.0
C252 C 0.46339 0.36158 0.50778 0.0
C253 C 0.48843 0.35113 0.54152 0.0
C254 C 0.49756 0.316 0.54051 0.0
C255 C 0.48327 0.2919 0.49981 0.0
Dy256 Dy 0.98667 0.02096 0.74481 0.0
Dy257 Dy 0.02953 0.99331 0.87624 0.0
C258 C 0.05488 0.01023 0.6737 0.0
O259 O 0.9953 0.9642 0.70965 0.0
O260 O 1.00869 0.94695 0.84152 0.0
O261 O 0.97731 0.02105 0.60869 0.0
O262 O 0.95126 0.05555 0.71732 0.0
O263 O 0.98491 0.00257 0.96571 0.0
O264 O 0.9561 1.00141 0.85775 0.0
O265 O 0.03462 0.04916 0.86411 0.0
O266 O 0.98898 0.065 0.844 0.0
O267 O 0.04376 0.99657 0.00547 0.0
O268 O 0.06794 0.96204 0.89308 0.0
C269 C 1.00011 0.94009 0.76442 0.0
O270 O 0.03134 0.03155 0.68042 0.0
O271 O 0.05632 0.98755 0.73424 0.0
C272 C 0.97138 0.07859 0.58211 0.0
C273 C 1.00342 0.12504 0.48056 0.0
C274 C 1.00847 0.11722 0.56715 0.0
C275 C 0.99234 0.09486 0.6176 0.0
C276 C 0.96568 0.08643 0.49655 0.0
C277 C 0.98131 0.10994 0.44657 0.0
C278 C 0.96016 0.0496 0.62926 0.0
C279 C 0.95937 1.00073 0.94321 0.0
C280 C 0.01303 0.07306 0.86629 0.0
C281 C 0.06894 0.94497 0.0402 0.0
C282 C 0.07672 0.8889 0.14556 0.0
C283 C 0.04996 0.90942 0.15975 0.0
C284 C 0.04602 0.93716 0.10705 0.0
C285 C 0.09589 0.92515 0.02802 0.0
C286 C 0.09973 0.89721 0.07991 0.0
C287 C 0.06511 0.9723 0.9789 0.0
H288 H 0.02565 0.12723 0.59537 0.0
H289 H 0.99741 0.08891 0.68296 0.0
H290 H 0.94985 0.07375 0.46749 0.0
H291 H 0.97633 0.11581 0.38096 0.0
H292 H 0.03178 0.90325 0.20928 0.0
H293 H 0.02496 0.95194 0.11718 0.0
H294 H 0.11382 0.93084 0.97673 0.0
H295 H 0.12058 0.88187 0.06812 0.0
Dy296 Dy 0.50267 0.97538 0.71752 0.0
Dy297 Dy 0.51165 0.02596 0.88695 0.0
C298 C 0.49652 0.05563 0.70681 0.0
O299 O 0.55077 0.9678 0.70563 0.0
O300 O 0.55497 0.0167 0.79198 0.0
O301 O 0.51015 0.96029 0.57296 0.0
O302 O 0.4798 0.93579 0.66737 0.0
O303 O 0.52569 0.97369 0.92681 0.0
O304 O 0.50479 0.94099 0.8307 0.0
O305 O 0.46684 0.01143 0.9303 0.0
O306 O 0.45833 1.00041 0.78678 0.0
O307 O 0.51414 0.0388 0.02779 0.0
O308 O 0.51939 0.07695 0.92893 0.0
C309 C 0.56649 0.99053 0.73325 0.0
O310 O 0.50902 0.02656 0.66421 0.0
O311 O 0.48906 0.05817 0.7961 0.0
C312 C 0.46417 0.9568 0.54086 0.0
C313 C 0.41345 0.98407 0.48724 0.0
C314 C 0.42796 0.00475 0.53824 0.0
C315 C 0.45311 0.99129 0.56437 0.0
C316 C 0.45023 0.9361 0.48772 0.0
C317 C 0.42502 0.94985 0.46006 0.0
C318 C 0.48794 0.94283 0.58294 0.0
C319 C 0.51662 0.9446 0.90301 0.0
C320 C 0.44879 0.00621 0.87536 0.0
C321 C 0.54893 0.07653 0.03816 0.0
C322 C 0.60122 0.0868 0.09331 0.0
C323 C 0.60125 0.07332 1.00429 0.0
C324 C 0.57536 0.06812 0.97713 0.0
C325 C 0.54864 0.09091 0.12616 0.0
C326 C 0.57463 0.09607 0.15362 0.0
C327 C 0.52194 0.06901 0.01075 0.0
H328 H 0.41964 0.0313 0.55878 0.0
H329 H 0.46342 0.00766 0.60577 0.0
H330 H 0.45832 0.90934 0.46994 0.0
H331 H 0.41405 0.93357 0.42034 0.0
H332 H 0.62134 0.0663 0.95597 0.0
H333 H 0.57603 0.05705 0.90875 0.0
H334 H 0.5284 0.09744 0.17414 0.0
H335 H 0.57395 0.10609 0.22302 0.0
Dy336 Dy 0.54647 0.50845 0.85037 0.0
Dy337 Dy 0.48337 0.50272 0.7708 0.0
C338 C 0.50298 0.45454 0.92906 0.0
O339 O 0.55051 0.46127 0.75573 0.0
O340 O 0.52408 0.48978 0.67023 0.0
O341 O 0.5894 0.4863 0.86314 0.0
O342 O 0.57447 0.5392 0.90997 0.0
O343 O 0.49815 0.55092 0.71848 0.0
O344 O 0.54566 0.54594 0.74059 0.0
O345 O 0.4683 0.53589 0.89993 0.0
O346 O 0.51145 0.53913 0.95242 0.0
O347 O 0.44319 0.51857 0.72695 0.0
O348 O 0.4621 0.46536 0.70434 0.0
C349 C 0.54012 0.46211 0.68085 0.0
O350 O 0.52462 0.47177 0.94085 0.0
O351 O 0.48686 0.46123 0.86764 0.0
C352 C 0.60903 0.51027 0.98584 0.0
C353 C 0.63993 0.50749 0.13176 0.0
C354 C 0.61273 0.52709 0.1426 0.0
C355 C 0.59748 0.52848 0.0706 0.0
C356 C 0.63586 0.49023 0.97542 0.0
C357 C 0.65107 0.48876 0.04733 0.0
C358 C 0.59493 0.51402 0.9054 0.0
C359 C 0.52405 0.56123 0.7074 0.0
C360 C 0.48336 0.54705 0.95907 0.0
C361 C 0.43063 0.48403 0.60571 0.0
C362 C 0.40866 0.47442 0.44277 0.0
C363 C 0.43104 0.49532 0.4464 0.0
C364 C 0.442 0.50001 0.52715 0.0
C365 C 0.40846 0.4633 0.6021 0.0
C366 C 0.39757 0.45863 0.5222 0.0
C367 C 0.4411 0.48781 0.69272 0.0
H368 H 0.60349 0.54213 0.20603 0.0
H369 H 0.57693 0.54436 0.08088 0.0
H370 H 0.64536 0.47608 0.91079 0.0
H371 H 0.67161 0.47285 0.03656 0.0
H372 H 0.44028 0.50775 0.38671 0.0
H373 H 0.45928 0.51599 0.5282 0.0
H374 H 0.39934 0.45074 0.66181 0.0
H375 H 0.37996 0.44302 0.52355 0.0
Dy376 Dy 0.01881 0.52673 0.79321 0.0
Dy377 Dy 1.00717 0.45397 0.87994 0.0
C378 C 0.02338 0.45817 0.66214 0.0
O379 O 0.97442 0.51953 0.77094 0.0
O380 O 0.96284 0.4804 0.87748 0.0
O381 O 0.02266 0.56202 0.68661 0.0
O382 O 0.03312 0.57633 0.81729 0.0
O383 O 1.00625 0.4931 0.99648 0.0
O384 O 0.99076 0.54036 0.92966 0.0
O385 O 0.05511 0.4503 0.83053 0.0
O386 O 0.05809 0.50752 0.84736 0.0
O387 O 0.01947 0.41577 0.9682 0.0
O388 O 0.98505 0.40853 0.89478 0.0
C389 C 0.95552 0.50175 0.81813 0.0
O390 O 0.03415 0.4872 0.67525 0.0
O391 O 1.00944 0.44313 0.73051 0.0
C392 C 0.06692 0.58291 0.68795 0.0
C393 C 0.12558 0.58076 0.6086 0.0
C394 C 0.11306 0.55035 0.62535 0.0
C395 C 0.0841 0.55144 0.66398 0.0
C396 C 0.07946 0.61356 0.67601 0.0
C397 C 0.10866 0.61254 0.63407 0.0
C398 C 0.0367 0.5819 0.73104 0.0
C399 C 0.99514 0.52539 1.00277 0.0
C400 C 0.0703 0.47583 0.8406 0.0
C401 C 0.9809 0.38756 0.03978 0.0
C402 C 0.94115 0.37124 0.19127 0.0
C403 C 0.95162 0.4035 0.18987 0.0
C404 C 0.97124 0.41163 0.11466 0.0
C405 C 0.97157 0.35484 0.04228 0.0
C406 C 0.95174 0.34672 0.11748 0.0
C407 C 0.99896 0.39724 0.95658 0.0
H408 H 0.12538 0.52549 0.60472 0.0
H409 H 0.07507 0.52745 0.6746 0.0
H410 H 0.06676 0.63796 0.69875 0.0
H411 H 0.11793 0.63628 0.62093 0.0
H412 H 0.94353 0.42317 0.24481 0.0
H413 H 0.97809 0.43712 0.11367 0.0
H414 H 0.97896 0.33595 0.98498 0.0
H415 H 0.94415 0.32164 0.11698 0.0
C416 C 0.13132 0.99746 0.52829 0.0
C417 C 0.1292 0.02068 0.46053 0.0
H418 H 0.1099 0.97597 0.64826 0.0
C419 C 0.10195 0.03906 0.46171 0.0
H420 H 0.15185 0.98307 0.53073 0.0
C421 C 0.07798 0.03533 0.52989 0.0
C422 C 0.0803 0.01287 0.59901 0.0
H423 H 0.09908 0.05669 0.41007 0.0
H424 H 0.05762 0.05036 0.52862 0.0
C425 C 0.10722 0.99358 0.59641 0.0
C426 C 0.46831 0.14361 0.64521 0.0
C427 C 0.477 0.14123 0.54945 0.0
H428 H 0.46767 0.11886 0.76967 0.0
C429 C 0.49276 0.11065 0.50615 0.0
H430 H 0.45654 0.16698 0.68107 0.0
C431 C 0.49915 0.08295 0.55721 0.0
C432 C 0.49017 0.08527 0.65293 0.0
H433 H 0.49966 0.10788 0.43262 0.0
H434 H 0.51102 0.05962 0.52142 0.0
C435 C 0.47483 0.11605 0.69623 0.0
C436 C 0.37612 0.49216 0.2313 0.0
C437 C 0.36489 0.46104 0.21384 0.0
H438 H 0.39837 0.52105 0.31672 0.0
C439 C 0.37124 0.43358 0.26661 0.0
H440 H 0.37248 0.51383 0.19161 0.0
C441 C 0.38678 0.43752 0.33666 0.0
C442 C 0.39614 0.46925 0.35839 0.0
H443 H 0.36299 0.40921 0.25769 0.0
H444 H 0.39066 0.41575 0.37589 0.0
C445 C 0.39141 0.49624 0.30272 0.0
C446 C 0.04152 0.4424 0.40239 0.0
C447 C 0.03038 0.41101 0.38854 0.0
H448 H 0.04826 0.48184 0.49885 0.0
C449 C 0.01671 0.39577 0.46555 0.0
H450 H 0.05202 0.45505 0.34484 0.0
C451 C 0.01461 0.41106 0.5536 0.0
C452 C 0.02616 0.44209 0.56773 0.0
H453 H 1.0084 0.37131 0.45829 0.0
H454 H 1.00412 0.39821 0.61079 0.0
C455 C 0.03942 0.45775 0.49084 0.0
C456 C 0.88106 0.99769 0.06313 0.0
C457 C 0.88273 0.00203 0.15605 0.0
H458 H 0.90351 0.99402 0.92385 0.0
C459 C 0.91024 0.00382 0.1781 0.0
H460 H 0.86034 0.99658 0.04312 0.0
C461 C 0.9351 0.00246 0.10949 0.0
C462 C 0.93326 0.99943 0.01652 0.0
H463 H 0.91254 0.00674 0.24874 0.0
H464 H 0.9557 0.00456 0.12956 0.0
C465 C 0.90591 0.99651 0.99447 0.0
C466 C 0.49933 0.86206 0.01004 0.0
C467 C 0.50982 0.86512 0.09162 0.0
H468 H 0.49377 0.88406 0.88621 0.0
C469 C 0.52528 0.89287 0.1069 0.0
H470 H 0.48754 0.84076 0.99621 0.0
C471 C 0.52867 0.91815 0.04394 0.0
C472 C 0.51697 0.91586 0.96402 0.0
H473 H 0.5335 0.89587 0.16945 0.0
H474 H 0.53958 0.94002 0.05942 0.0
C475 C 0.503 0.88693 0.94686 0.0
C476 C 0.7029 0.50325 0.25932 0.0
C477 C 0.68888 0.50218 0.35064 0.0
H478 H 0.69873 0.50615 0.11966 0.0
C479 C 0.65847 0.50433 0.3696 0.0
H480 H 0.72625 0.50132 0.24157 0.0
C481 C 0.64264 0.50649 0.29922 0.0
C482 C 0.65671 0.50663 0.2076 0.0
H483 H 0.64681 0.50403 0.43904 0.0
H484 H 0.61936 0.50717 0.31665 0.0
C485 C 0.68707 0.50547 0.18895 0.0
C486 C 0.99789 0.5533 0.24823 0.0
C487 C 0.99181 0.58922 0.24977 0.0
H488 H 1.00346 0.50491 0.16981 0.0
C489 C 0.98365 0.60326 0.17255 0.0
H490 H 1.00374 0.54146 0.30695 0.0
C491 C 0.98322 0.58225 0.09426 0.0
C492 C 0.99106 0.54661 0.09074 0.0
H493 H 0.97911 0.63073 0.17043 0.0
H494 H 0.97801 0.59428 0.03499 0.0
C495 C 0.99757 0.53227 0.16966 0.0
C496 C 0.05039 0.19642 0.42065 0.0
C497 C 0.05549 0.19357 0.32483 0.0
H498 H 0.02851 0.17925 0.54419 0.0
C499 C 0.04458 0.16675 0.28033 0.0
H500 H 0.05882 0.21629 0.45754 0.0
C501 C 0.02817 0.14416 0.33051 0.0
C502 C 0.02166 0.14831 0.42641 0.0
H503 H 0.04757 0.16393 0.20662 0.0
H504 H 0.02039 0.12372 0.29372 0.0
C505 C 0.03323 0.17464 0.47064 0.0
C506 C 0.33867 0.03115 0.51138 0.0
C507 C 0.33585 0.03185 0.41988 0.0
H508 H 0.36593 0.0152 0.60435 0.0
C509 C 0.358 0.01527 0.35099 0.0
H510 H 0.32163 0.04343 0.56543 0.0
C511 C 0.38291 0.9986 0.373 0.0
C512 C 0.38612 0.9987 0.46422 0.0
H513 H 0.35582 0.01491 0.28019 0.0
H514 H 0.39993 0.98638 0.31876 0.0
C515 C 0.36382 0.01497 0.53337 0.0
C516 C 0.51113 0.40529 0.52001 0.0
C517 C 0.50591 0.37701 0.57166 0.0
H518 H 0.52724 0.45409 0.51334 0.0
C519 C 0.51691 0.37423 0.65233 0.0
H520 H 0.50363 0.4076 0.45619 0.0
C521 C 0.53092 0.40068 0.6844 0.0
C522 C 0.53403 0.4302 0.63604 0.0
H523 H 0.5133 0.35255 0.6931 0.0
H524 H 0.53729 0.39912 0.75013 0.0
C525 C 0.52507 0.43161 0.55188 0.0
C526 C 0.17846 0.57083 0.39284 0.0
C527 C 0.19679 0.54276 0.41151 0.0
H528 H 0.14117 0.60661 0.44497 0.0
C529 C 0.19711 0.53618 0.50269 0.0
H530 H 0.17844 0.57706 0.32313 0.0
C531 C 0.17624 0.55373 0.57257 0.0
C532 C 0.1547 0.57756 0.55154 0.0
H533 H 0.21117 0.51496 0.51931 0.0
H534 H 0.1745 0.5453 0.64104 0.0
C535 C 0.15749 0.58822 0.46271 0.0
C536 C 0.06989 0.82859 0.33466 0.0
C537 C 0.07988 0.79677 0.28561 0.0
H538 H 0.06105 0.88286 0.32835 0.0
C539 C 0.09112 0.79581 0.19168 0.0
H540 H 0.06069 0.82997 0.40695 0.0
C541 C 0.09136 0.82607 0.14687 0.0
C542 C 0.07995 0.85767 0.19511 0.0
H543 H 0.09884 0.77156 0.15252 0.0
H544 H 0.09914 0.82456 0.07373 0.0
C545 C 0.06979 0.85877 0.28968 0.0
C546 C 0.67582 0.06071 0.13922 0.0
C547 C 0.67954 0.08808 0.19883 0.0
H548 H 0.64813 0.03872 0.06046 0.0
C549 C 0.65814 0.11642 0.21816 0.0
H550 H 0.69151 0.03813 0.12438 0.0
C551 C 0.633 0.11662 0.18178 0.0
C552 C 0.62888 0.08857 0.1251 0.0
H553 H 0.66052 0.13806 0.2631 0.0
H554 H 0.6166 0.13846 0.1991 0.0
C555 C 0.65082 0.06097 0.10276 0.0
C556 C 0.47112 0.60454 0.17505 0.0
C557 C 0.45397 0.63277 0.15205 0.0
H558 H 0.49387 0.55479 0.13117 0.0
C559 C 0.44249 0.62992 0.07218 0.0
H560 H 0.48045 0.60619 0.23584 0.0
C561 C 0.44974 0.60018 0.01304 0.0
C562 C 0.46913 0.57331 0.03201 0.0
H563 H 0.42921 0.65138 0.05315 0.0
H564 H 0.44215 0.59948 0.94902 0.0
C565 C 0.47888 0.57519 0.11508 0.0
C566 C 0.88971 0.38081 0.4181 0.0
C567 C 0.86439 0.37128 0.39214 0.0
H568 H 0.93432 0.38748 0.37477 0.0
C569 C 0.86629 0.35529 0.30449 0.0
H570 H 0.88904 0.39335 0.48491 0.0
C571 C 0.89222 0.35237 0.24096 0.0
C572 C 0.91669 0.36537 0.26412 0.0
H573 H 0.84724 0.34724 0.28302 0.0
H574 H 0.89235 0.34261 0.1717 0.0
C575 C 0.91562 0.37783 0.35467 0.0
C576 C 0.04686 0.15505 0.90468 0.0
C577 C 0.0225 0.17956 0.93135 0.0
H578 H 0.06301 0.10241 0.86485 0.0
C579 C 0.9949 0.16869 0.93741 0.0
H580 H 0.06842 0.16251 0.90069 0.0
C581 C 0.99178 0.13419 0.91581 0.0
C582 C 0.01619 0.10963 0.88991 0.0
H583 H 0.97574 0.18693 0.95805 0.0
H584 H 0.97022 0.12669 0.92035 0.0
C585 C 0.04375 0.12052 0.88494 0.0
C586 C 0.36663 0.00989 0.89533 0.0
C587 C 0.35682 0.00982 0.99038 0.0
H588 H 0.40299 0.00848 0.7844 0.0
C589 C 0.37771 0.00814 0.04631 0.0
H590 H 0.35132 0.01105 0.84978 0.0
C591 C 0.40728 0.00711 0.00904 0.0
C592 C 0.41711 0.00735 0.91424 0.0
H593 H 0.37117 0.00858 0.11964 0.0
H594 H 0.42248 0.00615 0.05498 0.0
C595 C 0.39634 0.00839 0.85775 0.0
C596 C 0.51508 0.37375 0.05199 0.0
C597 C 0.48666 0.36574 0.08233 0.0
H598 H 0.54238 0.40829 0.98217 0.0
C599 C 0.4637 0.38795 0.06203 0.0
H600 H 0.53354 0.35731 0.06382 0.0
C601 C 0.46899 0.41666 0.01238 0.0
C602 C 0.49729 0.42474 0.98404 0.0
H603 H 0.44143 0.38374 0.08582 0.0
H604 H 0.45082 0.43295 0.99761 0.0
C605 C 0.52026 0.40307 1.00471 0.0
C606 C 0.13906 0.43369 0.90446 0.0
C607 C 0.15829 0.45893 0.8879 0.0
H608 H 0.09687 0.41885 0.90133 0.0
C609 C 0.14838 0.48903 0.85034 0.0
H610 H 0.14505 0.41047 0.9354 0.0
C611 C 0.12008 0.49423 0.83372 0.0
C612 C 0.10099 0.46916 0.85171 0.0
H613 H 0.16229 0.50894 0.83435 0.0
H614 H 0.1131 0.51808 0.80719 0.0
C615 C 0.11106 0.43855 0.8856 0.0
C616 C 0.9882 0.846 0.7765 0.0
C617 C 0.99157 0.83469 0.68352 0.0
H618 H 0.9886 0.88777 0.87482 0.0
C619 C 0.99663 0.85907 0.6182 0.0
H620 H 0.98374 0.82844 0.82933 0.0
C621 C 0.99865 0.89333 0.64477 0.0
C622 C 0.99633 0.90414 0.73723 0.0
H623 H 1.00012 0.85162 0.54589 0.0
H624 H 1.00303 0.91111 0.59236 0.0
C625 C 0.99087 0.88015 0.80287 0.0
C626 C 0.63752 0.98337 0.56114 0.0
C627 C 0.65754 0.9915 0.6162 0.0
H628 H 0.59354 0.9759 0.55477 0.0
C629 C 0.64713 0.99632 0.7116 0.0
H630 H 0.64387 0.97995 0.48765 0.0
C631 C 0.6178 0.99541 0.74934 0.0
C632 C 0.598 0.98816 0.6938 0.0
H633 H 0.66142 1.00132 0.75811 0.0
H634 H 0.61056 1.00052 0.82242 0.0
C635 C 0.60834 0.98125 0.59955 0.0
C636 C 0.54153 0.64838 0.63026 0.0
C637 C 0.52977 0.64952 0.55051 0.0
H638 H 0.54982 0.61876 0.7416 0.0
C639 C 0.51876 0.62021 0.51907 0.0
H640 H 0.54997 0.67072 0.65627 0.0
C641 C 0.51805 0.5911 0.56864 0.0
C642 C 0.52896 0.59026 0.64969 0.0
H643 H 0.50914 0.62046 0.45874 0.0
H644 H 0.50819 0.56949 0.54487 0.0
C645 C 0.54152 0.61873 0.6788 0.0
C646 C 0.87737 0.4855 0.82194 0.0
C647 C 0.86983 0.50571 0.75302 0.0
H648 H 0.90993 0.46841 0.89673 0.0
C649 C 0.8902 0.52627 0.71016 0.0
H650 H 0.86252 0.4689 0.85568 0.0
C651 C 0.91755 0.52586 0.73356 0.0
C652 C 0.92541 0.50479 0.80035 0.0
H653 H 0.88515 0.54244 0.65759 0.0
H654 H 0.93278 0.54154 0.6975 0.0
C655 C 0.90474 0.48504 0.84523 0.0
loop_
_geom_bond_atom_site_label_1
_geom_bond_atom_site_label_2
_geom_bond_distance
_geom_bond_site_symmetry_2
_ccdc_geom_bond_type
P0 O11 1.490 . S
P0 C14 1.812 . S
P0 C20 1.803 . S
P0 C26 1.819 . S
H1 C15 0.941 . S
H2 C16 0.939 . S
H3 C18 0.940 . S
H4 C19 0.940 . S
H5 C21 0.939 . S
H6 C22 0.942 . S
H7 C24 0.940 . S
H8 C25 0.939 . S
H9 C27 0.941 . S
H10 C31 0.939 . S
O11 P0 1.490 . S
H12 C28 0.939 . S
H13 C30 0.940 . S
C14 P0 1.812 . S
C14 C15 1.389 . S
C14 C19 1.391 . S
C15 H1 0.941 . S
C15 C14 1.389 . S
C15 C16 1.397 . S
C16 H2 0.939 . S
C16 C15 1.397 . S
C16 C17 1.378 . S
C17 C16 1.378 . S
C17 C18 1.378 . S
C18 H3 0.940 . S
C18 C17 1.378 . S
C18 C19 1.396 . S
C19 H4 0.940 . S
C19 C14 1.391 . S
C19 C18 1.396 . S
C20 P0 1.803 . S
C20 C21 1.378 . S
C20 C25 1.400 . S
C21 H5 0.939 . S
C21 C20 1.378 . S
C21 C22 1.361 . S
C22 H6 0.942 . S
C22 C21 1.361 . S
C22 C23 1.369 . S
C23 C22 1.369 . S
C23 C24 1.404 . S
C24 H7 0.940 . S
C24 C23 1.404 . S
C24 C25 1.389 . S
C25 H8 0.939 . S
C25 C20 1.400 . S
C25 C24 1.389 . S
C26 P0 1.819 . S
C26 C27 1.391 . S
C26 C31 1.391 . S
C27 H9 0.941 . S
C27 C26 1.391 . S
C27 C28 1.396 . S
C28 H12 0.939 . S
C28 C27 1.396 . S
C28 C29 1.397 . S
C29 C28 1.397 . S
C29 C30 1.385 . S
C30 H13 0.940 . S
C30 C29 1.385 . S
C30 C31 1.388 . S
C31 H10 0.939 . S
C31 C26 1.391 . S
C31 C30 1.388 . S
P32 O43 1.490 . S
P32 C46 1.812 . S
P32 C52 1.803 . S
P32 C58 1.819 . S
H33 C47 0.941 . S
H34 C48 0.939 . S
H35 C50 0.940 . S
H36 C51 0.953 . S
H37 C53 0.939 . S
H38 C54 0.942 . S
H39 C56 0.940 . S
H40 C57 0.953 . S
H41 C59 0.941 . S
H42 C63 0.926 1_655 S
O43 P32 1.490 . S
H44 C60 0.939 . S
H45 C62 0.940 . S
C46 P32 1.812 . S
C46 C47 1.389 . S
C46 C51 1.376 1_455 S
C47 H33 0.941 . S
C47 C46 1.389 . S
C47 C48 1.397 . S
C48 H34 0.939 . S
C48 C47 1.397 . S
C48 C49 1.378 . S
C49 C48 1.378 . S
C49 C50 1.378 1_455 S
C50 H35 0.940 . S
C50 C49 1.378 1_655 S
C50 C51 1.399 . S
C51 H36 0.953 . S
C51 C46 1.376 1_655 S
C51 C50 1.399 . S
C52 P32 1.803 . S
C52 C53 1.378 . S
C52 C57 1.369 1_455 S
C53 H37 0.939 . S
C53 C52 1.378 . S
C53 C54 1.361 . S
C54 H38 0.942 . S
C54 C53 1.361 . S
C54 C55 1.369 . S
C55 C54 1.369 . S
C55 C56 1.404 1_455 S
C56 H39 0.940 . S
C56 C55 1.404 1_655 S
C56 C57 1.407 . S
C57 H40 0.953 . S
C57 C52 1.369 1_655 S
C57 C56 1.407 . S
C58 P32 1.819 . S
C58 C59 1.391 . S
C58 C63 1.391 . S
C59 H41 0.941 . S
C59 C58 1.391 . S
C59 C60 1.396 . S
C60 H44 0.939 . S
C60 C59 1.396 . S
C60 C61 1.397 . S
C61 C60 1.397 . S
C61 C62 1.385 1_455 S
C62 H45 0.940 . S
C62 C61 1.385 1_655 S
C62 C63 1.388 1_655 S
C63 H42 0.926 1_455 S
C63 C58 1.391 . S
C63 C62 1.388 1_455 S
P64 O75 1.490 . S
P64 C78 1.812 . S
P64 C84 1.803 . S
P64 C90 1.819 . S
H65 C79 0.941 . S
H66 C80 0.939 . S
H67 C82 0.940 . S
H68 C83 0.949 . S
H69 C85 0.939 . S
H70 C86 0.942 . S
H71 C88 0.940 . S
H72 C89 0.963 . S
H73 C91 0.941 . S
H74 C95 0.932 1_565 S
O75 P64 1.490 . S
H76 C92 0.939 . S
H77 C94 0.940 . S
C78 P64 1.812 . S
C78 C79 1.389 . S
C78 C83 1.374 1_545 S
C79 H65 0.941 . S
C79 C78 1.389 . S
C79 C80 1.397 . S
C80 H66 0.939 . S
C80 C79 1.397 . S
C80 C81 1.378 . S
C81 C80 1.378 . S
C81 C82 1.378 1_545 S
C82 H67 0.940 . S
C82 C81 1.378 1_565 S
C82 C83 1.404 . S
C83 H68 0.949 . S
C83 C78 1.374 1_565 S
C83 C82 1.404 . S
C84 P64 1.803 . S
C84 C85 1.378 . S
C84 C89 1.369 1_545 S
C85 H69 0.939 . S
C85 C84 1.378 . S
C85 C86 1.361 . S
C86 H70 0.942 . S
C86 C85 1.361 . S
C86 C87 1.369 . S
C87 C86 1.369 . S
C87 C88 1.404 1_545 S
C88 H71 0.940 . S
C88 C87 1.404 1_565 S
C88 C89 1.398 . S
C89 H72 0.963 . S
C89 C84 1.369 1_565 S
C89 C88 1.398 . S
C90 P64 1.819 . S
C90 C91 1.391 . S
C90 C95 1.391 . S
C91 H73 0.941 . S
C91 C90 1.391 . S
C91 C92 1.396 . S
C92 H76 0.939 . S
C92 C91 1.396 . S
C92 C93 1.397 . S
C93 C92 1.397 . S
C93 C94 1.385 1_545 S
C94 H77 0.940 . S
C94 C93 1.385 1_565 S
C94 C95 1.388 1_565 S
C95 H74 0.932 1_545 S
C95 C90 1.391 . S
C95 C94 1.388 1_545 S
P96 O107 1.490 . S
P96 C110 1.812 . S
P96 C116 1.803 . S
P96 C122 1.819 . S
H97 C111 0.941 . S
H98 C112 0.939 . S
H99 C114 0.940 . S
H100 C115 0.940 . S
H101 C117 0.939 . S
H102 C118 0.942 . S
H103 C120 0.940 . S
H104 C121 0.939 . S
H105 C123 0.941 . S
H106 C127 0.939 . S
O107 P96 1.490 . S
H108 C124 0.939 . S
H109 C126 0.940 1_556 S
C110 P96 1.812 . S
C110 C111 1.389 . S
C110 C115 1.391 . S
C111 H97 0.941 . S
C111 C110 1.389 . S
C111 C112 1.397 . S
C112 H98 0.939 . S
C112 C111 1.397 . S
C112 C113 1.378 . S
C113 C112 1.378 . S
C113 C114 1.378 . S
C114 H99 0.940 . S
C114 C113 1.378 . S
C114 C115 1.396 . S
C115 H100 0.940 . S
C115 C110 1.391 . S
C115 C114 1.396 . S
C116 P96 1.803 . S
C116 C117 1.378 . S
C116 C121 1.400 . S
C117 H101 0.939 . S
C117 C116 1.378 . S
C117 C118 1.361 . S
C118 H102 0.942 . S
C118 C117 1.361 . S
C118 C119 1.369 . S
C119 C118 1.369 . S
C119 C120 1.404 . S
C120 H103 0.940 . S
C120 C119 1.404 . S
C120 C121 1.389 . S
C121 H104 0.939 . S
C121 C116 1.400 . S
C121 C120 1.389 . S
C122 P96 1.819 . S
C122 C123 1.391 . S
C122 C127 1.391 . S
C123 H105 0.941 . S
C123 C122 1.391 . S
C123 C124 1.396 . S
C124 H108 0.939 . S
C124 C123 1.396 . S
C124 C125 1.397 . S
C125 C124 1.397 . S
C125 C126 1.385 . S
C126 H109 0.940 1_554 S
C126 C125 1.385 . S
C126 C127 1.388 . S
C127 H106 0.939 . S
C127 C122 1.391 . S
C127 C126 1.388 . S
P128 O139 1.490 . S
P128 C142 1.812 . S
P128 C148 1.803 1_556 S
P128 C154 1.819 1_556 S
H129 C143 0.941 . S
H130 C144 0.939 . S
H131 C146 0.940 . S
H132 C147 0.940 . S
H133 C149 0.939 . S
H134 C150 0.942 . S
H135 C152 0.940 1_556 S
H136 C153 0.939 . S
H137 C155 0.941 . S
H138 C159 0.939 . S
O139 P128 1.490 . S
H140 C156 0.939 . S
H141 C158 0.940 . S
C142 P128 1.812 . S
C142 C143 1.389 . S
C142 C147 1.391 . S
C143 H129 0.941 . S
C143 C142 1.389 . S
C143 C144 1.397 . S
C144 H130 0.939 . S
C144 C143 1.397 . S
C144 C145 1.378 . S
C145 C144 1.378 . S
C145 C146 1.378 . S
C146 H131 0.940 . S
C146 C145 1.378 . S
C146 C147 1.396 . S
C147 H132 0.940 . S
C147 C142 1.391 . S
C147 C146 1.396 . S
C148 P128 1.803 1_554 S
C148 C149 1.378 . S
C148 C153 1.400 1_554 S
C149 H133 0.939 . S
C149 C148 1.378 . S
C149 C150 1.361 . S
C150 H134 0.942 . S
C150 C149 1.361 . S
C150 C151 1.369 . S
C151 C150 1.369 . S
C151 C152 1.404 . S
C152 H135 0.940 1_554 S
C152 C151 1.404 . S
C152 C153 1.389 1_554 S
C153 H136 0.939 . S
C153 C148 1.400 1_556 S
C153 C152 1.389 1_556 S
C154 P128 1.819 1_554 S
C154 C155 1.391 . S
C154 C159 1.391 . S
C155 H137 0.941 . S
C155 C154 1.391 . S
C155 C156 1.396 . S
C156 H140 0.939 . S
C156 C155 1.396 . S
C156 C157 1.397 . S
C157 C156 1.397 . S
C157 C158 1.385 . S
C158 H141 0.940 . S
C158 C157 1.385 . S
C158 C159 1.388 . S
C159 H138 0.939 . S
C159 C154 1.391 . S
C159 C158 1.388 . S
P160 O171 1.490 . S
P160 C174 1.812 . S
P160 C180 1.803 . S
P160 C186 1.819 . S
H161 C175 0.941 . S
H162 C176 0.939 . S
H163 C178 0.940 . S
H164 C179 0.943 . S
H165 C181 0.939 . S
H166 C182 0.942 . S
H167 C184 0.940 . S
H168 C185 0.958 . S
H169 C187 0.941 . S
H170 C191 0.935 1_655 S
O171 P160 1.490 . S
H172 C188 0.939 . S
H173 C190 0.940 . S
C174 P160 1.812 . S
C174 C175 1.389 1_554 S
C174 C179 1.383 1_455 S
C175 H161 0.941 . S
C175 C174 1.389 1_556 S
C175 C176 1.397 . S
C176 H162 0.939 . S
C176 C175 1.397 . S
C176 C177 1.378 . S
C177 C176 1.378 . S
C177 C178 1.378 1_455 S
C178 H163 0.940 . S
C178 C177 1.378 1_655 S
C178 C179 1.401 1_556 S
C179 H164 0.943 . S
C179 C174 1.383 1_655 S
C179 C178 1.401 1_554 S
C180 P160 1.803 . S
C180 C181 1.378 . S
C180 C185 1.377 1_455 S
C181 H165 0.939 . S
C181 C180 1.378 . S
C181 C182 1.361 . S
C182 H166 0.942 . S
C182 C181 1.361 . S
C182 C183 1.369 . S
C183 C182 1.369 . S
C183 C184 1.404 1_455 S
C184 H167 0.940 . S
C184 C183 1.404 1_655 S
C184 C185 1.395 . S
C185 H168 0.958 . S
C185 C180 1.377 1_655 S
C185 C184 1.395 . S
C186 P160 1.819 . S
C186 C187 1.391 . S
C186 C191 1.391 . S
C187 H169 0.941 . S
C187 C186 1.391 . S
C187 C188 1.396 . S
C188 H172 0.939 . S
C188 C187 1.396 . S
C188 C189 1.397 . S
C189 C188 1.397 . S
C189 C190 1.385 1_455 S
C190 H173 0.940 . S
C190 C189 1.385 1_655 S
C190 C191 1.388 1_655 S
C191 H170 0.935 1_455 S
C191 C186 1.391 . S
C191 C190 1.388 1_455 S
P192 O203 1.490 . S
P192 C206 1.812 . S
P192 C212 1.803 . S
P192 C218 1.819 . S
H193 C207 0.941 . S
H194 C208 0.939 . S
H195 C210 0.940 . S
H196 C211 0.946 . S
H197 C213 0.939 . S
H198 C214 0.942 . S
H199 C216 0.940 . S
H200 C217 0.952 . S
H201 C219 0.941 . S
H202 C223 0.929 1_565 S
O203 P192 1.490 . S
H204 C220 0.939 . S
H205 C222 0.940 . S
C206 P192 1.812 . S
C206 C207 1.389 . S
C206 C211 1.383 1_545 S
C207 H193 0.941 . S
C207 C206 1.389 . S
C207 C208 1.397 1_554 S
C208 H194 0.939 . S
C208 C207 1.397 1_556 S
C208 C209 1.378 . S
C209 C208 1.378 . S
C209 C210 1.378 1_546 S
C210 H195 0.940 . S
C210 C209 1.378 1_564 S
C210 C211 1.399 . S
C211 H196 0.946 . S
C211 C206 1.383 1_565 S
C211 C210 1.399 . S
C212 P192 1.803 . S
C212 C213 1.378 . S
C212 C217 1.375 1_545 S
C213 H197 0.939 . S
C213 C212 1.378 . S
C213 C214 1.361 . S
C214 H198 0.942 . S
C214 C213 1.361 . S
C214 C215 1.369 . S
C215 C214 1.369 . S
C215 C216 1.404 1_545 S
C216 H199 0.940 . S
C216 C215 1.404 1_565 S
C216 C217 1.402 . S
C217 H200 0.952 . S
C217 C212 1.375 1_565 S
C217 C216 1.402 . S
C218 P192 1.819 . S
C218 C219 1.391 . S
C218 C223 1.391 . S
C219 H201 0.941 . S
C219 C218 1.391 . S
C219 C220 1.396 . S
C220 H204 0.939 . S
C220 C219 1.396 . S
C220 C221 1.397 . S
C221 C220 1.397 . S
C221 C222 1.385 1_545 S
C222 H205 0.940 . S
C222 C221 1.385 1_565 S
C222 C223 1.388 1_565 S
C223 H202 0.929 1_545 S
C223 C218 1.391 . S
C223 C222 1.388 1_545 S
P224 O235 1.490 . S
P224 C238 1.812 . S
P224 C244 1.803 . S
P224 C250 1.819 . S
H225 C239 0.941 . S
H226 C240 0.939 . S
H227 C242 0.940 . S
H228 C243 0.940 . S
H229 C245 0.939 . S
H230 C246 0.942 . S
H231 C248 0.940 . S
H232 C249 0.939 . S
H233 C251 0.941 . S
H234 C255 0.939 . S
O235 P224 1.490 . S
H236 C252 0.939 . S
H237 C254 0.940 . S
C238 P224 1.812 . S
C238 C239 1.389 . S
C238 C243 1.391 . S
C239 H225 0.941 . S
C239 C238 1.389 . S
C239 C240 1.397 . S
C240 H226 0.939 . S
C240 C239 1.397 . S
C240 C241 1.378 . S
C241 C240 1.378 . S
C241 C242 1.378 . S
C242 H227 0.940 . S
C242 C241 1.378 . S
C242 C243 1.396 . S
C243 H228 0.940 . S
C243 C238 1.391 . S
C243 C242 1.396 . S
C244 P224 1.803 . S
C244 C245 1.378 . S
C244 C249 1.400 . S
C245 H229 0.939 . S
C245 C244 1.378 . S
C245 C246 1.361 . S
C246 H230 0.942 . S
C246 C245 1.361 . S
C246 C247 1.369 . S
C247 C246 1.369 . S
C247 C248 1.404 . S
C248 H231 0.940 . S
C248 C247 1.404 . S
C248 C249 1.389 . S
C249 H232 0.939 . S
C249 C244 1.400 . S
C249 C248 1.389 . S
C250 P224 1.819 . S
C250 C251 1.391 . S
C250 C255 1.391 . S
C251 H233 0.941 . S
C251 C250 1.391 . S
C251 C252 1.396 . S
C252 H236 0.939 . S
C252 C251 1.396 . S
C252 C253 1.397 . S
C253 C252 1.397 . S
C253 C254 1.385 . S
C254 H237 0.940 . S
C254 C253 1.385 . S
C254 C255 1.388 . S
C255 H234 0.939 . S
C255 C250 1.391 . S
C255 C254 1.388 . S
Dy256 O259 2.307 1_545 S
Dy256 O261 2.395 1_655 S
Dy256 O262 2.379 . S
Dy256 O264 2.339 . S
Dy256 O266 2.298 . S
Dy256 O270 2.275 1_655 S
Dy256 C278 2.738 . S
Dy257 O260 2.298 . S
Dy257 O263 2.275 1_455 S
Dy257 O265 2.307 1_565 S
Dy257 O267 2.395 1_456 S
Dy257 O268 2.379 . S
Dy257 O271 2.339 . S
Dy257 C287 2.738 . S
C258 O270 1.254 1_565 S
C258 O271 1.257 . S
O259 Dy256 2.307 1_565 S
O259 C269 1.266 . S
O260 Dy257 2.298 . S
O260 C269 1.236 1_455 S
O261 Dy256 2.395 1_455 S
O261 C278 1.255 1_455 S
O262 Dy256 2.379 . S
O262 C278 1.249 . S
O263 Dy257 2.275 1_655 S
O263 C279 1.254 1_565 S
O264 Dy256 2.339 . S
O264 C279 1.257 . S
O265 Dy257 2.307 1_545 S
O265 C280 1.266 . S
O266 Dy256 2.298 . S
O266 C280 1.236 1_655 S
O267 Dy257 2.395 1_654 S
O267 C287 1.255 1_654 S
O268 Dy257 2.379 . S
O268 C287 1.249 . S
C269 O259 1.266 . S
C269 O260 1.236 1_655 S
O270 Dy256 2.275 1_455 S
O270 C258 1.254 1_545 S
O271 Dy257 2.339 . S
O271 C258 1.257 . S
C272 C275 1.344 . S
C272 C276 1.328 . S
C272 C278 1.516 . S
C273 C274 1.304 . S
C273 C277 1.323 . S
C274 C273 1.304 . S
C274 C275 1.371 . S
C274 H288 0.930 1_655 S
C275 C272 1.344 . S
C275 C274 1.371 . S
C275 H289 0.931 1_655 S
C276 C272 1.328 . S
C276 C277 1.433 . S
C276 H290 0.931 . S
C277 C273 1.323 . S
C277 C276 1.433 . S
C277 H291 0.933 . S
C278 Dy256 2.738 . S
C278 O261 1.255 1_655 S
C278 O262 1.249 . S
C278 C272 1.516 . S
C279 O263 1.254 1_545 S
C279 O264 1.257 . S
C280 O265 1.266 . S
C280 O266 1.236 1_455 S
C281 C284 1.344 . S
C281 C285 1.328 . S
C281 C287 1.516 1_554 S
C282 C283 1.304 . S
C282 C286 1.323 . S
C283 C282 1.304 . S
C283 C284 1.371 . S
C283 H292 0.930 1_455 S
C284 C281 1.344 . S
C284 C283 1.371 . S
C284 H293 0.931 1_455 S
C285 C281 1.328 . S
C285 C286 1.433 . S
C285 H294 0.931 . S
C286 C282 1.323 . S
C286 C285 1.433 . S
C286 H295 0.933 . S
C287 Dy257 2.738 . S
C287 O267 1.255 1_456 S
C287 O268 1.249 . S
C287 C281 1.516 1_556 S
H288 C274 0.930 1_455 S
H289 C275 0.931 1_455 S
H290 C276 0.931 . S
H291 C277 0.933 . S
H292 C283 0.930 1_655 S
H293 C284 0.931 1_655 S
H294 C285 0.931 . S
H295 C286 0.933 . S
Dy296 O299 2.307 . S
Dy296 O301 2.395 1_565 S
Dy296 O302 2.379 . S
Dy296 O304 2.339 . S
Dy296 O306 2.298 . S
Dy296 O310 2.275 1_565 S
Dy296 C318 2.738 . S
Dy297 O300 2.298 . S
Dy297 O303 2.275 1_545 S
Dy297 O305 2.307 . S
Dy297 O307 2.395 1_545 S
Dy297 O308 2.379 . S
Dy297 O311 2.339 . S
Dy297 C327 2.738 . S
C298 O310 1.254 . S
C298 O311 1.257 . S
O299 Dy296 2.307 . S
O299 C309 1.266 . S
O300 Dy297 2.298 . S
O300 C309 1.236 1_545 S
O301 Dy296 2.395 1_545 S
O301 C318 1.255 1_545 S
O302 Dy296 2.379 . S
O302 C318 1.249 . S
O303 Dy297 2.275 1_565 S
O303 C319 1.254 . S
O304 Dy296 2.339 . S
O304 C319 1.257 . S
O305 Dy297 2.307 . S
O305 C320 1.266 . S
O306 Dy296 2.298 . S
O306 C320 1.236 1_565 S
O307 Dy297 2.395 1_565 S
O307 C327 1.255 1_565 S
O308 Dy297 2.379 . S
O308 C327 1.249 . S
C309 O299 1.266 . S
C309 O300 1.236 1_565 S
O310 Dy296 2.275 1_545 S
O310 C298 1.254 . S
O311 Dy297 2.339 . S
O311 C298 1.257 . S
C312 C315 1.344 . S
C312 C316 1.328 . S
C312 C318 1.516 . S
C313 C314 1.304 . S
C313 C317 1.323 . S
C314 C313 1.304 . S
C314 C315 1.371 . S
C314 H328 0.930 1_565 S
C315 C312 1.344 . S
C315 C314 1.371 . S
C315 H329 0.931 1_565 S
C316 C312 1.328 . S
C316 C317 1.433 . S
C316 H330 0.931 . S
C317 C313 1.323 . S
C317 C316 1.433 . S
C317 H331 0.933 . S
C318 Dy296 2.738 . S
C318 O301 1.255 1_565 S
C318 O302 1.249 . S
C318 C312 1.516 . S
C319 O303 1.254 . S
C319 O304 1.257 . S
C320 O305 1.266 . S
C320 O306 1.236 1_545 S
C321 C324 1.344 . S
C321 C325 1.328 . S
C321 C327 1.516 1_554 S
C322 C323 1.304 . S
C322 C326 1.323 . S
C323 C322 1.304 . S
C323 C324 1.371 . S
C323 H332 0.930 1_545 S
C324 C321 1.344 . S
C324 C323 1.371 . S
C324 H333 0.931 1_545 S
C325 C321 1.328 . S
C325 C326 1.433 . S
C325 H334 0.931 . S
C326 C322 1.323 . S
C326 C325 1.433 . S
C326 H335 0.933 . S
C327 Dy297 2.738 . S
C327 O307 1.255 1_545 S
C327 O308 1.249 . S
C327 C321 1.516 1_556 S
H328 C314 0.930 1_545 S
H329 C315 0.931 1_545 S
H330 C316 0.931 . S
H331 C317 0.933 . S
H332 C323 0.930 1_565 S
H333 C324 0.931 1_565 S
H334 C325 0.931 . S
H335 C326 0.933 . S
Dy336 O339 2.307 . S
Dy336 O341 2.395 . S
Dy336 O342 2.379 . S
Dy336 O344 2.339 . S
Dy336 O346 2.298 . S
Dy336 O350 2.275 . S
Dy336 C358 2.738 . S
Dy337 O340 2.298 . S
Dy337 O343 2.275 . S
Dy337 O345 2.307 . S
Dy337 O347 2.395 . S
Dy337 O348 2.379 . S
Dy337 O351 2.339 . S
Dy337 C367 2.738 . S
C338 O350 1.254 . S
C338 O351 1.257 . S
O339 Dy336 2.307 . S
O339 C349 1.266 . S
O340 Dy337 2.298 . S
O340 C349 1.236 . S
O341 Dy336 2.395 . S
O341 C358 1.255 . S
O342 Dy336 2.379 . S
O342 C358 1.249 . S
O343 Dy337 2.275 . S
O343 C359 1.254 . S
O344 Dy336 2.339 . S
O344 C359 1.257 . S
O345 Dy337 2.307 . S
O345 C360 1.266 . S
O346 Dy336 2.298 . S
O346 C360 1.236 . S
O347 Dy337 2.395 . S
O347 C367 1.255 . S
O348 Dy337 2.379 . S
O348 C367 1.249 . S
C349 O339 1.266 . S
C349 O340 1.236 . S
O350 Dy336 2.275 . S
O350 C338 1.254 . S
O351 Dy337 2.339 . S
O351 C338 1.257 . S
C352 C355 1.344 1_556 S
C352 C356 1.328 . S
C352 C358 1.516 . S
C353 C354 1.304 . S
C353 C357 1.318 1_554 S
C354 C353 1.304 . S
C354 C355 1.371 . S
C354 H368 0.930 . S
C355 C352 1.344 1_554 S
C355 C354 1.371 . S
C355 H369 0.931 . S
C356 C352 1.328 . S
C356 C357 1.437 . S
C356 H370 0.931 . S
C357 C353 1.318 1_556 S
C357 C356 1.437 . S
C357 H371 0.934 . S
C358 Dy336 2.738 . S
C358 O341 1.255 . S
C358 O342 1.249 . S
C358 C352 1.516 . S
C359 O343 1.254 . S
C359 O344 1.257 . S
C360 O345 1.266 . S
C360 O346 1.236 . S
C361 C364 1.344 . S
C361 C365 1.328 . S
C361 C367 1.516 . S
C362 C363 1.304 . S
C362 C366 1.323 . S
C363 C362 1.304 . S
C363 C364 1.371 . S
C363 H372 0.930 . S
C364 C361 1.344 . S
C364 C363 1.371 . S
C364 H373 0.931 . S
C365 C361 1.328 . S
C365 C366 1.433 . S
C365 H374 0.931 . S
C366 C362 1.323 . S
C366 C365 1.433 . S
C366 H375 0.933 . S
C367 Dy337 2.738 . S
C367 O347 1.255 . S
C367 O348 1.249 . S
C367 C361 1.516 . S
H368 C354 0.930 . S
H369 C355 0.931 . S
H370 C356 0.931 . S
H371 C357 0.934 . S
H372 C363 0.930 . S
H373 C364 0.931 . S
H374 C365 0.931 . S
H375 C366 0.933 . S
Dy376 O379 2.307 1_455 S
Dy376 O381 2.395 . S
Dy376 O382 2.379 . S
Dy376 O384 2.339 . S
Dy376 O386 2.298 . S
Dy376 O390 2.275 . S
Dy376 C398 2.738 . S
Dy377 O380 2.298 . S
Dy377 O383 2.275 . S
Dy377 O385 2.307 1_655 S
Dy377 O387 2.395 1_556 S
Dy377 O388 2.379 . S
Dy377 O391 2.339 . S
Dy377 C407 2.738 1_556 S
C378 O390 1.254 1_655 S
C378 O391 1.257 . S
O379 Dy376 2.307 1_655 S
O379 C389 1.266 . S
O380 Dy377 2.298 . S
O380 C389 1.236 . S
O381 Dy376 2.395 . S
O381 C398 1.255 . S
O382 Dy376 2.379 . S
O382 C398 1.249 . S
O383 Dy377 2.275 . S
O383 C399 1.254 1_655 S
O384 Dy376 2.339 . S
O384 C399 1.257 . S
O385 Dy377 2.307 1_455 S
O385 C400 1.266 . S
O386 Dy376 2.298 . S
O386 C400 1.236 . S
O387 Dy377 2.395 1_554 S
O387 C407 1.255 . S
O388 Dy377 2.379 . S
O388 C407 1.249 1_556 S
C389 O379 1.266 . S
C389 O380 1.236 . S
O390 Dy376 2.275 . S
O390 C378 1.254 1_455 S
O391 Dy377 2.339 . S
O391 C378 1.257 . S
C392 C395 1.344 . S
C392 C396 1.328 . S
C392 C398 1.516 . S
C393 C394 1.304 . S
C393 C397 1.323 . S
C394 C393 1.304 . S
C394 C395 1.371 . S
C394 H408 0.930 . S
C395 C392 1.344 . S
C395 C394 1.371 . S
C395 H409 0.931 . S
C396 C392 1.328 . S
C396 C397 1.433 . S
C396 H410 0.931 . S
C397 C393 1.323 . S
C397 C396 1.433 . S
C397 H411 0.933 . S
C398 Dy376 2.738 . S
C398 O381 1.255 . S
C398 O382 1.249 . S
C398 C392 1.516 . S
C399 O383 1.254 1_455 S
C399 O384 1.257 . S
C400 O385 1.266 . S
C400 O386 1.236 . S
C401 C404 1.344 . S
C401 C405 1.328 . S
C401 C407 1.516 . S
C402 C403 1.304 . S
C402 C406 1.323 . S
C403 C402 1.304 . S
C403 C404 1.371 . S
C403 H412 0.930 . S
C404 C401 1.344 . S
C404 C403 1.371 . S
C404 H413 0.931 . S
C405 C401 1.328 . S
C405 C406 1.433 . S
C405 H414 0.931 . S
C406 C402 1.323 . S
C406 C405 1.433 . S
C406 H415 0.933 . S
C407 Dy377 2.738 1_554 S
C407 O387 1.255 . S
C407 O388 1.249 1_554 S
C407 C401 1.516 . S
H408 C394 0.930 . S
H409 C395 0.931 . S
H410 C396 0.931 . S
H411 C397 0.933 . S
H412 C403 0.930 . S
H413 C404 0.931 . S
H414 C405 0.931 . S
H415 C406 0.933 . S
C416 C417 1.381 1_565 S
C416 H420 0.950 . S
C416 C425 1.390 . S
C417 C416 1.381 1_545 S
C417 C419 1.393 . S
H418 C425 0.950 . S
C419 C417 1.393 . S
C419 C421 1.390 . S
C419 H423 0.950 . S
H420 C416 0.950 . S
C421 C419 1.390 . S
C421 C422 1.404 . S
C421 H424 0.950 . S
C422 C421 1.404 . S
C422 C425 1.373 1_545 S
H423 C419 0.950 . S
H424 C421 0.950 . S
C425 C416 1.390 . S
C425 H418 0.950 . S
C425 C422 1.373 1_565 S
C426 C427 1.387 . S
C426 H430 0.950 . S
C426 C435 1.390 . S
C427 C426 1.387 . S
C427 C429 1.387 . S
H428 C435 0.950 . S
C429 C427 1.387 . S
C429 C431 1.390 . S
C429 H433 0.950 . S
H430 C426 0.950 . S
C431 C429 1.390 . S
C431 C432 1.387 . S
C431 H434 0.950 . S
C432 C431 1.387 . S
C432 C435 1.387 . S
H433 C429 0.950 . S
H434 C431 0.950 . S
C435 C426 1.390 . S
C435 H428 0.950 . S
C435 C432 1.387 . S
C436 C437 1.387 . S
C436 H440 0.950 . S
C436 C445 1.390 . S
C437 C436 1.387 . S
C437 C439 1.387 . S
H438 C445 0.950 . S
C439 C437 1.387 . S
C439 C441 1.390 . S
C439 H443 0.950 . S
H440 C436 0.950 . S
C441 C439 1.390 . S
C441 C442 1.387 . S
C441 H444 0.950 . S
C442 C441 1.387 . S
C442 C445 1.387 . S
H443 C439 0.950 . S
H444 C441 0.950 . S
C445 C436 1.390 . S
C445 H438 0.950 . S
C445 C442 1.387 . S
C446 C447 1.417 . S
C446 H450 0.950 . S
C446 C455 1.390 . S
C447 C446 1.417 . S
C447 C449 1.366 1_455 S
H448 C455 0.950 . S
C449 C447 1.366 1_655 S
C449 C451 1.390 . S
C449 H453 0.950 . S
H450 C446 0.950 . S
C451 C449 1.390 . S
C451 C452 1.387 1_655 S
C451 H454 0.950 . S
C452 C451 1.387 1_455 S
C452 C455 1.387 . S
H453 C449 0.950 . S
H454 C451 0.950 . S
C455 C446 1.390 . S
C455 H448 0.950 . S
C455 C452 1.387 . S
C456 C457 1.387 . S
C456 H460 0.950 . S
C456 C465 1.390 . S
C457 C456 1.387 . S
C457 C459 1.388 1_565 S
H458 C465 0.950 . S
C459 C457 1.388 1_545 S
C459 C461 1.390 . S
C459 H463 0.950 . S
H460 C456 0.950 . S
C461 C459 1.390 . S
C461 C462 1.380 1_545 S
C461 H464 0.950 . S
C462 C461 1.380 1_565 S
C462 C465 1.396 . S
H463 C459 0.950 . S
H464 C461 0.950 . S
C465 C456 1.390 . S
C465 H458 0.950 . S
C465 C462 1.396 . S
C466 C467 1.387 1_556 S
C466 H470 0.950 . S
C466 C475 1.390 . S
C467 C466 1.387 1_554 S
C467 C469 1.387 . S
H468 C475 0.950 . S
C469 C467 1.387 . S
C469 C471 1.390 . S
C469 H473 0.950 . S
H470 C466 0.950 . S
C471 C469 1.390 . S
C471 C472 1.387 1_554 S
C471 H474 0.950 . S
C472 C471 1.387 1_556 S
C472 C475 1.387 . S
H473 C469 0.950 . S
H474 C471 0.950 . S
C475 C466 1.390 . S
C475 H468 0.950 . S
C475 C472 1.387 . S
C476 C477 1.387 . S
C476 H480 0.950 . S
C476 C485 1.390 . S
C477 C476 1.387 . S
C477 C479 1.387 . S
H478 C485 0.950 . S
C479 C477 1.387 . S
C479 C481 1.390 . S
C479 H483 0.950 . S
H480 C476 0.950 . S
C481 C479 1.390 . S
C481 C482 1.387 . S
C481 H484 0.950 . S
C482 C481 1.387 . S
C482 C485 1.387 . S
H483 C479 0.950 . S
H484 C481 0.950 . S
C485 C476 1.390 . S
C485 H478 0.950 . S
C485 C482 1.387 . S
C486 C487 1.398 . S
C486 H490 0.950 . S
C486 C495 1.390 . S
C487 C486 1.398 . S
C487 C489 1.383 1_655 S
H488 C495 0.950 . S
C489 C487 1.383 1_455 S
C489 C491 1.390 . S
C489 H493 0.950 . S
H490 C486 0.950 . S
C491 C489 1.390 . S
C491 C492 1.387 1_455 S
C491 H494 0.950 . S
C492 C491 1.387 1_655 S
C492 C495 1.387 . S
H493 C489 0.950 . S
H494 C491 0.950 . S
C495 C486 1.390 . S
C495 H488 0.950 . S
C495 C492 1.387 . S
C496 C497 1.387 . S
C496 H500 0.950 . S
C496 C505 1.390 1_455 S
C497 C496 1.387 . S
C497 C499 1.387 1_455 S
H498 C505 0.950 . S
C499 C497 1.387 1_655 S
C499 C501 1.390 . S
C499 H503 0.950 . S
H500 C496 0.950 . S
C501 C499 1.390 . S
C501 C502 1.387 . S
C501 H504 0.950 . S
C502 C501 1.387 . S
C502 C505 1.387 . S
H503 C499 0.950 . S
H504 C501 0.950 . S
C505 C496 1.390 1_655 S
C505 H498 0.950 . S
C505 C502 1.387 . S
C506 C507 1.387 . S
C506 H510 0.950 1_565 S
C506 C515 1.390 . S
C507 C506 1.387 . S
C507 C509 1.387 . S
H508 C515 0.950 . S
C509 C507 1.387 . S
C509 C511 1.390 . S
C509 H513 0.950 . S
H510 C506 0.950 1_545 S
C511 C509 1.390 . S
C511 C512 1.387 . S
C511 H514 0.950 . S
C512 C511 1.387 . S
C512 C515 1.387 . S
H513 C509 0.950 . S
H514 C511 0.950 . S
C515 C506 1.390 . S
C515 H508 0.950 . S
C515 C512 1.387 . S
C516 C517 1.387 . S
C516 H520 0.950 . S
C516 C525 1.390 . S
C517 C516 1.387 . S
C517 C519 1.387 . S
H518 C525 0.950 . S
C519 C517 1.387 . S
C519 C521 1.390 . S
C519 H523 0.950 . S
H520 C516 0.950 . S
C521 C519 1.390 . S
C521 C522 1.387 . S
C521 H524 0.950 . S
C522 C521 1.387 . S
C522 C525 1.387 . S
H523 C519 0.950 . S
H524 C521 0.950 . S
C525 C516 1.390 . S
C525 H518 0.950 . S
C525 C522 1.387 . S
C526 C527 1.387 . S
C526 H530 0.950 . S
C526 C535 1.390 . S
C527 C526 1.387 . S
C527 C529 1.387 . S
H528 C535 0.950 . S
C529 C527 1.387 . S
C529 C531 1.390 . S
C529 H533 0.950 . S
H530 C526 0.950 . S
C531 C529 1.390 . S
C531 C532 1.387 . S
C531 H534 0.950 . S
C532 C531 1.387 . S
C532 C535 1.387 . S
H533 C529 0.950 . S
H534 C531 0.950 . S
C535 C526 1.390 . S
C535 H528 0.950 . S
C535 C532 1.387 . S
C536 C537 1.387 . S
C536 H540 0.950 . S
C536 C545 1.390 1_655 S
C537 C536 1.387 . S
C537 C539 1.387 1_655 S
H538 C545 0.950 . S
C539 C537 1.387 1_455 S
C539 C541 1.390 . S
C539 H543 0.950 . S
H540 C536 0.950 . S
C541 C539 1.390 . S
C541 C542 1.387 . S
C541 H544 0.950 . S
C542 C541 1.387 . S
C542 C545 1.387 . S
H543 C539 0.950 . S
H544 C541 0.950 . S
C545 C536 1.390 1_455 S
C545 H538 0.950 . S
C545 C542 1.387 . S
C546 C547 1.387 1_565 S
C546 H550 0.950 . S
C546 C555 1.390 1_565 S
C547 C546 1.387 1_545 S
C547 C549 1.387 . S
H548 C555 0.950 1_565 S
C549 C547 1.387 . S
C549 C551 1.390 . S
C549 H553 0.950 . S
H550 C546 0.950 . S
C551 C549 1.390 . S
C551 C552 1.387 . S
C551 H554 0.950 . S
C552 C551 1.387 . S
C552 C555 1.387 . S
H553 C549 0.950 . S
H554 C551 0.950 . S
C555 C546 1.390 1_545 S
C555 H548 0.950 1_545 S
C555 C552 1.387 . S
C556 C557 1.387 1_554 S
C556 H560 0.950 . S
C556 C565 1.390 . S
C557 C556 1.387 1_556 S
C557 C559 1.387 . S
H558 C565 0.950 . S
C559 C557 1.387 . S
C559 C561 1.390 . S
C559 H563 0.950 . S
H560 C556 0.950 . S
C561 C559 1.390 . S
C561 C562 1.387 . S
C561 H564 0.950 . S
C562 C561 1.387 . S
C562 C565 1.387 1_556 S
H563 C559 0.950 . S
H564 C561 0.950 . S
C565 C556 1.390 . S
C565 H558 0.950 . S
C565 C562 1.387 1_554 S
C566 C567 1.387 . S
C566 H570 0.950 . S
C566 C575 1.390 . S
C567 C566 1.387 . S
C567 C569 1.387 . S
H568 C575 0.950 . S
C569 C567 1.387 . S
C569 C571 1.390 . S
C569 H573 0.950 . S
H570 C566 0.950 . S
C571 C569 1.390 . S
C571 C572 1.387 . S
C571 H574 0.950 . S
C572 C571 1.387 . S
C572 C575 1.387 . S
H573 C569 0.950 . S
H574 C571 0.950 . S
C575 C566 1.390 . S
C575 H568 0.950 . S
C575 C572 1.387 . S
C576 C577 1.387 . S
C576 H580 0.950 . S
C576 C585 1.390 . S
C577 C576 1.387 . S
C577 C579 1.387 1_455 S
H578 C585 0.950 . S
C579 C577 1.387 1_655 S
C579 C581 1.390 . S
C579 H583 0.950 . S
H580 C576 0.950 . S
C581 C579 1.390 . S
C581 C582 1.387 1_655 S
C581 H584 0.950 . S
C582 C581 1.387 1_455 S
C582 C585 1.387 . S
H583 C579 0.950 . S
H584 C581 0.950 . S
C585 C576 1.390 . S
C585 H578 0.950 . S
C585 C582 1.387 . S
C586 C587 1.387 . S
C586 H590 0.950 . S
C586 C595 1.390 . S
C587 C586 1.387 . S
C587 C589 1.387 1_545 S
H588 C595 0.950 . S
C589 C587 1.387 1_565 S
C589 C591 1.395 . S
C589 H593 0.950 1_556 S
H590 C586 0.950 . S
C591 C589 1.395 . S
C591 C592 1.377 1_565 S
C591 H594 0.956 1_556 S
C592 C591 1.377 1_545 S
C592 C595 1.387 . S
H593 C589 0.950 1_554 S
H594 C591 0.956 1_554 S
C595 C586 1.390 . S
C595 H588 0.950 . S
C595 C592 1.387 . S
C596 C597 1.387 1_556 S
C596 H600 0.950 . S
C596 C605 1.390 . S
C597 C596 1.387 1_554 S
C597 C599 1.387 . S
H598 C605 0.950 . S
C599 C597 1.387 . S
C599 C601 1.390 . S
C599 H603 0.950 . S
H600 C596 0.950 . S
C601 C599 1.390 . S
C601 C602 1.387 . S
C601 H604 0.950 . S
C602 C601 1.387 . S
C602 C605 1.387 1_554 S
H603 C599 0.950 . S
H604 C601 0.950 . S
C605 C596 1.390 . S
C605 H598 0.950 . S
C605 C602 1.387 1_556 S
C606 C607 1.387 . S
C606 H610 0.950 . S
C606 C615 1.390 . S
C607 C606 1.387 . S
C607 C609 1.387 . S
H608 C615 0.950 . S
C609 C607 1.387 . S
C609 C611 1.390 . S
C609 H613 0.950 . S
H610 C606 0.950 . S
C611 C609 1.390 . S
C611 C612 1.387 . S
C611 H614 0.950 . S
C612 C611 1.387 . S
C612 C615 1.387 . S
H613 C609 0.950 . S
H614 C611 0.950 . S
C615 C606 1.390 . S
C615 H608 0.950 . S
C615 C612 1.387 . S
C616 C617 1.387 . S
C616 H620 0.955 . S
C616 C625 1.390 . S
C617 C616 1.387 . S
C617 C619 1.387 . S
H618 C625 0.950 . S
C619 C617 1.387 . S
C619 C621 1.390 . S
C619 H623 0.950 . S
H620 C616 0.955 . S
C621 C619 1.390 . S
C621 C622 1.387 . S
C621 H624 0.950 . S
C622 C621 1.387 . S
C622 C625 1.387 . S
H623 C619 0.950 . S
H624 C621 0.950 . S
C625 C616 1.390 . S
C625 H618 0.950 . S
C625 C622 1.387 . S
C626 C627 1.387 . S
C626 H630 0.952 . S
C626 C635 1.390 . S
C627 C626 1.387 . S
C627 C629 1.387 . S
H628 C635 0.950 . S
C629 C627 1.387 . S
C629 C631 1.390 . S
C629 H633 0.950 . S
H630 C626 0.952 . S
C631 C629 1.390 . S
C631 C632 1.387 . S
C631 H634 0.950 . S
C632 C631 1.387 . S
C632 C635 1.387 . S
H633 C629 0.950 . S
H634 C631 0.950 . S
C635 C626 1.390 . S
C635 H628 0.950 . S
C635 C632 1.387 . S
C636 C637 1.387 . S
C636 H640 0.950 . S
C636 C645 1.390 . S
C637 C636 1.387 . S
C637 C639 1.387 . S
H638 C645 0.950 . S
C639 C637 1.387 . S
C639 C641 1.390 . S
C639 H643 0.950 . S
H640 C636 0.950 . S
C641 C639 1.390 . S
C641 C642 1.387 . S
C641 H644 0.950 . S
C642 C641 1.387 . S
C642 C645 1.387 . S
H643 C639 0.950 . S
H644 C641 0.950 . S
C645 C636 1.390 . S
C645 H638 0.950 . S
C645 C642 1.387 . S
C646 C647 1.387 . S
C646 H650 0.950 . S
C646 C655 1.390 . S
C647 C646 1.387 . S
C647 C649 1.387 . S
H648 C655 0.950 . S
C649 C647 1.387 . S
C649 C651 1.390 . S
C649 H653 0.950 . S
H650 C646 0.950 . S
C651 C649 1.390 . S
C651 C652 1.387 . S
C651 H654 0.950 . S
C652 C651 1.387 . S
C652 C655 1.387 . S
H653 C649 0.950 . S
H654 C651 0.950 . S
C655 C646 1.390 . S
C655 H648 0.950 . S
C655 C652 1.387 . S
C417 C215 2.204 . S
C422 C258 2.347 1_545 S
C432 C298 2.174 . S
C427 C247 2.109 . S
C442 C362 2.591 . S
C437 C151 2.548 . S
C452 C378 2.473 1_455 S
C447 C183 2.159 . S
C462 C279 2.350 1_564 S
C457 C87 2.206 1_565 S
C467 C119 2.023 . S
C472 C319 2.176 . S
C477 C23 2.438 . S
C482 C353 2.592 . S
C487 C55 2.162 1_655 S
C492 C399 2.473 1_654 S
C502 C273 0.680 . S
C497 C189 0.610 . S
C512 C313 0.867 . S
C507 C221 0.898 1_565 S
C522 C349 0.879 . S
C517 C253 0.937 . S
C527 C157 1.200 . S
C532 C393 0.989 . S
C537 C61 0.702 1_655 S
C542 C282 0.680 . S
C552 C322 0.866 . S
C547 C93 0.843 . S
C562 C360 0.882 . S
C557 C125 0.848 1_556 S
C567 C29 0.926 . S
C572 C402 1.000 . S
C577 C177 2.521 . S
C582 C280 2.906 . S
C587 C209 2.472 . S
C592 C320 2.807 . S
C602 C338 2.028 1_554 S
C597 C241 2.010 . S
C612 C400 3.336 . S
C607 C145 2.931 . S
C617 C49 2.550 1_655 S
C622 C269 2.913 . S
C632 C309 2.807 . S
C627 C81 2.503 1_565 S
C642 C359 2.031 . S
C637 C113 1.943 . S
C647 C17 2.892 . S
C652 C389 3.341 . S
