# Generated by pormake.
# Topology zzz, (3,6)-cn, num edge types: 1
# Building blocks:
#     Node 0, Type 0, BuildingBlock: ESEHIV_clean_linker_0, # of connection points: 3
#     Node 1, Type 0, BuildingBlock: ESEHIV_clean_linker_0, # of connection points: 3
#     Node 2, Type 0, BuildingBlock: ESEHIV_clean_linker_0, # of connection points: 3
#     Node 3, Type 0, BuildingBlock: ESEHIV_clean_linker_0, # of connection points: 3
#     Node 4, Type 0, BuildingBlock: ESEHIV_clean_linker_0, # of connection points: 3
#     Node 5, Type 0, BuildingBlock: ESEHIV_clean_linker_0, # of connection points: 3
#     Node 6, Type 0, BuildingBlock: ESEHIV_clean_linker_0, # of connection points: 3
#     Node 7, Type 0, BuildingBlock: ESEHIV_clean_linker_0, # of connection points: 3
#     Node 8, Type 1, BuildingBlock: KUMBUR_clean_sbu_0, # of connection points: 6
#     Node 9, Type 1, BuildingBlock: KUMBUR_clean_sbu_0, # of connection points: 6
#     Node 10, Type 1, BuildingBlock: KUMBUR_clean_sbu_0, # of connection points: 6
#     Node 11, Type 1, BuildingBlock: KUMBUR_clean_sbu_0, # of connection points: 6
#     Edge 12, Type (0, 1), BuildingBlock: AJUNOK_clean_linker_0, # of connection points: 2
#     Edge 13, Type (0, 1), BuildingBlock: AJUNOK_clean_linker_0, # of connection points: 2
#     Edge 14, Type (0, 1), BuildingBlock: AJUNOK_clean_linker_0, # of connection points: 2
#     Edge 15, Type (0, 1), BuildingBlock: AJUNOK_clean_linker_0, # of connection points: 2
#     Edge 16, Type (0, 1), BuildingBlock: AJUNOK_clean_linker_0, # of connection points: 2
#     Edge 17, Type (0, 1), BuildingBlock: AJUNOK_clean_linker_0, # of connection points: 2
#     Edge 18, Type (0, 1), BuildingBlock: AJUNOK_clean_linker_0, # of connection points: 2
#     Edge 19, Type (0, 1), BuildingBlock: AJUNOK_clean_linker_0, # of connection points: 2
#     Edge 20, Type (0, 1), BuildingBlock: AJUNOK_clean_linker_0, # of connection points: 2
#     Edge 21, Type (0, 1), BuildingBlock: AJUNOK_clean_linker_0, # of connection points: 2
#     Edge 22, Type (0, 1), BuildingBlock: AJUNOK_clean_linker_0, # of connection points: 2
#     Edge 23, Type (0, 1), BuildingBlock: AJUNOK_clean_linker_0, # of connection points: 2
#     Edge 24, Type (0, 1), BuildingBlock: AJUNOK_clean_linker_0, # of connection points: 2
#     Edge 25, Type (0, 1), BuildingBlock: AJUNOK_clean_linker_0, # of connection points: 2
#     Edge 26, Type (0, 1), BuildingBlock: AJUNOK_clean_linker_0, # of connection points: 2
#     Edge 27, Type (0, 1), BuildingBlock: AJUNOK_clean_linker_0, # of connection points: 2
#     Edge 28, Type (0, 1), BuildingBlock: AJUNOK_clean_linker_0, # of connection points: 2
#     Edge 29, Type (0, 1), BuildingBlock: AJUNOK_clean_linker_0, # of connection points: 2
#     Edge 30, Type (0, 1), BuildingBlock: AJUNOK_clean_linker_0, # of connection points: 2
#     Edge 31, Type (0, 1), BuildingBlock: AJUNOK_clean_linker_0, # of connection points: 2
#     Edge 32, Type (0, 1), BuildingBlock: AJUNOK_clean_linker_0, # of connection points: 2
#     Edge 33, Type (0, 1), BuildingBlock: AJUNOK_clean_linker_0, # of connection points: 2
#     Edge 34, Type (0, 1), BuildingBlock: AJUNOK_clean_linker_0, # of connection points: 2
#     Edge 35, Type (0, 1), BuildingBlock: AJUNOK_clean_linker_0, # of connection points: 2
# Relax obj value: 0.420
# Max RMSD: 0.238
# Mean RMSD: 0.217
data_MOF--net-zzz--node1-KUMBUR_clean_sbu_0--node2-ESEHIV_clean_linker_0--edge1-AJUNOK_clean_linker_0
_symmetry_space_group_name_H-M    P1
_symmetry_Int_Tables_number       1
_symmetry_cell_setting            triclinic
loop_
_symmetry_equiv_pos_as_xyz
'x, y, z'
_cell_length_a     30.858625
_cell_length_b     31.195995
_cell_length_c     11.169521
_cell_angle_alpha  92.106062
_cell_angle_beta   89.823747
_cell_angle_gamma 90.063593
loop_
_atom_site_label
_atom_site_type_symbol
_atom_site_fract_x
_atom_site_fract_y
_atom_site_fract_z
_atom_type_partial_charge
H0 H 0.84143 0.62936 0.27743 0.0
H1 H 0.74482 0.64146 0.07283 0.0
H2 H 0.73363 0.54112 0.32759 0.0
C3 C 0.81077 0.61451 0.25374 0.0
C4 C 0.79048 0.58557 0.33039 0.0
C5 C 0.80126 0.60912 0.13289 0.0
C6 C 0.75666 0.61428 0.12016 0.0
C7 C 0.72884 0.58512 0.1769 0.0
C8 C 0.74901 0.56735 0.2842 0.0
H9 H 0.96864 0.85515 0.28419 0.0
H10 H 0.95434 0.75061 0.0545 0.0
H11 H 0.02975 0.73735 0.37848 0.0
C12 C 0.97183 0.82096 0.27412 0.0
C13 C 0.99582 0.79935 0.35805 0.0
C14 C 0.96974 0.80423 0.15942 0.0
C15 C 0.96419 0.7607 0.14388 0.0
C16 C 0.98809 0.73321 0.21524 0.0
C17 C 1.00729 0.75446 0.32375 0.0
H18 H 0.6962 0.98361 0.26747 0.0
H19 H 0.80722 0.97112 0.05342 0.0
H20 H 0.82013 1.0128 0.42566 0.0
C21 C 0.73085 0.98203 0.26381 0.0
C22 C 0.75405 0.99373 0.36736 0.0
C23 C 0.75024 0.98467 0.15176 0.0
C24 C 0.7939 0.97578 0.14296 0.0
C25 C 0.82137 0.98953 0.23587 0.0
C26 C 0.80081 1.00019 0.35173 0.0
H27 H 0.61029 0.70628 0.26177 0.0
H28 H 0.55299 0.82686 0.38776 0.0
H29 H 0.60792 0.80496 0.03133 0.0
C30 C 0.60123 0.73947 0.25066 0.0
C31 C 0.59132 0.75189 0.13514 0.0
C32 C 0.5811 0.76272 0.34595 0.0
C33 C 0.5698 0.80706 0.32109 0.0
C34 C 0.58273 0.82474 0.20641 0.0
C35 C 0.5999 0.79508 0.12067 0.0
H36 H 0.23225 0.4098 0.09474 0.0
H37 H 0.33026 0.41015 0.35263 0.0
H38 H 0.30315 0.52705 0.16728 0.0
C39 C 0.25679 0.42781 0.14235 0.0
C40 C 0.26279 0.47108 0.11661 0.0
C41 C 0.27276 0.4113 0.2485 0.0
C42 C 0.31249 0.42799 0.28756 0.0
C43 C 0.32422 0.47062 0.26519 0.0
C44 C 0.29738 0.49337 0.18135 0.0
H45 H 0.09047 0.20603 0.19419 0.0
H46 H 0.12583 0.31198 0.39455 0.0
H47 H 0.03472 0.32548 0.10013 0.0
C48 C 0.08957 0.24012 0.20475 0.0
C49 C 0.06702 0.26247 0.11881 0.0
C50 C 0.09442 0.25778 0.31988 0.0
C51 C 0.10469 0.30085 0.32325 0.0
C52 C 0.07813 0.32853 0.25933 0.0
C53 C 0.05787 0.30795 0.15164 0.0
H54 H 0.35313 0.04049 0.24364 0.0
H55 H 0.23868 0.07408 0.43013 0.0
H56 H 0.23556 0.06095 0.04283 0.0
C57 C 0.31992 0.05118 0.23738 0.0
C58 C 0.3002 0.05472 0.12474 0.0
C59 C 0.29617 0.05438 0.34348 0.0
C60 C 0.25502 0.07113 0.34394 0.0
C61 C 0.23063 0.07047 0.23928 0.0
C62 C 0.25351 0.06239 0.12598 0.0
H63 H 0.56893 0.33026 0.15487 0.0
H64 H 0.45013 0.25638 0.15062 0.0
H65 H 0.56302 0.21414 0.34401 0.0
C66 C 0.55061 0.3021 0.17881 0.0
C67 C 0.5704 0.27151 0.24939 0.0
C68 C 0.50753 0.29822 0.14082 0.0
C69 C 0.48337 0.26095 0.1789 0.0
C70 C 0.5037 0.22958 0.25393 0.0
C71 C 0.5469 0.2366 0.287 0.0
Tb72 Tb 0.07129 0.02013 0.81198 0.0
C73 C 0.91906 0.97044 0.57879 0.0
C74 C 0.94275 0.94218 0.38366 0.0
C75 C 0.87886 0.91252 0.47668 0.0
C76 C 0.94806 0.97134 0.48258 0.0
C77 C 0.88391 0.9411 0.57494 0.0
C78 C 0.90835 0.91278 0.38234 0.0
C79 C 0.859 0.9713 0.76319 0.0
N80 N 0.92516 0.99758 0.67568 0.0
C81 C 0.89278 1.00084 0.76081 0.0
C82 C 0.85465 0.941 0.67026 0.0
Tb83 Tb 0.98018 0.04677 0.65098 0.0
N84 N 0.98159 0.99991 0.48614 0.0
C85 C 1.00768 1.003 0.38688 0.0
C86 C 0.97276 0.94267 0.2899 0.0
C87 C 1.00489 0.97357 0.29074 0.0
H88 H 0.89068 0.02724 0.82542 0.0
H89 H 0.02666 0.9757 0.21503 0.0
H90 H 0.90439 0.88939 0.3096 0.0
H91 H 0.83547 0.97305 0.83502 0.0
H92 H 0.02906 0.02919 0.37438 0.0
H93 H 0.03064 0.08739 0.25021 0.0
H94 H 0.97057 0.92053 0.21362 0.0
H95 H 0.16386 0.03534 0.64541 0.0
H96 H 0.02612 0.03634 0.08474 0.0
H97 H 0.22154 0.08758 0.63639 0.0
H98 H 0.85241 0.88964 0.47327 0.0
H99 H 0.08817 0.14092 0.25425 0.0
H100 H 0.15389 0.17273 0.15885 0.0
H101 H 0.8277 0.91871 0.67082 0.0
H102 H 0.2029 0.17557 0.98788 0.0
N103 N 0.07197 0.06785 0.97291 0.0
C104 C 0.0472 0.063 0.07367 0.0
C105 C 0.08363 0.12145 0.17426 0.0
C106 C 0.1116 0.12444 0.07676 0.0
C107 C 0.05121 0.09087 0.17268 0.0
C108 C 0.10477 0.09702 0.97537 0.0
H109 H 0.22733 0.14548 0.79089 0.0
N110 N 0.12846 0.06813 0.78873 0.0
C111 C 0.19635 0.09171 0.7033 0.0
C112 C 0.1334 0.09767 0.87991 0.0
C113 C 0.16185 0.06294 0.70648 0.0
C114 C 0.19969 0.12402 0.79118 0.0
C115 C 0.16931 0.12605 0.88382 0.0
O116 O 0.13409 0.99789 0.84458 0.0
O117 O 1.0172 0.98911 0.70738 0.0
O118 O 0.96115 0.046 0.84114 0.0
O119 O 1.01128 0.9984 0.91025 0.0
O120 O 0.07947 0.96769 0.67887 0.0
O121 O 0.08095 0.97867 0.95378 0.0
O122 O 0.92032 0.07979 0.66312 0.0
O123 O 0.03073 0.0733 0.76844 0.0
O124 O 0.09144 0.0268 0.62417 0.0
O125 O 0.03804 0.0695 0.54637 0.0
O126 O 0.9863 0.11502 0.71623 0.0
O127 O 0.94987 0.06346 0.49343 0.0
C128 C 0.03997 0.96005 0.64812 0.0
C129 C 0.13238 0.92712 0.89111 0.0
C130 C 0.10609 0.85566 0.85377 0.0
C131 C 0.09929 0.89943 0.85485 0.0
C132 C 0.14889 0.83998 0.85366 0.0
C133 C 0.17516 0.9122 0.89505 0.0
C134 C 0.18355 0.86863 0.87088 0.0
C135 C 0.97313 0.01859 0.92154 0.0
C136 C 0.12111 0.97136 0.92243 0.0
C137 C 0.17538 0.15397 0.98317 0.0
C138 C 0.14708 0.15264 0.08016 0.0
C139 C 1.02013 0.11318 0.78262 0.0
C140 C 0.90196 0.11919 0.49469 0.0
C141 C 0.93241 0.15147 0.49573 0.0
C142 C 0.93975 0.17342 0.39285 0.0
C143 C 0.90902 0.17218 0.3004 0.0
C144 C 0.86992 0.11775 0.40574 0.0
C145 C 0.87262 0.14571 0.31045 0.0
C146 C 0.07794 0.05261 0.54158 0.0
C147 C 0.91594 0.07989 0.54728 0.0
H148 H 0.06626 0.91128 0.8521 0.0
H149 H 0.15495 0.8058 0.85411 0.0
H150 H 0.20155 0.93386 0.91821 0.0
H151 H 0.2164 0.85666 0.87521 0.0
H152 H 0.95571 0.15428 0.56702 0.0
H153 H 0.91364 0.19059 0.22099 0.0
H154 H 0.84546 0.0928 0.40419 0.0
H155 H 0.84875 0.1441 0.23964 0.0
Tb156 Tb 0.53921 0.07464 0.83749 0.0
C157 C 0.58108 0.92141 0.55411 0.0
C158 C 0.60791 0.94959 0.36945 0.0
C159 C 0.63552 0.88188 0.4365 0.0
C160 C 0.58018 0.95262 0.4702 0.0
C161 C 0.60872 0.88541 0.53755 0.0
C162 C 0.63587 0.91446 0.35457 0.0
C163 C 0.58667 0.86182 0.73014 0.0
N164 N 0.55877 0.92876 0.65771 0.0
C165 C 0.5605 0.8981 0.74372 0.0
C166 C 0.61093 0.85537 0.62654 0.0
Tb167 Tb 0.50971 0.9859 0.65586 0.0
N168 N 0.55847 0.98934 0.49873 0.0
C169 C 0.56905 0.02552 0.43963 0.0
C170 C 0.61057 0.98438 0.29481 0.0
C171 C 0.59338 0.02339 0.33425 0.0
H172 H 0.5395 0.89877 0.82053 0.0
H173 H 0.60044 0.05215 0.28642 0.0
H174 H 0.66012 0.91364 0.28485 0.0
H175 H 0.58744 0.83838 0.79916 0.0
H176 H 0.5629 0.05653 0.47912 0.0
H177 H 0.49861 1.00859 0.27014 0.0
H178 H 0.62911 0.98278 0.21262 0.0
H179 H 0.5051 0.16911 0.72514 0.0
H180 H 0.54888 0.02806 0.11369 0.0
H181 H 0.45033 0.22268 0.7711 0.0
H182 H 0.65777 0.85522 0.42416 0.0
H183 H 0.4297 0.04751 0.2942 0.0
H184 H 0.38664 0.11175 0.24085 0.0
H185 H 0.63152 0.82733 0.61658 0.0
H186 H 0.37389 0.17072 0.10692 0.0
N187 N 0.50294 0.06524 1.01744 0.0
C188 C 0.51643 0.04026 0.10895 0.0
C189 C 0.44981 0.05278 0.21646 0.0
C190 C 0.44013 0.08492 0.13714 0.0
C191 C 0.48866 0.03071 0.20315 0.0
C192 C 0.46683 0.08961 0.03512 0.0
H193 H 0.39748 0.21243 0.9331 0.0
N194 N 0.4841 0.12511 0.8581 0.0
C195 C 0.45113 0.19372 0.82143 0.0
C196 C 0.45834 0.12171 0.95628 0.0
C197 C 0.48221 0.16229 0.79527 0.0
C198 C 0.42167 0.18799 0.91342 0.0
C199 C 0.42555 0.15226 0.98393 0.0
O200 O 0.56745 0.13372 0.80391 0.0
O201 O 0.56392 0.02628 0.70747 0.0
O202 O 0.51549 0.96905 0.84621 0.0
O203 O 0.5672 1.01612 0.91919 0.0
O204 O 0.60655 0.06945 0.76862 0.0
O205 O 0.57153 0.1073 0.97967 0.0
O206 O 0.48175 0.92855 0.70306 0.0
O207 O 0.48713 0.02848 0.80404 0.0
O208 O 0.5134 0.09735 0.66231 0.0
O209 O 0.48918 0.03989 0.54021 0.0
O210 O 0.44423 1.01514 0.67159 0.0
O211 O 0.4746 0.94962 0.52401 0.0
C212 C 0.60432 0.03655 0.69728 0.0
C213 C 0.62823 0.15222 0.91308 0.0
C214 C 0.7038 0.13219 0.91663 0.0
C215 C 0.66013 0.12145 0.9246 0.0
C216 C 0.71612 0.17469 0.89873 0.0
C217 C 0.64014 0.19477 0.89232 0.0
C218 C 0.68409 0.20592 0.88523 0.0
C219 C 0.54734 0.97813 0.92182 0.0
C220 C 0.58285 0.13888 0.91161 0.0
C221 C 0.39916 0.14765 0.08493 0.0
C222 C 0.4062 0.11384 0.1607 0.0
C223 C 0.44772 0.03547 0.77407 0.0
C224 C 0.42053 0.90525 0.61014 0.0
C225 C 0.38742 0.93427 0.59489 0.0
C226 C 0.3451 0.92469 0.629 0.0
C227 C 0.33529 0.88466 0.6751 0.0
C228 C 0.4112 0.86514 0.65751 0.0
C229 C 0.36858 0.85486 0.68944 0.0
C230 C 0.49419 0.08223 0.56241 0.0
C231 C 0.46519 0.91975 0.59927 0.0
H232 H 0.65112 0.08895 0.94614 0.0
H233 H 0.75001 0.18375 0.8993 0.0
H234 H 0.6156 0.21912 0.88145 0.0
H235 H 0.6933 0.23885 0.87131 0.0
H236 H 0.39446 0.96464 0.55473 0.0
H237 H 0.30221 0.87637 0.69733 0.0
H238 H 0.43695 0.84241 0.67258 0.0
H239 H 0.36144 0.82392 0.72566 0.0
Tb240 Tb 0.5613 0.508 0.65845 0.0
C241 C 0.37836 0.53711 0.75124 0.0
C242 C 0.35789 0.5845 0.59383 0.0
C243 C 0.30255 0.54413 0.69413 0.0
C244 C 0.38984 0.56702 0.66818 0.0
C245 C 0.3346 0.52487 0.76261 0.0
C246 C 0.31423 0.57407 0.61034 0.0
C247 C 0.35594 0.47463 0.9092 0.0
N248 N 0.41008 0.51886 0.81727 0.0
C249 C 0.39865 0.48813 0.89758 0.0
C250 C 0.32398 0.4934 0.84209 0.0
Tb251 Tb 0.47545 0.5556 0.81186 0.0
N252 N 0.43252 0.57594 0.65294 0.0
C253 C 0.44498 0.59901 0.55603 0.0
C254 C 0.37068 0.6107 0.50178 0.0
C255 C 0.41452 0.61697 0.48057 0.0
H256 H 0.42061 0.47567 0.96187 0.0
H257 H 0.42503 0.63501 0.40472 0.0
H258 H 0.28942 0.5883 0.55669 0.0
H259 H 0.34751 0.45085 0.97354 0.0
H260 H 0.47813 0.60144 0.5292 0.0
H261 H 0.62905 0.4256 0.03906 0.0
H262 H 0.34697 0.62445 0.44341 0.0
H263 H 0.61047 0.57151 0.46043 0.0
H264 H 0.57237 0.4641 0.94025 0.0
H265 H 0.68361 0.59804 0.4257 0.0
H266 H 0.2687 0.53554 0.70389 0.0
H267 H 0.70398 0.42705 0.961 0.0
H268 H 0.75632 0.4536 0.80575 0.0
H269 H 0.29104 0.4838 0.8521 0.0
H270 H 0.77237 0.50806 0.6593 0.0
N271 N 0.61179 0.48544 0.79632 0.0
C272 C 0.60344 0.46378 0.89866 0.0
C273 C 0.67855 0.4437 0.91489 0.0
C274 C 0.68775 0.46836 0.81624 0.0
C275 C 0.63635 0.44261 0.95864 0.0
C276 C 0.65346 0.48976 0.76015 0.0
H277 H 0.74502 0.56835 0.53845 0.0
N278 N 0.62821 0.53537 0.61272 0.0
C279 C 0.67814 0.57494 0.49393 0.0
C280 C 0.66199 0.51687 0.66863 0.0
C281 C 0.63628 0.56121 0.51811 0.0
C282 C 0.71268 0.55752 0.55512 0.0
C283 C 0.70512 0.52582 0.63674 0.0
O284 O 0.57718 0.49041 0.47993 0.0
O285 O 0.49029 0.50991 0.66657 0.0
O286 O 0.48629 0.49304 0.89898 0.0
O287 O 0.52715 0.45569 0.75602 0.0
O288 O 0.5194 0.51719 0.5036 0.0
O289 O 0.57757 0.44373 0.61827 0.0
O290 O 0.4301 0.56843 0.94868 0.0
O291 O 0.54591 0.55053 0.80893 0.0
O292 O 0.56524 0.57962 0.62656 0.0
O293 O 0.50725 0.61161 0.72638 0.0
O294 O 0.51873 0.55669 0.97325 0.0
O295 O 0.4606 0.62017 0.85354 0.0
C296 C 0.48258 0.51197 0.55494 0.0
C297 C 0.63123 0.43593 0.46807 0.0
C298 C 0.68053 0.37536 0.4379 0.0
C299 C 0.64104 0.39278 0.48116 0.0
C300 C 0.71267 0.40321 0.39733 0.0
C301 C 0.6618 0.46201 0.41252 0.0
C302 C 0.70297 0.44633 0.38302 0.0
C303 C 0.50165 0.45602 0.85293 0.0
C304 C 0.58821 0.45176 0.50811 0.0
C305 C 0.73916 0.50303 0.68717 0.0
C306 C 0.73015 0.47282 0.77287 0.0
C307 C 0.5559 0.55237 0.92038 0.0
C308 C 0.40372 0.64003 0.99559 0.0
C309 C 0.41198 0.68325 0.98029 0.0
C310 C 0.41166 0.70999 0.08271 0.0
C311 C 0.38474 0.69929 0.17904 0.0
C312 C 0.37659 0.62802 0.08975 0.0
C313 C 0.3649 0.65884 0.1782 0.0
C314 C 0.54181 0.61463 0.65546 0.0
C315 C 0.43024 0.60887 0.92764 0.0
H316 H 0.6157 0.37213 0.51406 0.0
H317 H 0.7436 0.3909 0.36562 0.0
H318 H 0.654 0.49419 0.39096 0.0
H319 H 0.72668 0.46696 0.34295 0.0
H320 H 0.43188 0.69228 0.9048 0.0
H321 H 0.38344 0.71966 0.25957 0.0
H322 H 0.36681 0.59498 0.09881 0.0
H323 H 0.34479 0.64988 0.25248 0.0
Tb324 Tb 0.04507 0.57044 0.65418 0.0
C325 C 1.01332 0.38921 0.76319 0.0
C326 C 0.95195 0.36814 0.64076 0.0
C327 C 0.99189 0.31421 0.74534 0.0
C328 C 0.9798 0.39999 0.68952 0.0
C329 C 1.02082 0.346 0.78776 0.0
C330 C 0.95684 0.32545 0.67392 0.0
C331 C 0.08341 0.3684 0.90147 0.0
N332 N 0.03762 0.42152 0.81404 0.0
C333 C 0.07302 0.41103 0.88226 0.0
C334 C 0.05649 0.33604 0.85666 0.0
Tb335 Tb 1.00322 0.48795 0.81173 0.0
N336 N 0.9759 0.4416 0.6614 0.0
C337 C 0.95211 0.45096 0.56186 0.0
C338 C 0.92136 0.37996 0.55632 0.0
C339 C 0.92412 0.42051 0.50917 0.0
H340 H 0.0924 0.4341 0.93119 0.0
H341 H 0.90399 0.4287 0.43415 0.0
H342 H 0.93509 0.30061 0.63996 0.0
H343 H 0.11078 0.36064 0.95705 0.0
H344 H 0.95363 0.48195 0.52285 0.0
H345 H 0.13105 0.66595 0.99057 0.0
H346 H 0.89818 0.35701 0.51942 0.0
H347 H 0.98733 0.59924 0.41747 0.0
H348 H 0.10828 0.59922 0.8918 0.0
H349 H 0.94558 0.66312 0.36226 0.0
H350 H 0.99654 0.28091 0.76657 0.0
H351 H 0.10019 0.7345 0.92844 0.0
H352 H 0.06031 0.7711 0.76948 0.0
H353 H 0.06271 0.30357 0.87812 0.0
H354 H 1.00099 0.77126 0.62328 0.0
N355 N 0.06095 0.62756 0.77978 0.0
C356 C 0.09257 0.62791 0.86613 0.0
C357 C 0.08856 0.70463 0.88758 0.0
C358 C 0.05723 0.70423 0.79738 0.0
C359 C 0.10615 0.66616 0.92251 0.0
C360 C 0.04284 0.66485 0.74662 0.0
H361 H 0.95033 0.72969 0.48932 0.0
N362 N 1.00794 0.62729 0.58532 0.0
C363 C 0.96501 0.66397 0.44274 0.0
C364 C 1.01424 0.66434 0.65001 0.0
C365 C 0.98827 0.62794 0.47488 0.0
C366 C 0.96766 0.70128 0.51478 0.0
C367 C 0.99616 0.70276 0.6117 0.0
O368 O 0.06874 0.57652 0.47871 0.0
O369 O 0.04564 0.50057 0.66331 0.0
O370 O 0.06837 0.49875 0.89167 0.0
O371 O 0.10068 0.5417 0.75228 0.0
O372 O 0.03215 0.5268 0.50186 0.0
O373 O 0.10351 0.60329 0.63044 0.0
O374 O 0.99116 0.44343 0.94069 0.0
O375 O 1.0074 0.55809 0.81325 0.0
O376 O 0.9725 0.57533 0.63505 0.0
O377 O 0.94502 0.51446 0.71958 0.0
O378 O 1.01716 0.52994 0.97203 0.0
O379 O 0.94233 0.48923 0.8972 0.0
C380 C 0.03943 0.49125 0.55275 0.0
C381 C 0.14478 0.5768 0.47208 0.0
C382 C 0.19219 0.51541 0.44602 0.0
C383 C 0.1517 0.53252 0.47616 0.0
C384 C 0.22582 0.5428 0.41175 0.0
C385 C 0.1782 0.60391 0.43604 0.0
C386 C 0.2186 0.58682 0.40516 0.0
C387 C 0.10307 0.51819 0.84907 0.0
C388 C 0.10421 0.59528 0.51585 0.0
C389 C 1.01106 0.74167 0.66099 0.0
C390 C 0.04329 0.74209 0.7482 0.0
C391 C 1.01515 0.56687 0.92454 0.0
C392 C 0.91933 0.42058 0.96439 0.0
C393 C 0.87656 0.43261 0.94682 0.0
C394 C 0.85031 0.43356 0.04866 0.0
C395 C 0.85776 0.40358 0.13711 0.0
C396 C 0.92748 0.38844 0.04666 0.0
C397 C 0.89534 0.37842 0.1301 0.0
C398 C 0.9394 0.54901 0.65489 0.0
C399 C 0.95156 0.45509 0.95625 0.0
H400 H 0.12599 0.51146 0.50406 0.0
H401 H 0.25738 0.53002 0.38778 0.0
H402 H 0.1732 0.63825 0.43358 0.0
H403 H 0.24446 0.60771 0.37715 0.0
H404 H 0.87005 0.4558 0.87886 0.0
H405 H 0.83753 0.40304 0.21643 0.0
H406 H 0.95992 0.37603 0.05808 0.0
H407 H 0.9022 0.35601 0.19914 0.0
C408 C 0.16543 0.10435 0.34316 0.0
C409 C 0.18206 0.07017 0.26845 0.0
C410 C 0.13087 0.09897 0.42611 0.0
C411 C 0.10916 0.05964 0.43713 0.0
H412 H 0.1826 0.13466 0.34701 0.0
H413 H 0.1233 0.12506 0.48888 0.0
S414 S 0.13925 0.95888 0.26835 0.0
N415 N 0.17316 0.99467 0.21591 0.0
N416 N 0.10837 0.98498 0.36764 0.0
C417 C 0.12438 0.02538 0.36129 0.0
C418 C 0.15992 0.03071 0.27734 0.0
C419 C 0.51015 0.14998 0.2797 0.0
C420 C 0.4855 0.18767 0.30169 0.0
C421 C 0.51084 0.11573 0.35938 0.0
C422 C 0.48526 0.11495 0.4645 0.0
H423 H 0.53297 0.14881 0.20568 0.0
H424 H 0.53327 0.09057 0.33788 0.0
S425 S 0.40374 0.19912 0.54514 0.0
N426 N 0.42866 0.21851 0.4276 0.0
N427 N 0.42648 0.15223 0.56931 0.0
C428 C 0.45616 0.15 0.47958 0.0
C429 C 0.45677 0.18621 0.40031 0.0
C430 C 0.36587 0.47655 0.46369 0.0
C431 C 0.36193 0.48849 0.3421 0.0
C432 C 0.40477 0.4818 0.53032 0.0
C433 C 0.44085 0.50341 0.48454 0.0
H434 H 0.33903 0.46092 0.50703 0.0
H435 H 0.40647 0.46866 0.61835 0.0
S436 S 0.45051 0.53978 0.17565 0.0
N437 N 0.40074 0.52031 0.17915 0.0
N438 N 0.47112 0.5348 0.3093 0.0
C439 C 0.43741 0.5161 0.36523 0.0
C440 C 0.39866 0.5086 0.29442 0.0
C441 C 0.07589 0.37624 0.4574 0.0
C442 C 0.06651 0.37145 0.33106 0.0
C443 C 0.06878 0.41427 0.52734 0.0
C444 C 0.0484 0.44977 0.48053 0.0
H445 H 0.08807 0.35017 0.50815 0.0
H446 H 0.07993 0.41571 0.61875 0.0
S447 S 1.02185 0.46101 0.16413 0.0
N448 N 0.03801 0.41064 0.16599 0.0
N449 N 1.02307 0.48076 0.30104 0.0
C450 C 0.03842 0.44647 0.3578 0.0
C451 C 0.04666 0.40787 0.28391 0.0
C452 C 0.88468 0.03742 0.1692 0.0
C453 C 0.86829 0.99607 0.19165 0.0
C454 C 0.92005 0.04432 0.08869 0.0
C455 C 0.94123 1.01022 1.02417 0.0
H456 H 0.86728 0.06496 0.20464 0.0
H457 H 0.92939 0.07705 0.07199 0.0
S458 S 0.90532 0.89718 1.02706 0.0
N459 N 0.8732 0.92154 0.12553 0.0
N460 N 0.93903 0.93401 0.97958 0.0
C461 C 0.92496 0.96899 0.04419 0.0
C462 C 0.88903 0.96212 0.12549 0.0
C463 C 0.53392 0.88881 0.15442 0.0
C464 C 0.57552 0.87003 0.15979 0.0
C465 C 0.52545 0.92484 0.08258 0.0
C466 C 0.55822 0.94516 1.01525 0.0
H467 H 0.507 0.87377 0.19907 0.0
H468 H 0.4925 0.93616 0.07695 0.0
S469 S 0.67271 0.91018 0.99802 0.0
N470 N 0.64975 0.87543 0.08641 0.0
N471 N 0.63413 0.94398 0.96255 0.0
C472 C 0.60004 0.92801 1.02395 0.0
C473 C 0.60844 0.89048 0.09247 0.0
C474 C 0.6483 0.55438 0.16633 0.0
C475 C 0.68466 0.57371 0.11164 0.0
C476 C 0.60766 0.54708 0.10505 0.0
C477 C 0.60027 0.55877 0.9844 0.0
H478 H 0.65075 0.54562 0.25824 0.0
H479 H 0.58153 0.53223 0.1535 0.0
S480 S 0.6816 0.61333 0.80001 0.0
N481 N 0.70805 0.60266 0.92163 0.0
N482 N 0.63212 0.59509 0.81992 0.0
C483 C 0.63548 0.57888 0.93035 0.0
C484 C 0.67707 0.58454 0.98962 0.0
C485 C 0.96399 0.6707 0.06782 0.0
C486 C 0.99425 0.68708 0.15615 0.0
C487 C 0.97194 0.63446 0.98976 0.0
C488 C 1.00863 0.6085 1.00167 0.0
H489 H 0.93304 0.68618 0.05632 0.0
H490 H 0.94802 0.62578 0.9223 0.0
S491 S 0.09338 0.62722 0.23404 0.0
N492 N 0.06135 0.66922 0.25438 0.0
N493 N 0.07154 0.59691 0.126 0.0
C494 C 0.03632 0.62052 0.0991 0.0
C495 C 0.03035 0.6601 0.17158 0.0
C496 C 0.05863 0.19909 0.42137 0.0
C497 C 0.0591 0.24303 0.40072 0.0
C498 C 1.01996 0.17579 0.41265 0.0
C499 C 0.98059 0.19646 0.38705 0.0
H500 H 0.08893 0.18227 0.4279 0.0
H501 H 1.02091 0.14141 0.42248 0.0
S502 S 0.96145 0.31192 0.37534 0.0
N503 N 1.01325 0.30703 0.4051 0.0
N504 N 0.94256 0.26277 0.36576 0.0
C505 C 0.97968 0.24049 0.38357 0.0
C506 C 1.01833 0.26412 0.40099 0.0
C507 C 0.31319 0.03101 0.54945 0.0
C508 C 0.30212 0.02105 0.43017 0.0
C509 C 0.31774 0.99805 0.63017 0.0
C510 C 0.31226 0.95482 0.59164 0.0
H511 H 0.32024 0.0638 0.57842 0.0
H512 H 0.33144 1.00561 0.71744 0.0
S513 S 0.27024 0.91477 0.299 0.0
N514 N 0.27542 0.96703 0.2857 0.0
N515 N 0.28532 0.90522 0.43717 0.0
C516 C 0.29441 0.94572 0.47889 0.0
C517 C 0.28998 0.97884 0.39693 0.0
C518 C 0.62253 0.27784 0.41941 0.0
C519 C 0.61472 0.27887 0.29533 0.0
C520 C 0.65685 0.30139 0.47051 0.0
C521 C 0.68062 0.32945 0.39932 0.0
H522 H 0.5991 0.26383 0.47897 0.0
H523 H 0.65766 0.3055 0.56728 0.0
S524 S 0.68708 0.3239 0.06758 0.0
N525 N 0.64522 0.29346 0.10046 0.0
N526 N 0.70741 0.34088 0.19745 0.0
C527 C 0.68067 0.32091 0.27467 0.0
C528 C 0.64688 0.2958 0.22213 0.0
C529 C 0.25041 0.41089 0.46031 0.0
C530 C 0.24042 0.39667 0.34193 0.0
C531 C 0.23287 0.45025 0.50183 0.0
C532 C 0.19879 0.46877 0.43849 0.0
H533 H 0.27952 0.39977 0.50315 0.0
H534 H 0.24834 0.46779 0.57549 0.0
S535 S 0.14064 0.41769 0.18228 0.0
N536 N 0.17768 0.38225 0.21742 0.0
N537 N 0.14495 0.45791 0.2818 0.0
C538 C 0.17815 0.44353 0.34885 0.0
C539 C 0.19662 0.4032 0.31223 0.0
C540 C 0.04767 0.81783 0.11665 0.0
C541 C 1.00391 0.81919 0.08068 0.0
C542 C 0.08094 0.82423 0.03643 0.0
C543 C 0.0718 0.83372 0.91794 0.0
H544 H 0.05697 0.81063 0.20609 0.0
H545 H 0.11388 0.8246 0.06994 0.0
S546 S 0.96276 0.83246 0.77984 0.0
N547 N 0.95362 0.82157 0.91932 0.0
N548 N 1.01562 0.841 0.76771 0.0
C549 C 0.02809 0.83456 0.88123 0.0
C550 C 0.99449 0.8252 0.96234 0.0
C551 C 0.73781 0.0627 0.14587 0.0
C552 C 0.73902 0.02261 0.08371 0.0
C553 C 0.73573 0.10079 0.0865 0.0
C554 C 0.73322 0.10033 0.96186 0.0
H555 H 0.7393 0.06503 0.24157 0.0
H556 H 0.73107 0.13038 0.13901 0.0
S557 S 0.7505 1.0063 0.75763 0.0
N558 N 0.74823 0.9858 0.89115 0.0
N559 N 0.74243 0.05844 0.77659 0.0
C560 C 0.73893 0.06127 0.89751 0.0
C561 C 0.74169 0.02217 0.95886 0.0
C562 C 0.52799 0.70179 0.15012 0.0
C563 C 0.54693 0.73718 0.09427 0.0
C564 C 0.48341 0.69809 0.16208 0.0
C565 C 0.45517 0.72664 0.1073 0.0
H566 H 0.54758 0.67814 0.19332 0.0
H567 H 0.47084 0.67054 0.20757 0.0
S568 S 0.48606 0.81337 0.90686 0.0
N569 N 0.53252 0.79467 0.95555 0.0
N570 N 0.44811 0.78483 0.97135 0.0
C571 C 0.47288 0.75857 0.03735 0.0
C572 C 0.51868 0.76363 1.02893 0.0
C573 C 0.79284 0.53725 1.01991 0.0
C574 C 0.82001 0.56724 0.08187 0.0
C575 C 0.79955 0.49316 1.02584 0.0
C576 C 0.8358 0.47705 0.08245 0.0
H577 H 0.76401 0.5472 0.97466 0.0
H578 H 0.77655 0.47121 0.98531 0.0
S579 S 0.92616 0.54061 0.21751 0.0
N580 N 0.89135 0.57679 0.17301 0.0
N581 N 0.90395 0.49367 0.18255 0.0
C582 C 0.86623 0.50623 0.13184 0.0
C583 C 0.85935 0.55121 0.12681 0.0
C584 C 1.01538 0.20261 0.03937 0.0
C585 C 0.04971 0.23176 1.01612 0.0
C586 C 1.00748 0.16421 0.96773 0.0
C587 C 0.03368 0.15127 0.86795 0.0
H588 H 0.99541 0.20847 0.11813 0.0
H589 H 0.98051 0.14402 0.99203 0.0
S590 S 0.12597 0.21587 0.75856 0.0
N591 N 0.11094 0.24223 0.88277 0.0
N592 N 0.09236 0.17484 0.74184 0.0
C593 C 0.06661 0.18093 0.83969 0.0
C594 C 0.07584 0.2191 0.91545 0.0
C595 C 0.33918 0.07532 0.92687 0.0
C596 C 0.33068 0.04518 1.01606 0.0
C597 C 0.37612 0.07175 0.84833 0.0
C598 C 0.40793 0.03905 0.8578 0.0
H599 H 0.31838 0.10309 0.92121 0.0
H600 H 0.38076 0.09601 0.7826 0.0
S601 S 0.39762 0.9474 0.05866 0.0
N602 N 0.35467 0.97703 0.09177 0.0
N603 N 0.42407 0.97273 0.95372 0.0
C604 C 0.39827 1.00745 0.94079 0.0
C605 C 0.36007 1.00999 1.01682 0.0
C606 C 0.48581 0.37676 0.11457 0.0
C607 C 0.49235 0.33503 0.06243 0.0
C608 C 0.48687 0.41478 0.04669 0.0
C609 C 0.49572 0.41406 0.92185 0.0
H610 H 0.48233 0.3804 0.21093 0.0
H611 H 0.48293 0.44536 0.09445 0.0
S612 S 0.51457 0.3135 0.73848 0.0
N613 N 0.5072 0.29621 0.87513 0.0
N614 N 0.50949 0.36625 0.74908 0.0
C615 C 0.50122 0.37243 0.86794 0.0
C616 C 0.49956 0.3337 0.93712 0.0
C617 C 0.20101 0.52462 0.07163 0.0
C618 C 0.22785 0.48979 0.03397 0.0
C619 C 0.1616 0.53451 1.0111 0.0
C620 C 0.14702 0.51078 0.90796 0.0
H621 H 0.209 0.54284 0.15286 0.0
H622 H 0.14195 0.56039 0.04775 0.0
S623 S 0.20319 0.41636 0.77072 0.0
N624 N 0.23439 0.43099 0.88457 0.0
N625 N 0.1633 0.45148 0.77077 0.0
C626 C 0.17399 0.47715 0.8671 0.0
C627 C 0.2132 0.46624 0.92964 0.0
C628 C 0.9794 0.85623 0.52184 0.0
C629 C 1.01121 0.83113 0.45938 0.0
C630 C 0.9886 0.89576 0.58615 0.0
C631 C 0.02919 0.91609 0.58307 0.0
H632 H 0.94622 0.84486 0.52121 0.0
H633 H 0.96386 0.9093 0.64373 0.0
S634 S 0.12703 0.86313 0.44562 0.0
N635 N 0.08784 0.8286 0.41333 0.0
N636 N 0.1041 0.90356 0.52135 0.0
C637 C 0.06212 0.89059 0.52465 0.0
C638 C 0.05332 0.84889 0.46508 0.0
C639 C 0.69938 0.97316 0.53115 0.0
C640 C 0.72406 1.00547 0.47501 0.0
C641 C 0.66213 0.98251 0.60519 0.0
C642 C 0.64339 0.02391 0.61528 0.0
H643 H 0.70946 0.94005 0.5191 0.0
H644 H 0.64843 0.95708 0.65611 0.0
S645 S 0.69633 0.12152 0.49916 0.0
N646 N 0.72899 0.08235 0.45337 0.0
N647 N 0.65649 0.09848 0.57191 0.0
C648 C 0.66835 0.05655 0.56228 0.0
C649 C 0.70821 0.04766 0.49578 0.0
C650 C 0.52744 0.72228 0.48276 0.0
C651 C 0.57019 0.73562 0.4552 0.0
C652 C 0.51864 0.68561 0.5536 0.0
C653 C 0.55184 0.65812 0.59549 0.0
H654 H 0.50037 0.73884 0.44388 0.0
H655 H 0.48512 0.67772 0.57008 0.0
S656 S 0.6694 0.6821 0.56129 0.0
N657 N 0.64576 0.72111 0.49086 0.0
N658 N 0.62969 0.65196 0.61112 0.0
C659 C 0.59439 0.67278 0.57256 0.0
C660 C 0.60329 0.71109 0.50648 0.0
C661 C 0.83338 0.5321 0.46104 0.0
C662 C 0.81905 0.57416 0.43914 0.0
C663 C 0.86922 0.52402 0.53894 0.0
C664 C 0.89513 0.55728 0.59325 0.0
H665 H 0.81803 0.50519 0.41407 0.0
H666 H 0.87725 0.49115 0.55277 0.0
S667 S 0.86466 0.67238 0.59187 0.0
N668 N 0.82829 0.64882 0.50366 0.0
N669 N 0.89687 0.63383 0.63608 0.0
C670 C 0.87875 0.599 0.57955 0.0
C671 C 0.84093 0.60716 0.50658 0.0
loop_
_geom_bond_atom_site_label_1
_geom_bond_atom_site_label_2
_geom_bond_distance
_geom_bond_site_symmetry_2
_ccdc_geom_bond_type
H0 C3 0.931 . S
H1 C6 0.928 . S
H2 C8 0.930 . S
C3 H0 0.931 . S
C3 C4 1.413 . S
C3 C5 1.360 . S
C4 C3 1.413 . S
C4 C8 1.429 . S
C5 C3 1.360 . S
C5 C6 1.372 . S
C6 H1 0.928 . S
C6 C5 1.372 . S
C6 C7 1.404 . S
C7 C6 1.404 . S
C7 C8 1.391 . S
C8 H2 0.930 . S
C8 C4 1.429 . S
C8 C7 1.391 . S
H9 C12 0.931 . S
H10 C15 0.928 . S
H11 C17 0.930 . S
C12 H9 0.931 . S
C12 C13 1.413 . S
C12 C14 1.360 . S
C13 C12 1.413 . S
C13 C17 1.429 . S
C14 C12 1.360 . S
C14 C15 1.372 . S
C15 H10 0.928 . S
C15 C14 1.372 . S
C15 C16 1.404 . S
C16 C15 1.404 . S
C16 C17 1.391 . S
C17 H11 0.930 . S
C17 C13 1.429 . S
C17 C16 1.391 . S
H18 C21 0.931 . S
H19 C24 0.928 . S
H20 C26 0.930 . S
C21 H18 0.931 . S
C21 C22 1.413 . S
C21 C23 1.360 . S
C22 C21 1.413 . S
C22 C26 1.429 . S
C23 C21 1.360 . S
C23 C24 1.372 . S
C24 H19 0.928 . S
C24 C23 1.372 . S
C24 C25 1.404 . S
C25 C24 1.404 . S
C25 C26 1.391 . S
C26 H20 0.930 . S
C26 C22 1.429 . S
C26 C25 1.391 . S
H27 C30 0.931 . S
H28 C33 0.928 . S
H29 C35 0.930 . S
C30 H27 0.931 . S
C30 C31 1.413 . S
C30 C32 1.360 . S
C31 C30 1.413 . S
C31 C35 1.429 . S
C32 C30 1.360 . S
C32 C33 1.372 . S
C33 H28 0.928 . S
C33 C32 1.372 . S
C33 C34 1.404 . S
C34 C33 1.404 . S
C34 C35 1.391 . S
C35 H29 0.930 . S
C35 C31 1.429 . S
C35 C34 1.391 . S
H36 C39 0.931 . S
H37 C42 0.928 . S
H38 C44 0.930 . S
C39 H36 0.931 . S
C39 C40 1.413 . S
C39 C41 1.360 1_556 S
C40 C39 1.413 . S
C40 C44 1.429 . S
C41 C39 1.360 1_554 S
C41 C42 1.372 . S
C42 H37 0.928 . S
C42 C41 1.372 . S
C42 C43 1.404 . S
C43 C42 1.404 . S
C43 C44 1.391 1_554 S
C44 H38 0.930 . S
C44 C40 1.429 . S
C44 C43 1.391 1_556 S
H45 C48 0.931 . S
H46 C51 0.928 . S
H47 C53 0.930 . S
C48 H45 0.931 . S
C48 C49 1.413 . S
C48 C50 1.360 1_556 S
C49 C48 1.413 . S
C49 C53 1.429 . S
C50 C48 1.360 1_554 S
C50 C51 1.372 . S
C51 H46 0.928 . S
C51 C50 1.372 . S
C51 C52 1.404 . S
C52 C51 1.404 . S
C52 C53 1.391 1_554 S
C53 H47 0.930 . S
C53 C49 1.429 . S
C53 C52 1.391 1_556 S
H54 C57 0.931 . S
H55 C60 0.928 . S
H56 C62 0.930 . S
C57 H54 0.931 . S
C57 C58 1.413 . S
C57 C59 1.360 1_556 S
C58 C57 1.413 . S
C58 C62 1.429 . S
C59 C57 1.360 1_554 S
C59 C60 1.372 . S
C60 H55 0.928 . S
C60 C59 1.372 . S
C60 C61 1.404 . S
C61 C60 1.404 . S
C61 C62 1.391 1_554 S
C62 H56 0.930 . S
C62 C58 1.429 . S
C62 C61 1.391 1_556 S
H63 C66 0.931 . S
H64 C69 0.928 . S
H65 C71 0.930 . S
C66 H63 0.931 . S
C66 C67 1.413 1_556 S
C66 C68 1.360 . S
C67 C66 1.413 1_554 S
C67 C71 1.429 . S
C68 C66 1.360 . S
C68 C69 1.372 . S
C69 H64 0.928 . S
C69 C68 1.372 . S
C69 C70 1.404 1_556 S
C70 C69 1.404 1_554 S
C70 C71 1.391 . S
C71 H65 0.930 . S
C71 C67 1.429 . S
C71 C70 1.391 . S
Tb72 N103 2.660 1_565 S
Tb72 N110 2.601 . S
Tb72 O116 2.546 . S
Tb72 O117 2.610 1_455 S
Tb72 O119 2.320 1_455 S
Tb72 O120 2.552 . S
Tb72 O121 2.413 . S
Tb72 O123 2.362 1_565 S
Tb72 O124 2.421 . S
Tb72 C136 2.833 . S
C73 C76 1.432 . S
C73 C77 1.414 . S
C73 N80 1.359 1_565 S
C74 C76 1.417 . S
C74 C78 1.432 . S
C74 C86 1.410 . S
C75 C77 1.444 . S
C75 C78 1.317 . S
C75 H98 0.929 . S
C76 C73 1.432 . S
C76 C74 1.417 . S
C76 N84 1.360 . S
C77 C73 1.414 . S
C77 C75 1.444 . S
C77 C82 1.374 1_565 S
C78 C74 1.432 . S
C78 C75 1.317 . S
C78 H90 0.930 . S
C79 C81 1.392 . S
C79 C82 1.384 . S
C79 H91 0.931 . S
N80 C73 1.359 1_545 S
N80 C81 1.327 . S
N80 Tb83 2.600 . S
C81 C79 1.392 . S
C81 N80 1.327 . S
C81 H88 0.930 . S
C82 C77 1.374 1_545 S
C82 C79 1.384 . S
C82 H101 0.926 1_545 S
Tb83 N80 2.600 . S
Tb83 N84 2.660 1_545 S
Tb83 O117 2.362 1_545 S
Tb83 O118 2.421 . S
Tb83 O122 2.546 . S
Tb83 O123 2.610 1_655 S
Tb83 O125 2.320 1_655 S
Tb83 O126 2.552 . S
Tb83 O127 2.413 . S
Tb83 C147 2.833 . S
N84 C76 1.360 . S
N84 Tb83 2.660 1_565 S
N84 C85 1.305 . S
C85 N84 1.305 . S
C85 C87 1.407 . S
C85 H92 0.930 1_655 S
C86 C74 1.410 . S
C86 C87 1.345 . S
C86 H94 0.930 . S
C87 C85 1.407 . S
C87 C86 1.345 . S
C87 H89 0.930 1_655 S
H88 C81 0.930 . S
H89 C87 0.930 1_455 S
H90 C78 0.930 . S
H91 C79 0.931 . S
H92 C85 0.930 1_455 S
H93 C107 0.930 . S
H94 C86 0.930 . S
H95 C113 0.930 . S
H96 C104 0.930 1_655 S
H97 C111 0.931 . S
H98 C75 0.929 . S
H99 C105 0.930 . S
H100 C138 0.930 . S
H101 C82 0.926 1_565 S
H102 C137 0.929 . S
N103 Tb72 2.660 1_545 S
N103 C104 1.305 1_556 S
N103 C108 1.360 1_556 S
C104 H96 0.930 1_455 S
C104 N103 1.305 1_554 S
C104 C107 1.407 . S
C105 H99 0.930 . S
C105 C106 1.410 . S
C105 C107 1.345 . S
C106 C105 1.410 . S
C106 C108 1.417 . S
C106 C138 1.432 . S
C107 H93 0.930 . S
C107 C104 1.407 . S
C107 C105 1.345 . S
C108 N103 1.360 1_554 S
C108 C106 1.417 . S
C108 C112 1.432 1_554 S
H109 C114 0.930 . S
N110 Tb72 2.601 . S
N110 C112 1.357 1_565 S
N110 C113 1.329 . S
C111 H97 0.931 . S
C111 C113 1.392 . S
C111 C114 1.370 1_565 S
C112 C108 1.432 1_556 S
C112 N110 1.357 1_545 S
C112 C115 1.414 . S
C113 H95 0.930 . S
C113 N110 1.329 . S
C113 C111 1.392 . S
C114 H109 0.930 . S
C114 C111 1.370 1_545 S
C114 C115 1.385 . S
C115 C112 1.414 . S
C115 C114 1.385 . S
C115 C137 1.444 1_556 S
O116 Tb72 2.546 . S
O116 C136 1.251 . S
O117 Tb72 2.610 1_655 S
O117 Tb83 2.362 1_565 S
O117 C128 1.283 . S
O118 Tb83 2.421 . S
O118 C135 1.269 . S
O119 Tb72 2.320 1_655 S
O119 C135 1.257 1_565 S
O120 Tb72 2.552 . S
O120 C128 1.243 1_455 S
O121 Tb72 2.413 . S
O121 C136 1.256 . S
O122 Tb83 2.546 . S
O122 C147 1.251 . S
O123 Tb72 2.362 1_545 S
O123 Tb83 2.610 1_455 S
O123 C139 1.283 . S
O124 Tb72 2.421 . S
O124 C146 1.262 1_565 S
O125 Tb83 2.320 1_455 S
O125 C146 1.260 . S
O126 Tb83 2.552 . S
O126 C139 1.243 1_655 S
O127 Tb83 2.413 . S
O127 C147 1.256 . S
C128 O117 1.283 . S
C128 O120 1.243 1_655 S
C129 C131 1.382 . S
C129 C133 1.393 . S
C129 C136 1.500 1_554 S
C130 C131 1.400 . S
C130 C132 1.384 . S
C131 C129 1.382 . S
C131 C130 1.400 . S
C131 H148 0.930 . S
C132 C130 1.384 . S
C132 C134 1.392 . S
C132 H149 0.931 . S
C133 C129 1.393 . S
C133 C134 1.401 . S
C133 H150 0.930 1_554 S
C134 C132 1.392 . S
C134 C133 1.401 . S
C134 H151 0.930 . S
C135 O118 1.269 . S
C135 O119 1.257 1_545 S
C136 Tb72 2.833 . S
C136 O116 1.251 . S
C136 O121 1.256 . S
C136 C129 1.500 1_556 S
C137 H102 0.929 . S
C137 C115 1.444 1_554 S
C137 C138 1.317 . S
C138 H100 0.930 . S
C138 C106 1.432 . S
C138 C137 1.317 . S
C139 O123 1.283 . S
C139 O126 1.243 1_455 S
C140 C141 1.382 . S
C140 C144 1.393 . S
C140 C147 1.500 . S
C141 C140 1.382 . S
C141 C142 1.400 . S
C141 H152 0.930 . S
C142 C141 1.400 . S
C142 C143 1.384 . S
C143 C142 1.384 . S
C143 C145 1.392 . S
C143 H153 0.931 . S
C144 C140 1.393 . S
C144 C145 1.401 . S
C144 H154 0.930 . S
C145 C143 1.392 . S
C145 C144 1.401 . S
C145 H155 0.930 . S
C146 O124 1.262 1_545 S
C146 O125 1.260 . S
C147 Tb83 2.833 . S
C147 O122 1.251 . S
C147 O127 1.256 . S
C147 C140 1.500 . S
H148 C131 0.930 . S
H149 C132 0.931 . S
H150 C133 0.930 1_556 S
H151 C134 0.930 . S
H152 C141 0.930 . S
H153 C143 0.931 . S
H154 C144 0.930 . S
H155 C145 0.930 . S
Tb156 N187 2.660 . S
Tb156 N194 2.600 . S
Tb156 O200 2.546 . S
Tb156 O201 2.610 1_545 S
Tb156 O203 2.320 1_545 S
Tb156 O204 2.552 . S
Tb156 O205 2.413 . S
Tb156 O207 2.362 . S
Tb156 O208 2.421 . S
Tb156 C220 2.833 . S
C157 C160 1.432 . S
C157 C161 1.414 . S
C157 N164 1.359 . S
C158 C160 1.417 . S
C158 C162 1.432 . S
C158 C170 1.410 . S
C159 C161 1.444 . S
C159 C162 1.317 . S
C159 H182 0.929 . S
C160 C157 1.432 . S
C160 C158 1.417 . S
C160 N168 1.360 . S
C161 C157 1.414 . S
C161 C159 1.444 . S
C161 C166 1.385 . S
C162 C158 1.432 . S
C162 C159 1.317 . S
C162 H174 0.930 . S
C163 C165 1.392 . S
C163 C166 1.370 . S
C163 H175 0.931 . S
N164 C157 1.359 . S
N164 C165 1.327 . S
N164 Tb167 2.600 . S
C165 C163 1.392 . S
C165 N164 1.327 . S
C165 H172 0.930 . S
C166 C161 1.385 . S
C166 C163 1.370 . S
C166 H185 0.930 . S
Tb167 N164 2.600 . S
Tb167 N168 2.660 . S
Tb167 O201 2.362 . S
Tb167 O202 2.421 . S
Tb167 O206 2.546 . S
Tb167 O207 2.610 1_565 S
Tb167 O209 2.320 1_565 S
Tb167 O210 2.552 . S
Tb167 O211 2.413 . S
Tb167 C231 2.833 . S
N168 C160 1.360 . S
N168 Tb167 2.660 . S
N168 C169 1.305 . S
C169 N168 1.305 . S
C169 C171 1.407 . S
C169 H176 0.930 1_565 S
C170 C158 1.410 . S
C170 C171 1.345 . S
C170 H178 0.930 . S
C171 C169 1.407 . S
C171 C170 1.345 . S
C171 H173 0.930 1_565 S
H172 C165 0.930 . S
H173 C171 0.930 1_545 S
H174 C162 0.930 . S
H175 C163 0.931 . S
H176 C169 0.930 1_545 S
H177 C191 0.930 . S
H178 C170 0.930 . S
H179 C197 0.930 . S
H180 C188 0.930 1_565 S
H181 C195 0.931 . S
H182 C159 0.929 . S
H183 C189 0.930 . S
H184 C222 0.930 . S
H185 C166 0.930 . S
H186 C221 0.929 . S
N187 Tb156 2.660 . S
N187 C188 1.305 1_556 S
N187 C192 1.360 1_556 S
C188 H180 0.930 1_545 S
C188 N187 1.305 1_554 S
C188 C191 1.407 . S
C189 H183 0.930 . S
C189 C190 1.410 . S
C189 C191 1.345 . S
C190 C189 1.410 . S
C190 C192 1.417 . S
C190 C222 1.432 . S
C191 H177 0.930 . S
C191 C188 1.407 . S
C191 C189 1.345 . S
C192 N187 1.360 1_554 S
C192 C190 1.417 . S
C192 C196 1.432 1_554 S
H193 C198 0.930 . S
N194 Tb156 2.600 . S
N194 C196 1.359 . S
N194 C197 1.327 . S
C195 H181 0.931 . S
C195 C197 1.392 . S
C195 C198 1.370 . S
C196 C192 1.432 1_556 S
C196 N194 1.359 . S
C196 C199 1.414 . S
C197 H179 0.930 . S
C197 N194 1.327 . S
C197 C195 1.392 . S
C198 H193 0.930 . S
C198 C195 1.370 . S
C198 C199 1.385 . S
C199 C196 1.414 . S
C199 C198 1.385 . S
C199 C221 1.444 1_556 S
O200 Tb156 2.546 . S
O200 C220 1.251 . S
O201 Tb156 2.610 1_565 S
O201 Tb167 2.362 . S
O201 C212 1.283 . S
O202 Tb167 2.421 . S
O202 C219 1.262 . S
O203 Tb156 2.320 1_565 S
O203 C219 1.260 . S
O204 Tb156 2.552 . S
O204 C212 1.243 1_545 S
O205 Tb156 2.413 . S
O205 C220 1.256 . S
O206 Tb167 2.546 . S
O206 C231 1.251 . S
O207 Tb156 2.362 . S
O207 Tb167 2.610 1_545 S
O207 C223 1.283 . S
O208 Tb156 2.421 . S
O208 C230 1.262 . S
O209 Tb167 2.320 1_545 S
O209 C230 1.260 . S
O210 Tb167 2.552 . S
O210 C223 1.243 1_565 S
O211 Tb167 2.413 . S
O211 C231 1.256 . S
C212 O201 1.283 . S
C212 O204 1.243 1_565 S
C213 C215 1.382 . S
C213 C217 1.393 . S
C213 C220 1.500 1_554 S
C214 C215 1.400 . S
C214 C216 1.384 . S
C215 C213 1.382 . S
C215 C214 1.400 . S
C215 H232 0.930 . S
C216 C214 1.384 . S
C216 C218 1.392 . S
C216 H233 0.931 . S
C217 C213 1.393 . S
C217 C218 1.401 . S
C217 H234 0.930 1_554 S
C218 C216 1.392 . S
C218 C217 1.401 . S
C218 H235 0.930 . S
C219 O202 1.262 . S
C219 O203 1.260 . S
C220 Tb156 2.833 . S
C220 O200 1.251 . S
C220 O205 1.256 . S
C220 C213 1.500 1_556 S
C221 H186 0.929 . S
C221 C199 1.444 1_554 S
C221 C222 1.317 . S
C222 H184 0.930 . S
C222 C190 1.432 . S
C222 C221 1.317 . S
C223 O207 1.283 . S
C223 O210 1.243 1_545 S
C224 C225 1.382 . S
C224 C228 1.393 . S
C224 C231 1.500 . S
C225 C224 1.382 . S
C225 C226 1.400 . S
C225 H236 0.930 . S
C226 C225 1.400 . S
C226 C227 1.384 . S
C227 C226 1.384 . S
C227 C229 1.392 . S
C227 H237 0.931 . S
C228 C224 1.393 . S
C228 C229 1.401 . S
C228 H238 0.930 . S
C229 C227 1.392 . S
C229 C228 1.401 . S
C229 H239 0.930 . S
C230 O208 1.262 . S
C230 O209 1.260 . S
C231 Tb167 2.833 . S
C231 O206 1.251 . S
C231 O211 1.256 . S
C231 C224 1.500 . S
H232 C215 0.930 . S
H233 C216 0.931 . S
H234 C217 0.930 1_556 S
H235 C218 0.930 . S
H236 C225 0.930 . S
H237 C227 0.931 . S
H238 C228 0.930 . S
H239 C229 0.930 . S
Tb240 N271 2.660 . S
Tb240 N278 2.600 . S
Tb240 O284 2.546 . S
Tb240 O285 2.610 . S
Tb240 O287 2.320 . S
Tb240 O288 2.552 . S
Tb240 O289 2.413 . S
Tb240 O291 2.362 . S
Tb240 O292 2.421 . S
Tb240 C304 2.833 . S
C241 C244 1.432 . S
C241 C245 1.414 . S
C241 N248 1.359 . S
C242 C244 1.417 . S
C242 C246 1.432 . S
C242 C254 1.410 . S
C243 C245 1.444 . S
C243 C246 1.317 . S
C243 H266 0.929 . S
C244 C241 1.432 . S
C244 C242 1.417 . S
C244 N252 1.360 . S
C245 C241 1.414 . S
C245 C243 1.444 . S
C245 C250 1.385 . S
C246 C242 1.432 . S
C246 C243 1.317 . S
C246 H258 0.930 . S
C247 C249 1.392 . S
C247 C250 1.370 . S
C247 H259 0.931 1_556 S
N248 C241 1.359 . S
N248 C249 1.327 . S
N248 Tb251 2.600 . S
C249 C247 1.392 . S
C249 N248 1.327 . S
C249 H256 0.930 . S
C250 C245 1.385 . S
C250 C247 1.370 . S
C250 H269 0.930 . S
Tb251 N248 2.600 . S
Tb251 N252 2.660 . S
Tb251 O285 2.362 . S
Tb251 O286 2.421 . S
Tb251 O290 2.546 1_556 S
Tb251 O291 2.610 . S
Tb251 O293 2.320 . S
Tb251 O294 2.552 . S
Tb251 O295 2.413 . S
Tb251 C315 2.834 . S
N252 C244 1.360 . S
N252 Tb251 2.660 . S
N252 C253 1.305 . S
C253 N252 1.305 . S
C253 C255 1.407 . S
C253 H260 0.930 . S
C254 C242 1.410 . S
C254 C255 1.345 . S
C254 H262 0.930 . S
C255 C253 1.407 . S
C255 C254 1.345 . S
C255 H257 0.930 . S
H256 C249 0.930 . S
H257 C255 0.930 . S
H258 C246 0.930 . S
H259 C247 0.931 1_554 S
H260 C253 0.930 . S
H261 C275 0.930 . S
H262 C254 0.930 . S
H263 C281 0.930 . S
H264 C272 0.930 . S
H265 C279 0.931 . S
H266 C243 0.929 . S
H267 C273 0.930 . S
H268 C306 0.930 . S
H269 C250 0.930 . S
H270 C305 0.929 . S
N271 Tb240 2.660 . S
N271 C272 1.305 . S
N271 C276 1.360 . S
C272 H264 0.930 . S
C272 N271 1.305 . S
C272 C275 1.407 . S
C273 H267 0.930 . S
C273 C274 1.410 . S
C273 C275 1.345 . S
C274 C273 1.410 . S
C274 C276 1.417 . S
C274 C306 1.432 . S
C275 H261 0.930 . S
C275 C272 1.407 . S
C275 C273 1.345 . S
C276 N271 1.360 . S
C276 C274 1.417 . S
C276 C280 1.432 . S
H277 C282 0.930 . S
N278 Tb240 2.600 . S
N278 C280 1.359 . S
N278 C281 1.327 . S
C279 H265 0.931 . S
C279 C281 1.392 . S
C279 C282 1.370 . S
C280 C276 1.432 . S
C280 N278 1.359 . S
C280 C283 1.414 . S
C281 H263 0.930 . S
C281 N278 1.327 . S
C281 C279 1.392 . S
C282 H277 0.930 . S
C282 C279 1.370 . S
C282 C283 1.385 . S
C283 C280 1.414 . S
C283 C282 1.385 . S
C283 C305 1.444 . S
O284 Tb240 2.546 . S
O284 C304 1.251 . S
O285 Tb240 2.610 . S
O285 Tb251 2.362 . S
O285 C296 1.283 . S
O286 Tb251 2.421 . S
O286 C303 1.262 . S
O287 Tb240 2.320 . S
O287 C303 1.260 . S
O288 Tb240 2.552 . S
O288 C296 1.243 . S
O289 Tb240 2.413 . S
O289 C304 1.256 . S
O290 Tb251 2.546 1_554 S
O290 C315 1.250 1_554 S
O291 Tb240 2.362 . S
O291 Tb251 2.610 . S
O291 C307 1.283 . S
O292 Tb240 2.421 . S
O292 C314 1.262 . S
O293 Tb251 2.320 . S
O293 C314 1.260 . S
O294 Tb251 2.552 . S
O294 C307 1.243 . S
O295 Tb251 2.413 . S
O295 C315 1.258 . S
C296 O285 1.283 . S
C296 O288 1.243 . S
C297 C299 1.382 . S
C297 C301 1.393 . S
C297 C304 1.500 . S
C298 C299 1.400 . S
C298 C300 1.384 . S
C299 C297 1.382 . S
C299 C298 1.400 . S
C299 H316 0.930 . S
C300 C298 1.384 . S
C300 C302 1.392 . S
C300 H317 0.931 . S
C301 C297 1.393 . S
C301 C302 1.401 . S
C301 H318 0.930 . S
C302 C300 1.392 . S
C302 C301 1.401 . S
C302 H319 0.930 . S
C303 O286 1.262 . S
C303 O287 1.260 . S
C304 Tb240 2.833 . S
C304 O284 1.251 . S
C304 O289 1.256 . S
C304 C297 1.500 . S
C305 H270 0.929 . S
C305 C283 1.444 . S
C305 C306 1.317 . S
C306 H268 0.930 . S
C306 C274 1.432 . S
C306 C305 1.317 . S
C307 O291 1.283 . S
C307 O294 1.243 . S
C308 C309 1.382 . S
C308 C312 1.393 . S
C308 C315 1.498 1_554 S
C309 C308 1.382 . S
C309 C310 1.400 . S
C309 H320 0.930 . S
C310 C309 1.400 . S
C310 C311 1.384 . S
C311 C310 1.384 . S
C311 C313 1.392 . S
C311 H321 0.931 . S
C312 C308 1.393 . S
C312 C313 1.401 . S
C312 H322 0.930 . S
C313 C311 1.392 . S
C313 C312 1.401 . S
C313 H323 0.930 . S
C314 O292 1.262 . S
C314 O293 1.260 . S
C315 Tb251 2.834 . S
C315 O290 1.250 1_556 S
C315 O295 1.258 . S
C315 C308 1.498 1_556 S
H316 C299 0.930 . S
H317 C300 0.931 . S
H318 C301 0.930 . S
H319 C302 0.930 . S
H320 C309 0.930 . S
H321 C311 0.931 . S
H322 C312 0.930 . S
H323 C313 0.930 . S
Tb324 N355 2.660 . S
Tb324 N362 2.600 . S
Tb324 O368 2.546 . S
Tb324 O369 2.610 . S
Tb324 O371 2.320 . S
Tb324 O372 2.552 . S
Tb324 O373 2.413 . S
Tb324 O375 2.362 1_455 S
Tb324 O376 2.421 1_455 S
Tb324 C388 2.833 . S
C325 C328 1.432 . S
C325 C329 1.414 . S
C325 N332 1.359 . S
C326 C328 1.417 . S
C326 C330 1.432 . S
C326 C338 1.410 . S
C327 C329 1.444 . S
C327 C330 1.317 . S
C327 H350 0.929 . S
C328 C325 1.432 . S
C328 C326 1.417 . S
C328 N336 1.360 . S
C329 C325 1.414 . S
C329 C327 1.444 . S
C329 C334 1.385 1_655 S
C330 C326 1.432 . S
C330 C327 1.317 . S
C330 H342 0.930 . S
C331 C333 1.392 . S
C331 C334 1.370 . S
C331 H343 0.931 1_556 S
N332 C325 1.359 . S
N332 C333 1.327 1_655 S
N332 Tb335 2.600 . S
C333 C331 1.392 . S
C333 N332 1.327 1_455 S
C333 H340 0.930 . S
C334 C329 1.385 1_455 S
C334 C331 1.370 . S
C334 H353 0.930 . S
Tb335 N332 2.600 . S
Tb335 N336 2.660 . S
Tb335 O369 2.362 1_655 S
Tb335 O370 2.421 1_655 S
Tb335 O374 2.546 1_556 S
Tb335 O375 2.610 . S
Tb335 O377 2.320 . S
Tb335 O378 2.552 . S
Tb335 O379 2.413 . S
Tb335 C399 2.833 . S
N336 C328 1.360 . S
N336 Tb335 2.660 . S
N336 C337 1.305 . S
C337 N336 1.305 . S
C337 C339 1.407 . S
C337 H344 0.930 . S
C338 C326 1.410 . S
C338 C339 1.345 . S
C338 H346 0.930 . S
C339 C337 1.407 . S
C339 C338 1.345 . S
C339 H341 0.930 . S
H340 C333 0.930 . S
H341 C339 0.930 . S
H342 C330 0.930 . S
H343 C331 0.931 1_554 S
H344 C337 0.930 . S
H345 C359 0.930 . S
H346 C338 0.930 . S
H347 C365 0.930 . S
H348 C356 0.930 . S
H349 C363 0.931 . S
H350 C327 0.929 . S
H351 C357 0.930 . S
H352 C390 0.930 . S
H353 C334 0.930 . S
H354 C389 0.929 . S
N355 Tb324 2.660 . S
N355 C356 1.305 . S
N355 C360 1.360 . S
C356 H348 0.930 . S
C356 N355 1.305 . S
C356 C359 1.407 . S
C357 H351 0.930 . S
C357 C358 1.410 . S
C357 C359 1.345 . S
C358 C357 1.410 . S
C358 C360 1.417 . S
C358 C390 1.432 . S
C359 H345 0.930 . S
C359 C356 1.407 . S
C359 C357 1.345 . S
C360 N355 1.360 . S
C360 C358 1.417 . S
C360 C364 1.432 . S
H361 C366 0.930 . S
N362 Tb324 2.600 . S
N362 C364 1.359 . S
N362 C365 1.327 1_455 S
C363 H349 0.931 . S
C363 C365 1.392 . S
C363 C366 1.370 . S
C364 C360 1.432 . S
C364 N362 1.359 . S
C364 C367 1.414 . S
C365 H347 0.930 . S
C365 N362 1.327 1_655 S
C365 C363 1.392 . S
C366 H361 0.930 . S
C366 C363 1.370 . S
C366 C367 1.385 1_655 S
C367 C364 1.414 . S
C367 C366 1.385 1_455 S
C367 C389 1.444 . S
O368 Tb324 2.546 . S
O368 C388 1.251 . S
O369 Tb324 2.610 . S
O369 Tb335 2.362 1_455 S
O369 C380 1.283 . S
O370 Tb335 2.421 1_455 S
O370 C387 1.262 . S
O371 Tb324 2.320 . S
O371 C387 1.260 . S
O372 Tb324 2.552 . S
O372 C380 1.243 . S
O373 Tb324 2.413 . S
O373 C388 1.256 . S
O374 Tb335 2.546 1_554 S
O374 C399 1.251 1_554 S
O375 Tb324 2.362 1_655 S
O375 Tb335 2.610 . S
O375 C391 1.283 . S
O376 Tb324 2.421 1_655 S
O376 C398 1.262 . S
O377 Tb335 2.320 . S
O377 C398 1.260 . S
O378 Tb335 2.552 . S
O378 C391 1.243 . S
O379 Tb335 2.413 . S
O379 C399 1.256 . S
C380 O369 1.283 . S
C380 O372 1.243 . S
C381 C383 1.382 . S
C381 C385 1.393 . S
C381 C388 1.500 . S
C382 C383 1.400 . S
C382 C384 1.384 . S
C383 C381 1.382 . S
C383 C382 1.400 . S
C383 H400 0.930 . S
C384 C382 1.384 . S
C384 C386 1.392 . S
C384 H401 0.931 . S
C385 C381 1.393 . S
C385 C386 1.401 . S
C385 H402 0.930 . S
C386 C384 1.392 . S
C386 C385 1.401 . S
C386 H403 0.930 . S
C387 O370 1.262 . S
C387 O371 1.260 . S
C388 Tb324 2.833 . S
C388 O368 1.251 . S
C388 O373 1.256 . S
C388 C381 1.500 . S
C389 H354 0.929 . S
C389 C367 1.444 . S
C389 C390 1.317 . S
C390 H352 0.930 . S
C390 C358 1.432 . S
C390 C389 1.317 . S
C391 O375 1.283 . S
C391 O378 1.243 . S
C392 C393 1.382 . S
C392 C396 1.393 . S
C392 C399 1.500 1_554 S
C393 C392 1.382 . S
C393 C394 1.400 . S
C393 H404 0.930 . S
C394 C393 1.400 . S
C394 C395 1.384 . S
C395 C394 1.384 . S
C395 C397 1.392 . S
C395 H405 0.931 . S
C396 C392 1.393 . S
C396 C397 1.401 . S
C396 H406 0.930 . S
C397 C395 1.392 . S
C397 C396 1.401 . S
C397 H407 0.930 . S
C398 O376 1.262 . S
C398 O377 1.260 . S
C399 Tb335 2.833 . S
C399 O374 1.251 1_556 S
C399 O379 1.256 . S
C399 C392 1.500 1_556 S
H400 C383 0.930 . S
H401 C384 0.931 . S
H402 C385 0.930 . S
H403 C386 0.930 . S
H404 C393 0.930 . S
H405 C395 0.931 . S
H406 C396 0.930 . S
H407 C397 0.930 . S
C408 C409 1.369 . S
C408 C410 1.419 . S
C408 H412 0.930 . S
C409 C408 1.369 . S
C409 C418 1.429 . S
C410 C408 1.419 . S
C410 C411 1.363 . S
C410 H413 0.929 . S
C411 C410 1.363 . S
C411 C417 1.428 . S
H412 C408 0.930 . S
H413 C410 0.929 . S
S414 N415 1.607 1_565 S
S414 N416 1.610 . S
N415 S414 1.607 1_545 S
N415 C418 1.356 . S
N416 S414 1.610 . S
N416 C417 1.351 1_565 S
C417 C411 1.428 . S
C417 N416 1.351 1_545 S
C417 C418 1.434 . S
C418 C409 1.429 . S
C418 N415 1.356 . S
C418 C417 1.434 . S
C419 C420 1.369 . S
C419 C421 1.419 . S
C419 H423 0.930 . S
C420 C419 1.369 . S
C420 C429 1.429 . S
C421 C419 1.419 . S
C421 C422 1.363 . S
C421 H424 0.929 . S
C422 C421 1.363 . S
C422 C428 1.428 . S
H423 C419 0.930 . S
H424 C421 0.929 . S
S425 N426 1.613 . S
S425 N427 1.610 . S
N426 S425 1.613 . S
N426 C429 1.350 . S
N427 S425 1.610 . S
N427 C428 1.351 . S
C428 C422 1.428 . S
C428 N427 1.351 . S
C428 C429 1.434 . S
C429 C420 1.429 . S
C429 N426 1.350 . S
C429 C428 1.434 . S
C430 C431 1.369 . S
C430 C432 1.419 . S
C430 H434 0.930 . S
C431 C430 1.369 . S
C431 C440 1.429 . S
C432 C430 1.419 . S
C432 C433 1.363 . S
C432 H435 0.929 . S
C433 C432 1.363 . S
C433 C439 1.428 . S
H434 C430 0.930 . S
H435 C432 0.929 . S
S436 N437 1.613 . S
S436 N438 1.610 . S
N437 S436 1.613 . S
N437 C440 1.350 . S
N438 S436 1.610 . S
N438 C439 1.351 . S
C439 C433 1.428 . S
C439 N438 1.351 . S
C439 C440 1.434 . S
C440 C431 1.429 . S
C440 N437 1.350 . S
C440 C439 1.434 . S
C441 C442 1.369 . S
C441 C443 1.419 . S
C441 H445 0.930 . S
C442 C441 1.369 . S
C442 C451 1.429 . S
C443 C441 1.419 . S
C443 C444 1.363 . S
C443 H446 0.929 . S
C444 C443 1.363 . S
C444 C450 1.428 . S
H445 C441 0.930 . S
H446 C443 0.929 . S
S447 N448 1.613 . S
S447 N449 1.610 . S
N448 S447 1.613 . S
N448 C451 1.350 . S
N449 S447 1.610 . S
N449 C450 1.351 . S
C450 C444 1.428 . S
C450 N449 1.351 . S
C450 C451 1.434 . S
C451 C442 1.429 . S
C451 N448 1.350 . S
C451 C450 1.434 . S
C452 C453 1.369 . S
C452 C454 1.419 . S
C452 H456 0.930 1_565 S
C453 C452 1.369 . S
C453 C462 1.429 . S
C454 C452 1.419 . S
C454 C455 1.363 1_554 S
C454 H457 0.929 1_565 S
C455 C454 1.363 1_556 S
C455 C461 1.428 1_556 S
H456 C452 0.930 1_545 S
H457 C454 0.929 1_545 S
S458 N459 1.613 . S
S458 N460 1.610 1_554 S
N459 S458 1.613 . S
N459 C462 1.350 . S
N460 S458 1.610 1_556 S
N460 C461 1.351 1_556 S
C461 C455 1.428 1_554 S
C461 N460 1.351 1_554 S
C461 C462 1.434 . S
C462 C453 1.429 . S
C462 N459 1.350 . S
C462 C461 1.434 . S
C463 C464 1.369 . S
C463 C465 1.419 . S
C463 H467 0.930 . S
C464 C463 1.369 . S
C464 C473 1.429 . S
C465 C463 1.419 . S
C465 C466 1.363 1_554 S
C465 H468 0.929 . S
C466 C465 1.363 1_556 S
C466 C472 1.428 1_556 S
H467 C463 0.930 . S
H468 C465 0.929 . S
S469 N470 1.613 . S
S469 N471 1.610 . S
N470 S469 1.613 . S
N470 C473 1.350 . S
N471 S469 1.610 . S
N471 C472 1.351 . S
C472 C466 1.428 1_554 S
C472 N471 1.351 . S
C472 C473 1.434 . S
C473 C464 1.429 . S
C473 N470 1.350 . S
C473 C472 1.434 . S
C474 C475 1.369 . S
C474 C476 1.419 . S
C474 H478 0.930 . S
C475 C474 1.369 . S
C475 C484 1.429 . S
C476 C474 1.419 . S
C476 C477 1.363 1_554 S
C476 H479 0.929 . S
C477 C476 1.363 1_556 S
C477 C483 1.428 1_556 S
H478 C474 0.930 . S
H479 C476 0.929 . S
S480 N481 1.613 . S
S480 N482 1.610 1_554 S
N481 S480 1.613 . S
N481 C484 1.350 . S
N482 S480 1.610 1_556 S
N482 C483 1.351 1_556 S
C483 C477 1.428 1_554 S
C483 N482 1.351 1_554 S
C483 C484 1.434 . S
C484 C475 1.429 . S
C484 N481 1.350 . S
C484 C483 1.434 . S
C485 C486 1.369 . S
C485 C487 1.419 . S
C485 H489 0.930 . S
C486 C485 1.369 . S
C486 C495 1.429 . S
C487 C485 1.419 . S
C487 C488 1.363 1_554 S
C487 H490 0.929 . S
C488 C487 1.363 1_556 S
C488 C494 1.428 1_656 S
H489 C485 0.930 . S
H490 C487 0.929 . S
S491 N492 1.613 . S
S491 N493 1.610 . S
N492 S491 1.613 . S
N492 C495 1.350 1_455 S
N493 S491 1.610 . S
N493 C494 1.351 . S
C494 C488 1.428 1_454 S
C494 N493 1.351 . S
C494 C495 1.434 1_455 S
C495 C486 1.429 . S
C495 N492 1.350 1_655 S
C495 C494 1.434 1_655 S
C496 C497 1.369 . S
C496 C498 1.419 . S
C496 H500 0.930 . S
C497 C496 1.369 . S
C497 C506 1.429 . S
C498 C496 1.419 . S
C498 C499 1.363 1_455 S
C498 H501 0.929 . S
C499 C498 1.363 1_655 S
C499 C505 1.428 . S
H500 C496 0.930 . S
H501 C498 0.929 . S
S502 N503 1.613 1_655 S
S502 N504 1.610 . S
N503 S502 1.613 1_455 S
N503 C506 1.350 . S
N504 S502 1.610 . S
N504 C505 1.351 . S
C505 C499 1.428 . S
C505 N504 1.351 . S
C505 C506 1.434 1_655 S
C506 C497 1.429 . S
C506 N503 1.350 . S
C506 C505 1.434 1_455 S
C507 C508 1.369 . S
C507 C509 1.419 . S
C507 H511 0.930 . S
C508 C507 1.369 . S
C508 C517 1.429 . S
C509 C507 1.419 . S
C509 C510 1.363 1_545 S
C509 H512 0.929 . S
C510 C509 1.363 1_565 S
C510 C516 1.428 . S
H511 C507 0.930 . S
H512 C509 0.929 . S
S513 N514 1.613 . S
S513 N515 1.610 . S
N514 S513 1.613 . S
N514 C517 1.350 1_565 S
N515 S513 1.610 . S
N515 C516 1.351 . S
C516 C510 1.428 . S
C516 N515 1.351 . S
C516 C517 1.434 1_565 S
C517 C508 1.429 . S
C517 N514 1.350 1_545 S
C517 C516 1.434 1_545 S
C518 C519 1.369 . S
C518 C520 1.419 . S
C518 H522 0.930 . S
C519 C518 1.369 . S
C519 C528 1.429 . S
C520 C518 1.419 . S
C520 C521 1.363 . S
C520 H523 0.929 . S
C521 C520 1.363 . S
C521 C527 1.428 . S
H522 C518 0.930 . S
H523 C520 0.929 . S
S524 N525 1.613 . S
S524 N526 1.610 1_556 S
N525 S524 1.613 . S
N525 C528 1.350 1_556 S
N526 S524 1.610 1_554 S
N526 C527 1.351 . S
C527 C521 1.428 . S
C527 N526 1.351 . S
C527 C528 1.434 . S
C528 C519 1.429 . S
C528 N525 1.350 1_554 S
C528 C527 1.434 . S
C529 C530 1.369 . S
C529 C531 1.419 . S
C529 H533 0.930 . S
C530 C529 1.369 . S
C530 C539 1.429 . S
C531 C529 1.419 . S
C531 C532 1.363 . S
C531 H534 0.929 . S
C532 C531 1.363 . S
C532 C538 1.428 . S
H533 C529 0.930 . S
H534 C531 0.929 . S
S535 N536 1.613 . S
S535 N537 1.610 1_556 S
N536 S535 1.613 . S
N536 C539 1.350 1_556 S
N537 S535 1.610 1_554 S
N537 C538 1.351 . S
C538 C532 1.428 . S
C538 N537 1.351 . S
C538 C539 1.434 . S
C539 C530 1.429 . S
C539 N536 1.350 1_554 S
C539 C538 1.434 . S
C540 C541 1.359 1_455 S
C540 C542 1.427 . S
C540 H544 0.932 . S
C541 C540 1.359 1_655 S
C541 C550 1.429 . S
C542 C540 1.427 . S
C542 C543 1.363 . S
C542 H545 0.929 . S
C543 C542 1.363 . S
C543 C549 1.428 1_455 S
H544 C540 0.932 . S
H545 C542 0.929 . S
S546 N547 1.613 . S
S546 N548 1.610 . S
N547 S546 1.613 . S
N547 C550 1.350 . S
N548 S546 1.610 . S
N548 C549 1.351 . S
C549 C543 1.428 1_655 S
C549 N548 1.351 . S
C549 C550 1.434 . S
C550 C541 1.429 . S
C550 N547 1.350 . S
C550 C549 1.434 . S
C551 C552 1.369 1_545 S
C551 C553 1.419 . S
C551 H555 0.930 . S
C552 C551 1.369 1_565 S
C552 C561 1.429 . S
C553 C551 1.419 . S
C553 C554 1.363 . S
C553 H556 0.929 . S
C554 C553 1.363 . S
C554 C560 1.428 . S
H555 C551 0.930 . S
H556 C553 0.929 . S
S557 N558 1.613 1_556 S
S557 N559 1.591 1_565 S
N558 S557 1.613 1_554 S
N558 C561 1.350 . S
N559 S557 1.591 1_545 S
N559 C560 1.353 1_556 S
C560 C554 1.428 . S
C560 N559 1.353 1_554 S
C560 C561 1.434 1_545 S
C561 C552 1.429 . S
C561 N558 1.350 . S
C561 C560 1.434 1_565 S
C562 C563 1.369 . S
C562 C564 1.419 . S
C562 H566 0.930 . S
C563 C562 1.369 . S
C563 C572 1.429 . S
C564 C562 1.419 . S
C564 C565 1.363 . S
C564 H567 0.929 . S
C565 C564 1.363 . S
C565 C571 1.428 . S
H566 C562 0.930 . S
H567 C564 0.929 . S
S568 N569 1.613 1_556 S
S568 N570 1.610 . S
N569 S568 1.613 1_554 S
N569 C572 1.350 . S
N570 S568 1.610 . S
N570 C571 1.351 1_556 S
C571 C565 1.428 . S
C571 N570 1.351 1_554 S
C571 C572 1.434 . S
C572 C563 1.429 . S
C572 N569 1.350 . S
C572 C571 1.434 . S
C573 C574 1.369 . S
C573 C575 1.419 . S
C573 H577 0.930 . S
C574 C573 1.369 . S
C574 C583 1.429 . S
C575 C573 1.419 . S
C575 C576 1.363 . S
C575 H578 0.929 . S
C576 C575 1.363 . S
C576 C582 1.428 . S
H577 C573 0.930 . S
H578 C575 0.929 . S
S579 N580 1.613 . S
S579 N581 1.610 . S
N580 S579 1.613 . S
N580 C583 1.350 . S
N581 S579 1.610 . S
N581 C582 1.351 . S
C582 C576 1.428 . S
C582 N581 1.351 . S
C582 C583 1.434 . S
C583 C574 1.429 . S
C583 N580 1.350 . S
C583 C582 1.434 . S
C584 C585 1.369 . S
C584 C586 1.419 . S
C584 H588 0.930 . S
C585 C584 1.369 . S
C585 C594 1.429 . S
C586 C584 1.419 . S
C586 C587 1.363 . S
C586 H589 0.929 1_455 S
C587 C586 1.363 . S
C587 C593 1.428 . S
H588 C584 0.930 . S
H589 C586 0.929 1_655 S
S590 N591 1.613 . S
S590 N592 1.610 . S
N591 S590 1.613 . S
N591 C594 1.350 . S
N592 S590 1.610 . S
N592 C593 1.351 . S
C593 C587 1.428 . S
C593 N592 1.351 . S
C593 C594 1.434 . S
C594 C585 1.429 . S
C594 N591 1.350 . S
C594 C593 1.434 . S
C595 C596 1.369 . S
C595 C597 1.419 . S
C595 H599 0.930 . S
C596 C595 1.369 . S
C596 C605 1.429 . S
C597 C595 1.419 . S
C597 C598 1.363 . S
C597 H600 0.929 . S
C598 C597 1.363 . S
C598 C604 1.428 . S
H599 C595 0.930 . S
H600 C597 0.929 . S
S601 N602 1.608 1_565 S
S601 N603 1.607 1_564 S
N602 S601 1.608 1_545 S
N602 C605 1.350 1_554 S
N603 S601 1.607 1_546 S
N603 C604 1.351 . S
C604 C598 1.428 . S
C604 N603 1.351 . S
C604 C605 1.434 . S
C605 C596 1.429 . S
C605 N602 1.350 1_556 S
C605 C604 1.434 . S
C606 C607 1.369 . S
C606 C608 1.419 . S
C606 H610 0.930 . S
C607 C606 1.369 . S
C607 C616 1.429 . S
C608 C606 1.419 . S
C608 C609 1.363 . S
C608 H611 0.929 . S
C609 C608 1.363 . S
C609 C615 1.428 . S
H610 C606 0.930 . S
H611 C608 0.929 . S
S612 N613 1.613 . S
S612 N614 1.610 . S
N613 S612 1.613 . S
N613 C616 1.350 . S
N614 S612 1.610 . S
N614 C615 1.351 . S
C615 C609 1.428 . S
C615 N614 1.351 . S
C615 C616 1.434 . S
C616 C607 1.429 . S
C616 N613 1.350 . S
C616 C615 1.434 . S
C617 C618 1.369 . S
C617 C619 1.419 . S
C617 H621 0.930 . S
C618 C617 1.369 . S
C618 C627 1.429 . S
C619 C617 1.419 . S
C619 C620 1.363 . S
C619 H622 0.929 . S
C620 C619 1.363 . S
C620 C626 1.428 . S
H621 C617 0.930 . S
H622 C619 0.929 . S
S623 N624 1.613 . S
S623 N625 1.610 . S
N624 S623 1.613 . S
N624 C627 1.350 . S
N625 S623 1.610 . S
N625 C626 1.351 . S
C626 C620 1.428 . S
C626 N625 1.351 . S
C626 C627 1.434 . S
C627 C618 1.429 . S
C627 N624 1.350 . S
C627 C626 1.434 . S
C628 C629 1.369 . S
C628 C630 1.419 . S
C628 H632 0.930 . S
C629 C628 1.369 . S
C629 C638 1.429 . S
C630 C628 1.419 . S
C630 C631 1.363 . S
C630 H633 0.929 . S
C631 C630 1.363 . S
C631 C637 1.428 . S
H632 C628 0.930 . S
H633 C630 0.929 . S
S634 N635 1.613 . S
S634 N636 1.610 . S
N635 S634 1.613 . S
N635 C638 1.350 . S
N636 S634 1.610 . S
N636 C637 1.351 . S
C637 C631 1.428 . S
C637 N636 1.351 . S
C637 C638 1.434 . S
C638 C629 1.429 . S
C638 N635 1.350 . S
C638 C637 1.434 . S
C639 C640 1.369 . S
C639 C641 1.419 . S
C639 H643 0.930 . S
C640 C639 1.369 . S
C640 C649 1.429 1_565 S
C641 C639 1.419 . S
C641 C642 1.363 . S
C641 H644 0.929 . S
C642 C641 1.363 . S
C642 C648 1.428 1_565 S
H643 C639 0.930 . S
H644 C641 0.929 . S
S645 N646 1.613 . S
S645 N647 1.610 . S
N646 S645 1.613 . S
N646 C649 1.350 . S
N647 S645 1.610 . S
N647 C648 1.351 . S
C648 C642 1.428 1_545 S
C648 N647 1.351 . S
C648 C649 1.434 . S
C649 C640 1.429 1_545 S
C649 N646 1.350 . S
C649 C648 1.434 . S
C650 C651 1.369 . S
C650 C652 1.419 . S
C650 H654 0.930 . S
C651 C650 1.369 . S
C651 C660 1.429 . S
C652 C650 1.419 . S
C652 C653 1.363 . S
C652 H655 0.929 . S
C653 C652 1.363 . S
C653 C659 1.428 . S
H654 C650 0.930 . S
H655 C652 0.929 . S
S656 N657 1.613 . S
S656 N658 1.610 . S
N657 S656 1.613 . S
N657 C660 1.350 . S
N658 S656 1.610 . S
N658 C659 1.351 . S
C659 C653 1.428 . S
C659 N658 1.351 . S
C659 C660 1.434 . S
C660 C651 1.429 . S
C660 N657 1.350 . S
C660 C659 1.434 . S
C661 C662 1.369 . S
C661 C663 1.419 . S
C661 H665 0.930 . S
C662 C661 1.369 . S
C662 C671 1.429 . S
C663 C661 1.419 . S
C663 C664 1.363 . S
C663 H666 0.929 . S
C664 C663 1.363 . S
C664 C670 1.428 . S
H665 C661 0.930 . S
H666 C663 0.929 . S
S667 N668 1.613 . S
S667 N669 1.610 . S
N668 S667 1.613 . S
N668 C671 1.350 . S
N669 S667 1.610 . S
N669 C670 1.351 . S
C670 C664 1.428 . S
C670 N669 1.351 . S
C670 C671 1.434 . S
C671 C662 1.429 . S
C671 N668 1.350 . S
C671 C670 1.434 . S
C409 C61 1.996 . S
C411 C146 2.121 . S
C422 C230 2.131 . S
C420 C70 2.022 . S
C433 C296 2.024 . S
C431 C43 2.080 . S
C444 C380 2.020 . S
C442 C52 2.077 . S
C455 C135 2.121 1_565 S
C453 C25 1.999 . S
C464 C34 2.029 . S
C466 C219 2.128 . S
C475 C7 2.075 . S
C477 C307 2.032 . S
C486 C16 2.071 . S
C488 C391 2.028 . S
C499 C142 0.991 . S
C497 C50 0.918 . S
C510 C226 0.958 . S
C508 C59 0.887 . S
C521 C298 0.896 . S
C519 C67 0.850 . S
C530 C41 0.869 . S
C532 C382 0.929 . S
C541 C14 0.937 . S
C543 C130 0.991 . S
C554 C214 0.958 . S
C552 C23 0.908 . S
C565 C310 0.902 . S
C563 C31 0.863 . S
C574 C5 0.892 . S
C576 C394 0.928 . S
C585 C49 2.136 . S
C587 C139 2.243 . S
C596 C58 2.107 . S
C598 C223 2.228 . S
C609 C303 2.282 . S
C607 C68 2.028 . S
C620 C387 2.296 . S
C618 C40 2.037 . S
C629 C13 2.138 . S
C631 C128 2.241 . S
C642 C212 2.224 . S
C640 C22 2.113 . S
C653 C314 2.282 . S
C651 C32 2.015 . S
C662 C4 2.032 . S
C664 C398 2.295 . S
