# Generated by pormake.
# Topology pts, (4,4)-cn, num edge types: 1
# Building blocks:
#     Node 0, Type 0, BuildingBlock: GIZVER_clean_linker_0, # of connection points: 4
#     Node 1, Type 0, BuildingBlock: GIZVER_clean_linker_0, # of connection points: 4
#     Node 2, Type 1, BuildingBlock: QUQFOY_clean_sbu_1, # of connection points: 4
#     Node 3, Type 1, BuildingBlock: QUQFOY_clean_sbu_1, # of connection points: 4
#     Edge 4, Type (0, 1), BuildingBlock: UVAHIK_clean_linker_0, # of connection points: 2
#     Edge 5, Type (0, 1), BuildingBlock: UVAHIK_clean_linker_0, # of connection points: 2
#     Edge 6, Type (0, 1), BuildingBlock: UVAHIK_clean_linker_0, # of connection points: 2
#     Edge 7, Type (0, 1), BuildingBlock: UVAHIK_clean_linker_0, # of connection points: 2
#     Edge 8, Type (0, 1), BuildingBlock: UVAHIK_clean_linker_0, # of connection points: 2
#     Edge 9, Type (0, 1), BuildingBlock: UVAHIK_clean_linker_0, # of connection points: 2
#     Edge 10, Type (0, 1), BuildingBlock: UVAHIK_clean_linker_0, # of connection points: 2
#     Edge 11, Type (0, 1), BuildingBlock: UVAHIK_clean_linker_0, # of connection points: 2
# Relax obj value: 0.105
# Max RMSD: 0.276
# Mean RMSD: 0.184
data_MOF--net-pts--node1-QUQFOY_clean_sbu_1--node2-GIZVER_clean_linker_0--edge1-UVAHIK_clean_linker_0
_symmetry_space_group_name_H-M    P1
_symmetry_Int_Tables_number       1
_symmetry_cell_setting            triclinic
loop_
_symmetry_equiv_pos_as_xyz
'x, y, z'
_cell_length_a     31.637057
_cell_length_b     34.565167
_cell_length_c     47.267852
_cell_angle_alpha  90.420074
_cell_angle_beta   89.643461
_cell_angle_gamma 90.058825
loop_
_atom_site_label
_atom_site_type_symbol
_atom_site_fract_x
_atom_site_fract_y
_atom_site_fract_z
_atom_type_partial_charge
H0 H 0.55659 0.09755 0.02943 0.0
H1 H 0.5573 0.09978 0.93843 0.0
H2 H 0.65439 0.03843 0.98287 0.0
H3 H 0.5144 0.14583 0.00332 0.0
H4 H 0.51333 0.14526 0.96546 0.0
H5 H 0.47021 0.1016 0.03066 0.0
H6 H 0.37253 0.0393 -0.01331 0.0
H7 H 0.47076 0.09644 0.93969 0.0
C8 C 0.57061 0.08875 0.00941 0.0
C9 C 0.60701 0.06562 0.0091 0.0
C10 C 0.55246 0.10097 -0.01604 0.0
C11 C 0.57109 0.09003 0.95806 0.0
C12 C 0.60774 0.06715 0.95745 0.0
C13 C 0.62511 0.05471 -0.01692 0.0
C14 C 0.51389 0.12641 -0.01556 0.0
C15 C 0.47465 0.10175 -0.01488 0.0
C16 C 0.45619 0.09145 0.0111 0.0
C17 C 0.41941 0.06869 0.0119 0.0
C18 C 0.40188 0.05553 -0.01365 0.0
C19 C 0.42004 0.06549 0.96025 0.0
C20 C 0.45658 0.08851 0.95977 0.0
H21 H 0.06835 0.56004 0.4361 0.0
H22 H 0.05528 0.56042 0.52684 0.0
H23 H 0.00529 0.65424 0.47795 0.0
H24 H 0.11115 0.5172 0.46405 0.0
H25 H 0.11221 0.52232 0.50162 0.0
H26 H 0.05239 0.47909 0.44101 0.0
H27 H 0.00515 0.38565 0.49194 0.0
H28 H 0.07162 0.47967 0.53116 0.0
C29 C 0.05614 0.57321 0.45536 0.0
C30 C 0.03427 0.60841 0.45401 0.0
C31 C 0.06354 0.55564 0.48161 0.0
C32 C 0.0488 0.57362 0.5066 0.0
C33 C 0.02725 0.60916 0.50555 0.0
C34 C 0.01978 0.6259 0.47907 0.0
C35 C 0.09065 0.51987 0.48318 0.0
C36 C 0.06405 0.48382 0.48584 0.0
C37 C 0.04727 0.46597 0.4615 0.0
C38 C 0.02552 0.43056 0.46347 0.0
C39 C 0.01976 0.41393 0.49023 0.0
C40 C 0.03608 0.43139 0.51466 0.0
C41 C 0.0581 0.46647 0.51241 0.0
O42 O 0.9546 0.98805 0.21203 0.0
Cd43 Cd 0.01094 0.97651 0.2318 0.0
Cd44 Cd 0.00844 0.0619 0.23782 0.0
O45 O 0.95363 0.05186 0.2154 0.0
O46 O 0.0116 0.91902 0.23386 0.0
O47 O 0.01198 0.95677 0.2718 0.0
C48 C 0.01224 0.92232 0.261 0.0
C49 C 0.00538 0.11482 0.26893 0.0
C50 C 0.93685 0.02029 0.20726 0.0
C51 C 0.08469 0.02273 0.20955 0.0
O52 O 0.0668 0.05308 0.21907 0.0
O53 O 0.06702 0.98987 0.21179 0.0
O54 O 0.00889 0.1193 0.24203 0.0
O55 O 1.00342 0.07996 0.27849 0.0
O56 O 0.96302 0.04855 0.75205 0.0
Cd57 Cd 0.02056 0.05781 0.73236 0.0
Cd58 Cd 0.01747 0.97219 0.73688 0.0
O59 O 0.96234 0.98522 0.75826 0.0
O60 O 0.02148 0.11539 0.73083 0.0
O61 O 0.02283 0.07865 0.69248 0.0
C62 C 0.02281 0.11283 0.70369 0.0
C63 C 0.01477 0.91998 0.70543 0.0
C64 C 0.94514 0.0182 0.76134 0.0
C65 C 0.09309 0.01489 0.76065 0.0
O66 O 0.07469 0.98284 0.75594 0.0
O67 O 0.07641 0.04659 0.75313 0.0
O68 O 0.01714 0.91489 0.73234 0.0
O69 O 0.01389 0.95504 0.69616 0.0
C70 C 0.37781 0.02541 0.04417 0.0
C71 C 0.39677 0.06149 0.03896 0.0
C72 C 0.35102 0.02046 0.06747 0.0
C73 C 0.27939 0.07787 0.11165 0.0
H74 H 0.26823 0.98354 0.15497 0.0
C75 C 0.14817 0.06136 0.19514 0.0
C76 C 0.12609 0.02605 0.19497 0.0
C77 C 0.18598 0.0653 0.18004 0.0
C78 C 0.27083 1.00998 0.14294 0.0
H79 H 0.40428 0.12005 0.05496 0.0
H80 H 0.35811 0.11119 0.0959 0.0
H81 H 0.32745 0.9909 0.12195 0.0
H82 H 0.12713 0.96682 0.17945 0.0
H83 H 0.19261 0.97396 0.15259 0.0
H84 H 0.22229 0.09658 0.13174 0.0
C85 C 0.36353 0.08689 0.08173 0.0
C86 C 0.30479 0.01422 0.1241 0.0
C87 C 0.39035 0.09183 0.05846 0.0
C88 C 0.14334 0.99444 0.18002 0.0
C89 C 0.18107 0.99845 0.16477 0.0
C90 C 0.24546 0.0736 0.13035 0.0
C91 C 0.34259 0.0515 0.08602 0.0
C92 C 0.30914 0.04806 0.10803 0.0
C93 C 0.2025 0.03412 0.16425 0.0
C94 C 0.24046 0.03944 0.14599 0.0
H95 H 0.38258 1.00136 0.02969 0.0
H96 H 0.33524 0.99288 0.0701 0.0
H97 H 0.28133 0.10399 0.09919 0.0
H98 H 0.13605 0.08619 0.20669 0.0
H99 H 0.20208 0.09296 0.18053 0.0
C100 C 0.07158 0.40061 0.55587 0.0
C101 C 0.03418 0.40974 0.54156 0.0
C102 C 0.07124 0.37284 0.57725 0.0
C103 C 1.00224 0.3156 0.62477 0.0
H104 H 0.08639 0.23535 0.6132 0.0
C105 C 0.01928 0.18474 0.69926 0.0
C106 C 0.0244 0.14825 0.68632 0.0
C107 C 0.02115 0.21848 0.68325 0.0
C108 C 0.06265 0.25748 0.61663 0.0
H109 H 0.96673 0.39942 0.53964 0.0
H110 H 0.96597 0.35128 0.57718 0.0
H111 H 0.08869 0.29357 0.58432 0.0
H112 H 0.03551 0.11858 0.64642 0.0
H113 H 0.03896 0.17774 0.61836 0.0
H114 H 0.9757 0.27907 0.6567 0.0
C115 C 0.99556 0.36536 0.57191 0.0
C116 C 0.06429 0.29104 0.60038 0.0
C117 C 0.99598 0.39282 0.5504 0.0
C118 C 0.03145 0.14624 0.65698 0.0
C119 C 0.03367 0.1801 0.64097 0.0
C120 C 1.00081 0.28215 0.6412 0.0
C121 C 0.03342 0.35404 0.58484 0.0
C122 C 0.03384 0.32029 0.60406 0.0
C123 C 0.02851 0.21656 0.65396 0.0
C124 C 0.03072 0.25255 0.63707 0.0
H125 H 0.10149 0.413 0.54929 0.0
H126 H 0.1008 0.36501 0.58712 0.0
H127 H 0.97842 0.33768 0.62811 0.0
H128 H 0.0138 0.18732 0.72184 0.0
H129 H 0.01745 0.24614 0.69389 0.0
C130 C 0.63885 0.08465 0.05545 0.0
C131 C 0.62888 0.05562 0.03566 0.0
C132 C 0.66562 0.07669 0.07807 0.0
C133 C 0.75122 1.00925 0.09584 0.0
H134 H 0.74697 0.06197 0.16849 0.0
C135 C 0.87969 0.98695 0.17982 0.0
C136 C 0.89647 0.02109 0.1916 0.0
C137 C 0.84263 0.98796 0.16393 0.0
C138 C 0.74853 0.0471 0.14826 0.0
H139 H 0.63624 0.99493 0.02508 0.0
H140 H 0.68206 0.98063 0.06501 0.0
H141 H 0.688 0.0684 0.1357 0.0
H142 H 0.8866 0.0829 0.19667 0.0
H143 H 0.82202 0.08461 0.16884 0.0
H144 H 0.81189 0.98838 0.10819 0.0
C145 C 0.67032 1.00984 0.06265 0.0
C146 C 0.71482 0.0508 0.12947 0.0
C147 C 0.64391 0.01792 0.03989 0.0
C148 C 0.87467 0.05609 0.1878 0.0
C149 C 0.83746 0.05705 0.17205 0.0
C150 C 0.7847 1.00535 0.11466 0.0
C151 C 0.68267 0.03943 0.08146 0.0
C152 C 0.71608 0.03241 0.10282 0.0
C153 C 0.82138 0.02308 0.15963 0.0
C154 C 0.78404 0.02472 0.14088 0.0
H155 H 0.628 0.11406 0.0525 0.0
H156 H 0.67476 0.10029 0.09193 0.0
H157 H 0.75378 0.9953 0.07531 0.0
H158 H 0.89553 0.95945 0.18244 0.0
H159 H 0.83073 0.96127 0.15484 0.0
C160 C 0.98067 0.6553 0.53267 0.0
C161 C 0.01694 0.63173 0.53166 0.0
C162 C 0.97575 0.68321 0.55392 0.0
C163 C 1.00376 0.71626 0.62377 0.0
H164 H 0.01051 0.81909 0.59173 0.0
C165 C 0.03017 0.85077 0.69434 0.0
C166 C 0.01306 0.88634 0.68606 0.0
C167 C 0.02829 0.81857 0.67638 0.0
C168 C 0.00762 0.79078 0.60118 0.0
H169 H 0.07457 0.61689 0.55381 0.0
H170 H 0.06474 0.66464 0.59168 0.0
H171 H 0.00807 0.76283 0.56056 0.0
H172 H 0.97982 0.91613 0.6528 0.0
H173 H 0.9744 0.85958 0.62195 0.0
H174 H 1.0018 0.74378 0.66435 0.0
C175 C 0.04069 0.66174 0.57558 0.0
C176 C 0.00652 0.75854 0.58323 0.0
C177 C 0.04611 0.63426 0.55397 0.0
C178 C 0.99366 0.8891 0.65956 0.0
C179 C 0.99083 0.85662 0.64183 0.0
C180 C 1.00383 0.74856 0.64179 0.0
C181 C 0.00637 0.6874 0.57502 0.0
C182 C 1.00498 0.72108 0.59438 0.0
C183 C 0.00829 0.82087 0.64992 0.0
C184 C 0.00628 0.78634 0.63076 0.0
H185 H 0.95706 0.6535 0.51622 0.0
H186 H 0.9488 0.70249 0.55332 0.0
H187 H 1.00244 0.68753 0.63275 0.0
H188 H 0.04564 0.84792 0.71461 0.0
H189 H 0.0431 0.79205 0.6832 0.0
C190 C 0.38315 0.0166 0.92984 0.0
C191 C 0.39834 0.05444 0.93372 0.0
C192 C 0.35728 1.00756 0.90689 0.0
C193 C 0.31502 0.04568 0.83894 0.0
H194 H 0.21706 0.98427 0.85955 0.0
C195 C 0.15627 0.0503 0.77951 0.0
C196 C 0.13388 0.01546 0.77587 0.0
C197 C 0.19348 0.05125 0.79526 0.0
C198 C 0.24454 1.00091 0.85326 0.0
H199 H 0.39993 0.1121 0.91612 0.0
H200 H 0.35407 0.09669 0.87639 0.0
H201 H 0.27425 0.99232 0.89311 0.0
H202 H 0.1339 0.95404 0.78517 0.0
H203 H 0.19874 0.95588 0.8128 0.0
H204 H 0.28403 0.05549 0.79943 0.0
C205 C 0.36272 0.07369 0.89066 0.0
C206 C 0.27748 1.00547 0.87249 0.0
C207 C 0.38895 0.0826 0.91347 0.0
C208 C 0.15021 0.98141 0.78767 0.0
C209 C 0.18728 0.98244 0.80357 0.0
C210 C 0.28184 0.04133 0.81975 0.0
C211 C 0.34561 0.03631 0.88752 0.0
C212 C 0.31288 0.02837 0.86576 0.0
C213 C 0.20899 0.01746 0.80784 0.0
C214 C 0.246 0.01935 0.8269 0.0
H215 H 0.39038 0.99425 0.94501 0.0
H216 H 0.34547 0.97827 0.90477 0.0
H217 H 0.34209 0.06301 0.83289 0.0
H218 H 0.1447 0.07702 0.77061 0.0
H219 H 0.20928 0.07875 0.79842 0.0
C220 C 0.04123 0.40468 0.41466 0.0
C221 C 0.01334 0.40789 0.43788 0.0
C222 C 0.0344 0.37674 0.3936 0.0
C223 C 0.9976 0.27992 0.38861 0.0
H224 H 0.99449 0.29215 0.30726 0.0
C225 C 0.98359 0.14718 0.31433 0.0
C226 C 1.00379 0.14892 0.28788 0.0
C227 C 0.98087 0.18021 0.33156 0.0
C228 C 0.99602 0.28806 0.3299 0.0
H229 H 0.95411 0.38698 0.4555 0.0
H230 H 0.9433 0.33728 0.41928 0.0
H231 H 0.9962 0.34936 0.33787 0.0
H232 H 0.03797 0.18606 0.25894 0.0
H233 H 0.03557 0.24282 0.28944 0.0
H234 H 1.00006 0.21905 0.38114 0.0
C235 C 0.97041 0.35632 0.41756 0.0
C236 C 0.99657 0.32092 0.34736 0.0
C237 C 0.97675 0.38466 0.43829 0.0
C238 C 0.02184 0.184 0.27916 0.0
C239 C 0.02004 0.21673 0.29661 0.0
C240 C 0.99806 0.2471 0.37122 0.0
C241 C 0.9999 0.35132 0.39559 0.0
C242 C 0.99732 0.31704 0.37683 0.0
C243 C 0.99922 0.21549 0.32299 0.0
C244 C 0.99739 0.25061 0.34157 0.0
H245 H 0.06988 0.4218 0.41373 0.0
H246 H 0.0576 0.37326 0.37681 0.0
H247 H 0.99879 0.2763 0.41135 0.0
H248 H 0.96903 0.12055 0.32143 0.0
H249 H 0.96385 0.17808 0.35142 0.0
C250 C 0.63763 0.08924 0.91109 0.0
C251 C 0.63064 0.05929 0.93051 0.0
C252 C 0.665 0.0838 0.88811 0.0
C253 C 0.72468 1.01041 0.84637 0.0
H254 H 0.8077 0.09256 0.8401 0.0
C255 C 0.88682 0.99015 0.79107 0.0
C256 C 0.90408 0.02168 0.77634 0.0
C257 C 0.84914 0.99426 0.80641 0.0
C258 C 0.78441 0.06962 0.84112 0.0
H259 H 0.64429 0.9993 0.9399 0.0
H260 H 0.69256 0.98996 0.89999 0.0
H261 H 0.74786 0.10042 0.872 0.0
H262 H 0.89425 0.08179 0.76515 0.0
H263 H 0.82834 0.08871 0.79142 0.0
H264 H 0.76186 0.97935 0.81575 0.0
C265 C 0.67683 0.0176 0.90246 0.0
C266 C 0.75002 0.07415 0.85943 0.0
C267 C 0.64949 0.02305 0.92546 0.0
C268 C 0.88214 0.05702 0.77655 0.0
C269 C 0.84438 0.06105 0.7917 0.0
C270 C 0.75909 1.00591 0.82791 0.0
C271 C 0.68591 0.04831 0.88406 0.0
C272 C 0.72002 0.04447 0.86253 0.0
C273 C 0.82777 0.02993 0.80721 0.0
C274 C 0.78963 0.03532 0.82532 0.0
H275 H 0.62379 0.11756 0.91447 0.0
H276 H 0.67092 0.10783 0.87404 0.0
H277 H 0.70186 0.98716 0.84814 0.0
H278 H 0.90293 0.96251 0.79135 0.0
H279 H 0.8375 0.96982 0.81837 0.0
C280 C 0.06696 0.63876 0.41129 0.0
C281 C 0.03061 0.63003 0.4272 0.0
C282 C 0.06523 0.66614 0.38969 0.0
C283 C 0.99347 0.72222 0.34411 0.0
H284 H 0.07836 0.80272 0.35144 0.0
C285 C 0.00793 0.85058 0.2667 0.0
C286 C 0.01366 0.88743 0.27891 0.0
C287 C 0.01006 0.81736 0.28326 0.0
C288 C 0.05441 0.78051 0.3492 0.0
H289 H 0.96349 0.64076 0.43183 0.0
H290 H 0.96028 0.68821 0.39387 0.0
H291 H 0.08224 0.7454 0.38118 0.0
H292 H 0.02601 0.91833 0.31808 0.0
H293 H 0.03002 0.86009 0.34704 0.0
H294 H 0.96526 0.75774 0.31243 0.0
C295 C 0.99012 0.6741 0.39809 0.0
C296 C 0.05692 0.74747 0.36594 0.0
C297 C 0.99194 0.64705 0.41984 0.0
C298 C 0.02145 0.89036 0.30807 0.0
C299 C 0.024 0.85703 0.3246 0.0
C300 C 0.99119 0.75512 0.32715 0.0
C301 C 0.02704 0.68493 0.38347 0.0
C302 C 0.02625 0.71815 0.36378 0.0
C303 C 0.01838 0.8202 0.31233 0.0
C304 C 0.02138 0.7848 0.32976 0.0
H305 H 0.09723 0.62629 0.41672 0.0
H306 H 0.09407 0.67363 0.37852 0.0
H307 H 0.96944 0.70006 0.34197 0.0
H308 H 1.00183 0.84732 0.24429 0.0
H309 H 0.00593 0.78936 0.27319 0.0
loop_
_geom_bond_atom_site_label_1
_geom_bond_atom_site_label_2
_geom_bond_distance
_geom_bond_site_symmetry_2
_ccdc_geom_bond_type
H0 C8 0.930 . S
H1 C11 0.930 . S
H2 C13 0.930 1_565 S
H3 C14 0.970 . S
H4 C14 0.970 1_556 S
H5 C16 0.930 . S
H6 C18 0.930 1_565 S
H7 C20 0.930 . S
C8 H0 0.930 . S
C8 C9 1.382 . S
C8 C10 1.426 . S
C9 C8 1.382 . S
C9 C13 1.389 . S
C10 C8 1.426 . S
C10 C11 1.375 1_554 S
C10 C14 1.532 . S
C11 H1 0.930 . S
C11 C10 1.375 1_556 S
C11 C12 1.416 . S
C12 C11 1.416 . S
C12 C13 1.371 1_556 S
C13 H2 0.930 1_545 S
C13 C9 1.389 . S
C13 C12 1.371 1_554 S
C14 H3 0.970 . S
C14 H4 0.970 1_554 S
C14 C10 1.532 . S
C14 C15 1.499 . S
C15 C14 1.499 . S
C15 C16 1.370 . S
C15 C20 1.415 1_554 S
C16 H5 0.930 . S
C16 C15 1.370 . S
C16 C17 1.407 . S
C17 C16 1.407 . S
C17 C18 1.365 . S
C18 H6 0.930 1_545 S
C18 C17 1.365 . S
C18 C19 1.393 1_554 S
C19 C18 1.393 1_556 S
C19 C20 1.387 . S
C20 H7 0.930 . S
C20 C15 1.415 1_556 S
C20 C19 1.387 . S
H21 C29 0.930 . S
H22 C32 0.930 . S
H23 C34 0.930 1_655 S
H24 C35 0.970 . S
H25 C35 0.970 . S
H26 C37 0.930 . S
H27 C39 0.930 1_655 S
H28 C41 0.930 . S
C29 H21 0.930 . S
C29 C30 1.382 . S
C29 C31 1.426 . S
C30 C29 1.382 . S
C30 C34 1.389 . S
C31 C29 1.426 . S
C31 C32 1.375 . S
C31 C35 1.532 . S
C32 H22 0.930 . S
C32 C31 1.375 . S
C32 C33 1.416 . S
C33 C32 1.416 . S
C33 C34 1.371 . S
C34 H23 0.930 1_455 S
C34 C30 1.389 . S
C34 C33 1.371 . S
C35 H24 0.970 . S
C35 H25 0.970 . S
C35 C31 1.532 . S
C35 C36 1.499 . S
C36 C35 1.499 . S
C36 C37 1.370 . S
C36 C41 1.415 . S
C37 H26 0.930 . S
C37 C36 1.370 . S
C37 C38 1.407 . S
C38 C37 1.407 . S
C38 C39 1.365 . S
C39 H27 0.930 1_455 S
C39 C38 1.365 . S
C39 C40 1.393 . S
C40 C39 1.393 . S
C40 C41 1.387 . S
C41 H28 0.930 . S
C41 C36 1.415 . S
C41 C40 1.387 . S
O42 Cd43 2.223 1_655 S
O42 C50 1.315 . S
Cd43 O42 2.223 1_455 S
Cd43 O46 2.297 1_455 S
Cd43 O47 2.428 1_455 S
Cd43 O53 2.240 1_565 S
Cd44 O45 2.240 . S
Cd44 O52 2.223 1_655 S
Cd44 O54 2.297 1_655 S
Cd44 O55 2.439 1_655 S
O45 Cd44 2.240 . S
O45 C50 1.279 1_545 S
O46 Cd43 2.297 1_655 S
O46 C48 1.247 . S
O47 Cd43 2.428 1_655 S
O47 C48 1.214 . S
C48 O46 1.247 . S
C48 O47 1.214 . S
C49 O54 1.247 . S
C49 O55 1.208 . S
C50 O42 1.315 . S
C50 O45 1.279 1_565 S
C51 O52 1.315 . S
C51 O53 1.279 . S
O52 Cd44 2.223 1_455 S
O52 C51 1.315 . S
O53 Cd43 2.240 1_545 S
O53 C51 1.279 . S
O54 Cd44 2.297 1_455 S
O54 C49 1.247 . S
O55 Cd44 2.439 1_455 S
O55 C49 1.208 . S
O56 Cd57 2.223 1_655 S
O56 C64 1.315 . S
Cd57 O56 2.223 1_455 S
Cd57 O60 2.297 1_455 S
Cd57 O61 2.439 1_455 S
Cd57 O67 2.240 . S
Cd58 O59 2.240 1_565 S
Cd58 O66 2.223 1_655 S
Cd58 O68 2.297 1_655 S
Cd58 O69 2.439 1_655 S
O59 Cd58 2.240 1_545 S
O59 C64 1.279 . S
O60 Cd57 2.297 1_655 S
O60 C62 1.247 . S
O61 Cd57 2.439 1_655 S
O61 C62 1.208 . S
C62 O60 1.247 . S
C62 O61 1.208 . S
C63 O68 1.247 . S
C63 O69 1.208 . S
C64 O56 1.315 . S
C64 O59 1.279 . S
C65 O66 1.315 . S
C65 O67 1.279 1_565 S
O66 Cd58 2.223 1_455 S
O66 C65 1.315 . S
O67 Cd57 2.240 . S
O67 C65 1.279 1_545 S
O68 Cd58 2.297 1_455 S
O68 C63 1.247 . S
O69 Cd58 2.439 1_455 S
O69 C63 1.208 . S
C70 C71 1.349 1_565 S
C70 C72 1.327 . S
C70 H95 0.950 . S
C71 C70 1.349 1_545 S
C71 C87 1.349 . S
C72 C70 1.327 . S
C72 C91 1.429 1_565 S
C72 H96 0.950 . S
C73 C90 1.574 . S
C73 C92 1.368 . S
C73 H97 0.949 . S
H74 C78 0.949 . S
C75 C76 1.349 . S
C75 C77 1.327 . S
C75 H98 0.950 . S
C76 C75 1.349 . S
C76 C88 1.349 . S
C77 C75 1.327 . S
C77 C93 1.429 . S
C77 H99 0.950 . S
C78 H74 0.949 . S
C78 C86 1.574 . S
C78 C94 1.368 1_565 S
H79 C87 0.950 . S
H80 C85 0.950 . S
H81 C86 0.949 . S
H82 C88 0.950 1_565 S
H83 C89 0.950 . S
H84 C90 0.949 . S
C85 H80 0.950 . S
C85 C87 1.327 . S
C85 C91 1.429 . S
C86 C78 1.574 . S
C86 H81 0.949 . S
C86 C92 1.368 1_565 S
C87 C71 1.349 . S
C87 H79 0.950 . S
C87 C85 1.327 . S
C88 C76 1.349 . S
C88 H82 0.950 1_545 S
C88 C89 1.327 1_545 S
C89 H83 0.950 . S
C89 C88 1.327 1_565 S
C89 C93 1.429 1_565 S
C90 C73 1.574 . S
C90 H84 0.949 . S
C90 C94 1.368 . S
C91 C72 1.429 1_545 S
C91 C85 1.429 . S
C91 C92 1.523 . S
C92 C73 1.368 . S
C92 C86 1.368 1_545 S
C92 C91 1.523 . S
C93 C77 1.429 . S
C93 C89 1.429 1_545 S
C93 C94 1.523 . S
C94 C78 1.368 1_545 S
C94 C90 1.368 . S
C94 C93 1.523 . S
H95 C70 0.950 . S
H96 C72 0.950 . S
H97 C73 0.949 . S
H98 C75 0.950 . S
H99 C77 0.950 . S
C100 C101 1.349 . S
C100 C102 1.327 . S
C100 H125 0.950 . S
C101 C100 1.349 . S
C101 C117 1.349 1_455 S
C102 C100 1.327 . S
C102 C121 1.429 . S
C102 H126 0.950 . S
C103 C120 1.574 . S
C103 C122 1.360 1_655 S
C103 H127 0.949 . S
H104 C108 0.949 . S
C105 C106 1.349 . S
C105 C107 1.327 . S
C105 H128 0.950 . S
C106 C105 1.349 . S
C106 C118 1.349 1_655 S
C107 C105 1.327 . S
C107 C123 1.429 . S
C107 H129 0.950 . S
C108 H104 0.949 . S
C108 C116 1.574 . S
C108 C124 1.368 1_455 S
H109 C117 0.950 . S
H110 C115 0.950 . S
H111 C116 0.949 . S
H112 C118 0.950 . S
H113 C119 0.950 . S
H114 C120 0.949 . S
C115 H110 0.950 . S
C115 C117 1.327 . S
C115 C121 1.429 1_655 S
C116 C108 1.574 . S
C116 H111 0.949 . S
C116 C122 1.376 . S
C117 C101 1.349 1_655 S
C117 H109 0.950 . S
C117 C115 1.327 . S
C118 C106 1.349 1_455 S
C118 H112 0.950 . S
C118 C119 1.327 . S
C119 H113 0.950 . S
C119 C118 1.327 . S
C119 C123 1.429 1_455 S
C120 C103 1.574 . S
C120 H114 0.949 . S
C120 C124 1.368 . S
C121 C102 1.429 . S
C121 C115 1.429 1_455 S
C121 C122 1.524 . S
C122 C103 1.360 1_455 S
C122 C116 1.376 . S
C122 C121 1.524 . S
C123 C107 1.429 . S
C123 C119 1.429 1_655 S
C123 C124 1.523 . S
C124 C108 1.368 1_655 S
C124 C120 1.368 . S
C124 C123 1.523 . S
H125 C100 0.950 . S
H126 C102 0.950 . S
H127 C103 0.949 . S
H128 C105 0.950 . S
H129 C107 0.950 . S
C130 C131 1.349 . S
C130 C132 1.327 . S
C130 H155 0.950 . S
C131 C130 1.349 . S
C131 C147 1.349 1_545 S
C132 C130 1.327 . S
C132 C151 1.429 . S
C132 H156 0.950 . S
C133 C150 1.574 . S
C133 C152 1.368 1_565 S
C133 H157 0.949 . S
H134 C138 0.949 . S
C135 C136 1.349 . S
C135 C137 1.327 . S
C135 H158 0.950 . S
C136 C135 1.349 . S
C136 C148 1.349 1_565 S
C137 C135 1.327 . S
C137 C153 1.429 1_565 S
C137 H159 0.950 . S
C138 H134 0.949 . S
C138 C146 1.574 . S
C138 C154 1.368 . S
H139 C147 0.950 . S
H140 C145 0.950 . S
H141 C146 0.949 . S
H142 C148 0.950 . S
H143 C149 0.950 . S
H144 C150 0.949 . S
C145 H140 0.950 . S
C145 C147 1.327 . S
C145 C151 1.429 1_565 S
C146 C138 1.574 . S
C146 H141 0.949 . S
C146 C152 1.368 . S
C147 C131 1.349 1_565 S
C147 H139 0.950 . S
C147 C145 1.327 . S
C148 C136 1.349 1_545 S
C148 H142 0.950 . S
C148 C149 1.327 . S
C149 H143 0.950 . S
C149 C148 1.327 . S
C149 C153 1.429 . S
C150 C133 1.574 . S
C150 H144 0.949 . S
C150 C154 1.368 1_565 S
C151 C132 1.429 . S
C151 C145 1.429 1_545 S
C151 C152 1.523 . S
C152 C133 1.368 1_545 S
C152 C146 1.368 . S
C152 C151 1.523 . S
C153 C137 1.429 1_545 S
C153 C149 1.429 . S
C153 C154 1.523 . S
C154 C138 1.368 . S
C154 C150 1.368 1_545 S
C154 C153 1.523 . S
H155 C130 0.950 . S
H156 C132 0.950 . S
H157 C133 0.949 . S
H158 C135 0.950 . S
H159 C137 0.950 . S
C160 C161 1.349 1_655 S
C160 C162 1.329 . S
C160 H185 0.950 . S
C161 C160 1.349 1_455 S
C161 C177 1.349 . S
C162 C160 1.329 . S
C162 C181 1.421 1_655 S
C162 H186 0.956 . S
C163 C180 1.574 . S
C163 C182 1.368 . S
C163 H187 0.949 . S
H164 C168 0.949 . S
C165 C166 1.349 . S
C165 C167 1.327 . S
C165 H188 0.950 . S
C166 C165 1.349 . S
C166 C178 1.349 . S
C167 C165 1.327 . S
C167 C183 1.429 . S
C167 H189 0.950 . S
C168 H164 0.949 . S
C168 C176 1.574 . S
C168 C184 1.368 . S
H169 C177 0.950 . S
H170 C175 0.950 . S
H171 C176 0.949 1_655 S
H172 C178 0.950 . S
H173 C179 0.950 . S
H174 C180 0.949 . S
C175 H170 0.950 . S
C175 C177 1.327 . S
C175 C181 1.429 . S
C176 C168 1.574 . S
C176 H171 0.949 1_455 S
C176 C182 1.368 . S
C177 C161 1.349 . S
C177 H169 0.950 . S
C177 C175 1.327 . S
C178 C166 1.349 . S
C178 H172 0.950 . S
C178 C179 1.327 . S
C179 H173 0.950 . S
C179 C178 1.327 . S
C179 C183 1.429 . S
C180 C163 1.574 . S
C180 H174 0.949 . S
C180 C184 1.368 . S
C181 C162 1.421 1_455 S
C181 C175 1.429 . S
C181 C182 1.523 . S
C182 C163 1.368 . S
C182 C176 1.368 . S
C182 C181 1.523 . S
C183 C167 1.429 . S
C183 C179 1.429 . S
C183 C184 1.523 . S
C184 C168 1.368 . S
C184 C180 1.368 . S
C184 C183 1.523 . S
H185 C160 0.950 . S
H186 C162 0.956 . S
H187 C163 0.949 . S
H188 C165 0.950 . S
H189 C167 0.950 . S
C190 C191 1.349 1_565 S
C190 C192 1.327 . S
C190 H215 0.950 . S
C191 C190 1.349 1_545 S
C191 C207 1.349 . S
C192 C190 1.327 . S
C192 C211 1.429 1_565 S
C192 H216 0.950 . S
C193 C210 1.574 . S
C193 C212 1.368 . S
C193 H217 0.949 . S
H194 C198 0.949 . S
C195 C196 1.349 1_545 S
C195 C197 1.327 . S
C195 H218 0.950 . S
C196 C195 1.349 1_565 S
C196 C208 1.349 . S
C197 C195 1.327 . S
C197 C213 1.429 . S
C197 H219 0.950 . S
C198 H194 0.949 . S
C198 C206 1.574 . S
C198 C214 1.368 1_565 S
H199 C207 0.950 . S
H200 C205 0.950 . S
H201 C206 0.949 . S
H202 C208 0.950 . S
H203 C209 0.950 . S
H204 C210 0.949 . S
C205 H200 0.950 . S
C205 C207 1.327 . S
C205 C211 1.429 . S
C206 C198 1.574 . S
C206 H201 0.949 . S
C206 C212 1.368 1_565 S
C207 C191 1.349 . S
C207 H199 0.950 . S
C207 C205 1.327 . S
C208 C196 1.349 . S
C208 H202 0.950 . S
C208 C209 1.327 . S
C209 H203 0.950 . S
C209 C208 1.327 . S
C209 C213 1.429 1_565 S
C210 C193 1.574 . S
C210 H204 0.949 . S
C210 C214 1.368 . S
C211 C192 1.429 1_545 S
C211 C205 1.429 . S
C211 C212 1.523 . S
C212 C193 1.368 . S
C212 C206 1.368 1_545 S
C212 C211 1.523 . S
C213 C197 1.429 . S
C213 C209 1.429 1_545 S
C213 C214 1.523 . S
C214 C198 1.368 1_545 S
C214 C210 1.368 . S
C214 C213 1.523 . S
H215 C190 0.950 . S
H216 C192 0.950 . S
H217 C193 0.949 . S
H218 C195 0.950 . S
H219 C197 0.950 . S
C220 C221 1.349 . S
C220 C222 1.327 . S
C220 H245 0.950 . S
C221 C220 1.349 . S
C221 C237 1.349 1_455 S
C222 C220 1.327 . S
C222 C241 1.429 . S
C222 H246 0.950 . S
C223 C240 1.574 . S
C223 C242 1.368 . S
C223 H247 0.949 1_455 S
H224 C228 0.949 . S
C225 C226 1.349 . S
C225 C227 1.327 . S
C225 H248 0.950 . S
C226 C225 1.349 . S
C226 C238 1.349 . S
C227 C225 1.327 . S
C227 C243 1.429 . S
C227 H249 0.950 . S
C228 H224 0.949 . S
C228 C236 1.574 . S
C228 C244 1.368 . S
H229 C237 0.950 . S
H230 C235 0.949 1_655 S
H231 C236 0.949 . S
H232 C238 0.950 . S
H233 C239 0.950 . S
H234 C240 0.949 . S
C235 H230 0.949 1_455 S
C235 C237 1.327 1_455 S
C235 C241 1.429 . S
C236 C228 1.574 . S
C236 H231 0.949 . S
C236 C242 1.368 . S
C237 C221 1.349 1_655 S
C237 H229 0.950 . S
C237 C235 1.327 1_655 S
C238 C226 1.349 . S
C238 H232 0.950 . S
C238 C239 1.327 . S
C239 H233 0.950 . S
C239 C238 1.327 . S
C239 C243 1.429 . S
C240 C223 1.574 . S
C240 H234 0.949 . S
C240 C244 1.368 . S
C241 C222 1.429 . S
C241 C235 1.429 . S
C241 C242 1.523 . S
C242 C223 1.368 . S
C242 C236 1.368 . S
C242 C241 1.523 . S
C243 C227 1.429 . S
C243 C239 1.429 . S
C243 C244 1.523 . S
C244 C228 1.368 . S
C244 C240 1.368 . S
C244 C243 1.523 . S
H245 C220 0.950 . S
H246 C222 0.950 . S
H247 C223 0.949 1_655 S
H248 C225 0.950 . S
H249 C227 0.950 . S
C250 C251 1.349 . S
C250 C252 1.327 . S
C250 H275 0.950 . S
C251 C250 1.349 . S
C251 C267 1.349 1_545 S
C252 C250 1.327 . S
C252 C271 1.429 . S
C252 H276 0.950 . S
C253 C270 1.576 . S
C253 C272 1.368 1_565 S
C253 H277 0.949 . S
H254 C258 0.949 . S
C255 C256 1.349 . S
C255 C257 1.327 . S
C255 H278 0.950 1_545 S
C256 C255 1.349 . S
C256 C268 1.349 . S
C257 C255 1.327 . S
C257 C273 1.429 . S
C257 H279 0.950 1_545 S
C258 H254 0.949 . S
C258 C266 1.574 . S
C258 C274 1.368 . S
H259 C267 0.950 . S
H260 C265 0.950 . S
H261 C266 0.949 . S
H262 C268 0.950 . S
H263 C269 0.950 . S
H264 C270 0.964 . S
C265 H260 0.950 . S
C265 C267 1.327 . S
C265 C271 1.429 1_565 S
C266 C258 1.574 . S
C266 H261 0.949 . S
C266 C272 1.368 . S
C267 C251 1.349 1_565 S
C267 H259 0.950 . S
C267 C265 1.327 . S
C268 C256 1.349 . S
C268 H262 0.950 . S
C268 C269 1.327 . S
C269 H263 0.950 . S
C269 C268 1.327 . S
C269 C273 1.429 . S
C270 C253 1.576 . S
C270 H264 0.964 . S
C270 C274 1.350 1_565 S
C271 C252 1.429 . S
C271 C265 1.429 1_545 S
C271 C272 1.523 . S
C272 C253 1.368 1_545 S
C272 C266 1.368 . S
C272 C271 1.523 . S
C273 C257 1.429 . S
C273 C269 1.429 . S
C273 C274 1.523 . S
C274 C258 1.368 . S
C274 C270 1.350 1_545 S
C274 C273 1.523 . S
H275 C250 0.950 . S
H276 C252 0.950 . S
H277 C253 0.949 . S
H278 C255 0.950 1_565 S
H279 C257 0.950 1_565 S
C280 C281 1.349 . S
C280 C282 1.327 . S
C280 H305 0.950 . S
C281 C280 1.349 . S
C281 C297 1.349 1_455 S
C282 C280 1.327 . S
C282 C301 1.429 . S
C282 H306 0.950 . S
C283 C300 1.574 . S
C283 C302 1.346 1_655 S
C283 H307 0.949 . S
H284 C288 0.949 . S
C285 C286 1.349 . S
C285 C287 1.327 . S
C285 H308 0.950 . S
C286 C285 1.349 . S
C286 C298 1.349 1_655 S
C287 C285 1.327 . S
C287 C303 1.429 . S
C287 H309 0.950 . S
C288 H284 0.949 . S
C288 C296 1.574 . S
C288 C304 1.368 1_455 S
H289 C297 0.950 . S
H290 C295 0.950 . S
H291 C296 0.949 . S
H292 C298 0.950 . S
H293 C299 0.950 . S
H294 C300 0.949 . S
C295 H290 0.950 . S
C295 C297 1.327 . S
C295 C301 1.429 1_655 S
C296 C288 1.574 . S
C296 H291 0.949 . S
C296 C302 1.389 . S
C297 C281 1.349 1_655 S
C297 H289 0.950 . S
C297 C295 1.327 . S
C298 C286 1.349 1_455 S
C298 H292 0.950 . S
C298 C299 1.327 . S
C299 H293 0.950 . S
C299 C298 1.327 . S
C299 C303 1.429 1_455 S
C300 C283 1.574 . S
C300 H294 0.949 . S
C300 C304 1.368 . S
C301 C282 1.429 . S
C301 C295 1.429 1_455 S
C301 C302 1.525 . S
C302 C283 1.346 1_455 S
C302 C296 1.389 . S
C302 C301 1.525 . S
C303 C287 1.429 . S
C303 C299 1.429 1_655 S
C303 C304 1.523 . S
C304 C288 1.368 1_655 S
C304 C300 1.368 . S
C304 C303 1.523 . S
H305 C280 0.950 . S
H306 C282 0.950 . S
H307 C283 0.949 . S
H308 C285 0.950 . S
H309 C287 0.950 . S
C76 C51 1.685 . S
C71 C17 1.597 . S
C106 C62 1.580 . S
C101 C40 1.593 . S
C136 C50 1.686 . S
C131 C9 1.627 . S
C166 C63 1.585 . S
C161 C33 1.543 . S
C196 C65 1.674 . S
C191 C19 1.627 . S
C226 C49 1.591 . S
C221 C38 1.560 . S
C256 C64 1.680 . S
C251 C12 1.581 . S
C281 C30 1.595 . S
C286 C48 1.592 . S
