# Generated by pormake.
# Topology dag, (6,3)-cn, num edge types: 1
# Building blocks:
#     Node 0, Type 0, BuildingBlock: MIDCAF_clean_sbu_0, # of connection points: 6
#     Node 1, Type 0, BuildingBlock: MIDCAF_clean_sbu_0, # of connection points: 6
#     Node 2, Type 0, BuildingBlock: MIDCAF_clean_sbu_0, # of connection points: 6
#     Node 3, Type 0, BuildingBlock: MIDCAF_clean_sbu_0, # of connection points: 6
#     Node 4, Type 1, BuildingBlock: MIDCAF_clean_linker_0, # of connection points: 3
#     Node 5, Type 1, BuildingBlock: MIDCAF_clean_linker_0, # of connection points: 3
#     Node 6, Type 1, BuildingBlock: MIDCAF_clean_linker_0, # of connection points: 3
#     Node 7, Type 1, BuildingBlock: MIDCAF_clean_linker_0, # of connection points: 3
#     Node 8, Type 1, BuildingBlock: MIDCAF_clean_linker_0, # of connection points: 3
#     Node 9, Type 1, BuildingBlock: MIDCAF_clean_linker_0, # of connection points: 3
#     Node 10, Type 1, BuildingBlock: MIDCAF_clean_linker_0, # of connection points: 3
#     Node 11, Type 1, BuildingBlock: MIDCAF_clean_linker_0, # of connection points: 3
#     Edge 12, Type (0, 1), BuildingBlock: OJICUG_clean_linker_0, # of connection points: 2
#     Edge 13, Type (0, 1), BuildingBlock: OJICUG_clean_linker_0, # of connection points: 2
#     Edge 14, Type (0, 1), BuildingBlock: OJICUG_clean_linker_0, # of connection points: 2
#     Edge 15, Type (0, 1), BuildingBlock: OJICUG_clean_linker_0, # of connection points: 2
#     Edge 16, Type (0, 1), BuildingBlock: OJICUG_clean_linker_0, # of connection points: 2
#     Edge 17, Type (0, 1), BuildingBlock: OJICUG_clean_linker_0, # of connection points: 2
#     Edge 18, Type (0, 1), BuildingBlock: OJICUG_clean_linker_0, # of connection points: 2
#     Edge 19, Type (0, 1), BuildingBlock: OJICUG_clean_linker_0, # of connection points: 2
#     Edge 20, Type (0, 1), BuildingBlock: OJICUG_clean_linker_0, # of connection points: 2
#     Edge 21, Type (0, 1), BuildingBlock: OJICUG_clean_linker_0, # of connection points: 2
#     Edge 22, Type (0, 1), BuildingBlock: OJICUG_clean_linker_0, # of connection points: 2
#     Edge 23, Type (0, 1), BuildingBlock: OJICUG_clean_linker_0, # of connection points: 2
#     Edge 24, Type (0, 1), BuildingBlock: OJICUG_clean_linker_0, # of connection points: 2
#     Edge 25, Type (0, 1), BuildingBlock: OJICUG_clean_linker_0, # of connection points: 2
#     Edge 26, Type (0, 1), BuildingBlock: OJICUG_clean_linker_0, # of connection points: 2
#     Edge 27, Type (0, 1), BuildingBlock: OJICUG_clean_linker_0, # of connection points: 2
#     Edge 28, Type (0, 1), BuildingBlock: OJICUG_clean_linker_0, # of connection points: 2
#     Edge 29, Type (0, 1), BuildingBlock: OJICUG_clean_linker_0, # of connection points: 2
#     Edge 30, Type (0, 1), BuildingBlock: OJICUG_clean_linker_0, # of connection points: 2
#     Edge 31, Type (0, 1), BuildingBlock: OJICUG_clean_linker_0, # of connection points: 2
#     Edge 32, Type (0, 1), BuildingBlock: OJICUG_clean_linker_0, # of connection points: 2
#     Edge 33, Type (0, 1), BuildingBlock: OJICUG_clean_linker_0, # of connection points: 2
#     Edge 34, Type (0, 1), BuildingBlock: OJICUG_clean_linker_0, # of connection points: 2
#     Edge 35, Type (0, 1), BuildingBlock: OJICUG_clean_linker_0, # of connection points: 2
# Relax obj value: 0.310
# Max RMSD: 0.193
# Mean RMSD: 0.182
data_MOF--net-dag--node1-MIDCAF_clean_sbu_0--node2-MIDCAF_clean_linker_0--edge1-OJICUG_clean_linker_0
_symmetry_space_group_name_H-M    P1
_symmetry_Int_Tables_number       1
_symmetry_cell_setting            triclinic
loop_
_symmetry_equiv_pos_as_xyz
'x, y, z'
_cell_length_a     37.398399
_cell_length_b     38.275024
_cell_length_c     28.179782
_cell_angle_alpha  86.212705
_cell_angle_beta   90.345294
_cell_angle_gamma 90.049468
loop_
_atom_site_label
_atom_site_type_symbol
_atom_site_fract_x
_atom_site_fract_y
_atom_site_fract_z
_atom_type_partial_charge
Zn0 Zn 0.23968 0.83685 0.09117 0.0
Zn1 Zn 0.17351 0.82428 0.92962 0.0
Zn2 Zn 0.20582 0.8317 0.00855 0.0
C3 C 0.18357 0.89513 0.93197 0.0
C4 C 0.12847 0.79532 0.99922 0.0
O5 O 0.25367 0.79735 0.01013 0.0
O6 O 0.2765 0.80101 0.08244 0.0
C7 C 0.24088 0.90322 0.04154 0.0
O8 O 0.19917 0.8844 0.97122 0.0
O9 O 0.16966 0.87349 0.90549 0.0
O10 O 0.13085 0.80007 0.95466 0.0
O11 O 0.15327 0.80691 0.02606 0.0
O12 O 0.25304 0.88667 0.0784 0.0
O13 O 0.22169 0.8873 0.01146 0.0
O14 O 0.16762 0.82058 0.06765 0.0
O15 O 0.19813 0.82721 0.13404 0.0
C16 C 0.16879 0.82179 0.11334 0.0
O17 O 0.23733 0.79497 0.96602 0.0
O18 O 0.20661 0.79421 0.89878 0.0
C19 C 0.27733 0.78853 0.04213 0.0
C20 C 0.23294 0.78399 0.92404 0.0
Zn21 Zn 0.74363 0.65106 0.50895 0.0
Zn22 Zn 0.68494 0.6594 0.66475 0.0
Zn23 Zn 0.71413 0.65443 0.59124 0.0
C24 C 0.6759 0.59182 0.64964 0.0
C25 C 0.64746 0.70448 0.60813 0.0
O26 O 0.76552 0.68393 0.59365 0.0
O27 O 0.78681 0.67775 0.52161 0.0
C28 C 0.7364 0.5822 0.54535 0.0
O29 O 0.70205 0.60083 0.62184 0.0
O30 O 0.65832 0.61483 0.66933 0.0
O31 O 0.65655 0.70244 0.65138 0.0
O32 O 0.66393 0.68545 0.57909 0.0
O33 O 0.74869 0.59985 0.50973 0.0
O34 O 0.72248 0.59792 0.57992 0.0
O35 O 0.6757 0.67335 0.53519 0.0
O36 O 0.7048 0.67123 0.46723 0.0
C37 C 0.67629 0.6767 0.48929 0.0
O38 O 0.75044 0.68267 0.63971 0.0
O39 O 0.72632 0.66266 0.70738 0.0
C40 C 0.7902 0.68934 0.56227 0.0
C41 C 0.75124 0.67883 0.68556 0.0
Zn42 Zn 0.75492 0.13549 1.00103 0.0
Zn43 Zn 0.81366 0.17977 0.14806 0.0
Zn44 Zn 0.78548 0.15502 0.07647 0.0
C45 C 0.86657 0.18605 0.08365 0.0
C46 C 0.7979 0.10895 0.17232 0.0
O47 O 0.73305 0.18244 0.06616 0.0
O48 O 0.70712 0.15545 0.00823 0.0
C49 C 0.81591 0.17233 0.97087 0.0
O50 O 0.84033 0.17535 0.05835 0.0
O51 O 0.86233 0.18991 0.12728 0.0
O52 O 0.80668 0.1369 0.19083 0.0
O53 O 0.79065 0.10945 0.12752 0.0
O54 O 0.78796 0.15917 0.95405 0.0
O55 O 0.8205 0.17199 0.01631 0.0
O56 O 0.78293 0.09653 0.08251 0.0
O57 O 0.76039 0.08473 0.01265 0.0
C58 C 0.77361 0.07421 0.05231 0.0
O59 O 0.74833 0.19223 0.10998 0.0
O60 O 0.7834 0.22002 0.15839 0.0
C61 C 0.7058 0.17792 0.03893 0.0
C62 C 0.75318 0.21621 0.13953 0.0
Zn63 Zn 0.22329 0.36676 0.56822 0.0
Zn64 Zn 0.3381 0.32127 0.37765 0.0
Zn65 Zn 0.26334 0.34784 0.5034 0.0
C66 C 0.33459 0.3178 0.49234 0.0
C67 C 0.29773 0.38653 0.42148 0.0
O68 O 0.21535 0.3164 0.49443 0.0
O69 O 0.18118 0.33899 0.54816 0.0
C70 C 0.28465 0.33207 0.61085 0.0
O71 O 0.3141 0.32476 0.52665 0.0
O72 O 0.32169 0.32279 0.45025 0.0
O73 O 0.30693 0.35464 0.41827 0.0
O74 O 0.2775 0.39294 0.45635 0.0
O75 O 0.25539 0.34633 0.62109 0.0
O76 O 0.29328 0.32988 0.56704 0.0
O77 O 0.26122 0.40571 0.49651 0.0
O78 O 0.22579 0.41864 0.55515 0.0
C79 C 0.24631 0.4286 0.52144 0.0
O80 O 0.23798 0.31281 0.45397 0.0
O81 O 0.28983 0.3177 0.41937 0.0
C82 C 0.18548 0.31737 0.5166 0.0
C83 C 0.25797 0.30529 0.41929 0.0
C84 C 0.03343 0.15985 0.03672 0.0
C85 C 0.01635 0.19244 0.03952 0.0
C86 C 0.03783 0.22226 0.0449 0.0
C87 C 0.07469 0.21899 0.05242 0.0
H88 H 0.14129 0.24366 0.17062 0.0
H89 H 0.16053 0.26907 0.24367 0.0
H90 H 0.25265 0.20088 0.25123 0.0
H91 H 0.23409 0.17614 0.17787 0.0
H92 H 0.24521 0.12124 0.10385 0.0
H93 H 0.2712 0.06494 0.0881 0.0
H94 H 0.19101 0.05128 0.98005 0.0
H95 H 0.16507 0.10759 0.99525 0.0
H96 H 0.08245 0.13107 0.04274 0.0
H97 H 0.01822 0.13611 0.03311 0.0
H98 H 0.02609 0.24806 0.04537 0.0
H99 H 0.09021 0.24205 0.05928 0.0
N100 N 0.14119 0.19889 0.10538 0.0
N101 N 0.19417 0.16618 0.10571 0.0
N102 N 0.14892 0.1561 0.05042 0.0
C103 C 0.174 0.19139 0.1244 0.0
C104 C 0.18201 0.14867 0.0684 0.0
C105 C 0.12857 0.18138 0.06832 0.0
C106 C 0.18622 0.20795 0.16796 0.0
C107 C 0.16575 0.23417 0.1877 0.0
C108 C 0.17659 0.24854 0.22991 0.0
C109 C 0.20813 0.23703 0.25345 0.0
C110 C 0.22848 0.21076 0.23376 0.0
C111 C 0.21776 0.1965 0.19157 0.0
C112 C 0.20232 0.11852 0.0519 0.0
C113 C 0.2335 0.10666 0.07599 0.0
C114 C 0.24844 0.07435 0.06699 0.0
C115 C 0.23257 0.05323 0.03372 0.0
C116 C 0.20372 0.06674 0.00615 0.0
C117 C 0.18867 0.09901 0.01521 0.0
C118 C 0.0911 0.18608 0.05267 0.0
C119 C 0.07043 0.15682 0.04263 0.0
C120 C 0.33977 0.57165 0.535 0.0
C121 C 0.30221 0.56868 0.53182 0.0
C122 C 0.28133 0.59787 0.54215 0.0
C123 C 0.29729 0.62782 0.55866 0.0
H124 H 0.3171 0.65124 0.71623 0.0
H125 H 0.29657 0.6643 0.7949 0.0
H126 H 0.34322 0.76765 0.77591 0.0
H127 H 0.36524 0.75385 0.69826 0.0
H128 H 0.42687 0.7626 0.61618 0.0
H129 H 0.48935 0.77935 0.60694 0.0
H130 H 0.50641 0.693 0.51862 0.0
H131 H 0.44377 0.67624 0.52745 0.0
H132 H 0.38455 0.60313 0.55365 0.0
H133 H 0.3571 0.54991 0.52844 0.0
H134 H 0.25251 0.59743 0.53872 0.0
H135 H 0.28048 0.64921 0.56845 0.0
N136 N 0.33809 0.66843 0.6289 0.0
N137 N 0.38316 0.7106 0.63312 0.0
N138 N 0.38066 0.6755 0.56797 0.0
C139 C 0.35424 0.69393 0.65258 0.0
C140 C 0.39649 0.70172 0.59082 0.0
C141 C 0.35097 0.65936 0.58646 0.0
C142 C 0.34219 0.70177 0.70064 0.0
C143 C 0.32309 0.6767 0.72897 0.0
C144 C 0.31144 0.68417 0.7742 0.0
C145 C 0.31792 0.71717 0.79182 0.0
C146 C 0.33817 0.74177 0.76404 0.0
C147 C 0.35038 0.73405 0.71913 0.0
C148 C 0.43069 0.71736 0.57389 0.0
C149 C 0.44364 0.74774 0.59362 0.0
C150 C 0.47937 0.75752 0.58813 0.0
C151 C 0.50284 0.73703 0.56297 0.0
C152 C 0.4889 0.7093 0.53823 0.0
C153 C 0.45302 0.69953 0.54361 0.0
C154 C 0.33454 0.62993 0.56331 0.0
C155 C 0.35572 0.60214 0.54987 0.0
C156 C 0.86794 0.82145 0.49572 0.0
C157 C 0.88876 0.79282 0.5134 0.0
C158 C 0.92292 0.78843 0.49364 0.0
C159 C 0.9339 0.80936 0.45366 0.0
H160 H -0.00177 0.80348 0.32762 0.0
H161 H 0.04871 0.78954 0.2774 0.0
H162 H 0.02681 0.88243 0.18619 0.0
H163 H 0.97619 0.89546 0.23472 0.0
H164 H 0.88577 0.9125 0.23018 0.0
H165 H 0.84928 0.9617 0.19876 0.0
H166 H 0.82145 0.98516 0.34156 0.0
H167 H 0.85739 0.93555 0.3733 0.0
H168 H 0.86119 0.86306 0.44262 0.0
H169 H 0.84145 0.82598 0.50926 0.0
H170 H 0.94032 0.76744 0.50713 0.0
H171 H 0.95928 0.80379 0.43746 0.0
N172 N 0.94716 0.84421 0.35941 0.0
N173 N 0.92822 0.88392 0.29723 0.0
N174 N 0.89571 0.87834 0.36784 0.0
C175 C 0.95205 0.85955 0.31485 0.0
C176 C 0.90004 0.8934 0.32344 0.0
C177 C 0.91893 0.85367 0.38619 0.0
C178 C 0.98301 0.85052 0.28524 0.0
C179 C 0.00419 0.82078 0.2967 0.0
C180 C 0.0332 0.81286 0.26796 0.0
C181 C 0.04182 0.83468 0.22738 0.0
C182 C 0.0206 0.86443 0.21629 0.0
C183 C 0.99158 0.87211 0.24456 0.0
C184 C 0.87484 0.92051 0.30422 0.0
C185 C 0.87138 0.92777 0.25486 0.0
C186 C 0.85017 0.95561 0.23682 0.0
C187 C 0.8326 0.97701 0.26783 0.0
C188 C 0.83469 0.96884 0.31705 0.0
C189 C 0.85533 0.94057 0.3351 0.0
C190 C 0.91128 0.83561 0.4333 0.0
C191 C 0.87914 0.84263 0.45652 0.0
C192 C 0.6194 0.30486 0.95066 0.0
C193 C 0.60154 0.27661 0.97454 0.0
C194 C 0.56551 0.27049 0.96267 0.0
C195 C 0.54878 0.29041 0.92539 0.0
H196 H 0.47122 0.28109 0.7976 0.0
H197 H 0.41294 0.27029 0.75977 0.0
H198 H 0.40212 0.38105 0.72284 0.0
H199 H 0.45997 0.39164 0.7591 0.0
H200 H 0.55551 0.39816 0.69657 0.0
H201 H 0.5895 0.44473 0.65444 0.0
H202 H 0.6457 0.46378 0.78488 0.0
H203 H 0.61315 0.41613 0.82603 0.0
H204 H 0.61805 0.34544 0.89536 0.0
H205 H 0.64724 0.31026 0.95798 0.0
H206 H 0.55066 0.24938 0.98086 0.0
H207 H 0.52156 0.28406 0.91584 0.0
N208 N 0.51922 0.32732 0.83948 0.0
N209 N 0.52656 0.3688 0.77493 0.0
N210 N 0.57208 0.36032 0.83163 0.0
C211 C 0.50622 0.34422 0.79897 0.0
C212 C 0.55958 0.37682 0.7909 0.0
C213 C 0.55225 0.33555 0.85618 0.0
C214 C 0.46999 0.33717 0.78106 0.0
C215 C 0.45601 0.30303 0.78187 0.0
C216 C 0.42292 0.29685 0.76017 0.0
C217 C 0.40309 0.32489 0.7388 0.0
C218 C 0.41669 0.35903 0.73957 0.0
C219 C 0.44987 0.36505 0.76007 0.0
C220 C 0.58142 0.40376 0.7647 0.0
C221 C 0.57539 0.41215 0.71604 0.0
C222 C 0.59483 0.43891 0.69194 0.0
C223 C 0.62022 0.45833 0.71621 0.0
C224 C 0.6269 0.44911 0.76464 0.0
C225 C 0.60795 0.42194 0.78848 0.0
C226 C 0.56765 0.31706 0.89952 0.0
C227 C 0.60267 0.32486 0.91391 0.0
C228 C 0.5058 0.32754 0.5245 0.0
C229 C 0.48689 0.2991 0.50739 0.0
C230 C 0.50606 0.27317 0.48517 0.0
C231 C 0.54258 0.2772 0.47646 0.0
H232 H 0.60111 0.27496 0.3514 0.0
H233 H 0.61884 0.25726 0.27334 0.0
H234 H 0.72309 0.30322 0.29268 0.0
H235 H 0.70522 0.32164 0.3696 0.0
H236 H 0.71715 0.37176 0.4522 0.0
H237 H 0.74637 0.42442 0.47701 0.0
H238 H 0.66146 0.43909 0.57688 0.0
H239 H 0.63222 0.38615 0.55265 0.0
H240 H 0.55577 0.3544 0.52795 0.0
H241 H 0.49204 0.34825 0.54134 0.0
H242 H 0.49259 0.25042 0.47272 0.0
H243 H 0.55624 0.25768 0.45712 0.0
N244 N 0.60886 0.30169 0.43278 0.0
N245 N 0.66171 0.33425 0.43675 0.0
N246 N 0.61844 0.3375 0.49608 0.0
C247 C 0.64091 0.31146 0.4139 0.0
C248 C 0.65078 0.34726 0.47801 0.0
C249 C 0.59753 0.31443 0.47396 0.0
C250 C 0.65178 0.29971 0.36697 0.0
C251 C 0.62781 0.28136 0.33893 0.0
C252 C 0.6379 0.27124 0.29408 0.0
C253 C 0.6722 0.27918 0.2763 0.0
C254 C 0.69607 0.29749 0.30448 0.0
C255 C 0.68598 0.30771 0.34906 0.0
C256 C 0.67183 0.37512 0.49952 0.0
C257 C 0.70496 0.38573 0.4801 0.0
C258 C 0.72176 0.41592 0.49433 0.0
C259 C 0.70587 0.43616 0.52827 0.0
C260 C 0.67439 0.42397 0.55072 0.0
C261 C 0.65752 0.39372 0.53649 0.0
C262 C 0.56085 0.30686 0.49067 0.0
C263 C 0.54245 0.33122 0.51656 0.0
C264 C 0.13177 0.18436 0.61877 0.0
C265 C 0.10701 0.2041 0.59026 0.0
C266 C 0.07073 0.20284 0.60318 0.0
C267 C 0.06017 0.18561 0.64609 0.0
H268 H 0.97693 0.18388 0.74844 0.0
H269 H 0.92094 0.19884 0.78662 0.0
H270 H 0.97209 0.18431 0.9242 0.0
H271 H 0.02766 0.16866 0.88642 0.0
H272 H 0.07019 0.08564 0.87962 0.0
H273 H 0.09982 0.03462 0.91701 0.0
H274 H 0.185 0.04638 0.81412 0.0
H275 H 0.15438 0.09673 0.77527 0.0
H276 H 0.14129 0.15362 0.68376 0.0
H277 H 0.16 0.18483 0.61049 0.0
H278 H 0.05077 0.21698 0.58157 0.0
H279 H 0.03235 0.18688 0.65631 0.0
N280 N 0.04654 0.16972 0.74631 0.0
N281 N 0.05956 0.1368 0.81738 0.0
N282 N 0.09674 0.13282 0.75127 0.0
C283 C 0.03854 0.16038 0.79231 0.0
C284 C 0.0886 0.12276 0.79714 0.0
C285 C 0.07573 0.15622 0.72561 0.0
C286 C 0.00641 0.17441 0.81454 0.0
C287 C 0.97634 0.18447 0.78681 0.0
C288 C 0.94432 0.19303 0.80861 0.0
C289 C 0.94205 0.19231 0.85844 0.0
C290 C 0.97296 0.18499 0.88583 0.0
C291 C 0.00472 0.17574 0.86417 0.0
C292 C 0.10952 0.09493 0.8238 0.0
C293 C 0.09547 0.07769 0.86522 0.0
C294 C 0.1127 0.04846 0.88703 0.0
C295 C 0.14466 0.03594 0.86831 0.0
C296 C 0.15996 0.0547 0.82882 0.0
C297 C 0.14247 0.08369 0.80661 0.0
C298 C 0.08554 0.16867 0.67656 0.0
C299 C 0.1211 0.16667 0.66129 0.0
C300 C 0.41153 0.70957 0.1161 0.0
C301 C 0.38708 0.69292 0.08672 0.0
C302 C 0.38495 0.65615 0.09092 0.0
C303 C 0.40351 0.63698 0.12714 0.0
H304 H 0.39822 0.53912 0.21566 0.0
H305 H 0.36414 0.48787 0.2471 0.0
H306 H 0.37142 0.52479 0.38817 0.0
H307 H 0.40635 0.57531 0.35741 0.0
H308 H 0.46353 0.64538 0.37168 0.0
H309 H 0.51026 0.66471 0.42445 0.0
H310 H 0.58279 0.67577 0.30513 0.0
H311 H 0.53484 0.65932 0.25228 0.0
H312 H 0.44697 0.70442 0.17588 0.0
H313 H 0.41391 0.7378 0.11447 0.0
H314 H 0.36721 0.6423 0.06813 0.0
H315 H 0.39934 0.60894 0.13144 0.0
N316 N 0.41919 0.6063 0.22122 0.0
N317 N 0.44999 0.60687 0.29382 0.0
N318 N 0.46186 0.65003 0.23281 0.0
C319 C 0.4256 0.59185 0.2657 0.0
C320 C 0.46855 0.63561 0.27737 0.0
C321 C 0.43693 0.63556 0.20461 0.0
C322 C 0.40501 0.56105 0.28418 0.0
C323 C 0.39253 0.53623 0.25337 0.0
C324 C 0.37315 0.50701 0.2712 0.0
C325 C 0.36518 0.50281 0.31979 0.0
C326 C 0.37719 0.52778 0.35047 0.0
C327 C 0.3973 0.55646 0.33292 0.0
C328 C 0.49578 0.65068 0.30809 0.0
C329 C 0.48938 0.6526 0.35684 0.0
C330 C 0.51637 0.66337 0.38712 0.0
C331 C 0.55088 0.67124 0.36962 0.0
C332 C 0.55666 0.67051 0.32025 0.0
C333 C 0.52924 0.6608 0.28978 0.0
C334 C 0.42505 0.65413 0.15946 0.0
C335 C 0.43047 0.69036 0.15182 0.0
C336 C 0.84529 0.91742 0.06461 0.0
C337 C 0.80888 0.92675 0.06103 0.0
C338 C 0.78393 0.90057 0.05052 0.0
C339 C 0.79529 0.86699 0.04077 0.0
H340 H 0.79294 0.80291 0.91287 0.0
H341 H 0.77817 0.78092 0.83569 0.0
H342 H 0.86623 0.70804 0.8512 0.0
H343 H 0.88035 0.72906 0.92835 0.0
H344 H 0.91821 0.71524 0.02723 0.0
H345 H 0.98206 0.70428 0.03538 0.0
H346 H 0.99413 0.79713 0.11257 0.0
H347 H 0.93029 0.8086 0.10437 0.0
H348 H 0.88472 0.87748 0.05846 0.0
H349 H 0.86566 0.93651 0.0716 0.0
H350 H 0.75555 0.90598 0.04898 0.0
H351 H 0.77567 0.84778 0.03124 0.0
N352 N 0.83224 0.81026 0.98957 0.0
N353 N 0.87381 0.76463 1.00047 0.0
N354 N 0.87162 0.80794 0.05512 0.0
C355 C 0.84709 0.78054 0.97439 0.0
C356 C 0.88606 0.77786 0.04101 0.0
C357 C 0.84435 0.8239 0.03012 0.0
C358 C 0.83751 0.7675 0.92737 0.0
C359 C 0.80913 0.78219 0.89984 0.0
C360 C 0.80094 0.76987 0.85526 0.0
C361 C 0.82104 0.74269 0.83714 0.0
C362 C 0.84989 0.72866 0.86424 0.0
C363 C 0.85792 0.74076 0.90872 0.0
C364 C 0.91953 0.76375 0.06307 0.0
C365 C 0.93407 0.73254 0.04784 0.0
C366 C 0.97058 0.72589 0.05307 0.0
C367 C 0.99285 0.75029 0.07366 0.0
C368 C 0.97737 0.77798 0.09649 0.0
C369 C 0.94078 0.78473 0.09122 0.0
C370 C 0.83165 0.85834 0.04333 0.0
C371 C 0.85641 0.88351 0.05657 0.0
C372 C 0.24448 0.96109 0.9936 0.0
C373 C 0.24485 0.94171 0.03764 0.0
H374 H 0.24033 0.01213 0.95737 0.0
C375 C 0.24665 0.95959 0.07951 0.0
H376 H 0.24467 0.9479 0.96081 0.0
C377 C 0.24501 0.99596 0.07768 0.0
C378 C 0.24161 0.01546 0.0339 0.0
H379 H 0.24725 0.94543 0.11409 0.0
H380 H 0.24405 0.00859 0.11093 0.0
C381 C 0.24242 -0.00225 0.99169 0.0
C382 C 0.5893 0.72991 0.63064 0.0
C383 C 0.6136 0.72274 0.5947 0.0
H384 H 0.53527 0.74034 0.64841 0.0
C385 C 0.60276 0.72849 0.54708 0.0
H386 H 0.59677 0.72658 0.66786 0.0
C387 C 0.56685 0.73558 0.5357 0.0
C388 C 0.5418 0.73884 0.5721 0.0
H389 H 0.62166 0.72617 0.51887 0.0
H390 H 0.5584 0.73697 0.49878 0.0
C391 C 0.55386 0.73797 0.61945 0.0
C392 C 0.78392 0.04498 0.18825 0.0
C393 C 0.80069 0.07564 0.20171 0.0
H394 H 0.78159 0.98884 0.19816 0.0
C395 C 0.82301 0.0739 0.24212 0.0
H396 H 0.76513 0.04591 0.15887 0.0
C397 C 0.83115 0.04177 0.26569 0.0
C398 C 0.81739 0.01073 0.24912 0.0
H399 H 0.83596 0.09713 0.254 0.0
H400 H 0.85019 0.04103 0.29489 0.0
C401 C 0.79286 0.01253 0.2111 0.0
C402 C 0.33939 0.30012 0.64234 0.0
C403 C 0.31097 0.32322 0.64911 0.0
H404 H 0.39131 0.28228 0.6662 0.0
C405 C 0.3103 0.34156 0.69069 0.0
H406 H 0.34011 0.28503 0.61118 0.0
C407 C 0.33928 0.33982 0.72212 0.0
C408 C 0.36926 0.31938 0.71292 0.0
H409 H 0.28863 0.35935 0.69723 0.0
H410 H 0.33923 0.35613 0.75212 0.0
C411 C 0.36844 0.29823 0.67404 0.0
C412 C 0.72886 0.52133 0.58367 0.0
C413 C 0.73371 0.54381 0.54291 0.0
H414 H 0.71585 0.46924 0.61151 0.0
C415 C 0.73346 0.52964 0.49815 0.0
H416 H 0.7311 0.53134 0.61841 0.0
C417 C 0.72616 0.49433 0.49403 0.0
C418 C 0.71881 0.4722 0.53453 0.0
H419 H 0.73726 0.54616 0.46585 0.0
H420 H 0.72438 0.48479 0.45874 0.0
C421 C 0.72086 0.48585 0.57961 0.0
C422 C 0.8713 0.20733 0.9506 0.0
C423 C 0.845 0.18343 0.93794 0.0
H424 H 0.92328 0.22898 0.93528 0.0
C425 C 0.84829 0.1674 0.89475 0.0
H426 H 0.8686 0.22122 0.98259 0.0
C427 C 0.87888 0.17247 0.86715 0.0
C428 C 0.90687 0.19367 0.88216 0.0
H429 H 0.82826 0.14911 0.88367 0.0
H430 H 0.88164 0.15779 0.8358 0.0
C431 C 0.90231 0.21206 0.92328 0.0
C432 C 0.29545 0.44787 0.38552 0.0
C433 C 0.31204 0.4149 0.38905 0.0
H434 H 0.29999 0.50204 0.36151 0.0
C435 C 0.344 0.41015 0.3643 0.0
H436 H 0.27023 0.45195 0.40303 0.0
C437 C 0.36039 0.43854 0.33937 0.0
C438 C 0.34519 0.47203 0.33929 0.0
H439 H 0.35726 0.38495 0.36613 0.0
H440 H 0.38585 0.43475 0.3223 0.0
C441 C 0.31224 0.4764 0.3616 0.0
C442 C 0.06561 0.77663 0.98893 0.0
C443 C 0.09556 0.77871 0.0189 0.0
H444 H 0.01009 0.76517 0.98325 0.0
C445 C 0.09281 0.76585 0.06668 0.0
H446 H 0.06673 0.78561 0.9517 0.0
C447 C 0.05956 0.75508 0.08534 0.0
C448 C 0.02943 0.75499 0.05544 0.0
H449 H 0.11597 0.76519 0.08985 0.0
H450 H 0.0572 0.74763 0.12295 0.0
C451 C 0.03308 0.7647 0.00691 0.0
C452 C 0.75896 0.01264 0.03685 0.0
C453 C 0.78003 0.03622 0.06095 0.0
H454 H 0.75183 0.96069 0.01646 0.0
C455 C 0.80946 0.02335 0.08776 0.0
H456 H 0.73633 0.02184 0.01531 0.0
C457 C 0.81764 0.98757 0.09027 0.0
C458 C 0.79748 0.96403 0.0643 0.0
H459 H 0.82676 0.04106 0.10567 0.0
H460 H 0.84037 0.9787 0.11169 0.0
C461 C 0.7677 0.97721 0.03808 0.0
C462 C 0.39126 0.29256 0.46412 0.0
C463 C 0.37246 0.30839 0.49984 0.0
H464 H 0.44195 0.27755 0.43816 0.0
C465 C 0.39096 0.31813 0.54037 0.0
H466 H 0.37764 0.28478 0.43248 0.0
C467 C 0.42786 0.31305 0.54448 0.0
C468 C 0.44711 0.29888 0.50752 0.0
H469 H 0.37731 0.3314 0.56772 0.0
H470 H 0.44144 0.3214 0.57583 0.0
C471 C 0.42816 0.28797 0.46779 0.0
C472 C 0.18298 0.94428 0.87011 0.0
C473 C 0.17931 0.93261 0.91804 0.0
H474 H 0.17501 0.98575 0.81691 0.0
C475 C 0.16681 0.95586 0.95059 0.0
H476 H 0.19209 0.92658 0.84426 0.0
C477 C 0.15716 0.99008 0.93506 0.0
C478 C 0.15965 0.00154 0.88662 0.0
H479 H 0.16322 0.94719 0.98764 0.0
H480 H 0.14681 0.00716 0.96083 0.0
C481 C 0.17342 0.97835 0.85459 0.0
C482 C 0.64164 0.69873 0.41711 0.0
C483 C 0.64267 0.68028 0.46178 0.0
H484 H 0.61129 0.71218 0.35406 0.0
C485 C 0.61236 0.6615 0.47775 0.0
H486 H 0.66474 0.71345 0.40409 0.0
C487 C 0.58217 0.6597 0.44864 0.0
C488 C 0.58131 0.67709 0.40294 0.0
H489 H 0.61265 0.64666 0.51186 0.0
H490 H 0.56035 0.64309 0.46131 0.0
C491 C 0.61109 0.69761 0.3883 0.0
C492 C 0.23793 0.49124 0.53912 0.0
C493 C 0.25723 0.46587 0.51621 0.0
H494 H 0.23707 0.54263 0.56351 0.0
C495 C 0.28985 0.47554 0.4947 0.0
H496 H 0.21292 0.48457 0.55671 0.0
C497 C 0.3031 0.50958 0.49647 0.0
C498 C 0.28504 0.53445 0.52217 0.0
H499 H 0.30632 0.45632 0.47884 0.0
H500 H 0.32829 0.51575 0.47918 0.0
C501 C 0.25178 0.52491 0.54254 0.0
C502 C 0.10331 0.83335 0.12063 0.0
C503 C 0.13547 0.82108 0.14154 0.0
H504 H 0.0482 0.84528 0.13045 0.0
C505 C 0.1362 0.81153 0.19056 0.0
H506 H 0.10203 0.84158 0.08314 0.0
C507 C 0.10555 0.81475 0.2182 0.0
C508 C 0.07344 0.82759 0.19742 0.0
H509 H 0.16075 0.8024 0.20779 0.0
H510 H 0.10749 0.80848 0.25616 0.0
C511 C 0.07255 0.83598 0.14801 0.0
C512 C 0.63128 0.5447 0.64417 0.0
C513 C 0.66522 0.55523 0.65882 0.0
H514 H 0.59031 0.50598 0.65091 0.0
C515 C 0.68571 0.53267 0.68917 0.0
H516 H 0.61477 0.56224 0.62164 0.0
C517 C 0.67215 0.50002 0.70528 0.0
C518 C 0.63731 0.48997 0.69263 0.0
H519 H 0.71167 0.54082 0.70171 0.0
H520 H 0.68847 0.48325 0.72905 0.0
C521 C 0.61743 0.51236 0.66081 0.0
C522 C 0.92461 0.21725 0.08273 0.0
C523 C 0.90271 0.19168 0.06413 0.0
H524 H 0.97706 0.23733 0.09039 0.0
C525 C 0.91746 0.16857 0.03301 0.0
H526 H 0.91389 0.2352 0.1072 0.0
C527 C 0.954 0.17007 0.02242 0.0
C528 C 0.97655 0.19449 0.04321 0.0
H529 H 0.90115 0.14832 0.01867 0.0
H530 H 0.96464 0.15122 0.99928 0.0
C531 C 0.96098 0.21863 0.07254 0.0
C532 C 0.29636 0.72686 0.04699 0.0
C533 C 0.30444 0.76195 0.03453 0.0
H534 H 0.31629 0.67722 0.07351 0.0
C535 C 0.34021 0.77217 0.02882 0.0
H536 H 0.26883 0.71867 0.05225 0.0
C537 C 0.36772 0.74831 0.04025 0.0
C538 C 0.35974 0.71417 0.05893 0.0
H539 H 0.34688 0.79931 0.0195 0.0
H540 H 0.39509 0.75749 0.03824 0.0
C541 C 0.32376 0.70311 0.05919 0.0
C542 C 0.78111 0.73169 0.71433 0.0
C543 C 0.77851 0.6951 0.71474 0.0
H544 H 0.79683 0.77576 0.75298 0.0
C545 C 0.79417 0.67456 0.75232 0.0
H546 H 0.76833 0.74804 0.68634 0.0
C547 C 0.80991 0.69019 0.79059 0.0
C548 C 0.81005 0.72682 0.79239 0.0
H549 H 0.7918 0.64628 0.75382 0.0
H550 H 0.81954 0.67338 0.82035 0.0
C551 C 0.79672 0.74747 0.75296 0.0
C552 C 0.69571 0.21683 0.18249 0.0
C553 C 0.72335 0.23554 0.15894 0.0
H554 H 0.65802 0.21584 0.23938 0.0
C555 C 0.72823 0.271 0.16686 0.0
H556 H 0.69179 0.18929 0.17723 0.0
C557 C 0.70868 0.28641 0.20191 0.0
C558 C 0.68454 0.26633 0.23044 0.0
H559 H 0.74943 0.2859 0.14895 0.0
H560 H 0.71457 0.31326 0.20915 0.0
C561 C 0.67654 0.23206 0.21833 0.0
C562 C 0.17124 0.25442 0.50886 0.0
C563 C 0.15928 0.28864 0.51472 0.0
H564 H 0.16322 0.19982 0.52753 0.0
C565 C 0.1249 0.29348 0.53281 0.0
H566 H 0.19751 0.24986 0.49448 0.0
C567 C 0.10553 0.26498 0.55235 0.0
C568 C 0.12017 0.23106 0.5539 0.0
H569 H 0.11478 0.31961 0.53705 0.0
H570 H 0.08119 0.27035 0.57114 0.0
C571 C 0.15178 0.22575 0.52841 0.0
C572 C 0.81737 0.74509 0.58623 0.0
C573 C 0.82157 0.71155 0.56993 0.0
H574 H 0.83713 0.79767 0.58334 0.0
C575 C 0.85366 0.70313 0.54787 0.0
H576 H 0.79288 0.75216 0.6035 0.0
C577 C 0.8784 0.72918 0.5349 0.0
C578 C 0.87157 0.76424 0.54404 0.0
H579 H 0.85767 0.67719 0.53553 0.0
H580 H 0.9004 0.72217 0.51267 0.0
C581 C 0.8425 0.77126 0.57378 0.0
C582 C 0.67844 0.23686 0.04712 0.0
C583 C 0.67455 0.2015 0.03778 0.0
H584 H 0.65718 0.28867 0.03638 0.0
C585 C 0.64242 0.19041 0.01752 0.0
H586 H 0.703 0.24627 0.06224 0.0
C587 C 0.61668 0.21473 1.00127 0.0
C588 C 0.62242 0.25072 0.00527 0.0
H589 H 0.63852 0.16319 0.01037 0.0
H590 H 0.5941 0.20538 0.9815 0.0
C591 C 0.65238 0.26124 0.03141 0.0
C592 C 0.26901 0.27621 0.34407 0.0
C593 C 0.24486 0.28578 0.37895 0.0
H594 H 0.27644 0.2542 0.27721 0.0
C595 C 0.20839 0.27809 0.37327 0.0
H596 H 0.2973 0.28142 0.34736 0.0
C597 C 0.19633 0.26198 0.33282 0.0
C598 C 0.22054 0.25311 0.29741 0.0
H599 H 0.18912 0.28508 0.39957 0.0
H600 H 0.16808 0.25644 0.32929 0.0
C601 C 0.25704 0.26022 0.30386 0.0
C602 C 0.29445 0.76763 0.89921 0.0
C603 C 0.25793 0.75979 0.90318 0.0
H604 H 0.34281 0.75964 0.86082 0.0
C605 C 0.24343 0.73322 0.87701 0.0
H606 H 0.30609 0.78819 0.91898 0.0
C607 C 0.26396 0.71732 0.84356 0.0
C608 C 0.29959 0.72766 0.83546 0.0
H609 H 0.21525 0.72678 0.87958 0.0
H610 H 0.25075 0.69922 0.82127 0.0
C611 C 0.3152 0.75166 0.86542 0.0
loop_
_geom_bond_atom_site_label_1
_geom_bond_atom_site_label_2
_geom_bond_distance
_geom_bond_site_symmetry_2
_ccdc_geom_bond_type
Zn0 O6 1.920 . S
Zn0 O12 1.898 . S
Zn0 O15 1.905 . S
Zn1 O9 1.905 . S
Zn1 O10 1.898 . S
Zn1 O18 1.920 . S
Zn2 O5 2.080 . S
Zn2 O8 2.114 1_554 S
Zn2 O11 2.120 1_554 S
Zn2 O13 2.120 . S
Zn2 O14 2.114 . S
Zn2 O17 2.080 1_554 S
C3 O8 1.166 . S
C3 O9 1.182 . S
C4 O10 1.167 . S
C4 O11 1.299 . S
O5 Zn2 2.080 . S
O5 C19 1.305 . S
O6 Zn0 1.920 . S
O6 C19 1.234 . S
C7 O12 1.167 . S
C7 O13 1.299 . S
O8 Zn2 2.114 1_556 S
O8 C3 1.166 . S
O9 Zn1 1.905 . S
O9 C3 1.182 . S
O10 Zn1 1.898 . S
O10 C4 1.167 . S
O11 Zn2 2.120 1_556 S
O11 C4 1.299 . S
O12 Zn0 1.898 . S
O12 C7 1.167 . S
O13 Zn2 2.120 . S
O13 C7 1.299 . S
O14 Zn2 2.114 . S
O14 C16 1.166 . S
O15 Zn0 1.905 . S
O15 C16 1.182 . S
C16 O14 1.166 . S
C16 O15 1.182 . S
O17 Zn2 2.080 1_556 S
O17 C20 1.305 . S
O18 Zn1 1.920 . S
O18 C20 1.234 . S
C19 O5 1.305 . S
C19 O6 1.234 . S
C20 O17 1.305 . S
C20 O18 1.234 . S
Zn21 O27 1.920 . S
Zn21 O33 1.898 . S
Zn21 O36 1.905 . S
Zn22 O30 1.905 . S
Zn22 O31 1.898 . S
Zn22 O39 1.920 . S
Zn23 O26 2.080 . S
Zn23 O29 2.114 . S
Zn23 O32 2.120 . S
Zn23 O34 2.120 . S
Zn23 O35 2.114 . S
Zn23 O38 2.080 . S
C24 O29 1.166 . S
C24 O30 1.182 . S
C25 O31 1.167 . S
C25 O32 1.299 . S
O26 Zn23 2.080 . S
O26 C40 1.305 . S
O27 Zn21 1.920 . S
O27 C40 1.234 . S
C28 O33 1.167 . S
C28 O34 1.299 . S
O29 Zn23 2.114 . S
O29 C24 1.166 . S
O30 Zn22 1.905 . S
O30 C24 1.182 . S
O31 Zn22 1.898 . S
O31 C25 1.167 . S
O32 Zn23 2.120 . S
O32 C25 1.299 . S
O33 Zn21 1.898 . S
O33 C28 1.167 . S
O34 Zn23 2.120 . S
O34 C28 1.299 . S
O35 Zn23 2.114 . S
O35 C37 1.166 . S
O36 Zn21 1.905 . S
O36 C37 1.182 . S
C37 O35 1.166 . S
C37 O36 1.182 . S
O38 Zn23 2.080 . S
O38 C41 1.305 . S
O39 Zn22 1.920 . S
O39 C41 1.234 . S
C40 O26 1.305 . S
C40 O27 1.234 . S
C41 O38 1.305 . S
C41 O39 1.234 . S
Zn42 O48 1.920 . S
Zn42 O54 1.898 . S
Zn42 O57 1.905 . S
Zn43 O51 1.905 . S
Zn43 O52 1.898 . S
Zn43 O60 1.920 . S
Zn44 O47 2.080 . S
Zn44 O50 2.114 . S
Zn44 O53 2.120 . S
Zn44 O55 2.120 . S
Zn44 O56 2.114 . S
Zn44 O59 2.080 . S
C45 O50 1.166 . S
C45 O51 1.182 . S
C46 O52 1.167 . S
C46 O53 1.299 . S
O47 Zn44 2.080 . S
O47 C61 1.305 . S
O48 Zn42 1.920 . S
O48 C61 1.234 1_556 S
C49 O54 1.167 . S
C49 O55 1.299 1_556 S
O50 Zn44 2.114 . S
O50 C45 1.166 . S
O51 Zn43 1.905 . S
O51 C45 1.182 . S
O52 Zn43 1.898 . S
O52 C46 1.167 . S
O53 Zn44 2.120 . S
O53 C46 1.299 . S
O54 Zn42 1.898 . S
O54 C49 1.167 . S
O55 Zn44 2.120 . S
O55 C49 1.299 1_554 S
O56 Zn44 2.114 . S
O56 C58 1.166 . S
O57 Zn42 1.905 . S
O57 C58 1.182 1_556 S
C58 O56 1.166 . S
C58 O57 1.182 1_554 S
O59 Zn44 2.080 . S
O59 C62 1.305 . S
O60 Zn43 1.920 . S
O60 C62 1.234 . S
C61 O47 1.305 . S
C61 O48 1.234 1_554 S
C62 O59 1.305 . S
C62 O60 1.234 . S
Zn63 O69 1.920 . S
Zn63 O75 1.898 . S
Zn63 O78 1.905 . S
Zn64 O72 1.905 . S
Zn64 O73 1.898 . S
Zn64 O81 1.920 . S
Zn65 O68 2.080 . S
Zn65 O71 2.114 . S
Zn65 O74 2.120 . S
Zn65 O76 2.120 . S
Zn65 O77 2.114 . S
Zn65 O80 2.080 . S
C66 O71 1.166 . S
C66 O72 1.182 . S
C67 O73 1.167 . S
C67 O74 1.299 . S
O68 Zn65 2.080 . S
O68 C82 1.305 . S
O69 Zn63 1.920 . S
O69 C82 1.234 . S
C70 O75 1.167 . S
C70 O76 1.299 . S
O71 Zn65 2.114 . S
O71 C66 1.166 . S
O72 Zn64 1.905 . S
O72 C66 1.182 . S
O73 Zn64 1.898 . S
O73 C67 1.167 . S
O74 Zn65 2.120 . S
O74 C67 1.299 . S
O75 Zn63 1.898 . S
O75 C70 1.167 . S
O76 Zn65 2.120 . S
O76 C70 1.299 . S
O77 Zn65 2.114 . S
O77 C79 1.166 . S
O78 Zn63 1.905 . S
O78 C79 1.182 . S
C79 O77 1.166 . S
C79 O78 1.182 . S
O80 Zn65 2.080 . S
O80 C83 1.305 . S
O81 Zn64 1.920 . S
O81 C83 1.234 . S
C82 O68 1.305 . S
C82 O69 1.234 . S
C83 O80 1.305 . S
C83 O81 1.234 . S
C84 C85 1.384 . S
C84 H97 0.947 . S
C84 C119 1.382 . S
C85 C84 1.384 . S
C85 C86 1.378 . S
C86 C85 1.378 . S
C86 C87 1.378 . S
C86 H98 0.952 . S
C87 C86 1.378 . S
C87 H99 0.950 . S
C87 C118 1.383 . S
H88 C107 0.947 . S
H89 C108 0.946 . S
H90 C110 0.953 . S
H91 C111 0.945 . S
H92 C113 0.952 . S
H93 C114 0.949 . S
H94 C116 0.950 . S
H95 C117 0.948 . S
H96 C119 0.951 . S
H97 C84 0.947 . S
H98 C86 0.952 . S
H99 C87 0.950 . S
N100 C103 1.382 . S
N100 C105 1.363 . S
N101 C103 1.371 . S
N101 C104 1.372 . S
N102 C104 1.361 . S
N102 C105 1.377 . S
C103 N100 1.382 . S
C103 N101 1.371 . S
C103 C106 1.480 . S
C104 N101 1.372 . S
C104 N102 1.361 . S
C104 C112 1.457 . S
C105 N100 1.363 . S
C105 N102 1.377 . S
C105 C118 1.479 . S
C106 C103 1.480 . S
C106 C107 1.383 . S
C106 C111 1.385 . S
C107 H88 0.947 . S
C107 C106 1.383 . S
C107 C108 1.388 . S
C108 H89 0.946 . S
C108 C107 1.388 . S
C108 C109 1.384 . S
C109 C108 1.384 . S
C109 C110 1.377 . S
C110 H90 0.953 . S
C110 C109 1.377 . S
C110 C111 1.369 . S
C111 H91 0.945 . S
C111 C106 1.385 . S
C111 C110 1.369 . S
C112 C104 1.457 . S
C112 C113 1.372 . S
C112 C117 1.364 . S
C113 H92 0.952 . S
C113 C112 1.372 . S
C113 C114 1.389 . S
C114 H93 0.949 . S
C114 C113 1.389 . S
C114 C115 1.387 . S
C115 C114 1.387 . S
C115 C116 1.372 . S
C116 H94 0.950 . S
C116 C115 1.372 . S
C116 C117 1.379 . S
C117 H95 0.948 . S
C117 C112 1.364 . S
C117 C116 1.379 . S
C118 C87 1.383 . S
C118 C105 1.479 . S
C118 C119 1.398 . S
C119 C84 1.382 . S
C119 H96 0.951 . S
C119 C118 1.398 . S
C120 C121 1.384 . S
C120 H133 0.947 . S
C120 C155 1.382 . S
C121 C120 1.384 . S
C121 C122 1.378 . S
C122 C121 1.378 . S
C122 C123 1.378 . S
C122 H134 0.952 . S
C123 C122 1.378 . S
C123 H135 0.950 . S
C123 C154 1.383 . S
H124 C143 0.947 . S
H125 C144 0.946 . S
H126 C146 0.953 . S
H127 C147 0.945 . S
H128 C149 0.952 . S
H129 C150 0.949 . S
H130 C152 0.950 . S
H131 C153 0.948 . S
H132 C155 0.951 . S
H133 C120 0.947 . S
H134 C122 0.952 . S
H135 C123 0.950 . S
N136 C139 1.382 . S
N136 C141 1.363 . S
N137 C139 1.371 . S
N137 C140 1.372 . S
N138 C140 1.361 . S
N138 C141 1.377 . S
C139 N136 1.382 . S
C139 N137 1.371 . S
C139 C142 1.480 . S
C140 N137 1.372 . S
C140 N138 1.361 . S
C140 C148 1.457 . S
C141 N136 1.363 . S
C141 N138 1.377 . S
C141 C154 1.479 . S
C142 C139 1.480 . S
C142 C143 1.383 . S
C142 C147 1.385 . S
C143 H124 0.947 . S
C143 C142 1.383 . S
C143 C144 1.388 . S
C144 H125 0.946 . S
C144 C143 1.388 . S
C144 C145 1.384 . S
C145 C144 1.384 . S
C145 C146 1.377 . S
C146 H126 0.953 . S
C146 C145 1.377 . S
C146 C147 1.369 . S
C147 H127 0.945 . S
C147 C142 1.385 . S
C147 C146 1.369 . S
C148 C140 1.457 . S
C148 C149 1.372 . S
C148 C153 1.364 . S
C149 H128 0.952 . S
C149 C148 1.372 . S
C149 C150 1.389 . S
C150 H129 0.949 . S
C150 C149 1.389 . S
C150 C151 1.387 . S
C151 C150 1.387 . S
C151 C152 1.372 . S
C152 H130 0.950 . S
C152 C151 1.372 . S
C152 C153 1.379 . S
C153 H131 0.948 . S
C153 C148 1.364 . S
C153 C152 1.379 . S
C154 C123 1.383 . S
C154 C141 1.479 . S
C154 C155 1.398 . S
C155 C120 1.382 . S
C155 H132 0.951 . S
C155 C154 1.398 . S
C156 C157 1.384 . S
C156 H169 0.947 . S
C156 C191 1.382 . S
C157 C156 1.384 . S
C157 C158 1.378 . S
C158 C157 1.378 . S
C158 C159 1.378 . S
C158 H170 0.952 . S
C159 C158 1.378 . S
C159 H171 0.950 . S
C159 C190 1.383 . S
H160 C179 0.947 . S
H161 C180 0.946 . S
H162 C182 0.953 1_455 S
H163 C183 0.945 . S
H164 C185 0.952 . S
H165 C186 0.949 . S
H166 C188 0.950 . S
H167 C189 0.948 . S
H168 C191 0.951 . S
H169 C156 0.947 . S
H170 C158 0.952 . S
H171 C159 0.950 . S
N172 C175 1.382 . S
N172 C177 1.363 . S
N173 C175 1.371 . S
N173 C176 1.372 . S
N174 C176 1.361 . S
N174 C177 1.377 . S
C175 N172 1.382 . S
C175 N173 1.371 . S
C175 C178 1.480 . S
C176 N173 1.372 . S
C176 N174 1.361 . S
C176 C184 1.457 . S
C177 N172 1.363 . S
C177 N174 1.377 . S
C177 C190 1.479 . S
C178 C175 1.480 . S
C178 C179 1.383 . S
C178 C183 1.385 . S
C179 H160 0.947 . S
C179 C178 1.383 . S
C179 C180 1.388 . S
C180 H161 0.946 . S
C180 C179 1.388 . S
C180 C181 1.384 1_655 S
C181 C180 1.384 1_455 S
C181 C182 1.377 1_455 S
C182 H162 0.953 1_655 S
C182 C181 1.377 1_655 S
C182 C183 1.369 . S
C183 H163 0.945 . S
C183 C178 1.385 . S
C183 C182 1.369 . S
C184 C176 1.457 . S
C184 C185 1.372 . S
C184 C189 1.364 . S
C185 H164 0.952 . S
C185 C184 1.372 . S
C185 C186 1.389 1_565 S
C186 H165 0.949 . S
C186 C185 1.389 1_545 S
C186 C187 1.387 . S
C187 C186 1.387 . S
C187 C188 1.372 . S
C188 H166 0.950 . S
C188 C187 1.372 . S
C188 C189 1.379 1_545 S
C189 H167 0.948 . S
C189 C184 1.364 . S
C189 C188 1.379 1_565 S
C190 C159 1.383 . S
C190 C177 1.479 . S
C190 C191 1.398 . S
C191 C156 1.382 . S
C191 H168 0.951 . S
C191 C190 1.398 . S
C192 C193 1.384 . S
C192 H205 0.947 . S
C192 C227 1.382 . S
C193 C192 1.384 . S
C193 C194 1.378 . S
C194 C193 1.378 . S
C194 C195 1.378 . S
C194 H206 0.952 . S
C195 C194 1.378 . S
C195 H207 0.950 . S
C195 C226 1.383 . S
H196 C215 0.947 . S
H197 C216 0.946 . S
H198 C218 0.953 . S
H199 C219 0.945 . S
H200 C221 0.952 . S
H201 C222 0.949 . S
H202 C224 0.950 . S
H203 C225 0.948 . S
H204 C227 0.951 . S
H205 C192 0.947 . S
H206 C194 0.952 . S
H207 C195 0.950 . S
N208 C211 1.382 . S
N208 C213 1.363 . S
N209 C211 1.371 . S
N209 C212 1.372 . S
N210 C212 1.361 . S
N210 C213 1.377 . S
C211 N208 1.382 . S
C211 N209 1.371 . S
C211 C214 1.480 . S
C212 N209 1.372 . S
C212 N210 1.361 . S
C212 C220 1.457 . S
C213 N208 1.363 . S
C213 N210 1.377 . S
C213 C226 1.479 . S
C214 C211 1.480 . S
C214 C215 1.383 . S
C214 C219 1.385 . S
C215 H196 0.947 . S
C215 C214 1.383 . S
C215 C216 1.388 . S
C216 H197 0.946 . S
C216 C215 1.388 . S
C216 C217 1.384 . S
C217 C216 1.384 . S
C217 C218 1.377 . S
C218 H198 0.953 . S
C218 C217 1.377 . S
C218 C219 1.369 . S
C219 H199 0.945 . S
C219 C214 1.385 . S
C219 C218 1.369 . S
C220 C212 1.457 . S
C220 C221 1.372 . S
C220 C225 1.364 . S
C221 H200 0.952 . S
C221 C220 1.372 . S
C221 C222 1.389 . S
C222 H201 0.949 . S
C222 C221 1.389 . S
C222 C223 1.387 . S
C223 C222 1.387 . S
C223 C224 1.372 . S
C224 H202 0.950 . S
C224 C223 1.372 . S
C224 C225 1.379 . S
C225 H203 0.948 . S
C225 C220 1.364 . S
C225 C224 1.379 . S
C226 C195 1.383 . S
C226 C213 1.479 . S
C226 C227 1.398 . S
C227 C192 1.382 . S
C227 H204 0.951 . S
C227 C226 1.398 . S
C228 C229 1.384 . S
C228 H241 0.947 . S
C228 C263 1.382 . S
C229 C228 1.384 . S
C229 C230 1.378 . S
C230 C229 1.378 . S
C230 C231 1.378 . S
C230 H242 0.952 . S
C231 C230 1.378 . S
C231 H243 0.950 . S
C231 C262 1.383 . S
H232 C251 0.947 . S
H233 C252 0.946 . S
H234 C254 0.953 . S
H235 C255 0.945 . S
H236 C257 0.952 . S
H237 C258 0.949 . S
H238 C260 0.950 . S
H239 C261 0.948 . S
H240 C263 0.951 . S
H241 C228 0.947 . S
H242 C230 0.952 . S
H243 C231 0.950 . S
N244 C247 1.382 . S
N244 C249 1.363 . S
N245 C247 1.371 . S
N245 C248 1.372 . S
N246 C248 1.361 . S
N246 C249 1.377 . S
C247 N244 1.382 . S
C247 N245 1.371 . S
C247 C250 1.480 . S
C248 N245 1.372 . S
C248 N246 1.361 . S
C248 C256 1.457 . S
C249 N244 1.363 . S
C249 N246 1.377 . S
C249 C262 1.479 . S
C250 C247 1.480 . S
C250 C251 1.383 . S
C250 C255 1.385 . S
C251 H232 0.947 . S
C251 C250 1.383 . S
C251 C252 1.388 . S
C252 H233 0.946 . S
C252 C251 1.388 . S
C252 C253 1.384 . S
C253 C252 1.384 . S
C253 C254 1.377 . S
C254 H234 0.953 . S
C254 C253 1.377 . S
C254 C255 1.369 . S
C255 H235 0.945 . S
C255 C250 1.385 . S
C255 C254 1.369 . S
C256 C248 1.457 . S
C256 C257 1.372 . S
C256 C261 1.364 . S
C257 H236 0.952 . S
C257 C256 1.372 . S
C257 C258 1.389 . S
C258 H237 0.949 . S
C258 C257 1.389 . S
C258 C259 1.387 . S
C259 C258 1.387 . S
C259 C260 1.372 . S
C260 H238 0.950 . S
C260 C259 1.372 . S
C260 C261 1.379 . S
C261 H239 0.948 . S
C261 C256 1.364 . S
C261 C260 1.379 . S
C262 C231 1.383 . S
C262 C249 1.479 . S
C262 C263 1.398 . S
C263 C228 1.382 . S
C263 H240 0.951 . S
C263 C262 1.398 . S
C264 C265 1.384 . S
C264 H277 0.947 . S
C264 C299 1.382 . S
C265 C264 1.384 . S
C265 C266 1.378 . S
C266 C265 1.378 . S
C266 C267 1.378 . S
C266 H278 0.952 . S
C267 C266 1.378 . S
C267 H279 0.950 . S
C267 C298 1.383 . S
H268 C287 0.947 1_455 S
H269 C288 0.946 . S
H270 C290 0.953 . S
H271 C291 0.945 . S
H272 C293 0.952 . S
H273 C294 0.949 . S
H274 C296 0.950 . S
H275 C297 0.948 . S
H276 C299 0.951 . S
H277 C264 0.947 . S
H278 C266 0.952 . S
H279 C267 0.950 . S
N280 C283 1.382 . S
N280 C285 1.363 . S
N281 C283 1.371 . S
N281 C284 1.372 . S
N282 C284 1.361 . S
N282 C285 1.377 . S
C283 N280 1.382 . S
C283 N281 1.371 . S
C283 C286 1.480 . S
C284 N281 1.372 . S
C284 N282 1.361 . S
C284 C292 1.457 . S
C285 N280 1.363 . S
C285 N282 1.377 . S
C285 C298 1.479 . S
C286 C283 1.480 . S
C286 C287 1.383 1_455 S
C286 C291 1.385 1_455 S
C287 H268 0.947 1_655 S
C287 C286 1.383 1_655 S
C287 C288 1.388 . S
C288 H269 0.946 . S
C288 C287 1.388 . S
C288 C289 1.384 . S
C289 C288 1.384 . S
C289 C290 1.377 . S
C290 H270 0.953 . S
C290 C289 1.377 . S
C290 C291 1.369 . S
C291 H271 0.945 . S
C291 C286 1.385 1_655 S
C291 C290 1.369 . S
C292 C284 1.457 . S
C292 C293 1.372 . S
C292 C297 1.364 . S
C293 H272 0.952 . S
C293 C292 1.372 . S
C293 C294 1.389 . S
C294 H273 0.949 . S
C294 C293 1.389 . S
C294 C295 1.387 . S
C295 C294 1.387 . S
C295 C296 1.372 . S
C296 H274 0.950 . S
C296 C295 1.372 . S
C296 C297 1.379 . S
C297 H275 0.948 . S
C297 C292 1.364 . S
C297 C296 1.379 . S
C298 C267 1.383 . S
C298 C285 1.479 . S
C298 C299 1.398 . S
C299 C264 1.382 . S
C299 H276 0.951 . S
C299 C298 1.398 . S
C300 C301 1.384 . S
C300 H313 0.947 . S
C300 C335 1.382 . S
C301 C300 1.384 . S
C301 C302 1.378 . S
C302 C301 1.378 . S
C302 C303 1.378 . S
C302 H314 0.952 . S
C303 C302 1.378 . S
C303 H315 0.950 . S
C303 C334 1.383 . S
H304 C323 0.947 . S
H305 C324 0.946 . S
H306 C326 0.953 . S
H307 C327 0.945 . S
H308 C329 0.952 . S
H309 C330 0.949 . S
H310 C332 0.950 . S
H311 C333 0.948 . S
H312 C335 0.951 . S
H313 C300 0.947 . S
H314 C302 0.952 . S
H315 C303 0.950 . S
N316 C319 1.382 . S
N316 C321 1.363 . S
N317 C319 1.371 . S
N317 C320 1.372 . S
N318 C320 1.361 . S
N318 C321 1.377 . S
C319 N316 1.382 . S
C319 N317 1.371 . S
C319 C322 1.480 . S
C320 N317 1.372 . S
C320 N318 1.361 . S
C320 C328 1.457 . S
C321 N316 1.363 . S
C321 N318 1.377 . S
C321 C334 1.479 . S
C322 C319 1.480 . S
C322 C323 1.383 . S
C322 C327 1.385 . S
C323 H304 0.947 . S
C323 C322 1.383 . S
C323 C324 1.388 . S
C324 H305 0.946 . S
C324 C323 1.388 . S
C324 C325 1.384 . S
C325 C324 1.384 . S
C325 C326 1.377 . S
C326 H306 0.953 . S
C326 C325 1.377 . S
C326 C327 1.369 . S
C327 H307 0.945 . S
C327 C322 1.385 . S
C327 C326 1.369 . S
C328 C320 1.457 . S
C328 C329 1.372 . S
C328 C333 1.364 . S
C329 H308 0.952 . S
C329 C328 1.372 . S
C329 C330 1.389 . S
C330 H309 0.949 . S
C330 C329 1.389 . S
C330 C331 1.387 . S
C331 C330 1.387 . S
C331 C332 1.372 . S
C332 H310 0.950 . S
C332 C331 1.372 . S
C332 C333 1.379 . S
C333 H311 0.948 . S
C333 C328 1.364 . S
C333 C332 1.379 . S
C334 C303 1.383 . S
C334 C321 1.479 . S
C334 C335 1.398 . S
C335 C300 1.382 . S
C335 H312 0.951 . S
C335 C334 1.398 . S
C336 C337 1.384 1_554 S
C336 H349 0.947 . S
C336 C371 1.382 1_554 S
C337 C336 1.384 1_556 S
C337 C338 1.378 . S
C338 C337 1.378 . S
C338 C339 1.378 . S
C338 H350 0.952 . S
C339 C338 1.378 . S
C339 H351 0.950 . S
C339 C370 1.383 . S
H340 C359 0.947 . S
H341 C360 0.946 . S
H342 C362 0.953 . S
H343 C363 0.945 . S
H344 C365 0.952 . S
H345 C366 0.949 . S
H346 C368 0.956 . S
H347 C369 0.948 1_554 S
H348 C371 0.951 . S
H349 C336 0.947 . S
H350 C338 0.952 . S
H351 C339 0.950 . S
N352 C355 1.382 . S
N352 C357 1.363 . S
N353 C355 1.371 . S
N353 C356 1.372 . S
N354 C356 1.361 . S
N354 C357 1.377 . S
C355 N352 1.382 . S
C355 N353 1.371 . S
C355 C358 1.480 . S
C356 N353 1.372 . S
C356 N354 1.361 . S
C356 C364 1.457 . S
C357 N352 1.363 . S
C357 N354 1.377 . S
C357 C370 1.479 . S
C358 C355 1.480 . S
C358 C359 1.383 . S
C358 C363 1.385 . S
C359 H340 0.947 . S
C359 C358 1.383 . S
C359 C360 1.388 . S
C360 H341 0.946 . S
C360 C359 1.388 . S
C360 C361 1.384 . S
C361 C360 1.384 . S
C361 C362 1.377 . S
C362 H342 0.953 . S
C362 C361 1.377 . S
C362 C363 1.369 . S
C363 H343 0.945 . S
C363 C358 1.385 . S
C363 C362 1.369 . S
C364 C356 1.457 . S
C364 C365 1.372 . S
C364 C369 1.364 . S
C365 H344 0.952 . S
C365 C364 1.372 . S
C365 C366 1.389 . S
C366 H345 0.949 . S
C366 C365 1.389 . S
C366 C367 1.387 . S
C367 C366 1.387 . S
C367 C368 1.367 1_556 S
C368 H346 0.956 . S
C368 C367 1.367 1_554 S
C368 C369 1.377 1_554 S
C369 H347 0.948 1_556 S
C369 C364 1.364 . S
C369 C368 1.377 1_556 S
C370 C339 1.383 . S
C370 C357 1.479 . S
C370 C371 1.398 . S
C371 C336 1.382 1_556 S
C371 H348 0.951 . S
C371 C370 1.398 . S
C372 C373 1.387 . S
C372 H376 0.950 1_554 S
C372 C381 1.390 . S
C373 C372 1.387 . S
C373 C375 1.387 . S
H374 C381 0.951 . S
C375 C373 1.387 . S
C375 C377 1.390 . S
C375 H379 0.950 . S
H376 C372 0.950 1_556 S
C377 C375 1.390 . S
C377 C378 1.387 . S
C377 H380 0.950 . S
C378 C377 1.387 . S
C378 C381 1.387 . S
H379 C375 0.950 . S
H380 C377 0.950 . S
C381 C372 1.390 . S
C381 H374 0.951 . S
C381 C378 1.387 . S
C382 C383 1.387 . S
C382 H386 0.950 . S
C382 C391 1.390 . S
C383 C382 1.387 . S
C383 C385 1.387 . S
H384 C391 0.950 . S
C385 C383 1.387 . S
C385 C387 1.390 . S
C385 H389 0.950 . S
H386 C382 0.950 . S
C387 C385 1.390 . S
C387 C388 1.387 . S
C387 H390 0.950 . S
C388 C387 1.387 . S
C388 C391 1.387 . S
H389 C385 0.950 . S
H390 C387 0.950 . S
C391 C382 1.390 . S
C391 H384 0.950 . S
C391 C388 1.387 . S
C392 C393 1.387 . S
C392 H396 0.950 . S
C392 C401 1.390 . S
C393 C392 1.387 . S
C393 C395 1.387 . S
H394 C401 0.950 . S
C395 C393 1.387 . S
C395 C397 1.390 . S
C395 H399 0.950 . S
H396 C392 0.950 . S
C397 C395 1.390 . S
C397 C398 1.387 . S
C397 H400 0.950 . S
C398 C397 1.387 . S
C398 C401 1.387 . S
H399 C395 0.950 . S
H400 C397 0.950 . S
C401 C392 1.390 . S
C401 H394 0.950 . S
C401 C398 1.387 . S
C402 C403 1.387 . S
C402 H406 0.950 . S
C402 C411 1.390 . S
C403 C402 1.387 . S
C403 C405 1.387 . S
H404 C411 0.950 . S
C405 C403 1.387 . S
C405 C407 1.390 . S
C405 H409 0.950 . S
H406 C402 0.950 . S
C407 C405 1.390 . S
C407 C408 1.387 . S
C407 H410 0.950 . S
C408 C407 1.387 . S
C408 C411 1.387 . S
H409 C405 0.950 . S
H410 C407 0.950 . S
C411 C402 1.390 . S
C411 H404 0.950 . S
C411 C408 1.387 . S
C412 C413 1.387 . S
C412 H416 0.950 . S
C412 C421 1.390 . S
C413 C412 1.387 . S
C413 C415 1.387 . S
H414 C421 0.950 . S
C415 C413 1.387 . S
C415 C417 1.390 . S
C415 H419 0.950 . S
H416 C412 0.950 . S
C417 C415 1.390 . S
C417 C418 1.387 . S
C417 H420 0.950 . S
C418 C417 1.387 . S
C418 C421 1.387 . S
H419 C415 0.950 . S
H420 C417 0.950 . S
C421 C412 1.390 . S
C421 H414 0.950 . S
C421 C418 1.387 . S
C422 C423 1.387 . S
C422 H426 0.950 . S
C422 C431 1.390 . S
C423 C422 1.387 . S
C423 C425 1.387 . S
H424 C431 0.950 . S
C425 C423 1.387 . S
C425 C427 1.390 . S
C425 H429 0.950 . S
H426 C422 0.950 . S
C427 C425 1.390 . S
C427 C428 1.387 . S
C427 H430 0.950 . S
C428 C427 1.387 . S
C428 C431 1.387 . S
H429 C425 0.950 . S
H430 C427 0.950 . S
C431 C422 1.390 . S
C431 H424 0.950 . S
C431 C428 1.387 . S
C432 C433 1.387 . S
C432 H436 0.950 . S
C432 C441 1.390 . S
C433 C432 1.387 . S
C433 C435 1.387 . S
H434 C441 0.950 . S
C435 C433 1.387 . S
C435 C437 1.390 . S
C435 H439 0.950 . S
H436 C432 0.950 . S
C437 C435 1.390 . S
C437 C438 1.387 . S
C437 H440 0.950 . S
C438 C437 1.387 . S
C438 C441 1.387 . S
H439 C435 0.950 . S
H440 C437 0.950 . S
C441 C432 1.390 . S
C441 H434 0.950 . S
C441 C438 1.387 . S
C442 C443 1.387 . S
C442 H446 0.950 . S
C442 C451 1.390 . S
C443 C442 1.387 . S
C443 C445 1.387 1_556 S
H444 C451 0.950 1_655 S
C445 C443 1.387 1_554 S
C445 C447 1.390 . S
C445 H449 0.950 . S
H446 C442 0.950 . S
C447 C445 1.390 . S
C447 C448 1.387 1_454 S
C447 H450 0.963 . S
C448 C447 1.387 1_656 S
C448 C451 1.387 1_655 S
H449 C445 0.950 . S
H450 C447 0.963 . S
C451 C442 1.390 . S
C451 H444 0.950 1_455 S
C451 C448 1.387 1_455 S
C452 C453 1.387 1_556 S
C452 H456 0.950 . S
C452 C461 1.390 1_545 S
C453 C452 1.387 1_554 S
C453 C455 1.387 . S
H454 C461 0.950 . S
C455 C453 1.387 . S
C455 C457 1.390 1_545 S
C455 H459 0.950 . S
H456 C452 0.950 . S
C457 C455 1.390 1_565 S
C457 C458 1.387 . S
C457 H460 0.950 . S
C458 C457 1.387 . S
C458 C461 1.387 1_554 S
H459 C455 0.950 . S
H460 C457 0.950 . S
C461 C452 1.390 1_565 S
C461 H454 0.950 . S
C461 C458 1.387 1_556 S
C462 C463 1.387 . S
C462 H466 0.950 . S
C462 C471 1.390 . S
C463 C462 1.387 . S
C463 C465 1.387 . S
H464 C471 0.950 . S
C465 C463 1.387 . S
C465 C467 1.390 . S
C465 H469 0.950 . S
H466 C462 0.950 . S
C467 C465 1.390 . S
C467 C468 1.387 . S
C467 H470 0.950 . S
C468 C467 1.387 . S
C468 C471 1.387 . S
H469 C465 0.950 . S
H470 C467 0.950 . S
C471 C462 1.390 . S
C471 H464 0.950 . S
C471 C468 1.387 . S
C472 C473 1.387 . S
C472 H476 0.950 . S
C472 C481 1.390 . S
C473 C472 1.387 . S
C473 C475 1.387 . S
H474 C481 0.950 . S
C475 C473 1.387 . S
C475 C477 1.390 . S
C475 H479 0.950 . S
H476 C472 0.950 . S
C477 C475 1.390 . S
C477 C478 1.387 . S
C477 H480 0.950 . S
C478 C477 1.387 . S
C478 C481 1.387 . S
H479 C475 0.950 . S
H480 C477 0.950 . S
C481 C472 1.390 . S
C481 H474 0.950 . S
C481 C478 1.387 . S
C482 C483 1.387 . S
C482 H486 0.950 . S
C482 C491 1.390 . S
C483 C482 1.387 . S
C483 C485 1.387 . S
H484 C491 0.950 . S
C485 C483 1.387 . S
C485 C487 1.390 . S
C485 H489 0.950 . S
H486 C482 0.950 . S
C487 C485 1.390 . S
C487 C488 1.387 . S
C487 H490 0.950 . S
C488 C487 1.387 . S
C488 C491 1.387 . S
H489 C485 0.950 . S
H490 C487 0.950 . S
C491 C482 1.390 . S
C491 H484 0.950 . S
C491 C488 1.387 . S
C492 C493 1.387 . S
C492 H496 0.950 . S
C492 C501 1.390 . S
C493 C492 1.387 . S
C493 C495 1.387 . S
H494 C501 0.950 . S
C495 C493 1.387 . S
C495 C497 1.390 . S
C495 H499 0.950 . S
H496 C492 0.950 . S
C497 C495 1.390 . S
C497 C498 1.387 . S
C497 H500 0.950 . S
C498 C497 1.387 . S
C498 C501 1.387 . S
H499 C495 0.950 . S
H500 C497 0.950 . S
C501 C492 1.390 . S
C501 H494 0.950 . S
C501 C498 1.387 . S
C502 C503 1.387 . S
C502 H506 0.950 . S
C502 C511 1.390 . S
C503 C502 1.387 . S
C503 C505 1.387 . S
H504 C511 0.950 . S
C505 C503 1.387 . S
C505 C507 1.390 . S
C505 H509 0.950 . S
H506 C502 0.950 . S
C507 C505 1.390 . S
C507 C508 1.387 . S
C507 H510 0.950 . S
C508 C507 1.387 . S
C508 C511 1.387 . S
H509 C505 0.950 . S
H510 C507 0.950 . S
C511 C502 1.390 . S
C511 H504 0.950 . S
C511 C508 1.387 . S
C512 C513 1.387 . S
C512 H516 0.950 . S
C512 C521 1.390 . S
C513 C512 1.387 . S
C513 C515 1.387 . S
H514 C521 0.950 . S
C515 C513 1.387 . S
C515 C517 1.390 . S
C515 H519 0.950 . S
H516 C512 0.950 . S
C517 C515 1.390 . S
C517 C518 1.387 . S
C517 H520 0.950 . S
C518 C517 1.387 . S
C518 C521 1.387 . S
H519 C515 0.950 . S
H520 C517 0.950 . S
C521 C512 1.390 . S
C521 H514 0.950 . S
C521 C518 1.387 . S
C522 C523 1.387 . S
C522 H526 0.950 . S
C522 C531 1.390 1_655 S
C523 C522 1.387 . S
C523 C525 1.387 . S
H524 C531 0.950 . S
C525 C523 1.387 . S
C525 C527 1.390 1_655 S
C525 H529 0.950 . S
H526 C522 0.950 . S
C527 C525 1.390 1_455 S
C527 C528 1.387 . S
C527 H530 0.950 . S
C528 C527 1.387 . S
C528 C531 1.387 . S
H529 C525 0.950 . S
H530 C527 0.950 . S
C531 C522 1.390 1_455 S
C531 H524 0.950 . S
C531 C528 1.387 . S
C532 C533 1.387 . S
C532 H536 0.950 . S
C532 C541 1.390 . S
C533 C532 1.387 . S
C533 C535 1.387 . S
H534 C541 0.950 . S
C535 C533 1.387 . S
C535 C537 1.390 . S
C535 H539 0.950 . S
H536 C532 0.950 . S
C537 C535 1.390 . S
C537 C538 1.387 . S
C537 H540 0.950 . S
C538 C537 1.387 . S
C538 C541 1.387 . S
H539 C535 0.950 . S
H540 C537 0.950 . S
C541 C532 1.390 . S
C541 H534 0.950 . S
C541 C538 1.387 . S
C542 C543 1.387 . S
C542 H546 0.950 . S
C542 C551 1.390 . S
C543 C542 1.387 . S
C543 C545 1.387 . S
H544 C551 0.950 . S
C545 C543 1.387 . S
C545 C547 1.390 . S
C545 H549 0.950 . S
H546 C542 0.950 . S
C547 C545 1.390 . S
C547 C548 1.387 . S
C547 H550 0.950 . S
C548 C547 1.387 . S
C548 C551 1.387 . S
H549 C545 0.950 . S
H550 C547 0.950 . S
C551 C542 1.390 . S
C551 H544 0.950 . S
C551 C548 1.387 . S
C552 C553 1.387 . S
C552 H556 0.950 . S
C552 C561 1.390 . S
C553 C552 1.387 . S
C553 C555 1.387 . S
H554 C561 0.950 . S
C555 C553 1.387 . S
C555 C557 1.390 . S
C555 H559 0.950 . S
H556 C552 0.950 . S
C557 C555 1.390 . S
C557 C558 1.387 . S
C557 H560 0.950 . S
C558 C557 1.387 . S
C558 C561 1.387 . S
H559 C555 0.950 . S
H560 C557 0.950 . S
C561 C552 1.390 . S
C561 H554 0.950 . S
C561 C558 1.387 . S
C562 C563 1.387 . S
C562 H566 0.950 . S
C562 C571 1.390 . S
C563 C562 1.387 . S
C563 C565 1.387 . S
H564 C571 0.950 . S
C565 C563 1.387 . S
C565 C567 1.390 . S
C565 H569 0.950 . S
H566 C562 0.950 . S
C567 C565 1.390 . S
C567 C568 1.387 . S
C567 H570 0.950 . S
C568 C567 1.387 . S
C568 C571 1.387 . S
H569 C565 0.950 . S
H570 C567 0.950 . S
C571 C562 1.390 . S
C571 H564 0.950 . S
C571 C568 1.387 . S
C572 C573 1.387 . S
C572 H576 0.950 . S
C572 C581 1.390 . S
C573 C572 1.387 . S
C573 C575 1.387 . S
H574 C581 0.950 . S
C575 C573 1.387 . S
C575 C577 1.390 . S
C575 H579 0.950 . S
H576 C572 0.950 . S
C577 C575 1.390 . S
C577 C578 1.387 . S
C577 H580 0.950 . S
C578 C577 1.387 . S
C578 C581 1.387 . S
H579 C575 0.950 . S
H580 C577 0.950 . S
C581 C572 1.390 . S
C581 H574 0.950 . S
C581 C578 1.387 . S
C582 C583 1.387 . S
C582 H586 0.950 . S
C582 C591 1.390 . S
C583 C582 1.387 . S
C583 C585 1.387 1_554 S
H584 C591 0.950 . S
C585 C583 1.387 1_556 S
C585 C587 1.390 . S
C585 H589 0.950 . S
H586 C582 0.950 . S
C587 C585 1.390 . S
C587 C588 1.387 . S
C587 H590 0.950 . S
C588 C587 1.387 . S
C588 C591 1.387 1_556 S
H589 C585 0.950 . S
H590 C587 0.950 . S
C591 C582 1.390 . S
C591 H584 0.950 . S
C591 C588 1.387 1_554 S
C592 C593 1.387 . S
C592 H596 0.950 . S
C592 C601 1.390 . S
C593 C592 1.387 . S
C593 C595 1.387 . S
H594 C601 0.950 . S
C595 C593 1.387 . S
C595 C597 1.390 . S
C595 H599 0.950 . S
H596 C592 0.950 . S
C597 C595 1.390 . S
C597 C598 1.387 . S
C597 H600 0.950 . S
C598 C597 1.387 . S
C598 C601 1.387 . S
H599 C595 0.950 . S
H600 C597 0.950 . S
C601 C592 1.390 . S
C601 H594 0.950 . S
C601 C598 1.387 . S
C602 C603 1.387 . S
C602 H606 0.950 . S
C602 C611 1.390 . S
C603 C602 1.387 . S
C603 C605 1.387 . S
H604 C611 0.950 . S
C605 C603 1.387 . S
C605 C607 1.390 . S
C605 H609 0.950 . S
H606 C602 0.950 . S
C607 C605 1.390 . S
C607 C608 1.387 . S
C607 H610 0.950 . S
C608 C607 1.387 . S
C608 C611 1.387 . S
H609 C605 0.950 . S
H610 C607 0.950 . S
C611 C602 1.390 . S
C611 H604 0.950 . S
C611 C608 1.387 . S
C373 C7 1.445 . S
C378 C115 1.337 1_565 S
C383 C25 1.313 . S
C388 C151 1.238 . S
C393 C46 1.006 . S
C398 C187 1.106 . S
C408 C217 1.206 . S
C403 C70 1.245 . S
C418 C259 1.348 . S
C413 C28 1.459 . S
C423 C49 1.259 . S
C428 C289 1.217 . S
C433 C67 1.004 . S
C438 C325 1.040 . S
C443 C4 1.306 . S
C448 C367 1.234 . S
C453 C58 2.060 . S
C458 C337 2.031 1_554 S
C468 C229 1.880 . S
C463 C66 1.831 . S
C478 C295 1.838 1_565 S
C473 C3 1.711 . S
C483 C37 1.650 . S
C488 C331 1.707 . S
C498 C121 2.042 . S
C493 C79 2.072 . S
C503 C16 1.631 . S
C508 C181 1.697 . S
C518 C223 1.848 . S
C513 C24 1.721 . S
C528 C85 1.872 . S
C523 C45 1.820 . S
C538 C301 1.246 . S
C533 C19 1.244 . S
C548 C361 1.503 . S
C543 C41 1.221 . S
C553 C62 1.334 . S
C558 C253 1.674 . S
C568 C265 1.412 . S
C563 C82 1.375 . S
C578 C157 1.276 . S
C573 C40 1.235 . S
C583 C61 1.380 . S
C588 C193 1.413 . S
C598 C109 1.663 . S
C593 C83 1.321 . S
C608 C145 1.514 . S
C603 C20 1.224 . S
