# Generated by pormake.
# Topology nom, (4,4)-cn, num edge types: 1
# Building blocks:
#     Node 0, Type 0, BuildingBlock: NAWXER_clean_linker_0, # of connection points: 4
#     Node 1, Type 0, BuildingBlock: NAWXER_clean_linker_0, # of connection points: 4
#     Node 2, Type 0, BuildingBlock: NAWXER_clean_linker_0, # of connection points: 4
#     Node 3, Type 0, BuildingBlock: NAWXER_clean_linker_0, # of connection points: 4
#     Node 4, Type 0, BuildingBlock: NAWXER_clean_linker_0, # of connection points: 4
#     Node 5, Type 0, BuildingBlock: NAWXER_clean_linker_0, # of connection points: 4
#     Node 6, Type 1, BuildingBlock: GALJAG_clean_sbu_0, # of connection points: 4
#     Node 7, Type 1, BuildingBlock: GALJAG_clean_sbu_0, # of connection points: 4
#     Node 8, Type 1, BuildingBlock: GALJAG_clean_sbu_0, # of connection points: 4
#     Node 9, Type 1, BuildingBlock: GALJAG_clean_sbu_0, # of connection points: 4
#     Node 10, Type 1, BuildingBlock: GALJAG_clean_sbu_0, # of connection points: 4
#     Node 11, Type 1, BuildingBlock: GALJAG_clean_sbu_0, # of connection points: 4
#     Edge 12, Type (0, 1), BuildingBlock: KIFKEQ_clean_linker_1, # of connection points: 2
#     Edge 13, Type (0, 1), BuildingBlock: KIFKEQ_clean_linker_1, # of connection points: 2
#     Edge 14, Type (0, 1), BuildingBlock: KIFKEQ_clean_linker_1, # of connection points: 2
#     Edge 15, Type (0, 1), BuildingBlock: KIFKEQ_clean_linker_1, # of connection points: 2
#     Edge 16, Type (0, 1), BuildingBlock: KIFKEQ_clean_linker_1, # of connection points: 2
#     Edge 17, Type (0, 1), BuildingBlock: KIFKEQ_clean_linker_1, # of connection points: 2
#     Edge 18, Type (0, 1), BuildingBlock: KIFKEQ_clean_linker_1, # of connection points: 2
#     Edge 19, Type (0, 1), BuildingBlock: KIFKEQ_clean_linker_1, # of connection points: 2
#     Edge 20, Type (0, 1), BuildingBlock: KIFKEQ_clean_linker_1, # of connection points: 2
#     Edge 21, Type (0, 1), BuildingBlock: KIFKEQ_clean_linker_1, # of connection points: 2
#     Edge 22, Type (0, 1), BuildingBlock: KIFKEQ_clean_linker_1, # of connection points: 2
#     Edge 23, Type (0, 1), BuildingBlock: KIFKEQ_clean_linker_1, # of connection points: 2
#     Edge 24, Type (0, 1), BuildingBlock: KIFKEQ_clean_linker_1, # of connection points: 2
#     Edge 25, Type (0, 1), BuildingBlock: KIFKEQ_clean_linker_1, # of connection points: 2
#     Edge 26, Type (0, 1), BuildingBlock: KIFKEQ_clean_linker_1, # of connection points: 2
#     Edge 27, Type (0, 1), BuildingBlock: KIFKEQ_clean_linker_1, # of connection points: 2
#     Edge 28, Type (0, 1), BuildingBlock: KIFKEQ_clean_linker_1, # of connection points: 2
#     Edge 29, Type (0, 1), BuildingBlock: KIFKEQ_clean_linker_1, # of connection points: 2
#     Edge 30, Type (0, 1), BuildingBlock: KIFKEQ_clean_linker_1, # of connection points: 2
#     Edge 31, Type (0, 1), BuildingBlock: KIFKEQ_clean_linker_1, # of connection points: 2
#     Edge 32, Type (0, 1), BuildingBlock: KIFKEQ_clean_linker_1, # of connection points: 2
#     Edge 33, Type (0, 1), BuildingBlock: KIFKEQ_clean_linker_1, # of connection points: 2
#     Edge 34, Type (0, 1), BuildingBlock: KIFKEQ_clean_linker_1, # of connection points: 2
#     Edge 35, Type (0, 1), BuildingBlock: KIFKEQ_clean_linker_1, # of connection points: 2
# Relax obj value: 0.004
# Max RMSD: 0.115
# Mean RMSD: 0.086
data_MOF--net-nom--node1-GALJAG_clean_sbu_0--node2-NAWXER_clean_linker_0--edge1-KIFKEQ_clean_linker_1
_symmetry_space_group_name_H-M    P1
_symmetry_Int_Tables_number       1
_symmetry_cell_setting            triclinic
loop_
_symmetry_equiv_pos_as_xyz
'x, y, z'
_cell_length_a     52.880669
_cell_length_b     52.752931
_cell_length_c     60.205074
_cell_angle_alpha  90.019249
_cell_angle_beta   90.006607
_cell_angle_gamma 120.037
loop_
_atom_site_label
_atom_site_type_symbol
_atom_site_fract_x
_atom_site_fract_y
_atom_site_fract_z
_atom_type_partial_charge
C0 C 0.91059 0.521 0.34101 0.0
C1 C 0.89842 0.49875 0.3571 0.0
C2 C 0.93936 0.5321 0.33394 0.0
C3 C 0.9565 0.52095 0.34262 0.0
C4 C 0.91562 0.48764 0.36581 0.0
C5 C 0.94445 0.49879 0.35874 0.0
C6 C 0.98758 0.53398 0.33622 0.0
C7 C 0.93846 0.4897 0.27426 0.0
C8 C 0.94284 0.50816 0.25606 0.0
C9 C 0.95578 0.50051 0.29327 0.0
C10 C 0.97766 0.5301 0.29462 0.0
C11 C 0.96475 0.5378 0.25746 0.0
C12 C 0.98208 0.5486 0.2765 0.0
C13 C 0.99744 0.54118 0.31409 0.0
C14 C 0.12809 0.59444 0.32005 0.0
C15 C 0.13642 0.61936 0.30676 0.0
C16 C 0.09903 0.57696 0.32682 0.0
C17 C 0.07789 0.58431 0.32064 0.0
C18 C 0.11504 0.62632 0.3004 0.0
C19 C 0.08612 0.60894 0.30721 0.0
C20 C 0.04682 0.56589 0.32685 0.0
C21 C 0.09616 0.59683 0.39208 0.0
C22 C 0.0917 0.57365 0.40617 0.0
C23 C 0.07868 0.59154 0.37324 0.0
C24 C 0.05663 0.56294 0.36805 0.0
C25 C 0.06942 0.54512 0.40096 0.0
C26 C 0.05203 0.53987 0.38218 0.0
C27 C 0.03698 0.55668 0.3488 0.0
H28 H 0.89786 0.52988 0.33386 0.0
H29 H 0.94835 0.54981 0.32199 0.0
H30 H 0.90699 0.47076 0.37845 0.0
H31 H 0.9574 0.49017 0.36591 0.0
H32 H 0.92222 0.46664 0.27357 0.0
H33 H 0.95255 0.48549 0.30667 0.0
H34 H 0.96851 0.55267 0.24383 0.0
H35 H 0.99898 0.57144 0.27707 0.0
H36 H 0.14404 0.58851 0.3253 0.0
H37 H 0.09308 0.55759 0.33666 0.0
H38 H 0.12054 0.64498 0.28981 0.0
H39 H 0.0701 0.6148 0.30197 0.0
H40 H 0.11319 0.61905 0.39558 0.0
H41 H 0.08217 0.60982 0.36291 0.0
H42 H 0.06501 0.52686 0.41166 0.0
H43 H 0.03488 0.51769 0.37867 0.0
N44 N 0.00772 0.54138 0.35262 0.0
N45 N 0.02663 0.55745 0.31035 0.0
C46 C 0.40688 0.90818 0.50413 0.0
C47 C 0.41557 0.89798 0.52247 0.0
C48 C 0.42371 0.93721 0.49718 0.0
C49 C 0.45014 0.95637 0.50795 0.0
C50 C 0.44159 0.91715 0.53357 0.0
C51 C 0.45878 0.94605 0.52632 0.0
C52 C 0.46739 0.98772 0.50155 0.0
C53 C 0.46838 0.94083 0.43949 0.0
C54 C 0.4537 0.94406 0.42117 0.0
C55 C 0.47349 0.95779 0.45859 0.0
C56 C 0.46391 0.97823 0.45983 0.0
C57 C 0.44401 0.96447 0.42255 0.0
C58 C 0.44928 0.98154 0.44161 0.0
C59 C 0.471 0.9977 0.47936 0.0
C60 C 0.54658 0.12871 0.48595 0.0
C61 C 0.53039 0.13697 0.47219 0.0
C62 C 0.53494 0.09956 0.49263 0.0
C63 C 0.50673 0.07824 0.48593 0.0
C64 C 0.50237 0.1154 0.46525 0.0
C65 C 0.49074 0.08638 0.47199 0.0
C66 C 0.49401 0.04713 0.49221 0.0
C67 C 0.51079 0.09769 0.5565 0.0
C68 C 0.5291 0.09351 0.5712 0.0
C69 C 0.49865 0.0795 0.53797 0.0
C70 C 0.50494 0.05707 0.53364 0.0
C71 C 0.53476 0.07059 0.56701 0.0
C72 C 0.52275 0.05256 0.54848 0.0
C73 C 0.49243 0.0373 0.51428 0.0
H74 H 0.38657 0.89392 0.49559 0.0
H75 H 0.41556 0.94475 0.48373 0.0
H76 H 0.44866 0.90972 0.5478 0.0
H77 H 0.47878 0.96042 0.53517 0.0
H78 H 0.47664 0.92575 0.43887 0.0
H79 H 0.48556 0.95541 0.47218 0.0
H80 H 0.43227 0.96726 0.40891 0.0
H81 H 0.44186 0.9973 0.44214 0.0
H82 H 0.56818 0.14478 0.49168 0.0
H83 H 0.54803 0.09367 0.50289 0.0
H84 H 0.48955 0.12085 0.45428 0.0
H85 H 0.46911 0.0702 0.46633 0.0
H86 H 0.50602 0.11517 0.55921 0.0
H87 H 0.48431 0.08293 0.5271 0.0
H88 H 0.5482 0.0663 0.57821 0.0
H89 H 0.52756 0.03512 0.54567 0.0
N90 N 0.47888 0.00798 0.51806 0.0
N91 N 0.4835 0.02693 0.47564 0.0
C92 C 0.54544 0.46564 0.6053 0.0
C93 C 0.52707 0.45154 0.58706 0.0
C94 C 0.53457 0.47213 0.62429 0.0
C95 C 0.50504 0.46441 0.62555 0.0
C96 C 0.49745 0.44361 0.58845 0.0
C97 C 0.48661 0.45014 0.60745 0.0
C98 C 0.49398 0.47355 0.64477 0.0
C99 C 0.51379 0.40707 0.67311 0.0
C100 C 0.53588 0.41744 0.68931 0.0
C101 C 0.50283 0.42471 0.66556 0.0
C102 C 0.51394 0.45323 0.67389 0.0
C103 C 0.54695 0.44597 0.69766 0.0
C104 C 0.53592 0.46361 0.69013 0.0
C105 C 0.501 0.47124 0.66705 0.0
C106 C 0.43515 0.51357 0.72174 0.0
C107 C 0.45771 0.5347 0.73508 0.0
C108 C 0.44165 0.50192 0.70317 0.0
C109 C 0.47081 0.5111 0.69776 0.0
C110 C 0.48685 0.54396 0.72949 0.0
C111 C 0.49331 0.53203 0.71113 0.0
C112 C 0.47813 0.4981 0.67888 0.0
C113 C 0.44234 0.55255 0.6493 0.0
C114 C 0.41784 0.53647 0.63557 0.0
C115 C 0.4591 0.54035 0.65646 0.0
C116 C 0.45143 0.51172 0.65025 0.0
C117 C 0.41038 0.50788 0.62931 0.0
C118 C 0.42709 0.49572 0.63649 0.0
C119 C 0.46933 0.49859 0.65682 0.0
H120 H 0.56847 0.47257 0.60463 0.0
H121 H 0.54952 0.48402 0.6377 0.0
H122 H 0.48263 0.43242 0.57482 0.0
H123 H 0.46381 0.44417 0.60796 0.0
H124 H 0.50494 0.38528 0.66623 0.0
H125 H 0.48524 0.4158 0.65353 0.0
H126 H 0.56371 0.45445 0.71036 0.0
H127 H 0.54451 0.48536 0.69704 0.0
H128 H 0.4125 0.50611 0.72567 0.0
H129 H 0.42395 0.48546 0.69324 0.0
H130 H 0.50462 0.55996 0.73963 0.0
H131 H 0.51593 0.53918 0.70732 0.0
H132 H 0.44893 0.5748 0.65411 0.0
H133 H 0.47833 0.5535 0.66649 0.0
H134 H 0.39145 0.49477 0.61899 0.0
H135 H 0.42087 0.47365 0.63138 0.0
N136 N 0.47789 0.48659 0.6406 0.0
N137 N 0.49336 0.48417 0.68318 0.0
C138 C 0.91284 0.40803 0.81729 0.0
C139 C 0.89921 0.41987 0.80435 0.0
C140 C 0.94132 0.4259 0.82495 0.0
C141 C 0.95674 0.45579 0.81951 0.0
C142 C 0.91445 0.44985 0.79916 0.0
C143 C 0.94323 0.46761 0.80641 0.0
C144 C 0.98754 0.47406 0.82632 0.0
C145 C 0.93663 0.46565 0.88794 0.0
C146 C 0.94103 0.45136 0.90597 0.0
C147 C 0.95418 0.47279 0.86903 0.0
C148 C 0.97634 0.46555 0.8676 0.0
C149 C 0.96306 0.44389 0.90444 0.0
C150 C 0.98062 0.45105 0.88549 0.0
C151 C 0.99677 0.47559 0.84851 0.0
C152 C 0.12736 0.55519 0.84422 0.0
C153 C 0.13578 0.53896 0.85778 0.0
C154 C 0.09841 0.54308 0.83708 0.0
C155 C 0.07747 0.51437 0.84312 0.0
C156 C 0.1147 0.51033 0.86389 0.0
C157 C 0.08585 0.49824 0.85671 0.0
C158 C 0.04646 0.50131 0.83656 0.0
C159 C 0.09517 0.51758 0.77119 0.0
C160 C 0.09345 0.53873 0.75799 0.0
C161 C 0.07735 0.5058 0.7899 0.0
C162 C 0.05742 0.51486 0.79572 0.0
C163 C 0.07363 0.54794 0.76416 0.0
C164 C 0.05561 0.53588 0.78268 0.0
C165 C 0.03716 0.50142 0.81457 0.0
H166 H 0.90141 0.38496 0.82149 0.0
H167 H 0.95155 0.41625 0.83472 0.0
H168 H 0.90431 0.45933 0.78909 0.0
H169 H 0.9549 0.49057 0.80189 0.0
H170 H 0.92031 0.47229 0.88874 0.0
H171 H 0.95106 0.48497 0.85588 0.0
H172 H 0.96684 0.43262 0.91794 0.0
H173 H 0.99774 0.44547 0.88487 0.0
H174 H 0.14301 0.57748 0.83953 0.0
H175 H 0.09233 0.55636 0.82722 0.0
H176 H 0.12054 0.49713 0.8741 0.0
H177 H 0.07003 0.47612 0.8617 0.0
H178 H 0.10974 0.50953 0.76678 0.0
H179 H 0.07868 0.48915 0.79952 0.0
H180 H 0.07201 0.56453 0.75472 0.0
H181 H 0.04029 0.54309 0.7869 0.0
N182 N 0.00803 0.48751 0.81025 0.0
N183 N 0.02588 0.48867 0.85271 0.0
C184 C 0.51709 0.90903 0.98903 0.0
C185 C 0.49837 0.89866 0.9706 0.0
C186 C 0.52894 0.93804 0.99598 0.0
C187 C 0.52144 0.95699 0.98513 0.0
C188 C 0.49136 0.91765 0.95939 0.0
C189 C 0.5027 0.94652 0.96665 0.0
C190 C 0.53504 0.9883 0.99161 0.0
C191 C 0.48736 0.94038 0.05343 0.0
C192 C 0.5051 0.94457 0.07205 0.0
C193 C 0.49907 0.95738 0.03434 0.0
C194 C 0.52883 0.97872 0.03339 0.0
C195 C 0.53489 0.96594 0.07104 0.0
C196 C 0.54657 0.98295 0.05196 0.0
C197 C 0.54106 0.99823 0.01385 0.0
C198 C 0.59639 0.1294 0.00706 0.0
C199 C 0.62064 0.13761 0.02103 0.0
C200 C 0.57883 0.10022 1.00048 0.0
C201 C 0.58549 0.07882 0.00747 0.0
C202 C 0.62679 0.11596 0.02833 0.0
C203 C 0.60936 0.08691 0.02166 0.0
C204 C 0.56721 0.04771 1.00112 0.0
C205 C 0.60221 0.09837 0.93713 0.0
C206 C 0.57993 0.09486 0.92247 0.0
C207 C 0.59577 0.07991 0.95552 0.0
C208 C 0.56689 0.05781 0.95972 0.0
C209 C 0.55117 0.07232 0.92654 0.0
C210 C 0.54477 0.05395 0.9449 0.0
C211 C 0.5593 0.03792 0.97901 0.0
H212 H 0.52324 0.8949 0.99766 0.0
H213 H 0.54449 0.94571 0.00952 0.0
H214 H 0.47699 0.91009 0.94509 0.0
H215 H 0.49691 0.96074 0.95773 0.0
H216 H 0.46438 0.92399 0.05362 0.0
H217 H 0.48471 0.95418 0.02047 0.0
H218 H 0.54906 0.97002 0.08521 0.0
H219 H 0.5695 0.99954 0.05174 0.0
H220 H 0.59108 0.14554 1.00108 0.0
H221 H 0.56002 0.09438 0.99003 0.0
H222 H 0.64488 0.12136 0.03947 0.0
H223 H 0.61464 0.07068 0.02754 0.0
H224 H 0.62458 0.11555 0.93451 0.0
H225 H 0.61335 0.08286 0.96642 0.0
H226 H 0.53359 0.06858 0.91535 0.0
H227 H 0.5224 0.0368 0.94764 0.0
N228 N 0.54382 0.00861 0.97514 0.0
N229 N 0.55749 0.02747 0.01764 0.0
C230 C 0.51399 0.62609 0.167 0.0
C231 C 0.49614 0.61837 0.18589 0.0
C232 C 0.52609 0.60907 0.16034 0.0
C233 C 0.51962 0.58335 0.17196 0.0
C234 C 0.49007 0.59311 0.1978 0.0
C235 C 0.50157 0.57566 0.19082 0.0
C236 C 0.5337 0.56597 0.166 0.0
C237 C 0.48479 0.56275 0.10398 0.0
C238 C 0.50212 0.57532 0.08499 0.0
C239 C 0.49691 0.55848 0.12327 0.0
C240 C 0.52671 0.56711 0.12408 0.0
C241 C 0.5319 0.58381 0.08583 0.0
C242 C 0.54402 0.57962 0.10514 0.0
C243 C 0.53945 0.56109 0.14394 0.0
C244 C 0.5961 0.48696 0.15324 0.0
C245 C 0.62029 0.50277 0.13917 0.0
C246 C 0.57837 0.49852 0.15934 0.0
C247 C 0.58479 0.52628 0.15173 0.0
C248 C 0.62619 0.53027 0.13124 0.0
C249 C 0.60858 0.54182 0.13742 0.0
C250 C 0.56637 0.53905 0.15759 0.0
C251 C 0.60199 0.52591 0.22231 0.0
C252 C 0.58013 0.50937 0.23798 0.0
C253 C 0.5954 0.53682 0.20332 0.0
C254 C 0.56668 0.53073 0.19942 0.0
C255 C 0.55161 0.50389 0.23425 0.0
C256 C 0.54499 0.51448 0.2152 0.0
C257 C 0.55879 0.54193 0.17959 0.0
H258 H 0.51933 0.64582 0.15783 0.0
H259 H 0.54108 0.61654 0.14645 0.0
H260 H 0.47639 0.58686 0.21247 0.0
H261 H 0.49655 0.55626 0.20032 0.0
H262 H 0.46167 0.5555 0.10375 0.0
H263 H 0.48282 0.54788 0.13738 0.0
H264 H 0.54591 0.59382 0.07158 0.0
H265 H 0.56699 0.5862 0.10529 0.0
H266 H 0.59099 0.46576 0.1597 0.0
H267 H 0.55965 0.48576 0.16993 0.0
H268 H 0.64422 0.54275 0.12 0.0
H269 H 0.61366 0.56308 0.13106 0.0
H270 H 0.62426 0.53084 0.22495 0.0
H271 H 0.61278 0.55015 0.19181 0.0
H272 H 0.53427 0.49104 0.24594 0.0
H273 H 0.52274 0.5097 0.21268 0.0
N274 N 0.54306 0.55556 0.18286 0.0
N275 N 0.55614 0.54849 0.14068 0.0
In276 In 0.6321 0.4028 0.41139 0.0
O277 O 0.68085 0.43471 0.41662 0.0
O278 O 0.66832 0.40133 0.39225 0.0
C279 C 0.61105 0.41705 0.44717 0.0
C280 C 0.61845 0.42422 0.37543 0.0
C281 C 0.61134 0.34603 0.42184 0.0
O282 O 0.63782 0.42531 0.44495 0.0
O283 O 0.5951 0.40215 0.43118 0.0
O284 O 0.59876 0.35395 0.40793 0.0
O285 O 0.63431 0.36665 0.4302 0.0
C286 C 0.68887 0.42304 0.40199 0.0
O287 O 0.61274 0.39798 0.37661 0.0
O288 O 0.63051 0.43939 0.39248 0.0
In289 In 0.2476 0.63213 0.58116 0.0
O290 O 0.26389 0.59959 0.57694 0.0
O291 O 0.29068 0.63888 0.59477 0.0
C292 C 0.21015 0.61172 0.54653 0.0
C293 C 0.21391 0.6133 0.61804 0.0
C294 C 0.28119 0.68941 0.57085 0.0
O295 O 0.23284 0.60953 0.54747 0.0
O296 O 0.20592 0.62342 0.56335 0.0
O297 O 0.27573 0.68058 0.5907 0.0
O298 O 0.26969 0.6695 0.55644 0.0
C299 C 0.2872 0.61483 0.58772 0.0
O300 O 0.22144 0.63777 0.60921 0.0
O301 O 0.22299 0.59837 0.60812 0.0
In302 In 0.63423 0.24968 0.74631 0.0
O303 O 0.68208 0.2608 0.74658 0.0
O304 O 0.67221 0.29265 0.75873 0.0
C305 C 0.61366 0.21501 0.71004 0.0
C306 C 0.61963 0.21634 0.78338 0.0
C307 C 0.61255 0.28481 0.73624 0.0
O308 O 0.64004 0.23487 0.71193 0.0
O309 O 0.59789 0.21229 0.7266 0.0
O310 O 0.60176 0.26585 0.75151 0.0
O311 O 0.63403 0.28585 0.72625 0.0
C312 C 0.69151 0.2859 0.75491 0.0
O313 O 0.61531 0.23772 0.78151 0.0
O314 O 0.63075 0.2116 0.76649 0.0
In315 In 0.40136 0.63282 0.91167 0.0
O316 O 0.35251 0.60125 0.91669 0.0
O317 O 0.36531 0.63973 0.89768 0.0
C318 C 0.41932 0.61231 0.94565 0.0
C319 C 0.41489 0.61298 0.87466 0.0
C320 C 0.42488 0.69001 0.92227 0.0
O321 O 0.39392 0.60885 0.94471 0.0
O322 O 0.43536 0.62545 0.92919 0.0
O323 O 0.42244 0.68141 0.9024 0.0
O324 O 0.41564 0.66991 0.93658 0.0
C325 C 0.34462 0.61626 0.90538 0.0
O326 O 0.4322 0.63765 0.88306 0.0
O327 O 0.39121 0.59843 0.88504 0.0
In328 In 0.78681 0.40323 0.08128 0.0
O329 O 0.80315 0.39747 0.11501 0.0
O330 O 0.8238 0.44007 0.10083 0.0
C331 C 0.75018 0.34669 0.07073 0.0
C332 C 0.75062 0.42355 0.09181 0.0
C333 C 0.82213 0.41729 0.04551 0.0
O334 O 0.77007 0.35423 0.08512 0.0
O335 O 0.74872 0.36759 0.0619 0.0
O336 O 0.80328 0.42518 0.04747 0.0
O337 O 0.82346 0.40288 0.06172 0.0
C338 C 0.8223 0.42417 0.117 0.0
O339 O 0.77052 0.4358 0.07741 0.0
O340 O 0.74898 0.40112 0.10068 0.0
In341 In 0.40078 0.78771 0.24625 0.0
O342 O 0.42458 0.76257 0.25424 0.0
O343 O 0.40892 0.76025 0.22133 0.0
C344 C 0.41641 0.82369 0.28185 0.0
C345 C 0.42132 0.82494 0.21157 0.0
C346 C 0.34407 0.74917 0.25525 0.0
O347 O 0.42791 0.80823 0.27768 0.0
O348 O 0.39751 0.82128 0.26795 0.0
O349 O 0.35174 0.77072 0.24243 0.0
O350 O 0.36489 0.74691 0.26317 0.0
C351 C 0.4221 0.75258 0.23479 0.0
O352 O 0.39488 0.80502 0.21312 0.0
O353 O 0.43725 0.8264 0.22772 0.0
H354 H 0.1681 0.67912 0.30424 0.0
H355 H 0.17422 0.60161 0.29217 0.0
H356 H 0.21782 0.70958 0.29067 0.0
H357 H 0.22416 0.6322 0.2788 0.0
H358 H 0.32301 0.70036 0.28107 0.0
H359 H 0.27277 0.66851 0.29323 0.0
H360 H 0.24547 0.72034 0.25553 0.0
H361 H 0.29586 0.75244 0.24355 0.0
C362 C 0.17998 0.66856 0.29855 0.0
C363 C 0.16713 0.6379 0.29923 0.0
C364 C 0.20847 0.68602 0.29076 0.0
C365 C 0.22485 0.67328 0.28355 0.0
C366 C 0.21217 0.64267 0.28445 0.0
C367 C 0.1836 0.62516 0.29217 0.0
C368 C 0.30625 0.70485 0.27527 0.0
C369 C 0.31335 0.72893 0.26141 0.0
C370 C 0.27746 0.68652 0.28215 0.0
C371 C 0.25519 0.69198 0.27541 0.0
C372 C 0.26224 0.7158 0.26124 0.0
C373 C 0.29103 0.73406 0.25426 0.0
H374 H 0.58644 0.17547 0.45904 0.0
H375 H 0.50209 0.16829 0.46856 0.0
H376 H 0.60621 0.22578 0.44627 0.0
H377 H 0.5218 0.21843 0.45554 0.0
H378 H 0.56001 0.2981 0.4091 0.0
H379 H 0.54069 0.24736 0.42093 0.0
H380 H 0.61744 0.27387 0.46135 0.0
H381 H 0.63683 0.32441 0.44939 0.0
C382 C 0.57218 0.18468 0.4586 0.0
C383 C 0.54267 0.16782 0.46482 0.0
C384 C 0.58349 0.21348 0.45122 0.0
C385 C 0.56552 0.22602 0.44981 0.0
C386 C 0.53606 0.20921 0.45608 0.0
C387 C 0.52479 0.18048 0.46355 0.0
C388 C 0.57278 0.29303 0.42043 0.0
C389 C 0.5999 0.31519 0.42834 0.0
C390 C 0.56166 0.26403 0.4273 0.0
C391 C 0.57754 0.25665 0.4421 0.0
C392 C 0.60484 0.27881 0.44976 0.0
C393 C 0.61586 0.30778 0.44299 0.0
H394 H 0.40041 0.56935 0.65924 0.0
H395 H 0.39518 0.53274 0.59406 0.0
H396 H 0.3701 0.58928 0.64655 0.0
H397 H 0.36486 0.55267 0.58137 0.0
H398 H 0.2831 0.56276 0.57636 0.0
H399 H 0.31573 0.54473 0.58732 0.0
H400 H 0.37096 0.62613 0.62163 0.0
H401 H 0.33807 0.64391 0.61101 0.0
C402 C 0.39307 0.56584 0.64214 0.0
C403 C 0.40012 0.54937 0.62769 0.0
C404 C 0.37571 0.57727 0.63485 0.0
C405 C 0.36503 0.57252 0.61295 0.0
C406 C 0.37236 0.55633 0.59844 0.0
C407 C 0.38972 0.54491 0.60572 0.0
C408 C 0.30233 0.57686 0.5861 0.0
C409 C 0.30799 0.60469 0.59289 0.0
C410 C 0.32109 0.56659 0.59231 0.0
C411 C 0.34587 0.58396 0.60544 0.0
C412 C 0.35182 0.61205 0.6118 0.0
C413 C 0.33308 0.6223 0.60559 0.0
H414 H 0.87969 0.37149 0.77843 0.0
H415 H 0.85155 0.42543 0.81178 0.0
H416 H 0.8302 0.33978 0.76467 0.0
H417 H 0.80159 0.39288 0.7994 0.0
H418 H 0.71922 0.34499 0.75945 0.0
H419 H 0.76988 0.37787 0.7697 0.0
H420 H 0.78369 0.30381 0.77459 0.0
H421 H 0.73344 0.27137 0.76283 0.0
C422 C 0.86269 0.3763 0.78294 0.0
C423 C 0.86923 0.4008 0.79606 0.0
C424 C 0.83427 0.35805 0.77523 0.0
C425 C 0.81162 0.36356 0.7809 0.0
C426 C 0.8184 0.38817 0.79421 0.0
C427 C 0.84696 0.40676 0.80148 0.0
C428 C 0.73325 0.33586 0.76256 0.0
C429 C 0.7225 0.3057 0.76037 0.0
C430 C 0.76226 0.35466 0.76865 0.0
C431 C 0.78106 0.34363 0.77325 0.0
C432 C 0.77019 0.31332 0.77085 0.0
C433 C 0.7413 0.29462 0.76424 0.0
H434 H 0.50266 0.88032 0.92922 0.0
H435 H 0.46829 0.84875 0.99469 0.0
H436 H 0.48608 0.83028 0.91702 0.0
H437 H 0.4501 0.79854 0.98241 0.0
H438 H 0.44679 0.71499 0.96231 0.0
H439 H 0.46511 0.76554 0.97335 0.0
H440 H 0.44623 0.78502 0.90765 0.0
H441 H 0.42958 0.73465 0.89635 0.0
C442 C 0.49111 0.8625 0.94086 0.0
C443 C 0.48679 0.86823 0.96287 0.0
C444 C 0.48146 0.83379 0.93389 0.0
C445 C 0.46681 0.81016 0.94871 0.0
C446 C 0.46193 0.81609 0.97063 0.0
C447 C 0.4721 0.84481 0.97768 0.0
C448 C 0.44676 0.73018 0.95021 0.0
C449 C 0.43677 0.72096 0.9285 0.0
C450 C 0.457 0.75915 0.95658 0.0
C451 C 0.4569 0.77951 0.94152 0.0
C452 C 0.44707 0.7702 0.91967 0.0
C453 C 0.43737 0.74129 0.91317 0.0
H454 H 0.67984 0.53206 0.13522 0.0
H455 H 0.60366 0.44614 0.128 0.0
H456 H 0.71086 0.5127 0.12317 0.0
H457 H 0.63483 0.42673 0.11621 0.0
H458 H 0.70448 0.39857 0.12031 0.0
H459 H 0.67281 0.41748 0.13177 0.0
H460 H 0.72063 0.49256 0.08911 0.0
H461 H 0.75255 0.47375 0.07778 0.0
C462 C 0.66967 0.50908 0.13092 0.0
C463 C 0.63923 0.49068 0.13251 0.0
C464 C 0.68747 0.498 0.12402 0.0
C465 C 0.67527 0.46823 0.11866 0.0
C466 C 0.64489 0.44972 0.12046 0.0
C467 C 0.62705 0.46083 0.12727 0.0
C468 C 0.70819 0.41908 0.11334 0.0
C469 C 0.73101 0.43472 0.09817 0.0
C470 C 0.68995 0.42982 0.11981 0.0
C471 C 0.69425 0.45652 0.11136 0.0
C472 C 0.717 0.47208 0.09609 0.0
C473 C 0.73515 0.46125 0.08951 0.0
H474 H 0.394 0.87964 0.56411 0.0
H475 H 0.39525 0.84805 0.49828 0.0
H476 H 0.36081 0.8296 0.5764 0.0
H477 H 0.36345 0.79787 0.51062 0.0
H478 H 0.28324 0.71476 0.53121 0.0
H479 H 0.31542 0.7653 0.52022 0.0
H480 H 0.3556 0.78412 0.58528 0.0
H481 H 0.32198 0.73372 0.59657 0.0
C482 C 0.38747 0.86182 0.5524 0.0
C483 C 0.39699 0.86755 0.53026 0.0
C484 C 0.36856 0.83312 0.55942 0.0
C485 C 0.35918 0.80951 0.54451 0.0
C486 C 0.36949 0.81542 0.52247 0.0
C487 C 0.38792 0.84413 0.51538 0.0
C488 C 0.29885 0.72979 0.54318 0.0
C489 C 0.30018 0.72039 0.56472 0.0
C490 C 0.31755 0.75876 0.53683 0.0
C491 C 0.3385 0.77891 0.55173 0.0
C492 C 0.33956 0.76943 0.57341 0.0
C493 C 0.32041 0.74052 0.57989 0.0
H494 H 0.50445 0.35931 0.70003 0.0
H495 H 0.59264 0.43254 0.6973 0.0
H496 H 0.523 0.32754 0.71218 0.0
H497 H 0.61111 0.40097 0.71012 0.0
H498 H 0.63412 0.32803 0.70521 0.0
H499 H 0.61555 0.36033 0.69495 0.0
H500 H 0.54707 0.31877 0.74391 0.0
H501 H 0.56551 0.28603 0.75401 0.0
C502 C 0.52779 0.36862 0.70205 0.0
C503 C 0.5471 0.3984 0.69756 0.0
C504 C 0.53838 0.3505 0.70926 0.0
C505 C 0.56852 0.36173 0.71207 0.0
C506 C 0.58779 0.3916 0.70788 0.0
C507 C 0.5772 0.40974 0.70075 0.0
C508 C 0.61512 0.32579 0.71382 0.0
C509 C 0.60123 0.30448 0.7304 0.0
C510 C 0.6046 0.34444 0.70804 0.0
C511 C 0.5799 0.34218 0.71866 0.0
C512 C 0.566 0.32086 0.73528 0.0
C513 C 0.57661 0.30222 0.74113 0.0
H514 H 0.18602 0.57159 0.83408 0.0
H515 H 0.15469 0.53526 0.89929 0.0
H516 H 0.23624 0.59129 0.84672 0.0
H517 H 0.20489 0.55505 0.91198 0.0
H518 H 0.29644 0.56473 0.91728 0.0
H519 H 0.24585 0.54699 0.90639 0.0
H520 H 0.27252 0.62796 0.87128 0.0
H521 H 0.32313 0.64538 0.88178 0.0
C522 C 0.18988 0.56811 0.85118 0.0
C523 C 0.16639 0.55178 0.86565 0.0
C524 C 0.21865 0.57942 0.85845 0.0
C525 C 0.22458 0.57471 0.88037 0.0
C526 C 0.20107 0.55867 0.8949 0.0
C527 C 0.17231 0.54734 0.88763 0.0
C528 C 0.29143 0.5788 0.90738 0.0
C529 C 0.31373 0.60638 0.90032 0.0
C530 C 0.26244 0.5687 0.90121 0.0
C531 C 0.25516 0.58601 0.88786 0.0
C532 C 0.27745 0.61389 0.88126 0.0
C533 C 0.30641 0.62396 0.88741 0.0
H534 H 0.68018 0.16836 0.02506 0.0
H535 H 0.60356 0.17686 0.0333 0.0
H536 H 0.71087 0.21856 0.03786 0.0
H537 H 0.63442 0.22728 0.0458 0.0
H538 H 0.70382 0.32568 0.04244 0.0
H539 H 0.67222 0.27513 0.03057 0.0
H540 H 0.72035 0.2476 0.0725 0.0
H541 H 0.75216 0.29828 0.08426 0.0
C542 C 0.66985 0.18086 0.02974 0.0
C543 C 0.63937 0.16853 0.02821 0.0
C544 C 0.68746 0.20962 0.03707 0.0
C545 C 0.67504 0.22681 0.04291 0.0
C546 C 0.64463 0.21465 0.04119 0.0
C547 C 0.62698 0.1858 0.03396 0.0
C548 C 0.70759 0.30882 0.04918 0.0
C549 C 0.73048 0.31591 0.06425 0.0
C550 C 0.6894 0.27986 0.04247 0.0
C551 C 0.69384 0.25742 0.05057 0.0
C552 C 0.71662 0.2645 0.06578 0.0
C553 C 0.73471 0.29346 0.07261 0.0
H554 H 0.50597 0.64632 0.22554 0.0
H555 H 0.46073 0.63282 0.16327 0.0
H556 H 0.48906 0.67949 0.23757 0.0
H557 H 0.44198 0.6643 0.17562 0.0
H558 H 0.43618 0.7441 0.19321 0.0
H559 H 0.45465 0.71221 0.18176 0.0
H560 H 0.45015 0.68401 0.24988 0.0
H561 H 0.43355 0.71761 0.26135 0.0
C562 C 0.49198 0.65021 0.21461 0.0
C563 C 0.48464 0.63723 0.19352 0.0
C564 C 0.48209 0.66905 0.22151 0.0
C565 C 0.4641 0.6748 0.20761 0.0
C566 C 0.45634 0.66112 0.18663 0.0
C567 C 0.46681 0.64284 0.17956 0.0
C568 C 0.43929 0.73114 0.20571 0.0
C569 C 0.43348 0.73328 0.22814 0.0
C570 C 0.44964 0.71259 0.19914 0.0
C571 C 0.45373 0.69515 0.21481 0.0
C572 C 0.44781 0.69737 0.23733 0.0
C573 C 0.4381 0.71649 0.24395 0.0
H574 H 0.8717 0.53025 0.36712 0.0
H575 H 0.85648 0.44183 0.36485 0.0
H576 H 0.82126 0.51172 0.37867 0.0
H577 H 0.80628 0.42336 0.37714 0.0
H578 H 0.71042 0.40043 0.3717 0.0
H579 H 0.76131 0.41862 0.36183 0.0
H580 H 0.78828 0.48807 0.41012 0.0
H581 H 0.73716 0.47008 0.41977 0.0
C582 C 0.85758 0.50685 0.3691 0.0
C583 C 0.86802 0.48749 0.36493 0.0
C584 C 0.82879 0.49627 0.37598 0.0
C585 C 0.80977 0.46607 0.3788 0.0
C586 C 0.82031 0.44673 0.37489 0.0
C587 C 0.84914 0.45732 0.36806 0.0
C588 C 0.72721 0.41955 0.38025 0.0
C589 C 0.71983 0.43388 0.39648 0.0
C590 C 0.75638 0.42986 0.37469 0.0
C591 C 0.77883 0.45476 0.38522 0.0
C592 C 0.77144 0.46901 0.40155 0.0
C593 C 0.74221 0.45865 0.40715 0.0
H594 H 0.10943 0.61869 0.43594 0.0
H595 H 0.11439 0.54082 0.42258 0.0
H596 H 0.1377 0.62683 0.46985 0.0
H597 H 0.14162 0.54829 0.45695 0.0
H598 H 0.21728 0.59004 0.50732 0.0
H599 H 0.18893 0.5808 0.47329 0.0
H600 H 0.13232 0.60579 0.5066 0.0
H601 H 0.16107 0.61562 0.54048 0.0
C602 C 0.11666 0.60338 0.44018 0.0
C603 C 0.10963 0.5791 0.42654 0.0
C604 C 0.13253 0.60781 0.45979 0.0
C605 C 0.14177 0.5881 0.46621 0.0
C606 C 0.13502 0.56401 0.45243 0.0
C607 C 0.11915 0.55957 0.43284 0.0
C608 C 0.19863 0.59332 0.50741 0.0
C609 C 0.19143 0.6036 0.52655 0.0
C610 C 0.18232 0.58795 0.48793 0.0
C611 C 0.15845 0.59273 0.48716 0.0
C612 C 0.15088 0.60237 0.5065 0.0
C613 C 0.16719 0.60776 0.52598 0.0
H614 H 0.50325 0.11476 0.59932 0.0
H615 H 0.58428 0.11545 0.58799 0.0
H616 H 0.52416 0.14487 0.63235 0.0
H617 H 0.60465 0.14427 0.62159 0.0
H618 H 0.64201 0.22032 0.67091 0.0
H619 H 0.62178 0.19214 0.6369 0.0
H620 H 0.53841 0.14076 0.66952 0.0
H621 H 0.55846 0.1695 0.70327 0.0
C622 C 0.52556 0.12143 0.60381 0.0
C623 C 0.54204 0.11259 0.59101 0.0
C624 C 0.53742 0.13837 0.62293 0.0
C625 C 0.56604 0.14686 0.62974 0.0
C626 C 0.58264 0.13837 0.61676 0.0
C627 C 0.57082 0.12151 0.59762 0.0
C628 C 0.61939 0.20294 0.6708 0.0
C629 C 0.60182 0.19711 0.68974 0.0
C630 C 0.60781 0.18671 0.65134 0.0
C631 C 0.57842 0.1642 0.65043 0.0
C632 C 0.56097 0.15824 0.6695 0.0
C633 C 0.57252 0.17456 0.68891 0.0
H634 H 0.48155 0.59192 0.74752 0.0
H635 H 0.41892 0.50402 0.76793 0.0
H636 H 0.47108 0.6113 0.78089 0.0
H637 H 0.40916 0.52305 0.80173 0.0
H638 H 0.37685 0.56665 0.84954 0.0
H639 H 0.38677 0.54852 0.81542 0.0
H640 H 0.4778 0.61562 0.81971 0.0
H641 H 0.46739 0.63455 0.85338 0.0
C642 C 0.46567 0.57677 0.75927 0.0
C643 C 0.45095 0.5465 0.75513 0.0
C644 C 0.45977 0.58781 0.77847 0.0
C645 C 0.43928 0.56879 0.79413 0.0
C646 C 0.42464 0.53846 0.78991 0.0
C647 C 0.43027 0.52748 0.77057 0.0
C648 C 0.39898 0.57753 0.84316 0.0
C649 C 0.42137 0.60199 0.85412 0.0
C650 C 0.40474 0.56701 0.82365 0.0
C651 C 0.43314 0.58045 0.81476 0.0
C652 C 0.45557 0.60495 0.82582 0.0
C653 C 0.44969 0.61572 0.84521 0.0
H654 H 0.88246 0.43182 0.90964 0.0
H655 H 0.95999 0.45789 0.94901 0.0
H656 H 0.85422 0.42424 0.9435 0.0
H657 H 0.93171 0.45015 0.98284 0.0
H658 H 0.86425 0.40289 0.0382 0.0
H659 H 0.89283 0.41061 0.00452 0.0
H660 H 0.84991 0.45305 0.97382 0.0
H661 H 0.82098 0.44492 0.00745 0.0
C662 C 0.89351 0.43604 0.92551 0.0
C663 C 0.9235 0.44546 0.9266 0.0
C664 C 0.87733 0.43175 0.94491 0.0
C665 C 0.89074 0.4367 0.96586 0.0
C666 C 0.92065 0.44579 0.96697 0.0
C667 C 0.93684 0.45015 0.94757 0.0
C668 C 0.86101 0.41398 0.02429 0.0
C669 C 0.84038 0.4233 0.02545 0.0
C670 C 0.87747 0.41851 0.00503 0.0
C671 C 0.8736 0.43238 0.98647 0.0
C672 C 0.85312 0.44194 0.98773 0.0
C673 C 0.83671 0.43749 0.00704 0.0
H674 H 0.45306 0.9302 0.0919 0.0
H675 H 0.52869 0.91983 0.09885 0.0
H676 H 0.43267 0.90234 0.12597 0.0
H677 H 0.50827 0.89189 0.13287 0.0
H678 H 0.47737 0.86864 0.2044 0.0
H679 H 0.49741 0.89819 0.17098 0.0
H680 H 0.41208 0.85291 0.14033 0.0
H681 H 0.39196 0.82381 0.17394 0.0
C682 C 0.4652 0.92172 0.10058 0.0
C683 C 0.49249 0.92721 0.09264 0.0
C684 C 0.45352 0.90577 0.12012 0.0
C685 C 0.46885 0.89492 0.13219 0.0
C686 C 0.49612 0.90036 0.1242 0.0
C687 C 0.50781 0.91633 0.10468 0.0
C688 C 0.46287 0.86516 0.19058 0.0
C689 C 0.4331 0.84391 0.19178 0.0
C690 C 0.47439 0.88193 0.17136 0.0
C691 C 0.45639 0.8778 0.15291 0.0
C692 C 0.42649 0.85687 0.15431 0.0
C693 C 0.41498 0.84011 0.17353 0.0
H694 H 0.61153 0.48116 0.24108 0.0
H695 H 0.56371 0.51143 0.2806 0.0
H696 H 0.62098 0.46063 0.27442 0.0
H697 H 0.57283 0.49066 0.3138 0.0
H698 H 0.62356 0.478 0.37091 0.0
H699 H 0.6151 0.49914 0.33762 0.0
H700 H 0.59164 0.41969 0.30138 0.0
H701 H 0.60014 0.39851 0.33472 0.0
C702 C 0.60322 0.48357 0.25691 0.0
C703 C 0.58685 0.49784 0.25825 0.0
C704 C 0.60838 0.4716 0.27593 0.0
C705 C 0.59756 0.47397 0.2967 0.0
C706 C 0.5816 0.48865 0.29806 0.0
C707 C 0.57619 0.50034 0.27904 0.0
C708 C 0.61651 0.46501 0.35586 0.0
C709 C 0.61245 0.43658 0.35542 0.0
C710 C 0.61158 0.47708 0.33682 0.0
C711 C 0.60276 0.46108 0.31689 0.0
C712 C 0.59873 0.43264 0.31645 0.0
C713 C 0.60338 0.42045 0.33556 0.0
H714 H 0.45775 0.9623 0.37804 0.0
H715 H 0.4394 0.88652 0.41749 0.0
H716 H 0.44984 0.93384 0.34425 0.0
H717 H 0.43208 0.85828 0.38359 0.0
H718 H 0.45048 0.82695 0.31715 0.0
H719 H 0.46044 0.85651 0.35081 0.0
H720 H 0.4081 0.89179 0.32524 0.0
H721 H 0.39824 0.86242 0.29166 0.0
C722 C 0.45181 0.93953 0.37954 0.0
C723 C 0.44908 0.92669 0.40054 0.0
C724 C 0.4474 0.92327 0.36015 0.0
C725 C 0.44035 0.89384 0.36127 0.0
C726 C 0.43787 0.88104 0.38221 0.0
C727 C 0.44209 0.89724 0.40162 0.0
C728 C 0.44126 0.84115 0.3187 0.0
C729 C 0.42359 0.84239 0.30179 0.0
C730 C 0.4468 0.85791 0.338 0.0
C731 C 0.43502 0.87643 0.34066 0.0
C732 C 0.41772 0.87796 0.32358 0.0
C733 C 0.41198 0.86104 0.30439 0.0
H734 H 0.51463 0.45823 0.54406 0.0
H735 H 0.56684 0.43289 0.58325 0.0
H736 H 0.53506 0.4505 0.51017 0.0
H737 H 0.58744 0.42538 0.5493 0.0
H738 H 0.64035 0.44547 0.48484 0.0
H739 H 0.62001 0.45398 0.51857 0.0
H740 H 0.53415 0.41049 0.48876 0.0
H741 H 0.55454 0.40234 0.45497 0.0
C742 C 0.53022 0.45069 0.54546 0.0
C743 C 0.53904 0.44612 0.56639 0.0
C744 C 0.54198 0.44633 0.52602 0.0
C745 C 0.56291 0.43739 0.52705 0.0
C746 C 0.57169 0.43272 0.54796 0.0
C747 C 0.55987 0.437 0.56741 0.0
C748 C 0.61717 0.43788 0.48547 0.0
C749 C 0.59904 0.42327 0.46727 0.0
C750 C 0.60548 0.44256 0.50484 0.0
C751 C 0.57545 0.43283 0.50637 0.0
C752 C 0.55742 0.41853 0.48803 0.0
C753 C 0.56908 0.41375 0.46871 0.0
H754 H 0.15003 0.55137 0.75131 0.0
H755 H 0.07823 0.55305 0.71829 0.0
H756 H 0.1792 0.56967 0.71755 0.0
H757 H 0.10793 0.57239 0.68496 0.0
H758 H 0.18369 0.63621 0.63861 0.0
H759 H 0.15485 0.61887 0.67279 0.0
H760 H 0.17622 0.55011 0.67808 0.0
H761 H 0.20475 0.56719 0.64391 0.0
C762 C 0.14038 0.55551 0.7369 0.0
C763 C 0.11168 0.55066 0.73762 0.0
C764 C 0.15718 0.56613 0.71761 0.0
C765 C 0.14582 0.5725 0.69869 0.0
C766 C 0.11735 0.56803 0.69941 0.0
C767 C 0.1004 0.55705 0.71859 0.0
C768 C 0.18218 0.61739 0.64709 0.0
C769 C 0.1964 0.60301 0.6386 0.0
C770 C 0.16563 0.60743 0.66657 0.0
C771 C 0.1634 0.58321 0.67808 0.0
C772 C 0.17781 0.569 0.66965 0.0
C773 C 0.19397 0.57867 0.65003 0.0
H774 H 0.62667 0.11477 0.89422 0.0
H775 H 0.54812 0.11868 0.90609 0.0
H776 H 0.63659 0.14513 0.86125 0.0
H777 H 0.55739 0.14799 0.8726 0.0
H778 H 0.59865 0.22404 0.82283 0.0
H779 H 0.58996 0.19594 0.85705 0.0
H780 H 0.6171 0.14061 0.82421 0.0
H781 H 0.62637 0.16905 0.79028 0.0
C782 C 0.6116 0.12223 0.88987 0.0
C783 C 0.58655 0.1142 0.90277 0.0
C784 C 0.61709 0.13934 0.87081 0.0
C785 C 0.59768 0.14884 0.86418 0.0
C786 C 0.57291 0.14125 0.8773 0.0
C787 C 0.56742 0.12415 0.89636 0.0
C788 C 0.60268 0.20583 0.82295 0.0
C789 C 0.6132 0.19876 0.80389 0.0
C790 C 0.59761 0.18966 0.84252 0.0
C791 C 0.60295 0.16609 0.84342 0.0
C792 C 0.61324 0.15893 0.82424 0.0
C793 C 0.61833 0.17509 0.80472 0.0
H794 H 0.46303 0.59469 0.08087 0.0
H795 H 0.51167 0.56449 0.04227 0.0
H796 H 0.44208 0.60145 0.04685 0.0
H797 H 0.49063 0.57111 0.00824 0.0
H798 H 0.47393 0.62044 0.95217 0.0
H799 H 0.49322 0.61028 0.98566 0.0
H800 H 0.40857 0.57453 0.01688 0.0
H801 H 0.38947 0.58531 0.98348 0.0
C802 C 0.46902 0.58922 0.06513 0.0
C803 C 0.4891 0.57916 0.06428 0.0
C804 C 0.45697 0.59303 0.04562 0.0
C805 C 0.46466 0.58681 0.0248 0.0
C806 C 0.48457 0.57653 0.02397 0.0
C807 C 0.49665 0.57276 0.04348 0.0
C808 C 0.45938 0.61018 0.96612 0.0
C809 C 0.43021 0.60374 0.96523 0.0
C810 C 0.4704 0.60424 0.9853 0.0
C811 C 0.45248 0.5917 0.00401 0.0
C812 C 0.42308 0.58462 0.00289 0.0
C813 C 0.41207 0.59058 0.9837 0.0
H814 H 0.96155 0.52026 0.21294 0.0
H815 H 0.88425 0.46896 0.25262 0.0
H816 H 0.9329 0.49981 0.17922 0.0
H817 H 0.85564 0.4484 0.21887 0.0
H818 H 0.8211 0.39496 0.1548 0.0
H819 H 0.85053 0.41534 0.1883 0.0
H820 H 0.89409 0.50104 0.15794 0.0
H821 H 0.86501 0.48059 0.12439 0.0
C822 C 0.93838 0.50487 0.21447 0.0
C823 C 0.9252 0.49627 0.23549 0.0
C824 C 0.92198 0.4931 0.19514 0.0
C825 C 0.89201 0.47241 0.19637 0.0
C826 C 0.87878 0.46392 0.21737 0.0
C827 C 0.89518 0.47573 0.23671 0.0
C828 C 0.83707 0.41811 0.15527 0.0
C829 C 0.84077 0.43618 0.13698 0.0
C830 C 0.85378 0.42983 0.1745 0.0
C831 C 0.87458 0.45983 0.17581 0.0
C832 C 0.87848 0.47779 0.15739 0.0
C833 C 0.86173 0.4661 0.1382 0.0
loop_
_geom_bond_atom_site_label_1
_geom_bond_atom_site_label_2
_geom_bond_distance
_geom_bond_site_symmetry_2
_ccdc_geom_bond_type
C0 C1 1.384 . S
C0 C2 1.384 . S
C0 H28 0.931 . S
C1 C0 1.384 . S
C1 C4 1.382 . S
C2 C0 1.384 . S
C2 C3 1.381 . S
C2 H29 0.930 . S
C3 C2 1.381 . S
C3 C5 1.381 . S
C3 C6 1.487 . S
C4 C1 1.382 . S
C4 C5 1.387 . S
C4 H30 0.930 . S
C5 C3 1.381 . S
C5 C4 1.387 . S
C5 H31 0.931 . S
C6 C3 1.487 . S
C6 C13 1.408 . S
C6 N44 1.343 1_655 S
C7 C8 1.384 . S
C7 C9 1.384 . S
C7 H32 0.931 . S
C8 C7 1.384 . S
C8 C11 1.382 . S
C9 C7 1.384 . S
C9 C10 1.381 . S
C9 H33 0.930 . S
C10 C9 1.381 . S
C10 C12 1.381 . S
C10 C13 1.504 . S
C11 C8 1.382 . S
C11 C12 1.387 . S
C11 H34 0.930 . S
C12 C10 1.381 . S
C12 C11 1.387 . S
C12 H35 0.931 1_655 S
C13 C6 1.408 . S
C13 C10 1.504 . S
C13 N45 1.316 1_655 S
C14 C15 1.384 . S
C14 C16 1.384 . S
C14 H36 0.931 . S
C15 C14 1.384 . S
C15 C18 1.382 . S
C16 C14 1.384 . S
C16 C17 1.381 . S
C16 H37 0.930 . S
C17 C16 1.381 . S
C17 C19 1.381 . S
C17 C20 1.487 . S
C18 C15 1.382 . S
C18 C19 1.387 . S
C18 H38 0.930 . S
C19 C17 1.381 . S
C19 C18 1.387 . S
C19 H39 0.931 . S
C20 C17 1.487 . S
C20 C27 1.399 . S
C20 N45 1.343 . S
C21 C22 1.384 . S
C21 C23 1.384 . S
C21 H40 0.931 . S
C22 C21 1.384 . S
C22 C25 1.382 . S
C23 C21 1.384 . S
C23 C24 1.381 . S
C23 H41 0.930 . S
C24 C23 1.381 . S
C24 C26 1.381 . S
C24 C27 1.487 . S
C25 C22 1.382 . S
C25 C26 1.387 . S
C25 H42 0.930 . S
C26 C24 1.381 . S
C26 C25 1.387 . S
C26 H43 0.931 . S
C27 C20 1.399 . S
C27 C24 1.487 . S
C27 N44 1.343 . S
H28 C0 0.931 . S
H29 C2 0.930 . S
H30 C4 0.930 . S
H31 C5 0.931 . S
H32 C7 0.931 . S
H33 C9 0.930 . S
H34 C11 0.930 . S
H35 C12 0.931 1_455 S
H36 C14 0.931 . S
H37 C16 0.930 . S
H38 C18 0.930 . S
H39 C19 0.931 . S
H40 C21 0.931 . S
H41 C23 0.930 . S
H42 C25 0.930 . S
H43 C26 0.931 . S
N44 C6 1.343 1_455 S
N44 C27 1.343 . S
N45 C13 1.316 1_455 S
N45 C20 1.343 . S
C46 C47 1.384 . S
C46 C48 1.384 . S
C46 H74 0.931 . S
C47 C46 1.384 . S
C47 C50 1.382 . S
C48 C46 1.384 . S
C48 C49 1.381 . S
C48 H75 0.930 . S
C49 C48 1.381 . S
C49 C51 1.381 . S
C49 C52 1.487 . S
C50 C47 1.382 . S
C50 C51 1.387 . S
C50 H76 0.930 . S
C51 C49 1.381 . S
C51 C50 1.387 . S
C51 H77 0.931 . S
C52 C49 1.487 . S
C52 C59 1.401 . S
C52 N90 1.343 1_565 S
C53 C54 1.384 . S
C53 C55 1.384 . S
C53 H78 0.931 . S
C54 C53 1.384 . S
C54 C57 1.382 . S
C55 C53 1.384 . S
C55 C56 1.381 . S
C55 H79 0.930 . S
C56 C55 1.381 . S
C56 C58 1.381 . S
C56 C59 1.490 . S
C57 C54 1.382 . S
C57 C58 1.387 . S
C57 H80 0.930 . S
C58 C56 1.381 . S
C58 C57 1.387 . S
C58 H81 0.931 1_565 S
C59 C52 1.401 . S
C59 C56 1.490 . S
C59 N91 1.338 1_565 S
C60 C61 1.384 . S
C60 C62 1.384 . S
C60 H82 0.931 . S
C61 C60 1.384 . S
C61 C64 1.382 . S
C62 C60 1.384 . S
C62 C63 1.381 . S
C62 H83 0.930 . S
C63 C62 1.381 . S
C63 C65 1.381 . S
C63 C66 1.487 . S
C64 C61 1.382 . S
C64 C65 1.387 . S
C64 H84 0.930 . S
C65 C63 1.381 . S
C65 C64 1.387 . S
C65 H85 0.931 . S
C66 C63 1.487 . S
C66 C73 1.399 . S
C66 N91 1.343 . S
C67 C68 1.384 . S
C67 C69 1.384 . S
C67 H86 0.931 . S
C68 C67 1.384 . S
C68 C71 1.382 . S
C69 C67 1.384 . S
C69 C70 1.381 . S
C69 H87 0.930 . S
C70 C69 1.381 . S
C70 C72 1.381 . S
C70 C73 1.487 . S
C71 C68 1.382 . S
C71 C72 1.387 . S
C71 H88 0.930 . S
C72 C70 1.381 . S
C72 C71 1.387 . S
C72 H89 0.931 . S
C73 C66 1.399 . S
C73 C70 1.487 . S
C73 N90 1.343 . S
H74 C46 0.931 . S
H75 C48 0.930 . S
H76 C50 0.930 . S
H77 C51 0.931 . S
H78 C53 0.931 . S
H79 C55 0.930 . S
H80 C57 0.930 . S
H81 C58 0.931 1_545 S
H82 C60 0.931 . S
H83 C62 0.930 . S
H84 C64 0.930 . S
H85 C65 0.931 . S
H86 C67 0.931 . S
H87 C69 0.930 . S
H88 C71 0.930 . S
H89 C72 0.931 . S
N90 C52 1.343 1_545 S
N90 C73 1.343 . S
N91 C59 1.338 1_545 S
N91 C66 1.343 . S
C92 C93 1.384 . S
C92 C94 1.384 . S
C92 H120 0.931 . S
C93 C92 1.384 . S
C93 C96 1.382 . S
C94 C92 1.384 . S
C94 C95 1.381 . S
C94 H121 0.930 . S
C95 C94 1.381 . S
C95 C97 1.381 . S
C95 C98 1.487 . S
C96 C93 1.382 . S
C96 C97 1.387 . S
C96 H122 0.930 . S
C97 C95 1.381 . S
C97 C96 1.387 . S
C97 H123 0.931 . S
C98 C95 1.487 . S
C98 C105 1.399 . S
C98 N136 1.343 . S
C99 C100 1.384 . S
C99 C101 1.384 . S
C99 H124 0.931 . S
C100 C99 1.384 . S
C100 C103 1.382 . S
C101 C99 1.384 . S
C101 C102 1.381 . S
C101 H125 0.930 . S
C102 C101 1.381 . S
C102 C104 1.381 . S
C102 C105 1.487 . S
C103 C100 1.382 . S
C103 C104 1.387 . S
C103 H126 0.930 . S
C104 C102 1.381 . S
C104 C103 1.387 . S
C104 H127 0.931 . S
C105 C98 1.399 . S
C105 C102 1.487 . S
C105 N137 1.343 . S
C106 C107 1.384 . S
C106 C108 1.384 . S
C106 H128 0.931 . S
C107 C106 1.384 . S
C107 C110 1.382 . S
C108 C106 1.384 . S
C108 C109 1.381 . S
C108 H129 0.930 . S
C109 C108 1.381 . S
C109 C111 1.381 . S
C109 C112 1.487 . S
C110 C107 1.382 . S
C110 C111 1.387 . S
C110 H130 0.930 . S
C111 C109 1.381 . S
C111 C110 1.387 . S
C111 H131 0.931 . S
C112 C109 1.487 . S
C112 C119 1.399 . S
C112 N137 1.343 . S
C113 C114 1.384 . S
C113 C115 1.384 . S
C113 H132 0.931 . S
C114 C113 1.384 . S
C114 C117 1.382 . S
C115 C113 1.384 . S
C115 C116 1.381 . S
C115 H133 0.930 . S
C116 C115 1.381 . S
C116 C118 1.381 . S
C116 C119 1.487 . S
C117 C114 1.382 . S
C117 C118 1.387 . S
C117 H134 0.930 . S
C118 C116 1.381 . S
C118 C117 1.387 . S
C118 H135 0.931 . S
C119 C112 1.399 . S
C119 C116 1.487 . S
C119 N136 1.343 . S
H120 C92 0.931 . S
H121 C94 0.930 . S
H122 C96 0.930 . S
H123 C97 0.931 . S
H124 C99 0.931 . S
H125 C101 0.930 . S
H126 C103 0.930 . S
H127 C104 0.931 . S
H128 C106 0.931 . S
H129 C108 0.930 . S
H130 C110 0.930 . S
H131 C111 0.931 . S
H132 C113 0.931 . S
H133 C115 0.930 . S
H134 C117 0.930 . S
H135 C118 0.931 . S
N136 C98 1.343 . S
N136 C119 1.343 . S
N137 C105 1.343 . S
N137 C112 1.343 . S
C138 C139 1.384 . S
C138 C140 1.384 . S
C138 H166 0.931 . S
C139 C138 1.384 . S
C139 C142 1.382 . S
C140 C138 1.384 . S
C140 C141 1.381 . S
C140 H167 0.930 . S
C141 C140 1.381 . S
C141 C143 1.381 . S
C141 C144 1.487 . S
C142 C139 1.382 . S
C142 C143 1.387 . S
C142 H168 0.930 . S
C143 C141 1.381 . S
C143 C142 1.387 . S
C143 H169 0.931 . S
C144 C141 1.487 . S
C144 C151 1.399 . S
C144 N182 1.343 1_655 S
C145 C146 1.384 . S
C145 C147 1.384 . S
C145 H170 0.931 . S
C146 C145 1.384 . S
C146 C149 1.382 . S
C147 C145 1.384 . S
C147 C148 1.381 . S
C147 H171 0.930 . S
C148 C147 1.381 . S
C148 C150 1.381 . S
C148 C151 1.487 . S
C149 C146 1.382 . S
C149 C150 1.387 . S
C149 H172 0.930 . S
C150 C148 1.381 . S
C150 C149 1.387 . S
C150 H173 0.905 1_655 S
C151 C144 1.399 . S
C151 C148 1.487 . S
C151 N183 1.343 1_655 S
C152 C153 1.384 . S
C152 C154 1.384 . S
C152 H174 0.931 . S
C153 C152 1.384 . S
C153 C156 1.382 . S
C154 C152 1.384 . S
C154 C155 1.381 . S
C154 H175 0.930 . S
C155 C154 1.381 . S
C155 C157 1.381 . S
C155 C158 1.487 . S
C156 C153 1.382 . S
C156 C157 1.387 . S
C156 H176 0.930 . S
C157 C155 1.381 . S
C157 C156 1.387 . S
C157 H177 0.931 . S
C158 C155 1.487 . S
C158 C165 1.399 . S
C158 N183 1.343 . S
C159 C160 1.384 . S
C159 C161 1.384 . S
C159 H178 0.931 . S
C160 C159 1.384 . S
C160 C163 1.382 . S
C161 C159 1.384 . S
C161 C162 1.381 . S
C161 H179 0.930 . S
C162 C161 1.381 . S
C162 C164 1.381 . S
C162 C165 1.487 . S
C163 C160 1.382 . S
C163 C164 1.387 . S
C163 H180 0.930 . S
C164 C162 1.381 . S
C164 C163 1.387 . S
C164 H181 0.931 . S
C165 C158 1.399 . S
C165 C162 1.487 . S
C165 N182 1.343 . S
H166 C138 0.931 . S
H167 C140 0.930 . S
H168 C142 0.930 . S
H169 C143 0.931 . S
H170 C145 0.931 . S
H171 C147 0.930 . S
H172 C149 0.930 . S
H173 C150 0.905 1_455 S
H174 C152 0.931 . S
H175 C154 0.930 . S
H176 C156 0.930 . S
H177 C157 0.931 . S
H178 C159 0.931 . S
H179 C161 0.930 . S
H180 C163 0.930 . S
H181 C164 0.931 . S
N182 C144 1.343 1_455 S
N182 C165 1.343 . S
N183 C151 1.343 1_455 S
N183 C158 1.343 . S
C184 C185 1.384 . S
C184 C186 1.384 . S
C184 H212 0.931 . S
C185 C184 1.384 . S
C185 C188 1.382 . S
C186 C184 1.384 . S
C186 C187 1.381 . S
C186 H213 0.930 1_556 S
C187 C186 1.381 . S
C187 C189 1.381 . S
C187 C190 1.487 . S
C188 C185 1.382 . S
C188 C189 1.387 . S
C188 H214 0.930 . S
C189 C187 1.381 . S
C189 C188 1.387 . S
C189 H215 0.931 . S
C190 C187 1.487 . S
C190 C197 1.400 1_556 S
C190 N228 1.343 1_565 S
C191 C192 1.384 . S
C191 C193 1.384 . S
C191 H216 0.931 . S
C192 C191 1.384 . S
C192 C195 1.382 . S
C193 C191 1.384 . S
C193 C194 1.381 . S
C193 H217 0.930 . S
C194 C193 1.381 . S
C194 C196 1.381 . S
C194 C197 1.489 . S
C195 C192 1.382 . S
C195 C196 1.387 . S
C195 H218 0.930 . S
C196 C194 1.381 . S
C196 C195 1.387 . S
C196 H219 0.931 1_565 S
C197 C190 1.400 1_554 S
C197 C194 1.489 . S
C197 N229 1.340 1_565 S
C198 C199 1.384 . S
C198 C200 1.384 1_554 S
C198 H220 0.931 1_554 S
C199 C198 1.384 . S
C199 C202 1.382 . S
C200 C198 1.384 1_556 S
C200 C201 1.381 1_556 S
C200 H221 0.930 . S
C201 C200 1.381 1_554 S
C201 C203 1.381 . S
C201 C204 1.487 1_554 S
C202 C199 1.382 . S
C202 C203 1.387 . S
C202 H222 0.930 . S
C203 C201 1.381 . S
C203 C202 1.387 . S
C203 H223 0.931 . S
C204 C201 1.487 1_556 S
C204 C211 1.399 . S
C204 N229 1.343 1_556 S
C205 C206 1.384 . S
C205 C207 1.384 . S
C205 H224 0.931 . S
C206 C205 1.384 . S
C206 C209 1.382 . S
C207 C205 1.384 . S
C207 C208 1.381 . S
C207 H225 0.930 . S
C208 C207 1.381 . S
C208 C210 1.381 . S
C208 C211 1.487 . S
C209 C206 1.382 . S
C209 C210 1.387 . S
C209 H226 0.930 . S
C210 C208 1.381 . S
C210 C209 1.387 . S
C210 H227 0.931 . S
C211 C204 1.399 . S
C211 C208 1.487 . S
C211 N228 1.343 . S
H212 C184 0.931 . S
H213 C186 0.930 1_554 S
H214 C188 0.930 . S
H215 C189 0.931 . S
H216 C191 0.931 . S
H217 C193 0.930 . S
H218 C195 0.930 . S
H219 C196 0.931 1_545 S
H220 C198 0.931 1_556 S
H221 C200 0.930 . S
H222 C202 0.930 . S
H223 C203 0.931 . S
H224 C205 0.931 . S
H225 C207 0.930 . S
H226 C209 0.930 . S
H227 C210 0.931 . S
N228 C190 1.343 1_545 S
N228 C211 1.343 . S
N229 C197 1.340 1_545 S
N229 C204 1.343 1_554 S
C230 C231 1.384 . S
C230 C232 1.384 . S
C230 H258 0.931 . S
C231 C230 1.384 . S
C231 C234 1.382 . S
C232 C230 1.384 . S
C232 C233 1.381 . S
C232 H259 0.930 . S
C233 C232 1.381 . S
C233 C235 1.381 . S
C233 C236 1.487 . S
C234 C231 1.382 . S
C234 C235 1.387 . S
C234 H260 0.930 . S
C235 C233 1.381 . S
C235 C234 1.387 . S
C235 H261 0.931 . S
C236 C233 1.487 . S
C236 C243 1.399 . S
C236 N274 1.343 . S
C237 C238 1.384 . S
C237 C239 1.384 . S
C237 H262 0.931 . S
C238 C237 1.384 . S
C238 C241 1.382 . S
C239 C237 1.384 . S
C239 C240 1.381 . S
C239 H263 0.930 . S
C240 C239 1.381 . S
C240 C242 1.381 . S
C240 C243 1.487 . S
C241 C238 1.382 . S
C241 C242 1.387 . S
C241 H264 0.930 . S
C242 C240 1.381 . S
C242 C241 1.387 . S
C242 H265 0.931 . S
C243 C236 1.399 . S
C243 C240 1.487 . S
C243 N275 1.343 . S
C244 C245 1.384 . S
C244 C246 1.384 . S
C244 H266 0.931 . S
C245 C244 1.384 . S
C245 C248 1.382 . S
C246 C244 1.384 . S
C246 C247 1.381 . S
C246 H267 0.930 . S
C247 C246 1.381 . S
C247 C249 1.381 . S
C247 C250 1.487 . S
C248 C245 1.382 . S
C248 C249 1.387 . S
C248 H268 0.930 . S
C249 C247 1.381 . S
C249 C248 1.387 . S
C249 H269 0.931 . S
C250 C247 1.487 . S
C250 C257 1.399 . S
C250 N275 1.343 . S
C251 C252 1.384 . S
C251 C253 1.384 . S
C251 H270 0.931 . S
C252 C251 1.384 . S
C252 C255 1.382 . S
C253 C251 1.384 . S
C253 C254 1.381 . S
C253 H271 0.930 . S
C254 C253 1.381 . S
C254 C256 1.381 . S
C254 C257 1.487 . S
C255 C252 1.382 . S
C255 C256 1.387 . S
C255 H272 0.930 . S
C256 C254 1.381 . S
C256 C255 1.387 . S
C256 H273 0.931 . S
C257 C250 1.399 . S
C257 C254 1.487 . S
C257 N274 1.343 . S
H258 C230 0.931 . S
H259 C232 0.930 . S
H260 C234 0.930 . S
H261 C235 0.931 . S
H262 C237 0.931 . S
H263 C239 0.930 . S
H264 C241 0.930 . S
H265 C242 0.931 . S
H266 C244 0.931 . S
H267 C246 0.930 . S
H268 C248 0.930 . S
H269 C249 0.931 . S
H270 C251 0.931 . S
H271 C253 0.930 . S
H272 C255 0.930 . S
H273 C256 0.931 . S
N274 C236 1.343 . S
N274 C257 1.343 . S
N275 C243 1.343 . S
N275 C250 1.343 . S
In276 O277 2.294 . S
In276 O278 2.326 . S
In276 O282 2.266 . S
In276 O283 2.326 . S
In276 O284 2.266 . S
In276 O285 2.326 . S
In276 O287 2.294 . S
In276 O288 2.326 . S
O277 In276 2.294 . S
O277 C286 1.240 . S
O278 In276 2.326 . S
O278 C286 1.252 . S
C279 O282 1.252 . S
C279 O283 1.260 . S
C280 O287 1.240 . S
C280 O288 1.252 . S
C281 O284 1.252 . S
C281 O285 1.260 . S
O282 In276 2.266 . S
O282 C279 1.252 . S
O283 In276 2.326 . S
O283 C279 1.260 . S
O284 In276 2.266 . S
O284 C281 1.252 . S
O285 In276 2.326 . S
O285 C281 1.260 . S
C286 O277 1.240 . S
C286 O278 1.252 . S
O287 In276 2.294 . S
O287 C280 1.240 . S
O288 In276 2.326 . S
O288 C280 1.252 . S
In289 O290 2.294 . S
In289 O291 2.326 . S
In289 O295 2.266 . S
In289 O296 2.326 . S
In289 O297 2.266 . S
In289 O298 2.326 . S
In289 O300 2.294 . S
In289 O301 2.326 . S
O290 In289 2.294 . S
O290 C299 1.240 . S
O291 In289 2.326 . S
O291 C299 1.252 . S
C292 O295 1.252 . S
C292 O296 1.260 . S
C293 O300 1.240 . S
C293 O301 1.252 . S
C294 O297 1.252 . S
C294 O298 1.260 . S
O295 In289 2.266 . S
O295 C292 1.252 . S
O296 In289 2.326 . S
O296 C292 1.260 . S
O297 In289 2.266 . S
O297 C294 1.252 . S
O298 In289 2.326 . S
O298 C294 1.260 . S
C299 O290 1.240 . S
C299 O291 1.252 . S
O300 In289 2.294 . S
O300 C293 1.240 . S
O301 In289 2.326 . S
O301 C293 1.252 . S
In302 O303 2.294 . S
In302 O304 2.326 . S
In302 O308 2.266 . S
In302 O309 2.326 . S
In302 O310 2.266 . S
In302 O311 2.326 . S
In302 O313 2.294 . S
In302 O314 2.326 . S
O303 In302 2.294 . S
O303 C312 1.240 . S
O304 In302 2.326 . S
O304 C312 1.252 . S
C305 O308 1.252 . S
C305 O309 1.260 . S
C306 O313 1.240 . S
C306 O314 1.252 . S
C307 O310 1.252 . S
C307 O311 1.260 . S
O308 In302 2.266 . S
O308 C305 1.252 . S
O309 In302 2.326 . S
O309 C305 1.260 . S
O310 In302 2.266 . S
O310 C307 1.252 . S
O311 In302 2.326 . S
O311 C307 1.260 . S
C312 O303 1.240 . S
C312 O304 1.252 . S
O313 In302 2.294 . S
O313 C306 1.240 . S
O314 In302 2.326 . S
O314 C306 1.252 . S
In315 O316 2.294 . S
In315 O317 2.326 . S
In315 O321 2.266 . S
In315 O322 2.326 . S
In315 O323 2.266 . S
In315 O324 2.326 . S
In315 O326 2.294 . S
In315 O327 2.326 . S
O316 In315 2.294 . S
O316 C325 1.240 . S
O317 In315 2.326 . S
O317 C325 1.252 . S
C318 O321 1.252 . S
C318 O322 1.260 . S
C319 O326 1.240 . S
C319 O327 1.252 . S
C320 O323 1.252 . S
C320 O324 1.260 . S
O321 In315 2.266 . S
O321 C318 1.252 . S
O322 In315 2.326 . S
O322 C318 1.260 . S
O323 In315 2.266 . S
O323 C320 1.252 . S
O324 In315 2.326 . S
O324 C320 1.260 . S
C325 O316 1.240 . S
C325 O317 1.252 . S
O326 In315 2.294 . S
O326 C319 1.240 . S
O327 In315 2.326 . S
O327 C319 1.252 . S
In328 O329 2.294 . S
In328 O330 2.326 . S
In328 O334 2.266 . S
In328 O335 2.326 . S
In328 O336 2.266 . S
In328 O337 2.326 . S
In328 O339 2.294 . S
In328 O340 2.326 . S
O329 In328 2.294 . S
O329 C338 1.240 . S
O330 In328 2.326 . S
O330 C338 1.252 . S
C331 O334 1.252 . S
C331 O335 1.260 . S
C332 O339 1.240 . S
C332 O340 1.252 . S
C333 O336 1.252 . S
C333 O337 1.260 . S
O334 In328 2.266 . S
O334 C331 1.252 . S
O335 In328 2.326 . S
O335 C331 1.260 . S
O336 In328 2.266 . S
O336 C333 1.252 . S
O337 In328 2.326 . S
O337 C333 1.260 . S
C338 O329 1.240 . S
C338 O330 1.252 . S
O339 In328 2.294 . S
O339 C332 1.240 . S
O340 In328 2.326 . S
O340 C332 1.252 . S
In341 O342 2.294 . S
In341 O343 2.326 . S
In341 O347 2.266 . S
In341 O348 2.326 . S
In341 O349 2.266 . S
In341 O350 2.326 . S
In341 O352 2.294 . S
In341 O353 2.326 . S
O342 In341 2.294 . S
O342 C351 1.240 . S
O343 In341 2.326 . S
O343 C351 1.252 . S
C344 O347 1.252 . S
C344 O348 1.260 . S
C345 O352 1.240 . S
C345 O353 1.252 . S
C346 O349 1.252 . S
C346 O350 1.260 . S
O347 In341 2.266 . S
O347 C344 1.252 . S
O348 In341 2.326 . S
O348 C344 1.260 . S
O349 In341 2.266 . S
O349 C346 1.252 . S
O350 In341 2.326 . S
O350 C346 1.260 . S
C351 O342 1.240 . S
C351 O343 1.252 . S
O352 In341 2.294 . S
O352 C345 1.240 . S
O353 In341 2.326 . S
O353 C345 1.252 . S
H354 C362 0.950 . S
H355 C367 0.950 . S
H356 C364 0.950 . S
H357 C366 0.950 . S
H358 C368 0.950 . S
H359 C370 0.950 . S
H360 C372 0.950 . S
H361 C373 0.950 . S
C362 H354 0.950 . S
C362 C363 1.386 . S
C362 C364 1.391 . S
C363 C362 1.386 . S
C363 C367 1.393 . S
C364 H356 0.950 . S
C364 C362 1.391 . S
C364 C365 1.400 . S
C365 C364 1.400 . S
C365 C366 1.398 . S
C365 C371 1.491 . S
C366 H357 0.950 . S
C366 C365 1.398 . S
C366 C367 1.391 . S
C367 H355 0.950 . S
C367 C363 1.393 . S
C367 C366 1.391 . S
C368 H358 0.950 . S
C368 C369 1.386 . S
C368 C370 1.391 . S
C369 C368 1.386 . S
C369 C373 1.393 . S
C370 H359 0.950 . S
C370 C368 1.391 . S
C370 C371 1.400 . S
C371 C365 1.491 . S
C371 C370 1.400 . S
C371 C372 1.398 . S
C372 H360 0.950 . S
C372 C371 1.398 . S
C372 C373 1.391 . S
C373 H361 0.950 . S
C373 C369 1.393 . S
C373 C372 1.391 . S
H374 C382 0.950 . S
H375 C387 0.950 . S
H376 C384 0.950 . S
H377 C386 0.950 . S
H378 C388 0.950 . S
H379 C390 0.950 . S
H380 C392 0.950 . S
H381 C393 0.950 . S
C382 H374 0.950 . S
C382 C383 1.386 . S
C382 C384 1.391 . S
C383 C382 1.386 . S
C383 C387 1.393 . S
C384 H376 0.950 . S
C384 C382 1.391 . S
C384 C385 1.400 . S
C385 C384 1.400 . S
C385 C386 1.398 . S
C385 C391 1.491 . S
C386 H377 0.950 . S
C386 C385 1.398 . S
C386 C387 1.391 . S
C387 H375 0.950 . S
C387 C383 1.393 . S
C387 C386 1.391 . S
C388 H378 0.950 . S
C388 C389 1.386 . S
C388 C390 1.391 . S
C389 C388 1.386 . S
C389 C393 1.393 . S
C390 H379 0.950 . S
C390 C388 1.391 . S
C390 C391 1.400 . S
C391 C385 1.491 . S
C391 C390 1.400 . S
C391 C392 1.398 . S
C392 H380 0.950 . S
C392 C391 1.398 . S
C392 C393 1.391 . S
C393 H381 0.950 . S
C393 C389 1.393 . S
C393 C392 1.391 . S
H394 C402 0.950 . S
H395 C407 0.950 . S
H396 C404 0.950 . S
H397 C406 0.950 . S
H398 C408 0.950 . S
H399 C410 0.950 . S
H400 C412 0.950 . S
H401 C413 0.950 . S
C402 H394 0.950 . S
C402 C403 1.386 . S
C402 C404 1.391 . S
C403 C402 1.386 . S
C403 C407 1.393 . S
C404 H396 0.950 . S
C404 C402 1.391 . S
C404 C405 1.400 . S
C405 C404 1.400 . S
C405 C406 1.398 . S
C405 C411 1.491 . S
C406 H397 0.950 . S
C406 C405 1.398 . S
C406 C407 1.391 . S
C407 H395 0.950 . S
C407 C403 1.393 . S
C407 C406 1.391 . S
C408 H398 0.950 . S
C408 C409 1.386 . S
C408 C410 1.391 . S
C409 C408 1.386 . S
C409 C413 1.393 . S
C410 H399 0.950 . S
C410 C408 1.391 . S
C410 C411 1.400 . S
C411 C405 1.491 . S
C411 C410 1.400 . S
C411 C412 1.398 . S
C412 H400 0.950 . S
C412 C411 1.398 . S
C412 C413 1.391 . S
C413 H401 0.950 . S
C413 C409 1.393 . S
C413 C412 1.391 . S
H414 C422 0.950 . S
H415 C427 0.950 . S
H416 C424 0.950 . S
H417 C426 0.950 . S
H418 C428 0.950 . S
H419 C430 0.950 . S
H420 C432 0.950 . S
H421 C433 0.950 . S
C422 H414 0.950 . S
C422 C423 1.386 . S
C422 C424 1.391 . S
C423 C422 1.386 . S
C423 C427 1.393 . S
C424 H416 0.950 . S
C424 C422 1.391 . S
C424 C425 1.400 . S
C425 C424 1.400 . S
C425 C426 1.398 . S
C425 C431 1.491 . S
C426 H417 0.950 . S
C426 C425 1.398 . S
C426 C427 1.391 . S
C427 H415 0.950 . S
C427 C423 1.393 . S
C427 C426 1.391 . S
C428 H418 0.950 . S
C428 C429 1.386 . S
C428 C430 1.391 . S
C429 C428 1.386 . S
C429 C433 1.393 . S
C430 H419 0.950 . S
C430 C428 1.391 . S
C430 C431 1.400 . S
C431 C425 1.491 . S
C431 C430 1.400 . S
C431 C432 1.398 . S
C432 H420 0.950 . S
C432 C431 1.398 . S
C432 C433 1.391 . S
C433 H421 0.950 . S
C433 C429 1.393 . S
C433 C432 1.391 . S
H434 C442 0.950 . S
H435 C447 0.950 . S
H436 C444 0.950 . S
H437 C446 0.950 . S
H438 C448 0.950 . S
H439 C450 0.950 . S
H440 C452 0.950 . S
H441 C453 0.950 . S
C442 H434 0.950 . S
C442 C443 1.386 . S
C442 C444 1.391 . S
C443 C442 1.386 . S
C443 C447 1.393 . S
C444 H436 0.950 . S
C444 C442 1.391 . S
C444 C445 1.400 . S
C445 C444 1.400 . S
C445 C446 1.398 . S
C445 C451 1.491 . S
C446 H437 0.950 . S
C446 C445 1.398 . S
C446 C447 1.391 . S
C447 H435 0.950 . S
C447 C443 1.393 . S
C447 C446 1.391 . S
C448 H438 0.950 . S
C448 C449 1.386 . S
C448 C450 1.391 . S
C449 C448 1.386 . S
C449 C453 1.393 . S
C450 H439 0.950 . S
C450 C448 1.391 . S
C450 C451 1.400 . S
C451 C445 1.491 . S
C451 C450 1.400 . S
C451 C452 1.398 . S
C452 H440 0.950 . S
C452 C451 1.398 . S
C452 C453 1.391 . S
C453 H441 0.950 . S
C453 C449 1.393 . S
C453 C452 1.391 . S
H454 C462 0.950 . S
H455 C467 0.950 . S
H456 C464 0.950 . S
H457 C466 0.950 . S
H458 C468 0.950 . S
H459 C470 0.950 . S
H460 C472 0.950 . S
H461 C473 0.950 . S
C462 H454 0.950 . S
C462 C463 1.386 . S
C462 C464 1.391 . S
C463 C462 1.386 . S
C463 C467 1.393 . S
C464 H456 0.950 . S
C464 C462 1.391 . S
C464 C465 1.400 . S
C465 C464 1.400 . S
C465 C466 1.398 . S
C465 C471 1.491 . S
C466 H457 0.950 . S
C466 C465 1.398 . S
C466 C467 1.391 . S
C467 H455 0.950 . S
C467 C463 1.393 . S
C467 C466 1.391 . S
C468 H458 0.950 . S
C468 C469 1.386 . S
C468 C470 1.391 . S
C469 C468 1.386 . S
C469 C473 1.393 . S
C470 H459 0.950 . S
C470 C468 1.391 . S
C470 C471 1.400 . S
C471 C465 1.491 . S
C471 C470 1.400 . S
C471 C472 1.398 . S
C472 H460 0.950 . S
C472 C471 1.398 . S
C472 C473 1.391 . S
C473 H461 0.950 . S
C473 C469 1.393 . S
C473 C472 1.391 . S
H474 C482 0.950 . S
H475 C487 0.950 . S
H476 C484 0.950 . S
H477 C486 0.950 . S
H478 C488 0.950 . S
H479 C490 0.950 . S
H480 C492 0.950 . S
H481 C493 0.950 . S
C482 H474 0.950 . S
C482 C483 1.386 . S
C482 C484 1.391 . S
C483 C482 1.386 . S
C483 C487 1.393 . S
C484 H476 0.950 . S
C484 C482 1.391 . S
C484 C485 1.400 . S
C485 C484 1.400 . S
C485 C486 1.398 . S
C485 C491 1.491 . S
C486 H477 0.950 . S
C486 C485 1.398 . S
C486 C487 1.391 . S
C487 H475 0.950 . S
C487 C483 1.393 . S
C487 C486 1.391 . S
C488 H478 0.950 . S
C488 C489 1.386 . S
C488 C490 1.391 . S
C489 C488 1.386 . S
C489 C493 1.393 . S
C490 H479 0.950 . S
C490 C488 1.391 . S
C490 C491 1.400 . S
C491 C485 1.491 . S
C491 C490 1.400 . S
C491 C492 1.398 . S
C492 H480 0.950 . S
C492 C491 1.398 . S
C492 C493 1.391 . S
C493 H481 0.950 . S
C493 C489 1.393 . S
C493 C492 1.391 . S
H494 C502 0.950 . S
H495 C507 0.950 . S
H496 C504 0.950 . S
H497 C506 0.950 . S
H498 C508 0.950 . S
H499 C510 0.950 . S
H500 C512 0.950 . S
H501 C513 0.950 . S
C502 H494 0.950 . S
C502 C503 1.386 . S
C502 C504 1.391 . S
C503 C502 1.386 . S
C503 C507 1.393 . S
C504 H496 0.950 . S
C504 C502 1.391 . S
C504 C505 1.400 . S
C505 C504 1.400 . S
C505 C506 1.398 . S
C505 C511 1.491 . S
C506 H497 0.950 . S
C506 C505 1.398 . S
C506 C507 1.391 . S
C507 H495 0.950 . S
C507 C503 1.393 . S
C507 C506 1.391 . S
C508 H498 0.950 . S
C508 C509 1.386 . S
C508 C510 1.391 . S
C509 C508 1.386 . S
C509 C513 1.393 . S
C510 H499 0.950 . S
C510 C508 1.391 . S
C510 C511 1.400 . S
C511 C505 1.491 . S
C511 C510 1.400 . S
C511 C512 1.398 . S
C512 H500 0.950 . S
C512 C511 1.398 . S
C512 C513 1.391 . S
C513 H501 0.950 . S
C513 C509 1.393 . S
C513 C512 1.391 . S
H514 C522 0.950 . S
H515 C527 0.950 . S
H516 C524 0.950 . S
H517 C526 0.950 . S
H518 C528 0.950 . S
H519 C530 0.950 . S
H520 C532 0.950 . S
H521 C533 0.950 . S
C522 H514 0.950 . S
C522 C523 1.386 . S
C522 C524 1.391 . S
C523 C522 1.386 . S
C523 C527 1.393 . S
C524 H516 0.950 . S
C524 C522 1.391 . S
C524 C525 1.400 . S
C525 C524 1.400 . S
C525 C526 1.398 . S
C525 C531 1.491 . S
C526 H517 0.950 . S
C526 C525 1.398 . S
C526 C527 1.391 . S
C527 H515 0.950 . S
C527 C523 1.393 . S
C527 C526 1.391 . S
C528 H518 0.950 . S
C528 C529 1.386 . S
C528 C530 1.391 . S
C529 C528 1.386 . S
C529 C533 1.393 . S
C530 H519 0.950 . S
C530 C528 1.391 . S
C530 C531 1.400 . S
C531 C525 1.491 . S
C531 C530 1.400 . S
C531 C532 1.398 . S
C532 H520 0.950 . S
C532 C531 1.398 . S
C532 C533 1.391 . S
C533 H521 0.950 . S
C533 C529 1.393 . S
C533 C532 1.391 . S
H534 C542 0.950 . S
H535 C547 0.950 . S
H536 C544 0.950 . S
H537 C546 0.950 . S
H538 C548 0.950 . S
H539 C550 0.950 . S
H540 C552 0.950 . S
H541 C553 0.950 . S
C542 H534 0.950 . S
C542 C543 1.386 . S
C542 C544 1.391 . S
C543 C542 1.386 . S
C543 C547 1.393 . S
C544 H536 0.950 . S
C544 C542 1.391 . S
C544 C545 1.400 . S
C545 C544 1.400 . S
C545 C546 1.398 . S
C545 C551 1.491 . S
C546 H537 0.950 . S
C546 C545 1.398 . S
C546 C547 1.391 . S
C547 H535 0.950 . S
C547 C543 1.393 . S
C547 C546 1.391 . S
C548 H538 0.950 . S
C548 C549 1.386 . S
C548 C550 1.391 . S
C549 C548 1.386 . S
C549 C553 1.393 . S
C550 H539 0.950 . S
C550 C548 1.391 . S
C550 C551 1.400 . S
C551 C545 1.491 . S
C551 C550 1.400 . S
C551 C552 1.398 . S
C552 H540 0.950 . S
C552 C551 1.398 . S
C552 C553 1.391 . S
C553 H541 0.950 . S
C553 C549 1.393 . S
C553 C552 1.391 . S
H554 C562 0.950 . S
H555 C567 0.950 . S
H556 C564 0.950 . S
H557 C566 0.950 . S
H558 C568 0.950 . S
H559 C570 0.950 . S
H560 C572 0.950 . S
H561 C573 0.950 . S
C562 H554 0.950 . S
C562 C563 1.386 . S
C562 C564 1.391 . S
C563 C562 1.386 . S
C563 C567 1.393 . S
C564 H556 0.950 . S
C564 C562 1.391 . S
C564 C565 1.400 . S
C565 C564 1.400 . S
C565 C566 1.398 . S
C565 C571 1.491 . S
C566 H557 0.950 . S
C566 C565 1.398 . S
C566 C567 1.391 . S
C567 H555 0.950 . S
C567 C563 1.393 . S
C567 C566 1.391 . S
C568 H558 0.950 . S
C568 C569 1.386 . S
C568 C570 1.391 . S
C569 C568 1.386 . S
C569 C573 1.393 . S
C570 H559 0.950 . S
C570 C568 1.391 . S
C570 C571 1.400 . S
C571 C565 1.491 . S
C571 C570 1.400 . S
C571 C572 1.398 . S
C572 H560 0.950 . S
C572 C571 1.398 . S
C572 C573 1.391 . S
C573 H561 0.950 . S
C573 C569 1.393 . S
C573 C572 1.391 . S
H574 C582 0.950 . S
H575 C587 0.950 . S
H576 C584 0.950 . S
H577 C586 0.950 . S
H578 C588 0.950 . S
H579 C590 0.950 . S
H580 C592 0.950 . S
H581 C593 0.950 . S
C582 H574 0.950 . S
C582 C583 1.386 . S
C582 C584 1.391 . S
C583 C582 1.386 . S
C583 C587 1.393 . S
C584 H576 0.950 . S
C584 C582 1.391 . S
C584 C585 1.400 . S
C585 C584 1.400 . S
C585 C586 1.398 . S
C585 C591 1.491 . S
C586 H577 0.950 . S
C586 C585 1.398 . S
C586 C587 1.391 . S
C587 H575 0.950 . S
C587 C583 1.393 . S
C587 C586 1.391 . S
C588 H578 0.950 . S
C588 C589 1.386 . S
C588 C590 1.391 . S
C589 C588 1.386 . S
C589 C593 1.393 . S
C590 H579 0.950 . S
C590 C588 1.391 . S
C590 C591 1.400 . S
C591 C585 1.491 . S
C591 C590 1.400 . S
C591 C592 1.398 . S
C592 H580 0.950 . S
C592 C591 1.398 . S
C592 C593 1.391 . S
C593 H581 0.950 . S
C593 C589 1.393 . S
C593 C592 1.391 . S
H594 C602 0.950 . S
H595 C607 0.950 . S
H596 C604 0.950 . S
H597 C606 0.950 . S
H598 C608 0.950 . S
H599 C610 0.950 . S
H600 C612 0.950 . S
H601 C613 0.950 . S
C602 H594 0.950 . S
C602 C603 1.386 . S
C602 C604 1.391 . S
C603 C602 1.386 . S
C603 C607 1.393 . S
C604 H596 0.950 . S
C604 C602 1.391 . S
C604 C605 1.400 . S
C605 C604 1.400 . S
C605 C606 1.398 . S
C605 C611 1.491 . S
C606 H597 0.950 . S
C606 C605 1.398 . S
C606 C607 1.391 . S
C607 H595 0.950 . S
C607 C603 1.393 . S
C607 C606 1.391 . S
C608 H598 0.950 . S
C608 C609 1.386 . S
C608 C610 1.391 . S
C609 C608 1.386 . S
C609 C613 1.393 . S
C610 H599 0.950 . S
C610 C608 1.391 . S
C610 C611 1.400 . S
C611 C605 1.491 . S
C611 C610 1.400 . S
C611 C612 1.398 . S
C612 H600 0.950 . S
C612 C611 1.398 . S
C612 C613 1.391 . S
C613 H601 0.950 . S
C613 C609 1.393 . S
C613 C612 1.391 . S
H614 C622 0.950 . S
H615 C627 0.950 . S
H616 C624 0.950 . S
H617 C626 0.950 . S
H618 C628 0.950 . S
H619 C630 0.950 . S
H620 C632 0.950 . S
H621 C633 0.950 . S
C622 H614 0.950 . S
C622 C623 1.386 . S
C622 C624 1.391 . S
C623 C622 1.386 . S
C623 C627 1.393 . S
C624 H616 0.950 . S
C624 C622 1.391 . S
C624 C625 1.400 . S
C625 C624 1.400 . S
C625 C626 1.398 . S
C625 C631 1.491 . S
C626 H617 0.950 . S
C626 C625 1.398 . S
C626 C627 1.391 . S
C627 H615 0.950 . S
C627 C623 1.393 . S
C627 C626 1.391 . S
C628 H618 0.950 . S
C628 C629 1.386 . S
C628 C630 1.391 . S
C629 C628 1.386 . S
C629 C633 1.393 . S
C630 H619 0.950 . S
C630 C628 1.391 . S
C630 C631 1.400 . S
C631 C625 1.491 . S
C631 C630 1.400 . S
C631 C632 1.398 . S
C632 H620 0.950 . S
C632 C631 1.398 . S
C632 C633 1.391 . S
C633 H621 0.950 . S
C633 C629 1.393 . S
C633 C632 1.391 . S
H634 C642 0.950 . S
H635 C647 0.950 . S
H636 C644 0.950 . S
H637 C646 0.950 . S
H638 C648 0.950 . S
H639 C650 0.950 . S
H640 C652 0.950 . S
H641 C653 0.950 . S
C642 H634 0.950 . S
C642 C643 1.386 . S
C642 C644 1.391 . S
C643 C642 1.386 . S
C643 C647 1.393 . S
C644 H636 0.950 . S
C644 C642 1.391 . S
C644 C645 1.400 . S
C645 C644 1.400 . S
C645 C646 1.398 . S
C645 C651 1.491 . S
C646 H637 0.950 . S
C646 C645 1.398 . S
C646 C647 1.391 . S
C647 H635 0.950 . S
C647 C643 1.393 . S
C647 C646 1.391 . S
C648 H638 0.950 . S
C648 C649 1.386 . S
C648 C650 1.391 . S
C649 C648 1.386 . S
C649 C653 1.393 . S
C650 H639 0.950 . S
C650 C648 1.391 . S
C650 C651 1.400 . S
C651 C645 1.491 . S
C651 C650 1.400 . S
C651 C652 1.398 . S
C652 H640 0.950 . S
C652 C651 1.398 . S
C652 C653 1.391 . S
C653 H641 0.950 . S
C653 C649 1.393 . S
C653 C652 1.391 . S
H654 C662 0.950 . S
H655 C667 0.950 . S
H656 C664 0.950 . S
H657 C666 0.950 . S
H658 C668 0.950 . S
H659 C670 0.950 . S
H660 C672 0.950 . S
H661 C673 0.946 1_556 S
C662 H654 0.950 . S
C662 C663 1.386 . S
C662 C664 1.391 . S
C663 C662 1.386 . S
C663 C667 1.393 . S
C664 H656 0.950 . S
C664 C662 1.391 . S
C664 C665 1.400 . S
C665 C664 1.400 . S
C665 C666 1.398 . S
C665 C671 1.491 . S
C666 H657 0.950 . S
C666 C665 1.398 . S
C666 C667 1.391 . S
C667 H655 0.950 . S
C667 C663 1.393 . S
C667 C666 1.391 . S
C668 H658 0.950 . S
C668 C669 1.386 . S
C668 C670 1.391 . S
C669 C668 1.386 . S
C669 C673 1.442 . S
C670 H659 0.950 . S
C670 C668 1.391 . S
C670 C671 1.400 1_554 S
C671 C665 1.491 . S
C671 C670 1.400 1_556 S
C671 C672 1.398 . S
C672 H660 0.950 . S
C672 C671 1.398 . S
C672 C673 1.347 1_556 S
C673 H661 0.946 1_554 S
C673 C669 1.442 . S
C673 C672 1.347 1_554 S
H674 C682 0.950 . S
H675 C687 0.950 . S
H676 C684 0.950 . S
H677 C686 0.950 . S
H678 C688 0.950 . S
H679 C690 0.950 . S
H680 C692 0.950 . S
H681 C693 0.950 . S
C682 H674 0.950 . S
C682 C683 1.386 . S
C682 C684 1.391 . S
C683 C682 1.386 . S
C683 C687 1.393 . S
C684 H676 0.950 . S
C684 C682 1.391 . S
C684 C685 1.400 . S
C685 C684 1.400 . S
C685 C686 1.398 . S
C685 C691 1.491 . S
C686 H677 0.950 . S
C686 C685 1.398 . S
C686 C687 1.391 . S
C687 H675 0.950 . S
C687 C683 1.393 . S
C687 C686 1.391 . S
C688 H678 0.950 . S
C688 C689 1.386 . S
C688 C690 1.391 . S
C689 C688 1.386 . S
C689 C693 1.393 . S
C690 H679 0.950 . S
C690 C688 1.391 . S
C690 C691 1.400 . S
C691 C685 1.491 . S
C691 C690 1.400 . S
C691 C692 1.398 . S
C692 H680 0.950 . S
C692 C691 1.398 . S
C692 C693 1.391 . S
C693 H681 0.950 . S
C693 C689 1.393 . S
C693 C692 1.391 . S
H694 C702 0.950 . S
H695 C707 0.950 . S
H696 C704 0.950 . S
H697 C706 0.950 . S
H698 C708 0.950 . S
H699 C710 0.950 . S
H700 C712 0.950 . S
H701 C713 0.950 . S
C702 H694 0.950 . S
C702 C703 1.386 . S
C702 C704 1.391 . S
C703 C702 1.386 . S
C703 C707 1.393 . S
C704 H696 0.950 . S
C704 C702 1.391 . S
C704 C705 1.400 . S
C705 C704 1.400 . S
C705 C706 1.398 . S
C705 C711 1.491 . S
C706 H697 0.950 . S
C706 C705 1.398 . S
C706 C707 1.391 . S
C707 H695 0.950 . S
C707 C703 1.393 . S
C707 C706 1.391 . S
C708 H698 0.950 . S
C708 C709 1.386 . S
C708 C710 1.391 . S
C709 C708 1.386 . S
C709 C713 1.393 . S
C710 H699 0.950 . S
C710 C708 1.391 . S
C710 C711 1.400 . S
C711 C705 1.491 . S
C711 C710 1.400 . S
C711 C712 1.398 . S
C712 H700 0.950 . S
C712 C711 1.398 . S
C712 C713 1.391 . S
C713 H701 0.950 . S
C713 C709 1.393 . S
C713 C712 1.391 . S
H714 C722 0.950 . S
H715 C727 0.950 . S
H716 C724 0.950 . S
H717 C726 0.950 . S
H718 C728 0.950 . S
H719 C730 0.950 . S
H720 C732 0.950 . S
H721 C733 0.950 . S
C722 H714 0.950 . S
C722 C723 1.386 . S
C722 C724 1.391 . S
C723 C722 1.386 . S
C723 C727 1.393 . S
C724 H716 0.950 . S
C724 C722 1.391 . S
C724 C725 1.400 . S
C725 C724 1.400 . S
C725 C726 1.398 . S
C725 C731 1.491 . S
C726 H717 0.950 . S
C726 C725 1.398 . S
C726 C727 1.391 . S
C727 H715 0.950 . S
C727 C723 1.393 . S
C727 C726 1.391 . S
C728 H718 0.950 . S
C728 C729 1.386 . S
C728 C730 1.391 . S
C729 C728 1.386 . S
C729 C733 1.393 . S
C730 H719 0.950 . S
C730 C728 1.391 . S
C730 C731 1.400 . S
C731 C725 1.491 . S
C731 C730 1.400 . S
C731 C732 1.398 . S
C732 H720 0.950 . S
C732 C731 1.398 . S
C732 C733 1.391 . S
C733 H721 0.950 . S
C733 C729 1.393 . S
C733 C732 1.391 . S
H734 C742 0.950 . S
H735 C747 0.950 . S
H736 C744 0.950 . S
H737 C746 0.950 . S
H738 C748 0.950 . S
H739 C750 0.950 . S
H740 C752 0.950 . S
H741 C753 0.950 . S
C742 H734 0.950 . S
C742 C743 1.386 . S
C742 C744 1.391 . S
C743 C742 1.386 . S
C743 C747 1.393 . S
C744 H736 0.950 . S
C744 C742 1.391 . S
C744 C745 1.400 . S
C745 C744 1.400 . S
C745 C746 1.398 . S
C745 C751 1.491 . S
C746 H737 0.950 . S
C746 C745 1.398 . S
C746 C747 1.391 . S
C747 H735 0.950 . S
C747 C743 1.393 . S
C747 C746 1.391 . S
C748 H738 0.950 . S
C748 C749 1.386 . S
C748 C750 1.391 . S
C749 C748 1.386 . S
C749 C753 1.393 . S
C750 H739 0.950 . S
C750 C748 1.391 . S
C750 C751 1.400 . S
C751 C745 1.491 . S
C751 C750 1.400 . S
C751 C752 1.398 . S
C752 H740 0.950 . S
C752 C751 1.398 . S
C752 C753 1.391 . S
C753 H741 0.950 . S
C753 C749 1.393 . S
C753 C752 1.391 . S
H754 C762 0.950 . S
H755 C767 0.950 . S
H756 C764 0.950 . S
H757 C766 0.950 . S
H758 C768 0.950 . S
H759 C770 0.950 . S
H760 C772 0.950 . S
H761 C773 0.950 . S
C762 H754 0.950 . S
C762 C763 1.386 . S
C762 C764 1.391 . S
C763 C762 1.386 . S
C763 C767 1.393 . S
C764 H756 0.950 . S
C764 C762 1.391 . S
C764 C765 1.400 . S
C765 C764 1.400 . S
C765 C766 1.398 . S
C765 C771 1.491 . S
C766 H757 0.950 . S
C766 C765 1.398 . S
C766 C767 1.391 . S
C767 H755 0.950 . S
C767 C763 1.393 . S
C767 C766 1.391 . S
C768 H758 0.950 . S
C768 C769 1.386 . S
C768 C770 1.391 . S
C769 C768 1.386 . S
C769 C773 1.393 . S
C770 H759 0.950 . S
C770 C768 1.391 . S
C770 C771 1.400 . S
C771 C765 1.491 . S
C771 C770 1.400 . S
C771 C772 1.398 . S
C772 H760 0.950 . S
C772 C771 1.398 . S
C772 C773 1.391 . S
C773 H761 0.950 . S
C773 C769 1.393 . S
C773 C772 1.391 . S
H774 C782 0.950 . S
H775 C787 0.950 . S
H776 C784 0.950 . S
H777 C786 0.950 . S
H778 C788 0.950 . S
H779 C790 0.950 . S
H780 C792 0.950 . S
H781 C793 0.950 . S
C782 H774 0.950 . S
C782 C783 1.386 . S
C782 C784 1.391 . S
C783 C782 1.386 . S
C783 C787 1.393 . S
C784 H776 0.950 . S
C784 C782 1.391 . S
C784 C785 1.400 . S
C785 C784 1.400 . S
C785 C786 1.398 . S
C785 C791 1.491 . S
C786 H777 0.950 . S
C786 C785 1.398 . S
C786 C787 1.391 . S
C787 H775 0.950 . S
C787 C783 1.393 . S
C787 C786 1.391 . S
C788 H778 0.950 . S
C788 C789 1.386 . S
C788 C790 1.391 . S
C789 C788 1.386 . S
C789 C793 1.393 . S
C790 H779 0.950 . S
C790 C788 1.391 . S
C790 C791 1.400 . S
C791 C785 1.491 . S
C791 C790 1.400 . S
C791 C792 1.398 . S
C792 H780 0.950 . S
C792 C791 1.398 . S
C792 C793 1.391 . S
C793 H781 0.950 . S
C793 C789 1.393 . S
C793 C792 1.391 . S
H794 C802 0.950 . S
H795 C807 0.950 . S
H796 C804 0.950 . S
H797 C806 0.950 . S
H798 C808 0.950 . S
H799 C810 0.950 . S
H800 C812 0.950 . S
H801 C813 0.950 . S
C802 H794 0.950 . S
C802 C803 1.386 . S
C802 C804 1.391 . S
C803 C802 1.386 . S
C803 C807 1.393 . S
C804 H796 0.950 . S
C804 C802 1.391 . S
C804 C805 1.400 . S
C805 C804 1.400 . S
C805 C806 1.398 . S
C805 C811 1.491 . S
C806 H797 0.950 . S
C806 C805 1.398 . S
C806 C807 1.391 . S
C807 H795 0.950 . S
C807 C803 1.393 . S
C807 C806 1.391 . S
C808 H798 0.950 . S
C808 C809 1.386 . S
C808 C810 1.391 . S
C809 C808 1.386 . S
C809 C813 1.393 . S
C810 H799 0.950 . S
C810 C808 1.391 . S
C810 C811 1.400 1_556 S
C811 C805 1.491 . S
C811 C810 1.400 1_554 S
C811 C812 1.398 . S
C812 H800 0.950 . S
C812 C811 1.398 . S
C812 C813 1.391 1_554 S
C813 H801 0.950 . S
C813 C809 1.393 . S
C813 C812 1.391 1_556 S
H814 C822 0.950 . S
H815 C827 0.950 . S
H816 C824 0.950 . S
H817 C826 0.950 . S
H818 C828 0.950 . S
H819 C830 0.950 . S
H820 C832 0.950 . S
H821 C833 0.950 . S
C822 H814 0.950 . S
C822 C823 1.386 . S
C822 C824 1.391 . S
C823 C822 1.386 . S
C823 C827 1.393 . S
C824 H816 0.950 . S
C824 C822 1.391 . S
C824 C825 1.400 . S
C825 C824 1.400 . S
C825 C826 1.398 . S
C825 C831 1.491 . S
C826 H817 0.950 . S
C826 C825 1.398 . S
C826 C827 1.391 . S
C827 H815 0.950 . S
C827 C823 1.393 . S
C827 C826 1.391 . S
C828 H818 0.950 . S
C828 C829 1.386 . S
C828 C830 1.391 . S
C829 C828 1.386 . S
C829 C833 1.393 . S
C830 H819 0.950 . S
C830 C828 1.391 . S
C830 C831 1.400 . S
C831 C825 1.491 . S
C831 C830 1.400 . S
C831 C832 1.398 . S
C832 H820 0.950 . S
C832 C831 1.398 . S
C832 C833 1.391 . S
C833 H821 0.950 . S
C833 C829 1.393 . S
C833 C832 1.391 . S
C369 C346 1.566 . S
C363 C15 1.556 . S
C383 C61 1.557 . S
C389 C281 1.567 . S
C403 C114 1.560 . S
C409 C299 1.565 . S
C423 C139 1.552 . S
C429 C312 1.555 . S
C449 C320 1.569 . S
C443 C185 1.564 . S
C463 C245 1.550 . S
C469 C332 1.564 . S
C483 C47 1.562 . S
C489 C294 1.566 . S
C503 C100 1.559 . S
C509 C307 1.565 . S
C523 C153 1.559 . S
C529 C325 1.564 . S
C549 C331 1.569 . S
C543 C199 1.558 . S
C569 C351 1.557 . S
C563 C231 1.551 . S
C589 C286 1.565 . S
C583 C1 1.558 . S
C603 C22 1.566 . S
C609 C292 1.583 . S
C623 C68 1.578 . S
C629 C305 1.588 . S
C649 C319 1.585 . S
C643 C107 1.570 . S
C663 C146 1.588 . S
C669 C333 1.592 . S
C689 C345 1.581 . S
C683 C192 1.576 . S
C709 C280 1.582 . S
C703 C252 1.577 . S
C729 C344 1.588 . S
C723 C54 1.580 . S
C743 C93 1.577 . S
C749 C279 1.582 . S
C769 C293 1.581 . S
C763 C160 1.575 . S
C783 C206 1.563 . S
C789 C306 1.575 . S
C803 C238 1.589 . S
C809 C318 1.592 . S
C823 C8 1.576 . S
C829 C338 1.581 . S
