# Generated by pormake.
# Topology pyr, (3,6)-cn, num edge types: 1
# Building blocks:
#     Node 0, Type 0, BuildingBlock: CUQRIR_clean_linker_1, # of connection points: 3
#     Node 1, Type 0, BuildingBlock: CUQRIR_clean_linker_1, # of connection points: 3
#     Node 2, Type 0, BuildingBlock: CUQRIR_clean_linker_1, # of connection points: 3
#     Node 3, Type 0, BuildingBlock: CUQRIR_clean_linker_1, # of connection points: 3
#     Node 4, Type 0, BuildingBlock: CUQRIR_clean_linker_1, # of connection points: 3
#     Node 5, Type 0, BuildingBlock: CUQRIR_clean_linker_1, # of connection points: 3
#     Node 6, Type 0, BuildingBlock: CUQRIR_clean_linker_1, # of connection points: 3
#     Node 7, Type 0, BuildingBlock: CUQRIR_clean_linker_1, # of connection points: 3
#     Node 8, Type 1, BuildingBlock: MIDCAF_clean_sbu_0, # of connection points: 6
#     Node 9, Type 1, BuildingBlock: MIDCAF_clean_sbu_0, # of connection points: 6
#     Node 10, Type 1, BuildingBlock: MIDCAF_clean_sbu_0, # of connection points: 6
#     Node 11, Type 1, BuildingBlock: MIDCAF_clean_sbu_0, # of connection points: 6
#     Edge 12, Type (0, 1), BuildingBlock: CIFDUS_clean_linker_0, # of connection points: 2
#     Edge 13, Type (0, 1), BuildingBlock: CIFDUS_clean_linker_0, # of connection points: 2
#     Edge 14, Type (0, 1), BuildingBlock: CIFDUS_clean_linker_0, # of connection points: 2
#     Edge 15, Type (0, 1), BuildingBlock: CIFDUS_clean_linker_0, # of connection points: 2
#     Edge 16, Type (0, 1), BuildingBlock: CIFDUS_clean_linker_0, # of connection points: 2
#     Edge 17, Type (0, 1), BuildingBlock: CIFDUS_clean_linker_0, # of connection points: 2
#     Edge 18, Type (0, 1), BuildingBlock: CIFDUS_clean_linker_0, # of connection points: 2
#     Edge 19, Type (0, 1), BuildingBlock: CIFDUS_clean_linker_0, # of connection points: 2
#     Edge 20, Type (0, 1), BuildingBlock: CIFDUS_clean_linker_0, # of connection points: 2
#     Edge 21, Type (0, 1), BuildingBlock: CIFDUS_clean_linker_0, # of connection points: 2
#     Edge 22, Type (0, 1), BuildingBlock: CIFDUS_clean_linker_0, # of connection points: 2
#     Edge 23, Type (0, 1), BuildingBlock: CIFDUS_clean_linker_0, # of connection points: 2
#     Edge 24, Type (0, 1), BuildingBlock: CIFDUS_clean_linker_0, # of connection points: 2
#     Edge 25, Type (0, 1), BuildingBlock: CIFDUS_clean_linker_0, # of connection points: 2
#     Edge 26, Type (0, 1), BuildingBlock: CIFDUS_clean_linker_0, # of connection points: 2
#     Edge 27, Type (0, 1), BuildingBlock: CIFDUS_clean_linker_0, # of connection points: 2
#     Edge 28, Type (0, 1), BuildingBlock: CIFDUS_clean_linker_0, # of connection points: 2
#     Edge 29, Type (0, 1), BuildingBlock: CIFDUS_clean_linker_0, # of connection points: 2
#     Edge 30, Type (0, 1), BuildingBlock: CIFDUS_clean_linker_0, # of connection points: 2
#     Edge 31, Type (0, 1), BuildingBlock: CIFDUS_clean_linker_0, # of connection points: 2
#     Edge 32, Type (0, 1), BuildingBlock: CIFDUS_clean_linker_0, # of connection points: 2
#     Edge 33, Type (0, 1), BuildingBlock: CIFDUS_clean_linker_0, # of connection points: 2
#     Edge 34, Type (0, 1), BuildingBlock: CIFDUS_clean_linker_0, # of connection points: 2
#     Edge 35, Type (0, 1), BuildingBlock: CIFDUS_clean_linker_0, # of connection points: 2
# Relax obj value: 0.105
# Max RMSD: 0.207
# Mean RMSD: 0.152
data_MOF--net-pyr--node1-MIDCAF_clean_sbu_0--node2-CUQRIR_clean_linker_1--edge1-CIFDUS_clean_linker_0
_symmetry_space_group_name_H-M    P1
_symmetry_Int_Tables_number       1
_symmetry_cell_setting            triclinic
loop_
_symmetry_equiv_pos_as_xyz
'x, y, z'
_cell_length_a     28.390689
_cell_length_b     28.450792
_cell_length_c     27.875254
_cell_angle_alpha  88.091484
_cell_angle_beta   92.124667
_cell_angle_gamma 93.338747
loop_
_atom_site_label
_atom_site_type_symbol
_atom_site_fract_x
_atom_site_fract_y
_atom_site_fract_z
_atom_type_partial_charge
C0 C 0.21875 0.28653 0.26539 0.0
N1 N 0.23955 0.24539 0.27651 0.0
N2 N 0.23175 0.30448 0.22188 0.0
C3 C 0.18562 0.30999 0.29683 0.0
C4 C 0.26295 0.27383 0.20781 0.0
N5 N 0.26835 0.2385 0.24103 0.0
C6 C 0.28467 0.2758 0.15933 0.0
H7 H 0.14883 0.30391 0.28257 0.0
H8 H 0.19382 0.34854 0.29636 0.0
H9 H 0.18847 0.29681 0.33464 0.0
H10 H 0.28131 0.31082 0.14119 0.0
H11 H 0.26671 0.24832 0.1367 0.0
H12 H 0.32253 0.26819 0.16314 0.0
C13 C 0.27354 0.77181 0.74544 0.0
N14 N 0.27536 0.81519 0.76468 0.0
N15 N 0.3143 0.75014 0.75428 0.0
C16 C 0.23256 0.7519 0.71514 0.0
C17 C 0.34091 0.78133 0.78087 0.0
N18 N 0.31707 0.8203 0.78834 0.0
C19 C 0.39302 0.77762 0.79198 0.0
H20 H 0.23407 0.7133 0.71159 0.0
H21 H 0.23289 0.76934 0.67893 0.0
H22 H 0.19879 0.75898 0.73152 0.0
H23 H 0.41085 0.81264 0.79874 0.0
H24 H 0.41027 0.76207 0.76166 0.0
H25 H 0.39802 0.75428 0.82422 0.0
C26 C 0.65722 0.29957 0.81504 0.0
N27 N 0.68154 0.30168 0.8577 0.0
N28 N 0.66872 0.33749 0.78628 0.0
C29 C 0.62005 0.26152 0.80265 0.0
C30 C 0.70161 0.36261 0.81291 0.0
N31 N 0.70938 0.34096 0.8563 0.0
C32 C 0.72182 0.41105 0.79887 0.0
H33 H 0.61095 0.26191 0.7636 0.0
H34 H 0.58788 0.26661 0.82286 0.0
H35 H 0.63271 0.22644 0.81347 0.0
H36 H 0.7358 0.43066 0.83056 0.0
H37 H 0.69462 0.43186 0.77983 0.0
H38 H 0.75105 0.40754 0.77413 0.0
C39 C 0.77209 0.7272 0.27031 0.0
N40 N 0.81305 0.75402 0.26808 0.0
N41 N 0.74247 0.74468 0.30127 0.0
C42 C 0.76412 0.67959 0.2484 0.0
C43 C 0.76683 0.78381 0.31697 0.0
N44 N 0.81069 0.78869 0.29871 0.0
C45 C 0.74675 0.81667 0.35112 0.0
H46 H 0.728 0.66413 0.25463 0.0
H47 H 0.79042 0.65557 0.26414 0.0
H48 H 0.76932 0.68274 0.20917 0.0
H49 H 0.74969 0.80173 0.38832 0.0
H50 H 0.70859 0.81987 0.34234 0.0
H51 H 0.76515 0.85214 0.34922 0.0
C52 C 0.88035 0.92912 0.95766 0.0
N53 N 0.91704 0.91615 0.93228 0.0
N54 N 0.86534 0.97095 0.94082 0.0
C55 C 0.85948 0.90161 0.99967 0.0
C56 C 0.89417 0.98337 0.90453 0.0
N57 N 0.92619 0.95044 0.89972 0.0
C58 C 0.89037 0.02701 0.87304 0.0
H59 H 0.83089 0.87668 0.98622 0.0
H60 H 0.8439 0.92518 0.02488 0.0
H61 H 0.88659 0.88129 0.01948 0.0
H62 H 0.91877 0.05336 0.88395 0.0
H63 H 0.85579 0.04267 0.87627 0.0
H64 H 0.89542 0.01876 0.835 0.0
C65 C 0.69491 0.1854 0.47613 0.0
N66 N 0.69802 0.15122 0.44373 0.0
N67 N 0.66128 0.21507 0.46175 0.0
C68 C 0.72316 0.18852 0.52267 0.0
C69 C 0.64413 0.19807 0.41953 0.0
N70 N 0.66591 0.15895 0.40872 0.0
C71 C 0.60745 0.22124 0.38784 0.0
H72 H 0.72407 0.22457 0.53675 0.0
H73 H 0.75971 0.17811 0.5178 0.0
H74 H 0.70661 0.16373 0.54953 0.0
H75 H 0.6129 0.21514 0.34938 0.0
H76 H 0.6085 0.25973 0.39337 0.0
H77 H 0.57192 0.20609 0.3971 0.0
C78 C 0.41473 0.55845 0.10501 0.0
N79 N 0.44371 0.59524 0.11924 0.0
N80 N 0.38798 0.57066 0.0659 0.0
C81 C 0.40775 0.51268 0.13325 0.0
C82 C 0.40169 0.61636 0.05695 0.0
N83 N 0.43468 0.63172 0.09001 0.0
C84 C 0.38048 0.64643 0.01721 0.0
H85 H 0.3824 0.48767 0.11465 0.0
H86 H 0.39466 0.51975 0.1692 0.0
H87 H 0.44199 0.49606 0.1387 0.0
H88 H 0.34696 0.65962 0.02918 0.0
H89 H 0.37222 0.62538 0.98491 0.0
H90 H 0.40483 0.67679 0.00722 0.0
C91 C 0.07347 0.3725 0.66107 0.0
N92 N 0.10599 0.37534 0.62668 0.0
N93 N 0.07347 0.41337 0.68433 0.0
C94 C 0.04432 0.32852 0.67452 0.0
C95 C 0.10771 0.44115 0.66326 0.0
N96 N 0.12797 0.41786 0.62839 0.0
C97 C 0.12216 0.4904 0.67814 0.0
H98 H 0.03216 0.30936 0.6419 0.0
H99 H 0.01332 0.33687 0.6951 0.0
H100 H 0.06652 0.30499 0.69704 0.0
H101 H 0.14867 0.4887 0.70833 0.0
H102 H 0.09147 0.50828 0.69079 0.0
H103 H 0.13781 0.51157 0.64797 0.0
Zn104 Zn 0.98414 0.06869 0.58476 0.0
Zn105 Zn 0.09447 0.9685 0.4819 0.0
Zn106 Zn 0.03426 0.01867 0.53319 0.0
C107 C 0.11716 0.06329 0.46189 0.0
C108 C 0.99801 0.94588 0.45191 0.0
O109 O 0.0348 0.99128 0.6107 0.0
O110 O 0.99299 0.04051 0.64902 0.0
C111 C 0.0492 0.1319 0.54316 0.0
O112 O 0.08465 0.06702 0.49261 0.0
O113 O 0.12884 0.02324 0.45013 0.0
O114 O 0.03989 0.93496 0.44567 0.0
O115 O 0.9895 0.97726 0.48225 0.0
O116 O 0.01571 0.131 0.57167 0.0
O117 O 0.06122 0.09365 0.52465 0.0
O118 O 0.96123 0.01242 0.5009 0.0
O119 O 0.92301 0.05429 0.55058 0.0
C120 C 0.92284 0.02988 0.5136 0.0
O121 O 0.07118 0.972 0.58571 0.0
O122 O 0.1244 0.94092 0.54199 0.0
C123 C 0.01655 0.00434 0.64964 0.0
C124 C 0.1071 0.94667 0.5824 0.0
Zn125 Zn 0.45947 0.06577 0.03136 0.0
Zn126 Zn 0.57141 0.96878 0.11179 0.0
Zn127 Zn 0.51396 0.01568 0.07412 0.0
C128 C 0.61776 0.99862 0.03591 0.0
C129 C 0.49895 0.90572 0.09879 0.0
O130 O 0.47954 0.05805 0.12895 0.0
O131 O 0.41685 0.07562 0.08443 0.0
C132 C 0.54647 0.10463 0.00849 0.0
O133 O 0.58304 0.02595 0.0368 0.0
O134 O 0.61931 0.96334 0.0642 0.0
O135 O 0.53404 0.91136 0.1274 0.0
O136 O 0.48658 0.94029 0.07075 0.0
O137 O 0.50548 0.11874 0.01244 0.0
O138 O 0.5557 0.06296 0.02445 0.0
O139 O 0.46298 0.96694 0.03369 0.0
O140 O 0.43641 0.02039 0.98211 0.0
C141 C 0.43915 0.97759 0.99479 0.0
O142 O 0.52091 0.03925 0.14992 0.0
O143 O 0.59031 0.0097 0.16427 0.0
C144 C 0.43807 0.07455 0.12497 0.0
C145 C 0.55873 0.03565 0.17662 0.0
Zn146 Zn 0.53869 0.58256 0.56248 0.0
Zn147 Zn 0.43195 0.47104 0.44573 0.0
Zn148 Zn 0.48235 0.52814 0.50403 0.0
C149 C 0.49745 0.41645 0.49396 0.0
C150 C 0.47138 0.5432 0.388 0.0
O151 O 0.43525 0.56045 0.55271 0.0
O152 O 0.48502 0.60364 0.59875 0.0
C153 C 0.56809 0.49271 0.57633 0.0
O154 O 0.50935 0.45674 0.51194 0.0
O155 O 0.46354 0.41237 0.46354 0.0
O156 O 0.44657 0.50514 0.38451 0.0
O157 O 0.48747 0.55715 0.42929 0.0
O158 O 0.57805 0.53347 0.59147 0.0
O159 O 0.53432 0.48533 0.54479 0.0
O160 O 0.51974 0.58304 0.45855 0.0
O161 O 0.56688 0.62237 0.5102 0.0
C162 C 0.55234 0.61534 0.46754 0.0
O163 O 0.40813 0.52438 0.52802 0.0
O164 O 0.37053 0.4785 0.47483 0.0
C165 C 0.44335 0.58913 0.58722 0.0
C166 C 0.36992 0.50241 0.51214 0.0
Zn167 Zn 0.05207 0.59277 0.95894 0.0
Zn168 Zn 0.95969 0.50418 0.09248 0.0
Zn169 Zn 1.00397 0.5485 0.02197 0.0
C170 C 0.05211 0.48137 0.10588 0.0
C171 C 0.91835 0.47063 0.00595 0.0
O172 O 0.98556 0.62451 0.01553 0.0
O173 O 0.04126 0.65861 0.97064 0.0
C174 C 0.11801 0.55 0.01373 0.0
O175 O 0.05584 0.51393 0.07259 0.0
O176 O 0.01194 0.46635 0.11946 0.0
O177 O 0.90974 0.47234 0.05003 0.0
O178 O 0.95445 0.49445 0.98905 0.0
O179 O 0.11554 0.57095 0.97328 0.0
O180 O 0.08039 0.54078 0.0377 0.0
O181 O 0.98432 0.51499 0.95251 0.0
O182 O 0.0187 0.56658 0.90201 0.0
C183 C 0.99304 0.5296 0.90927 0.0
O184 O 0.96607 0.60266 0.0589 0.0
O185 O 0.94659 0.56311 0.12562 0.0
C186 C 0.00471 0.66165 0.99437 0.0
C187 C 0.94947 0.60146 0.10144 0.0
H188 H 0.15108 0.22141 0.3044 0.0
H189 H 0.29651 0.19023 0.33201 0.0
H190 H 0.27209 0.13069 0.39323 0.0
H191 H 0.20811 0.08695 0.43818 0.0
H192 H 0.06564 0.13114 0.42021 0.0
H193 H 0.09061 0.18929 0.35843 0.0
C194 C 0.17789 0.20327 0.32504 0.0
C195 C 0.22576 0.21099 0.31378 0.0
C196 C 0.16405 0.17212 0.36262 0.0
C197 C 0.25941 0.18471 0.33933 0.0
C198 C 0.24549 0.15111 0.3748 0.0
C199 C 0.18291 0.1102 0.42146 0.0
C200 C 0.1351 0.10487 0.43357 0.0
C201 C 0.19781 0.14452 0.38677 0.0
C202 C 0.10266 0.13501 0.41181 0.0
C203 C 0.11682 0.16782 0.37609 0.0
H204 H 0.35521 0.80365 0.87662 0.0
H205 H 0.30957 0.91679 0.78218 0.0
H206 H 0.33946 0.97385 0.83996 0.0
H207 H 0.38428 0.99269 0.91431 0.0
H208 H 0.44225 0.88103 1.00205 0.0
H209 H 0.40296 0.82254 0.94967 0.0
C210 C 0.35237 0.84084 0.86818 0.0
C211 C 0.33072 0.85524 0.82402 0.0
C212 C 0.37225 0.87393 0.90055 0.0
C213 C 0.32563 0.90366 0.81512 0.0
C214 C 0.34335 0.93675 0.84827 0.0
C215 C 0.3883 0.95556 0.92235 0.0
C216 C 0.41524 0.94132 0.96339 0.0
C217 C 0.3676 0.92234 0.89056 0.0
C218 C 0.42032 0.89301 0.97228 0.0
C219 C 0.3983 0.85958 0.94179 0.0
H220 H 0.70335 0.37059 0.70244 0.0
H221 H 0.57466 0.34445 0.77844 0.0
H222 H 0.52981 0.38128 0.71263 0.0
H223 H 0.52901 0.43152 0.63965 0.0
H224 H 0.659 0.4693 0.56972 0.0
H225 H 0.70167 0.4172 0.62587 0.0
C226 C 0.66543 0.37255 0.70398 0.0
C227 C 0.64221 0.35441 0.7448 0.0
C228 C 0.64025 0.39613 0.66704 0.0
C229 C 0.59307 0.35717 0.74684 0.0
C230 C 0.5675 0.37866 0.70945 0.0
C231 C 0.5664 0.427 0.636 0.0
C232 C 0.59102 0.45334 0.60071 0.0
C233 C 0.5909 0.39952 0.67011 0.0
C234 C 0.63958 0.44865 0.59659 0.0
C235 C 0.66391 0.4193 0.62889 0.0
H236 H 0.82317 0.75649 0.17354 0.0
H237 H 0.89125 0.7177 0.30805 0.0
H238 H 0.94601 0.67096 0.26607 0.0
H239 H 0.96423 0.63032 0.19255 0.0
H240 H 0.89045 0.66386 0.05937 0.0
H241 H 0.84885 0.72415 0.09833 0.0
C242 C 0.85139 0.73928 0.19314 0.0
C243 C 0.85374 0.74061 0.24355 0.0
C244 C 0.88111 0.711 0.16881 0.0
C245 C 0.88953 0.71759 0.26918 0.0
C246 C 0.92022 0.69037 0.24518 0.0
C247 C 0.93992 0.65179 0.1719 0.0
C248 C 0.93122 0.64354 0.1227 0.0
C249 C 0.91484 0.68509 0.19525 0.0
C250 C 0.89928 0.67104 0.09648 0.0
C251 C 0.87481 0.70487 0.11914 0.0
H252 H 0.36149 0.22795 0.25209 0.0
H253 H 0.22979 0.15674 0.20907 0.0
H254 H 0.27215 0.09324 0.17571 0.0
H255 H 0.34646 0.06578 0.14725 0.0
H256 H 0.47894 0.13698 0.18901 0.0
H257 H 0.43708 0.19202 0.23573 0.0
C258 C 0.34239 0.19757 0.23682 0.0
C259 C 0.29274 0.19653 0.23299 0.0
C260 C 0.36723 0.16162 0.21725 0.0
C261 C 0.26794 0.15766 0.21266 0.0
C262 C 0.29221 0.12173 0.19332 0.0
C263 C 0.36624 0.09243 0.16792 0.0
C264 C 0.4157 0.09744 0.16464 0.0
C265 C 0.34182 0.12433 0.19376 0.0
C266 C 0.44096 0.13209 0.19141 0.0
C267 C 0.41691 0.16395 0.21758 0.0
H268 H 0.18374 0.83588 0.76727 0.0
H269 H 0.31515 0.87484 0.70058 0.0
H270 H 0.27439 0.92314 0.64001 0.0
H271 H 0.20066 0.94571 0.60003 0.0
H272 H 0.06774 0.90089 0.6606 0.0
H273 H 0.10898 0.86367 0.72953 0.0
C274 C 0.2033 0.85634 0.74035 0.0
C275 C 0.25253 0.85295 0.73903 0.0
C276 C 0.17909 0.88212 0.70403 0.0
C277 C 0.27751 0.87823 0.70302 0.0
C278 C 0.25411 0.90516 0.66802 0.0
C279 C 0.18076 0.92815 0.62862 0.0
C280 C 0.13119 0.92656 0.62576 0.0
C281 C 0.20481 0.90597 0.66717 0.0
C282 C 0.10582 0.90381 0.66293 0.0
C283 C 0.12951 0.88204 0.70196 0.0
H284 H 0.80281 0.35066 0.84921 0.0
H285 H 0.69037 0.37292 0.94364 0.0
H286 H 0.74601 0.41234 0.99997 0.0
H287 H 0.82572 0.44654 0.01909 0.0
H288 H 0.9382 0.42783 0.92328 0.0
H289 H 0.88381 0.38239 0.87 0.0
C290 C 0.79099 0.36329 0.88275 0.0
C291 C 0.74284 0.35739 0.8931 0.0
C292 C 0.82305 0.38789 0.91388 0.0
C293 C 0.72736 0.37495 0.93585 0.0
C294 C 0.75916 0.39842 0.96763 0.0
C295 C 0.83842 0.43229 0.98667 0.0
C296 C 0.88581 0.44168 0.9744 0.0
C297 C 0.80691 0.40588 0.95657 0.0
C298 C 0.90163 0.42276 0.93243 0.0
C299 C 0.87062 0.39615 0.90239 0.0
H300 H 0.64691 0.73438 0.29639 0.0
H301 H 0.77129 0.69116 0.37489 0.0
H302 H 0.72272 0.64581 0.43254 0.0
H303 H 0.64562 0.62159 0.46259 0.0
H304 H 0.51931 0.66253 0.38616 0.0
H305 H 0.56726 0.70505 0.32495 0.0
C306 C 0.66287 0.71454 0.32596 0.0
C307 C 0.71231 0.71582 0.33195 0.0
C308 C 0.63446 0.68837 0.359 0.0
C309 C 0.7332 0.69026 0.37012 0.0
C310 C 0.70553 0.66457 0.40293 0.0
C311 C 0.6286 0.63979 0.43241 0.0
C312 C 0.57922 0.63912 0.42858 0.0
C313 C 0.65626 0.66391 0.39808 0.0
C314 C 0.55737 0.66215 0.3892 0.0
C315 C 0.58482 0.68674 0.3546 0.0
H316 H 0.21916 0.39733 0.23089 0.0
H317 H 0.18006 0.27803 0.144 0.0
H318 H 0.1243 0.32442 0.09642 0.0
H319 H 0.08095 0.39654 0.08457 0.0
H320 H 0.11429 0.51398 0.17555 0.0
H321 H 0.17765 0.47131 0.21664 0.0
C322 C 0.1985 0.38182 0.20137 0.0
C323 C 0.20361 0.33439 0.19086 0.0
C324 C 0.16532 0.40842 0.17513 0.0
C325 C 0.17708 0.31464 0.15224 0.0
C326 C 0.14493 0.34103 0.12535 0.0
C327 C 0.10279 0.41294 0.11284 0.0
C328 C 0.09398 0.45858 0.12642 0.0
C329 C 0.13799 0.3876 0.13711 0.0
C330 C 0.12145 0.47927 0.16381 0.0
C331 C 0.15733 0.45471 0.18751 0.0
H332 H 0.7004 0.21281 0.88185 0.0
H333 H 0.62314 0.32981 0.92224 0.0
H334 H 0.57832 0.27933 0.97874 0.0
H335 H 0.55241 0.19984 0.0066 0.0
H336 H 0.62062 0.08055 0.95644 0.0
H337 H 0.67754 0.13288 0.91406 0.0
C338 C 0.67518 0.22723 0.90479 0.0
C339 C 0.6667 0.27534 0.89993 0.0
C340 C 0.64696 0.19703 0.93437 0.0
C341 C 0.63229 0.29359 0.92777 0.0
C342 C 0.60572 0.26438 0.959 0.0
C343 C 0.58011 0.18534 0.98683 0.0
C344 C 0.58291 0.13624 0.9854 0.0
C345 C 0.61144 0.21576 0.9611 0.0
C346 C 0.61885 0.11803 0.95957 0.0
C347 C 0.65098 0.14808 0.93475 0.0
H348 H 0.83185 0.80266 0.39212 0.0
H349 H 0.88013 0.83803 0.25011 0.0
H350 H 0.94442 0.88946 0.28483 0.0
H351 H 0.9848 0.92654 0.35667 0.0
H352 H 0.92413 0.90161 0.4954 0.0
H353 H 0.86431 0.84623 0.46066 0.0
C354 C 0.85515 0.82291 0.36838 0.0
C355 C 0.85017 0.81746 0.31838 0.0
C356 C 0.88921 0.85493 0.38816 0.0
C357 C 0.88303 0.8416 0.28865 0.0
C358 C 0.91942 0.87138 0.30851 0.0
C359 C 0.95798 0.90936 0.37894 0.0
C360 C 0.95871 0.91792 0.42853 0.0
C361 C 0.92246 0.8788 0.35827 0.0
C362 C 0.92389 0.89576 0.45717 0.0
C363 C 0.89002 0.86384 0.4374 0.0
H364 H 0.30693 0.73133 0.66002 0.0
H365 H 0.35916 0.67829 0.7972 0.0
H366 H 0.40064 0.61824 0.75728 0.0
H367 H 0.43011 0.5886 0.68241 0.0
H368 H 0.3718 0.63674 0.54591 0.0
H369 H 0.32231 0.68975 0.58657 0.0
C370 C 0.32568 0.70543 0.68134 0.0
C371 C 0.33048 0.70949 0.73149 0.0
C372 C 0.34819 0.6703 0.65822 0.0
C373 C 0.35581 0.67624 0.7585 0.0
C374 C 0.37933 0.64192 0.73572 0.0
C375 C 0.40538 0.60968 0.66185 0.0
C376 C 0.4046 0.60941 0.61147 0.0
C377 C 0.37703 0.6397 0.68548 0.0
C378 C 0.3726 0.63648 0.58482 0.0
C379 C 0.34476 0.66706 0.60802 0.0
H380 H 0.92786 0.89662 0.82258 0.0
H381 H 1.00189 0.01052 0.89621 0.0
H382 H 0.04701 0.03174 0.82474 0.0
H383 H 0.05158 0.02838 0.73705 0.0
H384 H 0.97473 0.91704 0.66167 0.0
H385 H 0.94543 0.88324 0.73762 0.0
C386 C 0.95536 0.9247 0.82324 0.0
C387 C 0.96173 0.95224 0.86412 0.0
C388 C 0.9801 0.93742 0.78139 0.0
C389 C 0.9968 0.98903 0.86488 0.0
C390 C 0.02219 0.00133 0.82395 0.0
C391 C 0.03026 0.99546 0.73769 0.0
C392 C 0.01572 0.97485 0.69411 0.0
C393 C 0.01231 0.97733 0.78129 0.0
C394 C 0.98709 0.93291 0.69498 0.0
C395 C 0.96978 0.91401 0.73836 0.0
H396 H 0.58125 0.11868 0.38386 0.0
H397 H 0.72395 0.14231 0.33803 0.0
H398 H 0.70247 0.10628 0.26169 0.0
H399 H 0.64249 0.0725 0.20648 0.0
H400 H 0.49721 0.05529 0.24673 0.0
H401 H 0.51927 0.08748 0.32594 0.0
C402 C 0.60756 0.11507 0.35722 0.0
C403 C 0.65473 0.13104 0.36731 0.0
C404 C 0.59394 0.09748 0.31198 0.0
C405 C 0.68842 0.12754 0.33241 0.0
C406 C 0.6757 0.10825 0.28818 0.0
C407 C 0.61551 0.07602 0.23252 0.0
C408 C 0.56833 0.06162 0.22108 0.0
C409 C 0.62854 0.09382 0.27745 0.0
C410 C 0.53362 0.06677 0.25471 0.0
C411 C 0.5464 0.08448 0.30006 0.0
H412 H 0.42212 0.64415 0.19482 0.0
H413 H 0.51981 0.54803 0.14569 0.0
H414 H 0.54551 0.52941 0.22869 0.0
H415 H 0.5265 0.52779 0.31429 0.0
H416 H 0.42672 0.62204 0.3635 0.0
H417 H 0.41596 0.65525 0.28188 0.0
C418 C 0.45049 0.62082 0.20255 0.0
C419 C 0.46894 0.59699 0.16486 0.0
C420 C 0.46395 0.6095 0.25037 0.0
C421 C 0.50529 0.56641 0.17465 0.0
C422 C 0.51956 0.55553 0.22197 0.0
C423 C 0.50395 0.55692 0.30722 0.0
C424 C 0.47749 0.57274 0.34433 0.0
C425 C 0.4972 0.5749 0.26011 0.0
C426 C 0.44771 0.60988 0.3352 0.0
C427 C 0.44126 0.62849 0.28854 0.0
H428 H 0.00516 0.47162 0.69964 0.0
H429 H 0.09492 0.37136 0.76891 0.0
H430 H 0.06697 0.3906 0.84771 0.0
H431 H 0.02767 0.44575 0.89664 0.0
H432 H 0.9427 0.55056 0.82768 0.0
H433 H 0.95623 0.51905 0.74901 0.0
C434 C 0.0177 0.45367 0.73215 0.0
C435 C 0.05228 0.42076 0.72923 0.0
C436 C 1.00197 0.46558 0.77715 0.0
C437 C 0.06844 0.39705 0.77098 0.0
C438 C 0.05248 0.40806 0.81579 0.0
C439 C 0.01026 0.46004 0.8645 0.0
C440 C 0.98361 0.49976 0.86771 0.0
C441 C 0.0205 0.44343 0.81942 0.0
C442 C 0.96249 0.51926 0.82589 0.0
C443 C 0.97095 0.50179 0.78092 0.0
H444 H 0.77922 0.96473 0.89953 0.0
H445 H 0.86144 0.02569 0.01664 0.0
H446 H 0.78936 0.04905 0.05324 0.0
H447 H 0.70293 0.03899 0.05829 0.0
H448 H 0.62049 0.97394 0.94326 0.0
H449 H 0.69214 0.9661 0.89836 0.0
C450 C 0.78096 0.98448 0.93222 0.0
C451 C 0.82485 0.99368 0.95576 0.0
C452 C 0.73936 0.99661 0.95329 0.0
C453 C 0.8276 0.01872 0.99827 0.0
C454 C 0.78651 0.03167 0.01916 0.0
C455 C 0.70075 0.02479 0.02257 0.0
C456 C 0.65697 0.00748 1.00357 0.0
C457 C 0.74215 0.01907 0.99796 0.0
C458 C 0.65406 0.98808 0.95792 0.0
C459 C 0.69498 0.98318 0.9326 0.0
H460 H 0.77777 0.13879 0.39774 0.0
H461 H 0.68703 0.07843 0.50635 0.0
H462 H 0.74768 0.02441 0.53286 0.0
H463 H 0.8319 0.00682 0.53436 0.0
H464 H 0.92047 0.06356 0.4219 0.0
H465 H 0.85412 0.10424 0.38494 0.0
C466 C 0.76995 0.11163 0.42483 0.0
C467 C 0.72757 0.11172 0.44936 0.0
C468 C 0.80474 0.08023 0.43917 0.0
C469 C 0.71924 0.07835 0.48672 0.0
C470 C 0.75398 0.04773 0.50194 0.0
C471 C 0.83586 0.02598 0.5003 0.0
C472 C 0.88095 0.03243 0.48094 0.0
C473 C 0.79765 0.04982 0.47972 0.0
C474 C 0.88597 0.05768 0.43713 0.0
C475 C 0.84821 0.08173 0.41653 0.0
H476 H 0.3141 0.56318 0.1216 0.0
H477 H 0.35982 0.53504 0.98063 0.0
H478 H 0.27756 0.51795 0.95309 0.0
H479 H 0.19299 0.52376 0.96668 0.0
H480 H 0.14813 0.55872 0.10638 0.0
H481 H 0.22954 0.5586 0.13805 0.0
C482 C 0.30579 0.5517 0.08539 0.0
C483 C 0.34216 0.55027 0.05288 0.0
C484 C 0.25873 0.54335 0.0699 0.0
C485 C 0.33182 0.53619 0.00584 0.0
C486 C 0.28501 0.52677 0.99023 0.0
C487 C 0.20113 0.53022 0.00431 0.0
C488 C 0.16487 0.54053 0.03457 0.0
C489 C 0.24816 0.53217 0.02148 0.0
C490 C 0.17544 0.54916 0.08308 0.0
C491 C 0.22203 0.54992 0.10088 0.0
H492 H 0.21163 0.45578 0.66155 0.0
H493 H 0.13321 0.41678 0.53241 0.0
H494 H 0.20018 0.4445 0.48403 0.0
H495 H 0.28163 0.47713 0.47908 0.0
H496 H 0.36065 0.51621 0.60828 0.0
H497 H 0.29181 0.49406 0.65598 0.0
C498 C 0.20909 0.45415 0.62277 0.0
C499 C 0.16769 0.43426 0.60037 0.0
C500 C 0.24739 0.47107 0.59531 0.0
C501 C 0.16503 0.4313 0.55025 0.0
C502 C 0.20307 0.4476 0.52269 0.0
C503 C 0.28365 0.48155 0.51763 0.0
C504 C 0.32628 0.49865 0.53999 0.0
C505 C 0.24449 0.46727 0.54488 0.0
C506 C 0.32815 0.50417 0.58994 0.0
C507 C 0.28897 0.49069 0.61735 0.0
H508 H 0.87721 0.82872 0.93556 0.0
H509 H 0.01081 0.90777 0.94656 0.0
H510 H 0.05016 0.83558 0.97073 0.0
H511 H 0.04546 0.75016 0.99087 0.0
H512 H 0.91106 0.67202 0.98018 0.0
H513 H 0.87219 0.74416 0.95695 0.0
C514 C 0.91493 0.82995 0.94344 0.0
C515 C 0.94121 0.87323 0.9396 0.0
C516 C 0.9366 0.7889 0.95915 0.0
C517 C 0.99014 0.87461 0.94881 0.0
C518 C 0.01237 0.83356 0.96329 0.0
C519 C 0.00749 0.74928 0.98449 0.0
C520 C 0.98069 0.70625 0.98946 0.0
C521 C 0.98578 0.79064 0.96931 0.0
C522 C 0.93187 0.70515 0.97948 0.0
C523 C 0.90989 0.74617 0.96494 0.0
H524 H 0.38442 0.70892 0.09324 0.0
H525 H 0.52576 0.6612 0.10074 0.0
H526 H 0.55798 0.74291 0.10421 0.0
H527 H 0.54573 0.82718 0.10122 0.0
H528 H 0.4049 0.87646 0.08994 0.0
H529 H 0.37205 0.79444 0.08949 0.0
C530 C 0.42225 0.71666 0.09504 0.0
C531 C 0.45298 0.6795 0.09584 0.0
C532 C 0.44025 0.76364 0.0954 0.0
C533 C 0.50179 0.68948 0.10001 0.0
C534 C 0.52003 0.73602 0.10157 0.0
C535 C 0.50777 0.81995 0.09862 0.0
C536 C 0.4776 0.8575 0.09521 0.0
C537 C 0.48959 0.77325 0.09858 0.0
C538 C 0.42862 0.84793 0.09196 0.0
C539 C 0.41001 0.80119 0.09204 0.0
H540 H 0.06797 0.34596 0.54339 0.0
H541 H 0.17124 0.31502 0.65462 0.0
H542 H 0.17227 0.23368 0.6284 0.0
H543 H 0.12817 0.16834 0.58746 0.0
H544 H 0.02091 0.19897 0.47971 0.0
H545 H 0.03785 0.28349 0.48906 0.0
C546 C 0.09238 0.32184 0.55999 0.0
C547 C 0.11961 0.3359 0.60058 0.0
C548 C 0.09136 0.2749 0.5456 0.0
C549 C 0.1505 0.3046 0.62294 0.0
C550 C 0.15055 0.25807 0.60829 0.0
C551 C 0.11045 0.19369 0.56429 0.0
C552 C 0.07357 0.17785 0.53284 0.0
C553 C 0.11901 0.24218 0.57154 0.0
C554 C 0.04983 0.21066 0.50371 0.0
C555 C 0.05906 0.25895 0.50959 0.0
H556 H 0.57614 0.21709 0.49687 0.0
H557 H 0.70608 0.29946 0.47784 0.0
H558 H 0.66743 0.37145 0.49661 0.0
H559 H 0.5927 0.41149 0.50142 0.0
H560 H 0.46162 0.32802 0.51195 0.0
H561 H 0.5041 0.25578 0.51393 0.0
C562 C 0.59606 0.25074 0.49864 0.0
C563 C 0.64349 0.25355 0.4862 0.0
C564 C 0.57299 0.29171 0.5069 0.0
C565 C 0.6695 0.29692 0.48782 0.0
C566 C 0.64724 0.33794 0.49791 0.0
C567 C 0.57382 0.37747 0.50586 0.0
C568 C 0.52426 0.37476 0.50634 0.0
C569 C 0.59841 0.336 0.50505 0.0
C570 C 0.49983 0.33065 0.5112 0.0
C571 C 0.52405 0.28942 0.51223 0.0
loop_
_geom_bond_atom_site_label_1
_geom_bond_atom_site_label_2
_geom_bond_distance
_geom_bond_site_symmetry_2
_ccdc_geom_bond_type
C0 N1 1.317 . S
C0 N2 1.348 . S
C0 C3 1.485 . S
N1 C0 1.317 . S
N1 N5 1.370 . S
N2 C0 1.348 . S
N2 C4 1.346 . S
C3 C0 1.485 . S
C3 H7 0.960 . S
C3 H8 0.961 . S
C3 H9 0.960 . S
C4 N2 1.346 . S
C4 N5 1.307 . S
C4 C6 1.486 . S
N5 N1 1.370 . S
N5 C4 1.307 . S
C6 C4 1.486 . S
C6 H10 0.960 . S
C6 H11 0.960 . S
C6 H12 0.959 . S
H7 C3 0.960 . S
H8 C3 0.961 . S
H9 C3 0.960 . S
H10 C6 0.960 . S
H11 C6 0.960 . S
H12 C6 0.959 . S
C13 N14 1.317 . S
C13 N15 1.348 . S
C13 C16 1.485 . S
N14 C13 1.317 . S
N14 N18 1.370 . S
N15 C13 1.348 . S
N15 C17 1.346 . S
C16 C13 1.485 . S
C16 H20 0.960 . S
C16 H21 0.961 . S
C16 H22 0.960 . S
C17 N15 1.346 . S
C17 N18 1.307 . S
C17 C19 1.486 . S
N18 N14 1.370 . S
N18 C17 1.307 . S
C19 C17 1.486 . S
C19 H23 0.960 . S
C19 H24 0.960 . S
C19 H25 0.959 . S
H20 C16 0.960 . S
H21 C16 0.961 . S
H22 C16 0.960 . S
H23 C19 0.960 . S
H24 C19 0.960 . S
H25 C19 0.959 . S
C26 N27 1.317 . S
C26 N28 1.348 . S
C26 C29 1.485 . S
N27 C26 1.317 . S
N27 N31 1.370 . S
N28 C26 1.348 . S
N28 C30 1.346 . S
C29 C26 1.485 . S
C29 H33 0.960 . S
C29 H34 0.961 . S
C29 H35 0.960 . S
C30 N28 1.346 . S
C30 N31 1.307 . S
C30 C32 1.486 . S
N31 N27 1.370 . S
N31 C30 1.307 . S
C32 C30 1.486 . S
C32 H36 0.960 . S
C32 H37 0.960 . S
C32 H38 0.959 . S
H33 C29 0.960 . S
H34 C29 0.961 . S
H35 C29 0.960 . S
H36 C32 0.960 . S
H37 C32 0.960 . S
H38 C32 0.959 . S
C39 N40 1.317 . S
C39 N41 1.348 . S
C39 C42 1.485 . S
N40 C39 1.317 . S
N40 N44 1.370 . S
N41 C39 1.348 . S
N41 C43 1.346 . S
C42 C39 1.485 . S
C42 H46 0.960 . S
C42 H47 0.961 . S
C42 H48 0.960 . S
C43 N41 1.346 . S
C43 N44 1.307 . S
C43 C45 1.486 . S
N44 N40 1.370 . S
N44 C43 1.307 . S
C45 C43 1.486 . S
C45 H49 0.960 . S
C45 H50 0.960 . S
C45 H51 0.959 . S
H46 C42 0.960 . S
H47 C42 0.961 . S
H48 C42 0.960 . S
H49 C45 0.960 . S
H50 C45 0.960 . S
H51 C45 0.959 . S
C52 N53 1.317 . S
C52 N54 1.348 . S
C52 C55 1.485 1_556 S
N53 C52 1.317 . S
N53 N57 1.370 . S
N54 C52 1.348 . S
N54 C56 1.346 . S
C55 C52 1.485 1_554 S
C55 H59 0.960 . S
C55 H60 0.961 . S
C55 H61 0.960 . S
C56 N54 1.346 . S
C56 N57 1.307 . S
C56 C58 1.486 1_565 S
N57 N53 1.370 . S
N57 C56 1.307 . S
C58 C56 1.486 1_545 S
C58 H62 0.960 . S
C58 H63 0.960 . S
C58 H64 0.959 . S
H59 C55 0.960 . S
H60 C55 0.961 . S
H61 C55 0.960 . S
H62 C58 0.960 . S
H63 C58 0.960 . S
H64 C58 0.959 . S
C65 N66 1.317 . S
C65 N67 1.348 . S
C65 C68 1.485 . S
N66 C65 1.317 . S
N66 N70 1.370 . S
N67 C65 1.348 . S
N67 C69 1.346 . S
C68 C65 1.485 . S
C68 H72 0.960 . S
C68 H73 0.961 . S
C68 H74 0.960 . S
C69 N67 1.346 . S
C69 N70 1.307 . S
C69 C71 1.486 . S
N70 N66 1.370 . S
N70 C69 1.307 . S
C71 C69 1.486 . S
C71 H75 0.960 . S
C71 H76 0.960 . S
C71 H77 0.959 . S
H72 C68 0.960 . S
H73 C68 0.961 . S
H74 C68 0.960 . S
H75 C71 0.960 . S
H76 C71 0.960 . S
H77 C71 0.959 . S
C78 N79 1.317 . S
C78 N80 1.348 . S
C78 C81 1.485 . S
N79 C78 1.317 . S
N79 N83 1.370 . S
N80 C78 1.348 . S
N80 C82 1.346 . S
C81 C78 1.485 . S
C81 H85 0.960 . S
C81 H86 0.961 . S
C81 H87 0.960 . S
C82 N80 1.346 . S
C82 N83 1.307 . S
C82 C84 1.486 . S
N83 N79 1.370 . S
N83 C82 1.307 . S
C84 C82 1.486 . S
C84 H88 0.960 . S
C84 H89 0.960 . S
C84 H90 0.959 . S
H85 C81 0.960 . S
H86 C81 0.961 . S
H87 C81 0.960 . S
H88 C84 0.960 . S
H89 C84 0.960 . S
H90 C84 0.959 . S
C91 N92 1.317 . S
C91 N93 1.348 . S
C91 C94 1.485 . S
N92 C91 1.317 . S
N92 N96 1.370 . S
N93 C91 1.348 . S
N93 C95 1.346 . S
C94 C91 1.485 . S
C94 H98 0.960 1_455 S
C94 H99 0.961 . S
C94 H100 0.960 . S
C95 N93 1.346 . S
C95 N96 1.307 . S
C95 C97 1.486 . S
N96 N92 1.370 . S
N96 C95 1.307 . S
C97 C95 1.486 . S
C97 H101 0.960 . S
C97 H102 0.960 . S
C97 H103 0.959 . S
H98 C94 0.960 1_655 S
H99 C94 0.961 . S
H100 C94 0.960 . S
H101 C97 0.960 . S
H102 C97 0.960 . S
H103 C97 0.959 . S
Zn104 O110 1.920 . S
Zn104 O116 1.898 1_655 S
Zn104 O119 1.905 . S
Zn105 O113 1.905 1_565 S
Zn105 O114 1.898 . S
Zn105 O122 1.920 . S
Zn106 O109 2.080 . S
Zn106 O112 2.114 . S
Zn106 O115 2.120 1_545 S
Zn106 O117 2.120 . S
Zn106 O118 2.114 1_455 S
Zn106 O121 2.080 . S
C107 O112 1.166 . S
C107 O113 1.182 . S
C108 O114 1.167 . S
C108 O115 1.299 . S
O109 Zn106 2.080 . S
O109 C123 1.305 . S
O110 Zn104 1.920 . S
O110 C123 1.234 1_655 S
C111 O116 1.167 . S
C111 O117 1.299 . S
O112 Zn106 2.114 . S
O112 C107 1.166 . S
O113 Zn105 1.905 1_545 S
O113 C107 1.182 . S
O114 Zn105 1.898 . S
O114 C108 1.167 . S
O115 Zn106 2.120 1_565 S
O115 C108 1.299 . S
O116 Zn104 1.898 1_455 S
O116 C111 1.167 . S
O117 Zn106 2.120 . S
O117 C111 1.299 . S
O118 Zn106 2.114 1_655 S
O118 C120 1.166 . S
O119 Zn104 1.905 . S
O119 C120 1.182 . S
C120 O118 1.166 . S
C120 O119 1.182 . S
O121 Zn106 2.080 . S
O121 C124 1.305 1_545 S
O122 Zn105 1.920 . S
O122 C124 1.234 . S
C123 O109 1.305 . S
C123 O110 1.234 1_455 S
C124 O121 1.305 1_565 S
C124 O122 1.234 . S
Zn125 O131 1.920 1_556 S
Zn125 O137 1.898 . S
Zn125 O140 1.905 . S
Zn126 O134 1.905 . S
Zn126 O135 1.898 . S
Zn126 O143 1.920 . S
Zn127 O130 2.080 . S
Zn127 O133 2.114 1_545 S
Zn127 O136 2.120 1_545 S
Zn127 O138 2.120 . S
Zn127 O139 2.113 1_545 S
Zn127 O142 2.080 . S
C128 O133 1.166 . S
C128 O134 1.182 . S
C129 O135 1.167 . S
C129 O136 1.299 . S
O130 Zn127 2.080 . S
O130 C144 1.305 . S
O131 Zn125 1.920 1_554 S
O131 C144 1.234 . S
C132 O137 1.167 1_554 S
C132 O138 1.299 . S
O133 Zn127 2.114 1_565 S
O133 C128 1.166 . S
O134 Zn126 1.905 . S
O134 C128 1.182 . S
O135 Zn126 1.898 . S
O135 C129 1.167 . S
O136 Zn127 2.120 1_565 S
O136 C129 1.299 . S
O137 Zn125 1.898 . S
O137 C132 1.167 1_556 S
O138 Zn127 2.120 . S
O138 C132 1.299 . S
O139 Zn127 2.113 1_565 S
O139 C141 1.167 1_554 S
O140 Zn125 1.905 . S
O140 C141 1.182 1_545 S
C141 O139 1.167 1_556 S
C141 O140 1.182 1_565 S
O142 Zn127 2.080 . S
O142 C145 1.305 . S
O143 Zn126 1.920 . S
O143 C145 1.234 1_565 S
C144 O130 1.305 . S
C144 O131 1.234 . S
C145 O142 1.305 . S
C145 O143 1.234 1_545 S
Zn146 O152 1.920 . S
Zn146 O158 1.898 . S
Zn146 O161 1.905 . S
Zn147 O155 1.905 . S
Zn147 O156 1.898 . S
Zn147 O164 1.920 . S
Zn148 O151 2.080 . S
Zn148 O154 2.114 . S
Zn148 O157 2.120 . S
Zn148 O159 2.120 . S
Zn148 O160 2.114 . S
Zn148 O163 2.080 . S
C149 O154 1.166 . S
C149 O155 1.182 . S
C150 O156 1.167 . S
C150 O157 1.299 . S
O151 Zn148 2.080 . S
O151 C165 1.305 . S
O152 Zn146 1.920 . S
O152 C165 1.234 . S
C153 O158 1.167 . S
C153 O159 1.299 . S
O154 Zn148 2.114 . S
O154 C149 1.166 . S
O155 Zn147 1.905 . S
O155 C149 1.182 . S
O156 Zn147 1.898 . S
O156 C150 1.167 . S
O157 Zn148 2.120 . S
O157 C150 1.299 . S
O158 Zn146 1.898 . S
O158 C153 1.167 . S
O159 Zn148 2.120 . S
O159 C153 1.299 . S
O160 Zn148 2.114 . S
O160 C162 1.166 . S
O161 Zn146 1.905 . S
O161 C162 1.182 . S
C162 O160 1.166 . S
C162 O161 1.182 . S
O163 Zn148 2.080 . S
O163 C166 1.305 . S
O164 Zn147 1.920 . S
O164 C166 1.234 . S
C165 O151 1.305 . S
C165 O152 1.234 . S
C166 O163 1.305 . S
C166 O164 1.234 . S
Zn167 O173 1.920 . S
Zn167 O179 1.898 . S
Zn167 O182 1.905 . S
Zn168 O176 1.905 . S
Zn168 O177 1.898 . S
Zn168 O185 1.920 . S
Zn169 O172 2.080 1_454 S
Zn169 O175 2.114 . S
Zn169 O178 2.120 1_454 S
Zn169 O180 2.120 . S
Zn169 O181 2.114 1_554 S
Zn169 O184 2.080 1_455 S
C170 O175 1.166 . S
C170 O176 1.182 1_455 S
C171 O177 1.167 1_556 S
C171 O178 1.299 . S
O172 Zn169 2.080 1_656 S
O172 C186 1.305 1_655 S
O173 Zn167 1.920 . S
O173 C186 1.234 . S
C174 O179 1.167 1_554 S
C174 O180 1.299 . S
O175 Zn169 2.114 . S
O175 C170 1.166 . S
O176 Zn168 1.905 . S
O176 C170 1.182 1_655 S
O177 Zn168 1.898 . S
O177 C171 1.167 1_554 S
O178 Zn169 2.120 1_656 S
O178 C171 1.299 . S
O179 Zn167 1.898 . S
O179 C174 1.167 1_556 S
O180 Zn169 2.120 . S
O180 C174 1.299 . S
O181 Zn169 2.114 1_556 S
O181 C183 1.166 . S
O182 Zn167 1.905 . S
O182 C183 1.182 . S
C183 O181 1.166 . S
C183 O182 1.182 . S
O184 Zn169 2.080 1_655 S
O184 C187 1.305 . S
O185 Zn168 1.920 . S
O185 C187 1.234 . S
C186 O172 1.305 1_455 S
C186 O173 1.234 . S
C187 O184 1.305 . S
C187 O185 1.234 . S
H188 C194 0.930 . S
H189 C197 0.930 . S
H190 C198 0.930 . S
H191 C199 0.930 . S
H192 C202 0.930 . S
H193 C203 0.930 . S
C194 H188 0.930 . S
C194 C195 1.355 . S
C194 C196 1.415 . S
C195 C194 1.355 . S
C195 C197 1.419 . S
C196 C194 1.415 . S
C196 C201 1.425 . S
C196 C203 1.409 . S
C197 H189 0.930 . S
C197 C195 1.419 . S
C197 C198 1.362 . S
C198 H190 0.930 . S
C198 C197 1.362 . S
C198 C201 1.409 . S
C199 H191 0.930 . S
C199 C200 1.355 . S
C199 C201 1.415 . S
C200 C199 1.355 . S
C200 C202 1.419 . S
C201 C196 1.425 . S
C201 C198 1.409 . S
C201 C199 1.415 . S
C202 H192 0.930 . S
C202 C200 1.419 . S
C202 C203 1.362 . S
C203 H193 0.930 . S
C203 C196 1.409 . S
C203 C202 1.362 . S
H204 C210 0.930 . S
H205 C213 0.930 . S
H206 C214 0.930 . S
H207 C215 0.930 . S
H208 C218 0.930 . S
H209 C219 0.930 . S
C210 H204 0.930 . S
C210 C211 1.355 . S
C210 C212 1.415 . S
C211 C210 1.355 . S
C211 C213 1.419 . S
C212 C210 1.415 . S
C212 C217 1.425 . S
C212 C219 1.409 . S
C213 H205 0.930 . S
C213 C211 1.419 . S
C213 C214 1.362 . S
C214 H206 0.930 . S
C214 C213 1.362 . S
C214 C217 1.409 . S
C215 H207 0.930 . S
C215 C216 1.355 . S
C215 C217 1.415 . S
C216 C215 1.355 . S
C216 C218 1.419 . S
C217 C212 1.425 . S
C217 C214 1.409 . S
C217 C215 1.415 . S
C218 H208 0.930 . S
C218 C216 1.419 . S
C218 C219 1.362 . S
C219 H209 0.930 . S
C219 C212 1.409 . S
C219 C218 1.362 . S
H220 C226 0.930 . S
H221 C229 0.930 . S
H222 C230 0.930 . S
H223 C231 0.930 . S
H224 C234 0.930 . S
H225 C235 0.930 . S
C226 H220 0.930 . S
C226 C227 1.355 . S
C226 C228 1.415 . S
C227 C226 1.355 . S
C227 C229 1.419 . S
C228 C226 1.415 . S
C228 C233 1.425 . S
C228 C235 1.409 . S
C229 H221 0.930 . S
C229 C227 1.419 . S
C229 C230 1.362 . S
C230 H222 0.930 . S
C230 C229 1.362 . S
C230 C233 1.409 . S
C231 H223 0.930 . S
C231 C232 1.355 . S
C231 C233 1.415 . S
C232 C231 1.355 . S
C232 C234 1.419 . S
C233 C228 1.425 . S
C233 C230 1.409 . S
C233 C231 1.415 . S
C234 H224 0.930 . S
C234 C232 1.419 . S
C234 C235 1.362 . S
C235 H225 0.930 . S
C235 C228 1.409 . S
C235 C234 1.362 . S
H236 C242 0.930 . S
H237 C245 0.930 . S
H238 C246 0.930 . S
H239 C247 0.930 . S
H240 C250 0.930 . S
H241 C251 0.930 . S
C242 H236 0.930 . S
C242 C243 1.355 . S
C242 C244 1.415 . S
C243 C242 1.355 . S
C243 C245 1.419 . S
C244 C242 1.415 . S
C244 C249 1.425 . S
C244 C251 1.409 . S
C245 H237 0.930 . S
C245 C243 1.419 . S
C245 C246 1.362 . S
C246 H238 0.930 . S
C246 C245 1.362 . S
C246 C249 1.409 . S
C247 H239 0.930 . S
C247 C248 1.355 . S
C247 C249 1.415 . S
C248 C247 1.355 . S
C248 C250 1.419 . S
C249 C244 1.425 . S
C249 C246 1.409 . S
C249 C247 1.415 . S
C250 H240 0.930 . S
C250 C248 1.419 . S
C250 C251 1.362 . S
C251 H241 0.930 . S
C251 C244 1.409 . S
C251 C250 1.362 . S
H252 C258 0.930 . S
H253 C261 0.930 . S
H254 C262 0.930 . S
H255 C263 0.930 . S
H256 C266 0.930 . S
H257 C267 0.930 . S
C258 H252 0.930 . S
C258 C259 1.355 . S
C258 C260 1.415 . S
C259 C258 1.355 . S
C259 C261 1.419 . S
C260 C258 1.415 . S
C260 C265 1.425 . S
C260 C267 1.409 . S
C261 H253 0.930 . S
C261 C259 1.419 . S
C261 C262 1.362 . S
C262 H254 0.930 . S
C262 C261 1.362 . S
C262 C265 1.409 . S
C263 H255 0.930 . S
C263 C264 1.355 . S
C263 C265 1.415 . S
C264 C263 1.355 . S
C264 C266 1.419 . S
C265 C260 1.425 . S
C265 C262 1.409 . S
C265 C263 1.415 . S
C266 H256 0.930 . S
C266 C264 1.419 . S
C266 C267 1.362 . S
C267 H257 0.930 . S
C267 C260 1.409 . S
C267 C266 1.362 . S
H268 C274 0.930 . S
H269 C277 0.930 . S
H270 C278 0.930 . S
H271 C279 0.930 . S
H272 C282 0.930 . S
H273 C283 0.930 . S
C274 H268 0.930 . S
C274 C275 1.355 . S
C274 C276 1.415 . S
C275 C274 1.355 . S
C275 C277 1.419 . S
C276 C274 1.415 . S
C276 C281 1.425 . S
C276 C283 1.409 . S
C277 H269 0.930 . S
C277 C275 1.419 . S
C277 C278 1.362 . S
C278 H270 0.930 . S
C278 C277 1.362 . S
C278 C281 1.409 . S
C279 H271 0.930 . S
C279 C280 1.355 . S
C279 C281 1.415 . S
C280 C279 1.355 . S
C280 C282 1.419 . S
C281 C276 1.425 . S
C281 C278 1.409 . S
C281 C279 1.415 . S
C282 H272 0.930 . S
C282 C280 1.419 . S
C282 C283 1.362 . S
C283 H273 0.930 . S
C283 C276 1.409 . S
C283 C282 1.362 . S
H284 C290 0.930 . S
H285 C293 0.930 . S
H286 C294 0.930 . S
H287 C295 0.930 . S
H288 C298 0.930 1_554 S
H289 C299 0.930 . S
C290 H284 0.930 . S
C290 C291 1.355 . S
C290 C292 1.415 . S
C291 C290 1.355 . S
C291 C293 1.419 . S
C292 C290 1.415 . S
C292 C297 1.425 . S
C292 C299 1.409 . S
C293 H285 0.930 . S
C293 C291 1.419 . S
C293 C294 1.362 . S
C294 H286 0.930 . S
C294 C293 1.362 . S
C294 C297 1.409 . S
C295 H287 0.930 . S
C295 C296 1.355 . S
C295 C297 1.415 . S
C296 C295 1.355 . S
C296 C298 1.419 . S
C297 C292 1.425 . S
C297 C294 1.409 . S
C297 C295 1.415 . S
C298 H288 0.930 1_556 S
C298 C296 1.419 . S
C298 C299 1.362 . S
C299 H289 0.930 . S
C299 C292 1.409 . S
C299 C298 1.362 . S
H300 C306 0.930 . S
H301 C309 0.930 . S
H302 C310 0.930 . S
H303 C311 0.930 . S
H304 C314 0.930 . S
H305 C315 0.930 . S
C306 H300 0.930 . S
C306 C307 1.355 . S
C306 C308 1.415 . S
C307 C306 1.355 . S
C307 C309 1.419 . S
C308 C306 1.415 . S
C308 C313 1.425 . S
C308 C315 1.409 . S
C309 H301 0.930 . S
C309 C307 1.419 . S
C309 C310 1.362 . S
C310 H302 0.930 . S
C310 C309 1.362 . S
C310 C313 1.409 . S
C311 H303 0.930 . S
C311 C312 1.355 . S
C311 C313 1.415 . S
C312 C311 1.355 . S
C312 C314 1.419 . S
C313 C308 1.425 . S
C313 C310 1.409 . S
C313 C311 1.415 . S
C314 H304 0.930 . S
C314 C312 1.419 . S
C314 C315 1.362 . S
C315 H305 0.930 . S
C315 C308 1.409 . S
C315 C314 1.362 . S
H316 C322 0.930 . S
H317 C325 0.930 . S
H318 C326 0.930 . S
H319 C327 0.930 . S
H320 C330 0.930 . S
H321 C331 0.930 . S
C322 H316 0.930 . S
C322 C323 1.355 . S
C322 C324 1.415 . S
C323 C322 1.355 . S
C323 C325 1.419 . S
C324 C322 1.415 . S
C324 C329 1.425 . S
C324 C331 1.409 . S
C325 H317 0.930 . S
C325 C323 1.419 . S
C325 C326 1.362 . S
C326 H318 0.930 . S
C326 C325 1.362 . S
C326 C329 1.409 . S
C327 H319 0.930 . S
C327 C328 1.355 . S
C327 C329 1.415 . S
C328 C327 1.355 . S
C328 C330 1.419 . S
C329 C324 1.425 . S
C329 C326 1.409 . S
C329 C327 1.415 . S
C330 H320 0.930 . S
C330 C328 1.419 . S
C330 C331 1.362 . S
C331 H321 0.930 . S
C331 C324 1.409 . S
C331 C330 1.362 . S
H332 C338 0.930 . S
H333 C341 0.930 . S
H334 C342 0.930 . S
H335 C343 0.930 1_554 S
H336 C346 0.930 . S
H337 C347 0.930 . S
C338 H332 0.930 . S
C338 C339 1.355 . S
C338 C340 1.415 . S
C339 C338 1.355 . S
C339 C341 1.419 . S
C340 C338 1.415 . S
C340 C345 1.425 . S
C340 C347 1.409 . S
C341 H333 0.930 . S
C341 C339 1.419 . S
C341 C342 1.362 . S
C342 H334 0.930 . S
C342 C341 1.362 . S
C342 C345 1.409 . S
C343 H335 0.930 1_556 S
C343 C344 1.355 . S
C343 C345 1.415 . S
C344 C343 1.355 . S
C344 C346 1.419 . S
C345 C340 1.425 . S
C345 C342 1.409 . S
C345 C343 1.415 . S
C346 H336 0.930 . S
C346 C344 1.419 . S
C346 C347 1.362 . S
C347 H337 0.930 . S
C347 C340 1.409 . S
C347 C346 1.362 . S
H348 C354 0.930 . S
H349 C357 0.930 . S
H350 C358 0.930 . S
H351 C359 0.930 . S
H352 C362 0.930 1_455 S
H353 C363 0.930 . S
C354 H348 0.930 . S
C354 C355 1.355 . S
C354 C356 1.415 . S
C355 C354 1.355 . S
C355 C357 1.419 . S
C356 C354 1.415 . S
C356 C361 1.425 . S
C356 C363 1.409 . S
C357 H349 0.930 . S
C357 C355 1.419 . S
C357 C358 1.362 . S
C358 H350 0.930 . S
C358 C357 1.362 . S
C358 C361 1.409 . S
C359 H351 0.930 . S
C359 C360 1.355 . S
C359 C361 1.415 . S
C360 C359 1.355 . S
C360 C362 1.419 . S
C361 C356 1.425 . S
C361 C358 1.409 . S
C361 C359 1.415 . S
C362 H352 0.930 1_655 S
C362 C360 1.419 . S
C362 C363 1.362 . S
C363 H353 0.930 . S
C363 C356 1.409 . S
C363 C362 1.362 . S
H364 C370 0.930 . S
H365 C373 0.930 . S
H366 C374 0.930 . S
H367 C375 0.930 . S
H368 C378 0.930 . S
H369 C379 0.930 . S
C370 H364 0.930 . S
C370 C371 1.355 . S
C370 C372 1.415 . S
C371 C370 1.355 . S
C371 C373 1.419 . S
C372 C370 1.415 . S
C372 C377 1.425 . S
C372 C379 1.409 . S
C373 H365 0.930 . S
C373 C371 1.419 . S
C373 C374 1.362 . S
C374 H366 0.930 . S
C374 C373 1.362 . S
C374 C377 1.409 . S
C375 H367 0.930 . S
C375 C376 1.355 . S
C375 C377 1.415 . S
C376 C375 1.355 . S
C376 C378 1.419 . S
C377 C372 1.425 . S
C377 C374 1.409 . S
C377 C375 1.415 . S
C378 H368 0.930 . S
C378 C376 1.419 . S
C378 C379 1.362 . S
C379 H369 0.930 . S
C379 C372 1.409 . S
C379 C378 1.362 . S
H380 C386 0.930 . S
H381 C389 0.930 . S
H382 C390 0.930 . S
H383 C391 0.930 . S
H384 C394 0.930 . S
H385 C395 0.930 . S
C386 H380 0.930 . S
C386 C387 1.355 . S
C386 C388 1.415 . S
C387 C386 1.355 . S
C387 C389 1.419 1_665 S
C388 C386 1.415 . S
C388 C393 1.425 1_655 S
C388 C395 1.409 . S
C389 H381 0.930 . S
C389 C387 1.419 1_445 S
C389 C390 1.362 . S
C390 H382 0.930 . S
C390 C389 1.362 . S
C390 C393 1.409 1_545 S
C391 H383 0.930 . S
C391 C392 1.355 1_445 S
C391 C393 1.415 1_545 S
C392 C391 1.355 1_665 S
C392 C394 1.419 . S
C393 C388 1.425 1_455 S
C393 C390 1.409 1_565 S
C393 C391 1.415 1_565 S
C394 H384 0.930 . S
C394 C392 1.419 . S
C394 C395 1.362 . S
C395 H385 0.930 . S
C395 C388 1.409 . S
C395 C394 1.362 . S
H396 C402 0.930 . S
H397 C405 0.930 . S
H398 C406 0.930 . S
H399 C407 0.930 . S
H400 C410 0.930 1_565 S
H401 C411 0.930 1_565 S
C402 H396 0.930 . S
C402 C403 1.355 . S
C402 C404 1.415 . S
C403 C402 1.355 . S
C403 C405 1.419 . S
C404 C402 1.415 . S
C404 C409 1.425 . S
C404 C411 1.409 . S
C405 H397 0.930 . S
C405 C403 1.419 . S
C405 C406 1.362 . S
C406 H398 0.930 . S
C406 C405 1.362 . S
C406 C409 1.409 . S
C407 H399 0.930 . S
C407 C408 1.355 . S
C407 C409 1.415 . S
C408 C407 1.355 . S
C408 C410 1.419 . S
C409 C404 1.425 . S
C409 C406 1.409 . S
C409 C407 1.415 . S
C410 H400 0.930 1_545 S
C410 C408 1.419 . S
C410 C411 1.362 . S
C411 H401 0.930 1_545 S
C411 C404 1.409 . S
C411 C410 1.362 . S
H412 C418 0.930 . S
H413 C421 0.930 . S
H414 C422 0.930 . S
H415 C423 0.930 . S
H416 C426 0.930 . S
H417 C427 0.930 . S
C418 H412 0.930 . S
C418 C419 1.355 . S
C418 C420 1.415 . S
C419 C418 1.355 . S
C419 C421 1.419 . S
C420 C418 1.415 . S
C420 C425 1.425 . S
C420 C427 1.409 . S
C421 H413 0.930 . S
C421 C419 1.419 . S
C421 C422 1.362 . S
C422 H414 0.930 . S
C422 C421 1.362 . S
C422 C425 1.409 . S
C423 H415 0.930 . S
C423 C424 1.355 . S
C423 C425 1.415 . S
C424 C423 1.355 . S
C424 C426 1.419 . S
C425 C420 1.425 . S
C425 C422 1.409 . S
C425 C423 1.415 . S
C426 H416 0.930 . S
C426 C424 1.419 . S
C426 C427 1.362 . S
C427 H417 0.930 . S
C427 C420 1.409 . S
C427 C426 1.362 . S
H428 C434 0.930 . S
H429 C437 0.930 . S
H430 C438 0.930 . S
H431 C439 0.930 . S
H432 C442 0.930 . S
H433 C443 0.930 . S
C434 H428 0.930 . S
C434 C435 1.355 . S
C434 C436 1.415 . S
C435 C434 1.355 . S
C435 C437 1.419 . S
C436 C434 1.415 . S
C436 C441 1.425 . S
C436 C443 1.409 1_455 S
C437 H429 0.930 . S
C437 C435 1.419 . S
C437 C438 1.362 . S
C438 H430 0.930 . S
C438 C437 1.362 . S
C438 C441 1.409 . S
C439 H431 0.930 . S
C439 C440 1.355 . S
C439 C441 1.415 . S
C440 C439 1.355 . S
C440 C442 1.419 1_455 S
C441 C436 1.425 . S
C441 C438 1.409 . S
C441 C439 1.415 . S
C442 H432 0.930 . S
C442 C440 1.419 1_655 S
C442 C443 1.362 . S
C443 H433 0.930 . S
C443 C436 1.409 1_655 S
C443 C442 1.362 . S
H444 C450 0.930 . S
H445 C453 0.930 . S
H446 C454 0.930 . S
H447 C455 0.930 . S
H448 C458 0.930 . S
H449 C459 0.930 . S
C450 H444 0.930 . S
C450 C451 1.355 . S
C450 C452 1.415 1_556 S
C451 C450 1.355 . S
C451 C453 1.419 1_566 S
C452 C450 1.415 1_554 S
C452 C457 1.425 1_565 S
C452 C459 1.409 1_554 S
C453 H445 0.930 . S
C453 C451 1.419 1_544 S
C453 C454 1.362 . S
C454 H446 0.930 . S
C454 C453 1.362 . S
C454 C457 1.409 . S
C455 H447 0.930 . S
C455 C456 1.355 1_545 S
C455 C457 1.415 . S
C456 C455 1.355 1_565 S
C456 C458 1.419 . S
C457 C452 1.425 1_545 S
C457 C454 1.409 . S
C457 C455 1.415 . S
C458 H448 0.930 . S
C458 C456 1.419 . S
C458 C459 1.362 1_554 S
C459 H449 0.930 . S
C459 C452 1.409 1_556 S
C459 C458 1.362 1_556 S
H460 C466 0.930 . S
H461 C469 0.930 . S
H462 C470 0.930 1_565 S
H463 C471 0.930 1_565 S
H464 C474 0.930 . S
H465 C475 0.930 . S
C466 H460 0.930 . S
C466 C467 1.355 . S
C466 C468 1.415 . S
C467 C466 1.355 . S
C467 C469 1.419 . S
C468 C466 1.415 . S
C468 C473 1.425 . S
C468 C475 1.409 . S
C469 H461 0.930 . S
C469 C467 1.419 . S
C469 C470 1.362 . S
C470 H462 0.930 1_545 S
C470 C469 1.362 . S
C470 C473 1.409 . S
C471 H463 0.930 1_545 S
C471 C472 1.355 . S
C471 C473 1.415 . S
C472 C471 1.355 . S
C472 C474 1.419 . S
C473 C468 1.425 . S
C473 C470 1.409 . S
C473 C471 1.415 . S
C474 H464 0.930 . S
C474 C472 1.419 . S
C474 C475 1.362 . S
C475 H465 0.930 . S
C475 C468 1.409 . S
C475 C474 1.362 . S
H476 C482 0.930 . S
H477 C485 0.930 1_556 S
H478 C486 0.930 . S
H479 C487 0.930 1_556 S
H480 C490 0.930 . S
H481 C491 0.930 . S
C482 H476 0.930 . S
C482 C483 1.355 . S
C482 C484 1.415 . S
C483 C482 1.355 . S
C483 C485 1.419 . S
C484 C482 1.415 . S
C484 C489 1.425 . S
C484 C491 1.409 . S
C485 H477 0.930 1_554 S
C485 C483 1.419 . S
C485 C486 1.362 1_554 S
C486 H478 0.930 . S
C486 C485 1.362 1_556 S
C486 C489 1.409 1_556 S
C487 H479 0.930 1_554 S
C487 C488 1.355 . S
C487 C489 1.415 . S
C488 C487 1.355 . S
C488 C490 1.419 . S
C489 C484 1.425 . S
C489 C486 1.409 1_554 S
C489 C487 1.415 . S
C490 H480 0.930 . S
C490 C488 1.419 . S
C490 C491 1.362 . S
C491 H481 0.930 . S
C491 C484 1.409 . S
C491 C490 1.362 . S
H492 C498 0.930 . S
H493 C501 0.930 . S
H494 C502 0.930 . S
H495 C503 0.930 . S
H496 C506 0.930 . S
H497 C507 0.930 . S
C498 H492 0.930 . S
C498 C499 1.355 . S
C498 C500 1.415 . S
C499 C498 1.355 . S
C499 C501 1.419 . S
C500 C498 1.415 . S
C500 C505 1.425 . S
C500 C507 1.409 . S
C501 H493 0.930 . S
C501 C499 1.419 . S
C501 C502 1.362 . S
C502 H494 0.930 . S
C502 C501 1.362 . S
C502 C505 1.409 . S
C503 H495 0.930 . S
C503 C504 1.355 . S
C503 C505 1.415 . S
C504 C503 1.355 . S
C504 C506 1.419 . S
C505 C500 1.425 . S
C505 C502 1.409 . S
C505 C503 1.415 . S
C506 H496 0.930 . S
C506 C504 1.419 . S
C506 C507 1.362 . S
C507 H497 0.930 . S
C507 C500 1.409 . S
C507 C506 1.362 . S
H508 C514 0.930 . S
H509 C517 0.930 . S
H510 C518 0.930 . S
H511 C519 0.930 . S
H512 C522 0.930 . S
H513 C523 0.930 . S
C514 H508 0.930 . S
C514 C515 1.355 . S
C514 C516 1.415 . S
C515 C514 1.355 . S
C515 C517 1.419 1_556 S
C516 C514 1.415 . S
C516 C521 1.425 . S
C516 C523 1.409 . S
C517 H509 0.930 . S
C517 C515 1.419 1_554 S
C517 C518 1.362 . S
C518 H510 0.930 . S
C518 C517 1.362 . S
C518 C521 1.409 1_554 S
C519 H511 0.930 . S
C519 C520 1.355 1_554 S
C519 C521 1.415 1_554 S
C520 C519 1.355 1_556 S
C520 C522 1.419 . S
C521 C516 1.425 . S
C521 C518 1.409 1_556 S
C521 C519 1.415 1_556 S
C522 H512 0.930 . S
C522 C520 1.419 . S
C522 C523 1.362 . S
C523 H513 0.930 . S
C523 C516 1.409 . S
C523 C522 1.362 . S
H524 C530 0.930 . S
H525 C533 0.930 . S
H526 C534 0.930 . S
H527 C535 0.930 . S
H528 C538 0.930 . S
H529 C539 0.930 . S
C530 H524 0.930 . S
C530 C531 1.355 . S
C530 C532 1.415 . S
C531 C530 1.355 . S
C531 C533 1.419 . S
C532 C530 1.415 . S
C532 C537 1.425 . S
C532 C539 1.409 . S
C533 H525 0.930 . S
C533 C531 1.419 . S
C533 C534 1.362 . S
C534 H526 0.930 . S
C534 C533 1.362 . S
C534 C537 1.409 . S
C535 H527 0.930 . S
C535 C536 1.355 . S
C535 C537 1.415 . S
C536 C535 1.355 . S
C536 C538 1.419 . S
C537 C532 1.425 . S
C537 C534 1.409 . S
C537 C535 1.415 . S
C538 H528 0.930 . S
C538 C536 1.419 . S
C538 C539 1.362 . S
C539 H529 0.930 . S
C539 C532 1.409 . S
C539 C538 1.362 . S
H540 C546 0.930 . S
H541 C549 0.930 . S
H542 C550 0.930 . S
H543 C551 0.930 . S
H544 C554 0.930 1_655 S
H545 C555 0.930 1_655 S
C546 H540 0.930 . S
C546 C547 1.355 . S
C546 C548 1.415 . S
C547 C546 1.355 . S
C547 C549 1.419 . S
C548 C546 1.415 . S
C548 C553 1.425 . S
C548 C555 1.409 . S
C549 H541 0.930 . S
C549 C547 1.419 . S
C549 C550 1.362 . S
C550 H542 0.930 . S
C550 C549 1.362 . S
C550 C553 1.409 . S
C551 H543 0.930 . S
C551 C552 1.355 . S
C551 C553 1.415 . S
C552 C551 1.355 . S
C552 C554 1.419 . S
C553 C548 1.425 . S
C553 C550 1.409 . S
C553 C551 1.415 . S
C554 H544 0.930 1_455 S
C554 C552 1.419 . S
C554 C555 1.362 . S
C555 H545 0.930 1_455 S
C555 C548 1.409 . S
C555 C554 1.362 . S
H556 C562 0.930 . S
H557 C565 0.930 . S
H558 C566 0.930 . S
H559 C567 0.930 . S
H560 C570 0.930 . S
H561 C571 0.930 . S
C562 H556 0.930 . S
C562 C563 1.355 . S
C562 C564 1.415 . S
C563 C562 1.355 . S
C563 C565 1.419 . S
C564 C562 1.415 . S
C564 C569 1.425 . S
C564 C571 1.409 . S
C565 H557 0.930 . S
C565 C563 1.419 . S
C565 C566 1.362 . S
C566 H558 0.930 . S
C566 C565 1.362 . S
C566 C569 1.409 . S
C567 H559 0.930 . S
C567 C568 1.355 . S
C567 C569 1.415 . S
C568 C567 1.355 . S
C568 C570 1.419 . S
C569 C564 1.425 . S
C569 C566 1.409 . S
C569 C567 1.415 . S
C570 H560 0.930 . S
C570 C568 1.419 . S
C570 C571 1.362 . S
C571 H561 0.930 . S
C571 C564 1.409 . S
C571 C570 1.362 . S
C195 N1 1.469 . S
C200 C107 1.376 . S
C211 N18 1.778 . S
C216 C141 1.696 . S
C232 C153 1.130 . S
C227 N28 1.139 . S
C243 N40 1.577 . S
C248 C187 1.585 . S
C264 C144 1.713 . S
C259 N5 1.783 . S
C280 C124 1.469 . S
C275 N14 1.556 . S
C296 C171 1.347 . S
C291 N31 1.447 . S
C312 C162 1.189 . S
C307 N41 1.227 . S
C323 N2 1.445 . S
C328 C170 1.426 . S
C344 C132 1.490 1_556 S
C339 N27 1.550 . S
C355 N44 1.593 . S
C360 C108 1.487 1_655 S
C371 N15 1.398 . S
C376 C165 1.269 . S
C392 C123 1.609 1_665 S
C387 N57 1.795 . S
C403 N70 1.327 . S
C408 C145 1.240 . S
C419 N79 1.484 . S
C424 C150 1.395 . S
C435 N93 1.398 . S
C440 C183 1.387 . S
C451 N54 1.539 . S
C456 C128 1.427 . S
C472 C120 1.770 . S
C467 N66 1.936 . S
C488 C174 1.171 . S
C483 N80 1.208 . S
C504 C166 1.492 . S
C499 N96 1.538 . S
C515 N53 1.530 . S
C520 C186 1.417 1_655 S
C536 C129 1.490 . S
C531 N83 1.546 . S
C552 C111 1.491 . S
C547 N92 1.652 . S
C563 N67 1.471 . S
C568 C149 1.489 . S
