# Generated by pormake.
# Topology zzz, (3,6)-cn, num edge types: 1
# Building blocks:
#     Node 0, Type 0, BuildingBlock: CUQRIR_clean_linker_1, # of connection points: 3
#     Node 1, Type 0, BuildingBlock: CUQRIR_clean_linker_1, # of connection points: 3
#     Node 2, Type 0, BuildingBlock: CUQRIR_clean_linker_1, # of connection points: 3
#     Node 3, Type 0, BuildingBlock: CUQRIR_clean_linker_1, # of connection points: 3
#     Node 4, Type 0, BuildingBlock: CUQRIR_clean_linker_1, # of connection points: 3
#     Node 5, Type 0, BuildingBlock: CUQRIR_clean_linker_1, # of connection points: 3
#     Node 6, Type 0, BuildingBlock: CUQRIR_clean_linker_1, # of connection points: 3
#     Node 7, Type 0, BuildingBlock: CUQRIR_clean_linker_1, # of connection points: 3
#     Node 8, Type 1, BuildingBlock: PAMTUU_clean_sbu_0, # of connection points: 6
#     Node 9, Type 1, BuildingBlock: PAMTUU_clean_sbu_0, # of connection points: 6
#     Node 10, Type 1, BuildingBlock: PAMTUU_clean_sbu_0, # of connection points: 6
#     Node 11, Type 1, BuildingBlock: PAMTUU_clean_sbu_0, # of connection points: 6
#     Edge 12, Type (0, 1), BuildingBlock: TEMPAE_clean_linker_10, # of connection points: 2
#     Edge 13, Type (0, 1), BuildingBlock: TEMPAE_clean_linker_10, # of connection points: 2
#     Edge 14, Type (0, 1), BuildingBlock: TEMPAE_clean_linker_10, # of connection points: 2
#     Edge 15, Type (0, 1), BuildingBlock: TEMPAE_clean_linker_10, # of connection points: 2
#     Edge 16, Type (0, 1), BuildingBlock: TEMPAE_clean_linker_10, # of connection points: 2
#     Edge 17, Type (0, 1), BuildingBlock: TEMPAE_clean_linker_10, # of connection points: 2
#     Edge 18, Type (0, 1), BuildingBlock: TEMPAE_clean_linker_10, # of connection points: 2
#     Edge 19, Type (0, 1), BuildingBlock: TEMPAE_clean_linker_10, # of connection points: 2
#     Edge 20, Type (0, 1), BuildingBlock: TEMPAE_clean_linker_10, # of connection points: 2
#     Edge 21, Type (0, 1), BuildingBlock: TEMPAE_clean_linker_10, # of connection points: 2
#     Edge 22, Type (0, 1), BuildingBlock: TEMPAE_clean_linker_10, # of connection points: 2
#     Edge 23, Type (0, 1), BuildingBlock: TEMPAE_clean_linker_10, # of connection points: 2
#     Edge 24, Type (0, 1), BuildingBlock: TEMPAE_clean_linker_10, # of connection points: 2
#     Edge 25, Type (0, 1), BuildingBlock: TEMPAE_clean_linker_10, # of connection points: 2
#     Edge 26, Type (0, 1), BuildingBlock: TEMPAE_clean_linker_10, # of connection points: 2
#     Edge 27, Type (0, 1), BuildingBlock: TEMPAE_clean_linker_10, # of connection points: 2
#     Edge 28, Type (0, 1), BuildingBlock: TEMPAE_clean_linker_10, # of connection points: 2
#     Edge 29, Type (0, 1), BuildingBlock: TEMPAE_clean_linker_10, # of connection points: 2
#     Edge 30, Type (0, 1), BuildingBlock: TEMPAE_clean_linker_10, # of connection points: 2
#     Edge 31, Type (0, 1), BuildingBlock: TEMPAE_clean_linker_10, # of connection points: 2
#     Edge 32, Type (0, 1), BuildingBlock: TEMPAE_clean_linker_10, # of connection points: 2
#     Edge 33, Type (0, 1), BuildingBlock: TEMPAE_clean_linker_10, # of connection points: 2
#     Edge 34, Type (0, 1), BuildingBlock: TEMPAE_clean_linker_10, # of connection points: 2
#     Edge 35, Type (0, 1), BuildingBlock: TEMPAE_clean_linker_10, # of connection points: 2
# Relax obj value: 0.240
# Max RMSD: 0.229
# Mean RMSD: 0.121
data_MOF--net-zzz--node1-PAMTUU_clean_sbu_0--node2-CUQRIR_clean_linker_1--edge1-TEMPAE_clean_linker_10
_symmetry_space_group_name_H-M    P1
_symmetry_Int_Tables_number       1
_symmetry_cell_setting            triclinic
loop_
_symmetry_equiv_pos_as_xyz
'x, y, z'
_cell_length_a     47.786103
_cell_length_b     51.618903
_cell_length_c     14.309647
_cell_angle_alpha  102.59189
_cell_angle_beta   90.380247
_cell_angle_gamma 90.809631
loop_
_atom_site_label
_atom_site_type_symbol
_atom_site_fract_x
_atom_site_fract_y
_atom_site_fract_z
_atom_type_partial_charge
C0 C 0.75668 0.51798 0.49451 0.0
N1 N 0.7846 0.52328 0.48676 0.0
N2 N 0.74127 0.52694 0.42716 0.0
C3 C 0.74476 0.50282 0.5633 0.0
C4 C 0.76097 0.53751 0.37865 0.0
N5 N 0.78705 0.53453 0.412 0.0
C6 C 0.75507 0.54699 0.28803 0.0
H7 H 0.74737 0.48128 0.53349 0.0
H8 H 0.72212 0.50685 0.57426 0.0
H9 H 0.75625 0.50805 0.63269 0.0
H10 H 0.73822 0.56187 0.30053 0.0
H11 H 0.74766 0.52998 0.23128 0.0
H12 H 0.77396 0.5561 0.2629 0.0
C13 C 1.01485 0.73064 0.49756 0.0
N14 N 1.02224 0.75554 0.48915 0.0
N15 N 1.02256 0.71252 0.41854 0.0
C16 C 1.00084 0.72393 0.58288 0.0
C17 C 0.03452 0.72722 0.36163 0.0
N18 N 0.0344 0.75322 0.40449 0.0
C19 C 0.04481 0.71615 0.26192 0.0
H20 H 1.00556 0.7033 0.5882 0.0
H21 H 0.97787 0.72552 0.57473 0.0
H22 H 1.0076 0.73804 0.64957 0.0
H23 H 0.03107 0.69948 0.22517 0.0
H24 H 0.06615 0.70832 0.26664 0.0
H25 H 0.04566 0.73152 0.21859 0.0
C26 C 0.78727 0.00722 0.42915 0.0
N27 N 0.76333 0.02097 0.45662 0.0
N28 N 0.8043 0.02047 0.37777 0.0
C29 C 0.79351 0.98053 0.44879 0.0
C30 C 0.78962 0.0426 0.37499 0.0
N31 N 0.76527 0.04296 0.42287 0.0
C32 C 0.7983 0.06317 0.32008 0.0
H33 H 0.81641 0.97726 0.44862 0.0
H34 H 0.78366 0.965 0.39169 0.0
H35 H 0.78465 0.97858 0.5184 0.0
H36 H 0.80908 0.05374 0.25307 0.0
H37 H 0.81311 0.0775 0.36478 0.0
H38 H 0.78018 0.07439 0.302 0.0
C39 C 0.53405 0.78277 0.26844 0.0
N40 N 0.52899 0.75647 0.26063 0.0
N41 N 0.52319 0.7909 0.19183 0.0
C42 C 0.54876 0.80063 0.35162 0.0
C43 C 0.51162 0.7685 0.13695 0.0
N44 N 0.51509 0.74769 0.17889 0.0
C45 C 0.49888 0.7666 0.03924 0.0
H46 H 0.54138 0.82132 0.3611 0.0
H47 H 0.57155 0.80051 0.3374 0.0
H48 H 0.54534 0.79347 0.41843 0.0
H49 H 0.50899 0.78106 1.0025 0.0
H50 H 0.47633 0.77132 0.04737 0.0
H51 H 0.50075 0.74629 0.9942 0.0
C52 C 0.30111 0.50207 0.22871 0.0
N53 N 0.27284 0.49865 0.2147 0.0
N54 N 0.30893 0.49907 0.31805 0.0
C55 C 0.32079 0.50949 0.15744 0.0
C56 C 0.28428 0.49373 0.35703 0.0
N57 N 0.26274 0.49344 0.295 0.0
C58 C 0.28116 0.48844 0.45578 0.0
H59 H 0.33896 0.52108 0.19427 0.0
H60 H 0.30987 0.52105 0.11169 0.0
H61 H 0.32867 0.49105 0.11069 0.0
H62 H 0.27803 0.50756 0.5075 0.0
H63 H 0.30021 0.47908 0.4774 0.0
H64 H 0.2627 0.47539 0.45899 0.0
C65 C 0.03582 0.27235 0.16808 0.0
N66 N 0.02991 0.24754 0.18043 0.0
N67 N 0.02999 0.29074 0.24891 0.0
C68 C 0.04611 0.27865 0.07661 0.0
C69 C 1.02071 0.27611 0.3108 0.0
N70 N 1.02051 0.25004 0.26898 0.0
C71 C 1.01383 0.28708 0.41428 0.0
H72 H 0.06931 0.27807 0.07637 0.0
H73 H 0.03961 0.29878 0.07062 0.0
H74 H 0.03814 0.2637 0.01387 0.0
H75 H 0.9914 0.29239 0.41956 0.0
H76 H 0.02657 0.30518 0.4439 0.0
H77 H 1.01749 0.27217 0.45818 0.0
C78 C 0.25788 0.99212 0.25037 0.0
N79 N 0.28226 0.97865 0.22679 0.0
N80 N 0.2419 0.98065 0.31029 0.0
C81 C 0.24915 0.01564 0.21233 0.0
C82 C 0.2578 0.96016 0.32331 0.0
N83 N 0.28165 0.95873 0.27217 0.0
C84 C 0.2516 0.94336 0.39505 0.0
H85 H 0.25704 0.03398 0.26159 0.0
H86 H 0.22599 0.01656 0.20843 0.0
H87 H 0.25817 0.01482 0.1405 0.0
H88 H 0.24014 0.92508 0.35845 0.0
H89 H 0.23857 0.95416 0.45442 0.0
H90 H 0.27117 0.93738 0.42618 0.0
C91 C 0.51978 0.22148 0.46573 0.0
N92 N 0.52234 0.24821 0.47777 0.0
N93 N 0.5284 0.21367 0.54587 0.0
C94 C 0.50772 0.20318 0.37812 0.0
C95 C 0.53606 0.23667 0.60704 0.0
N96 N 0.5324 0.25756 0.56556 0.0
C97 C 0.54646 0.23865 0.70776 0.0
H98 H 0.48468 0.202 0.3858 0.0
H99 H 0.51621 0.18292 0.37 0.0
H100 H 0.51214 0.21072 0.31281 0.0
H101 H 0.56881 0.23303 0.70562 0.0
H102 H 0.53462 0.22461 0.74198 0.0
H103 H 0.54469 0.25908 0.75171 0.0
Tb104 Tb 1.00173 0.00553 0.75321 0.0
Tb105 Tb 0.04293 0.99738 0.92753 0.0
C106 C 0.97728 0.99997 0.95574 0.0
C107 C 0.97492 0.03855 0.57365 0.0
C108 C 0.98021 0.08568 0.50726 0.0
C109 C 0.9549 0.07114 0.49472 0.0
C110 C 0.95219 0.04771 0.52824 0.0
C111 C 1.00054 0.05255 0.58271 0.0
C112 C 1.00312 0.07602 0.55023 0.0
C113 C 0.97111 0.01695 0.62422 0.0
O114 O 1.02408 0.04309 0.80244 0.0
O115 O 0.0346 0.03967 0.95531 0.0
O116 O 0.07145 0.00652 0.81843 0.0
O117 O 0.0427 0.99747 0.68563 0.0
O118 O 0.05179 0.00299 0.07478 0.0
O119 O 0.08085 0.98317 0.96961 0.0
O120 O 0.03434 0.95752 0.84466 0.0
O121 O 0.99621 0.96351 0.75238 0.0
O122 O 0.97552 0.01123 0.88169 0.0
O123 O 1.00072 0.98893 0.97468 0.0
C124 C 0.03113 0.05405 0.89104 0.0
O125 O 0.98971 0.99832 0.60788 0.0
O126 O 0.96667 0.02509 0.7154 0.0
C127 C 0.06784 1.00188 0.72471 0.0
C128 C 0.07339 0.96475 0.10164 0.0
C129 C 0.07414 0.91671 0.16313 0.0
C130 C 0.09634 0.93517 0.18728 0.0
C131 C 0.09607 0.95904 0.15592 0.0
C132 C 0.05096 0.94656 0.07946 0.0
C133 C 0.05137 0.92272 0.10967 0.0
C134 C 0.07386 0.98815 0.05941 0.0
C135 C 1.01336 0.94813 0.78694 0.0
H136 H 0.93698 0.07856 0.46276 0.0
H137 H 0.93217 0.03734 0.52195 0.0
H138 H 1.01828 0.04585 0.61805 0.0
H139 H 1.02289 0.08687 0.56001 0.0
H140 H 0.11416 0.93077 0.22793 0.0
H141 H 0.11373 0.97271 0.1722 0.0
H142 H 0.03336 0.95059 0.03702 0.0
H143 H 0.03385 0.90894 0.09125 0.0
Tb144 Tb 0.51869 0.98186 0.75756 0.0
Tb145 Tb 0.53355 0.02038 0.96347 0.0
C146 C 0.52967 0.95772 0.9368 0.0
C147 C 0.49127 0.93124 0.54409 0.0
C148 C 0.4496 0.89603 0.44893 0.0
C149 C 0.45785 0.89537 0.54313 0.0
C150 C 0.47839 0.91307 0.59082 0.0
C151 C 0.48499 0.93032 0.44801 0.0
C152 C 0.46439 0.91296 0.40079 0.0
C153 C 0.51002 0.95245 0.59416 0.0
O154 O 0.47729 0.99183 0.82496 0.0
O155 O 0.49189 0.004 0.98181 0.0
O156 O 0.51682 0.04594 0.87464 0.0
O157 O 0.52808 0.02075 0.72882 0.0
O158 O 0.55826 0.03014 0.08758 0.0
O159 O 0.52225 0.05356 0.06993 0.0
O160 O 0.57097 0.02283 0.8752 0.0
O161 O 0.5645 0.98278 0.77133 0.0
O162 O 0.51549 0.95571 0.85667 0.0
O163 O 0.54207 0.98008 0.98032 0.0
C164 C 0.47172 0.99704 0.91777 0.0
O165 O 0.49881 0.97569 0.62318 0.0
O166 O 0.52706 0.94668 0.65779 0.0
C167 C 0.52167 0.04371 0.78321 0.0
C168 C 0.55991 0.07535 0.16522 0.0
C169 C 0.59763 0.11182 0.27599 0.0
C170 C 0.57017 0.10934 0.30787 0.0
C171 C 0.55148 0.091 0.25298 0.0
C172 C 0.58577 0.08062 0.12705 0.0
C173 C 0.60452 0.09878 0.18208 0.0
C174 C 0.54377 0.05115 0.12343 0.0
C175 C 0.58061 0.00344 0.80769 0.0
H176 H 0.44729 0.88233 0.58191 0.0
H177 H 0.48331 0.91335 0.66507 0.0
H178 H 0.49492 0.94414 0.41092 0.0
H179 H 0.45859 0.9146 0.32907 0.0
H180 H 0.56417 0.11954 0.37916 0.0
H181 H 0.53134 0.08746 0.28264 0.0
H182 H 0.59248 0.06899 0.05864 0.0
H183 H 0.62551 0.10014 0.1552 0.0
Tb184 Tb 0.50575 0.49252 0.94272 0.0
Tb185 Tb 0.54664 0.51461 0.79094 0.0
C186 C 0.48221 0.50421 0.74461 0.0
C187 C 0.48201 0.44608 0.09022 0.0
C188 C 0.49102 0.39913 0.15676 0.0
C189 C 0.46433 0.41056 0.16178 0.0
C190 C 0.45989 0.43381 0.12876 0.0
C191 C 0.50877 0.43502 0.08631 0.0
C192 C 0.51326 0.41181 0.11947 0.0
C193 C 0.47653 0.4688 0.04605 0.0
O194 O 0.5362 0.46255 0.88742 0.0
O195 O 0.54193 0.47172 0.74022 0.0
O196 O 0.57487 0.50605 0.90318 0.0
O197 O 0.54381 0.50674 0.02585 0.0
O198 O 0.55785 0.51565 0.6496 0.0
O199 O 0.58165 0.53763 0.76973 0.0
O200 O 0.53005 0.54959 0.88448 0.0
O201 O 0.49346 0.53379 0.96305 0.0
O202 O 0.4813 0.48926 0.80872 0.0
O203 O 0.50423 0.51939 0.73892 0.0
C204 C 0.54196 0.45486 0.79671 0.0
O205 O 0.49074 0.49067 0.0794 0.0
O206 O 0.47604 0.46302 0.95287 0.0
C207 C 0.5697 0.50745 0.9949 0.0
C208 C 0.57469 0.55821 0.64058 0.0
C209 C 0.57032 0.60555 0.57281 0.0
C210 C 0.59099 0.58685 0.53718 0.0
C211 C 0.59322 0.56343 0.57114 0.0
C212 C 0.55399 0.57672 0.67582 0.0
C213 C 0.55188 0.60018 0.64269 0.0
C214 C 0.57712 0.53384 0.67786 0.0
C215 C 0.50765 0.55322 0.93822 0.0
H216 H 0.44686 0.40151 0.19127 0.0
H217 H 0.43905 0.44194 0.13171 0.0
H218 H 0.52607 0.44403 0.05572 0.0
H219 H 0.53399 0.40342 0.11365 0.0
H220 H 0.60563 0.5905 0.48391 0.0
H221 H 0.60948 0.54949 0.54355 0.0
H222 H 0.53946 0.57295 0.72912 0.0
H223 H 0.53549 0.61394 0.67064 0.0
Tb224 Tb 0.04426 0.5299 0.73787 0.0
Tb225 Tb 0.03315 0.48442 0.85753 0.0
C226 C 0.02667 0.54435 0.9551 0.0
C227 C 0.04553 0.56103 0.53642 0.0
C228 C 0.06704 0.53288 0.36557 0.0
C229 C 0.07502 0.55969 0.39998 0.0
C230 C 0.06432 0.57375 0.48623 0.0
C231 C 0.03193 0.53751 0.48832 0.0
C232 C 0.04278 0.52333 0.40227 0.0
C233 C 0.05052 0.56435 0.63923 0.0
O234 O 0.0868 0.51929 0.77986 0.0
O235 O 0.07477 0.49995 0.90404 0.0
O236 O 0.05734 0.46871 0.73087 0.0
O237 O 0.03959 0.49282 0.63136 0.0
O238 O 0.03638 0.46885 0.98046 0.0
O239 O 1.02409 0.44393 0.84444 0.0
O240 O 0.99109 0.48781 0.7954 0.0
O241 O 0.99888 0.52278 0.72232 0.0
O242 O 0.04223 0.55015 0.88696 0.0
O243 O 1.01691 0.52015 0.95065 0.0
C244 C 0.09392 0.50964 0.85496 0.0
O245 O 0.02869 0.56313 0.69209 0.0
O246 O 0.07059 0.54945 0.65866 0.0
C247 C 0.04992 0.4706 0.64476 0.0
C248 C 1.00044 0.438 0.98204 0.0
C249 C 0.94952 0.44815 0.07402 0.0
C250 C 0.94993 0.43806 0.97491 0.0
C251 C 0.97536 0.43288 0.92885 0.0
C252 C 0.99955 0.44313 0.08235 0.0
C253 C 0.97406 0.44838 0.12851 0.0
C254 C 0.02561 0.44598 0.93688 0.0
C255 C 0.98193 0.50499 0.74631 0.0
H256 H 0.09308 0.56815 0.37149 0.0
H257 H 0.07451 0.59225 0.52119 0.0
H258 H 1.01663 0.52773 0.52493 0.0
H259 H 0.0354 0.50318 0.37428 0.0
H260 H 0.93096 0.43707 0.93222 0.0
H261 H 0.97535 0.42814 0.85128 0.0
H262 H 1.01869 0.44672 0.12447 0.0
H263 H 0.97407 0.45578 0.20544 0.0
C264 C 0.20895 0.01227 0.41049 0.0
C265 C 0.2144 0.9872 0.35265 0.0
C266 C 0.1844 0.01682 0.467 0.0
C267 C 0.16499 0.99568 0.46805 0.0
C268 C 0.16995 0.97068 0.40651 0.0
C269 C 0.19409 0.96696 0.3489 0.0
C270 C 0.17976 0.04408 0.52835 0.0
C271 C 0.15068 0.9472 0.4058 0.0
C272 C 0.11987 0.99638 0.69144 0.0
C273 C 0.09291 1.00156 0.66061 0.0
C274 C 0.14333 0.99474 0.63039 0.0
C275 C 0.14029 0.99907 0.53609 0.0
C276 C 0.11324 0.00505 0.50555 0.0
C277 C 0.09 0.00588 0.56722 0.0
C278 C 0.17133 0.98757 0.66614 0.0
C279 C 0.10875 0.01033 0.40697 0.0
H280 H 0.22446 0.02801 0.4148 0.0
H281 H 0.19796 0.94758 0.3041 0.0
H282 H 0.15802 0.05044 0.51893 0.0
H283 H 0.18255 0.04354 0.60491 0.0
H284 H 0.19456 0.0591 0.51104 0.0
H285 H 0.15579 0.92985 0.34784 0.0
H286 H 0.15246 0.9412 0.4755 0.0
H287 H 0.12857 0.95253 0.39717 0.0
H288 H 0.12255 0.99283 0.76285 0.0
H289 H 0.06946 0.01012 0.54223 0.0
H290 H 0.1871 0.00328 0.66252 0.0
H291 H 0.1787 0.96889 0.61949 0.0
H292 H 0.17045 0.98489 0.74102 0.0
H293 H 0.12318 0.02642 0.39602 0.0
H294 H 0.0869 0.01605 0.39522 0.0
H295 H 0.1137 0.99233 0.35197 0.0
C296 C 0.502 0.17374 0.5648 0.0
C297 C 0.52753 0.18744 0.56584 0.0
C298 C 0.50048 0.14933 0.59333 0.0
C299 C 0.52511 0.13838 0.62363 0.0
C300 C 0.55115 0.15166 0.62057 0.0
C301 C 0.55199 0.17613 0.59235 0.0
C302 C 0.47243 0.13553 0.59318 0.0
C303 C 0.57801 0.14045 0.64989 0.0
C304 C 0.5181 0.09311 0.8006 0.0
C305 C 0.52143 0.0678 0.74164 0.0
C306 C 0.51913 0.11611 0.7629 0.0
C307 C 0.5234 0.11388 0.66352 0.0
C308 C 0.52628 0.08836 0.60334 0.0
C309 C 0.52547 0.06571 0.64314 0.0
C310 C 0.51597 0.14289 0.82979 0.0
C311 C 0.53112 0.08477 0.49726 0.0
H312 H 0.48312 0.18261 0.54457 0.0
H313 H 0.57174 0.1867 0.59214 0.0
H314 H 0.47352 0.11485 0.55062 0.0
H315 H 0.46685 0.13446 0.66741 0.0
H316 H 0.4555 0.14591 0.56309 0.0
H317 H 0.59674 0.15175 0.63448 0.0
H318 H 0.57764 0.14094 0.72778 0.0
H319 H 0.58003 0.11941 0.61201 0.0
H320 H 0.51508 0.09506 0.87679 0.0
H321 H 0.52821 0.04633 0.59671 0.0
H322 H 0.49807 0.15345 0.80632 0.0
H323 H 0.53503 0.15526 0.82746 0.0
H324 H 0.51252 0.14128 0.90503 0.0
H325 H 0.51931 0.09937 0.46663 0.0
H326 H 0.52509 0.06445 0.45765 0.0
H327 H 0.55371 0.0878 0.48532 0.0
C328 C 0.35842 0.48543 0.33428 0.0
C329 C 0.33616 0.50245 0.36667 0.0
C330 C 0.3832 0.48577 0.39011 0.0
C331 C 0.38602 0.50359 0.48106 0.0
C332 C 0.36393 0.52148 0.51188 0.0
C333 C 0.33952 0.52067 0.45477 0.0
C334 C 0.406 0.4664 0.35312 0.0
C335 C 0.36563 0.54099 0.60714 0.0
C336 C 0.4341 0.48734 0.67813 0.0
C337 C 0.45781 0.5037 0.67591 0.0
C338 C 0.41109 0.48677 0.61455 0.0
C339 C 0.41132 0.50296 0.54589 0.0
C340 C 0.43529 0.51935 0.54266 0.0
C341 C 0.45803 0.51953 0.60709 0.0
C342 C 0.38626 0.46894 0.62162 0.0
C343 C 0.43681 0.53702 0.47155 0.0
H344 H 0.35594 0.47109 0.26701 0.0
H345 H 0.32248 0.5339 0.48034 0.0
H346 H 0.42625 0.47713 0.35244 0.0
H347 H 0.40861 0.45249 0.40158 0.0
H348 H 0.40138 0.45469 0.2797 0.0
H349 H 0.34749 0.5545 0.61889 0.0
H350 H 0.3664 0.53009 0.66587 0.0
H351 H 0.38514 0.55315 0.61193 0.0
H352 H 0.4334 0.47491 0.73011 0.0
H353 H 0.47603 0.53227 0.60362 0.0
H354 H 0.38214 0.45529 0.55134 0.0
H355 H 0.36729 0.48107 0.64024 0.0
H356 H 0.38945 0.45694 0.67638 0.0
H357 H 0.4338 0.525 0.39774 0.0
H358 H 0.45711 0.54797 0.47549 0.0
H359 H 0.41969 0.55163 0.48497 0.0
C360 C 1.01053 0.33498 0.30763 0.0
C361 C 0.03301 0.31926 0.26854 0.0
C362 C 1.01452 0.36189 0.35103 0.0
C363 C 0.04162 0.37351 0.35342 0.0
C364 C 0.06367 0.35847 0.30375 0.0
C365 C 0.05919 0.33132 0.26276 0.0
C366 C 0.99032 0.3771 0.40232 0.0
C367 C 0.09249 0.37051 0.30036 0.0
C368 C 0.04408 0.44736 0.47122 0.0
C369 C 0.05132 0.44662 0.56575 0.0
C370 C 0.04279 0.42395 0.3989 0.0
C371 C 0.04771 0.39913 0.42272 0.0
C372 C 0.05587 0.39844 0.5175 0.0
C373 C 0.05796 0.42214 0.58711 0.0
C374 C 0.03499 0.42593 0.29847 0.0
C375 C 0.06085 0.37249 0.54713 0.0
H376 H 0.99019 0.32563 0.3102 0.0
H377 H 0.07654 0.31917 0.23193 0.0
H378 H 0.99425 0.38128 0.48078 0.0
H379 H 0.98829 0.39644 0.38138 0.0
H380 H 0.97016 0.36595 0.38685 0.0
H381 H 0.10545 0.35831 0.24363 0.0
H382 H 0.0911 0.39089 0.2874 0.0
H383 H 0.10327 0.37198 0.37026 0.0
H384 H 0.03878 0.46611 0.45401 0.0
H385 H 0.06359 0.42123 0.65981 0.0
H386 H 1.01194 0.42394 0.28917 0.0
H387 H 0.04474 0.41005 0.24411 0.0
H388 H 0.04143 0.44553 0.2848 0.0
H389 H 0.04135 0.36022 0.53677 0.0
H390 H 0.06756 0.37544 0.62326 0.0
H391 H 0.07715 0.36107 0.50174 0.0
C392 C 0.83369 0.99026 0.25814 0.0
C393 C 0.83102 0.01332 0.33049 0.0
C394 C 0.85787 0.9859 0.19976 0.0
C395 C 0.87998 0.00518 0.21263 0.0
C396 C 0.87766 0.028 0.288 0.0
C397 C 0.85358 0.03159 0.34607 0.0
C398 C 0.85923 0.96112 0.12155 0.0
C399 C 0.90015 0.04934 0.3049 0.0
C400 C 0.95323 0.98951 0.10251 0.0
C401 C 0.95218 1.00032 0.02023 0.0
C402 C 0.92996 0.99045 0.16434 0.0
C403 C 0.90466 1.00249 0.14449 0.0
C404 C 0.90342 0.01318 0.0611 0.0
C405 C 0.92694 0.01196 1.0006 0.0
C406 C 0.93262 0.97886 0.25201 0.0
C407 C 0.87726 0.02641 0.03639 0.0
H408 H 0.81632 0.97618 0.24439 0.0
H409 H 0.8518 0.0494 0.4019 0.0
H410 H 0.85811 0.9665 0.05069 0.0
H411 H 0.87945 0.95108 0.12539 0.0
H412 H 0.84186 0.94691 0.12601 0.0
H413 H 0.89516 0.066 0.36558 0.0
H414 H 0.92045 0.0408 0.31973 0.0
H415 H 0.90285 0.05741 0.23966 0.0
H416 H 0.9724 0.98046 0.11935 0.0
H417 H 0.92553 0.02043 0.93782 0.0
H418 H 0.91511 0.96467 0.25421 0.0
H419 H 0.93129 0.99492 0.31742 0.0
H420 H 0.95273 0.96845 0.25414 0.0
H421 H 0.85912 0.01247 0.03023 0.0
H422 H 0.87921 0.03322 0.96819 0.0
H423 H 0.8726 0.04381 0.09459 0.0
C424 C 0.55114 0.8282 0.15727 0.0
C425 C 0.52503 0.81675 0.16904 0.0
C426 C 0.55318 0.85198 0.12456 0.0
C427 C 0.52848 0.86469 0.10398 0.0
C428 C 0.50204 0.85351 0.11876 0.0
C429 C 0.50066 0.82966 0.15095 0.0
C430 C 0.58176 0.86287 0.10808 0.0
C431 C 0.47518 0.86649 0.09892 0.0
C432 C 0.53243 0.93693 0.07983 0.0
C433 C 0.5309 0.93411 0.98016 0.0
C434 C 0.53165 0.91455 0.12134 0.0
C435 C 0.53018 0.88874 0.06168 0.0
C436 C 0.52944 0.88584 0.96089 0.0
C437 C 0.5294 0.90852 0.92153 0.0
C438 C 0.5318 0.91853 0.22899 0.0
C439 C 0.5283 0.85874 0.89448 0.0
H440 H 0.56992 0.81795 0.17023 0.0
H441 H 0.48052 0.82074 0.16059 0.0
H442 H 0.58437 0.86236 0.0307 0.0
H443 H 0.58389 0.8839 0.14676 0.0
H444 H 0.59888 0.85139 0.1319 0.0
H445 H 0.45644 0.85432 0.10777 0.0
H446 H 0.47365 0.88622 0.14834 0.0
H447 H 0.47499 0.86981 0.02491 0.0
H448 H 0.53332 0.95666 0.12553 0.0
H449 H 0.52834 0.90621 0.84442 0.0
H450 H 0.55054 0.90922 0.25294 0.0
H451 H 0.51317 0.9086 0.25218 0.0
H452 H 0.53182 0.93986 0.26546 0.0
H453 H 0.54591 0.84657 0.91068 0.0
H454 H 0.52935 0.85984 0.8179 0.0
H455 H 0.50861 0.84824 0.9057 0.0
C456 C 0.70501 0.49661 0.33575 0.0
C457 C 0.7125 0.52147 0.39315 0.0
C458 C 0.6806 0.49309 0.27696 0.0
C459 C 0.66316 0.51501 0.27382 0.0
C460 C 0.66988 0.53981 0.3359 0.0
C461 C 0.69428 0.54268 0.39424 0.0
C462 C 0.67436 0.46614 0.21405 0.0
C463 C 0.65237 0.56391 0.33609 0.0
C464 C 0.62126 0.51492 0.0417 0.0
C465 C 0.59372 0.50909 0.06579 0.0
C466 C 0.64377 0.51688 0.10815 0.0
C467 C 0.63914 0.51254 0.20167 0.0
C468 C 0.61144 0.50637 0.22607 0.0
C469 C 0.58924 0.50489 0.1587 0.0
C470 C 0.67264 0.52392 0.07838 0.0
C471 C 0.60521 0.50128 0.32378 0.0
H472 H 0.71929 0.48031 0.33215 0.0
H473 H 0.70026 0.56209 0.43625 0.0
H474 H 0.65207 0.4605 0.22043 0.0
H475 H 0.67795 0.46682 0.13809 0.0
H476 H 0.68776 0.45051 0.23242 0.0
H477 H 0.65802 0.5807 0.39646 0.0
H478 H 0.65548 0.57045 0.26793 0.0
H479 H 0.6298 0.55908 0.34068 0.0
H480 H 0.62524 0.51833 0.97086 0.0
H481 H 0.56827 0.50021 0.17894 0.0
H482 H 0.68744 0.50797 0.08424 0.0
H483 H 0.6804 0.5424 0.12723 0.0
H484 H 0.67297 0.52687 1.00378 0.0
H485 H 0.6179 0.48452 0.33645 0.0
H486 H 0.58273 0.49655 0.33214 0.0
H487 H 0.61117 0.51896 0.37988 0.0
C488 C 0.04142 0.66769 0.38495 0.0
C489 C 1.01821 0.68422 0.39395 0.0
C490 C 0.03976 0.64148 0.33115 0.0
C491 C 1.01431 0.6318 0.28388 0.0
C492 C 0.99003 0.64754 0.30192 0.0
C493 C 0.99231 0.67368 0.35677 0.0
C494 C 0.06616 0.62549 0.3155 0.0
C495 C 0.96241 0.638 0.25427 0.0
C496 C 1.02505 0.59249 0.03072 0.0
C497 C 1.02108 0.56614 0.03932 0.0
C498 C 1.02208 0.6138 0.10917 0.0
C499 C 1.01499 0.60886 0.1997 0.0
C500 C 1.01023 0.58233 0.20895 0.0
C501 C 1.01315 0.56123 0.1283 0.0
C502 C 0.02736 0.64166 0.09527 0.0
C503 C 1.0025 0.57627 0.30404 0.0
H504 H 0.06147 0.67606 0.41324 0.0
H505 H 0.97449 0.68669 0.36314 0.0
H506 H 0.0616 0.60401 0.30793 0.0
H507 H 0.07615 0.6282 0.24842 0.0
H508 H 0.08137 0.63207 0.37533 0.0
H509 H 0.94469 0.64972 0.29044 0.0
H510 H 0.96282 0.64005 0.17868 0.0
H511 H 0.95862 0.61673 0.25389 0.0
H512 H 0.03081 0.59659 0.96216 0.0
H513 H 1.01001 0.54093 0.13557 0.0
H514 H 0.04566 0.65066 0.1393 0.0
H515 H 1.00903 0.65425 0.11932 0.0
H516 H 0.03154 0.64215 0.0194 0.0
H517 H 1.01763 0.58599 0.36039 0.0
H518 H 1.00192 0.5546 0.30142 0.0
H519 H 0.98159 0.58444 0.32558 0.0
C520 C 0.03411 0.21058 0.32618 0.0
C521 C 1.0135 0.22841 0.31319 0.0
C522 C 0.02743 0.18854 0.36454 0.0
C523 C 0.99931 0.1842 0.38906 0.0
C524 C 0.97858 0.2027 0.37837 0.0
C525 C 0.98598 0.22472 0.34057 0.0
C526 C 0.0506 0.17016 0.3791 0.0
C527 C 0.94854 0.19891 0.4049 0.0
C528 C 0.97703 0.11301 0.38397 0.0
C529 C 0.9827 0.11134 0.4784 0.0
C530 C 0.98152 0.13684 0.35414 0.0
C531 C 0.99147 0.15963 0.42126 0.0
C532 C 0.99554 0.15834 0.51823 0.0
C533 C 0.99149 0.13406 0.54527 0.0
C534 C 0.97574 0.13685 0.25028 0.0
C535 C 1.00454 0.18239 0.59338 0.0
H536 H 0.05543 0.21395 0.30577 0.0
H537 H 0.97024 0.23875 0.33006 0.0
H538 H 0.06903 0.17215 0.33413 0.0
H539 H 0.05761 0.17533 0.45498 0.0
H540 H 0.04344 0.14911 0.36302 0.0
H541 H 0.93565 0.21647 0.40208 0.0
H542 H 0.93932 0.18136 0.35467 0.0
H543 H 0.94746 0.195 0.47809 0.0
H544 H 0.96993 0.09543 0.33252 0.0
H545 H 0.99516 0.13279 0.61891 0.0
H546 H 0.98726 0.12047 0.20375 0.0
H547 H 0.98143 0.15573 0.22999 0.0
H548 H 0.95311 0.13279 0.23482 0.0
H549 H 0.99359 0.20039 0.58301 0.0
H550 H 0.02733 0.18593 0.58753 0.0
H551 H 1.00038 0.17966 0.66696 0.0
C552 C 0.33048 0.95149 0.31034 0.0
C553 C 0.30425 0.94106 0.27752 0.0
C554 C 0.35215 0.93479 0.32387 0.0
C555 C 0.34717 0.90694 0.30578 0.0
C556 C 0.32089 0.89623 0.26941 0.0
C557 C 0.29966 0.91354 0.25549 0.0
C558 C 0.37997 0.94716 0.36202 0.0
C559 C 0.31453 0.86682 0.24998 0.0
C560 C 0.41788 0.87845 0.30898 0.0
C561 C 0.42225 0.8845 0.40858 0.0
C562 C 0.3915 0.88182 0.27044 0.0
C563 C 0.36913 0.89004 0.33351 0.0
C564 C 0.37206 0.88953 0.43144 0.0
C565 C 0.39884 0.88709 0.46848 0.0
C566 C 0.38895 0.88114 0.16481 0.0
C567 C 0.34806 0.89635 0.49994 0.0
H568 H 0.33367 0.97283 0.32817 0.0
H569 H 0.2792 0.9057 0.2298 0.0
H570 H 0.39731 0.93757 0.31673 0.0
H571 H 0.38094 0.96883 0.36467 0.0
H572 H 0.38354 0.94416 0.43558 0.0
H573 H 0.33334 0.85488 0.2266 0.0
H574 H 0.30692 0.86163 0.31676 0.0
H575 H 0.29785 0.86115 0.19452 0.0
H576 H 0.43568 0.87478 0.26189 0.0
H577 H 0.40154 0.89088 0.5455 0.0
H578 H 0.36769 0.87459 0.13709 0.0
H579 H 0.40461 0.86774 0.12319 0.0
H580 H 0.39279 0.90143 0.15287 0.0
H581 H 0.3281 0.88767 0.46629 0.0
H582 H 0.34588 0.91825 0.51962 0.0
H583 H 0.35168 0.88914 0.56667 0.0
C584 C 0.51832 0.29919 0.67247 0.0
C585 C 0.53736 0.28524 0.60721 0.0
C586 C 0.52048 0.32692 0.70308 0.0
C587 C 0.54258 0.34083 0.6689 0.0
C588 C 0.56226 0.32659 0.60455 0.0
C589 C 0.55921 0.29893 0.5737 0.0
C590 C 0.49844 0.34142 0.76857 0.0
C591 C 0.58619 0.34065 0.56712 0.0
C592 C 0.5322 0.41401 0.67158 0.0
C593 C 0.54537 0.42622 0.7578 0.0
C594 C 0.53115 0.38625 0.6415 0.0
C595 C 0.54446 0.37036 0.69752 0.0
C596 C 0.55882 0.38276 0.78281 0.0
C597 C 0.55867 0.41054 0.8128 0.0
C598 C 0.51394 0.37439 0.55352 0.0
C599 C 0.57353 0.36666 0.84407 0.0
H600 H 0.50108 0.28841 0.69598 0.0
H601 H 0.57354 0.28792 0.52195 0.0
H602 H 0.50836 0.3541 0.83323 0.0
H603 H 0.48684 0.35469 0.73102 0.0
H604 H 0.48323 0.32762 0.79153 0.0
H605 H 0.59851 0.32699 0.51241 0.0
H606 H 0.57819 0.35688 0.53519 0.0
H607 H 0.60033 0.34988 0.62738 0.0
H608 H 0.52123 0.42609 0.63036 0.0
H609 H 0.56865 0.42003 0.88008 0.0
H610 H 0.4916 0.3743 0.57412 0.0
H611 H 0.51976 0.35376 0.52079 0.0
H612 H 0.51582 0.38666 0.49894 0.0
H613 H 0.55795 0.35467 0.87417 0.0
H614 H 0.58547 0.37937 0.90426 0.0
H615 H 0.58814 0.35263 0.79992 0.0
C616 C 0.21776 0.46918 0.26887 0.0
C617 C 0.23353 0.49132 0.31518 0.0
C618 C 0.18855 0.46849 0.27876 0.0
C619 C 0.17505 0.49102 0.33335 0.0
C620 C 0.19145 0.51201 0.38896 0.0
C621 C 0.22055 0.51204 0.37822 0.0
C622 C 0.17274 0.44351 0.23135 0.0
C623 C 0.17824 0.53503 0.45676 0.0
C624 C 0.10855 0.52124 0.2631 0.0
C625 C 0.08949 0.51417 0.32686 0.0
C626 C 0.13622 0.51279 0.2615 0.0
C627 C 0.14465 0.49532 0.32028 0.0
C628 C 0.1244 0.48528 0.37532 0.0
C629 C 0.09697 0.49477 0.3776 0.0
C630 C 0.15673 0.52587 0.20668 0.0
C631 C 0.13218 0.46676 0.4394 0.0
H632 H 0.22829 0.4527 0.22344 0.0
H633 H 0.23314 0.52876 0.41585 0.0
H634 H 0.17393 0.42915 0.27873 0.0
H635 H 0.15033 0.44693 0.21864 0.0
H636 H 0.18257 0.43393 0.16258 0.0
H637 H 0.19334 0.54507 0.51288 0.0
H638 H 0.17125 0.54987 0.4164 0.0
H639 H 0.15969 0.52836 0.49206 0.0
H640 H 0.10282 0.53613 0.22361 0.0
H641 H 0.08242 0.48929 0.4279 0.0
H642 H 0.17622 0.51458 0.19106 0.0
H643 H 0.1622 0.54592 0.2496 0.0
H644 H 0.14706 0.52869 0.13898 0.0
H645 H 0.13694 0.44696 0.39476 0.0
H646 H 0.11501 0.46421 0.48881 0.0
H647 H 0.15117 0.47423 0.48259 0.0
C648 C 0.07044 0.77876 0.33997 0.0
C649 C 0.04246 0.775 0.36233 0.0
C650 C 0.07869 0.80083 0.30368 0.0
C651 C 0.05832 0.81929 0.2894 0.0
C652 C 0.02986 0.81506 0.30979 0.0
C653 C 1.02232 0.79296 0.34656 0.0
C654 C 0.10912 0.80452 0.28148 0.0
C655 C 1.00733 0.83371 0.29213 0.0
C656 C 0.07747 0.89084 0.2908 0.0
C657 C 0.07415 0.89122 0.19391 0.0
C658 C 0.07351 0.86721 0.32254 0.0
C659 C 0.06659 0.84345 0.25533 0.0
C660 C 0.06493 0.8435 0.15661 0.0
C661 C 0.0685 0.86748 0.12715 0.0
C662 C 0.07497 0.86802 0.42848 0.0
C663 C 0.05817 0.8185 0.08251 0.0
H664 H 0.08582 0.76467 0.35278 0.0
H665 H 1.00067 0.78963 0.36346 0.0
H666 H 0.1113 0.80666 0.20637 0.0
H667 H 0.11755 0.82303 0.32832 0.0
H668 H 0.12205 0.78764 0.29198 0.0
H669 H 0.98697 0.82955 0.32335 0.0
H670 H 1.0136 0.85465 0.32247 0.0
H671 H 1.00428 0.83165 0.21396 0.0
H672 H 0.0817 0.90928 0.34228 0.0
H673 H 0.06627 0.86783 0.05196 0.0
H674 H 0.08923 0.85254 0.44279 0.0
H675 H 0.05391 0.86366 0.45386 0.0
H676 H 0.08228 0.88764 0.47076 0.0
H677 H 0.07136 0.80193 0.094 0.0
H678 H 0.06133 0.82123 0.00837 0.0
H679 H 0.03603 0.81255 0.08945 0.0
C680 C 0.72461 0.05743 0.34571 0.0
C681 C 0.74315 0.06144 0.42315 0.0
C682 C 0.70169 0.07392 0.34597 0.0
C683 C 0.69825 0.09605 0.4236 0.0
C684 C 0.71795 0.10093 0.50024 0.0
C685 C 0.74 0.08314 0.49985 0.0
C686 C 0.68071 0.06693 0.26436 0.0
C687 C 0.71587 0.12437 0.58361 0.0
C688 C 0.64472 0.13301 0.31995 0.0
C689 C 0.62074 0.12038 0.34603 0.0
C690 C 0.67087 0.12946 0.36018 0.0
C691 C 0.67279 0.11228 0.42455 0.0
C692 C 0.64811 0.10424 0.46494 0.0
C693 C 0.62218 0.10864 0.42563 0.0
C694 C 0.69676 0.14078 0.32341 0.0
C695 C 0.64922 0.08758 0.53924 0.0
H696 H 0.72763 0.04063 0.28652 0.0
H697 H 0.75479 0.08616 0.5591 0.0
H698 H 0.65928 0.06562 0.29256 0.0
H699 H 0.68082 0.0826 0.22226 0.0
H700 H 0.6853 0.04771 0.21496 0.0
H701 H 0.70175 0.13991 0.56885 0.0
H702 H 0.70805 0.11741 0.64691 0.0
H703 H 0.73694 0.1334 0.60293 0.0
H704 H 0.64357 0.14302 0.26086 0.0
H705 H 0.60366 0.09943 0.44823 0.0
H706 H 0.70524 0.12599 0.26243 0.0
H707 H 0.71319 0.14541 0.38012 0.0
H708 H 0.69196 0.15906 0.29773 0.0
H709 H 0.6281 0.08329 0.56472 0.0
H710 H 0.6619 0.09808 0.60151 0.0
H711 H 0.65952 0.06847 0.5092 0.0
C712 C 0.532 0.70276 0.1164 0.0
C713 C 0.50961 0.72013 0.13689 0.0
C714 C 0.52737 0.67545 0.0831 0.0
C715 C 0.49955 0.66532 0.07012 0.0
C716 C 0.47681 0.68294 0.0895 0.0
C717 C 0.48214 0.71029 0.12258 0.0
C718 C 0.55235 0.65759 0.06106 0.0
C719 C 0.44698 0.67282 0.07672 0.0
C720 C 0.49875 0.59748 0.90539 0.0
C721 C 0.49879 0.58088 0.97083 0.0
C722 C 0.49643 0.62502 0.93632 0.0
C723 C 0.4947 0.63626 0.03551 0.0
C724 C 0.49231 0.61931 0.10128 0.0
C725 C 0.4942 0.59169 0.06777 0.0
C726 C 0.49763 0.64208 0.86303 0.0
C727 C 0.48924 0.62979 0.20764 0.0
H728 H 0.55318 0.71068 0.12753 0.0
H729 H 0.46497 0.72395 0.13961 0.0
H730 H 0.54919 0.639 0.08682 0.0
H731 H 0.55517 0.65199 0.98241 0.0
H732 H 0.57194 0.66756 0.09365 0.0
H733 H 0.43168 0.68919 0.0902 0.0
H734 H 0.44367 0.66084 1.00293 0.0
H735 H 0.44278 0.65959 0.12686 0.0
H736 H 0.50152 0.58895 0.82992 0.0
H737 H 0.49401 0.57879 0.11833 0.0
H738 H 0.51902 0.65065 0.86219 0.0
H739 H 0.48285 0.65879 0.8811 0.0
H740 H 0.49261 0.63043 0.78981 0.0
H741 H 0.50625 0.62201 0.24654 0.0
H742 H 0.4692 0.62223 0.23112 0.0
H743 H 0.48946 0.65174 0.22932 0.0
C744 C 0.8351 0.54322 0.36477 0.0
C745 C 0.81012 0.52858 0.3484 0.0
C746 C 0.8588 0.53435 0.31051 0.0
C747 C 0.85694 0.51028 0.24023 0.0
C748 C 0.83095 0.49696 0.21827 0.0
C749 C 0.80791 0.50613 0.27371 0.0
C750 C 0.88564 0.55048 0.32978 0.0
C751 C 0.82785 0.47188 0.14123 0.0
C752 C 0.91545 0.48377 0.07361 0.0
C753 C 0.92561 0.46373 0.11651 0.0
C754 C 0.89385 0.50013 0.11545 0.0
C755 C 0.88231 0.49619 0.20184 0.0
C756 C 0.89296 0.47629 0.24633 0.0
C757 C 0.91463 0.46032 0.20304 0.0
C758 C 0.88268 0.52074 0.06519 0.0
C759 C 0.88069 0.47046 0.33652 0.0
H760 H 0.83624 0.5609 0.42175 0.0
H761 H 0.7883 0.49501 0.26202 0.0
H762 H 0.90437 0.53776 0.32068 0.0
H763 H 0.88718 0.56363 0.27817 0.0
H764 H 0.88601 0.56338 0.40291 0.0
H765 H 0.80556 0.46701 0.12149 0.0
H766 H 0.83939 0.47376 0.07595 0.0
H767 H 0.83681 0.45502 0.16738 0.0
H768 H 0.92461 0.48681 0.00764 0.0
H769 H 0.92271 0.44491 0.2361 0.0
H770 H 0.88022 0.54002 0.11639 0.0
H771 H 0.86167 0.5143 0.03451 0.0
H772 H 0.89653 0.5238 0.00634 0.0
H773 H 0.89728 0.46436 0.38166 0.0
H774 H 0.86552 0.45365 0.31664 0.0
H775 H 0.86957 0.48757 0.37971 0.0
C776 C 1.00718 0.20671 0.09044 0.0
C777 C 0.03136 0.22256 0.1119 0.0
C778 C 1.00865 0.18006 0.04166 0.0
C779 C 0.03503 0.16899 0.01307 0.0
C780 C 0.05932 0.18556 0.02837 0.0
C781 C 0.05721 0.21219 0.07824 0.0
C782 C 0.98206 0.16348 0.02444 0.0
C783 C 0.08768 0.17483 0.99618 0.0
C784 C 0.0402 0.09571 0.01556 0.0
C785 C 0.03455 0.08344 0.91977 0.0
C786 C 0.04148 0.12347 0.04563 0.0
C787 C 0.03731 0.13959 0.97838 0.0
C788 C 0.03292 0.12735 0.88065 0.0
C789 C 0.03134 0.09946 0.85263 0.0
C790 C 0.04673 0.13553 0.15016 0.0
C791 C 0.02898 0.14353 0.8057 0.0
H792 H 0.98724 0.21496 0.11633 0.0
H793 H 0.07589 0.22451 0.09555 0.0
H794 H 0.98451 0.14476 0.04951 0.0
H795 H 0.9638 0.1742 0.061 0.0
H796 H 0.9775 0.158 0.94647 0.0
H797 H 0.10348 0.19098 0.99876 0.0
H798 H 0.09499 0.16183 0.04337 0.0
H799 H 0.08641 0.16262 0.92207 0.0
H800 H 0.04301 0.08364 0.068 0.0
H801 H 0.02718 0.09027 0.77812 0.0
H802 H 0.04602 0.12046 0.19498 0.0
H803 H 0.03102 0.15089 0.17708 0.0
H804 H 0.06762 0.14541 0.15915 0.0
H805 H 0.04177 0.16211 0.82206 0.0
H806 H 1.00667 0.14904 0.80357 0.0
H807 H 0.03463 0.13204 0.73345 0.0
C808 C 0.31666 0.96237 0.0978 0.0
C809 C 0.30537 0.98357 0.1653 0.0
C810 C 0.34252 0.96471 0.05227 0.0
C811 C 0.35762 0.98923 0.07134 0.0
C812 C 0.34545 0.01122 0.13503 0.0
C813 C 0.3198 0.0081 0.18167 0.0
C814 C 0.35443 0.94036 0.98778 0.0
C815 C 0.36016 0.03792 0.15711 0.0
C816 C 0.43806 0.98866 0.04469 0.0
C817 C 0.44225 0.99437 0.95382 0.0
C818 C 0.41097 0.98668 0.08248 0.0
C819 C 0.38683 0.99124 0.03025 0.0
C820 C 0.39086 0.9971 0.93844 0.0
C821 C 0.41829 0.99823 0.90101 0.0
C822 C 0.4082 0.97933 0.1785 0.0
C823 C 0.36612 1.0025 0.87998 0.0
H824 H 0.30577 0.94335 0.08408 0.0
H825 H 0.3117 0.02455 0.23436 0.0
H826 H 0.33936 0.92334 0.97418 0.0
H827 H 0.36061 0.94472 0.91817 0.0
H828 H 0.37357 0.93437 0.02146 0.0
H829 H 0.34678 0.0537 0.19863 0.0
H830 H 0.37949 0.03678 0.19926 0.0
H831 H 0.3665 0.04363 0.08979 0.0
H832 H 0.45616 0.98534 0.0864 0.0
H833 H 0.42099 0.00281 0.83119 0.0
H834 H 0.39507 0.96108 0.17091 0.0
H835 H 0.39751 0.99536 0.22944 0.0
H836 H 0.42877 0.97582 0.20975 0.0
H837 H 0.35396 0.0192 0.92174 0.0
H838 H 0.35194 0.98487 0.86385 0.0
H839 H 0.37252 0.0075 0.81143 0.0
C840 C 0.49365 0.28389 0.44167 0.0
C841 C 0.51402 0.26468 0.41324 0.0
C842 C 0.48926 0.30397 0.3913 0.0
C843 C 0.50504 0.30426 0.30778 0.0
C844 C 0.52407 0.28348 0.27444 0.0
C845 C 0.52877 0.26424 0.32882 0.0
C846 C 0.46804 0.32493 0.43009 0.0
C847 C 0.54032 0.28206 0.18354 0.0
C848 C 0.47628 0.35283 0.16686 0.0
C849 C 0.49559 0.37405 0.1901 0.0
C850 C 0.47996 0.32937 0.20004 0.0
C851 C 0.50309 0.32727 0.26029 0.0
C852 C 0.52326 0.34827 0.28083 0.0
C853 C 0.51928 0.37127 0.2452 0.0
C854 C 0.4589 0.30695 0.17091 0.0
C855 C 0.54939 0.34687 0.33944 0.0
H856 H 0.48201 0.28387 0.50638 0.0
H857 H 0.5447 0.24944 0.30739 0.0
H858 H 0.47245 0.34409 0.40969 0.0
H859 H 0.44701 0.31771 0.40195 0.0
H860 H 0.46712 0.32854 0.50946 0.0
H861 H 0.54783 0.26165 0.15425 0.0
H862 H 0.52738 0.28842 0.12808 0.0
H863 H 0.55887 0.2955 0.19891 0.0
H864 H 0.45831 0.35448 0.12199 0.0
H865 H 0.53449 0.38742 0.26277 0.0
H866 H 0.44384 0.30737 0.22979 0.0
H867 H 0.46935 0.28742 0.15676 0.0
H868 H 0.44687 0.3087 0.10593 0.0
H869 H 0.5549 0.3667 0.38438 0.0
H870 H 0.56711 0.34092 0.2901 0.0
H871 H 0.54758 0.33245 0.38627 0.0
C872 C 0.24019 0.52636 0.14434 0.0
C873 C 0.25519 0.50282 0.1356 0.0
C874 C 0.21778 0.52867 0.08129 0.0
C875 C 0.20923 0.50644 0.00783 0.0
C876 C 0.22666 0.48367 0.9925 0.0
C877 C 0.24882 0.48194 0.05741 0.0
C878 C 0.20335 0.55508 0.09671 0.0
C879 C 0.22156 0.46031 0.91007 0.0
C880 C 0.13117 0.49067 0.94445 0.0
C881 C 0.1242 0.50811 0.88546 0.0
C882 C 0.15856 0.489 0.97975 0.0
C883 C 0.18057 0.50559 0.95786 0.0
C884 C 0.1741 0.52193 0.89197 0.0
C885 C 0.14616 0.52317 0.85761 0.0
C886 C 0.16288 0.46912 0.04125 0.0
C887 C 0.19636 0.53827 0.8564 0.0
H888 H 0.24524 0.54272 0.20386 0.0
H889 H 0.26038 0.46369 0.04935 0.0
H890 H 0.21507 0.56809 0.05783 0.0
H891 H 0.18143 0.55347 0.07048 0.0
H892 H 0.20361 0.56518 0.17368 0.0
H893 H 0.24174 0.45361 0.87562 0.0
H894 H 0.21275 0.44345 0.93759 0.0
H895 H 0.2072 0.46492 0.85486 0.0
H896 H 0.11494 0.478 0.96401 0.0
H897 H 0.14156 0.53625 0.80983 0.0
H898 H 0.14449 0.46858 0.08781 0.0
H899 H 0.18182 0.47322 0.08693 0.0
H900 H 0.16453 0.44904 0.99434 0.0
H901 H 0.19395 0.55946 0.8921 0.0
H902 H 0.19361 0.53684 0.77827 0.0
H903 H 0.21787 0.53203 0.86985 0.0
C904 C 0.04271 0.79746 0.57998 0.0
C905 C 1.0194 0.78044 0.55774 0.0
C906 C 0.03984 0.82406 0.62769 0.0
C907 C 1.013 0.83369 0.65781 0.0
C908 C 0.98971 0.81583 0.64329 0.0
C909 C 0.9931 0.78948 0.59186 0.0
C910 C 0.06556 0.8419 0.64236 0.0
C911 C 0.96103 0.82475 0.67867 0.0
C912 C 1.01718 0.90268 0.82074 0.0
C913 C 1.00989 0.91887 0.75753 0.0
C914 C 1.01628 0.87483 0.79158 0.0
C915 C 1.00918 0.86282 0.69541 0.0
C916 C 1.00113 0.87916 0.63204 0.0
C917 C 1.001 0.90692 0.66455 0.0
C918 C 1.02374 0.85853 0.86358 0.0
C919 C 0.9934 0.8676 0.5288 0.0
H920 H 0.06311 0.79021 0.55508 0.0
H921 H 0.97503 0.77635 0.57455 0.0
H922 H 0.06098 0.86179 0.62902 0.0
H923 H 0.07293 0.84463 0.71754 0.0
H924 H 0.08294 0.83324 0.59503 0.0
H925 H 0.94718 0.80763 0.68344 0.0
H926 H 0.9624 0.83845 0.75017 0.0
H927 H 0.95121 0.83556 0.62832 0.0
H928 H 1.02371 0.9118 0.89326 0.0
H929 H 0.9953 0.91932 0.61549 0.0
H930 H 1.01243 0.83911 0.84866 0.0
H931 H 1.0189 0.86928 0.93763 0.0
H932 H 0.04653 0.85473 0.86074 0.0
H933 H 1.00621 0.85009 0.49843 0.0
H934 H 0.99601 0.88245 0.48367 0.0
H935 H 0.97113 0.8611 0.5243 0.0
C936 C 0.7124 0.01072 0.46403 0.0
C937 C 0.73898 0.01384 0.50805 0.0
C938 C 0.68763 0.00936 0.51655 0.0
C939 C 0.68911 0.00943 0.61589 0.0
C940 C 0.71611 0.01114 0.65981 0.0
C941 C 0.74051 0.01383 0.60614 0.0
C942 C 0.65983 0.00847 0.46511 0.0
C943 C 0.71923 0.01075 0.76434 0.0
C944 C 0.62389 0.02943 0.77383 0.0
C945 C 0.60959 0.00504 0.76666 0.0
C946 C 0.64975 0.0312 0.72694 0.0
C947 C 0.66245 0.00793 0.67286 0.0
C948 C 0.64872 0.98314 0.66959 0.0
C949 C 0.62251 0.98207 0.71456 0.0
C950 C 0.66316 0.0583 0.7364 0.0
C951 C 0.66171 0.95754 0.61829 0.0
H952 H 0.7109 0.01012 0.38813 0.0
H953 H 0.7608 0.0166 0.64146 0.0
H954 H 0.65178 0.98772 0.44658 0.0
H955 H 0.64411 0.02069 0.51096 0.0
H956 H 0.66176 0.01568 0.39766 0.0
H957 H 0.74133 0.00816 0.78454 0.0
H958 H 0.71174 0.02974 0.8084 0.0
H959 H 0.70624 0.99449 0.78195 0.0
H960 H 0.61444 0.0474 0.81373 0.0
H961 H 0.61208 0.96299 0.7088 0.0
H962 H 0.67729 0.05939 0.67621 0.0
H963 H 0.67561 0.06313 0.80384 0.0
H964 H 0.64699 0.07377 0.74105 0.0
H965 H 0.66048 0.95596 0.53987 0.0
H966 H 0.65098 0.93987 0.63489 0.0
H967 H 0.68417 0.95722 0.63824 0.0
C968 C 0.51551 0.72435 0.35667 0.0
C969 C 0.53628 0.74004 0.32665 0.0
C970 C 0.5224 0.70425 0.40445 0.0
C971 C 0.55084 0.70006 0.42464 0.0
C972 C 0.57181 0.71702 0.39976 0.0
C973 C 0.56428 0.73673 0.35029 0.0
C974 C 0.49926 0.68683 0.42977 0.0
C975 C 0.6023 0.71358 0.42136 0.0
C976 C 0.56274 0.65476 0.59855 0.0
C977 C 0.56744 0.63025 0.53576 0.0
C978 C 0.5585 0.67793 0.56388 0.0
C979 C 0.55851 0.67652 0.46394 0.0
C980 C 0.56382 0.65192 0.40046 0.0
C981 C 0.56842 0.62919 0.43709 0.0
C982 C 0.55354 0.7038 0.63413 0.0
C983 C 0.56387 0.64945 0.29346 0.0
H984 H 0.49386 0.72713 0.33859 0.0
H985 H 0.58034 0.74867 0.32597 0.0
H986 H 0.49734 0.69046 0.50871 0.0
H987 H 0.47871 0.69068 0.39906 0.0
H988 H 0.5042 0.66556 0.40376 0.0
H989 H 0.61537 0.73071 0.41125 0.0
H990 H 0.60507 0.71112 0.49597 0.0
H991 H 0.61008 0.69537 0.37302 0.0
H992 H 0.56235 0.65582 0.67503 0.0
H993 H 0.57185 0.61032 0.38807 0.0
H994 H 0.53169 0.71009 0.62687 0.0
H995 H 0.56752 0.71964 0.61844 0.0
H996 H 0.55712 0.70219 0.70944 0.0
H997 H 0.5654 0.62851 0.25348 0.0
H998 H 0.58183 0.66091 0.27363 0.0
H999 H 0.54453 0.65799 0.27024 0.0
C1000 C 0.82021 0.49243 0.53066 0.0
C1001 C 0.80876 0.51789 0.54332 0.0
C1002 C 0.84699 0.48828 0.56923 0.0
C1003 C 0.86313 0.51012 0.62282 0.0
C1004 C 0.85078 0.53563 0.63932 0.0
C1005 C 0.82429 0.53917 0.5987 0.0
C1006 C 0.85794 0.46037 0.54994 0.0
C1007 C 0.86611 0.55966 0.69678 0.0
C1008 C 0.92923 0.49657 0.76614 0.0
C1009 C 0.95146 0.50459 0.7141 0.0
C1010 C 0.90068 0.49816 0.73786 0.0
C1011 C 0.89368 0.50718 0.65327 0.0
C1012 C 0.91633 0.51463 0.59974 0.0
C1013 C 0.9444 0.51351 0.631 0.0
C1014 C 0.87796 0.4914 0.80149 0.0
C1015 C 0.91178 0.52431 0.50892 0.0
H1016 H 0.80878 0.47586 0.48662 0.0
H1017 H 0.816 0.55898 0.60744 0.0
H1018 H 0.8511 0.45067 0.60804 0.0
H1019 H 0.84926 0.44829 0.48184 0.0
H1020 H 0.88112 0.45994 0.54703 0.0
H1021 H 0.852 0.57678 0.71919 0.0
H1022 H 0.87596 0.55502 0.76159 0.0
H1023 H 0.88301 0.56565 0.65262 0.0
H1024 H 0.93407 0.48991 0.83109 0.0
H1025 H 0.96104 0.51967 0.58903 0.0
H1026 H 0.8633 0.47636 0.75988 0.0
H1027 H 0.8657 0.50945 0.83045 0.0
H1028 H 0.88648 0.48363 0.86221 0.0
H1029 H 0.92332 0.5115 0.44958 0.0
H1030 H 0.92073 0.54469 0.51797 0.0
H1031 H 0.88954 0.52459 0.48765 0.0
loop_
_geom_bond_atom_site_label_1
_geom_bond_atom_site_label_2
_geom_bond_distance
_geom_bond_site_symmetry_2
_ccdc_geom_bond_type
C0 N1 1.317 . S
C0 N2 1.348 . S
C0 C3 1.485 . S
N1 C0 1.317 . S
N1 N5 1.370 . S
N2 C0 1.348 . S
N2 C4 1.346 . S
C3 C0 1.485 . S
C3 H7 0.960 . S
C3 H8 0.961 . S
C3 H9 0.960 . S
C4 N2 1.346 . S
C4 N5 1.307 . S
C4 C6 1.486 . S
N5 N1 1.370 . S
N5 C4 1.307 . S
C6 C4 1.486 . S
C6 H10 0.960 . S
C6 H11 0.960 . S
C6 H12 0.959 . S
H7 C3 0.960 . S
H8 C3 0.961 . S
H9 C3 0.960 . S
H10 C6 0.960 . S
H11 C6 0.960 . S
H12 C6 0.959 . S
C13 N14 1.317 . S
C13 N15 1.351 . S
C13 C16 1.485 . S
N14 C13 1.317 . S
N14 N18 1.371 . S
N15 C13 1.351 . S
N15 C17 1.346 1_655 S
C16 C13 1.485 . S
C16 H20 0.960 1_655 S
C16 H21 0.961 . S
C16 H22 0.960 . S
C17 N15 1.346 1_455 S
C17 N18 1.307 1_455 S
C17 C19 1.485 . S
N18 N14 1.371 . S
N18 C17 1.307 1_655 S
C19 C17 1.485 . S
C19 H23 0.922 1_455 S
C19 H24 0.992 . S
C19 H25 0.967 . S
H20 C16 0.960 1_455 S
H21 C16 0.961 . S
H22 C16 0.960 . S
H23 C19 0.922 1_655 S
H24 C19 0.992 . S
H25 C19 0.967 . S
C26 N27 1.317 . S
C26 N28 1.358 . S
C26 C29 1.485 . S
N27 C26 1.317 . S
N27 N31 1.374 . S
N28 C26 1.358 . S
N28 C30 1.339 1_565 S
C29 C26 1.485 . S
C29 H33 0.960 1_565 S
C29 H34 0.961 . S
C29 H35 0.960 . S
C30 N28 1.339 1_545 S
C30 N31 1.305 1_545 S
C30 C32 1.476 . S
N31 N27 1.374 . S
N31 C30 1.305 1_565 S
C32 C30 1.476 . S
C32 H36 0.925 1_545 S
C32 H37 0.994 . S
C32 H38 0.972 . S
H33 C29 0.960 1_545 S
H34 C29 0.961 . S
H35 C29 0.960 . S
H36 C32 0.925 1_565 S
H37 C32 0.994 . S
H38 C32 0.972 . S
C39 N40 1.317 . S
C39 N41 1.348 1_554 S
C39 C42 1.485 . S
N40 C39 1.317 . S
N40 N44 1.370 1_554 S
N41 C39 1.348 1_556 S
N41 C43 1.346 . S
C42 C39 1.485 . S
C42 H46 0.960 . S
C42 H47 0.961 . S
C42 H48 0.960 . S
C43 N41 1.346 . S
C43 N44 1.307 . S
C43 C45 1.486 . S
N44 N40 1.370 1_556 S
N44 C43 1.307 . S
C45 C43 1.486 . S
C45 H49 0.960 . S
C45 H50 0.960 . S
C45 H51 0.959 . S
H46 C42 0.960 . S
H47 C42 0.961 . S
H48 C42 0.960 . S
H49 C45 0.960 . S
H50 C45 0.960 . S
H51 C45 0.959 . S
C52 N53 1.317 . S
C52 N54 1.348 . S
C52 C55 1.485 . S
N53 C52 1.317 . S
N53 N57 1.370 . S
N54 C52 1.348 . S
N54 C56 1.346 . S
C55 C52 1.485 . S
C55 H59 0.960 1_554 S
C55 H60 0.961 . S
C55 H61 0.960 1_554 S
C56 N54 1.346 . S
C56 N57 1.307 . S
C56 C58 1.486 . S
N57 N53 1.370 . S
N57 C56 1.307 . S
C58 C56 1.486 . S
C58 H62 0.960 . S
C58 H63 0.960 . S
C58 H64 0.959 . S
H59 C55 0.960 1_556 S
H60 C55 0.961 . S
H61 C55 0.960 1_556 S
H62 C58 0.960 . S
H63 C58 0.960 . S
H64 C58 0.959 . S
C65 N66 1.317 . S
C65 N67 1.349 . S
C65 C68 1.485 . S
N66 C65 1.317 . S
N66 N70 1.370 . S
N67 C65 1.349 . S
N67 C69 1.345 1_655 S
C68 C65 1.485 . S
C68 H72 0.960 1_655 S
C68 H73 0.961 . S
C68 H74 0.960 . S
C69 N67 1.345 1_455 S
C69 N70 1.307 1_455 S
C69 C71 1.486 . S
N70 N66 1.370 . S
N70 C69 1.307 1_655 S
C71 C69 1.486 . S
C71 H75 0.960 1_455 S
C71 H76 0.960 . S
C71 H77 0.959 . S
H72 C68 0.960 1_455 S
H73 C68 0.961 . S
H74 C68 0.960 . S
H75 C71 0.960 1_655 S
H76 C71 0.960 . S
H77 C71 0.959 . S
C78 N79 1.317 . S
C78 N80 1.344 . S
C78 C81 1.485 . S
N79 C78 1.317 . S
N79 N83 1.370 . S
N80 C78 1.344 . S
N80 C82 1.352 1_565 S
C81 C78 1.485 . S
C81 H85 0.960 1_565 S
C81 H86 0.961 . S
C81 H87 0.960 1_554 S
C82 N80 1.352 1_545 S
C82 N83 1.308 1_545 S
C82 C84 1.484 . S
N83 N79 1.370 . S
N83 C82 1.308 1_565 S
C84 C82 1.484 . S
C84 H88 0.960 1_545 S
C84 H89 0.960 . S
C84 H90 0.959 . S
H85 C81 0.960 1_545 S
H86 C81 0.961 . S
H87 C81 0.960 1_556 S
H88 C84 0.960 1_565 S
H89 C84 0.960 . S
H90 C84 0.959 . S
C91 N92 1.317 . S
C91 N93 1.348 . S
C91 C94 1.485 . S
N92 C91 1.317 . S
N92 N96 1.370 . S
N93 C91 1.348 . S
N93 C95 1.346 . S
C94 C91 1.485 . S
C94 H98 0.960 . S
C94 H99 0.961 . S
C94 H100 0.960 . S
C95 N93 1.346 . S
C95 N96 1.307 . S
C95 C97 1.486 . S
N96 N92 1.370 . S
N96 C95 1.307 . S
C97 C95 1.486 . S
C97 H101 0.960 . S
C97 H102 0.960 . S
C97 H103 0.959 . S
H98 C94 0.960 . S
H99 C94 0.961 . S
H100 C94 0.960 . S
H101 C97 0.960 . S
H102 C97 0.960 . S
H103 C97 0.959 . S
Tb104 C113 2.764 . S
Tb104 O114 2.325 . S
Tb104 O117 2.303 1_655 S
Tb104 O121 2.322 1_545 S
Tb104 O122 2.349 . S
Tb104 O125 2.415 . S
Tb104 O126 2.399 . S
Tb105 O115 2.322 1_565 S
Tb105 O116 2.349 . S
Tb105 O118 2.415 1_556 S
Tb105 O119 2.399 . S
Tb105 O120 2.325 . S
Tb105 O123 2.303 1_455 S
Tb105 C134 2.764 1_556 S
C106 O122 1.271 . S
C106 O123 1.254 1_545 S
C107 C110 1.358 . S
C107 C111 1.332 . S
C107 C113 1.504 . S
C108 C109 1.373 . S
C108 C112 1.308 . S
C109 C108 1.373 . S
C109 C110 1.429 . S
C109 H136 0.932 . S
C110 C107 1.358 . S
C110 C109 1.429 . S
C110 H137 0.930 . S
C111 C107 1.332 . S
C111 C112 1.394 . S
C111 H138 0.932 1_655 S
C112 C108 1.308 . S
C112 C111 1.394 . S
C112 H139 0.934 . S
C113 Tb104 2.764 . S
C113 C107 1.504 . S
C113 O125 1.239 . S
C113 O126 1.263 . S
O114 Tb104 2.325 . S
O114 C124 1.236 1_655 S
O115 Tb105 2.322 1_545 S
O115 C124 1.257 . S
O116 Tb105 2.349 . S
O116 C127 1.265 . S
O117 Tb104 2.303 1_455 S
O117 C127 1.256 1_545 S
O118 Tb105 2.415 1_554 S
O118 C134 1.239 . S
O119 Tb105 2.399 . S
O119 C134 1.263 1_556 S
O120 Tb105 2.325 . S
O120 C135 1.236 1_455 S
O121 Tb104 2.322 1_565 S
O121 C135 1.257 . S
O122 Tb104 2.349 . S
O122 C106 1.271 . S
O123 Tb105 2.303 1_655 S
O123 C106 1.254 1_565 S
C124 O114 1.236 1_455 S
C124 O115 1.257 . S
O125 Tb104 2.415 . S
O125 C113 1.239 . S
O126 Tb104 2.399 . S
O126 C113 1.263 . S
C127 O116 1.265 . S
C127 O117 1.256 1_565 S
C128 C131 1.358 . S
C128 C132 1.332 . S
C128 C134 1.504 . S
C129 C130 1.373 . S
C129 C133 1.308 . S
C130 C129 1.373 . S
C130 C131 1.429 . S
C130 H140 0.932 . S
C131 C128 1.358 . S
C131 C130 1.429 . S
C131 H141 0.930 . S
C132 C128 1.332 . S
C132 C133 1.394 . S
C132 H142 0.932 1_455 S
C133 C129 1.308 . S
C133 C132 1.394 . S
C133 H143 0.942 . S
C134 Tb105 2.764 1_554 S
C134 O118 1.239 . S
C134 O119 1.263 1_554 S
C134 C128 1.504 . S
C135 O120 1.236 1_655 S
C135 O121 1.257 . S
H136 C109 0.932 . S
H137 C110 0.930 . S
H138 C111 0.932 1_455 S
H139 C112 0.934 . S
H140 C130 0.932 . S
H141 C131 0.930 . S
H142 C132 0.932 1_655 S
H143 C133 0.942 . S
Tb144 C153 2.764 . S
Tb144 O154 2.325 . S
Tb144 O157 2.303 1_565 S
Tb144 O161 2.322 . S
Tb144 O162 2.349 . S
Tb144 O165 2.415 1_565 S
Tb144 O166 2.399 . S
Tb145 O155 2.322 . S
Tb145 O156 2.349 . S
Tb145 O158 2.415 1_546 S
Tb145 O159 2.399 1_556 S
Tb145 O160 2.325 . S
Tb145 O163 2.303 1_545 S
Tb145 C174 2.764 1_556 S
C146 O162 1.261 . S
C146 O163 1.257 . S
C147 C150 1.358 . S
C147 C151 1.332 1_565 S
C147 C153 1.504 . S
C148 C149 1.373 . S
C148 C152 1.308 1_565 S
C149 C148 1.373 . S
C149 C150 1.429 . S
C149 H176 0.932 . S
C150 C147 1.358 . S
C150 C149 1.429 . S
C150 H177 0.930 . S
C151 C147 1.332 1_545 S
C151 C152 1.394 . S
C151 H178 0.932 . S
C152 C148 1.308 1_545 S
C152 C151 1.394 . S
C152 H179 0.929 . S
C153 Tb144 2.764 . S
C153 C147 1.504 . S
C153 O165 1.239 1_565 S
C153 O166 1.263 . S
O154 Tb144 2.325 . S
O154 C164 1.236 1_565 S
O155 Tb145 2.322 . S
O155 C164 1.257 . S
O156 Tb145 2.349 . S
O156 C167 1.261 . S
O157 Tb144 2.303 1_545 S
O157 C167 1.257 . S
O158 Tb145 2.415 1_564 S
O158 C174 1.239 1_565 S
O159 Tb145 2.399 1_554 S
O159 C174 1.263 . S
O160 Tb145 2.325 . S
O160 C175 1.236 1_545 S
O161 Tb144 2.322 . S
O161 C175 1.257 . S
O162 Tb144 2.349 . S
O162 C146 1.261 . S
O163 Tb145 2.303 1_565 S
O163 C146 1.257 . S
C164 O154 1.236 1_545 S
C164 O155 1.257 . S
O165 Tb144 2.415 1_545 S
O165 C153 1.239 1_545 S
O166 Tb144 2.399 . S
O166 C153 1.263 . S
C167 O156 1.261 . S
C167 O157 1.257 . S
C168 C171 1.358 . S
C168 C172 1.332 1_545 S
C168 C174 1.504 . S
C169 C170 1.373 . S
C169 C173 1.308 1_545 S
C170 C169 1.373 . S
C170 C171 1.429 . S
C170 H180 0.932 . S
C171 C168 1.358 . S
C171 C170 1.429 . S
C171 H181 0.930 . S
C172 C168 1.332 1_565 S
C172 C173 1.394 . S
C172 H182 0.932 . S
C173 C169 1.308 1_565 S
C173 C172 1.394 . S
C173 H183 0.929 . S
C174 Tb145 2.764 1_554 S
C174 O158 1.239 1_545 S
C174 O159 1.263 . S
C174 C168 1.504 . S
C175 O160 1.236 1_565 S
C175 O161 1.257 . S
H176 C149 0.932 . S
H177 C150 0.930 . S
H178 C151 0.932 . S
H179 C152 0.929 . S
H180 C170 0.932 . S
H181 C171 0.930 . S
H182 C172 0.932 . S
H183 C173 0.929 . S
Tb184 C193 2.764 1_556 S
Tb184 O194 2.325 . S
Tb184 O197 2.303 . S
Tb184 O201 2.322 . S
Tb184 O202 2.349 . S
Tb184 O205 2.415 1_556 S
Tb184 O206 2.399 1_556 S
Tb185 O195 2.322 . S
Tb185 O196 2.349 . S
Tb185 O198 2.415 . S
Tb185 O199 2.399 . S
Tb185 O200 2.325 . S
Tb185 O203 2.303 . S
Tb185 C214 2.764 . S
C186 O202 1.261 . S
C186 O203 1.257 . S
C187 C190 1.358 . S
C187 C191 1.332 . S
C187 C193 1.504 . S
C188 C189 1.373 . S
C188 C192 1.308 . S
C189 C188 1.373 . S
C189 C190 1.429 . S
C189 H216 0.932 . S
C190 C187 1.358 . S
C190 C189 1.429 . S
C190 H217 0.930 . S
C191 C187 1.332 . S
C191 C192 1.394 . S
C191 H218 0.932 . S
C192 C188 1.308 . S
C192 C191 1.394 . S
C192 H219 0.929 . S
C193 Tb184 2.764 1_554 S
C193 C187 1.504 . S
C193 O205 1.239 . S
C193 O206 1.263 . S
O194 Tb184 2.325 . S
O194 C204 1.236 . S
O195 Tb185 2.322 . S
O195 C204 1.257 . S
O196 Tb185 2.349 . S
O196 C207 1.261 . S
O197 Tb184 2.303 . S
O197 C207 1.257 . S
O198 Tb185 2.415 . S
O198 C214 1.239 . S
O199 Tb185 2.399 . S
O199 C214 1.263 . S
O200 Tb185 2.325 . S
O200 C215 1.236 . S
O201 Tb184 2.322 . S
O201 C215 1.257 . S
O202 Tb184 2.349 . S
O202 C186 1.261 . S
O203 Tb185 2.303 . S
O203 C186 1.257 . S
C204 O194 1.236 . S
C204 O195 1.257 . S
O205 Tb184 2.415 1_554 S
O205 C193 1.239 . S
O206 Tb184 2.399 1_554 S
O206 C193 1.263 . S
C207 O196 1.261 . S
C207 O197 1.257 . S
C208 C211 1.358 . S
C208 C212 1.332 . S
C208 C214 1.504 . S
C209 C210 1.373 . S
C209 C213 1.308 . S
C210 C209 1.373 . S
C210 C211 1.429 . S
C210 H220 0.932 . S
C211 C208 1.358 . S
C211 C210 1.429 . S
C211 H221 0.930 . S
C212 C208 1.332 . S
C212 C213 1.394 . S
C212 H222 0.932 . S
C213 C209 1.308 . S
C213 C212 1.394 . S
C213 H223 0.929 . S
C214 Tb185 2.764 . S
C214 O198 1.239 . S
C214 O199 1.263 . S
C214 C208 1.504 . S
C215 O200 1.236 . S
C215 O201 1.257 . S
H216 C189 0.932 . S
H217 C190 0.930 . S
H218 C191 0.932 . S
H219 C192 0.929 . S
H220 C210 0.932 . S
H221 C211 0.930 . S
H222 C212 0.932 . S
H223 C213 0.929 . S
Tb224 C233 2.764 . S
Tb224 O234 2.325 . S
Tb224 O237 2.303 . S
Tb224 O241 2.322 1_455 S
Tb224 O242 2.349 . S
Tb224 O245 2.415 . S
Tb224 O246 2.399 . S
Tb225 O235 2.322 1_655 S
Tb225 O236 2.349 . S
Tb225 O238 2.415 1_556 S
Tb225 O239 2.399 . S
Tb225 O240 2.325 . S
Tb225 O243 2.303 . S
Tb225 C254 2.764 1_556 S
C226 O242 1.261 . S
C226 O243 1.257 1_455 S
C227 C230 1.358 . S
C227 C231 1.332 . S
C227 C233 1.504 . S
C228 C229 1.373 . S
C228 C232 1.308 . S
C229 C228 1.373 . S
C229 C230 1.429 . S
C229 H256 0.932 . S
C230 C227 1.358 . S
C230 C229 1.429 . S
C230 H257 0.930 . S
C231 C227 1.332 . S
C231 C232 1.394 . S
C231 H258 0.932 . S
C232 C228 1.308 . S
C232 C231 1.394 . S
C232 H259 0.929 . S
C233 Tb224 2.764 . S
C233 C227 1.504 . S
C233 O245 1.239 . S
C233 O246 1.263 . S
O234 Tb224 2.325 . S
O234 C244 1.236 . S
O235 Tb225 2.322 1_455 S
O235 C244 1.257 . S
O236 Tb225 2.349 . S
O236 C247 1.261 . S
O237 Tb224 2.303 . S
O237 C247 1.257 1_455 S
O238 Tb225 2.415 1_554 S
O238 C254 1.239 . S
O239 Tb225 2.399 . S
O239 C254 1.263 1_556 S
O240 Tb225 2.325 . S
O240 C255 1.236 . S
O241 Tb224 2.322 1_655 S
O241 C255 1.257 . S
O242 Tb224 2.349 . S
O242 C226 1.261 . S
O243 Tb225 2.303 . S
O243 C226 1.257 1_655 S
C244 O234 1.236 . S
C244 O235 1.257 . S
O245 Tb224 2.415 . S
O245 C233 1.239 . S
O246 Tb224 2.399 . S
O246 C233 1.263 . S
C247 O236 1.261 . S
C247 O237 1.257 1_655 S
C248 C251 1.358 . S
C248 C252 1.332 . S
C248 C254 1.504 . S
C249 C250 1.373 . S
C249 C253 1.308 . S
C250 C249 1.373 . S
C250 C251 1.429 . S
C250 H260 0.932 . S
C251 C248 1.358 . S
C251 C250 1.429 . S
C251 H261 0.930 . S
C252 C248 1.332 . S
C252 C253 1.394 . S
C252 H262 0.932 . S
C253 C249 1.308 . S
C253 C252 1.394 . S
C253 H263 0.929 . S
C254 Tb225 2.764 1_554 S
C254 O238 1.239 . S
C254 O239 1.263 1_554 S
C254 C248 1.504 . S
C255 O240 1.236 . S
C255 O241 1.257 . S
H256 C229 0.932 . S
H257 C230 0.930 . S
H258 C231 0.932 . S
H259 C232 0.929 . S
H260 C250 0.932 . S
H261 C251 0.930 . S
H262 C252 0.932 . S
H263 C253 0.929 . S
C264 C265 1.391 . S
C264 C266 1.394 . S
C264 H280 0.931 . S
C265 C264 1.391 . S
C265 C269 1.376 1_545 S
C266 C264 1.394 . S
C266 C267 1.369 . S
C266 C270 1.531 . S
C267 C266 1.369 . S
C267 C268 1.410 1_545 S
C267 C275 1.503 . S
C268 C267 1.410 1_565 S
C268 C269 1.392 . S
C268 C271 1.511 . S
C269 C265 1.376 1_565 S
C269 C268 1.392 . S
C269 H281 0.929 . S
C270 C266 1.531 . S
C270 H282 0.960 . S
C270 H283 0.962 . S
C270 H284 0.960 . S
C271 C268 1.511 . S
C271 H285 0.961 . S
C271 H286 0.961 . S
C271 H287 0.961 . S
C272 C273 1.370 1_565 S
C272 C274 1.363 . S
C272 H288 0.931 . S
C273 C272 1.370 1_545 S
C273 C277 1.408 . S
C274 C272 1.363 . S
C274 C275 1.370 1_565 S
C274 C278 1.524 . S
C275 C267 1.503 . S
C275 C274 1.370 1_545 S
C275 C276 1.403 . S
C276 C275 1.403 . S
C276 C277 1.404 . S
C276 C279 1.539 . S
C277 C273 1.408 . S
C277 C276 1.404 . S
C277 H289 0.930 . S
C278 C274 1.524 . S
C278 H290 0.956 . S
C278 H291 0.961 . S
C278 H292 0.961 . S
C279 C276 1.539 . S
C279 H293 0.958 . S
C279 H294 0.961 . S
C279 H295 0.960 . S
H280 C264 0.931 . S
H281 C269 0.929 . S
H282 C270 0.960 . S
H283 C270 0.962 . S
H284 C270 0.960 . S
H285 C271 0.961 . S
H286 C271 0.961 . S
H287 C271 0.961 . S
H288 C272 0.931 . S
H289 C277 0.930 . S
H290 C278 0.956 . S
H291 C278 0.961 . S
H292 C278 0.961 . S
H293 C279 0.958 . S
H294 C279 0.961 . S
H295 C279 0.960 . S
C296 C297 1.391 . S
C296 C298 1.394 . S
C296 H312 0.931 . S
C297 C296 1.391 . S
C297 C301 1.376 . S
C298 C296 1.394 . S
C298 C299 1.369 . S
C298 C302 1.531 . S
C299 C298 1.369 . S
C299 C300 1.410 . S
C299 C307 1.503 . S
C300 C299 1.410 . S
C300 C301 1.392 . S
C300 C303 1.511 . S
C301 C297 1.376 . S
C301 C300 1.392 . S
C301 H313 0.929 . S
C302 C298 1.531 . S
C302 H314 0.960 . S
C302 H315 0.962 . S
C302 H316 0.960 . S
C303 C300 1.511 . S
C303 H317 0.961 . S
C303 H318 0.961 . S
C303 H319 0.961 . S
C304 C305 1.370 . S
C304 C306 1.363 . S
C304 H320 0.931 . S
C305 C304 1.370 . S
C305 C309 1.408 . S
C306 C304 1.363 . S
C306 C307 1.370 . S
C306 C310 1.524 . S
C307 C299 1.503 . S
C307 C306 1.370 . S
C307 C308 1.403 . S
C308 C307 1.403 . S
C308 C309 1.404 . S
C308 C311 1.539 . S
C309 C305 1.408 . S
C309 C308 1.404 . S
C309 H321 0.930 . S
C310 C306 1.524 . S
C310 H322 0.956 . S
C310 H323 0.961 . S
C310 H324 0.961 . S
C311 C308 1.539 . S
C311 H325 0.958 . S
C311 H326 0.961 . S
C311 H327 0.960 . S
H312 C296 0.931 . S
H313 C301 0.929 . S
H314 C302 0.960 . S
H315 C302 0.962 . S
H316 C302 0.960 . S
H317 C303 0.961 . S
H318 C303 0.961 . S
H319 C303 0.961 . S
H320 C304 0.931 . S
H321 C309 0.930 . S
H322 C310 0.956 . S
H323 C310 0.961 . S
H324 C310 0.961 . S
H325 C311 0.958 . S
H326 C311 0.961 . S
H327 C311 0.960 . S
C328 C329 1.391 . S
C328 C330 1.394 . S
C328 H344 0.931 . S
C329 C328 1.391 . S
C329 C333 1.376 . S
C330 C328 1.394 . S
C330 C331 1.369 . S
C330 C334 1.531 . S
C331 C330 1.369 . S
C331 C332 1.410 . S
C331 C339 1.503 . S
C332 C331 1.410 . S
C332 C333 1.392 . S
C332 C335 1.511 . S
C333 C329 1.376 . S
C333 C332 1.392 . S
C333 H345 0.929 . S
C334 C330 1.531 . S
C334 H346 0.960 . S
C334 H347 0.962 . S
C334 H348 0.960 . S
C335 C332 1.511 . S
C335 H349 0.961 . S
C335 H350 0.961 . S
C335 H351 0.961 . S
C336 C337 1.370 . S
C336 C338 1.363 . S
C336 H352 0.931 . S
C337 C336 1.370 . S
C337 C341 1.408 . S
C338 C336 1.363 . S
C338 C339 1.370 . S
C338 C342 1.524 . S
C339 C331 1.503 . S
C339 C338 1.370 . S
C339 C340 1.403 . S
C340 C339 1.403 . S
C340 C341 1.404 . S
C340 C343 1.539 . S
C341 C337 1.408 . S
C341 C340 1.404 . S
C341 H353 0.930 . S
C342 C338 1.524 . S
C342 H354 0.956 . S
C342 H355 0.961 . S
C342 H356 0.961 . S
C343 C340 1.539 . S
C343 H357 0.958 . S
C343 H358 0.961 . S
C343 H359 0.960 . S
H344 C328 0.931 . S
H345 C333 0.929 . S
H346 C334 0.960 . S
H347 C334 0.962 . S
H348 C334 0.960 . S
H349 C335 0.961 . S
H350 C335 0.961 . S
H351 C335 0.961 . S
H352 C336 0.931 . S
H353 C341 0.930 . S
H354 C342 0.956 . S
H355 C342 0.961 . S
H356 C342 0.961 . S
H357 C343 0.958 . S
H358 C343 0.961 . S
H359 C343 0.960 . S
C360 C361 1.391 1_655 S
C360 C362 1.394 . S
C360 H376 0.931 . S
C361 C360 1.391 1_455 S
C361 C365 1.376 . S
C362 C360 1.394 . S
C362 C363 1.369 1_655 S
C362 C366 1.531 . S
C363 C362 1.369 1_455 S
C363 C364 1.410 . S
C363 C371 1.503 . S
C364 C363 1.410 . S
C364 C365 1.392 . S
C364 C367 1.511 . S
C365 C361 1.376 . S
C365 C364 1.392 . S
C365 H377 0.929 . S
C366 C362 1.531 . S
C366 H378 0.960 . S
C366 H379 0.962 . S
C366 H380 0.960 . S
C367 C364 1.511 . S
C367 H381 0.961 . S
C367 H382 0.961 . S
C367 H383 0.961 . S
C368 C369 1.370 1_655 S
C368 C370 1.363 . S
C368 H384 0.931 . S
C369 C368 1.370 1_455 S
C369 C373 1.408 . S
C370 C368 1.363 . S
C370 C371 1.370 1_655 S
C370 C374 1.524 . S
C371 C363 1.503 . S
C371 C370 1.370 1_455 S
C371 C372 1.403 . S
C372 C371 1.403 . S
C372 C373 1.404 . S
C372 C375 1.539 . S
C373 C369 1.408 . S
C373 C372 1.404 . S
C373 H385 0.930 . S
C374 C370 1.524 . S
C374 H386 0.956 . S
C374 H387 0.961 . S
C374 H388 0.961 . S
C375 C372 1.539 . S
C375 H389 0.958 . S
C375 H390 0.961 . S
C375 H391 0.960 . S
H376 C360 0.931 . S
H377 C365 0.929 . S
H378 C366 0.960 . S
H379 C366 0.962 . S
H380 C366 0.960 . S
H381 C367 0.961 . S
H382 C367 0.961 . S
H383 C367 0.961 . S
H384 C368 0.931 . S
H385 C373 0.930 . S
H386 C374 0.956 . S
H387 C374 0.961 . S
H388 C374 0.961 . S
H389 C375 0.958 . S
H390 C375 0.961 . S
H391 C375 0.960 . S
C392 C393 1.391 . S
C392 C394 1.394 . S
C392 H408 0.931 . S
C393 C392 1.391 . S
C393 C397 1.376 . S
C394 C392 1.394 . S
C394 C395 1.369 . S
C394 C398 1.531 . S
C395 C394 1.369 . S
C395 C396 1.410 . S
C395 C403 1.503 . S
C396 C395 1.410 . S
C396 C397 1.392 . S
C396 C399 1.511 . S
C397 C393 1.376 . S
C397 C396 1.392 . S
C397 H409 0.929 . S
C398 C394 1.531 . S
C398 H410 0.960 . S
C398 H411 0.962 1_545 S
C398 H412 0.960 . S
C399 C396 1.511 . S
C399 H413 0.961 . S
C399 H414 0.961 . S
C399 H415 0.961 . S
C400 C401 1.370 . S
C400 C402 1.363 . S
C400 H416 0.931 . S
C401 C400 1.370 . S
C401 C405 1.408 1_565 S
C402 C400 1.363 . S
C402 C403 1.370 1_565 S
C402 C406 1.524 . S
C403 C395 1.503 . S
C403 C402 1.370 1_545 S
C403 C404 1.403 . S
C404 C403 1.403 . S
C404 C405 1.404 . S
C404 C407 1.539 . S
C405 C401 1.408 1_545 S
C405 C404 1.404 . S
C405 H417 0.930 . S
C406 C402 1.524 . S
C406 H418 0.956 . S
C406 H419 0.961 . S
C406 H420 0.961 . S
C407 C404 1.539 . S
C407 H421 0.958 . S
C407 H422 0.961 . S
C407 H423 0.960 . S
H408 C392 0.931 . S
H409 C397 0.929 . S
H410 C398 0.960 . S
H411 C398 0.962 1_565 S
H412 C398 0.960 . S
H413 C399 0.961 . S
H414 C399 0.961 . S
H415 C399 0.961 . S
H416 C400 0.931 . S
H417 C405 0.930 . S
H418 C406 0.956 . S
H419 C406 0.961 . S
H420 C406 0.961 . S
H421 C407 0.958 . S
H422 C407 0.961 . S
H423 C407 0.960 . S
C424 C425 1.391 . S
C424 C426 1.394 . S
C424 H440 0.931 . S
C425 C424 1.391 . S
C425 C429 1.376 . S
C426 C424 1.394 . S
C426 C427 1.369 . S
C426 C430 1.531 . S
C427 C426 1.369 . S
C427 C428 1.410 . S
C427 C435 1.503 . S
C428 C427 1.410 . S
C428 C429 1.392 . S
C428 C431 1.511 . S
C429 C425 1.376 . S
C429 C428 1.392 . S
C429 H441 0.929 . S
C430 C426 1.531 . S
C430 H442 0.960 . S
C430 H443 0.962 . S
C430 H444 0.960 . S
C431 C428 1.511 . S
C431 H445 0.961 . S
C431 H446 0.961 . S
C431 H447 0.961 . S
C432 C433 1.370 . S
C432 C434 1.363 . S
C432 H448 0.931 1_556 S
C433 C432 1.370 . S
C433 C437 1.408 . S
C434 C432 1.363 . S
C434 C435 1.370 . S
C434 C438 1.524 1_556 S
C435 C427 1.503 . S
C435 C434 1.370 . S
C435 C436 1.403 . S
C436 C435 1.403 . S
C436 C437 1.404 . S
C436 C439 1.539 . S
C437 C433 1.408 . S
C437 C436 1.404 . S
C437 H449 0.930 . S
C438 C434 1.524 1_554 S
C438 H450 0.956 . S
C438 H451 0.961 . S
C438 H452 0.961 . S
C439 C436 1.539 . S
C439 H453 0.958 . S
C439 H454 0.961 . S
C439 H455 0.960 . S
H440 C424 0.931 . S
H441 C429 0.929 . S
H442 C430 0.960 . S
H443 C430 0.962 . S
H444 C430 0.960 . S
H445 C431 0.961 . S
H446 C431 0.961 . S
H447 C431 0.961 . S
H448 C432 0.931 1_554 S
H449 C437 0.930 . S
H450 C438 0.956 . S
H451 C438 0.961 . S
H452 C438 0.961 . S
H453 C439 0.958 . S
H454 C439 0.961 . S
H455 C439 0.960 . S
C456 C457 1.391 . S
C456 C458 1.394 . S
C456 H472 0.931 . S
C457 C456 1.391 . S
C457 C461 1.376 . S
C458 C456 1.394 . S
C458 C459 1.369 . S
C458 C462 1.531 . S
C459 C458 1.369 . S
C459 C460 1.410 . S
C459 C467 1.503 . S
C460 C459 1.410 . S
C460 C461 1.392 . S
C460 C463 1.511 . S
C461 C457 1.376 . S
C461 C460 1.392 . S
C461 H473 0.929 . S
C462 C458 1.531 . S
C462 H474 0.960 . S
C462 H475 0.962 . S
C462 H476 0.960 . S
C463 C460 1.511 . S
C463 H477 0.961 . S
C463 H478 0.961 . S
C463 H479 0.961 . S
C464 C465 1.370 . S
C464 C466 1.363 . S
C464 H480 0.931 . S
C465 C464 1.370 . S
C465 C469 1.408 . S
C466 C464 1.363 . S
C466 C467 1.370 . S
C466 C470 1.524 . S
C467 C459 1.503 . S
C467 C466 1.370 . S
C467 C468 1.403 . S
C468 C467 1.403 . S
C468 C469 1.404 . S
C468 C471 1.539 . S
C469 C465 1.408 . S
C469 C468 1.404 . S
C469 H481 0.930 . S
C470 C466 1.524 . S
C470 H482 0.956 . S
C470 H483 0.961 . S
C470 H484 0.961 . S
C471 C468 1.539 . S
C471 H485 0.958 . S
C471 H486 0.961 . S
C471 H487 0.960 . S
H472 C456 0.931 . S
H473 C461 0.929 . S
H474 C462 0.960 . S
H475 C462 0.962 . S
H476 C462 0.960 . S
H477 C463 0.961 . S
H478 C463 0.961 . S
H479 C463 0.961 . S
H480 C464 0.931 . S
H481 C469 0.930 . S
H482 C470 0.956 . S
H483 C470 0.961 . S
H484 C470 0.961 . S
H485 C471 0.958 . S
H486 C471 0.961 . S
H487 C471 0.960 . S
C488 C489 1.391 . S
C488 C490 1.394 . S
C488 H504 0.931 . S
C489 C488 1.391 . S
C489 C493 1.376 1_455 S
C490 C488 1.394 . S
C490 C491 1.369 . S
C490 C494 1.531 . S
C491 C490 1.369 . S
C491 C492 1.410 1_455 S
C491 C499 1.503 . S
C492 C491 1.410 1_655 S
C492 C493 1.392 . S
C492 C495 1.511 . S
C493 C489 1.376 1_655 S
C493 C492 1.392 . S
C493 H505 0.929 . S
C494 C490 1.531 . S
C494 H506 0.960 . S
C494 H507 0.962 . S
C494 H508 0.960 . S
C495 C492 1.511 . S
C495 H509 0.961 . S
C495 H510 0.961 . S
C495 H511 0.961 . S
C496 C497 1.380 1_554 S
C496 C498 1.363 . S
C496 H512 0.931 1_554 S
C497 C496 1.380 1_556 S
C497 C501 1.397 1_656 S
C498 C496 1.363 . S
C498 C499 1.370 1_655 S
C498 C502 1.524 . S
C499 C491 1.503 . S
C499 C498 1.370 1_455 S
C499 C500 1.403 . S
C500 C499 1.403 . S
C500 C501 1.404 . S
C500 C503 1.539 . S
C501 C497 1.397 1_454 S
C501 C500 1.404 . S
C501 H513 0.930 . S
C502 C498 1.524 . S
C502 H514 0.956 . S
C502 H515 0.961 . S
C502 H516 0.961 . S
C503 C500 1.539 . S
C503 H517 0.958 . S
C503 H518 0.961 . S
C503 H519 0.960 . S
H504 C488 0.931 . S
H505 C493 0.929 . S
H506 C494 0.960 . S
H507 C494 0.962 . S
H508 C494 0.960 . S
H509 C495 0.961 . S
H510 C495 0.961 . S
H511 C495 0.961 . S
H512 C496 0.931 1_556 S
H513 C501 0.930 . S
H514 C502 0.956 . S
H515 C502 0.961 . S
H516 C502 0.961 . S
H517 C503 0.958 . S
H518 C503 0.961 . S
H519 C503 0.960 . S
C520 C521 1.391 . S
C520 C522 1.394 1_455 S
C520 H536 0.931 . S
C521 C520 1.391 . S
C521 C525 1.376 1_455 S
C522 C520 1.394 1_655 S
C522 C523 1.369 . S
C522 C526 1.531 . S
C523 C522 1.369 . S
C523 C524 1.410 . S
C523 C531 1.503 . S
C524 C523 1.410 . S
C524 C525 1.392 . S
C524 C527 1.511 . S
C525 C521 1.376 1_655 S
C525 C524 1.392 . S
C525 H537 0.929 . S
C526 C522 1.531 . S
C526 H538 0.967 . S
C526 H539 0.962 . S
C526 H540 0.960 1_655 S
C527 C524 1.511 . S
C527 H541 0.961 . S
C527 H542 0.961 . S
C527 H543 0.961 1_655 S
C528 C529 1.370 . S
C528 C530 1.363 . S
C528 H544 0.931 . S
C529 C528 1.370 . S
C529 C533 1.408 . S
C530 C528 1.363 . S
C530 C531 1.370 . S
C530 C534 1.524 . S
C531 C523 1.503 . S
C531 C530 1.370 . S
C531 C532 1.403 . S
C532 C531 1.403 . S
C532 C533 1.404 . S
C532 C535 1.539 1_655 S
C533 C529 1.408 . S
C533 C532 1.404 . S
C533 H545 0.930 . S
C534 C530 1.524 . S
C534 H546 0.956 . S
C534 H547 0.961 . S
C534 H548 0.961 . S
C535 C532 1.539 1_455 S
C535 H549 0.958 . S
C535 H550 0.961 . S
C535 H551 0.960 . S
H536 C520 0.931 . S
H537 C525 0.929 . S
H538 C526 0.967 . S
H539 C526 0.962 . S
H540 C526 0.960 1_455 S
H541 C527 0.961 . S
H542 C527 0.961 . S
H543 C527 0.961 1_455 S
H544 C528 0.931 . S
H545 C533 0.930 . S
H546 C534 0.956 . S
H547 C534 0.961 . S
H548 C534 0.961 . S
H549 C535 0.958 . S
H550 C535 0.961 . S
H551 C535 0.960 . S
C552 C553 1.391 . S
C552 C554 1.394 . S
C552 H568 0.931 . S
C553 C552 1.391 . S
C553 C557 1.376 1_545 S
C554 C552 1.394 . S
C554 C555 1.369 1_545 S
C554 C558 1.531 . S
C555 C554 1.369 1_565 S
C555 C556 1.410 . S
C555 C563 1.503 . S
C556 C555 1.410 . S
C556 C557 1.392 . S
C556 C559 1.511 . S
C557 C553 1.376 1_565 S
C557 C556 1.392 . S
C557 H569 0.929 . S
C558 C554 1.531 . S
C558 H570 0.960 . S
C558 H571 0.962 . S
C558 H572 0.960 . S
C559 C556 1.511 . S
C559 H573 0.961 . S
C559 H574 0.961 . S
C559 H575 0.961 . S
C560 C561 1.370 . S
C560 C562 1.363 . S
C560 H576 0.931 . S
C561 C560 1.370 . S
C561 C565 1.408 . S
C562 C560 1.363 . S
C562 C563 1.370 . S
C562 C566 1.524 . S
C563 C555 1.503 . S
C563 C562 1.370 . S
C563 C564 1.393 1_565 S
C564 C563 1.393 1_545 S
C564 C565 1.389 1_545 S
C564 C567 1.562 . S
C565 C561 1.408 . S
C565 C564 1.389 1_565 S
C565 H577 0.930 1_565 S
C566 C562 1.524 . S
C566 H578 0.956 . S
C566 H579 0.961 . S
C566 H580 0.961 . S
C567 C564 1.562 . S
C567 H581 0.958 . S
C567 H582 0.961 . S
C567 H583 0.960 . S
H568 C552 0.931 . S
H569 C557 0.929 . S
H570 C558 0.960 . S
H571 C558 0.962 . S
H572 C558 0.960 . S
H573 C559 0.961 . S
H574 C559 0.961 . S
H575 C559 0.961 . S
H576 C560 0.931 . S
H577 C565 0.930 1_545 S
H578 C566 0.956 . S
H579 C566 0.961 . S
H580 C566 0.961 . S
H581 C567 0.958 . S
H582 C567 0.961 . S
H583 C567 0.960 . S
C584 C585 1.391 . S
C584 C586 1.394 . S
C584 H600 0.931 . S
C585 C584 1.391 . S
C585 C589 1.376 . S
C586 C584 1.394 . S
C586 C587 1.369 . S
C586 C590 1.531 . S
C587 C586 1.369 . S
C587 C588 1.410 . S
C587 C595 1.503 . S
C588 C587 1.410 . S
C588 C589 1.392 . S
C588 C591 1.511 . S
C589 C585 1.376 . S
C589 C588 1.392 . S
C589 H601 0.929 . S
C590 C586 1.531 . S
C590 H602 0.960 . S
C590 H603 0.962 . S
C590 H604 0.960 . S
C591 C588 1.511 . S
C591 H605 0.961 . S
C591 H606 0.961 . S
C591 H607 0.961 . S
C592 C593 1.370 . S
C592 C594 1.363 . S
C592 H608 0.931 . S
C593 C592 1.370 . S
C593 C597 1.408 . S
C594 C592 1.363 . S
C594 C595 1.370 . S
C594 C598 1.524 . S
C595 C587 1.503 . S
C595 C594 1.370 . S
C595 C596 1.403 . S
C596 C595 1.403 . S
C596 C597 1.404 . S
C596 C599 1.539 . S
C597 C593 1.408 . S
C597 C596 1.404 . S
C597 H609 0.930 . S
C598 C594 1.524 . S
C598 H610 0.956 . S
C598 H611 0.961 . S
C598 H612 0.961 . S
C599 C596 1.539 . S
C599 H613 0.958 . S
C599 H614 0.961 . S
C599 H615 0.960 . S
H600 C584 0.931 . S
H601 C589 0.929 . S
H602 C590 0.960 . S
H603 C590 0.962 . S
H604 C590 0.960 . S
H605 C591 0.961 . S
H606 C591 0.961 . S
H607 C591 0.961 . S
H608 C592 0.931 . S
H609 C597 0.930 . S
H610 C598 0.956 . S
H611 C598 0.961 . S
H612 C598 0.961 . S
H613 C599 0.958 . S
H614 C599 0.961 . S
H615 C599 0.960 . S
C616 C617 1.391 . S
C616 C618 1.394 . S
C616 H632 0.931 . S
C617 C616 1.391 . S
C617 C621 1.376 . S
C618 C616 1.394 . S
C618 C619 1.369 . S
C618 C622 1.531 . S
C619 C618 1.369 . S
C619 C620 1.410 . S
C619 C627 1.503 . S
C620 C619 1.410 . S
C620 C621 1.392 . S
C620 C623 1.511 . S
C621 C617 1.376 . S
C621 C620 1.392 . S
C621 H633 0.929 . S
C622 C618 1.531 . S
C622 H634 0.960 . S
C622 H635 0.962 . S
C622 H636 0.960 . S
C623 C620 1.511 . S
C623 H637 0.961 . S
C623 H638 0.961 . S
C623 H639 0.961 . S
C624 C625 1.370 . S
C624 C626 1.363 . S
C624 H640 0.931 . S
C625 C624 1.370 . S
C625 C629 1.408 . S
C626 C624 1.363 . S
C626 C627 1.370 . S
C626 C630 1.524 . S
C627 C619 1.503 . S
C627 C626 1.370 . S
C627 C628 1.403 . S
C628 C627 1.403 . S
C628 C629 1.404 . S
C628 C631 1.539 . S
C629 C625 1.408 . S
C629 C628 1.404 . S
C629 H641 0.930 . S
C630 C626 1.524 . S
C630 H642 0.956 . S
C630 H643 0.961 . S
C630 H644 0.961 . S
C631 C628 1.539 . S
C631 H645 0.958 . S
C631 H646 0.961 . S
C631 H647 0.960 . S
H632 C616 0.931 . S
H633 C621 0.929 . S
H634 C622 0.960 . S
H635 C622 0.962 . S
H636 C622 0.960 . S
H637 C623 0.961 . S
H638 C623 0.961 . S
H639 C623 0.961 . S
H640 C624 0.931 . S
H641 C629 0.930 . S
H642 C630 0.956 . S
H643 C630 0.961 . S
H644 C630 0.961 . S
H645 C631 0.958 . S
H646 C631 0.961 . S
H647 C631 0.960 . S
C648 C649 1.424 . S
C648 C650 1.394 . S
C648 H664 0.931 . S
C649 C648 1.424 . S
C649 C653 1.354 1_455 S
C650 C648 1.394 . S
C650 C651 1.369 . S
C650 C654 1.531 . S
C651 C650 1.369 . S
C651 C652 1.410 1_455 S
C651 C659 1.503 . S
C652 C651 1.410 1_655 S
C652 C653 1.392 . S
C652 C655 1.511 . S
C653 C649 1.354 1_655 S
C653 C652 1.392 . S
C653 H665 0.929 . S
C654 C650 1.531 . S
C654 H666 0.960 . S
C654 H667 0.962 . S
C654 H668 0.960 . S
C655 C652 1.511 . S
C655 H669 0.961 . S
C655 H670 0.961 . S
C655 H671 0.961 . S
C656 C657 1.370 . S
C656 C658 1.363 . S
C656 H672 0.931 . S
C657 C656 1.370 . S
C657 C661 1.408 . S
C658 C656 1.363 . S
C658 C659 1.370 . S
C658 C662 1.524 . S
C659 C651 1.503 . S
C659 C658 1.370 . S
C659 C660 1.403 . S
C660 C659 1.403 . S
C660 C661 1.404 . S
C660 C663 1.539 . S
C661 C657 1.408 . S
C661 C660 1.404 . S
C661 H673 0.930 . S
C662 C658 1.524 . S
C662 H674 0.956 . S
C662 H675 1.000 . S
C662 H676 0.961 . S
C663 C660 1.539 . S
C663 H677 0.958 . S
C663 H678 0.961 . S
C663 H679 0.960 . S
H664 C648 0.931 . S
H665 C653 0.929 . S
H666 C654 0.960 . S
H667 C654 0.962 . S
H668 C654 0.960 . S
H669 C655 0.961 . S
H670 C655 0.961 . S
H671 C655 0.961 . S
H672 C656 0.931 . S
H673 C661 0.930 . S
H674 C662 0.956 . S
H675 C662 1.000 . S
H676 C662 0.961 . S
H677 C663 0.958 . S
H678 C663 0.961 . S
H679 C663 0.960 . S
C680 C681 1.391 . S
C680 C682 1.394 . S
C680 H696 0.931 . S
C681 C680 1.391 . S
C681 C685 1.376 1_565 S
C682 C680 1.394 . S
C682 C683 1.369 1_565 S
C682 C686 1.531 . S
C683 C682 1.369 1_545 S
C683 C684 1.410 . S
C683 C691 1.503 . S
C684 C683 1.410 . S
C684 C685 1.392 . S
C684 C687 1.511 . S
C685 C681 1.376 1_545 S
C685 C684 1.392 . S
C685 H697 0.929 . S
C686 C682 1.531 . S
C686 H698 0.960 . S
C686 H699 0.962 . S
C686 H700 0.960 . S
C687 C684 1.511 . S
C687 H701 0.961 . S
C687 H702 0.961 . S
C687 H703 0.961 . S
C688 C689 1.370 . S
C688 C690 1.363 . S
C688 H704 0.931 . S
C689 C688 1.370 . S
C689 C693 1.408 . S
C690 C688 1.363 . S
C690 C691 1.370 . S
C690 C694 1.524 . S
C691 C683 1.503 . S
C691 C690 1.370 . S
C691 C692 1.403 . S
C692 C691 1.403 . S
C692 C693 1.404 . S
C692 C695 1.539 1_545 S
C693 C689 1.408 . S
C693 C692 1.404 . S
C693 H705 0.930 . S
C694 C690 1.524 . S
C694 H706 0.956 . S
C694 H707 0.961 . S
C694 H708 0.961 . S
C695 C692 1.539 1_565 S
C695 H709 0.958 . S
C695 H710 0.961 . S
C695 H711 0.960 . S
H696 C680 0.931 . S
H697 C685 0.929 . S
H698 C686 0.960 . S
H699 C686 0.962 . S
H700 C686 0.960 . S
H701 C687 0.961 . S
H702 C687 0.961 . S
H703 C687 0.961 . S
H704 C688 0.931 . S
H705 C693 0.930 . S
H706 C694 0.956 . S
H707 C694 0.961 . S
H708 C694 0.961 . S
H709 C695 0.958 . S
H710 C695 0.961 . S
H711 C695 0.960 . S
C712 C713 1.391 . S
C712 C714 1.394 . S
C712 H728 0.931 1_556 S
C713 C712 1.391 . S
C713 C717 1.376 . S
C714 C712 1.394 . S
C714 C715 1.369 . S
C714 C718 1.531 1_556 S
C715 C714 1.369 . S
C715 C716 1.410 . S
C715 C723 1.503 . S
C716 C715 1.410 . S
C716 C717 1.392 . S
C716 C719 1.511 . S
C717 C713 1.376 . S
C717 C716 1.392 . S
C717 H729 0.929 . S
C718 C714 1.531 1_554 S
C718 H730 0.960 . S
C718 H731 0.962 . S
C718 H732 0.960 . S
C719 C716 1.511 . S
C719 H733 0.961 . S
C719 H734 0.961 . S
C719 H735 0.961 . S
C720 C721 1.370 . S
C720 C722 1.363 . S
C720 H736 0.931 . S
C721 C720 1.370 . S
C721 C725 1.408 . S
C722 C720 1.363 . S
C722 C723 1.370 . S
C722 C726 1.524 . S
C723 C715 1.503 . S
C723 C722 1.370 . S
C723 C724 1.403 . S
C724 C723 1.403 . S
C724 C725 1.404 . S
C724 C727 1.539 1_556 S
C725 C721 1.408 . S
C725 C724 1.404 . S
C725 H737 0.930 1_556 S
C726 C722 1.524 . S
C726 H738 0.956 . S
C726 H739 0.961 . S
C726 H740 0.961 . S
C727 C724 1.539 1_554 S
C727 H741 0.958 . S
C727 H742 0.961 . S
C727 H743 0.960 . S
H728 C712 0.931 1_554 S
H729 C717 0.929 . S
H730 C718 0.960 . S
H731 C718 0.962 . S
H732 C718 0.960 . S
H733 C719 0.961 . S
H734 C719 0.961 . S
H735 C719 0.961 . S
H736 C720 0.931 . S
H737 C725 0.930 1_554 S
H738 C726 0.956 . S
H739 C726 0.961 . S
H740 C726 0.961 . S
H741 C727 0.958 . S
H742 C727 0.961 . S
H743 C727 0.960 . S
C744 C745 1.391 . S
C744 C746 1.394 . S
C744 H760 0.931 . S
C745 C744 1.391 . S
C745 C749 1.376 . S
C746 C744 1.394 . S
C746 C747 1.369 . S
C746 C750 1.531 . S
C747 C746 1.369 . S
C747 C748 1.410 . S
C747 C755 1.503 . S
C748 C747 1.410 . S
C748 C749 1.392 . S
C748 C751 1.511 . S
C749 C745 1.376 . S
C749 C748 1.392 . S
C749 H761 0.929 . S
C750 C746 1.531 . S
C750 H762 0.960 . S
C750 H763 0.962 . S
C750 H764 0.960 . S
C751 C748 1.511 . S
C751 H765 0.961 . S
C751 H766 0.961 . S
C751 H767 0.961 . S
C752 C753 1.370 . S
C752 C754 1.363 . S
C752 H768 0.931 . S
C753 C752 1.370 . S
C753 C757 1.408 . S
C754 C752 1.363 . S
C754 C755 1.370 . S
C754 C758 1.524 . S
C755 C747 1.503 . S
C755 C754 1.370 . S
C755 C756 1.403 . S
C756 C755 1.403 . S
C756 C757 1.404 . S
C756 C759 1.539 . S
C757 C753 1.408 . S
C757 C756 1.404 . S
C757 H769 0.930 . S
C758 C754 1.524 . S
C758 H770 0.956 . S
C758 H771 0.961 . S
C758 H772 0.961 . S
C759 C756 1.539 . S
C759 H773 0.958 . S
C759 H774 0.961 . S
C759 H775 0.960 . S
H760 C744 0.931 . S
H761 C749 0.929 . S
H762 C750 0.960 . S
H763 C750 0.962 . S
H764 C750 0.960 . S
H765 C751 0.961 . S
H766 C751 0.961 . S
H767 C751 0.961 . S
H768 C752 0.931 . S
H769 C757 0.930 . S
H770 C758 0.956 . S
H771 C758 0.961 . S
H772 C758 0.961 . S
H773 C759 0.958 . S
H774 C759 0.961 . S
H775 C759 0.960 . S
C776 C777 1.395 . S
C776 C778 1.394 . S
C776 H792 0.931 . S
C777 C776 1.395 . S
C777 C781 1.371 1_655 S
C778 C776 1.394 . S
C778 C779 1.369 1_655 S
C778 C782 1.531 . S
C779 C778 1.369 1_455 S
C779 C780 1.410 1_554 S
C779 C787 1.503 . S
C780 C779 1.410 1_556 S
C780 C781 1.392 1_556 S
C780 C783 1.511 . S
C781 C777 1.371 1_455 S
C781 C780 1.392 1_554 S
C781 H793 0.929 1_554 S
C782 C778 1.531 . S
C782 H794 0.960 . S
C782 H795 0.962 . S
C782 H796 0.960 . S
C783 C780 1.511 . S
C783 H797 0.961 . S
C783 H798 0.961 . S
C783 H799 0.961 . S
C784 C785 1.370 1_554 S
C784 C786 1.363 . S
C784 H800 0.931 . S
C785 C784 1.370 1_556 S
C785 C789 1.408 1_455 S
C786 C784 1.363 . S
C786 C787 1.370 . S
C786 C790 1.524 . S
C787 C779 1.503 . S
C787 C786 1.370 . S
C787 C788 1.403 1_454 S
C788 C787 1.403 1_656 S
C788 C789 1.404 . S
C788 C791 1.539 . S
C789 C785 1.408 1_655 S
C789 C788 1.404 . S
C789 H801 0.930 . S
C790 C786 1.524 . S
C790 H802 0.956 . S
C790 H803 0.961 . S
C790 H804 0.961 . S
C791 C788 1.539 . S
C791 H805 0.958 . S
C791 H806 0.961 . S
C791 H807 0.960 . S
H792 C776 0.931 . S
H793 C781 0.929 1_556 S
H794 C782 0.960 . S
H795 C782 0.962 . S
H796 C782 0.960 . S
H797 C783 0.961 . S
H798 C783 0.961 . S
H799 C783 0.961 . S
H800 C784 0.931 . S
H801 C789 0.930 . S
H802 C790 0.956 . S
H803 C790 0.961 . S
H804 C790 0.961 . S
H805 C791 0.958 . S
H806 C791 0.961 . S
H807 C791 0.960 . S
C808 C809 1.391 1_545 S
C808 C810 1.393 . S
C808 H824 0.931 . S
C809 C808 1.391 1_565 S
C809 C813 1.376 1_554 S
C810 C808 1.393 . S
C810 C811 1.371 1_545 S
C810 C814 1.529 . S
C811 C810 1.371 1_565 S
C811 C812 1.410 1_554 S
C811 C819 1.503 1_554 S
C812 C811 1.410 1_556 S
C812 C813 1.392 . S
C812 C815 1.511 . S
C813 C809 1.376 1_556 S
C813 C812 1.392 . S
C813 H825 0.929 . S
C814 C810 1.529 . S
C814 H826 0.960 1_545 S
C814 H827 0.962 . S
C814 H828 0.960 1_545 S
C815 C812 1.511 . S
C815 H829 0.961 . S
C815 H830 0.961 . S
C815 H831 0.961 . S
C816 C817 1.370 . S
C816 C818 1.363 . S
C816 H832 0.931 . S
C817 C816 1.370 . S
C817 C821 1.408 1_545 S
C818 C816 1.363 . S
C818 C819 1.374 1_545 S
C818 C822 1.524 1_556 S
C819 C811 1.503 1_556 S
C819 C818 1.374 1_565 S
C819 C820 1.400 . S
C820 C819 1.400 . S
C820 C821 1.404 . S
C820 C823 1.539 . S
C821 C817 1.408 1_565 S
C821 C820 1.404 . S
C821 H833 0.930 . S
C822 C818 1.524 1_554 S
C822 H834 0.956 . S
C822 H835 0.961 1_554 S
C822 H836 0.961 . S
C823 C820 1.539 . S
C823 H837 0.958 1_556 S
C823 H838 0.961 . S
C823 H839 0.960 . S
H824 C808 0.931 . S
H825 C813 0.929 . S
H826 C814 0.960 1_565 S
H827 C814 0.962 . S
H828 C814 0.960 1_565 S
H829 C815 0.961 . S
H830 C815 0.961 . S
H831 C815 0.961 . S
H832 C816 0.931 . S
H833 C821 0.930 . S
H834 C822 0.956 . S
H835 C822 0.961 1_556 S
H836 C822 0.961 . S
H837 C823 0.958 1_554 S
H838 C823 0.961 . S
H839 C823 0.960 . S
C840 C841 1.391 . S
C840 C842 1.394 . S
C840 H856 0.931 . S
C841 C840 1.391 . S
C841 C845 1.376 . S
C842 C840 1.394 . S
C842 C843 1.369 . S
C842 C846 1.531 . S
C843 C842 1.369 . S
C843 C844 1.410 . S
C843 C851 1.503 . S
C844 C843 1.410 . S
C844 C845 1.392 . S
C844 C847 1.511 . S
C845 C841 1.376 . S
C845 C844 1.392 . S
C845 H857 0.929 . S
C846 C842 1.531 . S
C846 H858 0.960 . S
C846 H859 0.962 . S
C846 H860 0.960 . S
C847 C844 1.511 . S
C847 H861 0.961 . S
C847 H862 0.961 . S
C847 H863 0.961 . S
C848 C849 1.370 . S
C848 C850 1.363 . S
C848 H864 0.931 . S
C849 C848 1.370 . S
C849 C853 1.408 . S
C850 C848 1.363 . S
C850 C851 1.370 . S
C850 C854 1.524 . S
C851 C843 1.503 . S
C851 C850 1.370 . S
C851 C852 1.403 . S
C852 C851 1.403 . S
C852 C853 1.404 . S
C852 C855 1.539 . S
C853 C849 1.408 . S
C853 C852 1.404 . S
C853 H865 0.930 . S
C854 C850 1.524 . S
C854 H866 0.956 . S
C854 H867 0.961 . S
C854 H868 0.961 . S
C855 C852 1.539 . S
C855 H869 0.958 . S
C855 H870 0.961 . S
C855 H871 0.960 . S
H856 C840 0.931 . S
H857 C845 0.929 . S
H858 C846 0.960 . S
H859 C846 0.962 . S
H860 C846 0.960 . S
H861 C847 0.961 . S
H862 C847 0.961 . S
H863 C847 0.961 . S
H864 C848 0.931 . S
H865 C853 0.930 . S
H866 C854 0.956 . S
H867 C854 0.961 . S
H868 C854 0.961 . S
H869 C855 0.958 . S
H870 C855 0.961 . S
H871 C855 0.960 . S
C872 C873 1.391 . S
C872 C874 1.394 . S
C872 H888 0.931 . S
C873 C872 1.391 . S
C873 C877 1.376 1_554 S
C874 C872 1.394 . S
C874 C875 1.369 1_554 S
C874 C878 1.531 . S
C875 C874 1.369 1_556 S
C875 C876 1.410 . S
C875 C883 1.503 . S
C876 C875 1.410 . S
C876 C877 1.392 . S
C876 C879 1.511 . S
C877 C873 1.376 1_556 S
C877 C876 1.392 . S
C877 H889 0.929 . S
C878 C874 1.531 . S
C878 H890 0.960 . S
C878 H891 0.962 . S
C878 H892 0.960 . S
C879 C876 1.511 . S
C879 H893 0.961 . S
C879 H894 0.961 . S
C879 H895 0.961 . S
C880 C881 1.370 . S
C880 C882 1.363 . S
C880 H896 0.931 . S
C881 C880 1.370 . S
C881 C885 1.408 . S
C882 C880 1.363 . S
C882 C883 1.370 . S
C882 C886 1.524 1_556 S
C883 C875 1.503 . S
C883 C882 1.370 . S
C883 C884 1.403 . S
C884 C883 1.403 . S
C884 C885 1.404 . S
C884 C887 1.539 . S
C885 C881 1.408 . S
C885 C884 1.404 . S
C885 H897 0.930 . S
C886 C882 1.524 1_554 S
C886 H898 0.956 . S
C886 H899 0.963 . S
C886 H900 0.961 . S
C887 C884 1.539 . S
C887 H901 0.958 . S
C887 H902 0.961 . S
C887 H903 0.960 . S
H888 C872 0.931 . S
H889 C877 0.929 . S
H890 C878 0.960 . S
H891 C878 0.962 . S
H892 C878 0.960 . S
H893 C879 0.961 . S
H894 C879 0.961 . S
H895 C879 0.961 . S
H896 C880 0.931 . S
H897 C885 0.930 . S
H898 C886 0.956 . S
H899 C886 0.963 . S
H900 C886 0.961 . S
H901 C887 0.958 . S
H902 C887 0.961 . S
H903 C887 0.960 . S
C904 C905 1.391 1_455 S
C904 C906 1.394 1_455 S
C904 H920 0.931 . S
C905 C904 1.391 1_655 S
C905 C909 1.376 . S
C906 C904 1.394 1_655 S
C906 C907 1.369 . S
C906 C910 1.531 1_655 S
C907 C906 1.369 . S
C907 C908 1.410 . S
C907 C915 1.503 . S
C908 C907 1.410 . S
C908 C909 1.392 . S
C908 C911 1.511 . S
C909 C905 1.376 . S
C909 C908 1.392 . S
C909 H921 0.929 . S
C910 C906 1.531 1_455 S
C910 H922 0.960 1_455 S
C910 H923 0.962 . S
C910 H924 0.960 . S
C911 C908 1.511 . S
C911 H925 0.961 . S
C911 H926 0.961 . S
C911 H927 0.961 . S
C912 C913 1.370 1_455 S
C912 C914 1.363 . S
C912 H928 0.931 . S
C913 C912 1.370 1_655 S
C913 C917 1.408 . S
C914 C912 1.363 . S
C914 C915 1.370 1_455 S
C914 C918 1.524 . S
C915 C907 1.503 . S
C915 C914 1.370 1_655 S
C915 C916 1.403 . S
C916 C915 1.403 . S
C916 C917 1.404 . S
C916 C919 1.539 . S
C917 C913 1.408 . S
C917 C916 1.404 . S
C917 H929 0.930 . S
C918 C914 1.524 . S
C918 H930 0.956 . S
C918 H931 0.961 . S
C918 H932 0.961 . S
C919 C916 1.539 . S
C919 H933 0.958 . S
C919 H934 0.961 . S
C919 H935 0.960 . S
H920 C904 0.931 . S
H921 C909 0.929 . S
H922 C910 0.960 1_655 S
H923 C910 0.962 . S
H924 C910 0.960 . S
H925 C911 0.961 . S
H926 C911 0.961 . S
H927 C911 0.961 . S
H928 C912 0.931 . S
H929 C917 0.930 . S
H930 C918 0.956 . S
H931 C918 0.961 . S
H932 C918 0.961 . S
H933 C919 0.958 . S
H934 C919 0.961 . S
H935 C919 0.960 . S
C936 C937 1.391 . S
C936 C938 1.394 . S
C936 H952 0.931 . S
C937 C936 1.391 . S
C937 C941 1.376 1_565 S
C938 C936 1.394 . S
C938 C939 1.369 . S
C938 C942 1.531 . S
C939 C938 1.369 . S
C939 C940 1.410 1_565 S
C939 C947 1.503 . S
C940 C939 1.410 1_545 S
C940 C941 1.392 . S
C940 C943 1.511 . S
C941 C937 1.376 1_545 S
C941 C940 1.392 . S
C941 H953 0.929 . S
C942 C938 1.531 . S
C942 H954 0.960 . S
C942 H955 0.962 . S
C942 H956 0.960 . S
C943 C940 1.511 . S
C943 H957 0.961 . S
C943 H958 0.961 . S
C943 H959 0.961 . S
C944 C945 1.370 1_545 S
C944 C946 1.363 . S
C944 H960 0.931 . S
C945 C944 1.370 1_565 S
C945 C949 1.408 . S
C946 C944 1.363 . S
C946 C947 1.370 1_545 S
C946 C950 1.524 . S
C947 C939 1.503 . S
C947 C946 1.370 1_565 S
C947 C948 1.403 . S
C948 C947 1.403 . S
C948 C949 1.404 . S
C948 C951 1.539 . S
C949 C945 1.408 . S
C949 C948 1.404 . S
C949 H961 0.930 . S
C950 C946 1.524 . S
C950 H962 0.956 . S
C950 H963 0.961 . S
C950 H964 0.961 . S
C951 C948 1.539 . S
C951 H965 0.958 . S
C951 H966 0.961 . S
C951 H967 0.960 . S
H952 C936 0.931 . S
H953 C941 0.929 . S
H954 C942 0.960 . S
H955 C942 0.962 . S
H956 C942 0.960 . S
H957 C943 0.961 . S
H958 C943 0.961 . S
H959 C943 0.961 . S
H960 C944 0.931 . S
H961 C949 0.930 . S
H962 C950 0.956 . S
H963 C950 0.961 . S
H964 C950 0.961 . S
H965 C951 0.958 . S
H966 C951 0.961 . S
H967 C951 0.960 . S
C968 C969 1.391 . S
C968 C970 1.394 . S
C968 H984 0.931 . S
C969 C968 1.391 . S
C969 C973 1.376 . S
C970 C968 1.394 . S
C970 C971 1.369 . S
C970 C974 1.531 . S
C971 C970 1.369 . S
C971 C972 1.410 . S
C971 C979 1.503 . S
C972 C971 1.410 . S
C972 C973 1.392 . S
C972 C975 1.511 . S
C973 C969 1.376 . S
C973 C972 1.392 . S
C973 H985 0.929 . S
C974 C970 1.531 . S
C974 H986 0.960 . S
C974 H987 0.962 . S
C974 H988 0.960 . S
C975 C972 1.511 . S
C975 H989 0.961 . S
C975 H990 0.961 . S
C975 H991 0.961 . S
C976 C977 1.370 . S
C976 C978 1.363 . S
C976 H992 0.931 . S
C977 C976 1.370 . S
C977 C981 1.408 . S
C978 C976 1.363 . S
C978 C979 1.370 . S
C978 C982 1.524 . S
C979 C971 1.503 . S
C979 C978 1.370 . S
C979 C980 1.403 . S
C980 C979 1.403 . S
C980 C981 1.404 . S
C980 C983 1.539 . S
C981 C977 1.408 . S
C981 C980 1.404 . S
C981 H993 0.930 . S
C982 C978 1.524 . S
C982 H994 0.956 . S
C982 H995 0.961 . S
C982 H996 0.961 . S
C983 C980 1.539 . S
C983 H997 0.958 . S
C983 H998 0.961 . S
C983 H999 0.960 . S
H984 C968 0.931 . S
H985 C973 0.929 . S
H986 C974 0.960 . S
H987 C974 0.962 . S
H988 C974 0.960 . S
H989 C975 0.961 . S
H990 C975 0.961 . S
H991 C975 0.961 . S
H992 C976 0.931 . S
H993 C981 0.930 . S
H994 C982 0.956 . S
H995 C982 0.961 . S
H996 C982 0.961 . S
H997 C983 0.958 . S
H998 C983 0.961 . S
H999 C983 0.960 . S
C1000 C1001 1.391 . S
C1000 C1002 1.394 . S
C1000 H1016 0.931 . S
C1001 C1000 1.391 . S
C1001 C1005 1.376 . S
C1002 C1000 1.394 . S
C1002 C1003 1.369 . S
C1002 C1006 1.531 . S
C1003 C1002 1.369 . S
C1003 C1004 1.410 . S
C1003 C1011 1.503 . S
C1004 C1003 1.410 . S
C1004 C1005 1.392 . S
C1004 C1007 1.511 . S
C1005 C1001 1.376 . S
C1005 C1004 1.392 . S
C1005 H1017 0.929 . S
C1006 C1002 1.531 . S
C1006 H1018 0.960 . S
C1006 H1019 0.962 . S
C1006 H1020 0.960 . S
C1007 C1004 1.511 . S
C1007 H1021 0.961 . S
C1007 H1022 0.961 . S
C1007 H1023 0.961 . S
C1008 C1009 1.370 . S
C1008 C1010 1.363 . S
C1008 H1024 0.931 . S
C1009 C1008 1.370 . S
C1009 C1013 1.408 . S
C1010 C1008 1.363 . S
C1010 C1011 1.370 . S
C1010 C1014 1.524 . S
C1011 C1003 1.503 . S
C1011 C1010 1.370 . S
C1011 C1012 1.403 . S
C1012 C1011 1.403 . S
C1012 C1013 1.404 . S
C1012 C1015 1.539 . S
C1013 C1009 1.408 . S
C1013 C1012 1.404 . S
C1013 H1025 0.930 . S
C1014 C1010 1.524 . S
C1014 H1026 0.956 . S
C1014 H1027 0.961 . S
C1014 H1028 0.961 . S
C1015 C1012 1.539 . S
C1015 H1029 0.958 . S
C1015 H1030 0.961 . S
C1015 H1031 0.960 . S
H1016 C1000 0.931 . S
H1017 C1005 0.929 . S
H1018 C1006 0.960 . S
H1019 C1006 0.962 . S
H1020 C1006 0.960 . S
H1021 C1007 0.961 . S
H1022 C1007 0.961 . S
H1023 C1007 0.961 . S
H1024 C1008 0.931 . S
H1025 C1013 0.930 . S
H1026 C1014 0.956 . S
H1027 C1014 0.961 . S
H1028 C1014 0.961 . S
H1029 C1015 0.958 . S
H1030 C1015 0.961 . S
H1031 C1015 0.960 . S
C265 N80 1.954 1_545 S
C273 C127 2.014 1_545 S
C305 C167 1.757 . S
C297 N93 1.756 . S
C337 C186 2.024 . S
C329 N54 1.928 . S
C369 C247 1.410 1_455 S
C361 N67 1.337 1_455 S
C401 C106 2.007 1_564 S
C393 N28 1.928 1_545 S
C425 N41 1.770 . S
C433 C146 1.758 . S
C457 N2 1.950 . S
C465 C207 2.024 1_554 S
C489 N15 1.378 1_455 S
C497 C226 1.400 1_655 S
C529 C108 0.815 . S
C521 N70 0.875 1_455 S
C561 C148 0.309 . S
C553 N83 0.316 1_545 S
C593 C204 0.911 . S
C585 N96 0.904 . S
C617 N57 0.389 . S
C625 C228 0.381 . S
C649 N18 0.834 1_455 S
C657 C129 0.837 . S
C689 C169 0.348 . S
C681 N31 0.337 . S
C721 C215 0.914 . S
C713 N44 0.850 . S
C745 N5 0.314 . S
C753 C249 0.445 . S
C777 N66 1.570 . S
C785 C124 1.581 . S
C809 N79 2.269 . S
C817 C164 2.349 . S
C849 C188 1.525 . S
C841 N92 1.563 . S
C881 C244 2.333 . S
C873 N53 2.262 . S
C905 N14 1.525 . S
C913 C135 1.607 . S
C945 C175 2.353 . S
C937 N27 2.283 . S
C977 C209 1.540 . S
C969 N40 1.543 . S
C1001 N1 2.246 . S
C1009 C255 2.346 . S
