# Generated by pormake.
# Topology zzz, (3,6)-cn, num edge types: 1
# Building blocks:
#     Node 0, Type 0, BuildingBlock: CUQRIR_clean_linker_1, # of connection points: 3
#     Node 1, Type 0, BuildingBlock: CUQRIR_clean_linker_1, # of connection points: 3
#     Node 2, Type 0, BuildingBlock: CUQRIR_clean_linker_1, # of connection points: 3
#     Node 3, Type 0, BuildingBlock: CUQRIR_clean_linker_1, # of connection points: 3
#     Node 4, Type 0, BuildingBlock: CUQRIR_clean_linker_1, # of connection points: 3
#     Node 5, Type 0, BuildingBlock: CUQRIR_clean_linker_1, # of connection points: 3
#     Node 6, Type 0, BuildingBlock: CUQRIR_clean_linker_1, # of connection points: 3
#     Node 7, Type 0, BuildingBlock: CUQRIR_clean_linker_1, # of connection points: 3
#     Node 8, Type 1, BuildingBlock: NUHQIS_clean_sbu_0, # of connection points: 6
#     Node 9, Type 1, BuildingBlock: NUHQIS_clean_sbu_0, # of connection points: 6
#     Node 10, Type 1, BuildingBlock: NUHQIS_clean_sbu_0, # of connection points: 6
#     Node 11, Type 1, BuildingBlock: NUHQIS_clean_sbu_0, # of connection points: 6
#     Edge 12, Type (0, 1), BuildingBlock: MIFKUJ_clean_linker_0, # of connection points: 2
#     Edge 13, Type (0, 1), BuildingBlock: MIFKUJ_clean_linker_0, # of connection points: 2
#     Edge 14, Type (0, 1), BuildingBlock: MIFKUJ_clean_linker_0, # of connection points: 2
#     Edge 15, Type (0, 1), BuildingBlock: MIFKUJ_clean_linker_0, # of connection points: 2
#     Edge 16, Type (0, 1), BuildingBlock: MIFKUJ_clean_linker_0, # of connection points: 2
#     Edge 17, Type (0, 1), BuildingBlock: MIFKUJ_clean_linker_0, # of connection points: 2
#     Edge 18, Type (0, 1), BuildingBlock: MIFKUJ_clean_linker_0, # of connection points: 2
#     Edge 19, Type (0, 1), BuildingBlock: MIFKUJ_clean_linker_0, # of connection points: 2
#     Edge 20, Type (0, 1), BuildingBlock: MIFKUJ_clean_linker_0, # of connection points: 2
#     Edge 21, Type (0, 1), BuildingBlock: MIFKUJ_clean_linker_0, # of connection points: 2
#     Edge 22, Type (0, 1), BuildingBlock: MIFKUJ_clean_linker_0, # of connection points: 2
#     Edge 23, Type (0, 1), BuildingBlock: MIFKUJ_clean_linker_0, # of connection points: 2
#     Edge 24, Type (0, 1), BuildingBlock: MIFKUJ_clean_linker_0, # of connection points: 2
#     Edge 25, Type (0, 1), BuildingBlock: MIFKUJ_clean_linker_0, # of connection points: 2
#     Edge 26, Type (0, 1), BuildingBlock: MIFKUJ_clean_linker_0, # of connection points: 2
#     Edge 27, Type (0, 1), BuildingBlock: MIFKUJ_clean_linker_0, # of connection points: 2
#     Edge 28, Type (0, 1), BuildingBlock: MIFKUJ_clean_linker_0, # of connection points: 2
#     Edge 29, Type (0, 1), BuildingBlock: MIFKUJ_clean_linker_0, # of connection points: 2
#     Edge 30, Type (0, 1), BuildingBlock: MIFKUJ_clean_linker_0, # of connection points: 2
#     Edge 31, Type (0, 1), BuildingBlock: MIFKUJ_clean_linker_0, # of connection points: 2
#     Edge 32, Type (0, 1), BuildingBlock: MIFKUJ_clean_linker_0, # of connection points: 2
#     Edge 33, Type (0, 1), BuildingBlock: MIFKUJ_clean_linker_0, # of connection points: 2
#     Edge 34, Type (0, 1), BuildingBlock: MIFKUJ_clean_linker_0, # of connection points: 2
#     Edge 35, Type (0, 1), BuildingBlock: MIFKUJ_clean_linker_0, # of connection points: 2
# Relax obj value: 0.228
# Max RMSD: 0.144
# Mean RMSD: 0.134
data_MOF--net-zzz--node1-NUHQIS_clean_sbu_0--node2-CUQRIR_clean_linker_1--edge1-MIFKUJ_clean_linker_0
_symmetry_space_group_name_H-M    P1
_symmetry_Int_Tables_number       1
_symmetry_cell_setting            triclinic
loop_
_symmetry_equiv_pos_as_xyz
'x, y, z'
_cell_length_a     64.598417
_cell_length_b     64.566346
_cell_length_c     16.461553
_cell_angle_alpha  90.30228
_cell_angle_beta   89.757058
_cell_angle_gamma 90.078884
loop_
_atom_site_label
_atom_site_type_symbol
_atom_site_fract_x
_atom_site_fract_y
_atom_site_fract_z
_atom_type_partial_charge
C0 C 0.74773 0.5121 0.32714 0.0
N1 N 0.76873 0.51116 0.31979 0.0
N2 N 0.73842 0.50949 0.25327 0.0
C3 C 0.73637 0.51437 0.40624 0.0
C4 C 0.75465 0.50716 0.20127 0.0
N5 N 0.77274 0.50814 0.24151 0.0
C6 C 0.75299 0.50483 0.11056 0.0
H7 H 0.74598 0.50888 0.4575 0.0
H8 H 0.72154 0.50567 0.40456 0.0
H9 H 0.7328 0.53099 0.41635 0.0
H10 H 0.73898 0.51274 0.08745 0.0
H11 H 0.75199 0.48812 0.09495 0.0
H12 H 0.76689 0.51128 0.07994 0.0
C13 C 1.00644 0.74042 0.36092 0.0
N14 N 1.00253 0.76111 0.36187 0.0
N15 N 0.99988 0.73167 0.28995 0.0
C16 C 0.01704 0.72893 0.42766 0.0
C17 C 0.99218 0.7479 0.24779 0.0
N18 N 0.99361 0.7656 0.29165 0.0
C19 C 0.98424 0.7465 0.16226 0.0
H20 H 0.03392 0.72863 0.41486 0.0
H21 H 1.0114 0.71271 0.43036 0.0
H22 H 0.01451 0.73678 0.48701 0.0
H23 H 0.96934 0.73793 0.16227 0.0
H24 H 0.99533 0.73762 0.12401 0.0
H25 H 0.98171 0.76202 0.13555 0.0
C26 C 0.77522 1.01246 0.34266 0.0
N27 N 0.75627 0.02176 0.34195 0.0
N28 N 0.78726 0.0194 0.28042 0.0
C29 C 0.78152 0.99574 0.40043 0.0
C30 C 0.77508 0.03325 0.24227 0.0
N31 N 0.7563 0.03462 0.27883 0.0
C32 C 0.78206 0.04612 0.17117 0.0
H33 H 0.79373 0.98577 0.37326 0.0
H34 H 0.76797 0.98612 0.41777 0.0
H35 H 0.78782 1.00304 0.45627 0.0
H36 H 0.77895 0.03748 0.11408 0.0
H37 H 0.79896 0.04915 0.17426 0.0
H38 H 0.77371 0.06111 0.1694 0.0
C39 C 0.51188 0.77626 0.40118 0.0
N40 N 0.50063 0.75837 0.39533 0.0
N41 N 0.50385 0.79125 0.35257 0.0
C42 C 0.53049 0.7793 0.45396 0.0
C43 C 0.4875 0.78189 0.31692 0.0
N44 N 0.48551 0.76217 0.34273 0.0
C45 C 0.47487 0.79111 0.24935 0.0
H46 H 0.5323 0.79588 0.47062 0.0
H47 H 0.54451 0.77441 0.41974 0.0
H48 H 0.52923 0.76981 0.50977 0.0
H49 H 0.47692 0.78167 0.19335 0.0
H50 H 0.4792 0.80736 0.23615 0.0
H51 H 0.45822 0.79055 0.26604 0.0
C52 C 0.27652 0.50185 0.11675 0.0
N53 N 0.25911 0.5119 0.09323 0.0
N54 N 0.28913 0.51473 0.16 0.0
C55 C 0.28093 0.47947 0.0995 0.0
C56 C 0.27845 0.53282 0.16282 0.0
N57 N 0.26042 0.53113 0.12171 0.0
C58 C 0.28517 0.55168 0.20979 0.0
H59 H 0.27477 0.47003 0.15032 0.0
H60 H 0.29786 0.47677 0.09483 0.0
H61 H 0.2732 0.47441 0.04266 0.0
H62 H 0.29809 0.55929 0.17686 0.0
H63 H 0.29099 0.54706 0.27041 0.0
H64 H 0.27241 0.56302 0.21715 0.0
C65 C 0.01764 0.2792 0.05469 0.0
N66 N 1.01051 0.25934 0.05194 0.0
N67 N 1.01006 0.28937 0.12141 0.0
C68 C 0.03146 0.28875 0.99189 0.0
C69 C 0.99832 0.27488 0.15909 0.0
N70 N 0.99861 0.25684 0.11716 0.0
C71 C 0.98764 0.27798 0.23967 0.0
H72 H 0.02863 0.30566 0.98779 0.0
H73 H 0.02906 0.28131 0.93174 0.0
H74 H 0.04781 0.28634 0.00993 0.0
H75 H 0.97172 0.28376 0.22886 0.0
H76 H 0.99597 0.28957 0.27737 0.0
H77 H 0.98654 0.26321 0.27352 0.0
C78 C 0.24671 0.01443 0.10887 0.0
N79 N 0.26722 1.00965 0.11532 0.0
N80 N 0.2365 1.01077 0.18036 0.0
C81 C 0.23648 0.02137 0.03217 0.0
C82 C 0.25161 1.00396 0.23026 0.0
N83 N 0.26993 1.00318 0.19107 0.0
C84 C 0.24875 0.99898 0.31891 0.0
H85 H 0.23688 0.03854 0.02994 0.0
H86 H 0.22006 0.0163 0.03072 0.0
H87 H 0.24483 0.01525 0.97812 0.0
H88 H 0.245 0.98229 0.32516 0.0
H89 H 0.23593 1.0082 0.34584 0.0
H90 H 0.26317 1.00211 0.35328 0.0
C91 C 0.52087 0.24309 0.14094 0.0
N92 N 0.5299 0.2622 0.13965 0.0
N93 N 0.52895 0.23125 0.20144 0.0
C94 C 0.50339 0.23656 0.08696 0.0
C95 C 0.54309 0.24384 0.23658 0.0
N96 N 0.54361 0.2625 0.19972 0.0
C97 C 0.55655 0.23769 0.30684 0.0
H98 H 0.49166 0.24908 0.08413 0.0
H99 H 0.49606 0.22204 0.10863 0.0
H100 H 0.50945 0.23405 0.02453 0.0
H101 H 0.55975 0.22081 0.30535 0.0
H102 H 0.54831 0.2413 0.36447 0.0
H103 H 0.57143 0.2463 0.30602 0.0
Tb104 Tb 0.02494 1.00621 0.7976 0.0
Eu105 Eu 0.99336 1.01075 0.6468 0.0
C106 C 0.04299 0.01442 0.62246 0.0
C107 C 1.00831 0.05052 0.74679 0.0
C108 C 0.04663 0.99206 0.99654 0.0
C109 C 0.06168 0.97121 0.10282 0.0
C110 C 0.06405 0.98403 0.03538 0.0
C111 C 0.02687 0.9883 0.02885 0.0
C112 C 0.02448 0.97553 0.09632 0.0
C113 C 0.04182 0.9662 0.13228 0.0
C114 C 0.04898 1.00215 0.91753 0.0
O115 O 0.99522 0.99658 0.8507 0.0
O116 O 0.97334 1.01183 0.75916 0.0
O117 O 0.99243 0.97722 0.68399 0.0
O118 O 0.02541 0.97646 0.73065 0.0
C119 C 0.9767 1.00323 0.82994 0.0
O120 O 0.96534 0.02293 0.59208 0.0
O121 O 0.98368 1.00015 0.52682 0.0
O122 O 0.0254 1.00801 0.59103 0.0
O123 O 0.04442 0.01878 0.70048 0.0
O124 O 1.01203 0.03755 0.80624 0.0
O125 O 1.00459 0.04359 0.67289 0.0
C126 C 1.00919 0.96677 0.70064 0.0
O127 O 0.04866 0.98969 0.8553 0.0
O128 O 0.03751 0.01835 0.90538 0.0
C129 C 0.96534 0.02476 0.45073 0.0
C130 C 0.95825 0.05438 0.33067 0.0
C131 C 0.94205 0.04152 0.35701 0.0
C132 C 0.9456 0.02675 0.41685 0.0
C133 C 0.98189 0.03644 0.4202 0.0
C134 C 0.97838 0.05112 0.36008 0.0
C135 C 0.96782 1.01261 0.52446 0.0
H136 H 0.07536 0.96443 0.12903 0.0
H137 H 0.07942 0.98681 0.01112 0.0
H138 H 0.0132 0.99434 0.99946 0.0
H139 H 1.00893 0.97181 0.11637 0.0
H140 H 0.92643 0.04377 0.33497 0.0
H141 H 0.9327 0.01778 0.4401 0.0
H142 H 0.9972 0.03513 0.44631 0.0
H143 H 0.99107 0.06105 0.34161 0.0
Tb144 Tb 0.51948 0.02557 0.84585 0.0
Eu145 Eu 0.5153 0.99241 0.69581 0.0
C146 C 0.5151 0.04218 0.66442 0.0
C147 C 0.4747 1.01095 0.78878 0.0
C148 C 0.53784 0.06975 0.97156 0.0
C149 C 0.56331 0.09398 0.91927 0.0
C150 C 0.54722 0.07988 0.90574 0.0
C151 C 0.54346 0.07507 0.05082 0.0
C152 C 0.55958 0.089 0.06443 0.0
C153 C 0.57047 0.09781 0.9987 0.0
C154 C 0.52465 0.05156 0.9591 0.0
O155 O 0.51998 0.99563 0.90944 0.0
O156 O 0.51664 0.9719 0.80542 0.0
O157 O 0.54867 0.9926 0.73276 0.0
O158 O 0.54969 0.02551 0.78237 0.0
C159 C 0.51857 0.97639 0.88273 0.0
O160 O 0.50296 0.96404 0.64331 0.0
O161 O 0.52619 0.98152 0.57758 0.0
O162 O 0.51917 0.02365 0.63476 0.0
O163 O 0.51173 0.04519 0.7425 0.0
O164 O 0.48693 0.01643 0.84909 0.0
O165 O 0.48232 1.00374 0.7197 0.0
C166 C 0.5591 1.00946 0.74915 0.0
O167 O 0.51016 0.05303 0.90464 0.0
O168 O 0.53464 0.03409 0.95313 0.0
C169 C 0.50059 0.96448 0.50294 0.0
C170 C 0.47091 0.95942 0.38107 0.0
C171 C 0.48537 0.94364 0.39591 0.0
C172 C 0.50013 0.94615 0.45703 0.0
C173 C 0.48705 0.98065 0.48521 0.0
C174 C 0.47229 0.97813 0.42514 0.0
C175 C 0.51325 0.96601 0.57546 0.0
H176 H 0.57105 0.10077 0.86733 0.0
H177 H 0.543 0.07593 0.8439 0.0
H178 H 0.53634 0.06738 0.10224 0.0
H179 H 0.56462 0.09127 0.12647 0.0
H180 H 0.48474 0.92913 0.36262 0.0
H181 H 0.51056 0.93353 0.47072 0.0
H182 H 0.48713 0.99479 0.52102 0.0
H183 H 0.46114 0.99045 0.41728 0.0
Tb184 Tb 0.49718 0.50922 0.79152 0.0
Eu185 Eu 0.52844 0.50092 0.64205 0.0
C186 C 0.47964 0.50045 0.619 0.0
C187 C 0.51325 0.4631 0.76022 0.0
C188 C 0.46624 0.53923 0.93353 0.0
C189 C 0.44363 0.56188 0.01128 0.0
C190 C 0.44962 0.5419 0.98747 0.0
C191 C 0.47665 0.55656 0.90289 0.0
C192 C 0.47053 0.57637 0.92532 0.0
C193 C 0.45414 0.5793 0.98057 0.0
C194 C 0.47224 0.51868 0.9043 0.0
O195 O 0.52836 0.51816 0.83418 0.0
O196 O 0.54668 0.49556 0.75569 0.0
O197 O 0.52892 0.53568 0.6631 0.0
O198 O 0.49717 0.53833 0.72297 0.0
C199 C 0.5453 0.50723 0.8207 0.0
O200 O 0.55748 0.50864 0.58194 0.0
O201 O 0.53652 0.48657 0.52586 0.0
O202 O 0.49695 0.50778 0.58859 0.0
O203 O 0.47917 0.49426 0.69494 0.0
O204 O 0.50564 0.47693 0.81132 0.0
O205 O 0.52037 0.46846 0.68786 0.0
C206 C 0.51292 0.54692 0.68519 0.0
O207 O 0.46666 0.51471 0.83008 0.0
O208 O 0.49151 0.51369 0.91626 0.0
C209 C 0.57214 0.48055 0.5115 0.0
C210 C 0.59998 0.44777 0.48557 0.0
C211 C 0.59534 0.4545 0.56494 0.0
C212 C 0.5814 0.47069 0.57783 0.0
C213 C 0.57804 0.47511 0.43241 0.0
C214 C 0.59187 0.45883 0.41942 0.0
C215 C 0.55494 0.49496 0.52426 0.0
H216 H 0.43103 0.56368 0.05436 0.0
H217 H 0.4413 0.52862 0.01092 0.0
H218 H 0.48949 0.55479 0.86107 0.0
H219 H 0.47866 0.58942 0.89902 0.0
H220 H 0.60149 0.44642 0.61703 0.0
H221 H 0.57705 0.47478 0.63951 0.0
H222 H 0.57107 0.48266 0.38065 0.0
H223 H 0.59493 0.45396 0.35748 0.0
Tb224 Tb 1.00853 0.49462 0.77577 0.0
Eu225 Eu 0.01932 0.52714 0.63127 0.0
C226 C 0.01949 0.47749 0.59908 0.0
C227 C 0.05438 0.51029 0.75193 0.0
C228 C 0.99683 0.47065 0.97583 0.0
C229 C 0.98666 0.45302 0.09939 0.0
C230 C 0.99544 0.45248 0.02162 0.0
C231 C 0.99178 0.48967 0.01193 0.0
C232 C 0.98269 0.49021 0.08882 0.0
C233 C 0.97861 0.47169 0.13104 0.0
C234 C 1.00006 0.46933 0.88778 0.0
O235 O 1.0018 0.52488 0.83334 0.0
O236 O 0.01835 0.54682 0.74429 0.0
O237 O 0.98501 0.52942 0.65954 0.0
O238 O 0.98174 0.49569 0.69432 0.0
C239 C 1.00918 0.54336 0.81432 0.0
O240 O 0.03722 0.55233 0.57758 0.0
O241 O 1.01021 0.54043 0.51529 0.0
O242 O 0.0166 0.496 0.56815 0.0
O243 O 0.02064 0.47476 0.67819 0.0
O244 O 0.03922 0.50673 0.8034 0.0
O245 O 0.05038 0.51474 0.67542 0.0
C246 C 0.97339 0.51291 0.66802 0.0
O247 O 0.98628 0.47896 0.84451 0.0
O248 O 0.01875 0.47264 0.86098 0.0
C249 C 0.03662 0.55509 0.43492 0.0
C250 C 0.06037 0.56033 0.29305 0.0
C251 C 0.04836 0.57671 0.32381 0.0
C252 C 0.03657 0.57411 0.39431 0.0
C253 C 0.04772 0.53834 0.40227 0.0
C254 C 0.0595 0.54094 0.3316 0.0
C255 C 0.02572 0.55333 0.51278 0.0
H256 H 0.98444 0.43856 0.13131 0.0
H257 H 0.99965 0.43768 0.99498 0.0
H258 H 0.99302 0.5039 0.97769 0.0
H259 H 0.97687 0.50496 0.11037 0.0
H260 H 0.04866 0.59169 0.29482 0.0
H261 H 0.02792 0.58714 0.41851 0.0
H262 H 0.04783 0.52353 0.43293 0.0
H263 H 0.06884 0.52812 0.30981 0.0
H264 H 0.21014 0.04364 0.17131 0.0
H265 H 0.17526 0.04578 0.23184 0.0
H266 H 0.17983 0.98173 0.30396 0.0
H267 H 0.21347 0.97935 0.23753 0.0
H268 H 0.14375 0.98636 0.27849 0.0
H269 H 0.19009 0.02789 0.43434 0.0
H270 H 0.21544 0.05569 0.46082 0.0
H271 H 0.17084 0.10133 0.38981 0.0
H272 H 0.14529 0.07375 0.36189 0.0
H273 H 0.08302 0.02354 0.6669 0.0
H274 H 0.11405 0.024 0.5815 0.0
H275 H 0.07696 1.00992 0.37109 0.0
H276 H 0.04589 1.00898 0.45658 0.0
H277 H 0.1287 0.04517 0.46392 0.0
H278 H 0.10837 0.97777 0.2328 0.0
H279 H 0.08938 0.94469 0.23033 0.0
H280 H 0.08742 0.94399 0.49043 0.0
H281 H 0.10828 0.97586 0.49535 0.0
C282 C 0.20329 0.02993 0.19784 0.0
C283 C 0.21461 1.01137 0.20038 0.0
C284 C 0.18349 0.03121 0.23406 0.0
C285 C 0.17484 0.01411 0.27557 0.0
C286 C 0.18581 0.99529 0.27331 0.0
C287 C 0.2052 0.99391 0.23548 0.0
C288 C 0.1549 0.01562 0.32366 0.0
C289 C 0.14043 0.99934 0.31847 0.0
C290 C 0.15059 0.03215 0.37847 0.0
C291 C 0.16588 0.04876 0.39512 0.0
C292 C 0.18574 0.04385 0.42387 0.0
C293 C 0.20013 0.05956 0.43918 0.0
C294 C 0.19477 0.08026 0.42677 0.0
C295 C 0.17498 0.08529 0.39921 0.0
C296 C 0.16054 0.06963 0.38364 0.0
C297 C 0.08138 0.02064 0.6024 0.0
C298 C 0.06182 0.0161 0.56915 0.0
C299 C 0.09923 0.02098 0.55329 0.0
C300 C 0.09811 0.01678 0.46939 0.0
C301 C 0.07848 0.01288 0.43561 0.0
C302 C 0.06063 1.01242 0.48479 0.0
C303 C 0.11751 0.01592 0.41825 0.0
C304 C 0.13186 0.03231 0.42305 0.0
C305 C 0.12223 0.9989 0.36629 0.0
C306 C 0.1094 0.97973 0.36439 0.0
C307 C 0.10394 0.97061 0.28966 0.0
C308 C 0.09291 0.952 0.28773 0.0
C309 C 0.08663 0.94263 0.35983 0.0
C310 C 0.09201 0.95144 0.43445 0.0
C311 C 0.10364 0.96971 0.43689 0.0
H312 H 0.07779 0.92843 0.35745 0.0
H313 H 0.20593 0.09241 0.43869 0.0
H314 H 0.53987 0.1937 0.14152 0.0
H315 H 0.5363 0.16023 0.21129 0.0
H316 H 0.50205 0.19028 0.40403 0.0
H317 H 0.50608 0.22361 0.33454 0.0
H318 H 0.53098 0.16715 0.46754 0.0
H319 H 0.47923 0.15511 0.2615 0.0
H320 H 0.46639 0.15298 0.12082 0.0
H321 H 0.51173 0.10649 0.06461 0.0
H322 H 0.52503 0.10846 0.20491 0.0
H323 H 0.49922 0.08084 0.69514 0.0
H324 H 0.49975 0.11128 0.608 0.0
H325 H 0.53123 0.07623 0.42122 0.0
H326 H 0.52996 0.04535 0.50736 0.0
H327 H 0.5054 0.10106 0.35018 0.0
H328 H 0.55679 0.11171 0.55325 0.0
H329 H 0.57051 0.11324 0.69277 0.0
H330 H 0.52814 0.1623 0.75177 0.0
H331 H 0.51392 0.16083 0.61297 0.0
C332 C 0.53099 0.19291 0.19735 0.0
C333 C 0.52279 0.21112 0.2317 0.0
C334 C 0.52903 0.1738 0.23768 0.0
C335 C 0.51877 0.17247 0.31334 0.0
C336 C 0.51004 0.19068 0.34606 0.0
C337 C 0.51207 0.20971 0.3059 0.0
C338 C 0.51815 0.1526 0.36102 0.0
C339 C 0.52508 0.1528 0.44198 0.0
C340 C 0.51128 0.13349 0.32754 0.0
C341 C 0.50322 0.13207 0.24351 0.0
C342 C 0.48654 0.14451 0.21903 0.0
C343 C 0.47918 0.14331 0.13941 0.0
C344 C 0.48829 0.12962 0.08383 0.0
C345 C 0.50473 0.11707 0.10783 0.0
C346 C 0.51217 0.1182 0.18741 0.0
C347 C 0.5062 0.0795 0.63542 0.0
C348 C 0.51468 0.06053 0.6089 0.0
C349 C 0.50661 0.09706 0.58549 0.0
C350 C 0.516 0.09643 0.50811 0.0
C351 C 0.52397 0.07734 0.48051 0.0
C352 C 0.52327 0.05963 0.5301 0.0
C353 C 0.51779 0.11575 0.45732 0.0
C354 C 0.51126 0.11542 0.37577 0.0
C355 C 0.52529 0.13474 0.48987 0.0
C356 C 0.53417 0.13604 0.57284 0.0
C357 C 0.55034 0.12277 0.59607 0.0
C358 C 0.5582 0.12362 0.67504 0.0
C359 C 0.55017 0.13782 0.73115 0.0
C360 C 0.53433 0.15128 0.70827 0.0
C361 C 0.52637 0.15046 0.62943 0.0
H362 H 0.55624 0.13843 0.7923 0.0
H363 H 0.48258 0.12873 0.02219 0.0
H364 H 0.29678 0.48658 0.2778 0.0
H365 H 0.32931 0.482 0.35323 0.0
H366 H 0.3582 0.52916 0.20667 0.0
H367 H 0.3257 0.5336 0.13166 0.0
H368 H 0.38455 0.49647 0.23109 0.0
H369 H 0.34094 0.54026 0.39514 0.0
H370 H 0.30913 0.54956 0.47004 0.0
H371 H 0.31691 0.49686 0.62498 0.0
H372 H 0.34861 0.48705 0.55005 0.0
H373 H 0.47261 0.51953 0.473 0.0
H374 H 0.44079 0.52024 0.39362 0.0
H375 H 0.41104 0.48066 0.5693 0.0
H376 H 0.44268 0.48065 0.65082 0.0
H377 H 0.38474 0.50799 0.52917 0.0
H378 H 0.4284 0.46402 0.36788 0.0
H379 H 0.45982 0.45391 0.29193 0.0
H380 H 0.45184 0.50551 0.1317 0.0
H381 H 0.42046 0.51607 0.20718 0.0
C382 C 0.31021 0.49569 0.26114 0.0
C383 C 0.30876 0.51042 0.19886 0.0
C384 C 0.32876 0.49322 0.3046 0.0
C385 C 0.34631 0.50537 0.28648 0.0
C386 C 0.345 0.51958 0.22221 0.0
C387 C 0.32642 0.52217 0.17943 0.0
C388 C 0.36582 0.50381 0.33564 0.0
C389 C 0.38461 0.49917 0.29618 0.0
C390 C 0.36601 0.50686 0.42101 0.0
C391 C 0.34703 0.51279 0.4664 0.0
C392 C 0.33578 0.53056 0.44474 0.0
C393 C 0.31778 0.53593 0.48726 0.0
C394 C 0.31097 0.52378 0.5521 0.0
C395 C 0.32218 0.50624 0.57465 0.0
C396 C 0.34017 0.50077 0.53218 0.0
C397 C 0.45937 0.51082 0.49462 0.0
C398 C 0.46039 0.49991 0.56837 0.0
C399 C 0.44109 0.51114 0.44865 0.0
C400 C 0.42334 0.50017 0.4739 0.0
C401 C 0.42436 0.48925 0.54769 0.0
C402 C 0.44257 0.48917 0.59434 0.0
C403 C 0.40364 0.50055 0.42484 0.0
C404 C 0.38476 0.50508 0.46423 0.0
C405 C 0.40336 0.49725 0.33938 0.0
C406 C 0.42218 0.49093 0.29368 0.0
C407 C 0.43341 0.47329 0.31676 0.0
C408 C 0.45119 0.46746 0.27372 0.0
C409 C 0.45783 0.47908 0.20712 0.0
C410 C 0.44667 0.49653 0.18329 0.0
C411 C 0.42887 0.50243 0.22613 0.0
H412 H 0.47161 0.47455 0.17389 0.0
H413 H 0.29704 0.52797 0.58499 0.0
H414 H 0.98037 0.31818 0.13941 0.0
H415 H 0.98326 0.35173 0.20891 0.0
H416 H 0.04873 0.34158 0.24062 0.0
H417 H 0.04569 0.30806 0.16937 0.0
H418 H 0.99178 0.35957 0.35739 0.0
H419 H 0.07395 0.38815 0.26792 0.0
H420 H 0.09766 0.3871 0.15006 0.0
H421 H 0.04598 0.37942 0.98945 0.0
H422 H 0.02196 0.3807 0.10617 0.0
H423 H 0.02325 0.43636 0.6397 0.0
H424 H 0.02302 0.40613 0.54966 0.0
H425 H 0.01779 0.44605 0.34177 0.0
H426 H 0.01821 0.47645 0.4315 0.0
H427 H 0.04377 0.41465 0.30693 0.0
H428 H 0.97564 0.42075 0.41577 0.0
H429 H 0.94905 0.42428 0.52267 0.0
H430 H 0.96745 0.36609 0.62432 0.0
H431 H 0.99449 0.36238 0.51888 0.0
C432 C 0.99545 0.32342 0.15944 0.0
C433 C 0.01284 0.31064 0.14819 0.0
C434 C 0.9971 0.34253 0.19995 0.0
C435 C 0.01621 0.34944 0.23071 0.0
C436 C 0.03381 0.33694 0.21685 0.0
C437 C 0.03214 0.31779 0.17579 0.0
C438 C 0.01728 0.36898 0.28116 0.0
C439 C 1.00324 0.37153 0.3461 0.0
C440 C 0.03188 0.38501 0.26653 0.0
C441 C 0.04619 0.38427 0.19593 0.0
C442 C 0.06765 0.38628 0.20743 0.0
C443 C 0.08115 0.38565 0.14083 0.0
C444 C 0.07334 0.38311 0.06235 0.0
C445 C 0.05202 0.38128 0.05029 0.0
C446 C 0.03846 0.38193 0.11667 0.0
C447 C 0.0222 0.43881 0.57482 0.0
C448 C 0.02068 0.45902 0.5434 0.0
C449 C 0.02198 0.42141 0.52317 0.0
C450 C 0.02015 0.42362 0.43846 0.0
C451 C 0.01922 0.44378 0.40665 0.0
C452 C 0.0194 0.46122 0.45834 0.0
C453 C 0.01856 0.40492 0.38376 0.0
C454 C 0.03245 0.40258 0.31822 0.0
C455 C 1.00348 0.38927 0.39647 0.0
C456 C 0.98723 0.39139 0.4599 0.0
C457 C 0.97413 0.40878 0.4613 0.0
C458 C 0.95895 0.4108 0.52155 0.0
C459 C 0.95655 0.39543 0.58027 0.0
C460 C 0.96934 0.37799 0.57882 0.0
C461 C 0.9846 0.37592 0.51884 0.0
H462 H 0.94477 0.39703 0.62681 0.0
H463 H 0.08381 0.38262 0.01088 0.0
H464 H 0.79557 0.99721 0.14589 0.0
H465 H 0.82962 0.99131 0.08347 0.0
H466 H 0.85873 0.02188 0.28678 0.0
H467 H 0.82438 0.02775 0.34892 0.0
H468 H 0.87307 0.03697 0.1441 0.0
H469 H 0.86429 0.96935 0.25546 0.0
H470 H 0.84627 0.93644 0.28332 0.0
H471 H 0.84433 0.92284 0.02786 0.0
H472 H 0.86208 0.95581 0.99833 0.0
H473 H 0.97577 1.00976 0.99527 0.0
H474 H 0.94508 1.0102 0.08483 0.0
H475 H 0.90668 0.99238 0.8827 0.0
H476 H 0.93702 0.99281 0.79273 0.0
H477 H 0.89901 0.96993 0.03645 0.0
H478 H 0.9065 0.03737 0.9238 0.0
H479 H 0.92293 0.07078 0.89219 0.0
H480 H 0.92443 0.08616 0.14568 0.0
H481 H 0.90952 0.05217 0.17982 0.0
C482 C 0.80933 1.00209 0.17813 0.0
C483 C 0.80744 1.01256 0.25281 0.0
C484 C 0.82881 0.99879 0.14244 0.0
C485 C 0.84695 1.00599 0.18038 0.0
C486 C 0.84507 0.01608 0.25621 0.0
C487 C 0.82551 0.01924 0.29222 0.0
C488 C 0.86753 1.00413 0.13811 0.0
C489 C 0.87898 0.02223 0.12234 0.0
C490 C 0.87505 0.98501 0.10718 0.0
C491 C 0.86438 0.96515 0.12467 0.0
C492 C 0.85988 0.95942 0.20516 0.0
C493 C 0.84974 0.94074 0.22126 0.0
C494 C 0.84412 0.92758 0.15739 0.0
C495 C 0.84867 0.93305 0.07728 0.0
C496 C 0.8588 0.95173 0.06083 0.0
C497 C 0.96081 1.0057 0.9703 0.0
C498 C 0.95882 1.00122 0.88693 0.0
C499 C 0.94327 1.00605 0.02142 0.0
C500 C 0.92351 1.00136 0.99057 0.0
C501 C 0.92171 0.99602 0.90806 0.0
C502 C 0.93907 0.99631 0.85664 0.0
C503 C 0.90452 1.00275 0.04285 0.0
C504 C 0.89331 0.98461 0.0598 0.0
C505 C 0.89718 0.02187 0.07445 0.0
C506 C 0.90734 0.04188 0.05452 0.0
C507 C 0.91098 0.04753 0.9732 0.0
C508 C 0.92007 0.06661 0.95484 0.0
C509 C 0.9251 0.08046 0.01714 0.0
C510 C 0.92105 0.07522 0.09783 0.0
C511 C 0.9124 0.05598 0.11674 0.0
H512 H 0.93192 0.09534 1.00289 0.0
H513 H 0.83628 0.91311 0.16999 0.0
H514 H 0.53339 0.79969 0.24169 0.0
H515 H 0.53917 0.83323 0.17557 0.0
H516 H 0.49628 0.86186 0.34329 0.0
H517 H 0.49033 0.82811 0.40769 0.0
H518 H 0.48593 0.87125 0.19547 0.0
H519 H 0.5504 0.87338 0.33822 0.0
H520 H 0.58419 0.86019 0.38393 0.0
H521 H 0.60508 0.85609 0.13641 0.0
H522 H 0.57132 0.86899 0.08911 0.0
H523 H 0.50401 0.97488 0.04056 0.0
H524 H 0.50359 0.94487 0.13241 0.0
H525 H 0.53465 0.90813 0.94988 0.0
H526 H 0.53441 0.9377 0.85718 0.0
H527 H 0.55185 0.90451 0.11264 0.0
H528 H 0.48875 0.89836 0.96817 0.0
H529 H 0.45406 0.90558 0.91373 0.0
H530 H 0.43038 0.91349 0.15587 0.0
H531 H 0.46511 0.90694 0.21193 0.0
C532 C 0.52597 0.81337 0.26644 0.0
C533 C 0.51185 0.81145 0.33114 0.0
C534 C 0.52913 0.83257 0.22835 0.0
C535 C 0.51827 0.85036 0.25428 0.0
C536 C 0.50493 0.84854 0.32181 0.0
C537 C 0.50174 0.82933 0.35956 0.0
C538 C 0.51909 0.87015 0.2063 0.0
C539 C 0.50038 0.8788 0.17941 0.0
C540 C 0.53791 0.87969 0.18183 0.0
C541 C 0.55826 0.87201 0.21011 0.0
C542 C 0.56214 0.86953 0.29349 0.0
C543 C 0.5813 0.86212 0.3197 0.0
C544 C 0.59675 0.85726 0.2631 0.0
C545 C 0.59309 0.85984 0.18018 0.0
C546 C 0.57396 0.86723 0.15365 0.0
C547 C 0.51083 0.96044 0.0202 0.0
C548 C 0.51924 0.95875 0.94136 0.0
C549 C 0.51052 0.94325 0.07266 0.0
C550 C 0.5191 0.92414 0.04829 0.0
C551 C 0.52796 0.92263 0.97039 0.0
C552 C 0.52776 0.93958 0.91728 0.0
C553 C 0.51867 0.90564 0.10311 0.0
C554 C 0.53743 0.8972 0.13059 0.0
C555 C 0.49991 0.89612 0.12758 0.0
C556 C 0.47963 0.90246 0.09419 0.0
C557 C 0.47629 0.90218 0.00981 0.0
C558 C 0.45658 0.906 0.97867 0.0
C559 C 0.44003 0.90989 0.03136 0.0
C560 C 0.44324 0.91048 0.11522 0.0
C561 C 0.46294 0.90679 0.14669 0.0
H562 H 0.42471 0.91247 0.00708 0.0
H563 H 0.61157 0.85153 0.28351 0.0
H564 H 0.70783 0.53726 0.28814 0.0
H565 H 0.67246 0.53739 0.23163 0.0
H566 H 0.6849 0.47944 0.11014 0.0
H567 H 0.71963 0.47886 0.16918 0.0
H568 H 0.6716 0.51383 0.00655 0.0
H569 H 0.65303 0.47688 0.2484 0.0
H570 H 0.64901 0.47083 0.39532 0.0
H571 H 0.61009 0.52444 0.41618 0.0
H572 H 0.61425 0.53111 0.26953 0.0
H573 H 0.58002 0.4832 0.81592 0.0
H574 H 0.61031 0.48457 0.90288 0.0
H575 H 0.5829 0.53443 0.04107 0.0
H576 H 0.55195 0.53285 0.95427 0.0
H577 H 0.6031 0.50759 0.14159 0.0
H578 H 0.6209 0.5441 0.89912 0.0
H579 H 0.62383 0.54926 0.75119 0.0
H580 H 0.6639 0.49644 0.73191 0.0
H581 H 0.66099 0.49079 0.87963 0.0
C582 C 0.70274 0.52429 0.25139 0.0
C583 C 0.71661 0.50816 0.23237 0.0
C584 C 0.68257 0.52441 0.21871 0.0
C585 C 0.676 0.50849 0.16587 0.0
C586 C 0.68956 0.49196 0.15016 0.0
C587 C 0.70945 0.49167 0.18379 0.0
C588 C 0.6559 0.50976 0.12086 0.0
C589 C 0.65664 0.51234 0.0362 0.0
C590 C 0.63628 0.50835 0.15943 0.0
C591 C 0.63429 0.50473 0.24809 0.0
C592 C 0.64393 0.48762 0.28447 0.0
C593 C 0.64156 0.48402 0.36769 0.0
C594 C 0.62943 0.49733 0.41515 0.0
C595 C 0.6196 0.51423 0.37943 0.0
C596 C 0.62197 0.51793 0.29626 0.0
C597 C 0.58027 0.49452 0.86472 0.0
C598 C 0.56346 0.50809 0.87712 0.0
C599 C 0.59776 0.4953 0.91459 0.0
C600 C 0.59927 0.50987 0.97805 0.0
C601 C 0.58228 0.52309 0.99242 0.0
C602 C 0.56458 0.52223 0.94248 0.0
C603 C 0.61884 0.51141 0.02704 0.0
C604 C 0.61805 0.50937 0.11215 0.0
C605 C 0.63851 0.51338 0.98913 0.0
C606 C 0.6406 0.51694 0.90042 0.0
C607 C 0.63025 0.53352 0.86328 0.0
C608 C 0.63192 0.53654 0.77947 0.0
C609 C 0.64401 0.52316 0.73216 0.0
C610 C 0.65453 0.50678 0.76863 0.0
C611 C 0.6529 0.50368 0.85243 0.0
H612 H 0.64525 0.5255 0.66726 0.0
H613 H 0.62751 0.49444 0.47947 0.0
H614 H 0.96807 0.70577 0.26144 0.0
H615 H 0.96941 0.67158 0.19586 0.0
H616 H 0.036 0.67614 0.1819 0.0
H617 H 0.03445 0.71006 0.25051 0.0
H618 H 0.97966 0.66153 0.05332 0.0
H619 H 0.05856 0.63071 0.15502 0.0
H620 H 0.08158 0.6319 0.27423 0.0
H621 H 0.02894 0.63944 0.43175 0.0
H622 H 1.00563 0.63844 0.31335 0.0
H623 H 0.01564 0.5844 0.78269 0.0
H624 H 0.01382 0.61385 0.87541 0.0
H625 H 0.99732 0.57313 0.07191 0.0
H626 H 0.99907 0.54323 0.97856 0.0
H627 H 0.02703 0.60357 0.11806 0.0
H628 H 0.9605 0.60141 0.9901 0.0
H629 H 0.93648 0.59946 0.87426 0.0
H630 H 0.96158 0.656 0.77903 0.0
H631 H 0.98596 0.65814 0.89376 0.0
C632 C 0.98298 0.69915 0.24603 0.0
C633 C 1.00116 0.71039 0.26193 0.0
C634 C 0.98379 0.67966 0.20794 0.0
C635 C 1.00282 0.6709 0.18376 0.0
C636 C 0.0211 0.68206 0.20121 0.0
C637 C 0.02026 0.70151 0.24038 0.0
C638 C 1.00323 0.65094 0.13556 0.0
C639 C 0.99001 0.6489 0.06816 0.0
C640 C 0.01657 0.63413 0.15389 0.0
C641 C 0.0304 0.63464 0.22539 0.0
C642 C 0.05192 0.63262 0.21512 0.0
C643 C 0.06501 0.63334 0.28249 0.0
C644 C 0.05673 0.63579 0.36051 0.0
C645 C 0.03533 0.63761 0.37128 0.0
C646 C 0.02218 0.63706 0.30406 0.0
C647 C 1.01158 0.58153 0.84553 0.0
C648 C 1.0074 0.56126 0.87258 0.0
C649 C 1.01053 0.59852 0.89871 0.0
C650 C 1.00533 0.59588 0.98093 0.0
C651 C 1.00139 0.57565 0.00884 0.0
C652 C 1.00225 0.55855 0.95517 0.0
C653 C 1.00358 0.61442 0.03615 0.0
C654 C 0.0166 0.6162 0.1041 0.0
C655 C 0.98992 0.63097 0.01891 0.0
C656 C 0.97516 0.62984 0.95021 0.0
C657 C 0.96099 0.61335 0.94417 0.0
C658 C 0.9473 0.61222 0.87875 0.0
C659 C 0.94753 0.62757 0.81924 0.0
C660 C 0.96143 0.64412 0.82515 0.0
C661 C 0.97517 0.64531 0.89041 0.0
H662 H 0.93692 0.62667 0.76862 0.0
H663 H 0.06688 0.63622 0.41262 0.0
H664 H 0.01783 0.22058 0.13981 0.0
H665 H 1.00143 0.18677 0.15882 0.0
H666 H 0.9417 0.21631 0.17573 0.0
H667 H 0.95804 0.25007 0.14737 0.0
H668 H 0.9682 0.18195 0.30949 0.0
H669 H 0.93146 0.19654 0.06015 0.0
H670 H 0.9273 0.20688 0.91755 0.0
H671 H 0.96738 0.15747 0.84165 0.0
H672 H 0.97308 0.14779 0.98421 0.0
H673 H 0.92855 0.08247 0.36676 0.0
H674 H 0.92682 0.11809 0.31859 0.0
H675 H 0.97651 0.10569 0.14937 0.0
H676 H 0.97846 0.06992 0.19793 0.0
H677 H 0.9471 0.13349 0.0898 0.0
H678 H 0.98847 0.12192 0.32695 0.0
H679 H 0.99613 0.11053 0.46629 0.0
H680 H 0.95044 0.15257 0.5608 0.0
H681 H 0.94211 0.16382 0.42162 0.0
C682 C 1.00117 0.21971 0.14542 0.0
C683 C 0.98906 0.23764 0.13998 0.0
C684 C 0.99185 0.20052 0.1564 0.0
C685 C 0.97034 0.1991 0.16535 0.0
C686 C 0.95825 0.21712 0.16546 0.0
C687 C 0.96756 0.23632 0.15109 0.0
C688 C 0.96127 0.17872 0.18234 0.0
C689 C 0.9629 0.17149 0.26206 0.0
C690 C 0.95526 0.16506 0.11923 0.0
C691 C 0.95322 0.17187 0.0336 0.0
C692 C 0.9401 0.18842 0.01354 0.0
C693 C 0.9374 0.19411 0.93247 0.0
C694 C 0.94732 0.18303 0.87056 0.0
C695 C 0.96007 0.16632 0.88968 0.0
C696 C 0.96317 0.16083 0.97072 0.0
C697 C 0.9386 0.08711 0.31723 0.0
C698 C 0.95375 0.07357 0.28625 0.0
C699 C 0.93768 0.10748 0.29031 0.0
C700 C 0.95181 0.11449 0.23183 0.0
C701 C 0.96564 0.1005 0.1952 0.0
C702 C 0.96673 0.08015 0.22282 0.0
C703 C 0.9541 0.1368 0.21681 0.0
C704 C 0.95161 0.14419 0.13764 0.0
C705 C 0.95978 0.15059 0.28003 0.0
C706 C 0.96438 0.14343 0.36367 0.0
C707 C 0.9798 0.12849 0.37727 0.0
C708 C 0.98431 0.12209 0.45627 0.0
C709 C 0.97371 0.13074 0.52235 0.0
C710 C 0.95856 0.1458 0.50952 0.0
C711 C 0.95391 0.15216 0.43058 0.0
H712 H 0.9773 0.12586 0.5835 0.0
H713 H 0.94499 0.18728 0.80777 0.0
H714 H 0.27631 0.96429 0.24089 0.0
H715 H 0.31016 0.94836 0.26752 0.0
H716 H 0.33952 1.00792 0.23694 0.0
H717 H 0.30573 0.02363 0.20896 0.0
H718 H 0.35435 0.97782 0.13249 0.0
H719 H 0.3384 0.98715 0.4172 0.0
H720 H 0.31889 0.98281 0.54505 0.0
H721 H 0.32612 0.91683 0.52784 0.0
H722 H 0.34552 0.92078 0.39929 0.0
H723 H 0.45243 0.98714 0.28144 0.0
H724 H 0.41671 0.9862 0.24207 0.0
H725 H 0.41239 0.92201 0.31234 0.0
H726 H 0.44763 0.92398 0.36561 0.0
H727 H 0.38232 0.94317 0.37674 0.0
H728 H 0.40595 0.93943 0.09111 0.0
H729 H 0.43378 0.95163 0.9986 0.0
H730 H 0.41639 0.01451 0.04807 0.0
H731 H 0.38761 1.00284 0.1326 0.0
C732 C 0.29003 0.97393 0.2424 0.0
C733 C 0.2888 0.99501 0.22267 0.0
C734 C 0.30923 0.96489 0.25718 0.0
C735 C 0.32722 0.97698 0.25285 0.0
C736 C 0.32574 0.99837 0.23917 0.0
C737 C 0.3066 1.00734 0.22394 0.0
C738 C 0.34777 0.96729 0.25399 0.0
C739 C 0.3604 0.96993 0.1854 0.0
C740 C 0.3554 0.95667 0.32235 0.0
C741 C 0.34306 0.95423 0.39784 0.0
C742 C 0.33555 0.97169 0.43998 0.0
C743 C 0.3246 0.96931 0.51278 0.0
C744 C 0.32117 0.94955 0.54432 0.0
C745 C 0.32871 0.93213 0.50316 0.0
C746 C 0.33968 0.93443 0.43033 0.0
C747 C 0.44406 0.97267 0.28753 0.0
C748 C 0.45269 0.95587 0.32884 0.0
C749 C 0.42363 0.97195 0.26259 0.0
C750 C 0.41188 0.95379 0.27122 0.0
C751 C 0.42119 0.93615 0.30445 0.0
C752 C 0.44146 0.93721 0.33368 0.0
C753 C 0.38929 0.95457 0.25668 0.0
C754 C 0.37603 0.94999 0.32205 0.0
C755 C 0.38112 0.96388 0.1861 0.0
C756 C 0.39469 0.97023 0.11805 0.0
C757 C 0.40768 0.9558 0.07919 0.0
C758 C 0.42357 0.96263 0.02788 0.0
C759 C 0.42672 0.9838 0.01617 0.0
C760 C 0.41353 0.99814 0.05342 0.0
C761 C 0.39716 0.99142 0.10188 0.0
H762 H 0.43951 0.98904 0.97892 0.0
H763 H 0.31275 0.94774 0.60083 0.0
H764 H 0.54372 0.28059 0.34677 0.0
H765 H 0.56493 0.31001 0.39072 0.0
H766 H 0.59189 0.31366 0.15074 0.0
H767 H 0.57059 0.28399 0.10725 0.0
H768 H 0.60567 0.31505 0.40173 0.0
H769 H 0.60147 0.36143 0.10675 0.0
H770 H 0.57745 0.37296 0.99983 0.0
H771 H 0.52587 0.36358 0.16083 0.0
H772 H 0.54954 0.35134 0.26763 0.0
H773 H 0.6282 0.43634 0.36806 0.0
H774 H 0.63367 0.40098 0.31836 0.0
H775 H 0.59745 0.3775 0.51872 0.0
H776 H 0.59216 0.41233 0.56846 0.0
H777 H 0.59975 0.38331 0.2678 0.0
H778 H 0.60051 0.32806 0.54555 0.0
H779 H 0.61865 0.32516 0.6763 0.0
H780 H 0.67058 0.35846 0.57859 0.0
H781 H 0.65283 0.36144 0.44688 0.0
C782 C 0.55434 0.28762 0.30396 0.0
C783 C 0.55582 0.28007 0.22419 0.0
C784 C 0.56642 0.30436 0.32886 0.0
C785 C 0.58007 0.31395 0.27414 0.0
C786 C 0.5814 0.30654 0.19385 0.0
C787 C 0.5693 0.28969 0.16903 0.0
C788 C 0.59256 0.33189 0.30169 0.0
C789 C 0.60451 0.33001 0.37244 0.0
C790 C 0.59154 0.3512 0.26224 0.0
C791 C 0.5772 0.35522 0.19443 0.0
C792 C 0.58495 0.36137 0.11846 0.0
C793 C 0.57141 0.36804 0.05802 0.0
C794 C 0.55015 0.36898 0.07363 0.0
C795 C 0.54232 0.36263 0.14868 0.0
C796 C 0.55576 0.35563 0.20884 0.0
C797 C 0.62217 0.42353 0.40323 0.0
C798 C 0.60943 0.42716 0.47129 0.0
C799 C 0.62539 0.40334 0.37502 0.0
C800 C 0.61589 0.38655 0.41444 0.0
C801 C 0.6053 0.39005 0.48783 0.0
C802 C 0.60219 0.41015 0.51625 0.0
C803 C 0.61223 0.36685 0.37011 0.0
C804 C 0.60188 0.36825 0.29558 0.0
C805 C 0.61418 0.34733 0.4079 0.0
C806 C 0.62531 0.34496 0.48611 0.0
C807 C 0.61589 0.33458 0.55154 0.0
C808 C 0.62607 0.33299 0.626 0.0
C809 C 0.64576 0.34161 0.63574 0.0
C810 C 0.65531 0.35182 0.57099 0.0
C811 C 0.64518 0.3535 0.49644 0.0
H812 H 0.65361 0.34039 0.69347 0.0
H813 H 0.53977 0.37491 0.02816 0.0
H814 H 0.24439 0.55196 0.99551 0.0
H815 H 0.20798 0.56268 0.98668 0.0
H816 H 0.2005 0.55094 0.24296 0.0
H817 H 0.23656 0.53957 0.25033 0.0
H818 H 0.17452 0.52786 0.15111 0.0
H819 H 0.19724 0.59988 0.16378 0.0
H820 H 0.21671 0.63023 0.11436 0.0
H821 H 0.18537 0.62627 0.88522 0.0
H822 H 0.16591 0.59575 0.93323 0.0
H823 H 0.0883 0.59162 0.28937 0.0
H824 H 0.12036 0.59243 0.21166 0.0
H825 H 0.10064 0.53859 0.0758 0.0
H826 H 0.06867 0.53735 0.15605 0.0
H827 H 0.13915 0.59241 0.06736 0.0
H828 H 0.1374 0.50578 0.06882 0.0
H829 H 0.11742 0.47682 0.12805 0.0
H830 H 0.10842 0.51195 0.3476 0.0
H831 H 0.12822 0.54109 0.28919 0.0
C832 C 0.2351 0.55262 0.05034 0.0
C833 C 0.24305 0.545 0.1236 0.0
C834 C 0.21433 0.55858 0.04521 0.0
C835 C 0.20148 0.55729 0.11391 0.0
C836 C 0.21013 0.55185 0.18902 0.0
C837 C 0.23077 0.54573 0.19376 0.0
C838 C 0.1787 0.55896 0.10697 0.0
C839 C 0.16683 0.54193 0.13189 0.0
C840 C 0.16861 0.57707 0.07997 0.0
C841 C 0.18031 0.59541 0.0516 0.0
C842 C 0.19464 0.60538 0.10261 0.0
C843 C 0.20565 0.62264 0.07496 0.0
C844 C 0.20234 0.63014 0.9966 0.0
C845 C 0.18796 0.62043 0.94584 0.0
C846 C 0.17693 0.60317 0.97324 0.0
C847 C 0.0904 0.58045 0.24073 0.0
C848 C 0.07624 0.56416 0.22978 0.0
C849 C 0.10876 0.58096 0.19597 0.0
C850 C 0.1132 0.56525 0.13931 0.0
C851 C 0.09775 0.55065 0.12038 0.0
C852 C 0.07952 0.54988 0.16636 0.0
C853 C 0.13514 0.56172 0.11591 0.0
C854 C 0.14689 0.57818 0.08427 0.0
C855 C 0.14531 0.54318 0.13785 0.0
C856 C 0.13416 0.52551 0.17459 0.0
C857 C 0.13126 0.50719 0.12983 0.0
C858 C 0.11994 0.49081 0.16316 0.0
C859 C 0.11172 0.49253 0.24159 0.0
C860 C 0.11482 0.51063 0.28692 0.0
C861 C 0.12606 0.52708 0.25373 0.0
H862 H 0.10292 0.47985 0.2672 0.0
H863 H 0.21087 0.6435 0.97531 0.0
H864 H 0.96387 0.79242 0.33696 0.0
H865 H 0.96816 0.83025 0.3364 0.0
H866 H 0.02309 0.8234 0.1887 0.0
H867 H 0.01887 0.78572 0.191 0.0
H868 H 0.03012 0.84271 0.33658 0.0
H869 H 0.98005 0.84633 0.11573 0.0
H870 H 0.94562 0.84095 0.05491 0.0
H871 H 0.9178 0.8775 0.24472 0.0
H872 H 0.95209 0.88285 0.307 0.0
H873 H 0.06219 0.92935 0.13412 0.0
H874 H 0.0517 0.89803 0.20336 0.0
H875 H 1.00292 0.93155 0.32579 0.0
H876 H 0.01387 0.9634 0.25834 0.0
H877 H 0.98758 0.90102 0.23747 0.0
H878 H 0.03801 0.90335 0.44302 0.0
H879 H 0.07173 0.90797 0.51088 0.0
H880 H 0.09823 0.86029 0.36112 0.0
H881 H 0.06483 0.8554 0.29199 0.0
C882 C 0.97621 0.79921 0.3012 0.0
C883 C 0.99105 0.78644 0.2638 0.0
C884 C 0.97878 0.82072 0.30156 0.0
C885 C 0.99614 0.82953 0.26364 0.0
C886 C 1.00969 0.81683 0.21892 0.0
C887 C 1.00712 0.79541 0.21886 0.0
C888 C 1.00179 0.85143 0.27791 0.0
C889 C 0.02089 0.85552 0.31485 0.0
C890 C 0.98909 0.86808 0.25432 0.0
C891 C 0.96856 0.86476 0.2167 0.0
C892 C 0.96656 0.85303 0.14493 0.0
C893 C 0.94708 0.85003 0.11004 0.0
C894 C 0.92952 0.85881 0.14608 0.0
C895 C 0.93141 0.87066 0.21695 0.0
C896 C 0.95085 0.87369 0.25204 0.0
C897 C 0.04989 0.93039 0.17883 0.0
C898 C 0.03878 0.94889 0.19018 0.0
C899 C 0.04387 0.91237 0.21865 0.0
C900 C 0.02648 0.91237 0.27007 0.0
C901 C 0.01639 0.93116 0.28669 0.0
C902 C 0.02259 0.94933 0.24757 0.0
C903 C 0.01674 0.89229 0.291 0.0
C904 C 0.99668 0.88838 0.26161 0.0
C905 C 0.0285 0.87575 0.3225 0.0
C906 C 0.04886 0.87907 0.36209 0.0
C907 C 0.05104 0.89392 0.42424 0.0
C908 C 0.07006 0.89648 0.46333 0.0
C909 C 0.08707 0.88445 0.44039 0.0
C910 C 0.08506 0.86966 0.37874 0.0
C911 C 0.06606 0.86691 0.33984 0.0
H912 H 0.10179 0.88656 0.47049 0.0
H913 H 0.91445 0.85647 0.11896 0.0
H914 H 0.7327 0.0611 0.36787 0.0
H915 H 0.7021 0.08019 0.32041 0.0
H916 H 0.71133 0.05564 0.07918 0.0
H917 H 0.74073 0.03529 0.12753 0.0
H918 H 0.70398 0.10273 0.10195 0.0
H919 H 0.67926 0.03457 0.14702 0.0
H920 H 0.67008 1.00164 0.21235 0.0
H921 H 0.63241 0.03411 0.38634 0.0
H922 H 0.64177 0.06741 0.32288 0.0
H923 H 0.60525 0.09328 0.90453 0.0
H924 H 0.64055 0.09546 0.95316 0.0
H925 H 0.61908 0.12305 0.17689 0.0
H926 H 0.58354 0.12212 0.12689 0.0
H927 H 0.63333 0.07898 0.17472 0.0
H928 H 0.65485 0.14721 0.09873 0.0
H929 H 0.66006 0.17625 0.00418 0.0
H930 H 0.70031 0.13857 0.85717 0.0
H931 H 0.6951 0.10919 0.95014 0.0
C932 C 0.72802 0.05969 0.30499 0.0
C933 C 0.73902 0.04678 0.25116 0.0
C934 C 0.7107 0.07062 0.27805 0.0
C935 C 0.70458 0.06926 0.19656 0.0
C936 C 0.71594 0.05693 0.14222 0.0
C937 C 0.73276 0.04545 0.16968 0.0
C938 C 0.686 0.08026 0.16812 0.0
C939 C 0.68849 0.09762 0.11792 0.0
C940 C 0.66589 0.07343 0.189 0.0
C941 C 0.66191 0.05364 0.23209 0.0
C942 C 0.66962 0.03484 0.20087 0.0
C943 C 0.66412 0.01604 0.23683 0.0
C944 C 0.65069 0.01579 0.30355 0.0
C945 C 0.64287 0.03434 0.3348 0.0
C946 C 0.64833 0.05318 0.29904 0.0
C947 C 0.60795 0.10103 0.96198 0.0
C948 C 0.59137 0.10683 0.0131 0.0
C949 C 0.6283 0.10222 0.98978 0.0
C950 C 0.63231 0.10907 0.06903 0.0
C951 C 0.61621 0.11763 0.11557 0.0
C952 C 0.59588 0.11685 0.08717 0.0
C953 C 0.6512 0.10163 0.10957 0.0
C954 C 0.64881 0.08461 0.16127 0.0
C955 C 0.67125 0.10827 0.08727 0.0
C956 C 0.67447 0.12594 0.03128 0.0
C957 C 0.66467 0.14505 0.04588 0.0
C958 C 0.66766 0.16159 0.99263 0.0
C959 C 0.68048 0.15925 0.92465 0.0
C960 C 0.69038 0.14037 0.90986 0.0
C961 C 0.68744 0.12377 0.96292 0.0
H962 H 0.68277 0.17208 0.88349 0.0
H963 H 0.6464 1.00122 0.33117 0.0
H964 H 0.44396 0.75765 0.33434 0.0
H965 H 0.42513 0.73184 0.25137 0.0
H966 H 0.48362 0.70711 0.16809 0.0
H967 H 0.50203 0.73247 0.25107 0.0
H968 H 0.45658 0.71111 0.04548 0.0
H969 H 0.45332 0.69058 0.33596 0.0
H970 H 0.43967 0.6927 0.47564 0.0
H971 H 0.37773 0.6855 0.38688 0.0
H972 H 0.39095 0.68331 0.24631 0.0
H973 H 0.48085 0.61042 0.01607 0.0
H974 H 0.47292 0.64597 0.05025 0.0
H975 H 0.40756 0.63214 0.04676 0.0
H976 H 0.41546 0.59619 0.00694 0.0
H977 H 0.41987 0.65382 0.18477 0.0
H978 H 0.42436 0.6639 0.90345 0.0
H979 H 0.43725 0.65991 0.76306 0.0
H980 H 0.49551 0.68665 0.83174 0.0
H981 H 0.48316 0.69049 0.97287 0.0
C982 C 0.45255 0.74647 0.29846 0.0
C983 C 0.47428 0.74654 0.29927 0.0
C984 C 0.4419 0.73192 0.25112 0.0
C985 C 0.45301 0.71745 0.2043 0.0
C986 C 0.47474 0.71795 0.20448 0.0
C987 C 0.48526 0.73225 0.25204 0.0
C988 C 0.44272 0.70086 0.15744 0.0
C989 C 0.44829 0.69864 0.07539 0.0
C990 C 0.43081 0.68521 0.19541 0.0
C991 C 0.42312 0.68699 0.28024 0.0
C992 C 0.43679 0.68952 0.3459 0.0
C993 C 0.42914 0.69073 0.42535 0.0
C994 C 0.40788 0.68932 0.44009 0.0
C995 C 0.3942 0.68664 0.37539 0.0
C996 C 0.40176 0.68541 0.29582 0.0
C997 C 0.46474 0.61493 0.02064 0.0
C998 C 0.44878 0.60057 0.00712 0.0
C999 C 0.46022 0.6353 0.04075 0.0
C1000 C 0.43964 0.64178 0.04959 0.0
C1001 C 0.42354 0.62743 0.03902 0.0
C1002 C 0.42808 0.60692 0.01716 0.0
C1003 C 0.43573 0.66331 0.07579 0.0
C1004 C 0.42725 0.6666 0.15332 0.0
C1005 C 0.44502 0.67998 0.03385 0.0
C1006 C 0.45272 0.67763 0.94892 0.0
C1007 C 0.43995 0.66887 0.88879 0.0
C1008 C 0.44716 0.66665 0.809 0.0
C1009 C 0.46712 0.67317 0.78839 0.0
C1010 C 0.47997 0.68179 0.84767 0.0
C1011 C 0.47286 0.68402 0.92759 0.0
H1012 H 0.47267 0.67144 0.72658 0.0
H1013 H 0.40201 0.69025 0.50168 0.0
H1014 H 0.80158 0.53746 0.22466 0.0
H1015 H 0.83871 0.53113 0.21478 0.0
H1016 H 0.82712 0.46572 0.18506 0.0
H1017 H 0.78972 0.47238 0.19213 0.0
H1018 H 0.85108 0.47106 0.30889 0.0
H1019 H 0.85156 0.49728 0.0374 0.0
H1020 H 0.84475 0.52179 0.92637 0.0
H1021 H 0.88032 0.56854 0.04926 0.0
H1022 H 0.88722 0.54434 0.16137 0.0
H1023 H 0.94916 0.44171 0.15448 0.0
H1024 H 0.91478 0.44792 0.20705 0.0
H1025 H 0.93387 0.50779 0.29631 0.0
H1026 H 0.96904 0.50133 0.24719 0.0
H1027 H 0.9068 0.50819 0.16165 0.0
H1028 H 0.91145 0.47624 0.42018 0.0
H1029 H 0.91992 0.44844 0.51657 0.0
H1030 H 0.87541 0.40845 0.40319 0.0
H1031 H 0.86716 0.43564 0.30411 0.0
C1032 C 0.80708 0.52192 0.2122 0.0
C1033 C 0.79313 0.50537 0.20895 0.0
C1034 C 0.82827 0.51822 0.20804 0.0
C1035 C 0.8358 0.49788 0.202 0.0
C1036 C 0.82169 0.48152 0.19103 0.0
C1037 C 0.80042 0.4853 0.19371 0.0
C1038 C 0.85803 0.49353 0.21614 0.0
C1039 C 0.86329 0.47893 0.27574 0.0
C1040 C 0.87394 0.50445 0.17546 0.0
C1041 C 0.86967 0.51908 0.10835 0.0
C1042 C 0.85776 0.51285 0.04116 0.0
C1043 C 0.85394 0.52667 0.97789 0.0
C1044 C 0.86202 0.54674 0.98091 0.0
C1045 C 0.87403 0.553 0.04706 0.0
C1046 C 0.87793 0.53923 0.1104 0.0
C1047 C 0.94665 0.45571 0.1895 0.0
C1048 C 0.96178 0.47144 0.19325 0.0
C1049 C 0.92676 0.45926 0.21947 0.0
C1050 C 0.92169 0.47852 0.2535 0.0
C1051 C 0.93748 0.49292 0.269 0.0
C1052 C 0.95754 0.48924 0.24028 0.0
C1053 C 0.89985 0.48524 0.25233 0.0
C1054 C 0.89459 0.50045 0.19541 0.0
C1055 C 0.88403 0.47439 0.29365 0.0
C1056 C 0.88878 0.45803 0.35411 0.0
C1057 C 0.90361 0.46145 0.41509 0.0
C1058 C 0.90839 0.44578 0.47021 0.0
C1059 C 0.89823 0.42672 0.466 0.0
C1060 C 0.88328 0.42324 0.40645 0.0
C1061 C 0.87857 0.43878 0.35065 0.0
H1062 H 0.90192 0.41466 0.509 0.0
H1063 H 0.85904 0.55742 0.93187 0.0
H1064 H 0.04558 0.23766 0.02078 0.0
H1065 H 0.04723 0.20352 0.95346 0.0
H1066 H 0.98326 0.20938 0.8843 0.0
H1067 H 0.98165 0.24316 0.95272 0.0
H1068 H 0.02492 0.16996 1.00011 0.0
H1069 H 0.97506 0.17741 0.70806 0.0
H1070 H 0.96703 0.20337 0.60381 0.0
H1071 H 0.02429 0.23476 0.65314 0.0
H1072 H 0.03286 0.2088 0.75682 0.0
H1073 H 0.99305 0.06944 0.88308 0.0
H1074 H 0.99396 0.10611 0.92003 0.0
H1075 H 0.02521 0.11977 0.69425 0.0
H1076 H 0.02264 0.08314 0.65447 0.0
H1077 H 1.00348 0.1502 0.7215 0.0
H1078 H 0.04896 0.11451 0.90372 0.0
H1079 H 0.05894 0.08887 0.00693 0.0
H1080 H 0.01466 0.1147 0.17415 0.0
H1081 H 1.00411 0.14022 0.07154 0.0
C1082 C 0.0322 0.23202 0.98797 0.0
C1083 C 0.01359 0.24328 0.99079 0.0
C1084 C 0.03299 0.21232 0.95068 0.0
C1085 C 0.01532 0.20359 0.91372 0.0
C1086 C 0.99717 0.21558 0.91158 0.0
C1087 C 0.99631 0.23508 0.94983 0.0
C1088 C 0.0153 0.18145 0.88399 0.0
C1089 C 0.02028 0.16567 0.93902 0.0
C1090 C 1.00937 0.17562 0.80411 0.0
C1091 C 1.00442 0.19132 0.74153 0.0
C1092 C 0.98595 0.18985 0.69689 0.0
C1093 C 0.98131 0.20456 0.6377 0.0
C1094 C 0.99508 0.22078 0.62221 0.0
C1095 C 0.01357 0.22227 0.66559 0.0
C1096 C 0.0183 0.20757 0.72473 0.0
C1097 C 0.99998 0.08029 0.84097 0.0
C1098 C 1.0079 0.07325 0.76595 0.0
C1099 C 1.00076 0.10137 0.86268 0.0
C1100 C 1.01043 0.11605 0.81189 0.0
C1101 C 0.01782 0.10904 0.73562 0.0
C1102 C 0.01637 0.088 0.71265 0.0
C1103 C 0.01283 0.1385 0.83804 0.0
C1104 C 1.00827 0.15439 0.78245 0.0
C1105 C 0.01926 0.14448 0.9175 0.0
C1106 C 0.02558 0.12912 0.9794 0.0
C1107 C 0.04123 0.11461 0.96224 0.0
C1108 C 0.04698 0.10009 0.02067 0.0
C1109 C 0.03736 0.10009 0.09687 0.0
C1110 C 0.02201 0.11465 0.11493 0.0
C1111 C 0.01613 0.12913 0.05662 0.0
H1112 H 0.04185 0.08885 0.14203 0.0
H1113 H 0.99146 0.23216 0.57636 0.0
H1114 H 0.29128 0.97767 0.06532 0.0
H1115 H 0.32427 0.97988 0.99302 0.0
H1116 H 0.31311 0.0447 0.94784 0.0
H1117 H 0.28097 0.04273 0.02802 0.0
H1118 H 0.34058 0.98553 0.86233 0.0
H1119 H 0.35553 0.07268 0.92928 0.0
H1120 H 0.34743 0.09859 0.0356 0.0
H1121 H 0.34024 0.05009 0.21107 0.0
H1122 H 0.34855 0.02397 0.10587 0.0
H1123 H 0.4421 0.99686 0.69218 0.0
H1124 H 0.40499 0.99998 0.71854 0.0
H1125 H 0.41831 0.03387 0.93907 0.0
H1126 H 0.45463 0.03125 0.9116 0.0
H1127 H 0.38672 0.04473 0.9233 0.0
H1128 H 0.40019 0.96992 0.88887 0.0
H1129 H 0.41061 0.93841 0.81364 0.0
H1130 H 0.36656 0.9524 0.62701 0.0
H1131 H 0.35606 0.98402 0.70142 0.0
C1132 C 0.29585 0.99239 0.03965 0.0
C1133 C 0.28361 1.0101 0.05394 0.0
C1134 C 0.31479 0.99366 0.99757 0.0
C1135 C 0.32194 1.01262 0.96596 0.0
C1136 C 0.30869 0.02997 0.97377 0.0
C1137 C 0.28997 0.0288 0.01822 0.0
C1138 C 0.34345 0.01422 0.92848 0.0
C1139 C 0.35076 0.9984 0.87657 0.0
C1140 C 0.35725 0.0307 0.94651 0.0
C1141 C 0.35233 0.0464 0.00961 0.0
C1142 C 0.35224 0.06758 0.99058 0.0
C1143 C 0.34762 0.08229 0.05061 0.0
C1144 C 0.34322 0.07598 0.12994 0.0
C1145 C 0.34354 0.05495 0.14954 0.0
C1146 C 0.34818 0.0402 0.08979 0.0
C1147 C 0.437 1.0047 0.74701 0.0
C1148 C 0.45167 0.01305 0.8013 0.0
C1149 C 0.41551 1.00616 0.76334 0.0
C1150 C 0.40791 0.01549 0.83574 0.0
C1151 C 0.4228 0.02532 0.88545 0.0
C1152 C 0.44407 0.0239 0.86938 0.0
C1153 C 0.38505 0.01504 0.86172 0.0
C1154 C 0.37711 0.0314 0.9102 0.0
C1155 C 0.37124 0.99823 0.8453 0.0
C1156 C 0.37765 0.97942 0.80011 0.0
C1157 C 0.39288 0.96628 0.83167 0.0
C1158 C 0.39876 0.94841 0.7892 0.0
C1159 C 0.38932 0.94345 0.71535 0.0
C1160 C 0.37392 0.9563 0.68406 0.0
C1161 C 0.368 0.97418 0.72639 0.0
H1162 H 0.39388 0.92961 0.68251 0.0
H1163 H 0.33964 0.08739 0.17628 0.0
H1164 H 0.51598 0.29913 0.19358 0.0
H1165 H 0.51152 0.33083 0.1157 0.0
H1166 H 0.52778 0.29796 0.89575 0.0
H1167 H 0.53271 0.2661 0.97545 0.0
H1168 H 0.54643 0.33338 0.89097 0.0
H1169 H 0.47589 0.31611 0.94388 0.0
H1170 H 0.44558 0.30597 0.02619 0.0
H1171 H 0.45193 0.3612 0.17046 0.0
H1172 H 0.48246 0.37153 0.0897 0.0
H1173 H 0.52223 0.42751 0.67085 0.0
H1174 H 0.52324 0.39156 0.71911 0.0
H1175 H 0.50845 0.41264 0.96149 0.0
H1176 H 0.50672 0.44813 0.91347 0.0
H1177 H 0.48688 0.38047 0.93507 0.0
H1178 H 0.55932 0.39607 0.88778 0.0
H1179 H 0.5899 0.40573 0.80603 0.0
H1180 H 0.57968 0.35351 0.64863 0.0
H1181 H 0.54893 0.34363 0.72909 0.0
C1182 C 0.51835 0.29863 0.12845 0.0
C1183 C 0.52453 0.28008 0.09064 0.0
C1184 C 0.51579 0.31684 0.0835 0.0
C1185 C 0.51913 0.31713 0.99883 0.0
C1186 C 0.52504 0.2984 0.96067 0.0
C1187 C 0.52762 0.28009 0.006 0.0
C1188 C 0.51704 0.33707 0.95164 0.0
C1189 C 0.53316 0.34344 0.8994 0.0
C1190 C 0.49996 0.35063 0.96257 0.0
C1191 C 0.48152 0.34454 0.01092 0.0
C1192 C 0.47088 0.32604 0.9934 0.0
C1193 C 0.45366 0.32026 0.03977 0.0
C1194 C 0.44684 0.33292 0.10356 0.0
C1195 C 0.45722 0.35141 0.12102 0.0
C1196 C 0.47446 0.35725 0.07487 0.0
C1197 C 0.51917 0.42448 0.73442 0.0
C1198 C 0.51428 0.44093 0.78784 0.0
C1199 C 0.51988 0.40382 0.76227 0.0
C1200 C 0.51609 0.39907 0.84464 0.0
C1201 C 0.51133 0.41557 0.89769 0.0
C1202 C 0.51038 0.43605 0.86988 0.0
C1203 C 0.51659 0.37716 0.87673 0.0
C1204 C 0.50005 0.37032 0.92576 0.0
C1205 C 0.53326 0.36323 0.86248 0.0
C1206 C 0.55168 0.36925 0.81393 0.0
C1207 C 0.5635 0.38674 0.83537 0.0
C1208 C 0.5809 0.39222 0.78937 0.0
C1209 C 0.58672 0.38025 0.72211 0.0
C1210 C 0.57516 0.36276 0.70074 0.0
C1211 C 0.55776 0.35721 0.74656 0.0
H1212 H 0.60022 0.38448 0.68671 0.0
H1213 H 0.43351 0.32842 0.1394 0.0
H1214 H 0.22511 0.49556 0.16368 0.0
H1215 H 0.19064 0.49274 0.10137 0.0
H1216 H 0.21672 0.51055 0.87063 0.0
H1217 H 0.25118 0.51288 0.93313 0.0
H1218 H 0.18231 0.53519 0.92052 0.0
H1219 H 0.19978 0.46267 0.89319 0.0
H1220 H 0.21087 0.42863 0.94424 0.0
H1221 H 0.15867 0.42715 0.10646 0.0
H1222 H 0.14743 0.46131 0.05708 0.0
H1223 H 0.09105 0.52174 0.6756 0.0
H1224 H 0.12636 0.52018 0.73058 0.0
H1225 H 0.10243 0.4954 0.95474 0.0
H1226 H 0.06737 0.49691 0.90079 0.0
H1227 H 0.136 0.47394 0.90808 0.0
H1228 H 0.11896 0.54479 0.94844 0.0
H1229 H 0.10716 0.57988 0.91312 0.0
H1230 H 0.15717 0.58561 0.74191 0.0
H1231 H 0.16926 0.55051 0.77661 0.0
C1232 C 0.22357 0.49784 0.09887 0.0
C1233 C 0.24089 0.50386 0.05267 0.0
C1234 C 0.20383 0.49657 0.06345 0.0
C1235 C 0.20094 0.50154 0.98112 0.0
C1236 C 0.21844 0.50663 0.93413 0.0
C1237 C 0.2382 0.50759 0.96938 0.0
C1238 C 0.17965 0.50259 0.94525 0.0
C1239 C 0.17235 0.52169 0.91634 0.0
C1240 C 0.16619 0.48526 0.9428 0.0
C1241 C 0.17287 0.46465 0.97202 0.0
C1242 C 0.19076 0.45517 0.94022 0.0
C1243 C 0.19706 0.43583 0.96875 0.0
C1244 C 0.18551 0.42575 0.02871 0.0
C1245 C 0.16761 0.43497 0.0601 0.0
C1246 C 0.16126 0.45432 0.03181 0.0
C1247 C 0.09329 0.51596 0.73654 0.0
C1248 C 0.07618 0.50947 0.78335 0.0
C1249 C 0.11353 0.51514 0.7682 0.0
C1250 C 0.11723 0.50769 0.84723 0.0
C1251 C 0.10017 0.50112 0.89365 0.0
C1252 C 0.08001 0.50209 0.86248 0.0
C1253 C 0.13875 0.50648 0.88161 0.0
C1254 C 0.14604 0.4874 0.91099 0.0
C1255 C 0.15207 0.52392 0.88601 0.0
C1256 C 0.14482 0.54493 0.86434 0.0
C1257 C 0.12732 0.55347 0.90281 0.0
C1258 C 0.12062 0.57338 0.88307 0.0
C1259 C 0.13131 0.58491 0.82482 0.0
C1260 C 0.14883 0.57661 0.78668 0.0
C1261 C 0.15566 0.55674 0.80663 0.0
H1262 H 0.12611 0.60033 0.80959 0.0
H1263 H 0.19042 0.41078 0.05072 0.0
H1264 H 0.03776 0.78359 0.36978 0.0
H1265 H 0.04158 0.81737 0.43783 0.0
H1266 H 0.98144 0.80963 0.54813 0.0
H1267 H 0.97802 0.7757 0.48129 0.0
H1268 H 0.98418 0.84617 0.46651 0.0
H1269 H 0.02702 0.80982 0.66115 0.0
H1270 H 0.05658 0.78793 0.70033 0.0
H1271 H 0.09872 0.83141 0.59227 0.0
H1272 H 0.06938 0.85341 0.55178 0.0
H1273 H 0.97742 0.93864 0.69515 0.0
H1274 H 0.97842 0.90254 0.65046 0.0
H1275 H 0.04397 0.90807 0.60466 0.0
H1276 H 0.04318 0.94382 0.65447 0.0
H1277 H 0.03996 0.87263 0.64484 0.0
H1278 H 0.9995 0.90988 0.45309 0.0
H1279 H 0.97123 0.93219 0.40391 0.0
H1280 H 0.92632 0.88796 0.48646 0.0
H1281 H 0.95422 0.86561 0.53773 0.0
C1282 C 0.02589 0.78868 0.412 0.0
C1283 C 1.00783 0.77675 0.42199 0.0
C1284 C 0.02789 0.80818 0.44994 0.0
C1285 C 1.01171 0.81636 0.49792 0.0
C1286 C 0.99417 0.80386 0.51148 0.0
C1287 C 0.99235 0.78426 0.47453 0.0
C1288 C 1.01222 0.83837 0.52889 0.0
C1289 C 0.99621 0.85189 0.50656 0.0
C1290 C 0.02843 0.84632 0.57768 0.0
C1291 C 0.04602 0.83316 0.60281 0.0
C1292 C 0.04259 0.81463 0.64531 0.0
C1293 C 0.0593 0.80222 0.66786 0.0
C1294 C 0.07952 0.80825 0.64865 0.0
C1295 C 0.08306 0.82674 0.60706 0.0
C1296 C 0.0664 0.83919 0.58438 0.0
C1297 C 0.99209 0.93213 0.67579 0.0
C1298 C 1.01019 0.94428 0.67796 0.0
C1299 C 0.99263 0.91142 0.64892 0.0
C1300 C 1.01112 0.9024 0.61962 0.0
C1301 C 0.02935 0.91442 0.62466 0.0
C1302 C 0.02892 0.93498 0.65371 0.0
C1303 C 1.0115 0.88062 0.58444 0.0
C1304 C 0.02781 0.86712 0.60497 0.0
C1305 C 0.99579 0.87282 0.53194 0.0
C1306 C 0.979 0.88615 0.49993 0.0
C1307 C 0.9836 0.90495 0.46104 0.0
C1308 C 0.96765 0.91761 0.43286 0.0
C1309 C 0.94703 0.91152 0.44222 0.0
C1310 C 0.9423 0.89271 0.47953 0.0
C1311 C 0.95818 0.88004 0.50813 0.0
H1312 H 0.93471 0.92133 0.42025 0.0
H1313 H 0.09243 0.79861 0.66613 0.0
H1314 H 0.71693 1.01191 0.29906 0.0
H1315 H 0.6864 1.01095 0.38801 0.0
H1316 H 0.72501 0.02094 0.59658 0.0
H1317 H 0.75565 0.02327 0.50717 0.0
H1318 H 0.6865 0.98425 0.57551 0.0
H1319 H 0.70824 0.05508 0.59608 0.0
H1320 H 0.71958 0.08904 0.54544 0.0
H1321 H 0.66178 0.09634 0.42121 0.0
H1322 H 0.65029 0.0622 0.47018 0.0
H1323 H 0.58921 0.03825 0.79101 0.0
H1324 H 0.62515 0.04004 0.74164 0.0
H1325 H 0.61441 0.98627 0.59094 0.0
H1326 H 0.57924 0.98382 0.64275 0.0
H1327 H 0.64287 0.04694 0.60768 0.0
H1328 H 0.656 0.95879 0.54845 0.0
H1329 H 0.64605 0.92536 0.60918 0.0
H1330 H 0.63645 0.95521 0.83996 0.0
H1331 H 0.6466 0.98877 0.78093 0.0
C1332 C 0.71893 0.0141 0.3638 0.0
C1333 C 0.73871 0.01811 0.3958 0.0
C1334 C 0.70142 0.01361 0.41446 0.0
C1335 C 0.70319 0.01665 0.49856 0.0
C1336 C 0.72311 0.01913 0.5316 0.0
C1337 C 0.74066 0.02018 0.48062 0.0
C1338 C 0.68412 0.01678 0.55076 0.0
C1339 C 0.67699 0.99797 0.58284 0.0
C1340 C 0.6719 0.03481 0.56239 0.0
C1341 C 0.67883 0.05546 0.53317 0.0
C1342 C 0.69822 0.06354 0.5557 0.0
C1343 C 0.70458 0.083 0.52821 0.0
C1344 C 0.6915 0.09476 0.47941 0.0
C1345 C 0.67199 0.08714 0.45846 0.0
C1346 C 0.6656 0.06768 0.48575 0.0
C1347 C 0.59464 0.02664 0.74825 0.0
C1348 C 0.58128 1.0107 0.72209 0.0
C1349 C 0.61523 0.02772 0.7196 0.0
C1350 C 0.62297 0.01302 0.66344 0.0
C1351 C 0.60939 0.99742 0.63624 0.0
C1352 C 0.58905 0.99611 0.66582 0.0
C1353 C 0.64483 0.01422 0.63078 0.0
C1354 C 0.65242 0.03323 0.60147 0.0
C1355 C 0.65779 0.9965 0.62375 0.0
C1356 C 0.65192 0.97632 0.66004 0.0
C1357 C 0.65188 0.9582 0.61226 0.0
C1358 C 0.64617 0.93924 0.64637 0.0
C1359 C 0.64057 0.93817 0.72832 0.0
C1360 C 0.64073 0.95607 0.77642 0.0
C1361 C 0.64644 0.97507 0.74265 0.0
H1362 H 0.63614 0.92348 0.75457 0.0
H1363 H 0.69644 0.10983 0.45823 0.0
H1364 H 0.53671 0.73662 0.41744 0.0
H1365 H 0.54026 0.70157 0.47403 0.0
H1366 H 0.47449 0.69887 0.51436 0.0
H1367 H 0.47096 0.73423 0.46253 0.0
H1368 H 0.51895 0.68424 0.64578 0.0
H1369 H 0.46823 0.64427 0.4024 0.0
H1370 H 0.45877 0.6474 0.25813 0.0
H1371 H 0.51472 0.6813 0.21128 0.0
H1372 H 0.52506 0.67742 0.35407 0.0
H1373 H 0.47866 0.57158 0.66598 0.0
H1374 H 0.47731 0.60795 0.62334 0.0
H1375 H 0.54391 0.61011 0.61475 0.0
H1376 H 0.54539 0.57346 0.65416 0.0
H1377 H 0.49956 0.62504 0.46839 0.0
H1378 H 0.54969 0.6639 0.71851 0.0
H1379 H 0.55746 0.65982 0.86419 0.0
H1380 H 0.49976 0.62796 0.89945 0.0
H1381 H 0.49152 0.63211 0.75471 0.0
C1382 C 0.52308 0.72886 0.44055 0.0
C1383 C 0.50354 0.73845 0.43564 0.0
C1384 C 0.52509 0.70866 0.47213 0.0
C1385 C 0.50756 0.69734 0.49741 0.0
C1386 C 0.48817 0.70706 0.49414 0.0
C1387 C 0.48621 0.72732 0.46442 0.0
C1388 C 0.5092 0.6753 0.52579 0.0
C1389 C 0.51507 0.67129 0.60643 0.0
C1390 C 0.50336 0.6583 0.47579 0.0
C1391 C 0.49715 0.66107 0.38981 0.0
C1392 C 0.47855 0.65237 0.36134 0.0
C1393 C 0.4731 0.65413 0.27958 0.0
C1394 C 0.48602 0.66475 0.22583 0.0
C1395 C 0.50462 0.67327 0.25326 0.0
C1396 C 0.51028 0.67131 0.33468 0.0
C1397 C 0.49305 0.57977 0.65525 0.0
C1398 C 0.51215 0.56946 0.66341 0.0
C1399 C 0.49224 0.6006 0.63063 0.0
C1400 C 0.5105 0.61191 0.61605 0.0
C1401 C 0.52959 0.60182 0.62589 0.0
C1402 C 0.53041 0.58081 0.64833 0.0
C1403 C 0.50959 0.63398 0.58774 0.0
C1404 C 0.50365 0.63799 0.50741 0.0
C1405 C 0.51515 0.65095 0.63819 0.0
C1406 C 0.52019 0.64798 0.7252 0.0
C1407 C 0.53869 0.65597 0.75732 0.0
C1408 C 0.54316 0.65367 0.83984 0.0
C1409 C 0.52917 0.64352 0.89099 0.0
C1410 C 0.51068 0.63564 0.85972 0.0
C1411 C 0.50616 0.63787 0.7773 0.0
H1412 H 0.53261 0.64183 0.9549 0.0
H1413 H 0.48163 0.66647 0.16297 0.0
H1414 H 0.78148 0.54388 0.41177 0.0
H1415 H 0.81383 0.54611 0.48936 0.0
H1416 H 0.82651 0.48202 0.43279 0.0
H1417 H 0.79326 0.47948 0.36339 0.0
H1418 H 0.8403 0.48771 0.57063 0.0
H1419 H 0.86326 0.53397 0.32334 0.0
H1420 H 0.85687 0.56448 0.23616 0.0
H1421 H 0.83983 0.60033 0.44619 0.0
H1422 H 0.84626 0.57012 0.53403 0.0
H1423 H 0.94894 0.48058 0.61788 0.0
H1424 H 0.91297 0.48149 0.57426 0.0
H1425 H 0.91062 0.54707 0.62397 0.0
H1426 H 0.94715 0.5464 0.66279 0.0
H1427 H 0.89039 0.54317 0.50241 0.0
H1428 H 0.88495 0.50296 0.74517 0.0
H1429 H 0.8934 0.4747 0.83969 0.0
H1430 H 0.87657 0.42967 0.65862 0.0
H1431 H 0.86806 0.45766 0.56304 0.0
C1432 C 0.7909 0.53015 0.41868 0.0
C1433 C 0.78474 0.51147 0.38179 0.0
C1434 C 0.80988 0.53157 0.4607 0.0
C1435 C 0.82356 0.51453 0.46449 0.0
C1436 C 0.8167 0.4956 0.431 0.0
C1437 C 0.79755 0.49407 0.39137 0.0
C1438 C 0.84481 0.51586 0.50317 0.0
C1439 C 0.85124 0.49982 0.555 0.0
C1440 C 0.85925 0.53197 0.48699 0.0
C1441 C 0.85437 0.54967 0.43428 0.0
C1442 C 0.85772 0.54828 0.35028 0.0
C1443 C 0.8543 0.56553 0.30101 0.0
C1444 C 0.84767 0.58421 0.33546 0.0
C1445 C 0.84474 0.58579 0.41941 0.0
C1446 C 0.84832 0.56865 0.4689 0.0
C1447 C 0.94075 0.49521 0.61982 0.0
C1448 C 0.95104 0.51341 0.64417 0.0
C1449 C 0.91995 0.4957 0.5952 0.0
C1450 C 0.90844 0.51423 0.59659 0.0
C1451 C 0.91878 0.53244 0.62158 0.0
C1452 C 0.93978 0.53207 0.64423 0.0
C1453 C 0.88607 0.51481 0.56897 0.0
C1454 C 0.87947 0.53112 0.51894 0.0
C1455 C 0.87132 0.49923 0.58885 0.0
C1456 C 0.87605 0.4824 0.64677 0.0
C1457 C 0.88311 0.48703 0.7255 0.0
C1458 C 0.88789 0.47106 0.77927 0.0
C1459 C 0.88558 0.4504 0.75512 0.0
C1460 C 0.87836 0.44567 0.67728 0.0
C1461 C 0.8735 0.46158 0.62337 0.0
H1462 H 0.88934 0.43807 0.79677 0.0
H1463 H 0.84499 0.59752 0.2972 0.0
loop_
_geom_bond_atom_site_label_1
_geom_bond_atom_site_label_2
_geom_bond_distance
_geom_bond_site_symmetry_2
_ccdc_geom_bond_type
C0 N1 1.317 . S
C0 N2 1.348 . S
C0 C3 1.485 . S
N1 C0 1.317 . S
N1 N5 1.370 . S
N2 C0 1.348 . S
N2 C4 1.346 . S
C3 C0 1.485 . S
C3 H7 0.960 . S
C3 H8 0.961 . S
C3 H9 0.960 . S
C4 N2 1.346 . S
C4 N5 1.307 . S
C4 C6 1.486 . S
N5 N1 1.370 . S
N5 C4 1.307 . S
C6 C4 1.486 . S
C6 H10 0.960 . S
C6 H11 0.960 . S
C6 H12 0.959 . S
H7 C3 0.960 . S
H8 C3 0.961 . S
H9 C3 0.960 . S
H10 C6 0.960 . S
H11 C6 0.960 . S
H12 C6 0.959 . S
C13 N14 1.317 . S
C13 N15 1.350 . S
C13 C16 1.485 . S
N14 C13 1.317 . S
N14 N18 1.371 . S
N15 C13 1.350 . S
N15 C17 1.345 1_655 S
C16 C13 1.485 . S
C16 H20 0.960 1_655 S
C16 H21 0.961 . S
C16 H22 0.960 . S
C17 N15 1.345 1_455 S
C17 N18 1.307 1_455 S
C17 C19 1.486 . S
N18 N14 1.371 . S
N18 C17 1.307 1_655 S
C19 C17 1.486 . S
C19 H23 0.925 1_455 S
C19 H24 0.989 . S
C19 H25 0.967 . S
H20 C16 0.960 1_455 S
H21 C16 0.961 . S
H22 C16 0.960 . S
H23 C19 0.925 1_655 S
H24 C19 0.989 . S
H25 C19 0.967 . S
C26 N27 1.317 . S
C26 N28 1.350 . S
C26 C29 1.485 . S
N27 C26 1.317 . S
N27 N31 1.371 . S
N28 C26 1.350 . S
N28 C30 1.345 1_565 S
C29 C26 1.485 . S
C29 H33 0.960 1_565 S
C29 H34 0.961 . S
C29 H35 0.960 . S
C30 N28 1.345 1_545 S
C30 N31 1.307 1_545 S
C30 C32 1.486 . S
N31 N27 1.371 . S
N31 C30 1.307 1_565 S
C32 C30 1.486 . S
C32 H36 0.925 1_545 S
C32 H37 0.989 . S
C32 H38 0.967 . S
H33 C29 0.960 1_545 S
H34 C29 0.961 . S
H35 C29 0.960 . S
H36 C32 0.925 1_565 S
H37 C32 0.989 . S
H38 C32 0.967 . S
C39 N40 1.317 . S
C39 N41 1.348 . S
C39 C42 1.485 . S
N40 C39 1.317 . S
N40 N44 1.370 . S
N41 C39 1.348 . S
N41 C43 1.346 . S
C42 C39 1.485 . S
C42 H46 0.960 . S
C42 H47 0.961 . S
C42 H48 0.960 . S
C43 N41 1.346 . S
C43 N44 1.307 . S
C43 C45 1.486 . S
N44 N40 1.370 . S
N44 C43 1.307 . S
C45 C43 1.486 . S
C45 H49 0.960 . S
C45 H50 0.960 . S
C45 H51 0.959 . S
H46 C42 0.960 . S
H47 C42 0.961 . S
H48 C42 0.960 . S
H49 C45 0.960 . S
H50 C45 0.960 . S
H51 C45 0.959 . S
C52 N53 1.317 1_556 S
C52 N54 1.348 1_556 S
C52 C55 1.485 . S
N53 C52 1.317 1_554 S
N53 N57 1.370 . S
N54 C52 1.348 1_554 S
N54 C56 1.346 . S
C55 C52 1.485 . S
C55 H59 0.960 . S
C55 H60 0.961 . S
C55 H61 0.960 . S
C56 N54 1.346 . S
C56 N57 1.307 . S
C56 C58 1.486 . S
N57 N53 1.370 . S
N57 C56 1.307 . S
C58 C56 1.486 . S
C58 H62 0.960 . S
C58 H63 0.960 . S
C58 H64 0.959 . S
H59 C55 0.960 . S
H60 C55 0.961 . S
H61 C55 0.960 . S
H62 C58 0.960 . S
H63 C58 0.960 . S
H64 C58 0.959 . S
C65 N66 1.317 1_556 S
C65 N67 1.350 1_556 S
C65 C68 1.485 . S
N66 C65 1.317 1_554 S
N66 N70 1.370 . S
N67 C65 1.350 1_554 S
N67 C69 1.345 1_655 S
C68 C65 1.485 . S
C68 H72 0.960 1_655 S
C68 H73 0.961 . S
C68 H74 0.960 . S
C69 N67 1.345 1_455 S
C69 N70 1.307 1_455 S
C69 C71 1.485 . S
N70 N66 1.370 . S
N70 C69 1.307 1_655 S
C71 C69 1.485 . S
C71 H75 0.913 1_455 S
C71 H76 0.999 . S
C71 H77 0.970 . S
H72 C68 0.960 1_455 S
H73 C68 0.961 . S
H74 C68 0.960 . S
H75 C71 0.913 1_655 S
H76 C71 0.999 . S
H77 C71 0.970 . S
C78 N79 1.319 1_556 S
C78 N80 1.350 1_556 S
C78 C81 1.485 . S
N79 C78 1.319 1_554 S
N79 N83 1.369 . S
N80 C78 1.350 1_554 S
N80 C82 1.345 1_565 S
C81 C78 1.485 . S
C81 H85 0.960 1_565 S
C81 H86 0.961 . S
C81 H87 0.960 . S
C82 N80 1.345 1_545 S
C82 N83 1.307 1_545 S
C82 C84 1.485 . S
N83 N79 1.369 . S
N83 C82 1.307 1_565 S
C84 C82 1.485 . S
C84 H88 0.913 1_545 S
C84 H89 0.999 . S
C84 H90 0.970 . S
H85 C81 0.960 1_545 S
H86 C81 0.961 . S
H87 C81 0.960 . S
H88 C84 0.913 1_565 S
H89 C84 0.999 . S
H90 C84 0.970 . S
C91 N92 1.316 1_556 S
C91 N93 1.348 1_556 S
C91 C94 1.485 . S
N92 C91 1.316 1_554 S
N92 N96 1.383 . S
N93 C91 1.348 1_554 S
N93 C95 1.346 . S
C94 C91 1.485 . S
C94 H98 0.960 . S
C94 H99 0.961 . S
C94 H100 0.960 . S
C95 N93 1.346 . S
C95 N96 1.307 . S
C95 C97 1.486 . S
N96 N92 1.383 . S
N96 C95 1.307 . S
C97 C95 1.486 . S
C97 H101 0.960 . S
C97 H102 0.960 . S
C97 H103 0.959 . S
H98 C94 0.960 . S
H99 C94 0.961 . S
H100 C94 0.960 . S
H101 C97 0.960 . S
H102 C97 0.960 . S
H103 C97 0.959 . S
Tb104 C114 2.825 . S
Tb104 O115 2.347 1_455 S
Tb104 O118 2.366 . S
Tb104 O123 2.418 . S
Tb104 O124 2.384 1_565 S
Tb104 O127 2.479 . S
Tb104 O128 2.471 . S
Eu105 O116 2.418 . S
Eu105 O117 2.384 1_545 S
Eu105 O120 2.479 . S
Eu105 O121 2.471 . S
Eu105 O122 2.347 1_655 S
Eu105 O125 2.366 . S
Eu105 C135 2.825 . S
C106 O122 1.259 1_565 S
C106 O123 1.265 . S
C107 O124 1.255 . S
C107 O125 1.265 1_455 S
C108 C110 1.380 . S
C108 C111 1.374 . S
C108 C114 1.507 . S
C109 C110 1.384 . S
C109 C113 1.387 1_556 S
C109 H136 0.930 1_556 S
C110 C108 1.380 . S
C110 C109 1.384 . S
C110 H137 0.931 . S
C111 C108 1.374 . S
C111 C112 1.390 . S
C111 H138 0.930 1_455 S
C112 C111 1.390 . S
C112 C113 1.391 1_556 S
C112 H139 0.930 1_456 S
C113 C109 1.387 1_554 S
C113 C112 1.391 1_554 S
C114 Tb104 2.825 . S
C114 C108 1.507 . S
C114 O127 1.238 . S
C114 O128 1.247 . S
O115 Tb104 2.347 1_655 S
O115 C119 1.259 1_565 S
O116 Eu105 2.418 . S
O116 C119 1.265 . S
O117 Eu105 2.384 1_565 S
O117 C126 1.255 . S
O118 Tb104 2.366 . S
O118 C126 1.265 1_455 S
C119 O115 1.259 1_545 S
C119 O116 1.265 . S
O120 Eu105 2.479 . S
O120 C135 1.238 . S
O121 Eu105 2.471 . S
O121 C135 1.247 . S
O122 Eu105 2.347 1_455 S
O122 C106 1.259 1_545 S
O123 Tb104 2.418 . S
O123 C106 1.265 . S
O124 Tb104 2.384 1_545 S
O124 C107 1.255 . S
O125 Eu105 2.366 . S
O125 C107 1.265 1_655 S
C126 O117 1.255 . S
C126 O118 1.265 1_655 S
O127 Tb104 2.479 . S
O127 C114 1.238 . S
O128 Tb104 2.471 . S
O128 C114 1.247 . S
C129 C132 1.380 . S
C129 C133 1.374 . S
C129 C135 1.507 . S
C130 C131 1.387 . S
C130 C134 1.391 . S
C131 C130 1.387 . S
C131 C132 1.384 . S
C131 H140 0.930 . S
C132 C129 1.380 . S
C132 C131 1.384 . S
C132 H141 0.931 . S
C133 C129 1.374 . S
C133 C134 1.390 . S
C133 H142 0.930 1_655 S
C134 C130 1.391 . S
C134 C133 1.390 . S
C134 H143 0.930 1_655 S
C135 Eu105 2.825 . S
C135 O120 1.238 . S
C135 O121 1.247 . S
C135 C129 1.507 . S
H136 C109 0.930 1_554 S
H137 C110 0.931 . S
H138 C111 0.930 1_655 S
H139 C112 0.930 1_654 S
H140 C131 0.930 . S
H141 C132 0.931 . S
H142 C133 0.930 1_455 S
H143 C134 0.930 1_455 S
Tb144 C154 2.825 . S
Tb144 O155 2.347 1_545 S
Tb144 O158 2.366 . S
Tb144 O163 2.418 . S
Tb144 O164 2.384 . S
Tb144 O167 2.479 . S
Tb144 O168 2.471 . S
Eu145 O156 2.418 . S
Eu145 O157 2.384 . S
Eu145 O160 2.479 . S
Eu145 O161 2.471 . S
Eu145 O162 2.347 1_565 S
Eu145 O165 2.366 . S
Eu145 C175 2.825 . S
C146 O162 1.259 . S
C146 O163 1.265 . S
C147 O164 1.255 . S
C147 O165 1.265 1_545 S
C148 C150 1.380 . S
C148 C151 1.374 . S
C148 C154 1.507 . S
C149 C150 1.384 . S
C149 C153 1.387 1_556 S
C149 H176 0.930 1_556 S
C150 C148 1.380 . S
C150 C149 1.384 . S
C150 H177 0.931 . S
C151 C148 1.374 . S
C151 C152 1.390 . S
C151 H178 0.930 1_545 S
C152 C151 1.390 . S
C152 C153 1.391 1_556 S
C152 H179 0.930 1_546 S
C153 C149 1.387 1_554 S
C153 C152 1.391 1_554 S
C154 Tb144 2.825 . S
C154 C148 1.507 . S
C154 O167 1.238 . S
C154 O168 1.247 . S
O155 Tb144 2.347 1_565 S
O155 C159 1.259 . S
O156 Eu145 2.418 . S
O156 C159 1.265 . S
O157 Eu145 2.384 . S
O157 C166 1.255 . S
O158 Tb144 2.366 . S
O158 C166 1.265 1_545 S
C159 O155 1.259 . S
C159 O156 1.265 . S
O160 Eu145 2.479 . S
O160 C175 1.238 . S
O161 Eu145 2.471 . S
O161 C175 1.247 . S
O162 Eu145 2.347 1_545 S
O162 C146 1.259 . S
O163 Tb144 2.418 . S
O163 C146 1.265 . S
O164 Tb144 2.384 . S
O164 C147 1.255 . S
O165 Eu145 2.366 . S
O165 C147 1.265 1_565 S
C166 O157 1.255 . S
C166 O158 1.265 1_565 S
O167 Tb144 2.479 . S
O167 C154 1.238 . S
O168 Tb144 2.471 . S
O168 C154 1.247 . S
C169 C172 1.380 . S
C169 C173 1.374 . S
C169 C175 1.507 . S
C170 C171 1.387 . S
C170 C174 1.391 . S
C171 C170 1.387 . S
C171 C172 1.384 . S
C171 H180 0.930 . S
C172 C169 1.380 . S
C172 C171 1.384 . S
C172 H181 0.931 . S
C173 C169 1.374 . S
C173 C174 1.390 . S
C173 H182 0.930 1_565 S
C174 C170 1.391 . S
C174 C173 1.390 . S
C174 H183 0.930 1_565 S
C175 Eu145 2.825 . S
C175 O160 1.238 . S
C175 O161 1.247 . S
C175 C169 1.507 . S
H176 C149 0.930 1_554 S
H177 C150 0.931 . S
H178 C151 0.930 1_565 S
H179 C152 0.930 1_564 S
H180 C171 0.930 . S
H181 C172 0.931 . S
H182 C173 0.930 1_545 S
H183 C174 0.930 1_545 S
Tb184 C194 2.825 . S
Tb184 O195 2.347 . S
Tb184 O198 2.366 . S
Tb184 O203 2.418 . S
Tb184 O204 2.384 . S
Tb184 O207 2.479 . S
Tb184 O208 2.471 . S
Eu185 O196 2.418 . S
Eu185 O197 2.384 . S
Eu185 O200 2.479 . S
Eu185 O201 2.471 . S
Eu185 O202 2.347 . S
Eu185 O205 2.366 . S
Eu185 C215 2.825 . S
C186 O202 1.259 . S
C186 O203 1.265 . S
C187 O204 1.255 . S
C187 O205 1.265 . S
C188 C190 1.380 . S
C188 C191 1.374 . S
C188 C194 1.507 . S
C189 C190 1.384 . S
C189 C193 1.387 1_556 S
C189 H216 0.930 1_556 S
C190 C188 1.380 . S
C190 C189 1.384 . S
C190 H217 0.931 . S
C191 C188 1.374 . S
C191 C192 1.390 . S
C191 H218 0.930 . S
C192 C191 1.390 . S
C192 C193 1.391 1_556 S
C192 H219 0.930 1_556 S
C193 C189 1.387 1_554 S
C193 C192 1.391 1_554 S
C194 Tb184 2.825 . S
C194 C188 1.507 . S
C194 O207 1.238 . S
C194 O208 1.247 . S
O195 Tb184 2.347 . S
O195 C199 1.259 . S
O196 Eu185 2.418 . S
O196 C199 1.265 . S
O197 Eu185 2.384 . S
O197 C206 1.255 . S
O198 Tb184 2.366 . S
O198 C206 1.265 . S
C199 O195 1.259 . S
C199 O196 1.265 . S
O200 Eu185 2.479 . S
O200 C215 1.238 . S
O201 Eu185 2.471 . S
O201 C215 1.247 . S
O202 Eu185 2.347 . S
O202 C186 1.259 . S
O203 Tb184 2.418 . S
O203 C186 1.265 . S
O204 Tb184 2.384 . S
O204 C187 1.255 . S
O205 Eu185 2.366 . S
O205 C187 1.265 . S
C206 O197 1.255 . S
C206 O198 1.265 . S
O207 Tb184 2.479 . S
O207 C194 1.238 . S
O208 Tb184 2.471 . S
O208 C194 1.247 . S
C209 C212 1.380 . S
C209 C213 1.374 . S
C209 C215 1.507 . S
C210 C211 1.387 . S
C210 C214 1.391 . S
C211 C210 1.387 . S
C211 C212 1.384 . S
C211 H220 0.930 . S
C212 C209 1.380 . S
C212 C211 1.384 . S
C212 H221 0.931 . S
C213 C209 1.374 . S
C213 C214 1.390 . S
C213 H222 0.930 . S
C214 C210 1.391 . S
C214 C213 1.390 . S
C214 H223 0.930 . S
C215 Eu185 2.825 . S
C215 O200 1.238 . S
C215 O201 1.247 . S
C215 C209 1.507 . S
H216 C189 0.930 1_554 S
H217 C190 0.931 . S
H218 C191 0.930 . S
H219 C192 0.930 1_554 S
H220 C211 0.930 . S
H221 C212 0.931 . S
H222 C213 0.930 . S
H223 C214 0.930 . S
Tb224 C234 2.825 . S
Tb224 O235 2.347 . S
Tb224 O238 2.366 . S
Tb224 O243 2.418 . S
Tb224 O244 2.384 1_655 S
Tb224 O247 2.479 . S
Tb224 O248 2.471 . S
Eu225 O236 2.418 . S
Eu225 O237 2.384 1_455 S
Eu225 O240 2.479 . S
Eu225 O241 2.471 . S
Eu225 O242 2.347 . S
Eu225 O245 2.366 . S
Eu225 C255 2.825 . S
C226 O242 1.259 1_655 S
C226 O243 1.265 . S
C227 O244 1.255 . S
C227 O245 1.265 . S
C228 C230 1.380 . S
C228 C231 1.374 . S
C228 C234 1.507 . S
C229 C230 1.384 . S
C229 C233 1.387 1_556 S
C229 H256 0.930 1_556 S
C230 C228 1.380 . S
C230 C229 1.384 . S
C230 H257 0.931 . S
C231 C228 1.374 . S
C231 C232 1.390 . S
C231 H258 0.930 . S
C232 C231 1.390 . S
C232 C233 1.391 1_556 S
C232 H259 0.930 1_556 S
C233 C229 1.387 1_554 S
C233 C232 1.391 1_554 S
C234 Tb224 2.825 . S
C234 C228 1.507 . S
C234 O247 1.238 . S
C234 O248 1.247 . S
O235 Tb224 2.347 . S
O235 C239 1.259 1_655 S
O236 Eu225 2.418 . S
O236 C239 1.265 . S
O237 Eu225 2.384 1_655 S
O237 C246 1.255 . S
O238 Tb224 2.366 . S
O238 C246 1.265 . S
C239 O235 1.259 1_455 S
C239 O236 1.265 . S
O240 Eu225 2.479 . S
O240 C255 1.238 . S
O241 Eu225 2.471 . S
O241 C255 1.247 . S
O242 Eu225 2.347 . S
O242 C226 1.259 1_455 S
O243 Tb224 2.418 . S
O243 C226 1.265 . S
O244 Tb224 2.384 1_455 S
O244 C227 1.255 . S
O245 Eu225 2.366 . S
O245 C227 1.265 . S
C246 O237 1.255 . S
C246 O238 1.265 . S
O247 Tb224 2.479 . S
O247 C234 1.238 . S
O248 Tb224 2.471 . S
O248 C234 1.247 . S
C249 C252 1.380 . S
C249 C253 1.374 . S
C249 C255 1.507 . S
C250 C251 1.387 . S
C250 C254 1.391 . S
C251 C250 1.387 . S
C251 C252 1.384 . S
C251 H260 0.930 . S
C252 C249 1.380 . S
C252 C251 1.384 . S
C252 H261 0.931 . S
C253 C249 1.374 . S
C253 C254 1.390 . S
C253 H262 0.930 . S
C254 C250 1.391 . S
C254 C253 1.390 . S
C254 H263 0.930 . S
C255 Eu225 2.825 . S
C255 O240 1.238 . S
C255 O241 1.247 . S
C255 C249 1.507 . S
H256 C229 0.930 1_554 S
H257 C230 0.931 . S
H258 C231 0.930 . S
H259 C232 0.930 1_554 S
H260 C251 0.930 . S
H261 C252 0.931 . S
H262 C253 0.930 . S
H263 C254 0.930 . S
H264 C282 0.951 . S
H265 C284 0.951 . S
H266 C286 0.950 . S
H267 C287 0.950 . S
H268 C289 0.950 . S
H269 C292 0.950 . S
H270 C293 0.950 . S
H271 C295 0.950 . S
H272 C296 0.950 . S
H273 C297 0.951 . S
H274 C299 0.951 . S
H275 C301 0.950 . S
H276 C302 0.950 . S
H277 C304 0.950 . S
H278 C307 0.950 . S
H279 C308 0.950 . S
H280 C310 0.950 . S
H281 C311 0.950 . S
C282 H264 0.951 . S
C282 C283 1.367 . S
C282 C284 1.388 . S
C283 C282 1.367 . S
C283 C287 1.383 1_545 S
C284 H265 0.951 . S
C284 C282 1.388 . S
C284 C285 1.382 . S
C285 C284 1.382 . S
C285 C286 1.397 1_545 S
C285 C288 1.498 1_545 S
C286 H266 0.950 . S
C286 C285 1.397 1_565 S
C286 C287 1.374 . S
C287 H267 0.950 . S
C287 C283 1.383 1_565 S
C287 C286 1.374 . S
C288 C285 1.498 1_565 S
C288 C289 1.375 . S
C288 C290 1.388 1_565 S
C289 H268 0.950 . S
C289 C288 1.375 . S
C289 C305 1.377 . S
C290 C288 1.388 1_545 S
C290 C291 1.524 . S
C290 C304 1.377 . S
C291 C290 1.524 . S
C291 C292 1.397 . S
C291 C296 1.363 . S
C292 H269 0.950 . S
C292 C291 1.397 . S
C292 C293 1.334 . S
C293 H270 0.950 . S
C293 C292 1.334 . S
C293 C294 1.287 . S
C294 C293 1.287 . S
C294 C295 1.524 . S
C294 H313 0.913 . S
C295 H271 0.950 . S
C295 C294 1.524 . S
C295 C296 1.415 . S
C296 H272 0.950 . S
C296 C291 1.363 . S
C296 C295 1.415 . S
C297 H273 0.951 . S
C297 C298 1.342 1_565 S
C297 C299 1.388 . S
C298 C297 1.342 1_545 S
C298 C302 1.409 . S
C299 H274 0.951 . S
C299 C297 1.388 . S
C299 C300 1.357 1_565 S
C300 C299 1.357 1_545 S
C300 C301 1.423 . S
C300 C303 1.498 . S
C301 H275 0.950 . S
C301 C300 1.423 . S
C301 C302 1.374 . S
C302 H276 0.950 . S
C302 C298 1.409 . S
C302 C301 1.374 . S
C303 C300 1.498 . S
C303 C304 1.405 . S
C303 C305 1.358 1_545 S
C304 H277 0.950 . S
C304 C290 1.377 . S
C304 C303 1.405 . S
C305 C289 1.377 . S
C305 C303 1.358 1_565 S
C305 C306 1.524 . S
C306 C305 1.524 . S
C306 C307 1.397 . S
C306 C311 1.363 . S
C307 H278 0.950 . S
C307 C306 1.397 . S
C307 C308 1.334 . S
C308 H279 0.950 . S
C308 C307 1.334 . S
C308 C309 1.287 . S
C309 C308 1.287 . S
C309 C310 1.524 . S
C309 H312 0.999 . S
C310 H280 0.950 . S
C310 C309 1.524 . S
C310 C311 1.415 . S
C311 H281 0.950 . S
C311 C306 1.363 . S
C311 C310 1.415 . S
H312 C309 0.999 . S
H313 C294 0.913 . S
H314 C332 0.951 . S
H315 C334 0.951 . S
H316 C336 0.950 . S
H317 C337 0.950 . S
H318 C339 0.950 . S
H319 C342 0.950 . S
H320 C343 0.950 . S
H321 C345 0.950 . S
H322 C346 0.950 . S
H323 C347 0.951 . S
H324 C349 0.951 . S
H325 C351 0.950 . S
H326 C352 0.950 . S
H327 C354 0.950 . S
H328 C357 0.950 . S
H329 C358 0.950 . S
H330 C360 0.950 . S
H331 C361 0.950 . S
C332 H314 0.951 . S
C332 C333 1.366 . S
C332 C334 1.388 . S
C333 C332 1.366 . S
C333 C337 1.385 . S
C334 H315 0.951 . S
C334 C332 1.388 . S
C334 C335 1.366 . S
C335 C334 1.366 . S
C335 C336 1.414 . S
C335 C338 1.499 . S
C336 H316 0.950 . S
C336 C335 1.414 . S
C336 C337 1.374 . S
C337 H317 0.950 . S
C337 C333 1.385 . S
C337 C336 1.374 . S
C338 C335 1.499 . S
C338 C339 1.373 . S
C338 C340 1.389 . S
C339 H318 0.950 . S
C339 C338 1.373 . S
C339 C355 1.377 . S
C340 C338 1.389 . S
C340 C341 1.524 . S
C340 C354 1.377 . S
C341 C340 1.524 . S
C341 C342 1.397 . S
C341 C346 1.363 . S
C342 H319 0.950 . S
C342 C341 1.397 . S
C342 C343 1.334 . S
C343 H320 0.950 . S
C343 C342 1.334 . S
C343 C344 1.287 . S
C344 C343 1.287 . S
C344 C345 1.524 . S
C344 H363 0.913 1_554 S
C345 H321 0.950 . S
C345 C344 1.524 . S
C345 C346 1.415 . S
C346 H322 0.950 . S
C346 C341 1.363 . S
C346 C345 1.415 . S
C347 H323 0.951 . S
C347 C348 1.366 . S
C347 C349 1.388 . S
C348 C347 1.366 . S
C348 C352 1.385 . S
C349 H324 0.951 . S
C349 C347 1.388 . S
C349 C350 1.366 . S
C350 C349 1.366 . S
C350 C351 1.414 . S
C350 C353 1.499 . S
C351 H325 0.950 . S
C351 C350 1.414 . S
C351 C352 1.374 . S
C352 H326 0.950 . S
C352 C348 1.385 . S
C352 C351 1.374 . S
C353 C350 1.499 . S
C353 C354 1.373 . S
C353 C355 1.389 . S
C354 H327 0.950 . S
C354 C340 1.377 . S
C354 C353 1.373 . S
C355 C339 1.377 . S
C355 C353 1.389 . S
C355 C356 1.524 . S
C356 C355 1.524 . S
C356 C357 1.397 . S
C356 C361 1.363 . S
C357 H328 0.950 . S
C357 C356 1.397 . S
C357 C358 1.334 . S
C358 H329 0.950 . S
C358 C357 1.334 . S
C358 C359 1.287 . S
C359 C358 1.287 . S
C359 C360 1.524 . S
C359 H362 0.999 . S
C360 H330 0.950 . S
C360 C359 1.524 . S
C360 C361 1.415 . S
C361 H331 0.950 . S
C361 C356 1.363 . S
C361 C360 1.415 . S
H362 C359 0.999 . S
H363 C344 0.913 1_556 S
H364 C382 0.951 . S
H365 C384 0.951 . S
H366 C386 0.950 . S
H367 C387 0.950 . S
H368 C389 0.950 . S
H369 C392 0.950 . S
H370 C393 0.950 . S
H371 C395 0.950 . S
H372 C396 0.950 . S
H373 C397 0.951 . S
H374 C399 0.951 . S
H375 C401 0.950 . S
H376 C402 0.950 . S
H377 C404 0.950 . S
H378 C407 0.950 . S
H379 C408 0.950 . S
H380 C410 0.950 . S
H381 C411 0.950 . S
C382 H364 0.951 . S
C382 C383 1.366 . S
C382 C384 1.388 . S
C383 C382 1.366 . S
C383 C387 1.385 . S
C384 H365 0.951 . S
C384 C382 1.388 . S
C384 C385 1.366 . S
C385 C384 1.366 . S
C385 C386 1.414 . S
C385 C388 1.499 . S
C386 H366 0.950 . S
C386 C385 1.414 . S
C386 C387 1.374 . S
C387 H367 0.950 . S
C387 C383 1.385 . S
C387 C386 1.374 . S
C388 C385 1.499 . S
C388 C389 1.373 . S
C388 C390 1.389 . S
C389 H368 0.950 . S
C389 C388 1.373 . S
C389 C405 1.377 . S
C390 C388 1.389 . S
C390 C391 1.524 . S
C390 C404 1.377 . S
C391 C390 1.524 . S
C391 C392 1.397 . S
C391 C396 1.363 . S
C392 H369 0.950 . S
C392 C391 1.397 . S
C392 C393 1.334 . S
C393 H370 0.950 . S
C393 C392 1.334 . S
C393 C394 1.287 . S
C394 C393 1.287 . S
C394 C395 1.524 . S
C394 H413 0.913 . S
C395 H371 0.950 . S
C395 C394 1.524 . S
C395 C396 1.415 . S
C396 H372 0.950 . S
C396 C391 1.363 . S
C396 C395 1.415 . S
C397 H373 0.951 . S
C397 C398 1.366 . S
C397 C399 1.388 . S
C398 C397 1.366 . S
C398 C402 1.385 . S
C399 H374 0.951 . S
C399 C397 1.388 . S
C399 C400 1.366 . S
C400 C399 1.366 . S
C400 C401 1.414 . S
C400 C403 1.499 . S
C401 H375 0.950 . S
C401 C400 1.414 . S
C401 C402 1.374 . S
C402 H376 0.950 . S
C402 C398 1.385 . S
C402 C401 1.374 . S
C403 C400 1.499 . S
C403 C404 1.373 . S
C403 C405 1.389 . S
C404 H377 0.950 . S
C404 C390 1.377 . S
C404 C403 1.373 . S
C405 C389 1.377 . S
C405 C403 1.389 . S
C405 C406 1.524 . S
C406 C405 1.524 . S
C406 C407 1.397 . S
C406 C411 1.363 . S
C407 H378 0.950 . S
C407 C406 1.397 . S
C407 C408 1.334 . S
C408 H379 0.950 . S
C408 C407 1.334 . S
C408 C409 1.287 . S
C409 C408 1.287 . S
C409 C410 1.524 . S
C409 H412 0.999 . S
C410 H380 0.950 . S
C410 C409 1.524 . S
C410 C411 1.415 . S
C411 H381 0.950 . S
C411 C406 1.363 . S
C411 C410 1.415 . S
H412 C409 0.999 . S
H413 C394 0.913 . S
H414 C432 0.951 . S
H415 C434 0.951 . S
H416 C436 0.950 . S
H417 C437 0.950 . S
H418 C439 0.950 . S
H419 C442 0.950 . S
H420 C443 0.950 . S
H421 C445 0.950 1_655 S
H422 C446 0.985 . S
H423 C447 0.951 . S
H424 C449 0.951 . S
H425 C451 0.950 . S
H426 C452 0.950 . S
H427 C454 0.950 . S
H428 C457 0.950 . S
H429 C458 0.950 . S
H430 C460 0.950 1_455 S
H431 C461 0.950 . S
C432 H414 0.951 . S
C432 C433 1.365 1_655 S
C432 C434 1.388 . S
C433 C432 1.365 1_455 S
C433 C437 1.386 . S
C434 H415 0.951 . S
C434 C432 1.388 . S
C434 C435 1.366 1_655 S
C435 C434 1.366 1_455 S
C435 C436 1.414 . S
C435 C438 1.499 . S
C436 H416 0.950 . S
C436 C435 1.414 . S
C436 C437 1.374 . S
C437 H417 0.950 . S
C437 C433 1.386 . S
C437 C436 1.374 . S
C438 C435 1.499 . S
C438 C439 1.373 1_455 S
C438 C440 1.389 . S
C439 H418 0.950 . S
C439 C438 1.373 1_655 S
C439 C455 1.377 . S
C440 C438 1.389 . S
C440 C441 1.524 . S
C440 C454 1.377 . S
C441 C440 1.524 . S
C441 C442 1.397 . S
C441 C446 1.341 1_455 S
C442 H419 0.950 . S
C442 C441 1.397 . S
C442 C443 1.334 . S
C443 H420 0.950 . S
C443 C442 1.334 . S
C443 C444 1.287 . S
C444 C443 1.287 . S
C444 C445 1.524 . S
C444 H463 0.913 1_554 S
C445 H421 0.950 1_455 S
C445 C444 1.524 . S
C445 C446 1.404 1_455 S
C446 H422 0.985 . S
C446 C441 1.341 1_655 S
C446 C445 1.404 1_655 S
C447 H423 0.951 . S
C447 C448 1.390 . S
C447 C449 1.388 . S
C448 C447 1.390 . S
C448 C452 1.360 1_455 S
C449 H424 0.951 . S
C449 C447 1.388 . S
C449 C450 1.359 1_455 S
C450 C449 1.359 1_655 S
C450 C451 1.420 . S
C450 C453 1.498 . S
C451 H425 0.950 . S
C451 C450 1.420 . S
C451 C452 1.374 . S
C452 H426 0.950 . S
C452 C448 1.360 1_655 S
C452 C451 1.374 . S
C453 C450 1.498 . S
C453 C454 1.366 1_655 S
C453 C455 1.395 . S
C454 H427 0.950 . S
C454 C440 1.377 . S
C454 C453 1.366 1_455 S
C455 C439 1.377 . S
C455 C453 1.395 . S
C455 C456 1.524 . S
C456 C455 1.524 . S
C456 C457 1.397 . S
C456 C461 1.363 1_655 S
C457 H428 0.950 . S
C457 C456 1.397 . S
C457 C458 1.334 . S
C458 H429 0.950 . S
C458 C457 1.334 . S
C458 C459 1.287 . S
C459 C458 1.287 . S
C459 C460 1.524 . S
C459 H462 0.999 . S
C460 H430 0.950 1_655 S
C460 C459 1.524 . S
C460 C461 1.415 1_655 S
C461 H431 0.950 . S
C461 C456 1.363 1_455 S
C461 C460 1.415 1_455 S
H462 C459 0.999 . S
H463 C444 0.913 1_556 S
H464 C482 0.951 . S
H465 C484 0.951 . S
H466 C486 0.950 . S
H467 C487 0.950 . S
H468 C489 0.950 . S
H469 C492 0.950 . S
H470 C493 0.950 . S
H471 C495 0.950 . S
H472 C496 0.950 . S
H473 C497 0.951 . S
H474 C499 0.961 . S
H475 C501 0.950 . S
H476 C502 0.950 . S
H477 C504 0.950 1_556 S
H478 C507 0.950 . S
H479 C508 0.950 . S
H480 C510 0.950 . S
H481 C511 0.950 . S
C482 H464 0.951 . S
C482 C483 1.366 . S
C482 C484 1.388 . S
C483 C482 1.366 . S
C483 C487 1.385 1_545 S
C484 H465 0.951 . S
C484 C482 1.388 . S
C484 C485 1.366 1_545 S
C485 C484 1.366 1_565 S
C485 C486 1.414 . S
C485 C488 1.499 . S
C486 H466 0.950 . S
C486 C485 1.414 . S
C486 C487 1.374 . S
C487 H467 0.950 . S
C487 C483 1.385 1_565 S
C487 C486 1.374 . S
C488 C485 1.499 . S
C488 C489 1.373 1_565 S
C488 C490 1.389 . S
C489 H468 0.950 . S
C489 C488 1.373 1_545 S
C489 C505 1.377 . S
C490 C488 1.389 . S
C490 C491 1.524 . S
C490 C504 1.377 . S
C491 C490 1.524 . S
C491 C492 1.397 . S
C491 C496 1.363 1_554 S
C492 H469 0.950 . S
C492 C491 1.397 . S
C492 C493 1.334 . S
C493 H470 0.950 . S
C493 C492 1.334 . S
C493 C494 1.287 . S
C494 C493 1.287 . S
C494 C495 1.524 1_554 S
C494 H513 0.913 . S
C495 H471 0.950 . S
C495 C494 1.524 1_556 S
C495 C496 1.415 . S
C496 H472 0.950 . S
C496 C491 1.363 1_556 S
C496 C495 1.415 . S
C497 H473 0.951 . S
C497 C498 1.367 . S
C497 C499 1.381 1_556 S
C498 C497 1.367 . S
C498 C502 1.383 1_565 S
C499 H474 0.961 . S
C499 C497 1.381 1_554 S
C499 C500 1.358 1_564 S
C500 C499 1.358 1_546 S
C500 C501 1.418 . S
C500 C503 1.500 1_556 S
C501 H475 0.950 . S
C501 C500 1.418 . S
C501 C502 1.374 . S
C502 H476 0.950 . S
C502 C498 1.383 1_545 S
C502 C501 1.374 . S
C503 C500 1.500 1_554 S
C503 C504 1.373 1_545 S
C503 C505 1.389 . S
C504 H477 0.950 1_554 S
C504 C490 1.377 . S
C504 C503 1.373 1_565 S
C505 C489 1.377 . S
C505 C503 1.389 . S
C505 C506 1.524 . S
C506 C505 1.524 . S
C506 C507 1.397 . S
C506 C511 1.363 . S
C507 H478 0.950 . S
C507 C506 1.397 . S
C507 C508 1.334 . S
C508 H479 0.950 . S
C508 C507 1.334 . S
C508 C509 1.287 . S
C509 C508 1.287 . S
C509 C510 1.524 . S
C509 H512 0.999 . S
C510 H480 0.950 . S
C510 C509 1.524 . S
C510 C511 1.415 . S
C511 H481 0.950 . S
C511 C506 1.363 . S
C511 C510 1.415 . S
H512 C509 0.999 . S
H513 C494 0.913 . S
H514 C532 0.951 . S
H515 C534 0.951 . S
H516 C536 0.950 . S
H517 C537 0.950 . S
H518 C539 0.950 . S
H519 C542 0.950 . S
H520 C543 0.950 . S
H521 C545 0.950 . S
H522 C546 0.950 . S
H523 C547 0.951 . S
H524 C549 0.951 1_554 S
H525 C551 0.950 . S
H526 C552 0.950 . S
H527 C554 0.950 . S
H528 C557 0.950 . S
H529 C558 0.950 . S
H530 C560 0.950 . S
H531 C561 0.950 . S
C532 H514 0.951 . S
C532 C533 1.366 . S
C532 C534 1.388 . S
C533 C532 1.366 . S
C533 C537 1.385 . S
C534 H515 0.951 . S
C534 C532 1.388 . S
C534 C535 1.366 . S
C535 C534 1.366 . S
C535 C536 1.414 . S
C535 C538 1.499 . S
C536 H516 0.950 . S
C536 C535 1.414 . S
C536 C537 1.374 . S
C537 H517 0.950 . S
C537 C533 1.385 . S
C537 C536 1.374 . S
C538 C535 1.499 . S
C538 C539 1.373 . S
C538 C540 1.389 . S
C539 H518 0.950 . S
C539 C538 1.373 . S
C539 C555 1.377 . S
C540 C538 1.389 . S
C540 C541 1.524 . S
C540 C554 1.377 . S
C541 C540 1.524 . S
C541 C542 1.397 . S
C541 C546 1.363 . S
C542 H519 0.950 . S
C542 C541 1.397 . S
C542 C543 1.334 . S
C543 H520 0.950 . S
C543 C542 1.334 . S
C543 C544 1.287 . S
C544 C543 1.287 . S
C544 C545 1.524 . S
C544 H563 0.913 . S
C545 H521 0.950 . S
C545 C544 1.524 . S
C545 C546 1.415 . S
C546 H522 0.950 . S
C546 C541 1.363 . S
C546 C545 1.415 . S
C547 H523 0.951 . S
C547 C548 1.366 . S
C547 C549 1.388 . S
C548 C547 1.366 . S
C548 C552 1.385 . S
C549 H524 0.951 1_556 S
C549 C547 1.388 . S
C549 C550 1.366 . S
C550 C549 1.366 . S
C550 C551 1.414 . S
C550 C553 1.499 1_556 S
C551 H525 0.950 . S
C551 C550 1.414 . S
C551 C552 1.374 . S
C552 H526 0.950 . S
C552 C548 1.385 . S
C552 C551 1.374 . S
C553 C550 1.499 1_554 S
C553 C554 1.373 . S
C553 C555 1.389 . S
C554 H527 0.950 . S
C554 C540 1.377 . S
C554 C553 1.373 . S
C555 C539 1.377 . S
C555 C553 1.389 . S
C555 C556 1.524 . S
C556 C555 1.524 . S
C556 C557 1.397 1_554 S
C556 C561 1.363 . S
C557 H528 0.950 . S
C557 C556 1.397 1_556 S
C557 C558 1.334 . S
C558 H529 0.950 . S
C558 C557 1.334 . S
C558 C559 1.287 . S
C559 C558 1.287 . S
C559 C560 1.524 1_556 S
C559 H562 0.999 . S
C560 H530 0.950 . S
C560 C559 1.524 1_554 S
C560 C561 1.415 . S
C561 H531 0.950 . S
C561 C556 1.363 . S
C561 C560 1.415 . S
H562 C559 0.999 . S
H563 C544 0.913 . S
H564 C582 0.951 . S
H565 C584 0.951 . S
H566 C586 0.950 . S
H567 C587 0.950 . S
H568 C589 0.950 . S
H569 C592 0.950 . S
H570 C593 0.950 . S
H571 C595 0.950 . S
H572 C596 0.950 . S
H573 C597 0.951 . S
H574 C599 0.951 . S
H575 C601 0.950 1_554 S
H576 C602 0.950 . S
H577 C604 0.950 . S
H578 C607 0.950 . S
H579 C608 0.950 . S
H580 C610 0.950 . S
H581 C611 0.950 . S
C582 H564 0.951 . S
C582 C583 1.366 . S
C582 C584 1.388 . S
C583 C582 1.366 . S
C583 C587 1.385 . S
C584 H565 0.951 . S
C584 C582 1.388 . S
C584 C585 1.366 . S
C585 C584 1.366 . S
C585 C586 1.414 . S
C585 C588 1.499 . S
C586 H566 0.950 . S
C586 C585 1.414 . S
C586 C587 1.374 . S
C587 H567 0.950 . S
C587 C583 1.385 . S
C587 C586 1.374 . S
C588 C585 1.499 . S
C588 C589 1.373 . S
C588 C590 1.389 . S
C589 H568 0.950 . S
C589 C588 1.373 . S
C589 C605 1.377 . S
C590 C588 1.389 . S
C590 C591 1.524 . S
C590 C604 1.377 . S
C591 C590 1.524 . S
C591 C592 1.397 . S
C591 C596 1.363 . S
C592 H569 0.950 . S
C592 C591 1.397 . S
C592 C593 1.334 . S
C593 H570 0.950 . S
C593 C592 1.334 . S
C593 C594 1.287 . S
C594 C593 1.287 . S
C594 C595 1.524 . S
C594 H613 0.913 . S
C595 H571 0.950 . S
C595 C594 1.524 . S
C595 C596 1.415 . S
C596 H572 0.950 . S
C596 C591 1.363 . S
C596 C595 1.415 . S
C597 H573 0.951 . S
C597 C598 1.366 . S
C597 C599 1.388 . S
C598 C597 1.366 . S
C598 C602 1.385 . S
C599 H574 0.951 . S
C599 C597 1.388 . S
C599 C600 1.366 . S
C600 C599 1.366 . S
C600 C601 1.414 . S
C600 C603 1.499 1_556 S
C601 H575 0.950 1_556 S
C601 C600 1.414 . S
C601 C602 1.374 . S
C602 H576 0.950 . S
C602 C598 1.385 . S
C602 C601 1.374 . S
C603 C600 1.499 1_554 S
C603 C604 1.373 . S
C603 C605 1.389 . S
C604 H577 0.950 . S
C604 C590 1.377 . S
C604 C603 1.373 . S
C605 C589 1.377 . S
C605 C603 1.389 . S
C605 C606 1.524 1_554 S
C606 C605 1.524 1_556 S
C606 C607 1.397 . S
C606 C611 1.363 . S
C607 H578 0.950 . S
C607 C606 1.397 . S
C607 C608 1.334 . S
C608 H579 0.950 . S
C608 C607 1.334 . S
C608 C609 1.287 . S
C609 C608 1.287 . S
C609 C610 1.524 . S
C609 H612 0.999 . S
C610 H580 0.950 . S
C610 C609 1.524 . S
C610 C611 1.415 . S
C611 H581 0.950 . S
C611 C606 1.363 . S
C611 C610 1.415 . S
H612 C609 0.999 . S
H613 C594 0.913 . S
H614 C632 0.951 . S
H615 C634 0.951 . S
H616 C636 0.950 . S
H617 C637 0.950 . S
H618 C639 0.950 . S
H619 C642 0.950 . S
H620 C643 0.950 . S
H621 C645 0.950 . S
H622 C646 0.950 . S
H623 C647 0.951 . S
H624 C649 0.951 . S
H625 C651 0.956 . S
H626 C652 0.950 . S
H627 C654 0.950 . S
H628 C657 0.950 . S
H629 C658 0.950 . S
H630 C660 0.950 . S
H631 C661 0.950 . S
C632 H614 0.951 . S
C632 C633 1.367 . S
C632 C634 1.388 . S
C633 C632 1.367 . S
C633 C637 1.384 1_655 S
C634 H615 0.951 . S
C634 C632 1.388 . S
C634 C635 1.359 1_655 S
C635 C634 1.359 1_455 S
C635 C636 1.420 . S
C635 C638 1.499 . S
C636 H616 0.950 . S
C636 C635 1.420 . S
C636 C637 1.374 . S
C637 H617 0.950 . S
C637 C633 1.384 1_455 S
C637 C636 1.374 . S
C638 C635 1.499 . S
C638 C639 1.343 1_455 S
C638 C640 1.417 . S
C639 H618 0.950 . S
C639 C638 1.343 1_655 S
C639 C655 1.377 . S
C640 C638 1.417 . S
C640 C641 1.524 . S
C640 C654 1.377 . S
C641 C640 1.524 . S
C641 C642 1.397 . S
C641 C646 1.363 . S
C642 H619 0.950 . S
C642 C641 1.397 . S
C642 C643 1.334 . S
C643 H620 0.950 . S
C643 C642 1.334 . S
C643 C644 1.287 . S
C644 C643 1.287 . S
C644 C645 1.524 . S
C644 H663 0.913 . S
C645 H621 0.950 . S
C645 C644 1.524 . S
C645 C646 1.415 . S
C646 H622 0.950 . S
C646 C641 1.363 . S
C646 C645 1.415 . S
C647 H623 0.951 . S
C647 C648 1.361 1_455 S
C647 C649 1.388 . S
C648 C647 1.361 1_655 S
C648 C652 1.391 . S
C649 H624 0.951 . S
C649 C647 1.388 . S
C649 C650 1.366 1_455 S
C650 C649 1.366 1_655 S
C650 C651 1.412 1_556 S
C650 C653 1.499 1_556 S
C651 H625 0.956 . S
C651 C650 1.412 1_554 S
C651 C652 1.370 1_554 S
C652 H626 0.950 . S
C652 C648 1.391 . S
C652 C651 1.370 1_556 S
C653 C650 1.499 1_554 S
C653 C654 1.373 1_655 S
C653 C655 1.389 . S
C654 H627 0.950 . S
C654 C640 1.377 . S
C654 C653 1.373 1_455 S
C655 C639 1.377 . S
C655 C653 1.389 . S
C655 C656 1.524 1_554 S
C656 C655 1.524 1_556 S
C656 C657 1.397 . S
C656 C661 1.363 . S
C657 H628 0.950 . S
C657 C656 1.397 . S
C657 C658 1.334 . S
C658 H629 0.950 . S
C658 C657 1.334 . S
C658 C659 1.287 . S
C659 C658 1.287 . S
C659 C660 1.524 . S
C659 H662 0.999 . S
C660 H630 0.950 . S
C660 C659 1.524 . S
C660 C661 1.415 . S
C661 H631 0.950 . S
C661 C656 1.363 . S
C661 C660 1.415 . S
H662 C659 0.999 . S
H663 C644 0.913 . S
H664 C682 0.951 1_556 S
H665 C684 0.957 . S
H666 C686 0.950 . S
H667 C687 0.950 . S
H668 C689 0.948 . S
H669 C692 0.950 . S
H670 C693 0.950 . S
H671 C695 0.950 . S
H672 C696 0.950 . S
H673 C697 0.951 . S
H674 C699 0.951 . S
H675 C701 0.950 . S
H676 C702 0.950 . S
H677 C704 0.950 . S
H678 C707 0.950 . S
H679 C708 0.950 . S
H680 C710 0.950 . S
H681 C711 0.962 . S
C682 H664 0.951 1_554 S
C682 C683 1.366 . S
C682 C684 1.394 . S
C683 C682 1.366 . S
C683 C687 1.385 1_455 S
C684 H665 0.957 . S
C684 C682 1.394 . S
C684 C685 1.354 1_455 S
C685 C684 1.354 1_655 S
C685 C686 1.414 . S
C685 C688 1.499 . S
C686 H666 0.950 . S
C686 C685 1.414 . S
C686 C687 1.374 . S
C687 H667 0.950 . S
C687 C683 1.385 1_655 S
C687 C686 1.374 . S
C688 C685 1.499 . S
C688 C689 1.375 1_655 S
C688 C690 1.389 . S
C689 H668 0.948 . S
C689 C688 1.375 1_455 S
C689 C705 1.377 1_455 S
C690 C688 1.389 . S
C690 C691 1.524 . S
C690 C704 1.377 . S
C691 C690 1.524 . S
C691 C692 1.397 . S
C691 C696 1.363 . S
C692 H669 0.950 . S
C692 C691 1.397 . S
C692 C693 1.334 . S
C693 H670 0.950 . S
C693 C692 1.334 . S
C693 C694 1.287 1_554 S
C694 C693 1.287 1_556 S
C694 C695 1.524 . S
C694 H713 0.913 . S
C695 H671 0.950 . S
C695 C694 1.524 . S
C695 C696 1.415 1_556 S
C696 H672 0.950 . S
C696 C691 1.363 . S
C696 C695 1.415 1_554 S
C697 H673 0.951 . S
C697 C698 1.366 . S
C697 C699 1.388 . S
C698 C697 1.366 . S
C698 C702 1.385 . S
C699 H674 0.951 . S
C699 C697 1.388 . S
C699 C700 1.366 . S
C700 C699 1.366 . S
C700 C701 1.414 . S
C700 C703 1.499 . S
C701 H675 0.950 . S
C701 C700 1.414 . S
C701 C702 1.374 . S
C702 H676 0.950 . S
C702 C698 1.385 . S
C702 C701 1.374 . S
C703 C700 1.499 . S
C703 C704 1.373 . S
C703 C705 1.389 . S
C704 H677 0.950 . S
C704 C690 1.377 . S
C704 C703 1.373 . S
C705 C689 1.377 1_655 S
C705 C703 1.389 . S
C705 C706 1.524 1_655 S
C706 C705 1.524 1_455 S
C706 C707 1.397 . S
C706 C711 1.363 . S
C707 H678 0.950 . S
C707 C706 1.397 . S
C707 C708 1.334 . S
C708 H679 0.950 . S
C708 C707 1.334 . S
C708 C709 1.287 . S
C709 C708 1.287 . S
C709 C710 1.524 . S
C709 H712 0.999 . S
C710 H680 0.950 . S
C710 C709 1.524 . S
C710 C711 1.415 . S
C711 H681 0.962 . S
C711 C706 1.363 . S
C711 C710 1.415 . S
H712 C709 0.999 . S
H713 C694 0.913 . S
H714 C732 0.951 . S
H715 C734 0.951 . S
H716 C736 0.950 . S
H717 C737 0.950 . S
H718 C739 0.985 . S
H719 C742 0.950 1_545 S
H720 C743 0.950 . S
H721 C745 0.950 . S
H722 C746 0.950 . S
H723 C747 0.951 1_545 S
H724 C749 0.903 1_545 S
H725 C751 0.950 . S
H726 C752 0.950 . S
H727 C754 0.950 . S
H728 C757 0.950 . S
H729 C758 0.950 . S
H730 C760 0.950 . S
H731 C761 0.950 . S
C732 H714 0.951 . S
C732 C733 1.366 1_565 S
C732 C734 1.388 . S
C733 C732 1.366 1_545 S
C733 C737 1.385 . S
C734 H715 0.951 . S
C734 C732 1.388 . S
C734 C735 1.366 . S
C735 C734 1.366 . S
C735 C736 1.414 1_565 S
C735 C738 1.499 . S
C736 H716 0.950 . S
C736 C735 1.414 1_545 S
C736 C737 1.374 . S
C737 H717 0.950 . S
C737 C733 1.385 . S
C737 C736 1.374 . S
C738 C735 1.499 . S
C738 C739 1.352 1_565 S
C738 C740 1.389 . S
C739 H718 0.985 . S
C739 C738 1.352 1_545 S
C739 C755 1.367 1_545 S
C740 C738 1.389 . S
C740 C741 1.524 . S
C740 C754 1.377 . S
C741 C740 1.524 . S
C741 C742 1.397 . S
C741 C746 1.363 . S
C742 H719 0.950 1_565 S
C742 C741 1.397 . S
C742 C743 1.334 . S
C743 H720 0.950 . S
C743 C742 1.334 . S
C743 C744 1.287 . S
C744 C743 1.287 . S
C744 C745 1.524 . S
C744 H763 0.913 . S
C745 H721 0.950 . S
C745 C744 1.524 . S
C745 C746 1.415 . S
C746 H722 0.950 . S
C746 C741 1.363 . S
C746 C745 1.415 . S
C747 H723 0.951 1_565 S
C747 C748 1.366 . S
C747 C749 1.396 . S
C748 C747 1.366 . S
C748 C752 1.385 . S
C749 H724 0.903 1_565 S
C749 C747 1.396 . S
C749 C750 1.407 . S
C750 C749 1.407 . S
C750 C751 1.414 . S
C750 C753 1.499 . S
C751 H725 0.950 . S
C751 C750 1.414 . S
C751 C752 1.374 . S
C752 H726 0.950 . S
C752 C748 1.385 . S
C752 C751 1.374 . S
C753 C750 1.499 . S
C753 C754 1.373 . S
C753 C755 1.389 . S
C754 H727 0.950 . S
C754 C740 1.377 . S
C754 C753 1.373 . S
C755 C739 1.367 1_565 S
C755 C753 1.389 . S
C755 C756 1.524 1_565 S
C756 C755 1.524 1_545 S
C756 C757 1.397 1_545 S
C756 C761 1.363 . S
C757 H728 0.950 . S
C757 C756 1.397 1_565 S
C757 C758 1.334 . S
C758 H729 0.950 . S
C758 C757 1.334 . S
C758 C759 1.287 1_565 S
C759 C758 1.287 1_545 S
C759 C760 1.524 . S
C759 H762 0.999 . S
C760 H730 0.950 . S
C760 C759 1.524 . S
C760 C761 1.415 . S
C761 H731 0.950 . S
C761 C756 1.363 . S
C761 C760 1.415 . S
H762 C759 0.999 . S
H763 C744 0.913 . S
H764 C782 0.951 . S
H765 C784 0.951 . S
H766 C786 0.950 . S
H767 C787 0.950 . S
H768 C789 0.950 . S
H769 C792 0.950 . S
H770 C793 0.950 1_556 S
H771 C795 0.950 . S
H772 C796 0.950 . S
H773 C797 0.951 . S
H774 C799 0.951 . S
H775 C801 0.950 . S
H776 C802 0.950 . S
H777 C804 0.950 . S
H778 C807 0.950 . S
H779 C808 0.950 . S
H780 C810 0.950 . S
H781 C811 0.950 . S
C782 H764 0.951 . S
C782 C783 1.366 . S
C782 C784 1.388 . S
C783 C782 1.366 . S
C783 C787 1.385 . S
C784 H765 0.951 . S
C784 C782 1.388 . S
C784 C785 1.366 . S
C785 C784 1.366 . S
C785 C786 1.414 . S
C785 C788 1.499 . S
C786 H766 0.950 . S
C786 C785 1.414 . S
C786 C787 1.374 . S
C787 H767 0.950 . S
C787 C783 1.385 . S
C787 C786 1.374 . S
C788 C785 1.499 . S
C788 C789 1.373 . S
C788 C790 1.389 . S
C789 H768 0.950 . S
C789 C788 1.373 . S
C789 C805 1.377 . S
C790 C788 1.389 . S
C790 C791 1.524 . S
C790 C804 1.377 . S
C791 C790 1.524 . S
C791 C792 1.397 . S
C791 C796 1.363 . S
C792 H769 0.950 . S
C792 C791 1.397 . S
C792 C793 1.334 . S
C793 H770 0.950 1_554 S
C793 C792 1.334 . S
C793 C794 1.287 . S
C794 C793 1.287 . S
C794 C795 1.524 . S
C794 H813 0.913 . S
C795 H771 0.950 . S
C795 C794 1.524 . S
C795 C796 1.415 . S
C796 H772 0.950 . S
C796 C791 1.363 . S
C796 C795 1.415 . S
C797 H773 0.951 . S
C797 C798 1.366 . S
C797 C799 1.388 . S
C798 C797 1.366 . S
C798 C802 1.385 . S
C799 H774 0.951 . S
C799 C797 1.388 . S
C799 C800 1.366 . S
C800 C799 1.366 . S
C800 C801 1.414 . S
C800 C803 1.499 . S
C801 H775 0.950 . S
C801 C800 1.414 . S
C801 C802 1.374 . S
C802 H776 0.950 . S
C802 C798 1.385 . S
C802 C801 1.374 . S
C803 C800 1.499 . S
C803 C804 1.373 . S
C803 C805 1.389 . S
C804 H777 0.950 . S
C804 C790 1.377 . S
C804 C803 1.373 . S
C805 C789 1.377 . S
C805 C803 1.389 . S
C805 C806 1.524 . S
C806 C805 1.524 . S
C806 C807 1.397 . S
C806 C811 1.363 . S
C807 H778 0.950 . S
C807 C806 1.397 . S
C807 C808 1.334 . S
C808 H779 0.950 . S
C808 C807 1.334 . S
C808 C809 1.287 . S
C809 C808 1.287 . S
C809 C810 1.524 . S
C809 H812 0.999 . S
C810 H780 0.950 . S
C810 C809 1.524 . S
C810 C811 1.415 . S
C811 H781 0.950 . S
C811 C806 1.363 . S
C811 C810 1.415 . S
H812 C809 0.999 . S
H813 C794 0.913 . S
H814 C832 0.951 1_556 S
H815 C834 0.951 . S
H816 C836 0.950 . S
H817 C837 0.950 . S
H818 C839 0.950 . S
H819 C842 0.950 . S
H820 C843 0.950 . S
H821 C845 0.950 1_556 S
H822 C846 0.950 . S
H823 C847 0.951 . S
H824 C849 0.951 . S
H825 C851 0.950 . S
H826 C852 0.950 . S
H827 C854 0.950 . S
H828 C857 0.950 . S
H829 C858 0.950 . S
H830 C860 0.950 . S
H831 C861 0.950 . S
C832 H814 0.951 1_554 S
C832 C833 1.366 . S
C832 C834 1.388 . S
C833 C832 1.366 . S
C833 C837 1.385 . S
C834 H815 0.951 . S
C834 C832 1.388 . S
C834 C835 1.366 . S
C835 C834 1.366 . S
C835 C836 1.414 . S
C835 C838 1.499 . S
C836 H816 0.950 . S
C836 C835 1.414 . S
C836 C837 1.374 . S
C837 H817 0.950 . S
C837 C833 1.385 . S
C837 C836 1.374 . S
C838 C835 1.499 . S
C838 C839 1.373 . S
C838 C840 1.389 . S
C839 H818 0.950 . S
C839 C838 1.373 . S
C839 C855 1.377 . S
C840 C838 1.389 . S
C840 C841 1.524 . S
C840 C854 1.377 . S
C841 C840 1.524 . S
C841 C842 1.397 . S
C841 C846 1.363 . S
C842 H819 0.950 . S
C842 C841 1.397 . S
C842 C843 1.334 . S
C843 H820 0.950 . S
C843 C842 1.334 . S
C843 C844 1.287 . S
C844 C843 1.287 . S
C844 C845 1.524 . S
C844 H863 0.913 . S
C845 H821 0.950 1_554 S
C845 C844 1.524 . S
C845 C846 1.415 . S
C846 H822 0.950 . S
C846 C841 1.363 . S
C846 C845 1.415 . S
C847 H823 0.951 . S
C847 C848 1.366 . S
C847 C849 1.388 . S
C848 C847 1.366 . S
C848 C852 1.385 . S
C849 H824 0.951 . S
C849 C847 1.388 . S
C849 C850 1.366 . S
C850 C849 1.366 . S
C850 C851 1.414 . S
C850 C853 1.499 . S
C851 H825 0.950 . S
C851 C850 1.414 . S
C851 C852 1.374 . S
C852 H826 0.950 . S
C852 C848 1.385 . S
C852 C851 1.374 . S
C853 C850 1.499 . S
C853 C854 1.373 . S
C853 C855 1.389 . S
C854 H827 0.950 . S
C854 C840 1.377 . S
C854 C853 1.373 . S
C855 C839 1.377 . S
C855 C853 1.389 . S
C855 C856 1.524 . S
C856 C855 1.524 . S
C856 C857 1.397 . S
C856 C861 1.363 . S
C857 H828 0.950 . S
C857 C856 1.397 . S
C857 C858 1.334 . S
C858 H829 0.950 . S
C858 C857 1.334 . S
C858 C859 1.287 . S
C859 C858 1.287 . S
C859 C860 1.524 . S
C859 H862 0.999 . S
C860 H830 0.950 . S
C860 C859 1.524 . S
C860 C861 1.415 . S
C861 H831 0.950 . S
C861 C856 1.363 . S
C861 C860 1.415 . S
H862 C859 0.999 . S
H863 C844 0.913 . S
H864 C882 0.951 . S
H865 C884 0.951 . S
H866 C886 0.950 . S
H867 C887 0.950 . S
H868 C889 0.950 . S
H869 C892 0.950 1_455 S
H870 C893 0.950 . S
H871 C895 0.950 . S
H872 C896 0.950 . S
H873 C897 0.951 . S
H874 C899 0.951 . S
H875 C901 0.940 1_655 S
H876 C902 0.950 1_655 S
H877 C904 0.946 1_655 S
H878 C907 0.950 . S
H879 C908 0.950 . S
H880 C910 0.950 . S
H881 C911 0.950 . S
C882 H864 0.951 . S
C882 C883 1.366 . S
C882 C884 1.388 . S
C883 C882 1.366 . S
C883 C887 1.385 1_655 S
C884 H865 0.951 . S
C884 C882 1.388 . S
C884 C885 1.366 1_655 S
C885 C884 1.366 1_455 S
C885 C886 1.414 . S
C885 C888 1.499 . S
C886 H866 0.950 . S
C886 C885 1.414 . S
C886 C887 1.374 . S
C887 H867 0.950 . S
C887 C883 1.385 1_455 S
C887 C886 1.374 . S
C888 C885 1.499 . S
C888 C889 1.373 . S
C888 C890 1.389 1_455 S
C889 H868 0.950 . S
C889 C888 1.373 . S
C889 C905 1.377 . S
C890 C888 1.389 1_655 S
C890 C891 1.524 . S
C890 C904 1.376 1_655 S
C891 C890 1.524 . S
C891 C892 1.397 . S
C891 C896 1.363 . S
C892 H869 0.950 1_655 S
C892 C891 1.397 . S
C892 C893 1.334 . S
C893 H870 0.950 . S
C893 C892 1.334 . S
C893 C894 1.287 . S
C894 C893 1.287 . S
C894 C895 1.524 . S
C894 H913 0.913 1_554 S
C895 H871 0.950 . S
C895 C894 1.524 . S
C895 C896 1.415 . S
C896 H872 0.950 . S
C896 C891 1.363 . S
C896 C895 1.415 . S
C897 H873 0.951 . S
C897 C898 1.366 . S
C897 C899 1.388 . S
C898 C897 1.366 . S
C898 C902 1.385 . S
C899 H874 0.951 . S
C899 C897 1.388 . S
C899 C900 1.366 . S
C900 C899 1.366 . S
C900 C901 1.422 . S
C900 C903 1.499 . S
C901 H875 0.940 1_455 S
C901 C900 1.422 . S
C901 C902 1.375 . S
C902 H876 0.950 1_455 S
C902 C898 1.385 . S
C902 C901 1.375 . S
C903 C900 1.499 . S
C903 C904 1.379 . S
C903 C905 1.389 . S
C904 H877 0.946 1_455 S
C904 C890 1.376 1_455 S
C904 C903 1.379 . S
C905 C889 1.377 . S
C905 C903 1.389 . S
C905 C906 1.524 . S
C906 C905 1.524 . S
C906 C907 1.397 . S
C906 C911 1.363 . S
C907 H878 0.950 . S
C907 C906 1.397 . S
C907 C908 1.334 . S
C908 H879 0.950 . S
C908 C907 1.334 . S
C908 C909 1.287 . S
C909 C908 1.287 . S
C909 C910 1.524 . S
C909 H912 0.999 . S
C910 H880 0.950 . S
C910 C909 1.524 . S
C910 C911 1.415 . S
C911 H881 0.950 . S
C911 C906 1.363 . S
C911 C910 1.415 . S
H912 C909 0.999 . S
H913 C894 0.913 1_556 S
H914 C932 0.951 . S
H915 C934 0.951 . S
H916 C936 0.953 . S
H917 C937 0.950 . S
H918 C939 0.950 . S
H919 C942 0.950 . S
H920 C943 0.950 . S
H921 C945 0.950 . S
H922 C946 0.950 . S
H923 C947 0.951 . S
H924 C949 0.951 1_556 S
H925 C951 0.950 . S
H926 C952 0.950 . S
H927 C954 0.950 1_565 S
H928 C957 0.950 . S
H929 C958 0.950 . S
H930 C960 0.950 . S
H931 C961 0.950 . S
C932 H914 0.951 . S
C932 C933 1.354 1_545 S
C932 C934 1.388 . S
C933 C932 1.354 1_565 S
C933 C937 1.392 . S
C934 H915 0.951 . S
C934 C932 1.388 . S
C934 C935 1.366 . S
C935 C934 1.366 . S
C935 C936 1.408 1_545 S
C935 C938 1.499 . S
C936 H916 0.953 . S
C936 C935 1.408 1_565 S
C936 C937 1.377 . S
C937 H917 0.950 . S
C937 C933 1.392 . S
C937 C936 1.377 . S
C938 C935 1.499 . S
C938 C939 1.373 . S
C938 C940 1.389 1_545 S
C939 H918 0.950 . S
C939 C938 1.373 . S
C939 C955 1.377 . S
C940 C938 1.389 1_565 S
C940 C941 1.524 . S
C940 C954 1.377 1_565 S
C941 C940 1.524 . S
C941 C942 1.397 . S
C941 C946 1.363 . S
C942 H919 0.950 . S
C942 C941 1.397 . S
C942 C943 1.334 . S
C943 H920 0.950 . S
C943 C942 1.334 . S
C943 C944 1.287 . S
C944 C943 1.287 . S
C944 C945 1.524 . S
C944 H963 0.913 . S
C945 H921 0.950 . S
C945 C944 1.524 . S
C945 C946 1.415 . S
C946 H922 0.950 . S
C946 C941 1.363 . S
C946 C945 1.415 . S
C947 H923 0.951 . S
C947 C948 1.366 1_556 S
C947 C949 1.388 1_556 S
C948 C947 1.366 1_554 S
C948 C952 1.385 . S
C949 H924 0.951 1_554 S
C949 C947 1.388 1_554 S
C949 C950 1.366 . S
C950 C949 1.366 . S
C950 C951 1.414 . S
C950 C953 1.499 . S
C951 H925 0.950 . S
C951 C950 1.414 . S
C951 C952 1.374 . S
C952 H926 0.950 . S
C952 C948 1.385 . S
C952 C951 1.374 . S
C953 C950 1.499 . S
C953 C954 1.373 . S
C953 C955 1.389 . S
C954 H927 0.950 1_545 S
C954 C940 1.377 1_545 S
C954 C953 1.373 . S
C955 C939 1.377 . S
C955 C953 1.389 . S
C955 C956 1.524 . S
C956 C955 1.524 . S
C956 C957 1.397 . S
C956 C961 1.363 1_554 S
C957 H928 0.950 . S
C957 C956 1.397 . S
C957 C958 1.334 . S
C958 H929 0.950 . S
C958 C957 1.334 . S
C958 C959 1.287 1_554 S
C959 C958 1.287 1_556 S
C959 C960 1.524 . S
C959 H962 0.999 . S
C960 H930 0.950 . S
C960 C959 1.524 . S
C960 C961 1.415 . S
C961 H931 0.950 . S
C961 C956 1.363 1_556 S
C961 C960 1.415 . S
H962 C959 0.999 . S
H963 C944 0.913 . S
H964 C982 0.951 . S
H965 C984 0.951 . S
H966 C986 0.950 . S
H967 C987 0.950 . S
H968 C989 0.950 . S
H969 C992 0.950 . S
H970 C993 0.950 . S
H971 C995 0.950 . S
H972 C996 0.950 . S
H973 C997 0.951 . S
H974 C999 0.951 . S
H975 C1001 0.950 . S
H976 C1002 0.950 1_556 S
H977 C1004 0.950 . S
H978 C1007 0.950 1_556 S
H979 C1008 0.950 . S
H980 C1010 0.950 . S
H981 C1011 0.950 . S
C982 H964 0.951 . S
C982 C983 1.366 . S
C982 C984 1.388 . S
C983 C982 1.366 . S
C983 C987 1.385 . S
C984 H965 0.951 . S
C984 C982 1.388 . S
C984 C985 1.366 . S
C985 C984 1.366 . S
C985 C986 1.414 . S
C985 C988 1.499 . S
C986 H966 0.950 . S
C986 C985 1.414 . S
C986 C987 1.374 . S
C987 H967 0.950 . S
C987 C983 1.385 . S
C987 C986 1.374 . S
C988 C985 1.499 . S
C988 C989 1.373 . S
C988 C990 1.389 . S
C989 H968 0.950 . S
C989 C988 1.373 . S
C989 C1005 1.377 . S
C990 C988 1.389 . S
C990 C991 1.524 . S
C990 C1004 1.377 . S
C991 C990 1.524 . S
C991 C992 1.397 . S
C991 C996 1.363 . S
C992 H969 0.950 . S
C992 C991 1.397 . S
C992 C993 1.334 . S
C993 H970 0.950 . S
C993 C992 1.334 . S
C993 C994 1.287 . S
C994 C993 1.287 . S
C994 C995 1.524 . S
C994 H1013 0.913 . S
C995 H971 0.950 . S
C995 C994 1.524 . S
C995 C996 1.415 . S
C996 H972 0.950 . S
C996 C991 1.363 . S
C996 C995 1.415 . S
C997 H973 0.951 . S
C997 C998 1.366 . S
C997 C999 1.388 . S
C998 C997 1.366 . S
C998 C1002 1.385 . S
C999 H974 0.951 . S
C999 C997 1.388 . S
C999 C1000 1.366 . S
C1000 C999 1.366 . S
C1000 C1001 1.414 . S
C1000 C1003 1.499 . S
C1001 H975 0.950 . S
C1001 C1000 1.414 . S
C1001 C1002 1.374 . S
C1002 H976 0.950 1_554 S
C1002 C998 1.385 . S
C1002 C1001 1.374 . S
C1003 C1000 1.499 . S
C1003 C1004 1.373 . S
C1003 C1005 1.389 . S
C1004 H977 0.950 . S
C1004 C990 1.377 . S
C1004 C1003 1.373 . S
C1005 C989 1.377 . S
C1005 C1003 1.389 . S
C1005 C1006 1.524 . S
C1006 C1005 1.524 . S
C1006 C1007 1.397 . S
C1006 C1011 1.363 . S
C1007 H978 0.950 1_554 S
C1007 C1006 1.397 . S
C1007 C1008 1.334 1_554 S
C1008 H979 0.950 . S
C1008 C1007 1.334 1_556 S
C1008 C1009 1.287 . S
C1009 C1008 1.287 . S
C1009 C1010 1.524 1_556 S
C1009 H1012 0.999 . S
C1010 H980 0.950 . S
C1010 C1009 1.524 1_554 S
C1010 C1011 1.415 . S
C1011 H981 0.950 . S
C1011 C1006 1.363 . S
C1011 C1010 1.415 . S
H1012 C1009 0.999 . S
H1013 C994 0.913 . S
H1014 C1032 0.951 . S
H1015 C1034 0.951 . S
H1016 C1036 0.950 . S
H1017 C1037 0.950 . S
H1018 C1039 0.950 . S
H1019 C1042 0.950 . S
H1020 C1043 0.950 . S
H1021 C1045 0.950 . S
H1022 C1046 0.950 . S
H1023 C1047 0.957 . S
H1024 C1049 0.951 . S
H1025 C1051 0.950 . S
H1026 C1052 0.950 . S
H1027 C1054 0.950 . S
H1028 C1057 0.950 . S
H1029 C1058 0.950 . S
H1030 C1060 0.950 . S
H1031 C1061 0.950 . S
C1032 H1014 0.951 . S
C1032 C1033 1.366 . S
C1032 C1034 1.388 . S
C1033 C1032 1.366 . S
C1033 C1037 1.385 . S
C1034 H1015 0.951 . S
C1034 C1032 1.388 . S
C1034 C1035 1.366 . S
C1035 C1034 1.366 . S
C1035 C1036 1.414 . S
C1035 C1038 1.499 . S
C1036 H1016 0.950 . S
C1036 C1035 1.414 . S
C1036 C1037 1.374 . S
C1037 H1017 0.950 . S
C1037 C1033 1.385 . S
C1037 C1036 1.374 . S
C1038 C1035 1.499 . S
C1038 C1039 1.373 . S
C1038 C1040 1.389 . S
C1039 H1018 0.950 . S
C1039 C1038 1.373 . S
C1039 C1055 1.377 . S
C1040 C1038 1.389 . S
C1040 C1041 1.524 . S
C1040 C1054 1.377 . S
C1041 C1040 1.524 . S
C1041 C1042 1.397 . S
C1041 C1046 1.363 . S
C1042 H1019 0.950 . S
C1042 C1041 1.397 . S
C1042 C1043 1.334 . S
C1043 H1020 0.950 . S
C1043 C1042 1.334 . S
C1043 C1044 1.287 . S
C1044 C1043 1.287 . S
C1044 C1045 1.524 . S
C1044 H1063 0.913 . S
C1045 H1021 0.950 . S
C1045 C1044 1.524 . S
C1045 C1046 1.415 . S
C1046 H1022 0.950 . S
C1046 C1041 1.363 . S
C1046 C1045 1.415 . S
C1047 H1023 0.957 . S
C1047 C1048 1.364 1_556 S
C1047 C1049 1.384 1_556 S
C1048 C1047 1.364 1_554 S
C1048 C1052 1.385 . S
C1049 H1024 0.951 . S
C1049 C1047 1.384 1_554 S
C1049 C1050 1.366 . S
C1050 C1049 1.366 . S
C1050 C1051 1.414 . S
C1050 C1053 1.499 . S
C1051 H1025 0.950 . S
C1051 C1050 1.414 . S
C1051 C1052 1.374 . S
C1052 H1026 0.950 . S
C1052 C1048 1.385 . S
C1052 C1051 1.374 . S
C1053 C1050 1.499 . S
C1053 C1054 1.373 . S
C1053 C1055 1.389 . S
C1054 H1027 0.950 . S
C1054 C1040 1.377 . S
C1054 C1053 1.373 . S
C1055 C1039 1.377 . S
C1055 C1053 1.389 . S
C1055 C1056 1.524 . S
C1056 C1055 1.524 . S
C1056 C1057 1.397 . S
C1056 C1061 1.363 . S
C1057 H1028 0.950 . S
C1057 C1056 1.397 . S
C1057 C1058 1.334 . S
C1058 H1029 0.950 . S
C1058 C1057 1.334 . S
C1058 C1059 1.287 . S
C1059 C1058 1.287 . S
C1059 C1060 1.524 . S
C1059 H1062 0.999 . S
C1060 H1030 0.950 . S
C1060 C1059 1.524 . S
C1060 C1061 1.415 . S
C1061 H1031 0.950 . S
C1061 C1056 1.363 . S
C1061 C1060 1.415 . S
H1062 C1059 0.999 . S
H1063 C1044 0.913 . S
H1064 C1082 0.951 . S
H1065 C1084 0.951 . S
H1066 C1086 0.950 1_554 S
H1067 C1087 0.950 . S
H1068 C1089 0.950 . S
H1069 C1092 0.950 . S
H1070 C1093 0.950 . S
H1071 C1095 0.950 . S
H1072 C1096 0.950 . S
H1073 C1097 0.951 . S
H1074 C1099 0.951 . S
H1075 C1101 0.950 . S
H1076 C1102 0.950 . S
H1077 C1104 0.950 . S
H1078 C1107 0.950 . S
H1079 C1108 0.950 . S
H1080 C1110 0.950 . S
H1081 C1111 0.950 . S
C1082 H1064 0.951 . S
C1082 C1083 1.367 . S
C1082 C1084 1.388 . S
C1083 C1082 1.367 . S
C1083 C1087 1.385 1_556 S
C1084 H1065 0.951 . S
C1084 C1082 1.388 . S
C1084 C1085 1.366 . S
C1085 C1084 1.366 . S
C1085 C1086 1.414 . S
C1085 C1088 1.499 . S
C1086 H1066 0.950 1_556 S
C1086 C1085 1.414 . S
C1086 C1087 1.376 1_556 S
C1087 H1067 0.950 . S
C1087 C1083 1.385 1_554 S
C1087 C1086 1.376 1_554 S
C1088 C1085 1.499 . S
C1088 C1089 1.373 . S
C1088 C1090 1.389 1_455 S
C1089 H1068 0.950 . S
C1089 C1088 1.373 . S
C1089 C1105 1.377 . S
C1090 C1088 1.389 1_655 S
C1090 C1091 1.524 . S
C1090 C1104 1.377 . S
C1091 C1090 1.524 . S
C1091 C1092 1.397 . S
C1091 C1096 1.363 . S
C1092 H1069 0.950 . S
C1092 C1091 1.397 . S
C1092 C1093 1.334 . S
C1093 H1070 0.950 . S
C1093 C1092 1.334 . S
C1093 C1094 1.287 . S
C1094 C1093 1.287 . S
C1094 C1095 1.524 . S
C1094 H1113 0.913 . S
C1095 H1071 0.950 . S
C1095 C1094 1.524 . S
C1095 C1096 1.415 . S
C1096 H1072 0.950 . S
C1096 C1091 1.363 . S
C1096 C1095 1.415 . S
C1097 H1073 0.951 . S
C1097 C1098 1.366 . S
C1097 C1099 1.388 . S
C1098 C1097 1.366 . S
C1098 C1102 1.385 . S
C1099 H1074 0.951 . S
C1099 C1097 1.388 . S
C1099 C1100 1.366 . S
C1100 C1099 1.366 . S
C1100 C1101 1.414 . S
C1100 C1103 1.499 . S
C1101 H1075 0.950 . S
C1101 C1100 1.414 . S
C1101 C1102 1.374 . S
C1102 H1076 0.950 . S
C1102 C1098 1.385 . S
C1102 C1101 1.374 . S
C1103 C1100 1.499 . S
C1103 C1104 1.373 1_455 S
C1103 C1105 1.389 . S
C1104 H1077 0.950 . S
C1104 C1090 1.377 . S
C1104 C1103 1.373 1_655 S
C1105 C1089 1.377 . S
C1105 C1103 1.389 . S
C1105 C1106 1.524 . S
C1106 C1105 1.524 . S
C1106 C1107 1.397 . S
C1106 C1111 1.363 1_556 S
C1107 H1078 0.950 . S
C1107 C1106 1.397 . S
C1107 C1108 1.334 . S
C1108 H1079 0.950 . S
C1108 C1107 1.334 . S
C1108 C1109 1.287 1_556 S
C1109 C1108 1.287 1_554 S
C1109 C1110 1.524 . S
C1109 H1112 0.999 . S
C1110 H1080 0.950 . S
C1110 C1109 1.524 . S
C1110 C1111 1.415 . S
C1111 H1081 0.950 . S
C1111 C1106 1.363 1_554 S
C1111 C1110 1.415 . S
H1112 C1109 0.999 . S
H1113 C1094 0.913 . S
H1114 C1132 0.951 . S
H1115 C1134 0.951 1_554 S
H1116 C1136 0.947 1_565 S
H1117 C1137 0.953 . S
H1118 C1139 0.950 . S
H1119 C1142 0.950 . S
H1120 C1143 0.950 . S
H1121 C1145 0.950 . S
H1122 C1146 0.950 . S
H1123 C1147 0.951 . S
H1124 C1149 0.951 . S
H1125 C1151 0.950 . S
H1126 C1152 0.950 . S
H1127 C1154 0.950 . S
H1128 C1157 0.950 . S
H1129 C1158 0.950 . S
H1130 C1160 0.950 . S
H1131 C1161 0.950 . S
C1132 H1114 0.951 . S
C1132 C1133 1.372 1_554 S
C1132 C1134 1.388 1_554 S
C1133 C1132 1.372 1_556 S
C1133 C1137 1.382 1_545 S
C1134 H1115 0.951 1_556 S
C1134 C1132 1.388 1_556 S
C1134 C1135 1.366 . S
C1135 C1134 1.366 . S
C1135 C1136 1.418 . S
C1135 C1138 1.499 . S
C1136 H1116 0.947 1_545 S
C1136 C1135 1.418 . S
C1136 C1137 1.372 1_545 S
C1137 H1117 0.953 . S
C1137 C1133 1.382 1_565 S
C1137 C1136 1.372 1_565 S
C1138 C1135 1.499 . S
C1138 C1139 1.373 1_545 S
C1138 C1140 1.389 . S
C1139 H1118 0.950 . S
C1139 C1138 1.373 1_565 S
C1139 C1155 1.377 . S
C1140 C1138 1.389 . S
C1140 C1141 1.524 . S
C1140 C1154 1.377 . S
C1141 C1140 1.524 . S
C1141 C1142 1.397 . S
C1141 C1146 1.363 1_556 S
C1142 H1119 0.950 . S
C1142 C1141 1.397 . S
C1142 C1143 1.334 . S
C1143 H1120 0.950 . S
C1143 C1142 1.334 . S
C1143 C1144 1.287 1_556 S
C1144 C1143 1.287 1_554 S
C1144 C1145 1.524 . S
C1144 H1163 0.913 . S
C1145 H1121 0.950 . S
C1145 C1144 1.524 . S
C1145 C1146 1.415 . S
C1146 H1122 0.950 . S
C1146 C1141 1.363 1_554 S
C1146 C1145 1.415 . S
C1147 H1123 0.951 . S
C1147 C1148 1.366 . S
C1147 C1149 1.388 . S
C1148 C1147 1.366 . S
C1148 C1152 1.385 . S
C1149 H1124 0.951 . S
C1149 C1147 1.388 . S
C1149 C1150 1.366 . S
C1150 C1149 1.366 . S
C1150 C1151 1.414 . S
C1150 C1153 1.499 . S
C1151 H1125 0.950 . S
C1151 C1150 1.414 . S
C1151 C1152 1.374 . S
C1152 H1126 0.950 . S
C1152 C1148 1.385 . S
C1152 C1151 1.374 . S
C1153 C1150 1.499 . S
C1153 C1154 1.373 . S
C1153 C1155 1.389 1_545 S
C1154 H1127 0.950 . S
C1154 C1140 1.377 . S
C1154 C1153 1.373 . S
C1155 C1139 1.377 . S
C1155 C1153 1.389 1_565 S
C1155 C1156 1.524 . S
C1156 C1155 1.524 . S
C1156 C1157 1.397 . S
C1156 C1161 1.363 . S
C1157 H1128 0.950 . S
C1157 C1156 1.397 . S
C1157 C1158 1.334 . S
C1158 H1129 0.950 . S
C1158 C1157 1.334 . S
C1158 C1159 1.287 . S
C1159 C1158 1.287 . S
C1159 C1160 1.524 . S
C1159 H1162 0.999 . S
C1160 H1130 0.950 . S
C1160 C1159 1.524 . S
C1160 C1161 1.415 . S
C1161 H1131 0.950 . S
C1161 C1156 1.363 . S
C1161 C1160 1.415 . S
H1162 C1159 0.999 . S
H1163 C1144 0.913 . S
H1164 C1182 0.951 1_554 S
H1165 C1184 0.951 1_554 S
H1166 C1186 0.950 . S
H1167 C1187 0.950 . S
H1168 C1189 0.950 . S
H1169 C1192 0.950 . S
H1170 C1193 0.950 . S
H1171 C1195 0.950 . S
H1172 C1196 0.950 . S
H1173 C1197 0.951 . S
H1174 C1199 0.951 . S
H1175 C1201 0.950 . S
H1176 C1202 0.950 . S
H1177 C1204 0.950 . S
H1178 C1207 0.950 . S
H1179 C1208 0.950 . S
H1180 C1210 0.950 . S
H1181 C1211 0.950 . S
C1182 H1164 0.951 1_556 S
C1182 C1183 1.366 . S
C1182 C1184 1.388 . S
C1183 C1182 1.366 . S
C1183 C1187 1.385 . S
C1184 H1165 0.951 1_556 S
C1184 C1182 1.388 . S
C1184 C1185 1.366 . S
C1185 C1184 1.366 . S
C1185 C1186 1.414 . S
C1185 C1188 1.499 . S
C1186 H1166 0.950 . S
C1186 C1185 1.414 . S
C1186 C1187 1.374 . S
C1187 H1167 0.950 . S
C1187 C1183 1.385 . S
C1187 C1186 1.374 . S
C1188 C1185 1.499 . S
C1188 C1189 1.373 . S
C1188 C1190 1.389 . S
C1189 H1168 0.950 . S
C1189 C1188 1.373 . S
C1189 C1205 1.377 . S
C1190 C1188 1.389 . S
C1190 C1191 1.524 . S
C1190 C1204 1.377 . S
C1191 C1190 1.524 . S
C1191 C1192 1.397 . S
C1191 C1196 1.363 . S
C1192 H1169 0.950 . S
C1192 C1191 1.397 . S
C1192 C1193 1.334 . S
C1193 H1170 0.950 . S
C1193 C1192 1.334 . S
C1193 C1194 1.287 . S
C1194 C1193 1.287 . S
C1194 C1195 1.524 . S
C1194 H1213 0.913 . S
C1195 H1171 0.950 . S
C1195 C1194 1.524 . S
C1195 C1196 1.415 . S
C1196 H1172 0.950 . S
C1196 C1191 1.363 . S
C1196 C1195 1.415 . S
C1197 H1173 0.951 . S
C1197 C1198 1.366 . S
C1197 C1199 1.388 . S
C1198 C1197 1.366 . S
C1198 C1202 1.385 . S
C1199 H1174 0.951 . S
C1199 C1197 1.388 . S
C1199 C1200 1.366 . S
C1200 C1199 1.366 . S
C1200 C1201 1.414 . S
C1200 C1203 1.499 . S
C1201 H1175 0.950 . S
C1201 C1200 1.414 . S
C1201 C1202 1.374 . S
C1202 H1176 0.950 . S
C1202 C1198 1.385 . S
C1202 C1201 1.374 . S
C1203 C1200 1.499 . S
C1203 C1204 1.373 . S
C1203 C1205 1.389 . S
C1204 H1177 0.950 . S
C1204 C1190 1.377 . S
C1204 C1203 1.373 . S
C1205 C1189 1.377 . S
C1205 C1203 1.389 . S
C1205 C1206 1.524 . S
C1206 C1205 1.524 . S
C1206 C1207 1.397 . S
C1206 C1211 1.363 . S
C1207 H1178 0.950 . S
C1207 C1206 1.397 . S
C1207 C1208 1.334 . S
C1208 H1179 0.950 . S
C1208 C1207 1.334 . S
C1208 C1209 1.287 . S
C1209 C1208 1.287 . S
C1209 C1210 1.524 . S
C1209 H1212 0.999 . S
C1210 H1180 0.950 . S
C1210 C1209 1.524 . S
C1210 C1211 1.415 . S
C1211 H1181 0.950 . S
C1211 C1206 1.363 . S
C1211 C1210 1.415 . S
H1212 C1209 0.999 . S
H1213 C1194 0.913 . S
H1214 C1232 0.951 . S
H1215 C1234 0.951 1_554 S
H1216 C1236 0.950 . S
H1217 C1237 0.950 . S
H1218 C1239 0.950 . S
H1219 C1242 0.950 . S
H1220 C1243 0.950 . S
H1221 C1245 0.941 1_554 S
H1222 C1246 0.950 1_554 S
H1223 C1247 0.951 . S
H1224 C1249 0.951 . S
H1225 C1251 0.950 . S
H1226 C1252 0.950 . S
H1227 C1254 0.950 . S
H1228 C1257 0.950 . S
H1229 C1258 0.950 . S
H1230 C1260 0.950 . S
H1231 C1261 0.950 . S
C1232 H1214 0.951 . S
C1232 C1233 1.366 1_554 S
C1232 C1234 1.388 1_554 S
C1233 C1232 1.366 1_556 S
C1233 C1237 1.385 . S
C1234 H1215 0.951 1_556 S
C1234 C1232 1.388 1_556 S
C1234 C1235 1.366 . S
C1235 C1234 1.366 . S
C1235 C1236 1.414 . S
C1235 C1238 1.499 . S
C1236 H1216 0.950 . S
C1236 C1235 1.414 . S
C1236 C1237 1.374 . S
C1237 H1217 0.950 . S
C1237 C1233 1.385 . S
C1237 C1236 1.374 . S
C1238 C1235 1.499 . S
C1238 C1239 1.373 . S
C1238 C1240 1.389 . S
C1239 H1218 0.950 . S
C1239 C1238 1.373 . S
C1239 C1255 1.377 . S
C1240 C1238 1.389 . S
C1240 C1241 1.524 . S
C1240 C1254 1.377 . S
C1241 C1240 1.524 . S
C1241 C1242 1.397 . S
C1241 C1246 1.363 . S
C1242 H1219 0.950 . S
C1242 C1241 1.397 . S
C1242 C1243 1.334 . S
C1243 H1220 0.950 . S
C1243 C1242 1.334 . S
C1243 C1244 1.287 . S
C1244 C1243 1.287 . S
C1244 C1245 1.532 . S
C1244 H1263 0.913 . S
C1245 H1221 0.941 1_556 S
C1245 C1244 1.532 . S
C1245 C1246 1.417 . S
C1246 H1222 0.950 1_556 S
C1246 C1241 1.363 . S
C1246 C1245 1.417 . S
C1247 H1223 0.951 . S
C1247 C1248 1.366 . S
C1247 C1249 1.388 . S
C1248 C1247 1.366 . S
C1248 C1252 1.385 . S
C1249 H1224 0.951 . S
C1249 C1247 1.388 . S
C1249 C1250 1.366 . S
C1250 C1249 1.366 . S
C1250 C1251 1.414 . S
C1250 C1253 1.499 . S
C1251 H1225 0.950 . S
C1251 C1250 1.414 . S
C1251 C1252 1.374 . S
C1252 H1226 0.950 . S
C1252 C1248 1.385 . S
C1252 C1251 1.374 . S
C1253 C1250 1.499 . S
C1253 C1254 1.373 . S
C1253 C1255 1.389 . S
C1254 H1227 0.950 . S
C1254 C1240 1.377 . S
C1254 C1253 1.373 . S
C1255 C1239 1.377 . S
C1255 C1253 1.389 . S
C1255 C1256 1.524 . S
C1256 C1255 1.524 . S
C1256 C1257 1.397 . S
C1256 C1261 1.363 . S
C1257 H1228 0.950 . S
C1257 C1256 1.397 . S
C1257 C1258 1.334 . S
C1258 H1229 0.950 . S
C1258 C1257 1.334 . S
C1258 C1259 1.287 . S
C1259 C1258 1.287 . S
C1259 C1260 1.524 . S
C1259 H1262 0.999 . S
C1260 H1230 0.950 . S
C1260 C1259 1.524 . S
C1260 C1261 1.415 . S
C1261 H1231 0.950 . S
C1261 C1256 1.363 . S
C1261 C1260 1.415 . S
H1262 C1259 0.999 . S
H1263 C1244 0.913 . S
H1264 C1282 0.951 . S
H1265 C1284 0.951 . S
H1266 C1286 0.950 . S
H1267 C1287 0.950 . S
H1268 C1289 0.950 . S
H1269 C1292 0.950 . S
H1270 C1293 0.950 . S
H1271 C1295 0.950 . S
H1272 C1296 0.950 . S
H1273 C1297 0.951 . S
H1274 C1299 0.951 . S
H1275 C1301 0.950 . S
H1276 C1302 0.950 . S
H1277 C1304 0.950 . S
H1278 C1307 0.950 . S
H1279 C1308 0.950 . S
H1280 C1310 0.950 . S
H1281 C1311 0.950 . S
C1282 H1264 0.951 . S
C1282 C1283 1.328 1_455 S
C1282 C1284 1.388 . S
C1283 C1282 1.328 1_655 S
C1283 C1287 1.424 . S
C1284 H1265 0.951 . S
C1284 C1282 1.388 . S
C1284 C1285 1.366 1_455 S
C1285 C1284 1.366 1_655 S
C1285 C1286 1.414 . S
C1285 C1288 1.499 . S
C1286 H1266 0.950 . S
C1286 C1285 1.414 . S
C1286 C1287 1.374 . S
C1287 H1267 0.950 . S
C1287 C1283 1.424 . S
C1287 C1286 1.374 . S
C1288 C1285 1.499 . S
C1288 C1289 1.373 . S
C1288 C1290 1.389 1_655 S
C1289 H1268 0.950 . S
C1289 C1288 1.373 . S
C1289 C1305 1.377 . S
C1290 C1288 1.389 1_455 S
C1290 C1291 1.524 . S
C1290 C1304 1.377 . S
C1291 C1290 1.524 . S
C1291 C1292 1.397 . S
C1291 C1296 1.363 . S
C1292 H1269 0.950 . S
C1292 C1291 1.397 . S
C1292 C1293 1.334 . S
C1293 H1270 0.950 . S
C1293 C1292 1.334 . S
C1293 C1294 1.287 . S
C1294 C1293 1.287 . S
C1294 C1295 1.524 . S
C1294 H1313 0.913 . S
C1295 H1271 0.950 . S
C1295 C1294 1.524 . S
C1295 C1296 1.415 . S
C1296 H1272 0.950 . S
C1296 C1291 1.363 . S
C1296 C1295 1.415 . S
C1297 H1273 0.951 . S
C1297 C1298 1.366 . S
C1297 C1299 1.388 . S
C1298 C1297 1.366 . S
C1298 C1302 1.385 1_655 S
C1299 H1274 0.951 . S
C1299 C1297 1.388 . S
C1299 C1300 1.366 . S
C1300 C1299 1.366 . S
C1300 C1301 1.414 1_655 S
C1300 C1303 1.499 . S
C1301 H1275 0.950 . S
C1301 C1300 1.414 1_455 S
C1301 C1302 1.374 . S
C1302 H1276 0.950 . S
C1302 C1298 1.385 1_455 S
C1302 C1301 1.374 . S
C1303 C1300 1.499 . S
C1303 C1304 1.373 1_655 S
C1303 C1305 1.389 . S
C1304 H1277 0.950 . S
C1304 C1290 1.377 . S
C1304 C1303 1.373 1_455 S
C1305 C1289 1.377 . S
C1305 C1303 1.389 . S
C1305 C1306 1.524 . S
C1306 C1305 1.524 . S
C1306 C1307 1.397 . S
C1306 C1311 1.363 . S
C1307 H1278 0.950 . S
C1307 C1306 1.397 . S
C1307 C1308 1.334 . S
C1308 H1279 0.950 . S
C1308 C1307 1.334 . S
C1308 C1309 1.287 . S
C1309 C1308 1.287 . S
C1309 C1310 1.524 . S
C1309 H1312 0.999 . S
C1310 H1280 0.950 . S
C1310 C1309 1.524 . S
C1310 C1311 1.415 . S
C1311 H1281 0.950 . S
C1311 C1306 1.363 . S
C1311 C1310 1.415 . S
H1312 C1309 0.999 . S
H1313 C1294 0.913 . S
H1314 C1332 0.953 . S
H1315 C1334 0.949 . S
H1316 C1336 0.950 . S
H1317 C1337 0.950 . S
H1318 C1339 0.950 . S
H1319 C1342 0.950 . S
H1320 C1343 0.950 . S
H1321 C1345 0.950 . S
H1322 C1346 0.950 . S
H1323 C1347 0.951 . S
H1324 C1349 0.951 . S
H1325 C1351 0.950 . S
H1326 C1352 0.950 . S
H1327 C1354 0.950 . S
H1328 C1357 0.950 . S
H1329 C1358 0.950 . S
H1330 C1360 0.950 . S
H1331 C1361 0.950 . S
C1332 H1314 0.953 . S
C1332 C1333 1.364 1_545 S
C1332 C1334 1.388 . S
C1333 C1332 1.364 1_565 S
C1333 C1337 1.388 . S
C1334 H1315 0.949 . S
C1334 C1332 1.388 . S
C1334 C1335 1.365 1_545 S
C1335 C1334 1.365 1_565 S
C1335 C1336 1.414 . S
C1335 C1338 1.499 . S
C1336 H1316 0.950 . S
C1336 C1335 1.414 . S
C1336 C1337 1.374 . S
C1337 H1317 0.950 . S
C1337 C1333 1.388 . S
C1337 C1336 1.374 . S
C1338 C1335 1.499 . S
C1338 C1339 1.373 . S
C1338 C1340 1.389 1_565 S
C1339 H1318 0.950 . S
C1339 C1338 1.373 . S
C1339 C1355 1.377 . S
C1340 C1338 1.389 1_545 S
C1340 C1341 1.524 . S
C1340 C1354 1.377 . S
C1341 C1340 1.524 . S
C1341 C1342 1.397 . S
C1341 C1346 1.363 . S
C1342 H1319 0.950 . S
C1342 C1341 1.397 . S
C1342 C1343 1.334 . S
C1343 H1320 0.950 . S
C1343 C1342 1.334 . S
C1343 C1344 1.287 . S
C1344 C1343 1.287 . S
C1344 C1345 1.524 . S
C1344 H1363 0.913 . S
C1345 H1321 0.950 . S
C1345 C1344 1.524 . S
C1345 C1346 1.415 . S
C1346 H1322 0.950 . S
C1346 C1341 1.363 . S
C1346 C1345 1.415 . S
C1347 H1323 0.951 . S
C1347 C1348 1.366 . S
C1347 C1349 1.388 . S
C1348 C1347 1.366 . S
C1348 C1352 1.385 . S
C1349 H1324 0.951 . S
C1349 C1347 1.388 . S
C1349 C1350 1.366 . S
C1350 C1349 1.366 . S
C1350 C1351 1.414 . S
C1350 C1353 1.499 . S
C1351 H1325 0.950 . S
C1351 C1350 1.414 . S
C1351 C1352 1.374 . S
C1352 H1326 0.950 . S
C1352 C1348 1.385 . S
C1352 C1351 1.374 . S
C1353 C1350 1.499 . S
C1353 C1354 1.373 1_565 S
C1353 C1355 1.389 . S
C1354 H1327 0.950 . S
C1354 C1340 1.377 . S
C1354 C1353 1.373 1_545 S
C1355 C1339 1.377 . S
C1355 C1353 1.389 . S
C1355 C1356 1.524 . S
C1356 C1355 1.524 . S
C1356 C1357 1.397 . S
C1356 C1361 1.363 . S
C1357 H1328 0.950 . S
C1357 C1356 1.397 . S
C1357 C1358 1.334 . S
C1358 H1329 0.950 . S
C1358 C1357 1.334 . S
C1358 C1359 1.287 . S
C1359 C1358 1.287 . S
C1359 C1360 1.524 . S
C1359 H1362 0.999 . S
C1360 H1330 0.950 . S
C1360 C1359 1.524 . S
C1360 C1361 1.415 . S
C1361 H1331 0.950 . S
C1361 C1356 1.363 . S
C1361 C1360 1.415 . S
H1362 C1359 0.999 . S
H1363 C1344 0.913 . S
H1364 C1382 0.951 . S
H1365 C1384 0.951 . S
H1366 C1386 0.950 . S
H1367 C1387 0.950 . S
H1368 C1389 0.950 . S
H1369 C1392 0.950 . S
H1370 C1393 0.950 . S
H1371 C1395 0.950 . S
H1372 C1396 0.950 . S
H1373 C1397 0.951 . S
H1374 C1399 0.951 . S
H1375 C1401 0.950 . S
H1376 C1402 0.950 . S
H1377 C1404 0.950 . S
H1378 C1407 0.950 . S
H1379 C1408 0.950 . S
H1380 C1410 0.950 . S
H1381 C1411 0.950 . S
C1382 H1364 0.951 . S
C1382 C1383 1.366 . S
C1382 C1384 1.388 . S
C1383 C1382 1.366 . S
C1383 C1387 1.385 . S
C1384 H1365 0.951 . S
C1384 C1382 1.388 . S
C1384 C1385 1.366 . S
C1385 C1384 1.366 . S
C1385 C1386 1.414 . S
C1385 C1388 1.499 . S
C1386 H1366 0.950 . S
C1386 C1385 1.414 . S
C1386 C1387 1.374 . S
C1387 H1367 0.950 . S
C1387 C1383 1.385 . S
C1387 C1386 1.374 . S
C1388 C1385 1.499 . S
C1388 C1389 1.373 . S
C1388 C1390 1.389 . S
C1389 H1368 0.950 . S
C1389 C1388 1.373 . S
C1389 C1405 1.377 . S
C1390 C1388 1.389 . S
C1390 C1391 1.524 . S
C1390 C1404 1.377 . S
C1391 C1390 1.524 . S
C1391 C1392 1.397 . S
C1391 C1396 1.363 . S
C1392 H1369 0.950 . S
C1392 C1391 1.397 . S
C1392 C1393 1.334 . S
C1393 H1370 0.950 . S
C1393 C1392 1.334 . S
C1393 C1394 1.287 . S
C1394 C1393 1.287 . S
C1394 C1395 1.524 . S
C1394 H1413 0.913 . S
C1395 H1371 0.950 . S
C1395 C1394 1.524 . S
C1395 C1396 1.415 . S
C1396 H1372 0.950 . S
C1396 C1391 1.363 . S
C1396 C1395 1.415 . S
C1397 H1373 0.951 . S
C1397 C1398 1.366 . S
C1397 C1399 1.388 . S
C1398 C1397 1.366 . S
C1398 C1402 1.385 . S
C1399 H1374 0.951 . S
C1399 C1397 1.388 . S
C1399 C1400 1.366 . S
C1400 C1399 1.366 . S
C1400 C1401 1.414 . S
C1400 C1403 1.499 . S
C1401 H1375 0.950 . S
C1401 C1400 1.414 . S
C1401 C1402 1.374 . S
C1402 H1376 0.950 . S
C1402 C1398 1.385 . S
C1402 C1401 1.374 . S
C1403 C1400 1.499 . S
C1403 C1404 1.373 . S
C1403 C1405 1.389 . S
C1404 H1377 0.950 . S
C1404 C1390 1.377 . S
C1404 C1403 1.373 . S
C1405 C1389 1.377 . S
C1405 C1403 1.389 . S
C1405 C1406 1.524 . S
C1406 C1405 1.524 . S
C1406 C1407 1.397 . S
C1406 C1411 1.363 . S
C1407 H1378 0.950 . S
C1407 C1406 1.397 . S
C1407 C1408 1.334 . S
C1408 H1379 0.950 . S
C1408 C1407 1.334 . S
C1408 C1409 1.287 . S
C1409 C1408 1.287 . S
C1409 C1410 1.524 . S
C1409 H1412 0.999 . S
C1410 H1380 0.950 . S
C1410 C1409 1.524 . S
C1410 C1411 1.415 . S
C1411 H1381 0.950 . S
C1411 C1406 1.363 . S
C1411 C1410 1.415 . S
H1412 C1409 0.999 . S
H1413 C1394 0.913 . S
H1414 C1432 0.951 . S
H1415 C1434 0.951 . S
H1416 C1436 0.950 . S
H1417 C1437 0.950 . S
H1418 C1439 0.950 . S
H1419 C1442 0.950 . S
H1420 C1443 0.950 . S
H1421 C1445 0.950 . S
H1422 C1446 0.950 . S
H1423 C1447 0.951 . S
H1424 C1449 0.951 . S
H1425 C1451 0.950 . S
H1426 C1452 0.950 . S
H1427 C1454 0.950 . S
H1428 C1457 0.950 . S
H1429 C1458 0.950 . S
H1430 C1460 0.950 . S
H1431 C1461 0.950 . S
C1432 H1414 0.951 . S
C1432 C1433 1.366 . S
C1432 C1434 1.388 . S
C1433 C1432 1.366 . S
C1433 C1437 1.385 . S
C1434 H1415 0.951 . S
C1434 C1432 1.388 . S
C1434 C1435 1.366 . S
C1435 C1434 1.366 . S
C1435 C1436 1.414 . S
C1435 C1438 1.499 . S
C1436 H1416 0.950 . S
C1436 C1435 1.414 . S
C1436 C1437 1.374 . S
C1437 H1417 0.950 . S
C1437 C1433 1.385 . S
C1437 C1436 1.374 . S
C1438 C1435 1.499 . S
C1438 C1439 1.373 . S
C1438 C1440 1.389 . S
C1439 H1418 0.950 . S
C1439 C1438 1.373 . S
C1439 C1455 1.377 . S
C1440 C1438 1.389 . S
C1440 C1441 1.524 . S
C1440 C1454 1.377 . S
C1441 C1440 1.524 . S
C1441 C1442 1.397 . S
C1441 C1446 1.363 . S
C1442 H1419 0.950 . S
C1442 C1441 1.397 . S
C1442 C1443 1.334 . S
C1443 H1420 0.950 . S
C1443 C1442 1.334 . S
C1443 C1444 1.287 . S
C1444 C1443 1.287 . S
C1444 C1445 1.524 . S
C1444 H1463 0.913 . S
C1445 H1421 0.950 . S
C1445 C1444 1.524 . S
C1445 C1446 1.415 . S
C1446 H1422 0.950 . S
C1446 C1441 1.363 . S
C1446 C1445 1.415 . S
C1447 H1423 0.951 . S
C1447 C1448 1.366 . S
C1447 C1449 1.388 . S
C1448 C1447 1.366 . S
C1448 C1452 1.385 . S
C1449 H1424 0.951 . S
C1449 C1447 1.388 . S
C1449 C1450 1.366 . S
C1450 C1449 1.366 . S
C1450 C1451 1.414 . S
C1450 C1453 1.499 . S
C1451 H1425 0.950 . S
C1451 C1450 1.414 . S
C1451 C1452 1.374 . S
C1452 H1426 0.950 . S
C1452 C1448 1.385 . S
C1452 C1451 1.374 . S
C1453 C1450 1.499 . S
C1453 C1454 1.373 . S
C1453 C1455 1.389 . S
C1454 H1427 0.950 . S
C1454 C1440 1.377 . S
C1454 C1453 1.373 . S
C1455 C1439 1.377 . S
C1455 C1453 1.389 . S
C1455 C1456 1.524 . S
C1456 C1455 1.524 . S
C1456 C1457 1.397 . S
C1456 C1461 1.363 . S
C1457 H1428 0.950 . S
C1457 C1456 1.397 . S
C1457 C1458 1.334 . S
C1458 H1429 0.950 . S
C1458 C1457 1.334 . S
C1458 C1459 1.287 . S
C1459 C1458 1.287 . S
C1459 C1460 1.524 . S
C1459 H1462 0.999 . S
C1460 H1430 0.950 . S
C1460 C1459 1.524 . S
C1460 C1461 1.415 . S
C1461 H1431 0.950 . S
C1461 C1456 1.363 . S
C1461 C1460 1.415 . S
H1462 C1459 0.999 . S
H1463 C1444 0.913 . S
C283 N80 1.813 1_545 S
C298 C106 1.855 1_545 S
C348 C146 1.866 . S
C333 N93 1.813 . S
C398 C186 1.869 . S
C383 N54 1.822 . S
C448 C226 1.861 1_455 S
C433 N67 1.815 1_455 S
C498 C119 1.860 1_565 S
C483 N28 1.818 1_545 S
C533 N41 1.817 . S
C548 C159 1.869 . S
C583 N2 1.820 . S
C598 C199 1.868 . S
C633 N15 1.816 . S
C648 C239 1.863 1_655 S
C698 C130 0.246 . S
C683 N70 0.237 1_455 S
C748 C170 0.252 . S
C733 N83 0.250 1_545 S
C798 C210 0.257 . S
C783 N96 0.254 . S
C833 N57 0.248 . S
C848 C250 0.247 . S
C883 N18 0.238 . S
C898 C113 0.246 . S
C948 C153 0.251 . S
C933 N31 0.234 . S
C998 C193 0.259 . S
C983 N44 0.248 . S
C1033 N5 0.239 . S
C1048 C233 0.255 . S
C1083 N66 2.001 1_456 S
C1098 C107 2.077 . S
C1133 N79 1.986 1_546 S
C1148 C147 2.069 . S
C1198 C187 2.061 . S
C1183 N92 1.976 1_556 S
C1248 C227 2.075 . S
C1233 N53 1.990 1_556 S
C1283 N14 2.001 . S
C1298 C126 2.091 . S
C1348 C166 2.069 . S
C1333 N27 1.987 . S
C1398 C206 2.060 . S
C1383 N40 1.977 . S
C1433 N1 1.991 . S
C1448 C246 2.081 . S
