# Generated by pormake.
# Topology sqc, (4,8)-cn, num edge types: 1
# Building blocks:
#     Node 0, Type 0, BuildingBlock: AZAVOO_clean_linker_0, # of connection points: 4
#     Node 1, Type 0, BuildingBlock: AZAVOO_clean_linker_0, # of connection points: 4
#     Node 2, Type 0, BuildingBlock: AZAVOO_clean_linker_0, # of connection points: 4
#     Node 3, Type 0, BuildingBlock: AZAVOO_clean_linker_0, # of connection points: 4
#     Node 4, Type 0, BuildingBlock: AZAVOO_clean_linker_0, # of connection points: 4
#     Node 5, Type 0, BuildingBlock: AZAVOO_clean_linker_0, # of connection points: 4
#     Node 6, Type 0, BuildingBlock: AZAVOO_clean_linker_0, # of connection points: 4
#     Node 7, Type 0, BuildingBlock: AZAVOO_clean_linker_0, # of connection points: 4
#     Node 8, Type 1, BuildingBlock: VETTIZ_charged_sbu_0, # of connection points: 8
#     Node 9, Type 1, BuildingBlock: VETTIZ_charged_sbu_0, # of connection points: 8
#     Node 10, Type 1, BuildingBlock: VETTIZ_charged_sbu_0, # of connection points: 8
#     Node 11, Type 1, BuildingBlock: VETTIZ_charged_sbu_0, # of connection points: 8
#     Edge 12, Type (0, 1), BuildingBlock: AJUNOK_clean_linker_0, # of connection points: 2
#     Edge 13, Type (0, 1), BuildingBlock: AJUNOK_clean_linker_0, # of connection points: 2
#     Edge 14, Type (0, 1), BuildingBlock: AJUNOK_clean_linker_0, # of connection points: 2
#     Edge 15, Type (0, 1), BuildingBlock: AJUNOK_clean_linker_0, # of connection points: 2
#     Edge 16, Type (0, 1), BuildingBlock: AJUNOK_clean_linker_0, # of connection points: 2
#     Edge 17, Type (0, 1), BuildingBlock: AJUNOK_clean_linker_0, # of connection points: 2
#     Edge 18, Type (0, 1), BuildingBlock: AJUNOK_clean_linker_0, # of connection points: 2
#     Edge 19, Type (0, 1), BuildingBlock: AJUNOK_clean_linker_0, # of connection points: 2
#     Edge 20, Type (0, 1), BuildingBlock: AJUNOK_clean_linker_0, # of connection points: 2
#     Edge 21, Type (0, 1), BuildingBlock: AJUNOK_clean_linker_0, # of connection points: 2
#     Edge 22, Type (0, 1), BuildingBlock: AJUNOK_clean_linker_0, # of connection points: 2
#     Edge 23, Type (0, 1), BuildingBlock: AJUNOK_clean_linker_0, # of connection points: 2
#     Edge 24, Type (0, 1), BuildingBlock: AJUNOK_clean_linker_0, # of connection points: 2
#     Edge 25, Type (0, 1), BuildingBlock: AJUNOK_clean_linker_0, # of connection points: 2
#     Edge 26, Type (0, 1), BuildingBlock: AJUNOK_clean_linker_0, # of connection points: 2
#     Edge 27, Type (0, 1), BuildingBlock: AJUNOK_clean_linker_0, # of connection points: 2
#     Edge 28, Type (0, 1), BuildingBlock: AJUNOK_clean_linker_0, # of connection points: 2
#     Edge 29, Type (0, 1), BuildingBlock: AJUNOK_clean_linker_0, # of connection points: 2
#     Edge 30, Type (0, 1), BuildingBlock: AJUNOK_clean_linker_0, # of connection points: 2
#     Edge 31, Type (0, 1), BuildingBlock: AJUNOK_clean_linker_0, # of connection points: 2
#     Edge 32, Type (0, 1), BuildingBlock: AJUNOK_clean_linker_0, # of connection points: 2
#     Edge 33, Type (0, 1), BuildingBlock: AJUNOK_clean_linker_0, # of connection points: 2
#     Edge 34, Type (0, 1), BuildingBlock: AJUNOK_clean_linker_0, # of connection points: 2
#     Edge 35, Type (0, 1), BuildingBlock: AJUNOK_clean_linker_0, # of connection points: 2
#     Edge 36, Type (0, 1), BuildingBlock: AJUNOK_clean_linker_0, # of connection points: 2
#     Edge 37, Type (0, 1), BuildingBlock: AJUNOK_clean_linker_0, # of connection points: 2
#     Edge 38, Type (0, 1), BuildingBlock: AJUNOK_clean_linker_0, # of connection points: 2
#     Edge 39, Type (0, 1), BuildingBlock: AJUNOK_clean_linker_0, # of connection points: 2
#     Edge 40, Type (0, 1), BuildingBlock: AJUNOK_clean_linker_0, # of connection points: 2
#     Edge 41, Type (0, 1), BuildingBlock: AJUNOK_clean_linker_0, # of connection points: 2
#     Edge 42, Type (0, 1), BuildingBlock: AJUNOK_clean_linker_0, # of connection points: 2
#     Edge 43, Type (0, 1), BuildingBlock: AJUNOK_clean_linker_0, # of connection points: 2
# Relax obj value: 0.175
# Max RMSD: 0.298
# Mean RMSD: 0.234
data_MOF--net-sqc--node1-VETTIZ_charged_sbu_0--node2-AZAVOO_clean_linker_0--edge1-AJUNOK_clean_linker_0
_symmetry_space_group_name_H-M    P1
_symmetry_Int_Tables_number       1
_symmetry_cell_setting            triclinic
loop_
_symmetry_equiv_pos_as_xyz
'x, y, z'
_cell_length_a     20.877124
_cell_length_b     20.997653
_cell_length_c     70.591792
_cell_angle_alpha  90.559874
_cell_angle_beta   90.062227
_cell_angle_gamma 90.355213
loop_
_atom_site_label
_atom_site_type_symbol
_atom_site_fract_x
_atom_site_fract_y
_atom_site_fract_z
_atom_type_partial_charge
H0 H 0.16887 0.22791 0.65741 0.0
H1 H 0.62607 0.87744 0.53629 0.0
H2 H 0.14708 0.16159 0.55014 0.0
H3 H 0.2421 0.20108 0.56719 0.0
H4 H 0.26786 0.01566 0.59173 0.0
H5 H 0.17205 0.9769 0.57506 0.0
H6 H 0.06707 0.17984 0.58145 0.0
H7 H 0.1099 0.21847 0.61177 0.0
H8 H 0.09574 0.02812 0.6342 0.0
H9 H 0.05473 0.98967 0.6036 0.0
H10 H 0.9174 0.15293 0.57732 0.0
H11 H 0.82528 0.16902 0.59829 0.0
H12 H 0.82579 0.96917 0.61208 0.0
H13 H 0.9182 0.95328 0.59092 0.0
H14 H 0.85706 0.09802 0.54214 0.0
H15 H 0.7438 0.07049 0.53776 0.0
H16 H 0.78819 0.87196 0.54642 0.0
H17 H 0.90089 0.90048 0.55132 0.0
H18 H 0.9495 0.08435 0.50765 0.0
H19 H 0.86177 0.04792 0.48726 0.0
H20 H 0.90248 0.85336 0.50209 0.0
H21 H 0.99099 0.8902 0.52212 0.0
H22 H 0.08468 0.09804 0.50643 0.0
H23 H 0.1781 0.09456 0.485 0.0
H24 H 0.255 0.93836 0.51686 0.0
H25 H 0.16152 0.94063 0.53774 0.0
O26 O 0.15066 0.21168 0.6457 0.0
O27 O 0.14078 0.11338 0.65683 0.0
O28 O 0.64886 0.99303 0.5359 0.0
O29 O 0.67021 0.88984 0.53847 0.0
C30 C 0.08492 0.04988 0.55687 0.0
C31 C 0.03862 0.05753 0.57139 0.0
C32 C 0.97419 0.04144 0.56796 0.0
C33 C 0.95555 0.01824 0.55001 0.0
C34 C 1.00105 0.01211 0.53517 0.0
C35 C 0.06634 0.02766 0.53859 0.0
C36 C 0.15269 0.06639 0.56136 0.0
C37 C 0.17496 0.12871 0.55848 0.0
C38 C 0.22897 0.15125 0.56827 0.0
C39 C 0.26215 0.11128 0.58072 0.0
C40 C 0.24365 0.04708 0.58201 0.0
C41 C 0.18903 0.02489 0.57248 0.0
C42 C 0.05816 0.08197 0.59034 0.0
C43 C 0.07297 0.14665 0.59297 0.0
C44 C 0.09732 0.16859 0.61029 0.0
C45 C 0.10622 0.12644 0.62539 0.0
C46 C 0.08955 0.06186 0.62284 0.0
C47 C 0.06581 0.03983 0.60544 0.0
C48 C 0.92459 0.05208 0.58271 0.0
C49 C 0.89812 0.11279 0.58503 0.0
C50 C 0.845 0.12164 0.59675 0.0
C51 C 0.81757 0.06991 0.60638 0.0
C52 C 0.84563 0.00953 0.6046 0.0
C53 C 0.89854 1.00057 0.59271 0.0
C54 C 0.88712 1.00112 0.54679 0.0
C55 C 0.84211 0.04866 0.54309 0.0
C56 C 0.77751 0.0328 0.54065 0.0
C57 C 0.75697 0.96895 0.54168 0.0
C58 C 0.80236 0.92153 0.54548 0.0
C59 C 0.86678 0.9376 0.54819 0.0
C60 C 0.97683 0.99004 0.51642 0.0
C61 C 0.94239 0.03363 0.5055 0.0
C62 C 0.89126 0.01278 0.49416 0.0
C63 C 0.87425 0.9479 0.49339 0.0
C64 C 0.91447 0.90361 0.50226 0.0
C65 C 0.96579 0.92459 0.51358 0.0
C66 C 0.11616 0.01954 0.52369 0.0
C67 C 0.12096 0.0621 0.50848 0.0
C68 C 0.17443 0.06052 0.49638 0.0
C69 C 0.22412 0.01705 0.49957 0.0
C70 C 0.2178 0.97301 0.51431 0.0
C71 C 0.16425 0.97397 0.52615 0.0
C72 C 0.13346 0.14985 0.64362 0.0
C73 C 0.6887 0.95162 0.53856 0.0
H74 H 0.46318 0.65383 0.69967 0.0
H75 H 0.35473 0.17959 0.85295 0.0
H76 H 0.26213 0.6475 0.78962 0.0
H77 H 0.27988 0.56272 0.7664 0.0
H78 H 0.46664 0.52912 0.79028 0.0
H79 H 0.44925 0.61608 0.81325 0.0
H80 H 0.31683 0.74599 0.76497 0.0
H81 H 0.36154 0.71085 0.73461 0.0
H82 H 0.54491 0.68258 0.7615 0.0
H83 H 0.49966 0.71772 0.79185 0.0
H84 H 0.28812 0.85718 0.77883 0.0
H85 H 0.29719 0.95088 0.75894 0.0
H86 H 0.49071 0.98217 0.77906 0.0
H87 H 0.47972 0.88938 0.79987 0.0
H88 H 0.24554 0.9115 0.81257 0.0
H89 H 0.23234 0.02489 0.81968 0.0
H90 H 0.41622 0.02744 0.84795 0.0
H91 H 0.42937 0.91413 0.84036 0.0
H92 H 0.19432 0.8131 0.83799 0.0
H93 H 0.15033 0.90159 0.85655 0.0
H94 H 0.32932 0.9199 0.88669 0.0
H95 H 0.37271 0.83101 0.86819 0.0
H96 H 0.22399 0.64368 0.82531 0.0
H97 H 0.19953 0.55008 0.84445 0.0
H98 H 0.3576 0.59672 0.88168 0.0
H99 H 0.38211 0.69065 0.86235 0.0
O100 O 0.44651 0.66818 0.71175 0.0
O101 O 0.54008 0.65575 0.72629 0.0
O102 O 0.26617 0.13152 0.83439 0.0
O103 O 0.35956 0.13511 0.84955 0.0
C104 C 0.35325 0.70502 0.81134 0.0
C105 C 0.37705 0.75263 0.79921 0.0
C106 C 0.37216 0.81697 0.80439 0.0
C107 C 0.34553 0.83544 0.82184 0.0
C108 C 0.32178 0.78921 0.83446 0.0
C109 C 0.32603 0.72332 0.82921 0.0
C110 C 0.35358 0.63784 0.80363 0.0
C111 C 0.3056 0.6198 0.79059 0.0
C112 C 0.31629 0.57149 0.77705 0.0
C113 C 0.37513 0.53903 0.77623 0.0
C114 C 0.42125 0.5537 0.79025 0.0
C115 C 0.41061 0.60235 0.80378 0.0
C116 C 0.40522 0.73495 0.78054 0.0
C117 C 0.36686 0.73285 0.76423 0.0
C118 C 0.3924 0.71231 0.74695 0.0
C119 C 0.45677 0.69344 0.7457 0.0
C120 C 0.49502 0.69593 0.76209 0.0
C121 C 0.46949 0.71661 0.77936 0.0
C122 C 0.3839 0.86622 0.79027 0.0
C123 C 0.33294 0.88349 0.77858 0.0
C124 C 0.33807 0.93694 0.76737 0.0
C125 C 0.39486 0.97288 0.7674 0.0
C126 C 0.44643 0.955 0.77894 0.0
C127 C 0.44073 0.90187 0.7905 0.0
C128 C 0.33808 0.90462 0.82614 0.0
C129 C 0.28299 0.93675 0.82024 0.0
C130 C 0.27559 1.00146 0.82433 0.0
C131 C 0.32301 0.03514 0.83454 0.0
C132 C 0.37863 0.00287 0.84017 0.0
C133 C 0.38627 0.93822 0.83589 0.0
C134 C 0.28698 0.81427 0.85165 0.0
C135 C 0.22287 0.83325 0.84942 0.0
C136 C 0.19821 0.8853 0.85976 0.0
C137 C 0.23652 0.91919 0.87293 0.0
C138 C 0.29804 0.89516 0.8768 0.0
C139 C 0.32276 0.84322 0.86637 0.0
C140 C 0.30508 0.67342 0.84237 0.0
C141 C 0.25302 0.634 0.83766 0.0
C142 C 0.23954 0.58043 0.84849 0.0
C143 C 0.27798 0.56551 0.86417 0.0
C144 C 0.32792 0.60699 0.8695 0.0
C145 C 0.34158 0.66061 0.85859 0.0
C146 C 0.48385 0.6713 0.72738 0.0
C147 C 0.31435 0.10347 0.83942 0.0
H148 H 0.53305 0.86776 0.17126 0.0
H149 H 0.95709 0.2467 0.04288 0.0
H150 H 0.45992 0.92419 0.06824 0.0
H151 H 0.37203 0.89621 0.08959 0.0
H152 H 0.33157 0.09547 0.09831 0.0
H153 H 0.42029 0.12336 0.07698 0.0
H154 H 0.5739 0.91623 0.09073 0.0
H155 H 0.5593 0.87707 0.123 0.0
H156 H 0.50491 0.06626 0.14137 0.0
H157 H 0.52017 0.10479 0.10902 0.0
H158 H 0.69464 0.94985 0.077 0.0
H159 H 0.78646 0.93127 0.09778 0.0
H160 H 0.76262 0.11775 0.12296 0.0
H161 H 0.67076 0.13687 0.10168 0.0
H162 H 0.74384 0.00927 0.04681 0.0
H163 H 0.85479 0.04524 0.04325 0.0
H164 H 0.79557 0.23928 0.05383 0.0
H165 H 0.68562 0.20191 0.05888 0.0
H166 H 0.63737 0.00368 0.01394 0.0
H167 H 0.72437 0.03157 0.99237 0.0
H168 H 0.69969 0.23015 0.00677 0.0
H169 H 0.61024 0.20201 0.02736 0.0
H170 H 0.45621 0.96192 0.03293 0.0
H171 H 0.36419 0.96446 0.01129 0.0
H172 H 0.39562 0.16562 1.0031 0.0
H173 H 0.4863 0.16329 0.02511 0.0
O174 O 0.53751 0.88404 0.15855 0.0
O175 O 0.50722 0.98148 0.16714 0.0
O176 O 0.94362 0.12973 0.04209 0.0
O177 O 0.91403 0.23092 0.04495 0.0
C178 C 0.51301 0.04214 0.0645 0.0
C179 C 0.56179 0.03768 0.07835 0.0
C180 C 0.62466 0.05623 0.07412 0.0
C181 C 0.6399 0.08074 0.05627 0.0
C182 C 0.59303 0.08261 0.04172 0.0
C183 C 0.52871 0.06252 0.04575 0.0
C184 C 0.44642 0.02594 0.07074 0.0
C185 C 0.43036 0.96187 0.07402 0.0
C186 C 0.3809 0.94596 0.08655 0.0
C187 C 0.34598 0.99374 0.09599 0.0
C188 C 0.35795 0.05769 0.09134 0.0
C189 C 0.40802 0.07365 0.07891 0.0
C190 C 0.54781 0.0132 0.0976 0.0
C191 C 0.55839 0.94896 0.10174 0.0
C192 C 0.55023 0.92682 0.12018 0.0
C193 C 0.53144 0.96867 0.1348 0.0
C194 C 0.51971 0.03286 0.13046 0.0
C195 C 0.52809 0.05495 0.11201 0.0
C196 C 0.67657 0.04464 0.08789 0.0
C197 C 0.70908 0.98659 0.08703 0.0
C198 C 0.76142 0.97626 0.09876 0.0
C199 C 0.7814 0.02356 0.11164 0.0
C200 C 0.74786 0.0811 0.11294 0.0
C201 C 0.69567 0.09182 0.10096 0.0
C202 C 0.70667 0.10311 0.05287 0.0
C203 C 0.75501 0.05946 0.04843 0.0
C204 C 0.81826 0.08021 0.04632 0.0
C205 C 0.83387 0.14533 0.04788 0.0
C206 C 0.78515 0.1889 0.05234 0.0
C207 C 0.72229 0.16777 0.05513 0.0
C208 C 0.61687 0.10054 0.02244 0.0
C209 C 0.64792 0.05355 0.01157 0.0
C210 C 0.69945 0.06956 0.99968 0.0
C211 C 0.72181 0.13295 0.99856 0.0
C212 C 0.68483 0.18072 0.00738 0.0
C213 C 0.63256 0.16471 0.01901 0.0
C214 C 0.47803 0.06259 0.03083 0.0
C215 C 0.44333 0.00661 0.02647 0.0
C216 C 0.39078 0.00799 0.01409 0.0
C217 C 0.37242 0.06526 0.00558 0.0
C218 C 0.40888 0.12064 0.00934 0.0
C219 C 0.4609 0.11938 0.02188 0.0
C220 C 0.52463 0.9454 0.15448 0.0
C221 C 0.90053 0.16791 0.04482 0.0
H222 H 0.12146 0.17348 0.19925 0.0
H223 H 0.34457 0.72001 0.33217 0.0
H224 H 0.2435 0.13601 0.30511 0.0
H225 H 0.24112 0.04185 0.28437 0.0
H226 H 0.41009 0.10981 0.25553 0.0
H227 H 0.41207 0.20397 0.27634 0.0
H228 H 0.17959 0.22857 0.27885 0.0
H229 H 0.13812 0.1987 0.24753 0.0
H230 H 0.31032 0.27378 0.22182 0.0
H231 H 0.35152 0.30268 0.25328 0.0
H232 H 0.16319 0.39243 0.28859 0.0
H233 H 0.12571 0.47952 0.26847 0.0
H234 H 0.31843 0.507 0.24779 0.0
H235 H 0.35539 0.42001 0.26792 0.0
H236 H 0.20349 0.43396 0.32781 0.0
H237 H 0.19902 0.5472 0.33638 0.0
H238 H 0.39054 0.57326 0.31436 0.0
H239 H 0.39493 0.45969 0.30638 0.0
H240 H 0.24941 0.35374 0.35535 0.0
H241 H 0.27391 0.44023 0.37785 0.0
H242 H 0.46961 0.4424 0.35838 0.0
H243 H 0.44468 0.35685 0.33577 0.0
H244 H 0.26656 0.22234 0.35061 0.0
H245 H 0.28942 0.1312 0.37102 0.0
H246 H 0.46011 0.09229 0.33859 0.0
H247 H 0.43751 0.18374 0.31839 0.0
O248 O 0.13909 0.18501 0.21151 0.0
O249 O 0.22372 0.23332 0.19886 0.0
O250 O 0.24508 0.66019 0.339 0.0
O251 O 0.34447 0.6754 0.3286 0.0
C252 C 0.31711 0.24217 0.29994 0.0
C253 C 0.29186 0.28771 0.28733 0.0
C254 C 0.28559 0.35152 0.29306 0.0
C255 C 0.30273 0.3701 0.31158 0.0
C256 C 0.3244 0.32449 0.32481 0.0
C257 C 0.33137 0.25972 0.31905 0.0
C258 C 0.328 0.17681 0.2923 0.0
C259 C 0.28163 0.12921 0.2949 0.0
C260 C 0.28018 0.07565 0.28293 0.0
C261 C 0.32486 0.06905 0.26809 0.0
C262 C 0.37455 0.11408 0.26662 0.0
C263 C 0.37619 0.1674 0.27867 0.0
C264 C 0.26835 0.26796 0.26828 0.0
C265 C 0.20837 0.23819 0.26643 0.0
C266 C 0.1848 0.22127 0.24853 0.0
C267 C 0.22072 0.23426 0.23217 0.0
C268 C 0.28124 0.26354 0.23413 0.0
C269 C 0.30488 0.28012 0.25205 0.0
C270 C 0.26184 0.39986 0.27958 0.0
C271 C 0.19697 0.41664 0.27947 0.0
C272 C 0.17577 0.46627 0.26803 0.0
C273 C 0.21912 0.49949 0.25645 0.0
C274 C 0.2838 0.48135 0.25626 0.0
C275 C 0.305 0.43201 0.26779 0.0
C276 C 0.2999 0.43871 0.31679 0.0
C277 C 0.24452 0.46424 0.32499 0.0
C278 C 0.24205 0.5289 0.3298 0.0
C279 C 0.29464 0.56922 0.32617 0.0
C280 C 0.34937 0.54353 0.31745 0.0
C281 C 0.35211 0.47872 0.31292 0.0
C282 C 0.34515 0.34882 0.34379 0.0
C283 C 0.29853 0.37007 0.35675 0.0
C284 C 0.31241 0.42003 0.36951 0.0
C285 C 0.37331 0.44886 0.36959 0.0
C286 C 0.42202 0.4215 0.35845 0.0
C287 C 0.4081 0.37178 0.34571 0.0
C288 C 0.35018 0.2099 0.3329 0.0
C289 C 0.30964 0.19502 0.34814 0.0
C290 C 0.32262 0.14282 0.35977 0.0
C291 C 0.37631 0.1043 0.35633 0.0
C292 C 0.41794 0.1206 0.34145 0.0
C293 C 0.40521 0.173 0.32994 0.0
C294 C 0.19482 0.21766 0.21315 0.0
C295 C 0.29292 0.63763 0.33163 0.0
H296 H 0.93172 0.25904 0.18368 0.0
H297 H 0.82028 0.70476 0.35092 0.0
H298 H 0.7049 0.20673 0.26765 0.0
H299 H 0.71938 0.11097 0.24801 0.0
H300 H 0.87414 0.05265 0.28446 0.0
H301 H 0.85948 0.14827 0.30396 0.0
H302 H 0.76676 0.32264 0.24803 0.0
H303 H 0.82081 0.30218 0.21782 0.0
H304 H 0.97944 0.21825 0.24788 0.0
H305 H 0.92514 0.23957 0.27796 0.0
H306 H 0.74619 0.44407 0.26772 0.0
H307 H 0.79072 0.53142 0.24883 0.0
H308 H 0.9812 0.48186 0.26722 0.0
H309 H 0.93636 0.3943 0.28598 0.0
H310 H 0.68157 0.4527 0.30922 0.0
H311 H 0.67369 0.56074 0.3223 0.0
H312 H 0.8766 0.55937 0.3347 0.0
H313 H 0.88356 0.45097 0.32177 0.0
H314 H 0.64158 0.34107 0.33083 0.0
H315 H 0.60517 0.40828 0.357 0.0
H316 H 0.79961 0.42345 0.3777 0.0
H317 H 0.8358 0.35718 0.3511 0.0
H318 H 0.65085 0.19976 0.3152 0.0
H319 H 0.62011 0.11585 0.33756 0.0
H320 H 0.80665 0.12958 0.36383 0.0
H321 H 0.8369 0.21338 0.34149 0.0
O322 O 0.91074 0.26584 0.19574 0.0
O323 O 0.99106 0.2233 0.2119 0.0
O324 O 0.71826 0.66083 0.33858 0.0
O325 O 0.82237 0.66263 0.34528 0.0
C326 C 0.78559 0.24966 0.29502 0.0
C327 C 0.81137 0.29844 0.28355 0.0
C328 C 0.81118 0.36204 0.29005 0.0
C329 C 0.78632 0.37685 0.30805 0.0
C330 C 0.76491 0.32752 0.32002 0.0
C331 C 0.7648 0.26378 0.3136 0.0
C332 C 0.78138 0.18432 0.28715 0.0
C333 C 0.74021 0.1719 0.2718 0.0
C334 C 0.74873 0.11762 0.26054 0.0
C335 C 0.7984 0.07519 0.2646 0.0
C336 C 0.83524 0.08456 0.2811 0.0
C337 C 0.82689 0.13898 0.29229 0.0
C338 C 0.84212 0.28265 0.26514 0.0
C339 C 0.8131 0.29971 0.24803 0.0
C340 C 0.8441 0.28798 0.23081 0.0
C341 C 0.90466 0.25899 0.23045 0.0
C342 C 0.93298 0.2409 0.24766 0.0
C343 C 0.90198 0.25277 0.26484 0.0
C344 C 0.83819 0.41319 0.27815 0.0
C345 C 0.79753 0.45184 0.2675 0.0
C346 C 0.82296 0.50119 0.25667 0.0
C347 C 0.8893 0.51271 0.25651 0.0
C348 C 0.92992 0.47361 0.26712 0.0
C349 C 0.9045 0.42387 0.27779 0.0
C350 C 0.7831 0.44422 0.31456 0.0
C351 C 0.72431 0.47607 0.31465 0.0
C352 C 0.71994 0.53768 0.32216 0.0
C353 C 0.77453 0.56867 0.32959 0.0
C354 C 0.83366 0.53691 0.32911 0.0
C355 C 0.83788 0.47516 0.32165 0.0
C356 C 0.74121 0.34467 0.3391 0.0
C357 C 0.67575 0.35613 0.34157 0.0
C358 C 0.6551 0.39465 0.35654 0.0
C359 C 0.69976 0.42139 0.36931 0.0
C360 C 0.76439 0.4037 0.36797 0.0
C361 C 0.78499 0.3654 0.35294 0.0
C362 C 0.74617 0.21215 0.32669 0.0
C363 C 0.68504 0.18436 0.32573 0.0
C364 C 0.66756 0.13683 0.33853 0.0
C365 C 0.71127 0.11603 0.3523 0.0
C366 C 0.77245 0.14411 0.35318 0.0
C367 C 0.78965 0.19196 0.34051 0.0
C368 C 0.9383 0.24825 0.21219 0.0
C369 C 0.76978 0.6335 0.33803 0.0
H370 H 0.56803 0.84632 0.69937 0.0
H371 H 0.76788 0.36776 0.84633 0.0
H372 H 0.82967 0.90436 0.78538 0.0
H373 H 0.80564 0.9895 0.76298 0.0
H374 H 0.61698 0.00798 0.78714 0.0
H375 H 0.64161 0.92339 0.80967 0.0
H376 H 0.7552 0.80698 0.7599 0.0
H377 H 0.69283 0.82495 0.73106 0.0
H378 H 0.52022 0.83599 0.76455 0.0
H379 H 0.58274 0.81547 0.79326 0.0
H380 H 0.77252 0.68671 0.76927 0.0
H381 H 0.73988 0.59619 0.74978 0.0
H382 H 0.57327 0.56861 0.7852 0.0
H383 H 0.60675 0.66047 0.80486 0.0
H384 H 0.85341 0.63684 0.8033 0.0
H385 H 0.8737 0.52467 0.81014 0.0
H386 H 0.70031 0.51752 0.84355 0.0
H387 H 0.68085 0.62986 0.83664 0.0
H388 H 0.91572 0.73479 0.82726 0.0
H389 H 0.9714 0.65703 0.8469 0.0
H390 H 0.80281 0.63787 0.88166 0.0
H391 H 0.7477 0.71628 0.86208 0.0
H392 H 0.90151 0.86144 0.82757 0.0
H393 H 0.94062 0.93934 0.85103 0.0
H394 H 0.7472 0.96559 0.87136 0.0
H395 H 0.70838 0.88877 0.84757 0.0
O396 O 0.59219 0.84141 0.71097 0.0
O397 O 0.50445 0.84094 0.72881 0.0
O398 O 0.84872 0.41787 0.82564 0.0
O399 O 0.76048 0.41186 0.84317 0.0
C400 C 0.7419 0.84049 0.80662 0.0
C401 C 0.71063 0.79294 0.79583 0.0
C402 C 0.71687 0.72877 0.80078 0.0
C403 C 0.75549 0.7102 0.81601 0.0
C404 C 0.78676 0.7565 0.82725 0.0
C405 C 0.77872 0.82204 0.8227 0.0
C406 C 0.73792 0.90756 0.79949 0.0
C407 C 0.78438 0.92897 0.78657 0.0
C408 C 0.77009 0.97705 0.77349 0.0
C409 C 0.70871 0.00448 0.77287 0.0
C410 C 0.66423 0.98699 0.78691 0.0
C411 C 0.67884 0.93953 0.80014 0.0
C412 C 0.67332 0.80939 0.7786 0.0
C413 C 0.70388 0.81334 0.76097 0.0
C414 C 0.66815 0.82359 0.74454 0.0
C415 C 0.60131 0.83066 0.74551 0.0
C416 C 0.57142 0.82963 0.76334 0.0
C417 C 0.60698 0.81814 0.77973 0.0
C418 C 0.69139 0.67965 0.78814 0.0
C419 C 0.72818 0.66201 0.77251 0.0
C420 C 0.70951 0.6106 0.76149 0.0
C421 C 0.65403 0.57616 0.7661 0.0
C422 C 0.61632 0.59467 0.78159 0.0
C423 C 0.63495 0.64684 0.79262 0.0
C424 C 0.76592 0.64131 0.81957 0.0
C425 C 0.81983 0.6108 0.81204 0.0
C426 C 0.83129 0.54682 0.81599 0.0
C427 C 0.78871 0.51217 0.82746 0.0
C428 C 0.73411 0.54281 0.83471 0.0
C429 C 0.72278 0.60686 0.83076 0.0
C430 C 0.82761 0.73286 0.84329 0.0
C431 C 0.89192 0.71683 0.83976 0.0
C432 C 0.92352 0.6714 0.8509 0.0
C433 C 0.89152 0.6405 0.86583 0.0
C434 C 0.82888 0.66028 0.87024 0.0
C435 C 0.79763 0.70624 0.85925 0.0
C436 C 0.80237 0.87054 0.8359 0.0
C437 C 0.86781 0.88441 0.83704 0.0
C438 C 0.88991 0.92816 0.85049 0.0
C439 C 0.84665 0.95809 0.86289 0.0
C440 C 0.78113 0.94355 0.86177 0.0
C441 C 0.75906 0.90008 0.84825 0.0
C442 C 0.56287 0.83801 0.72798 0.0
C443 C 0.80129 0.44449 0.83197 0.0
H444 H 0.41759 0.45934 0.9325 0.0
H445 H 0.98599 0.51423 0.06812 0.0
H446 H 0.44718 0.65781 0.01847 0.0
H447 H 0.34881 0.6364 1.00052 0.0
H448 H 0.30693 0.47795 0.03709 0.0
H449 H 0.40557 0.49921 0.05481 0.0
H450 H 0.54924 0.59893 0.99344 0.0
H451 H 0.50193 0.55415 0.96442 0.0
H452 H 0.43293 0.39229 0.99605 0.0
H453 H 0.481 0.43729 0.02487 0.0
H454 H 0.69003 0.61134 0.00865 0.0
H455 H 0.77492 0.5641 0.98904 0.0
H456 H 0.71266 0.37624 0.00549 0.0
H457 H 0.62777 0.42346 0.025 0.0
H458 H 0.71693 0.67329 0.0504 0.0
H459 H 0.83258 0.67363 0.05616 0.0
H460 H 0.82747 0.46893 0.06229 0.0
H461 H 0.71182 0.46935 0.05664 0.0
H462 H 0.60395 0.71672 0.07636 0.0
H463 H 0.67465 0.75731 0.10158 0.0
H464 H 0.72009 0.56462 0.11718 0.0
H465 H 0.64893 0.52423 0.09207 0.0
H466 H 0.44785 0.69745 0.06221 0.0
H467 H 0.37103 0.72336 0.08739 0.0
H468 H 0.43362 0.56039 0.11909 0.0
H469 H 0.50934 0.53349 0.09368 0.0
O470 O 0.43727 0.47548 0.94401 0.0
O471 O 0.40438 0.39254 0.96085 0.0
O472 O 0.93969 0.62108 0.06367 0.0
O473 O 0.94027 0.5155 0.06588 0.0
C474 C 0.50273 0.57585 0.04279 0.0
C475 C 0.54439 0.54987 0.02903 0.0
C476 C 0.61055 0.54847 0.03249 0.0
C477 C 0.63579 0.57151 0.04978 0.0
C478 C 0.59412 0.59395 0.06406 0.0
C479 C 0.52738 0.59544 0.06064 0.0
C480 C 0.43362 0.57995 0.03793 0.0
C481 C 0.41502 0.62057 0.02322 0.0
C482 C 0.35927 0.60789 0.01284 0.0
C483 C 0.32056 0.55529 0.01731 0.0
C484 C 0.33544 0.51932 0.03345 0.0
C485 C 0.39162 0.53162 0.04371 0.0
C486 C 0.51822 0.52147 0.01123 0.0
C487 C 0.5243 0.55359 0.99401 0.0
C488 C 0.49708 0.52798 0.97749 0.0
C489 C 0.46352 0.46969 0.97792 0.0
C490 C 0.45841 0.43726 0.99521 0.0
C491 C 0.48573 0.46286 0.01169 0.0
C492 C 0.65365 0.52055 0.01825 0.0
C493 C 0.69369 0.56 0.00753 0.0
C494 C 0.74145 0.53319 0.9963 0.0
C495 C 0.74924 0.46698 0.99584 0.0
C496 C 0.70644 0.42745 0.00558 0.0
C497 C 0.65854 0.45422 0.01672 0.0
C498 C 0.70615 0.57131 0.05305 0.0
C499 C 0.74094 0.62861 0.053 0.0
C500 C 0.80694 0.62865 0.0563 0.0
C501 C 0.83929 0.57127 0.05969 0.0
C502 C 0.80412 0.51392 0.0597 0.0
C503 C 0.7381 0.51398 0.05642 0.0
C504 C 0.62185 0.61758 0.08227 0.0
C505 C 0.6272 0.68329 0.08568 0.0
C506 C 0.66771 0.70635 0.10001 0.0
C507 C 0.70325 0.66394 0.11111 0.0
C508 C 0.69301 0.59818 0.10886 0.0
C509 C 0.65259 0.57514 0.09451 0.0
C510 C 0.48358 0.61345 0.07611 0.0
C511 C 0.4451 0.66751 0.0746 0.0
C512 C 0.40188 0.68242 0.08896 0.0
C513 C 0.39738 0.64384 0.10504 0.0
C514 C 0.43726 0.59095 0.10686 0.0
C515 C 0.48 0.57561 0.09238 0.0
C516 C 0.43333 0.44331 0.96046 0.0
C517 C 0.9094 0.57106 0.06319 0.0
H518 H 0.97652 0.22622 0.63738 0.0
H519 H 0.39227 0.77921 0.55142 0.0
H520 H 0.93446 0.38986 0.55396 0.0
H521 H 0.84395 0.34703 0.57197 0.0
H522 H 0.7944 0.53706 0.59015 0.0
H523 H 0.88626 0.57972 0.57248 0.0
H524 H 0.06691 0.36953 0.57187 0.0
H525 H 0.03954 0.29488 0.597 0.0
H526 H 0.94759 0.44697 0.62824 0.0
H527 H 0.97416 0.52091 0.6028 0.0
H528 H 0.21101 0.4643 0.55653 0.0
H529 H 0.30563 0.45277 0.57551 0.0
H530 H 0.19628 0.50442 0.62546 0.0
H531 H 0.10792 0.53469 0.60513 0.0
H532 H 0.21193 0.52733 0.52774 0.0
H533 H 0.3118 0.5878 0.52469 0.0
H534 H 0.24229 0.72608 0.56533 0.0
H535 H 0.14303 0.66456 0.56856 0.0
H536 H 0.08347 0.48482 0.50743 0.0
H537 H 0.16381 0.50438 0.4829 0.0
H538 H 0.16703 0.70365 0.49842 0.0
H539 H 0.08723 0.68369 0.523 0.0
H540 H 0.91009 0.47456 0.51921 0.0
H541 H 0.8179 0.51361 0.50106 0.0
H542 H 0.86854 0.70685 0.51645 0.0
H543 H 0.96025 0.66774 0.53455 0.0
O544 O 0.98785 0.25687 0.62777 0.0
O545 O 0.94566 0.33773 0.64395 0.0
O546 O 0.38616 0.68223 0.53138 0.0
O547 O 0.35363 0.75387 0.55263 0.0
C548 C 0.98332 0.50989 0.55708 0.0
C549 C 0.03463 0.49409 0.56948 0.0
C550 C 0.0971 0.51839 0.56631 0.0
C551 C 0.1083 0.55624 0.55019 0.0
C552 C 0.05941 0.56472 0.53651 0.0
C553 C 0.99571 0.5456 0.54048 0.0
C554 C 0.91733 0.48794 0.56198 0.0
C555 C 0.90255 0.42261 0.56115 0.0
C556 C 0.85101 0.39815 0.57149 0.0
C557 C 0.81239 0.43878 0.58246 0.0
C558 C 0.82305 0.50486 0.58164 0.0
C559 C 0.87536 0.52929 0.5715 0.0
C560 C 0.02267 0.45056 0.58556 0.0
C561 C 0.04148 0.38672 0.58425 0.0
C562 C 0.02572 0.34417 0.59863 0.0
C563 C 0.99166 0.36495 0.6147 0.0
C564 C 0.97403 0.42941 0.6161 0.0
C565 C 0.98913 0.47174 0.6016 0.0
C566 C 0.15203 0.50191 0.57912 0.0
C567 C 0.20822 0.47602 0.57145 0.0
C568 C 0.26218 0.46618 0.58272 0.0
C569 C 0.25963 0.47417 0.60257 0.0
C570 C 0.20199 0.49799 0.61034 0.0
C571 C 0.14992 0.51367 0.59872 0.0
C572 C 0.16998 0.59167 0.54832 0.0
C573 C 0.21818 0.57076 0.53593 0.0
C574 C 0.27517 0.60541 0.53418 0.0
C575 C 0.28471 0.66212 0.54459 0.0
C576 C 0.23644 0.68274 0.55705 0.0
C577 C 0.17972 0.64767 0.55894 0.0
C578 C 0.07954 0.58278 0.51709 0.0
C579 C 0.09852 0.53341 0.50477 0.0
C580 C 0.14515 0.54438 0.49093 0.0
C581 C 0.17228 0.60525 0.48893 0.0
C582 C 0.14663 0.65628 0.49952 0.0
C583 C 0.10045 0.64513 0.5135 0.0
C584 C 0.94214 0.56817 0.52827 0.0
C585 C 0.9016 0.52532 0.51855 0.0
C586 C 0.84921 0.54771 0.50809 0.0
C587 C 0.83611 0.61335 0.50728 0.0
C588 C 0.8773 0.65606 0.51684 0.0
C589 C 0.92988 0.63375 0.5271 0.0
C590 C 0.97371 0.31928 0.62974 0.0
C591 C 0.34464 0.69977 0.54243 0.0
Fe592 Fe 0.07253 0.85338 0.22791 0.0
O593 O 0.07549 0.86016 0.19996 0.0
Fe594 Fe 0.99426 0.82302 0.18549 0.0
Fe595 Fe 0.1435 0.81718 0.1845 0.0
O596 O 0.06831 0.85869 0.20022 0.0
O597 O 0.0626 0.7841 0.16953 0.0
O598 O 0.06887 0.7842 0.16947 0.0
Fe599 Fe 0.06281 0.78532 0.14189 0.0
C600 C 0.2038 0.90076 0.2171 0.0
O601 O 0.13891 0.7816 0.22948 0.0
O602 O 0.13773 0.73669 0.20093 0.0
O603 O 0.98345 0.72711 0.14511 0.0
O604 O 0.92468 0.78113 0.16765 0.0
O605 O 0.99234 0.74183 0.20138 0.0
O606 O 1.00098 0.78565 0.23002 0.0
O607 O 0.20314 0.76547 0.16612 0.0
O608 O 0.13358 0.71814 0.1446 0.0
C609 C 0.98662 0.73882 0.21924 0.0
O610 O 0.99866 0.85906 0.14038 0.0
O611 O 0.99257 0.90338 0.16925 0.0
O612 O 0.14962 0.91313 0.2253 0.0
O613 O 0.2122 0.85954 0.20326 0.0
C614 C 0.14595 0.73334 0.21872 0.0
C615 C 0.18972 0.7253 0.15242 0.0
C616 C 0.16141 0.89351 0.14897 0.0
O617 O 0.15549 0.89581 0.16703 0.0
O618 O 0.13639 0.8495 0.13887 0.0
C619 C 0.92992 0.74203 0.15332 0.0
O620 O 0.93213 0.86944 0.20449 0.0
O621 O 0.9999 0.9184 0.22614 0.0
C622 C 0.9822 0.90425 0.1515 0.0
C623 C 0.94459 0.90992 0.2181 0.0
Fe624 Fe 0.4964 0.80241 0.47756 0.0
O625 O 0.48889 0.7948 0.44963 0.0
Fe626 Fe 0.53127 0.86643 0.43301 0.0
Fe627 Fe 0.52184 0.71864 0.43554 0.0
O628 O 0.48935 0.80128 0.44953 0.0
O629 O 0.56591 0.79032 0.41931 0.0
O630 O 0.56621 0.78365 0.41954 0.0
Fe631 Fe 0.56637 0.78099 0.39176 0.0
C632 C 0.60551 0.71023 0.47026 0.0
O633 O 0.42502 0.73543 0.4756 0.0
O634 O 0.46607 0.6622 0.45419 0.0
O635 O 0.50146 0.85338 0.38771 0.0
O636 O 0.45261 0.87156 0.4153 0.0
O637 O 0.48594 0.93745 0.45001 0.0
O638 O 0.43947 0.88019 0.47431 0.0
O639 O 0.44324 0.71413 0.41761 0.0
O640 O 0.49465 0.71428 0.39008 0.0
C641 C 0.44552 0.93049 0.46403 0.0
O642 O 0.63307 0.85452 0.39383 0.0
O643 O 0.58132 0.92457 0.41398 0.0
O644 O 0.55939 0.72762 0.48079 0.0
O645 O 0.60245 0.71543 0.4524 0.0
C646 C 0.4229 0.68187 0.46631 0.0
C647 C 0.44851 0.6954 0.4004 0.0
C648 C 0.60784 0.65072 0.40578 0.0
O649 O 0.56472 0.64804 0.41906 0.0
O650 O 0.62405 0.70216 0.39664 0.0
C651 C 0.45783 0.88039 0.39747 0.0
O652 O 0.61243 0.8655 0.4493 0.0
O653 O 0.57421 0.86484 0.47871 0.0
C654 C 0.62255 0.91138 0.40065 0.0
C655 C 0.62 0.87216 0.46701 0.0
Fe656 Fe 0.53596 0.27031 0.70468 0.0
O657 O 0.59255 0.30276 0.68406 0.0
Fe658 Fe 0.38731 0.26054 0.68338 0.0
Fe659 Fe 0.68513 0.28679 0.68468 0.0
O660 O 0.47961 0.24206 0.68328 0.0
O661 O 0.47972 0.24222 0.68136 0.0
O662 O 0.59256 0.30328 0.68202 0.0
Fe663 Fe 0.53768 0.2719 0.66051 0.0
C664 C 0.64387 0.35097 0.72075 0.0
O665 O 0.5826 0.18339 0.70505 0.0
O666 O 0.68111 0.22187 0.70677 0.0
O667 O 0.47087 0.23414 0.6411 0.0
O668 O 0.38412 0.20272 0.65935 0.0
O669 O 0.38914 0.19169 0.70348 0.0
O670 O 0.46977 0.22889 0.72317 0.0
O671 O 0.68529 0.21376 0.66553 0.0
O672 O 0.5837 0.18463 0.6597 0.0
C673 C 0.4228 0.19012 0.71892 0.0
O674 O 0.49217 0.35933 0.65867 0.0
O675 O 0.39001 0.33375 0.66456 0.0
O676 O 0.60117 0.30737 0.72418 0.0
O677 O 0.67849 0.35447 0.7055 0.0
C678 C 0.63986 0.17965 0.71123 0.0
C679 C 0.64402 0.17523 0.65869 0.0
C680 C 0.66031 0.339 0.6447 0.0
O681 O 0.68893 0.34507 0.66104 0.0
O682 O 0.60693 0.30782 0.64167 0.0
C683 C 0.41567 0.2059 0.64348 0.0
O684 O 0.39076 0.3241 0.70632 0.0
O685 O 0.49092 0.35772 0.70692 0.0
C686 C 0.43215 0.36979 0.65726 0.0
C687 C 0.4333 0.36276 0.71253 0.0
Fe688 Fe 0.09624 0.2792 0.97893 0.0
O689 O 0.10961 0.27256 0.9511 0.0
Fe690 Fe 0.07839 0.3518 0.93504 0.0
Fe691 Fe 0.06587 0.20371 0.93601 0.0
O692 O 0.10866 0.27981 0.9512 0.0
O693 O 0.03916 0.28197 0.91942 0.0
O694 O 0.0383 0.27571 0.91955 0.0
Fe695 Fe 0.04463 0.27478 0.89189 0.0
C696 C 0.14883 0.14968 0.96908 0.0
O697 O 0.02143 0.21302 0.9802 0.0
O698 O 0.98197 0.21557 0.95122 0.0
O699 O 0.99074 0.35909 0.89274 0.0
O700 O 0.04117 0.41918 0.91591 0.0
O701 O 0.99401 0.35783 0.94967 0.0
O702 O 0.03077 0.35125 0.97906 0.0
O703 O 0.01266 0.14321 0.91827 0.0
O704 O 0.97172 0.20927 0.89509 0.0
C705 C 0.98704 0.36534 0.96739 0.0
O706 O 0.12317 0.33404 0.89041 0.0
O707 O 0.1619 0.34935 0.91973 0.0
O708 O 0.15573 0.20331 0.97804 0.0
O709 O 0.10666 0.13797 0.95562 0.0
C710 C 0.97458 0.20676 0.9688 0.0
C711 C 0.97282 0.15641 0.9046 0.0
C712 C 0.14157 0.16679 0.9022 0.0
O713 O 0.14614 0.18472 0.91953 0.0
O714 O 0.10282 0.1944 0.89097 0.0
C715 C 1.00357 0.41314 0.90121 0.0
O716 O 0.1238 0.41564 0.9543 0.0
O717 O 0.16376 0.35054 0.97772 0.0
C718 C 0.16641 0.35431 0.90179 0.0
C719 C 0.15928 0.4047 0.96915 0.0
C720 C 0.28161 0.99485 0.46903 0.0
C721 C 0.28342 0.01662 0.48792 0.0
C722 C 0.33812 0.97645 0.45962 0.0
C723 C 0.39815 0.97995 0.46874 0.0
H724 H 0.23594 0.98619 0.46214 0.0
H725 H 0.33378 0.95243 0.44602 0.0
S726 S 0.42903 0.04366 0.51702 0.0
N727 N 0.35054 0.04856 0.51449 0.0
N728 N 0.45632 0.0143 0.49681 0.0
C729 C 0.40086 0.00826 0.48683 0.0
C730 C 0.34356 0.02634 0.49645 0.0
C731 C 0.42213 0.08711 0.76244 0.0
C732 C 0.39992 0.02855 0.75513 0.0
C733 C 0.4279 0.14016 0.75075 0.0
C734 C 0.41122 0.13607 0.73149 0.0
H735 H 0.43509 0.09185 0.77726 0.0
H736 H 0.44584 0.18443 0.7568 0.0
S737 S 0.35639 0.99112 0.70534 0.0
N738 N 0.36508 0.96803 0.72744 0.0
N739 N 0.37503 0.06755 0.70542 0.0
C740 C 0.38902 0.07746 0.72406 0.0
C741 C 0.3835 0.02368 0.73592 0.0
C742 C 0.31679 0.0999 0.97597 0.0
C743 C 0.31378 0.06909 0.99354 0.0
C744 C 0.2609 0.11719 0.9663 0.0
C745 C 0.19966 0.10394 0.97367 0.0
H746 H 0.36266 0.11467 0.97028 0.0
H747 H 0.26573 0.1468 0.95388 0.0
S748 S 0.16526 0.01953 0.01835 0.0
N749 N 0.24431 0.02156 0.01723 0.0
N750 N 0.1394 0.05461 0.99896 0.0
C751 C 0.19597 0.06876 0.99044 0.0
C752 C 0.25297 0.05105 1.00037 0.0
C753 C 0.29951 0.95674 0.25823 0.0
C754 C 0.31405 0.01971 0.25309 0.0
C755 C 0.27257 0.91365 0.24512 0.0
C756 C 0.25882 0.93204 0.22644 0.0
H757 H 0.30458 0.94209 0.27282 0.0
H758 H 0.25614 0.8678 0.25018 0.0
S759 S 0.29669 0.08773 0.20501 0.0
N760 N 0.3202 0.09559 0.22727 0.0
N761 N 0.26868 0.0143 0.20281 0.0
C762 C 0.27899 0.99247 0.2206 0.0
C763 C 0.30683 0.03647 0.2339 0.0
C764 C 0.28177 0.18401 0.60805 0.0
C765 C 0.30612 0.13898 0.59513 0.0
C766 C 0.31812 0.20523 0.62354 0.0
C767 C 0.38079 0.18331 0.62649 0.0
H768 H 0.23331 0.20136 0.60655 0.0
H769 H 0.29688 0.23907 0.63333 0.0
S770 S 0.46848 0.06865 0.5961 0.0
N771 N 0.39744 0.07459 0.5859 0.0
N772 N 0.46708 0.11673 0.61478 0.0
C773 C 0.40692 0.14036 0.61329 0.0
C774 C 0.36916 0.11746 0.59769 0.0
C775 C 0.18832 0.02872 0.86897 0.0
C776 C 0.21481 0.98253 0.88098 0.0
C777 C 0.16825 0.08865 0.87585 0.0
C778 C 0.17254 0.10577 0.89524 0.0
H779 H 0.18295 0.01861 0.85399 0.0
H780 H 0.14781 0.12142 0.86579 0.0
S781 S 0.23509 1.00041 0.93297 0.0
N782 N 0.24306 0.95765 0.91339 0.0
N783 N 0.2041 0.06901 0.92643 0.0
C784 C 0.19906 0.05985 0.90744 0.0
C785 C 0.22032 0.99886 0.90033 0.0
C786 C 0.23555 0.9946 0.11064 0.0
C787 C 0.30036 0.97661 0.11148 0.0
C788 C 0.19081 0.97227 0.12403 0.0
C789 C 0.20969 0.93323 0.13915 0.0
H790 H 0.21865 0.02305 0.09896 0.0
H791 H 0.14056 0.98292 0.122 0.0
S792 S 0.37398 0.87589 0.1484 0.0
N793 N 0.38131 0.91948 0.12916 0.0
N794 N 0.29776 0.87951 0.15448 0.0
C795 C 0.27483 0.91805 0.14073 0.0
C796 C 0.31999 0.93926 0.12688 0.0
C797 C 0.39976 0.98754 0.35822 0.0
C798 C 0.38813 0.04572 0.36761 0.0
C799 C 0.41693 0.93282 0.36824 0.0
C800 C 0.4235 0.93373 0.38813 0.0
H801 H 0.39709 0.98465 0.34291 0.0
H802 H 0.42795 0.89001 0.36023 0.0
S803 S 0.39668 0.07405 0.41949 0.0
N804 N 0.38214 0.10064 0.39798 0.0
N805 N 0.41503 0.99809 0.41683 0.0
C806 C 0.40919 0.99099 0.39777 0.0
C807 C 0.39147 0.04685 0.38752 0.0
C808 C 0.76684 0.06665 0.63839 0.0
C809 C 0.76184 0.08053 0.61901 0.0
C810 C 0.72197 0.09038 0.65141 0.0
C811 C 0.67009 0.12766 0.64541 0.0
H812 H 0.8086 0.04222 0.64373 0.0
H813 H 0.73118 0.08459 0.6664 0.0
S814 S 0.63018 0.16843 0.59587 0.0
N815 N 0.69682 0.12674 0.59416 0.0
N816 N 0.61233 0.17095 0.61865 0.0
C817 C 0.66093 0.13593 0.62589 0.0
C818 C 0.70705 0.11263 0.61267 0.0
C819 C 0.6361 0.07107 0.37637 0.0
C820 C 0.69272 0.0653 0.36576 0.0
C821 C 0.61588 0.02247 0.3885 0.0
C822 C 0.65105 0.96573 0.39028 0.0
H823 H 0.60677 0.11322 0.37512 0.0
H824 H 0.57076 0.02836 0.39587 0.0
S825 S 0.80389 0.92821 0.36593 0.0
N826 N 0.78478 0.99959 0.35818 0.0
N827 N 0.74658 0.90784 0.38085 0.0
C828 C 0.70861 0.96008 0.38006 0.0
C829 C 0.72953 0.00996 0.36786 0.0
C830 C 0.89721 1.00245 0.11538 0.0
C831 C 0.83687 0.01065 0.12378 0.0
C832 C 0.94695 0.97328 0.12526 0.0
C833 C 0.9377 0.95143 0.14382 0.0
H834 H 0.90453 0.01469 0.10065 0.0
H835 H 0.99149 0.96381 0.11791 0.0
S836 S 0.78855 0.9639 0.17209 0.0
N837 N 0.77099 0.99791 0.15176 0.0
N838 N 0.86424 0.94211 0.1704 0.0
C839 C 0.87873 0.96326 0.15278 0.0
C840 C 0.82818 0.99312 0.14269 0.0
C841 C 0.92347 0.99329 0.88778 0.0
C842 C 0.87028 0.00659 0.87633 0.0
C843 C 0.95363 0.04156 0.89825 0.0
C844 C 0.93173 0.10464 0.89741 0.0
H845 H 0.94352 0.94581 0.88799 0.0
H846 H 0.99683 0.03003 0.90599 0.0
S847 S 0.78894 0.162 0.87148 0.0
N848 N 0.79313 0.08547 0.86609 0.0
N849 N 0.84924 0.1764 0.88608 0.0
C850 C 0.87559 0.11748 0.88716 0.0
C851 C 0.84492 0.06831 0.87651 0.0
C852 C 0.755 0.96103 0.49199 0.0
C853 C 0.81018 0.92808 0.48596 0.0
C854 C 0.69335 0.94153 0.48635 0.0
C855 C 0.68469 0.88958 0.47395 0.0
H856 H 0.75937 1.00188 0.50136 0.0
H857 H 0.65236 0.96818 0.49137 0.0
S858 S 0.81246 0.78742 0.45378 0.0
N859 N 0.85142 0.84023 0.46701 0.0
N860 N 0.73582 0.80538 0.45572 0.0
C861 C 0.7392 0.85657 0.46761 0.0
C862 C 0.80184 0.87532 0.47378 0.0
C863 C 0.83289 0.96514 0.25603 0.0
C864 C 0.8195 0.02766 0.25038 0.0
C865 C 0.8685 0.92431 0.24438 0.0
C866 C 0.89178 0.94487 0.2268 0.0
H867 H 0.8193 0.94919 0.27002 0.0
H868 H 0.88189 0.87805 0.24974 0.0
S869 S 0.8659 0.10167 0.20485 0.0
N870 N 0.82824 0.10634 0.22537 0.0
N871 N 0.89651 0.02943 0.20377 0.0
C872 C 0.87534 0.00545 0.22044 0.0
C873 C 0.83858 0.04693 0.23217 0.0
C874 C 0.79465 0.20432 0.97904 0.0
C875 C 0.78612 0.14885 0.98995 0.0
C876 C 0.85534 0.22218 0.97197 0.0
C877 C 0.91055 0.18652 0.97599 0.0
H878 H 0.75401 0.23419 0.97585 0.0
H879 H 0.85929 0.26497 0.9636 0.0
S880 S 0.9158 0.03644 1.00303 0.0
N881 N 0.83961 0.05703 1.00353 0.0
N882 N 0.95295 0.09247 0.99094 0.0
C883 C 0.90306 0.13112 0.98672 0.0
C884 C 0.84119 0.11181 0.99348 0.0
C885 C 0.72973 0.10008 0.7521 0.0
C886 C 0.69024 0.04826 0.75702 0.0
C887 C 0.71351 0.14117 0.73717 0.0
C888 C 0.65715 0.13232 0.72628 0.0
H889 H 0.77325 0.10956 0.76004 0.0
H890 H 0.74531 0.1809 0.73436 0.0
S891 S 0.54171 0.99898 0.73184 0.0
N892 N 0.59478 0.98749 0.74878 0.0
N893 N 0.56444 0.06424 0.72082 0.0
C894 C 0.61813 0.07964 0.73076 0.0
C895 C 0.63458 0.03791 0.74604 0.0
C896 C 0.82063 0.4367 0.96903 0.0
C897 C 0.80884 0.44029 0.98853 0.0
C898 C 0.87861 0.41235 0.96224 0.0
C899 C 0.92656 0.39171 0.97482 0.0
H900 H 0.78481 0.45253 0.95903 0.0
H901 H 0.88581 0.40988 0.94706 0.0
S902 S 0.91762 0.39502 0.02749 0.0
N903 N 0.84838 0.42374 0.02037 0.0
N904 N 0.95762 0.3782 0.00794 0.0
C905 C 0.91484 0.39602 0.99447 0.0
C906 C 0.85582 0.42033 1.00125 0.0
C907 C 0.95194 0.61388 0.2563 0.0
C908 C 0.91569 0.5681 0.24632 0.0
C909 C 0.97447 0.66877 0.24737 0.0
C910 C 0.96244 0.67957 0.22802 0.0
H911 H 0.96176 0.6079 0.27125 0.0
H912 H 1.00161 0.70298 0.25575 0.0
S913 S 0.87226 0.57183 0.19543 0.0
N914 N 0.87015 0.53545 0.21606 0.0
N915 N 0.91325 0.63839 0.19905 0.0
C916 C 0.92739 0.6332 0.21777 0.0
C917 C 0.90373 0.5776 0.22698 0.0
C918 C 0.7349 0.67735 0.50702 0.0
C919 C 0.77803 0.6374 0.49734 0.0
C920 C 0.67924 0.69999 0.49821 0.0
C921 C 0.66465 0.68443 0.47922 0.0
H922 H 0.74386 0.69064 0.52166 0.0
H923 H 0.64774 0.73058 0.50634 0.0
S924 S 0.76364 0.58368 0.44728 0.0
N925 N 0.80334 0.58455 0.46754 0.0
N926 N 0.6993 0.62752 0.45087 0.0
C927 C 0.70799 0.64527 0.46926 0.0
C928 C 0.76435 0.62158 0.47834 0.0
C929 C 0.64248 0.52197 0.73535 0.0
C930 C 0.63961 0.5187 0.75515 0.0
C931 C 0.64509 0.46684 0.72444 0.0
C932 C 0.64337 0.40683 0.73299 0.0
H933 H 0.64568 0.56754 0.72832 0.0
H934 H 0.64815 0.47133 0.70918 0.0
S935 S 0.62954 0.37289 0.78416 0.0
N936 N 0.63173 0.4514 0.78294 0.0
N937 N 0.63327 0.34654 0.76206 0.0
C938 C 0.6362 0.40265 0.75266 0.0
C939 C 0.63485 0.45909 0.76387 0.0
C940 C 0.76467 0.67356 0.14184 0.0
C941 C 0.75861 0.68737 0.12243 0.0
C942 C 0.81968 0.69235 0.15212 0.0
C943 C 0.87092 0.72338 0.14307 0.0
H944 H 0.72678 0.64807 0.14907 0.0
H945 H 0.82278 0.68132 0.16704 0.0
S946 S 0.87786 0.77129 0.09266 0.0
N947 N 0.80782 0.73522 0.09479 0.0
N948 N 0.91109 0.76905 0.11386 0.0
C949 C 0.86494 0.73775 0.12375 0.0
C950 C 0.80885 0.72001 0.11347 0.0
C951 C 0.71574 0.53327 0.38046 0.0
C952 C 0.68091 0.4758 0.38153 0.0
C953 C 0.6932 0.58914 0.38904 0.0
C954 C 0.6352 0.58955 0.39914 0.0
H955 H 0.7591 0.53598 0.37208 0.0
H956 H 0.72049 0.6327 0.38722 0.0
S957 S 0.52869 0.4498 0.40733 0.0
N958 N 0.58813 0.42132 0.39446 0.0
N959 N 0.54505 0.52614 0.41057 0.0
C960 C 0.60152 0.53147 0.40112 0.0
C961 C 0.62447 0.47469 0.39228 0.0
C962 C 0.79826 0.37509 0.61168 0.0
C963 C 0.77027 0.41162 0.59734 0.0
C964 C 0.76202 0.35229 0.62687 0.0
C965 C 0.69585 0.36377 0.62814 0.0
H966 H 0.84904 0.36513 0.61136 0.0
H967 H 0.78608 0.32497 0.63768 0.0
S968 S 0.59855 0.45379 0.59369 0.0
N969 N 0.67212 0.45724 0.58507 0.0
N970 N 0.60305 0.41185 0.61334 0.0
C971 C 0.66659 0.39846 0.61359 0.0
C972 C 0.70407 0.42322 0.59829 0.0
C973 C 0.88608 0.5263 0.87692 0.0
C974 C 0.92072 0.58407 0.8756 0.0
C975 C 0.91293 0.47162 0.88521 0.0
C976 C 0.97519 0.47241 0.89298 0.0
H977 H 0.83813 0.52285 0.87111 0.0
H978 H 0.88445 0.42835 0.88559 0.0
S979 S 0.08686 0.61088 0.8929 0.0
N980 N 0.02151 0.63785 0.88256 0.0
N981 N 0.07123 0.53609 0.89839 0.0
C982 C 0.01022 0.52995 0.89187 0.0
C983 C 0.98332 0.58529 0.88311 0.0
C984 C 0.28262 0.64889 0.11269 0.0
C985 C 0.34609 0.65546 0.11877 0.0
C986 C 0.23215 0.66677 0.1244 0.0
C987 C 0.24332 0.69316 0.14258 0.0
H988 H 0.27203 0.63172 0.09848 0.0
H989 H 0.18425 0.66311 0.11857 0.0
S990 S 0.40205 0.71052 0.16595 0.0
N991 N 0.4185 0.68233 0.14458 0.0
N992 N 0.32328 0.71714 0.16688 0.0
C993 C 0.30689 0.69562 0.14931 0.0
C994 C 0.35845 0.67658 0.13732 0.0
C995 C 0.25189 0.50968 0.89433 0.0
C996 C 0.26499 0.50661 0.87482 0.0
C997 C 0.22664 0.45674 0.90379 0.0
C998 C 0.21359 0.39941 0.89395 0.0
H999 H 0.25665 0.55443 0.90199 0.0
H1000 H 0.21187 0.46276 0.9184 0.0
S1001 S 0.25342 0.36349 0.84383 0.0
N1002 N 0.27387 0.43904 0.84682 0.0
N1003 N 0.22571 0.33973 0.86452 0.0
C1004 C 0.23293 0.39406 0.87495 0.0
C1005 C 0.25867 0.44773 0.86538 0.0
C1006 C 0.32292 0.48492 0.63326 0.0
C1007 C 0.31507 0.45588 0.6152 0.0
C1008 C 0.36681 0.46161 0.64661 0.0
C1009 C 0.40787 0.4111 0.64209 0.0
H1010 H 0.29297 0.52425 0.63762 0.0
H1011 H 0.3661 0.48088 0.6609 0.0
S1012 S 0.41545 0.32266 0.59655 0.0
N1013 N 0.35626 0.37334 0.59379 0.0
N1014 N 0.44442 0.33779 0.61785 0.0
C1015 C 0.40608 0.38636 0.62358 0.0
C1016 C 0.35853 0.40666 0.61038 0.0
C1017 C 0.40498 0.56268 0.36637 0.0
C1018 C 0.38333 0.51347 0.3781 0.0
C1019 C 0.41851 0.62351 0.37356 0.0
C1020 C 0.41346 0.63789 0.39307 0.0
H1021 H 0.41331 0.55366 0.35148 0.0
H1022 H 0.43711 0.65856 0.3638 0.0
S1023 S 0.35336 0.52677 0.42971 0.0
N1024 N 0.35141 0.48416 0.40991 0.0
N1025 N 0.38024 0.59807 0.42382 0.0
C1026 C 0.38834 0.59001 0.40488 0.0
C1027 C 0.37282 0.52793 0.39734 0.0
C1028 C 0.28969 0.51825 0.98472 0.0
C1029 C 0.27178 0.53124 1.00363 0.0
C1030 C 0.2501 0.48178 0.97262 0.0
C1031 C 0.19109 0.45814 0.97904 0.0
H1032 H 0.33657 0.53237 0.97966 0.0
H1033 H 0.26772 0.46826 0.95872 0.0
S1034 S 0.11746 0.48751 0.02605 0.0
N1035 N 0.18766 0.52411 0.02727 0.0
N1036 N 0.11324 0.45601 1.00454 0.0
C1037 C 0.17037 0.47532 0.9973 0.0
C1038 C 0.21069 0.51186 0.00962 0.0
C1039 C 0.44801 0.49647 0.7502 0.0
C1040 C 0.38949 0.49309 0.7602 0.0
C1041 C 0.46125 0.45547 0.73469 0.0
C1042 C 0.41676 0.40892 0.72836 0.0
H1043 H 0.48368 0.5318 0.75422 0.0
H1044 H 0.50684 0.46045 0.72758 0.0
S1045 S 0.25782 0.37767 0.75039 0.0
N1046 N 0.28791 0.43721 0.76304 0.0
N1047 N 0.31199 0.36123 0.73408 0.0
C1048 C 0.3582 0.40495 0.73836 0.0
C1049 C 0.34485 0.44657 0.75415 0.0
C1050 C 0.28795 0.57784 0.48398 0.0
C1051 C 0.234 0.61395 0.47872 0.0
C1052 C 0.35027 0.59596 0.47851 0.0
C1053 C 0.36008 0.64958 0.46715 0.0
H1054 H 0.2825 0.53846 0.49365 0.0
H1055 H 0.3909 0.57075 0.48426 0.0
S1056 S 0.2346 0.75272 0.44675 0.0
N1057 N 0.19443 0.70067 0.45959 0.0
N1058 N 0.31086 0.73353 0.44886 0.0
C1059 C 0.30618 0.68203 0.46032 0.0
C1060 C 0.24323 0.66446 0.46616 0.0
C1061 C 0.16615 0.60551 0.2558 0.0
C1062 C 0.19811 0.55664 0.24599 0.0
C1063 C 0.14957 0.66213 0.24679 0.0
C1064 C 0.16341 0.67194 0.22751 0.0
H1065 H 0.15531 0.60065 0.27073 0.0
H1066 H 0.12569 0.69859 0.25508 0.0
S1067 S 0.24427 0.55733 0.19525 0.0
N1068 N 0.24165 0.52062 0.21584 0.0
N1069 N 0.20974 0.62702 0.19876 0.0
C1070 C 0.19409 0.62279 0.21738 0.0
C1071 C 0.21175 0.56525 0.22667 0.0
loop_
_geom_bond_atom_site_label_1
_geom_bond_atom_site_label_2
_geom_bond_distance
_geom_bond_site_symmetry_2
_ccdc_geom_bond_type
H0 O26 0.856 . S
H1 O29 0.854 . S
H2 C37 0.930 . S
H3 C38 0.930 . S
H4 C40 0.930 1_565 S
H5 C41 0.930 1_565 S
H6 C43 0.931 . S
H7 C44 0.930 . S
H8 C46 0.930 . S
H9 C47 0.929 . S
H10 C49 0.930 . S
H11 C50 0.931 . S
H12 C52 0.930 . S
H13 C53 0.915 1_565 S
H14 C55 0.931 . S
H15 C56 0.930 . S
H16 C58 0.930 . S
H17 C59 0.932 . S
H18 C61 0.930 1_445 S
H19 C62 0.929 . S
H20 C64 0.931 . S
H21 C65 0.930 . S
H22 C67 0.929 . S
H23 C68 0.931 1_545 S
H24 C70 0.930 . S
H25 C71 0.929 . S
O26 H0 0.856 . S
O26 C72 1.300 . S
O27 C72 1.209 . S
O28 C73 1.199 . S
O29 H1 0.854 . S
O29 C73 1.297 . S
C30 C31 1.404 . S
C30 C35 1.397 . S
C30 C36 1.492 . S
C31 C30 1.404 . S
C31 C32 1.396 1_455 S
C31 C42 1.492 . S
C32 C31 1.396 1_655 S
C32 C33 1.397 . S
C32 C48 1.509 . S
C33 C32 1.397 . S
C33 C34 1.412 1_545 S
C33 C54 1.483 1_545 S
C34 C33 1.412 1_565 S
C34 C35 1.388 1_665 S
C34 C60 1.490 . S
C35 C30 1.397 . S
C35 C34 1.388 1_445 S
C35 C66 1.519 1_545 S
C36 C30 1.492 . S
C36 C37 1.363 . S
C36 C41 1.390 . S
C37 H2 0.930 . S
C37 C36 1.363 . S
C37 C38 1.372 . S
C38 H3 0.930 . S
C38 C37 1.372 . S
C38 C39 1.383 . S
C39 C38 1.383 . S
C39 C40 1.395 . S
C40 H4 0.930 1_545 S
C40 C39 1.395 . S
C40 C41 1.362 . S
C41 H5 0.930 1_545 S
C41 C36 1.390 . S
C41 C40 1.362 . S
C42 C31 1.492 . S
C42 C43 1.377 . S
C42 C47 1.397 . S
C43 H6 0.931 . S
C43 C42 1.377 . S
C43 C44 1.376 . S
C44 H7 0.930 . S
C44 C43 1.376 . S
C44 C45 1.376 . S
C45 C44 1.376 . S
C45 C46 1.378 . S
C45 C72 1.486 . S
C46 H8 0.930 . S
C46 C45 1.378 . S
C46 C47 1.376 . S
C47 H9 0.929 . S
C47 C42 1.397 . S
C47 C46 1.376 . S
C48 C32 1.509 . S
C48 C49 1.391 . S
C48 C53 1.386 . S
C49 H10 0.930 . S
C49 C48 1.391 . S
C49 C50 1.375 . S
C50 H11 0.931 . S
C50 C49 1.375 . S
C50 C51 1.375 . S
C51 C50 1.375 . S
C51 C52 1.361 . S
C52 H12 0.930 . S
C52 C51 1.361 . S
C52 C53 1.399 . S
C53 H13 0.915 1_545 S
C53 C48 1.386 . S
C53 C52 1.399 . S
C54 C33 1.483 1_565 S
C54 C55 1.390 1_565 S
C54 C59 1.365 . S
C55 H14 0.931 . S
C55 C54 1.390 1_545 S
C55 C56 1.372 . S
C56 H15 0.930 . S
C56 C55 1.372 . S
C56 C57 1.397 1_545 S
C57 C56 1.397 1_565 S
C57 C58 1.390 . S
C57 C73 1.476 . S
C58 H16 0.930 . S
C58 C57 1.390 . S
C58 C59 1.366 . S
C59 H17 0.932 . S
C59 C54 1.365 . S
C59 C58 1.366 . S
C60 C34 1.490 . S
C60 C61 1.380 . S
C60 C65 1.386 . S
C61 H18 0.930 1_665 S
C61 C60 1.380 . S
C61 C62 1.381 . S
C62 H19 0.929 . S
C62 C61 1.381 . S
C62 C63 1.371 . S
C63 C62 1.371 . S
C63 C64 1.380 . S
C64 H20 0.931 . S
C64 C63 1.380 . S
C64 C65 1.387 . S
C65 H21 0.930 . S
C65 C60 1.386 . S
C65 C64 1.387 . S
C66 C35 1.519 1_565 S
C66 C67 1.377 1_565 S
C66 C71 1.361 . S
C67 H22 0.929 . S
C67 C66 1.377 1_545 S
C67 C68 1.386 1_545 S
C68 H23 0.931 1_565 S
C68 C67 1.386 1_565 S
C68 C69 1.363 . S
C69 C68 1.363 . S
C69 C70 1.385 . S
C70 H24 0.930 . S
C70 C69 1.385 . S
C70 C71 1.396 . S
C71 H25 0.929 . S
C71 C66 1.361 . S
C71 C70 1.396 . S
C72 O26 1.300 . S
C72 O27 1.209 . S
C72 C45 1.486 . S
C73 O28 1.199 . S
C73 O29 1.297 . S
C73 C57 1.476 . S
H74 O100 0.856 . S
H75 O103 0.854 . S
H76 C111 0.930 . S
H77 C112 0.930 . S
H78 C114 0.930 . S
H79 C115 0.930 . S
H80 C117 0.931 . S
H81 C118 0.930 . S
H82 C120 0.930 . S
H83 C121 0.929 . S
H84 C123 0.930 . S
H85 C124 0.931 . S
H86 C126 0.930 . S
H87 C127 0.929 . S
H88 C129 0.931 . S
H89 C130 0.930 . S
H90 C132 0.930 . S
H91 C133 0.932 . S
H92 C135 0.930 . S
H93 C136 0.929 . S
H94 C138 0.931 . S
H95 C139 0.930 . S
H96 C141 0.929 . S
H97 C142 0.931 . S
H98 C144 0.930 . S
H99 C145 0.929 . S
O100 H74 0.856 . S
O100 C146 1.300 . S
O101 C146 1.209 . S
O102 C147 1.199 . S
O103 H75 0.854 . S
O103 C147 1.297 . S
C104 C105 1.404 . S
C104 C109 1.397 . S
C104 C110 1.492 . S
C105 C104 1.404 . S
C105 C106 1.396 . S
C105 C116 1.492 . S
C106 C105 1.396 . S
C106 C107 1.397 . S
C106 C122 1.509 . S
C107 C106 1.397 . S
C107 C108 1.412 . S
C107 C128 1.485 . S
C108 C107 1.412 . S
C108 C109 1.388 . S
C108 C134 1.490 . S
C109 C104 1.397 . S
C109 C108 1.388 . S
C109 C140 1.519 . S
C110 C104 1.492 . S
C110 C111 1.363 . S
C110 C115 1.390 . S
C111 H76 0.930 . S
C111 C110 1.363 . S
C111 C112 1.372 . S
C112 H77 0.930 . S
C112 C111 1.372 . S
C112 C113 1.383 . S
C113 C112 1.383 . S
C113 C114 1.395 . S
C114 H78 0.930 . S
C114 C113 1.395 . S
C114 C115 1.362 . S
C115 H79 0.930 . S
C115 C110 1.390 . S
C115 C114 1.362 . S
C116 C105 1.492 . S
C116 C117 1.377 . S
C116 C121 1.397 . S
C117 H80 0.931 . S
C117 C116 1.377 . S
C117 C118 1.376 . S
C118 H81 0.930 . S
C118 C117 1.376 . S
C118 C119 1.376 . S
C119 C118 1.376 . S
C119 C120 1.378 . S
C119 C146 1.486 . S
C120 H82 0.930 . S
C120 C119 1.378 . S
C120 C121 1.376 . S
C121 H83 0.929 . S
C121 C116 1.397 . S
C121 C120 1.376 . S
C122 C106 1.509 . S
C122 C123 1.391 . S
C122 C127 1.386 . S
C123 H84 0.930 . S
C123 C122 1.391 . S
C123 C124 1.375 1_565 S
C124 H85 0.931 . S
C124 C123 1.375 1_545 S
C124 C125 1.375 . S
C125 C124 1.375 . S
C125 C126 1.361 1_545 S
C126 H86 0.930 . S
C126 C125 1.361 1_565 S
C126 C127 1.399 . S
C127 H87 0.929 . S
C127 C122 1.386 . S
C127 C126 1.399 . S
C128 C107 1.485 . S
C128 C129 1.394 . S
C128 C133 1.360 . S
C129 H88 0.931 . S
C129 C128 1.394 . S
C129 C130 1.372 1_565 S
C130 H89 0.930 . S
C130 C129 1.372 1_545 S
C130 C131 1.397 . S
C131 C130 1.397 . S
C131 C132 1.390 . S
C131 C147 1.476 . S
C132 H90 0.930 . S
C132 C131 1.390 . S
C132 C133 1.366 1_545 S
C133 H91 0.932 . S
C133 C128 1.360 . S
C133 C132 1.366 1_565 S
C134 C108 1.490 . S
C134 C135 1.380 . S
C134 C139 1.386 . S
C135 H92 0.930 . S
C135 C134 1.380 . S
C135 C136 1.381 . S
C136 H93 0.929 . S
C136 C135 1.381 . S
C136 C137 1.371 . S
C137 C136 1.371 . S
C137 C138 1.380 . S
C138 H94 0.931 . S
C138 C137 1.380 . S
C138 C139 1.387 . S
C139 H95 0.930 . S
C139 C134 1.386 . S
C139 C138 1.387 . S
C140 C109 1.519 . S
C140 C141 1.377 . S
C140 C145 1.361 . S
C141 H96 0.929 . S
C141 C140 1.377 . S
C141 C142 1.386 . S
C142 H97 0.931 . S
C142 C141 1.386 . S
C142 C143 1.363 . S
C143 C142 1.363 . S
C143 C144 1.385 . S
C144 H98 0.930 . S
C144 C143 1.385 . S
C144 C145 1.396 . S
C145 H99 0.929 . S
C145 C140 1.361 . S
C145 C144 1.396 . S
C146 O100 1.300 . S
C146 O101 1.209 . S
C146 C119 1.486 . S
C147 O102 1.199 . S
C147 O103 1.297 . S
C147 C131 1.476 . S
H148 O174 0.856 . S
H149 O177 0.854 . S
H150 C185 0.930 . S
H151 C186 0.930 . S
H152 C188 0.930 . S
H153 C189 0.930 . S
H154 C191 0.931 . S
H155 C192 0.930 . S
H156 C194 0.930 1_545 S
H157 C195 0.929 . S
H158 C197 0.930 . S
H159 C198 0.931 . S
H160 C200 0.930 . S
H161 C201 0.929 . S
H162 C203 0.931 . S
H163 C204 0.930 . S
H164 C206 0.930 . S
H165 C207 0.932 . S
H166 C209 0.930 . S
H167 C210 0.929 . S
H168 C212 0.931 . S
H169 C213 0.930 . S
H170 C215 0.929 . S
H171 C216 0.931 . S
H172 C218 0.930 . S
H173 C219 0.929 . S
O174 H148 0.856 . S
O174 C220 1.300 . S
O175 C220 1.209 . S
O176 C221 1.199 . S
O177 H149 0.854 . S
O177 C221 1.297 . S
C178 C179 1.404 . S
C178 C183 1.397 . S
C178 C184 1.492 . S
C179 C178 1.404 . S
C179 C180 1.396 . S
C179 C190 1.492 1_545 S
C180 C179 1.396 . S
C180 C181 1.397 . S
C180 C196 1.509 . S
C181 C180 1.397 . S
C181 C182 1.412 . S
C181 C202 1.485 . S
C182 C181 1.412 . S
C182 C183 1.388 . S
C182 C208 1.490 . S
C183 C178 1.397 . S
C183 C182 1.388 . S
C183 C214 1.519 . S
C184 C178 1.492 . S
C184 C185 1.363 1_545 S
C184 C189 1.390 . S
C185 H150 0.930 . S
C185 C184 1.363 1_565 S
C185 C186 1.372 . S
C186 H151 0.930 . S
C186 C185 1.372 . S
C186 C187 1.383 . S
C187 C186 1.383 . S
C187 C188 1.395 1_565 S
C188 H152 0.930 . S
C188 C187 1.395 1_545 S
C188 C189 1.362 . S
C189 H153 0.930 . S
C189 C184 1.390 . S
C189 C188 1.362 . S
C190 C179 1.492 1_565 S
C190 C191 1.377 . S
C190 C195 1.397 1_565 S
C191 H154 0.931 . S
C191 C190 1.377 . S
C191 C192 1.376 . S
C192 H155 0.930 . S
C192 C191 1.376 . S
C192 C193 1.376 . S
C193 C192 1.376 . S
C193 C194 1.378 . S
C193 C220 1.486 . S
C194 H156 0.930 1_565 S
C194 C193 1.378 . S
C194 C195 1.376 1_565 S
C195 H157 0.929 . S
C195 C190 1.397 1_545 S
C195 C194 1.376 1_545 S
C196 C180 1.509 . S
C196 C197 1.391 1_545 S
C196 C201 1.386 . S
C197 H158 0.930 . S
C197 C196 1.391 1_565 S
C197 C198 1.375 . S
C198 H159 0.931 . S
C198 C197 1.375 . S
C198 C199 1.375 . S
C199 C198 1.375 . S
C199 C200 1.361 1_565 S
C200 H160 0.930 . S
C200 C199 1.361 1_545 S
C200 C201 1.399 . S
C201 H161 0.929 . S
C201 C196 1.386 . S
C201 C200 1.399 . S
C202 C181 1.485 . S
C202 C203 1.394 . S
C202 C207 1.360 . S
C203 H162 0.931 . S
C203 C202 1.394 . S
C203 C204 1.372 . S
C204 H163 0.930 . S
C204 C203 1.372 . S
C204 C205 1.397 . S
C205 C204 1.397 . S
C205 C206 1.390 . S
C205 C221 1.476 . S
C206 H164 0.930 . S
C206 C205 1.390 . S
C206 C207 1.366 . S
C207 H165 0.932 . S
C207 C202 1.360 . S
C207 C206 1.366 . S
C208 C182 1.490 . S
C208 C209 1.380 . S
C208 C213 1.386 . S
C209 H166 0.930 . S
C209 C208 1.380 . S
C209 C210 1.381 1_554 S
C210 H167 0.929 . S
C210 C209 1.381 1_556 S
C210 C211 1.371 . S
C211 C210 1.371 . S
C211 C212 1.380 1_556 S
C212 H168 0.931 . S
C212 C211 1.380 1_554 S
C212 C213 1.387 . S
C213 H169 0.930 . S
C213 C208 1.386 . S
C213 C212 1.387 . S
C214 C183 1.519 . S
C214 C215 1.377 . S
C214 C219 1.361 . S
C215 H170 0.929 . S
C215 C214 1.377 . S
C215 C216 1.386 . S
C216 H171 0.931 . S
C216 C215 1.386 . S
C216 C217 1.363 . S
C217 C216 1.363 . S
C217 C218 1.385 . S
C218 H172 0.930 . S
C218 C217 1.385 . S
C218 C219 1.396 . S
C219 H173 0.929 . S
C219 C214 1.361 . S
C219 C218 1.396 . S
C220 O174 1.300 . S
C220 O175 1.209 . S
C220 C193 1.486 . S
C221 O176 1.199 . S
C221 O177 1.297 . S
C221 C205 1.476 . S
H222 O248 0.856 . S
H223 O251 0.854 . S
H224 C259 0.930 . S
H225 C260 0.930 . S
H226 C262 0.930 . S
H227 C263 0.930 . S
H228 C265 0.931 . S
H229 C266 0.930 . S
H230 C268 0.930 . S
H231 C269 0.929 . S
H232 C271 0.930 . S
H233 C272 0.931 . S
H234 C274 0.930 . S
H235 C275 0.929 . S
H236 C277 0.931 . S
H237 C278 0.930 . S
H238 C280 0.930 . S
H239 C281 0.932 . S
H240 C283 0.930 . S
H241 C284 0.929 . S
H242 C286 0.931 . S
H243 C287 0.930 . S
H244 C289 0.929 . S
H245 C290 0.931 . S
H246 C292 0.930 . S
H247 C293 0.929 . S
O248 H222 0.856 . S
O248 C294 1.300 . S
O249 C294 1.209 . S
O250 C295 1.199 . S
O251 H223 0.854 . S
O251 C295 1.297 . S
C252 C253 1.404 . S
C252 C257 1.397 . S
C252 C258 1.492 . S
C253 C252 1.404 . S
C253 C254 1.396 . S
C253 C264 1.492 . S
C254 C253 1.396 . S
C254 C255 1.397 . S
C254 C270 1.509 . S
C255 C254 1.397 . S
C255 C256 1.412 . S
C255 C276 1.485 . S
C256 C255 1.412 . S
C256 C257 1.388 . S
C256 C282 1.490 . S
C257 C252 1.397 . S
C257 C256 1.388 . S
C257 C288 1.519 . S
C258 C252 1.492 . S
C258 C259 1.363 . S
C258 C263 1.390 . S
C259 H224 0.930 . S
C259 C258 1.363 . S
C259 C260 1.372 . S
C260 H225 0.930 . S
C260 C259 1.372 . S
C260 C261 1.383 . S
C261 C260 1.383 . S
C261 C262 1.395 . S
C262 H226 0.930 . S
C262 C261 1.395 . S
C262 C263 1.362 . S
C263 H227 0.930 . S
C263 C258 1.390 . S
C263 C262 1.362 . S
C264 C253 1.492 . S
C264 C265 1.377 . S
C264 C269 1.397 . S
C265 H228 0.931 . S
C265 C264 1.377 . S
C265 C266 1.376 . S
C266 H229 0.930 . S
C266 C265 1.376 . S
C266 C267 1.376 . S
C267 C266 1.376 . S
C267 C268 1.378 . S
C267 C294 1.486 . S
C268 H230 0.930 . S
C268 C267 1.378 . S
C268 C269 1.376 . S
C269 H231 0.929 . S
C269 C264 1.397 . S
C269 C268 1.376 . S
C270 C254 1.509 . S
C270 C271 1.391 . S
C270 C275 1.386 . S
C271 H232 0.930 . S
C271 C270 1.391 . S
C271 C272 1.375 . S
C272 H233 0.931 . S
C272 C271 1.375 . S
C272 C273 1.375 . S
C273 C272 1.375 . S
C273 C274 1.361 . S
C274 H234 0.930 . S
C274 C273 1.361 . S
C274 C275 1.399 . S
C275 H235 0.929 . S
C275 C270 1.386 . S
C275 C274 1.399 . S
C276 C255 1.485 . S
C276 C277 1.394 . S
C276 C281 1.360 . S
C277 H236 0.931 . S
C277 C276 1.394 . S
C277 C278 1.372 . S
C278 H237 0.930 . S
C278 C277 1.372 . S
C278 C279 1.397 . S
C279 C278 1.397 . S
C279 C280 1.390 . S
C279 C295 1.476 . S
C280 H238 0.930 . S
C280 C279 1.390 . S
C280 C281 1.366 . S
C281 H239 0.932 . S
C281 C276 1.360 . S
C281 C280 1.366 . S
C282 C256 1.490 . S
C282 C283 1.380 . S
C282 C287 1.386 . S
C283 H240 0.930 . S
C283 C282 1.380 . S
C283 C284 1.381 . S
C284 H241 0.929 . S
C284 C283 1.381 . S
C284 C285 1.371 . S
C285 C284 1.371 . S
C285 C286 1.380 . S
C286 H242 0.931 . S
C286 C285 1.380 . S
C286 C287 1.387 . S
C287 H243 0.930 . S
C287 C282 1.386 . S
C287 C286 1.387 . S
C288 C257 1.519 . S
C288 C289 1.377 . S
C288 C293 1.361 . S
C289 H244 0.929 . S
C289 C288 1.377 . S
C289 C290 1.386 . S
C290 H245 0.931 . S
C290 C289 1.386 . S
C290 C291 1.363 . S
C291 C290 1.363 . S
C291 C292 1.385 . S
C292 H246 0.930 . S
C292 C291 1.385 . S
C292 C293 1.396 . S
C293 H247 0.929 . S
C293 C288 1.361 . S
C293 C292 1.396 . S
C294 O248 1.300 . S
C294 O249 1.209 . S
C294 C267 1.486 . S
C295 O250 1.199 . S
C295 O251 1.297 . S
C295 C279 1.476 . S
H296 O322 0.856 . S
H297 O325 0.854 . S
H298 C333 0.930 . S
H299 C334 0.930 . S
H300 C336 0.930 . S
H301 C337 0.930 . S
H302 C339 0.931 . S
H303 C340 0.930 . S
H304 C342 0.930 . S
H305 C343 0.929 . S
H306 C345 0.930 . S
H307 C346 0.931 . S
H308 C348 0.930 . S
H309 C349 0.929 . S
H310 C351 0.931 . S
H311 C352 0.930 . S
H312 C354 0.930 . S
H313 C355 0.932 . S
H314 C357 0.930 . S
H315 C358 0.929 . S
H316 C360 0.931 . S
H317 C361 0.930 . S
H318 C363 0.929 . S
H319 C364 0.931 . S
H320 C366 0.930 . S
H321 C367 0.929 . S
O322 H296 0.856 . S
O322 C368 1.300 . S
O323 C368 1.209 1_455 S
O324 C369 1.199 . S
O325 H297 0.854 . S
O325 C369 1.297 . S
C326 C327 1.404 . S
C326 C331 1.397 . S
C326 C332 1.492 . S
C327 C326 1.404 . S
C327 C328 1.396 . S
C327 C338 1.492 . S
C328 C327 1.396 . S
C328 C329 1.397 . S
C328 C344 1.509 . S
C329 C328 1.397 . S
C329 C330 1.412 . S
C329 C350 1.485 . S
C330 C329 1.412 . S
C330 C331 1.388 . S
C330 C356 1.490 . S
C331 C326 1.397 . S
C331 C330 1.388 . S
C331 C362 1.519 . S
C332 C326 1.492 . S
C332 C333 1.363 . S
C332 C337 1.390 . S
C333 H298 0.930 . S
C333 C332 1.363 . S
C333 C334 1.372 . S
C334 H299 0.930 . S
C334 C333 1.372 . S
C334 C335 1.383 . S
C335 C334 1.383 . S
C335 C336 1.395 . S
C336 H300 0.930 . S
C336 C335 1.395 . S
C336 C337 1.362 . S
C337 H301 0.930 . S
C337 C332 1.390 . S
C337 C336 1.362 . S
C338 C327 1.492 . S
C338 C339 1.377 . S
C338 C343 1.397 . S
C339 H302 0.931 . S
C339 C338 1.377 . S
C339 C340 1.376 . S
C340 H303 0.930 . S
C340 C339 1.376 . S
C340 C341 1.376 . S
C341 C340 1.376 . S
C341 C342 1.378 . S
C341 C368 1.486 . S
C342 H304 0.930 . S
C342 C341 1.378 . S
C342 C343 1.376 . S
C343 H305 0.929 . S
C343 C338 1.397 . S
C343 C342 1.376 . S
C344 C328 1.509 . S
C344 C345 1.391 . S
C344 C349 1.386 . S
C345 H306 0.930 . S
C345 C344 1.391 . S
C345 C346 1.375 . S
C346 H307 0.931 . S
C346 C345 1.375 . S
C346 C347 1.375 . S
C347 C346 1.375 . S
C347 C348 1.361 . S
C348 H308 0.930 . S
C348 C347 1.361 . S
C348 C349 1.399 . S
C349 H309 0.929 . S
C349 C344 1.386 . S
C349 C348 1.399 . S
C350 C329 1.485 . S
C350 C351 1.394 . S
C350 C355 1.360 . S
C351 H310 0.931 . S
C351 C350 1.394 . S
C351 C352 1.372 . S
C352 H311 0.930 . S
C352 C351 1.372 . S
C352 C353 1.397 . S
C353 C352 1.397 . S
C353 C354 1.390 . S
C353 C369 1.476 . S
C354 H312 0.930 . S
C354 C353 1.390 . S
C354 C355 1.366 . S
C355 H313 0.932 . S
C355 C350 1.360 . S
C355 C354 1.366 . S
C356 C330 1.490 . S
C356 C357 1.380 . S
C356 C361 1.386 . S
C357 H314 0.930 . S
C357 C356 1.380 . S
C357 C358 1.381 . S
C358 H315 0.929 . S
C358 C357 1.381 . S
C358 C359 1.371 . S
C359 C358 1.371 . S
C359 C360 1.380 . S
C360 H316 0.931 . S
C360 C359 1.380 . S
C360 C361 1.387 . S
C361 H317 0.930 . S
C361 C356 1.386 . S
C361 C360 1.387 . S
C362 C331 1.519 . S
C362 C363 1.377 . S
C362 C367 1.361 . S
C363 H318 0.929 . S
C363 C362 1.377 . S
C363 C364 1.386 . S
C364 H319 0.931 . S
C364 C363 1.386 . S
C364 C365 1.363 . S
C365 C364 1.363 . S
C365 C366 1.385 . S
C366 H320 0.930 . S
C366 C365 1.385 . S
C366 C367 1.396 . S
C367 H321 0.929 . S
C367 C362 1.361 . S
C367 C366 1.396 . S
C368 O322 1.300 . S
C368 O323 1.209 1_655 S
C368 C341 1.486 . S
C369 O324 1.199 . S
C369 O325 1.297 . S
C369 C353 1.476 . S
H370 O396 0.856 . S
H371 O399 0.854 . S
H372 C407 0.930 . S
H373 C408 0.930 . S
H374 C410 0.930 1_545 S
H375 C411 0.930 . S
H376 C413 0.931 . S
H377 C414 0.930 . S
H378 C416 0.930 . S
H379 C417 0.929 . S
H380 C419 0.930 . S
H381 C420 0.931 . S
H382 C422 0.930 . S
H383 C423 0.929 . S
H384 C425 0.931 . S
H385 C426 0.930 . S
H386 C428 0.930 . S
H387 C429 0.932 . S
H388 C431 0.930 . S
H389 C432 0.929 1_455 S
H390 C434 0.931 . S
H391 C435 0.930 . S
H392 C437 0.929 . S
H393 C438 0.931 . S
H394 C440 0.930 . S
H395 C441 0.929 . S
O396 H370 0.856 . S
O396 C442 1.300 . S
O397 C442 1.209 . S
O398 C443 1.199 . S
O399 H371 0.854 . S
O399 C443 1.297 . S
C400 C401 1.404 . S
C400 C405 1.397 . S
C400 C406 1.492 . S
C401 C400 1.404 . S
C401 C402 1.396 . S
C401 C412 1.492 . S
C402 C401 1.396 . S
C402 C403 1.397 . S
C402 C418 1.509 . S
C403 C402 1.397 . S
C403 C404 1.412 . S
C403 C424 1.485 . S
C404 C403 1.412 . S
C404 C405 1.388 . S
C404 C430 1.490 . S
C405 C400 1.397 . S
C405 C404 1.388 . S
C405 C436 1.519 . S
C406 C400 1.492 . S
C406 C407 1.363 . S
C406 C411 1.390 . S
C407 H372 0.930 . S
C407 C406 1.363 . S
C407 C408 1.372 . S
C408 H373 0.930 . S
C408 C407 1.372 . S
C408 C409 1.383 1_565 S
C409 C408 1.383 1_545 S
C409 C410 1.395 1_545 S
C410 H374 0.930 1_565 S
C410 C409 1.395 1_565 S
C410 C411 1.362 . S
C411 H375 0.930 . S
C411 C406 1.390 . S
C411 C410 1.362 . S
C412 C401 1.492 . S
C412 C413 1.377 . S
C412 C417 1.397 . S
C413 H376 0.931 . S
C413 C412 1.377 . S
C413 C414 1.376 . S
C414 H377 0.930 . S
C414 C413 1.376 . S
C414 C415 1.376 . S
C415 C414 1.376 . S
C415 C416 1.378 . S
C415 C442 1.486 . S
C416 H378 0.930 . S
C416 C415 1.378 . S
C416 C417 1.376 . S
C417 H379 0.929 . S
C417 C412 1.397 . S
C417 C416 1.376 . S
C418 C402 1.509 . S
C418 C419 1.391 . S
C418 C423 1.386 . S
C419 H380 0.930 . S
C419 C418 1.391 . S
C419 C420 1.375 . S
C420 H381 0.931 . S
C420 C419 1.375 . S
C420 C421 1.375 . S
C421 C420 1.375 . S
C421 C422 1.361 . S
C422 H382 0.930 . S
C422 C421 1.361 . S
C422 C423 1.399 . S
C423 H383 0.929 . S
C423 C418 1.386 . S
C423 C422 1.399 . S
C424 C403 1.485 . S
C424 C425 1.394 . S
C424 C429 1.360 . S
C425 H384 0.931 . S
C425 C424 1.394 . S
C425 C426 1.372 . S
C426 H385 0.930 . S
C426 C425 1.372 . S
C426 C427 1.397 . S
C427 C426 1.397 . S
C427 C428 1.390 . S
C427 C443 1.476 . S
C428 H386 0.930 . S
C428 C427 1.390 . S
C428 C429 1.366 . S
C429 H387 0.932 . S
C429 C424 1.360 . S
C429 C428 1.366 . S
C430 C404 1.490 . S
C430 C431 1.380 . S
C430 C435 1.386 . S
C431 H388 0.930 . S
C431 C430 1.380 . S
C431 C432 1.381 . S
C432 H389 0.929 1_655 S
C432 C431 1.381 . S
C432 C433 1.371 . S
C433 C432 1.371 . S
C433 C434 1.380 . S
C434 H390 0.931 . S
C434 C433 1.380 . S
C434 C435 1.387 . S
C435 H391 0.930 . S
C435 C430 1.386 . S
C435 C434 1.387 . S
C436 C405 1.519 . S
C436 C437 1.377 . S
C436 C441 1.361 . S
C437 H392 0.929 . S
C437 C436 1.377 . S
C437 C438 1.386 . S
C438 H393 0.931 . S
C438 C437 1.386 . S
C438 C439 1.363 . S
C439 C438 1.363 . S
C439 C440 1.385 . S
C440 H394 0.930 . S
C440 C439 1.385 . S
C440 C441 1.396 . S
C441 H395 0.929 . S
C441 C436 1.361 . S
C441 C440 1.396 . S
C442 O396 1.300 . S
C442 O397 1.209 . S
C442 C415 1.486 . S
C443 O398 1.199 . S
C443 O399 1.297 . S
C443 C427 1.476 . S
H444 O470 0.856 . S
H445 O473 0.854 . S
H446 C481 0.930 . S
H447 C482 0.930 . S
H448 C484 0.930 . S
H449 C485 0.930 . S
H450 C487 0.931 . S
H451 C488 0.930 . S
H452 C490 0.930 . S
H453 C491 0.929 . S
H454 C493 0.930 . S
H455 C494 0.931 . S
H456 C496 0.930 . S
H457 C497 0.929 . S
H458 C499 0.931 . S
H459 C500 0.930 . S
H460 C502 0.930 . S
H461 C503 0.932 . S
H462 C505 0.930 . S
H463 C506 0.929 . S
H464 C508 0.931 . S
H465 C509 0.930 . S
H466 C511 0.929 . S
H467 C512 0.931 . S
H468 C514 0.930 . S
H469 C515 0.929 . S
O470 H444 0.856 . S
O470 C516 1.300 . S
O471 C516 1.209 . S
O472 C517 1.199 . S
O473 H445 0.854 . S
O473 C517 1.297 . S
C474 C475 1.404 . S
C474 C479 1.397 . S
C474 C480 1.492 . S
C475 C474 1.404 . S
C475 C476 1.396 . S
C475 C486 1.492 . S
C476 C475 1.396 . S
C476 C477 1.397 . S
C476 C492 1.509 . S
C477 C476 1.397 . S
C477 C478 1.412 . S
C477 C498 1.485 . S
C478 C477 1.412 . S
C478 C479 1.388 . S
C478 C504 1.490 . S
C479 C474 1.397 . S
C479 C478 1.388 . S
C479 C510 1.519 . S
C480 C474 1.492 . S
C480 C481 1.363 . S
C480 C485 1.390 . S
C481 H446 0.930 . S
C481 C480 1.363 . S
C481 C482 1.372 . S
C482 H447 0.930 . S
C482 C481 1.372 . S
C482 C483 1.383 . S
C483 C482 1.383 . S
C483 C484 1.395 . S
C484 H448 0.930 . S
C484 C483 1.395 . S
C484 C485 1.362 . S
C485 H449 0.930 . S
C485 C480 1.390 . S
C485 C484 1.362 . S
C486 C475 1.492 . S
C486 C487 1.377 1_554 S
C486 C491 1.397 . S
C487 H450 0.931 . S
C487 C486 1.377 1_556 S
C487 C488 1.376 . S
C488 H451 0.930 . S
C488 C487 1.376 . S
C488 C489 1.376 . S
C489 C488 1.376 . S
C489 C490 1.378 . S
C489 C516 1.486 . S
C490 H452 0.930 . S
C490 C489 1.378 . S
C490 C491 1.376 1_556 S
C491 H453 0.929 . S
C491 C486 1.397 . S
C491 C490 1.376 1_554 S
C492 C476 1.509 . S
C492 C493 1.391 . S
C492 C497 1.386 . S
C493 H454 0.930 . S
C493 C492 1.391 . S
C493 C494 1.375 1_554 S
C494 H455 0.931 . S
C494 C493 1.375 1_556 S
C494 C495 1.375 . S
C495 C494 1.375 . S
C495 C496 1.361 1_556 S
C496 H456 0.930 . S
C496 C495 1.361 1_554 S
C496 C497 1.399 . S
C497 H457 0.929 . S
C497 C492 1.386 . S
C497 C496 1.399 . S
C498 C477 1.485 . S
C498 C499 1.394 . S
C498 C503 1.360 . S
C499 H458 0.931 . S
C499 C498 1.394 . S
C499 C500 1.372 . S
C500 H459 0.930 . S
C500 C499 1.372 . S
C500 C501 1.397 . S
C501 C500 1.397 . S
C501 C502 1.390 . S
C501 C517 1.476 . S
C502 H460 0.930 . S
C502 C501 1.390 . S
C502 C503 1.366 . S
C503 H461 0.932 . S
C503 C498 1.360 . S
C503 C502 1.366 . S
C504 C478 1.490 . S
C504 C505 1.380 . S
C504 C509 1.386 . S
C505 H462 0.930 . S
C505 C504 1.380 . S
C505 C506 1.381 . S
C506 H463 0.929 . S
C506 C505 1.381 . S
C506 C507 1.371 . S
C507 C506 1.371 . S
C507 C508 1.380 . S
C508 H464 0.931 . S
C508 C507 1.380 . S
C508 C509 1.387 . S
C509 H465 0.930 . S
C509 C504 1.386 . S
C509 C508 1.387 . S
C510 C479 1.519 . S
C510 C511 1.377 . S
C510 C515 1.361 . S
C511 H466 0.929 . S
C511 C510 1.377 . S
C511 C512 1.386 . S
C512 H467 0.931 . S
C512 C511 1.386 . S
C512 C513 1.363 . S
C513 C512 1.363 . S
C513 C514 1.385 . S
C514 H468 0.930 . S
C514 C513 1.385 . S
C514 C515 1.396 . S
C515 H469 0.929 . S
C515 C510 1.361 . S
C515 C514 1.396 . S
C516 O470 1.300 . S
C516 O471 1.209 . S
C516 C489 1.486 . S
C517 O472 1.199 . S
C517 O473 1.297 . S
C517 C501 1.476 . S
H518 O544 0.855 1_655 S
H519 O547 0.854 . S
H520 C555 0.930 . S
H521 C556 0.930 . S
H522 C558 0.930 . S
H523 C559 0.930 . S
H524 C561 0.931 . S
H525 C562 0.930 . S
H526 C564 0.930 . S
H527 C565 0.929 1_655 S
H528 C567 0.930 . S
H529 C568 0.931 . S
H530 C570 0.930 . S
H531 C571 0.929 . S
H532 C573 0.931 . S
H533 C574 0.930 . S
H534 C576 0.930 . S
H535 C577 0.932 . S
H536 C579 0.930 . S
H537 C580 0.929 . S
H538 C582 0.931 . S
H539 C583 0.930 . S
H540 C585 0.929 . S
H541 C586 0.931 . S
H542 C588 0.930 . S
H543 C589 0.929 1_455 S
O544 H518 0.855 1_455 S
O544 C590 1.297 1_455 S
O545 C590 1.209 . S
O546 C591 1.199 . S
O547 H519 0.854 . S
O547 C591 1.297 . S
C548 C549 1.404 . S
C548 C553 1.397 . S
C548 C554 1.492 1_455 S
C549 C548 1.404 . S
C549 C550 1.396 . S
C549 C560 1.492 . S
C550 C549 1.396 . S
C550 C551 1.397 . S
C550 C566 1.509 . S
C551 C550 1.397 . S
C551 C552 1.412 . S
C551 C572 1.485 . S
C552 C551 1.412 . S
C552 C553 1.388 . S
C552 C578 1.490 . S
C553 C548 1.397 . S
C553 C552 1.388 . S
C553 C584 1.519 1_455 S
C554 C548 1.492 1_655 S
C554 C555 1.363 . S
C554 C559 1.390 . S
C555 H520 0.930 . S
C555 C554 1.363 . S
C555 C556 1.372 . S
C556 H521 0.930 . S
C556 C555 1.372 . S
C556 C557 1.383 . S
C557 C556 1.383 . S
C557 C558 1.395 . S
C558 H522 0.930 . S
C558 C557 1.395 . S
C558 C559 1.362 . S
C559 H523 0.930 . S
C559 C554 1.390 . S
C559 C558 1.362 . S
C560 C549 1.492 . S
C560 C561 1.377 . S
C560 C565 1.397 . S
C561 H524 0.931 . S
C561 C560 1.377 . S
C561 C562 1.376 . S
C562 H525 0.930 . S
C562 C561 1.376 . S
C562 C563 1.383 . S
C563 C562 1.383 . S
C563 C564 1.375 1_455 S
C563 C590 1.482 1_455 S
C564 H526 0.930 . S
C564 C563 1.375 1_655 S
C564 C565 1.376 1_655 S
C565 H527 0.929 1_455 S
C565 C560 1.397 . S
C565 C564 1.376 1_455 S
C566 C550 1.509 . S
C566 C567 1.391 . S
C566 C571 1.386 . S
C567 H528 0.930 . S
C567 C566 1.391 . S
C567 C568 1.375 . S
C568 H529 0.931 . S
C568 C567 1.375 . S
C568 C569 1.375 . S
C569 C568 1.375 . S
C569 C570 1.361 . S
C570 H530 0.930 . S
C570 C569 1.361 . S
C570 C571 1.399 . S
C571 H531 0.929 . S
C571 C566 1.386 . S
C571 C570 1.399 . S
C572 C551 1.485 . S
C572 C573 1.394 . S
C572 C577 1.360 . S
C573 H532 0.931 . S
C573 C572 1.394 . S
C573 C574 1.372 . S
C574 H533 0.930 . S
C574 C573 1.372 . S
C574 C575 1.397 . S
C575 C574 1.397 . S
C575 C576 1.390 . S
C575 C591 1.476 . S
C576 H534 0.930 . S
C576 C575 1.390 . S
C576 C577 1.366 . S
C577 H535 0.932 . S
C577 C572 1.360 . S
C577 C576 1.366 . S
C578 C552 1.490 . S
C578 C579 1.380 . S
C578 C583 1.386 . S
C579 H536 0.930 . S
C579 C578 1.380 . S
C579 C580 1.381 . S
C580 H537 0.929 . S
C580 C579 1.381 . S
C580 C581 1.371 . S
C581 C580 1.371 . S
C581 C582 1.380 . S
C582 H538 0.931 . S
C582 C581 1.380 . S
C582 C583 1.387 . S
C583 H539 0.930 . S
C583 C578 1.386 . S
C583 C582 1.387 . S
C584 C553 1.519 1_655 S
C584 C585 1.377 . S
C584 C589 1.361 . S
C585 H540 0.929 . S
C585 C584 1.377 . S
C585 C586 1.386 . S
C586 H541 0.931 . S
C586 C585 1.386 . S
C586 C587 1.363 . S
C587 C586 1.363 . S
C587 C588 1.385 . S
C588 H542 0.930 . S
C588 C587 1.385 . S
C588 C589 1.396 . S
C589 H543 0.929 1_655 S
C589 C584 1.361 . S
C589 C588 1.396 . S
C590 O544 1.297 1_655 S
C590 O545 1.209 . S
C590 C563 1.482 1_655 S
C591 O546 1.199 . S
C591 O547 1.297 . S
C591 C575 1.476 . S
Fe592 O593 1.886 . S
Fe592 O596 1.715 1_455 S
Fe592 O601 2.077 . S
Fe592 O606 1.935 1_455 S
Fe592 O612 2.077 . S
Fe592 O621 1.935 1_455 S
O593 Fe592 1.886 . S
O593 Fe595 1.715 . S
Fe594 O596 1.886 . S
Fe594 O597 1.715 . S
Fe594 O604 1.935 . S
Fe594 O605 2.077 . S
Fe594 O611 1.935 . S
Fe594 O620 2.077 . S
Fe595 O593 1.715 . S
Fe595 O598 1.886 . S
Fe595 O602 1.935 . S
Fe595 O607 2.077 . S
Fe595 O613 1.935 . S
Fe595 O617 2.077 . S
O596 Fe592 1.715 1_655 S
O596 Fe594 1.886 . S
O597 Fe594 1.715 . S
O597 Fe599 1.886 1_655 S
O598 Fe595 1.886 . S
O598 Fe599 1.715 . S
Fe599 O597 1.886 1_455 S
Fe599 O598 1.715 . S
Fe599 O603 2.077 1_455 S
Fe599 O608 1.935 . S
Fe599 O610 2.077 1_455 S
Fe599 O618 1.935 . S
C600 O612 1.381 . S
C600 O613 1.421 . S
O601 Fe592 2.077 . S
O601 C614 1.381 . S
O602 Fe595 1.935 . S
O602 C614 1.421 . S
O603 Fe599 2.077 1_655 S
O603 C619 1.381 . S
O604 Fe594 1.935 . S
O604 C619 1.421 . S
O605 Fe594 2.077 . S
O605 C609 1.381 . S
O606 Fe592 1.935 1_655 S
O606 C609 1.421 . S
O607 Fe595 2.077 . S
O607 C615 1.381 . S
O608 Fe599 1.935 . S
O608 C615 1.421 . S
C609 O605 1.381 . S
C609 O606 1.421 . S
O610 Fe599 2.077 1_655 S
O610 C622 1.381 . S
O611 Fe594 1.935 . S
O611 C622 1.421 . S
O612 Fe592 2.077 . S
O612 C600 1.381 . S
O613 Fe595 1.935 . S
O613 C600 1.421 . S
C614 O601 1.381 . S
C614 O602 1.421 . S
C615 O607 1.381 . S
C615 O608 1.421 . S
C616 O617 1.381 . S
C616 O618 1.421 . S
O617 Fe595 2.077 . S
O617 C616 1.381 . S
O618 Fe599 1.935 . S
O618 C616 1.421 . S
C619 O603 1.381 . S
C619 O604 1.421 . S
O620 Fe594 2.077 . S
O620 C623 1.381 . S
O621 Fe592 1.935 1_655 S
O621 C623 1.421 . S
C622 O610 1.381 . S
C622 O611 1.421 . S
C623 O620 1.381 . S
C623 O621 1.421 . S
Fe624 O625 1.886 . S
Fe624 O628 1.715 . S
Fe624 O633 2.077 . S
Fe624 O638 1.935 . S
Fe624 O644 2.077 . S
Fe624 O653 1.935 . S
O625 Fe624 1.886 . S
O625 Fe627 1.715 . S
Fe626 O628 1.886 . S
Fe626 O629 1.715 . S
Fe626 O636 1.935 . S
Fe626 O637 2.077 . S
Fe626 O643 1.935 . S
Fe626 O652 2.077 . S
Fe627 O625 1.715 . S
Fe627 O630 1.886 . S
Fe627 O634 1.935 . S
Fe627 O639 2.077 . S
Fe627 O645 1.935 . S
Fe627 O649 2.077 . S
O628 Fe624 1.715 . S
O628 Fe626 1.886 . S
O629 Fe626 1.715 . S
O629 Fe631 1.886 . S
O630 Fe627 1.886 . S
O630 Fe631 1.715 . S
Fe631 O629 1.886 . S
Fe631 O630 1.715 . S
Fe631 O635 2.077 . S
Fe631 O640 1.935 . S
Fe631 O642 2.077 . S
Fe631 O650 1.935 . S
C632 O644 1.381 . S
C632 O645 1.421 . S
O633 Fe624 2.077 . S
O633 C646 1.381 . S
O634 Fe627 1.935 . S
O634 C646 1.421 . S
O635 Fe631 2.077 . S
O635 C651 1.381 . S
O636 Fe626 1.935 . S
O636 C651 1.421 . S
O637 Fe626 2.077 . S
O637 C641 1.381 . S
O638 Fe624 1.935 . S
O638 C641 1.421 . S
O639 Fe627 2.077 . S
O639 C647 1.381 . S
O640 Fe631 1.935 . S
O640 C647 1.421 . S
C641 O637 1.381 . S
C641 O638 1.421 . S
O642 Fe631 2.077 . S
O642 C654 1.381 . S
O643 Fe626 1.935 . S
O643 C654 1.421 . S
O644 Fe624 2.077 . S
O644 C632 1.381 . S
O645 Fe627 1.935 . S
O645 C632 1.421 . S
C646 O633 1.381 . S
C646 O634 1.421 . S
C647 O639 1.381 . S
C647 O640 1.421 . S
C648 O649 1.381 . S
C648 O650 1.421 . S
O649 Fe627 2.077 . S
O649 C648 1.381 . S
O650 Fe631 1.935 . S
O650 C648 1.421 . S
C651 O635 1.381 . S
C651 O636 1.421 . S
O652 Fe626 2.077 . S
O652 C655 1.381 . S
O653 Fe624 1.935 . S
O653 C655 1.421 . S
C654 O642 1.381 . S
C654 O643 1.421 . S
C655 O652 1.381 . S
C655 O653 1.421 . S
Fe656 O657 1.886 . S
Fe656 O660 1.715 . S
Fe656 O665 2.077 . S
Fe656 O670 1.935 . S
Fe656 O676 2.077 . S
Fe656 O685 1.935 . S
O657 Fe656 1.886 . S
O657 Fe659 1.715 . S
Fe658 O660 1.886 . S
Fe658 O661 1.715 . S
Fe658 O668 1.935 . S
Fe658 O669 2.077 . S
Fe658 O675 1.935 . S
Fe658 O684 2.077 . S
Fe659 O657 1.715 . S
Fe659 O662 1.886 . S
Fe659 O666 1.935 . S
Fe659 O671 2.077 . S
Fe659 O677 1.935 . S
Fe659 O681 2.077 . S
O660 Fe656 1.715 . S
O660 Fe658 1.886 . S
O661 Fe658 1.715 . S
O661 Fe663 1.886 . S
O662 Fe659 1.886 . S
O662 Fe663 1.715 . S
Fe663 O661 1.886 . S
Fe663 O662 1.715 . S
Fe663 O667 2.077 . S
Fe663 O672 1.935 . S
Fe663 O674 2.077 . S
Fe663 O682 1.935 . S
C664 O676 1.381 . S
C664 O677 1.421 . S
O665 Fe656 2.077 . S
O665 C678 1.381 . S
O666 Fe659 1.935 . S
O666 C678 1.421 . S
O667 Fe663 2.077 . S
O667 C683 1.381 . S
O668 Fe658 1.935 . S
O668 C683 1.421 . S
O669 Fe658 2.077 . S
O669 C673 1.381 . S
O670 Fe656 1.935 . S
O670 C673 1.421 . S
O671 Fe659 2.077 . S
O671 C679 1.381 . S
O672 Fe663 1.935 . S
O672 C679 1.421 . S
C673 O669 1.381 . S
C673 O670 1.421 . S
O674 Fe663 2.077 . S
O674 C686 1.381 . S
O675 Fe658 1.935 . S
O675 C686 1.421 . S
O676 Fe656 2.077 . S
O676 C664 1.381 . S
O677 Fe659 1.935 . S
O677 C664 1.421 . S
C678 O665 1.381 . S
C678 O666 1.421 . S
C679 O671 1.381 . S
C679 O672 1.421 . S
C680 O681 1.381 . S
C680 O682 1.421 . S
O681 Fe659 2.077 . S
O681 C680 1.381 . S
O682 Fe663 1.935 . S
O682 C680 1.421 . S
C683 O667 1.381 . S
C683 O668 1.421 . S
O684 Fe658 2.077 . S
O684 C687 1.381 . S
O685 Fe656 1.935 . S
O685 C687 1.421 . S
C686 O674 1.381 . S
C686 O675 1.421 . S
C687 O684 1.381 . S
C687 O685 1.421 . S
Fe688 O689 1.886 . S
Fe688 O692 1.715 . S
Fe688 O697 2.077 1_455 S
Fe688 O702 1.935 1_455 S
Fe688 O708 2.077 . S
Fe688 O717 1.935 . S
O689 Fe688 1.886 . S
O689 Fe691 1.715 . S
Fe690 O692 1.886 . S
Fe690 O693 1.715 . S
Fe690 O700 1.935 1_455 S
Fe690 O701 2.077 1_455 S
Fe690 O707 1.935 . S
Fe690 O716 2.077 . S
Fe691 O689 1.715 . S
Fe691 O694 1.886 . S
Fe691 O698 1.935 1_455 S
Fe691 O703 2.077 1_455 S
Fe691 O709 1.935 . S
Fe691 O713 2.077 . S
O692 Fe688 1.715 . S
O692 Fe690 1.886 . S
O693 Fe690 1.715 . S
O693 Fe695 1.886 . S
O694 Fe691 1.886 . S
O694 Fe695 1.715 . S
Fe695 O693 1.886 . S
Fe695 O694 1.715 . S
Fe695 O699 2.077 1_455 S
Fe695 O704 1.935 1_455 S
Fe695 O706 2.077 . S
Fe695 O714 1.935 . S
C696 O708 1.381 . S
C696 O709 1.421 . S
O697 Fe688 2.077 1_655 S
O697 C710 1.381 . S
O698 Fe691 1.935 1_655 S
O698 C710 1.421 . S
O699 Fe695 2.077 1_655 S
O699 C715 1.381 . S
O700 Fe690 1.935 1_655 S
O700 C715 1.421 . S
O701 Fe690 2.077 1_655 S
O701 C705 1.381 . S
O702 Fe688 1.935 1_655 S
O702 C705 1.421 . S
O703 Fe691 2.077 1_655 S
O703 C711 1.381 . S
O704 Fe695 1.935 1_655 S
O704 C711 1.421 . S
C705 O701 1.381 . S
C705 O702 1.421 . S
O706 Fe695 2.077 . S
O706 C718 1.381 . S
O707 Fe690 1.935 . S
O707 C718 1.421 . S
O708 Fe688 2.077 . S
O708 C696 1.381 . S
O709 Fe691 1.935 . S
O709 C696 1.421 . S
C710 O697 1.381 . S
C710 O698 1.421 . S
C711 O703 1.381 . S
C711 O704 1.421 . S
C712 O713 1.381 . S
C712 O714 1.421 . S
O713 Fe691 2.077 . S
O713 C712 1.381 . S
O714 Fe695 1.935 . S
O714 C712 1.421 . S
C715 O699 1.381 . S
C715 O700 1.421 . S
O716 Fe690 2.077 . S
O716 C719 1.381 . S
O717 Fe688 1.935 . S
O717 C719 1.421 . S
C718 O706 1.381 . S
C718 O707 1.421 . S
C719 O716 1.381 . S
C719 O717 1.421 . S
C720 C721 1.369 . S
C720 C722 1.419 . S
C720 H724 0.930 . S
C721 C720 1.369 . S
C721 C730 1.429 . S
C722 C720 1.419 . S
C722 C723 1.363 . S
C722 H725 0.929 . S
C723 C722 1.363 . S
C723 C729 1.428 . S
H724 C720 0.930 . S
H725 C722 0.929 . S
S726 N727 1.613 . S
S726 N728 1.610 . S
N727 S726 1.613 . S
N727 C730 1.350 . S
N728 S726 1.610 . S
N728 C729 1.351 . S
C729 C723 1.428 . S
C729 N728 1.351 . S
C729 C730 1.434 . S
C730 C721 1.429 . S
C730 N727 1.350 . S
C730 C729 1.434 . S
C731 C732 1.369 . S
C731 C733 1.419 . S
C731 H735 0.930 . S
C732 C731 1.369 . S
C732 C741 1.429 . S
C733 C731 1.419 . S
C733 C734 1.363 . S
C733 H736 0.929 . S
C734 C733 1.363 . S
C734 C740 1.428 . S
H735 C731 0.930 . S
H736 C733 0.929 . S
S737 N738 1.613 1_545 S
S737 N739 1.610 . S
N738 S737 1.613 1_565 S
N738 C741 1.350 1_565 S
N739 S737 1.610 . S
N739 C740 1.351 . S
C740 C734 1.428 . S
C740 N739 1.351 . S
C740 C741 1.434 . S
C741 C732 1.429 . S
C741 N738 1.350 1_545 S
C741 C740 1.434 . S
C742 C743 1.369 1_556 S
C742 C744 1.419 . S
C742 H746 0.930 . S
C743 C742 1.369 1_554 S
C743 C752 1.429 . S
C744 C742 1.419 . S
C744 C745 1.363 . S
C744 H747 0.929 . S
C745 C744 1.363 . S
C745 C751 1.428 . S
H746 C742 0.930 . S
H747 C744 0.929 . S
S748 N749 1.613 . S
S748 N750 1.610 1_554 S
N749 S748 1.613 . S
N749 C752 1.350 . S
N750 S748 1.610 1_556 S
N750 C751 1.351 . S
C751 C745 1.428 . S
C751 N750 1.351 . S
C751 C752 1.434 1_556 S
C752 C743 1.429 . S
C752 N749 1.350 . S
C752 C751 1.434 1_554 S
C753 C754 1.369 1_565 S
C753 C755 1.419 . S
C753 H757 0.930 . S
C754 C753 1.369 1_545 S
C754 C763 1.429 . S
C755 C753 1.419 . S
C755 C756 1.363 . S
C755 H758 0.929 . S
C756 C755 1.363 . S
C756 C762 1.428 1_565 S
H757 C753 0.930 . S
H758 C755 0.929 . S
S759 N760 1.613 . S
S759 N761 1.610 . S
N760 S759 1.613 . S
N760 C763 1.350 . S
N761 S759 1.610 . S
N761 C762 1.351 . S
C762 C756 1.428 1_545 S
C762 N761 1.351 . S
C762 C763 1.434 . S
C763 C754 1.429 . S
C763 N760 1.350 . S
C763 C762 1.434 . S
C764 C765 1.369 . S
C764 C766 1.419 . S
C764 H768 0.930 . S
C765 C764 1.369 . S
C765 C774 1.429 . S
C766 C764 1.419 . S
C766 C767 1.363 . S
C766 H769 0.929 . S
C767 C766 1.363 . S
C767 C773 1.428 . S
H768 C764 0.930 . S
H769 C766 0.929 . S
S770 N771 1.613 . S
S770 N772 1.610 . S
N771 S770 1.613 . S
N771 C774 1.350 . S
N772 S770 1.610 . S
N772 C773 1.351 . S
C773 C767 1.428 . S
C773 N772 1.351 . S
C773 C774 1.434 . S
C774 C765 1.429 . S
C774 N771 1.350 . S
C774 C773 1.434 . S
C775 C776 1.369 1_545 S
C775 C777 1.419 . S
C775 H779 0.930 . S
C776 C775 1.369 1_565 S
C776 C785 1.429 . S
C777 C775 1.419 . S
C777 C778 1.363 . S
C777 H780 0.929 . S
C778 C777 1.363 . S
C778 C784 1.428 . S
H779 C775 0.930 . S
H780 C777 0.929 . S
S781 N782 1.613 . S
S781 N783 1.610 1_565 S
N782 S781 1.613 . S
N782 C785 1.350 . S
N783 S781 1.610 1_545 S
N783 C784 1.351 . S
C784 C778 1.428 . S
C784 N783 1.351 . S
C784 C785 1.434 1_545 S
C785 C776 1.429 . S
C785 N782 1.350 . S
C785 C784 1.434 1_565 S
C786 C787 1.369 1_545 S
C786 C788 1.419 1_545 S
C786 H790 0.930 . S
C787 C786 1.369 1_565 S
C787 C796 1.429 . S
C788 C786 1.419 1_565 S
C788 C789 1.363 . S
C788 H791 0.929 1_565 S
C789 C788 1.363 . S
C789 C795 1.428 . S
H790 C786 0.930 . S
H791 C788 0.929 1_545 S
S792 N793 1.613 . S
S792 N794 1.610 . S
N793 S792 1.613 . S
N793 C796 1.350 . S
N794 S792 1.610 . S
N794 C795 1.351 . S
C795 C789 1.428 . S
C795 N794 1.351 . S
C795 C796 1.434 . S
C796 C787 1.429 . S
C796 N793 1.350 . S
C796 C795 1.434 . S
C797 C798 1.369 1_565 S
C797 C799 1.419 . S
C797 H801 0.930 . S
C798 C797 1.369 1_545 S
C798 C807 1.429 . S
C799 C797 1.419 . S
C799 C800 1.363 . S
C799 H802 0.929 . S
C800 C799 1.363 . S
C800 C806 1.415 1_565 S
H801 C797 0.930 . S
H802 C799 0.929 . S
S803 N804 1.613 . S
S803 N805 1.610 . S
N804 S803 1.613 . S
N804 C807 1.350 . S
N805 S803 1.610 . S
N805 C806 1.355 . S
C806 C800 1.415 1_545 S
C806 N805 1.355 . S
C806 C807 1.445 . S
C807 C798 1.429 . S
C807 N804 1.350 . S
C807 C806 1.445 . S
C808 C809 1.369 . S
C808 C810 1.419 . S
C808 H812 0.930 . S
C809 C808 1.369 . S
C809 C818 1.429 . S
C810 C808 1.419 . S
C810 C811 1.363 . S
C810 H813 0.929 . S
C811 C810 1.363 . S
C811 C817 1.428 . S
H812 C808 0.930 . S
H813 C810 0.929 . S
S814 N815 1.613 . S
S814 N816 1.610 . S
N815 S814 1.613 . S
N815 C818 1.350 . S
N816 S814 1.610 . S
N816 C817 1.351 . S
C817 C811 1.428 . S
C817 N816 1.351 . S
C817 C818 1.434 . S
C818 C809 1.429 . S
C818 N815 1.350 . S
C818 C817 1.434 . S
C819 C820 1.369 . S
C819 C821 1.419 1_545 S
C819 H823 0.930 . S
C820 C819 1.369 . S
C820 C829 1.429 1_545 S
C821 C819 1.419 1_565 S
C821 C822 1.363 . S
C821 H824 0.929 . S
C822 C821 1.363 . S
C822 C828 1.428 . S
H823 C819 0.930 . S
H824 C821 0.929 . S
S825 N826 1.613 . S
S825 N827 1.610 . S
N826 S825 1.613 . S
N826 C829 1.350 . S
N827 S825 1.610 . S
N827 C828 1.351 . S
C828 C822 1.428 . S
C828 N827 1.351 . S
C828 C829 1.434 . S
C829 C820 1.429 1_565 S
C829 N826 1.350 . S
C829 C828 1.434 . S
C830 C831 1.369 . S
C830 C832 1.419 . S
C830 H834 0.930 1_565 S
C831 C830 1.369 . S
C831 C840 1.429 . S
C832 C830 1.419 . S
C832 C833 1.363 . S
C832 H835 0.929 . S
C833 C832 1.363 . S
C833 C839 1.428 . S
H834 C830 0.930 1_545 S
H835 C832 0.929 . S
S836 N837 1.613 . S
S836 N838 1.610 . S
N837 S836 1.613 . S
N837 C840 1.350 . S
N838 S836 1.610 . S
N838 C839 1.351 . S
C839 C833 1.428 . S
C839 N838 1.351 . S
C839 C840 1.434 . S
C840 C831 1.429 . S
C840 N837 1.350 . S
C840 C839 1.434 . S
C841 C842 1.369 . S
C841 C843 1.419 . S
C841 H845 0.930 1_545 S
C842 C841 1.369 . S
C842 C851 1.429 . S
C843 C841 1.419 . S
C843 C844 1.363 . S
C843 H846 0.929 . S
C844 C843 1.363 . S
C844 C850 1.428 . S
H845 C841 0.930 1_565 S
H846 C843 0.929 . S
S847 N848 1.613 . S
S847 N849 1.610 . S
N848 S847 1.613 . S
N848 C851 1.350 . S
N849 S847 1.610 . S
N849 C850 1.351 . S
C850 C844 1.428 . S
C850 N849 1.351 . S
C850 C851 1.434 . S
C851 C842 1.429 . S
C851 N848 1.350 . S
C851 C850 1.434 . S
C852 C853 1.369 . S
C852 C854 1.419 . S
C852 H856 0.930 . S
C853 C852 1.369 . S
C853 C862 1.429 . S
C854 C852 1.419 . S
C854 C855 1.363 . S
C854 H857 0.929 . S
C855 C854 1.363 . S
C855 C861 1.428 . S
H856 C852 0.930 . S
H857 C854 0.929 . S
S858 N859 1.613 . S
S858 N860 1.610 . S
N859 S858 1.613 . S
N859 C862 1.350 . S
N860 S858 1.610 . S
N860 C861 1.351 . S
C861 C855 1.428 . S
C861 N860 1.351 . S
C861 C862 1.434 . S
C862 C853 1.429 . S
C862 N859 1.350 . S
C862 C861 1.434 . S
C863 C864 1.369 1_565 S
C863 C865 1.419 . S
C863 H867 0.930 . S
C864 C863 1.369 1_545 S
C864 C873 1.429 . S
C865 C863 1.419 . S
C865 C866 1.363 . S
C865 H868 0.929 . S
C866 C865 1.363 . S
C866 C872 1.428 . S
H867 C863 0.930 . S
H868 C865 0.929 . S
S869 N870 1.613 . S
S869 N871 1.610 . S
N870 S869 1.613 . S
N870 C873 1.350 . S
N871 S869 1.610 . S
N871 C872 1.351 1_545 S
C872 C866 1.428 . S
C872 N871 1.351 1_565 S
C872 C873 1.434 1_565 S
C873 C864 1.429 . S
C873 N870 1.350 . S
C873 C872 1.434 1_545 S
C874 C875 1.369 . S
C874 C876 1.419 . S
C874 H878 0.930 . S
C875 C874 1.369 . S
C875 C884 1.429 . S
C876 C874 1.419 . S
C876 C877 1.363 . S
C876 H879 0.929 . S
C877 C876 1.363 . S
C877 C883 1.428 . S
H878 C874 0.930 . S
H879 C876 0.929 . S
S880 N881 1.613 . S
S880 N882 1.610 . S
N881 S880 1.613 . S
N881 C884 1.350 . S
N882 S880 1.610 . S
N882 C883 1.351 . S
C883 C877 1.428 . S
C883 N882 1.351 . S
C883 C884 1.434 . S
C884 C875 1.429 . S
C884 N881 1.350 . S
C884 C883 1.434 . S
C885 C886 1.369 . S
C885 C887 1.419 . S
C885 H889 0.930 . S
C886 C885 1.369 . S
C886 C895 1.429 . S
C887 C885 1.419 . S
C887 C888 1.363 . S
C887 H890 0.929 . S
C888 C887 1.363 . S
C888 C894 1.428 . S
H889 C885 0.930 . S
H890 C887 0.929 . S
S891 N892 1.613 . S
S891 N893 1.610 1_565 S
N892 S891 1.613 . S
N892 C895 1.350 1_565 S
N893 S891 1.610 1_545 S
N893 C894 1.351 . S
C894 C888 1.428 . S
C894 N893 1.351 . S
C894 C895 1.434 . S
C895 C886 1.429 . S
C895 N892 1.350 1_545 S
C895 C894 1.434 . S
C896 C897 1.369 . S
C896 C898 1.419 . S
C896 H900 0.930 . S
C897 C896 1.369 . S
C897 C906 1.429 . S
C898 C896 1.419 . S
C898 C899 1.363 . S
C898 H901 0.929 . S
C899 C898 1.363 . S
C899 C905 1.428 . S
H900 C896 0.930 . S
H901 C898 0.929 . S
S902 N903 1.613 . S
S902 N904 1.610 1_554 S
N903 S902 1.613 . S
N903 C906 1.350 1_554 S
N904 S902 1.610 1_556 S
N904 C905 1.351 . S
C905 C899 1.428 . S
C905 N904 1.351 . S
C905 C906 1.434 . S
C906 C897 1.429 . S
C906 N903 1.350 1_556 S
C906 C905 1.434 . S
C907 C908 1.369 . S
C907 C909 1.419 . S
C907 H911 0.930 . S
C908 C907 1.369 . S
C908 C917 1.429 . S
C909 C907 1.419 . S
C909 C910 1.363 . S
C909 H912 0.929 . S
C910 C909 1.363 . S
C910 C916 1.428 . S
H911 C907 0.930 . S
H912 C909 0.929 . S
S913 N914 1.613 . S
S913 N915 1.610 . S
N914 S913 1.613 . S
N914 C917 1.350 . S
N915 S913 1.610 . S
N915 C916 1.351 . S
C916 C910 1.428 . S
C916 N915 1.351 . S
C916 C917 1.434 . S
C917 C908 1.429 . S
C917 N914 1.350 . S
C917 C916 1.434 . S
C918 C919 1.369 . S
C918 C920 1.419 . S
C918 H922 0.930 . S
C919 C918 1.369 . S
C919 C928 1.429 . S
C920 C918 1.419 . S
C920 C921 1.363 . S
C920 H923 0.929 . S
C921 C920 1.363 . S
C921 C927 1.428 . S
H922 C918 0.930 . S
H923 C920 0.929 . S
S924 N925 1.613 . S
S924 N926 1.610 . S
N925 S924 1.613 . S
N925 C928 1.350 . S
N926 S924 1.610 . S
N926 C927 1.351 . S
C927 C921 1.428 . S
C927 N926 1.351 . S
C927 C928 1.434 . S
C928 C919 1.429 . S
C928 N925 1.350 . S
C928 C927 1.434 . S
C929 C930 1.369 . S
C929 C931 1.419 . S
C929 H933 0.930 . S
C930 C929 1.369 . S
C930 C939 1.429 . S
C931 C929 1.419 . S
C931 C932 1.363 . S
C931 H934 0.929 . S
C932 C931 1.363 . S
C932 C938 1.428 . S
H933 C929 0.930 . S
H934 C931 0.929 . S
S935 N936 1.613 . S
S935 N937 1.610 . S
N936 S935 1.613 . S
N936 C939 1.350 . S
N937 S935 1.610 . S
N937 C938 1.351 . S
C938 C932 1.428 . S
C938 N937 1.351 . S
C938 C939 1.434 . S
C939 C930 1.429 . S
C939 N936 1.350 . S
C939 C938 1.434 . S
C940 C941 1.369 . S
C940 C942 1.419 . S
C940 H944 0.930 . S
C941 C940 1.369 . S
C941 C950 1.429 . S
C942 C940 1.419 . S
C942 C943 1.363 . S
C942 H945 0.929 . S
C943 C942 1.363 . S
C943 C949 1.428 . S
H944 C940 0.930 . S
H945 C942 0.929 . S
S946 N947 1.613 . S
S946 N948 1.610 . S
N947 S946 1.613 . S
N947 C950 1.350 . S
N948 S946 1.610 . S
N948 C949 1.351 . S
C949 C943 1.428 . S
C949 N948 1.351 . S
C949 C950 1.434 . S
C950 C941 1.429 . S
C950 N947 1.350 . S
C950 C949 1.434 . S
C951 C952 1.369 . S
C951 C953 1.419 . S
C951 H955 0.930 . S
C952 C951 1.369 . S
C952 C961 1.429 . S
C953 C951 1.419 . S
C953 C954 1.363 . S
C953 H956 0.929 . S
C954 C953 1.363 . S
C954 C960 1.428 . S
H955 C951 0.930 . S
H956 C953 0.929 . S
S957 N958 1.613 . S
S957 N959 1.610 . S
N958 S957 1.613 . S
N958 C961 1.350 . S
N959 S957 1.610 . S
N959 C960 1.351 . S
C960 C954 1.428 . S
C960 N959 1.351 . S
C960 C961 1.434 . S
C961 C952 1.429 . S
C961 N958 1.350 . S
C961 C960 1.434 . S
C962 C963 1.369 . S
C962 C964 1.419 . S
C962 H966 0.930 . S
C963 C962 1.369 . S
C963 C972 1.429 . S
C964 C962 1.419 . S
C964 C965 1.363 . S
C964 H967 0.929 . S
C965 C964 1.363 . S
C965 C971 1.428 . S
H966 C962 0.930 . S
H967 C964 0.929 . S
S968 N969 1.613 . S
S968 N970 1.610 . S
N969 S968 1.613 . S
N969 C972 1.350 . S
N970 S968 1.610 . S
N970 C971 1.351 . S
C971 C965 1.428 . S
C971 N970 1.351 . S
C971 C972 1.434 . S
C972 C963 1.429 . S
C972 N969 1.350 . S
C972 C971 1.434 . S
C973 C974 1.369 . S
C973 C975 1.419 . S
C973 H977 0.930 . S
C974 C973 1.369 . S
C974 C983 1.429 1_655 S
C975 C973 1.419 . S
C975 C976 1.363 . S
C975 H978 0.929 . S
C976 C975 1.363 . S
C976 C982 1.428 . S
H977 C973 0.930 . S
H978 C975 0.929 . S
S979 N980 1.613 . S
S979 N981 1.610 . S
N980 S979 1.613 . S
N980 C983 1.350 . S
N981 S979 1.610 . S
N981 C982 1.351 1_455 S
C982 C976 1.428 . S
C982 N981 1.351 1_655 S
C982 C983 1.434 1_655 S
C983 C974 1.429 1_455 S
C983 N980 1.350 . S
C983 C982 1.434 1_455 S
C984 C985 1.369 . S
C984 C986 1.419 . S
C984 H988 0.930 . S
C985 C984 1.369 . S
C985 C994 1.429 . S
C986 C984 1.419 . S
C986 C987 1.363 . S
C986 H989 0.929 . S
C987 C986 1.363 . S
C987 C993 1.428 . S
H988 C984 0.930 . S
H989 C986 0.929 . S
S990 N991 1.613 . S
S990 N992 1.610 . S
N991 S990 1.613 . S
N991 C994 1.350 . S
N992 S990 1.610 . S
N992 C993 1.351 . S
C993 C987 1.428 . S
C993 N992 1.351 . S
C993 C994 1.434 . S
C994 C985 1.429 . S
C994 N991 1.350 . S
C994 C993 1.434 . S
C995 C996 1.369 . S
C995 C997 1.419 . S
C995 H999 0.930 . S
C996 C995 1.369 . S
C996 C1005 1.429 . S
C997 C995 1.419 . S
C997 C998 1.363 . S
C997 H1000 0.929 . S
C998 C997 1.363 . S
C998 C1004 1.428 . S
H999 C995 0.930 . S
H1000 C997 0.929 . S
S1001 N1002 1.613 . S
S1001 N1003 1.610 . S
N1002 S1001 1.613 . S
N1002 C1005 1.350 . S
N1003 S1001 1.610 . S
N1003 C1004 1.351 . S
C1004 C998 1.428 . S
C1004 N1003 1.351 . S
C1004 C1005 1.434 . S
C1005 C996 1.429 . S
C1005 N1002 1.350 . S
C1005 C1004 1.434 . S
C1006 C1007 1.369 . S
C1006 C1008 1.419 . S
C1006 H1010 0.930 . S
C1007 C1006 1.369 . S
C1007 C1016 1.429 . S
C1008 C1006 1.419 . S
C1008 C1009 1.363 . S
C1008 H1011 0.929 . S
C1009 C1008 1.363 . S
C1009 C1015 1.428 . S
H1010 C1006 0.930 . S
H1011 C1008 0.929 . S
S1012 N1013 1.613 . S
S1012 N1014 1.610 . S
N1013 S1012 1.613 . S
N1013 C1016 1.350 . S
N1014 S1012 1.610 . S
N1014 C1015 1.351 . S
C1015 C1009 1.428 . S
C1015 N1014 1.351 . S
C1015 C1016 1.434 . S
C1016 C1007 1.429 . S
C1016 N1013 1.350 . S
C1016 C1015 1.434 . S
C1017 C1018 1.369 . S
C1017 C1019 1.419 . S
C1017 H1021 0.930 . S
C1018 C1017 1.369 . S
C1018 C1027 1.429 . S
C1019 C1017 1.419 . S
C1019 C1020 1.363 . S
C1019 H1022 0.929 . S
C1020 C1019 1.363 . S
C1020 C1026 1.428 . S
H1021 C1017 0.930 . S
H1022 C1019 0.929 . S
S1023 N1024 1.613 . S
S1023 N1025 1.610 . S
N1024 S1023 1.613 . S
N1024 C1027 1.350 . S
N1025 S1023 1.610 . S
N1025 C1026 1.351 . S
C1026 C1020 1.428 . S
C1026 N1025 1.351 . S
C1026 C1027 1.434 . S
C1027 C1018 1.429 . S
C1027 N1024 1.350 . S
C1027 C1026 1.434 . S
C1028 C1029 1.369 . S
C1028 C1030 1.419 1_554 S
C1028 H1032 0.930 . S
C1029 C1028 1.369 . S
C1029 C1038 1.429 1_554 S
C1030 C1028 1.419 1_556 S
C1030 C1031 1.363 . S
C1030 H1033 0.929 . S
C1031 C1030 1.363 . S
C1031 C1037 1.428 . S
H1032 C1028 0.930 . S
H1033 C1030 0.929 . S
S1034 N1035 1.635 . S
S1034 N1036 1.610 . S
N1035 S1034 1.635 . S
N1035 C1038 1.354 . S
N1036 S1034 1.610 . S
N1036 C1037 1.351 . S
C1037 C1031 1.428 . S
C1037 N1036 1.351 . S
C1037 C1038 1.434 . S
C1038 C1029 1.429 1_556 S
C1038 N1035 1.354 . S
C1038 C1037 1.434 . S
C1039 C1040 1.369 . S
C1039 C1041 1.419 . S
C1039 H1043 0.930 . S
C1040 C1039 1.369 . S
C1040 C1049 1.429 . S
C1041 C1039 1.419 . S
C1041 C1042 1.363 . S
C1041 H1044 0.929 . S
C1042 C1041 1.363 . S
C1042 C1048 1.428 . S
H1043 C1039 0.930 . S
H1044 C1041 0.929 . S
S1045 N1046 1.613 . S
S1045 N1047 1.610 . S
N1046 S1045 1.613 . S
N1046 C1049 1.350 . S
N1047 S1045 1.610 . S
N1047 C1048 1.351 . S
C1048 C1042 1.428 . S
C1048 N1047 1.351 . S
C1048 C1049 1.434 . S
C1049 C1040 1.429 . S
C1049 N1046 1.350 . S
C1049 C1048 1.434 . S
C1050 C1051 1.369 . S
C1050 C1052 1.419 . S
C1050 H1054 0.930 . S
C1051 C1050 1.369 . S
C1051 C1060 1.429 . S
C1052 C1050 1.419 . S
C1052 C1053 1.363 . S
C1052 H1055 0.929 . S
C1053 C1052 1.363 . S
C1053 C1059 1.428 . S
H1054 C1050 0.930 . S
H1055 C1052 0.929 . S
S1056 N1057 1.613 . S
S1056 N1058 1.610 . S
N1057 S1056 1.613 . S
N1057 C1060 1.350 . S
N1058 S1056 1.610 . S
N1058 C1059 1.351 . S
C1059 C1053 1.428 . S
C1059 N1058 1.351 . S
C1059 C1060 1.434 . S
C1060 C1051 1.429 . S
C1060 N1057 1.350 . S
C1060 C1059 1.434 . S
C1061 C1062 1.369 . S
C1061 C1063 1.419 . S
C1061 H1065 0.930 . S
C1062 C1061 1.369 . S
C1062 C1071 1.429 . S
C1063 C1061 1.419 . S
C1063 C1064 1.363 . S
C1063 H1066 0.929 . S
C1064 C1063 1.363 . S
C1064 C1070 1.428 . S
H1065 C1061 0.930 . S
H1066 C1063 0.929 . S
S1067 N1068 1.613 . S
S1067 N1069 1.610 . S
N1068 S1067 1.613 . S
N1068 C1071 1.350 . S
N1069 S1067 1.610 . S
N1069 C1070 1.351 . S
C1070 C1064 1.428 . S
C1070 N1069 1.351 . S
C1070 C1071 1.434 . S
C1071 C1062 1.429 . S
C1071 N1068 1.350 . S
C1071 C1070 1.434 . S
C723 C641 1.920 . S
C721 C69 1.945 . S
C732 C125 0.917 . S
C734 C673 0.923 . S
C743 C217 1.945 . S
C745 C696 1.970 . S
C756 C600 1.635 . S
C754 C261 1.548 . S
C767 C683 1.729 . S
C765 C39 1.727 . S
C778 C712 1.913 . S
C776 C137 1.999 . S
C789 C616 1.747 . S
C787 C187 1.778 . S
C800 C651 1.893 . S
C798 C291 2.143 . S
C809 C51 0.849 . S
C811 C679 0.829 . S
C820 C365 2.021 . S
C822 C654 1.776 . S
C831 C199 0.893 . S
C833 C622 0.845 . S
C844 C711 1.561 . S
C842 C439 1.780 1_545 S
C855 C655 2.090 . S
C853 C63 1.875 . S
C864 C335 1.535 . S
C866 C623 1.593 . S
C875 C211 1.827 . S
C877 C710 2.064 . S
C888 C678 1.849 . S
C886 C409 1.767 . S
C897 C495 0.962 . S
C899 C705 0.960 . S
C908 C347 1.063 . S
C910 C609 1.061 . S
C919 C587 1.907 . S
C921 C632 1.930 . S
C930 C421 0.896 . S
C932 C664 0.897 . S
C943 C619 1.762 . S
C941 C507 1.866 . S
C952 C359 1.738 . S
C954 C648 1.663 . S
C963 C557 1.736 . S
C965 C680 1.715 . S
C976 C715 1.846 . S
C974 C433 1.978 . S
C985 C513 1.852 . S
C987 C615 1.686 . S
C996 C143 1.810 . S
C998 C718 1.587 . S
C1007 C569 0.865 . S
C1009 C686 0.829 . S
C1020 C647 1.588 . S
C1018 C285 1.665 . S
C1031 C719 1.680 . S
C1029 C483 1.645 . S
C1042 C687 1.830 . S
C1040 C113 1.783 . S
C1053 C646 2.091 . S
C1051 C581 1.855 . S
C1064 C614 1.114 . S
C1062 C273 1.107 . S
