# Generated by pormake.
# Topology pyr, (3,6)-cn, num edge types: 1
# Building blocks:
#     Node 0, Type 0, BuildingBlock: BELTOD_clean_linker_0, # of connection points: 3
#     Node 1, Type 0, BuildingBlock: BELTOD_clean_linker_0, # of connection points: 3
#     Node 2, Type 0, BuildingBlock: BELTOD_clean_linker_0, # of connection points: 3
#     Node 3, Type 0, BuildingBlock: BELTOD_clean_linker_0, # of connection points: 3
#     Node 4, Type 0, BuildingBlock: BELTOD_clean_linker_0, # of connection points: 3
#     Node 5, Type 0, BuildingBlock: BELTOD_clean_linker_0, # of connection points: 3
#     Node 6, Type 0, BuildingBlock: BELTOD_clean_linker_0, # of connection points: 3
#     Node 7, Type 0, BuildingBlock: BELTOD_clean_linker_0, # of connection points: 3
#     Node 8, Type 1, BuildingBlock: BETDIP_clean_sbu_0, # of connection points: 6
#     Node 9, Type 1, BuildingBlock: BETDIP_clean_sbu_0, # of connection points: 6
#     Node 10, Type 1, BuildingBlock: BETDIP_clean_sbu_0, # of connection points: 6
#     Node 11, Type 1, BuildingBlock: BETDIP_clean_sbu_0, # of connection points: 6
#     Edge 12, Type (0, 1), BuildingBlock: CIFDUS_clean_linker_0, # of connection points: 2
#     Edge 13, Type (0, 1), BuildingBlock: CIFDUS_clean_linker_0, # of connection points: 2
#     Edge 14, Type (0, 1), BuildingBlock: CIFDUS_clean_linker_0, # of connection points: 2
#     Edge 15, Type (0, 1), BuildingBlock: CIFDUS_clean_linker_0, # of connection points: 2
#     Edge 16, Type (0, 1), BuildingBlock: CIFDUS_clean_linker_0, # of connection points: 2
#     Edge 17, Type (0, 1), BuildingBlock: CIFDUS_clean_linker_0, # of connection points: 2
#     Edge 18, Type (0, 1), BuildingBlock: CIFDUS_clean_linker_0, # of connection points: 2
#     Edge 19, Type (0, 1), BuildingBlock: CIFDUS_clean_linker_0, # of connection points: 2
#     Edge 20, Type (0, 1), BuildingBlock: CIFDUS_clean_linker_0, # of connection points: 2
#     Edge 21, Type (0, 1), BuildingBlock: CIFDUS_clean_linker_0, # of connection points: 2
#     Edge 22, Type (0, 1), BuildingBlock: CIFDUS_clean_linker_0, # of connection points: 2
#     Edge 23, Type (0, 1), BuildingBlock: CIFDUS_clean_linker_0, # of connection points: 2
#     Edge 24, Type (0, 1), BuildingBlock: CIFDUS_clean_linker_0, # of connection points: 2
#     Edge 25, Type (0, 1), BuildingBlock: CIFDUS_clean_linker_0, # of connection points: 2
#     Edge 26, Type (0, 1), BuildingBlock: CIFDUS_clean_linker_0, # of connection points: 2
#     Edge 27, Type (0, 1), BuildingBlock: CIFDUS_clean_linker_0, # of connection points: 2
#     Edge 28, Type (0, 1), BuildingBlock: CIFDUS_clean_linker_0, # of connection points: 2
#     Edge 29, Type (0, 1), BuildingBlock: CIFDUS_clean_linker_0, # of connection points: 2
#     Edge 30, Type (0, 1), BuildingBlock: CIFDUS_clean_linker_0, # of connection points: 2
#     Edge 31, Type (0, 1), BuildingBlock: CIFDUS_clean_linker_0, # of connection points: 2
#     Edge 32, Type (0, 1), BuildingBlock: CIFDUS_clean_linker_0, # of connection points: 2
#     Edge 33, Type (0, 1), BuildingBlock: CIFDUS_clean_linker_0, # of connection points: 2
#     Edge 34, Type (0, 1), BuildingBlock: CIFDUS_clean_linker_0, # of connection points: 2
#     Edge 35, Type (0, 1), BuildingBlock: CIFDUS_clean_linker_0, # of connection points: 2
# Relax obj value: 0.146
# Max RMSD: 0.197
# Mean RMSD: 0.091
data_MOF--net-pyr--node1-BETDIP_clean_sbu_0--node2-BELTOD_clean_linker_0--edge1-CIFDUS_clean_linker_0
_symmetry_space_group_name_H-M    P1
_symmetry_Int_Tables_number       1
_symmetry_cell_setting            triclinic
loop_
_symmetry_equiv_pos_as_xyz
'x, y, z'
_cell_length_a     37.427347
_cell_length_b     40.076046
_cell_length_c     36.942551
_cell_angle_alpha  89.094549
_cell_angle_beta   93.067682
_cell_angle_gamma 104.74779
loop_
_atom_site_label
_atom_site_type_symbol
_atom_site_fract_x
_atom_site_fract_y
_atom_site_fract_z
_atom_type_partial_charge
P0 P 0.39934 0.34543 0.28669 0.0
H1 H 0.46974 0.33097 0.26965 0.0
H2 H 0.48491 0.27953 0.24724 0.0
H3 H 0.36814 0.22859 0.23557 0.0
H4 H 0.3537 0.27887 0.26081 0.0
H5 H 0.40305 0.41886 0.27966 0.0
H6 H 0.36098 0.4489 0.24874 0.0
H7 H 0.30365 0.35414 0.19448 0.0
H8 H 0.34629 0.32484 0.2243 0.0
H9 H 0.39592 0.2919 0.3419 0.0
H10 H 0.33169 0.36355 0.30833 0.0
O11 O 0.43746 0.37129 0.30608 0.0
H12 H 0.34768 0.2636 0.38231 0.0
H13 H 0.28394 0.33582 0.34897 0.0
C14 C 0.41057 0.30894 0.26648 0.0
C15 C 0.44747 0.30871 0.26218 0.0
C16 C 0.45607 0.27923 0.24911 0.0
C17 C 0.42782 0.24958 0.23957 0.0
C18 C 0.39081 0.25043 0.2433 0.0
C19 C 0.38237 0.27957 0.25704 0.0
C20 C 0.37803 0.36954 0.25433 0.0
C21 C 0.38243 0.40491 0.25993 0.0
C22 C 0.35801 0.42197 0.24256 0.0
C23 C 0.3285 0.40381 0.21958 0.0
C24 C 0.32616 0.36907 0.21175 0.0
C25 C 0.35065 0.35212 0.22902 0.0
C26 C 0.36702 0.32915 0.32121 0.0
C27 C 0.37176 0.30189 0.3436 0.0
C28 C 0.34426 0.28589 0.3669 0.0
C29 C 0.31172 0.29717 0.36842 0.0
C30 C 0.30833 0.32607 0.34781 0.0
C31 C 0.33579 0.342 0.32451 0.0
P32 P 0.1935 0.78881 0.76352 0.0
H33 H 0.23256 0.75285 0.81435 0.0
H34 H 0.24349 0.75755 0.8799 0.0
H35 H 0.16301 0.81789 0.88382 0.0
H36 H 0.15023 0.81069 0.81897 0.0
H37 H 0.19946 0.77759 0.6873 0.0
H38 H 0.21161 0.72898 0.65601 0.0
H39 H 0.18447 0.6656 0.75134 0.0
H40 H 0.17215 0.71452 0.7825 0.0
H41 H 0.20179 0.86106 0.77687 0.0
H42 H 0.12607 0.78034 0.71498 0.0
O43 O 0.23743 0.80966 0.75748 0.0
H44 H 0.17019 0.90312 0.75195 0.0
H45 H 0.09469 0.82274 0.68895 0.0
C46 C 0.19101 0.78184 0.81165 0.0
C47 C 0.21603 0.7657 0.82959 0.0
C48 C 0.22257 0.76878 0.86708 0.0
C49 C 0.20505 0.78907 0.88711 0.0
C50 C 0.17712 0.80209 0.86947 0.0
C51 C 0.17004 0.79832 0.83205 0.0
C52 C 0.1858 0.74991 0.73744 0.0
C53 C 0.19454 0.75283 0.70096 0.0
C54 C 0.20142 0.72489 0.68304 0.0
C55 C 0.19981 0.69362 0.7015 0.0
C56 C 0.18663 0.68961 0.73668 0.0
C57 C 0.17961 0.71761 0.75454 0.0
C58 C 0.16659 0.81779 0.74732 0.0
C59 C 0.17818 0.8524 0.75796 0.0
C60 C 0.16018 0.87643 0.74362 0.0
C61 C 0.13031 0.86634 0.71807 0.0
C62 C 0.11757 0.83124 0.70868 0.0
C63 C 0.13562 0.80705 0.72329 0.0
P64 P 0.65582 0.35498 0.85838 0.0
H65 H 0.70441 0.33385 0.91324 0.0
H66 H 0.75834 0.36535 0.95014 0.0
H67 H 0.74137 0.46173 0.90876 0.0
H68 H 0.68667 0.43023 0.87289 0.0
H69 H 0.61179 0.28687 0.83519 0.0
H70 H 0.57872 0.23615 0.86841 0.0
H71 H 0.59642 0.296 0.96689 0.0
H72 H 0.62946 0.34689 0.93327 0.0
H73 H 0.68903 0.40841 0.80766 0.0
H74 H 0.57859 0.35958 0.83878 0.0
O75 O 0.67844 0.33485 0.83191 0.0
H76 H 0.66456 0.44332 0.76295 0.0
H77 H 0.55356 0.39442 0.79318 0.0
C78 C 0.69137 0.37947 0.89002 0.0
C79 C 0.71175 0.36179 0.91266 0.0
C80 C 0.74266 0.37984 0.93374 0.0
C81 C 0.75436 0.41605 0.93215 0.0
C82 C 0.73333 0.43382 0.91022 0.0
C83 C 0.70195 0.41572 0.88964 0.0
C84 C 0.62358 0.32071 0.88169 0.0
C85 C 0.60801 0.28935 0.86379 0.0
C86 C 0.58937 0.26018 0.88296 0.0
C87 C 0.58546 0.26166 0.92058 0.0
C88 C 0.59891 0.2938 0.93801 0.0
C89 C 0.61783 0.32301 0.91876 0.0
C90 C 0.63585 0.38196 0.82742 0.0
C91 C 0.65943 0.40553 0.80524 0.0
C92 C 0.64535 0.42548 0.77951 0.0
C93 C 0.60705 0.42199 0.77453 0.0
C94 C 0.5832 0.39779 0.79625 0.0
C95 C 0.59749 0.37805 0.82257 0.0
P96 P 0.82576 0.70119 0.35646 0.0
H97 H 0.83151 0.77545 0.34988 0.0
H98 H 0.86789 0.82575 0.38305 0.0
H99 H 0.91955 0.75984 0.44983 0.0
H100 H 0.88356 0.70947 0.41544 0.0
H101 H 0.86169 0.71881 0.28834 0.0
H102 H 0.89181 0.68788 0.24814 0.0
H103 H 0.87804 0.60391 0.32523 0.0
H104 H 0.84876 0.63565 0.3658 0.0
H105 H 0.80587 0.70824 0.43185 0.0
H106 H 0.77508 0.63292 0.34624 0.0
O107 O 0.79784 0.71539 0.32668 0.0
H108 H 0.75757 0.67372 0.46846 0.0
H109 H 0.72601 0.59857 0.38238 0.0
C110 C 0.85482 0.73854 0.38006 0.0
C111 C 0.8508 0.77169 0.37149 0.0
C112 C 0.87144 0.80059 0.39085 0.0
C113 C 0.89661 0.79712 0.41949 0.0
C114 C 0.9008 0.76375 0.42777 0.0
C115 C 0.8802 0.73482 0.40817 0.0
C116 C 0.85237 0.67939 0.32986 0.0
C117 C 0.86544 0.69386 0.29677 0.0
C118 C 0.88238 0.67592 0.27358 0.0
C119 C 0.88684 0.64295 0.28293 0.0
C120 C 0.87516 0.62917 0.31698 0.0
C121 C 0.85821 0.64727 0.34024 0.0
C122 C 0.79497 0.67278 0.38653 0.0
C123 C 0.78936 0.68388 0.42114 0.0
C124 C 0.76123 0.66426 0.44197 0.0
C125 C 0.73763 0.63329 0.42846 0.0
C126 C 0.7439 0.62192 0.39403 0.0
C127 C 0.77208 0.64156 0.37327 0.0
P128 P 0.68476 0.84809 0.96737 0.0
H129 H 0.63809 0.83931 1.02863 0.0
H130 H 0.57761 0.85029 1.03476 0.0
H131 H 0.56295 0.85538 0.91816 0.0
H132 H 0.6237 0.84464 0.91227 0.0
H133 H 0.74718 0.84312 1.01554 0.0
H134 H 0.77364 0.79535 1.03288 0.0
H135 H 0.6843 0.725 0.97279 0.0
H136 H 0.65741 0.77337 0.95574 0.0
H137 H 0.68947 0.90994 0.92415 0.0
H138 H 0.71138 0.81039 0.91052 0.0
O139 O 0.7049 0.88207 0.99338 0.0
H140 H 0.71129 0.92708 0.86377 0.0
H141 H 0.73267 0.82714 0.85005 0.0
C142 C 0.63575 0.8421 0.97014 0.0
C143 C 0.62124 0.84144 1.00435 0.0
C144 C 0.58646 0.84753 1.00778 0.0
C145 C 0.56579 0.85444 0.97692 0.0
C146 C 0.57856 0.85077 0.94244 0.0
C147 C 0.61338 0.84469 0.93907 0.0
C148 C 0.70018 0.81169 0.98461 0.0
C149 C 0.73266 0.81735 1.00681 0.0
C150 C 0.74775 0.78996 1.01683 0.0
C151 C 0.73094 0.75643 1.00432 0.0
C152 C 0.69777 0.75061 0.98281 0.0
C153 C 0.68235 0.7781 0.97321 0.0
C154 C 0.69924 0.85911 0.92206 0.0
C155 C 0.69881 0.89172 0.90808 0.0
C156 C 0.711 0.90136 0.87347 0.0
C157 C 0.72385 0.8785 0.8522 0.0
C158 C 0.72341 0.84549 0.866 0.0
C159 C 0.71109 0.83584 0.90061 0.0
P160 P 0.87694 0.32733 0.37433 0.0
H161 H 0.87278 0.38016 0.42736 0.0
H162 H 0.82032 0.39361 0.4558 0.0
H163 H 0.74564 0.30877 0.39798 0.0
H164 H 0.79777 0.29539 0.3703 0.0
H165 H 0.94018 0.3164 0.41928 0.0
H166 H 0.95295 0.26488 0.44793 0.0
H167 H 0.84742 0.20372 0.4047 0.0
H168 H 0.83475 0.25524 0.3766 0.0
H169 H 0.83355 0.35914 0.32277 0.0
H170 H 0.89039 0.27809 0.32162 0.0
O171 O 0.91414 0.36075 0.37743 0.0
H172 H 0.8038 0.34056 0.26337 0.0
H173 H 0.86035 0.25907 0.26264 0.0
C174 C 0.83912 0.33692 0.39658 0.0
C175 C 0.84509 0.36444 0.421 0.0
C176 C 0.81511 0.37216 0.43709 0.0
C177 C 0.77882 0.35222 0.42918 0.0
C178 C 0.77324 0.32431 0.40515 0.0
C179 C 0.80308 0.31668 0.38917 0.0
C180 C 0.88659 0.28963 0.39569 0.0
C181 C 0.91982 0.2919 0.41599 0.0
C182 C 0.92715 0.26239 0.43221 0.0
C183 C 0.90122 0.23015 0.42851 0.0
C184 C 0.86777 0.22818 0.40845 0.0
C185 C 0.86053 0.25765 0.39228 0.0
C186 C 0.86286 0.31903 0.32725 0.0
C187 C 0.84002 0.33764 0.30953 0.0
C188 C 0.823 0.327 0.27562 0.0
C189 C 0.8291 0.2979 0.25872 0.0
C190 C 0.85499 0.28153 0.27498 0.0
C191 C 0.87191 0.29217 0.30894 0.0
P192 P 0.37628 0.6944 0.22068 0.0
H193 H 0.33552 0.72659 0.16636 0.0
H194 H 0.27514 0.70645 0.13504 0.0
H195 H 0.25094 0.61701 0.20505 0.0
H196 H 0.31076 0.63812 0.2373 0.0
H197 H 0.42977 0.72635 0.16768 0.0
H198 H 0.45562 0.78476 0.14848 0.0
H199 H 0.39927 0.82234 0.23193 0.0
H200 H 0.3712 0.76226 0.24995 0.0
H201 H 0.37092 0.62489 0.24727 0.0
H202 H 0.40124 0.7268 0.29367 0.0
O203 O 0.39471 0.67105 0.19356 0.0
H204 H 0.3862 0.60049 0.30478 0.0
H205 H 0.41638 0.70228 0.35223 0.0
C206 C 0.32791 0.68434 0.20484 0.0
C207 C 0.31687 0.70323 0.17591 0.0
C208 C 0.28234 0.69129 0.15746 0.0
C209 C 0.25806 0.6597 0.16697 0.0
C210 C 0.26854 0.64155 0.19699 0.0
C211 C 0.30305 0.65369 0.21559 0.0
C212 C 0.39914 0.73945 0.21112 0.0
C213 C 0.42312 0.74686 0.18249 0.0
C214 C 0.43825 0.7808 0.17147 0.0
C215 C 0.43045 0.80895 0.18895 0.0
C216 C 0.40611 0.80159 0.21766 0.0
C217 C 0.39043 0.76718 0.22845 0.0
C218 C 0.3844 0.67776 0.26587 0.0
C219 C 0.38019 0.64209 0.2701 0.0
C220 C 0.38892 0.62802 0.30332 0.0
C221 C 0.4024 0.64917 0.33365 0.0
C222 C 0.40631 0.68506 0.32956 0.0
C223 C 0.39733 0.69918 0.29604 0.0
P224 P 0.16299 0.33787 0.78411 0.0
H225 H 0.17867 0.27442 0.76071 0.0
H226 H 0.14272 0.22393 0.72722 0.0
H227 H 0.05035 0.27029 0.71618 0.0
H228 H 0.08671 0.32087 0.75024 0.0
H229 H 0.23496 0.33446 0.76114 0.0
H230 H 0.27825 0.36838 0.71941 0.0
H231 H 0.20323 0.43262 0.69517 0.0
H232 H 0.15952 0.39807 0.73727 0.0
H233 H 0.09599 0.31533 0.82501 0.0
H234 H 0.1775 0.41061 0.80661 0.0
O235 O 0.18898 0.32218 0.81464 0.0
H236 H 0.06961 0.34351 0.87135 0.0
H237 H 0.15115 0.43899 0.85265 0.0
C238 C 0.13508 0.30108 0.75889 0.0
C239 C 0.1506 0.27372 0.75125 0.0
C240 C 0.13009 0.24491 0.73168 0.0
C241 C 0.09346 0.24277 0.71903 0.0
C242 C 0.07825 0.27073 0.72598 0.0
C243 C 0.09898 0.29972 0.74547 0.0
C244 C 0.19442 0.36429 0.75319 0.0
C245 C 0.22777 0.35594 0.74708 0.0
C246 C 0.25243 0.37521 0.72286 0.0
C247 C 0.24431 0.40331 0.70392 0.0
C248 C 0.21053 0.4114 0.70965 0.0
C249 C 0.18555 0.39172 0.73373 0.0
C250 C 0.13789 0.36104 0.81103 0.0
C251 C 0.10747 0.34261 0.82997 0.0
C252 C 0.09273 0.35868 0.85694 0.0
C253 C 0.10821 0.39361 0.86588 0.0
C254 C 0.13809 0.41225 0.84618 0.0
C255 C 0.15304 0.39603 0.81948 0.0
Tb256 Tb 0.95733 1.01553 0.57026 0.0
Tb257 Tb 0.03719 0.03641 0.54225 0.0
C258 C 0.89271 0.98125 0.58079 0.0
C259 C 0.87419 0.96631 0.61342 0.0
C260 C 0.83608 0.95105 0.61177 0.0
C261 C 0.81855 0.93644 0.64287 0.0
C262 C 0.83902 0.93681 0.67602 0.0
C263 C 0.87727 0.95229 0.67744 0.0
C264 C 0.89469 0.96696 0.64642 0.0
C265 C 0.00018 0.06825 0.60855 0.0
C266 C 0.02213 0.98662 0.60836 0.0
C267 C 0.09962 0.06493 0.51964 0.0
C268 C 0.12149 0.09895 0.50748 0.0
C269 C 0.14017 0.12446 0.53243 0.0
C270 C 0.16438 0.15475 0.5204 0.0
C271 C 0.17033 0.16007 0.48326 0.0
C272 C 0.15073 0.13501 0.45836 0.0
C273 C 0.12672 0.10477 0.47035 0.0
C274 C -0.00704 0.97783 0.51738 0.0
C275 C 0.97703 0.07534 0.51394 0.0
O276 O 0.91897 0.96743 0.57112 0.0
O277 O 0.90244 1.01507 0.57943 0.0
O278 O 0.00797 0.05136 0.58317 0.0
O279 O 0.96577 0.05411 0.61457 0.0
O280 O 0.98603 0.98225 0.6016 0.0
O281 O 0.04731 1.01017 0.59167 0.0
O282 O 0.0929 0.06107 0.55418 0.0
O283 O 0.07119 0.04941 0.49843 0.0
O284 O 0.98388 1.00541 0.52326 0.0
O285 O 0.02831 0.98322 0.52353 0.0
O286 O 0.01249 0.07695 0.52114 0.0
O287 O 0.95017 0.04987 0.52584 0.0
H288 H 0.81993 0.95031 0.58642 0.0
H289 H 0.78911 0.92445 0.64088 0.0
H290 H 0.89369 0.95345 0.70266 0.0
H291 H 0.92418 0.9788 0.64815 0.0
H292 H 0.13693 0.12068 0.56128 0.0
H293 H 0.17894 0.17373 0.54018 0.0
H294 H 0.15518 0.13801 0.42963 0.0
H295 H 0.11318 0.08539 0.45053 0.0
Tb296 Tb 0.52849 0.06316 0.08187 0.0
Tb297 Tb 0.44624 0.04542 0.07739 0.0
C298 C 0.5968 0.09127 0.08355 0.0
C299 C 0.62227 0.12277 0.09827 0.0
C300 C 0.6108 0.15308 0.10297 0.0
C301 C 0.635 0.18184 0.1196 0.0
C302 C 0.67093 0.18064 0.13189 0.0
C303 C 0.68237 0.15037 0.12623 0.0
C304 C 0.65827 0.12178 0.10954 0.0
C305 C 0.49703 1.00453 0.1149 0.0
C306 C 0.48521 0.10168 0.13229 0.0
C307 C 0.37855 1.01522 0.07373 0.0
C308 C 0.35811 0.97994 1.06392 0.0
C309 C 0.37566 0.95286 1.06608 0.0
C310 C 0.35782 0.92052 1.05175 0.0
C311 C 0.32228 0.91485 1.03469 0.0
C312 C 0.3041 0.9416 1.0344 0.0
C313 C 0.32192 0.97389 1.04889 0.0
C314 C 0.47857 0.10316 1.04332 0.0
C315 C 0.48942 1.00813 1.02652 0.0
O316 O 0.57378 0.09509 1.05681 0.0
O317 O 0.58093 0.06892 0.10765 0.0
O318 O 0.48606 1.03194 0.11447 0.0
O319 O 0.52762 1.0103 0.09835 0.0
O320 O 0.51598 0.10274 0.11574 0.0
O321 O 0.45453 0.07737 0.12527 0.0
O322 O 0.39925 1.01855 0.10378 0.0
O323 O 0.3956 1.03354 1.04721 0.0
O324 O 0.48855 0.07539 1.04443 0.0
O325 O 0.44796 0.0984 1.05973 0.0
O326 O 0.45977 1.00488 1.04547 0.0
O327 O 0.51899 1.03389 1.03218 0.0
H328 H 0.58303 0.1543 0.09438 0.0
H329 H 0.62542 0.20483 0.12327 0.0
H330 H 0.7095 0.14821 0.13597 0.0
H331 H 0.66745 0.09849 0.10629 0.0
H332 H 0.40369 0.95706 0.0775 0.0
H333 H 0.37243 0.90038 1.05271 0.0
H334 H 0.27699 0.93833 1.02098 0.0
H335 H 0.3081 0.99459 1.04683 0.0
Tb336 Tb 0.47981 0.55399 0.57396 0.0
Tb337 Tb 0.48425 0.49124 0.53656 0.0
C338 C 0.45725 0.6038 0.59532 0.0
C339 C 0.42393 0.60682 0.61314 0.0
C340 C 0.38848 0.58719 0.60161 0.0
C341 C 0.3572 0.59088 0.61855 0.0
C342 C 0.36084 0.61411 0.6474 0.0
C343 C 0.3964 0.63326 0.65923 0.0
C344 C 0.42763 0.62966 0.64221 0.0
C345 C 0.51531 0.51497 0.61257 0.0
C346 C 0.41342 0.48502 0.57906 0.0
C347 C 0.50568 0.44081 0.51496 0.0
C348 C 0.54155 0.43537 0.50542 0.0
C349 C 0.55544 0.4104 0.52434 0.0
C350 C 0.58957 0.40498 0.51641 0.0
C351 C 0.61042 0.42418 0.489 0.0
C352 C 0.59658 0.44948 0.47028 0.0
C353 C 0.56255 0.45511 0.47848 0.0
C354 C 0.44761 0.52964 0.49854 0.0
C355 C 0.55119 0.55921 0.5334 0.0
O356 O 0.45224 0.59244 0.56194 0.0
O357 O 0.48003 0.59001 0.61475 0.0
O358 O 0.48658 0.50493 0.59213 0.0
O359 O 0.52426 0.54846 0.61319 0.0
O360 O 0.42502 0.51893 0.58326 0.0
O361 O 0.43384 0.46757 0.56334 0.0
O362 O 0.50304 0.44725 0.54916 0.0
O363 O 0.49081 0.46034 0.49335 0.0
O364 O 0.47706 0.54035 0.51797 0.0
O365 O 0.43862 0.49615 0.49915 0.0
O366 O 0.54039 0.52509 0.53181 0.0
O367 O 0.52947 0.57724 0.54583 0.0
H368 H 0.38486 0.56915 0.57937 0.0
H369 H 0.33018 0.57561 0.60907 0.0
H370 H 0.40004 0.65175 0.68105 0.0
H371 H 0.45469 0.64499 0.65152 0.0
H372 H 0.53991 0.39512 0.54548 0.0
H373 H 0.59965 0.3858 0.53192 0.0
H374 H 0.61167 0.46451 0.44877 0.0
H375 H 0.5527 0.47482 0.46364 0.0
Tb376 Tb 0.9918 0.55578 1.03861 0.0
Tb377 Tb 0.00423 0.50268 0.092 0.0
C378 C 0.96366 0.59466 0.99868 0.0
C379 C 0.93027 0.60802 0.99903 0.0
C380 C 0.89739 0.59081 0.97991 0.0
C381 C 0.86625 0.60408 0.97909 0.0
C382 C 0.86735 0.6349 0.99726 0.0
C383 C 0.9001 0.65186 1.01671 0.0
C384 C 0.93122 0.63863 1.01752 0.0
C385 C 0.05824 0.5703 0.07261 0.0
C386 C 0.96124 0.55433 0.11798 0.0
C387 C 0.03385 0.4663 0.1341 0.0
C388 C 0.06909 0.45644 0.13691 0.0
C389 C 0.09382 0.46361 0.10885 0.0
C390 C 0.12862 0.45672 0.11341 0.0
C391 C 0.13932 0.44299 0.14628 0.0
C392 C 0.11417 0.43539 0.17404 0.0
C393 C 0.07936 0.44204 0.16935 0.0
C394 C 0.9369 0.48799 1.06083 0.0
C395 C 0.03254 0.50386 1.01081 0.0
O396 O 0.95809 0.56154 0.99309 0.0
O397 O 0.98974 0.60602 1.02386 0.0
O398 O 0.0277 0.55621 0.08559 0.0
O399 O 0.05203 0.57903 1.03937 0.0
O400 O 0.9576 0.56223 0.08324 0.0
O401 O 0.98174 0.53327 0.12891 0.0
O402 O 0.03665 0.49907 0.13905 0.0
O403 O 0.01084 0.45366 0.10685 0.0
O404 O 0.96664 0.502 1.04586 0.0
O405 O 0.945 0.47904 0.09355 0.0
O406 O 0.03593 0.49451 1.04525 0.0
O407 O 0.01327 0.52611 1.00096 0.0
H408 H 0.89578 0.56723 0.96526 0.0
H409 H 0.84136 0.5903 0.96407 0.0
H410 H 0.9021 0.676 1.03044 0.0
H411 H 0.95618 0.65272 1.03221 0.0
H412 H 0.08662 0.47516 0.08377 0.0
H413 H 0.14753 0.46303 0.09166 0.0
H414 H 0.12147 0.42436 0.19947 0.0
H415 H 0.0607 0.43655 0.19137 0.0
H416 H 0.31364 0.26869 0.43588 0.0
H417 H 0.23883 0.27978 0.34609 0.0
H418 H 0.18752 0.24134 0.37582 0.0
H419 H 0.16497 0.2004 0.42447 0.0
H420 H 0.24006 0.18678 0.5129 0.0
H421 H 0.28994 0.23067 0.48689 0.0
C422 C 0.28606 0.2628 0.42295 0.0
C423 C 0.28016 0.27698 0.38876 0.0
C424 C 0.2567 0.24015 0.43992 0.0
C425 C 0.24413 0.26955 0.37258 0.0
C426 C 0.21477 0.24733 0.38942 0.0
C427 C 0.19221 0.20721 0.43814 0.0
C428 C 0.19888 0.19013 0.47035 0.0
C429 C 0.22091 0.23188 0.42267 0.0
C430 C 0.23411 0.19969 0.48818 0.0
C431 C 0.26275 0.22456 0.47315 0.0
H432 H 0.27739 0.80725 0.90997 0.0
H433 H 0.1682 0.80217 0.94586 0.0
H434 H 0.19554 0.83761 0.9985 0.0
H435 H 0.25025 0.87688 1.02884 0.0
H436 H 0.35862 0.88246 0.99048 0.0
H437 H 0.3317 0.83863 0.94526 0.0
C438 C 0.25935 0.81264 0.92987 0.0
C439 C 0.22068 0.80238 0.92353 0.0
C440 C 0.27518 0.83336 0.95965 0.0
C441 C 0.19804 0.81029 0.94961 0.0
C442 C 0.21366 0.83056 0.97973 0.0
C443 C 0.26797 0.8681 1.0109 0.0
C444 C 0.30634 0.8833 1.01281 0.0
C445 C 0.25218 0.84347 0.98412 0.0
C446 C 0.32905 0.87115 0.98987 0.0
C447 C 0.31363 0.84628 0.96368 0.0
H448 H 0.54925 0.40252 0.72351 0.0
H449 H 0.63311 0.49115 0.76306 0.0
H450 H 0.613 0.52731 0.71653 0.0
H451 H 0.57183 0.53415 0.66403 0.0
H452 H 0.4882 0.44575 0.62381 0.0
H453 H 0.50794 0.40941 0.67062 0.0
C454 C 0.56289 0.4298 0.72213 0.0
C455 C 0.59277 0.44395 0.7469 0.0
C456 C 0.55137 0.45059 0.69485 0.0
C457 C 0.61032 0.47937 0.74428 0.0
C458 C 0.59878 0.50016 0.71764 0.0
C459 C 0.55801 0.50691 0.66544 0.0
C460 C 0.52862 0.49276 0.64026 0.0
C461 C 0.56948 0.48608 0.69261 0.0
C462 C 0.51103 0.45736 0.64261 0.0
C463 C 0.52223 0.43654 0.66954 0.0
H464 H 0.87536 0.63874 0.20914 0.0
H465 H 0.93463 0.60181 0.29796 0.0
H466 H 0.96134 0.56991 0.25546 0.0
H467 H 0.96957 0.55382 0.19251 0.0
H468 H 0.91111 0.59247 0.10411 0.0
H469 H 0.88295 0.6224 0.14686 0.0
C470 C 0.8944 0.62402 0.21931 0.0
C471 C 0.90298 0.62301 0.25693 0.0
C472 C 0.90996 0.60591 0.19465 0.0
C473 C 0.92712 0.60298 0.26934 0.0
C474 C 0.94262 0.58481 0.24496 0.0
C475 C 0.95046 0.56856 0.18259 0.0
C476 C 0.94263 0.57072 0.14492 0.0
C477 C 0.9344 0.58618 0.20748 0.0
C478 C 0.91787 0.59022 0.13278 0.0
C479 C 0.90168 0.60747 0.15728 0.0
H480 H 0.48452 0.24537 0.19725 0.0
H481 H 0.39121 0.1819 0.25108 0.0
H482 H 0.40174 0.13049 0.22409 0.0
H483 H 0.43522 0.10367 0.18246 0.0
H484 H 0.53083 0.16662 0.13191 0.0
H485 H 0.52239 0.2178 0.16159 0.0
C486 C 0.46687 0.22033 0.20382 0.0
C487 C 0.43658 0.21791 0.22568 0.0
C488 C 0.4736 0.19059 0.18894 0.0
C489 C 0.41399 0.18496 0.23341 0.0
C490 C 0.42019 0.15536 0.21827 0.0
C491 C 0.45449 0.12852 0.17834 0.0
C492 C 0.48343 0.13131 0.15484 0.0
C493 C 0.44951 0.15792 0.19549 0.0
C494 C 0.50839 0.16365 0.15 0.0
C495 C 0.50342 0.19304 0.16675 0.0
H496 H 0.05747 0.86469 0.70253 0.0
H497 H 0.16856 0.9277 0.69127 0.0
H498 H 0.14455 0.9715 0.65923 0.0
H499 H 0.09285 0.99079 0.63192 0.0
H500 H 0.98123 0.92817 0.64091 0.0
H501 H 0.00463 0.88555 0.6766 0.0
C502 C 0.07632 0.88801 0.693 0.0
C503 C 0.11473 0.89295 0.69943 0.0
C504 C 0.06231 0.91319 0.67425 0.0
C505 C 0.13886 0.92345 0.6872 0.0
C506 C 0.12519 0.94847 0.66868 0.0
C507 C 0.07346 0.96797 0.64181 0.0
C508 C 0.03535 0.96263 0.63345 0.0
C509 C 0.08706 0.94348 0.6618 0.0
C510 C 0.01075 0.93298 0.64688 0.0
C511 C 0.02412 0.90848 0.66715 0.0
H512 H 0.77615 0.40836 1.00275 0.0
H513 H 0.81132 0.46599 0.90586 0.0
H514 H 0.87072 0.49395 0.93676 0.0
H515 H 0.91411 0.49977 0.9908 0.0
H516 H 0.87697 0.44412 0.08835 0.0
H517 H 0.81742 0.4175 1.05776 0.0
C518 C 0.7968 0.42711 0.98844 0.0
C519 C 0.78934 0.43489 0.95197 0.0
C520 C 0.83079 0.4433 1.00647 0.0
C521 C 0.81624 0.45963 0.93399 0.0
C522 C 0.85033 0.4755 0.95159 0.0
C523 C 0.89284 0.48217 1.00543 0.0
C524 C 0.9002 0.47391 1.04181 0.0
C525 C 0.85813 0.46726 0.98776 0.0
C526 C 0.87224 0.4509 1.06032 0.0
C527 C 0.83807 0.43559 1.04284 0.0
H528 H 0.69145 0.65982 0.46765 0.0
H529 H 0.71076 0.56305 0.43558 0.0
H530 H 0.65581 0.53162 0.46614 0.0
H531 H 0.60096 0.5316 0.50036 0.0
H532 H 0.58231 0.62871 0.53239 0.0
H533 H 0.63863 0.65976 0.50417 0.0
C534 C 0.68412 0.63184 0.46782 0.0
C535 C 0.70541 0.61397 0.44915 0.0
C536 C 0.65246 0.61387 0.4855 0.0
C537 C 0.69477 0.57763 0.44923 0.0
C538 C 0.66339 0.55957 0.46688 0.0
C539 C 0.60931 0.55954 0.50144 0.0
C540 C 0.58713 0.57768 0.51848 0.0
C541 C 0.64177 0.57743 0.48482 0.0
C542 C 0.5986 0.61394 0.51949 0.0
C543 C 0.63087 0.63181 0.50326 0.0
H544 H 0.28905 0.3972 0.15428 0.0
H545 H 0.29718 0.44415 0.25984 0.0
H546 H 0.24092 0.46246 0.24531 0.0
H547 H 0.18641 0.46079 0.20503 0.0
H548 H 0.17624 0.41222 0.10036 0.0
H549 H 0.23611 0.39883 0.11215 0.0
C550 C 0.27863 0.41163 0.174 0.0
C551 C 0.29743 0.41918 0.20812 0.0
C552 C 0.24561 0.42146 0.16581 0.0
C553 C 0.28377 0.43838 0.23315 0.0
C554 C 0.25126 0.44855 0.22505 0.0
C555 C 0.19733 0.44725 0.18482 0.0
C556 C 0.17675 0.43706 0.15212 0.0
C557 C 0.23152 0.4395 0.19187 0.0
C558 C 0.19159 0.4203 0.12577 0.0
C559 C 0.22572 0.41254 0.13256 0.0
H560 H 0.53611 0.25218 0.97477 0.0
H561 H 0.59901 0.1982 0.91386 0.0
H562 H 0.57307 0.14506 0.9469 0.0
H563 H 0.53133 0.11303 0.99262 0.0
H564 H 0.46711 0.1666 1.0522 0.0
H565 H 0.49484 0.22035 1.02077 0.0
C566 C 0.54431 0.22886 0.96886 0.0
C567 C 0.56936 0.22938 0.94152 0.0
C568 C 0.52898 0.19807 0.98788 0.0
C569 C 0.57935 0.19864 0.93421 0.0
C570 C 0.56467 0.16816 0.95331 0.0
C571 C 0.5236 0.13654 0.99882 0.0
C572 C 0.49709 0.13573 1.0247 0.0
C573 C 0.53928 0.16743 0.98009 0.0
C574 C 0.48725 0.16641 1.03226 0.0
C575 C 0.50314 0.19723 1.01428 0.0
H576 H 0.87474 0.85443 0.43975 0.0
H577 H 0.96885 0.81032 0.44552 0.0
H578 H 0.00577 0.8612 0.47758 0.0
H579 H 0.01243 0.91918 0.50223 0.0
H580 H 0.91971 0.96484 0.49456 0.0
H581 H 0.88137 0.91265 0.46481 0.0
C582 C 0.9034 0.85597 0.44773 0.0
C583 C 0.91877 0.82823 0.44003 0.0
C584 C 0.92484 0.88572 0.46583 0.0
C585 C 0.95588 0.83075 0.45137 0.0
C586 C 0.97721 0.86006 0.46954 0.0
C587 C 0.98377 0.91768 0.49415 0.0
C588 C 0.96893 0.94587 0.50068 0.0
C589 C 0.96209 0.88778 0.47671 0.0
C590 C 0.93177 0.94348 0.49003 0.0
C591 C 0.90989 0.91366 0.47291 0.0
H592 H 0.24764 0.6636 0.73838 0.0
H593 H 0.1965 0.66959 0.63184 0.0
H594 H 0.23988 0.64116 0.60595 0.0
H595 H 0.2979 0.62284 0.61272 0.0
H596 H 0.3499 0.61914 0.71928 0.0
H597 H 0.30026 0.63816 0.74617 0.0
C598 C 0.24506 0.65762 0.70967 0.0
C599 C 0.21898 0.66887 0.68703 0.0
C600 C 0.2707 0.64226 0.69492 0.0
C601 C 0.21655 0.66145 0.64978 0.0
C602 C 0.24143 0.64534 0.63497 0.0
C603 C 0.29785 0.62538 0.6419 0.0
C604 C 0.32778 0.62009 0.66396 0.0
C605 C 0.26954 0.63691 0.65711 0.0
C606 C 0.3275 0.6237 0.70171 0.0
C607 C 0.2991 0.63447 0.71709 0.0
H608 H 0.78615 0.86801 0.82524 0.0
H609 H 0.69581 0.91438 0.79901 0.0
H610 H 0.72291 0.93569 0.74168 0.0
H611 H 0.77351 0.94293 0.70011 0.0
H612 H 0.86353 0.89613 0.72641 0.0
H613 H 0.83519 0.87305 0.78257 0.0
C614 C 0.77209 0.88232 0.80673 0.0
C615 C 0.73905 0.88962 0.8164 0.0
C616 C 0.78787 0.89458 0.77394 0.0
C617 C 0.7215 0.90874 0.79238 0.0
C618 C 0.7369 0.92082 0.75955 0.0
C619 C 0.78666 0.9273 0.7179 0.0
C620 C 0.82066 0.9214 0.70917 0.0
C621 C 0.77026 0.91417 0.75021 0.0
C622 C 0.83761 0.90147 0.73276 0.0
C623 C 0.82136 0.88813 0.76479 0.0
H624 H 0.75492 0.28743 0.24977 0.0
H625 H 0.84942 0.27125 0.19742 0.0
H626 H 0.80839 0.23639 0.1507 0.0
H627 H 0.74562 0.20601 0.1285 0.0
H628 H 0.65152 0.21979 0.18362 0.0
H629 H 0.69248 0.26119 0.22463 0.0
C630 C 0.76662 0.27708 0.2276 0.0
C631 C 0.80515 0.28183 0.2271 0.0
C632 C 0.7429 0.25655 0.20137 0.0
C633 C 0.81983 0.26768 0.19855 0.0
C634 C 0.79639 0.24776 0.17187 0.0
C635 C 0.73406 0.21819 0.14939 0.0
C636 C 0.69553 0.20948 0.15314 0.0
C637 C 0.75786 0.2412 0.17366 0.0
C638 C 0.68098 0.22613 0.17984 0.0
C639 C 0.70443 0.24961 0.20358 0.0
H640 H 0.36845 0.58743 0.36494 0.0
H641 H 0.46189 0.67547 0.38137 0.0
H642 H 0.48292 0.64786 0.43508 0.0
H643 H 0.47713 0.59654 0.47553 0.0
H644 H 0.38449 0.50822 0.45679 0.0
H645 H 0.36126 0.53783 0.40611 0.0
C646 C 0.39352 0.60067 0.38009 0.0
C647 C 0.41356 0.63358 0.36855 0.0
C648 C 0.40585 0.58437 0.41071 0.0
C649 C 0.44553 0.65037 0.38943 0.0
C650 C 0.45781 0.63441 0.42014 0.0
C651 C 0.45167 0.58397 0.46055 0.0
C652 C 0.4327 0.55001 0.46998 0.0
C653 C 0.43852 0.60114 0.43081 0.0
C654 C 0.39979 0.53418 0.45014 0.0
C655 C 0.38645 0.55112 0.42104 0.0
H656 H 0.0956 0.45795 0.86903 0.0
H657 H 0.09058 0.36607 0.93295 0.0
H658 H 0.06905 0.39237 0.98401 0.0
H659 H 0.05034 0.44139 1.01058 0.0
H660 H 0.05312 0.53214 0.94532 0.0
H661 H 0.07721 0.50676 0.89543 0.0
C662 C 0.08999 0.44373 0.89419 0.0
C663 C 0.09463 0.40993 0.89688 0.0
C664 C 0.07729 0.45896 0.92351 0.0
C665 C 0.0868 0.39188 0.92974 0.0
C666 C 0.07469 0.40702 0.95914 0.0
C667 C 0.05659 0.45572 0.98557 0.0
C668 C 0.04995 0.48874 0.98189 0.0
C669 C 0.06969 0.44054 0.95638 0.0
C670 C 0.0578 0.50669 0.94902 0.0
C671 C 0.07158 0.49216 0.92035 0.0
H672 H 0.55788 0.9111 0.94054 0.0
H673 H 0.50955 0.8404 1.02438 0.0
H674 H 0.47434 0.88059 1.04268 0.0
H675 H 0.46735 0.94016 1.04213 0.0
H676 H 0.52196 1.01232 0.96238 0.0
H677 H 0.54372 0.96686 0.93425 0.0
C678 C 0.53853 0.90375 0.96186 0.0
C679 C 0.53654 0.87289 0.98123 0.0
C680 C 0.51976 0.92754 0.97314 0.0
C681 C 0.5118 0.86417 1.00927 0.0
C682 C 0.4918 0.88719 1.01981 0.0
C683 C 0.48287 0.94548 1.0178 0.0
C684 C 0.49318 0.97935 1.0042 0.0
C685 C 0.497 0.91966 1.00306 0.0
C686 C 0.51383 0.98632 0.97316 0.0
C687 C 0.52644 0.96042 0.95727 0.0
H688 H 0.96594 0.21094 0.43004 0.0
H689 H 0.85395 0.1784 0.46442 0.0
H690 H 0.86672 0.1265 0.49181 0.0
H691 H 0.91033 0.09129 0.50782 0.0
H692 H 0.02288 0.12505 0.47486 0.0
H693 H 0.00923 0.17549 0.4453 0.0
C694 C 0.94441 0.19264 0.44379 0.0
C695 C 0.90909 0.19863 0.44525 0.0
C696 C 0.952 0.16299 0.45972 0.0
C697 C 0.8813 0.17429 0.46259 0.0
C698 C 0.88861 0.14465 0.4784 0.0
C699 C 0.93177 0.10948 0.49385 0.0
C700 C 0.96756 0.10433 0.49362 0.0
C701 C 0.92391 0.13879 0.47725 0.0
C702 C -0.00491 0.12837 0.47562 0.0
C703 C 0.98736 0.1573 0.45871 0.0
H704 H 0.19023 0.62293 0.18933 0.0
H705 H 0.24732 0.66238 0.09302 0.0
H706 H 0.19136 0.6383 1.05559 0.0
H707 H 0.1257 0.60573 1.04968 0.0
H708 H 0.06896 0.5659 0.14585 0.0
H709 H 0.12517 0.58946 0.18337 0.0
C710 C 0.19063 0.62607 0.16015 0.0
C711 C 0.22322 0.6449 0.14433 0.0
C712 C 0.15828 0.61171 0.1385 0.0
C713 C 0.22268 0.64883 0.10633 0.0
C714 C 0.19066 0.63473 0.08471 0.0
C715 C 0.12573 0.60211 0.07883 0.0
C716 C 0.09317 0.58378 0.09482 0.0
C717 C 0.15823 0.61615 0.10044 0.0
C718 C 0.09369 0.57943 0.13269 0.0
C719 C 0.12583 0.59315 0.15426 0.0
H720 H 0.28287 0.37971 0.65397 0.0
H721 H 0.26719 0.47379 0.69771 0.0
H722 H 0.31628 0.50773 0.66098 0.0
H723 H 0.36698 0.51035 0.61989 0.0
H724 H 0.38227 0.41561 0.57689 0.0
H725 H 0.33025 0.38248 0.60988 0.0
C726 C 0.29014 0.40766 0.65545 0.0
C727 C 0.27156 0.42411 0.6789 0.0
C728 C 0.31855 0.42696 0.63449 0.0
C729 C 0.28087 0.4604 0.67984 0.0
C730 C 0.30914 0.47983 0.65899 0.0
C731 C 0.35869 0.4825 0.61733 0.0
C732 C 0.37892 0.46563 0.59599 0.0
C733 C 0.32864 0.46336 0.63667 0.0
C734 C 0.36754 0.42945 0.59314 0.0
C735 C 0.33773 0.41036 0.6121 0.0
H736 H 0.7443 0.71233 0.95503 0.0
H737 H 0.76209 0.73954 1.06823 0.0
H738 H 0.80354 0.70143 0.07684 0.0
H739 H 0.83939 0.66509 1.05078 0.0
H740 H 0.82373 0.6402 0.93684 0.0
H741 H 0.77606 0.67189 0.93014 0.0
C742 C 0.75651 0.70921 0.98176 0.0
C743 C 0.75035 0.72881 1.01092 0.0
C744 C 0.7809 0.68786 0.98631 0.0
C745 C 0.76674 0.72491 1.04532 0.0
C746 C 0.79045 0.70319 1.05023 0.0
C747 C 0.82542 0.66649 1.02452 0.0
C748 C 0.83539 0.6506 0.99431 0.0
C749 C 0.79861 0.68539 1.02067 0.0
C750 C 0.81648 0.65202 0.96061 0.0
C751 C 0.78938 0.67036 0.95667 0.0
H752 H 0.40212 0.86696 0.18695 0.0
H753 H 0.49982 0.8339 0.16388 0.0
H754 H 0.52731 0.88994 0.13813 0.0
H755 H 0.52412 0.94822 0.12074 0.0
H756 H 0.43078 0.98505 0.14899 0.0
H757 H 0.40146 0.92818 0.1741 0.0
C758 C 0.42962 0.87205 0.17678 0.0
C759 C 0.44813 0.84529 0.17671 0.0
C760 C 0.44616 0.90521 0.16264 0.0
C761 C 0.48393 0.85302 0.1633 0.0
C762 C 0.50004 0.8854 0.14875 0.0
C763 C 0.49739 0.94396 0.13252 0.0
C764 C 0.47938 0.97084 0.13224 0.0
C765 C 0.48134 0.91156 0.1479 0.0
C766 C 0.44498 0.96476 0.14808 0.0
C767 C 0.4283 0.93219 0.16268 0.0
H768 H 0.11526 0.2037 0.668 0.0
H769 H 0.02084 0.20973 0.72738 0.0
H770 H 0.98428 0.15668 0.69868 0.0
H771 H 0.97909 0.10777 0.6577 0.0
H772 H 0.07262 0.10139 0.59766 0.0
H773 H 0.10965 0.1549 0.6259 0.0
C774 C 0.08673 0.19336 0.67481 0.0
C775 C 0.07096 0.21096 0.69995 0.0
C776 C 0.06574 0.16255 0.65824 0.0
C777 C 0.03371 0.19723 0.70787 0.0
C778 C 0.01279 0.16666 0.69165 0.0
C779 C 0.00764 0.11803 0.65086 0.0
C780 C 0.02321 0.1004 0.62579 0.0
C781 C 0.02853 0.149 0.66696 0.0
C782 C 0.06009 0.11424 0.61701 0.0
C783 C 0.08122 0.14493 0.63314 0.0
H784 H 0.76644 0.41583 0.43736 0.0
H785 H 0.71845 0.30746 0.45617 0.0
H786 H 0.66253 0.32031 0.47655 0.0
H787 H 0.6261 0.3617 0.48595 0.0
H788 H 0.67442 0.47046 0.46988 0.0
H789 H 0.7313 0.45798 0.4512 0.0
C790 C 0.744 0.3951 0.44651 0.0
C791 C 0.74652 0.3607 0.44492 0.0
C792 C 0.71184 0.40266 0.45828 0.0
C793 C 0.71699 0.33411 0.45651 0.0
C794 C 0.68503 0.34142 0.46828 0.0
C795 C 0.64925 0.38282 0.47906 0.0
C796 C 0.6458 0.41697 0.47926 0.0
C797 C 0.68197 0.37553 0.4688 0.0
C798 C 0.67598 0.44386 0.46942 0.0
C799 C 0.70865 0.43678 0.45897 0.0
loop_
_geom_bond_atom_site_label_1
_geom_bond_atom_site_label_2
_geom_bond_distance
_geom_bond_site_symmetry_2
_ccdc_geom_bond_type
P0 O11 1.490 . S
P0 C14 1.812 . S
P0 C20 1.803 . S
P0 C26 1.819 . S
H1 C15 0.941 . S
H2 C16 0.939 . S
H3 C18 0.940 . S
H4 C19 0.940 . S
H5 C21 0.939 . S
H6 C22 0.942 . S
H7 C24 0.940 . S
H8 C25 0.939 . S
H9 C27 0.941 . S
H10 C31 0.939 . S
O11 P0 1.490 . S
H12 C28 0.939 . S
H13 C30 0.940 . S
C14 P0 1.812 . S
C14 C15 1.389 . S
C14 C19 1.391 . S
C15 H1 0.941 . S
C15 C14 1.389 . S
C15 C16 1.397 . S
C16 H2 0.939 . S
C16 C15 1.397 . S
C16 C17 1.378 . S
C17 C16 1.378 . S
C17 C18 1.378 . S
C18 H3 0.940 . S
C18 C17 1.378 . S
C18 C19 1.396 . S
C19 H4 0.940 . S
C19 C14 1.391 . S
C19 C18 1.396 . S
C20 P0 1.803 . S
C20 C21 1.378 . S
C20 C25 1.400 . S
C21 H5 0.939 . S
C21 C20 1.378 . S
C21 C22 1.361 . S
C22 H6 0.942 . S
C22 C21 1.361 . S
C22 C23 1.369 . S
C23 C22 1.369 . S
C23 C24 1.404 . S
C24 H7 0.940 . S
C24 C23 1.404 . S
C24 C25 1.389 . S
C25 H8 0.939 . S
C25 C20 1.400 . S
C25 C24 1.389 . S
C26 P0 1.819 . S
C26 C27 1.391 . S
C26 C31 1.391 . S
C27 H9 0.941 . S
C27 C26 1.391 . S
C27 C28 1.396 . S
C28 H12 0.939 . S
C28 C27 1.396 . S
C28 C29 1.397 . S
C29 C28 1.397 . S
C29 C30 1.385 . S
C30 H13 0.940 . S
C30 C29 1.385 . S
C30 C31 1.388 . S
C31 H10 0.939 . S
C31 C26 1.391 . S
C31 C30 1.388 . S
P32 O43 1.490 . S
P32 C46 1.812 . S
P32 C52 1.803 . S
P32 C58 1.819 . S
H33 C47 0.941 . S
H34 C48 0.939 . S
H35 C50 0.940 . S
H36 C51 0.940 . S
H37 C53 0.939 . S
H38 C54 0.942 . S
H39 C56 0.940 . S
H40 C57 0.939 . S
H41 C59 0.941 . S
H42 C63 0.939 . S
O43 P32 1.490 . S
H44 C60 0.939 . S
H45 C62 0.940 . S
C46 P32 1.812 . S
C46 C47 1.389 . S
C46 C51 1.391 . S
C47 H33 0.941 . S
C47 C46 1.389 . S
C47 C48 1.397 . S
C48 H34 0.939 . S
C48 C47 1.397 . S
C48 C49 1.378 . S
C49 C48 1.378 . S
C49 C50 1.378 . S
C50 H35 0.940 . S
C50 C49 1.378 . S
C50 C51 1.396 . S
C51 H36 0.940 . S
C51 C46 1.391 . S
C51 C50 1.396 . S
C52 P32 1.803 . S
C52 C53 1.378 . S
C52 C57 1.400 . S
C53 H37 0.939 . S
C53 C52 1.378 . S
C53 C54 1.361 . S
C54 H38 0.942 . S
C54 C53 1.361 . S
C54 C55 1.369 . S
C55 C54 1.369 . S
C55 C56 1.404 . S
C56 H39 0.940 . S
C56 C55 1.404 . S
C56 C57 1.389 . S
C57 H40 0.939 . S
C57 C52 1.400 . S
C57 C56 1.389 . S
C58 P32 1.819 . S
C58 C59 1.391 . S
C58 C63 1.391 . S
C59 H41 0.941 . S
C59 C58 1.391 . S
C59 C60 1.396 . S
C60 H44 0.939 . S
C60 C59 1.396 . S
C60 C61 1.397 . S
C61 C60 1.397 . S
C61 C62 1.385 . S
C62 H45 0.940 . S
C62 C61 1.385 . S
C62 C63 1.388 . S
C63 H42 0.939 . S
C63 C58 1.391 . S
C63 C62 1.388 . S
P64 O75 1.490 . S
P64 C78 1.812 . S
P64 C84 1.803 . S
P64 C90 1.819 . S
H65 C79 0.941 . S
H66 C80 0.939 . S
H67 C82 0.940 . S
H68 C83 0.940 . S
H69 C85 0.939 . S
H70 C86 0.942 . S
H71 C88 0.940 . S
H72 C89 0.939 . S
H73 C91 0.941 . S
H74 C95 0.939 . S
O75 P64 1.490 . S
H76 C92 0.939 . S
H77 C94 0.940 . S
C78 P64 1.812 . S
C78 C79 1.389 . S
C78 C83 1.391 . S
C79 H65 0.941 . S
C79 C78 1.389 . S
C79 C80 1.397 . S
C80 H66 0.939 . S
C80 C79 1.397 . S
C80 C81 1.378 . S
C81 C80 1.378 . S
C81 C82 1.378 . S
C82 H67 0.940 . S
C82 C81 1.378 . S
C82 C83 1.396 . S
C83 H68 0.940 . S
C83 C78 1.391 . S
C83 C82 1.396 . S
C84 P64 1.803 . S
C84 C85 1.378 . S
C84 C89 1.400 . S
C85 H69 0.939 . S
C85 C84 1.378 . S
C85 C86 1.361 . S
C86 H70 0.942 . S
C86 C85 1.361 . S
C86 C87 1.369 . S
C87 C86 1.369 . S
C87 C88 1.404 . S
C88 H71 0.940 . S
C88 C87 1.404 . S
C88 C89 1.389 . S
C89 H72 0.939 . S
C89 C84 1.400 . S
C89 C88 1.389 . S
C90 P64 1.819 . S
C90 C91 1.391 . S
C90 C95 1.391 . S
C91 H73 0.941 . S
C91 C90 1.391 . S
C91 C92 1.396 . S
C92 H76 0.939 . S
C92 C91 1.396 . S
C92 C93 1.397 . S
C93 C92 1.397 . S
C93 C94 1.385 . S
C94 H77 0.940 . S
C94 C93 1.385 . S
C94 C95 1.388 . S
C95 H74 0.939 . S
C95 C90 1.391 . S
C95 C94 1.388 . S
P96 O107 1.490 . S
P96 C110 1.812 . S
P96 C116 1.803 . S
P96 C122 1.819 . S
H97 C111 0.941 . S
H98 C112 0.939 . S
H99 C114 0.940 . S
H100 C115 0.940 . S
H101 C117 0.939 . S
H102 C118 0.942 . S
H103 C120 0.940 . S
H104 C121 0.939 . S
H105 C123 0.941 . S
H106 C127 0.939 . S
O107 P96 1.490 . S
H108 C124 0.939 . S
H109 C126 0.940 . S
C110 P96 1.812 . S
C110 C111 1.389 . S
C110 C115 1.391 . S
C111 H97 0.941 . S
C111 C110 1.389 . S
C111 C112 1.397 . S
C112 H98 0.939 . S
C112 C111 1.397 . S
C112 C113 1.378 . S
C113 C112 1.378 . S
C113 C114 1.378 . S
C114 H99 0.940 . S
C114 C113 1.378 . S
C114 C115 1.396 . S
C115 H100 0.940 . S
C115 C110 1.391 . S
C115 C114 1.396 . S
C116 P96 1.803 . S
C116 C117 1.378 . S
C116 C121 1.400 . S
C117 H101 0.939 . S
C117 C116 1.378 . S
C117 C118 1.361 . S
C118 H102 0.942 . S
C118 C117 1.361 . S
C118 C119 1.369 . S
C119 C118 1.369 . S
C119 C120 1.404 . S
C120 H103 0.940 . S
C120 C119 1.404 . S
C120 C121 1.389 . S
C121 H104 0.939 . S
C121 C116 1.400 . S
C121 C120 1.389 . S
C122 P96 1.819 . S
C122 C123 1.391 . S
C122 C127 1.391 . S
C123 H105 0.941 . S
C123 C122 1.391 . S
C123 C124 1.396 . S
C124 H108 0.939 . S
C124 C123 1.396 . S
C124 C125 1.397 . S
C125 C124 1.397 . S
C125 C126 1.385 . S
C126 H109 0.940 . S
C126 C125 1.385 . S
C126 C127 1.388 . S
C127 H106 0.939 . S
C127 C122 1.391 . S
C127 C126 1.388 . S
P128 O139 1.490 . S
P128 C142 1.812 . S
P128 C148 1.803 . S
P128 C154 1.819 . S
H129 C143 0.941 . S
H130 C144 0.939 . S
H131 C146 0.940 . S
H132 C147 0.940 . S
H133 C149 0.939 . S
H134 C150 0.942 . S
H135 C152 0.940 . S
H136 C153 0.939 . S
H137 C155 0.941 . S
H138 C159 0.939 . S
O139 P128 1.490 . S
H140 C156 0.939 . S
H141 C158 0.940 . S
C142 P128 1.812 . S
C142 C143 1.389 . S
C142 C147 1.391 . S
C143 H129 0.941 . S
C143 C142 1.389 . S
C143 C144 1.397 . S
C144 H130 0.939 . S
C144 C143 1.397 . S
C144 C145 1.378 . S
C145 C144 1.378 . S
C145 C146 1.378 . S
C146 H131 0.940 . S
C146 C145 1.378 . S
C146 C147 1.396 . S
C147 H132 0.940 . S
C147 C142 1.391 . S
C147 C146 1.396 . S
C148 P128 1.803 . S
C148 C149 1.378 . S
C148 C153 1.400 . S
C149 H133 0.939 . S
C149 C148 1.378 . S
C149 C150 1.361 . S
C150 H134 0.942 . S
C150 C149 1.361 . S
C150 C151 1.369 . S
C151 C150 1.369 . S
C151 C152 1.404 . S
C152 H135 0.940 . S
C152 C151 1.404 . S
C152 C153 1.389 . S
C153 H136 0.939 . S
C153 C148 1.400 . S
C153 C152 1.389 . S
C154 P128 1.819 . S
C154 C155 1.391 . S
C154 C159 1.391 . S
C155 H137 0.941 . S
C155 C154 1.391 . S
C155 C156 1.396 . S
C156 H140 0.939 . S
C156 C155 1.396 . S
C156 C157 1.397 . S
C157 C156 1.397 . S
C157 C158 1.385 . S
C158 H141 0.940 . S
C158 C157 1.385 . S
C158 C159 1.388 . S
C159 H138 0.939 . S
C159 C154 1.391 . S
C159 C158 1.388 . S
P160 O171 1.490 . S
P160 C174 1.812 . S
P160 C180 1.803 . S
P160 C186 1.819 . S
H161 C175 0.941 . S
H162 C176 0.939 . S
H163 C178 0.940 . S
H164 C179 0.940 . S
H165 C181 0.939 . S
H166 C182 0.942 1_455 S
H167 C184 0.940 . S
H168 C185 0.939 . S
H169 C187 0.941 . S
H170 C191 0.939 . S
O171 P160 1.490 . S
H172 C188 0.939 . S
H173 C190 0.940 . S
C174 P160 1.812 . S
C174 C175 1.389 . S
C174 C179 1.391 . S
C175 H161 0.941 . S
C175 C174 1.389 . S
C175 C176 1.397 . S
C176 H162 0.939 . S
C176 C175 1.397 . S
C176 C177 1.378 . S
C177 C176 1.378 . S
C177 C178 1.378 . S
C178 H163 0.940 . S
C178 C177 1.378 . S
C178 C179 1.396 . S
C179 H164 0.940 . S
C179 C174 1.391 . S
C179 C178 1.396 . S
C180 P160 1.803 . S
C180 C181 1.378 . S
C180 C185 1.400 . S
C181 H165 0.939 . S
C181 C180 1.378 . S
C181 C182 1.361 . S
C182 H166 0.942 1_655 S
C182 C181 1.361 . S
C182 C183 1.369 . S
C183 C182 1.369 . S
C183 C184 1.404 . S
C184 H167 0.940 . S
C184 C183 1.404 . S
C184 C185 1.389 . S
C185 H168 0.939 . S
C185 C180 1.400 . S
C185 C184 1.389 . S
C186 P160 1.819 . S
C186 C187 1.391 . S
C186 C191 1.391 . S
C187 H169 0.941 . S
C187 C186 1.391 . S
C187 C188 1.396 . S
C188 H172 0.939 . S
C188 C187 1.396 . S
C188 C189 1.397 . S
C189 C188 1.397 . S
C189 C190 1.385 . S
C190 H173 0.940 . S
C190 C189 1.385 . S
C190 C191 1.388 . S
C191 H170 0.939 . S
C191 C186 1.391 . S
C191 C190 1.388 . S
P192 O203 1.490 . S
P192 C206 1.812 . S
P192 C212 1.803 . S
P192 C218 1.819 . S
H193 C207 0.941 . S
H194 C208 0.939 . S
H195 C210 0.940 . S
H196 C211 0.940 . S
H197 C213 0.939 . S
H198 C214 0.942 . S
H199 C216 0.940 . S
H200 C217 0.939 . S
H201 C219 0.941 . S
H202 C223 0.939 . S
O203 P192 1.490 . S
H204 C220 0.939 . S
H205 C222 0.940 . S
C206 P192 1.812 . S
C206 C207 1.389 . S
C206 C211 1.391 . S
C207 H193 0.941 . S
C207 C206 1.389 . S
C207 C208 1.397 . S
C208 H194 0.939 . S
C208 C207 1.397 . S
C208 C209 1.378 . S
C209 C208 1.378 . S
C209 C210 1.378 . S
C210 H195 0.940 . S
C210 C209 1.378 . S
C210 C211 1.396 . S
C211 H196 0.940 . S
C211 C206 1.391 . S
C211 C210 1.396 . S
C212 P192 1.803 . S
C212 C213 1.378 . S
C212 C217 1.400 . S
C213 H197 0.939 . S
C213 C212 1.378 . S
C213 C214 1.361 . S
C214 H198 0.942 . S
C214 C213 1.361 . S
C214 C215 1.369 . S
C215 C214 1.369 . S
C215 C216 1.404 . S
C216 H199 0.940 . S
C216 C215 1.404 . S
C216 C217 1.389 . S
C217 H200 0.939 . S
C217 C212 1.400 . S
C217 C216 1.389 . S
C218 P192 1.819 . S
C218 C219 1.391 . S
C218 C223 1.391 . S
C219 H201 0.941 . S
C219 C218 1.391 . S
C219 C220 1.396 . S
C220 H204 0.939 . S
C220 C219 1.396 . S
C220 C221 1.397 . S
C221 C220 1.397 . S
C221 C222 1.385 . S
C222 H205 0.940 . S
C222 C221 1.385 . S
C222 C223 1.388 . S
C223 H202 0.939 . S
C223 C218 1.391 . S
C223 C222 1.388 . S
P224 O235 1.490 . S
P224 C238 1.812 . S
P224 C244 1.803 . S
P224 C250 1.819 . S
H225 C239 0.941 . S
H226 C240 0.939 . S
H227 C242 0.940 . S
H228 C243 0.940 . S
H229 C245 0.939 . S
H230 C246 0.942 . S
H231 C248 0.940 . S
H232 C249 0.939 . S
H233 C251 0.941 . S
H234 C255 0.939 . S
O235 P224 1.490 . S
H236 C252 0.939 . S
H237 C254 0.940 . S
C238 P224 1.812 . S
C238 C239 1.389 . S
C238 C243 1.391 . S
C239 H225 0.941 . S
C239 C238 1.389 . S
C239 C240 1.397 . S
C240 H226 0.939 . S
C240 C239 1.397 . S
C240 C241 1.378 . S
C241 C240 1.378 . S
C241 C242 1.378 . S
C242 H227 0.940 . S
C242 C241 1.378 . S
C242 C243 1.396 . S
C243 H228 0.940 . S
C243 C238 1.391 . S
C243 C242 1.396 . S
C244 P224 1.803 . S
C244 C245 1.378 . S
C244 C249 1.400 . S
C245 H229 0.939 . S
C245 C244 1.378 . S
C245 C246 1.361 . S
C246 H230 0.942 . S
C246 C245 1.361 . S
C246 C247 1.369 . S
C247 C246 1.369 . S
C247 C248 1.404 . S
C248 H231 0.940 . S
C248 C247 1.404 . S
C248 C249 1.389 . S
C249 H232 0.939 . S
C249 C244 1.400 . S
C249 C248 1.389 . S
C250 P224 1.819 . S
C250 C251 1.391 . S
C250 C255 1.391 . S
C251 H233 0.941 . S
C251 C250 1.391 . S
C251 C252 1.396 . S
C252 H236 0.939 . S
C252 C251 1.396 . S
C252 C253 1.397 . S
C253 C252 1.397 . S
C253 C254 1.385 . S
C254 H237 0.940 . S
C254 C253 1.385 . S
C254 C255 1.388 . S
C255 H234 0.939 . S
C255 C250 1.391 . S
C255 C254 1.388 . S
Tb256 C258 2.802 1_545 S
Tb256 O276 2.474 1_545 S
Tb256 O277 2.439 1_545 S
Tb256 O278 2.662 1_655 S
Tb256 O279 2.414 1_655 S
Tb256 O280 2.371 1_645 S
Tb256 O284 2.317 1_545 S
Tb256 O287 2.349 . S
Tb257 C267 2.809 . S
Tb257 O278 2.325 . S
Tb257 O281 2.341 1_545 S
Tb257 O282 2.484 . S
Tb257 O283 2.440 . S
Tb257 O284 2.658 1_445 S
Tb257 O285 2.409 1_545 S
Tb257 O286 2.378 . S
C258 Tb256 2.802 1_565 S
C258 C259 1.514 . S
C258 O276 1.248 . S
C258 O277 1.266 . S
C259 C258 1.514 . S
C259 C260 1.359 . S
C259 C264 1.348 . S
C260 C259 1.359 . S
C260 C261 1.380 . S
C260 H288 0.929 . S
C261 C260 1.380 . S
C261 C262 1.347 . S
C261 H289 0.931 . S
C262 C261 1.347 . S
C262 C263 1.369 . S
C263 C262 1.369 . S
C263 C264 1.408 . S
C263 H290 0.930 . S
C264 C259 1.348 . S
C264 C263 1.408 . S
C264 H291 0.930 . S
C265 O278 1.281 . S
C265 O279 1.259 . S
C266 O280 1.236 . S
C266 O281 1.266 . S
C267 Tb257 2.809 . S
C267 C268 1.514 . S
C267 O282 1.248 . S
C267 O283 1.266 . S
C268 C267 1.514 . S
C268 C269 1.359 . S
C268 C273 1.348 . S
C269 C268 1.359 . S
C269 C270 1.380 . S
C269 H292 0.929 . S
C270 C269 1.380 . S
C270 C271 1.347 . S
C270 H293 0.931 . S
C271 C270 1.347 . S
C271 C272 1.369 . S
C272 C271 1.369 . S
C272 C273 1.408 . S
C272 H294 0.930 . S
C273 C268 1.348 . S
C273 C272 1.408 . S
C273 H295 0.930 . S
C274 O284 1.281 . S
C274 O285 1.254 1_655 S
C275 O286 1.236 1_655 S
C275 O287 1.266 . S
O276 Tb256 2.474 1_565 S
O276 C258 1.248 . S
O277 Tb256 2.439 1_565 S
O277 C258 1.266 . S
O278 Tb256 2.662 1_455 S
O278 Tb257 2.325 . S
O278 C265 1.281 . S
O279 Tb256 2.414 1_455 S
O279 C265 1.259 . S
O280 Tb256 2.371 1_465 S
O280 C266 1.236 . S
O281 Tb257 2.341 1_565 S
O281 C266 1.266 . S
O282 Tb257 2.484 . S
O282 C267 1.248 . S
O283 Tb257 2.440 . S
O283 C267 1.266 . S
O284 Tb256 2.317 1_565 S
O284 Tb257 2.658 1_665 S
O284 C274 1.281 . S
O285 Tb257 2.409 1_565 S
O285 C274 1.254 1_455 S
O286 Tb257 2.378 . S
O286 C275 1.236 1_455 S
O287 Tb256 2.349 . S
O287 C275 1.266 . S
H288 C260 0.929 . S
H289 C261 0.931 . S
H290 C263 0.930 . S
H291 C264 0.930 . S
H292 C269 0.929 . S
H293 C270 0.931 . S
H294 C272 0.930 . S
H295 C273 0.930 . S
Tb296 C298 2.809 . S
Tb296 O316 2.484 . S
Tb296 O317 2.440 . S
Tb296 O318 2.658 1_545 S
Tb296 O319 2.409 1_545 S
Tb296 O320 2.378 . S
Tb296 O324 2.325 1_554 S
Tb296 O327 2.341 1_544 S
Tb297 C307 2.809 1_545 S
Tb297 O318 2.325 1_546 S
Tb297 O321 2.341 1_556 S
Tb297 O322 2.484 1_545 S
Tb297 O323 2.440 1_545 S
Tb297 O324 2.658 . S
Tb297 O325 2.409 . S
Tb297 O326 2.378 1_545 S
C298 Tb296 2.809 . S
C298 C299 1.514 . S
C298 O316 1.248 . S
C298 O317 1.266 . S
C299 C298 1.514 . S
C299 C300 1.359 . S
C299 C304 1.348 . S
C300 C299 1.359 . S
C300 C301 1.380 . S
C300 H328 0.929 . S
C301 C300 1.380 . S
C301 C302 1.347 . S
C301 H329 0.931 . S
C302 C301 1.347 . S
C302 C303 1.369 . S
C303 C302 1.369 . S
C303 C304 1.408 . S
C303 H330 0.930 . S
C304 C299 1.348 . S
C304 C303 1.408 . S
C304 H331 0.930 . S
C305 O318 1.281 . S
C305 O319 1.254 . S
C306 O320 1.236 . S
C306 O321 1.266 . S
C307 Tb297 2.809 1_565 S
C307 C308 1.514 . S
C307 O322 1.248 . S
C307 O323 1.266 . S
C308 C307 1.514 . S
C308 C309 1.359 . S
C308 C313 1.348 . S
C309 C308 1.359 . S
C309 C310 1.380 . S
C309 H332 0.929 . S
C310 C309 1.380 . S
C310 C311 1.347 . S
C310 H333 0.931 . S
C311 C310 1.347 . S
C311 C312 1.369 . S
C312 C311 1.369 . S
C312 C313 1.408 . S
C312 H334 0.930 . S
C313 C308 1.348 . S
C313 C312 1.408 . S
C313 H335 0.930 . S
C314 O324 1.281 . S
C314 O325 1.254 . S
C315 O326 1.236 . S
C315 O327 1.266 . S
O316 Tb296 2.484 . S
O316 C298 1.248 . S
O317 Tb296 2.440 . S
O317 C298 1.266 . S
O318 Tb296 2.658 1_565 S
O318 Tb297 2.325 1_564 S
O318 C305 1.281 . S
O319 Tb296 2.409 1_565 S
O319 C305 1.254 . S
O320 Tb296 2.378 . S
O320 C306 1.236 . S
O321 Tb297 2.341 1_554 S
O321 C306 1.266 . S
O322 Tb297 2.484 1_565 S
O322 C307 1.248 . S
O323 Tb297 2.440 1_565 S
O323 C307 1.266 . S
O324 Tb296 2.325 1_556 S
O324 Tb297 2.658 . S
O324 C314 1.281 . S
O325 Tb297 2.409 . S
O325 C314 1.254 . S
O326 Tb297 2.378 1_565 S
O326 C315 1.236 . S
O327 Tb296 2.341 1_566 S
O327 C315 1.266 . S
H328 C300 0.929 . S
H329 C301 0.931 . S
H330 C303 0.930 . S
H331 C304 0.930 . S
H332 C309 0.929 . S
H333 C310 0.931 . S
H334 C312 0.930 . S
H335 C313 0.930 . S
Tb336 C338 2.809 . S
Tb336 O356 2.484 . S
Tb336 O357 2.440 . S
Tb336 O358 2.658 . S
Tb336 O359 2.409 . S
Tb336 O360 2.378 . S
Tb336 O364 2.325 . S
Tb336 O367 2.341 . S
Tb337 C347 2.809 . S
Tb337 O358 2.325 . S
Tb337 O361 2.341 . S
Tb337 O362 2.484 . S
Tb337 O363 2.440 . S
Tb337 O364 2.658 . S
Tb337 O365 2.409 . S
Tb337 O366 2.378 . S
C338 Tb336 2.809 . S
C338 C339 1.514 . S
C338 O356 1.248 . S
C338 O357 1.266 . S
C339 C338 1.514 . S
C339 C340 1.359 . S
C339 C344 1.348 . S
C340 C339 1.359 . S
C340 C341 1.380 . S
C340 H368 0.929 . S
C341 C340 1.380 . S
C341 C342 1.347 . S
C341 H369 0.931 . S
C342 C341 1.347 . S
C342 C343 1.369 . S
C343 C342 1.369 . S
C343 C344 1.408 . S
C343 H370 0.930 . S
C344 C339 1.348 . S
C344 C343 1.408 . S
C344 H371 0.930 . S
C345 O358 1.281 . S
C345 O359 1.254 . S
C346 O360 1.236 . S
C346 O361 1.266 . S
C347 Tb337 2.809 . S
C347 C348 1.514 . S
C347 O362 1.248 . S
C347 O363 1.266 . S
C348 C347 1.514 . S
C348 C349 1.359 . S
C348 C353 1.348 . S
C349 C348 1.359 . S
C349 C350 1.380 . S
C349 H372 0.929 . S
C350 C349 1.380 . S
C350 C351 1.347 . S
C350 H373 0.931 . S
C351 C350 1.347 . S
C351 C352 1.369 . S
C352 C351 1.369 . S
C352 C353 1.408 . S
C352 H374 0.930 . S
C353 C348 1.348 . S
C353 C352 1.408 . S
C353 H375 0.930 . S
C354 O364 1.281 . S
C354 O365 1.254 . S
C355 O366 1.236 . S
C355 O367 1.266 . S
O356 Tb336 2.484 . S
O356 C338 1.248 . S
O357 Tb336 2.440 . S
O357 C338 1.266 . S
O358 Tb336 2.658 . S
O358 Tb337 2.325 . S
O358 C345 1.281 . S
O359 Tb336 2.409 . S
O359 C345 1.254 . S
O360 Tb336 2.378 . S
O360 C346 1.236 . S
O361 Tb337 2.341 . S
O361 C346 1.266 . S
O362 Tb337 2.484 . S
O362 C347 1.248 . S
O363 Tb337 2.440 . S
O363 C347 1.266 . S
O364 Tb336 2.325 . S
O364 Tb337 2.658 . S
O364 C354 1.281 . S
O365 Tb337 2.409 . S
O365 C354 1.254 . S
O366 Tb337 2.378 . S
O366 C355 1.236 . S
O367 Tb336 2.341 . S
O367 C355 1.266 . S
H368 C340 0.929 . S
H369 C341 0.931 . S
H370 C343 0.930 . S
H371 C344 0.930 . S
H372 C349 0.929 . S
H373 C350 0.931 . S
H374 C352 0.930 . S
H375 C353 0.930 . S
Tb376 C378 2.809 1_455 S
Tb376 O396 2.484 1_455 S
Tb376 O397 2.440 1_455 S
Tb376 O398 2.658 1_556 S
Tb376 O399 2.409 1_556 S
Tb376 O400 2.378 1_456 S
Tb376 O404 2.325 1_455 S
Tb376 O407 2.341 . S
Tb377 C387 2.809 . S
Tb377 O398 2.325 . S
Tb377 O401 2.341 1_455 S
Tb377 O402 2.484 . S
Tb377 O403 2.440 . S
Tb377 O404 2.658 1_454 S
Tb377 O405 2.409 1_455 S
Tb377 O406 2.378 1_554 S
C378 Tb376 2.809 1_655 S
C378 C379 1.514 . S
C378 O396 1.248 . S
C378 O397 1.266 . S
C379 C378 1.514 . S
C379 C380 1.359 . S
C379 C384 1.348 . S
C380 C379 1.359 . S
C380 C381 1.380 . S
C380 H408 0.929 . S
C381 C380 1.380 . S
C381 C382 1.347 . S
C381 H409 0.931 . S
C382 C381 1.347 . S
C382 C383 1.369 . S
C383 C382 1.369 . S
C383 C384 1.408 . S
C383 H410 0.930 . S
C384 C379 1.348 . S
C384 C383 1.408 . S
C384 H411 0.930 . S
C385 O398 1.281 . S
C385 O399 1.254 . S
C386 O400 1.236 . S
C386 O401 1.266 . S
C387 Tb377 2.809 . S
C387 C388 1.514 . S
C387 O402 1.248 . S
C387 O403 1.266 . S
C388 C387 1.514 . S
C388 C389 1.359 . S
C388 C393 1.348 . S
C389 C388 1.359 . S
C389 C390 1.380 . S
C389 H412 0.929 . S
C390 C389 1.380 . S
C390 C391 1.347 . S
C390 H413 0.931 . S
C391 C390 1.347 . S
C391 C392 1.369 . S
C392 C391 1.369 . S
C392 C393 1.408 . S
C392 H414 0.930 . S
C393 C388 1.348 . S
C393 C392 1.408 . S
C393 H415 0.930 . S
C394 O404 1.281 . S
C394 O405 1.254 1_556 S
C395 O406 1.236 . S
C395 O407 1.266 . S
O396 Tb376 2.484 1_655 S
O396 C378 1.248 . S
O397 Tb376 2.440 1_655 S
O397 C378 1.266 . S
O398 Tb376 2.658 1_554 S
O398 Tb377 2.325 . S
O398 C385 1.281 . S
O399 Tb376 2.409 1_554 S
O399 C385 1.254 . S
O400 Tb376 2.378 1_654 S
O400 C386 1.236 . S
O401 Tb377 2.341 1_655 S
O401 C386 1.266 . S
O402 Tb377 2.484 . S
O402 C387 1.248 . S
O403 Tb377 2.440 . S
O403 C387 1.266 . S
O404 Tb376 2.325 1_655 S
O404 Tb377 2.658 1_656 S
O404 C394 1.281 . S
O405 Tb377 2.409 1_655 S
O405 C394 1.254 1_554 S
O406 Tb377 2.378 1_556 S
O406 C395 1.236 . S
O407 Tb376 2.341 . S
O407 C395 1.266 . S
H408 C380 0.929 . S
H409 C381 0.931 . S
H410 C383 0.930 . S
H411 C384 0.930 . S
H412 C389 0.929 . S
H413 C390 0.931 . S
H414 C392 0.930 . S
H415 C393 0.930 . S
H416 C422 0.930 . S
H417 C425 0.930 . S
H418 C426 0.930 . S
H419 C427 0.930 . S
H420 C430 0.930 . S
H421 C431 0.930 . S
C422 H416 0.930 . S
C422 C423 1.355 . S
C422 C424 1.415 . S
C423 C422 1.355 . S
C423 C425 1.419 . S
C424 C422 1.415 . S
C424 C429 1.425 . S
C424 C431 1.409 . S
C425 H417 0.930 . S
C425 C423 1.419 . S
C425 C426 1.362 . S
C426 H418 0.930 . S
C426 C425 1.362 . S
C426 C429 1.409 . S
C427 H419 0.930 . S
C427 C428 1.355 . S
C427 C429 1.415 . S
C428 C427 1.355 . S
C428 C430 1.419 . S
C429 C424 1.425 . S
C429 C426 1.409 . S
C429 C427 1.415 . S
C430 H420 0.930 . S
C430 C428 1.419 . S
C430 C431 1.362 . S
C431 H421 0.930 . S
C431 C424 1.409 . S
C431 C430 1.362 . S
H432 C438 0.930 . S
H433 C441 0.930 . S
H434 C442 0.930 . S
H435 C443 0.930 . S
H436 C446 0.930 . S
H437 C447 0.930 . S
C438 H432 0.930 . S
C438 C439 1.355 . S
C438 C440 1.415 . S
C439 C438 1.355 . S
C439 C441 1.419 . S
C440 C438 1.415 . S
C440 C445 1.425 . S
C440 C447 1.409 . S
C441 H433 0.930 . S
C441 C439 1.419 . S
C441 C442 1.362 . S
C442 H434 0.930 . S
C442 C441 1.362 . S
C442 C445 1.409 . S
C443 H435 0.930 . S
C443 C444 1.355 . S
C443 C445 1.415 . S
C444 C443 1.355 . S
C444 C446 1.419 . S
C445 C440 1.425 . S
C445 C442 1.409 . S
C445 C443 1.415 . S
C446 H436 0.930 . S
C446 C444 1.419 . S
C446 C447 1.362 . S
C447 H437 0.930 . S
C447 C440 1.409 . S
C447 C446 1.362 . S
H448 C454 0.930 . S
H449 C457 0.930 . S
H450 C458 0.930 . S
H451 C459 0.930 . S
H452 C462 0.930 . S
H453 C463 0.930 . S
C454 H448 0.930 . S
C454 C455 1.355 . S
C454 C456 1.415 . S
C455 C454 1.355 . S
C455 C457 1.419 . S
C456 C454 1.415 . S
C456 C461 1.425 . S
C456 C463 1.409 . S
C457 H449 0.930 . S
C457 C455 1.419 . S
C457 C458 1.362 . S
C458 H450 0.930 . S
C458 C457 1.362 . S
C458 C461 1.409 . S
C459 H451 0.930 . S
C459 C460 1.355 . S
C459 C461 1.415 . S
C460 C459 1.355 . S
C460 C462 1.419 . S
C461 C456 1.425 . S
C461 C458 1.409 . S
C461 C459 1.415 . S
C462 H452 0.930 . S
C462 C460 1.419 . S
C462 C463 1.362 . S
C463 H453 0.930 . S
C463 C456 1.409 . S
C463 C462 1.362 . S
H464 C470 0.930 . S
H465 C473 0.930 . S
H466 C474 0.930 . S
H467 C475 0.930 . S
H468 C478 0.930 . S
H469 C479 0.930 . S
C470 H464 0.930 . S
C470 C471 1.355 . S
C470 C472 1.415 . S
C471 C470 1.355 . S
C471 C473 1.419 . S
C472 C470 1.415 . S
C472 C477 1.425 . S
C472 C479 1.409 . S
C473 H465 0.930 . S
C473 C471 1.419 . S
C473 C474 1.362 . S
C474 H466 0.930 . S
C474 C473 1.362 . S
C474 C477 1.409 . S
C475 H467 0.930 . S
C475 C476 1.355 . S
C475 C477 1.415 . S
C476 C475 1.355 . S
C476 C478 1.419 . S
C477 C472 1.425 . S
C477 C474 1.409 . S
C477 C475 1.415 . S
C478 H468 0.930 . S
C478 C476 1.419 . S
C478 C479 1.362 . S
C479 H469 0.930 . S
C479 C472 1.409 . S
C479 C478 1.362 . S
H480 C486 0.930 . S
H481 C489 0.930 . S
H482 C490 0.930 . S
H483 C491 0.930 . S
H484 C494 0.930 . S
H485 C495 0.930 . S
C486 H480 0.930 . S
C486 C487 1.355 . S
C486 C488 1.415 . S
C487 C486 1.355 . S
C487 C489 1.419 . S
C488 C486 1.415 . S
C488 C493 1.425 . S
C488 C495 1.409 . S
C489 H481 0.930 . S
C489 C487 1.419 . S
C489 C490 1.362 . S
C490 H482 0.930 . S
C490 C489 1.362 . S
C490 C493 1.409 . S
C491 H483 0.930 . S
C491 C492 1.355 . S
C491 C493 1.415 . S
C492 C491 1.355 . S
C492 C494 1.419 . S
C493 C488 1.425 . S
C493 C490 1.409 . S
C493 C491 1.415 . S
C494 H484 0.930 . S
C494 C492 1.419 . S
C494 C495 1.362 . S
C495 H485 0.930 . S
C495 C488 1.409 . S
C495 C494 1.362 . S
H496 C502 0.930 . S
H497 C505 0.930 . S
H498 C506 0.930 . S
H499 C507 0.930 . S
H500 C510 0.919 1_655 S
H501 C511 0.930 . S
C502 H496 0.930 . S
C502 C503 1.355 . S
C502 C504 1.415 . S
C503 C502 1.355 . S
C503 C505 1.419 . S
C504 C502 1.415 . S
C504 C509 1.425 . S
C504 C511 1.409 1_455 S
C505 H497 0.930 . S
C505 C503 1.419 . S
C505 C506 1.362 . S
C506 H498 0.930 . S
C506 C505 1.362 . S
C506 C509 1.409 . S
C507 H499 0.930 . S
C507 C508 1.355 . S
C507 C509 1.415 . S
C508 C507 1.355 . S
C508 C510 1.429 . S
C509 C504 1.425 . S
C509 C506 1.409 . S
C509 C507 1.415 . S
C510 H500 0.919 1_455 S
C510 C508 1.429 . S
C510 C511 1.364 1_455 S
C511 H501 0.930 . S
C511 C504 1.409 1_655 S
C511 C510 1.364 1_655 S
H512 C518 0.930 . S
H513 C521 0.930 . S
H514 C522 0.930 . S
H515 C523 0.930 . S
H516 C526 0.930 . S
H517 C527 0.930 . S
C518 H512 0.930 . S
C518 C519 1.355 . S
C518 C520 1.415 . S
C519 C518 1.355 . S
C519 C521 1.419 . S
C520 C518 1.415 . S
C520 C525 1.425 . S
C520 C527 1.409 . S
C521 H513 0.930 . S
C521 C519 1.419 . S
C521 C522 1.362 . S
C522 H514 0.930 . S
C522 C521 1.362 . S
C522 C525 1.409 . S
C523 H515 0.930 . S
C523 C524 1.355 . S
C523 C525 1.415 . S
C524 C523 1.355 . S
C524 C526 1.419 . S
C525 C520 1.425 . S
C525 C522 1.409 . S
C525 C523 1.415 . S
C526 H516 0.930 . S
C526 C524 1.419 . S
C526 C527 1.362 . S
C527 H517 0.930 . S
C527 C520 1.409 . S
C527 C526 1.362 . S
H528 C534 0.930 . S
H529 C537 0.930 . S
H530 C538 0.930 . S
H531 C539 0.930 . S
H532 C542 0.930 . S
H533 C543 0.930 . S
C534 H528 0.930 . S
C534 C535 1.355 . S
C534 C536 1.415 . S
C535 C534 1.355 . S
C535 C537 1.419 . S
C536 C534 1.415 . S
C536 C541 1.425 . S
C536 C543 1.409 . S
C537 H529 0.930 . S
C537 C535 1.419 . S
C537 C538 1.362 . S
C538 H530 0.930 . S
C538 C537 1.362 . S
C538 C541 1.409 . S
C539 H531 0.930 . S
C539 C540 1.355 . S
C539 C541 1.415 . S
C540 C539 1.355 . S
C540 C542 1.419 . S
C541 C536 1.425 . S
C541 C538 1.409 . S
C541 C539 1.415 . S
C542 H532 0.930 . S
C542 C540 1.419 . S
C542 C543 1.362 . S
C543 H533 0.930 . S
C543 C536 1.409 . S
C543 C542 1.362 . S
H544 C550 0.930 . S
H545 C553 0.930 . S
H546 C554 0.930 . S
H547 C555 0.930 . S
H548 C558 0.930 . S
H549 C559 0.930 . S
C550 H544 0.930 . S
C550 C551 1.355 . S
C550 C552 1.415 . S
C551 C550 1.355 . S
C551 C553 1.419 . S
C552 C550 1.415 . S
C552 C557 1.425 . S
C552 C559 1.409 . S
C553 H545 0.930 . S
C553 C551 1.419 . S
C553 C554 1.362 . S
C554 H546 0.930 . S
C554 C553 1.362 . S
C554 C557 1.409 . S
C555 H547 0.930 . S
C555 C556 1.355 . S
C555 C557 1.415 . S
C556 C555 1.355 . S
C556 C558 1.419 . S
C557 C552 1.425 . S
C557 C554 1.409 . S
C557 C555 1.415 . S
C558 H548 0.930 . S
C558 C556 1.419 . S
C558 C559 1.362 . S
C559 H549 0.930 . S
C559 C552 1.409 . S
C559 C558 1.362 . S
H560 C566 0.930 . S
H561 C569 0.930 . S
H562 C570 0.930 . S
H563 C571 0.930 . S
H564 C574 0.930 . S
H565 C575 0.930 . S
C566 H560 0.930 . S
C566 C567 1.355 . S
C566 C568 1.415 . S
C567 C566 1.355 . S
C567 C569 1.419 . S
C568 C566 1.415 . S
C568 C573 1.425 . S
C568 C575 1.409 . S
C569 H561 0.930 . S
C569 C567 1.419 . S
C569 C570 1.362 . S
C570 H562 0.930 . S
C570 C569 1.362 . S
C570 C573 1.409 . S
C571 H563 0.930 . S
C571 C572 1.355 . S
C571 C573 1.415 . S
C572 C571 1.355 . S
C572 C574 1.419 . S
C573 C568 1.425 . S
C573 C570 1.409 . S
C573 C571 1.415 . S
C574 H564 0.930 . S
C574 C572 1.419 . S
C574 C575 1.362 . S
C575 H565 0.930 . S
C575 C568 1.409 . S
C575 C574 1.362 . S
H576 C582 0.930 . S
H577 C585 0.930 . S
H578 C586 0.930 . S
H579 C587 0.930 . S
H580 C590 0.930 . S
H581 C591 0.930 . S
C582 H576 0.930 . S
C582 C583 1.355 . S
C582 C584 1.415 . S
C583 C582 1.355 . S
C583 C585 1.419 . S
C584 C582 1.415 . S
C584 C589 1.425 . S
C584 C591 1.409 . S
C585 H577 0.930 . S
C585 C583 1.419 . S
C585 C586 1.362 . S
C586 H578 0.930 . S
C586 C585 1.362 . S
C586 C589 1.409 . S
C587 H579 0.930 . S
C587 C588 1.355 . S
C587 C589 1.415 . S
C588 C587 1.355 . S
C588 C590 1.419 . S
C589 C584 1.425 . S
C589 C586 1.409 . S
C589 C587 1.415 . S
C590 H580 0.930 . S
C590 C588 1.419 . S
C590 C591 1.362 . S
C591 H581 0.930 . S
C591 C584 1.409 . S
C591 C590 1.362 . S
H592 C598 0.930 . S
H593 C601 0.930 . S
H594 C602 0.930 . S
H595 C603 0.930 . S
H596 C606 0.930 . S
H597 C607 0.930 . S
C598 H592 0.930 . S
C598 C599 1.355 . S
C598 C600 1.415 . S
C599 C598 1.355 . S
C599 C601 1.419 . S
C600 C598 1.415 . S
C600 C605 1.425 . S
C600 C607 1.409 . S
C601 H593 0.930 . S
C601 C599 1.419 . S
C601 C602 1.362 . S
C602 H594 0.930 . S
C602 C601 1.362 . S
C602 C605 1.409 . S
C603 H595 0.930 . S
C603 C604 1.355 . S
C603 C605 1.415 . S
C604 C603 1.355 . S
C604 C606 1.419 . S
C605 C600 1.425 . S
C605 C602 1.409 . S
C605 C603 1.415 . S
C606 H596 0.930 . S
C606 C604 1.419 . S
C606 C607 1.362 . S
C607 H597 0.930 . S
C607 C600 1.409 . S
C607 C606 1.362 . S
H608 C614 0.930 . S
H609 C617 0.930 . S
H610 C618 0.930 . S
H611 C619 0.930 . S
H612 C622 0.930 . S
H613 C623 0.930 . S
C614 H608 0.930 . S
C614 C615 1.355 . S
C614 C616 1.415 . S
C615 C614 1.355 . S
C615 C617 1.419 . S
C616 C614 1.415 . S
C616 C621 1.425 . S
C616 C623 1.409 . S
C617 H609 0.930 . S
C617 C615 1.419 . S
C617 C618 1.362 . S
C618 H610 0.930 . S
C618 C617 1.362 . S
C618 C621 1.409 . S
C619 H611 0.930 . S
C619 C620 1.355 . S
C619 C621 1.415 . S
C620 C619 1.355 . S
C620 C622 1.419 . S
C621 C616 1.425 . S
C621 C618 1.409 . S
C621 C619 1.415 . S
C622 H612 0.930 . S
C622 C620 1.419 . S
C622 C623 1.362 . S
C623 H613 0.930 . S
C623 C616 1.409 . S
C623 C622 1.362 . S
H624 C630 0.930 . S
H625 C633 0.930 . S
H626 C634 0.930 . S
H627 C635 0.930 . S
H628 C638 0.930 . S
H629 C639 0.930 . S
C630 H624 0.930 . S
C630 C631 1.355 . S
C630 C632 1.415 . S
C631 C630 1.355 . S
C631 C633 1.419 . S
C632 C630 1.415 . S
C632 C637 1.425 . S
C632 C639 1.409 . S
C633 H625 0.930 . S
C633 C631 1.419 . S
C633 C634 1.362 . S
C634 H626 0.930 . S
C634 C633 1.362 . S
C634 C637 1.409 . S
C635 H627 0.930 . S
C635 C636 1.355 . S
C635 C637 1.415 . S
C636 C635 1.355 . S
C636 C638 1.419 . S
C637 C632 1.425 . S
C637 C634 1.409 . S
C637 C635 1.415 . S
C638 H628 0.930 . S
C638 C636 1.419 . S
C638 C639 1.362 . S
C639 H629 0.930 . S
C639 C632 1.409 . S
C639 C638 1.362 . S
H640 C646 0.930 . S
H641 C649 0.930 . S
H642 C650 0.930 . S
H643 C651 0.930 . S
H644 C654 0.930 . S
H645 C655 0.930 . S
C646 H640 0.930 . S
C646 C647 1.355 . S
C646 C648 1.415 . S
C647 C646 1.355 . S
C647 C649 1.419 . S
C648 C646 1.415 . S
C648 C653 1.425 . S
C648 C655 1.409 . S
C649 H641 0.930 . S
C649 C647 1.419 . S
C649 C650 1.362 . S
C650 H642 0.930 . S
C650 C649 1.362 . S
C650 C653 1.409 . S
C651 H643 0.930 . S
C651 C652 1.355 . S
C651 C653 1.415 . S
C652 C651 1.355 . S
C652 C654 1.419 . S
C653 C648 1.425 . S
C653 C650 1.409 . S
C653 C651 1.415 . S
C654 H644 0.930 . S
C654 C652 1.419 . S
C654 C655 1.362 . S
C655 H645 0.930 . S
C655 C648 1.409 . S
C655 C654 1.362 . S
H656 C662 0.930 . S
H657 C665 0.930 . S
H658 C666 0.930 . S
H659 C667 0.930 . S
H660 C670 0.930 . S
H661 C671 0.930 . S
C662 H656 0.930 . S
C662 C663 1.355 . S
C662 C664 1.415 . S
C663 C662 1.355 . S
C663 C665 1.419 . S
C664 C662 1.415 . S
C664 C669 1.425 . S
C664 C671 1.409 . S
C665 H657 0.930 . S
C665 C663 1.419 . S
C665 C666 1.362 . S
C666 H658 0.930 . S
C666 C665 1.362 . S
C666 C669 1.409 . S
C667 H659 0.930 . S
C667 C668 1.355 . S
C667 C669 1.415 . S
C668 C667 1.355 . S
C668 C670 1.419 . S
C669 C664 1.425 . S
C669 C666 1.409 . S
C669 C667 1.415 . S
C670 H660 0.930 . S
C670 C668 1.419 . S
C670 C671 1.362 . S
C671 H661 0.930 . S
C671 C664 1.409 . S
C671 C670 1.362 . S
H672 C678 0.930 . S
H673 C681 0.930 . S
H674 C682 0.930 . S
H675 C683 0.930 . S
H676 C686 0.930 . S
H677 C687 0.930 . S
C678 H672 0.930 . S
C678 C679 1.355 . S
C678 C680 1.415 . S
C679 C678 1.355 . S
C679 C681 1.419 . S
C680 C678 1.415 . S
C680 C685 1.425 . S
C680 C687 1.409 . S
C681 H673 0.930 . S
C681 C679 1.419 . S
C681 C682 1.362 . S
C682 H674 0.930 . S
C682 C681 1.362 . S
C682 C685 1.409 . S
C683 H675 0.930 . S
C683 C684 1.355 . S
C683 C685 1.415 . S
C684 C683 1.355 . S
C684 C686 1.419 . S
C685 C680 1.425 . S
C685 C682 1.409 . S
C685 C683 1.415 . S
C686 H676 0.930 . S
C686 C684 1.419 . S
C686 C687 1.362 . S
C687 H677 0.930 . S
C687 C680 1.409 . S
C687 C686 1.362 . S
H688 C694 0.930 1_455 S
H689 C697 0.930 . S
H690 C698 0.930 . S
H691 C699 0.930 . S
H692 C702 0.930 . S
H693 C703 0.930 . S
C694 H688 0.930 1_655 S
C694 C695 1.355 . S
C694 C696 1.415 . S
C695 C694 1.355 . S
C695 C697 1.419 . S
C696 C694 1.415 . S
C696 C701 1.425 . S
C696 C703 1.409 1_655 S
C697 H689 0.930 . S
C697 C695 1.419 . S
C697 C698 1.362 . S
C698 H690 0.930 . S
C698 C697 1.362 . S
C698 C701 1.409 . S
C699 H691 0.930 . S
C699 C700 1.355 . S
C699 C701 1.415 . S
C700 C699 1.355 . S
C700 C702 1.419 1_655 S
C701 C696 1.425 . S
C701 C698 1.409 . S
C701 C699 1.415 . S
C702 H692 0.930 . S
C702 C700 1.419 1_455 S
C702 C703 1.362 . S
C703 H693 0.930 . S
C703 C696 1.409 1_455 S
C703 C702 1.362 . S
H704 C710 0.930 . S
H705 C713 0.930 . S
H706 C714 0.930 . S
H707 C715 0.930 . S
H708 C718 0.930 . S
H709 C719 0.930 . S
C710 H704 0.930 . S
C710 C711 1.355 . S
C710 C712 1.415 . S
C711 C710 1.355 . S
C711 C713 1.419 . S
C712 C710 1.415 . S
C712 C717 1.425 . S
C712 C719 1.409 . S
C713 H705 0.930 . S
C713 C711 1.419 . S
C713 C714 1.362 . S
C714 H706 0.930 . S
C714 C713 1.362 . S
C714 C717 1.409 . S
C715 H707 0.930 . S
C715 C716 1.355 . S
C715 C717 1.415 . S
C716 C715 1.355 . S
C716 C718 1.419 . S
C717 C712 1.425 . S
C717 C714 1.409 . S
C717 C715 1.415 . S
C718 H708 0.930 . S
C718 C716 1.419 . S
C718 C719 1.362 . S
C719 H709 0.930 . S
C719 C712 1.409 . S
C719 C718 1.362 . S
H720 C726 0.930 . S
H721 C729 0.930 . S
H722 C730 0.930 . S
H723 C731 0.930 . S
H724 C734 0.930 . S
H725 C735 0.930 . S
C726 H720 0.930 . S
C726 C727 1.355 . S
C726 C728 1.415 . S
C727 C726 1.355 . S
C727 C729 1.419 . S
C728 C726 1.415 . S
C728 C733 1.425 . S
C728 C735 1.409 . S
C729 H721 0.930 . S
C729 C727 1.419 . S
C729 C730 1.362 . S
C730 H722 0.930 . S
C730 C729 1.362 . S
C730 C733 1.409 . S
C731 H723 0.930 . S
C731 C732 1.355 . S
C731 C733 1.415 . S
C732 C731 1.355 . S
C732 C734 1.419 . S
C733 C728 1.425 . S
C733 C730 1.409 . S
C733 C731 1.415 . S
C734 H724 0.930 . S
C734 C732 1.419 . S
C734 C735 1.362 . S
C735 H725 0.930 . S
C735 C728 1.409 . S
C735 C734 1.362 . S
H736 C742 0.930 . S
H737 C745 0.930 . S
H738 C746 0.930 . S
H739 C747 0.930 . S
H740 C750 0.930 . S
H741 C751 0.930 . S
C742 H736 0.930 . S
C742 C743 1.355 . S
C742 C744 1.415 . S
C743 C742 1.355 . S
C743 C745 1.419 . S
C744 C742 1.415 . S
C744 C749 1.425 . S
C744 C751 1.409 . S
C745 H737 0.930 . S
C745 C743 1.419 . S
C745 C746 1.362 . S
C746 H738 0.930 . S
C746 C745 1.362 . S
C746 C749 1.409 . S
C747 H739 0.930 . S
C747 C748 1.355 . S
C747 C749 1.415 . S
C748 C747 1.355 . S
C748 C750 1.419 . S
C749 C744 1.425 . S
C749 C746 1.409 . S
C749 C747 1.415 . S
C750 H740 0.930 . S
C750 C748 1.419 . S
C750 C751 1.362 . S
C751 H741 0.930 . S
C751 C744 1.409 . S
C751 C750 1.362 . S
H752 C758 0.930 . S
H753 C761 0.930 . S
H754 C762 0.930 . S
H755 C763 0.930 . S
H756 C766 0.930 . S
H757 C767 0.930 . S
C758 H752 0.930 . S
C758 C759 1.355 . S
C758 C760 1.415 . S
C759 C758 1.355 . S
C759 C761 1.419 . S
C760 C758 1.415 . S
C760 C765 1.425 . S
C760 C767 1.409 . S
C761 H753 0.930 . S
C761 C759 1.419 . S
C761 C762 1.362 . S
C762 H754 0.930 . S
C762 C761 1.362 . S
C762 C765 1.409 . S
C763 H755 0.930 . S
C763 C764 1.355 . S
C763 C765 1.415 . S
C764 C763 1.355 . S
C764 C766 1.419 . S
C765 C760 1.425 . S
C765 C762 1.409 . S
C765 C763 1.415 . S
C766 H756 0.930 . S
C766 C764 1.419 . S
C766 C767 1.362 . S
C767 H757 0.930 . S
C767 C760 1.409 . S
C767 C766 1.362 . S
H768 C774 0.930 . S
H769 C777 0.930 . S
H770 C778 0.930 . S
H771 C779 0.930 . S
H772 C782 0.930 . S
H773 C783 0.930 . S
C774 H768 0.930 . S
C774 C775 1.355 . S
C774 C776 1.415 . S
C775 C774 1.355 . S
C775 C777 1.419 . S
C776 C774 1.415 . S
C776 C781 1.425 . S
C776 C783 1.409 . S
C777 H769 0.930 . S
C777 C775 1.419 . S
C777 C778 1.362 . S
C778 H770 0.930 . S
C778 C777 1.362 . S
C778 C781 1.409 . S
C779 H771 0.930 . S
C779 C780 1.355 . S
C779 C781 1.415 . S
C780 C779 1.355 . S
C780 C782 1.419 . S
C781 C776 1.425 . S
C781 C778 1.409 . S
C781 C779 1.415 . S
C782 H772 0.930 . S
C782 C780 1.419 . S
C782 C783 1.362 . S
C783 H773 0.930 . S
C783 C776 1.409 . S
C783 C782 1.362 . S
H784 C790 0.930 . S
H785 C793 0.930 . S
H786 C794 0.930 . S
H787 C795 0.930 . S
H788 C798 0.930 . S
H789 C799 0.930 . S
C790 H784 0.930 . S
C790 C791 1.355 . S
C790 C792 1.415 . S
C791 C790 1.355 . S
C791 C793 1.419 . S
C792 C790 1.415 . S
C792 C797 1.425 . S
C792 C799 1.409 . S
C793 H785 0.930 . S
C793 C791 1.419 . S
C793 C794 1.362 . S
C794 H786 0.930 . S
C794 C793 1.362 . S
C794 C797 1.409 . S
C795 H787 0.930 . S
C795 C796 1.355 . S
C795 C797 1.415 . S
C796 C795 1.355 . S
C796 C798 1.419 . S
C797 C792 1.425 . S
C797 C794 1.409 . S
C797 C795 1.415 . S
C798 H788 0.930 . S
C798 C796 1.419 . S
C798 C799 1.362 . S
C799 H789 0.930 . S
C799 C792 1.409 . S
C799 C798 1.362 . S
C423 C29 1.300 . S
C428 C271 1.290 . S
C439 C49 1.151 . S
C444 C311 1.266 . S
C460 C345 2.337 . S
C455 C93 2.343 . S
C471 C119 2.592 . S
C476 C386 2.553 . S
C492 C306 1.378 . S
C487 C17 1.352 . S
C508 C266 2.103 . S
C503 C61 1.758 . S
C524 C394 1.636 . S
C519 C81 1.656 . S
C540 C355 1.831 . S
C535 C125 1.950 . S
C551 C23 1.511 . S
C556 C391 1.480 . S
C572 C314 1.982 . S
C567 C87 2.019 . S
C583 C113 2.466 . S
C588 C274 2.387 . S
C599 C55 1.402 . S
C604 C342 1.609 . S
C620 C262 1.340 . S
C615 C157 1.245 . S
C631 C189 1.306 . S
C636 C302 1.269 . S
C647 C221 2.275 . S
C652 C354 2.308 . S
C663 C253 2.624 . S
C668 C395 2.591 . S
C679 C145 1.374 . S
C684 C315 1.475 . S
C700 C275 2.078 . S
C695 C183 2.027 . S
C716 C385 1.664 . S
C711 C209 1.582 . S
C732 C346 1.808 . S
C727 C247 1.923 . S
C743 C151 1.220 . S
C748 C382 1.391 . S
C764 C305 2.004 . S
C759 C215 1.967 . S
C780 C265 2.382 . S
C775 C241 2.432 . S
C791 C177 1.604 . S
C796 C351 1.607 . S
