# Generated by pormake.
# Topology zzz, (3,6)-cn, num edge types: 1
# Building blocks:
#     Node 0, Type 0, BuildingBlock: MIDCAF_clean_linker_0, # of connection points: 3
#     Node 1, Type 0, BuildingBlock: MIDCAF_clean_linker_0, # of connection points: 3
#     Node 2, Type 0, BuildingBlock: MIDCAF_clean_linker_0, # of connection points: 3
#     Node 3, Type 0, BuildingBlock: MIDCAF_clean_linker_0, # of connection points: 3
#     Node 4, Type 0, BuildingBlock: MIDCAF_clean_linker_0, # of connection points: 3
#     Node 5, Type 0, BuildingBlock: MIDCAF_clean_linker_0, # of connection points: 3
#     Node 6, Type 0, BuildingBlock: MIDCAF_clean_linker_0, # of connection points: 3
#     Node 7, Type 0, BuildingBlock: MIDCAF_clean_linker_0, # of connection points: 3
#     Node 8, Type 1, BuildingBlock: NUHQIS_clean_sbu_0, # of connection points: 6
#     Node 9, Type 1, BuildingBlock: NUHQIS_clean_sbu_0, # of connection points: 6
#     Node 10, Type 1, BuildingBlock: NUHQIS_clean_sbu_0, # of connection points: 6
#     Node 11, Type 1, BuildingBlock: NUHQIS_clean_sbu_0, # of connection points: 6
#     Edge 12, Type (0, 1), BuildingBlock: UVAHIK_clean_linker_0, # of connection points: 2
#     Edge 13, Type (0, 1), BuildingBlock: UVAHIK_clean_linker_0, # of connection points: 2
#     Edge 14, Type (0, 1), BuildingBlock: UVAHIK_clean_linker_0, # of connection points: 2
#     Edge 15, Type (0, 1), BuildingBlock: UVAHIK_clean_linker_0, # of connection points: 2
#     Edge 16, Type (0, 1), BuildingBlock: UVAHIK_clean_linker_0, # of connection points: 2
#     Edge 17, Type (0, 1), BuildingBlock: UVAHIK_clean_linker_0, # of connection points: 2
#     Edge 18, Type (0, 1), BuildingBlock: UVAHIK_clean_linker_0, # of connection points: 2
#     Edge 19, Type (0, 1), BuildingBlock: UVAHIK_clean_linker_0, # of connection points: 2
#     Edge 20, Type (0, 1), BuildingBlock: UVAHIK_clean_linker_0, # of connection points: 2
#     Edge 21, Type (0, 1), BuildingBlock: UVAHIK_clean_linker_0, # of connection points: 2
#     Edge 22, Type (0, 1), BuildingBlock: UVAHIK_clean_linker_0, # of connection points: 2
#     Edge 23, Type (0, 1), BuildingBlock: UVAHIK_clean_linker_0, # of connection points: 2
#     Edge 24, Type (0, 1), BuildingBlock: UVAHIK_clean_linker_0, # of connection points: 2
#     Edge 25, Type (0, 1), BuildingBlock: UVAHIK_clean_linker_0, # of connection points: 2
#     Edge 26, Type (0, 1), BuildingBlock: UVAHIK_clean_linker_0, # of connection points: 2
#     Edge 27, Type (0, 1), BuildingBlock: UVAHIK_clean_linker_0, # of connection points: 2
#     Edge 28, Type (0, 1), BuildingBlock: UVAHIK_clean_linker_0, # of connection points: 2
#     Edge 29, Type (0, 1), BuildingBlock: UVAHIK_clean_linker_0, # of connection points: 2
#     Edge 30, Type (0, 1), BuildingBlock: UVAHIK_clean_linker_0, # of connection points: 2
#     Edge 31, Type (0, 1), BuildingBlock: UVAHIK_clean_linker_0, # of connection points: 2
#     Edge 32, Type (0, 1), BuildingBlock: UVAHIK_clean_linker_0, # of connection points: 2
#     Edge 33, Type (0, 1), BuildingBlock: UVAHIK_clean_linker_0, # of connection points: 2
#     Edge 34, Type (0, 1), BuildingBlock: UVAHIK_clean_linker_0, # of connection points: 2
#     Edge 35, Type (0, 1), BuildingBlock: UVAHIK_clean_linker_0, # of connection points: 2
# Relax obj value: 0.391
# Max RMSD: 0.259
# Mean RMSD: 0.232
data_MOF--net-zzz--node1-NUHQIS_clean_sbu_0--node2-MIDCAF_clean_linker_0--edge1-UVAHIK_clean_linker_0
_symmetry_space_group_name_H-M    P1
_symmetry_Int_Tables_number       1
_symmetry_cell_setting            triclinic
loop_
_symmetry_equiv_pos_as_xyz
'x, y, z'
_cell_length_a     73.9268
_cell_length_b     73.894624
_cell_length_c     23.511766
_cell_angle_alpha  89.903042
_cell_angle_beta   89.99039
_cell_angle_gamma 89.981393
loop_
_atom_site_label
_atom_site_type_symbol
_atom_site_fract_x
_atom_site_fract_y
_atom_site_fract_z
_atom_type_partial_charge
C0 C 0.79457 0.51349 0.31285 0.0
C1 C 0.79061 0.51172 0.37103 0.0
C2 C 0.77298 0.50648 0.38709 0.0
C3 C 0.7599 0.50238 0.34563 0.0
H4 H 0.70595 0.52237 0.21645 0.0
H5 H 0.67531 0.52947 0.18271 0.0
H6 H 0.66783 0.47354 0.13529 0.0
H7 H 0.69828 0.46659 0.16825 0.0
H8 H 0.7351 0.46192 0.06522 0.0
H9 H 0.75089 0.44963 0.98209 0.0
H10 H 0.8022 0.46191 0.06054 0.0
H11 H 0.78675 0.47406 0.14299 0.0
H12 H 0.7855 0.51001 0.22739 0.0
H13 H 0.808 0.51724 0.2987 0.0
H14 H 0.76947 0.5051 0.4316 0.0
H15 H 0.7467 0.49762 0.35893 0.0
N16 N 0.73418 0.49793 0.24292 0.0
N17 N 0.73229 0.48074 0.1587 0.0
N18 N 0.76036 0.48586 0.20083 0.0
C19 C 0.72404 0.49044 0.20043 0.0
C20 C 0.75045 0.47841 0.15856 0.0
C21 C 0.75248 0.49545 0.24323 0.0
C22 C 0.70445 0.49395 0.19483 0.0
C23 C 0.69748 0.51153 0.20062 0.0
C24 C 0.68004 0.51561 0.18081 0.0
C25 C 0.66921 0.50209 0.15597 0.0
C26 C 0.67573 0.48424 0.15458 0.0
C27 C 0.6932 0.48026 0.17334 0.0
C28 C 0.75964 0.46921 0.11062 0.0
C29 C 0.74976 0.46183 0.06498 0.0
C30 C 0.75874 0.45475 0.01747 0.0
C31 C 0.7777 0.45511 0.01474 0.0
C32 C 0.78753 0.46177 0.06124 0.0
C33 C 0.77864 0.46868 0.10865 0.0
C34 C 0.76436 0.50319 0.28761 0.0
C35 C 0.78167 0.50923 0.27182 0.0
C36 C 0.01953 0.78632 0.382 0.0
C37 C 1.00125 0.78924 0.39535 0.0
C38 C 0.98813 0.77779 0.37091 0.0
C39 C 0.99322 0.76413 0.33247 0.0
H40 H 0.03611 0.69336 0.20256 0.0
H41 H 0.02671 0.66411 0.16532 0.0
H42 H 0.97118 0.68225 0.16295 0.0
H43 H 0.98075 0.71172 0.20137 0.0
H44 H 0.04264 0.73514 0.07965 0.0
H45 H 0.05999 0.75103 0.00665 0.0
H46 H 0.0745 0.79204 0.12906 0.0
H47 H 0.05731 0.77623 0.20195 0.0
H48 H 0.03872 0.77162 0.33224 0.0
H49 H 0.02998 0.79497 0.39938 0.0
H50 H 0.97393 0.77965 0.38058 0.0
H51 H 0.98285 0.75594 0.31261 0.0
N52 N 0.00967 0.73352 0.25999 0.0
N53 N 0.02862 0.72992 0.18015 0.0
N54 N 0.02994 0.75655 0.23314 0.0
C55 C 0.01577 0.72323 0.21571 0.0
C56 C 0.03566 0.74662 0.18828 0.0
C57 C 0.01704 0.75022 0.26916 0.0
C58 C 0.00913 0.7047 0.20514 0.0
C59 C 0.02182 0.6909 0.19566 0.0
C60 C 0.01642 0.67414 0.1744 0.0
C61 C 0.9982 0.67085 0.161 0.0
C62 C 0.98533 0.68442 0.17271 0.0
C63 C 0.99074 0.70119 0.19516 0.0
C64 C 0.04838 0.75456 0.14648 0.0
C65 C 0.04984 0.74734 0.09133 0.0
C66 C 0.05973 0.75645 0.04943 0.0
C67 C 0.06852 0.77281 0.06207 0.0
C68 C 0.06802 0.77937 0.11811 0.0
C69 C 0.05801 0.77038 0.15979 0.0
C70 C 0.01146 0.76198 0.31708 0.0
C71 C 0.02454 0.77297 0.34321 0.0
C72 C 0.70313 0.98039 0.35653 0.0
C73 C 0.70487 0.98586 0.41349 0.0
C74 C 0.72144 0.99336 0.43145 0.0
C75 C 0.73556 0.99623 0.39243 0.0
H76 H 0.79189 0.97252 0.26096 0.0
H77 H 0.82239 0.96592 0.22515 0.0
H78 H 0.83054 0.0228 0.1914 0.0
H79 H 0.80021 0.02925 0.22642 0.0
H80 H 0.76255 0.04316 0.13891 0.0
H81 H 0.74755 0.05924 0.06037 0.0
H82 H 0.69927 0.02764 0.08844 0.0
H83 H 0.71392 0.01189 0.16678 0.0
H84 H 0.71482 0.98022 0.27329 0.0
H85 H 0.69054 0.97477 0.34099 0.0
H86 H 0.72322 0.99762 0.47514 0.0
H87 H 0.74776 0.00299 0.40648 0.0
N88 N 0.76367 0.99709 0.29225 0.0
N89 N 0.76621 0.01463 0.20877 0.0
N90 N 0.73773 0.00884 0.24755 0.0
C91 C 0.77413 0.00482 0.25087 0.0
C92 C 0.74803 0.01661 0.2067 0.0
C93 C 0.74534 0.99932 0.2907 0.0
C94 C 0.79376 1.00138 0.24645 0.0
C95 C 0.80052 0.98363 0.24797 0.0
C96 C 0.81787 0.97985 0.22689 0.0
C97 C 0.82881 0.99383 0.20496 0.0
C98 C 0.82255 0.01175 0.20833 0.0
C99 C 0.80517 0.01545 0.22837 0.0
C100 C 0.73937 0.02633 0.15906 0.0
C101 C 0.74875 0.03966 0.12806 0.0
C102 C 0.74023 0.04885 0.08333 0.0
C103 C 0.72239 0.04449 0.06823 0.0
C104 C 0.71314 0.03105 0.09884 0.0
C105 C 0.72148 0.02216 0.144 0.0
C106 C 0.73318 0.99191 0.33479 0.0
C107 C 0.71705 0.98351 0.31765 0.0
C108 C 0.48306 0.7206 0.0725 0.0
C109 C 0.47088 0.72899 0.03496 0.0
C110 C 0.4666 0.74733 0.04273 0.0
C111 C 0.4744 0.7571 0.08736 0.0
H112 H 0.47407 0.80837 0.18746 0.0
H113 H 0.47656 0.83995 0.15872 0.0
H114 H 0.53266 0.84025 0.20988 0.0
H115 H 0.52999 0.80843 0.23967 0.0
H116 H 0.49586 0.76094 0.37493 0.0
H117 H 0.49856 0.73731 0.44816 0.0
H118 H 0.53402 0.70695 0.33792 0.0
H119 H 0.53099 0.73027 0.26492 0.0
H120 H 0.49985 0.72331 0.1459 0.0
H121 H 0.48642 0.7064 0.0679 0.0
H122 H 0.45727 0.7541 0.01426 0.0
H123 H 0.47077 0.77121 0.09257 0.0
N124 N 0.49411 0.77689 0.17499 0.0
N125 N 0.50781 0.77682 0.26547 0.0
N126 N 0.50088 0.74944 0.21944 0.0
C127 C 0.50112 0.78611 0.21979 0.0
C128 C 0.50761 0.75835 0.26516 0.0
C129 C 0.49404 0.75857 0.17435 0.0
C130 C 0.50181 0.80604 0.21602 0.0
C131 C 0.48677 0.81536 0.19429 0.0
C132 C 0.48821 0.83346 0.1779 0.0
C133 C 0.50484 0.84258 0.18177 0.0
C134 C 0.5197 0.83353 0.20623 0.0
C135 C 0.51814 0.81542 0.22379 0.0
C136 C 0.51334 0.74744 0.31461 0.0
C137 C 0.50477 0.74954 0.36747 0.0
C138 C 0.50615 0.73594 0.409 0.0
C139 C 0.51643 0.72023 0.39864 0.0
C140 C 0.52614 0.71894 0.34745 0.0
C141 C 0.52444 0.73229 0.30566 0.0
C142 C 0.48635 0.74859 0.12555 0.0
C143 C 0.49064 0.73026 0.11744 0.0
C144 C 0.21732 0.50897 0.96698 0.0
C145 C 0.21498 0.49272 0.93691 0.0
C146 C 0.22741 0.47853 0.94619 0.0
C147 C 0.24129 0.4803 0.98673 0.0
H148 H 0.31004 0.508 0.07186 0.0
H149 H 0.34148 0.5057 0.10472 0.0
H150 H 0.326 0.46304 0.22064 0.0
H151 H 0.29473 0.4656 0.1883 0.0
H152 H 0.27159 0.52066 0.26066 0.0
H153 H 0.25643 0.53369 0.34406 0.0
H154 H 0.20467 0.5181 0.27483 0.0
H155 H 0.21959 0.50541 0.19166 0.0
H156 H 0.23172 0.52301 0.03218 0.0
H157 H 0.20795 0.52011 0.96165 0.0
H158 H 0.22607 0.46588 0.92341 0.0
H159 H 0.25009 0.46889 0.99525 0.0
N160 N 0.27152 0.49114 0.0727 0.0
N161 N 0.27292 0.49895 0.16986 0.0
N162 N 0.24624 0.50368 0.11893 0.0
C163 C 0.28097 0.49217 0.12256 0.0
C164 C 0.25555 0.5047 0.16832 0.0
C165 C 0.25399 0.49697 0.07111 0.0
C166 C 0.3001 0.48681 0.12713 0.0
C167 C 0.31359 0.49762 0.10248 0.0
C168 C 0.3315 0.49644 0.1218 0.0
C169 C 0.33619 0.48428 0.16558 0.0
C170 C 0.3229 0.47241 0.18652 0.0
C171 C 0.305 0.47382 0.16792 0.0
C172 C 0.24675 0.51205 0.21967 0.0
C173 C 0.25698 0.51995 0.26354 0.0
C174 C 0.24836 0.52745 0.311 0.0
C175 C 0.22946 0.52674 0.31576 0.0
C176 C 0.2193 0.51862 0.27233 0.0
C177 C 0.22784 0.51147 0.2246 0.0
C178 C 0.24275 0.49619 0.01911 0.0
C179 C 0.23094 0.51063 0.00765 0.0
C180 C 0.99885 0.22226 0.97403 0.0
C181 C 0.01263 0.21832 0.93467 0.0
C182 C 0.02771 0.22996 0.93193 0.0
C183 C 0.02953 0.24439 0.97031 0.0
H184 H 0.99807 0.30847 0.08722 0.0
H185 H 0.9947 0.33946 0.12359 0.0
H186 H 0.04852 0.33666 0.19447 0.0
H187 H 0.0517 0.3059 0.15871 0.0
H188 H 0.02613 0.26928 0.2711 0.0
H189 H 0.02402 0.251 0.35751 0.0
H190 H 0.03142 0.20254 0.25759 0.0
H191 H 0.03375 0.22065 0.17189 0.0
H192 H 0.99063 0.23831 0.04538 0.0
H193 H 0.98716 0.21352 0.97797 0.0
H194 H 0.0385 0.22742 0.90183 0.0
H195 H 0.04187 0.25231 0.97006 0.0
N196 N 0.02126 0.27634 0.06459 0.0
N197 N 0.02866 0.27521 0.16207 0.0
N198 N 0.02404 0.24839 0.11196 0.0
C199 C 0.02539 0.28501 0.11428 0.0
C200 C 0.02801 0.25692 0.1613 0.0
C201 C 0.02081 0.25786 0.06361 0.0
C202 C 0.0252 0.30491 0.11979 0.0
C203 C 0.00939 0.31482 0.10859 0.0
C204 C 0.0074 0.33243 0.13008 0.0
C205 C 0.02129 0.34048 0.16236 0.0
C206 C 0.03762 0.33099 0.16943 0.0
C207 C 0.03947 0.31336 0.14885 0.0
C208 C 0.02982 0.24638 0.21448 0.0
C209 C 0.02774 0.25475 0.26779 0.0
C210 C 0.02646 0.24431 0.31728 0.0
C211 C 0.02745 0.22535 0.31435 0.0
C212 C 0.0308 0.21713 0.26151 0.0
C213 C 0.03195 0.22752 0.21216 0.0
C214 C 0.01633 0.2474 0.01212 0.0
C215 C 1.00077 0.23653 0.01257 0.0
C216 C 0.27227 0.99553 0.96291 0.0
C217 C 0.27706 0.01378 0.95567 0.0
C218 C 0.26689 0.02711 0.98421 0.0
C219 C 0.25282 0.02217 0.02134 0.0
H220 H 0.18029 0.98103 0.11627 0.0
H221 H 0.15094 0.98676 0.16037 0.0
H222 H 0.17153 0.03654 0.23131 0.0
H223 H 0.20091 0.03081 0.1859 0.0
H224 H 0.22342 0.96981 0.26734 0.0
H225 H 0.23929 0.9506 0.3358 0.0
H226 H 0.28007 0.93894 0.20943 0.0
H227 H 0.26423 0.95775 0.14116 0.0
H228 H 0.25584 0.97637 0.0074 0.0
H229 H 0.2799 0.98489 0.94225 0.0
H230 H 0.2702 0.0413 0.97924 0.0
H231 H 0.2458 0.03259 0.04503 0.0
N232 N 0.221 0.00538 0.09036 0.0
N233 N 0.21803 0.98608 0.16984 0.0
N234 N 0.2441 0.98482 0.11403 0.0
C235 C 0.21115 0.99919 0.13552 0.0
C236 C 0.23457 0.9789 0.15955 0.0
C237 C 0.23755 0.99797 0.0794 0.0
C238 C 0.19269 0.00559 0.14728 0.0
C239 C 0.17827 0.99354 0.1394 0.0
C240 C 0.16156 0.99674 0.16518 0.0
C241 C 0.159 0.01195 0.20013 0.0
C242 C 0.17304 0.02476 0.20439 0.0
C243 C 0.18982 0.02154 0.17829 0.0
C244 C 0.24268 0.96551 0.19894 0.0
C245 C 0.23559 0.96286 0.25387 0.0
C246 C 0.2447 0.95192 0.29319 0.0
C247 C 0.26096 0.94329 0.27814 0.0
C248 C 0.26746 0.94518 0.22228 0.0
C249 C 0.25845 0.95616 0.18321 0.0
C250 C 0.24896 0.00382 0.03114 0.0
C251 C 0.2585 0.99062 1.00043 0.0
C252 C 0.5714 0.28374 0.14409 0.0
C253 C 0.57633 0.27923 0.2001 0.0
C254 C 0.56987 0.26296 0.22362 0.0
C255 C 0.55755 0.25226 0.19364 0.0
H256 H 0.51323 0.22088 0.23064 0.0
H257 H 0.50262 0.19451 0.28237 0.0
H258 H 0.48154 0.17189 0.1267 0.0
H259 H 0.4922 0.19873 0.0742 0.0
H260 H 0.52333 0.25164 0.9353 0.0
H261 H 0.51591 0.27604 0.86921 0.0
H262 H 0.47622 0.29627 0.9884 0.0
H263 H 0.48306 0.27118 0.05247 0.0
H264 H 0.55493 0.27751 0.07225 0.0
H265 H 0.57598 0.29622 0.12469 0.0
H266 H 0.57366 0.25896 0.26633 0.0
H267 H 0.5521 0.24034 0.21429 0.0
N268 N 0.52762 0.23429 0.13821 0.0
N269 N 0.50411 0.23485 0.07069 0.0
N270 N 0.5279 0.25594 0.06591 0.0
C271 C 0.512 0.2272 0.11742 0.0
C272 C 0.51225 0.24922 0.04468 0.0
C273 C 0.53572 0.24859 0.11262 0.0
C274 C 0.5036 0.21186 0.14827 0.0
C275 C 0.50616 0.21041 0.20732 0.0
C276 C 0.49996 0.19533 0.23713 0.0
C277 C 0.49121 0.18113 0.20868 0.0
C278 C 0.48829 0.18264 0.14967 0.0
C279 C 0.49426 0.19801 0.11976 0.0
C280 C 0.50356 0.25943 0.99838 0.0
C281 C 0.5124 0.26083 0.94583 0.0
C282 C 0.50837 0.27505 0.90857 0.0
C283 C 0.49579 0.28852 0.92392 0.0
C284 C 0.4859 0.28618 0.97467 0.0
C285 C 0.48973 0.27173 0.01145 0.0
C286 C 0.55143 0.25764 0.13953 0.0
C287 C 0.55913 0.27305 0.11412 0.0
Tb288 Tb 0.00729 0.99394 0.73524 0.0
Eu289 Eu 0.97371 0.00598 0.65377 0.0
C290 C 0.01415 0.00456 0.60939 0.0
C291 C 0.99557 0.0351 0.72825 0.0
C292 C 0.04475 0.96721 0.79428 0.0
C293 C 0.0533 0.93908 0.74833 0.0
C294 C 0.04379 0.95542 0.74765 0.0
C295 C 0.05581 0.96286 0.84057 0.0
C296 C 0.06534 0.94653 0.8413 0.0
C297 C 0.06389 0.93427 0.79572 0.0
C298 C 0.03311 0.98325 0.79677 0.0
O299 O 0.98421 1.00004 0.78965 0.0
O300 O 0.9628 0.99015 0.72802 0.0
O301 O 0.97953 0.97751 0.62632 0.0
O302 O 0.99627 0.96826 0.70388 0.0
C303 C 0.96797 0.9936 0.78013 0.0
O304 O 0.94542 0.01399 0.64748 0.0
O305 O 0.96189 0.01299 0.57143 0.0
O306 O 0.99971 0.01488 0.61126 0.0
O307 O 0.01676 0.99204 0.64808 0.0
O308 O 0.00902 0.02352 0.73307 0.0
O309 O 0.97972 0.03009 0.70881 0.0
C310 C 0.98742 0.96474 0.65641 0.0
O311 O 0.03496 0.99483 0.75529 0.0
O312 O 0.01614 0.97991 0.80763 0.0
C313 C 0.94292 0.03831 0.5826 0.0
C314 C 0.94433 0.07585 0.56185 0.0
C315 C 0.94124 0.06929 0.61707 0.0
C316 C 0.94059 0.05071 0.62741 0.0
C317 C 0.94434 0.04486 0.52679 0.0
C318 C 0.9451 0.06345 0.51647 0.0
C319 C 0.94706 0.01914 0.59461 0.0
H320 H 0.05202 0.93003 0.71238 0.0
H321 H 0.03526 0.95861 0.71152 0.0
H322 H 0.05659 0.97178 0.87701 0.0
H323 H 0.07313 0.94313 0.87884 0.0
H324 H 0.94026 0.07849 0.65277 0.0
H325 H 0.93939 0.04615 0.67105 0.0
H326 H 0.94618 0.03559 0.49159 0.0
H327 H 0.94763 0.068 0.4734 0.0
Tb328 Tb 0.49754 0.02497 0.72486 0.0
Eu329 Eu 0.48478 0.99167 0.64232 0.0
C330 C 0.48647 0.03188 0.59997 0.0
C331 C 0.4562 0.01371 0.7194 0.0
C332 C 0.52606 0.05815 0.80286 0.0
C333 C 0.54933 0.08139 0.80248 0.0
C334 C 0.53212 0.07542 0.78679 0.0
C335 C 0.53734 0.04705 0.83599 0.0
C336 C 0.55446 0.05309 0.85222 0.0
C337 C 0.56068 0.07024 0.83514 0.0
C338 C 0.50841 0.05172 0.78198 0.0
O339 O 0.50568 1.00025 0.76892 0.0
O340 O 0.48336 0.98222 0.73314 0.0
O341 O 0.51504 0.98922 0.64617 0.0
O342 O 0.52168 0.01815 0.67548 0.0
C343 C 0.49559 0.98564 0.77208 0.0
O344 O 0.48124 0.9627 0.62648 0.0
O345 O 0.47339 0.98228 0.56238 0.0
O346 O 0.49205 0.01558 0.5872 0.0
O347 O 0.48262 0.03588 0.65284 0.0
O348 O 0.46962 0.01994 0.75053 0.0
O349 O 0.45901 0.00512 0.67124 0.0
C350 C 0.52664 1.00243 0.65419 0.0
O351 O 0.50655 0.05185 0.72692 0.0
O352 O 0.50179 0.03702 0.80469 0.0
C353 C 0.45485 0.95657 0.57355 0.0
C354 C 0.42086 0.93971 0.56003 0.0
C355 C 0.43692 0.92944 0.55881 0.0
C356 C 0.45376 0.93783 0.56531 0.0
C357 C 0.43887 0.96677 0.57677 0.0
C358 C 0.42209 0.95847 0.56964 0.0
C359 C 0.4726 0.96543 0.57888 0.0
H360 H 0.55378 0.0947 0.78908 0.0
H361 H 0.52364 0.08418 0.76116 0.0
H362 H 0.5331 0.03359 0.84855 0.0
H363 H 0.56305 0.04415 0.87684 0.0
H364 H 0.4365 0.91494 0.55242 0.0
H365 H 0.46595 0.9297 0.56345 0.0
H366 H 0.43933 0.98125 0.58374 0.0
H367 H 0.41014 0.96694 0.56986 0.0
Tb368 Tb 0.48772 0.50973 0.69817 0.0
Eu369 Eu 0.52135 0.49975 0.61357 0.0
C370 C 0.48112 0.4999 0.57098 0.0
C371 C 0.50057 0.46899 0.68674 0.0
C372 C 0.45103 0.5361 0.7625 0.0
C373 C 0.42935 0.55523 0.81111 0.0
C374 C 0.43759 0.53835 0.80379 0.0
C375 C 0.45552 0.55057 0.72659 0.0
C376 C 0.44745 0.56746 0.73415 0.0
C377 C 0.43463 0.57015 0.77759 0.0
C378 C 0.46154 0.51929 0.76015 0.0
O379 O 0.51093 0.50293 0.75128 0.0
O380 O 0.53207 0.51419 0.69076 0.0
O381 O 0.51347 0.52833 0.59155 0.0
O382 O 0.49961 0.53589 0.67557 0.0
C383 C 0.52711 0.50965 0.74232 0.0
O384 O 0.54938 0.49101 0.60456 0.0
O385 O 0.5338 0.49815 0.52967 0.0
O386 O 0.49577 0.48989 0.57169 0.0
O387 O 0.47842 0.51213 0.61051 0.0
O388 O 0.48701 0.48022 0.69527 0.0
O389 O 0.51584 0.47427 0.66333 0.0
C390 C 0.50689 0.54049 0.62656 0.0
O391 O 0.45972 0.5097 0.71406 0.0
O392 O 0.47848 0.52102 0.77451 0.0
C393 C 0.55584 0.47517 0.52057 0.0
C394 C 0.56973 0.44381 0.46864 0.0
C395 C 0.58143 0.45765 0.4866 0.0
C396 C 0.57451 0.47324 0.51223 0.0
C397 C 0.54411 0.46132 0.50322 0.0
C398 C 0.551 0.4458 0.47719 0.0
C399 C 0.5489 0.49138 0.54915 0.0
H400 H 0.41933 0.55675 0.84434 0.0
H401 H 0.43392 0.52725 0.83168 0.0
H402 H 0.46588 0.54904 0.69436 0.0
H403 H 0.45208 0.57862 0.70804 0.0
H404 H 0.5959 0.45651 0.48022 0.0
H405 H 0.58375 0.48377 0.52575 0.0
H406 H 0.52966 0.46246 0.51007 0.0
H407 H 0.54169 0.43523 0.46451 0.0
Tb408 Tb 0.994 0.48606 0.71314 0.0
Eu409 Eu 0.00582 0.52014 0.63245 0.0
C410 C 0.00405 0.47995 0.58597 0.0
C411 C 0.03481 0.49847 0.70845 0.0
C412 C 0.96731 0.44812 0.76878 0.0
C413 C 0.94352 0.43423 0.71235 0.0
C414 C 0.96027 0.44293 0.71573 0.0
C415 C 0.95772 0.44389 0.81833 0.0
C416 C 0.94089 0.43541 0.81498 0.0
C417 C 0.93335 0.43084 0.76185 0.0
C418 C 0.98335 0.45979 0.77276 0.0
O419 O 0.99949 0.50909 0.76875 0.0
O420 O 0.98998 0.53072 0.7069 0.0
O421 O 0.97718 0.51444 0.60605 0.0
O422 O 0.96831 0.4973 0.68329 0.0
C423 C 0.99326 0.52545 0.75907 0.0
O424 O 0.01241 0.5488 0.62603 0.0
O425 O 0.01391 0.53198 0.55106 0.0
O426 O 0.01437 0.49438 0.58839 0.0
O427 O 0.99189 0.4769 0.62546 0.0
O428 O 0.02351 0.48477 0.71168 0.0
O429 O 0.02964 0.51432 0.68922 0.0
C430 C 0.96457 0.50648 0.63662 0.0
O431 O 0.99531 0.45831 0.73221 0.0
O432 O 0.97993 0.47666 0.78484 0.0
C433 C 0.03666 0.55373 0.56482 0.0
C434 C 0.07251 0.56608 0.55561 0.0
C435 C 0.05822 0.57621 0.53206 0.0
C436 C 0.04034 0.57012 0.5371 0.0
C437 C 0.05092 0.5435 0.58741 0.0
C438 C 0.06866 0.54965 0.58318 0.0
C439 C 0.01803 0.54756 0.57367 0.0
H440 H 0.9383 0.43069 0.67081 0.0
H441 H 0.96738 0.44619 0.67674 0.0
H442 H 0.96283 0.44797 0.85956 0.0
H443 H 0.9334 0.43342 0.85404 0.0
H444 H 0.06089 0.58887 0.51033 0.0
H445 H 0.02944 0.57821 0.51972 0.0
H446 H 0.04831 0.53074 0.60852 0.0
H447 H 0.07942 0.54136 0.60057 0.0
C448 C 0.13719 0.99758 0.26776 0.0
C449 C 0.14279 0.01305 0.23764 0.0
C450 C 0.12285 0.99844 0.30619 0.0
C451 C 0.08189 0.02281 0.34613 0.0
H452 H 0.09081 1.00126 0.49397 0.0
C453 C 0.02835 0.0224 0.52937 0.0
C454 C 0.02781 0.00679 0.56363 0.0
C455 C 0.04206 0.02465 0.48858 0.0
C456 C 0.08795 0.00714 0.45272 0.0
H457 H 0.13742 0.04154 0.22362 0.0
H458 H 0.11193 0.04298 0.29084 0.0
H459 H 0.11504 1.00251 0.4242 0.0
H460 H 0.04078 0.98097 0.58015 0.0
H461 H 0.0641 0.98459 0.50863 0.0
H462 H 0.05457 0.02693 0.37417 0.0
C463 C 0.11881 0.03021 0.2844 0.0
C464 C 0.10191 0.00794 0.41284 0.0
C465 C 0.13342 0.0294 0.24624 0.0
C466 C 0.04091 0.99329 0.5551 0.0
C467 C 0.05442 0.99544 0.5142 0.0
C468 C 0.06778 0.02183 0.386 0.0
C469 C 0.1136 0.01477 0.3154 0.0
C470 C 0.09898 0.0155 0.35879 0.0
C471 C 0.05542 0.01127 0.481 0.0
C472 C 0.07055 0.01365 0.4395 0.0
H473 H 0.14427 0.98483 0.26292 0.0
H474 H 0.11904 0.98629 0.3291 0.0
H475 H 0.07926 0.02867 0.30468 0.0
H476 H 0.01846 0.03307 0.53497 0.0
H477 H 0.04242 0.03705 0.46403 0.0
C478 C 0.49125 0.14731 0.22153 0.0
C479 C 0.48619 0.16456 0.24102 0.0
C480 C 0.48925 0.13208 0.25665 0.0
C481 C 0.48703 0.12097 0.40943 0.0
H482 H 0.47381 0.07286 0.35866 0.0
C483 C 0.47736 0.06302 0.56922 0.0
C484 C 0.48453 0.04597 0.55531 0.0
C485 C 0.47633 0.07674 0.52845 0.0
C486 C 0.47769 0.08619 0.37335 0.0
H487 H 0.47375 0.17916 0.31063 0.0
H488 H 0.46998 0.15268 0.37135 0.0
H489 H 0.47356 0.09811 0.29101 0.0
H490 H 0.49587 0.02988 0.48699 0.0
H491 H 0.49428 0.054 0.41574 0.0
H492 H 0.49139 0.1092 0.49132 0.0
C493 C 0.47599 0.15092 0.3297 0.0
C494 C 0.47751 0.10065 0.33461 0.0
C495 C 0.47805 0.16609 0.29481 0.0
C496 C 0.49027 0.04286 0.49912 0.0
C497 C 0.48927 0.05666 0.45821 0.0
C498 C 0.48722 0.10658 0.44795 0.0
C499 C 0.48209 0.13381 0.31187 0.0
C500 C 0.48207 0.11825 0.35234 0.0
C501 C 0.48251 0.07386 0.47263 0.0
C502 C 0.48245 0.08901 0.43063 0.0
H503 H 0.49768 0.14573 0.18043 0.0
H504 H 0.49414 0.11912 0.24162 0.0
H505 H 0.49108 0.13422 0.42432 0.0
H506 H 0.47266 0.06588 0.6119 0.0
H507 H 0.4707 0.08969 0.54082 0.0
C508 C 0.36024 0.50263 0.21336 0.0
C509 C 0.35393 0.48564 0.19525 0.0
C510 C 0.37526 0.50394 0.24924 0.0
C511 C 0.41583 0.481 0.30265 0.0
H512 H 0.40678 0.50846 0.44006 0.0
C513 C 0.46674 0.48223 0.49151 0.0
C514 C 0.4678 0.4981 0.52418 0.0
C515 C 0.45353 0.48044 0.44903 0.0
C516 C 0.40978 0.50102 0.40158 0.0
H517 H 0.35901 0.45677 0.19825 0.0
H518 H 0.38562 0.45912 0.26022 0.0
H519 H 0.38337 0.50624 0.36795 0.0
H520 H 0.45634 0.52482 0.53634 0.0
H521 H 0.43402 0.5221 0.46123 0.0
H522 H 0.44243 0.47613 0.33544 0.0
C523 C 0.37879 0.47139 0.24683 0.0
C524 C 0.39625 0.49968 0.36031 0.0
C525 C 0.36356 0.47004 0.21156 0.0
C526 C 0.45573 0.5123 0.51248 0.0
C527 C 0.44279 0.51066 0.46951 0.0
C528 C 0.42954 0.48258 0.3436 0.0
C529 C 0.38447 0.48832 0.26729 0.0
C530 C 0.39912 0.4897 0.31038 0.0
C531 C 0.44126 0.49461 0.43765 0.0
C532 C 0.42673 0.49267 0.3937 0.0
H533 H 0.353 0.51488 0.20221 0.0
H534 H 0.37943 0.51717 0.26403 0.0
H535 H 0.41841 0.47324 0.26443 0.0
H536 H 0.47581 0.47101 0.49969 0.0
H537 H 0.45272 0.46778 0.42609 0.0
C538 C 1.00234 0.36009 0.22609 0.0
C539 C 0.01826 0.35764 0.19426 0.0
C540 C 1.0005 0.37486 0.26289 0.0
C541 C 0.02849 0.40806 0.34261 0.0
H542 H 0.98195 0.42988 0.37531 0.0
C543 C 0.02003 0.46851 0.4984 0.0
C544 C 0.0057 0.46712 0.53756 0.0
C545 C 0.02155 0.45623 0.45322 0.0
C546 C 0.99504 0.42386 0.36686 0.0
H547 H 0.04431 0.3694 0.17384 0.0
H548 H 0.04094 0.39542 0.23676 0.0
H549 H 0.98438 0.4072 0.30046 0.0
H550 H 0.98165 0.45177 0.5594 0.0
H551 H 0.98427 0.43052 0.48071 0.0
H552 H 0.03912 0.42483 0.40902 0.0
C553 C 0.03005 0.38565 0.23465 0.0
C554 C 0.99644 0.4108 0.32396 0.0
C555 C 0.03195 0.37079 0.19821 0.0
C556 C 0.99287 0.45327 0.53014 0.0
C557 C 0.99429 0.44113 0.48473 0.0
C558 C 0.02711 0.42124 0.38517 0.0
C559 C 0.01447 0.38769 0.26856 0.0
C560 C 0.01315 0.40253 0.31163 0.0
C561 C 0.00867 0.44241 0.44579 0.0
C562 C 0.01033 0.42914 0.39831 0.0
H563 H 0.99166 0.35007 0.22482 0.0
H564 H 0.98841 0.37574 0.2887 0.0
H565 H 0.04154 0.40184 0.33528 0.0
H566 H 0.03015 0.479 0.5028 0.0
H567 H 0.03272 0.45766 0.42375 0.0
C568 C 0.86102 1.00057 0.17726 0.0
C569 C 0.84546 0.98977 0.17172 0.0
C570 C 0.87551 0.99867 0.13932 0.0
C571 C 0.88383 0.98574 0.99206 0.0
H572 H 0.93457 0.98646 0.03341 0.0
C573 C 0.93927 0.98084 0.82042 0.0
C574 C 0.95505 0.99115 0.82779 0.0
C575 C 0.92673 0.97905 0.86461 0.0
C576 C 0.92047 0.98648 0.02099 0.0
H577 H 0.83318 0.9681 0.12315 0.0
H578 H 0.85843 0.9648 0.05702 0.0
H579 H 0.91151 0.98603 0.10787 0.0
H580 H 0.9701 0.0076 0.88761 0.0
H581 H 0.94796 0.00504 0.96399 0.0
H582 H 0.89252 0.98693 0.90556 0.0
C583 C 0.85942 0.97474 0.0907 0.0
C584 C 0.90727 0.98613 0.06377 0.0
C585 C 0.84505 0.97649 0.129 0.0
C586 C 0.95811 0.99947 0.88063 0.0
C587 C 0.94543 0.9979 0.92463 0.0
C588 C 0.89698 0.98633 0.94937 0.0
C589 C 0.87462 0.98609 0.0946 0.0
C590 C 0.8888 0.98575 0.04972 0.0
C591 C 0.92947 0.98776 0.91715 0.0
C592 C 0.91551 0.98672 0.96311 0.0
H593 H 0.86175 0.01089 0.20986 0.0
H594 H 0.88701 0.00765 0.1433 0.0
H595 H 0.8697 0.9858 0.97986 0.0
H596 H 0.9366 0.97409 0.78042 0.0
H597 H 0.91486 0.97078 0.85744 0.0
C598 C 0.4934 0.87394 0.16117 0.0
C599 C 0.50685 0.86067 0.15454 0.0
C600 C 0.49359 0.88966 0.12792 0.0
C601 C 0.52129 0.9167 0.02494 0.0
H602 H 0.47415 0.92948 0.96488 0.0
C603 C 0.51015 0.97602 0.86446 0.0
C604 C 0.49783 0.97271 0.82007 0.0
C605 C 0.51194 0.96371 0.90964 0.0
C606 C 0.48745 0.92606 0.98098 0.0
H607 H 0.53151 0.85388 0.10956 0.0
H608 H 0.53175 0.88114 0.05095 0.0
H609 H 0.47657 0.90603 0.03682 0.0
H610 H 0.47794 0.95364 0.78821 0.0
H611 H 0.48121 0.93226 0.86591 0.0
H612 H 0.53217 0.93631 0.96689 0.0
C613 C 0.52117 0.87961 0.08246 0.0
C614 C 0.48882 0.91276 0.02305 0.0
C615 C 0.52106 0.86394 0.11613 0.0
C616 C 0.48747 0.95676 0.82176 0.0
C617 C 0.48927 0.9445 0.86668 0.0
C618 C 0.51991 0.93003 0.98261 0.0
C619 C 0.50714 0.89242 0.0867 0.0
C620 C 0.50577 0.90771 0.04522 0.0
C621 C 0.50142 0.94783 0.91145 0.0
C622 C 0.50298 0.93466 0.95943 0.0
H623 H 0.48239 0.8719 0.19092 0.0
H624 H 0.48281 0.89942 0.13347 0.0
H625 H 0.53455 0.91332 0.04139 0.0
H626 H 0.51834 0.98817 0.86454 0.0
H627 H 0.52135 0.96676 0.94357 0.0
C628 C 0.6521 0.52102 0.08569 0.0
C629 C 0.65225 0.50669 0.1251 0.0
C630 C 0.63737 0.52349 0.04912 0.0
C631 C 0.58949 0.51189 0.02323 0.0
H632 H 0.60302 0.5152 0.86426 0.0
C633 C 0.5376 0.5018 0.84095 0.0
C634 C 0.54017 0.51136 0.78987 0.0
C635 C 0.55051 0.50266 0.88447 0.0
C636 C 0.59889 0.51465 0.9084 0.0
H637 H 0.63659 0.48442 0.15943 0.0
H638 H 0.61073 0.48889 0.09594 0.0
H639 H 0.62639 0.51502 0.9369 0.0
H640 H 0.55793 0.52992 0.74535 0.0
H641 H 0.58004 0.53198 0.82165 0.0
H642 H 0.56197 0.51169 0.99488 0.0
C643 C 0.62206 0.49814 0.09318 0.0
C644 C 0.61236 0.51449 0.95012 0.0
C645 C 0.63689 0.49553 0.12934 0.0
C646 C 0.55565 0.52222 0.78392 0.0
C647 C 0.56841 0.52329 0.82767 0.0
C648 C 0.57597 0.51228 0.98147 0.0
C649 C 0.62238 0.51181 0.05154 0.0
C650 C 0.60784 0.51299 0.00796 0.0
C651 C 0.5662 0.5133 0.87828 0.0
C652 C 0.58048 0.51354 0.92335 0.0
H653 H 0.66378 0.52973 0.08093 0.0
H654 H 0.63792 0.53425 0.01784 0.0
H655 H 0.5856 0.51082 0.06753 0.0
H656 H 0.52585 0.49324 0.84675 0.0
H657 H 0.54839 0.49456 0.92229 0.0
C658 C 1.00069 0.63724 0.14608 0.0
C659 C 0.99325 0.654 0.12999 0.0
C660 C 0.99836 0.62191 0.11198 0.0
C661 C 0.97254 0.60367 0.98768 0.0
H662 H 0.01531 0.5739 0.96848 0.0
C663 C 0.9827 0.55541 0.7967 0.0
C664 C 0.99095 0.53853 0.80648 0.0
C665 C 0.98133 0.56821 0.84028 0.0
C666 C 0.00314 0.58189 0.97391 0.0
H667 H 0.977 0.66761 0.0663 0.0
H668 H 0.9731 0.64101 0.00641 0.0
H669 H 0.01555 0.59841 0.0374 0.0
H670 H 0.00394 0.52179 0.87035 0.0
H671 H 1.00162 0.54419 0.94644 0.0
H672 H 0.96039 0.58738 0.92267 0.0
C673 C 0.9805 0.63956 0.04589 0.0
C674 C 0.00325 0.59597 0.01364 0.0
C675 C 0.98272 0.65486 0.08029 0.0
C676 C 0.99752 0.53465 0.86129 0.0
C677 C 0.99628 0.54753 0.90483 0.0
C678 C 0.97248 0.58964 0.94764 0.0
C679 C 0.98866 0.62296 0.06055 0.0
C680 C 0.98801 0.60719 0.02078 0.0
C681 C 0.98829 0.56453 0.89473 0.0
C682 C 0.98785 0.57868 0.93987 0.0
H683 H 0.00871 0.63609 0.18449 0.0
H684 H 0.00447 0.6093 0.12549 0.0
H685 H 0.96044 0.61178 0.99253 0.0
H686 H 0.97746 0.55887 0.75506 0.0
H687 H 0.97527 0.58121 0.83079 0.0
C688 C 0.00698 0.21786 0.39576 0.0
C689 C 0.02258 0.21389 0.36384 0.0
C690 C 0.99954 0.20486 0.43208 0.0
C691 C 0.99481 0.15676 0.42921 0.0
H692 H 0.97186 0.16088 0.57705 0.0
C693 C 0.94408 0.10399 0.50203 0.0
C694 C 0.94923 0.0951 0.55234 0.0
C695 C 0.95179 0.1206 0.48757 0.0
C696 C 0.9782 0.15965 0.5357 0.0
H697 H 0.04385 0.19416 0.35022 0.0
H698 H 0.0307 0.17137 0.41313 0.0
H699 H 0.99049 0.18597 0.54057 0.0
H700 H 0.96551 0.09738 0.62903 0.0
H701 H 0.97861 0.12658 0.60404 0.0
H702 H 0.98238 0.13075 0.42337 0.0
C703 C 0.02413 0.18443 0.40941 0.0
C704 C 0.98884 0.17391 0.51501 0.0
C705 C 0.03161 0.19744 0.37339 0.0
C706 C 0.96107 0.10392 0.59018 0.0
C707 C 0.96866 0.12062 0.5759 0.0
C708 C 0.984 0.14275 0.44932 0.0
C709 C 0.00756 0.18771 0.43677 0.0
C710 C 0.99728 0.1725 0.46164 0.0
C711 C 0.96465 0.12869 0.52339 0.0
C712 C 0.97554 0.14407 0.50255 0.0
H713 H 0.99965 0.23038 0.38913 0.0
H714 H 0.98673 0.20768 0.45261 0.0
H715 H 1.0009 0.15546 0.3875 0.0
H716 H 0.93472 0.09774 0.4726 0.0
H717 H 0.94832 0.12675 0.44714 0.0
C718 C 0.28209 0.91836 0.30739 0.0
C719 C 0.2723 0.93404 0.32147 0.0
C720 C 0.29576 0.91201 0.34324 0.0
C721 C 0.31777 0.91771 0.48435 0.0
H722 H 0.36191 0.9155 0.39568 0.0
C723 C 0.38712 0.93794 0.57304 0.0
C724 C 0.40299 0.93133 0.54737 0.0
C725 C 0.37012 0.93242 0.55386 0.0
C726 C 0.34978 0.91552 0.42148 0.0
H727 H 0.26814 0.95442 0.38649 0.0
H728 H 0.29191 0.9433 0.44901 0.0
H729 H 0.33302 0.91575 0.34763 0.0
H730 H 0.41328 0.91239 0.48467 0.0
H731 H 0.38375 0.90207 0.45354 0.0
H732 H 0.33467 0.918 0.55832 0.0
C733 C 0.28898 0.93585 0.41044 0.0
C734 C 0.33313 0.9157 0.3937 0.0
C735 C 0.27534 0.94224 0.37452 0.0
C736 C 0.40142 0.91784 0.50555 0.0
C737 C 0.38442 0.91209 0.48703 0.0
C738 C 0.33448 0.91732 0.51232 0.0
C739 C 0.29986 0.92117 0.39394 0.0
C740 C 0.31698 0.91739 0.42466 0.0
C741 C 0.36855 0.9199 0.50913 0.0
C742 C 0.35074 0.91686 0.48108 0.0
H743 H 0.2798 0.91154 0.2673 0.0
H744 H 0.30374 0.90047 0.32991 0.0
H745 H 0.30551 0.91884 0.50931 0.0
H746 H 0.38778 0.94796 0.60652 0.0
H747 H 0.35828 0.93882 0.57198 0.0
C748 C 0.57921 0.29641 0.29113 0.0
C749 C 0.58569 0.29284 0.23606 0.0
C750 C 0.58475 0.31186 0.32031 0.0
C751 C 0.59978 0.34503 0.37887 0.0
H752 H 0.59391 0.3864 0.27887 0.0
C753 C 0.59196 0.41816 0.46402 0.0
C754 C 0.57695 0.42731 0.44108 0.0
C755 C 0.59815 0.4021 0.4393 0.0
C756 C 0.59572 0.375 0.30732 0.0
H757 H 0.60461 0.30161 0.17116 0.0
H758 H 0.61427 0.32871 0.22221 0.0
H759 H 0.59693 0.3563 0.23835 0.0
H760 H 0.55711 0.42726 0.37327 0.0
H761 H 0.56779 0.39924 0.33041 0.0
H762 H 0.59737 0.36374 0.44793 0.0
C763 C 0.60463 0.3197 0.24227 0.0
C764 C 0.5977 0.35775 0.28411 0.0
C765 C 0.5991 0.30419 0.21305 0.0
C766 C 0.56858 0.42039 0.39217 0.0
C767 C 0.57485 0.40447 0.36725 0.0
C768 C 0.59783 0.36232 0.40211 0.0
C769 C 0.59689 0.32411 0.29508 0.0
C770 C 0.59905 0.34248 0.31965 0.0
C771 C 0.58958 0.39505 0.39082 0.0
C772 C 0.59507 0.37738 0.36653 0.0
H773 H 0.56874 0.2881 0.31 0.0
H774 H 0.57837 0.31491 0.36063 0.0
H775 H 0.60101 0.33355 0.40732 0.0
H776 H 0.5986 0.42316 0.50192 0.0
H777 H 0.60956 0.39514 0.45826 0.0
C778 C 0.20688 0.52465 0.39385 0.0
C779 C 0.21996 0.5348 0.36478 0.0
C780 C 0.19552 0.53292 0.43327 0.0
C781 C 0.17401 0.57627 0.45425 0.0
H782 H 0.15175 0.55012 0.57892 0.0
C783 C 0.0983 0.57615 0.49477 0.0
C784 C 0.09157 0.57176 0.54881 0.0
C785 C 0.11691 0.57776 0.48599 0.0
C786 C 0.15797 0.55798 0.54528 0.0
H787 H 0.23233 0.56123 0.35632 0.0
H788 H 0.21226 0.57588 0.4255 0.0
H789 H 0.18095 0.54041 0.54302 0.0
H790 H 0.09868 0.56753 0.63723 0.0
H791 H 0.13121 0.5707 0.62222 0.0
H792 H 0.1507 0.59346 0.45516 0.0
C793 C 0.21081 0.56151 0.41767 0.0
C794 C 0.17467 0.55226 0.52433 0.0
C795 C 0.22233 0.55314 0.37844 0.0
C796 C 0.10361 0.57062 0.59491 0.0
C797 C 0.12221 0.5724 0.58627 0.0
C798 C 0.15733 0.58207 0.47542 0.0
C799 C 0.19694 0.55157 0.44419 0.0
C800 C 0.18236 0.56071 0.4766 0.0
C801 C 0.12913 0.57515 0.53123 0.0
C802 C 0.14867 0.57238 0.51914 0.0
H803 H 0.20489 0.51046 0.38412 0.0
H804 H 0.18485 0.5249 0.4523 0.0
H805 H 0.17959 0.5831 0.41742 0.0
H806 H 0.08931 0.57701 0.45849 0.0
H807 H 0.12171 0.57969 0.44289 0.0
C808 C 0.09249 0.79371 0.02457 0.0
C809 C 0.07624 0.78425 0.01622 0.0
C810 C 0.09777 0.80727 0.9865 0.0
C811 C 0.08565 0.82989 0.84886 0.0
H812 H 0.09672 0.87343 0.93366 0.0
C813 C 0.06169 0.90064 0.78483 0.0
C814 C 0.07188 0.91589 0.80055 0.0
C815 C 0.06775 0.88324 0.79803 0.0
C816 C 0.0941 0.86139 0.9088 0.0
H817 H 0.0534 0.78069 0.95951 0.0
H818 H 0.06236 0.80443 0.89387 0.0
H819 H 0.09779 0.84438 0.98115 0.0
H820 H 0.09719 0.92476 0.83784 0.0
H821 H 0.10776 0.89432 0.86118 0.0
H822 H 0.08088 0.84725 0.77729 0.0
C823 C 0.07128 0.80126 0.92905 0.0
C824 C 0.09474 0.84464 0.93612 0.0
C825 C 0.06609 0.78764 0.96685 0.0
C826 C 0.08886 0.91329 0.8262 0.0
C827 C 0.09493 0.89587 0.83943 0.0
C828 C 0.08494 0.8467 0.82152 0.0
C829 C 0.0868 0.81174 0.93965 0.0
C830 C 0.08987 0.82875 0.90711 0.0
C831 C 0.08414 0.8807 0.82729 0.0
C832 C 0.08852 0.86269 0.85181 0.0
H833 H 0.10072 0.79117 0.06186 0.0
H834 H 0.11001 0.81482 0.99526 0.0
H835 H 0.08215 0.81786 0.82499 0.0
H836 H 0.04846 0.90214 0.76559 0.0
H837 H 0.05898 0.87189 0.7887 0.0
C838 C 0.70353 0.04439 0.98068 0.0
C839 C 0.71281 0.05423 0.02242 0.0
C840 C 0.69109 0.05298 0.94528 0.0
C841 C 0.66559 0.07403 0.87033 0.0
H842 H 0.63177 0.09878 0.96946 0.0
C843 C 0.59083 0.08318 0.80812 0.0
C844 C 0.57921 0.07614 0.85 0.0
C845 C 0.60891 0.08692 0.821 0.0
C846 C 0.64115 0.09212 0.94094 0.0
H847 H 0.71768 0.08093 0.05696 0.0
H848 H 0.69573 0.09608 0.99491 0.0
H849 H 0.6626 0.09343 1.00157 0.0
H850 H 0.577 0.06848 0.93868 0.0
H851 H 0.60849 0.07489 0.96121 0.0
H852 H 0.64364 0.07142 0.81164 0.0
C853 C 0.69804 0.08171 0.98975 0.0
C854 C 0.6589 0.08924 0.95902 0.0
C855 C 0.71065 0.07308 0.02497 0.0
C856 C 0.58572 0.07375 0.90553 0.0
C857 C 0.6037 0.07763 0.91852 0.0
C858 C 0.64782 0.07693 0.85222 0.0
C859 C 0.68758 0.07158 0.95126 0.0
C860 C 0.67102 0.07931 0.92514 0.0
C861 C 0.6156 0.08389 0.87614 0.0
C862 C 0.6352 0.08516 0.88865 0.0
H863 H 0.7051 0.02984 0.9778 0.0
H864 H 0.68317 0.04472 0.91656 0.0
H865 H 0.67471 0.06656 0.843 0.0
H866 H 0.58614 0.08506 0.76486 0.0
H867 H 0.61778 0.09175 0.78758 0.0
C868 C 0.44336 0.71836 0.98251 0.0
C869 C 0.46224 0.71823 0.98943 0.0
C870 C 0.43505 0.70613 0.94545 0.0
C871 C 0.44422 0.67257 0.83109 0.0
H872 H 0.40797 0.64372 0.9086 0.0
C873 C 0.42621 0.60199 0.74957 0.0
C874 C 0.42868 0.5888 0.79216 0.0
C875 C 0.42423 0.62024 0.76399 0.0
C876 C 0.41789 0.65177 0.886 0.0
H877 H 0.48732 0.70627 0.9602 0.0
H878 H 0.47291 0.68491 0.89593 0.0
H879 H 0.41723 0.67265 0.94877 0.0
H880 H 0.42977 0.58444 0.88345 0.0
H881 H 0.42612 0.61598 0.90834 0.0
H882 H 0.44589 0.65107 0.77068 0.0
C883 C 0.46446 0.69442 0.91876 0.0
C884 C 0.42309 0.66843 0.90871 0.0
C885 C 0.47272 0.70651 0.95603 0.0
C886 C 0.42767 0.59411 0.84945 0.0
C887 C 0.42557 0.61229 0.86381 0.0
C888 C 0.43901 0.65593 0.80835 0.0
C889 C 0.4455 0.69372 0.9143 0.0
C890 C 0.43692 0.67859 0.8829 0.0
C891 C 0.42452 0.62563 0.82126 0.0
C892 C 0.42641 0.64497 0.83705 0.0
H893 H 0.43497 0.72724 0.00794 0.0
H894 H 0.42042 0.70596 0.9426 0.0
H895 H 0.45472 0.68026 0.80984 0.0
H896 H 0.42655 0.59831 0.70502 0.0
H897 H 0.42321 0.6302 0.73031 0.0
C898 C 0.78459 0.43249 0.93788 0.0
C899 C 0.7875 0.44949 0.96287 0.0
C900 C 0.79569 0.4266 0.89321 0.0
C901 C 0.83137 0.44265 0.79226 0.0
H902 H 0.85363 0.39618 0.82292 0.0
C903 C 0.90669 0.41406 0.80228 0.0
C904 C 0.91422 0.42458 0.75841 0.0
C905 C 0.88799 0.41191 0.80658 0.0
C906 C 0.84756 0.40918 0.81352 0.0
H907 H 0.80322 0.47418 0.95849 0.0
H908 H 0.82259 0.46399 0.88192 0.0
H909 H 0.82545 0.40415 0.87009 0.0
H910 H 0.90796 0.43912 0.68044 0.0
H911 H 0.87557 0.43435 0.68593 0.0
H912 H 0.85424 0.44864 0.74083 0.0
C913 C 0.8118 0.45513 0.89587 0.0
C914 C 0.8312 0.41364 0.83996 0.0
C915 C 0.80086 0.46091 0.94037 0.0
C916 C 0.90274 0.43101 0.71513 0.0
C917 C 0.88403 0.42851 0.71875 0.0
C918 C 0.84783 0.43835 0.76668 0.0
C919 C 0.80968 0.43774 0.87257 0.0
C920 C 0.82353 0.43087 0.8322 0.0
C921 C 0.87633 0.4199 0.76637 0.0
C922 C 0.85669 0.42198 0.7796 0.0
H923 H 0.77432 0.42347 0.95454 0.0
H924 H 0.79366 0.41317 0.87595 0.0
H925 H 0.82551 0.45584 0.78411 0.0
H926 H 0.91516 0.40838 0.83538 0.0
H927 H 0.88275 0.40515 0.84398 0.0
C928 C 0.99576 0.19456 0.87853 0.0
C929 C 0.01208 0.20105 0.90167 0.0
C930 C 0.99484 0.1773 0.85394 0.0
C931 C 0.01746 0.13282 0.86035 0.0
H932 H 0.98902 0.12211 0.72608 0.0
C933 C 0.01496 0.06058 0.76528 0.0
C934 C 0.99823 0.0544 0.74448 0.0
C935 C 0.01732 0.07876 0.7806 0.0
C936 C 0.99687 0.1248 0.76401 0.0
H937 H 0.04033 0.19447 0.91564 0.0
H938 H 0.03877 0.16457 0.87223 0.0
H939 H 0.99191 0.15336 0.7584 0.0
H940 H 0.97091 0.06276 0.72291 0.0
H941 H 0.97492 0.0942 0.75044 0.0
H942 H 0.02214 0.10433 0.86695 0.0
C943 C 0.02663 0.17278 0.87351 0.0
C944 C 0.99856 0.14277 0.78245 0.0
C945 C 0.02758 0.19005 0.89776 0.0
C946 C 0.98399 0.06695 0.7389 0.0
C947 C 0.98634 0.0851 0.75428 0.0
C948 C 0.0157 0.11487 0.84215 0.0
C949 C 0.01018 0.16603 0.85221 0.0
C950 C 0.00884 0.14701 0.83099 0.0
C951 C 0.00302 0.09128 0.77564 0.0
C952 C 0.00532 0.11056 0.79384 0.0
H953 H 0.98359 0.20269 0.88045 0.0
H954 H 0.98193 0.17254 0.83823 0.0
H955 H 0.02522 0.13552 0.89847 0.0
H956 H 0.02627 0.05137 0.76978 0.0
H957 H 0.03045 0.08302 0.79596 0.0
C958 C 0.29791 0.00932 0.87219 0.0
C959 C 0.29374 0.0184 0.92309 0.0
C960 C 0.31486 0.0114 0.8465 0.0
C961 C 0.36186 0.02227 0.88444 0.0
H962 H 0.36946 0.02288 0.72131 0.0
C963 C 0.43363 0.02683 0.78792 0.0
C964 C 0.43732 0.01616 0.73981 0.0
C965 C 0.41592 0.02878 0.80804 0.0
C966 C 0.36759 0.02254 0.76698 0.0
H967 H 0.30392 0.03741 0.98546 0.0
H968 H 0.33341 0.04124 0.9402 0.0
H969 H 0.33873 0.02398 0.75921 0.0
H970 H 0.4251 0.99922 0.67501 0.0
H971 H 0.39433 1.00234 0.71066 0.0
H972 H 0.39062 0.0204 0.89245 0.0
C973 C 0.32362 0.03233 0.92052 0.0
C974 C 0.34996 0.02323 0.7887 0.0
C975 C 0.30662 0.03032 0.94607 0.0
C976 C 0.42279 0.00762 0.71203 0.0
C977 C 0.40508 0.0095 0.73232 0.0
C978 C 0.37947 0.02151 0.86277 0.0
C979 C 0.32811 0.02255 0.87119 0.0
C980 C 0.34686 0.02299 0.84773 0.0
C981 C 0.4014 0.02003 0.78081 0.0
C982 C 0.3826 0.02151 0.80372 0.0
H983 H 0.28823 1.00014 0.85314 0.0
H984 H 0.31786 0.00359 0.8087 0.0
H985 H 0.35999 0.02172 0.9301 0.0
H986 H 0.44444 0.03371 0.81022 0.0
H987 H 0.41361 0.03723 0.8449 0.0
C988 C 0.51053 0.31351 0.86776 0.0
C989 C 0.49473 0.3059 0.89124 0.0
C990 C 0.51021 0.33057 0.84216 0.0
C991 C 0.47987 0.36632 0.78376 0.0
H992 H 0.52139 0.39693 0.81361 0.0
C993 C 0.48253 0.44328 0.72873 0.0
C994 C 0.49884 0.44985 0.70572 0.0
C995 C 0.48127 0.42545 0.7489 0.0
C996 C 0.50977 0.38851 0.80432 0.0
H997 H 0.466 0.31033 0.90394 0.0
H998 H 0.46557 0.3404 0.86073 0.0
H999 H 0.52041 0.36651 0.85291 0.0
H1000 H 0.52651 0.44256 0.68492 0.0
H1001 H 0.52429 0.41164 0.72004 0.0
H1002 H 0.46916 0.38865 0.73583 0.0
C1003 C 0.47819 0.33297 0.86159 0.0
C1004 C 0.50921 0.371 0.82677 0.0
C1005 C 0.47848 0.31576 0.88696 0.0
C1006 C 0.51374 0.43805 0.70253 0.0
C1007 C 0.51251 0.42031 0.72298 0.0
C1008 C 0.48038 0.38395 0.76152 0.0
C1009 C 0.49415 0.34074 0.83976 0.0
C1010 C 0.49435 0.35957 0.8164 0.0
C1011 C 0.49633 0.41383 0.74694 0.0
C1012 C 0.49543 0.39519 0.77116 0.0
H1013 H 0.52341 0.30661 0.87087 0.0
H1014 H 0.5227 0.3359 0.82485 0.0
H1015 H 0.46827 0.35789 0.77445 0.0
H1016 H 0.47076 0.45195 0.73182 0.0
H1017 H 0.46864 0.42092 0.76742 0.0
C1018 C 0.1882 0.47446 0.90385 0.0
C1019 C 0.19863 0.49034 0.9004 0.0
C1020 C 0.17135 0.47336 0.87674 0.0
C1021 C 0.14176 0.49616 0.76929 0.0
H1022 H 0.10289 0.47537 0.8588 0.0
C1023 C 0.06641 0.51037 0.72127 0.0
C1024 C 0.05395 0.49608 0.72675 0.0
C1025 C 0.08441 0.50824 0.73831 0.0
C1026 C 0.1136 0.481 0.83282 0.0
H1027 H 0.19997 0.51708 0.86256 0.0
H1028 H 0.17059 0.51533 0.81628 0.0
H1029 H 0.13387 0.47381 0.89379 0.0
H1030 H 0.05083 0.46825 0.7546 0.0
H1031 H 0.08226 0.46456 0.78455 0.0
H1032 H 0.12137 0.50373 0.70898 0.0
C1033 C 0.17538 0.50364 0.83965 0.0
C1034 C 0.13142 0.48007 0.85284 0.0
C1035 C 0.19221 0.50472 0.86669 0.0
C1036 C 0.06001 0.47957 0.74981 0.0
C1037 C 0.07803 0.47747 0.76721 0.0
C1038 C 0.12393 0.49715 0.74939 0.0
C1039 C 0.16451 0.48811 0.84541 0.0
C1040 C 0.14574 0.48783 0.8217 0.0
C1041 C 0.09047 0.49178 0.76166 0.0
C1042 C 0.10958 0.48978 0.78122 0.0
H1043 H 0.19264 0.46317 0.92975 0.0
H1044 H 0.16351 0.46107 0.88135 0.0
H1045 H 0.15242 0.50201 0.74362 0.0
H1046 H 0.06227 0.52332 0.70402 0.0
H1047 H 0.09352 0.51964 0.73416 0.0
C1048 C 0.00638 0.80975 0.47925 0.0
C1049 C 0.99613 0.80513 0.43098 0.0
C1050 C 0.00335 0.82606 0.50791 0.0
C1051 C 0.98589 0.87197 0.48142 0.0
H1052 H 0.98964 0.8772 0.64504 0.0
C1053 C 0.97517 0.9412 0.58973 0.0
C1054 C 0.9866 0.94578 0.6353 0.0
C1055 C 0.97495 0.92361 0.56782 0.0
C1056 C 0.98874 0.87603 0.59923 0.0
H1057 H 0.97413 0.81382 0.37646 0.0
H1058 H 0.96868 0.8422 0.42686 0.0
H1059 H 0.99115 0.84711 0.60246 0.0
H1060 H 0.00669 0.93522 0.69386 0.0
H1061 H 0.00657 0.90464 0.65499 0.0
H1062 H 0.9839 0.90081 0.47775 0.0
C1063 C 0.97923 0.83326 0.44217 0.0
C1064 C 0.98955 0.85874 0.57483 0.0
C1065 C 0.9822 0.81687 0.41368 0.0
C1066 C 0.99763 0.93219 0.65895 0.0
C1067 C 0.9975 0.91459 0.63676 0.0
C1068 C 0.98517 0.88923 0.50574 0.0
C1069 C 0.99003 0.83825 0.4889 0.0
C1070 C 0.9882 0.85649 0.51555 0.0
C1071 C 0.98626 0.91008 0.59052 0.0
C1072 C 0.98664 0.89154 0.56499 0.0
H1073 H 0.01712 0.80094 0.49399 0.0
H1074 H 0.01199 0.82946 0.54351 0.0
H1075 H 0.98517 0.87081 0.43556 0.0
H1076 H 0.96637 0.95124 0.57066 0.0
H1077 H 0.96584 0.92062 0.53301 0.0
C1078 C 0.68401 1.0006 0.48419 0.0
C1079 C 0.68873 0.98538 0.45153 0.0
C1080 C 0.66735 1.00136 0.51256 0.0
C1081 C 0.62141 0.9817 0.50385 0.0
H1082 H 0.61405 0.0059 0.64818 0.0
C1083 C 0.55138 0.98327 0.61223 0.0
C1084 C 0.54581 0.99971 0.63675 0.0
C1085 C 0.56923 0.98087 0.59392 0.0
C1086 C 0.61586 0.99923 0.6076 0.0
H1087 H 0.68014 0.95853 0.42639 0.0
H1088 H 0.65127 0.9597 0.47649 0.0
H1089 H 0.64467 1.00245 0.61052 0.0
H1090 H 0.55493 0.02642 0.66214 0.0
H1091 H 0.586 0.02227 0.62968 0.0
H1092 H 0.59267 0.97862 0.50048 0.0
C1093 C 0.66021 0.97128 0.47899 0.0
C1094 C 0.63343 0.99723 0.58601 0.0
C1095 C 0.67681 0.97056 0.4505 0.0
C1096 C 0.55869 0.01358 0.64339 0.0
C1097 C 0.57657 0.01116 0.62509 0.0
C1098 C 0.60389 0.98367 0.52542 0.0
C1099 C 0.65502 0.98689 0.50911 0.0
C1100 C 0.63644 0.98847 0.53374 0.0
C1101 C 0.58204 0.99483 0.59959 0.0
C1102 C 0.60085 0.99249 0.5775 0.0
H1103 H 0.69276 0.01235 0.48532 0.0
H1104 H 0.6638 0.01366 0.5349 0.0
H1105 H 0.6231 0.97523 0.46289 0.0
H1106 H 0.54192 0.97223 0.60669 0.0
H1107 H 0.57301 0.96801 0.57536 0.0
C1108 C 0.49832 0.69756 0.45391 0.0
C1109 C 0.5153 0.70424 0.43706 0.0
C1110 C 0.49688 0.6809 0.48196 0.0
C1111 C 0.52144 0.64633 0.5643 0.0
H1112 H 0.48894 0.61235 0.49117 0.0
C1113 C 0.50526 0.57371 0.65016 0.0
C1114 C 0.50754 0.55986 0.60975 0.0
C1115 C 0.50591 0.59195 0.63364 0.0
C1116 C 0.49801 0.62172 0.51217 0.0
H1117 H 0.54415 0.69916 0.43912 0.0
H1118 H 0.54167 0.67018 0.48941 0.0
H1119 H 0.49058 0.64357 0.45692 0.0
H1120 H 0.51198 0.55438 0.52018 0.0
H1121 H 0.51266 0.58611 0.49144 0.0
H1122 H 0.52885 0.62434 0.61955 0.0
C1123 C 0.52947 0.6778 0.48049 0.0
C1124 C 0.49886 0.63961 0.49285 0.0
C1125 C 0.53089 0.69434 0.45157 0.0
C1126 C 0.51027 0.56467 0.55249 0.0
C1127 C 0.51057 0.58284 0.5359 0.0
C1128 C 0.52033 0.62848 0.58438 0.0
C1129 C 0.51241 0.67067 0.49458 0.0
C1130 C 0.51074 0.65206 0.51821 0.0
C1131 C 0.50844 0.59668 0.57625 0.0
C1132 C 0.50879 0.61593 0.55792 0.0
H1133 H 0.48605 0.70475 0.44278 0.0
H1134 H 0.48357 0.67578 0.49262 0.0
H1135 H 0.53069 0.65566 0.5847 0.0
H1136 H 0.50311 0.57046 0.69459 0.0
H1137 H 0.50414 0.60236 0.66555 0.0
C1138 C 0.80779 0.50117 0.45748 0.0
C1139 C 0.80544 0.51388 0.41349 0.0
C1140 C 0.82344 0.5014 0.49118 0.0
C1141 C 0.86428 0.52916 0.52703 0.0
H1142 H 0.88639 0.48233 0.55394 0.0
C1143 C 0.94034 0.52051 0.576 0.0
C1144 C 0.94542 0.50793 0.618 0.0
C1145 C 0.92235 0.52177 0.55796 0.0
C1146 C 0.8803 0.4955 0.54747 0.0
H1147 H 0.81712 0.53758 0.37329 0.0
H1148 H 0.84443 0.53774 0.43069 0.0
H1149 H 0.85626 0.48397 0.51223 0.0
H1150 H 0.93546 0.48672 0.67381 0.0
H1151 H 0.90408 0.48884 0.64185 0.0
H1152 H 0.88865 0.54065 0.56054 0.0
C1153 C 0.83423 0.52763 0.43972 0.0
C1154 C 0.86296 0.49647 0.52371 0.0
C1155 C 0.8186 0.52743 0.40628 0.0
C1156 C 0.93203 0.49662 0.64152 0.0
C1157 C 0.91405 0.49776 0.62301 0.0
C1158 C 0.88167 0.52819 0.55036 0.0
C1159 C 0.83711 0.51433 0.48169 0.0
C1160 C 0.8548 0.51332 0.51233 0.0
C1161 C 0.909 0.51036 0.58103 0.0
C1162 C 0.89 0.51136 0.56009 0.0
H1163 H 0.79799 0.49048 0.46407 0.0
H1164 H 0.82501 0.49115 0.52377 0.0
H1165 H 0.85834 0.54237 0.52001 0.0
H1166 H 0.95026 0.52944 0.55697 0.0
H1167 H 0.91896 0.53146 0.52502 0.0
loop_
_geom_bond_atom_site_label_1
_geom_bond_atom_site_label_2
_geom_bond_distance
_geom_bond_site_symmetry_2
_ccdc_geom_bond_type
C0 C1 1.384 . S
C0 H13 0.947 . S
C0 C35 1.382 . S
C1 C0 1.384 . S
C1 C2 1.378 . S
C2 C1 1.378 . S
C2 C3 1.378 . S
C2 H14 0.952 . S
C3 C2 1.378 . S
C3 H15 0.950 . S
C3 C34 1.383 . S
H4 C23 0.947 . S
H5 C24 0.946 . S
H6 C26 0.953 . S
H7 C27 0.945 . S
H8 C29 0.952 . S
H9 C30 0.949 . S
H10 C32 0.950 . S
H11 C33 0.948 . S
H12 C35 0.951 . S
H13 C0 0.947 . S
H14 C2 0.952 . S
H15 C3 0.950 . S
N16 C19 1.382 . S
N16 C21 1.363 . S
N17 C19 1.371 . S
N17 C20 1.372 . S
N18 C20 1.361 . S
N18 C21 1.377 . S
C19 N16 1.382 . S
C19 N17 1.371 . S
C19 C22 1.480 . S
C20 N17 1.372 . S
C20 N18 1.361 . S
C20 C28 1.457 . S
C21 N16 1.363 . S
C21 N18 1.377 . S
C21 C34 1.479 . S
C22 C19 1.480 . S
C22 C23 1.383 . S
C22 C27 1.385 . S
C23 H4 0.947 . S
C23 C22 1.383 . S
C23 C24 1.388 . S
C24 H5 0.946 . S
C24 C23 1.388 . S
C24 C25 1.384 . S
C25 C24 1.384 . S
C25 C26 1.377 . S
C26 H6 0.953 . S
C26 C25 1.377 . S
C26 C27 1.369 . S
C27 H7 0.945 . S
C27 C22 1.385 . S
C27 C26 1.369 . S
C28 C20 1.457 . S
C28 C29 1.372 . S
C28 C33 1.364 . S
C29 H8 0.952 . S
C29 C28 1.372 . S
C29 C30 1.389 . S
C30 H9 0.949 . S
C30 C29 1.389 . S
C30 C31 1.387 . S
C31 C30 1.387 . S
C31 C32 1.372 . S
C32 H10 0.950 . S
C32 C31 1.372 . S
C32 C33 1.379 . S
C33 H11 0.948 . S
C33 C28 1.364 . S
C33 C32 1.379 . S
C34 C3 1.383 . S
C34 C21 1.479 . S
C34 C35 1.398 . S
C35 C0 1.382 . S
C35 H12 0.951 . S
C35 C34 1.398 . S
C36 C37 1.381 1_655 S
C36 H49 0.948 . S
C36 C71 1.382 1_655 S
C37 C36 1.381 1_455 S
C37 C38 1.387 . S
C38 C37 1.387 . S
C38 C39 1.378 . S
C38 H50 0.952 . S
C39 C38 1.378 . S
C39 H51 0.950 . S
C39 C70 1.383 . S
H40 C59 0.947 . S
H41 C60 0.952 . S
H42 C62 0.953 . S
H43 C63 0.945 . S
H44 C65 0.949 1_655 S
H45 C66 0.956 . S
H46 C68 0.950 . S
H47 C69 0.948 . S
H48 C71 0.952 1_655 S
H49 C36 0.948 . S
H50 C38 0.952 . S
H51 C39 0.950 . S
N52 C55 1.382 . S
N52 C57 1.363 . S
N53 C55 1.371 . S
N53 C56 1.372 . S
N54 C56 1.361 . S
N54 C57 1.377 . S
C55 N52 1.382 . S
C55 N53 1.371 . S
C55 C58 1.480 . S
C56 N53 1.372 . S
C56 N54 1.361 . S
C56 C64 1.457 . S
C57 N52 1.363 . S
C57 N54 1.377 . S
C57 C70 1.479 . S
C58 C55 1.480 . S
C58 C59 1.383 . S
C58 C63 1.385 . S
C59 H40 0.947 . S
C59 C58 1.383 . S
C59 C60 1.386 1_455 S
C60 H41 0.952 . S
C60 C59 1.386 1_655 S
C60 C61 1.381 1_655 S
C61 C60 1.381 1_455 S
C61 C62 1.377 . S
C62 H42 0.953 . S
C62 C61 1.377 . S
C62 C63 1.369 . S
C63 H43 0.945 . S
C63 C58 1.385 . S
C63 C62 1.369 . S
C64 C56 1.457 . S
C64 C65 1.376 . S
C64 C69 1.364 . S
C65 H44 0.949 1_455 S
C65 C64 1.376 . S
C65 C66 1.387 1_455 S
C66 H45 0.956 . S
C66 C65 1.387 1_655 S
C66 C67 1.383 1_655 S
C67 C66 1.383 1_455 S
C67 C68 1.372 . S
C68 H46 0.950 . S
C68 C67 1.372 . S
C68 C69 1.379 . S
C69 H47 0.948 . S
C69 C64 1.364 . S
C69 C68 1.379 . S
C70 C39 1.383 . S
C70 C57 1.479 . S
C70 C71 1.398 . S
C71 C36 1.382 1_455 S
C71 H48 0.952 1_455 S
C71 C70 1.398 . S
C72 C73 1.381 1_565 S
C72 H85 0.948 . S
C72 C107 1.382 1_565 S
C73 C72 1.381 1_545 S
C73 C74 1.387 . S
C74 C73 1.387 . S
C74 C75 1.378 . S
C74 H86 0.952 . S
C75 C74 1.378 . S
C75 H87 0.950 . S
C75 C106 1.383 . S
H76 C95 0.947 . S
H77 C96 0.952 . S
H78 C98 0.953 . S
H79 C99 0.945 . S
H80 C101 0.949 1_565 S
H81 C102 0.956 . S
H82 C104 0.950 . S
H83 C105 0.948 . S
H84 C107 0.952 1_565 S
H85 C72 0.948 . S
H86 C74 0.952 . S
H87 C75 0.950 . S
N88 C91 1.382 . S
N88 C93 1.363 . S
N89 C91 1.371 . S
N89 C92 1.372 . S
N90 C92 1.361 . S
N90 C93 1.377 . S
C91 N88 1.382 . S
C91 N89 1.371 . S
C91 C94 1.480 . S
C92 N89 1.372 . S
C92 N90 1.361 . S
C92 C100 1.457 . S
C93 N88 1.363 . S
C93 N90 1.377 . S
C93 C106 1.479 . S
C94 C91 1.480 . S
C94 C95 1.383 . S
C94 C99 1.385 . S
C95 H76 0.947 . S
C95 C94 1.383 . S
C95 C96 1.386 1_545 S
C96 H77 0.952 . S
C96 C95 1.386 1_565 S
C96 C97 1.381 1_565 S
C97 C96 1.381 1_545 S
C97 C98 1.377 . S
C98 H78 0.953 . S
C98 C97 1.377 . S
C98 C99 1.369 . S
C99 H79 0.945 . S
C99 C94 1.385 . S
C99 C98 1.369 . S
C100 C92 1.457 . S
C100 C101 1.376 . S
C100 C105 1.364 . S
C101 H80 0.949 1_545 S
C101 C100 1.376 . S
C101 C102 1.386 1_545 S
C102 H81 0.956 . S
C102 C101 1.386 1_565 S
C102 C103 1.383 1_565 S
C103 C102 1.383 1_545 S
C103 C104 1.372 . S
C104 H82 0.950 . S
C104 C103 1.372 . S
C104 C105 1.379 . S
C105 H83 0.948 . S
C105 C100 1.364 . S
C105 C104 1.379 . S
C106 C75 1.383 . S
C106 C93 1.479 . S
C106 C107 1.398 . S
C107 C72 1.382 1_545 S
C107 H84 0.952 1_545 S
C107 C106 1.398 . S
C108 C109 1.384 . S
C108 H121 0.947 . S
C108 C143 1.382 . S
C109 C108 1.384 . S
C109 C110 1.378 . S
C110 C109 1.378 . S
C110 C111 1.378 . S
C110 H122 0.952 . S
C111 C110 1.378 . S
C111 H123 0.950 . S
C111 C142 1.383 . S
H112 C131 0.947 . S
H113 C132 0.946 . S
H114 C134 0.953 . S
H115 C135 0.945 . S
H116 C137 0.952 . S
H117 C138 0.949 . S
H118 C140 0.950 . S
H119 C141 0.948 . S
H120 C143 0.951 . S
H121 C108 0.947 . S
H122 C110 0.952 . S
H123 C111 0.950 . S
N124 C127 1.382 . S
N124 C129 1.363 . S
N125 C127 1.371 . S
N125 C128 1.372 . S
N126 C128 1.361 . S
N126 C129 1.377 . S
C127 N124 1.382 . S
C127 N125 1.371 . S
C127 C130 1.480 . S
C128 N125 1.372 . S
C128 N126 1.361 . S
C128 C136 1.457 . S
C129 N124 1.363 . S
C129 N126 1.377 . S
C129 C142 1.479 . S
C130 C127 1.480 . S
C130 C131 1.383 . S
C130 C135 1.385 . S
C131 H112 0.947 . S
C131 C130 1.383 . S
C131 C132 1.388 . S
C132 H113 0.946 . S
C132 C131 1.388 . S
C132 C133 1.384 . S
C133 C132 1.384 . S
C133 C134 1.377 . S
C134 H114 0.953 . S
C134 C133 1.377 . S
C134 C135 1.369 . S
C135 H115 0.945 . S
C135 C130 1.385 . S
C135 C134 1.369 . S
C136 C128 1.457 . S
C136 C137 1.372 . S
C136 C141 1.364 . S
C137 H116 0.952 . S
C137 C136 1.372 . S
C137 C138 1.389 . S
C138 H117 0.949 . S
C138 C137 1.389 . S
C138 C139 1.387 . S
C139 C138 1.387 . S
C139 C140 1.372 . S
C140 H118 0.950 . S
C140 C139 1.372 . S
C140 C141 1.379 . S
C141 H119 0.948 . S
C141 C136 1.364 . S
C141 C140 1.379 . S
C142 C111 1.383 . S
C142 C129 1.479 . S
C142 C143 1.398 . S
C143 C108 1.382 . S
C143 H120 0.951 . S
C143 C142 1.398 . S
C144 C145 1.384 . S
C144 H157 0.947 . S
C144 C179 1.382 . S
C145 C144 1.384 . S
C145 C146 1.378 . S
C146 C145 1.378 . S
C146 C147 1.378 . S
C146 H158 0.952 . S
C147 C146 1.378 . S
C147 H159 0.950 . S
C147 C178 1.383 . S
H148 C167 0.947 1_556 S
H149 C168 0.946 . S
H150 C170 0.953 . S
H151 C171 0.945 . S
H152 C173 0.952 . S
H153 C174 0.949 . S
H154 C176 0.950 . S
H155 C177 0.948 . S
H156 C179 0.951 . S
H157 C144 0.947 . S
H158 C146 0.952 . S
H159 C147 0.950 . S
N160 C163 1.382 . S
N160 C165 1.363 1_554 S
N161 C163 1.371 . S
N161 C164 1.372 . S
N162 C164 1.361 . S
N162 C165 1.377 1_554 S
C163 N160 1.382 . S
C163 N161 1.371 . S
C163 C166 1.480 . S
C164 N161 1.372 . S
C164 N162 1.361 . S
C164 C172 1.457 . S
C165 N160 1.363 1_556 S
C165 N162 1.377 1_556 S
C165 C178 1.479 . S
C166 C163 1.480 . S
C166 C167 1.383 . S
C166 C171 1.385 . S
C167 H148 0.947 1_554 S
C167 C166 1.383 . S
C167 C168 1.388 . S
C168 H149 0.946 . S
C168 C167 1.388 . S
C168 C169 1.384 . S
C169 C168 1.384 . S
C169 C170 1.377 . S
C170 H150 0.953 . S
C170 C169 1.377 . S
C170 C171 1.369 . S
C171 H151 0.945 . S
C171 C166 1.385 . S
C171 C170 1.369 . S
C172 C164 1.457 . S
C172 C173 1.372 . S
C172 C177 1.364 . S
C173 H152 0.952 . S
C173 C172 1.372 . S
C173 C174 1.389 . S
C174 H153 0.949 . S
C174 C173 1.389 . S
C174 C175 1.387 . S
C175 C174 1.387 . S
C175 C176 1.372 . S
C176 H154 0.950 . S
C176 C175 1.372 . S
C176 C177 1.379 . S
C177 H155 0.948 . S
C177 C172 1.364 . S
C177 C176 1.379 . S
C178 C147 1.383 . S
C178 C165 1.479 . S
C178 C179 1.398 . S
C179 C144 1.382 . S
C179 H156 0.951 . S
C179 C178 1.398 . S
C180 C181 1.384 . S
C180 H193 0.948 1_455 S
C180 C215 1.382 . S
C181 C180 1.384 . S
C181 C182 1.378 . S
C182 C181 1.378 . S
C182 C183 1.378 . S
C182 H194 0.952 . S
C183 C182 1.378 . S
C183 H195 0.950 . S
C183 C214 1.383 . S
H184 C203 0.947 1_556 S
H185 C204 0.948 . S
H186 C206 0.953 . S
H187 C207 0.945 . S
H188 C209 0.947 1_655 S
H189 C210 0.954 . S
H190 C212 0.950 . S
H191 C213 0.948 . S
H192 C215 0.950 1_655 S
H193 C180 0.948 1_655 S
H194 C182 0.952 . S
H195 C183 0.950 . S
N196 C199 1.382 . S
N196 C201 1.363 1_554 S
N197 C199 1.371 . S
N197 C200 1.372 . S
N198 C200 1.361 . S
N198 C201 1.377 1_554 S
C199 N196 1.382 . S
C199 N197 1.371 . S
C199 C202 1.480 . S
C200 N197 1.372 . S
C200 N198 1.361 . S
C200 C208 1.457 . S
C201 N196 1.363 1_556 S
C201 N198 1.377 1_556 S
C201 C214 1.479 . S
C202 C199 1.480 . S
C202 C203 1.383 . S
C202 C207 1.385 . S
C203 H184 0.947 1_554 S
C203 C202 1.383 . S
C203 C204 1.387 1_455 S
C204 H185 0.948 . S
C204 C203 1.387 1_655 S
C204 C205 1.383 1_655 S
C205 C204 1.383 1_455 S
C205 C206 1.377 . S
C206 H186 0.953 . S
C206 C205 1.377 . S
C206 C207 1.369 . S
C207 H187 0.945 . S
C207 C202 1.385 . S
C207 C206 1.369 . S
C208 C200 1.457 . S
C208 C209 1.379 . S
C208 C213 1.364 . S
C209 H188 0.947 1_455 S
C209 C208 1.379 . S
C209 C210 1.387 1_455 S
C210 H189 0.954 . S
C210 C209 1.387 1_655 S
C210 C211 1.384 1_655 S
C211 C210 1.384 1_455 S
C211 C212 1.372 . S
C212 H190 0.950 . S
C212 C211 1.372 . S
C212 C213 1.379 . S
C213 H191 0.948 . S
C213 C208 1.364 . S
C213 C212 1.379 . S
C214 C183 1.383 . S
C214 C201 1.479 . S
C214 C215 1.399 . S
C215 C180 1.382 . S
C215 H192 0.950 1_455 S
C215 C214 1.399 . S
C216 C217 1.384 . S
C216 H229 0.948 1_545 S
C216 C251 1.382 . S
C217 C216 1.384 . S
C217 C218 1.378 . S
C218 C217 1.378 . S
C218 C219 1.378 . S
C218 H230 0.952 . S
C219 C218 1.378 . S
C219 H231 0.950 . S
C219 C250 1.383 . S
H220 C239 0.947 1_556 S
H221 C240 0.948 . S
H222 C242 0.953 . S
H223 C243 0.945 . S
H224 C245 0.947 1_565 S
H225 C246 0.953 . S
H226 C248 0.950 . S
H227 C249 0.948 . S
H228 C251 0.950 1_565 S
H229 C216 0.948 1_565 S
H230 C218 0.952 . S
H231 C219 0.950 . S
N232 C235 1.382 . S
N232 C237 1.363 1_554 S
N233 C235 1.371 . S
N233 C236 1.372 . S
N234 C236 1.361 . S
N234 C237 1.377 1_554 S
C235 N232 1.382 . S
C235 N233 1.371 . S
C235 C238 1.480 . S
C236 N233 1.372 . S
C236 N234 1.361 . S
C236 C244 1.457 . S
C237 N232 1.363 1_556 S
C237 N234 1.377 1_556 S
C237 C250 1.479 . S
C238 C235 1.480 . S
C238 C239 1.383 . S
C238 C243 1.385 . S
C239 H220 0.947 1_554 S
C239 C238 1.383 . S
C239 C240 1.387 1_545 S
C240 H221 0.948 . S
C240 C239 1.387 1_565 S
C240 C241 1.383 1_565 S
C241 C240 1.383 1_545 S
C241 C242 1.377 . S
C242 H222 0.953 . S
C242 C241 1.377 . S
C242 C243 1.369 . S
C243 H223 0.945 . S
C243 C238 1.385 . S
C243 C242 1.369 . S
C244 C236 1.457 . S
C244 C245 1.379 . S
C244 C249 1.364 . S
C245 H224 0.947 1_545 S
C245 C244 1.379 . S
C245 C246 1.387 1_545 S
C246 H225 0.953 . S
C246 C245 1.387 1_565 S
C246 C247 1.384 1_565 S
C247 C246 1.384 1_545 S
C247 C248 1.372 . S
C248 H226 0.950 . S
C248 C247 1.372 . S
C248 C249 1.379 . S
C249 H227 0.948 . S
C249 C244 1.364 . S
C249 C248 1.379 . S
C250 C219 1.383 . S
C250 C237 1.479 . S
C250 C251 1.399 . S
C251 C216 1.382 . S
C251 H228 0.950 1_545 S
C251 C250 1.399 . S
C252 C253 1.384 . S
C252 H265 0.947 . S
C252 C287 1.382 . S
C253 C252 1.384 . S
C253 C254 1.378 . S
C254 C253 1.378 . S
C254 C255 1.378 . S
C254 H266 0.952 . S
C255 C254 1.378 . S
C255 H267 0.950 . S
C255 C286 1.383 . S
H256 C275 0.947 . S
H257 C276 0.946 . S
H258 C278 0.953 . S
H259 C279 0.945 1_556 S
H260 C281 0.952 . S
H261 C282 0.949 . S
H262 C284 0.950 . S
H263 C285 0.948 . S
H264 C287 0.951 . S
H265 C252 0.947 . S
H266 C254 0.952 . S
H267 C255 0.950 . S
N268 C271 1.382 . S
N268 C273 1.363 . S
N269 C271 1.371 . S
N269 C272 1.372 1_554 S
N270 C272 1.361 1_554 S
N270 C273 1.377 . S
C271 N268 1.382 . S
C271 N269 1.371 . S
C271 C274 1.480 . S
C272 N269 1.372 1_556 S
C272 N270 1.361 1_556 S
C272 C280 1.457 . S
C273 N268 1.363 . S
C273 N270 1.377 . S
C273 C286 1.479 . S
C274 C271 1.480 . S
C274 C275 1.383 . S
C274 C279 1.385 . S
C275 H256 0.947 . S
C275 C274 1.383 . S
C275 C276 1.388 . S
C276 H257 0.946 . S
C276 C275 1.388 . S
C276 C277 1.384 . S
C277 C276 1.384 . S
C277 C278 1.377 . S
C278 H258 0.953 . S
C278 C277 1.377 . S
C278 C279 1.369 . S
C279 H259 0.945 1_554 S
C279 C274 1.385 . S
C279 C278 1.369 . S
C280 C272 1.457 . S
C280 C281 1.372 . S
C280 C285 1.364 . S
C281 H260 0.952 . S
C281 C280 1.372 . S
C281 C282 1.389 . S
C282 H261 0.949 . S
C282 C281 1.389 . S
C282 C283 1.387 . S
C283 C282 1.387 . S
C283 C284 1.372 . S
C284 H262 0.950 . S
C284 C283 1.372 . S
C284 C285 1.379 . S
C285 H263 0.948 . S
C285 C280 1.364 . S
C285 C284 1.379 . S
C286 C255 1.383 . S
C286 C273 1.479 . S
C286 C287 1.398 . S
C287 C252 1.382 . S
C287 H264 0.951 . S
C287 C286 1.398 . S
Tb288 C298 2.825 . S
Tb288 O299 2.347 1_455 S
Tb288 O302 2.366 . S
Tb288 O307 2.418 . S
Tb288 O308 2.384 1_565 S
Tb288 O311 2.479 . S
Tb288 O312 2.471 . S
Eu289 O300 2.418 . S
Eu289 O301 2.384 1_545 S
Eu289 O304 2.479 . S
Eu289 O305 2.471 . S
Eu289 O306 2.347 1_655 S
Eu289 O309 2.366 . S
Eu289 C319 2.825 . S
C290 O306 1.259 1_565 S
C290 O307 1.265 . S
C291 O308 1.255 . S
C291 O309 1.265 1_455 S
C292 C294 1.380 . S
C292 C295 1.374 . S
C292 C298 1.507 . S
C293 C294 1.384 . S
C293 C297 1.387 . S
C293 H320 0.930 . S
C294 C292 1.380 . S
C294 C293 1.384 . S
C294 H321 0.931 . S
C295 C292 1.374 . S
C295 C296 1.390 . S
C295 H322 0.930 1_455 S
C296 C295 1.390 . S
C296 C297 1.391 . S
C296 H323 0.930 1_455 S
C297 C293 1.387 . S
C297 C296 1.391 . S
C298 Tb288 2.825 . S
C298 C292 1.507 . S
C298 O311 1.238 . S
C298 O312 1.247 . S
O299 Tb288 2.347 1_655 S
O299 C303 1.259 1_565 S
O300 Eu289 2.418 . S
O300 C303 1.265 . S
O301 Eu289 2.384 1_565 S
O301 C310 1.255 . S
O302 Tb288 2.366 . S
O302 C310 1.265 1_455 S
C303 O299 1.259 1_545 S
C303 O300 1.265 . S
O304 Eu289 2.479 . S
O304 C319 1.238 . S
O305 Eu289 2.471 . S
O305 C319 1.247 . S
O306 Eu289 2.347 1_455 S
O306 C290 1.259 1_545 S
O307 Tb288 2.418 . S
O307 C290 1.265 . S
O308 Tb288 2.384 1_545 S
O308 C291 1.255 . S
O309 Eu289 2.366 . S
O309 C291 1.265 1_655 S
C310 O301 1.255 . S
C310 O302 1.265 1_655 S
O311 Tb288 2.479 . S
O311 C298 1.238 . S
O312 Tb288 2.471 . S
O312 C298 1.247 . S
C313 C316 1.380 . S
C313 C317 1.374 . S
C313 C319 1.507 . S
C314 C315 1.387 . S
C314 C318 1.391 . S
C315 C314 1.387 . S
C315 C316 1.384 . S
C315 H324 0.930 . S
C316 C313 1.380 . S
C316 C315 1.384 . S
C316 H325 0.931 . S
C317 C313 1.374 . S
C317 C318 1.390 . S
C317 H326 0.930 1_655 S
C318 C314 1.391 . S
C318 C317 1.390 . S
C318 H327 0.930 1_655 S
C319 Eu289 2.825 . S
C319 O304 1.238 . S
C319 O305 1.247 . S
C319 C313 1.507 . S
H320 C293 0.930 . S
H321 C294 0.931 . S
H322 C295 0.930 1_655 S
H323 C296 0.930 1_655 S
H324 C315 0.930 . S
H325 C316 0.931 . S
H326 C317 0.930 1_455 S
H327 C318 0.930 1_455 S
Tb328 C338 2.825 . S
Tb328 O339 2.347 1_545 S
Tb328 O342 2.366 . S
Tb328 O347 2.418 . S
Tb328 O348 2.384 . S
Tb328 O351 2.479 . S
Tb328 O352 2.471 . S
Eu329 O340 2.418 . S
Eu329 O341 2.384 . S
Eu329 O344 2.479 . S
Eu329 O345 2.471 . S
Eu329 O346 2.347 1_565 S
Eu329 O349 2.366 . S
Eu329 C359 2.825 . S
C330 O346 1.259 . S
C330 O347 1.265 . S
C331 O348 1.255 . S
C331 O349 1.265 1_545 S
C332 C334 1.380 . S
C332 C335 1.374 . S
C332 C338 1.507 . S
C333 C334 1.384 . S
C333 C337 1.387 . S
C333 H360 0.930 . S
C334 C332 1.380 . S
C334 C333 1.384 . S
C334 H361 0.931 . S
C335 C332 1.374 . S
C335 C336 1.390 . S
C335 H362 0.930 1_545 S
C336 C335 1.390 . S
C336 C337 1.391 . S
C336 H363 0.930 1_545 S
C337 C333 1.387 . S
C337 C336 1.391 . S
C338 Tb328 2.825 . S
C338 C332 1.507 . S
C338 O351 1.238 . S
C338 O352 1.247 . S
O339 Tb328 2.347 1_565 S
O339 C343 1.259 . S
O340 Eu329 2.418 . S
O340 C343 1.265 . S
O341 Eu329 2.384 . S
O341 C350 1.255 . S
O342 Tb328 2.366 . S
O342 C350 1.265 1_545 S
C343 O339 1.259 . S
C343 O340 1.265 . S
O344 Eu329 2.479 . S
O344 C359 1.238 . S
O345 Eu329 2.471 . S
O345 C359 1.247 . S
O346 Eu329 2.347 1_545 S
O346 C330 1.259 . S
O347 Tb328 2.418 . S
O347 C330 1.265 . S
O348 Tb328 2.384 . S
O348 C331 1.255 . S
O349 Eu329 2.366 . S
O349 C331 1.265 1_565 S
C350 O341 1.255 . S
C350 O342 1.265 1_565 S
O351 Tb328 2.479 . S
O351 C338 1.238 . S
O352 Tb328 2.471 . S
O352 C338 1.247 . S
C353 C356 1.380 . S
C353 C357 1.374 . S
C353 C359 1.507 . S
C354 C355 1.387 . S
C354 C358 1.391 . S
C355 C354 1.387 . S
C355 C356 1.384 . S
C355 H364 0.930 . S
C356 C353 1.380 . S
C356 C355 1.384 . S
C356 H365 0.931 . S
C357 C353 1.374 . S
C357 C358 1.390 . S
C357 H366 0.930 1_565 S
C358 C354 1.391 . S
C358 C357 1.390 . S
C358 H367 0.930 1_565 S
C359 Eu329 2.825 . S
C359 O344 1.238 . S
C359 O345 1.247 . S
C359 C353 1.507 . S
H360 C333 0.930 . S
H361 C334 0.931 . S
H362 C335 0.930 1_565 S
H363 C336 0.930 1_565 S
H364 C355 0.930 . S
H365 C356 0.931 . S
H366 C357 0.930 1_545 S
H367 C358 0.930 1_545 S
Tb368 C378 2.825 . S
Tb368 O379 2.347 . S
Tb368 O382 2.366 . S
Tb368 O387 2.418 . S
Tb368 O388 2.384 . S
Tb368 O391 2.479 . S
Tb368 O392 2.471 . S
Eu369 O380 2.418 . S
Eu369 O381 2.384 . S
Eu369 O384 2.479 . S
Eu369 O385 2.471 . S
Eu369 O386 2.347 . S
Eu369 O389 2.366 . S
Eu369 C399 2.825 . S
C370 O386 1.259 . S
C370 O387 1.265 . S
C371 O388 1.255 . S
C371 O389 1.265 . S
C372 C374 1.380 . S
C372 C375 1.374 . S
C372 C378 1.507 . S
C373 C374 1.384 . S
C373 C377 1.387 . S
C373 H400 0.930 . S
C374 C372 1.380 . S
C374 C373 1.384 . S
C374 H401 0.931 . S
C375 C372 1.374 . S
C375 C376 1.390 . S
C375 H402 0.930 . S
C376 C375 1.390 . S
C376 C377 1.391 . S
C376 H403 0.930 . S
C377 C373 1.387 . S
C377 C376 1.391 . S
C378 Tb368 2.825 . S
C378 C372 1.507 . S
C378 O391 1.238 . S
C378 O392 1.247 . S
O379 Tb368 2.347 . S
O379 C383 1.259 . S
O380 Eu369 2.418 . S
O380 C383 1.265 . S
O381 Eu369 2.384 . S
O381 C390 1.255 . S
O382 Tb368 2.366 . S
O382 C390 1.265 . S
C383 O379 1.259 . S
C383 O380 1.265 . S
O384 Eu369 2.479 . S
O384 C399 1.238 . S
O385 Eu369 2.471 . S
O385 C399 1.247 . S
O386 Eu369 2.347 . S
O386 C370 1.259 . S
O387 Tb368 2.418 . S
O387 C370 1.265 . S
O388 Tb368 2.384 . S
O388 C371 1.255 . S
O389 Eu369 2.366 . S
O389 C371 1.265 . S
C390 O381 1.255 . S
C390 O382 1.265 . S
O391 Tb368 2.479 . S
O391 C378 1.238 . S
O392 Tb368 2.471 . S
O392 C378 1.247 . S
C393 C396 1.380 . S
C393 C397 1.374 . S
C393 C399 1.507 . S
C394 C395 1.387 . S
C394 C398 1.391 . S
C395 C394 1.387 . S
C395 C396 1.384 . S
C395 H404 0.930 . S
C396 C393 1.380 . S
C396 C395 1.384 . S
C396 H405 0.931 . S
C397 C393 1.374 . S
C397 C398 1.390 . S
C397 H406 0.930 . S
C398 C394 1.391 . S
C398 C397 1.390 . S
C398 H407 0.930 . S
C399 Eu369 2.825 . S
C399 O384 1.238 . S
C399 O385 1.247 . S
C399 C393 1.507 . S
H400 C373 0.930 . S
H401 C374 0.931 . S
H402 C375 0.930 . S
H403 C376 0.930 . S
H404 C395 0.930 . S
H405 C396 0.931 . S
H406 C397 0.930 . S
H407 C398 0.930 . S
Tb408 C418 2.825 . S
Tb408 O419 2.347 . S
Tb408 O422 2.366 . S
Tb408 O427 2.418 . S
Tb408 O428 2.384 1_655 S
Tb408 O431 2.479 . S
Tb408 O432 2.471 . S
Eu409 O420 2.418 . S
Eu409 O421 2.384 1_455 S
Eu409 O424 2.479 . S
Eu409 O425 2.471 . S
Eu409 O426 2.347 . S
Eu409 O429 2.366 . S
Eu409 C439 2.825 . S
C410 O426 1.259 1_655 S
C410 O427 1.265 . S
C411 O428 1.255 . S
C411 O429 1.265 . S
C412 C414 1.380 . S
C412 C415 1.374 . S
C412 C418 1.507 . S
C413 C414 1.384 . S
C413 C417 1.387 . S
C413 H440 0.930 . S
C414 C412 1.380 . S
C414 C413 1.384 . S
C414 H441 0.931 . S
C415 C412 1.374 . S
C415 C416 1.390 . S
C415 H442 0.930 . S
C416 C415 1.390 . S
C416 C417 1.391 . S
C416 H443 0.930 . S
C417 C413 1.387 . S
C417 C416 1.391 . S
C418 Tb408 2.825 . S
C418 C412 1.507 . S
C418 O431 1.238 . S
C418 O432 1.247 . S
O419 Tb408 2.347 . S
O419 C423 1.259 1_655 S
O420 Eu409 2.418 . S
O420 C423 1.265 . S
O421 Eu409 2.384 1_655 S
O421 C430 1.255 . S
O422 Tb408 2.366 . S
O422 C430 1.265 . S
C423 O419 1.259 1_455 S
C423 O420 1.265 . S
O424 Eu409 2.479 . S
O424 C439 1.238 . S
O425 Eu409 2.471 . S
O425 C439 1.247 . S
O426 Eu409 2.347 . S
O426 C410 1.259 1_455 S
O427 Tb408 2.418 . S
O427 C410 1.265 . S
O428 Tb408 2.384 1_455 S
O428 C411 1.255 . S
O429 Eu409 2.366 . S
O429 C411 1.265 . S
C430 O421 1.255 . S
C430 O422 1.265 . S
O431 Tb408 2.479 . S
O431 C418 1.238 . S
O432 Tb408 2.471 . S
O432 C418 1.247 . S
C433 C436 1.380 . S
C433 C437 1.374 . S
C433 C439 1.507 . S
C434 C435 1.387 . S
C434 C438 1.391 . S
C435 C434 1.387 . S
C435 C436 1.384 . S
C435 H444 0.930 . S
C436 C433 1.380 . S
C436 C435 1.384 . S
C436 H445 0.931 . S
C437 C433 1.374 . S
C437 C438 1.390 . S
C437 H446 0.930 . S
C438 C434 1.391 . S
C438 C437 1.390 . S
C438 H447 0.930 . S
C439 Eu409 2.825 . S
C439 O424 1.238 . S
C439 O425 1.247 . S
C439 C433 1.507 . S
H440 C413 0.930 . S
H441 C414 0.931 . S
H442 C415 0.930 . S
H443 C416 0.930 . S
H444 C435 0.930 . S
H445 C436 0.931 . S
H446 C437 0.930 . S
H447 C438 0.930 . S
C448 C449 1.345 1_565 S
C448 C450 1.327 . S
C448 H473 0.950 . S
C449 C448 1.345 1_545 S
C449 C465 1.352 . S
C450 C448 1.327 . S
C450 C469 1.418 1_565 S
C450 H474 0.950 . S
C451 C468 1.574 . S
C451 C470 1.384 . S
C451 H475 0.949 . S
H452 C456 0.949 . S
C453 C454 1.382 . S
C453 C455 1.327 . S
C453 H476 0.950 . S
C454 C453 1.382 . S
C454 C466 1.316 1_545 S
C455 C453 1.327 . S
C455 C471 1.454 . S
C455 H477 0.950 . S
C456 H452 0.949 . S
C456 C464 1.574 . S
C456 C472 1.346 1_565 S
H457 C465 0.950 . S
H458 C463 0.950 . S
H459 C464 0.949 . S
H460 C466 0.950 . S
H461 C467 0.950 . S
H462 C468 0.949 . S
C463 H458 0.950 . S
C463 C465 1.327 . S
C463 C469 1.439 . S
C464 C456 1.574 . S
C464 H459 0.949 . S
C464 C470 1.353 1_565 S
C465 C449 1.352 . S
C465 H457 0.950 . S
C465 C463 1.327 . S
C466 C454 1.316 1_565 S
C466 H460 0.950 . S
C466 C467 1.327 . S
C467 H461 0.950 . S
C467 C466 1.327 . S
C467 C471 1.404 1_565 S
C468 C451 1.574 . S
C468 H462 0.949 . S
C468 C472 1.391 . S
C469 C450 1.418 1_545 S
C469 C463 1.439 . S
C469 C470 1.523 . S
C470 C451 1.384 . S
C470 C464 1.353 1_545 S
C470 C469 1.523 . S
C471 C455 1.454 . S
C471 C467 1.404 1_545 S
C471 C472 1.523 . S
C472 C456 1.346 1_545 S
C472 C468 1.391 . S
C472 C471 1.523 . S
H473 C448 0.950 . S
H474 C450 0.950 . S
H475 C451 0.949 . S
H476 C453 0.950 . S
H477 C455 0.950 . S
C478 C479 1.349 . S
C478 C480 1.327 . S
C478 H503 0.950 . S
C479 C478 1.349 . S
C479 C495 1.349 . S
C480 C478 1.327 . S
C480 C499 1.429 . S
C480 H504 0.950 . S
C481 C498 1.574 . S
C481 C500 1.368 . S
C481 H505 0.949 . S
H482 C486 0.949 . S
C483 C484 1.349 . S
C483 C485 1.327 . S
C483 H506 0.950 . S
C484 C483 1.349 . S
C484 C496 1.349 . S
C485 C483 1.327 . S
C485 C501 1.429 . S
C485 H507 0.950 . S
C486 H482 0.949 . S
C486 C494 1.574 . S
C486 C502 1.368 . S
H487 C495 0.950 . S
H488 C493 0.950 . S
H489 C494 0.949 . S
H490 C496 0.950 . S
H491 C497 0.950 . S
H492 C498 0.949 . S
C493 H488 0.950 . S
C493 C495 1.327 . S
C493 C499 1.429 . S
C494 C486 1.574 . S
C494 H489 0.949 . S
C494 C500 1.368 . S
C495 C479 1.349 . S
C495 H487 0.950 . S
C495 C493 1.327 . S
C496 C484 1.349 . S
C496 H490 0.950 . S
C496 C497 1.327 . S
C497 H491 0.950 . S
C497 C496 1.327 . S
C497 C501 1.429 . S
C498 C481 1.574 . S
C498 H492 0.949 . S
C498 C502 1.368 . S
C499 C480 1.429 . S
C499 C493 1.429 . S
C499 C500 1.523 . S
C500 C481 1.368 . S
C500 C494 1.368 . S
C500 C499 1.523 . S
C501 C485 1.429 . S
C501 C497 1.429 . S
C501 C502 1.523 . S
C502 C486 1.368 . S
C502 C498 1.368 . S
C502 C501 1.523 . S
H503 C478 0.950 . S
H504 C480 0.950 . S
H505 C481 0.949 . S
H506 C483 0.950 . S
H507 C485 0.950 . S
C508 C509 1.349 . S
C508 C510 1.327 . S
C508 H533 0.950 . S
C509 C508 1.349 . S
C509 C525 1.349 . S
C510 C508 1.327 . S
C510 C529 1.429 . S
C510 H534 0.950 . S
C511 C528 1.574 . S
C511 C530 1.368 . S
C511 H535 0.949 . S
H512 C516 0.949 . S
C513 C514 1.349 . S
C513 C515 1.327 . S
C513 H536 0.950 . S
C514 C513 1.349 . S
C514 C526 1.349 . S
C515 C513 1.327 . S
C515 C531 1.429 . S
C515 H537 0.950 . S
C516 H512 0.949 . S
C516 C524 1.574 . S
C516 C532 1.368 . S
H517 C525 0.950 . S
H518 C523 0.950 . S
H519 C524 0.949 . S
H520 C526 0.950 . S
H521 C527 0.950 . S
H522 C528 0.949 . S
C523 H518 0.950 . S
C523 C525 1.327 . S
C523 C529 1.429 . S
C524 C516 1.574 . S
C524 H519 0.949 . S
C524 C530 1.368 . S
C525 C509 1.349 . S
C525 H517 0.950 . S
C525 C523 1.327 . S
C526 C514 1.349 . S
C526 H520 0.950 . S
C526 C527 1.327 . S
C527 H521 0.950 . S
C527 C526 1.327 . S
C527 C531 1.429 . S
C528 C511 1.574 . S
C528 H522 0.949 . S
C528 C532 1.368 . S
C529 C510 1.429 . S
C529 C523 1.429 . S
C529 C530 1.523 . S
C530 C511 1.368 . S
C530 C524 1.368 . S
C530 C529 1.523 . S
C531 C515 1.429 . S
C531 C527 1.429 . S
C531 C532 1.523 . S
C532 C516 1.368 . S
C532 C528 1.368 . S
C532 C531 1.523 . S
H533 C508 0.950 . S
H534 C510 0.950 . S
H535 C511 0.949 . S
H536 C513 0.950 . S
H537 C515 0.950 . S
C538 C539 1.345 1_655 S
C538 C540 1.327 . S
C538 H563 0.950 . S
C539 C538 1.345 1_455 S
C539 C555 1.353 . S
C540 C538 1.327 . S
C540 C559 1.415 1_655 S
C540 H564 0.950 . S
C541 C558 1.574 . S
C541 C560 1.389 . S
C541 H565 0.949 . S
H542 C546 0.949 . S
C543 C544 1.394 . S
C543 C545 1.327 . S
C543 H566 0.950 . S
C544 C543 1.394 . S
C544 C556 1.304 1_455 S
C545 C543 1.327 . S
C545 C561 1.462 . S
C545 H567 0.950 . S
C546 H542 0.949 . S
C546 C554 1.574 . S
C546 C562 1.337 1_655 S
H547 C555 0.950 . S
H548 C553 0.950 . S
H549 C554 0.949 . S
H550 C556 0.950 . S
H551 C557 0.950 . S
H552 C558 0.949 . S
C553 H548 0.950 . S
C553 C555 1.327 . S
C553 C559 1.442 . S
C554 C546 1.574 . S
C554 H549 0.949 . S
C554 C560 1.347 1_655 S
C555 C539 1.353 . S
C555 H547 0.950 . S
C555 C553 1.327 . S
C556 C544 1.304 1_655 S
C556 H550 0.950 . S
C556 C557 1.327 . S
C557 H551 0.950 . S
C557 C556 1.327 . S
C557 C561 1.395 1_655 S
C558 C541 1.574 . S
C558 H552 0.949 . S
C558 C562 1.399 . S
C559 C540 1.415 1_455 S
C559 C553 1.442 . S
C559 C560 1.523 . S
C560 C541 1.389 . S
C560 C554 1.347 1_455 S
C560 C559 1.523 . S
C561 C545 1.462 . S
C561 C557 1.395 1_455 S
C561 C562 1.523 . S
C562 C546 1.337 1_455 S
C562 C558 1.399 . S
C562 C561 1.523 . S
H563 C538 0.950 . S
H564 C540 0.950 . S
H565 C541 0.949 . S
H566 C543 0.950 . S
H567 C545 0.950 . S
C568 C569 1.345 . S
C568 C570 1.327 . S
C568 H593 0.950 . S
C569 C568 1.345 . S
C569 C585 1.353 1_545 S
C570 C568 1.327 . S
C570 C589 1.428 1_545 S
C570 H594 0.950 . S
C571 C588 1.574 . S
C571 C590 1.373 1_556 S
C571 H595 0.949 1_556 S
H572 C576 0.949 . S
C573 C574 1.371 . S
C573 C575 1.327 . S
C573 H596 0.950 . S
C574 C573 1.371 . S
C574 C586 1.327 1_565 S
C575 C573 1.327 . S
C575 C591 1.443 . S
C575 H597 0.950 . S
C576 H572 0.949 . S
C576 C584 1.574 1_556 S
C576 C592 1.357 1_545 S
H577 C585 0.950 . S
H578 C583 0.950 . S
H579 C584 0.949 . S
H580 C586 0.950 . S
H581 C587 0.950 . S
H582 C588 0.949 . S
C583 H578 0.950 . S
C583 C585 1.327 . S
C583 C589 1.429 . S
C584 C576 1.574 1_554 S
C584 H579 0.949 . S
C584 C590 1.364 1_545 S
C585 C569 1.353 1_565 S
C585 H577 0.950 . S
C585 C583 1.327 . S
C586 C574 1.327 1_545 S
C586 H580 0.950 . S
C586 C587 1.327 . S
C587 H581 0.950 . S
C587 C586 1.327 . S
C587 C591 1.414 1_545 S
C588 C571 1.574 . S
C588 H582 0.949 . S
C588 C592 1.380 . S
C589 C570 1.428 1_565 S
C589 C583 1.429 . S
C589 C590 1.523 . S
C590 C571 1.373 1_554 S
C590 C584 1.364 1_565 S
C590 C589 1.523 . S
C591 C575 1.443 . S
C591 C587 1.414 1_565 S
C591 C592 1.523 . S
C592 C576 1.357 1_565 S
C592 C588 1.380 . S
C592 C591 1.523 . S
H593 C568 0.950 . S
H594 C570 0.950 . S
H595 C571 0.949 1_554 S
H596 C573 0.950 . S
H597 C575 0.950 . S
C598 C599 1.349 . S
C598 C600 1.327 . S
C598 H623 0.950 . S
C599 C598 1.349 . S
C599 C615 1.349 . S
C600 C598 1.327 . S
C600 C619 1.429 . S
C600 H624 0.950 . S
C601 C618 1.574 1_554 S
C601 C620 1.368 . S
C601 H625 0.949 . S
H602 C606 0.949 . S
C603 C604 1.349 . S
C603 C605 1.327 . S
C603 H626 0.950 . S
C604 C603 1.349 . S
C604 C616 1.349 . S
C605 C603 1.327 . S
C605 C621 1.429 . S
C605 H627 0.950 . S
C606 H602 0.949 . S
C606 C614 1.574 1_556 S
C606 C622 1.368 . S
H607 C615 0.950 . S
H608 C613 0.950 . S
H609 C614 0.949 . S
H610 C616 0.950 . S
H611 C617 0.950 . S
H612 C618 0.949 . S
C613 H608 0.950 . S
C613 C615 1.327 . S
C613 C619 1.429 . S
C614 C606 1.574 1_554 S
C614 H609 0.949 . S
C614 C620 1.368 . S
C615 C599 1.349 . S
C615 H607 0.950 . S
C615 C613 1.327 . S
C616 C604 1.349 . S
C616 H610 0.950 . S
C616 C617 1.327 . S
C617 H611 0.950 . S
C617 C616 1.327 . S
C617 C621 1.429 . S
C618 C601 1.574 1_556 S
C618 H612 0.949 . S
C618 C622 1.368 . S
C619 C600 1.429 . S
C619 C613 1.429 . S
C619 C620 1.523 . S
C620 C601 1.368 . S
C620 C614 1.368 . S
C620 C619 1.523 . S
C621 C605 1.429 . S
C621 C617 1.429 . S
C621 C622 1.523 . S
C622 C606 1.368 . S
C622 C618 1.368 . S
C622 C621 1.523 . S
H623 C598 0.950 . S
H624 C600 0.950 . S
H625 C601 0.949 . S
H626 C603 0.950 . S
H627 C605 0.950 . S
C628 C629 1.349 . S
C628 C630 1.327 . S
C628 H653 0.950 . S
C629 C628 1.349 . S
C629 C645 1.349 . S
C630 C628 1.327 . S
C630 C649 1.429 . S
C630 H654 0.950 . S
C631 C648 1.574 1_554 S
C631 C650 1.368 . S
C631 H655 0.949 . S
H632 C636 0.949 . S
C633 C634 1.349 . S
C633 C635 1.327 . S
C633 H656 0.950 . S
C634 C633 1.349 . S
C634 C646 1.349 . S
C635 C633 1.327 . S
C635 C651 1.429 . S
C635 H657 0.950 . S
C636 H632 0.949 . S
C636 C644 1.574 . S
C636 C652 1.368 . S
H637 C645 0.950 . S
H638 C643 0.950 . S
H639 C644 0.949 1_554 S
H640 C646 0.950 . S
H641 C647 0.950 . S
H642 C648 0.949 . S
C643 H638 0.950 . S
C643 C645 1.327 . S
C643 C649 1.429 . S
C644 C636 1.574 . S
C644 H639 0.949 1_556 S
C644 C650 1.368 1_556 S
C645 C629 1.349 . S
C645 H637 0.950 . S
C645 C643 1.327 . S
C646 C634 1.349 . S
C646 H640 0.950 . S
C646 C647 1.327 . S
C647 H641 0.950 . S
C647 C646 1.327 . S
C647 C651 1.429 . S
C648 C631 1.574 1_556 S
C648 H642 0.949 . S
C648 C652 1.368 . S
C649 C630 1.429 . S
C649 C643 1.429 . S
C649 C650 1.523 . S
C650 C631 1.368 . S
C650 C644 1.368 1_554 S
C650 C649 1.523 . S
C651 C635 1.429 . S
C651 C647 1.429 . S
C651 C652 1.523 . S
C652 C636 1.368 . S
C652 C648 1.368 . S
C652 C651 1.523 . S
H653 C628 0.950 . S
H654 C630 0.950 . S
H655 C631 0.949 . S
H656 C633 0.950 . S
H657 C635 0.950 . S
C658 C659 1.352 . S
C658 C660 1.327 . S
C658 H683 0.950 . S
C659 C658 1.352 . S
C659 C675 1.346 1_655 S
C660 C658 1.327 . S
C660 C679 1.437 . S
C660 H684 0.950 . S
C661 C678 1.574 . S
C661 C680 1.356 1_456 S
C661 H685 0.949 . S
H662 C666 0.949 . S
C663 C664 1.323 1_455 S
C663 C665 1.327 . S
C663 H686 0.950 . S
C664 C663 1.323 1_655 S
C664 C676 1.376 . S
C665 C663 1.327 . S
C665 C681 1.409 1_455 S
C665 H687 0.950 . S
C666 H662 0.949 . S
C666 C674 1.574 1_556 S
C666 C682 1.387 . S
H667 C675 0.950 . S
H668 C673 0.950 . S
H669 C674 0.949 . S
H670 C676 0.950 . S
H671 C677 0.950 . S
H672 C678 0.949 . S
C673 H668 0.950 . S
C673 C675 1.327 . S
C673 C679 1.420 1_455 S
C674 C666 1.574 1_554 S
C674 H669 0.949 . S
C674 C680 1.381 . S
C675 C659 1.346 1_455 S
C675 H667 0.950 . S
C675 C673 1.327 . S
C676 C664 1.376 . S
C676 H670 0.950 . S
C676 C677 1.327 . S
C677 H671 0.950 . S
C677 C676 1.327 . S
C677 C681 1.449 . S
C678 C661 1.574 . S
C678 H672 0.949 . S
C678 C682 1.350 1_455 S
C679 C660 1.437 . S
C679 C673 1.420 1_655 S
C679 C680 1.523 . S
C680 C661 1.356 1_654 S
C680 C674 1.381 . S
C680 C679 1.523 . S
C681 C665 1.409 1_655 S
C681 C677 1.449 . S
C681 C682 1.523 . S
C682 C666 1.387 . S
C682 C678 1.350 1_655 S
C682 C681 1.523 . S
H683 C658 0.950 . S
H684 C660 0.950 . S
H685 C661 0.949 . S
H686 C663 0.950 . S
H687 C665 0.950 . S
C688 C689 1.349 1_655 S
C688 C690 1.327 . S
C688 H713 0.950 . S
C689 C688 1.349 1_455 S
C689 C705 1.349 . S
C690 C688 1.327 . S
C690 C709 1.429 . S
C690 H714 0.950 . S
C691 C708 1.574 . S
C691 C710 1.368 1_455 S
C691 H715 0.949 . S
H692 C696 0.949 . S
C693 C694 1.349 . S
C693 C695 1.327 . S
C693 H716 0.950 1_655 S
C694 C693 1.349 . S
C694 C706 1.349 . S
C695 C693 1.327 . S
C695 C711 1.429 . S
C695 H717 0.950 1_655 S
C696 H692 0.949 . S
C696 C704 1.574 . S
C696 C712 1.368 . S
H697 C705 0.950 . S
H698 C703 0.950 . S
H699 C704 0.949 . S
H700 C706 0.950 . S
H701 C707 0.950 . S
H702 C708 0.949 . S
C703 H698 0.950 . S
C703 C705 1.327 . S
C703 C709 1.429 1_455 S
C704 C696 1.574 . S
C704 H699 0.949 . S
C704 C710 1.368 . S
C705 C689 1.349 . S
C705 H697 0.950 . S
C705 C703 1.327 . S
C706 C694 1.349 . S
C706 H700 0.950 . S
C706 C707 1.327 . S
C707 H701 0.950 . S
C707 C706 1.327 . S
C707 C711 1.429 . S
C708 C691 1.574 . S
C708 H702 0.949 . S
C708 C712 1.368 1_455 S
C709 C690 1.429 . S
C709 C703 1.429 1_655 S
C709 C710 1.523 . S
C710 C691 1.368 1_655 S
C710 C704 1.368 . S
C710 C709 1.523 . S
C711 C695 1.429 . S
C711 C707 1.429 . S
C711 C712 1.523 . S
C712 C696 1.368 . S
C712 C708 1.368 1_655 S
C712 C711 1.523 . S
H713 C688 0.950 . S
H714 C690 0.950 . S
H715 C691 0.949 . S
H716 C693 0.950 1_455 S
H717 C695 0.950 1_455 S
C718 C719 1.349 1_565 S
C718 C720 1.327 . S
C718 H743 0.950 . S
C719 C718 1.349 1_545 S
C719 C735 1.349 . S
C720 C718 1.327 . S
C720 C739 1.429 . S
C720 H744 0.950 . S
C721 C738 1.574 . S
C721 C740 1.368 . S
C721 H745 0.949 1_565 S
H722 C726 0.949 . S
C723 C724 1.349 . S
C723 C725 1.327 . S
C723 H746 0.950 . S
C724 C723 1.349 . S
C724 C736 1.349 . S
C725 C723 1.327 . S
C725 C741 1.429 . S
C725 H747 0.950 . S
C726 H722 0.949 . S
C726 C734 1.574 . S
C726 C742 1.368 . S
H727 C735 0.950 . S
H728 C733 0.950 . S
H729 C734 0.949 . S
H730 C736 0.950 . S
H731 C737 0.950 . S
H732 C738 0.949 . S
C733 H728 0.950 . S
C733 C735 1.327 . S
C733 C739 1.429 1_545 S
C734 C726 1.574 . S
C734 H729 0.949 . S
C734 C740 1.368 . S
C735 C719 1.349 . S
C735 H727 0.950 . S
C735 C733 1.327 . S
C736 C724 1.349 . S
C736 H730 0.950 . S
C736 C737 1.327 . S
C737 H731 0.950 . S
C737 C736 1.327 . S
C737 C741 1.429 . S
C738 C721 1.574 . S
C738 H732 0.949 . S
C738 C742 1.368 . S
C739 C720 1.429 . S
C739 C733 1.429 1_565 S
C739 C740 1.523 . S
C740 C721 1.368 . S
C740 C734 1.368 . S
C740 C739 1.523 . S
C741 C725 1.429 . S
C741 C737 1.429 . S
C741 C742 1.523 . S
C742 C726 1.368 . S
C742 C738 1.368 . S
C742 C741 1.523 . S
H743 C718 0.950 . S
H744 C720 0.950 . S
H745 C721 0.949 1_545 S
H746 C723 0.950 . S
H747 C725 0.950 . S
C748 C749 1.349 . S
C748 C750 1.327 . S
C748 H773 0.950 . S
C749 C748 1.349 . S
C749 C765 1.349 . S
C750 C748 1.327 . S
C750 C769 1.429 . S
C750 H774 0.950 . S
C751 C768 1.574 . S
C751 C770 1.368 . S
C751 H775 0.949 . S
H752 C756 0.949 . S
C753 C754 1.349 . S
C753 C755 1.327 . S
C753 H776 0.950 . S
C754 C753 1.349 . S
C754 C766 1.349 . S
C755 C753 1.327 . S
C755 C771 1.429 . S
C755 H777 0.950 . S
C756 H752 0.949 . S
C756 C764 1.574 . S
C756 C772 1.368 . S
H757 C765 0.950 . S
H758 C763 0.950 . S
H759 C764 0.949 . S
H760 C766 0.950 . S
H761 C767 0.950 . S
H762 C768 0.949 . S
C763 H758 0.950 . S
C763 C765 1.327 . S
C763 C769 1.429 . S
C764 C756 1.574 . S
C764 H759 0.949 . S
C764 C770 1.368 . S
C765 C749 1.349 . S
C765 H757 0.950 . S
C765 C763 1.327 . S
C766 C754 1.349 . S
C766 H760 0.950 . S
C766 C767 1.327 . S
C767 H761 0.950 . S
C767 C766 1.327 . S
C767 C771 1.429 . S
C768 C751 1.574 . S
C768 H762 0.949 . S
C768 C772 1.368 . S
C769 C750 1.429 . S
C769 C763 1.429 . S
C769 C770 1.523 . S
C770 C751 1.368 . S
C770 C764 1.368 . S
C770 C769 1.523 . S
C771 C755 1.429 . S
C771 C767 1.429 . S
C771 C772 1.523 . S
C772 C756 1.368 . S
C772 C768 1.368 . S
C772 C771 1.523 . S
H773 C748 0.950 . S
H774 C750 0.950 . S
H775 C751 0.949 . S
H776 C753 0.950 . S
H777 C755 0.950 . S
C778 C779 1.349 . S
C778 C780 1.327 . S
C778 H803 0.950 . S
C779 C778 1.349 . S
C779 C795 1.349 . S
C780 C778 1.327 . S
C780 C799 1.429 . S
C780 H804 0.950 . S
C781 C798 1.574 . S
C781 C800 1.368 . S
C781 H805 0.949 . S
H782 C786 0.949 . S
C783 C784 1.349 . S
C783 C785 1.327 . S
C783 H806 0.950 . S
C784 C783 1.349 . S
C784 C796 1.349 . S
C785 C783 1.327 . S
C785 C801 1.429 . S
C785 H807 0.950 . S
C786 H782 0.949 . S
C786 C794 1.574 . S
C786 C802 1.368 . S
H787 C795 0.950 . S
H788 C793 0.950 . S
H789 C794 0.949 . S
H790 C796 0.950 . S
H791 C797 0.950 . S
H792 C798 0.949 . S
C793 H788 0.950 . S
C793 C795 1.327 . S
C793 C799 1.429 . S
C794 C786 1.574 . S
C794 H789 0.949 . S
C794 C800 1.368 . S
C795 C779 1.349 . S
C795 H787 0.950 . S
C795 C793 1.327 . S
C796 C784 1.349 . S
C796 H790 0.950 . S
C796 C797 1.327 . S
C797 H791 0.950 . S
C797 C796 1.327 . S
C797 C801 1.429 . S
C798 C781 1.574 . S
C798 H792 0.949 . S
C798 C802 1.368 . S
C799 C780 1.429 . S
C799 C793 1.429 . S
C799 C800 1.523 . S
C800 C781 1.368 . S
C800 C794 1.368 . S
C800 C799 1.523 . S
C801 C785 1.429 . S
C801 C797 1.429 . S
C801 C802 1.523 . S
C802 C786 1.368 . S
C802 C798 1.368 . S
C802 C801 1.523 . S
H803 C778 0.950 . S
H804 C780 0.950 . S
H805 C781 0.949 . S
H806 C783 0.950 . S
H807 C785 0.950 . S
C808 C809 1.349 1_455 S
C808 C810 1.327 . S
C808 H833 0.950 . S
C809 C808 1.349 1_655 S
C809 C825 1.349 . S
C810 C808 1.327 . S
C810 C829 1.429 . S
C810 H834 0.950 . S
C811 C828 1.569 1_655 S
C811 C830 1.354 1_656 S
C811 H835 0.967 . S
H812 C816 0.949 . S
C813 C814 1.349 . S
C813 C815 1.327 . S
C813 H836 0.950 . S
C814 C813 1.349 . S
C814 C826 1.349 . S
C815 C813 1.327 . S
C815 C831 1.429 . S
C815 H837 0.950 . S
C816 H812 0.949 . S
C816 C824 1.574 . S
C816 C832 1.368 1_554 S
H817 C825 0.950 . S
H818 C823 0.950 1_556 S
H819 C824 0.949 . S
H820 C826 0.950 . S
H821 C827 0.950 . S
H822 C828 0.949 1_655 S
C823 H818 0.950 1_554 S
C823 C825 1.327 . S
C823 C829 1.429 1_655 S
C824 C816 1.574 . S
C824 H819 0.949 . S
C824 C830 1.368 . S
C825 C809 1.349 . S
C825 H817 0.950 . S
C825 C823 1.327 . S
C826 C814 1.349 . S
C826 H820 0.950 . S
C826 C827 1.327 . S
C827 H821 0.950 . S
C827 C826 1.327 . S
C827 C831 1.429 . S
C828 C811 1.569 1_455 S
C828 H822 0.949 1_455 S
C828 C832 1.368 . S
C829 C810 1.429 . S
C829 C823 1.429 1_455 S
C829 C830 1.523 . S
C830 C811 1.354 1_454 S
C830 C824 1.368 . S
C830 C829 1.523 . S
C831 C815 1.429 . S
C831 C827 1.429 . S
C831 C832 1.523 . S
C832 C816 1.368 1_556 S
C832 C828 1.368 . S
C832 C831 1.523 . S
H833 C808 0.950 . S
H834 C810 0.950 . S
H835 C811 0.967 . S
H836 C813 0.950 . S
H837 C815 0.950 . S
C838 C839 1.349 . S
C838 C840 1.327 . S
C838 H863 0.950 . S
C839 C838 1.349 . S
C839 C855 1.349 1_565 S
C840 C838 1.327 . S
C840 C859 1.429 1_565 S
C840 H864 0.950 . S
C841 C858 1.574 . S
C841 C860 1.368 1_556 S
C841 H865 0.949 . S
H842 C846 0.949 . S
C843 C844 1.349 . S
C843 C845 1.327 . S
C843 H866 0.950 . S
C844 C843 1.349 . S
C844 C856 1.349 . S
C845 C843 1.327 . S
C845 C861 1.429 . S
C845 H867 0.950 . S
C846 H842 0.949 . S
C846 C854 1.574 . S
C846 C862 1.368 1_554 S
H847 C855 0.950 . S
H848 C853 0.950 1_556 S
H849 C854 0.949 1_565 S
H850 C856 0.950 . S
H851 C857 0.950 . S
H852 C858 0.949 . S
C853 H848 0.950 1_554 S
C853 C855 1.327 . S
C853 C859 1.429 . S
C854 C846 1.574 . S
C854 H849 0.949 1_545 S
C854 C860 1.368 . S
C855 C839 1.349 1_545 S
C855 H847 0.950 . S
C855 C853 1.327 . S
C856 C844 1.349 . S
C856 H850 0.950 . S
C856 C857 1.327 . S
C857 H851 0.950 . S
C857 C856 1.327 . S
C857 C861 1.429 . S
C858 C841 1.574 . S
C858 H852 0.949 . S
C858 C862 1.368 . S
C859 C840 1.429 1_545 S
C859 C853 1.429 . S
C859 C860 1.523 . S
C860 C841 1.368 1_554 S
C860 C854 1.368 . S
C860 C859 1.523 . S
C861 C845 1.429 . S
C861 C857 1.429 . S
C861 C862 1.523 . S
C862 C846 1.368 1_556 S
C862 C858 1.368 . S
C862 C861 1.523 . S
H863 C838 0.950 . S
H864 C840 0.950 . S
H865 C841 0.949 . S
H866 C843 0.950 . S
H867 C845 0.950 . S
C868 C869 1.349 . S
C868 C870 1.327 . S
C868 H893 0.950 . S
C869 C868 1.349 . S
C869 C885 1.349 . S
C870 C868 1.327 . S
C870 C889 1.429 . S
C870 H894 0.950 . S
C871 C888 1.574 . S
C871 C890 1.368 1_556 S
C871 H895 0.949 . S
H872 C876 0.949 . S
C873 C874 1.349 . S
C873 C875 1.327 . S
C873 H896 0.950 . S
C874 C873 1.349 . S
C874 C886 1.349 . S
C875 C873 1.327 . S
C875 C891 1.429 . S
C875 H897 0.950 . S
C876 H872 0.949 . S
C876 C884 1.574 . S
C876 C892 1.368 1_554 S
H877 C885 0.950 . S
H878 C883 0.950 1_556 S
H879 C884 0.949 . S
H880 C886 0.950 . S
H881 C887 0.950 . S
H882 C888 0.949 . S
C883 H878 0.950 1_554 S
C883 C885 1.327 . S
C883 C889 1.429 . S
C884 C876 1.574 . S
C884 H879 0.949 . S
C884 C890 1.368 . S
C885 C869 1.349 . S
C885 H877 0.950 . S
C885 C883 1.327 . S
C886 C874 1.349 . S
C886 H880 0.950 . S
C886 C887 1.327 . S
C887 H881 0.950 . S
C887 C886 1.327 . S
C887 C891 1.429 . S
C888 C871 1.574 . S
C888 H882 0.949 . S
C888 C892 1.368 . S
C889 C870 1.429 . S
C889 C883 1.429 . S
C889 C890 1.523 . S
C890 C871 1.368 1_554 S
C890 C884 1.368 . S
C890 C889 1.523 . S
C891 C875 1.429 . S
C891 C887 1.429 . S
C891 C892 1.523 . S
C892 C876 1.368 1_556 S
C892 C888 1.368 . S
C892 C891 1.523 . S
H893 C868 0.950 . S
H894 C870 0.950 . S
H895 C871 0.949 . S
H896 C873 0.950 . S
H897 C875 0.950 . S
C898 C899 1.349 . S
C898 C900 1.327 . S
C898 H923 0.950 . S
C899 C898 1.349 . S
C899 C915 1.349 . S
C900 C898 1.327 . S
C900 C919 1.429 . S
C900 H924 0.950 . S
C901 C918 1.574 1_554 S
C901 C920 1.368 . S
C901 H925 0.949 . S
H902 C906 0.949 . S
C903 C904 1.349 . S
C903 C905 1.327 . S
C903 H926 0.950 . S
C904 C903 1.349 . S
C904 C916 1.349 . S
C905 C903 1.327 . S
C905 C921 1.429 . S
C905 H927 0.950 . S
C906 H902 0.949 . S
C906 C914 1.574 . S
C906 C922 1.368 . S
H907 C915 0.950 . S
H908 C913 0.950 . S
H909 C914 0.949 . S
H910 C916 0.950 . S
H911 C917 0.950 . S
H912 C918 0.949 . S
C913 H908 0.950 . S
C913 C915 1.327 . S
C913 C919 1.429 . S
C914 C906 1.574 . S
C914 H909 0.949 . S
C914 C920 1.368 1_556 S
C915 C899 1.349 . S
C915 H907 0.950 . S
C915 C913 1.327 . S
C916 C904 1.349 . S
C916 H910 0.950 . S
C916 C917 1.327 . S
C917 H911 0.950 . S
C917 C916 1.327 . S
C917 C921 1.429 . S
C918 C901 1.574 1_556 S
C918 H912 0.949 . S
C918 C922 1.368 . S
C919 C900 1.429 . S
C919 C913 1.429 . S
C919 C920 1.523 . S
C920 C901 1.368 . S
C920 C914 1.368 1_554 S
C920 C919 1.523 . S
C921 C905 1.429 . S
C921 C917 1.429 . S
C921 C922 1.523 . S
C922 C906 1.368 . S
C922 C918 1.368 . S
C922 C921 1.523 . S
H923 C898 0.950 . S
H924 C900 0.950 . S
H925 C901 0.949 . S
H926 C903 0.950 . S
H927 C905 0.950 . S
C928 C929 1.349 . S
C928 C930 1.326 . S
C928 H953 0.946 1_455 S
C929 C928 1.349 . S
C929 C945 1.349 . S
C930 C928 1.326 . S
C930 C949 1.435 . S
C930 H954 0.948 . S
C931 C948 1.574 . S
C931 C950 1.368 . S
C931 H955 0.949 . S
H932 C936 0.949 . S
C933 C934 1.349 . S
C933 C935 1.327 . S
C933 H956 0.950 . S
C934 C933 1.349 . S
C934 C946 1.349 . S
C935 C933 1.327 . S
C935 C951 1.429 . S
C935 H957 0.950 . S
C936 H932 0.949 . S
C936 C944 1.574 . S
C936 C952 1.368 . S
H937 C945 0.950 . S
H938 C943 0.950 . S
H939 C944 0.949 . S
H940 C946 0.950 . S
H941 C947 0.950 . S
H942 C948 0.949 . S
C943 H938 0.950 . S
C943 C945 1.327 . S
C943 C949 1.429 . S
C944 C936 1.574 . S
C944 H939 0.949 . S
C944 C950 1.368 . S
C945 C929 1.349 . S
C945 H937 0.950 . S
C945 C943 1.327 . S
C946 C934 1.349 . S
C946 H940 0.950 . S
C946 C947 1.327 . S
C947 H941 0.950 . S
C947 C946 1.327 . S
C947 C951 1.429 . S
C948 C931 1.574 . S
C948 H942 0.949 . S
C948 C952 1.368 . S
C949 C930 1.435 . S
C949 C943 1.429 . S
C949 C950 1.523 . S
C950 C931 1.368 . S
C950 C944 1.368 . S
C950 C949 1.523 . S
C951 C935 1.429 . S
C951 C947 1.429 . S
C951 C952 1.523 . S
C952 C936 1.368 . S
C952 C948 1.368 . S
C952 C951 1.523 . S
H953 C928 0.946 1_655 S
H954 C930 0.948 . S
H955 C931 0.949 . S
H956 C933 0.950 . S
H957 C935 0.950 . S
C958 C959 1.349 1_565 S
C958 C960 1.327 . S
C958 H983 0.950 . S
C959 C958 1.349 1_545 S
C959 C975 1.349 . S
C960 C958 1.327 . S
C960 C979 1.429 1_565 S
C960 H984 0.950 . S
C961 C978 1.574 . S
C961 C980 1.368 . S
C961 H985 0.949 . S
H962 C966 0.949 . S
C963 C964 1.349 . S
C963 C965 1.327 . S
C963 H986 0.950 . S
C964 C963 1.349 . S
C964 C976 1.349 1_545 S
C965 C963 1.327 . S
C965 C981 1.429 . S
C965 H987 0.950 . S
C966 H962 0.949 . S
C966 C974 1.574 . S
C966 C982 1.368 1_565 S
H967 C975 0.950 . S
H968 C973 0.950 . S
H969 C974 0.949 . S
H970 C976 0.950 . S
H971 C977 0.950 . S
H972 C978 0.949 . S
C973 H968 0.950 . S
C973 C975 1.327 . S
C973 C979 1.429 . S
C974 C966 1.574 . S
C974 H969 0.949 . S
C974 C980 1.368 1_565 S
C975 C959 1.349 . S
C975 H967 0.950 . S
C975 C973 1.327 . S
C976 C964 1.349 1_565 S
C976 H970 0.950 . S
C976 C977 1.327 . S
C977 H971 0.950 . S
C977 C976 1.327 . S
C977 C981 1.429 1_565 S
C978 C961 1.574 . S
C978 H972 0.949 . S
C978 C982 1.368 . S
C979 C960 1.429 1_545 S
C979 C973 1.429 . S
C979 C980 1.523 . S
C980 C961 1.368 . S
C980 C974 1.368 1_545 S
C980 C979 1.523 . S
C981 C965 1.429 . S
C981 C977 1.429 1_545 S
C981 C982 1.523 . S
C982 C966 1.368 1_545 S
C982 C978 1.368 . S
C982 C981 1.523 . S
H983 C958 0.950 . S
H984 C960 0.950 . S
H985 C961 0.949 . S
H986 C963 0.950 . S
H987 C965 0.950 . S
C988 C989 1.349 . S
C988 C990 1.327 . S
C988 H1013 0.950 . S
C989 C988 1.349 . S
C989 C1005 1.349 . S
C990 C988 1.327 . S
C990 C1009 1.429 . S
C990 H1014 0.950 . S
C991 C1008 1.574 . S
C991 C1010 1.368 . S
C991 H1015 0.949 . S
H992 C996 0.949 . S
C993 C994 1.349 . S
C993 C995 1.327 . S
C993 H1016 0.950 . S
C994 C993 1.349 . S
C994 C1006 1.349 . S
C995 C993 1.327 . S
C995 C1011 1.429 . S
C995 H1017 0.950 . S
C996 H992 0.949 . S
C996 C1004 1.574 . S
C996 C1012 1.368 . S
H997 C1005 0.950 . S
H998 C1003 0.950 . S
H999 C1004 0.949 . S
H1000 C1006 0.950 . S
H1001 C1007 0.950 . S
H1002 C1008 0.949 . S
C1003 H998 0.950 . S
C1003 C1005 1.327 . S
C1003 C1009 1.429 . S
C1004 C996 1.574 . S
C1004 H999 0.949 . S
C1004 C1010 1.368 . S
C1005 C989 1.349 . S
C1005 H997 0.950 . S
C1005 C1003 1.327 . S
C1006 C994 1.349 . S
C1006 H1000 0.950 . S
C1006 C1007 1.327 . S
C1007 H1001 0.950 . S
C1007 C1006 1.327 . S
C1007 C1011 1.429 . S
C1008 C991 1.574 . S
C1008 H1002 0.949 . S
C1008 C1012 1.368 . S
C1009 C990 1.429 . S
C1009 C1003 1.429 . S
C1009 C1010 1.523 . S
C1010 C991 1.368 . S
C1010 C1004 1.368 . S
C1010 C1009 1.523 . S
C1011 C995 1.429 . S
C1011 C1007 1.429 . S
C1011 C1012 1.523 . S
C1012 C996 1.368 . S
C1012 C1008 1.368 . S
C1012 C1011 1.523 . S
H1013 C988 0.950 . S
H1014 C990 0.950 . S
H1015 C991 0.949 . S
H1016 C993 0.950 . S
H1017 C995 0.950 . S
C1018 C1019 1.349 . S
C1018 C1020 1.327 . S
C1018 H1043 0.950 . S
C1019 C1018 1.349 . S
C1019 C1035 1.349 . S
C1020 C1018 1.327 . S
C1020 C1039 1.429 . S
C1020 H1044 0.950 . S
C1021 C1038 1.574 . S
C1021 C1040 1.368 . S
C1021 H1045 0.949 . S
H1022 C1026 0.949 . S
C1023 C1024 1.349 . S
C1023 C1025 1.327 . S
C1023 H1046 0.950 . S
C1024 C1023 1.349 . S
C1024 C1036 1.349 . S
C1025 C1023 1.327 . S
C1025 C1041 1.429 . S
C1025 H1047 0.950 . S
C1026 H1022 0.949 . S
C1026 C1034 1.574 . S
C1026 C1042 1.368 . S
H1027 C1035 0.950 . S
H1028 C1033 0.950 . S
H1029 C1034 0.949 . S
H1030 C1036 0.950 . S
H1031 C1037 0.950 . S
H1032 C1038 0.949 . S
C1033 H1028 0.950 . S
C1033 C1035 1.327 . S
C1033 C1039 1.429 . S
C1034 C1026 1.574 . S
C1034 H1029 0.949 . S
C1034 C1040 1.368 . S
C1035 C1019 1.349 . S
C1035 H1027 0.950 . S
C1035 C1033 1.327 . S
C1036 C1024 1.349 . S
C1036 H1030 0.950 . S
C1036 C1037 1.327 . S
C1037 H1031 0.950 . S
C1037 C1036 1.327 . S
C1037 C1041 1.429 . S
C1038 C1021 1.574 . S
C1038 H1032 0.949 . S
C1038 C1042 1.368 . S
C1039 C1020 1.429 . S
C1039 C1033 1.429 . S
C1039 C1040 1.523 . S
C1040 C1021 1.368 . S
C1040 C1034 1.368 . S
C1040 C1039 1.523 . S
C1041 C1025 1.429 . S
C1041 C1037 1.429 . S
C1041 C1042 1.523 . S
C1042 C1026 1.368 . S
C1042 C1038 1.368 . S
C1042 C1041 1.523 . S
H1043 C1018 0.950 . S
H1044 C1020 0.950 . S
H1045 C1021 0.949 . S
H1046 C1023 0.950 . S
H1047 C1025 0.950 . S
C1048 C1049 1.349 1_455 S
C1048 C1050 1.327 . S
C1048 H1073 0.950 . S
C1049 C1048 1.349 1_655 S
C1049 C1065 1.349 . S
C1050 C1048 1.327 . S
C1050 C1069 1.429 1_455 S
C1050 H1074 0.950 . S
C1051 C1068 1.574 . S
C1051 C1070 1.368 . S
C1051 H1075 0.949 . S
H1052 C1056 0.949 . S
C1053 C1054 1.349 . S
C1053 C1055 1.327 . S
C1053 H1076 0.950 . S
C1054 C1053 1.349 . S
C1054 C1066 1.349 1_655 S
C1055 C1053 1.327 . S
C1055 C1071 1.429 . S
C1055 H1077 0.950 . S
C1056 H1052 0.949 . S
C1056 C1064 1.574 . S
C1056 C1072 1.368 1_455 S
H1057 C1065 0.950 . S
H1058 C1063 0.950 . S
H1059 C1064 0.949 . S
H1060 C1066 0.950 . S
H1061 C1067 0.950 . S
H1062 C1068 0.949 . S
C1063 H1058 0.950 . S
C1063 C1065 1.327 . S
C1063 C1069 1.429 . S
C1064 C1056 1.574 . S
C1064 H1059 0.949 . S
C1064 C1070 1.368 1_455 S
C1065 C1049 1.349 . S
C1065 H1057 0.950 . S
C1065 C1063 1.327 . S
C1066 C1054 1.349 1_455 S
C1066 H1060 0.950 . S
C1066 C1067 1.327 . S
C1067 H1061 0.950 . S
C1067 C1066 1.327 . S
C1067 C1071 1.429 1_455 S
C1068 C1051 1.574 . S
C1068 H1062 0.949 . S
C1068 C1072 1.368 . S
C1069 C1050 1.429 1_655 S
C1069 C1063 1.429 . S
C1069 C1070 1.523 . S
C1070 C1051 1.368 . S
C1070 C1064 1.368 1_655 S
C1070 C1069 1.523 . S
C1071 C1055 1.429 . S
C1071 C1067 1.429 1_655 S
C1071 C1072 1.523 . S
C1072 C1056 1.368 1_655 S
C1072 C1068 1.368 . S
C1072 C1071 1.523 . S
H1073 C1048 0.950 . S
H1074 C1050 0.950 . S
H1075 C1051 0.949 . S
H1076 C1053 0.950 . S
H1077 C1055 0.950 . S
C1078 C1079 1.302 1_545 S
C1078 C1080 1.327 . S
C1078 H1103 0.950 . S
C1079 C1078 1.302 1_565 S
C1079 C1095 1.399 . S
C1080 C1078 1.327 . S
C1080 C1099 1.429 1_545 S
C1080 H1104 0.950 . S
C1081 C1098 1.574 . S
C1081 C1100 1.368 . S
C1081 H1105 0.949 . S
H1082 C1086 0.949 . S
C1083 C1084 1.349 . S
C1083 C1085 1.327 . S
C1083 H1106 0.950 . S
C1084 C1083 1.349 . S
C1084 C1096 1.349 1_565 S
C1085 C1083 1.327 . S
C1085 C1101 1.429 . S
C1085 H1107 0.950 . S
C1086 H1082 0.949 . S
C1086 C1094 1.574 . S
C1086 C1102 1.368 1_545 S
H1087 C1095 0.950 . S
H1088 C1093 0.950 . S
H1089 C1094 0.949 . S
H1090 C1096 0.950 . S
H1091 C1097 0.950 . S
H1092 C1098 0.949 . S
C1093 H1088 0.950 . S
C1093 C1095 1.327 . S
C1093 C1099 1.429 . S
C1094 C1086 1.574 . S
C1094 H1089 0.949 . S
C1094 C1100 1.368 1_545 S
C1095 C1079 1.399 . S
C1095 H1087 0.950 . S
C1095 C1093 1.327 . S
C1096 C1084 1.349 1_545 S
C1096 H1090 0.950 . S
C1096 C1097 1.327 . S
C1097 H1091 0.950 . S
C1097 C1096 1.327 . S
C1097 C1101 1.429 1_545 S
C1098 C1081 1.574 . S
C1098 H1092 0.949 . S
C1098 C1102 1.368 . S
C1099 C1080 1.429 1_565 S
C1099 C1093 1.429 . S
C1099 C1100 1.523 . S
C1100 C1081 1.368 . S
C1100 C1094 1.368 1_565 S
C1100 C1099 1.523 . S
C1101 C1085 1.429 . S
C1101 C1097 1.429 1_565 S
C1101 C1102 1.523 . S
C1102 C1086 1.368 1_565 S
C1102 C1098 1.368 . S
C1102 C1101 1.523 . S
H1103 C1078 0.950 . S
H1104 C1080 0.950 . S
H1105 C1081 0.949 . S
H1106 C1083 0.950 . S
H1107 C1085 0.950 . S
C1108 C1109 1.349 . S
C1108 C1110 1.327 . S
C1108 H1133 0.950 . S
C1109 C1108 1.349 . S
C1109 C1125 1.349 . S
C1110 C1108 1.327 . S
C1110 C1129 1.429 . S
C1110 H1134 0.950 . S
C1111 C1128 1.574 . S
C1111 C1130 1.368 . S
C1111 H1135 0.949 . S
H1112 C1116 0.949 . S
C1113 C1114 1.349 . S
C1113 C1115 1.327 . S
C1113 H1136 0.950 . S
C1114 C1113 1.349 . S
C1114 C1126 1.349 . S
C1115 C1113 1.327 . S
C1115 C1131 1.429 . S
C1115 H1137 0.950 . S
C1116 H1112 0.949 . S
C1116 C1124 1.574 . S
C1116 C1132 1.368 . S
H1117 C1125 0.950 . S
H1118 C1123 0.950 . S
H1119 C1124 0.949 . S
H1120 C1126 0.950 . S
H1121 C1127 0.950 . S
H1122 C1128 0.949 . S
C1123 H1118 0.950 . S
C1123 C1125 1.327 . S
C1123 C1129 1.429 . S
C1124 C1116 1.574 . S
C1124 H1119 0.949 . S
C1124 C1130 1.368 . S
C1125 C1109 1.349 . S
C1125 H1117 0.950 . S
C1125 C1123 1.327 . S
C1126 C1114 1.349 . S
C1126 H1120 0.950 . S
C1126 C1127 1.327 . S
C1127 H1121 0.950 . S
C1127 C1126 1.327 . S
C1127 C1131 1.429 . S
C1128 C1111 1.574 . S
C1128 H1122 0.949 . S
C1128 C1132 1.368 . S
C1129 C1110 1.429 . S
C1129 C1123 1.429 . S
C1129 C1130 1.523 . S
C1130 C1111 1.368 . S
C1130 C1124 1.368 . S
C1130 C1129 1.523 . S
C1131 C1115 1.429 . S
C1131 C1127 1.429 . S
C1131 C1132 1.523 . S
C1132 C1116 1.368 . S
C1132 C1128 1.368 . S
C1132 C1131 1.523 . S
H1133 C1108 0.950 . S
H1134 C1110 0.950 . S
H1135 C1111 0.949 . S
H1136 C1113 0.950 . S
H1137 C1115 0.950 . S
C1138 C1139 1.349 . S
C1138 C1140 1.327 . S
C1138 H1163 0.950 . S
C1139 C1138 1.349 . S
C1139 C1155 1.349 . S
C1140 C1138 1.327 . S
C1140 C1159 1.429 . S
C1140 H1164 0.950 . S
C1141 C1158 1.574 . S
C1141 C1160 1.368 . S
C1141 H1165 0.949 . S
H1142 C1146 0.949 . S
C1143 C1144 1.349 . S
C1143 C1145 1.327 . S
C1143 H1166 0.950 . S
C1144 C1143 1.349 . S
C1144 C1156 1.349 . S
C1145 C1143 1.327 . S
C1145 C1161 1.429 . S
C1145 H1167 0.950 . S
C1146 H1142 0.949 . S
C1146 C1154 1.574 . S
C1146 C1162 1.368 . S
H1147 C1155 0.950 . S
H1148 C1153 0.950 . S
H1149 C1154 0.949 . S
H1150 C1156 0.950 . S
H1151 C1157 0.950 . S
H1152 C1158 0.949 . S
C1153 H1148 0.950 . S
C1153 C1155 1.327 . S
C1153 C1159 1.429 . S
C1154 C1146 1.574 . S
C1154 H1149 0.949 . S
C1154 C1160 1.368 . S
C1155 C1139 1.349 . S
C1155 H1147 0.950 . S
C1155 C1153 1.327 . S
C1156 C1144 1.349 . S
C1156 H1150 0.950 . S
C1156 C1157 1.327 . S
C1157 H1151 0.950 . S
C1157 C1156 1.327 . S
C1157 C1161 1.429 . S
C1158 C1141 1.574 . S
C1158 H1152 0.949 . S
C1158 C1162 1.368 . S
C1159 C1140 1.429 . S
C1159 C1153 1.429 . S
C1159 C1160 1.523 . S
C1160 C1141 1.368 . S
C1160 C1154 1.368 . S
C1160 C1159 1.523 . S
C1161 C1145 1.429 . S
C1161 C1157 1.429 . S
C1161 C1162 1.523 . S
C1162 C1146 1.368 . S
C1162 C1158 1.368 . S
C1162 C1161 1.523 . S
H1163 C1138 0.950 . S
H1164 C1140 0.950 . S
H1165 C1141 0.949 . S
H1166 C1143 0.950 . S
H1167 C1145 0.950 . S
C449 C241 1.903 . S
C454 C290 2.053 1_545 S
C484 C330 2.074 . S
C479 C277 1.959 . S
C514 C370 2.063 . S
C509 C169 1.906 . S
C544 C410 2.070 1_455 S
C539 C205 1.915 . S
C574 C303 2.059 1_565 S
C569 C97 1.909 . S
C599 C133 1.964 . S
C604 C343 2.078 . S
C629 C25 1.907 . S
C634 C383 2.062 . S
C659 C61 1.914 1_655 S
C664 C423 2.069 1_655 S
C694 C314 0.200 . S
C689 C211 0.251 . S
C724 C354 0.203 . S
C719 C247 0.252 . S
C754 C394 0.197 . S
C749 C253 0.253 . S
C779 C175 0.251 . S
C784 C434 0.197 . S
C809 C67 0.323 1_655 S
C814 C297 0.195 . S
C844 C337 0.202 . S
C839 C103 0.315 1_565 S
C874 C377 0.197 . S
C869 C109 0.180 . S
C899 C31 0.321 . S
C904 C417 0.208 . S
C929 C181 2.541 . S
C934 C291 2.823 . S
C959 C217 2.525 . S
C964 C331 2.814 . S
C994 C371 2.822 . S
C989 C283 2.471 . S
C1024 C411 2.816 . S
C1019 C145 2.521 . S
C1049 C37 2.544 1_655 S
C1054 C310 2.837 . S
C1084 C350 2.814 . S
C1079 C73 2.526 1_565 S
C1114 C390 2.821 . S
C1109 C139 2.463 . S
C1139 C1 2.533 . S
C1144 C430 2.822 . S
