# Generated by pormake.
# Topology dag, (6,3)-cn, num edge types: 1
# Building blocks:
#     Node 0, Type 0, BuildingBlock: MIDCAF_clean_sbu_0, # of connection points: 6
#     Node 1, Type 0, BuildingBlock: MIDCAF_clean_sbu_0, # of connection points: 6
#     Node 2, Type 0, BuildingBlock: MIDCAF_clean_sbu_0, # of connection points: 6
#     Node 3, Type 0, BuildingBlock: MIDCAF_clean_sbu_0, # of connection points: 6
#     Node 4, Type 1, BuildingBlock: QEWDON_clean_linker_0, # of connection points: 3
#     Node 5, Type 1, BuildingBlock: QEWDON_clean_linker_0, # of connection points: 3
#     Node 6, Type 1, BuildingBlock: QEWDON_clean_linker_0, # of connection points: 3
#     Node 7, Type 1, BuildingBlock: QEWDON_clean_linker_0, # of connection points: 3
#     Node 8, Type 1, BuildingBlock: QEWDON_clean_linker_0, # of connection points: 3
#     Node 9, Type 1, BuildingBlock: QEWDON_clean_linker_0, # of connection points: 3
#     Node 10, Type 1, BuildingBlock: QEWDON_clean_linker_0, # of connection points: 3
#     Node 11, Type 1, BuildingBlock: QEWDON_clean_linker_0, # of connection points: 3
#     Edge 12, Type (0, 1), BuildingBlock: UVAHIK_clean_linker_0, # of connection points: 2
#     Edge 13, Type (0, 1), BuildingBlock: UVAHIK_clean_linker_0, # of connection points: 2
#     Edge 14, Type (0, 1), BuildingBlock: UVAHIK_clean_linker_0, # of connection points: 2
#     Edge 15, Type (0, 1), BuildingBlock: UVAHIK_clean_linker_0, # of connection points: 2
#     Edge 16, Type (0, 1), BuildingBlock: UVAHIK_clean_linker_0, # of connection points: 2
#     Edge 17, Type (0, 1), BuildingBlock: UVAHIK_clean_linker_0, # of connection points: 2
#     Edge 18, Type (0, 1), BuildingBlock: UVAHIK_clean_linker_0, # of connection points: 2
#     Edge 19, Type (0, 1), BuildingBlock: UVAHIK_clean_linker_0, # of connection points: 2
#     Edge 20, Type (0, 1), BuildingBlock: UVAHIK_clean_linker_0, # of connection points: 2
#     Edge 21, Type (0, 1), BuildingBlock: UVAHIK_clean_linker_0, # of connection points: 2
#     Edge 22, Type (0, 1), BuildingBlock: UVAHIK_clean_linker_0, # of connection points: 2
#     Edge 23, Type (0, 1), BuildingBlock: UVAHIK_clean_linker_0, # of connection points: 2
#     Edge 24, Type (0, 1), BuildingBlock: UVAHIK_clean_linker_0, # of connection points: 2
#     Edge 25, Type (0, 1), BuildingBlock: UVAHIK_clean_linker_0, # of connection points: 2
#     Edge 26, Type (0, 1), BuildingBlock: UVAHIK_clean_linker_0, # of connection points: 2
#     Edge 27, Type (0, 1), BuildingBlock: UVAHIK_clean_linker_0, # of connection points: 2
#     Edge 28, Type (0, 1), BuildingBlock: UVAHIK_clean_linker_0, # of connection points: 2
#     Edge 29, Type (0, 1), BuildingBlock: UVAHIK_clean_linker_0, # of connection points: 2
#     Edge 30, Type (0, 1), BuildingBlock: UVAHIK_clean_linker_0, # of connection points: 2
#     Edge 31, Type (0, 1), BuildingBlock: UVAHIK_clean_linker_0, # of connection points: 2
#     Edge 32, Type (0, 1), BuildingBlock: UVAHIK_clean_linker_0, # of connection points: 2
#     Edge 33, Type (0, 1), BuildingBlock: UVAHIK_clean_linker_0, # of connection points: 2
#     Edge 34, Type (0, 1), BuildingBlock: UVAHIK_clean_linker_0, # of connection points: 2
#     Edge 35, Type (0, 1), BuildingBlock: UVAHIK_clean_linker_0, # of connection points: 2
# Relax obj value: 0.077
# Max RMSD: 0.114
# Mean RMSD: 0.079
data_MOF--net-dag--node1-MIDCAF_clean_sbu_0--node2-QEWDON_clean_linker_0--edge1-UVAHIK_clean_linker_0
_symmetry_space_group_name_H-M    P1
_symmetry_Int_Tables_number       1
_symmetry_cell_setting            triclinic
loop_
_symmetry_equiv_pos_as_xyz
'x, y, z'
_cell_length_a     55.362567
_cell_length_b     55.275895
_cell_length_c     41.647094
_cell_angle_alpha  89.461906
_cell_angle_beta   90.293695
_cell_angle_gamma 90.289402
loop_
_atom_site_label
_atom_site_type_symbol
_atom_site_fract_x
_atom_site_fract_y
_atom_site_fract_z
_atom_type_partial_charge
Zn0 Zn 0.1291 0.85905 0.09894 0.0
Zn1 Zn 0.09503 0.86578 0.99677 0.0
Zn2 Zn 0.1175 0.85921 0.04115 0.0
C3 C 0.11086 0.90862 1.00585 0.0
C4 C 0.0833 0.82082 1.01769 0.0
O5 O 0.13372 0.82293 0.0436 0.0
O6 O 0.14126 0.82481 0.09586 0.0
C7 C 0.15717 0.89498 0.06666 0.0
O8 O 0.12719 0.89381 1.01595 0.0
O9 O 0.08942 0.90105 1.00264 0.0
O10 O 0.07175 0.83978 1.01029 0.0
O11 O 0.10605 0.82259 0.02421 0.0
O12 O 0.15382 0.88591 0.0943 0.0
O13 O 0.14466 0.8876 0.04263 0.0
O14 O 0.08385 0.864 0.06335 0.0
O15 O 0.09469 0.86544 0.11406 0.0
C16 C 0.07828 0.86609 0.09275 0.0
O17 O 0.13061 0.83105 1.00944 0.0
O18 O 0.12362 0.85512 0.9682 0.0
C19 C 0.14199 0.81334 0.06972 0.0
C20 C 0.13493 0.83722 0.98005 0.0
Zn21 Zn 0.62756 0.62871 0.46632 0.0
Zn22 Zn 0.61968 0.61736 0.58546 0.0
Zn23 Zn 0.62285 0.62221 0.52763 0.0
C24 C 0.62142 0.57154 0.5652 0.0
C25 C 0.58092 0.64558 0.56701 0.0
O26 O 0.64991 0.65125 0.51924 0.0
O27 O 0.64623 0.65913 0.46722 0.0
C28 C 0.64425 0.58214 0.48057 0.0
O29 O 0.62933 0.58367 0.5408 0.0
O30 O 0.61146 0.58249 0.58801 0.0
O31 O 0.59426 0.64204 0.59122 0.0
O32 O 0.58651 0.63602 0.53994 0.0
O33 O 0.64543 0.59808 0.45871 0.0
O34 O 0.63471 0.58713 0.50787 0.0
O35 O 0.58601 0.62958 0.50735 0.0
O36 O 0.59273 0.63 0.45497 0.0
C37 C 0.57811 0.6305 0.4781 0.0
O38 O 0.65065 0.64558 0.55187 0.0
O39 O 0.65271 0.62712 0.59894 0.0
C40 C 0.65527 0.66402 0.49424 0.0
C41 C 0.661 0.64266 0.57949 0.0
Zn42 Zn 0.87384 0.10401 1.0008 0.0
Zn43 Zn 0.85354 0.1236 0.10339 0.0
Zn44 Zn 0.85688 0.11536 0.04658 0.0
C45 C 0.90228 0.11321 0.09094 0.0
C46 C 0.82072 0.08548 0.08801 0.0
O47 O 0.83971 0.14015 1.01195 0.0
O48 O 0.84206 0.11142 0.97607 0.0
C49 C 0.88722 0.15068 1.00941 0.0
O50 O 0.89353 0.11236 0.06264 0.0
O51 O 0.88838 0.11687 0.11441 0.0
O52 O 0.82743 0.09868 0.11109 0.0
O53 O 0.83041 0.08816 0.06027 0.0
O54 O 0.8981 0.13112 1.0036 0.0
O55 O 0.86552 0.1497 1.02048 0.0
O56 O 0.84439 0.07872 0.03104 0.0
O57 O 0.88036 0.06965 1.01269 0.0
C58 C 0.85938 0.06283 1.02067 0.0
O59 O 0.83928 0.15118 0.04471 0.0
O60 O 0.84254 0.15776 0.09686 0.0
C61 C 0.83213 0.13068 0.98552 0.0
C62 C 0.83597 0.16484 0.06921 0.0
Zn63 Zn 0.34842 0.3446 0.60235 0.0
Zn64 Zn 0.36189 0.37444 0.49796 0.0
Zn65 Zn 0.35296 0.35504 0.54468 0.0
C66 C 0.40351 0.35838 0.50999 0.0
C67 C 0.31636 0.38701 0.51298 0.0
O68 O 0.31714 0.33741 0.54331 0.0
O69 O 0.31626 0.32875 0.59535 0.0
C70 C 0.38946 0.31987 0.58035 0.0
O71 O 0.38802 0.34407 0.52343 0.0
O72 O 0.39734 0.37984 0.50315 0.0
O73 O 0.33566 0.39853 0.50685 0.0
O74 O 0.31776 0.3647 0.52217 0.0
O75 O 0.37762 0.32325 0.60577 0.0
O76 O 0.38284 0.33014 0.55395 0.0
O77 O 0.35483 0.38995 0.56538 0.0
O78 O 0.34986 0.37968 0.61599 0.0
C79 C 0.35263 0.39593 0.59466 0.0
O80 O 0.32692 0.3392 0.51071 0.0
O81 O 0.35193 0.34492 0.47056 0.0
C82 C 0.30648 0.32798 0.56787 0.0
C83 C 0.33391 0.33373 0.48214 0.0
H84 H 0.21322 0.10912 0.22531 0.0
C85 C 0.19635 0.11471 0.21424 0.0
C86 C 0.19105 0.108 0.18252 0.0
C87 C 0.17905 0.12673 0.2326 0.0
H88 H 0.16385 0.10741 0.14542 0.0
C89 C 0.1685 0.11403 0.1691 0.0
C90 C 0.15084 0.1256 0.18742 0.0
C91 C 0.15649 0.1323 0.21906 0.0
C92 C 0.18278 0.12965 0.26742 0.0
H93 H 0.14294 0.14085 0.23379 0.0
C94 C 0.19939 0.14662 0.27947 0.0
C95 C 0.20255 0.14915 0.31286 0.0
C96 C 0.16944 0.11512 0.28878 0.0
H97 H 0.15658 0.10194 0.27982 0.0
C98 C 0.17273 0.11735 0.32182 0.0
H99 H 0.20966 0.15786 0.26294 0.0
C100 C 0.18915 0.13424 0.33385 0.0
H101 H 0.191 0.13598 0.35963 0.0
H102 H 0.16239 0.10608 0.33816 0.0
H103 H 0.35764 0.70428 0.72997 0.0
C104 C 0.35153 0.68706 0.72066 0.0
C105 C 0.35923 0.67921 0.69034 0.0
C106 C 0.33743 0.67191 0.74032 0.0
H107 H 0.35822 0.64939 0.65721 0.0
C108 C 0.3513 0.65646 0.67949 0.0
C109 C 0.33669 0.64137 0.69861 0.0
C110 C 0.32985 0.64926 0.72916 0.0
C111 C 0.33444 0.67782 0.77443 0.0
H112 H 0.31945 0.63745 0.74483 0.0
C113 C 0.31608 0.69336 0.78457 0.0
C114 C 0.31405 0.69922 0.81727 0.0
C115 C 0.35066 0.66803 0.79698 0.0
H116 H 0.36492 0.65603 0.78943 0.0
C117 C 0.34872 0.67382 0.82937 0.0
H118 H 0.30363 0.70099 0.76709 0.0
C119 C 0.33058 0.68936 0.83951 0.0
H120 H 0.32924 0.6934 0.86484 0.0
H121 H 0.3613 0.66623 0.84666 0.0
H122 H 0.83099 0.80969 0.20066 0.0
C123 C 0.82059 0.82622 0.20164 0.0
C124 C 0.83114 0.84834 0.19234 0.0
C125 C 0.79663 0.82524 0.21249 0.0
H126 H 0.82505 0.8867 0.18696 0.0
C127 C 0.81719 0.86943 0.19381 0.0
C128 C 0.79298 0.86857 0.20354 0.0
C129 C 0.78273 0.84643 0.21308 0.0
C130 C 0.78656 0.80204 0.22403 0.0
H131 H 0.76408 0.84567 0.22084 0.0
C132 C 0.77906 0.79958 0.25605 0.0
C133 C 0.77161 0.77695 0.26817 0.0
C134 C 0.78606 0.78187 0.20384 0.0
H135 H 0.79192 0.78345 0.17912 0.0
C136 C 0.77807 0.75949 0.2155 0.0
H137 H 0.78009 0.81504 0.27183 0.0
C138 C 0.77099 0.75696 0.24748 0.0
H139 H 0.76494 0.73939 0.25602 0.0
H140 H 0.7776 0.744 0.19979 0.0
H141 H 0.68934 0.32086 0.66901 0.0
C142 C 0.67205 0.31157 0.66904 0.0
C143 C 0.65106 0.32435 0.66082 0.0
C144 C 0.67081 0.28699 0.67815 0.0
H145 H 0.61251 0.32169 0.65416 0.0
C146 C 0.62881 0.3122 0.66132 0.0
C147 C 0.62727 0.28772 0.67002 0.0
C148 C 0.64827 0.27506 0.67866 0.0
C149 C 0.69337 0.27408 0.68653 0.0
H150 H 0.64713 0.25607 0.6852 0.0
C151 C 0.69612 0.26229 0.71646 0.0
C152 C 0.7186 0.25248 0.72534 0.0
C153 C 0.713 0.27509 0.66527 0.0
H154 H 0.71125 0.28402 0.64211 0.0
C155 C 0.7351 0.26483 0.67383 0.0
H156 H 0.68124 0.26172 0.73327 0.0
C157 C 0.738 0.25378 0.70382 0.0
H158 H 0.75541 0.24627 0.71031 0.0
H159 H 0.75014 0.26576 0.65734 0.0
H160 H 0.6761 0.35775 0.2917 0.0
C161 C 0.66224 0.35015 0.30713 0.0
C162 C 0.66072 0.35768 0.33921 0.0
C163 C 0.64471 0.33434 0.2943 0.0
H164 H 0.6405 0.35498 0.383 0.0
C165 C 0.64202 0.34869 0.3585 0.0
C166 C 0.62358 0.33417 0.34573 0.0
C167 C 0.62533 0.32651 0.31376 0.0
C168 C 0.64446 0.32919 0.25937 0.0
H169 H 0.61093 0.31567 0.30346 0.0
C170 C 0.66467 0.31923 0.24388 0.0
C171 C 0.66421 0.31531 0.21042 0.0
C172 C 0.62387 0.33511 0.24112 0.0
H173 H 0.60821 0.343 0.2524 0.0
C174 C 0.62345 0.33143 0.20806 0.0
H175 H 0.68062 0.31455 0.25776 0.0
C176 C 0.64345 0.32167 0.19276 0.0
H177 H 0.64252 0.31865 0.16712 0.0
H178 H 0.60752 0.33615 0.19422 0.0
H179 H 0.15088 0.15128 0.84674 0.0
C180 C 0.13279 0.15863 0.84797 0.0
C181 C 0.11398 0.14428 0.86021 0.0
C182 C 0.12838 0.18239 0.83717 0.0
H183 H 0.07648 0.1432 0.87297 0.0
C184 C 0.09071 0.15402 0.86215 0.0
C185 C 0.08601 0.17798 0.85234 0.0
C186 C 0.10497 0.19202 0.83939 0.0
C187 C 0.14886 0.19744 0.82587 0.0
H188 H 0.10172 0.21056 0.8319 0.0
C189 C 0.14988 0.20633 0.79405 0.0
C190 C 0.17077 0.21845 0.78311 0.0
C191 C 0.16841 0.20158 0.84677 0.0
H192 H 0.16795 0.1949 0.8713 0.0
C193 C 0.18879 0.21416 0.83616 0.0
H194 H 0.13506 0.20288 0.77758 0.0
C195 C 0.19009 0.22236 0.80446 0.0
H196 H 0.20627 0.23169 0.79648 0.0
H197 H 0.20379 0.21723 0.85242 0.0
H198 H 0.33012 0.64882 0.34342 0.0
C199 C 0.3205 0.63194 0.34739 0.0
C200 C 0.33193 0.61292 0.36408 0.0
C201 C 0.29622 0.63 0.33731 0.0
H202 H 0.32706 0.57674 0.38306 0.0
C203 C 0.31867 0.59167 0.37023 0.0
C204 C 0.29439 0.58949 0.3608 0.0
C205 C 0.28327 0.60852 0.34376 0.0
C206 C 0.28385 0.65187 0.32453 0.0
H207 H 0.26429 0.60724 0.33743 0.0
C208 C 0.27268 0.65247 0.29393 0.0
C209 C 0.26298 0.67436 0.28188 0.0
C210 C 0.28426 0.67296 0.34314 0.0
H211 H 0.29254 0.67288 0.36678 0.0
C212 C 0.27418 0.69435 0.33151 0.0
H213 H 0.2724 0.63641 0.27921 0.0
C214 C 0.26379 0.69513 0.30102 0.0
H215 H 0.25633 0.71206 0.29226 0.0
H216 H 0.27466 0.71048 0.34606 0.0
H217 H 0.88655 0.78924 0.81097 0.0
C218 C 0.87768 0.80212 0.8264 0.0
C219 C 0.88538 0.80464 0.85838 0.0
C220 C 0.85972 0.81736 0.81372 0.0
H221 H 0.88176 0.82496 0.90186 0.0
C222 C 0.87484 0.82232 0.87773 0.0
C223 C 0.85722 0.83808 0.86521 0.0
C224 C 0.84961 0.83527 0.83317 0.0
C225 C 0.85425 0.81734 0.77895 0.0
H226 H 0.83636 0.84753 0.82292 0.0
C227 C 0.83985 0.79916 0.76496 0.0
C228 C 0.83457 0.79988 0.73173 0.0
C229 C 0.86341 0.83615 0.75967 0.0
H230 H 0.87448 0.85031 0.77008 0.0
C231 C 0.85846 0.83683 0.72684 0.0
H232 H 0.83275 0.78464 0.77989 0.0
C233 C 0.84414 0.8189 0.71293 0.0
H234 H 0.84014 0.82021 0.68749 0.0
H235 H 0.86558 0.85143 0.71214 0.0
C236 C 0.19683 0.91621 0.07215 0.0
C237 C 0.17228 0.91676 0.06379 0.0
C238 C 0.20999 0.93781 0.07497 0.0
C239 C 0.20413 0.00539 0.0649 0.0
H240 H 0.24205 0.0061 0.14328 0.0
C241 C 0.21089 0.06786 0.18065 0.0
C242 C 0.20617 0.09017 0.16569 0.0
C243 C 0.21821 0.04812 0.16256 0.0
C244 C 0.23149 0.00632 0.12133 0.0
H245 H 0.14205 0.93983 0.05247 0.0
H246 H 0.1644 0.9773 0.05753 0.0
H247 H 0.23115 0.96779 0.11941 0.0
H248 H 0.20822 0.11031 0.12099 0.0
H249 H 0.22237 0.07619 0.08948 0.0
H250 H 0.20197 0.04366 0.06877 0.0
C251 C 0.17417 0.96051 0.06051 0.0
C252 C 0.22555 0.98421 0.10721 0.0
C253 C 0.16122 0.93898 0.05741 0.0
C254 C 0.21156 0.09317 0.13299 0.0
C255 C 0.21939 0.07351 0.11493 0.0
C256 C 0.20951 0.02744 0.07945 0.0
C257 C 0.19859 0.96032 0.07025 0.0
C258 C 0.21057 0.98342 0.07983 0.0
C259 C 0.22132 0.05033 0.12908 0.0
C260 C 0.22207 0.02811 0.10894 0.0
H261 H 0.20559 0.89916 0.07756 0.0
H262 H 0.2288 0.93686 0.08208 0.0
H263 H 0.19338 0.00558 0.0431 0.0
H264 H 0.20665 0.06498 0.20578 0.0
H265 H 0.21921 0.03072 0.1746 0.0
C266 C 0.53783 0.65626 0.55402 0.0
C267 C 0.55925 0.66074 0.57106 0.0
C268 C 0.51649 0.66824 0.562 0.0
C269 C 0.48942 0.69157 0.63399 0.0
H270 H 0.43702 0.71201 0.57814 0.0
C271 C 0.39771 0.70366 0.6892 0.0
C272 C 0.37877 0.69223 0.67244 0.0
C273 C 0.41913 0.70987 0.67356 0.0
C274 C 0.45144 0.70632 0.59411 0.0
H275 H 0.57573 0.68283 0.60804 0.0
H276 H 0.53866 0.70371 0.62198 0.0
H277 H 0.47656 0.70295 0.55523 0.0
H278 H 0.36627 0.68213 0.62488 0.0
H279 H 0.40418 0.69083 0.59837 0.0
H280 H 0.46453 0.69292 0.67247 0.0
C281 C 0.53818 0.69069 0.6027 0.0
C282 C 0.47409 0.70123 0.58094 0.0
C283 C 0.55937 0.67868 0.59475 0.0
C284 C 0.38084 0.68989 0.63892 0.0
C285 C 0.40258 0.69533 0.6235 0.0
C286 C 0.46686 0.69625 0.64703 0.0
C287 C 0.51632 0.68492 0.58728 0.0
C288 C 0.49316 0.69341 0.60077 0.0
C289 C 0.42252 0.70404 0.64107 0.0
C290 C 0.44734 0.70322 0.62728 0.0
H291 H 0.53718 0.64237 0.53622 0.0
H292 H 0.49987 0.66321 0.54991 0.0
H293 H 0.50361 0.68512 0.64986 0.0
H294 H 0.39699 0.7061 0.71492 0.0
H295 H 0.43368 0.71763 0.68763 0.0
C296 C 0.78441 0.06908 0.11618 0.0
C297 C 0.80348 0.06569 0.09459 0.0
C298 C 0.77058 0.04937 0.12683 0.0
C299 C 0.76074 0.98291 0.11521 0.0
H300 H 0.758 0.98168 0.2082 0.0
C301 C 0.75894 0.89239 0.18009 0.0
C302 C 0.7786 0.89095 0.20141 0.0
C303 C 0.75009 0.915 0.17035 0.0
C304 C 0.75833 0.98177 0.18219 0.0
H305 H 0.82309 0.03927 0.06755 0.0
H306 H 0.7992 0.00492 0.08555 0.0
H307 H 0.76546 0.01973 0.18022 0.0
H308 H 0.80265 0.91139 0.23208 0.0
H309 H 0.78751 0.95064 0.21525 0.0
H310 H 0.756 0.9446 0.11733 0.0
C311 C 0.79415 0.02278 0.09353 0.0
C312 C 0.76237 0.00367 0.16605 0.0
C313 C 0.80785 0.0425 0.08287 0.0
C314 C 0.7875 0.91214 0.21553 0.0
C315 C 0.77866 0.93464 0.20593 0.0
C316 C 0.75691 0.96098 0.13136 0.0
C317 C 0.7758 0.02585 0.1164 0.0
C318 C 0.76495 0.00426 0.13246 0.0
C319 C 0.76078 0.9364 0.18189 0.0
C320 C 0.75704 0.95997 0.16513 0.0
H321 H 0.78077 0.08687 0.12569 0.0
H322 H 0.75646 0.05242 0.1442 0.0
H323 H 0.76203 0.98284 0.08926 0.0
H324 H 0.75184 0.87623 0.16886 0.0
H325 H 0.73605 0.91574 0.15217 0.0
C326 C 0.43395 0.32108 0.57484 0.0
C327 C 0.41313 0.308 0.58315 0.0
C328 C 0.45675 0.31261 0.58364 0.0
C329 C 0.49297 0.26161 0.61259 0.0
H330 H 0.52767 0.31161 0.65885 0.0
C331 C 0.59604 0.26451 0.64018 0.0
C332 C 0.60328 0.27612 0.66849 0.0
C333 C 0.57145 0.26169 0.633 0.0
C334 C 0.51813 0.2973 0.64643 0.0
H335 H 0.39961 0.27572 0.60688 0.0
H336 H 0.43979 0.26063 0.62227 0.0
H337 H 0.48805 0.32025 0.63638 0.0
H338 H 0.59102 0.29194 0.71274 0.0
H339 H 0.54809 0.28651 0.7007 0.0
H340 H 0.52366 0.23886 0.62213 0.0
C341 C 0.43842 0.27722 0.60833 0.0
C342 C 0.49556 0.30238 0.63316 0.0
C343 C 0.4155 0.28582 0.59958 0.0
C344 C 0.58578 0.28265 0.69097 0.0
C345 C 0.56126 0.27979 0.68387 0.0
C346 C 0.51589 0.25659 0.62556 0.0
C347 C 0.45916 0.291 0.60137 0.0
C348 C 0.48286 0.28473 0.61582 0.0
C349 C 0.55386 0.27061 0.65399 0.0
C350 C 0.5287 0.27446 0.64256 0.0
H351 H 0.43257 0.33881 0.56386 0.0
H352 H 0.47245 0.32361 0.57804 0.0
H353 H 0.48345 0.2477 0.59938 0.0
H354 H 0.60929 0.25978 0.62227 0.0
H355 H 0.56631 0.25465 0.60975 0.0
C356 C 0.67583 0.55563 0.45785 0.0
C357 C 0.65365 0.55786 0.47366 0.0
C358 C 0.68357 0.53314 0.44704 0.0
C359 C 0.67029 0.46677 0.4503 0.0
H360 H 0.69802 0.46834 0.36496 0.0
C361 C 0.67237 0.40111 0.33516 0.0
C362 C 0.6745 0.37883 0.35132 0.0
C363 C 0.67713 0.42274 0.35121 0.0
C364 C 0.69033 0.46753 0.38881 0.0
H365 H 0.62221 0.5385 0.49097 0.0
H366 H 0.63536 0.49911 0.47152 0.0
H367 H 0.69049 0.506 0.39263 0.0
H368 H 0.68597 0.36147 0.3956 0.0
H369 H 0.69519 0.39918 0.42335 0.0
H370 H 0.6686 0.42835 0.44553 0.0
C371 C 0.6472 0.51457 0.46816 0.0
C372 C 0.68627 0.48918 0.40494 0.0
C373 C 0.63958 0.53711 0.47929 0.0
C374 C 0.68412 0.37845 0.38263 0.0
C375 C 0.68904 0.40006 0.39864 0.0
C376 C 0.67418 0.44511 0.43405 0.0
C377 C 0.66905 0.5124 0.45118 0.0
C378 C 0.67572 0.48915 0.43565 0.0
C379 C 0.68431 0.4225 0.38371 0.0
C380 C 0.68376 0.44522 0.40277 0.0
H381 H 0.68698 0.57144 0.45325 0.0
H382 H 0.70072 0.53215 0.43475 0.0
H383 H 0.66251 0.46598 0.4741 0.0
H384 H 0.66467 0.40199 0.3112 0.0
H385 H 0.67316 0.43959 0.33888 0.0
C386 C 0.89176 0.18529 0.97148 0.0
C387 C 0.89933 0.17319 0.99949 0.0
C388 C 0.90839 0.19893 0.95343 0.0
C389 C 0.95068 0.20059 0.90769 0.0
H390 H 0.01156 0.22409 0.94182 0.0
C391 C 0.04086 0.1744 0.85338 0.0
C392 C 0.06174 0.18841 0.85855 0.0
C393 C 0.01855 0.18176 0.86522 0.0
C394 C -0.00539 0.21811 0.93145 0.0
H395 H 0.92908 0.16774 0.03251 0.0
H396 H 0.95784 0.1913 1.00171 0.0
H397 H 0.97589 0.22408 0.97546 0.0
H398 H 0.07515 0.22217 0.87797 0.0
H399 H 0.03598 0.23546 0.89784 0.0
H400 H 0.96941 0.19452 0.86374 0.0
C401 C 0.93932 0.19079 0.99331 0.0
C402 C 0.97412 0.21781 0.951 0.0
C403 C 0.92276 0.17725 1.0112 0.0
C404 C 0.0594 0.21096 0.87356 0.0
C405 C 0.03697 0.21842 0.88531 0.0
C406 C 0.97108 0.20123 0.888 0.0
C407 C 0.93281 0.2005 0.96312 0.0
C408 C 0.95221 0.20773 0.94001 0.0
C409 C 0.0164 0.20348 0.88236 0.0
C410 C -0.00635 0.20869 0.90017 0.0
H411 H 0.87385 0.18207 0.96175 0.0
H412 H 0.90256 0.20661 0.93069 0.0
H413 H 0.93426 0.1927 0.89813 0.0
H414 H 0.04198 0.15709 0.84151 0.0
H415 H 0.00333 0.16955 0.86261 0.0
C416 C 0.28823 0.42104 0.51707 0.0
C417 C 0.29372 0.39872 0.50321 0.0
C418 C 0.27512 0.43839 0.49982 0.0
C419 C 0.27214 0.45689 0.41632 0.0
H420 H 0.23704 0.51108 0.45109 0.0
C421 C 0.27405 0.54938 0.35179 0.0
C422 C 0.28058 0.56822 0.3725 0.0
C423 C 0.26575 0.52721 0.36437 0.0
C424 C 0.24676 0.49606 0.44089 0.0
H425 H 0.28799 0.37601 0.46187 0.0
H426 H 0.26472 0.40624 0.43164 0.0
H427 H 0.23859 0.4729 0.48103 0.0
H428 H 0.28244 0.57939 0.42206 0.0
H429 H 0.26807 0.54106 0.44403 0.0
H430 H 0.2817 0.48037 0.3773 0.0
C431 C 0.27059 0.41042 0.45582 0.0
C432 C 0.24757 0.47415 0.45802 0.0
C433 C 0.28354 0.39294 0.47331 0.0
C434 C 0.27729 0.56514 0.40565 0.0
C435 C 0.26893 0.54316 0.41818 0.0
C436 C 0.27141 0.4788 0.39927 0.0
C437 C 0.26754 0.43385 0.46812 0.0
C438 C 0.26115 0.45462 0.44661 0.0
C439 C 0.2638 0.52359 0.39783 0.0
C440 C 0.25961 0.49901 0.41201 0.0
H441 H 0.29636 0.42608 0.5398 0.0
H442 H 0.2733 0.45622 0.51007 0.0
H443 H 0.28302 0.44238 0.4069 0.0
H444 H 0.27666 0.55134 0.32614 0.0
H445 H 0.26175 0.51262 0.34798 0.0
C446 C 0.0763 0.78362 0.98616 0.0
C447 C 0.07053 0.79779 1.01277 0.0
C448 C 0.05819 0.77017 0.97063 0.0
C449 C -0.00971 0.75927 0.97174 0.0
H450 H -0.00294 0.77342 0.88103 0.0
C451 C 0.90557 0.77306 0.89264 0.0
C452 C 0.9072 0.79207 0.87023 0.0
C453 C 0.9265 0.7638 0.90728 0.0
C454 C -0.00532 0.76956 0.90635 0.0
H455 H 0.04262 0.80642 0.04677 0.0
H456 H 0.01129 0.78376 1.02013 0.0
H457 H 0.03244 0.77317 0.91504 0.0
H458 H 0.93152 0.81622 0.84508 0.0
H459 H 0.96775 0.80122 0.87134 0.0
H460 H 0.95223 0.7584 0.96363 0.0
C461 C 0.02941 0.78243 1.01074 0.0
C462 C 0.01526 0.76883 0.92597 0.0
C463 C 0.04751 0.7955 0.02634 0.0
C464 C 0.92996 0.80126 0.86197 0.0
C465 C 0.95078 0.79243 0.87699 0.0
C466 C 0.96964 0.76071 0.95228 0.0
C467 C 0.03401 0.77107 0.98124 0.0
C468 C 0.0133 0.7649 0.95933 0.0
C469 C 0.94941 0.77386 0.90039 0.0
C470 C 0.97143 0.76706 0.91955 0.0
H471 H 0.09392 0.78523 0.97511 0.0
H472 H 0.06277 0.76088 0.94874 0.0
H473 H 0.98794 0.75519 0.99701 0.0
H474 H 0.88809 0.76582 0.89942 0.0
H475 H 0.92457 0.74922 0.9246 0.0
C476 C 0.82898 0.03144 1.00371 0.0
C477 C 0.85231 0.03744 1.01453 0.0
C478 C 0.82384 0.00802 0.99282 0.0
C479 C 0.82525 0.9647 0.94773 0.0
H480 H 0.85786 0.90819 0.98225 0.0
C481 C 0.84811 0.88234 0.87027 0.0
C482 C 0.84912 0.85915 0.88438 0.0
C483 C 0.84325 0.90265 0.88886 0.0
C484 C 0.84822 0.9236 0.97248 0.0
H485 H 0.88824 0.02353 0.02354 0.0
H486 H 0.87947 0.98304 1.00446 0.0
H487 H 0.85828 0.94566 1.01238 0.0
H488 H 0.84464 0.83905 0.92888 0.0
H489 H 0.83585 0.8745 0.96136 0.0
H490 H 0.81529 0.94265 0.90774 0.0
C491 C 0.86495 -0.00392 1.00473 0.0
C492 C 0.84871 0.94523 0.98964 0.0
C493 C 0.87006 0.01939 1.01549 0.0
C494 C 0.84425 0.85669 0.91736 0.0
C495 C 0.83928 0.87703 0.93597 0.0
C496 C 0.82467 0.94302 0.93061 0.0
C497 C 0.84195 -0.00981 0.99252 0.0
C498 C 0.83788 0.96627 0.97703 0.0
C499 C 0.83919 0.90036 0.92209 0.0
C500 C 0.83676 0.92237 0.9423 0.0
H501 H 0.81503 0.04509 1.00246 0.0
H502 H 0.80586 0.00404 0.98388 0.0
H503 H 0.81681 0.98052 0.93715 0.0
H504 H 0.8522 0.88498 0.84507 0.0
H505 H 0.84379 0.92029 0.87735 0.0
C506 C 0.43163 0.32526 0.49359 0.0
C507 C 0.42765 0.34978 0.50051 0.0
C508 C 0.45388 0.31779 0.4813 0.0
C509 C 0.51762 0.33655 0.4728 0.0
H510 H 0.51597 0.30367 0.39089 0.0
C511 C 0.59141 0.35043 0.38104 0.0
C512 C 0.60109 0.33062 0.36464 0.0
C513 C 0.57118 0.34767 0.40038 0.0
C514 C 0.51679 0.31237 0.41408 0.0
H515 H 0.44401 0.38546 0.50126 0.0
H516 H 0.48277 0.37246 0.48037 0.0
H517 H 0.47874 0.3078 0.42199 0.0
H518 H 0.59622 0.29255 0.35435 0.0
H519 H 0.56007 0.28776 0.38824 0.0
H520 H 0.55533 0.34204 0.46446 0.0
C521 C 0.4688 0.35898 0.48433 0.0
C522 C 0.49551 0.31473 0.43187 0.0
C523 C 0.44655 0.36647 0.4961 0.0
C524 C 0.58927 0.30808 0.36693 0.0
C525 C 0.56869 0.30534 0.38631 0.0
C526 C 0.53879 0.33414 0.45515 0.0
C527 C 0.4726 0.33466 0.47628 0.0
C528 C 0.49559 0.3277 0.46078 0.0
C529 C 0.55978 0.32508 0.40371 0.0
C530 C 0.53842 0.32293 0.42498 0.0
H531 H 0.41732 0.31203 0.4967 0.0
H532 H 0.45638 0.29893 0.47539 0.0
H533 H 0.51829 0.34625 0.49528 0.0
H534 H 0.59951 0.36826 0.37892 0.0
H535 H 0.56431 0.36341 0.4126 0.0
C536 C 0.13747 0.94003 0.97978 0.0
C537 C 0.1164 0.9339 0.9967 0.0
C538 C 0.14025 0.96332 0.96649 0.0
C539 C 0.1015 0.01445 0.94006 0.0
H540 H 0.1621 0.04841 0.92711 0.0
C541 C 0.10407 0.10014 0.86208 0.0
C542 C 0.11853 0.11945 0.87253 0.0
C543 C 0.10649 0.07717 0.87595 0.0
C544 C 0.14498 0.03926 0.93074 0.0
H545 H 0.08283 0.94762 1.01554 0.0
H546 H 0.08811 0.98826 0.99398 0.0
H547 H 0.16161 0.01013 0.95702 0.0
H548 H 0.14733 0.12987 0.90498 0.0
H549 H 0.15107 0.0899 0.93016 0.0
H550 H 0.08461 0.04371 0.9152 0.0
C551 C 0.10203 0.97504 0.98947 0.0
C552 C 0.14475 0.01715 0.94762 0.0
C553 C 0.09907 0.95179 1.00212 0.0
C554 C 0.13606 0.11519 0.89639 0.0
C555 C 0.13823 0.09225 0.91071 0.0
C556 C 0.10169 0.03652 0.92359 0.0
C557 C 0.12212 0.98088 0.97029 0.0
C558 C 0.12294 0.00451 0.95261 0.0
C559 C 0.12309 0.07304 0.90115 0.0
C560 C 0.12341 0.04925 0.91851 0.0
H561 H 0.15109 0.9265 0.97533 0.0
H562 H 0.15598 0.96712 0.95192 0.0
H563 H 0.08438 0.0051 0.94267 0.0
H564 H 0.09062 0.10292 0.84344 0.0
H565 H 0.09501 0.06273 0.8672 0.0
C566 C 0.53572 0.61554 0.48609 0.0
C567 C 0.552 0.63117 0.47051 0.0
C568 C 0.51142 0.61463 0.47653 0.0
C569 C 0.46532 0.64732 0.42635 0.0
H570 H 0.43277 0.58506 0.42791 0.0
C571 C 0.37486 0.62843 0.35951 0.0
C572 C 0.35706 0.61569 0.37692 0.0
C573 C 0.39833 0.63098 0.37182 0.0
C574 C 0.44157 0.60261 0.42755 0.0
H575 H 0.55601 0.6573 0.43186 0.0
H576 H 0.51401 0.65526 0.41444 0.0
H577 H 0.47399 0.58837 0.44824 0.0
H578 H 0.35016 0.59636 0.42165 0.0
H579 H 0.39114 0.60018 0.4424 0.0
H580 H 0.43296 0.66129 0.40469 0.0
C581 C 0.51951 0.64441 0.43496 0.0
C582 C 0.46519 0.60458 0.43939 0.0
C583 C 0.54368 0.6455 0.44479 0.0
C584 C 0.36342 0.60571 0.40704 0.0
C585 C 0.38692 0.60801 0.41911 0.0
C586 C 0.4418 0.64527 0.41412 0.0
C587 C 0.50301 0.62887 0.45056 0.0
C588 C 0.47746 0.62696 0.43894 0.0
C589 C 0.40465 0.62065 0.40166 0.0
C590 C 0.42967 0.62289 0.41457 0.0
H591 H 0.54185 0.60383 0.50545 0.0
H592 H 0.49929 0.60263 0.48942 0.0
H593 H 0.4739 0.66496 0.42609 0.0
H594 H 0.37078 0.63614 0.33612 0.0
H595 H 0.41169 0.64066 0.35769 0.0
C596 C 0.34736 0.43979 0.5804 0.0
C597 C 0.35132 0.42169 0.60374 0.0
C598 C 0.34365 0.46377 0.58953 0.0
C599 C 0.32542 0.49998 0.65978 0.0
H600 H 0.35338 0.55352 0.61179 0.0
C601 C 0.33502 0.59666 0.70937 0.0
C602 C 0.33166 0.61624 0.68805 0.0
C603 C 0.33408 0.57291 0.69826 0.0
C604 C 0.34513 0.53877 0.62515 0.0
H605 H 0.35541 0.41469 0.65482 0.0
H606 H 0.34963 0.45648 0.67062 0.0
H607 H 0.35968 0.51223 0.59368 0.0
H608 H 0.32313 0.62617 0.6388 0.0
H609 H 0.32164 0.58463 0.61938 0.0
H610 H 0.31138 0.52656 0.69168 0.0
C611 C 0.3487 0.45212 0.64534 0.0
C612 C 0.34876 0.5151 0.61479 0.0
C613 C 0.35224 0.42818 0.63626 0.0
C614 C 0.32613 0.61147 0.65571 0.0
C615 C 0.32532 0.58772 0.64458 0.0
C616 C 0.3219 0.52363 0.67022 0.0
C617 C 0.34396 0.47015 0.62216 0.0
C618 C 0.3392 0.4954 0.63221 0.0
C619 C 0.32988 0.56823 0.66559 0.0
C620 C 0.33192 0.54326 0.65321 0.0
H621 H 0.34636 0.43533 0.55516 0.0
H622 H 0.33988 0.47718 0.57108 0.0
H623 H 0.31734 0.48525 0.67337 0.0
H624 H 0.33968 0.59968 0.73431 0.0
H625 H 0.33788 0.55827 0.71498 0.0
C626 C 0.04596 0.87468 0.1329 0.0
C627 C 0.05263 0.8671 0.10208 0.0
C628 C 0.0218 0.87367 0.14241 0.0
C629 C 0.96733 0.8392 0.13066 0.0
H630 H 0.93247 0.89487 0.16198 0.0
C631 C 0.87455 0.835 0.19531 0.0
C632 C 0.85661 0.84966 0.18118 0.0
C633 C 0.89858 0.83694 0.18544 0.0
C634 C 0.94208 0.87922 0.15333 0.0
H635 H 0.03919 0.8529 0.05693 0.0
H636 H -0.00286 0.85049 0.07401 0.0
H637 H 0.9747 0.89945 0.14515 0.0
H638 H 0.84998 0.87723 0.14465 0.0
H639 H 0.89209 0.88129 0.12867 0.0
H640 H 0.93488 0.81887 0.13942 0.0
C641 C 0.01061 0.8574 0.09057 0.0
C642 C 0.96613 0.88181 0.14386 0.0
C643 C 0.03464 0.85891 0.08081 0.0
C644 C 0.86332 0.8661 0.15672 0.0
C645 C 0.88739 0.86836 0.14737 0.0
C646 C 0.94345 0.8365 0.14079 0.0
C647 C 0.00405 0.86458 0.12151 0.0
C648 C 0.97883 0.86186 0.1322 0.0
C649 C 0.90518 0.85386 0.16171 0.0
C650 C 0.93062 0.85653 0.15194 0.0
H651 H 0.05944 0.88112 0.14976 0.0
H652 H 0.01706 0.87928 0.16643 0.0
H653 H 0.97689 0.82356 0.12189 0.0
H654 H 0.87018 0.8224 0.21449 0.0
H655 H 0.91212 0.82565 0.19687 0.0
C656 C 0.64612 0.53421 0.55676 0.0
C657 C 0.62514 0.54522 0.56842 0.0
C658 C 0.65109 0.50996 0.56431 0.0
C659 C 0.63943 0.46648 0.6287 0.0
H660 H 0.65753 0.41643 0.56899 0.0
C661 C 0.63452 0.3663 0.66305 0.0
C662 C 0.65201 0.35032 0.65146 0.0
C663 C 0.63404 0.39033 0.65265 0.0
C664 C 0.65292 0.43032 0.58603 0.0
H665 H 0.59256 0.53947 0.59616 0.0
H666 H 0.60128 0.49742 0.60952 0.0
H667 H 0.65087 0.45783 0.5493 0.0
H668 H 0.68308 0.34716 0.62035 0.0
H669 H 0.68254 0.38952 0.60252 0.0
H670 H 0.64143 0.43937 0.66544 0.0
C671 C 0.61392 0.50742 0.59463 0.0
C672 C 0.64902 0.45394 0.57471 0.0
C673 C 0.60888 0.53144 0.58687 0.0
C674 C 0.66947 0.35911 0.62984 0.0
C675 C 0.66899 0.38327 0.61937 0.0
C676 C 0.64349 0.44305 0.64001 0.0
C677 C 0.63534 0.49662 0.58415 0.0
C678 C 0.64164 0.47207 0.59589 0.0
C679 C 0.65114 0.3991 0.63051 0.0
C680 C 0.64967 0.42452 0.61874 0.0
H681 H 0.65924 0.54463 0.5432 0.0
H682 H 0.66777 0.50206 0.55603 0.0
H683 H 0.63431 0.48026 0.64567 0.0
H684 H 0.62098 0.36015 0.68 0.0
H685 H 0.61983 0.40189 0.66143 0.0
C686 C 0.94517 0.11538 0.07166 0.0
C687 C 0.92858 0.11134 0.09664 0.0
C688 C 0.97003 0.11583 0.07809 0.0
C689 C 0.01549 0.09655 0.13808 0.0
H690 H 0.05302 0.15148 0.1075 0.0
C691 C 0.10631 0.12046 0.19549 0.0
C692 C 0.12556 0.12697 0.17525 0.0
C693 C 0.08283 0.11866 0.18344 0.0
C694 C 0.04288 0.13587 0.11587 0.0
H695 H 0.92504 0.10382 0.14762 0.0
H696 H 0.96819 0.10437 0.15869 0.0
H697 H 0.01113 0.14643 0.08965 0.0
H698 H 0.13501 0.13761 0.12664 0.0
H699 H 0.09387 0.13413 0.10542 0.0
H700 H 0.04696 0.08603 0.1645 0.0
C701 C 0.96209 0.10719 0.13418 0.0
C702 C 0.01893 0.13295 0.1056 0.0
C703 C 0.93734 0.10701 0.12786 0.0
C704 C 0.12059 0.13241 0.14282 0.0
C705 C 0.09702 0.13056 0.1307 0.0
C706 C 0.03937 0.09941 0.14824 0.0
C707 C 0.9787 0.11189 0.10949 0.0
C708 C 0.00485 0.11354 0.11717 0.0
C709 C 0.07797 0.12315 0.15077 0.0
C710 C 0.05318 0.11939 0.13786 0.0
H711 H 0.93894 0.11889 0.04738 0.0
H712 H 0.98245 0.11937 0.05858 0.0
H713 H 0.00522 0.08117 0.14694 0.0
H714 H 0.10944 0.11576 0.22046 0.0
H715 H 0.0685 0.11337 0.19969 0.0
C716 C 0.13919 0.76934 0.08125 0.0
C717 C 0.153 0.78919 0.07075 0.0
C718 C 0.15048 0.7489 0.09455 0.0
C719 C 0.21112 0.72132 0.11319 0.0
H720 H 0.18027 0.70434 0.19371 0.0
C721 C 0.22992 0.66638 0.24186 0.0
C722 C 0.25251 0.67662 0.24916 0.0
C723 C 0.21751 0.67335 0.2138 0.0
C724 C 0.18898 0.70835 0.17104 0.0
H725 H 0.18925 0.80291 0.06411 0.0
H726 H 0.20905 0.76752 0.08718 0.0
H727 H 0.15859 0.72857 0.15429 0.0
H728 H 0.28047 0.70101 0.23236 0.0
H729 H 0.25918 0.71292 0.18336 0.0
H730 H 0.24205 0.7021 0.13102 0.0
C731 C 0.18957 0.76721 0.08476 0.0
C732 C 0.17648 0.72229 0.14825 0.0
C733 C 0.17826 0.78754 0.07134 0.0
C734 C 0.26317 0.69268 0.22703 0.0
C735 C 0.25094 0.69946 0.19893 0.0
C736 C 0.22368 0.70746 0.13611 0.0
C737 C 0.17581 0.74812 0.09807 0.0
C738 C 0.1876 0.72961 0.11937 0.0
C739 C 0.22759 0.69055 0.19246 0.0
C740 C 0.21302 0.70141 0.16574 0.0
H741 H 0.11966 0.77044 0.08161 0.0
H742 H 0.13927 0.73438 0.1039 0.0
H743 H 0.22015 0.72617 0.09103 0.0
H744 H 0.22123 0.65418 0.25877 0.0
H745 H 0.19965 0.66599 0.20941 0.0
C746 C 0.69823 0.64834 0.61242 0.0
C747 C 0.68179 0.6577 0.58977 0.0
C748 C 0.71608 0.66306 0.62586 0.0
C749 C 0.74817 0.72192 0.61764 0.0
H750 H 0.75838 0.71307 0.70923 0.0
C751 C 0.82405 0.77235 0.68598 0.0
C752 C 0.81853 0.78153 0.71646 0.0
C753 C 0.80803 0.75678 0.67021 0.0
C754 C 0.75566 0.71594 0.68371 0.0
H755 H 0.67132 0.68982 0.56321 0.0
H756 H 0.70267 0.71574 0.58657 0.0
H757 H 0.72943 0.68751 0.68124 0.0
H758 H 0.79192 0.7812 0.75442 0.0
H759 H 0.76391 0.75401 0.72696 0.0
H760 H 0.774 0.75082 0.62038 0.0
C761 C 0.70199 0.69683 0.59358 0.0
C762 C 0.73926 0.70104 0.66752 0.0
C763 C 0.68411 0.68198 0.57998 0.0
C764 C 0.79686 0.77422 0.73116 0.0
C765 C 0.78079 0.75866 0.71535 0.0
C766 C 0.76461 0.73686 0.63387 0.0
C767 C 0.71783 0.68766 0.61728 0.0
C768 C 0.73535 0.70374 0.63425 0.0
C769 C 0.78604 0.74996 0.68449 0.0
C770 C 0.76859 0.73404 0.66713 0.0
H771 H 0.69699 0.62964 0.6203 0.0
H772 H 0.72831 0.65521 0.64341 0.0
H773 H 0.74572 0.72445 0.59201 0.0
H774 H 0.84077 0.77731 0.67418 0.0
H775 H 0.81294 0.75003 0.64682 0.0
C776 C 0.82899 0.20691 0.08673 0.0
C777 C 0.822 0.18744 0.06727 0.0
C778 C 0.81239 0.22474 0.09492 0.0
C779 C 0.74869 0.22733 0.11238 0.0
H780 H 0.7607 0.29552 0.12727 0.0
C781 C 0.69425 0.28177 0.2046 0.0
C782 C 0.68476 0.30387 0.19358 0.0
C783 C 0.71136 0.26943 0.18638 0.0
C784 C 0.75705 0.27653 0.12313 0.0
H785 H 0.79285 0.17231 0.03896 0.0
H786 H 0.76357 0.2035 0.0535 0.0
H787 H 0.78942 0.27209 0.09565 0.0
H788 H 0.68656 0.33094 0.15568 0.0
H789 H 0.71684 0.30962 0.1242 0.0
H790 H 0.71676 0.23152 0.14062 0.0
C791 C 0.78195 0.20496 0.06236 0.0
C792 C 0.77347 0.26314 0.10504 0.0
C793 C 0.79876 0.18731 0.05367 0.0
C794 C 0.69351 0.31388 0.16468 0.0
C795 C 0.71088 0.30172 0.14673 0.0
C796 C 0.7325 0.24061 0.13082 0.0
C797 C 0.78832 0.22321 0.08426 0.0
C798 C 0.76956 0.23833 0.09969 0.0
C799 C 0.71961 0.27911 0.15702 0.0
C800 C 0.73662 0.26528 0.13671 0.0
H801 H 0.84677 0.20727 0.09773 0.0
H802 H 0.81788 0.23848 0.11188 0.0
H803 H 0.74535 0.20818 0.10914 0.0
H804 H 0.68771 0.27357 0.22665 0.0
H805 H 0.71798 0.25216 0.1951 0.0
C806 C 0.26175 0.32885 0.5695 0.0
C807 C 0.28303 0.31559 0.56558 0.0
C808 C 0.24082 0.31743 0.58106 0.0
C809 C 0.21578 0.25709 0.60825 0.0
H810 H 0.19357 0.29447 0.68056 0.0
C811 C 0.19173 0.21583 0.73058 0.0
C812 C 0.17352 0.22616 0.74922 0.0
C813 C 0.19749 0.22556 0.70049 0.0
C814 C 0.19905 0.28388 0.66012 0.0
H815 H 0.29886 0.27998 0.56792 0.0
H816 H 0.26272 0.25999 0.58788 0.0
H817 H 0.21705 0.31415 0.63869 0.0
H818 H 0.14638 0.25411 0.75084 0.0
H819 H 0.15667 0.27154 0.69807 0.0
H820 H 0.19911 0.22644 0.6312 0.0
C821 C 0.26166 0.27904 0.58179 0.0
C822 C 0.21252 0.29521 0.6359 0.0
C823 C 0.28247 0.29046 0.5702 0.0
C824 C 0.16037 0.24576 0.73669 0.0
C825 C 0.16636 0.25577 0.70667 0.0
C826 C 0.20247 0.24572 0.63264 0.0
C827 C 0.24099 0.29261 0.58921 0.0
C828 C 0.22192 0.28179 0.61027 0.0
C829 C 0.18539 0.2461 0.68857 0.0
C830 C 0.19475 0.25881 0.65947 0.0
H831 H 0.26194 0.34835 0.56658 0.0
H832 H 0.2251 0.32838 0.58583 0.0
H833 H 0.22224 0.24626 0.58857 0.0
H834 H 0.2022 0.2008 0.73992 0.0
H835 H 0.21244 0.21787 0.68746 0.0
C836 C 0.66493 0.70767 0.49546 0.0
C837 C 0.67297 0.68369 0.49563 0.0
C838 C 0.68016 0.72626 0.48475 0.0
C839 C 0.74136 0.73833 0.44885 0.0
H840 H 0.70269 0.77011 0.3832 0.0
C841 C 0.75008 0.79093 0.31753 0.0
C842 C 0.76497 0.77399 0.30244 0.0
C843 C 0.74255 0.78715 0.3492 0.0
C844 C 0.71386 0.76197 0.40175 0.0
H845 H 0.70341 0.66022 0.48785 0.0
H846 H 0.72986 0.6923 0.46832 0.0
H847 H 0.68297 0.75106 0.42849 0.0
H848 H 0.78493 0.74068 0.30929 0.0
H849 H 0.77144 0.73381 0.36418 0.0
H850 H 0.77216 0.74787 0.42033 0.0
C851 C 0.71219 0.69722 0.47706 0.0
C852 C 0.70252 0.75105 0.42799 0.0
C853 C 0.69705 0.67873 0.4882 0.0
C854 C 0.7731 0.75383 0.32011 0.0
C855 C 0.76569 0.75011 0.35175 0.0
C856 C 0.75271 0.74915 0.4224 0.0
C857 C 0.70338 0.72094 0.47318 0.0
C858 C 0.71601 0.73809 0.4511 0.0
C859 C 0.74991 0.76644 0.36643 0.0
C860 C 0.73894 0.76012 0.39787 0.0
H861 H 0.64629 0.71174 0.50098 0.0
H862 H 0.67301 0.74442 0.48287 0.0
H863 H 0.75234 0.72895 0.46653 0.0
H864 H 0.74353 0.80665 0.3045 0.0
H865 H 0.73048 0.8001 0.35993 0.0
C866 C 0.80057 0.12992 0.94272 0.0
C867 C 0.81461 0.14324 0.96448 0.0
C868 C 0.78541 0.14167 0.92077 0.0
C869 C 0.75948 0.20217 0.89833 0.0
H870 H 0.75673 0.17326 0.81389 0.0
C871 C 0.73772 0.2532 0.77953 0.0
C872 C 0.72255 0.24156 0.75737 0.0
C873 C 0.74445 0.24153 0.80809 0.0
C874 C 0.757 0.18138 0.83747 0.0
H875 H 0.82339 0.17925 0.9811 0.0
H876 H 0.79787 0.19997 0.94171 0.0
H877 H 0.77756 0.15234 0.85726 0.0
H878 H 0.70195 0.20911 0.74759 0.0
H879 H 0.71414 0.1883 0.79746 0.0
H880 H 0.74005 0.23198 0.8774 0.0
C881 C 0.7979 0.18039 0.94208 0.0
C882 C 0.76889 0.16934 0.86252 0.0
C883 C 0.81268 0.16855 0.96459 0.0
C884 C 0.71352 0.21841 0.76456 0.0
C885 C 0.72058 0.20654 0.79291 0.0
C886 C 0.74793 0.21443 0.87303 0.0
C887 C 0.78438 0.16711 0.91942 0.0
C888 C 0.77045 0.17958 0.89332 0.0
C889 C 0.73649 0.21783 0.81463 0.0
C890 C 0.74671 0.20418 0.84232 0.0
H891 H 0.80145 0.11035 0.94249 0.0
H892 H 0.77477 0.13071 0.90453 0.0
H893 H 0.75988 0.21051 0.92175 0.0
H894 H 0.74499 0.27102 0.77422 0.0
H895 H 0.75691 0.25054 0.82422 0.0
C896 C 0.32986 0.3077 0.43355 0.0
C897 C 0.32036 0.31598 0.46265 0.0
C898 C 0.31759 0.29014 0.41577 0.0
C899 C 0.27183 0.24175 0.42483 0.0
H900 H 0.27028 0.24407 0.33174 0.0
C901 C 0.23427 0.16216 0.35221 0.0
C902 C 0.219 0.16781 0.3262 0.0
C903 C 0.24791 0.18021 0.36708 0.0
C904 C 0.27042 0.24323 0.35773 0.0
H905 H 0.29015 0.31291 0.49539 0.0
H906 H 0.26861 0.28254 0.46426 0.0
H907 H 0.29028 0.27645 0.36132 0.0
H908 H 0.20656 0.19664 0.29473 0.0
H909 H 0.23022 0.22831 0.3209 0.0
H910 H 0.25145 0.20896 0.42138 0.0
C911 C 0.2858 0.28921 0.45547 0.0
C912 C 0.2821 0.26166 0.37468 0.0
C913 C 0.2981 0.3067 0.47329 0.0
C914 C 0.21835 0.19174 0.31456 0.0
C915 C 0.23191 0.20986 0.32957 0.0
C916 C 0.26013 0.22339 0.40791 0.0
C917 C 0.29551 0.28054 0.42665 0.0
C918 C 0.28293 0.26114 0.40845 0.0
C919 C 0.24649 0.20438 0.35641 0.0
C920 C 0.25931 0.22386 0.37416 0.0
H921 H 0.34702 0.31444 0.42475 0.0
H922 H 0.32573 0.28367 0.3939 0.0
H923 H 0.27238 0.24058 0.45079 0.0
H924 H 0.23543 0.14379 0.36135 0.0
H925 H 0.25939 0.17525 0.38719 0.0
C926 C 0.15853 0.83154 0.92968 0.0
C927 C 0.15138 0.82288 0.96002 0.0
C928 C 0.1748 0.81846 0.91119 0.0
C929 C 0.20003 0.75779 0.89977 0.0
H930 H 0.2547 0.79231 0.8632 0.0
C931 C 0.27049 0.71122 0.81939 0.0
C932 C 0.29461 0.71528 0.82859 0.0
C933 C 0.25196 0.72511 0.83238 0.0
C934 C 0.23949 0.78246 0.87321 0.0
H935 H 0.15526 0.79346 0.9945 0.0
H936 H 0.18361 0.77059 0.9621 0.0
H937 H 0.22391 0.81457 0.8924 0.0
H938 H 0.31841 0.73763 0.85738 0.0
H939 H 0.28609 0.76198 0.8799 0.0
H940 H 0.21586 0.72561 0.88105 0.0
C941 C 0.17658 0.78747 0.95263 0.0
C942 C 0.2218 0.79521 0.8897 0.0
C943 C 0.16047 0.80065 0.97126 0.0
C944 C 0.29994 0.73401 0.85009 0.0
C945 C 0.28148 0.74805 0.86277 0.0
C946 C 0.21761 0.74507 0.88299 0.0
C947 C 0.18406 0.79636 0.92253 0.0
C948 C 0.20206 0.78296 0.9035 0.0
C949 C 0.25727 0.7435 0.85443 0.0
C950 C 0.23767 0.75725 0.86992 0.0
H951 H 0.15184 0.84861 0.92036 0.0
H952 H 0.18011 0.82563 0.88796 0.0
H953 H 0.18489 0.74794 0.90994 0.0
H954 H 0.2659 0.6968 0.80298 0.0
H955 H 0.23345 0.72135 0.82538 0.0
loop_
_geom_bond_atom_site_label_1
_geom_bond_atom_site_label_2
_geom_bond_distance
_geom_bond_site_symmetry_2
_ccdc_geom_bond_type
Zn0 O6 1.920 . S
Zn0 O12 1.898 . S
Zn0 O15 1.905 . S
Zn1 O9 1.905 . S
Zn1 O10 1.898 . S
Zn1 O18 1.920 . S
Zn2 O5 2.080 . S
Zn2 O8 2.114 1_554 S
Zn2 O11 2.120 1_554 S
Zn2 O13 2.120 . S
Zn2 O14 2.114 . S
Zn2 O17 2.080 1_554 S
C3 O8 1.166 . S
C3 O9 1.182 . S
C4 O10 1.167 . S
C4 O11 1.299 . S
O5 Zn2 2.080 . S
O5 C19 1.305 . S
O6 Zn0 1.920 . S
O6 C19 1.234 . S
C7 O12 1.167 . S
C7 O13 1.299 . S
O8 Zn2 2.114 1_556 S
O8 C3 1.166 . S
O9 Zn1 1.905 . S
O9 C3 1.182 . S
O10 Zn1 1.898 . S
O10 C4 1.167 . S
O11 Zn2 2.120 1_556 S
O11 C4 1.299 . S
O12 Zn0 1.898 . S
O12 C7 1.167 . S
O13 Zn2 2.120 . S
O13 C7 1.299 . S
O14 Zn2 2.114 . S
O14 C16 1.166 . S
O15 Zn0 1.905 . S
O15 C16 1.182 . S
C16 O14 1.166 . S
C16 O15 1.182 . S
O17 Zn2 2.080 1_556 S
O17 C20 1.305 . S
O18 Zn1 1.920 . S
O18 C20 1.234 . S
C19 O5 1.305 . S
C19 O6 1.234 . S
C20 O17 1.305 . S
C20 O18 1.234 . S
Zn21 O27 1.920 . S
Zn21 O33 1.898 . S
Zn21 O36 1.905 . S
Zn22 O30 1.905 . S
Zn22 O31 1.898 . S
Zn22 O39 1.920 . S
Zn23 O26 2.080 . S
Zn23 O29 2.114 . S
Zn23 O32 2.120 . S
Zn23 O34 2.120 . S
Zn23 O35 2.114 . S
Zn23 O38 2.080 . S
C24 O29 1.166 . S
C24 O30 1.182 . S
C25 O31 1.167 . S
C25 O32 1.299 . S
O26 Zn23 2.080 . S
O26 C40 1.305 . S
O27 Zn21 1.920 . S
O27 C40 1.234 . S
C28 O33 1.167 . S
C28 O34 1.299 . S
O29 Zn23 2.114 . S
O29 C24 1.166 . S
O30 Zn22 1.905 . S
O30 C24 1.182 . S
O31 Zn22 1.898 . S
O31 C25 1.167 . S
O32 Zn23 2.120 . S
O32 C25 1.299 . S
O33 Zn21 1.898 . S
O33 C28 1.167 . S
O34 Zn23 2.120 . S
O34 C28 1.299 . S
O35 Zn23 2.114 . S
O35 C37 1.166 . S
O36 Zn21 1.905 . S
O36 C37 1.182 . S
C37 O35 1.166 . S
C37 O36 1.182 . S
O38 Zn23 2.080 . S
O38 C41 1.305 . S
O39 Zn22 1.920 . S
O39 C41 1.234 . S
C40 O26 1.305 . S
C40 O27 1.234 . S
C41 O38 1.305 . S
C41 O39 1.234 . S
Zn42 O48 1.920 . S
Zn42 O54 1.898 . S
Zn42 O57 1.905 . S
Zn43 O51 1.905 . S
Zn43 O52 1.898 . S
Zn43 O60 1.920 . S
Zn44 O47 2.080 1_554 S
Zn44 O50 2.114 . S
Zn44 O53 2.120 . S
Zn44 O55 2.120 1_554 S
Zn44 O56 2.114 1_554 S
Zn44 O59 2.080 . S
C45 O50 1.166 . S
C45 O51 1.182 . S
C46 O52 1.167 . S
C46 O53 1.299 . S
O47 Zn44 2.080 1_556 S
O47 C61 1.305 . S
O48 Zn42 1.920 . S
O48 C61 1.234 . S
C49 O54 1.167 . S
C49 O55 1.299 . S
O50 Zn44 2.114 . S
O50 C45 1.166 . S
O51 Zn43 1.905 . S
O51 C45 1.182 . S
O52 Zn43 1.898 . S
O52 C46 1.167 . S
O53 Zn44 2.120 . S
O53 C46 1.299 . S
O54 Zn42 1.898 . S
O54 C49 1.167 . S
O55 Zn44 2.120 1_556 S
O55 C49 1.299 . S
O56 Zn44 2.114 1_556 S
O56 C58 1.166 . S
O57 Zn42 1.905 . S
O57 C58 1.182 . S
C58 O56 1.166 . S
C58 O57 1.182 . S
O59 Zn44 2.080 . S
O59 C62 1.305 . S
O60 Zn43 1.920 . S
O60 C62 1.234 . S
C61 O47 1.305 . S
C61 O48 1.234 . S
C62 O59 1.305 . S
C62 O60 1.234 . S
Zn63 O69 1.920 . S
Zn63 O75 1.898 . S
Zn63 O78 1.905 . S
Zn64 O72 1.905 . S
Zn64 O73 1.898 . S
Zn64 O81 1.920 . S
Zn65 O68 2.080 . S
Zn65 O71 2.114 . S
Zn65 O74 2.120 . S
Zn65 O76 2.120 . S
Zn65 O77 2.114 . S
Zn65 O80 2.080 . S
C66 O71 1.166 . S
C66 O72 1.182 . S
C67 O73 1.167 . S
C67 O74 1.299 . S
O68 Zn65 2.080 . S
O68 C82 1.305 . S
O69 Zn63 1.920 . S
O69 C82 1.234 . S
C70 O75 1.167 . S
C70 O76 1.299 . S
O71 Zn65 2.114 . S
O71 C66 1.166 . S
O72 Zn64 1.905 . S
O72 C66 1.182 . S
O73 Zn64 1.898 . S
O73 C67 1.167 . S
O74 Zn65 2.120 . S
O74 C67 1.299 . S
O75 Zn63 1.898 . S
O75 C70 1.167 . S
O76 Zn65 2.120 . S
O76 C70 1.299 . S
O77 Zn65 2.114 . S
O77 C79 1.166 . S
O78 Zn63 1.905 . S
O78 C79 1.182 . S
C79 O77 1.166 . S
C79 O78 1.182 . S
O80 Zn65 2.080 . S
O80 C83 1.305 . S
O81 Zn64 1.920 . S
O81 C83 1.234 . S
C82 O68 1.305 . S
C82 O69 1.234 . S
C83 O80 1.305 . S
C83 O81 1.234 . S
H84 C85 0.949 . S
C85 H84 0.949 . S
C85 C86 1.395 . S
C85 C87 1.391 . S
C86 C85 1.395 . S
C86 C89 1.390 . S
C87 C85 1.391 . S
C87 C91 1.387 . S
C87 C92 1.491 . S
H88 C89 0.950 . S
C89 C86 1.390 . S
C89 H88 0.950 . S
C89 C90 1.378 . S
C90 C89 1.378 . S
C90 C91 1.409 . S
C91 C87 1.387 . S
C91 C90 1.409 . S
C91 H93 0.951 . S
C92 C87 1.491 . S
C92 C94 1.382 . S
C92 C96 1.404 . S
H93 C91 0.951 . S
C94 C92 1.382 . S
C94 C95 1.390 . S
C94 H99 0.949 . S
C95 C94 1.390 . S
C95 C100 1.399 . S
C96 C92 1.404 . S
C96 H97 0.950 . S
C96 C98 1.375 . S
H97 C96 0.950 . S
C98 C96 1.375 . S
C98 C100 1.382 . S
C98 H102 0.950 . S
H99 C94 0.949 . S
C100 C95 1.399 . S
C100 C98 1.382 . S
C100 H101 0.952 . S
H101 C100 0.952 . S
H102 C98 0.950 . S
H103 C104 0.949 . S
C104 H103 0.949 . S
C104 C105 1.395 . S
C104 C106 1.391 . S
C105 C104 1.395 . S
C105 C108 1.390 . S
C106 C104 1.391 . S
C106 C110 1.387 . S
C106 C111 1.491 . S
H107 C108 0.950 . S
C108 C105 1.390 . S
C108 H107 0.950 . S
C108 C109 1.378 . S
C109 C108 1.378 . S
C109 C110 1.409 . S
C110 C106 1.387 . S
C110 C109 1.409 . S
C110 H112 0.951 . S
C111 C106 1.491 . S
C111 C113 1.382 . S
C111 C115 1.404 . S
H112 C110 0.951 . S
C113 C111 1.382 . S
C113 C114 1.390 . S
C113 H118 0.949 . S
C114 C113 1.390 . S
C114 C119 1.399 . S
C115 C111 1.404 . S
C115 H116 0.950 . S
C115 C117 1.375 . S
H116 C115 0.950 . S
C117 C115 1.375 . S
C117 C119 1.382 . S
C117 H121 0.950 . S
H118 C113 0.949 . S
C119 C114 1.399 . S
C119 C117 1.382 . S
C119 H120 0.952 . S
H120 C119 0.952 . S
H121 C117 0.950 . S
H122 C123 0.949 . S
C123 H122 0.949 . S
C123 C124 1.395 . S
C123 C125 1.391 . S
C124 C123 1.395 . S
C124 C127 1.390 . S
C125 C123 1.391 . S
C125 C129 1.387 . S
C125 C130 1.491 . S
H126 C127 0.950 . S
C127 C124 1.390 . S
C127 H126 0.950 . S
C127 C128 1.378 . S
C128 C127 1.378 . S
C128 C129 1.409 . S
C129 C125 1.387 . S
C129 C128 1.409 . S
C129 H131 0.951 . S
C130 C125 1.491 . S
C130 C132 1.382 . S
C130 C134 1.404 . S
H131 C129 0.951 . S
C132 C130 1.382 . S
C132 C133 1.390 . S
C132 H137 0.949 . S
C133 C132 1.390 . S
C133 C138 1.399 . S
C134 C130 1.404 . S
C134 H135 0.950 . S
C134 C136 1.375 . S
H135 C134 0.950 . S
C136 C134 1.375 . S
C136 C138 1.382 . S
C136 H140 0.950 . S
H137 C132 0.949 . S
C138 C133 1.399 . S
C138 C136 1.382 . S
C138 H139 0.952 . S
H139 C138 0.952 . S
H140 C136 0.950 . S
H141 C142 0.949 . S
C142 H141 0.949 . S
C142 C143 1.395 . S
C142 C144 1.391 . S
C143 C142 1.395 . S
C143 C146 1.390 . S
C144 C142 1.391 . S
C144 C148 1.387 . S
C144 C149 1.491 . S
H145 C146 0.950 . S
C146 C143 1.390 . S
C146 H145 0.950 . S
C146 C147 1.378 . S
C147 C146 1.378 . S
C147 C148 1.409 . S
C148 C144 1.387 . S
C148 C147 1.409 . S
C148 H150 0.951 . S
C149 C144 1.491 . S
C149 C151 1.382 . S
C149 C153 1.404 . S
H150 C148 0.951 . S
C151 C149 1.382 . S
C151 C152 1.390 . S
C151 H156 0.949 . S
C152 C151 1.390 . S
C152 C157 1.399 . S
C153 C149 1.404 . S
C153 H154 0.950 . S
C153 C155 1.375 . S
H154 C153 0.950 . S
C155 C153 1.375 . S
C155 C157 1.382 . S
C155 H159 0.950 . S
H156 C151 0.949 . S
C157 C152 1.399 . S
C157 C155 1.382 . S
C157 H158 0.952 . S
H158 C157 0.952 . S
H159 C155 0.950 . S
H160 C161 0.949 . S
C161 H160 0.949 . S
C161 C162 1.395 . S
C161 C163 1.391 . S
C162 C161 1.395 . S
C162 C165 1.390 . S
C163 C161 1.391 . S
C163 C167 1.387 . S
C163 C168 1.491 . S
H164 C165 0.950 . S
C165 C162 1.390 . S
C165 H164 0.950 . S
C165 C166 1.378 . S
C166 C165 1.378 . S
C166 C167 1.409 . S
C167 C163 1.387 . S
C167 C166 1.409 . S
C167 H169 0.951 . S
C168 C163 1.491 . S
C168 C170 1.382 . S
C168 C172 1.404 . S
H169 C167 0.951 . S
C170 C168 1.382 . S
C170 C171 1.390 . S
C170 H175 0.949 . S
C171 C170 1.390 . S
C171 C176 1.399 . S
C172 C168 1.404 . S
C172 H173 0.950 . S
C172 C174 1.375 . S
H173 C172 0.950 . S
C174 C172 1.375 . S
C174 C176 1.382 . S
C174 H178 0.950 . S
H175 C170 0.949 . S
C176 C171 1.399 . S
C176 C174 1.382 . S
C176 H177 0.952 . S
H177 C176 0.952 . S
H178 C174 0.950 . S
H179 C180 0.949 . S
C180 H179 0.949 . S
C180 C181 1.395 . S
C180 C182 1.391 . S
C181 C180 1.395 . S
C181 C184 1.390 . S
C182 C180 1.391 . S
C182 C186 1.387 . S
C182 C187 1.491 . S
H183 C184 0.950 . S
C184 C181 1.390 . S
C184 H183 0.950 . S
C184 C185 1.378 . S
C185 C184 1.378 . S
C185 C186 1.409 . S
C186 C182 1.387 . S
C186 C185 1.409 . S
C186 H188 0.951 . S
C187 C182 1.491 . S
C187 C189 1.382 . S
C187 C191 1.404 . S
H188 C186 0.951 . S
C189 C187 1.382 . S
C189 C190 1.390 . S
C189 H194 0.949 . S
C190 C189 1.390 . S
C190 C195 1.399 . S
C191 C187 1.404 . S
C191 H192 0.950 . S
C191 C193 1.375 . S
H192 C191 0.950 . S
C193 C191 1.375 . S
C193 C195 1.382 . S
C193 H197 0.950 . S
H194 C189 0.949 . S
C195 C190 1.399 . S
C195 C193 1.382 . S
C195 H196 0.952 . S
H196 C195 0.952 . S
H197 C193 0.950 . S
H198 C199 0.949 . S
C199 H198 0.949 . S
C199 C200 1.395 . S
C199 C201 1.391 . S
C200 C199 1.395 . S
C200 C203 1.390 . S
C201 C199 1.391 . S
C201 C205 1.387 . S
C201 C206 1.491 . S
H202 C203 0.950 . S
C203 C200 1.390 . S
C203 H202 0.950 . S
C203 C204 1.378 . S
C204 C203 1.378 . S
C204 C205 1.409 . S
C205 C201 1.387 . S
C205 C204 1.409 . S
C205 H207 0.951 . S
C206 C201 1.491 . S
C206 C208 1.382 . S
C206 C210 1.404 . S
H207 C205 0.951 . S
C208 C206 1.382 . S
C208 C209 1.390 . S
C208 H213 0.949 . S
C209 C208 1.390 . S
C209 C214 1.399 . S
C210 C206 1.404 . S
C210 H211 0.950 . S
C210 C212 1.375 . S
H211 C210 0.950 . S
C212 C210 1.375 . S
C212 C214 1.382 . S
C212 H216 0.950 . S
H213 C208 0.949 . S
C214 C209 1.399 . S
C214 C212 1.382 . S
C214 H215 0.952 . S
H215 C214 0.952 . S
H216 C212 0.950 . S
H217 C218 0.949 . S
C218 H217 0.949 . S
C218 C219 1.395 . S
C218 C220 1.391 . S
C219 C218 1.395 . S
C219 C222 1.390 . S
C220 C218 1.391 . S
C220 C224 1.387 . S
C220 C225 1.491 . S
H221 C222 0.950 . S
C222 C219 1.390 . S
C222 H221 0.950 . S
C222 C223 1.378 . S
C223 C222 1.378 . S
C223 C224 1.409 . S
C224 C220 1.387 . S
C224 C223 1.409 . S
C224 H226 0.951 . S
C225 C220 1.491 . S
C225 C227 1.382 . S
C225 C229 1.404 . S
H226 C224 0.951 . S
C227 C225 1.382 . S
C227 C228 1.390 . S
C227 H232 0.949 . S
C228 C227 1.390 . S
C228 C233 1.399 . S
C229 C225 1.404 . S
C229 H230 0.950 . S
C229 C231 1.375 . S
H230 C229 0.950 . S
C231 C229 1.375 . S
C231 C233 1.382 . S
C231 H235 0.950 . S
H232 C227 0.949 . S
C233 C228 1.399 . S
C233 C231 1.382 . S
C233 H234 0.952 . S
H234 C233 0.952 . S
H235 C231 0.950 . S
C236 C237 1.349 . S
C236 C238 1.327 . S
C236 H261 0.950 . S
C237 C236 1.349 . S
C237 C253 1.349 . S
C238 C236 1.327 . S
C238 C257 1.429 . S
C238 H262 0.950 . S
C239 C256 1.574 . S
C239 C258 1.368 1_545 S
C239 H263 0.949 . S
H240 C244 0.949 . S
C241 C242 1.349 . S
C241 C243 1.327 . S
C241 H264 0.950 . S
C242 C241 1.349 . S
C242 C254 1.349 . S
C243 C241 1.327 . S
C243 C259 1.429 . S
C243 H265 0.950 . S
C244 H240 0.949 . S
C244 C252 1.574 1_545 S
C244 C260 1.368 . S
H245 C253 0.950 . S
H246 C251 0.950 . S
H247 C252 0.949 . S
H248 C254 0.950 . S
H249 C255 0.950 . S
H250 C256 0.949 . S
C251 H246 0.950 . S
C251 C253 1.327 . S
C251 C257 1.429 . S
C252 C244 1.574 1_565 S
C252 H247 0.949 . S
C252 C258 1.368 . S
C253 C237 1.349 . S
C253 H245 0.950 . S
C253 C251 1.327 . S
C254 C242 1.349 . S
C254 H248 0.950 . S
C254 C255 1.327 . S
C255 H249 0.950 . S
C255 C254 1.327 . S
C255 C259 1.429 . S
C256 C239 1.574 . S
C256 H250 0.949 . S
C256 C260 1.368 . S
C257 C238 1.429 . S
C257 C251 1.429 . S
C257 C258 1.523 . S
C258 C239 1.368 1_565 S
C258 C252 1.368 . S
C258 C257 1.523 . S
C259 C243 1.429 . S
C259 C255 1.429 . S
C259 C260 1.523 . S
C260 C244 1.368 . S
C260 C256 1.368 . S
C260 C259 1.523 . S
H261 C236 0.950 . S
H262 C238 0.950 . S
H263 C239 0.949 . S
H264 C241 0.950 . S
H265 C243 0.950 . S
C266 C267 1.349 . S
C266 C268 1.327 . S
C266 H291 0.950 . S
C267 C266 1.349 . S
C267 C283 1.349 . S
C268 C266 1.327 . S
C268 C287 1.429 . S
C268 H292 0.950 . S
C269 C286 1.574 . S
C269 C288 1.368 . S
C269 H293 0.949 . S
H270 C274 0.949 . S
C271 C272 1.349 . S
C271 C273 1.327 . S
C271 H294 0.950 . S
C272 C271 1.349 . S
C272 C284 1.349 . S
C273 C271 1.327 . S
C273 C289 1.429 . S
C273 H295 0.950 . S
C274 H270 0.949 . S
C274 C282 1.574 . S
C274 C290 1.368 . S
H275 C283 0.950 . S
H276 C281 0.950 . S
H277 C282 0.949 . S
H278 C284 0.950 . S
H279 C285 0.950 . S
H280 C286 0.949 . S
C281 H276 0.950 . S
C281 C283 1.327 . S
C281 C287 1.429 . S
C282 C274 1.574 . S
C282 H277 0.949 . S
C282 C288 1.368 . S
C283 C267 1.349 . S
C283 H275 0.950 . S
C283 C281 1.327 . S
C284 C272 1.349 . S
C284 H278 0.950 . S
C284 C285 1.327 . S
C285 H279 0.950 . S
C285 C284 1.327 . S
C285 C289 1.429 . S
C286 C269 1.574 . S
C286 H280 0.949 . S
C286 C290 1.368 . S
C287 C268 1.429 . S
C287 C281 1.429 . S
C287 C288 1.523 . S
C288 C269 1.368 . S
C288 C282 1.368 . S
C288 C287 1.523 . S
C289 C273 1.429 . S
C289 C285 1.429 . S
C289 C290 1.523 . S
C290 C274 1.368 . S
C290 C286 1.368 . S
C290 C289 1.523 . S
H291 C266 0.950 . S
H292 C268 0.950 . S
H293 C269 0.949 . S
H294 C271 0.950 . S
H295 C273 0.950 . S
C296 C297 1.349 . S
C296 C298 1.327 . S
C296 H321 0.950 . S
C297 C296 1.349 . S
C297 C313 1.349 . S
C298 C296 1.327 . S
C298 C317 1.429 . S
C298 H322 0.950 . S
C299 C316 1.574 . S
C299 C318 1.368 1_565 S
C299 H323 0.949 . S
H300 C304 0.948 1_545 S
C301 C302 1.349 . S
C301 C303 1.327 . S
C301 H324 0.950 . S
C302 C301 1.349 . S
C302 C314 1.349 . S
C303 C301 1.327 . S
C303 C319 1.429 . S
C303 H325 0.950 . S
C304 H300 0.948 1_565 S
C304 C312 1.574 1_565 S
C304 C320 1.368 . S
H305 C313 0.950 . S
H306 C311 0.950 . S
H307 C312 0.949 . S
H308 C314 0.950 . S
H309 C315 0.950 . S
H310 C316 0.949 . S
C311 H306 0.950 . S
C311 C313 1.327 . S
C311 C317 1.429 . S
C312 C304 1.574 1_545 S
C312 H307 0.949 . S
C312 C318 1.368 . S
C313 C297 1.349 . S
C313 H305 0.950 . S
C313 C311 1.327 . S
C314 C302 1.349 . S
C314 H308 0.950 . S
C314 C315 1.327 . S
C315 H309 0.950 . S
C315 C314 1.327 . S
C315 C319 1.429 . S
C316 C299 1.574 . S
C316 H310 0.949 . S
C316 C320 1.368 . S
C317 C298 1.429 . S
C317 C311 1.429 . S
C317 C318 1.523 . S
C318 C299 1.368 1_545 S
C318 C312 1.368 . S
C318 C317 1.523 . S
C319 C303 1.429 . S
C319 C315 1.429 . S
C319 C320 1.523 . S
C320 C304 1.368 . S
C320 C316 1.368 . S
C320 C319 1.523 . S
H321 C296 0.950 . S
H322 C298 0.950 . S
H323 C299 0.949 . S
H324 C301 0.950 . S
H325 C303 0.950 . S
C326 C327 1.349 . S
C326 C328 1.327 . S
C326 H351 0.950 . S
C327 C326 1.349 . S
C327 C343 1.349 . S
C328 C326 1.327 . S
C328 C347 1.429 . S
C328 H352 0.950 . S
C329 C346 1.574 . S
C329 C348 1.368 . S
C329 H353 0.949 . S
H330 C334 0.949 . S
C331 C332 1.349 . S
C331 C333 1.327 . S
C331 H354 0.950 . S
C332 C331 1.349 . S
C332 C344 1.349 . S
C333 C331 1.327 . S
C333 C349 1.429 . S
C333 H355 0.950 . S
C334 H330 0.949 . S
C334 C342 1.574 . S
C334 C350 1.368 . S
H335 C343 0.950 . S
H336 C341 0.950 . S
H337 C342 0.949 . S
H338 C344 0.950 . S
H339 C345 0.950 . S
H340 C346 0.949 . S
C341 H336 0.950 . S
C341 C343 1.327 . S
C341 C347 1.429 . S
C342 C334 1.574 . S
C342 H337 0.949 . S
C342 C348 1.368 . S
C343 C327 1.349 . S
C343 H335 0.950 . S
C343 C341 1.327 . S
C344 C332 1.349 . S
C344 H338 0.950 . S
C344 C345 1.327 . S
C345 H339 0.950 . S
C345 C344 1.327 . S
C345 C349 1.429 . S
C346 C329 1.574 . S
C346 H340 0.949 . S
C346 C350 1.368 . S
C347 C328 1.429 . S
C347 C341 1.429 . S
C347 C348 1.523 . S
C348 C329 1.368 . S
C348 C342 1.368 . S
C348 C347 1.523 . S
C349 C333 1.429 . S
C349 C345 1.429 . S
C349 C350 1.523 . S
C350 C334 1.368 . S
C350 C346 1.368 . S
C350 C349 1.523 . S
H351 C326 0.950 . S
H352 C328 0.950 . S
H353 C329 0.949 . S
H354 C331 0.950 . S
H355 C333 0.950 . S
C356 C357 1.349 . S
C356 C358 1.327 . S
C356 H381 0.950 . S
C357 C356 1.349 . S
C357 C373 1.349 . S
C358 C356 1.327 . S
C358 C377 1.429 . S
C358 H382 0.950 . S
C359 C376 1.574 . S
C359 C378 1.368 . S
C359 H383 0.949 . S
H360 C364 0.949 . S
C361 C362 1.349 . S
C361 C363 1.327 . S
C361 H384 0.950 . S
C362 C361 1.349 . S
C362 C374 1.349 . S
C363 C361 1.327 . S
C363 C379 1.429 . S
C363 H385 0.950 . S
C364 H360 0.949 . S
C364 C372 1.574 . S
C364 C380 1.368 . S
H365 C373 0.950 . S
H366 C371 0.950 . S
H367 C372 0.949 . S
H368 C374 0.950 . S
H369 C375 0.950 . S
H370 C376 0.949 . S
C371 H366 0.950 . S
C371 C373 1.327 . S
C371 C377 1.429 . S
C372 C364 1.574 . S
C372 H367 0.949 . S
C372 C378 1.368 . S
C373 C357 1.349 . S
C373 H365 0.950 . S
C373 C371 1.327 . S
C374 C362 1.349 . S
C374 H368 0.950 . S
C374 C375 1.327 . S
C375 H369 0.950 . S
C375 C374 1.327 . S
C375 C379 1.429 . S
C376 C359 1.574 . S
C376 H370 0.949 . S
C376 C380 1.368 . S
C377 C358 1.429 . S
C377 C371 1.429 . S
C377 C378 1.523 . S
C378 C359 1.368 . S
C378 C372 1.368 . S
C378 C377 1.523 . S
C379 C363 1.429 . S
C379 C375 1.429 . S
C379 C380 1.523 . S
C380 C364 1.368 . S
C380 C376 1.368 . S
C380 C379 1.523 . S
H381 C356 0.950 . S
H382 C358 0.950 . S
H383 C359 0.949 . S
H384 C361 0.950 . S
H385 C363 0.950 . S
C386 C387 1.349 . S
C386 C388 1.327 . S
C386 H411 0.950 . S
C387 C386 1.349 . S
C387 C403 1.349 . S
C388 C386 1.327 . S
C388 C407 1.429 . S
C388 H412 0.950 . S
C389 C406 1.574 1_655 S
C389 C408 1.368 . S
C389 H413 0.949 . S
H390 C394 0.949 . S
C391 C392 1.349 . S
C391 C393 1.327 . S
C391 H414 0.950 . S
C392 C391 1.349 . S
C392 C404 1.349 . S
C393 C391 1.327 . S
C393 C409 1.429 . S
C393 H415 0.950 . S
C394 H390 0.949 . S
C394 C402 1.546 1_455 S
C394 C410 1.368 . S
H395 C403 0.950 . S
H396 C401 0.950 . S
H397 C402 0.957 . S
H398 C404 0.950 . S
H399 C405 0.950 . S
H400 C406 0.949 . S
C401 H396 0.950 . S
C401 C403 1.327 . S
C401 C407 1.429 . S
C402 C394 1.546 1_655 S
C402 H397 0.957 . S
C402 C408 1.389 . S
C403 C387 1.349 . S
C403 H395 0.950 . S
C403 C401 1.327 . S
C404 C392 1.349 . S
C404 H398 0.950 . S
C404 C405 1.327 . S
C405 H399 0.950 . S
C405 C404 1.327 . S
C405 C409 1.429 . S
C406 C389 1.574 1_455 S
C406 H400 0.949 . S
C406 C410 1.368 . S
C407 C388 1.429 . S
C407 C401 1.429 . S
C407 C408 1.523 . S
C408 C389 1.368 . S
C408 C402 1.389 . S
C408 C407 1.523 . S
C409 C393 1.429 . S
C409 C405 1.429 . S
C409 C410 1.523 . S
C410 C394 1.368 . S
C410 C406 1.368 . S
C410 C409 1.523 . S
H411 C386 0.950 . S
H412 C388 0.950 . S
H413 C389 0.949 . S
H414 C391 0.950 . S
H415 C393 0.950 . S
C416 C417 1.349 . S
C416 C418 1.327 . S
C416 H441 0.950 . S
C417 C416 1.349 . S
C417 C433 1.349 . S
C418 C416 1.327 . S
C418 C437 1.429 . S
C418 H442 0.950 . S
C419 C436 1.574 . S
C419 C438 1.368 . S
C419 H443 0.949 . S
H420 C424 0.949 . S
C421 C422 1.349 . S
C421 C423 1.327 . S
C421 H444 0.950 . S
C422 C421 1.349 . S
C422 C434 1.349 . S
C423 C421 1.327 . S
C423 C439 1.429 . S
C423 H445 0.950 . S
C424 H420 0.949 . S
C424 C432 1.574 . S
C424 C440 1.368 . S
H425 C433 0.950 . S
H426 C431 0.950 . S
H427 C432 0.949 . S
H428 C434 0.950 . S
H429 C435 0.950 . S
H430 C436 0.949 . S
C431 H426 0.950 . S
C431 C433 1.327 . S
C431 C437 1.429 . S
C432 C424 1.574 . S
C432 H427 0.949 . S
C432 C438 1.368 . S
C433 C417 1.349 . S
C433 H425 0.950 . S
C433 C431 1.327 . S
C434 C422 1.349 . S
C434 H428 0.950 . S
C434 C435 1.327 . S
C435 H429 0.950 . S
C435 C434 1.327 . S
C435 C439 1.429 . S
C436 C419 1.574 . S
C436 H430 0.949 . S
C436 C440 1.368 . S
C437 C418 1.429 . S
C437 C431 1.429 . S
C437 C438 1.523 . S
C438 C419 1.368 . S
C438 C432 1.368 . S
C438 C437 1.523 . S
C439 C423 1.429 . S
C439 C435 1.429 . S
C439 C440 1.523 . S
C440 C424 1.368 . S
C440 C436 1.368 . S
C440 C439 1.523 . S
H441 C416 0.950 . S
H442 C418 0.950 . S
H443 C419 0.949 . S
H444 C421 0.950 . S
H445 C423 0.950 . S
C446 C447 1.349 . S
C446 C448 1.327 . S
C446 H471 0.950 . S
C447 C446 1.349 . S
C447 C463 1.349 . S
C448 C446 1.327 . S
C448 C467 1.429 . S
C448 H472 0.950 . S
C449 C466 1.574 . S
C449 C468 1.368 1_655 S
C449 H473 0.949 . S
H450 C454 0.949 . S
C451 C452 1.349 . S
C451 C453 1.327 . S
C451 H474 0.950 . S
C452 C451 1.349 . S
C452 C464 1.349 . S
C453 C451 1.327 . S
C453 C469 1.429 . S
C453 H475 0.950 . S
C454 H450 0.949 . S
C454 C462 1.574 1_655 S
C454 C470 1.368 . S
H455 C463 0.950 . S
H456 C461 0.950 . S
H457 C462 0.949 . S
H458 C464 0.950 . S
H459 C465 0.950 . S
H460 C466 0.949 . S
C461 H456 0.950 . S
C461 C463 1.327 . S
C461 C467 1.429 . S
C462 C454 1.574 1_455 S
C462 H457 0.949 . S
C462 C468 1.368 . S
C463 C447 1.349 . S
C463 H455 0.950 . S
C463 C461 1.327 . S
C464 C452 1.349 . S
C464 H458 0.950 . S
C464 C465 1.327 . S
C465 H459 0.950 . S
C465 C464 1.327 . S
C465 C469 1.429 . S
C466 C449 1.574 . S
C466 H460 0.949 . S
C466 C470 1.368 . S
C467 C448 1.429 . S
C467 C461 1.429 . S
C467 C468 1.523 . S
C468 C449 1.368 1_455 S
C468 C462 1.368 . S
C468 C467 1.523 . S
C469 C453 1.429 . S
C469 C465 1.429 . S
C469 C470 1.523 . S
C470 C454 1.368 . S
C470 C466 1.368 . S
C470 C469 1.523 . S
H471 C446 0.950 . S
H472 C448 0.950 . S
H473 C449 0.949 . S
H474 C451 0.950 . S
H475 C453 0.950 . S
C476 C477 1.349 . S
C476 C478 1.327 . S
C476 H501 0.950 . S
C477 C476 1.349 . S
C477 C493 1.349 . S
C478 C476 1.327 . S
C478 C497 1.428 1_545 S
C478 H502 0.950 1_545 S
C479 C496 1.574 . S
C479 C498 1.368 . S
C479 H503 0.949 . S
H480 C484 0.949 . S
C481 C482 1.349 . S
C481 C483 1.327 . S
C481 H504 0.950 . S
C482 C481 1.349 . S
C482 C494 1.349 . S
C483 C481 1.327 . S
C483 C499 1.429 . S
C483 H505 0.950 . S
C484 H480 0.949 . S
C484 C492 1.574 . S
C484 C500 1.368 . S
H485 C493 0.950 . S
H486 C491 0.950 . S
H487 C492 0.949 . S
H488 C494 0.950 . S
H489 C495 0.950 . S
H490 C496 0.949 . S
C491 H486 0.950 . S
C491 C493 1.327 . S
C491 C497 1.427 1_545 S
C492 C484 1.574 . S
C492 H487 0.949 . S
C492 C498 1.368 . S
C493 C477 1.349 . S
C493 H485 0.950 . S
C493 C491 1.327 . S
C494 C482 1.349 . S
C494 H488 0.950 . S
C494 C495 1.327 . S
C495 H489 0.950 . S
C495 C494 1.327 . S
C495 C499 1.429 . S
C496 C479 1.574 . S
C496 H490 0.949 . S
C496 C500 1.368 . S
C497 C478 1.428 1_565 S
C497 C491 1.427 1_565 S
C497 C498 1.525 . S
C498 C479 1.368 . S
C498 C492 1.368 . S
C498 C497 1.525 . S
C499 C483 1.429 . S
C499 C495 1.429 . S
C499 C500 1.523 . S
C500 C484 1.368 . S
C500 C496 1.368 . S
C500 C499 1.523 . S
H501 C476 0.950 . S
H502 C478 0.950 1_565 S
H503 C479 0.949 . S
H504 C481 0.950 . S
H505 C483 0.950 . S
C506 C507 1.349 . S
C506 C508 1.327 . S
C506 H531 0.950 . S
C507 C506 1.349 . S
C507 C523 1.349 . S
C508 C506 1.327 . S
C508 C527 1.429 . S
C508 H532 0.950 . S
C509 C526 1.574 . S
C509 C528 1.368 . S
C509 H533 0.949 . S
H510 C514 0.949 . S
C511 C512 1.349 . S
C511 C513 1.327 . S
C511 H534 0.950 . S
C512 C511 1.349 . S
C512 C524 1.349 . S
C513 C511 1.327 . S
C513 C529 1.429 . S
C513 H535 0.950 . S
C514 H510 0.949 . S
C514 C522 1.574 . S
C514 C530 1.368 . S
H515 C523 0.950 . S
H516 C521 0.950 . S
H517 C522 0.949 . S
H518 C524 0.950 . S
H519 C525 0.950 . S
H520 C526 0.949 . S
C521 H516 0.950 . S
C521 C523 1.327 . S
C521 C527 1.429 . S
C522 C514 1.574 . S
C522 H517 0.949 . S
C522 C528 1.368 . S
C523 C507 1.349 . S
C523 H515 0.950 . S
C523 C521 1.327 . S
C524 C512 1.349 . S
C524 H518 0.950 . S
C524 C525 1.327 . S
C525 H519 0.950 . S
C525 C524 1.327 . S
C525 C529 1.429 . S
C526 C509 1.574 . S
C526 H520 0.949 . S
C526 C530 1.368 . S
C527 C508 1.429 . S
C527 C521 1.429 . S
C527 C528 1.523 . S
C528 C509 1.368 . S
C528 C522 1.368 . S
C528 C527 1.523 . S
C529 C513 1.429 . S
C529 C525 1.429 . S
C529 C530 1.523 . S
C530 C514 1.368 . S
C530 C526 1.368 . S
C530 C529 1.523 . S
H531 C506 0.950 . S
H532 C508 0.950 . S
H533 C509 0.949 . S
H534 C511 0.950 . S
H535 C513 0.950 . S
C536 C537 1.349 . S
C536 C538 1.327 . S
C536 H561 0.950 . S
C537 C536 1.349 . S
C537 C553 1.349 . S
C538 C536 1.327 . S
C538 C557 1.429 1_565 S
C538 H562 0.950 1_565 S
C539 C556 1.574 . S
C539 C558 1.368 . S
C539 H563 0.949 . S
H540 C544 0.949 . S
C541 C542 1.349 . S
C541 C543 1.327 . S
C541 H564 0.950 . S
C542 C541 1.349 . S
C542 C554 1.349 . S
C543 C541 1.327 . S
C543 C559 1.429 . S
C543 H565 0.950 . S
C544 H540 0.949 . S
C544 C552 1.574 . S
C544 C560 1.368 . S
H545 C553 0.950 . S
H546 C551 0.950 . S
H547 C552 0.949 . S
H548 C554 0.950 . S
H549 C555 0.950 . S
H550 C556 0.949 . S
C551 H546 0.950 . S
C551 C553 1.327 . S
C551 C557 1.429 1_565 S
C552 C544 1.574 . S
C552 H547 0.949 . S
C552 C558 1.368 . S
C553 C537 1.349 . S
C553 H545 0.950 . S
C553 C551 1.327 . S
C554 C542 1.349 . S
C554 H548 0.950 . S
C554 C555 1.327 . S
C555 H549 0.950 . S
C555 C554 1.327 . S
C555 C559 1.429 . S
C556 C539 1.574 . S
C556 H550 0.949 . S
C556 C560 1.368 . S
C557 C538 1.429 1_545 S
C557 C551 1.429 1_545 S
C557 C558 1.523 . S
C558 C539 1.368 . S
C558 C552 1.368 . S
C558 C557 1.523 . S
C559 C543 1.429 . S
C559 C555 1.429 . S
C559 C560 1.523 . S
C560 C544 1.368 . S
C560 C556 1.368 . S
C560 C559 1.523 . S
H561 C536 0.950 . S
H562 C538 0.950 1_545 S
H563 C539 0.949 . S
H564 C541 0.950 . S
H565 C543 0.950 . S
C566 C567 1.349 . S
C566 C568 1.327 . S
C566 H591 0.950 . S
C567 C566 1.349 . S
C567 C583 1.349 . S
C568 C566 1.327 . S
C568 C587 1.429 . S
C568 H592 0.950 . S
C569 C586 1.574 . S
C569 C588 1.368 . S
C569 H593 0.949 . S
H570 C574 0.949 . S
C571 C572 1.349 . S
C571 C573 1.327 . S
C571 H594 0.950 . S
C572 C571 1.349 . S
C572 C584 1.349 . S
C573 C571 1.327 . S
C573 C589 1.429 . S
C573 H595 0.950 . S
C574 H570 0.949 . S
C574 C582 1.574 . S
C574 C590 1.368 . S
H575 C583 0.950 . S
H576 C581 0.950 . S
H577 C582 0.949 . S
H578 C584 0.950 . S
H579 C585 0.950 . S
H580 C586 0.949 . S
C581 H576 0.950 . S
C581 C583 1.327 . S
C581 C587 1.429 . S
C582 C574 1.574 . S
C582 H577 0.949 . S
C582 C588 1.368 . S
C583 C567 1.349 . S
C583 H575 0.950 . S
C583 C581 1.327 . S
C584 C572 1.349 . S
C584 H578 0.950 . S
C584 C585 1.327 . S
C585 H579 0.950 . S
C585 C584 1.327 . S
C585 C589 1.429 . S
C586 C569 1.574 . S
C586 H580 0.949 . S
C586 C590 1.368 . S
C587 C568 1.429 . S
C587 C581 1.429 . S
C587 C588 1.523 . S
C588 C569 1.368 . S
C588 C582 1.368 . S
C588 C587 1.523 . S
C589 C573 1.429 . S
C589 C585 1.429 . S
C589 C590 1.523 . S
C590 C574 1.368 . S
C590 C586 1.368 . S
C590 C589 1.523 . S
H591 C566 0.950 . S
H592 C568 0.950 . S
H593 C569 0.949 . S
H594 C571 0.950 . S
H595 C573 0.950 . S
C596 C597 1.349 . S
C596 C598 1.327 . S
C596 H621 0.950 . S
C597 C596 1.349 . S
C597 C613 1.349 . S
C598 C596 1.327 . S
C598 C617 1.429 . S
C598 H622 0.950 . S
C599 C616 1.574 . S
C599 C618 1.368 . S
C599 H623 0.949 . S
H600 C604 0.949 . S
C601 C602 1.349 . S
C601 C603 1.327 . S
C601 H624 0.950 . S
C602 C601 1.349 . S
C602 C614 1.349 . S
C603 C601 1.327 . S
C603 C619 1.429 . S
C603 H625 0.950 . S
C604 H600 0.949 . S
C604 C612 1.574 . S
C604 C620 1.368 . S
H605 C613 0.950 . S
H606 C611 0.950 . S
H607 C612 0.949 . S
H608 C614 0.950 . S
H609 C615 0.950 . S
H610 C616 0.949 . S
C611 H606 0.950 . S
C611 C613 1.327 . S
C611 C617 1.429 . S
C612 C604 1.574 . S
C612 H607 0.949 . S
C612 C618 1.368 . S
C613 C597 1.349 . S
C613 H605 0.950 . S
C613 C611 1.327 . S
C614 C602 1.349 . S
C614 H608 0.950 . S
C614 C615 1.327 . S
C615 H609 0.950 . S
C615 C614 1.327 . S
C615 C619 1.429 . S
C616 C599 1.574 . S
C616 H610 0.949 . S
C616 C620 1.368 . S
C617 C598 1.429 . S
C617 C611 1.429 . S
C617 C618 1.523 . S
C618 C599 1.368 . S
C618 C612 1.368 . S
C618 C617 1.523 . S
C619 C603 1.429 . S
C619 C615 1.429 . S
C619 C620 1.523 . S
C620 C604 1.368 . S
C620 C616 1.368 . S
C620 C619 1.523 . S
H621 C596 0.950 . S
H622 C598 0.950 . S
H623 C599 0.949 . S
H624 C601 0.950 . S
H625 C603 0.950 . S
C626 C627 1.349 . S
C626 C628 1.327 . S
C626 H651 0.950 . S
C627 C626 1.349 . S
C627 C643 1.349 . S
C628 C626 1.327 . S
C628 C647 1.429 1_455 S
C628 H652 0.950 1_455 S
C629 C646 1.574 . S
C629 C648 1.368 . S
C629 H653 0.949 . S
H630 C634 0.949 . S
C631 C632 1.349 . S
C631 C633 1.327 . S
C631 H654 0.950 . S
C632 C631 1.349 . S
C632 C644 1.349 . S
C633 C631 1.327 . S
C633 C649 1.429 . S
C633 H655 0.950 . S
C634 H630 0.949 . S
C634 C642 1.574 . S
C634 C650 1.368 . S
H635 C643 0.950 . S
H636 C641 0.950 . S
H637 C642 0.949 . S
H638 C644 0.950 . S
H639 C645 0.950 . S
H640 C646 0.949 . S
C641 H636 0.950 . S
C641 C643 1.327 . S
C641 C647 1.429 1_455 S
C642 C634 1.574 . S
C642 H637 0.949 . S
C642 C648 1.368 . S
C643 C627 1.349 . S
C643 H635 0.950 . S
C643 C641 1.327 . S
C644 C632 1.349 . S
C644 H638 0.950 . S
C644 C645 1.327 . S
C645 H639 0.950 . S
C645 C644 1.327 . S
C645 C649 1.429 . S
C646 C629 1.574 . S
C646 H640 0.949 . S
C646 C650 1.368 . S
C647 C628 1.429 1_655 S
C647 C641 1.429 1_655 S
C647 C648 1.523 . S
C648 C629 1.368 . S
C648 C642 1.368 . S
C648 C647 1.523 . S
C649 C633 1.429 . S
C649 C645 1.429 . S
C649 C650 1.523 . S
C650 C634 1.368 . S
C650 C646 1.368 . S
C650 C649 1.523 . S
H651 C626 0.950 . S
H652 C628 0.950 1_655 S
H653 C629 0.949 . S
H654 C631 0.950 . S
H655 C633 0.950 . S
C656 C657 1.349 . S
C656 C658 1.327 . S
C656 H681 0.950 . S
C657 C656 1.349 . S
C657 C673 1.349 . S
C658 C656 1.327 . S
C658 C677 1.429 . S
C658 H682 0.950 . S
C659 C676 1.574 . S
C659 C678 1.368 . S
C659 H683 0.949 . S
H660 C664 0.949 . S
C661 C662 1.349 . S
C661 C663 1.327 . S
C661 H684 0.950 . S
C662 C661 1.349 . S
C662 C674 1.349 . S
C663 C661 1.327 . S
C663 C679 1.429 . S
C663 H685 0.950 . S
C664 H660 0.949 . S
C664 C672 1.574 . S
C664 C680 1.368 . S
H665 C673 0.950 . S
H666 C671 0.950 . S
H667 C672 0.949 . S
H668 C674 0.950 . S
H669 C675 0.950 . S
H670 C676 0.949 . S
C671 H666 0.950 . S
C671 C673 1.327 . S
C671 C677 1.429 . S
C672 C664 1.574 . S
C672 H667 0.949 . S
C672 C678 1.368 . S
C673 C657 1.349 . S
C673 H665 0.950 . S
C673 C671 1.327 . S
C674 C662 1.349 . S
C674 H668 0.950 . S
C674 C675 1.327 . S
C675 H669 0.950 . S
C675 C674 1.327 . S
C675 C679 1.429 . S
C676 C659 1.574 . S
C676 H670 0.949 . S
C676 C680 1.368 . S
C677 C658 1.429 . S
C677 C671 1.429 . S
C677 C678 1.523 . S
C678 C659 1.368 . S
C678 C672 1.368 . S
C678 C677 1.523 . S
C679 C663 1.429 . S
C679 C675 1.429 . S
C679 C680 1.523 . S
C680 C664 1.368 . S
C680 C676 1.368 . S
C680 C679 1.523 . S
H681 C656 0.950 . S
H682 C658 0.950 . S
H683 C659 0.949 . S
H684 C661 0.950 . S
H685 C663 0.950 . S
C686 C687 1.349 . S
C686 C688 1.327 . S
C686 H711 0.950 . S
C687 C686 1.349 . S
C687 C703 1.349 . S
C688 C686 1.327 . S
C688 C707 1.437 . S
C688 H712 0.950 . S
C689 C706 1.574 . S
C689 C708 1.368 . S
C689 H713 0.949 . S
H690 C694 0.949 . S
C691 C692 1.349 . S
C691 C693 1.327 . S
C691 H714 0.950 . S
C692 C691 1.349 . S
C692 C704 1.349 . S
C693 C691 1.327 . S
C693 C709 1.429 . S
C693 H715 0.950 . S
C694 H690 0.949 . S
C694 C702 1.574 . S
C694 C710 1.368 . S
H695 C703 0.950 . S
H696 C701 0.950 1_455 S
H697 C702 0.949 . S
H698 C704 0.950 . S
H699 C705 0.950 . S
H700 C706 0.949 . S
C701 H696 0.950 1_655 S
C701 C703 1.327 . S
C701 C707 1.431 . S
C702 C694 1.574 . S
C702 H697 0.949 . S
C702 C708 1.368 . S
C703 C687 1.349 . S
C703 H695 0.950 . S
C703 C701 1.327 . S
C704 C692 1.349 . S
C704 H698 0.950 . S
C704 C705 1.327 . S
C705 H699 0.950 . S
C705 C704 1.327 . S
C705 C709 1.429 . S
C706 C689 1.574 . S
C706 H700 0.949 . S
C706 C710 1.368 . S
C707 C688 1.437 . S
C707 C701 1.431 . S
C707 C708 1.513 1_655 S
C708 C689 1.368 . S
C708 C702 1.368 . S
C708 C707 1.513 1_455 S
C709 C693 1.429 . S
C709 C705 1.429 . S
C709 C710 1.523 . S
C710 C694 1.368 . S
C710 C706 1.368 . S
C710 C709 1.523 . S
H711 C686 0.950 . S
H712 C688 0.950 . S
H713 C689 0.949 . S
H714 C691 0.950 . S
H715 C693 0.950 . S
C716 C717 1.349 . S
C716 C718 1.327 . S
C716 H741 0.950 . S
C717 C716 1.349 . S
C717 C733 1.349 . S
C718 C716 1.327 . S
C718 C737 1.429 . S
C718 H742 0.950 . S
C719 C736 1.574 . S
C719 C738 1.368 . S
C719 H743 0.949 . S
H720 C724 0.949 . S
C721 C722 1.349 . S
C721 C723 1.327 . S
C721 H744 0.950 . S
C722 C721 1.349 . S
C722 C734 1.349 . S
C723 C721 1.327 . S
C723 C739 1.429 . S
C723 H745 0.950 . S
C724 H720 0.949 . S
C724 C732 1.574 . S
C724 C740 1.368 . S
H725 C733 0.950 . S
H726 C731 0.950 . S
H727 C732 0.949 . S
H728 C734 0.950 . S
H729 C735 0.950 . S
H730 C736 0.949 . S
C731 H726 0.950 . S
C731 C733 1.327 . S
C731 C737 1.429 . S
C732 C724 1.574 . S
C732 H727 0.949 . S
C732 C738 1.368 . S
C733 C717 1.349 . S
C733 H725 0.950 . S
C733 C731 1.327 . S
C734 C722 1.349 . S
C734 H728 0.950 . S
C734 C735 1.327 . S
C735 H729 0.950 . S
C735 C734 1.327 . S
C735 C739 1.429 . S
C736 C719 1.574 . S
C736 H730 0.949 . S
C736 C740 1.368 . S
C737 C718 1.429 . S
C737 C731 1.429 . S
C737 C738 1.523 . S
C738 C719 1.368 . S
C738 C732 1.368 . S
C738 C737 1.523 . S
C739 C723 1.429 . S
C739 C735 1.429 . S
C739 C740 1.523 . S
C740 C724 1.368 . S
C740 C736 1.368 . S
C740 C739 1.523 . S
H741 C716 0.950 . S
H742 C718 0.950 . S
H743 C719 0.949 . S
H744 C721 0.950 . S
H745 C723 0.950 . S
C746 C747 1.349 . S
C746 C748 1.327 . S
C746 H771 0.950 . S
C747 C746 1.349 . S
C747 C763 1.349 . S
C748 C746 1.327 . S
C748 C767 1.429 . S
C748 H772 0.950 . S
C749 C766 1.574 . S
C749 C768 1.368 . S
C749 H773 0.949 . S
H750 C754 0.949 . S
C751 C752 1.349 . S
C751 C753 1.327 . S
C751 H774 0.950 . S
C752 C751 1.349 . S
C752 C764 1.349 . S
C753 C751 1.327 . S
C753 C769 1.429 . S
C753 H775 0.950 . S
C754 H750 0.949 . S
C754 C762 1.574 . S
C754 C770 1.368 . S
H755 C763 0.950 . S
H756 C761 0.950 . S
H757 C762 0.949 . S
H758 C764 0.950 . S
H759 C765 0.950 . S
H760 C766 0.949 . S
C761 H756 0.950 . S
C761 C763 1.327 . S
C761 C767 1.429 . S
C762 C754 1.574 . S
C762 H757 0.949 . S
C762 C768 1.368 . S
C763 C747 1.349 . S
C763 H755 0.950 . S
C763 C761 1.327 . S
C764 C752 1.349 . S
C764 H758 0.950 . S
C764 C765 1.327 . S
C765 H759 0.950 . S
C765 C764 1.327 . S
C765 C769 1.429 . S
C766 C749 1.574 . S
C766 H760 0.949 . S
C766 C770 1.368 . S
C767 C748 1.429 . S
C767 C761 1.429 . S
C767 C768 1.523 . S
C768 C749 1.368 . S
C768 C762 1.368 . S
C768 C767 1.523 . S
C769 C753 1.429 . S
C769 C765 1.429 . S
C769 C770 1.523 . S
C770 C754 1.368 . S
C770 C766 1.368 . S
C770 C769 1.523 . S
H771 C746 0.950 . S
H772 C748 0.950 . S
H773 C749 0.949 . S
H774 C751 0.950 . S
H775 C753 0.950 . S
C776 C777 1.349 . S
C776 C778 1.327 . S
C776 H801 0.950 . S
C777 C776 1.349 . S
C777 C793 1.349 . S
C778 C776 1.327 . S
C778 C797 1.429 . S
C778 H802 0.950 . S
C779 C796 1.574 . S
C779 C798 1.368 . S
C779 H803 0.949 . S
H780 C784 0.949 . S
C781 C782 1.349 . S
C781 C783 1.327 . S
C781 H804 0.950 . S
C782 C781 1.349 . S
C782 C794 1.349 . S
C783 C781 1.327 . S
C783 C799 1.429 . S
C783 H805 0.950 . S
C784 H780 0.949 . S
C784 C792 1.574 . S
C784 C800 1.368 . S
H785 C793 0.950 . S
H786 C791 0.950 . S
H787 C792 0.949 . S
H788 C794 0.950 . S
H789 C795 0.950 . S
H790 C796 0.949 . S
C791 H786 0.950 . S
C791 C793 1.327 . S
C791 C797 1.429 . S
C792 C784 1.574 . S
C792 H787 0.949 . S
C792 C798 1.368 . S
C793 C777 1.349 . S
C793 H785 0.950 . S
C793 C791 1.327 . S
C794 C782 1.349 . S
C794 H788 0.950 . S
C794 C795 1.327 . S
C795 H789 0.950 . S
C795 C794 1.327 . S
C795 C799 1.429 . S
C796 C779 1.574 . S
C796 H790 0.949 . S
C796 C800 1.368 . S
C797 C778 1.429 . S
C797 C791 1.429 . S
C797 C798 1.523 . S
C798 C779 1.368 . S
C798 C792 1.368 . S
C798 C797 1.523 . S
C799 C783 1.429 . S
C799 C795 1.429 . S
C799 C800 1.523 . S
C800 C784 1.368 . S
C800 C796 1.368 . S
C800 C799 1.523 . S
H801 C776 0.950 . S
H802 C778 0.950 . S
H803 C779 0.949 . S
H804 C781 0.950 . S
H805 C783 0.950 . S
C806 C807 1.349 . S
C806 C808 1.327 . S
C806 H831 0.950 . S
C807 C806 1.349 . S
C807 C823 1.349 . S
C808 C806 1.327 . S
C808 C827 1.429 . S
C808 H832 0.950 . S
C809 C826 1.574 . S
C809 C828 1.368 . S
C809 H833 0.949 . S
H810 C814 0.949 . S
C811 C812 1.349 . S
C811 C813 1.327 . S
C811 H834 0.950 . S
C812 C811 1.349 . S
C812 C824 1.349 . S
C813 C811 1.327 . S
C813 C829 1.429 . S
C813 H835 0.950 . S
C814 H810 0.949 . S
C814 C822 1.574 . S
C814 C830 1.368 . S
H815 C823 0.950 . S
H816 C821 0.950 . S
H817 C822 0.949 . S
H818 C824 0.950 . S
H819 C825 0.950 . S
H820 C826 0.949 . S
C821 H816 0.950 . S
C821 C823 1.327 . S
C821 C827 1.429 . S
C822 C814 1.574 . S
C822 H817 0.949 . S
C822 C828 1.368 . S
C823 C807 1.349 . S
C823 H815 0.950 . S
C823 C821 1.327 . S
C824 C812 1.349 . S
C824 H818 0.950 . S
C824 C825 1.327 . S
C825 H819 0.950 . S
C825 C824 1.327 . S
C825 C829 1.429 . S
C826 C809 1.574 . S
C826 H820 0.949 . S
C826 C830 1.368 . S
C827 C808 1.429 . S
C827 C821 1.429 . S
C827 C828 1.523 . S
C828 C809 1.368 . S
C828 C822 1.368 . S
C828 C827 1.523 . S
C829 C813 1.429 . S
C829 C825 1.429 . S
C829 C830 1.523 . S
C830 C814 1.368 . S
C830 C826 1.368 . S
C830 C829 1.523 . S
H831 C806 0.950 . S
H832 C808 0.950 . S
H833 C809 0.949 . S
H834 C811 0.950 . S
H835 C813 0.950 . S
C836 C837 1.349 . S
C836 C838 1.327 . S
C836 H861 0.950 . S
C837 C836 1.349 . S
C837 C853 1.349 . S
C838 C836 1.327 . S
C838 C857 1.429 . S
C838 H862 0.950 . S
C839 C856 1.574 . S
C839 C858 1.368 . S
C839 H863 0.949 . S
H840 C844 0.949 . S
C841 C842 1.349 . S
C841 C843 1.327 . S
C841 H864 0.950 . S
C842 C841 1.349 . S
C842 C854 1.349 . S
C843 C841 1.327 . S
C843 C859 1.429 . S
C843 H865 0.950 . S
C844 H840 0.949 . S
C844 C852 1.574 . S
C844 C860 1.368 . S
H845 C853 0.950 . S
H846 C851 0.950 . S
H847 C852 0.949 . S
H848 C854 0.950 . S
H849 C855 0.950 . S
H850 C856 0.949 . S
C851 H846 0.950 . S
C851 C853 1.327 . S
C851 C857 1.429 . S
C852 C844 1.574 . S
C852 H847 0.949 . S
C852 C858 1.368 . S
C853 C837 1.349 . S
C853 H845 0.950 . S
C853 C851 1.327 . S
C854 C842 1.349 . S
C854 H848 0.950 . S
C854 C855 1.327 . S
C855 H849 0.950 . S
C855 C854 1.327 . S
C855 C859 1.429 . S
C856 C839 1.574 . S
C856 H850 0.949 . S
C856 C860 1.368 . S
C857 C838 1.429 . S
C857 C851 1.429 . S
C857 C858 1.523 . S
C858 C839 1.368 . S
C858 C852 1.368 . S
C858 C857 1.523 . S
C859 C843 1.429 . S
C859 C855 1.429 . S
C859 C860 1.523 . S
C860 C844 1.368 . S
C860 C856 1.368 . S
C860 C859 1.523 . S
H861 C836 0.950 . S
H862 C838 0.950 . S
H863 C839 0.949 . S
H864 C841 0.950 . S
H865 C843 0.950 . S
C866 C867 1.349 . S
C866 C868 1.327 . S
C866 H891 0.950 . S
C867 C866 1.349 . S
C867 C883 1.349 . S
C868 C866 1.327 . S
C868 C887 1.429 . S
C868 H892 0.950 . S
C869 C886 1.574 . S
C869 C888 1.368 . S
C869 H893 0.949 . S
H870 C874 0.949 . S
C871 C872 1.349 . S
C871 C873 1.327 . S
C871 H894 0.950 . S
C872 C871 1.349 . S
C872 C884 1.349 . S
C873 C871 1.327 . S
C873 C889 1.429 . S
C873 H895 0.950 . S
C874 H870 0.949 . S
C874 C882 1.574 . S
C874 C890 1.368 . S
H875 C883 0.950 . S
H876 C881 0.950 . S
H877 C882 0.949 . S
H878 C884 0.950 . S
H879 C885 0.950 . S
H880 C886 0.949 . S
C881 H876 0.950 . S
C881 C883 1.327 . S
C881 C887 1.429 . S
C882 C874 1.574 . S
C882 H877 0.949 . S
C882 C888 1.368 . S
C883 C867 1.349 . S
C883 H875 0.950 . S
C883 C881 1.327 . S
C884 C872 1.349 . S
C884 H878 0.950 . S
C884 C885 1.327 . S
C885 H879 0.950 . S
C885 C884 1.327 . S
C885 C889 1.429 . S
C886 C869 1.574 . S
C886 H880 0.949 . S
C886 C890 1.368 . S
C887 C868 1.429 . S
C887 C881 1.429 . S
C887 C888 1.523 . S
C888 C869 1.368 . S
C888 C882 1.368 . S
C888 C887 1.523 . S
C889 C873 1.429 . S
C889 C885 1.429 . S
C889 C890 1.523 . S
C890 C874 1.368 . S
C890 C886 1.368 . S
C890 C889 1.523 . S
H891 C866 0.950 . S
H892 C868 0.950 . S
H893 C869 0.949 . S
H894 C871 0.950 . S
H895 C873 0.950 . S
C896 C897 1.349 . S
C896 C898 1.327 . S
C896 H921 0.950 . S
C897 C896 1.349 . S
C897 C913 1.349 . S
C898 C896 1.327 . S
C898 C917 1.429 . S
C898 H922 0.950 . S
C899 C916 1.574 . S
C899 C918 1.368 . S
C899 H923 0.949 . S
H900 C904 0.949 . S
C901 C902 1.349 . S
C901 C903 1.327 . S
C901 H924 0.950 . S
C902 C901 1.349 . S
C902 C914 1.349 . S
C903 C901 1.327 . S
C903 C919 1.429 . S
C903 H925 0.950 . S
C904 H900 0.949 . S
C904 C912 1.574 . S
C904 C920 1.368 . S
H905 C913 0.950 . S
H906 C911 0.950 . S
H907 C912 0.949 . S
H908 C914 0.950 . S
H909 C915 0.950 . S
H910 C916 0.949 . S
C911 H906 0.950 . S
C911 C913 1.327 . S
C911 C917 1.429 . S
C912 C904 1.574 . S
C912 H907 0.949 . S
C912 C918 1.368 . S
C913 C897 1.349 . S
C913 H905 0.950 . S
C913 C911 1.327 . S
C914 C902 1.349 . S
C914 H908 0.950 . S
C914 C915 1.327 . S
C915 H909 0.950 . S
C915 C914 1.327 . S
C915 C919 1.429 . S
C916 C899 1.574 . S
C916 H910 0.949 . S
C916 C920 1.368 . S
C917 C898 1.429 . S
C917 C911 1.429 . S
C917 C918 1.523 . S
C918 C899 1.368 . S
C918 C912 1.368 . S
C918 C917 1.523 . S
C919 C903 1.429 . S
C919 C915 1.429 . S
C919 C920 1.523 . S
C920 C904 1.368 . S
C920 C916 1.368 . S
C920 C919 1.523 . S
H921 C896 0.950 . S
H922 C898 0.950 . S
H923 C899 0.949 . S
H924 C901 0.950 . S
H925 C903 0.950 . S
C926 C927 1.349 . S
C926 C928 1.327 . S
C926 H951 0.950 . S
C927 C926 1.349 . S
C927 C943 1.349 . S
C928 C926 1.327 . S
C928 C947 1.429 . S
C928 H952 0.950 . S
C929 C946 1.574 . S
C929 C948 1.368 . S
C929 H953 0.949 . S
H930 C934 0.949 . S
C931 C932 1.349 . S
C931 C933 1.327 . S
C931 H954 0.950 . S
C932 C931 1.349 . S
C932 C944 1.349 . S
C933 C931 1.327 . S
C933 C949 1.429 . S
C933 H955 0.950 . S
C934 H930 0.949 . S
C934 C942 1.574 . S
C934 C950 1.368 . S
H935 C943 0.950 . S
H936 C941 0.950 . S
H937 C942 0.949 . S
H938 C944 0.950 . S
H939 C945 0.950 . S
H940 C946 0.949 . S
C941 H936 0.950 . S
C941 C943 1.327 . S
C941 C947 1.429 . S
C942 C934 1.574 . S
C942 H937 0.949 . S
C942 C948 1.368 . S
C943 C927 1.349 . S
C943 H935 0.950 . S
C943 C941 1.327 . S
C944 C932 1.349 . S
C944 H938 0.950 . S
C944 C945 1.327 . S
C945 H939 0.950 . S
C945 C944 1.327 . S
C945 C949 1.429 . S
C946 C929 1.574 . S
C946 H940 0.949 . S
C946 C950 1.368 . S
C947 C928 1.429 . S
C947 C941 1.429 . S
C947 C948 1.523 . S
C948 C929 1.368 . S
C948 C942 1.368 . S
C948 C947 1.523 . S
C949 C933 1.429 . S
C949 C945 1.429 . S
C949 C950 1.523 . S
C950 C934 1.368 . S
C950 C946 1.368 . S
C950 C949 1.523 . S
H951 C926 0.950 . S
H952 C928 0.950 . S
H953 C929 0.949 . S
H954 C931 0.950 . S
H955 C933 0.950 . S
C237 C7 0.712 . S
C242 C86 0.712 . S
C267 C25 0.755 . S
C272 C105 0.754 . S
C297 C46 0.622 . S
C302 C128 0.561 . S
C332 C147 0.513 . S
C327 C70 0.600 . S
C362 C162 0.713 . S
C357 C28 0.712 . S
C387 C49 0.600 . S
C392 C185 0.513 . S
C417 C67 0.622 . S
C422 C204 0.561 . S
C447 C4 0.755 . S
C452 C219 0.755 . S
C477 C58 1.649 . S
C482 C223 1.758 . S
C512 C166 1.719 . S
C507 C66 1.610 . S
C542 C181 1.905 . S
C537 C3 1.846 . S
C567 C37 1.885 . S
C572 C200 1.940 . S
C602 C109 1.757 . S
C597 C79 1.649 . S
C627 C16 1.885 . S
C632 C124 1.940 . S
C662 C143 1.905 . S
C657 C24 1.846 . S
C692 C90 1.719 . S
C687 C45 1.610 . S
C722 C209 1.333 . S
C717 C19 1.295 . S
C752 C228 1.324 . S
C747 C41 1.345 . S
C777 C62 1.262 . S
C782 C171 1.241 . S
C812 C190 1.250 . S
C807 C82 1.209 . S
C842 C133 1.333 . S
C837 C40 1.295 . S
C867 C61 1.209 . S
C872 C152 1.250 . S
C902 C95 1.241 . S
C897 C83 1.262 . S
C932 C114 1.324 . S
C927 C20 1.345 . S
