# Generated by pormake.
# Topology apo, (3,6)-cn, num edge types: 1
# Building blocks:
#     Node 0, Type 0, BuildingBlock: BELTOD_clean_linker_0, # of connection points: 3
#     Node 1, Type 0, BuildingBlock: BELTOD_clean_linker_0, # of connection points: 3
#     Node 2, Type 0, BuildingBlock: BELTOD_clean_linker_0, # of connection points: 3
#     Node 3, Type 0, BuildingBlock: BELTOD_clean_linker_0, # of connection points: 3
#     Node 4, Type 0, BuildingBlock: BELTOD_clean_linker_0, # of connection points: 3
#     Node 5, Type 0, BuildingBlock: BELTOD_clean_linker_0, # of connection points: 3
#     Node 6, Type 0, BuildingBlock: BELTOD_clean_linker_0, # of connection points: 3
#     Node 7, Type 0, BuildingBlock: BELTOD_clean_linker_0, # of connection points: 3
#     Node 8, Type 1, BuildingBlock: KUMBUR_clean_sbu_1, # of connection points: 6
#     Node 9, Type 1, BuildingBlock: KUMBUR_clean_sbu_1, # of connection points: 6
#     Node 10, Type 1, BuildingBlock: KUMBUR_clean_sbu_1, # of connection points: 6
#     Node 11, Type 1, BuildingBlock: KUMBUR_clean_sbu_1, # of connection points: 6
#     Edge 12, Type (0, 1), BuildingBlock: EZIPEK_clean_linker_0, # of connection points: 2
#     Edge 13, Type (0, 1), BuildingBlock: EZIPEK_clean_linker_0, # of connection points: 2
#     Edge 14, Type (0, 1), BuildingBlock: EZIPEK_clean_linker_0, # of connection points: 2
#     Edge 15, Type (0, 1), BuildingBlock: EZIPEK_clean_linker_0, # of connection points: 2
#     Edge 16, Type (0, 1), BuildingBlock: EZIPEK_clean_linker_0, # of connection points: 2
#     Edge 17, Type (0, 1), BuildingBlock: EZIPEK_clean_linker_0, # of connection points: 2
#     Edge 18, Type (0, 1), BuildingBlock: EZIPEK_clean_linker_0, # of connection points: 2
#     Edge 19, Type (0, 1), BuildingBlock: EZIPEK_clean_linker_0, # of connection points: 2
#     Edge 20, Type (0, 1), BuildingBlock: EZIPEK_clean_linker_0, # of connection points: 2
#     Edge 21, Type (0, 1), BuildingBlock: EZIPEK_clean_linker_0, # of connection points: 2
#     Edge 22, Type (0, 1), BuildingBlock: EZIPEK_clean_linker_0, # of connection points: 2
#     Edge 23, Type (0, 1), BuildingBlock: EZIPEK_clean_linker_0, # of connection points: 2
#     Edge 24, Type (0, 1), BuildingBlock: EZIPEK_clean_linker_0, # of connection points: 2
#     Edge 25, Type (0, 1), BuildingBlock: EZIPEK_clean_linker_0, # of connection points: 2
#     Edge 26, Type (0, 1), BuildingBlock: EZIPEK_clean_linker_0, # of connection points: 2
#     Edge 27, Type (0, 1), BuildingBlock: EZIPEK_clean_linker_0, # of connection points: 2
#     Edge 28, Type (0, 1), BuildingBlock: EZIPEK_clean_linker_0, # of connection points: 2
#     Edge 29, Type (0, 1), BuildingBlock: EZIPEK_clean_linker_0, # of connection points: 2
#     Edge 30, Type (0, 1), BuildingBlock: EZIPEK_clean_linker_0, # of connection points: 2
#     Edge 31, Type (0, 1), BuildingBlock: EZIPEK_clean_linker_0, # of connection points: 2
#     Edge 32, Type (0, 1), BuildingBlock: EZIPEK_clean_linker_0, # of connection points: 2
#     Edge 33, Type (0, 1), BuildingBlock: EZIPEK_clean_linker_0, # of connection points: 2
#     Edge 34, Type (0, 1), BuildingBlock: EZIPEK_clean_linker_0, # of connection points: 2
#     Edge 35, Type (0, 1), BuildingBlock: EZIPEK_clean_linker_0, # of connection points: 2
# Relax obj value: 0.007
# Max RMSD: 0.128
# Mean RMSD: 0.093
data_MOF--net-apo--node1-KUMBUR_clean_sbu_1--node2-BELTOD_clean_linker_0--edge1-EZIPEK_clean_linker_0
_symmetry_space_group_name_H-M    P1
_symmetry_Int_Tables_number       1
_symmetry_cell_setting            triclinic
loop_
_symmetry_equiv_pos_as_xyz
'x, y, z'
_cell_length_a     21.21959
_cell_length_b     36.641674
_cell_length_c     47.492922
_cell_angle_alpha  89.553141
_cell_angle_beta   89.938978
_cell_angle_gamma 90.099139
loop_
_atom_site_label
_atom_site_type_symbol
_atom_site_fract_x
_atom_site_fract_y
_atom_site_fract_z
_atom_type_partial_charge
P0 P 0.37224 0.33742 0.38799 0.0
H1 H 0.42069 0.29401 0.43509 0.0
H2 H 0.40987 0.29934 0.48639 0.0
H3 H 0.29278 0.39437 0.47509 0.0
H4 H 0.30366 0.38912 0.42371 0.0
H5 H 0.36537 0.2916 0.33817 0.0
H6 H 0.28045 0.2547 0.31767 0.0
H7 H 0.15611 0.28706 0.3848 0.0
H8 H 0.24053 0.32441 0.40511 0.0
H9 H 0.43795 0.40425 0.40315 0.0
H10 H 0.31923 0.36751 0.33523 0.0
O11 O 0.44033 0.31636 0.38151 0.0
H12 H 0.45473 0.46238 0.37825 0.0
H13 H 0.33687 0.42542 0.31027 0.0
C14 C 0.36387 0.34155 0.42564 0.0
C15 C 0.39302 0.31614 0.4436 0.0
C16 C 0.3869 0.31914 0.47282 0.0
C17 C 0.35096 0.3474 0.48444 0.0
C18 C 0.3211 0.37256 0.46646 0.0
C19 C 0.32733 0.36957 0.43723 0.0
C20 C 0.30961 0.31017 0.37345 0.0
C21 C 0.31994 0.29066 0.34856 0.0
C22 C 0.27162 0.26976 0.3368 0.0
C23 C 0.21238 0.26806 0.34987 0.0
C24 C 0.20172 0.28797 0.37455 0.0
C25 C 0.24993 0.30913 0.38616 0.0
C26 C 0.37655 0.38172 0.37133 0.0
C27 C 0.41449 0.40892 0.38321 0.0
C28 C 0.42417 0.442 0.36902 0.0
C29 C 0.3967 0.44815 0.34254 0.0
C30 C 0.35791 0.42123 0.33081 0.0
C31 C 0.34796 0.38818 0.3451 0.0
P32 P 0.3273 0.091 0.91105 0.0
H33 H 0.30627 0.07896 0.85079 0.0
H34 H 0.2414 0.03501 0.82502 0.0
H35 H 0.17235 0.99086 0.90359 0.0
H36 H 0.23713 0.03485 0.92952 0.0
H37 H 0.44598 0.12786 0.89698 0.0
H38 H 0.47149 0.17914 0.86545 0.0
H39 H 0.27387 0.19405 0.84786 0.0
H40 H 0.24811 0.14281 0.87972 0.0
H41 H 0.38902 0.10088 0.96526 0.0
H42 H 0.20022 0.10892 0.93228 0.0
O43 O 0.39381 0.06748 0.91572 0.0
H44 H 0.34939 0.11375 0.01262 0.0
H45 H 0.16027 0.1214 0.98003 0.0
C46 C 0.27464 0.06125 0.89213 0.0
C47 C 0.27613 0.0605 0.86256 0.0
C48 C 0.23955 0.03528 0.84782 0.0
C49 C 0.20186 0.01004 0.86247 0.0
C50 C 0.20078 0.01044 0.892 0.0
C51 C 0.23734 0.0357 0.90674 0.0
C52 C 0.34516 0.13125 0.89039 0.0
C53 C 0.40799 0.14224 0.88654 0.0
C54 C 0.42264 0.17143 0.86853 0.0
C55 C 0.37463 0.19007 0.85414 0.0
C56 C 0.31156 0.17983 0.85868 0.0
C57 C 0.2969 0.15075 0.87687 0.0
C58 C 0.2974 0.10318 0.94534 0.0
C59 C 0.33904 0.10541 0.96818 0.0
C60 C 0.31649 0.11276 0.99521 0.0
C61 C 0.2519 0.11825 0.99986 0.0
C62 C 0.21026 0.11709 0.97687 0.0
C63 C 0.23301 0.10995 0.94971 0.0
P64 P 0.84384 0.14395 0.61915 0.0
H65 H 0.84931 0.19556 0.57252 0.0
H66 H 0.83888 0.18884 0.52131 0.0
H67 H 0.79299 0.07502 0.53274 0.0
H68 H 0.80329 0.0817 0.58401 0.0
H69 H 0.86024 0.19821 0.66305 0.0
H70 H 0.78628 0.23728 0.68849 0.0
H71 H 0.63261 0.19427 0.63946 0.0
H72 H 0.70711 0.15525 0.61362 0.0
H73 H 0.92669 0.08107 0.61435 0.0
H74 H 0.76926 0.11278 0.66632 0.0
O75 O 0.91554 0.16249 0.62139 0.0
H76 H 0.94186 0.02651 0.64401 0.0
H77 H 0.78497 0.05853 0.6959 0.0
C78 C 0.82748 0.13912 0.58206 0.0
C79 C 0.8363 0.16924 0.56406 0.0
C80 C 0.83055 0.16542 0.53488 0.0
C81 C 0.81564 0.13139 0.52327 0.0
C82 C 0.80482 0.10146 0.54133 0.0
C83 C 0.81063 0.10531 0.57057 0.0
C84 C 0.78931 0.17455 0.63596 0.0
C85 C 0.81083 0.19751 0.65742 0.0
C86 C 0.76867 0.21959 0.67209 0.0
C87 C 0.70414 0.21868 0.66579 0.0
C88 C 0.68233 0.1954 0.64451 0.0
C89 C 0.72475 0.1734 0.62969 0.0
C90 C 0.84704 0.10108 0.63808 0.0
C91 C 0.89477 0.07601 0.63177 0.0
C92 C 0.90347 0.04498 0.64864 0.0
C93 C 0.8646 0.03871 0.67211 0.0
C94 C 0.81528 0.06299 0.67783 0.0
C95 C 0.80647 0.09397 0.66089 0.0
P96 P 0.81682 0.40832 0.10677 0.0
H97 H 0.84137 0.43827 0.16188 0.0
H98 H 0.78191 0.47942 0.19259 0.0
H99 H 0.62946 0.4812 0.13265 0.0
H100 H 0.68896 0.43998 0.10182 0.0
H101 H 0.93145 0.3652 0.11383 0.0
H102 H 0.9554 0.31064 0.14191 0.0
H103 H 0.75992 0.3016 0.16583 0.0
H104 H 0.73585 0.35696 0.13804 0.0
H105 H 0.81438 0.45664 0.05814 0.0
H106 H 0.74595 0.34883 0.07901 0.0
O107 O 0.88567 0.42986 0.10276 0.0
H108 H 0.78001 0.44861 0.00932 0.0
H109 H 0.71074 0.34101 0.03005 0.0
C110 C 0.76978 0.43637 0.12952 0.0
C111 C 0.79501 0.44735 0.1554 0.0
C112 C 0.76123 0.47074 0.17289 0.0
C113 C 0.70159 0.48335 0.16477 0.0
C114 C 0.67554 0.4717 0.13918 0.0
C115 C 0.70949 0.44828 0.12162 0.0
C116 C 0.83202 0.36538 0.12419 0.0
C117 C 0.89351 0.35145 0.1249 0.0
C118 C 0.90723 0.32031 0.14086 0.0
C119 C 0.85949 0.30238 0.15602 0.0
C120 C 0.79729 0.31522 0.15426 0.0
C121 C 0.78367 0.34669 0.13847 0.0
C122 C 0.78382 0.40309 0.07205 0.0
C123 C 0.79146 0.43138 0.05228 0.0
C124 C 0.77177 0.42687 0.02447 0.0
C125 C 0.74353 0.39409 0.01604 0.0
C126 C 0.73286 0.3664 0.03616 0.0
C127 C 0.75301 0.37087 0.06404 0.0
P128 P 0.81077 0.59835 0.6145 0.0
H129 H 0.88017 0.61277 0.56287 0.0
H130 H 0.84775 0.62224 0.51383 0.0
H131 H 0.65272 0.61973 0.53925 0.0
H132 H 0.68522 0.61104 0.58867 0.0
H133 H 0.93101 0.61913 0.63997 0.0
H134 H 0.96376 0.67147 0.6681 0.0
H135 H 0.77808 0.71789 0.65998 0.0
H136 H 0.74491 0.66516 0.63152 0.0
H137 H 0.71926 0.54227 0.59855 0.0
H138 H 0.78119 0.59434 0.6749 0.0
O139 O 0.87293 0.57091 0.61096 0.0
H140 H 0.6518 0.50121 0.62633 0.0
H141 H 0.71501 0.55252 0.70266 0.0
C142 C 0.78512 0.61021 0.57932 0.0
C143 C 0.83041 0.61463 0.55803 0.0
C144 C 0.812 0.62006 0.53006 0.0
C145 C 0.74792 0.6213 0.52293 0.0
C146 C 0.70241 0.61862 0.54437 0.0
C147 C 0.72097 0.61354 0.57249 0.0
C148 C 0.83555 0.63837 0.63348 0.0
C149 C 0.89725 0.64058 0.64395 0.0
C150 C 0.91601 0.67038 0.66009 0.0
C151 C 0.87333 0.69843 0.66612 0.0
C152 C 0.81164 0.69647 0.65549 0.0
C153 C 0.79286 0.66655 0.63924 0.0
C154 C 0.75349 0.57241 0.63448 0.0
C155 C 0.71703 0.54564 0.62115 0.0
C156 C 0.67895 0.52199 0.637 0.0
C157 C 0.67805 0.5241 0.6665 0.0
C158 C 0.71445 0.55084 0.67989 0.0
C159 C 0.75196 0.57479 0.66399 0.0
P160 P 0.81817 0.85868 0.10902 0.0
H161 H 0.80504 0.87264 0.16913 0.0
H162 H 0.82729 0.9261 0.19801 0.0
H163 H 0.87054 0.98871 0.12323 0.0
H164 H 0.84701 0.93541 0.09409 0.0
H165 H 0.83252 0.78419 0.131 0.0
H166 H 0.76241 0.74403 0.15803 0.0
H167 H 0.61393 0.82388 0.15163 0.0
H168 H 0.68523 0.86496 0.12545 0.0
H169 H 0.89346 0.88579 0.0621 0.0
H170 H 0.70284 0.84757 0.07456 0.0
O171 O 0.88984 0.84004 0.11006 0.0
H172 H 0.87335 0.89198 0.01142 0.0
H173 H 0.68325 0.85354 0.02389 0.0
C174 C 0.82303 0.90006 0.1293 0.0
C175 C 0.81747 0.89806 0.15874 0.0
C176 C 0.83053 0.92848 0.1753 0.0
C177 C 0.85063 0.96126 0.16273 0.0
C178 C 0.85484 0.96365 0.13327 0.0
C179 C 0.84128 0.9332 0.11666 0.0
C180 C 0.76394 0.82751 0.12603 0.0
C181 C 0.78487 0.79313 0.1352 0.0
C182 C 0.74493 0.77017 0.15065 0.0
C183 C 0.68312 0.78105 0.1569 0.0
C184 C 0.66153 0.81506 0.14706 0.0
C185 C 0.70198 0.83833 0.13203 0.0
C186 C 0.79976 0.86628 0.07227 0.0
C187 C 0.84714 0.87913 0.05406 0.0
C188 C 0.8358 0.88263 0.02517 0.0
C189 C 0.77691 0.87315 0.01402 0.0
C190 C 0.72896 0.86102 0.0322 0.0
C191 C 0.74025 0.85769 0.06117 0.0
P192 P 0.26202 0.88264 0.40804 0.0
H193 H 0.29677 0.82857 0.45029 0.0
H194 H 0.25696 0.81442 0.49758 0.0
H195 H 0.11482 0.89756 0.48812 0.0
H196 H 0.15253 0.91057 0.44031 0.0
H197 H 0.35358 0.86957 0.36354 0.0
H198 H 0.38511 0.81434 0.33816 0.0
H199 H 0.24283 0.75256 0.38267 0.0
H200 H 0.20983 0.80797 0.40734 0.0
H201 H 0.23053 0.95872 0.41697 0.0
H202 H 0.19122 0.87681 0.35455 0.0
O203 O 0.33 0.90352 0.41521 0.0
H204 H 0.17211 0.00385 0.389 0.0
H205 H 0.13453 0.92246 0.3261 0.0
C206 C 0.2273 0.87031 0.44153 0.0
C207 C 0.25615 0.84324 0.45809 0.0
C208 C 0.23366 0.83525 0.48509 0.0
C209 C 0.18296 0.85494 0.49633 0.0
C210 C 0.15381 0.88196 0.47976 0.0
C211 C 0.17558 0.88943 0.45247 0.0
C212 C 0.28059 0.84261 0.38785 0.0
C213 C 0.32884 0.84422 0.36768 0.0
C214 C 0.34673 0.81283 0.35319 0.0
C215 C 0.31666 0.77941 0.35879 0.0
C216 C 0.26678 0.7781 0.37822 0.0
C217 C 0.24826 0.80964 0.39238 0.0
C218 C 0.21504 0.91442 0.38793 0.0
C219 C 0.20901 0.9504 0.39736 0.0
C220 C 0.17582 0.97611 0.38144 0.0
C221 C 0.14892 0.96639 0.35558 0.0
C222 C 0.15472 0.93035 0.34609 0.0
C223 C 0.18712 0.90439 0.36232 0.0
P224 P 0.40127 0.64919 0.88848 0.0
H225 H 0.46754 0.61789 0.84054 0.0
H226 H 0.46712 0.5567 0.81976 0.0
H227 H 0.33611 0.52004 0.88345 0.0
H228 H 0.33693 0.58116 0.90447 0.0
H229 H 0.3892 0.72712 0.87704 0.0
H230 H 0.30775 0.76385 0.85361 0.0
H231 H 0.19664 0.66687 0.84039 0.0
H232 H 0.27818 0.63001 0.86378 0.0
H233 H 0.48711 0.62832 0.93345 0.0
H234 H 0.29528 0.66619 0.92654 0.0
O235 O 0.4704 0.6691 0.88149 0.0
H236 H 0.47834 0.62901 0.98507 0.0
H237 H 0.2867 0.66688 0.97813 0.0
C238 C 0.40315 0.6038 0.87432 0.0
C239 C 0.43939 0.59658 0.85028 0.0
C240 C 0.43916 0.5618 0.83841 0.0
C241 C 0.402 0.53396 0.85026 0.0
C242 C 0.36548 0.54119 0.87423 0.0
C243 C 0.36603 0.57595 0.88619 0.0
C244 C 0.34036 0.67577 0.87164 0.0
C245 C 0.34753 0.71368 0.86898 0.0
C246 C 0.30115 0.73462 0.85567 0.0
C247 C 0.24666 0.71796 0.84501 0.0
C248 C 0.23874 0.6801 0.84821 0.0
C249 C 0.28527 0.65913 0.86153 0.0
C250 C 0.39224 0.64775 0.92621 0.0
C251 C 0.44313 0.63665 0.94303 0.0
C252 C 0.43817 0.63696 0.97239 0.0
C253 C 0.38203 0.6482 0.98529 0.0
C254 C 0.33043 0.65825 0.96847 0.0
C255 C 0.33544 0.65794 0.93908 0.0
Tb256 Tb 0.0682 0.12989 0.23404 0.0
C257 C 0.77211 0.14304 0.25868 0.0
N258 N 0.81923 0.16603 0.26636 0.0
C259 C 0.75488 0.21769 0.2544 0.0
C260 C 0.71457 0.15656 0.24813 0.0
C261 C 0.81082 0.20302 0.26507 0.0
C262 C 0.70668 0.19438 0.2457 0.0
C263 C 0.73259 0.08107 0.25519 0.0
C264 C 0.78104 0.10579 0.2621 0.0
C265 C 0.67554 0.09436 0.24424 0.0
C266 C 0.66659 0.132 0.24067 0.0
Tb267 Tb 0.90956 0.1387 0.28188 0.0
N268 N 0.8375 0.09381 0.27206 0.0
C269 C 0.74289 0.04373 0.25956 0.0
C270 C 0.84695 0.05742 0.2772 0.0
C271 C 0.80019 0.0319 0.27076 0.0
H272 H 0.84707 0.22132 0.27253 0.0
H273 H 0.80879 0.00307 0.274 0.0
H274 H 0.15537 0.05472 0.23889 0.0
H275 H 0.12787 0.27254 0.24074 0.0
H276 H 0.89216 0.04788 0.28412 0.0
H277 H 0.70693 0.02386 0.2544 0.0
H278 H 0.06215 0.21943 0.22743 0.0
H279 H 0.7488 0.24698 0.25309 0.0
H280 H 0.63789 0.07577 0.23864 0.0
H281 H 0.62213 0.14187 0.23241 0.0
H282 H 0.26472 0.03903 0.25235 0.0
H283 H 0.66322 0.20584 0.2376 0.0
H284 H 0.23412 0.26243 0.26093 0.0
N285 N 0.1683 0.11175 0.24492 0.0
C286 C 0.20844 0.13877 0.25267 0.0
C287 C 0.24949 0.0672 0.25247 0.0
C288 C 0.27077 0.13107 0.26092 0.0
C289 C 0.18773 0.07617 0.24481 0.0
C290 C 0.29109 0.09473 0.26073 0.0
N291 N 0.1271 0.18053 0.24298 0.0
C292 C 0.10699 0.21511 0.23739 0.0
C293 C 0.22736 0.20352 0.25876 0.0
C294 C 0.1871 0.17442 0.25177 0.0
C295 C 0.20481 0.23923 0.25565 0.0
C296 C 0.14477 0.24505 0.24436 0.0
H297 H 0.33871 0.08766 0.26688 0.0
H298 H 0.3587 0.1545 0.27547 0.0
H299 H 0.32072 0.21798 0.27348 0.0
O300 O 0.06121 0.15078 0.1927 0.0
O301 O 0.07484 0.15606 0.27592 0.0
O302 O 0.97881 0.18235 0.28383 0.0
O303 O 0.11911 0.10417 0.20163 0.0
O304 O 0.98566 0.15958 0.21804 0.0
O305 O 0.93669 0.1856 0.25589 0.0
O306 O 0.9253 0.12654 0.32474 0.0
O307 O 0.90512 0.10522 0.2435 0.0
O308 O 0.00421 0.08349 0.23154 0.0
O309 O 0.84742 0.15997 0.31227 0.0
O310 O 0.98403 0.10183 0.29749 0.0
O311 O 0.05419 0.08275 0.26254 0.0
C312 C 0.03781 0.17745 0.29079 0.0
C313 C 0.15082 0.14225 0.16376 0.0
C314 C 0.19953 0.14672 0.11715 0.0
C315 C 0.24592 0.16981 0.12828 0.0
C316 C 0.19755 0.16552 0.17432 0.0
C317 C 0.24477 0.17917 0.15669 0.0
C318 C 0.15169 0.13305 0.135 0.0
C319 C 0.94891 0.18467 0.22877 0.0
C320 C 0.10124 0.12739 0.18246 0.0
C321 C 0.31073 0.15986 0.26886 0.0
C322 C 0.28904 0.19601 0.26781 0.0
C323 C 0.94227 0.08244 0.23 0.0
C324 C 0.83448 0.12404 0.35345 0.0
C325 C 0.80251 0.11183 0.40209 0.0
C326 C 0.75711 0.08707 0.39237 0.0
C327 C 0.78846 0.09935 0.34418 0.0
C328 C 0.84136 0.13023 0.38252 0.0
C329 C 0.75021 0.08091 0.36357 0.0
C330 C 0.0297 0.08058 0.28828 0.0
C331 C 0.87522 0.14367 0.33318 0.0
H332 H 0.28306 0.18059 0.11492 0.0
H333 H 0.19769 0.1732 0.19613 0.0
H334 H 0.28066 0.19706 0.16509 0.0
H335 H 0.11569 0.11521 0.12654 0.0
H336 H 0.72684 0.07267 0.40713 0.0
H337 H 0.78167 0.09446 0.32203 0.0
H338 H 0.87652 0.14939 0.38992 0.0
H339 H 0.71488 0.0619 0.35622 0.0
Tb340 Tb 0.41472 0.36341 0.72629 0.0
C341 C 0.68694 0.40679 0.75929 0.0
N342 N 0.66193 0.37314 0.76427 0.0
C343 C 0.75724 0.34537 0.74738 0.0
C344 C 0.74662 0.41093 0.7465 0.0
C345 C 0.69841 0.34271 0.76051 0.0
C346 C 0.78084 0.3796 0.73973 0.0
C347 C 0.68148 0.47231 0.76613 0.0
C348 C 0.65518 0.43713 0.76925 0.0
C349 C 0.73881 0.4767 0.75171 0.0
C350 C 0.7714 0.44607 0.74198 0.0
Tb351 Tb 0.56271 0.37319 0.78387 0.0
N352 N 0.59951 0.43202 0.78291 0.0
C353 C 0.65007 0.50193 0.77815 0.0
C354 C 0.57083 0.46052 0.79619 0.0
C355 C 0.59506 0.49589 0.79367 0.0
H356 H 0.68145 0.31617 0.76708 0.0
H357 H 0.57108 0.51848 0.80356 0.0
H358 H 0.43635 0.44586 0.69956 0.0
H359 H 0.20549 0.29321 0.76451 0.0
H360 H 0.5281 0.45608 0.80779 0.0
H361 H 0.66869 0.52938 0.77616 0.0
H362 H 0.31647 0.29758 0.75076 0.0
H363 H 0.78462 0.32104 0.74345 0.0
H364 H 0.75923 0.50357 0.74868 0.0
H365 H 0.81663 0.44977 0.73173 0.0
H366 H 0.37317 0.50131 0.69146 0.0
H367 H 0.82674 0.38163 0.72982 0.0
H368 H 0.13541 0.34663 0.75936 0.0
N369 N 0.36198 0.41661 0.71948 0.0
C370 C 0.2994 0.41565 0.72539 0.0
C371 C 0.35196 0.47756 0.70134 0.0
C372 C 0.2608 0.44627 0.72028 0.0
C373 C 0.38808 0.44634 0.7065 0.0
C374 C 0.2881 0.47765 0.70847 0.0
N375 N 0.31255 0.35455 0.7406 0.0
C376 C 0.28804 0.32194 0.74978 0.0
C377 C 0.20929 0.38191 0.7433 0.0
C378 C 0.27405 0.38378 0.73668 0.0
C379 C 0.18488 0.34915 0.754 0.0
C380 C 0.22436 0.31899 0.75705 0.0
H381 H 0.26011 0.5018 0.70432 0.0
H382 H 0.16608 0.46788 0.72345 0.0
H383 H 0.121 0.41158 0.74365 0.0
O384 O 0.36227 0.33027 0.6988 0.0
O385 O 0.41758 0.32037 0.75886 0.0
O386 O 0.50494 0.32341 0.78965 0.0
O387 O 0.42488 0.37128 0.6825 0.0
O388 O 0.48522 0.31962 0.72572 0.0
O389 O 0.57925 0.33797 0.74749 0.0
O390 O 0.56631 0.38984 0.82614 0.0
O391 O 0.52843 0.41628 0.75604 0.0
O392 O 0.50194 0.39121 0.71406 0.0
O393 O 0.62048 0.34414 0.81229 0.0
O394 O 0.46347 0.37743 0.79542 0.0
O395 O 0.4076 0.40513 0.76019 0.0
C396 C 0.45206 0.30836 0.78021 0.0
C397 C 0.33689 0.35647 0.65432 0.0
C398 C 0.31001 0.36216 0.60448 0.0
C399 C 0.24971 0.37441 0.61194 0.0
C400 C 0.27576 0.36793 0.66128 0.0
C401 C 0.23277 0.37724 0.64022 0.0
C402 C 0.35378 0.35351 0.62575 0.0
C403 C 0.54689 0.31827 0.72939 0.0
C404 C 0.38322 0.34661 0.67627 0.0
C405 C 0.19645 0.44458 0.7271 0.0
C406 C 0.17081 0.41253 0.73864 0.0
C407 C 0.53439 0.4148 0.72868 0.0
C408 C 0.66191 0.37892 0.84977 0.0
C409 C 0.71109 0.38957 0.89542 0.0
C410 C 0.76329 0.4052 0.88169 0.0
C411 C 0.7147 0.39444 0.83646 0.0
C412 C 0.66035 0.37638 0.87934 0.0
C413 C 0.76501 0.40756 0.85237 0.0
C414 C 0.42315 0.40227 0.7872 0.0
C415 C 0.608 0.36562 0.83322 0.0
H416 H 0.21547 0.38116 0.59582 0.0
H417 H 0.26068 0.3692 0.68287 0.0
H418 H 0.18587 0.38619 0.64584 0.0
H419 H 0.4004 0.34399 0.62005 0.0
H420 H 0.80283 0.41541 0.89373 0.0
H421 H 0.71731 0.39633 0.81385 0.0
H422 H 0.61993 0.36427 0.88984 0.0
H423 H 0.80552 0.41951 0.84192 0.0
Tb424 Tb 0.07884 0.87439 0.73498 0.0
C425 C 0.81962 0.81133 0.77305 0.0
N426 N 0.84167 0.84585 0.7697 0.0
C427 C 0.75055 0.86154 0.74237 0.0
C428 C 0.7634 0.79995 0.76002 0.0
C429 C 0.80665 0.87144 0.75577 0.0
C430 C 0.72927 0.82548 0.74415 0.0
C431 C 0.83122 0.75187 0.79486 0.0
C432 C 0.8532 0.78775 0.79011 0.0
C433 C 0.77646 0.73982 0.78113 0.0
C434 C 0.74259 0.76382 0.76372 0.0
Tb435 Tb 0.9343 0.85942 0.79157 0.0
N436 N 0.90611 0.80044 0.80284 0.0
C437 C 0.8643 0.72944 0.81363 0.0
C438 C 0.93628 0.77923 0.82252 0.0
C439 C 0.91653 0.74338 0.82781 0.0
H440 H 0.82202 0.8995 0.75488 0.0
H441 H 0.94129 0.72664 0.84305 0.0
H442 H 0.1941 0.81332 0.7473 0.0
H443 H 0.0934 0.01979 0.71918 0.0
H444 H 0.97512 0.78984 0.83464 0.0
H445 H 0.84902 0.70171 0.81785 0.0
H446 H 0.04785 0.95795 0.71352 0.0
H447 H 0.72362 0.88176 0.73083 0.0
H448 H 0.75928 0.71221 0.78424 0.0
H449 H 0.6998 0.7544 0.75368 0.0
H450 H 0.30104 0.81399 0.76725 0.0
H451 H 0.68575 0.81787 0.73381 0.0
H452 H 0.19543 0.02731 0.74384 0.0
N453 N 0.18121 0.87088 0.75058 0.0
C454 C 0.21011 0.90338 0.75532 0.0
C455 C 0.27569 0.83935 0.76435 0.0
C456 C 0.27208 0.90517 0.76591 0.0
C457 C 0.21439 0.83906 0.75354 0.0
C458 C 0.30434 0.87252 0.771 0.0
N459 N 0.11989 0.93184 0.73704 0.0
C460 C 0.09114 0.96138 0.72505 0.0
C461 C 0.20714 0.96936 0.75149 0.0
C462 C 0.17839 0.93499 0.74823 0.0
C463 C 0.17502 1.00034 0.74176 0.0
C464 C 0.11737 0.99623 0.72788 0.0
H465 H 0.35194 0.87267 0.77923 0.0
H466 H 0.3472 0.94135 0.77916 0.0
H467 H 0.29019 0.99765 0.76653 0.0
O468 O 0.05409 0.88241 0.69244 0.0
O469 O 0.06206 0.91383 0.76874 0.0
O470 O 0.02374 0.88156 0.80676 0.0
O471 O 0.14506 0.86191 0.70348 0.0
O472 O 0.98448 0.8955 0.72563 0.0
O473 O 0.93685 0.9112 0.76771 0.0
O474 O 0.90668 0.85442 0.8339 0.0
O475 O 0.92785 0.83858 0.74816 0.0
O476 O 0.02872 0.82214 0.7354 0.0
O477 O 0.87917 0.90118 0.80953 0.0
O478 O 0.02215 0.83018 0.80165 0.0
O479 O 0.08903 0.82622 0.76258 0.0
C480 C 0.06038 0.90682 0.79583 0.0
C481 C 0.10096 0.84092 0.66123 0.0
C482 C 0.111 0.8234 0.61202 0.0
C483 C 0.0952 0.78733 0.61942 0.0
C484 C 0.08575 0.80469 0.66833 0.0
C485 C 0.08218 0.77816 0.64743 0.0
C486 C 0.11281 0.85024 0.63301 0.0
C487 C 0.94864 0.91712 0.74074 0.0
C488 C 0.1065 0.869 0.68303 0.0
C489 C 0.30002 0.9394 0.7706 0.0
C490 C 0.26754 0.97147 0.76345 0.0
C491 C 0.96745 0.81678 0.73521 0.0
C492 C 0.8135 0.88326 0.84811 0.0
C493 C 0.75558 0.88029 0.89247 0.0
C494 C 0.69863 0.88032 0.8775 0.0
C495 C 0.75626 0.88312 0.83332 0.0
C496 C 0.81278 0.88179 0.87767 0.0
C497 C 0.69911 0.88171 0.84804 0.0
C498 C 0.07207 0.81693 0.78852 0.0
C499 C 0.87495 0.88454 0.83375 0.0
H500 H 0.09359 0.76629 0.60354 0.0
H501 H 0.07716 0.79683 0.68999 0.0
H502 H 0.07014 0.75031 0.65303 0.0
H503 H 0.1251 0.87812 0.62743 0.0
H504 H 0.65406 0.8791 0.88861 0.0
H505 H 0.75565 0.8841 0.81056 0.0
H506 H 0.85683 0.8817 0.88925 0.0
H507 H 0.65506 0.88161 0.83657 0.0
Tb508 Tb 0.42928 0.63372 0.23048 0.0
C509 C 0.70332 0.68073 0.27259 0.0
N510 N 0.67821 0.64663 0.27411 0.0
C511 C 0.77671 0.62108 0.25906 0.0
C512 C 0.76552 0.68642 0.26302 0.0
C513 C 0.71481 0.61677 0.26866 0.0
C514 C 0.80186 0.65607 0.25578 0.0
C515 C 0.69259 0.74548 0.28142 0.0
C516 C 0.66702 0.7099 0.28153 0.0
C517 C 0.75353 0.75149 0.27076 0.0
C518 C 0.7899 0.72202 0.26157 0.0
Tb519 Tb 0.57536 0.64334 0.28828 0.0
N520 N 0.60789 0.70314 0.29149 0.0
C521 C 0.65698 0.77383 0.29281 0.0
C522 C 0.57486 0.7305 0.30433 0.0
C523 C 0.59845 0.76614 0.30482 0.0
H524 H 0.69678 0.58945 0.27184 0.0
H525 H 0.57145 0.78766 0.31459 0.0
H526 H 0.39926 0.72177 0.23713 0.0
H527 H 0.27927 0.5147 0.22685 0.0
H528 H 0.53059 0.72537 0.31467 0.0
H529 H 0.67504 0.8015 0.29319 0.0
H530 H 0.38083 0.54775 0.22565 0.0
H531 H 0.80505 0.59738 0.25431 0.0
H532 H 0.77355 0.77871 0.27018 0.0
H533 H 0.83737 0.72697 0.254 0.0
H534 H 0.30509 0.76105 0.2402 0.0
H535 H 0.84988 0.6593 0.24838 0.0
H536 H 0.17941 0.54894 0.23162 0.0
N537 N 0.34656 0.67232 0.23628 0.0
C538 C 0.28854 0.65671 0.23571 0.0
C539 C 0.29982 0.73172 0.23902 0.0
C540 C 0.23349 0.67803 0.23718 0.0
C541 C 0.3531 0.70937 0.23749 0.0
C542 C 0.23974 0.716 0.23882 0.0
N543 N 0.33898 0.59994 0.23145 0.0
C544 C 0.33763 0.56286 0.22858 0.0
C545 C 0.2256 0.60159 0.23374 0.0
C546 C 0.28469 0.61916 0.23372 0.0
C547 C 0.22387 0.56352 0.23159 0.0
C548 C 0.28016 0.54409 0.22893 0.0
H549 H 0.19859 0.73339 0.24003 0.0
H550 H 0.13139 0.67662 0.23847 0.0
H551 H 0.12448 0.60961 0.23565 0.0
O552 O 0.39997 0.61312 0.19125 0.0
O553 O 0.45014 0.58496 0.25594 0.0
O554 O 0.49613 0.60612 0.29745 0.0
O555 O 0.44818 0.6645 0.1938 0.0
O556 O 0.51149 0.59856 0.22255 0.0
O557 O 0.59001 0.59924 0.25766 0.0
O558 O 0.59179 0.65839 0.33029 0.0
O559 O 0.59145 0.66369 0.24563 0.0
O560 O 0.49078 0.68034 0.23724 0.0
O561 O 0.61803 0.60532 0.31601 0.0
O562 O 0.48781 0.67578 0.29114 0.0
O563 O 0.39777 0.65051 0.27249 0.0
C564 C 0.4674 0.58084 0.28254 0.0
C565 C 0.37864 0.65655 0.15541 0.0
C566 C 0.35208 0.66416 0.10572 0.0
C567 C 0.30108 0.68635 0.11323 0.0
C568 C 0.32755 0.67896 0.16247 0.0
C569 C 0.28888 0.69362 0.14151 0.0
C570 C 0.3907 0.64912 0.12689 0.0
C571 C 0.56604 0.58806 0.23346 0.0
C572 C 0.42062 0.6413 0.17724 0.0
C573 C 0.17433 0.66075 0.23719 0.0
C574 C 0.1704 0.62259 0.23561 0.0
C575 C 0.55007 0.68037 0.22984 0.0
C576 C 0.67423 0.62972 0.35516 0.0
C577 C 0.72096 0.62973 0.40223 0.0
C578 C 0.78072 0.6345 0.39009 0.0
C579 C 0.73444 0.6349 0.34353 0.0
C580 C 0.66765 0.62746 0.38466 0.0
C581 C 0.78729 0.63716 0.36091 0.0
C582 C 0.42752 0.66696 0.29321 0.0
C583 C 0.6175 0.62757 0.33723 0.0
H584 H 0.27101 0.69817 0.09717 0.0
H585 H 0.31762 0.68549 0.18403 0.0
H586 H 0.24962 0.71089 0.14719 0.0
H587 H 0.43035 0.63211 0.12111 0.0
H588 H 0.82223 0.63635 0.40327 0.0
H589 H 0.74098 0.63735 0.32116 0.0
H590 H 0.62135 0.62388 0.39397 0.0
H591 H 0.83352 0.64109 0.35172 0.0
C592 C 0.15435 0.02195 0.3247 0.0
C593 C 0.11727 0.99487 0.33818 0.0
C594 C 0.02093 0.02738 0.32411 0.0
C595 C 0.0581 0.05309 0.30846 0.0
N596 N 0.15894 0.08304 0.306 0.0
N597 N 0.01551 0.96895 0.34854 0.0
C598 C 0.1246 0.0525 0.31196 0.0
C599 C 0.05064 0.99672 0.33716 0.0
N600 N 0.21829 0.01781 0.32305 0.0
N601 N 0.95867 0.03384 0.32923 0.0
H602 H 0.03513 0.9473 0.35987 0.0
H603 H 0.96743 0.96577 0.34494 0.0
H604 H 0.93649 0.05809 0.32417 0.0
H605 H 0.93073 0.01776 0.34241 0.0
H606 H 0.24709 0.0346 0.31076 0.0
H607 H 0.24205 0.99559 0.33186 0.0
H608 H 0.20578 0.08644 0.312 0.0
H609 H 0.13855 0.10662 0.29795 0.0
C610 C 0.36065 0.49243 0.8128 0.0
C611 C 0.39916 0.49757 0.83683 0.0
C612 C 0.42858 0.43291 0.8356 0.0
C613 C 0.4018 0.43047 0.80826 0.0
N614 N 0.30727 0.44751 0.7848 0.0
N615 N 0.47056 0.47271 0.87154 0.0
C616 C 0.35792 0.45747 0.80036 0.0
C617 C 0.43257 0.46764 0.84869 0.0
N618 N 0.32686 0.52078 0.80172 0.0
N619 N 0.4449 0.40201 0.85002 0.0
H620 H 0.47443 0.49768 0.88181 0.0
H621 H 0.50187 0.45293 0.87888 0.0
H622 H 0.43448 0.37603 0.84262 0.0
H623 H 0.46027 0.40208 0.87084 0.0
H624 H 0.30379 0.51916 0.78239 0.0
H625 H 0.32486 0.54646 0.81102 0.0
H626 H 0.26975 0.46487 0.78024 0.0
H627 H 0.29838 0.41993 0.78158 0.0
C628 C 0.58747 0.50704 0.69846 0.0
C629 C 0.64219 0.49661 0.68338 0.0
C630 C 0.62427 0.43264 0.69672 0.0
C631 C 0.57178 0.44321 0.71341 0.0
N632 N 0.50927 0.49161 0.73375 0.0
N633 N 0.7209 0.45117 0.67342 0.0
C634 C 0.55543 0.48079 0.71554 0.0
C635 C 0.6628 0.45984 0.68392 0.0
N636 N 0.56427 0.54163 0.69538 0.0
N637 N 0.63805 0.39655 0.6933 0.0
H638 H 0.75121 0.47044 0.66444 0.0
H639 H 0.74183 0.4257 0.67611 0.0
H640 H 0.61507 0.37581 0.70426 0.0
H641 H 0.67021 0.38701 0.67851 0.0
H642 H 0.52059 0.54976 0.70311 0.0
H643 H 0.58619 0.56157 0.683 0.0
H644 H 0.50142 0.51879 0.73895 0.0
H645 H 0.48105 0.47355 0.74518 0.0
C646 C 0.92717 0.98888 0.1967 0.0
C647 C 0.87133 0.99219 0.18064 0.0
C648 C 0.85802 0.05495 0.19742 0.0
C649 C 0.91274 0.05088 0.21477 0.0
N650 N 0.98032 0.00771 0.23886 0.0
N651 N 0.77518 0.02473 0.1711 0.0
C652 C 0.94192 0.01602 0.21669 0.0
C653 C 0.83419 0.02415 0.18262 0.0
N654 N 0.96698 0.96011 0.19265 0.0
N655 N 0.82944 0.08806 0.1941 0.0
H656 H 0.75641 0.00281 0.15999 0.0
H657 H 0.74274 0.04547 0.17481 0.0
H658 H 0.84097 0.11114 0.20544 0.0
H659 H 0.79566 0.09324 0.17869 0.0
H660 H 0.01136 0.95857 0.20197 0.0
H661 H 0.95842 0.93969 0.17795 0.0
H662 H 0.99873 0.98171 0.24234 0.0
H663 H 0.98582 0.02505 0.25591 0.0
C664 C 0.91831 0.01461 0.71543 0.0
C665 C 0.87895 0.00818 0.69187 0.0
C666 C 0.8786 0.94252 0.70239 0.0
C667 C 0.91851 0.94876 0.72598 0.0
N668 N 0.96765 0.99133 0.75776 0.0
N669 N 0.81143 0.96806 0.66576 0.0
C670 C 0.93477 0.98507 0.73359 0.0
C671 C 0.85594 0.97269 0.68624 0.0
N672 N 0.9429 0.04872 0.71954 0.0
N673 N 0.86295 0.90764 0.69522 0.0
H674 H 0.79461 0.98957 0.65338 0.0
H675 H 0.78754 0.94368 0.66233 0.0
H676 H 0.87341 0.88521 0.70793 0.0
H677 H 0.84154 0.90058 0.67633 0.0
H678 H 0.97841 0.05443 0.73396 0.0
H679 H 0.93081 0.0713 0.70719 0.0
H680 H 0.97356 0.01703 0.76656 0.0
H681 H 0.98711 0.97051 0.76981 0.0
C682 C 0.68461 0.54717 0.18192 0.0
C683 C 0.66743 0.50981 0.18276 0.0
C684 C 0.58256 0.52341 0.21613 0.0
C685 C 0.60259 0.56052 0.21706 0.0
N686 N 0.67924 0.6064 0.20372 0.0
N687 N 0.60779 0.46089 0.20396 0.0
C688 C 0.65575 0.57193 0.20089 0.0
C689 C 0.6186 0.49751 0.20082 0.0
N690 N 0.72694 0.55929 0.16219 0.0
N691 N 0.52835 0.51284 0.22933 0.0
H692 H 0.63251 0.44116 0.19273 0.0
H693 H 0.57813 0.44985 0.21931 0.0
H694 H 0.50211 0.53024 0.24175 0.0
H695 H 0.50704 0.48752 0.22649 0.0
H696 H 0.73575 0.58679 0.15811 0.0
H697 H 0.74963 0.54196 0.14813 0.0
H698 H 0.72225 0.61488 0.19534 0.0
H699 H 0.6581 0.62597 0.21622 0.0
C700 C 0.47443 0.48504 0.31467 0.0
C701 C 0.4131 0.48159 0.32617 0.0
C702 C 0.38493 0.54144 0.30637 0.0
C703 C 0.44841 0.54656 0.29748 0.0
N704 N 0.55624 0.52536 0.29787 0.0
N705 N 0.31176 0.50793 0.33629 0.0
C706 C 0.49393 0.519 0.30305 0.0
C707 C 0.36863 0.51012 0.32283 0.0
N708 N 0.5135 0.4554 0.31397 0.0
N709 N 0.34014 0.56645 0.2991 0.0
H710 H 0.29817 0.48534 0.34836 0.0
H711 H 0.27999 0.52949 0.33734 0.0
H712 H 0.35089 0.59046 0.28836 0.0
H713 H 0.29198 0.56228 0.30189 0.0
H714 H 0.55593 0.45512 0.30292 0.0
H715 H 0.50084 0.42988 0.32207 0.0
H716 H 0.59213 0.50804 0.30462 0.0
H717 H 0.57264 0.54942 0.28893 0.0
C718 C 0.10042 0.98959 0.84048 0.0
C719 C 0.16452 0.98249 0.84686 0.0
C720 C 0.15759 0.92325 0.82327 0.0
C721 C 0.09475 0.93144 0.81529 0.0
N722 N 0.00037 0.96578 0.82434 0.0
N723 N 0.25632 0.94416 0.84334 0.0
C724 C 0.06438 0.96279 0.82614 0.0
C725 C 0.19358 0.94957 0.8382 0.0
N726 N 0.0747 0.02263 0.84713 0.0
N727 N 0.18151 0.88942 0.81798 0.0
H728 H 0.28363 0.96214 0.85511 0.0
H729 H 0.28249 0.92306 0.83464 0.0
H730 H 0.15677 0.86983 0.80672 0.0
H731 H 0.22369 0.87969 0.82626 0.0
H732 H 0.03087 0.03136 0.83994 0.0
H733 H 0.09912 0.04265 0.85821 0.0
H734 H 0.97429 0.98588 0.83439 0.0
H735 H 0.97246 0.94596 0.81492 0.0
C736 C 0.23015 0.09498 0.04885 0.0
C737 C 0.22861 0.12428 0.02912 0.0
C738 C 0.19087 0.16511 0.06623 0.0
C739 C 0.20223 0.13738 0.08663 0.0
N740 N 0.23829 0.07655 0.09783 0.0
N741 N 0.21262 0.18827 0.01924 0.0
C742 C 0.22272 0.1023 0.07806 0.0
C743 C 0.20968 0.1596 0.03779 0.0
N744 N 0.23788 0.06006 0.03955 0.0
N745 N 0.16135 0.19657 0.07407 0.0
H746 H 0.22588 0.18537 0.99823 0.0
H747 H 0.20652 0.21535 0.02515 0.0
H748 H 0.14656 0.20124 0.09469 0.0
H749 H 0.14619 0.21638 0.05978 0.0
H750 H 0.23313 0.03717 0.05251 0.0
H751 H 0.24309 0.05377 0.01828 0.0
H752 H 0.26053 0.05208 0.09297 0.0
H753 H 0.23333 0.08069 0.11941 0.0
C754 C 0.37681 0.37736 0.53053 0.0
C755 C 0.34339 0.35015 0.5155 0.0
C756 C 0.29807 0.32706 0.5597 0.0
C757 C 0.32548 0.35683 0.57422 0.0
N758 N 0.38561 0.41271 0.57336 0.0
N759 N 0.26578 0.30199 0.5149 0.0
C760 C 0.36373 0.38258 0.55964 0.0
C761 C 0.30241 0.32566 0.52987 0.0
N762 N 0.4221 0.39761 0.5171 0.0
N763 N 0.2691 0.29966 0.57456 0.0
H764 H 0.26765 0.30004 0.49302 0.0
H765 H 0.22984 0.28639 0.52389 0.0
H766 H 0.26527 0.29969 0.59647 0.0
H767 H 0.25402 0.27537 0.56552 0.0
H768 H 0.45276 0.41514 0.52749 0.0
H769 H 0.43263 0.39465 0.49578 0.0
H770 H 0.40763 0.43456 0.56321 0.0
H771 H 0.37778 0.41717 0.59475 0.0
C772 C 0.7668 0.36549 0.96909 0.0
C773 C 0.72836 0.38859 0.98574 0.0
C774 C 0.67406 0.41044 0.94321 0.0
C775 C 0.71133 0.38655 0.92672 0.0
N776 N 0.78121 0.33492 0.92445 0.0
N777 N 0.63626 0.4265 0.98976 0.0
C778 C 0.75381 0.36195 0.93988 0.0
C779 C 0.67893 0.40896 0.9731 0.0
N780 N 0.81787 0.34848 0.9808 0.0
N781 N 0.63633 0.43571 0.93031 0.0
H782 H 0.63852 0.42577 0.01171 0.0
H783 H 0.59561 0.43887 0.98202 0.0
H784 H 0.63107 0.43748 0.90851 0.0
H785 H 0.61367 0.45661 0.94104 0.0
H786 H 0.85174 0.33484 0.96901 0.0
H787 H 0.82947 0.3504 1.00206 0.0
H788 H 0.80768 0.3139 0.93336 0.0
H789 H 0.77236 0.33147 0.90302 0.0
C790 C 0.86328 0.10936 0.47786 0.0
C791 C 0.81304 0.127 0.4921 0.0
C792 C 0.7614 0.13947 0.44679 0.0
C793 C 0.8082 0.11857 0.4329 0.0
N794 N 0.8993 0.07945 0.43539 0.0
N795 N 0.71004 0.15459 0.49084 0.0
C796 C 0.8581 0.10244 0.44848 0.0
C797 C 0.76094 0.14098 0.47674 0.0
N798 N 0.91678 0.1002 0.49228 0.0
N799 N 0.71833 0.15866 0.43125 0.0
H800 H 0.70807 0.15622 0.51275 0.0
H801 H 0.66775 0.16147 0.48107 0.0
H802 H 0.71731 0.15823 0.40929 0.0
H803 H 0.6872 0.17744 0.43989 0.0
H804 H 0.95771 0.09099 0.48256 0.0
H805 H 0.92226 0.10468 0.5138 0.0
H806 H 0.93216 0.06355 0.44614 0.0
H807 H 0.89757 0.07407 0.41387 0.0
C808 C 0.75048 0.90805 0.9698 0.0
C809 C 0.76672 0.87452 0.98304 0.0
C810 C 0.76596 0.84391 0.93722 0.0
C811 C 0.756 0.87813 0.92377 0.0
N812 N 0.74458 0.94343 0.92644 0.0
N813 N 0.79629 0.81119 0.9797 0.0
C814 C 0.7495 0.9104 0.93986 0.0
C815 C 0.77591 0.84255 0.96684 0.0
N816 N 0.73494 0.93744 0.98595 0.0
N817 N 0.76472 0.81265 0.92167 0.0
H818 H 0.80263 0.80884 1.00141 0.0
H819 H 0.81109 0.78821 0.96878 0.0
H820 H 0.75846 0.81269 0.89988 0.0
H821 H 0.76486 0.78655 0.93047 0.0
H822 H 0.71626 0.96155 0.97781 0.0
H823 H 0.73616 0.93677 0.00791 0.0
H824 H 0.74701 0.96837 0.93674 0.0
H825 H 0.74223 0.94612 0.90458 0.0
C826 C 0.72753 0.59065 0.47662 0.0
C827 C 0.72949 0.62321 0.49266 0.0
C828 C 0.71586 0.65996 0.4496 0.0
C829 C 0.7155 0.62743 0.4335 0.0
N830 N 0.70851 0.56193 0.43142 0.0
N831 N 0.71372 0.68806 0.49585 0.0
C832 C 0.7171 0.59277 0.44701 0.0
C833 C 0.71965 0.65766 0.47955 0.0
N834 N 0.73805 0.5578 0.48966 0.0
N835 N 0.71472 0.69304 0.43607 0.0
H836 H 0.71756 0.68728 0.51775 0.0
H837 H 0.7006 0.71357 0.48811 0.0
H838 H 0.70865 0.69565 0.41435 0.0
H839 H 0.72237 0.71786 0.44598 0.0
H840 H 0.74511 0.53344 0.479 0.0
H841 H 0.74277 0.55501 0.51143 0.0
H842 H 0.70279 0.53597 0.44009 0.0
H843 H 0.70239 0.5625 0.40964 0.0
C844 C 0.40436 0.68153 0.03024 0.0
C845 C 0.37802 0.6508 0.01649 0.0
C846 C 0.33689 0.6277 0.06158 0.0
C847 C 0.36526 0.65772 0.07542 0.0
N848 N 0.43535 0.7095 0.07429 0.0
N849 N 0.32889 0.59155 0.01906 0.0
C850 C 0.40203 0.68346 0.06013 0.0
C851 C 0.34714 0.62292 0.03219 0.0
N852 N 0.42933 0.70956 0.01463 0.0
N853 N 0.29867 0.6044 0.07641 0.0
H854 H 0.33508 0.58737 0.99753 0.0
H855 H 0.31211 0.56857 0.0297 0.0
H856 H 0.29202 0.60628 0.09812 0.0
H857 H 0.2706 0.58456 0.06708 0.0
H858 H 0.44265 0.73453 0.02309 0.0
H859 H 0.43253 0.70903 0.99272 0.0
H860 H 0.46839 0.72661 0.06474 0.0
H861 H 0.43388 0.71209 0.09614 0.0
C862 C 0.10232 0.83367 0.53207 0.0
C863 C 0.16283 0.84838 0.52601 0.0
C864 C 0.19079 0.84399 0.57597 0.0
C865 C 0.12835 0.83268 0.58241 0.0
N866 N 0.02091 0.82403 0.56721 0.0
N867 N 0.25892 0.87577 0.54308 0.0
C868 C 0.08291 0.82966 0.56062 0.0
C869 C 0.20538 0.85602 0.54825 0.0
N870 N 0.06433 0.82217 0.51067 0.0
N871 N 0.23696 0.84177 0.59596 0.0
H872 H 0.27058 0.88596 0.52317 0.0
H873 H 0.28831 0.88523 0.55901 0.0
H874 H 0.22888 0.83208 0.61635 0.0
H875 H 0.2845 0.84606 0.59149 0.0
H876 H 0.02262 0.80774 0.51401 0.0
H877 H 0.07721 0.82409 0.48951 0.0
H878 H 0.98486 0.82525 0.55237 0.0
H879 H 0.00475 0.8216 0.58789 0.0
C880 C 0.1112 0.2615 0.3229 0.0
C881 C 0.16153 0.24499 0.33793 0.0
C882 C 0.11412 0.18481 0.33045 0.0
C883 C 0.06891 0.20096 0.31242 0.0
N884 N 0.00465 0.25469 0.30601 0.0
N885 N 0.21146 0.19092 0.35669 0.0
C886 C 0.06125 0.23939 0.31272 0.0
C887 C 0.1628 0.20661 0.34218 0.0
N888 N 0.11234 0.29812 0.31725 0.0
N889 N 0.10641 0.14922 0.33836 0.0
H890 H 0.24614 0.20607 0.36688 0.0
H891 H 0.21947 0.1629 0.35737 0.0
H892 H 0.06753 0.13402 0.33183 0.0
H893 H 0.13384 0.13605 0.35347 0.0
H894 H 0.0809 0.31073 0.30343 0.0
H895 H 0.14791 0.31539 0.32441 0.0
H896 H 0.99534 0.28245 0.308 0.0
H897 H 0.96421 0.23926 0.30264 0.0
C898 C 0.41752 0.2117 0.80735 0.0
C899 C 0.39068 0.22004 0.83399 0.0
C900 C 0.38958 0.2849 0.82126 0.0
C901 C 0.42572 0.27734 0.79689 0.0
N902 N 0.46969 0.23371 0.76487 0.0
N903 N 0.35731 0.26493 0.86777 0.0
C904 C 0.43831 0.24069 0.78934 0.0
C905 C 0.37817 0.25675 0.84132 0.0
N906 N 0.42105 0.17613 0.79898 0.0
N907 N 0.36322 0.31857 0.82452 0.0
H908 H 0.34831 0.2451 0.88313 0.0
H909 H 0.35417 0.29154 0.87521 0.0
H910 H 0.36672 0.33891 0.80917 0.0
H911 H 0.33168 0.3248 0.84059 0.0
H912 H 0.43468 0.16812 0.77892 0.0
H913 H 0.40583 0.15436 0.81154 0.0
H914 H 0.48777 0.20828 0.75959 0.0
H915 H 0.47923 0.25401 0.75 0.0
C916 C 0.64631 0.23489 0.71022 0.0
C917 C 0.65985 0.24254 0.68152 0.0
C918 C 0.5911 0.2962 0.68321 0.0
C919 C 0.58322 0.29102 0.71275 0.0
N920 N 0.60965 0.25742 0.75512 0.0
N921 N 0.65332 0.28341 0.64163 0.0
C922 C 0.61276 0.26094 0.72648 0.0
C923 C 0.6341 0.27385 0.6682 0.0
N924 N 0.66391 0.20212 0.7217 0.0
N925 N 0.55785 0.32264 0.66937 0.0
H926 H 0.68479 0.26787 0.62988 0.0
H927 H 0.64241 0.3083 0.6321 0.0
H928 H 0.52939 0.34124 0.67966 0.0
H929 H 0.55524 0.32462 0.64751 0.0
H930 H 0.64955 0.19313 0.74154 0.0
H931 H 0.6882 0.18233 0.71035 0.0
H932 H 0.63656 0.2388 0.76658 0.0
H933 H 0.58329 0.27475 0.76778 0.0
C934 C 0.89198 0.27859 0.20329 0.0
C935 C 0.87626 0.27143 0.17495 0.0
C936 C 0.90126 0.20667 0.18227 0.0
C937 C 0.92433 0.21456 0.20985 0.0
N938 N 0.95652 0.2613 0.2427 0.0
N939 N 0.87264 0.2299 0.13601 0.0
C940 C 0.92318 0.25136 0.21943 0.0
C941 C 0.88285 0.23582 0.16403 0.0
N942 N 0.87802 0.31169 0.2148 0.0
N943 N 0.89437 0.17144 0.17362 0.0
H944 H 0.85594 0.2501 0.12234 0.0
H945 H 0.88475 0.20575 0.12594 0.0
H946 H 0.90808 0.14896 0.18547 0.0
H947 H 0.87018 0.1642 0.15542 0.0
H948 H 0.88173 0.31684 0.23629 0.0
H949 H 0.85739 0.33297 0.2034 0.0
H950 H 0.9625 0.28829 0.2489 0.0
H951 H 0.98537 0.24336 0.25363 0.0
C952 C 0.90249 0.72414 0.71322 0.0
C953 C 0.89387 0.72956 0.68389 0.0
C954 C 0.92827 0.7932 0.68851 0.0
C955 C 0.94208 0.78682 0.71742 0.0
N956 N 0.95603 0.74362 0.7554 0.0
N957 N 0.90845 0.76718 0.64253 0.0
C958 C 0.93299 0.75155 0.72926 0.0
C959 C 0.90925 0.7636 0.67122 0.0
N960 N 0.88023 0.69309 0.72592 0.0
N961 N 0.9333 0.82757 0.67751 0.0
H962 H 0.89421 0.74626 0.62919 0.0
H963 H 0.92664 0.78976 0.63182 0.0
H964 H 0.9506 0.84932 0.68904 0.0
H965 H 0.91686 0.83496 0.65762 0.0
H966 H 0.87912 0.68942 0.74769 0.0
H967 H 0.85751 0.67241 0.71485 0.0
H968 H 0.95744 0.71728 0.76379 0.0
H969 H 0.97874 0.76293 0.76775 0.0
C970 C 0.62359 0.7222 0.16368 0.0
C971 C 0.6418 0.75679 0.1742 0.0
C972 C 0.5819 0.74448 0.21738 0.0
C973 C 0.574 0.70768 0.20913 0.0
N974 N 0.58823 0.66078 0.17433 0.0
N975 N 0.6458 0.7989 0.21308 0.0
C976 C 0.59498 0.69633 0.18218 0.0
C977 C 0.62258 0.76759 0.20153 0.0
N978 N 0.63204 0.71452 0.13581 0.0
N979 N 0.54984 0.75767 0.24004 0.0
H980 H 0.67729 0.81617 0.20262 0.0
H981 H 0.63847 0.80592 0.23405 0.0
H982 H 0.51867 0.74181 0.25188 0.0
H983 H 0.54918 0.78525 0.24522 0.0
H984 H 0.61411 0.69124 0.12624 0.0
H985 H 0.65173 0.73315 0.12158 0.0
H986 H 0.60939 0.64984 0.1565 0.0
H987 H 0.56448 0.64158 0.18664 0.0
C988 C 0.3975 0.72971 0.35418 0.0
C989 C 0.33954 0.74544 0.34533 0.0
C990 C 0.32575 0.69571 0.31176 0.0
C991 C 0.38972 0.68604 0.31555 0.0
N992 N 0.46761 0.67758 0.35125 0.0
N993 N 0.24741 0.74321 0.31549 0.0
C994 C 0.42044 0.69832 0.3401 0.0
C995 C 0.30287 0.72812 0.3243 0.0
N996 N 0.43107 0.7451 0.37558 0.0
N997 N 0.28512 0.67185 0.29953 0.0
H998 H 0.22907 0.76715 0.32392 0.0
H999 H 0.22217 0.73333 0.29835 0.0
H1000 H 0.29861 0.64543 0.29441 0.0
H1001 H 0.23659 0.67608 0.29881 0.0
H1002 H 0.47709 0.73766 0.38055 0.0
H1003 H 0.41386 0.76655 0.38766 0.0
H1004 H 0.48985 0.68305 0.37028 0.0
H1005 H 0.47828 0.65207 0.34288 0.0
C1006 C 0.18955 0.7393 0.80142 0.0
C1007 C 0.19758 0.74059 0.83095 0.0
C1008 C 0.12477 0.7922 0.83337 0.0
C1009 C 0.1121 0.78922 0.80383 0.0
N1010 N 0.11966 0.75079 0.76247 0.0
N1011 N 0.15973 0.76129 0.87583 0.0
C1012 C 0.14069 0.76007 0.78863 0.0
C1013 C 0.16074 0.7647 0.84715 0.0
N1014 N 0.22959 0.71903 0.78533 0.0
N1015 N 0.10685 0.82217 0.84829 0.0
H1016 H 0.18568 0.74152 0.88666 0.0
H1017 H 0.12825 0.77552 0.88852 0.0
H1018 H 0.08383 0.8445 0.83973 0.0
H1019 H 0.12168 0.82695 0.86884 0.0
H1020 H 0.23027 0.72056 0.7634 0.0
H1021 H 0.26578 0.70322 0.79386 0.0
H1022 H 0.13505 0.7276 0.75194 0.0
H1023 H 0.0818 0.7634 0.7526 0.0
loop_
_geom_bond_atom_site_label_1
_geom_bond_atom_site_label_2
_geom_bond_distance
_geom_bond_site_symmetry_2
_ccdc_geom_bond_type
P0 O11 1.490 . S
P0 C14 1.812 . S
P0 C20 1.803 . S
P0 C26 1.819 . S
H1 C15 0.941 . S
H2 C16 0.939 . S
H3 C18 0.940 . S
H4 C19 0.940 . S
H5 C21 0.939 . S
H6 C22 0.942 . S
H7 C24 0.940 . S
H8 C25 0.939 . S
H9 C27 0.941 . S
H10 C31 0.939 . S
O11 P0 1.490 . S
H12 C28 0.939 . S
H13 C30 0.940 . S
C14 P0 1.812 . S
C14 C15 1.389 . S
C14 C19 1.391 . S
C15 H1 0.941 . S
C15 C14 1.389 . S
C15 C16 1.397 . S
C16 H2 0.939 . S
C16 C15 1.397 . S
C16 C17 1.378 . S
C17 C16 1.378 . S
C17 C18 1.378 . S
C18 H3 0.940 . S
C18 C17 1.378 . S
C18 C19 1.396 . S
C19 H4 0.940 . S
C19 C14 1.391 . S
C19 C18 1.396 . S
C20 P0 1.803 . S
C20 C21 1.378 . S
C20 C25 1.400 . S
C21 H5 0.939 . S
C21 C20 1.378 . S
C21 C22 1.361 . S
C22 H6 0.942 . S
C22 C21 1.361 . S
C22 C23 1.369 . S
C23 C22 1.369 . S
C23 C24 1.404 . S
C24 H7 0.940 . S
C24 C23 1.404 . S
C24 C25 1.389 . S
C25 H8 0.939 . S
C25 C20 1.400 . S
C25 C24 1.389 . S
C26 P0 1.819 . S
C26 C27 1.391 . S
C26 C31 1.391 . S
C27 H9 0.941 . S
C27 C26 1.391 . S
C27 C28 1.396 . S
C28 H12 0.939 . S
C28 C27 1.396 . S
C28 C29 1.397 . S
C29 C28 1.397 . S
C29 C30 1.385 . S
C30 H13 0.940 . S
C30 C29 1.385 . S
C30 C31 1.388 . S
C31 H10 0.939 . S
C31 C26 1.391 . S
C31 C30 1.388 . S
P32 O43 1.490 . S
P32 C46 1.812 . S
P32 C52 1.803 . S
P32 C58 1.819 . S
H33 C47 0.941 . S
H34 C48 0.939 1_565 S
H35 C50 0.940 . S
H36 C51 0.940 . S
H37 C53 0.939 . S
H38 C54 0.942 . S
H39 C56 0.940 . S
H40 C57 0.939 . S
H41 C59 0.941 . S
H42 C63 0.939 . S
O43 P32 1.490 . S
H44 C60 0.939 . S
H45 C62 0.940 . S
C46 P32 1.812 . S
C46 C47 1.389 . S
C46 C51 1.391 . S
C47 H33 0.941 . S
C47 C46 1.389 . S
C47 C48 1.397 . S
C48 H34 0.939 1_545 S
C48 C47 1.397 . S
C48 C49 1.378 . S
C49 C48 1.378 . S
C49 C50 1.378 . S
C50 H35 0.940 . S
C50 C49 1.378 . S
C50 C51 1.396 . S
C51 H36 0.940 . S
C51 C46 1.391 . S
C51 C50 1.396 . S
C52 P32 1.803 . S
C52 C53 1.378 . S
C52 C57 1.400 . S
C53 H37 0.939 . S
C53 C52 1.378 . S
C53 C54 1.361 . S
C54 H38 0.942 . S
C54 C53 1.361 . S
C54 C55 1.369 . S
C55 C54 1.369 . S
C55 C56 1.404 . S
C56 H39 0.940 . S
C56 C55 1.404 . S
C56 C57 1.389 . S
C57 H40 0.939 . S
C57 C52 1.400 . S
C57 C56 1.389 . S
C58 P32 1.819 . S
C58 C59 1.391 . S
C58 C63 1.391 . S
C59 H41 0.941 . S
C59 C58 1.391 . S
C59 C60 1.396 . S
C60 H44 0.939 . S
C60 C59 1.396 . S
C60 C61 1.397 . S
C61 C60 1.397 . S
C61 C62 1.385 . S
C62 H45 0.940 . S
C62 C61 1.385 . S
C62 C63 1.388 . S
C63 H42 0.939 . S
C63 C58 1.391 . S
C63 C62 1.388 . S
P64 O75 1.490 . S
P64 C78 1.812 . S
P64 C84 1.803 . S
P64 C90 1.819 . S
H65 C79 0.941 . S
H66 C80 0.939 . S
H67 C82 0.940 . S
H68 C83 0.940 . S
H69 C85 0.939 . S
H70 C86 0.942 . S
H71 C88 0.940 . S
H72 C89 0.939 . S
H73 C91 0.941 . S
H74 C95 0.939 . S
O75 P64 1.490 . S
H76 C92 0.939 . S
H77 C94 0.940 . S
C78 P64 1.812 . S
C78 C79 1.389 . S
C78 C83 1.391 . S
C79 H65 0.941 . S
C79 C78 1.389 . S
C79 C80 1.397 . S
C80 H66 0.939 . S
C80 C79 1.397 . S
C80 C81 1.378 . S
C81 C80 1.378 . S
C81 C82 1.378 . S
C82 H67 0.940 . S
C82 C81 1.378 . S
C82 C83 1.396 . S
C83 H68 0.940 . S
C83 C78 1.391 . S
C83 C82 1.396 . S
C84 P64 1.803 . S
C84 C85 1.378 . S
C84 C89 1.400 . S
C85 H69 0.939 . S
C85 C84 1.378 . S
C85 C86 1.361 . S
C86 H70 0.942 . S
C86 C85 1.361 . S
C86 C87 1.369 . S
C87 C86 1.369 . S
C87 C88 1.404 . S
C88 H71 0.940 . S
C88 C87 1.404 . S
C88 C89 1.389 . S
C89 H72 0.939 . S
C89 C84 1.400 . S
C89 C88 1.389 . S
C90 P64 1.819 . S
C90 C91 1.391 . S
C90 C95 1.391 . S
C91 H73 0.941 . S
C91 C90 1.391 . S
C91 C92 1.396 . S
C92 H76 0.939 . S
C92 C91 1.396 . S
C92 C93 1.397 . S
C93 C92 1.397 . S
C93 C94 1.385 . S
C94 H77 0.940 . S
C94 C93 1.385 . S
C94 C95 1.388 . S
C95 H74 0.939 . S
C95 C90 1.391 . S
C95 C94 1.388 . S
P96 O107 1.490 . S
P96 C110 1.812 . S
P96 C116 1.803 . S
P96 C122 1.819 . S
H97 C111 0.941 . S
H98 C112 0.939 . S
H99 C114 0.940 . S
H100 C115 0.940 . S
H101 C117 0.939 . S
H102 C118 0.942 . S
H103 C120 0.940 . S
H104 C121 0.939 . S
H105 C123 0.941 . S
H106 C127 0.939 . S
O107 P96 1.490 . S
H108 C124 0.939 . S
H109 C126 0.940 . S
C110 P96 1.812 . S
C110 C111 1.389 . S
C110 C115 1.391 . S
C111 H97 0.941 . S
C111 C110 1.389 . S
C111 C112 1.397 . S
C112 H98 0.939 . S
C112 C111 1.397 . S
C112 C113 1.378 . S
C113 C112 1.378 . S
C113 C114 1.378 . S
C114 H99 0.940 . S
C114 C113 1.378 . S
C114 C115 1.396 . S
C115 H100 0.940 . S
C115 C110 1.391 . S
C115 C114 1.396 . S
C116 P96 1.803 . S
C116 C117 1.378 . S
C116 C121 1.400 . S
C117 H101 0.939 . S
C117 C116 1.378 . S
C117 C118 1.361 . S
C118 H102 0.942 . S
C118 C117 1.361 . S
C118 C119 1.369 . S
C119 C118 1.369 . S
C119 C120 1.404 . S
C120 H103 0.940 . S
C120 C119 1.404 . S
C120 C121 1.389 . S
C121 H104 0.939 . S
C121 C116 1.400 . S
C121 C120 1.389 . S
C122 P96 1.819 . S
C122 C123 1.391 . S
C122 C127 1.391 . S
C123 H105 0.941 . S
C123 C122 1.391 . S
C123 C124 1.396 . S
C124 H108 0.939 . S
C124 C123 1.396 . S
C124 C125 1.397 . S
C125 C124 1.397 . S
C125 C126 1.385 . S
C126 H109 0.940 . S
C126 C125 1.385 . S
C126 C127 1.388 . S
C127 H106 0.939 . S
C127 C122 1.391 . S
C127 C126 1.388 . S
P128 O139 1.490 . S
P128 C142 1.812 . S
P128 C148 1.803 . S
P128 C154 1.819 . S
H129 C143 0.941 . S
H130 C144 0.939 . S
H131 C146 0.940 . S
H132 C147 0.940 . S
H133 C149 0.939 . S
H134 C150 0.942 . S
H135 C152 0.940 . S
H136 C153 0.939 . S
H137 C155 0.941 . S
H138 C159 0.939 . S
O139 P128 1.490 . S
H140 C156 0.939 . S
H141 C158 0.940 . S
C142 P128 1.812 . S
C142 C143 1.389 . S
C142 C147 1.391 . S
C143 H129 0.941 . S
C143 C142 1.389 . S
C143 C144 1.397 . S
C144 H130 0.939 . S
C144 C143 1.397 . S
C144 C145 1.378 . S
C145 C144 1.378 . S
C145 C146 1.378 . S
C146 H131 0.940 . S
C146 C145 1.378 . S
C146 C147 1.396 . S
C147 H132 0.940 . S
C147 C142 1.391 . S
C147 C146 1.396 . S
C148 P128 1.803 . S
C148 C149 1.378 . S
C148 C153 1.400 . S
C149 H133 0.939 . S
C149 C148 1.378 . S
C149 C150 1.361 . S
C150 H134 0.942 . S
C150 C149 1.361 . S
C150 C151 1.369 . S
C151 C150 1.369 . S
C151 C152 1.404 . S
C152 H135 0.940 . S
C152 C151 1.404 . S
C152 C153 1.389 . S
C153 H136 0.939 . S
C153 C148 1.400 . S
C153 C152 1.389 . S
C154 P128 1.819 . S
C154 C155 1.391 . S
C154 C159 1.391 . S
C155 H137 0.941 . S
C155 C154 1.391 . S
C155 C156 1.396 . S
C156 H140 0.939 . S
C156 C155 1.396 . S
C156 C157 1.397 . S
C157 C156 1.397 . S
C157 C158 1.385 . S
C158 H141 0.940 . S
C158 C157 1.385 . S
C158 C159 1.388 . S
C159 H138 0.939 . S
C159 C154 1.391 . S
C159 C158 1.388 . S
P160 O171 1.490 . S
P160 C174 1.812 . S
P160 C180 1.803 . S
P160 C186 1.819 . S
H161 C175 0.941 . S
H162 C176 0.939 . S
H163 C178 0.940 . S
H164 C179 0.940 . S
H165 C181 0.939 . S
H166 C182 0.942 . S
H167 C184 0.940 . S
H168 C185 0.939 . S
H169 C187 0.941 . S
H170 C191 0.939 . S
O171 P160 1.490 . S
H172 C188 0.939 . S
H173 C190 0.940 . S
C174 P160 1.812 . S
C174 C175 1.389 . S
C174 C179 1.391 . S
C175 H161 0.941 . S
C175 C174 1.389 . S
C175 C176 1.397 . S
C176 H162 0.939 . S
C176 C175 1.397 . S
C176 C177 1.378 . S
C177 C176 1.378 . S
C177 C178 1.378 . S
C178 H163 0.940 . S
C178 C177 1.378 . S
C178 C179 1.396 . S
C179 H164 0.940 . S
C179 C174 1.391 . S
C179 C178 1.396 . S
C180 P160 1.803 . S
C180 C181 1.378 . S
C180 C185 1.400 . S
C181 H165 0.939 . S
C181 C180 1.378 . S
C181 C182 1.361 . S
C182 H166 0.942 . S
C182 C181 1.361 . S
C182 C183 1.369 . S
C183 C182 1.369 . S
C183 C184 1.404 . S
C184 H167 0.940 . S
C184 C183 1.404 . S
C184 C185 1.389 . S
C185 H168 0.939 . S
C185 C180 1.400 . S
C185 C184 1.389 . S
C186 P160 1.819 . S
C186 C187 1.391 . S
C186 C191 1.391 . S
C187 H169 0.941 . S
C187 C186 1.391 . S
C187 C188 1.396 . S
C188 H172 0.939 . S
C188 C187 1.396 . S
C188 C189 1.397 . S
C189 C188 1.397 . S
C189 C190 1.385 . S
C190 H173 0.940 . S
C190 C189 1.385 . S
C190 C191 1.388 . S
C191 H170 0.939 . S
C191 C186 1.391 . S
C191 C190 1.388 . S
P192 O203 1.490 . S
P192 C206 1.812 . S
P192 C212 1.803 . S
P192 C218 1.819 . S
H193 C207 0.941 . S
H194 C208 0.939 . S
H195 C210 0.940 . S
H196 C211 0.940 . S
H197 C213 0.939 . S
H198 C214 0.942 . S
H199 C216 0.940 . S
H200 C217 0.939 . S
H201 C219 0.941 . S
H202 C223 0.939 . S
O203 P192 1.490 . S
H204 C220 0.939 1_545 S
H205 C222 0.940 . S
C206 P192 1.812 . S
C206 C207 1.389 . S
C206 C211 1.391 . S
C207 H193 0.941 . S
C207 C206 1.389 . S
C207 C208 1.397 . S
C208 H194 0.939 . S
C208 C207 1.397 . S
C208 C209 1.378 . S
C209 C208 1.378 . S
C209 C210 1.378 . S
C210 H195 0.940 . S
C210 C209 1.378 . S
C210 C211 1.396 . S
C211 H196 0.940 . S
C211 C206 1.391 . S
C211 C210 1.396 . S
C212 P192 1.803 . S
C212 C213 1.378 . S
C212 C217 1.400 . S
C213 H197 0.939 . S
C213 C212 1.378 . S
C213 C214 1.361 . S
C214 H198 0.942 . S
C214 C213 1.361 . S
C214 C215 1.369 . S
C215 C214 1.369 . S
C215 C216 1.404 . S
C216 H199 0.940 . S
C216 C215 1.404 . S
C216 C217 1.389 . S
C217 H200 0.939 . S
C217 C212 1.400 . S
C217 C216 1.389 . S
C218 P192 1.819 . S
C218 C219 1.391 . S
C218 C223 1.391 . S
C219 H201 0.941 . S
C219 C218 1.391 . S
C219 C220 1.396 . S
C220 H204 0.939 1_565 S
C220 C219 1.396 . S
C220 C221 1.397 . S
C221 C220 1.397 . S
C221 C222 1.385 . S
C222 H205 0.940 . S
C222 C221 1.385 . S
C222 C223 1.388 . S
C223 H202 0.939 . S
C223 C218 1.391 . S
C223 C222 1.388 . S
P224 O235 1.490 . S
P224 C238 1.812 . S
P224 C244 1.803 . S
P224 C250 1.819 . S
H225 C239 0.941 . S
H226 C240 0.939 . S
H227 C242 0.940 . S
H228 C243 0.940 . S
H229 C245 0.939 . S
H230 C246 0.942 . S
H231 C248 0.940 . S
H232 C249 0.939 . S
H233 C251 0.941 . S
H234 C255 0.939 . S
O235 P224 1.490 . S
H236 C252 0.939 . S
H237 C254 0.940 . S
C238 P224 1.812 . S
C238 C239 1.389 . S
C238 C243 1.391 . S
C239 H225 0.941 . S
C239 C238 1.389 . S
C239 C240 1.397 . S
C240 H226 0.939 . S
C240 C239 1.397 . S
C240 C241 1.378 . S
C241 C240 1.378 . S
C241 C242 1.378 . S
C242 H227 0.940 . S
C242 C241 1.378 . S
C242 C243 1.396 . S
C243 H228 0.940 . S
C243 C238 1.391 . S
C243 C242 1.396 . S
C244 P224 1.803 . S
C244 C245 1.378 . S
C244 C249 1.400 . S
C245 H229 0.939 . S
C245 C244 1.378 . S
C245 C246 1.361 . S
C246 H230 0.942 . S
C246 C245 1.361 . S
C246 C247 1.369 . S
C247 C246 1.369 . S
C247 C248 1.404 . S
C248 H231 0.940 . S
C248 C247 1.404 . S
C248 C249 1.389 . S
C249 H232 0.939 . S
C249 C244 1.400 . S
C249 C248 1.389 . S
C250 P224 1.819 . S
C250 C251 1.391 . S
C250 C255 1.391 . S
C251 H233 0.941 . S
C251 C250 1.391 . S
C251 C252 1.396 . S
C252 H236 0.939 . S
C252 C251 1.396 . S
C252 C253 1.397 . S
C253 C252 1.397 . S
C253 C254 1.385 . S
C254 H237 0.940 . S
C254 C253 1.385 . S
C254 C255 1.388 . S
C255 H234 0.939 . S
C255 C250 1.391 . S
C255 C254 1.388 . S
Tb256 N285 2.617 . S
Tb256 N291 2.572 . S
Tb256 O300 2.465 . S
Tb256 O301 2.387 . S
Tb256 O303 2.428 . S
Tb256 O304 2.308 . S
Tb256 O308 2.349 . S
Tb256 O311 2.393 . S
Tb256 C320 2.802 . S
C257 N258 1.379 . S
C257 C260 1.416 . S
C257 C264 1.424 . S
N258 C257 1.379 . S
N258 C261 1.334 . S
N258 Tb267 2.617 . S
C259 C261 1.390 . S
C259 C262 1.339 . S
C259 H279 0.930 . S
C260 C257 1.416 . S
C260 C262 1.416 . S
C260 C266 1.448 . S
C261 N258 1.334 . S
C261 C259 1.390 . S
C261 H272 0.930 . S
C262 C259 1.339 . S
C262 C260 1.416 . S
C262 H283 0.930 . S
C263 C264 1.413 . S
C263 C265 1.427 . S
C263 C269 1.416 . S
C264 C257 1.424 . S
C264 C263 1.413 . S
C264 N268 1.361 . S
C265 C263 1.427 . S
C265 C266 1.328 . S
C265 H280 0.929 . S
C266 C260 1.448 . S
C266 C265 1.328 . S
C266 H281 0.930 . S
Tb267 N258 2.617 . S
Tb267 N268 2.572 . S
Tb267 O302 2.349 1_655 S
Tb267 O305 2.393 . S
Tb267 O306 2.465 . S
Tb267 O307 2.387 . S
Tb267 O309 2.428 . S
Tb267 O310 2.308 1_655 S
Tb267 C331 2.802 . S
N268 C264 1.361 . S
N268 Tb267 2.572 . S
N268 C270 1.340 . S
C269 C263 1.416 . S
C269 C271 1.332 . S
C269 H277 0.931 1_545 S
C270 N268 1.340 . S
C270 C271 1.407 . S
C270 H276 0.930 . S
C271 C269 1.332 . S
C271 C270 1.407 . S
C271 H273 0.929 1_545 S
H272 C261 0.930 . S
H273 C271 0.929 1_565 S
H274 C289 0.930 . S
H275 C296 0.929 . S
H276 C270 0.930 . S
H277 C269 0.931 1_565 S
H278 C292 0.930 . S
H279 C259 0.930 . S
H280 C265 0.929 . S
H281 C266 0.930 . S
H282 C287 0.930 . S
H283 C262 0.930 . S
H284 C295 0.931 . S
N285 Tb256 2.617 . S
N285 C286 1.379 . S
N285 C289 1.334 . S
C286 N285 1.379 . S
C286 C288 1.416 . S
C286 C294 1.424 . S
C287 H282 0.930 . S
C287 C289 1.390 . S
C287 C290 1.339 . S
C288 C286 1.416 . S
C288 C290 1.416 . S
C288 C321 1.448 . S
C289 H274 0.930 . S
C289 N285 1.334 . S
C289 C287 1.390 . S
C290 C287 1.339 . S
C290 C288 1.416 . S
C290 H297 0.930 . S
N291 Tb256 2.572 . S
N291 C292 1.340 . S
N291 C294 1.361 . S
C292 H278 0.930 . S
C292 N291 1.340 . S
C292 C296 1.407 . S
C293 C294 1.413 . S
C293 C295 1.416 . S
C293 C322 1.427 . S
C294 C286 1.424 . S
C294 N291 1.361 . S
C294 C293 1.413 . S
C295 H284 0.931 . S
C295 C293 1.416 . S
C295 C296 1.332 . S
C296 H275 0.929 . S
C296 C292 1.407 . S
C296 C295 1.332 . S
H297 C290 0.930 . S
H298 C321 0.930 . S
H299 C322 0.929 . S
O300 Tb256 2.465 . S
O300 C320 1.264 . S
O301 Tb256 2.387 . S
O301 C312 1.264 . S
O302 Tb267 2.349 1_455 S
O302 C312 1.243 . S
O303 Tb256 2.428 . S
O303 C320 1.256 . S
O304 Tb256 2.308 . S
O304 C319 1.266 1_455 S
O305 Tb267 2.393 . S
O305 C319 1.248 . S
O306 Tb267 2.465 . S
O306 C331 1.264 . S
O307 Tb267 2.387 . S
O307 C323 1.264 . S
O308 Tb256 2.349 . S
O308 C323 1.243 1_455 S
O309 Tb267 2.428 . S
O309 C331 1.256 . S
O310 Tb267 2.308 1_455 S
O310 C330 1.266 . S
O311 Tb256 2.393 . S
O311 C330 1.248 . S
C312 O301 1.264 . S
C312 O302 1.243 . S
C313 C316 1.399 . S
C313 C318 1.383 . S
C313 C320 1.496 . S
C314 C315 1.399 . S
C314 C318 1.389 . S
C315 C314 1.399 . S
C315 C317 1.380 . S
C315 H332 0.929 . S
C316 C313 1.399 . S
C316 C317 1.392 . S
C316 H333 0.929 . S
C317 C315 1.380 . S
C317 C316 1.392 . S
C317 H334 0.929 . S
C318 C313 1.383 . S
C318 C314 1.389 . S
C318 H335 0.931 . S
C319 O304 1.266 1_655 S
C319 O305 1.248 . S
C320 Tb256 2.802 . S
C320 O300 1.264 . S
C320 O303 1.256 . S
C320 C313 1.496 . S
C321 C288 1.448 . S
C321 H298 0.930 . S
C321 C322 1.328 . S
C322 C293 1.427 . S
C322 H299 0.929 . S
C322 C321 1.328 . S
C323 O307 1.264 . S
C323 O308 1.243 1_655 S
C324 C327 1.399 . S
C324 C328 1.383 . S
C324 C331 1.496 . S
C325 C326 1.399 . S
C325 C328 1.389 . S
C326 C325 1.399 . S
C326 C329 1.380 . S
C326 H336 0.929 . S
C327 C324 1.399 . S
C327 C329 1.392 . S
C327 H337 0.929 . S
C328 C324 1.383 . S
C328 C325 1.389 . S
C328 H338 0.931 . S
C329 C326 1.380 . S
C329 C327 1.392 . S
C329 H339 0.929 . S
C330 O310 1.266 . S
C330 O311 1.248 . S
C331 Tb267 2.802 . S
C331 O306 1.264 . S
C331 O309 1.256 . S
C331 C324 1.496 . S
H332 C315 0.929 . S
H333 C316 0.929 . S
H334 C317 0.929 . S
H335 C318 0.931 . S
H336 C326 0.929 . S
H337 C327 0.929 . S
H338 C328 0.931 . S
H339 C329 0.929 . S
Tb340 N369 2.617 . S
Tb340 N375 2.572 . S
Tb340 O384 2.465 . S
Tb340 O385 2.387 . S
Tb340 O387 2.428 . S
Tb340 O388 2.308 . S
Tb340 O392 2.349 . S
Tb340 O395 2.393 . S
Tb340 C404 2.802 . S
C341 N342 1.379 . S
C341 C344 1.416 . S
C341 C348 1.424 . S
N342 C341 1.379 . S
N342 C345 1.334 . S
N342 Tb351 2.617 . S
C343 C345 1.390 . S
C343 C346 1.339 . S
C343 H363 0.930 . S
C344 C341 1.416 . S
C344 C346 1.416 . S
C344 C350 1.448 . S
C345 N342 1.334 . S
C345 C343 1.390 . S
C345 H356 0.930 . S
C346 C343 1.339 . S
C346 C344 1.416 . S
C346 H367 0.930 . S
C347 C348 1.413 . S
C347 C349 1.427 . S
C347 C353 1.416 . S
C348 C341 1.424 . S
C348 C347 1.413 . S
C348 N352 1.361 . S
C349 C347 1.427 . S
C349 C350 1.328 . S
C349 H364 0.929 . S
C350 C344 1.448 . S
C350 C349 1.328 . S
C350 H365 0.930 . S
Tb351 N342 2.617 . S
Tb351 N352 2.572 . S
Tb351 O386 2.349 . S
Tb351 O389 2.393 . S
Tb351 O390 2.465 . S
Tb351 O391 2.387 . S
Tb351 O393 2.428 . S
Tb351 O394 2.308 . S
Tb351 C415 2.802 . S
N352 C348 1.361 . S
N352 Tb351 2.572 . S
N352 C354 1.340 . S
C353 C347 1.416 . S
C353 C355 1.332 . S
C353 H361 0.931 . S
C354 N352 1.340 . S
C354 C355 1.407 . S
C354 H360 0.930 . S
C355 C353 1.332 . S
C355 C354 1.407 . S
C355 H357 0.929 . S
H356 C345 0.930 . S
H357 C355 0.929 . S
H358 C373 0.930 . S
H359 C380 0.929 . S
H360 C354 0.930 . S
H361 C353 0.931 . S
H362 C376 0.930 . S
H363 C343 0.930 . S
H364 C349 0.929 . S
H365 C350 0.930 . S
H366 C371 0.930 . S
H367 C346 0.930 . S
H368 C379 0.931 . S
N369 Tb340 2.617 . S
N369 C370 1.379 . S
N369 C373 1.334 . S
C370 N369 1.379 . S
C370 C372 1.416 . S
C370 C378 1.424 . S
C371 H366 0.930 . S
C371 C373 1.390 . S
C371 C374 1.339 . S
C372 C370 1.416 . S
C372 C374 1.416 . S
C372 C405 1.448 . S
C373 H358 0.930 . S
C373 N369 1.334 . S
C373 C371 1.390 . S
C374 C371 1.339 . S
C374 C372 1.416 . S
C374 H381 0.930 . S
N375 Tb340 2.572 . S
N375 C376 1.340 . S
N375 C378 1.361 . S
C376 H362 0.930 . S
C376 N375 1.340 . S
C376 C380 1.407 . S
C377 C378 1.413 . S
C377 C379 1.416 . S
C377 C406 1.427 . S
C378 C370 1.424 . S
C378 N375 1.361 . S
C378 C377 1.413 . S
C379 H368 0.931 . S
C379 C377 1.416 . S
C379 C380 1.332 . S
C380 H359 0.929 . S
C380 C376 1.407 . S
C380 C379 1.332 . S
H381 C374 0.930 . S
H382 C405 0.930 . S
H383 C406 0.929 . S
O384 Tb340 2.465 . S
O384 C404 1.264 . S
O385 Tb340 2.387 . S
O385 C396 1.264 . S
O386 Tb351 2.349 . S
O386 C396 1.243 . S
O387 Tb340 2.428 . S
O387 C404 1.256 . S
O388 Tb340 2.308 . S
O388 C403 1.266 . S
O389 Tb351 2.393 . S
O389 C403 1.248 . S
O390 Tb351 2.465 . S
O390 C415 1.264 . S
O391 Tb351 2.387 . S
O391 C407 1.264 . S
O392 Tb340 2.349 . S
O392 C407 1.243 . S
O393 Tb351 2.428 . S
O393 C415 1.256 . S
O394 Tb351 2.308 . S
O394 C414 1.266 . S
O395 Tb340 2.393 . S
O395 C414 1.248 . S
C396 O385 1.264 . S
C396 O386 1.243 . S
C397 C400 1.399 . S
C397 C402 1.383 . S
C397 C404 1.496 . S
C398 C399 1.399 . S
C398 C402 1.389 . S
C399 C398 1.399 . S
C399 C401 1.380 . S
C399 H416 0.929 . S
C400 C397 1.399 . S
C400 C401 1.392 . S
C400 H417 0.929 . S
C401 C399 1.380 . S
C401 C400 1.392 . S
C401 H418 0.929 . S
C402 C397 1.383 . S
C402 C398 1.389 . S
C402 H419 0.931 . S
C403 O388 1.266 . S
C403 O389 1.248 . S
C404 Tb340 2.802 . S
C404 O384 1.264 . S
C404 O387 1.256 . S
C404 C397 1.496 . S
C405 C372 1.448 . S
C405 H382 0.930 . S
C405 C406 1.328 . S
C406 C377 1.427 . S
C406 H383 0.929 . S
C406 C405 1.328 . S
C407 O391 1.264 . S
C407 O392 1.243 . S
C408 C411 1.399 . S
C408 C412 1.383 . S
C408 C415 1.496 . S
C409 C410 1.399 . S
C409 C412 1.389 . S
C410 C409 1.399 . S
C410 C413 1.380 . S
C410 H420 0.929 . S
C411 C408 1.399 . S
C411 C413 1.392 . S
C411 H421 0.929 . S
C412 C408 1.383 . S
C412 C409 1.389 . S
C412 H422 0.931 . S
C413 C410 1.380 . S
C413 C411 1.392 . S
C413 H423 0.929 . S
C414 O394 1.266 . S
C414 O395 1.248 . S
C415 Tb351 2.802 . S
C415 O390 1.264 . S
C415 O393 1.256 . S
C415 C408 1.496 . S
H416 C399 0.929 . S
H417 C400 0.929 . S
H418 C401 0.929 . S
H419 C402 0.931 . S
H420 C410 0.929 . S
H421 C411 0.929 . S
H422 C412 0.931 . S
H423 C413 0.929 . S
Tb424 N453 2.617 . S
Tb424 N459 2.572 . S
Tb424 O468 2.465 . S
Tb424 O469 2.387 . S
Tb424 O471 2.428 . S
Tb424 O472 2.311 . S
Tb424 O476 2.349 1_455 S
Tb424 O479 2.393 . S
Tb424 C488 2.802 . S
C425 N426 1.379 . S
C425 C428 1.416 . S
C425 C432 1.424 . S
N426 C425 1.379 . S
N426 C429 1.334 . S
N426 Tb435 2.617 . S
C427 C429 1.390 . S
C427 C430 1.339 . S
C427 H447 0.930 . S
C428 C425 1.416 . S
C428 C430 1.416 . S
C428 C434 1.448 . S
C429 N426 1.334 . S
C429 C427 1.390 . S
C429 H440 0.930 . S
C430 C427 1.339 . S
C430 C428 1.416 . S
C430 H451 0.930 . S
C431 C432 1.413 . S
C431 C433 1.427 . S
C431 C437 1.416 . S
C432 C425 1.424 . S
C432 C431 1.413 . S
C432 N436 1.361 . S
C433 C431 1.427 . S
C433 C434 1.328 . S
C433 H448 0.929 . S
C434 C428 1.448 . S
C434 C433 1.328 . S
C434 H449 0.930 . S
Tb435 N426 2.617 . S
Tb435 N436 2.572 . S
Tb435 O470 2.349 1_655 S
Tb435 O473 2.393 . S
Tb435 O474 2.465 . S
Tb435 O475 2.387 . S
Tb435 O477 2.428 . S
Tb435 O478 2.308 1_655 S
Tb435 C499 2.802 . S
N436 C432 1.361 . S
N436 Tb435 2.572 . S
N436 C438 1.340 . S
C437 C431 1.416 . S
C437 C439 1.332 . S
C437 H445 0.931 . S
C438 N436 1.340 . S
C438 C439 1.407 . S
C438 H444 0.930 . S
C439 C437 1.332 . S
C439 C438 1.407 . S
C439 H441 0.929 . S
H440 C429 0.930 . S
H441 C439 0.929 . S
H442 C457 0.930 . S
H443 C464 0.929 1_545 S
H444 C438 0.930 . S
H445 C437 0.931 . S
H446 C460 0.930 . S
H447 C427 0.930 . S
H448 C433 0.929 . S
H449 C434 0.930 . S
H450 C455 0.930 . S
H451 C430 0.930 . S
H452 C463 0.931 1_545 S
N453 Tb424 2.617 . S
N453 C454 1.379 . S
N453 C457 1.334 . S
C454 N453 1.379 . S
C454 C456 1.416 . S
C454 C462 1.424 . S
C455 H450 0.930 . S
C455 C457 1.390 . S
C455 C458 1.339 . S
C456 C454 1.416 . S
C456 C458 1.416 . S
C456 C489 1.448 . S
C457 H442 0.930 . S
C457 N453 1.334 . S
C457 C455 1.390 . S
C458 C455 1.339 . S
C458 C456 1.416 . S
C458 H465 0.930 . S
N459 Tb424 2.572 . S
N459 C460 1.340 . S
N459 C462 1.361 . S
C460 H446 0.930 . S
C460 N459 1.340 . S
C460 C464 1.407 . S
C461 C462 1.413 . S
C461 C463 1.416 . S
C461 C490 1.427 . S
C462 C454 1.424 . S
C462 N459 1.361 . S
C462 C461 1.413 . S
C463 H452 0.931 1_565 S
C463 C461 1.416 . S
C463 C464 1.332 . S
C464 H443 0.929 1_565 S
C464 C460 1.407 . S
C464 C463 1.332 . S
H465 C458 0.930 . S
H466 C489 0.930 . S
H467 C490 0.929 . S
O468 Tb424 2.465 . S
O468 C488 1.264 . S
O469 Tb424 2.387 . S
O469 C480 1.264 . S
O470 Tb435 2.349 1_455 S
O470 C480 1.243 . S
O471 Tb424 2.428 . S
O471 C488 1.256 . S
O472 Tb424 2.311 . S
O472 C487 1.262 1_455 S
O473 Tb435 2.393 . S
O473 C487 1.248 . S
O474 Tb435 2.465 . S
O474 C499 1.264 . S
O475 Tb435 2.387 . S
O475 C491 1.264 . S
O476 Tb424 2.349 1_655 S
O476 C491 1.243 . S
O477 Tb435 2.428 . S
O477 C499 1.256 . S
O478 Tb435 2.308 1_455 S
O478 C498 1.266 . S
O479 Tb424 2.393 . S
O479 C498 1.248 . S
C480 O469 1.264 . S
C480 O470 1.243 . S
C481 C484 1.399 . S
C481 C486 1.383 . S
C481 C488 1.496 . S
C482 C483 1.399 . S
C482 C486 1.389 . S
C483 C482 1.399 . S
C483 C485 1.380 . S
C483 H500 0.929 . S
C484 C481 1.399 . S
C484 C485 1.392 . S
C484 H501 0.929 . S
C485 C483 1.380 . S
C485 C484 1.392 . S
C485 H502 0.929 . S
C486 C481 1.383 . S
C486 C482 1.389 . S
C486 H503 0.931 . S
C487 O472 1.262 1_655 S
C487 O473 1.248 . S
C488 Tb424 2.802 . S
C488 O468 1.264 . S
C488 O471 1.256 . S
C488 C481 1.496 . S
C489 C456 1.448 . S
C489 H466 0.930 . S
C489 C490 1.328 . S
C490 C461 1.427 . S
C490 H467 0.929 . S
C490 C489 1.328 . S
C491 O475 1.264 . S
C491 O476 1.243 . S
C492 C495 1.399 . S
C492 C496 1.383 . S
C492 C499 1.496 . S
C493 C494 1.399 . S
C493 C496 1.389 . S
C494 C493 1.399 . S
C494 C497 1.380 . S
C494 H504 0.929 . S
C495 C492 1.399 . S
C495 C497 1.392 . S
C495 H505 0.929 . S
C496 C492 1.383 . S
C496 C493 1.389 . S
C496 H506 0.931 . S
C497 C494 1.380 . S
C497 C495 1.392 . S
C497 H507 0.929 . S
C498 O478 1.266 . S
C498 O479 1.248 . S
C499 Tb435 2.802 . S
C499 O474 1.264 . S
C499 O477 1.256 . S
C499 C492 1.496 . S
H500 C483 0.929 . S
H501 C484 0.929 . S
H502 C485 0.929 . S
H503 C486 0.931 . S
H504 C494 0.929 . S
H505 C495 0.929 . S
H506 C496 0.931 . S
H507 C497 0.929 . S
Tb508 N537 2.617 . S
Tb508 N543 2.572 . S
Tb508 O552 2.465 . S
Tb508 O553 2.387 . S
Tb508 O555 2.428 . S
Tb508 O556 2.308 . S
Tb508 O560 2.349 . S
Tb508 O563 2.393 . S
Tb508 C572 2.802 . S
C509 N510 1.379 . S
C509 C512 1.416 . S
C509 C516 1.424 . S
N510 C509 1.379 . S
N510 C513 1.334 . S
N510 Tb519 2.617 . S
C511 C513 1.390 . S
C511 C514 1.339 . S
C511 H531 0.930 . S
C512 C509 1.416 . S
C512 C514 1.416 . S
C512 C518 1.448 . S
C513 N510 1.334 . S
C513 C511 1.390 . S
C513 H524 0.930 . S
C514 C511 1.339 . S
C514 C512 1.416 . S
C514 H535 0.930 . S
C515 C516 1.413 . S
C515 C517 1.427 . S
C515 C521 1.416 . S
C516 C509 1.424 . S
C516 C515 1.413 . S
C516 N520 1.361 . S
C517 C515 1.427 . S
C517 C518 1.328 . S
C517 H532 0.929 . S
C518 C512 1.448 . S
C518 C517 1.328 . S
C518 H533 0.930 . S
Tb519 N510 2.617 . S
Tb519 N520 2.572 . S
Tb519 O554 2.349 . S
Tb519 O557 2.393 . S
Tb519 O558 2.465 . S
Tb519 O559 2.387 . S
Tb519 O561 2.428 . S
Tb519 O562 2.308 . S
Tb519 C583 2.802 . S
N520 C516 1.361 . S
N520 Tb519 2.572 . S
N520 C522 1.340 . S
C521 C515 1.416 . S
C521 C523 1.332 . S
C521 H529 0.931 . S
C522 N520 1.340 . S
C522 C523 1.407 . S
C522 H528 0.930 . S
C523 C521 1.332 . S
C523 C522 1.407 . S
C523 H525 0.929 . S
H524 C513 0.930 . S
H525 C523 0.929 . S
H526 C541 0.930 . S
H527 C548 0.929 . S
H528 C522 0.930 . S
H529 C521 0.931 . S
H530 C544 0.930 . S
H531 C511 0.930 . S
H532 C517 0.929 . S
H533 C518 0.930 . S
H534 C539 0.930 . S
H535 C514 0.930 . S
H536 C547 0.931 . S
N537 Tb508 2.617 . S
N537 C538 1.379 . S
N537 C541 1.334 . S
C538 N537 1.379 . S
C538 C540 1.416 . S
C538 C546 1.424 . S
C539 H534 0.930 . S
C539 C541 1.390 . S
C539 C542 1.339 . S
C540 C538 1.416 . S
C540 C542 1.416 . S
C540 C573 1.448 . S
C541 H526 0.930 . S
C541 N537 1.334 . S
C541 C539 1.390 . S
C542 C539 1.339 . S
C542 C540 1.416 . S
C542 H549 0.930 . S
N543 Tb508 2.572 . S
N543 C544 1.340 . S
N543 C546 1.361 . S
C544 H530 0.930 . S
C544 N543 1.340 . S
C544 C548 1.407 . S
C545 C546 1.413 . S
C545 C547 1.416 . S
C545 C574 1.427 . S
C546 C538 1.424 . S
C546 N543 1.361 . S
C546 C545 1.413 . S
C547 H536 0.931 . S
C547 C545 1.416 . S
C547 C548 1.332 . S
C548 H527 0.929 . S
C548 C544 1.407 . S
C548 C547 1.332 . S
H549 C542 0.930 . S
H550 C573 0.930 . S
H551 C574 0.929 . S
O552 Tb508 2.465 . S
O552 C572 1.264 . S
O553 Tb508 2.387 . S
O553 C564 1.264 . S
O554 Tb519 2.349 . S
O554 C564 1.243 . S
O555 Tb508 2.428 . S
O555 C572 1.256 . S
O556 Tb508 2.308 . S
O556 C571 1.266 . S
O557 Tb519 2.393 . S
O557 C571 1.248 . S
O558 Tb519 2.465 . S
O558 C583 1.264 . S
O559 Tb519 2.387 . S
O559 C575 1.264 . S
O560 Tb508 2.349 . S
O560 C575 1.243 . S
O561 Tb519 2.428 . S
O561 C583 1.256 . S
O562 Tb519 2.308 . S
O562 C582 1.266 . S
O563 Tb508 2.393 . S
O563 C582 1.248 . S
C564 O553 1.264 . S
C564 O554 1.243 . S
C565 C568 1.399 . S
C565 C570 1.383 . S
C565 C572 1.496 . S
C566 C567 1.399 . S
C566 C570 1.389 . S
C567 C566 1.399 . S
C567 C569 1.380 . S
C567 H584 0.929 . S
C568 C565 1.399 . S
C568 C569 1.392 . S
C568 H585 0.929 . S
C569 C567 1.380 . S
C569 C568 1.392 . S
C569 H586 0.929 . S
C570 C565 1.383 . S
C570 C566 1.389 . S
C570 H587 0.931 . S
C571 O556 1.266 . S
C571 O557 1.248 . S
C572 Tb508 2.802 . S
C572 O552 1.264 . S
C572 O555 1.256 . S
C572 C565 1.496 . S
C573 C540 1.448 . S
C573 H550 0.930 . S
C573 C574 1.328 . S
C574 C545 1.427 . S
C574 H551 0.929 . S
C574 C573 1.328 . S
C575 O559 1.264 . S
C575 O560 1.243 . S
C576 C579 1.399 . S
C576 C580 1.383 . S
C576 C583 1.496 . S
C577 C578 1.399 . S
C577 C580 1.389 . S
C578 C577 1.399 . S
C578 C581 1.380 . S
C578 H588 0.929 . S
C579 C576 1.399 . S
C579 C581 1.392 . S
C579 H589 0.929 . S
C580 C576 1.383 . S
C580 C577 1.389 . S
C580 H590 0.931 . S
C581 C578 1.380 . S
C581 C579 1.392 . S
C581 H591 0.929 . S
C582 O562 1.266 . S
C582 O563 1.248 . S
C583 Tb519 2.802 . S
C583 O558 1.264 . S
C583 O561 1.256 . S
C583 C576 1.496 . S
H584 C567 0.929 . S
H585 C568 0.929 . S
H586 C569 0.929 . S
H587 C570 0.931 . S
H588 C578 0.929 . S
H589 C579 0.929 . S
H590 C580 0.931 . S
H591 C581 0.929 . S
C592 C593 1.367 . S
C592 C598 1.379 . S
C592 N600 1.356 . S
C593 C592 1.367 . S
C593 C599 1.365 . S
C594 C595 1.363 . S
C594 C599 1.379 . S
C594 N601 1.356 1_455 S
C595 C594 1.363 . S
C595 C598 1.363 . S
N596 C598 1.356 . S
N596 H608 0.984 . S
N596 H609 0.985 . S
N597 C599 1.356 1_565 S
N597 H602 0.984 . S
N597 H603 0.985 . S
C598 C592 1.379 . S
C598 C595 1.363 . S
C598 N596 1.356 . S
C599 C593 1.365 . S
C599 C594 1.379 . S
C599 N597 1.356 1_545 S
N600 C592 1.356 . S
N600 H606 0.984 . S
N600 H607 0.984 1_545 S
N601 C594 1.356 1_655 S
N601 H604 0.984 . S
N601 H605 0.985 . S
H602 N597 0.984 . S
H603 N597 0.985 . S
H604 N601 0.984 . S
H605 N601 0.985 . S
H606 N600 0.984 . S
H607 N600 0.984 1_565 S
H608 N596 0.984 . S
H609 N596 0.985 . S
C610 C611 1.363 . S
C610 C616 1.379 . S
C610 N618 1.356 . S
C611 C610 1.363 . S
C611 C617 1.363 . S
C612 C613 1.363 . S
C612 C617 1.379 . S
C612 N619 1.356 . S
C613 C612 1.363 . S
C613 C616 1.363 . S
N614 C616 1.356 . S
N614 H626 0.984 . S
N614 H627 0.985 . S
N615 C617 1.356 . S
N615 H620 0.984 . S
N615 H621 0.985 . S
C616 C610 1.379 . S
C616 C613 1.363 . S
C616 N614 1.356 . S
C617 C611 1.363 . S
C617 C612 1.379 . S
C617 N615 1.356 . S
N618 C610 1.356 . S
N618 H624 0.984 . S
N618 H625 0.984 . S
N619 C612 1.356 . S
N619 H622 0.984 . S
N619 H623 0.985 . S
H620 N615 0.984 . S
H621 N615 0.985 . S
H622 N619 0.984 . S
H623 N619 0.985 . S
H624 N618 0.984 . S
H625 N618 0.984 . S
H626 N614 0.984 . S
H627 N614 0.985 . S
C628 C629 1.363 . S
C628 C634 1.379 . S
C628 N636 1.356 . S
C629 C628 1.363 . S
C629 C635 1.363 . S
C630 C631 1.363 . S
C630 C635 1.379 . S
C630 N637 1.356 . S
C631 C630 1.363 . S
C631 C634 1.363 . S
N632 C634 1.356 . S
N632 H644 0.984 . S
N632 H645 0.985 . S
N633 C635 1.356 . S
N633 H638 0.984 . S
N633 H639 0.985 . S
C634 C628 1.379 . S
C634 C631 1.363 . S
C634 N632 1.356 . S
C635 C629 1.363 . S
C635 C630 1.379 . S
C635 N633 1.356 . S
N636 C628 1.356 . S
N636 H642 0.984 . S
N636 H643 0.984 . S
N637 C630 1.356 . S
N637 H640 0.984 . S
N637 H641 0.985 . S
H638 N633 0.984 . S
H639 N633 0.985 . S
H640 N637 0.984 . S
H641 N637 0.985 . S
H642 N636 0.984 . S
H643 N636 0.984 . S
H644 N632 0.984 . S
H645 N632 0.985 . S
C646 C647 1.363 1_565 S
C646 C652 1.379 1_565 S
C646 N654 1.356 . S
C647 C646 1.363 1_545 S
C647 C653 1.363 . S
C648 C649 1.363 . S
C648 C653 1.379 . S
C648 N655 1.356 . S
C649 C648 1.363 . S
C649 C652 1.363 . S
N650 C652 1.356 . S
N650 H662 0.984 1_655 S
N650 H663 0.985 1_655 S
N651 C653 1.356 . S
N651 H656 0.984 . S
N651 H657 0.985 . S
C652 C646 1.379 1_545 S
C652 C649 1.363 . S
C652 N650 1.356 . S
C653 C647 1.363 . S
C653 C648 1.379 . S
C653 N651 1.356 . S
N654 C646 1.356 . S
N654 H660 0.984 . S
N654 H661 0.984 . S
N655 C648 1.356 . S
N655 H658 0.984 . S
N655 H659 0.985 . S
H656 N651 0.984 . S
H657 N651 0.985 . S
H658 N655 0.984 . S
H659 N655 0.985 . S
H660 N654 0.984 . S
H661 N654 0.984 . S
H662 N650 0.984 1_455 S
H663 N650 0.985 1_455 S
C664 C665 1.362 1_545 S
C664 C670 1.379 1_545 S
C664 N672 1.356 . S
C665 C664 1.362 1_565 S
C665 C671 1.370 . S
C666 C667 1.363 . S
C666 C671 1.379 . S
C666 N673 1.356 . S
C667 C666 1.363 . S
C667 C670 1.363 . S
N668 C670 1.356 . S
N668 H680 0.984 1_655 S
N668 H681 0.985 1_655 S
N669 C671 1.356 . S
N669 H674 0.984 . S
N669 H675 0.985 . S
C670 C664 1.379 1_565 S
C670 C667 1.363 . S
C670 N668 1.356 . S
C671 C665 1.370 . S
C671 C666 1.379 . S
C671 N669 1.356 . S
N672 C664 1.356 . S
N672 H678 0.984 . S
N672 H679 0.984 . S
N673 C666 1.356 . S
N673 H676 0.984 . S
N673 H677 0.985 . S
H674 N669 0.984 . S
H675 N669 0.985 . S
H676 N673 0.984 . S
H677 N673 0.985 . S
H678 N672 0.984 . S
H679 N672 0.984 . S
H680 N668 0.984 1_455 S
H681 N668 0.985 1_455 S
C682 C683 1.363 . S
C682 C688 1.379 . S
C682 N690 1.356 . S
C683 C682 1.363 . S
C683 C689 1.363 . S
C684 C685 1.363 . S
C684 C689 1.379 . S
C684 N691 1.356 . S
C685 C684 1.363 . S
C685 C688 1.363 . S
N686 C688 1.356 . S
N686 H698 0.984 . S
N686 H699 0.985 . S
N687 C689 1.356 . S
N687 H692 0.984 . S
N687 H693 0.985 . S
C688 C682 1.379 . S
C688 C685 1.363 . S
C688 N686 1.356 . S
C689 C683 1.363 . S
C689 C684 1.379 . S
C689 N687 1.356 . S
N690 C682 1.356 . S
N690 H696 0.984 . S
N690 H697 0.984 . S
N691 C684 1.356 . S
N691 H694 0.984 . S
N691 H695 0.985 . S
H692 N687 0.984 . S
H693 N687 0.985 . S
H694 N691 0.984 . S
H695 N691 0.985 . S
H696 N690 0.984 . S
H697 N690 0.984 . S
H698 N686 0.984 . S
H699 N686 0.985 . S
C700 C701 1.363 . S
C700 C706 1.379 . S
C700 N708 1.356 . S
C701 C700 1.363 . S
C701 C707 1.363 . S
C702 C703 1.363 . S
C702 C707 1.379 . S
C702 N709 1.356 . S
C703 C702 1.363 . S
C703 C706 1.363 . S
N704 C706 1.356 . S
N704 H716 0.984 . S
N704 H717 0.985 . S
N705 C707 1.356 . S
N705 H710 0.984 . S
N705 H711 0.985 . S
C706 C700 1.379 . S
C706 C703 1.363 . S
C706 N704 1.356 . S
C707 C701 1.363 . S
C707 C702 1.379 . S
C707 N705 1.356 . S
N708 C700 1.356 . S
N708 H714 0.984 . S
N708 H715 0.984 . S
N709 C702 1.356 . S
N709 H712 0.984 . S
N709 H713 0.985 . S
H710 N705 0.984 . S
H711 N705 0.985 . S
H712 N709 0.984 . S
H713 N709 0.985 . S
H714 N708 0.984 . S
H715 N708 0.984 . S
H716 N704 0.984 . S
H717 N704 0.985 . S
C718 C719 1.363 1_545 S
C718 C724 1.379 1_545 S
C718 N726 1.356 . S
C719 C718 1.363 1_565 S
C719 C725 1.363 . S
C720 C721 1.363 . S
C720 C725 1.379 . S
C720 N727 1.356 . S
C721 C720 1.363 . S
C721 C724 1.363 . S
N722 C724 1.356 . S
N722 H734 0.984 1_565 S
N722 H735 0.985 . S
N723 C725 1.356 . S
N723 H728 0.984 . S
N723 H729 0.985 . S
C724 C718 1.379 1_565 S
C724 C721 1.363 . S
C724 N722 1.356 . S
C725 C719 1.363 . S
C725 C720 1.379 . S
C725 N723 1.356 . S
N726 C718 1.356 . S
N726 H732 0.984 . S
N726 H733 0.984 . S
N727 C720 1.356 . S
N727 H730 0.984 . S
N727 H731 0.985 . S
H728 N723 0.984 . S
H729 N723 0.985 . S
H730 N727 0.984 . S
H731 N727 0.985 . S
H732 N726 0.984 . S
H733 N726 0.984 . S
H734 N722 0.984 1_545 S
H735 N722 0.985 . S
C736 C737 1.363 . S
C736 C742 1.379 . S
C736 N744 1.357 1_554 S
C737 C736 1.363 . S
C737 C743 1.363 . S
C738 C739 1.363 . S
C738 C743 1.379 . S
C738 N745 1.356 . S
C739 C738 1.363 . S
C739 C742 1.363 . S
N740 C742 1.356 . S
N740 H752 0.984 . S
N740 H753 0.985 . S
N741 C743 1.356 . S
N741 H746 0.984 1_554 S
N741 H747 0.985 . S
C742 C736 1.379 . S
C742 C739 1.363 . S
C742 N740 1.356 . S
C743 C737 1.363 . S
C743 C738 1.379 . S
C743 N741 1.356 . S
N744 C736 1.357 1_556 S
N744 H750 0.985 1_556 S
N744 H751 0.983 . S
N745 C738 1.356 . S
N745 H748 0.984 . S
N745 H749 0.985 . S
H746 N741 0.984 1_556 S
H747 N741 0.985 . S
H748 N745 0.984 . S
H749 N745 0.985 . S
H750 N744 0.985 1_554 S
H751 N744 0.983 . S
H752 N740 0.984 . S
H753 N740 0.985 . S
C754 C755 1.363 . S
C754 C760 1.379 . S
C754 N762 1.356 . S
C755 C754 1.363 . S
C755 C761 1.363 . S
C756 C757 1.363 . S
C756 C761 1.379 . S
C756 N763 1.356 . S
C757 C756 1.363 . S
C757 C760 1.363 . S
N758 C760 1.356 . S
N758 H770 0.984 . S
N758 H771 0.985 . S
N759 C761 1.356 . S
N759 H764 0.984 . S
N759 H765 0.985 . S
C760 C754 1.379 . S
C760 C757 1.363 . S
C760 N758 1.356 . S
C761 C755 1.363 . S
C761 C756 1.379 . S
C761 N759 1.356 . S
N762 C754 1.356 . S
N762 H768 0.984 . S
N762 H769 0.984 . S
N763 C756 1.356 . S
N763 H766 0.984 . S
N763 H767 0.985 . S
H764 N759 0.984 . S
H765 N759 0.985 . S
H766 N763 0.984 . S
H767 N763 0.985 . S
H768 N762 0.984 . S
H769 N762 0.984 . S
H770 N758 0.984 . S
H771 N758 0.985 . S
C772 C773 1.363 . S
C772 C778 1.379 . S
C772 N780 1.356 . S
C773 C772 1.363 . S
C773 C779 1.363 . S
C774 C775 1.363 . S
C774 C779 1.379 . S
C774 N781 1.356 . S
C775 C774 1.363 . S
C775 C778 1.363 . S
N776 C778 1.356 . S
N776 H788 0.984 . S
N776 H789 0.985 . S
N777 C779 1.356 1_554 S
N777 H782 0.984 . S
N777 H783 0.981 1_554 S
C778 C772 1.379 . S
C778 C775 1.363 . S
C778 N776 1.356 . S
C779 C773 1.363 . S
C779 C774 1.379 . S
C779 N777 1.356 1_556 S
N780 C772 1.356 . S
N780 H786 0.984 . S
N780 H787 0.984 1_556 S
N781 C774 1.356 . S
N781 H784 0.984 . S
N781 H785 0.985 . S
H782 N777 0.984 . S
H783 N777 0.981 1_556 S
H784 N781 0.984 . S
H785 N781 0.985 . S
H786 N780 0.984 . S
H787 N780 0.984 1_554 S
H788 N776 0.984 . S
H789 N776 0.985 . S
C790 C791 1.363 . S
C790 C796 1.379 . S
C790 N798 1.356 . S
C791 C790 1.363 . S
C791 C797 1.363 . S
C792 C793 1.363 . S
C792 C797 1.379 . S
C792 N799 1.356 . S
C793 C792 1.363 . S
C793 C796 1.363 . S
N794 C796 1.356 . S
N794 H806 0.984 . S
N794 H807 0.985 . S
N795 C797 1.356 . S
N795 H800 0.984 . S
N795 H801 0.985 . S
C796 C790 1.379 . S
C796 C793 1.363 . S
C796 N794 1.356 . S
C797 C791 1.363 . S
C797 C792 1.379 . S
C797 N795 1.356 . S
N798 C790 1.356 . S
N798 H804 0.984 . S
N798 H805 0.984 . S
N799 C792 1.356 . S
N799 H802 0.984 . S
N799 H803 0.985 . S
H800 N795 0.984 . S
H801 N795 0.985 . S
H802 N799 0.984 . S
H803 N799 0.985 . S
H804 N798 0.984 . S
H805 N798 0.984 . S
H806 N794 0.984 . S
H807 N794 0.985 . S
C808 C809 1.363 . S
C808 C814 1.379 . S
C808 N816 1.356 . S
C809 C808 1.363 . S
C809 C815 1.363 . S
C810 C811 1.363 . S
C810 C815 1.379 . S
C810 N817 1.356 . S
C811 C810 1.363 . S
C811 C814 1.363 . S
N812 C814 1.356 . S
N812 H824 0.984 . S
N812 H825 0.985 . S
N813 C815 1.356 1_554 S
N813 H818 0.984 . S
N813 H819 0.985 . S
C814 C808 1.379 . S
C814 C811 1.363 . S
C814 N812 1.356 . S
C815 C809 1.363 . S
C815 C810 1.379 . S
C815 N813 1.356 1_556 S
N816 C808 1.356 . S
N816 H822 0.984 . S
N816 H823 1.003 . S
N817 C810 1.356 . S
N817 H820 0.984 . S
N817 H821 0.985 . S
H818 N813 0.984 . S
H819 N813 0.985 . S
H820 N817 0.984 . S
H821 N817 0.985 . S
H822 N816 0.984 . S
H823 N816 1.003 . S
H824 N812 0.984 . S
H825 N812 0.985 . S
C826 C827 1.363 . S
C826 C832 1.379 . S
C826 N834 1.356 . S
C827 C826 1.363 . S
C827 C833 1.363 . S
C828 C829 1.363 . S
C828 C833 1.379 . S
C828 N835 1.356 . S
C829 C828 1.363 . S
C829 C832 1.363 . S
N830 C832 1.356 . S
N830 H842 0.984 . S
N830 H843 0.985 . S
N831 C833 1.356 . S
N831 H836 0.984 . S
N831 H837 0.985 . S
C832 C826 1.379 . S
C832 C829 1.363 . S
C832 N830 1.356 . S
C833 C827 1.363 . S
C833 C828 1.379 . S
C833 N831 1.356 . S
N834 C826 1.356 . S
N834 H840 0.984 . S
N834 H841 0.984 . S
N835 C828 1.356 . S
N835 H838 0.984 . S
N835 H839 0.985 . S
H836 N831 0.984 . S
H837 N831 0.985 . S
H838 N835 0.984 . S
H839 N835 0.985 . S
H840 N834 0.984 . S
H841 N834 0.984 . S
H842 N830 0.984 . S
H843 N830 0.985 . S
C844 C845 1.363 . S
C844 C850 1.379 . S
C844 N852 1.356 1_554 S
C845 C844 1.363 . S
C845 C851 1.363 . S
C846 C847 1.363 . S
C846 C851 1.379 . S
C846 N853 1.356 . S
C847 C846 1.363 . S
C847 C850 1.363 . S
N848 C850 1.356 . S
N848 H860 0.984 . S
N848 H861 0.985 . S
N849 C851 1.356 . S
N849 H854 0.984 1_554 S
N849 H855 0.985 . S
C850 C844 1.379 . S
C850 C847 1.363 . S
C850 N848 1.356 . S
C851 C845 1.363 . S
C851 C846 1.379 . S
C851 N849 1.356 . S
N852 C844 1.356 1_556 S
N852 H858 0.984 . S
N852 H859 0.984 . S
N853 C846 1.356 . S
N853 H856 0.984 . S
N853 H857 0.985 . S
H854 N849 0.984 1_556 S
H855 N849 0.985 . S
H856 N853 0.984 . S
H857 N853 0.985 . S
H858 N852 0.984 . S
H859 N852 0.984 . S
H860 N848 0.984 . S
H861 N848 0.985 . S
C862 C863 1.363 . S
C862 C868 1.379 . S
C862 N870 1.356 . S
C863 C862 1.363 . S
C863 C869 1.363 . S
C864 C865 1.363 . S
C864 C869 1.379 . S
C864 N871 1.356 . S
C865 C864 1.363 . S
C865 C868 1.363 . S
N866 C868 1.356 . S
N866 H878 0.984 . S
N866 H879 0.985 . S
N867 C869 1.356 . S
N867 H872 0.984 . S
N867 H873 0.985 . S
C868 C862 1.379 . S
C868 C865 1.363 . S
C868 N866 1.356 . S
C869 C863 1.363 . S
C869 C864 1.379 . S
C869 N867 1.356 . S
N870 C862 1.356 . S
N870 H876 0.984 . S
N870 H877 0.984 . S
N871 C864 1.356 . S
N871 H874 0.984 . S
N871 H875 0.985 . S
H872 N867 0.984 . S
H873 N867 0.985 . S
H874 N871 0.984 . S
H875 N871 0.985 . S
H876 N870 0.984 . S
H877 N870 0.984 . S
H878 N866 0.984 . S
H879 N866 0.985 . S
C880 C881 1.363 . S
C880 C886 1.379 . S
C880 N888 1.356 . S
C881 C880 1.363 . S
C881 C887 1.363 . S
C882 C883 1.363 . S
C882 C887 1.379 . S
C882 N889 1.356 . S
C883 C882 1.363 . S
C883 C886 1.363 . S
N884 C886 1.356 . S
N884 H896 0.984 1_455 S
N884 H897 0.985 . S
N885 C887 1.356 . S
N885 H890 0.984 . S
N885 H891 0.985 . S
C886 C880 1.379 . S
C886 C883 1.363 . S
C886 N884 1.356 . S
C887 C881 1.363 . S
C887 C882 1.379 . S
C887 N885 1.356 . S
N888 C880 1.356 . S
N888 H894 0.984 . S
N888 H895 0.984 . S
N889 C882 1.356 . S
N889 H892 0.984 . S
N889 H893 0.985 . S
H890 N885 0.984 . S
H891 N885 0.985 . S
H892 N889 0.984 . S
H893 N889 0.985 . S
H894 N888 0.984 . S
H895 N888 0.984 . S
H896 N884 0.984 1_655 S
H897 N884 0.985 . S
C898 C899 1.363 . S
C898 C904 1.379 . S
C898 N906 1.356 . S
C899 C898 1.363 . S
C899 C905 1.363 . S
C900 C901 1.363 . S
C900 C905 1.379 . S
C900 N907 1.356 . S
C901 C900 1.363 . S
C901 C904 1.363 . S
N902 C904 1.356 . S
N902 H914 0.984 . S
N902 H915 0.985 . S
N903 C905 1.356 . S
N903 H908 0.984 . S
N903 H909 0.985 . S
C904 C898 1.379 . S
C904 C901 1.363 . S
C904 N902 1.356 . S
C905 C899 1.363 . S
C905 C900 1.379 . S
C905 N903 1.356 . S
N906 C898 1.356 . S
N906 H912 0.984 . S
N906 H913 0.984 . S
N907 C900 1.356 . S
N907 H910 0.984 . S
N907 H911 0.985 . S
H908 N903 0.984 . S
H909 N903 0.985 . S
H910 N907 0.984 . S
H911 N907 0.985 . S
H912 N906 0.984 . S
H913 N906 0.984 . S
H914 N902 0.984 . S
H915 N902 0.985 . S
C916 C917 1.363 . S
C916 C922 1.379 . S
C916 N924 1.356 . S
C917 C916 1.363 . S
C917 C923 1.363 . S
C918 C919 1.363 . S
C918 C923 1.379 . S
C918 N925 1.356 . S
C919 C918 1.363 . S
C919 C922 1.363 . S
N920 C922 1.356 . S
N920 H932 0.984 . S
N920 H933 0.985 . S
N921 C923 1.356 . S
N921 H926 0.984 . S
N921 H927 0.985 . S
C922 C916 1.379 . S
C922 C919 1.363 . S
C922 N920 1.356 . S
C923 C917 1.363 . S
C923 C918 1.379 . S
C923 N921 1.356 . S
N924 C916 1.356 . S
N924 H930 0.984 . S
N924 H931 0.984 . S
N925 C918 1.356 . S
N925 H928 0.984 . S
N925 H929 0.985 . S
H926 N921 0.984 . S
H927 N921 0.985 . S
H928 N925 0.984 . S
H929 N925 0.985 . S
H930 N924 0.984 . S
H931 N924 0.984 . S
H932 N920 0.984 . S
H933 N920 0.985 . S
C934 C935 1.363 . S
C934 C940 1.379 . S
C934 N942 1.356 . S
C935 C934 1.363 . S
C935 C941 1.363 . S
C936 C937 1.363 . S
C936 C941 1.379 . S
C936 N943 1.356 . S
C937 C936 1.363 . S
C937 C940 1.363 . S
N938 C940 1.356 . S
N938 H950 0.984 . S
N938 H951 0.985 . S
N939 C941 1.356 . S
N939 H944 0.984 . S
N939 H945 0.985 . S
C940 C934 1.379 . S
C940 C937 1.363 . S
C940 N938 1.356 . S
C941 C935 1.363 . S
C941 C936 1.379 . S
C941 N939 1.356 . S
N942 C934 1.356 . S
N942 H948 0.984 . S
N942 H949 0.984 . S
N943 C936 1.356 . S
N943 H946 0.984 . S
N943 H947 0.985 . S
H944 N939 0.984 . S
H945 N939 0.985 . S
H946 N943 0.984 . S
H947 N943 0.985 . S
H948 N942 0.984 . S
H949 N942 0.984 . S
H950 N938 0.984 . S
H951 N938 0.985 . S
C952 C953 1.363 . S
C952 C958 1.379 . S
C952 N960 1.356 . S
C953 C952 1.363 . S
C953 C959 1.363 . S
C954 C955 1.363 . S
C954 C959 1.379 . S
C954 N961 1.356 . S
C955 C954 1.363 . S
C955 C958 1.363 . S
N956 C958 1.356 . S
N956 H968 0.984 . S
N956 H969 0.985 . S
N957 C959 1.356 . S
N957 H962 0.984 . S
N957 H963 0.985 . S
C958 C952 1.379 . S
C958 C955 1.363 . S
C958 N956 1.356 . S
C959 C953 1.363 . S
C959 C954 1.379 . S
C959 N957 1.356 . S
N960 C952 1.356 . S
N960 H966 0.984 . S
N960 H967 0.984 . S
N961 C954 1.356 . S
N961 H964 0.984 . S
N961 H965 0.985 1_655 S
H962 N957 0.984 . S
H963 N957 0.985 . S
H964 N961 0.984 . S
H965 N961 0.985 1_455 S
H966 N960 0.984 . S
H967 N960 0.984 . S
H968 N956 0.984 . S
H969 N956 0.985 . S
C970 C971 1.363 . S
C970 C976 1.379 . S
C970 N978 1.356 . S
C971 C970 1.363 . S
C971 C977 1.363 . S
C972 C973 1.363 . S
C972 C977 1.379 . S
C972 N979 1.356 . S
C973 C972 1.363 . S
C973 C976 1.363 . S
N974 C976 1.356 . S
N974 H986 0.984 . S
N974 H987 0.985 . S
N975 C977 1.356 . S
N975 H980 0.984 . S
N975 H981 0.985 . S
C976 C970 1.379 . S
C976 C973 1.363 . S
C976 N974 1.356 . S
C977 C971 1.363 . S
C977 C972 1.379 . S
C977 N975 1.356 . S
N978 C970 1.356 . S
N978 H984 0.984 . S
N978 H985 0.984 . S
N979 C972 1.356 . S
N979 H982 0.984 . S
N979 H983 0.985 . S
H980 N975 0.984 . S
H981 N975 0.985 . S
H982 N979 0.984 . S
H983 N979 0.985 . S
H984 N978 0.984 . S
H985 N978 0.984 . S
H986 N974 0.984 . S
H987 N974 0.985 . S
C988 C989 1.363 . S
C988 C994 1.379 . S
C988 N996 1.356 . S
C989 C988 1.363 . S
C989 C995 1.363 . S
C990 C991 1.363 . S
C990 C995 1.379 . S
C990 N997 1.356 . S
C991 C990 1.363 . S
C991 C994 1.363 . S
N992 C994 1.356 . S
N992 H1004 0.984 . S
N992 H1005 0.985 . S
N993 C995 1.356 . S
N993 H998 0.984 . S
N993 H999 0.985 . S
C994 C988 1.379 . S
C994 C991 1.363 . S
C994 N992 1.356 . S
C995 C989 1.363 . S
C995 C990 1.379 . S
C995 N993 1.356 . S
N996 C988 1.356 . S
N996 H1002 0.984 . S
N996 H1003 0.984 . S
N997 C990 1.356 . S
N997 H1000 0.984 . S
N997 H1001 0.985 . S
H998 N993 0.984 . S
H999 N993 0.985 . S
H1000 N997 0.984 . S
H1001 N997 0.985 . S
H1002 N996 0.984 . S
H1003 N996 0.984 . S
H1004 N992 0.984 . S
H1005 N992 0.985 . S
C1006 C1007 1.363 . S
C1006 C1012 1.379 . S
C1006 N1014 1.356 . S
C1007 C1006 1.363 . S
C1007 C1013 1.363 . S
C1008 C1009 1.363 . S
C1008 C1013 1.379 . S
C1008 N1015 1.356 . S
C1009 C1008 1.363 . S
C1009 C1012 1.363 . S
N1010 C1012 1.356 . S
N1010 H1022 0.984 . S
N1010 H1023 0.985 . S
N1011 C1013 1.356 . S
N1011 H1016 0.984 . S
N1011 H1017 0.985 . S
C1012 C1006 1.379 . S
C1012 C1009 1.363 . S
C1012 N1010 1.356 . S
C1013 C1007 1.363 . S
C1013 C1008 1.379 . S
C1013 N1011 1.356 . S
N1014 C1006 1.356 . S
N1014 H1020 0.984 . S
N1014 H1021 0.984 . S
N1015 C1008 1.356 . S
N1015 H1018 0.984 . S
N1015 H1019 0.985 1_455 S
H1016 N1011 0.984 . S
H1017 N1011 0.985 . S
H1018 N1015 0.984 . S
H1019 N1015 0.985 1_655 S
H1020 N1014 0.984 . S
H1021 N1014 0.984 . S
H1022 N1010 0.984 . S
H1023 N1010 0.985 . S
C593 C221 1.474 1_545 S
C595 C330 1.479 . S
C613 C414 1.484 . S
C611 C241 1.449 . S
C631 C407 1.486 . S
C629 C157 1.477 . S
C647 C177 1.439 1_545 S
C649 C323 1.492 . S
C667 C487 1.479 . S
C665 C93 1.438 1_565 S
C685 C571 1.484 . S
C683 C113 1.491 . S
C701 C29 1.430 . S
C703 C564 1.486 . S
C719 C49 1.491 1_565 S
C721 C480 1.492 . S
C739 C314 1.318 . S
C737 C61 1.516 1_554 S
C757 C398 1.323 . S
C755 C17 1.463 . S
C775 C409 1.394 . S
C773 C125 1.525 1_556 S
C793 C325 1.394 . S
C791 C81 1.482 . S
C811 C493 1.318 . S
C809 C189 1.449 1_556 S
C827 C145 1.510 . S
C829 C577 1.323 . S
C847 C566 1.394 . S
C845 C253 1.469 1_554 S
C863 C209 1.520 . S
C865 C482 1.394 . S
C883 C312 1.550 . S
C881 C23 1.493 . S
C901 C396 1.564 . S
C899 C55 1.553 . S
C917 C87 1.491 . S
C919 C403 1.533 . S
C937 C319 1.545 . S
C935 C119 1.539 . S
C955 C491 1.550 . S
C953 C151 1.548 . S
C971 C183 1.491 . S
C973 C575 1.564 . S
C989 C215 1.536 . S
C991 C582 1.533 . S
C1007 C247 1.487 . S
C1009 C498 1.545 . S
