# Generated by pormake.
# Topology pyr, (3,6)-cn, num edge types: 1
# Building blocks:
#     Node 0, Type 0, BuildingBlock: BELTOD_clean_linker_0, # of connection points: 3
#     Node 1, Type 0, BuildingBlock: BELTOD_clean_linker_0, # of connection points: 3
#     Node 2, Type 0, BuildingBlock: BELTOD_clean_linker_0, # of connection points: 3
#     Node 3, Type 0, BuildingBlock: BELTOD_clean_linker_0, # of connection points: 3
#     Node 4, Type 0, BuildingBlock: BELTOD_clean_linker_0, # of connection points: 3
#     Node 5, Type 0, BuildingBlock: BELTOD_clean_linker_0, # of connection points: 3
#     Node 6, Type 0, BuildingBlock: BELTOD_clean_linker_0, # of connection points: 3
#     Node 7, Type 0, BuildingBlock: BELTOD_clean_linker_0, # of connection points: 3
#     Node 8, Type 1, BuildingBlock: LEVNOQ01_clean_sbu_1, # of connection points: 6
#     Node 9, Type 1, BuildingBlock: LEVNOQ01_clean_sbu_1, # of connection points: 6
#     Node 10, Type 1, BuildingBlock: LEVNOQ01_clean_sbu_1, # of connection points: 6
#     Node 11, Type 1, BuildingBlock: LEVNOQ01_clean_sbu_1, # of connection points: 6
#     Edge 12, Type (0, 1), BuildingBlock: MIFKUJ_clean_linker_0, # of connection points: 2
#     Edge 13, Type (0, 1), BuildingBlock: MIFKUJ_clean_linker_0, # of connection points: 2
#     Edge 14, Type (0, 1), BuildingBlock: MIFKUJ_clean_linker_0, # of connection points: 2
#     Edge 15, Type (0, 1), BuildingBlock: MIFKUJ_clean_linker_0, # of connection points: 2
#     Edge 16, Type (0, 1), BuildingBlock: MIFKUJ_clean_linker_0, # of connection points: 2
#     Edge 17, Type (0, 1), BuildingBlock: MIFKUJ_clean_linker_0, # of connection points: 2
#     Edge 18, Type (0, 1), BuildingBlock: MIFKUJ_clean_linker_0, # of connection points: 2
#     Edge 19, Type (0, 1), BuildingBlock: MIFKUJ_clean_linker_0, # of connection points: 2
#     Edge 20, Type (0, 1), BuildingBlock: MIFKUJ_clean_linker_0, # of connection points: 2
#     Edge 21, Type (0, 1), BuildingBlock: MIFKUJ_clean_linker_0, # of connection points: 2
#     Edge 22, Type (0, 1), BuildingBlock: MIFKUJ_clean_linker_0, # of connection points: 2
#     Edge 23, Type (0, 1), BuildingBlock: MIFKUJ_clean_linker_0, # of connection points: 2
#     Edge 24, Type (0, 1), BuildingBlock: MIFKUJ_clean_linker_0, # of connection points: 2
#     Edge 25, Type (0, 1), BuildingBlock: MIFKUJ_clean_linker_0, # of connection points: 2
#     Edge 26, Type (0, 1), BuildingBlock: MIFKUJ_clean_linker_0, # of connection points: 2
#     Edge 27, Type (0, 1), BuildingBlock: MIFKUJ_clean_linker_0, # of connection points: 2
#     Edge 28, Type (0, 1), BuildingBlock: MIFKUJ_clean_linker_0, # of connection points: 2
#     Edge 29, Type (0, 1), BuildingBlock: MIFKUJ_clean_linker_0, # of connection points: 2
#     Edge 30, Type (0, 1), BuildingBlock: MIFKUJ_clean_linker_0, # of connection points: 2
#     Edge 31, Type (0, 1), BuildingBlock: MIFKUJ_clean_linker_0, # of connection points: 2
#     Edge 32, Type (0, 1), BuildingBlock: MIFKUJ_clean_linker_0, # of connection points: 2
#     Edge 33, Type (0, 1), BuildingBlock: MIFKUJ_clean_linker_0, # of connection points: 2
#     Edge 34, Type (0, 1), BuildingBlock: MIFKUJ_clean_linker_0, # of connection points: 2
#     Edge 35, Type (0, 1), BuildingBlock: MIFKUJ_clean_linker_0, # of connection points: 2
# Relax obj value: 0.036
# Max RMSD: 0.108
# Mean RMSD: 0.051
data_MOF--net-pry--node1-LEVNOQ01_clean_sbu_1--node2-BELTOD_clean_linker_0--edge1-MIFKUJ_clean_linker_0
_symmetry_space_group_name_H-M    P1
_symmetry_Int_Tables_number       1
_symmetry_cell_setting            triclinic
loop_
_symmetry_equiv_pos_as_xyz
'x, y, z'
_cell_length_a     53.446676
_cell_length_b     51.948556
_cell_length_c     51.22969
_cell_angle_alpha  92.203704
_cell_angle_beta   91.551848
_cell_angle_gamma 94.219407
loop_
_atom_site_label
_atom_site_type_symbol
_atom_site_fract_x
_atom_site_fract_y
_atom_site_fract_z
_atom_type_partial_charge
P0 P 0.1676 0.16736 0.15611 0.0
H1 H 0.20755 0.18269 0.12178 0.0
H2 H 0.2392 0.15871 0.09994 0.0
H3 H 0.20161 0.08694 0.12254 0.0
H4 H 0.16979 0.11112 0.1444 0.0
H5 H 0.15121 0.21808 0.1691 0.0
H6 H 0.12925 0.2491 0.14426 0.0
H7 H 0.11895 0.19381 0.07909 0.0
H8 H 0.1415 0.16261 0.10415 0.0
H9 H 0.18379 0.1348 0.19682 0.0
H10 H 0.11342 0.15836 0.16641 0.0
O11 O 0.18803 0.18667 0.17438 0.0
H12 H 0.16222 0.11376 0.23239 0.0
H13 H 0.09139 0.13667 0.2017 0.0
C14 C 0.18655 0.14874 0.13501 0.0
C15 C 0.20579 0.16177 0.12159 0.0
C16 C 0.22395 0.14806 0.10926 0.0
C17 C 0.2231 0.12099 0.10995 0.0
C18 C 0.20274 0.1078 0.12176 0.0
C19 C 0.18459 0.12162 0.13432 0.0
C20 C 0.1485 0.18831 0.13823 0.0
C21 C 0.14421 0.21251 0.1495 0.0
C22 C 0.13167 0.23024 0.13529 0.0
C23 C 0.12276 0.22399 0.10962 0.0
C24 C 0.12573 0.19912 0.09882 0.0
C25 C 0.13864 0.18137 0.11305 0.0
C26 C 0.15025 0.14809 0.17897 0.0
C27 C 0.16356 0.13492 0.19751 0.0
C28 C 0.15113 0.1228 0.21782 0.0
C29 C 0.125 0.12354 0.22006 0.0
C30 C 0.11156 0.13603 0.20083 0.0
C31 C 0.1241 0.14825 0.18047 0.0
P32 P 0.39124 0.90198 0.59445 0.0
H33 H 0.43751 0.92044 0.62266 0.0
H34 H 0.44694 0.93439 0.66832 0.0
H35 H 0.36925 0.91692 0.68648 0.0
H36 H 0.36002 0.90257 0.64096 0.0
H37 H 0.41812 0.87892 0.55164 0.0
H38 H 0.42908 0.83489 0.54163 0.0
H39 H 0.3942 0.80978 0.61237 0.0
H40 H 0.38298 0.85397 0.62205 0.0
H41 H 0.35882 0.94364 0.60321 0.0
H42 H 0.35211 0.86707 0.56685 0.0
O43 O 0.40816 0.92238 0.57631 0.0
H44 H 0.31488 0.94875 0.59208 0.0
H45 H 0.3083 0.87235 0.55479 0.0
C46 C 0.39798 0.91114 0.6283 0.0
C47 C 0.42252 0.91963 0.63648 0.0
C48 C 0.4279 0.9275 0.66255 0.0
C49 C 0.40874 0.92706 0.68083 0.0
C50 C 0.38425 0.91795 0.67268 0.0
C51 C 0.37898 0.90975 0.64667 0.0
C52 C 0.40012 0.86972 0.58781 0.0
C53 C 0.41303 0.864 0.56512 0.0
C54 C 0.41935 0.83882 0.55945 0.0
C55 C 0.41267 0.81886 0.57629 0.0
C56 C 0.39949 0.82469 0.59893 0.0
C57 C 0.39324 0.84993 0.60461 0.0
C58 C 0.35864 0.9049 0.5862 0.0
C59 C 0.34785 0.92793 0.5928 0.0
C60 C 0.32276 0.93088 0.5862 0.0
C61 C 0.30803 0.911 0.57239 0.0
C62 C 0.31899 0.88791 0.56571 0.0
C63 C 0.34411 0.88492 0.57251 0.0
P64 P 0.66945 0.35441 0.84276 0.0
H65 H 0.70313 0.34394 0.88559 0.0
H66 H 0.72528 0.37181 0.91945 0.0
H67 H 0.68411 0.43583 0.8953 0.0
H68 H 0.66191 0.40773 0.86142 0.0
H69 H 0.65188 0.30577 0.81656 0.0
H70 H 0.62439 0.26912 0.82958 0.0
H71 H 0.61188 0.30977 0.90275 0.0
H72 H 0.6389 0.34665 0.88922 0.0
H73 H 0.69117 0.39531 0.81165 0.0
H74 H 0.61811 0.35617 0.82073 0.0
O75 O 0.69378 0.34113 0.82931 0.0
H76 H 0.67405 0.42067 0.77709 0.0
H77 H 0.60107 0.38059 0.78561 0.0
C78 C 0.68146 0.37396 0.87062 0.0
C79 C 0.69849 0.36383 0.88797 0.0
C80 C 0.71093 0.37973 0.90749 0.0
C81 C 0.70648 0.40605 0.90993 0.0
C82 C 0.68801 0.41567 0.89369 0.0
C83 C 0.67544 0.39965 0.87425 0.0
C84 C 0.64783 0.32857 0.85218 0.0
C85 C 0.64313 0.30678 0.83537 0.0
C86 C 0.6275 0.28585 0.84287 0.0
C87 C 0.61625 0.28638 0.86737 0.0
C88 C 0.6202 0.30878 0.88373 0.0
C89 C 0.63582 0.32979 0.87613 0.0
C90 C 0.65598 0.37373 0.81851 0.0
C91 C 0.67144 0.39218 0.80614 0.0
C92 C 0.66166 0.40654 0.78632 0.0
C93 C 0.63622 0.40255 0.77842 0.0
C94 C 0.62067 0.3844 0.79138 0.0
C95 C 0.63045 0.37019 0.81135 0.0
P96 P 0.84951 0.6369 0.38341 0.0
H97 H 0.87157 0.68848 0.37441 0.0
H98 H 0.90023 0.71859 0.40034 0.0
H99 H 0.90775 0.66105 0.45823 0.0
H100 H 0.87865 0.63095 0.43211 0.0
H101 H 0.82964 0.59189 0.35143 0.0
H102 H 0.84491 0.57057 0.31215 0.0
H103 H 0.91346 0.62009 0.31901 0.0
H104 H 0.89835 0.64104 0.35842 0.0
H105 H 0.81203 0.65234 0.41899 0.0
H106 H 0.84677 0.58225 0.39873 0.0
O107 O 0.83029 0.65562 0.36801 0.0
H108 H 0.78428 0.62883 0.44825 0.0
H109 H 0.81868 0.55833 0.428 0.0
C110 C 0.87267 0.65772 0.40159 0.0
C111 C 0.87948 0.68227 0.3926 0.0
C112 C 0.89605 0.69939 0.40737 0.0
C113 C 0.90624 0.69222 0.4314 0.0
C114 C 0.89997 0.66722 0.43997 0.0
C115 C 0.88343 0.65001 0.42504 0.0
C116 C 0.86308 0.6176 0.35831 0.0
C117 C 0.84831 0.59755 0.34501 0.0
C118 C 0.85699 0.58547 0.3225 0.0
C119 C 0.88034 0.59374 0.31253 0.0
C120 C 0.89534 0.61343 0.32621 0.0
C121 C 0.88677 0.62526 0.34889 0.0
C122 C 0.83084 0.61887 0.4061 0.0
C123 C 0.81375 0.63186 0.42098 0.0
C124 C 0.79812 0.61845 0.43797 0.0
C125 C 0.79934 0.59172 0.44047 0.0
C126 C 0.81727 0.5789 0.42633 0.0
C127 C 0.83316 0.59248 0.40947 0.0
P128 P 0.87892 0.88591 0.89881 0.0
H129 H 0.862 0.91172 0.94603 0.0
H130 H 0.82153 0.92677 0.95836 0.0
H131 H 0.78799 0.89354 0.88588 0.0
H132 H 0.8286 0.87831 0.87381 0.0
H133 H 0.92658 0.86454 0.90931 0.0
H134 H 0.93809 0.8234 0.92563 0.0
H135 H 0.85965 0.7968 0.92736 0.0
H136 H 0.84825 0.83821 0.91066 0.0
H137 H 0.87359 0.92953 0.86625 0.0
H138 H 0.89115 0.85023 0.85513 0.0
O139 O 0.89996 0.9076 0.91326 0.0
H140 H 0.88149 0.93686 0.82029 0.0
H141 H 0.8994 0.85753 0.80903 0.0
C142 C 0.84837 0.89428 0.90882 0.0
C143 C 0.84591 0.90755 0.93284 0.0
C144 C 0.82279 0.91629 0.93981 0.0
C145 C 0.80158 0.91167 0.92297 0.0
C146 C 0.80392 0.89737 0.89934 0.0
C147 C 0.82713 0.88873 0.89235 0.0
C148 C 0.88657 0.85462 0.9093 0.0
C149 C 0.91183 0.84988 0.91321 0.0
C150 C 0.91838 0.82636 0.92266 0.0
C151 C 0.89978 0.80694 0.92823 0.0
C152 C 0.87443 0.81136 0.92329 0.0
C153 C 0.86787 0.83506 0.91387 0.0
C154 C 0.88189 0.88943 0.86413 0.0
C155 C 0.87894 0.91363 0.85382 0.0
C156 C 0.88363 0.91783 0.82759 0.0
C157 C 0.89138 0.89786 0.81108 0.0
C158 C 0.89338 0.87327 0.82123 0.0
C159 C 0.88875 0.86911 0.84762 0.0
P160 P 0.66369 0.16979 0.37305 0.0
H161 H 0.67458 0.21758 0.40382 0.0
H162 H 0.64857 0.24461 0.43011 0.0
H163 H 0.58593 0.18748 0.41799 0.0
H164 H 0.61209 0.16069 0.39136 0.0
H165 H 0.70742 0.14531 0.35535 0.0
H166 H 0.7401 0.12336 0.37783 0.0
H167 H 0.70296 0.1341 0.45091 0.0
H168 H 0.67026 0.15616 0.42821 0.0
H169 H 0.62628 0.18094 0.33393 0.0
H170 H 0.65852 0.11318 0.36213 0.0
O171 O 0.67956 0.19141 0.35533 0.0
H172 H 0.60304 0.15447 0.29963 0.0
H173 H 0.636 0.08668 0.32735 0.0
C174 C 0.64506 0.18751 0.39515 0.0
C175 C 0.65531 0.21078 0.40705 0.0
C176 C 0.64046 0.22609 0.42229 0.0
C177 C 0.61509 0.21829 0.426 0.0
C178 C 0.60529 0.1942 0.41517 0.0
C179 C 0.62021 0.17887 0.39995 0.0
C180 C 0.68657 0.15248 0.39012 0.0
C181 C 0.70626 0.14282 0.37619 0.0
C182 C 0.72483 0.13017 0.38904 0.0
C183 C 0.72409 0.127 0.41615 0.0
C184 C 0.70414 0.13648 0.43006 0.0
C185 C 0.68541 0.14901 0.41709 0.0
C186 C 0.64435 0.14913 0.35035 0.0
C187 C 0.62823 0.16032 0.33281 0.0
C188 C 0.6151 0.14517 0.31311 0.0
C189 C 0.61796 0.11849 0.31045 0.0
C190 C 0.63329 0.10713 0.32887 0.0
C191 C 0.64636 0.12234 0.34869 0.0
P192 P 0.39311 0.63267 0.11832 0.0
H193 H 0.37345 0.61647 0.06589 0.0
H194 H 0.33096 0.60317 0.0488 0.0
H195 H 0.30243 0.61355 0.12636 0.0
H196 H 0.34472 0.62632 0.14322 0.0
H197 H 0.43009 0.66824 0.09427 0.0
H198 H 0.43594 0.71527 0.09489 0.0
H199 H 0.37003 0.72008 0.14156 0.0
H200 H 0.36365 0.67314 0.13953 0.0
H201 H 0.38618 0.58268 0.14195 0.0
H202 H 0.40782 0.6614 0.16799 0.0
O203 O 0.41465 0.61921 0.10038 0.0
H204 H 0.38665 0.56972 0.18751 0.0
H205 H 0.40761 0.64868 0.21321 0.0
C206 C 0.36226 0.62178 0.10588 0.0
C207 C 0.35803 0.61556 0.07919 0.0
C208 C 0.33376 0.60816 0.06945 0.0
C209 C 0.31338 0.60707 0.08629 0.0
C210 C 0.31778 0.61362 0.11298 0.0
C211 C 0.34197 0.62101 0.12264 0.0
C212 C 0.39643 0.66726 0.11681 0.0
C213 C 0.41674 0.67945 0.10432 0.0
C214 C 0.42021 0.7064 0.10499 0.0
C215 C 0.40363 0.7216 0.11857 0.0
C216 C 0.38301 0.70914 0.13064 0.0
C217 C 0.37935 0.68224 0.12956 0.0
C218 C 0.39646 0.62305 0.15154 0.0
C219 C 0.3911 0.59712 0.1574 0.0
C220 C 0.3913 0.58977 0.18336 0.0
C221 C 0.39668 0.60834 0.20379 0.0
C222 C 0.4028 0.63414 0.1978 0.0
C223 C 0.40294 0.64139 0.17187 0.0
P224 P 0.13868 0.3712 0.63239 0.0
H225 H 0.14747 0.32991 0.59499 0.0
H226 H 0.11963 0.29997 0.56792 0.0
H227 H 0.05568 0.33878 0.59477 0.0
H228 H 0.08386 0.36856 0.62225 0.0
H229 H 0.18174 0.40658 0.64698 0.0
H230 H 0.21116 0.43229 0.62109 0.0
H231 H 0.16365 0.41426 0.55222 0.0
H232 H 0.13448 0.38831 0.57822 0.0
H233 H 0.11726 0.34716 0.67743 0.0
H234 H 0.12489 0.4237 0.6476 0.0
O235 O 0.15964 0.35226 0.64459 0.0
H236 H 0.09922 0.36414 0.71711 0.0
H237 H 0.10614 0.44095 0.68711 0.0
C238 C 0.11765 0.35098 0.61104 0.0
C239 C 0.12747 0.33207 0.59492 0.0
C240 C 0.11152 0.31518 0.57918 0.0
C241 C 0.0854 0.31698 0.57915 0.0
C242 C 0.0757 0.33675 0.59455 0.0
C243 C 0.09176 0.35373 0.6103 0.0
C244 C 0.15615 0.39526 0.6145 0.0
C245 C 0.17736 0.4087 0.62644 0.0
C246 C 0.19411 0.4235 0.6116 0.0
C247 C 0.18989 0.42511 0.58448 0.0
C248 C 0.16763 0.41306 0.57296 0.0
C249 C 0.15088 0.39827 0.58787 0.0
C250 C 0.12275 0.38422 0.65984 0.0
C251 C 0.11473 0.36763 0.67934 0.0
C252 C 0.1042 0.37738 0.70195 0.0
C253 C 0.1013 0.40398 0.70544 0.0
C254 C 0.10848 0.42044 0.68527 0.0
C255 C 0.11911 0.41061 0.66261 0.0
O256 O 0.00903 0.00464 0.58173 0.0
Mg257 Mg 0.03065 0.02634 0.55589 0.0
O258 O 0.98663 0.98333 0.5499 0.0
Mg259 Mg 0.00269 -0.0002 0.51056 0.0
O260 O 0.01039 0.0424 0.52718 0.0
O261 O 0.02992 0.0649 0.56119 0.0
O262 O 0.0199 0.01878 0.47256 0.0
O263 O 0.96242 0.01329 0.50199 0.0
Mg264 Mg 0.98513 0.97706 0.46279 0.0
O265 O 0.99368 0.9563 0.49471 0.0
O266 O 0.01435 0.9903 0.4398 0.0
O267 O 0.95192 0.99618 0.46292 0.0
O268 O 0.9782 0.93917 0.45599 0.0
C269 C 0.06398 0.99393 0.52936 0.0
C270 C 0.99161 0.98795 0.57429 0.0
C271 C 0.01668 0.06431 0.53971 0.0
C272 C 0.02431 0.01145 0.44917 0.0
C273 C 0.94687 0.01009 0.48259 0.0
C274 C 0.98651 0.93623 0.47948 0.0
O275 O 0.06492 0.01373 0.54452 0.0
O276 O 0.04328 0.98539 0.51802 0.0
O277 O 0.47385 0.04093 0.04788 0.0
Mg278 Mg 0.50853 0.04446 0.0286 0.0
O279 O 0.46173 0.01094 0.01831 0.0
Mg280 Mg 0.5024 0.00189 0.00672 0.0
O281 O 0.51149 0.04382 0.9889 0.0
O282 O 0.5086 0.07972 0.01438 0.0
O283 O 0.54356 0.99202 0.99436 0.0
O284 O 0.48613 0.99416 0.96346 0.0
Mg285 Mg 0.50243 0.94407 0.98737 0.0
O286 O 0.49195 0.96127 0.02109 0.0
O287 O 0.54108 0.95009 0.98374 0.0
O288 O 0.48076 0.95198 0.95464 0.0
O289 O 0.48905 0.91846 0.01363 0.0
C290 C 0.53599 0.02211 0.0618 0.0
C291 C 0.45639 0.02641 0.03685 0.0
C292 C 0.51122 0.06884 0.99174 0.0
C293 C 0.55387 0.97156 0.9868 0.0
C294 C 0.47865 0.97498 0.94812 0.0
C295 C 0.48611 0.93823 0.02898 0.0
O296 O 0.5419 0.04245 0.05019 0.0
O297 O 0.51873 0.00637 0.05141 0.0
O298 O 0.45352 0.53971 0.53141 0.0
Mg299 Mg 0.46604 0.50214 0.53717 0.0
O300 O 0.48578 0.54875 0.50689 0.0
Mg301 Mg 0.49145 0.50565 0.4978 0.0
O302 O 0.5033 0.49809 0.54216 0.0
O303 O 0.47622 0.50012 0.57487 0.0
O304 O 0.49681 0.46083 0.4923 0.0
O305 O 0.53474 0.51605 0.49629 0.0
Mg306 Mg 0.50496 0.48693 0.44921 0.0
O307 O 0.48279 0.51684 0.45459 0.0
O308 O 0.48779 0.44971 0.45137 0.0
O309 O 0.54313 0.4939 0.46044 0.0
O310 O 0.49663 0.50352 0.41561 0.0
C311 C 0.43427 0.47727 0.50515 0.0
C312 C 0.46715 0.5561 0.51942 0.0
C313 C 0.49856 0.49721 0.56693 0.0
C314 C 0.49194 0.44324 0.47443 0.0
C315 C 0.55059 0.50778 0.48039 0.0
C316 C 0.48325 0.51837 0.42931 0.0
O317 O 0.44346 0.4685 0.52551 0.0
O318 O 0.44694 0.49537 0.49427 0.0
O319 O 0.03534 0.46498 0.05084 0.0
Mg320 Mg 0.02131 0.50022 0.06178 0.0
O321 O 0.01513 0.46596 0.01299 0.0
Mg322 Mg 0.00239 0.50879 0.01311 0.0
O323 O 0.98448 0.50823 0.05528 0.0
O324 O 0.0007 0.49551 0.0934 0.0
O325 O 0.98655 0.55081 0.01539 0.0
O326 O 0.96334 0.49256 0.99869 0.0
Mg327 Mg 0.99802 0.53528 0.97233 0.0
O328 O 0.01971 0.50501 0.97022 0.0
O329 O 0.01259 0.57088 0.99026 0.0
O330 O 0.95866 0.52332 0.97072 0.0
O331 O 0.01341 0.53161 0.93729 0.0
C332 C 0.05508 0.53766 0.04488 0.0
C333 C 0.02854 0.45429 0.02904 0.0
C334 C 0.9823 0.50363 0.08004 0.0
C335 C 0.99638 0.57205 0.00745 0.0
C336 C 0.94965 0.50389 0.98266 0.0
C337 C 0.02352 0.51189 0.94633 0.0
O338 O 0.04728 0.53174 0.067 0.0
O339 O 0.04274 0.52885 0.02436 0.0
H340 H 0.13439 0.07906 0.24459 0.0
H341 H 0.11658 0.06319 0.2847 0.0
H342 H 0.0683 0.12617 0.28766 0.0
H343 H 0.08708 0.14304 0.24817 0.0
H344 H 0.0876 0.1205 0.33446 0.0
H345 H 0.04545 0.06311 0.27014 0.0
H346 H 0.04083 0.0324 0.2321 0.0
H347 H 0.08508 0.97973 0.27227 0.0
H348 H 0.09026 0.01027 0.31043 0.0
H349 H 0.01526 0.06022 0.43595 0.0
H350 H 0.03157 0.08248 0.39791 0.0
H351 H 0.08171 0.02212 0.38446 0.0
H352 H 0.0642 -0.00079 0.42137 0.0
H353 H 0.0574 0.02864 0.34205 0.0
H354 H 0.1008 0.08924 0.40627 0.0
H355 H 0.10186 0.1198 0.44445 0.0
H356 H 0.05133 0.16639 0.40423 0.0
H357 H 0.04986 0.13601 0.36588 0.0
C358 C 0.12006 0.08965 0.25376 0.0
C359 C 0.11227 0.11242 0.24309 0.0
C360 C 0.10965 0.08036 0.27661 0.0
C361 C 0.09086 0.0933 0.28914 0.0
C362 C 0.08273 0.11581 0.27836 0.0
C363 C 0.0933 0.12526 0.25557 0.0
C364 C 0.08031 0.08362 0.31385 0.0
C365 C 0.08071 0.10047 0.33604 0.0
C366 C 0.07138 0.05748 0.31607 0.0
C367 C 0.06842 0.0391 0.29307 0.0
C368 C 0.05437 0.04507 0.27079 0.0
C369 C 0.05162 0.02767 0.24921 0.0
C370 C 0.0627 0.00416 0.24974 0.0
C371 C 0.07653 0.99796 0.27187 0.0
C372 C 0.07935 0.0153 0.29349 0.0
C373 C 0.03034 0.05224 0.42529 0.0
C374 C 0.03871 0.0282 0.43157 0.0
C375 C 0.03966 0.06493 0.40352 0.0
C376 C 0.05799 0.05407 0.3882 0.0
C377 C 0.06748 0.03086 0.39576 0.0
C378 C 0.0577 0.0179 0.417 0.0
C379 C 0.06568 0.0652 0.36298 0.0
C380 C 0.06443 0.04864 0.34055 0.0
C381 C 0.07355 0.09162 0.36056 0.0
C382 C 0.07509 0.11027 0.3833 0.0
C383 C 0.08989 0.10598 0.4056 0.0
C384 C 0.09056 0.12327 0.42726 0.0
C385 C 0.07663 0.14499 0.42678 0.0
C386 C 0.06212 0.14956 0.40458 0.0
C387 C 0.0614 0.13235 0.38286 0.0
H388 H 0.0771 0.1583 0.44361 0.0
H389 H 0.06054 0.99071 0.23303 0.0
H390 H 0.38305 0.96005 0.71105 0.0
H391 H 0.39221 0.97411 0.75685 0.0
H392 H 0.456 0.92788 0.75834 0.0
H393 H 0.44702 0.91388 0.71265 0.0
H394 H 0.42354 0.92034 0.80025 0.0
H395 H 0.46645 0.98986 0.75527 0.0
H396 H 0.4694 0.02535 0.72465 0.0
H397 H 0.41513 0.06492 0.76797 0.0
H398 H 0.41159 0.02944 0.79867 0.0
H399 H 0.49964 0.95424 0.90642 0.0
H400 H 0.48454 0.95297 0.86109 0.0
H401 H 0.42567 0.00162 0.88231 0.0
H402 H 0.44136 0.00343 0.92829 0.0
H403 H 0.44839 0.01075 0.83071 0.0
H404 H 0.40873 0.94228 0.87839 0.0
H405 H 0.40779 0.90707 0.90936 0.0
H406 H 0.4565 0.86543 0.86071 0.0
H407 H 0.45804 0.90058 0.82963 0.0
C408 C 0.39901 0.95291 0.72121 0.0
C409 C 0.41434 0.93587 0.70836 0.0
C410 C 0.40429 0.96107 0.74725 0.0
C411 C 0.42482 0.95208 0.76088 0.0
C412 C 0.44009 0.93504 0.7481 0.0
C413 C 0.43502 0.92716 0.72202 0.0
C414 C 0.43006 0.95963 0.78877 0.0
C415 C 0.42899 0.9401 0.80689 0.0
C416 C 0.43642 0.98554 0.79749 0.0
C417 C 0.4385 0.00684 0.77905 0.0
C418 C 0.45494 0.006 0.75811 0.0
C419 C 0.45677 0.02614 0.74078 0.0
C420 C 0.44239 0.04734 0.74431 0.0
C421 C 0.42621 0.04846 0.76523 0.0
C422 C 0.4243 0.02835 0.78261 0.0
C423 C 0.48378 0.96512 0.90135 0.0
C424 C 0.47142 0.97868 0.92072 0.0
C425 C 0.47519 0.96439 0.87548 0.0
C426 C 0.45373 0.97678 0.86849 0.0
C427 C 0.44224 0.99187 0.88744 0.0
C428 C 0.45113 0.99289 0.91357 0.0
C429 C 0.44239 0.97133 0.84198 0.0
C430 C 0.44233 0.99113 0.82413 0.0
C431 C 0.43489 0.94562 0.83339 0.0
C432 C 0.43357 0.92413 0.85173 0.0
C433 C 0.41933 0.92567 0.87436 0.0
C434 C 0.41869 0.90572 0.89193 0.0
C435 C 0.43209 0.88404 0.88702 0.0
C436 C 0.44611 0.88223 0.86448 0.0
C437 C 0.44684 0.90214 0.84685 0.0
H438 H 0.4316 0.86862 0.90066 0.0
H439 H 0.44385 0.06292 0.73088 0.0
H440 H 0.65924 0.41376 0.73263 0.0
H441 H 0.64129 0.43328 0.69442 0.0
H442 H 0.57233 0.44112 0.73478 0.0
H443 H 0.59031 0.42235 0.77336 0.0
H444 H 0.56582 0.41558 0.68602 0.0
H445 H 0.60919 0.49296 0.72491 0.0
H446 H 0.64584 0.52025 0.74274 0.0
H447 H 0.68197 0.51337 0.66921 0.0
H448 H 0.64565 0.4857 0.65104 0.0
H449 H 0.49449 0.49757 0.61959 0.0
H450 H 0.52431 0.4837 0.65173 0.0
H451 H 0.57707 0.47069 0.59129 0.0
H452 H 0.54694 0.4845 0.5584 0.0
H453 H 0.59652 0.4964 0.64473 0.0
H454 H 0.55238 0.42047 0.60512 0.0
H455 H 0.51503 0.39437 0.58712 0.0
H456 H 0.48058 0.3989 0.66176 0.0
H457 H 0.51762 0.42535 0.68011 0.0
C458 C 0.64046 0.42018 0.73364 0.0
C459 C 0.62615 0.41633 0.75603 0.0
C460 C 0.63023 0.43123 0.71173 0.0
C461 C 0.60551 0.43855 0.71182 0.0
C462 C 0.59142 0.43542 0.73433 0.0
C463 C 0.60167 0.42456 0.75629 0.0
C464 C 0.59364 0.44786 0.68794 0.0
C465 C 0.57251 0.43329 0.67707 0.0
C466 C 0.60294 0.47048 0.67577 0.0
C467 C 0.62485 0.48694 0.68674 0.0
C468 C 0.62507 0.497 0.71264 0.0
C469 C 0.64576 0.51261 0.72278 0.0
C470 C 0.66627 0.51845 0.70715 0.0
C471 C 0.6661 0.50877 0.68132 0.0
C472 C 0.64547 0.49313 0.67108 0.0
C473 C 0.51249 0.49205 0.61298 0.0
C474 C 0.51819 0.49176 0.58635 0.0
C475 C 0.52954 0.48422 0.63145 0.0
C476 C 0.55266 0.47599 0.62375 0.0
C477 C 0.55921 0.477 0.59746 0.0
C478 C 0.54198 0.48479 0.57876 0.0
C479 C 0.56857 0.46433 0.64331 0.0
C480 C 0.59029 0.4784 0.65341 0.0
C481 C 0.55998 0.44114 0.65477 0.0
C482 C 0.53772 0.42503 0.64394 0.0
C483 C 0.53677 0.41606 0.61764 0.0
C484 C 0.51567 0.40116 0.60739 0.0
C485 C 0.49543 0.395 0.62328 0.0
C486 C 0.49628 0.40368 0.64948 0.0
C487 C 0.51734 0.41859 0.65983 0.0
H488 H 0.47911 0.38346 0.61531 0.0
H489 H 0.68225 0.53056 0.71504 0.0
H490 H 0.87984 0.54302 0.29576 0.0
H491 H 0.89176 0.52598 0.25287 0.0
H492 H 0.90983 0.60361 0.22873 0.0
H493 H 0.89806 0.62072 0.27151 0.0
H494 H 0.8804 0.57223 0.19139 0.0
H495 H 0.95592 0.57017 0.24409 0.0
H496 H 0.98187 0.55892 0.28191 0.0
H497 H 0.96395 0.47822 0.26348 0.0
H498 H 0.93757 0.48901 0.22574 0.0
H499 H 0.96052 0.54926 0.08368 0.0
H500 H 0.93524 0.56284 0.12026 0.0
H501 H 0.92944 0.48464 0.14632 0.0
H502 H 0.95544 0.47143 0.11045 0.0
H503 H 0.95046 0.51533 0.1828 0.0
H504 H 0.87696 0.51714 0.12806 0.0
H505 H 0.85012 0.52838 0.09101 0.0
H506 H 0.86361 0.60896 0.11279 0.0
H507 H 0.89089 0.59822 0.14979 0.0
C508 C 0.88638 0.5564 0.28128 0.0
C509 C 0.8882 0.58316 0.28699 0.0
C510 C 0.89321 0.54667 0.25686 0.0
C511 C 0.90169 0.56357 0.23769 0.0
C512 C 0.9033 0.59028 0.24326 0.0
C513 C 0.8968 0.59999 0.26776 0.0
C514 C 0.90913 0.55339 0.21187 0.0
C515 C 0.89586 0.55995 0.18937 0.0
C516 C 0.9289 0.53693 0.20944 0.0
C517 C 0.9445 0.53041 0.2323 0.0
C518 C 0.95728 0.55003 0.24828 0.0
C519 C 0.97212 0.54374 0.26966 0.0
C520 C 0.97448 0.51787 0.27515 0.0
C521 C 0.96205 0.49825 0.25924 0.0
C522 C 0.94715 0.50444 0.23785 0.0
C523 C 0.95278 0.53482 0.09652 0.0
C524 C 0.95982 0.50935 0.09438 0.0
C525 C 0.93841 0.54257 0.11751 0.0
C526 C 0.93065 0.5248 0.13627 0.0
C527 C 0.93541 0.49874 0.13229 0.0
C528 C 0.95005 0.49114 0.11165 0.0
C529 C 0.92156 0.53387 0.16197 0.0
C530 C 0.93474 0.5273 0.1846 0.0
C531 C 0.9017 0.55028 0.16443 0.0
C532 C 0.88613 0.55687 0.14159 0.0
C533 C 0.87448 0.53728 0.12476 0.0
C534 C 0.85912 0.54357 0.1038 0.0
C535 C 0.85514 0.56938 0.09956 0.0
C536 C 0.8667 0.58898 0.11613 0.0
C537 C 0.8821 0.5828 0.1371 0.0
H538 H 0.84299 0.57425 0.08358 0.0
H539 H 0.98601 0.51304 0.29169 0.0
H540 H 0.27239 0.13299 0.12173 0.0
H541 H 0.30844 0.11164 0.10592 0.0
H542 H 0.25904 0.0562 0.06094 0.0
H543 H 0.22251 0.07733 0.07753 0.0
H544 H 0.29732 0.0327 0.08199 0.0
H545 H 0.29085 0.10617 0.03085 0.0
H546 H 0.28561 0.15178 0.02187 0.0
H547 H 0.3538 0.17485 0.06554 0.0
H548 H 0.35928 0.12941 0.07513 0.0
H549 H 0.41258 0.00278 0.01437 0.0
H550 H 0.36942 0.01329 0.02345 0.0
H551 H 0.39779 0.06842 0.08412 0.0
H552 H 0.44047 0.05807 0.07549 0.0
H553 H 0.36628 0.08873 0.04618 0.0
H554 H 0.3691 0.01352 0.10004 0.0
H555 H 0.37382 0.9673 0.10649 0.0
H556 H 0.31159 0.94682 0.05309 0.0
H557 H 0.30677 0.99294 0.046 0.0
C558 C 0.26917 0.11632 0.10837 0.0
C559 C 0.24466 0.10712 0.10047 0.0
C560 C 0.28981 0.10411 0.09932 0.0
C561 C 0.28656 0.08268 0.08167 0.0
C562 C 0.26204 0.07283 0.07437 0.0
C563 C 0.24122 0.08491 0.08378 0.0
C564 C 0.30901 0.07124 0.07078 0.0
C565 C 0.3122 0.04485 0.07369 0.0
C566 C 0.32844 0.08697 0.05975 0.0
C567 C 0.3254 0.11436 0.05381 0.0
C568 C 0.30466 0.12098 0.03866 0.0
C569 C 0.30165 0.1468 0.03345 0.0
C570 C 0.31935 0.1662 0.04315 0.0
C571 C 0.34012 0.1598 0.05803 0.0
C572 C 0.3432 0.134 0.06333 0.0
C573 C 0.40954 0.01682 0.02992 0.0
C574 C 0.43004 0.02973 0.04404 0.0
C575 C 0.38489 0.02281 0.03506 0.0
C576 C 0.38045 0.04179 0.05433 0.0
C577 C 0.4008 0.05386 0.06904 0.0
C578 C 0.42525 0.04784 0.06408 0.0
C579 C 0.355 0.05059 0.05849 0.0
C580 C 0.35122 0.07651 0.05411 0.0
C581 C 0.33502 0.03433 0.0677 0.0
C582 C 0.33777 0.00666 0.07224 0.0
C583 C 0.35657 -0.00084 0.08949 0.0
C584 C 0.35924 0.97298 0.0933 0.0
C585 C 0.34307 0.95413 0.08014 0.0
C586 C 0.32414 0.96143 0.06323 0.0
C587 C 0.32142 0.98759 0.05931 0.0
H588 H 0.34517 0.93388 0.08311 0.0
H589 H 0.31698 0.18619 0.03911 0.0
H590 H 0.28885 0.95466 0.55476 0.0
H591 H 0.24504 0.96192 0.54542 0.0
H592 H 0.22312 0.88294 0.56237 0.0
H593 H 0.26709 0.87559 0.57261 0.0
H594 H 0.19828 0.90262 0.5161 0.0
H595 H 0.21301 0.92265 0.60724 0.0
H596 H 0.23609 0.94241 0.64619 0.0
H597 H 0.22781 0.01798 0.61746 0.0
H598 H 0.20502 0.99865 0.57812 0.0
H599 H 0.06929 0.94171 0.52554 0.0
H600 H 0.10896 0.9207 0.5297 0.0
H601 H 0.15017 0.99538 0.53014 0.0
H602 H 0.11092 0.01621 0.52688 0.0
H603 H 0.16233 0.97009 0.57165 0.0
H604 H 0.14861 0.94934 0.47908 0.0
H605 H 0.12642 0.92891 0.43996 0.0
H606 H 0.13329 0.85397 0.47077 0.0
H607 H 0.15461 0.87399 0.51056 0.0
C608 C 0.27478 0.93882 0.55671 0.0
C609 C 0.28149 0.91465 0.56484 0.0
C610 C 0.24976 0.94296 0.55113 0.0
C611 C 0.23089 0.92302 0.55342 0.0
C612 C 0.23748 0.89853 0.56046 0.0
C613 C 0.2626 0.89439 0.56625 0.0
C614 C 0.2043 0.92859 0.54979 0.0
C615 C 0.19012 0.91703 0.52844 0.0
C616 C 0.19387 0.94743 0.56591 0.0
C617 C 0.20746 0.95917 0.58963 0.0
C618 C 0.21629 0.94347 0.60912 0.0
C619 C 0.22929 0.9546 0.63129 0.0
C620 C 0.23345 0.98143 0.63428 0.0
C621 C 0.22458 0.9972 0.61512 0.0
C622 C 0.21159 0.98616 0.59289 0.0
C623 C 0.08691 0.95346 0.52589 0.0
C624 C 0.08715 0.98055 0.52615 0.0
C625 C 0.10952 0.94149 0.52831 0.0
C626 C 0.13254 0.95651 0.53051 0.0
C627 C 0.13266 0.98342 0.52882 0.0
C628 C 0.11023 0.9953 0.52686 0.0
C629 C 0.15648 0.9451 0.53709 0.0
C630 C 0.17018 0.95545 0.55932 0.0
C631 C 0.16628 0.92513 0.52175 0.0
C632 C 0.15285 0.91322 0.49805 0.0
C633 C 0.14498 0.92854 0.47777 0.0
C634 C 0.13254 0.91702 0.45544 0.0
C635 C 0.12821 0.89017 0.45299 0.0
C636 C 0.13636 0.87478 0.47282 0.0
C637 C 0.14856 0.88621 0.4953 0.0
H638 H 0.11869 0.88127 0.43564 0.0
H639 H 0.24352 0.99001 0.65146 0.0
H640 H 0.72978 0.45133 0.89569 0.0
H641 H 0.76754 0.47328 0.91631 0.0
H642 H 0.76163 0.42244 0.98071 0.0
H643 H 0.72369 0.40012 0.9601 0.0
H644 H 0.78589 0.48847 0.98233 0.0
H645 H 0.79448 0.3944 0.95596 0.0
H646 H 0.78148 0.35836 0.92453 0.0
H647 H 0.80365 0.40549 0.86083 0.0
H648 H 0.81639 0.44192 0.89196 0.0
H649 H 0.91794 0.48154 0.01749 0.0
H650 H 0.87293 0.46904 0.01064 0.0
H651 H 0.87669 0.49338 0.93122 0.0
H652 H 0.92137 0.50674 0.93817 0.0
H653 H 0.85237 0.441 0.94004 0.0
H654 H 0.85308 0.53031 0.96473 0.0
H655 H 0.86279 0.57017 0.99178 0.0
H656 H 0.82051 0.53766 0.05422 0.0
H657 H 0.81148 0.49712 0.02795 0.0
C658 C 0.73577 0.44556 0.91483 0.0
C659 C 0.72401 0.42379 0.92615 0.0
C660 C 0.75735 0.45817 0.92658 0.0
C661 C 0.76729 0.44933 0.94988 0.0
C662 C 0.75405 0.42954 0.96276 0.0
C663 C 0.73255 0.41672 0.95088 0.0
C664 C 0.79386 0.45637 0.95692 0.0
C665 C 0.80052 0.47784 0.97368 0.0
C666 C 0.8127 0.44297 0.94474 0.0
C667 C 0.80628 0.42079 0.92619 0.0
C668 C 0.79655 0.39702 0.93524 0.0
C669 C 0.7892 0.37656 0.9175 0.0
C670 C 0.79172 0.37964 0.89069 0.0
C671 C 0.8017 0.40314 0.88159 0.0
C672 C 0.809 0.42368 0.89927 0.0
C673 C 0.90913 0.48412 0.99857 0.0
C674 C 0.92302 0.49505 0.97833 0.0
C675 C 0.88349 0.47713 0.99476 0.0
C676 C 0.87164 0.48047 0.9705 0.0
C677 C 0.88561 0.49079 0.95009 0.0
C678 C 0.91103 0.4984 0.95409 0.0
C679 C 0.84471 0.4728 0.96616 0.0
C680 C 0.83792 0.45131 0.94945 0.0
C681 C 0.82588 0.48643 0.97829 0.0
C682 C 0.83205 0.51043 0.99455 0.0
C683 C 0.84636 0.53138 0.98446 0.0
C684 C 0.85171 0.55415 -0.00036 0.0
C685 C 0.84249 0.55638 0.0248 0.0
C686 C 0.82792 0.53582 0.03485 0.0
C687 C 0.82274 0.5129 0.01985 0.0
H688 H 0.84647 0.57414 0.03637 0.0
H689 H 0.78595 0.36381 0.87698 0.0
H690 H 0.7718 0.54742 0.42488 0.0
H691 H 0.73251 0.53063 0.44322 0.0
H692 H 0.74266 0.58701 0.50728 0.0
H693 H 0.78224 0.60395 0.48906 0.0
H694 H 0.71406 0.53189 0.51643 0.0
H695 H 0.71449 0.6102 0.46727 0.0
H696 H 0.72811 0.63646 0.43041 0.0
H697 H 0.694 0.57839 0.37608 0.0
H698 H 0.68071 0.5515 0.41267 0.0
H699 H 0.57589 0.53558 0.52143 0.0
H700 H 0.62117 0.54868 0.52483 0.0
H701 H 0.63169 0.50884 0.451 0.0
H702 H 0.58725 0.4957 0.44745 0.0
H703 H 0.65037 0.56128 0.4541 0.0
H704 H 0.65039 0.48287 0.50293 0.0
H705 H 0.63778 0.45552 0.53933 0.0
H706 H 0.67026 0.51361 0.59459 0.0
H707 H 0.68274 0.5415 0.55847 0.0
C708 C 0.7663 0.55553 0.44347 0.0
C709 C 0.77987 0.57725 0.45533 0.0
C710 C 0.74383 0.54589 0.45394 0.0
C711 C 0.73468 0.55774 0.47646 0.0
C712 C 0.74952 0.57757 0.48995 0.0
C713 C 0.77195 0.58737 0.47937 0.0
C714 C 0.70776 0.55336 0.48202 0.0
C715 C 0.70004 0.53866 0.50317 0.0
C716 C 0.6896 0.5623 0.46469 0.0
C717 C 0.69682 0.57876 0.44268 0.0
C718 C 0.71007 0.60295 0.44745 0.0
C719 C 0.71772 0.61795 0.42662 0.0
C720 C 0.71196 0.60908 0.40091 0.0
C721 C 0.69847 0.58522 0.396 0.0
C722 C 0.69088 0.5701 0.41678 0.0
C723 C 0.58794 0.5295 0.50606 0.0
C724 C 0.57787 0.5148 0.48406 0.0
C725 C 0.61375 0.5369 0.50808 0.0
C726 C 0.62965 0.52977 0.48808 0.0
C727 C 0.61969 0.51461 0.46657 0.0
C728 C 0.59419 0.50712 0.46462 0.0
C729 C 0.65645 0.53915 0.48812 0.0
C730 C 0.66423 0.55495 0.46784 0.0
C731 C 0.67444 0.53128 0.50636 0.0
C732 C 0.66718 0.51442 0.52802 0.0
C733 C 0.65462 0.48993 0.52285 0.0
C734 C 0.64755 0.4743 0.54342 0.0
C735 C 0.65312 0.48287 0.56926 0.0
C736 C 0.66589 0.50703 0.57456 0.0
C737 C 0.67298 0.52275 0.55405 0.0
H738 H 0.6476 0.47076 0.58517 0.0
H739 H 0.71791 0.62071 0.3848 0.0
H740 H 0.07741 0.22146 0.08252 0.0
H741 H 0.05809 0.25708 0.06117 0.0
H742 H 0.12465 0.3072 0.08016 0.0
H743 H 0.14345 0.27211 0.10195 0.0
H744 H 0.08546 0.32974 0.09468 0.0
H745 H 0.10715 0.28231 0.01616 0.0
H746 H 0.10611 0.24416 0.98586 0.0
H747 H 0.02599 0.2444 0.97731 0.0
H748 H 0.02652 0.28236 0.00784 0.0
H749 H 0.07585 0.44001 0.02938 0.0
H750 H 0.08885 0.39631 0.03401 0.0
H751 H 0.01188 0.36568 0.02349 0.0
H752 H -0.00116 0.40974 0.01811 0.0
H753 H 0.04991 0.33098 0.00426 0.0
H754 H 0.02867 0.37905 0.08184 0.0
H755 H 0.0301 0.41813 0.1109 0.0
H756 H 0.10997 0.41627 0.12095 0.0
H757 H 0.10905 0.37739 0.0916 0.0
C758 C 0.08793 0.24004 0.08176 0.0
C759 C 0.11179 0.24417 0.0941 0.0
C760 C 0.07695 0.26035 0.06951 0.0
C761 C 0.08988 0.28493 0.06904 0.0
C762 C 0.11415 0.28856 0.08043 0.0
C763 C 0.12491 0.2685 0.09289 0.0
C764 C 0.07794 0.30758 0.0585 0.0
C765 C 0.07792 0.32993 0.07481 0.0
C766 C 0.06715 0.30774 0.0329 0.0
C767 C 0.06685 0.28499 0.01451 0.0
C768 C 0.08929 0.27409 0.00799 0.0
C769 C 0.0888 0.25253 0.99074 0.0
C770 C 0.06599 0.24181 0.97973 0.0
C771 C 0.04364 0.25269 0.98589 0.0
C772 C 0.04403 0.27424 0.00315 0.0
C773 C 0.06186 0.42385 0.02689 0.0
C774 C 0.03639 0.42812 0.02334 0.0
C775 C 0.06927 0.3989 0.02962 0.0
C776 C 0.05128 0.37779 0.02954 0.0
C777 C 0.02605 0.3817 0.02356 0.0
C778 C 0.01862 0.40682 0.02043 0.0
C779 C 0.05851 0.35309 0.04018 0.0
C780 C 0.05738 0.3305 0.02412 0.0
C781 C 0.06828 0.35251 0.06609 0.0
C782 C 0.0688 0.37541 0.08441 0.0
C783 C 0.04654 0.38704 0.09017 0.0
C784 C 0.04727 0.40916 0.10669 0.0
C785 C 0.07012 0.41969 0.11774 0.0
C786 C 0.09228 0.40808 0.11238 0.0
C787 C 0.09167 0.38599 0.09583 0.0
H788 H 0.07064 0.43684 0.1305 0.0
H789 H 0.06565 0.22512 0.96638 0.0
H790 H 0.62738 0.23614 0.86156 0.0
H791 H 0.60401 0.19789 0.87699 0.0
H792 H 0.5488 0.24562 0.90923 0.0
H793 H 0.57208 0.28416 0.89361 0.0
H794 H 0.56372 0.21159 0.94366 0.0
H795 H 0.53437 0.20785 0.85491 0.0
H796 H 0.53836 0.20874 0.80713 0.0
H797 H 0.57987 0.14107 0.80808 0.0
H798 H 0.57643 0.13997 0.85596 0.0
H799 H 0.48504 0.10972 0.98142 0.0
H800 H 0.49731 0.14478 0.95296 0.0
H801 H 0.55838 0.10239 0.92508 0.0
H802 H 0.54561 0.06669 0.95323 0.0
H803 H 0.53747 0.13416 0.88683 0.0
H804 H 0.56945 0.14087 0.97638 0.0
H805 H 0.56494 0.14026 0.02414 0.0
H806 H 0.5176 0.20346 0.02122 0.0
H807 H 0.52152 0.20415 0.97335 0.0
C808 C 0.61003 0.2385 0.87152 0.0
C809 C 0.60148 0.26318 0.8762 0.0
C810 C 0.59671 0.21661 0.88035 0.0
C811 C 0.57449 0.21888 0.89392 0.0
C812 C 0.56588 0.24346 0.8987 0.0
C813 C 0.57923 0.26544 0.88987 0.0
C814 C 0.56103 0.19562 0.90416 0.0
C815 C 0.55756 0.19487 0.93114 0.0
C816 C 0.55347 0.1736 0.88789 0.0
C817 C 0.55529 0.17394 0.85905 0.0
C818 C 0.54448 0.19325 0.84496 0.0
C819 C 0.54663 0.19378 0.81785 0.0
C820 C 0.5594 0.175 0.80458 0.0
C821 C 0.56999 0.1556 0.81839 0.0
C822 C 0.56791 0.155 0.84551 0.0
C823 C 0.50055 0.10751 0.96852 0.0
C824 C 0.51461 0.08577 0.96961 0.0
C825 C 0.50755 0.12753 0.95233 0.0
C826 C 0.52908 0.12639 0.93745 0.0
C827 C 0.54175 0.10361 0.93655 0.0
C828 C 0.53446 0.08326 0.95255 0.0
C829 C 0.5403 0.15024 0.92623 0.0
C830 C 0.54343 0.15104 0.89919 0.0
C831 C 0.54752 0.17242 0.94241 0.0
C832 C 0.5456 0.1724 0.97127 0.0
C833 C 0.55797 0.15453 0.98591 0.0
C834 C 0.55552 0.15418 0.01299 0.0
C835 C 0.54094 0.17178 0.0257 0.0
C836 C 0.52886 0.18982 0.01135 0.0
C837 C 0.5312 0.19021 0.98424 0.0
H838 H 0.53906 0.17146 0.04667 0.0
H839 H 0.56107 0.17546 0.78359 0.0
H840 H 0.90501 0.70209 0.48436 0.0
H841 H 0.92733 0.73807 0.50975 0.0
H842 H 0.96514 0.76217 0.44042 0.0
H843 H 0.94377 0.72586 0.41536 0.0
H844 H 0.99583 0.77075 0.48215 0.0
H845 H 0.90787 0.78563 0.45949 0.0
H846 H 0.8622 0.77523 0.46182 0.0
H847 H 0.86752 0.78326 0.54558 0.0
H848 H 0.9133 0.79346 0.5437 0.0
H849 H 0.99759 0.89565 0.44929 0.0
H850 H 0.99263 0.85037 0.45893 0.0
H851 H 0.9731 0.87039 0.53799 0.0
H852 H 0.97793 0.91666 0.52809 0.0
H853 H 0.93828 0.83553 0.51267 0.0
H854 H 0.0259 0.83856 0.52878 0.0
H855 H 0.07019 0.85234 0.52135 0.0
H856 H 0.06523 0.81275 0.44607 0.0
H857 H 0.02084 0.79908 0.45279 0.0
C858 C 0.91863 0.71465 0.47474 0.0
C859 C 0.92235 0.71139 0.44775 0.0
C860 C 0.93124 0.73529 0.48924 0.0
C861 C 0.94761 0.75307 0.47692 0.0
C862 C 0.95258 0.74876 0.4504 0.0
C863 C 0.94012 0.72815 0.43599 0.0
C864 C 0.95757 0.77775 0.49025 0.0
C865 C 0.98336 0.78486 0.48919 0.0
C866 C 0.94142 0.79587 0.50039 0.0
C867 C 0.91396 0.78996 0.50148 0.0
C868 C 0.89929 0.78504 0.47839 0.0
C869 C 0.8734 0.7792 0.47963 0.0
C870 C 0.86198 0.7785 0.50383 0.0
C871 C 0.87641 0.78374 0.52685 0.0
C872 C 0.90231 0.78954 0.52571 0.0
C873 C 0.99278 0.89053 0.46894 0.0
C874 C 0.98801 0.90959 0.48791 0.0
C875 C 0.99016 0.86457 0.47452 0.0
C876 C 0.98284 0.85691 0.4993 0.0
C877 C 0.97903 0.87593 0.51881 0.0
C878 C 0.98189 0.90225 0.51322 0.0
C879 C 0.97629 0.82904 0.5028 0.0
C880 C 0.95111 0.82119 0.50705 0.0
C881 C 0.99295 0.81034 0.49521 0.0
C882 C 0.02 0.81764 0.49141 0.0
C883 C 0.03424 0.83277 0.51065 0.0
C884 C 0.05936 0.8406 0.50653 0.0
C885 C 0.0705 0.83336 0.48329 0.0
C886 C 0.05658 0.81824 0.46412 0.0
C887 C 0.03145 0.81036 0.46811 0.0
H888 H 0.08991 0.83948 0.48013 0.0
H889 H 0.84194 0.77397 0.50476 0.0
H890 H 0.45685 0.80311 0.55777 0.0
H891 H 0.46712 0.75903 0.54647 0.0
H892 H 0.39357 0.72995 0.56927 0.0
H893 H 0.38315 0.77398 0.58058 0.0
H894 H 0.42924 0.70145 0.58813 0.0
H895 H 0.40791 0.73513 0.50476 0.0
H896 H 0.41118 0.76631 0.4697 0.0
H897 H 0.48859 0.75188 0.46047 0.0
H898 H 0.48587 0.72084 0.49574 0.0
H899 H 0.42375 0.57571 0.53434 0.0
H900 H 0.41576 0.62092 0.54184 0.0
H901 H 0.49031 0.64414 0.51716 0.0
H902 H 0.49828 0.59865 0.50891 0.0
H903 H 0.45658 0.67617 0.49955 0.0
H904 H 0.47777 0.64176 0.58205 0.0
H905 H 0.47463 0.61048 0.61703 0.0
H906 H 0.39789 0.62654 0.62816 0.0
H907 H 0.40047 0.65767 0.59298 0.0
C908 C 0.44279 0.78734 0.5602 0.0
C909 C 0.41914 0.79205 0.56999 0.0
C910 C 0.4487 0.76217 0.55374 0.0
C911 C 0.431 0.74123 0.55672 0.0
C912 C 0.40751 0.74583 0.56682 0.0
C913 C 0.40162 0.77099 0.57336 0.0
C914 C 0.43699 0.71447 0.54957 0.0
C915 C 0.43492 0.69587 0.56867 0.0
C916 C 0.44513 0.70735 0.52439 0.0
C917 C 0.44675 0.72586 0.50306 0.0
C918 C 0.42568 0.73874 0.49538 0.0
C919 C 0.42743 0.75637 0.47545 0.0
C920 C 0.4501 0.76112 0.46291 0.0
C921 C 0.47105 0.7482 0.47022 0.0
C922 C 0.46941 0.73057 0.49017 0.0
C923 C 0.43843 0.5904 0.5303 0.0
C924 C 0.46178 0.58361 0.52136 0.0
C925 C 0.43384 0.61626 0.53468 0.0
C926 C 0.45265 0.63588 0.53069 0.0
C927 C 0.4756 0.62927 0.52057 0.0
C928 C 0.48013 0.6033 0.51588 0.0
C929 C 0.44848 0.66311 0.53802 0.0
C930 C 0.45097 0.6818 0.51902 0.0
C931 C 0.44078 0.67037 0.56333 0.0
C932 C 0.43927 0.6519 0.58474 0.0
C933 C 0.46019 0.63851 0.59185 0.0
C934 C 0.45851 0.62082 0.61173 0.0
C935 C 0.43606 0.61649 0.62478 0.0
C936 C 0.41526 0.6299 0.61803 0.0
C937 C 0.41683 0.6476 0.59814 0.0
H938 H 0.43479 0.60277 0.64015 0.0
H939 H 0.45141 0.77478 0.44749 0.0
H940 H 0.91994 0.93933 0.79466 0.0
H941 H 0.93084 0.94945 0.75016 0.0
H942 H 0.8903 0.87884 0.72107 0.0
H943 H 0.87944 0.86841 0.76599 0.0
H944 H 0.93425 0.88726 0.69609 0.0
H945 H 0.86439 0.93613 0.71413 0.0
H946 H 0.83905 0.96525 0.73967 0.0
H947 H 0.89746 0.02628 0.73651 0.0
H948 H 0.92332 0.99743 0.71129 0.0
H949 H 0.95779 0.9447 0.56951 0.0
H950 H 0.93437 0.92405 0.60497 0.0
H951 H 0.96896 0.98136 0.6604 0.0
H952 H 0.99202 0.00176 0.62581 0.0
H953 H 0.91799 0.97421 0.66576 0.0
H954 H 0.99013 0.92221 0.65532 0.0
H955 H 0.01575 0.89328 0.62984 0.0
H956 H 0.95197 0.83842 0.61784 0.0
H957 H 0.9259 0.8672 0.64303 0.0
C958 C 0.91315 0.92601 0.77881 0.0
C959 C 0.89848 0.90326 0.78383 0.0
C960 C 0.91942 0.93181 0.75334 0.0
C961 C 0.91092 0.91521 0.73215 0.0
C962 C 0.89691 0.89204 0.73708 0.0
C963 C 0.89074 0.8861 0.76273 0.0
C964 C 0.91675 0.92251 0.70505 0.0
C965 C 0.93019 0.90604 0.68919 0.0
C966 C 0.91145 0.94699 0.69594 0.0
C967 C 0.89584 0.96455 0.71088 0.0
C968 C 0.87189 0.95572 0.71899 0.0
C969 C 0.85743 0.97219 0.73341 0.0
C970 C 0.86665 0.99759 0.73973 0.0
C971 C 0.89033 0.0066 0.73159 0.0
C972 C 0.90489 0.99021 0.71719 0.0
C973 C 0.96028 0.95285 0.58927 0.0
C974 C 0.97684 0.97486 0.59477 0.0
C975 C 0.94697 0.94102 0.60948 0.0
C976 C 0.94992 0.95123 0.63533 0.0
C977 C 0.96627 0.97322 0.64063 0.0
C978 C 0.97958 0.9848 0.62072 0.0
C979 C 0.93642 0.93949 0.65743 0.0
C980 C 0.92145 0.95516 0.67236 0.0
C981 C 0.94027 0.91433 0.66558 0.0
C982 C 0.95602 0.89697 0.65074 0.0
C983 C 0.98154 0.90406 0.64707 0.0
C984 C 0.99614 0.88768 0.63272 0.0
C985 C 0.98547 0.86406 0.62214 0.0
C986 C 0.9602 0.85674 0.62599 0.0
C987 C 0.94551 0.87306 0.64032 0.0
H988 H 0.9968 0.85142 0.61101 0.0
H989 H 0.85542 0.01031 0.7509 0.0
H990 H 0.61477 0.1328 0.25991 0.0
H991 H 0.59627 0.10788 0.22212 0.0
H992 H 0.57684 0.0439 0.27074 0.0
H993 H 0.59532 0.06899 0.30905 0.0
H994 H 0.59665 0.02745 0.22513 0.0
H995 H 0.53094 0.07909 0.24885 0.0
H996 H 0.51086 0.1185 0.26233 0.0
H997 H 0.53161 0.15327 0.1906 0.0
H998 H 0.55216 0.11422 0.17683 0.0
H999 H 0.51371 0.99514 0.10125 0.0
H1000 H 0.52405 0.00164 0.14829 0.0
H1001 H 0.58845 0.05223 0.13085 0.0
H1002 H 0.57849 0.04583 0.08422 0.0
H1003 H 0.53662 0.06706 0.16597 0.0
H1004 H 0.61472 0.01791 0.15412 0.0
H1005 H 0.63231 0.97699 0.14059 0.0
H1006 H 0.58179 0.93541 0.19059 0.0
H1007 H 0.56384 0.97614 0.20421 0.0
C1008 C 0.60622 0.1136 0.26275 0.0
C1009 C 0.60625 0.10305 0.28762 0.0
C1010 C 0.5957 0.09931 0.24106 0.0
C1011 C 0.58478 0.07416 0.24364 0.0
C1012 C 0.58507 0.06331 0.26832 0.0
C1013 C 0.59566 0.07766 0.29016 0.0
C1014 C 0.57357 0.05944 0.2202 0.0
C1015 C 0.58313 0.0359 0.21251 0.0
C1016 C 0.55564 0.07015 0.20376 0.0
C1017 C 0.5432 0.09372 0.21186 0.0
C1018 C 0.53137 0.0952 0.23601 0.0
C1019 C 0.51988 0.11747 0.2437 0.0
C1020 C 0.51998 0.13839 0.22734 0.0
C1021 C 0.53154 0.13705 0.20324 0.0
C1022 C 0.54308 0.11482 0.19546 0.0
C1023 C 0.53056 0.0069 0.10745 0.0
C1024 C 0.54519 0.02017 0.08909 0.0
C1025 C 0.53635 0.01067 0.13428 0.0
C1026 C 0.55697 0.02744 0.14288 0.0
C1027 C 0.57255 0.03912 0.12451 0.0
C1028 C 0.5668 0.03545 0.09788 0.0
C1029 C 0.56061 0.036 0.17064 0.0
C1030 C 0.54959 0.05839 0.17906 0.0
C1031 C 0.57685 0.02415 0.18781 0.0
C1032 C 0.58792 -9e-05 0.18003 0.0
C1033 C 0.60735 0.0 0.16211 0.0
C1034 C 0.61738 0.97687 0.15446 0.0
C1035 C 0.60816 0.9536 0.16471 0.0
C1036 C 0.58892 0.95344 0.18267 0.0
C1037 C 0.57884 0.97652 0.19038 0.0
H1038 H 0.61593 0.93572 0.15875 0.0
H1039 H 0.51107 0.15562 0.23333 0.0
H1040 H 0.373 0.6311 0.24413 0.0
H1041 H 0.3748 0.62043 0.29033 0.0
H1042 H 0.4221 0.55883 0.27149 0.0
H1043 H 0.41964 0.56894 0.22537 0.0
H1044 H 0.39052 0.54383 0.30706 0.0
H1045 H 0.4455 0.6223 0.29387 0.0
H1046 H 0.45311 0.66763 0.28157 0.0
H1047 H 0.40115 0.69127 0.33868 0.0
H1048 H 0.39308 0.64602 0.35111 0.0
H1049 H 0.49564 0.54229 0.38527 0.0
H1050 H 0.46826 0.56513 0.35699 0.0
H1051 H 0.40971 0.55816 0.41313 0.0
H1052 H 0.43739 0.53511 0.44197 0.0
H1053 H 0.43156 0.61134 0.36838 0.0
H1054 H 0.37956 0.52879 0.38304 0.0
H1055 H 0.3784 0.48303 0.39463 0.0
H1056 H 0.42965 0.46758 0.33382 0.0
H1057 H 0.43131 0.51335 0.32213 0.0
C1058 C 0.38359 0.61516 0.24995 0.0
C1059 C 0.39634 0.60091 0.23133 0.0
C1060 C 0.38459 0.60908 0.27628 0.0
C1061 C 0.39882 0.58904 0.28443 0.0
C1062 C 0.41088 0.5743 0.26566 0.0
C1063 C 0.40955 0.5801 0.23933 0.0
C1064 C 0.40284 0.5842 0.31251 0.0
C1065 C 0.39887 0.55878 0.32065 0.0
C1066 C 0.41341 0.60369 0.33051 0.0
C1067 C 0.41848 0.63083 0.32319 0.0
C1068 C 0.43563 0.63718 0.30369 0.0
C1069 C 0.44002 0.66284 0.29671 0.0
C1070 C 0.42756 0.68231 0.30928 0.0
C1071 C 0.41074 0.67617 0.32892 0.0
C1072 C 0.40626 0.65053 0.33595 0.0
C1073 C 0.47716 0.54615 0.39194 0.0
C1074 C 0.46843 0.53666 0.41555 0.0
C1075 C 0.46163 0.55936 0.37586 0.0
C1076 C 0.43701 0.56311 0.38297 0.0
C1077 C 0.42872 0.5554 0.40743 0.0
C1078 C 0.44449 0.54231 0.42382 0.0
C1079 C 0.41965 0.57104 0.36248 0.0
C1080 C 0.42154 0.59686 0.35541 0.0
C1081 C 0.4072 0.55199 0.3454 0.0
C1082 C 0.40558 0.52438 0.35179 0.0
C1083 C 0.39059 0.5156 0.37219 0.0
C1084 C 0.38985 0.48969 0.37878 0.0
C1085 C 0.40393 0.4724 0.36496 0.0
C1086 C 0.41873 0.48098 0.34449 0.0
C1087 C 0.41955 0.50688 0.33785 0.0
H1088 H 0.40338 0.45236 0.37012 0.0
H1089 H 0.43097 0.70216 0.30384 0.0
H1090 H 0.11808 0.44876 0.73247 0.0
H1091 H 0.10586 0.46392 0.77561 0.0
H1092 H 0.05285 0.39754 0.77951 0.0
H1093 H 0.06407 0.38287 0.73576 0.0
H1094 H 0.03342 0.43896 0.79964 0.0
H1095 H 0.11059 0.39956 0.81108 0.0
H1096 H 0.15459 0.39167 0.80242 0.0
H1097 H 0.17769 0.47028 0.82582 0.0
H1098 H 0.13376 0.47876 0.83426 0.0
H1099 H 0.01849 0.45983 0.93625 0.0
H1100 H 0.03408 0.43698 0.8977 0.0
H1101 H 0.07573 0.50705 0.87669 0.0
H1102 H 0.05962 0.52999 0.91456 0.0
H1103 H 0.10088 0.45913 0.86747 0.0
H1104 H 0.02246 0.49863 0.85104 0.0
H1105 H 0.9784 0.50587 0.8601 0.0
H1106 H 0.95779 0.42487 0.84676 0.0
H1107 H 0.00188 0.41711 0.83805 0.0
C1108 C 0.10344 0.43762 0.74222 0.0
C1109 C 0.09223 0.41444 0.73067 0.0
C1110 C 0.09671 0.44615 0.76708 0.0
C1111 C 0.07888 0.43154 0.7811 0.0
C1112 C 0.06686 0.409 0.7692 0.0
C1113 C 0.07345 0.40053 0.74425 0.0
C1114 C 0.07316 0.43956 0.80833 0.0
C1115 C 0.04815 0.4429 0.81455 0.0
C1116 C 0.09236 0.44492 0.82784 0.0
C1117 C 0.11885 0.43984 0.82311 0.0
C1118 C 0.12503 0.41521 0.81423 0.0
C1119 C 0.14996 0.41063 0.80937 0.0
C1120 C 0.16892 0.43047 0.81352 0.0
C1121 C 0.16299 0.45493 0.8226 0.0
C1122 C 0.13808 0.45963 0.82745 0.0
C1123 C 0.03167 0.47002 0.92387 0.0
C1124 C 0.03796 0.49657 0.92824 0.0
C1125 C 0.04042 0.45705 0.90183 0.0
C1126 C 0.05588 0.47044 0.88432 0.0
C1127 C 0.06387 0.4964 0.89001 0.0
C1128 C 0.05469 0.50946 0.91161 0.0
C1129 C 0.06129 0.45865 0.85852 0.0
C1130 C 0.0862 0.45474 0.85258 0.0
C1131 C 0.04202 0.45256 0.83933 0.0
C1132 C 0.01549 0.45724 0.84424 0.0
C1133 C 0.00857 0.48233 0.85029 0.0
C1134 C 0.98359 0.48654 0.85531 0.0
C1135 C 0.96532 0.46583 0.8541 0.0
C1136 C 0.97198 0.44088 0.84776 0.0
C1137 C 0.99696 0.43657 0.84277 0.0
H1138 H 0.94598 0.46912 0.85799 0.0
H1139 H 0.18821 0.42689 0.80973 0.0
H1140 H 0.7543 0.88758 0.9174 0.0
H1141 H 0.71447 0.9053 0.92769 0.0
H1142 H 0.75396 0.9774 0.95411 0.0
H1143 H 0.79395 0.95969 0.944 0.0
H1144 H 0.71731 0.96432 0.98678 0.0
H1145 H 0.72276 0.97194 0.89455 0.0
H1146 H 0.72936 0.95727 0.84908 0.0
H1147 H 0.66679 0.90085 0.85256 0.0
H1148 H 0.66002 0.91493 0.89818 0.0
H1149 H 0.59163 0.01134 0.99384 0.0
H1150 H 0.6361 0.00964 0.98237 0.0
H1151 H 0.62088 0.93068 0.95387 0.0
H1152 H 0.57743 0.93213 0.96481 0.0
H1153 H 0.64809 0.95827 0.91987 0.0
H1154 H 0.64804 0.9456 0.01401 0.0
H1155 H 0.64132 0.95959 0.05969 0.0
H1156 H 0.69338 0.02569 0.05211 0.0
H1157 H 0.70016 0.01223 0.00625 0.0
C1158 C 0.75452 0.90725 0.92524 0.0
C1159 C 0.77732 0.92224 0.92975 0.0
C1160 C 0.73172 0.91739 0.93112 0.0
C1161 C 0.73115 0.94287 0.94128 0.0
C1162 C 0.7539 0.95774 0.94625 0.0
C1163 C 0.77675 0.94754 0.94051 0.0
C1164 C 0.70673 0.95379 0.94665 0.0
C1165 C 0.70233 0.96347 0.97199 0.0
C1166 C 0.68712 0.95279 0.92741 0.0
C1167 C 0.69097 0.94443 0.89985 0.0
C1168 C 0.71049 0.95631 0.88567 0.0
C1169 C 0.71425 0.9481 0.85986 0.0
C1170 C 0.69852 0.92812 0.84795 0.0
C1171 C 0.67896 0.91633 0.86181 0.0
C1172 C 0.67513 0.92445 0.88763 0.0
C1173 C 0.59786 0.99371 0.98509 0.0
C1174 C 0.58086 0.9719 0.98036 0.0
C1175 C 0.62323 0.99273 0.97859 0.0
C1176 C 0.63179 0.97 0.96719 0.0
C1177 C 0.61476 0.94848 0.96243 0.0
C1178 C 0.58978 0.94937 0.96892 0.0
C1179 C 0.65837 0.96764 0.96023 0.0
C1180 C 0.66326 0.95966 0.93449 0.0
C1181 C 0.67832 0.97016 0.97909 0.0
C1182 C 0.67436 0.97811 0.00665 0.0
C1183 C 0.6579 0.96322 0.02204 0.0
C1184 C 0.6541 0.97103 0.04796 0.0
C1185 C 0.66684 0.99357 0.05877 0.0
C1186 C 0.68347 0.00828 0.04369 0.0
C1187 C 0.6873 0.00057 0.01775 0.0
H1188 H 0.66388 -0.00042 0.07884 0.0
H1189 H 0.70148 0.92179 0.82796 0.0
H1190 H 0.74897 0.14236 0.46224 0.0
H1191 H 0.78486 0.12306 0.4825 0.0
H1192 H 0.78133 0.06418 0.42051 0.0
H1193 H 0.74527 0.08298 0.40055 0.0
H1194 H 0.7902 0.04411 0.46751 0.0
H1195 H 0.82199 0.11714 0.41902 0.0
H1196 H 0.82613 0.16301 0.40797 0.0
H1197 H 0.85298 0.18416 0.48618 0.0
H1198 H 0.84865 0.1384 0.49779 0.0
H1199 H 0.90814 0.00139 0.4472 0.0
H1200 H 0.86894 0.02213 0.4454 0.0
H1201 H 0.89126 0.06783 0.51535 0.0
H1202 H 0.93117 0.04706 0.51729 0.0
H1203 H 0.87173 0.09653 0.47511 0.0
H1204 H 0.8469 0.02078 0.52015 0.0
H1205 H 0.84449 0.97424 0.52843 0.0
H1206 H 0.80563 0.95752 0.45459 0.0
H1207 H 0.80813 0.00393 0.44567 0.0
C1208 C 0.75561 0.12504 0.45321 0.0
C1209 C 0.74445 0.11428 0.4297 0.0
C1210 C 0.7762 0.11417 0.46469 0.0
C1211 C 0.78592 0.09235 0.45286 0.0
C1212 C 0.77417 0.08103 0.42996 0.0
C1213 C 0.7537 0.09191 0.41845 0.0
C1214 C 0.80898 0.08178 0.46341 0.0
C1215 C 0.80802 0.05556 0.46921 0.0
C1216 C 0.83211 0.09693 0.46632 0.0
C1217 C 0.83465 0.12441 0.45938 0.0
C1218 C 0.82854 0.1316 0.43393 0.0
C1219 C 0.83097 0.15757 0.42755 0.0
C1220 C 0.83972 0.1765 0.44639 0.0
C1221 C 0.84613 0.16949 0.47163 0.0
C1222 C 0.84369 0.14354 0.47812 0.0
C1223 C 0.90482 0.01576 0.46235 0.0
C1224 C 0.9228 0.0225 0.48247 0.0
C1225 C 0.88227 0.02751 0.46133 0.0
C1226 C 0.87703 0.04622 0.48044 0.0
C1227 C 0.89492 0.05326 0.50053 0.0
C1228 C 0.91762 0.04134 0.50165 0.0
C1229 C 0.85304 0.0587 0.47846 0.0
C1230 C 0.8538 0.08524 0.47419 0.0
C1231 C 0.82974 0.04382 0.47675 0.0
C1232 C 0.82778 0.01587 0.48222 0.0
C1233 C 0.83794 0.00717 0.50562 0.0
C1234 C 0.83655 0.98081 0.51043 0.0
C1235 C 0.82493 0.96293 0.49204 0.0
C1236 C 0.81461 0.97139 0.46883 0.0
C1237 C 0.81596 0.99774 0.46391 0.0
H1238 H 0.8239 0.94252 0.49579 0.0
H1239 H 0.8416 0.1966 0.44141 0.0
H1240 H 0.2906 0.62198 0.04132 0.0
H1241 H 0.24689 0.61204 0.02653 0.0
H1242 H 0.2338 0.5665 0.0942 0.0
H1243 H 0.27757 0.57553 0.10852 0.0
H1244 H 0.21065 0.54312 0.05306 0.0
H1245 H 0.21748 0.62859 0.09255 0.0
H1246 H 0.2341 0.67401 0.09891 0.0
H1247 H 0.21005 0.68925 0.02072 0.0
H1248 H 0.19359 0.64377 0.01377 0.0
H1249 H 0.08515 0.55846 0.08516 0.0
H1250 H 0.12912 0.57414 0.08345 0.0
H1251 H 0.12579 0.56474 0.99946 0.0
H1252 H 0.08154 0.54844 0.00086 0.0
H1253 H 0.15697 0.61609 0.04104 0.0
H1254 H 0.15127 0.52433 0.00448 0.0
H1255 H 0.13105 0.48016 0.0062 0.0
H1256 H 0.15051 0.47898 0.088 0.0
H1257 H 0.17052 0.52331 0.08678 0.0
C1258 C 0.27851 0.60947 0.05277 0.0
C1259 C 0.28747 0.59971 0.0762 0.0
C1260 C 0.2535 0.604 0.04443 0.0
C1261 C 0.23702 0.58881 0.05944 0.0
C1262 C 0.24617 0.57831 0.08233 0.0
C1263 C 0.27113 0.5837 0.09063 0.0
C1264 C 0.20999 0.58456 0.05207 0.0
C1265 C 0.19907 0.55912 0.05009 0.0
C1266 C 0.19471 0.6054 0.04842 0.0
C1267 C 0.20463 0.63271 0.05251 0.0
C1268 C 0.21596 0.64157 0.07662 0.0
C1269 C 0.2253 0.66733 0.08036 0.0
C1270 C 0.22322 0.68449 0.0602 0.0
C1271 C 0.21172 0.67592 0.03629 0.0
C1272 C 0.20237 0.65016 0.03244 0.0
C1273 C 0.09352 0.56015 0.06622 0.0
C1274 C 0.07996 0.55179 0.04314 0.0
C1275 C 0.11862 0.56925 0.06532 0.0
C1276 C 0.13055 0.57036 0.04138 0.0
C1277 C 0.11673 0.56394 0.0181 0.0
C1278 C 0.09152 0.55462 0.01896 0.0
C1279 C 0.15808 0.57482 0.04155 0.0
C1280 C 0.16893 0.60021 0.0428 0.0
C1281 C 0.17328 0.55406 0.04506 0.0
C1282 C 0.16223 0.52709 0.04555 0.0
C1283 C 0.15114 0.51465 0.02283 0.0
C1284 C 0.13972 0.48961 0.02371 0.0
C1285 C 0.13945 0.47678 0.04721 0.0
C1286 C 0.15072 0.48893 0.06983 0.0
C1287 C 0.16212 0.51399 0.06904 0.0
H1288 H 0.13054 0.45743 0.04788 0.0
H1289 H 0.23045 0.70443 0.06313 0.0
H1290 H 0.20553 0.40612 0.5377 0.0
H1291 H 0.24352 0.42002 0.51509 0.0
H1292 H 0.25865 0.48296 0.5719 0.0
H1293 H 0.22039 0.46945 0.59455 0.0
H1294 H 0.26769 0.47204 0.49585 0.0
H1295 H 0.30662 0.47306 0.59527 0.0
H1296 H 0.29981 0.45352 0.638 0.0
H1297 H 0.27907 0.37995 0.59923 0.0
H1298 H 0.28554 0.39922 0.55634 0.0
H1299 H 0.40035 0.51133 0.49135 0.0
H1300 H 0.35488 0.50512 0.49591 0.0
H1301 H 0.3618 0.42476 0.51123 0.0
H1302 H 0.40732 0.43132 0.50799 0.0
H1303 H 0.33984 0.44637 0.5494 0.0
H1304 H 0.32927 0.44678 0.45535 0.0
H1305 H 0.3356 0.46496 0.41205 0.0
H1306 H 0.30013 0.53293 0.43677 0.0
H1307 H 0.29376 0.51523 0.48031 0.0
C1308 C 0.21637 0.42351 0.54488 0.0
C1309 C 0.21002 0.43657 0.56809 0.0
C1310 C 0.23809 0.43141 0.53188 0.0
C1311 C 0.25381 0.45246 0.54185 0.0
C1312 C 0.24666 0.46667 0.56391 0.0
C1313 C 0.22494 0.4588 0.57694 0.0
C1314 C 0.27954 0.45657 0.53216 0.0
C1315 C 0.28359 0.46665 0.50748 0.0
C1316 C 0.30007 0.44915 0.5472 0.0
C1317 C 0.29659 0.43749 0.57281 0.0
C1318 C 0.30071 0.4527 0.59597 0.0
C1319 C 0.29682 0.44171 0.62016 0.0
C1320 C 0.28903 0.41551 0.62133 0.0
C1321 C 0.28507 0.40025 0.5983 0.0
C1322 C 0.28878 0.41119 0.57407 0.0
C1323 C 0.39201 0.49214 0.49472 0.0
C1324 C 0.40723 0.47179 0.49948 0.0
C1325 C 0.36599 0.4886 0.49736 0.0
C1326 C 0.35487 0.4645 0.50413 0.0
C1327 C 0.36996 0.4436 0.50629 0.0
C1328 C 0.39593 0.44727 0.50425 0.0
C1329 C 0.32849 0.46176 0.51267 0.0
C1330 C 0.3242 0.45194 0.53745 0.0
C1331 C 0.30792 0.46939 0.4975 0.0
C1332 C 0.31121 0.47976 0.47115 0.0
C1333 C 0.32292 0.46565 0.45159 0.0
C1334 C 0.32651 0.47587 0.427 0.0
C1335 C 0.31837 0.50013 0.42169 0.0
C1336 C 0.30646 0.51415 0.44092 0.0
C1337 C 0.3028 0.50401 0.46553 0.0
H1338 H 0.32125 0.50804 0.40267 0.0
H1339 H 0.28606 0.40702 0.64007 0.0
H1340 H 0.88111 0.75713 0.91552 0.0
H1341 H 0.89479 0.71713 0.9333 0.0
H1342 H 0.94848 0.76161 0.98451 0.0
H1343 H 0.93498 0.80148 0.96686 0.0
H1344 H 0.96963 0.72279 0.95947 0.0
H1345 H 0.89272 0.7318 0.00669 0.0
H1346 H 0.84719 0.73615 0.00934 0.0
H1347 H 0.83209 0.66437 0.96537 0.0
H1348 H 0.87752 0.65977 0.96218 0.0
H1349 H 0.01361 0.62005 0.02659 0.0
H1350 H 0.99401 0.66051 0.01937 0.0
H1351 H 0.93057 0.61736 0.98045 0.0
H1352 H 0.9491 0.57708 0.99 0.0
H1353 H 0.91361 0.65616 -0.00012 0.0
H1354 H 0.98599 0.64664 0.94791 0.0
H1355 H 0.03045 0.64043 0.93959 0.0
H1356 H 0.05293 0.71021 0.98447 0.0
H1357 H 0.00862 0.71667 0.99331 0.0
C1358 C 0.89561 0.75837 0.93079 0.0
C1359 C 0.90705 0.78251 0.93965 0.0
C1360 C 0.90341 0.73549 0.94095 0.0
C1361 C 0.92258 0.73633 0.96039 0.0
C1362 C 0.93374 0.76043 0.96947 0.0
C1363 C 0.92605 0.78322 0.95928 0.0
C1364 C 0.93185 0.71224 0.97067 0.0
C1365 C 0.95745 0.70838 0.96866 0.0
C1366 C 0.91582 0.69293 0.98171 0.0
C1367 C 0.88852 0.69555 0.98405 0.0
C1368 C 0.87969 0.71702 0.99748 0.0
C1369 C 0.8539 0.71952 0.99908 0.0
C1370 C 0.83676 0.70058 0.98749 0.0
C1371 C 0.84538 0.67904 0.97434 0.0
C1372 C 0.87114 0.67646 0.97265 0.0
C1373 C 0.99505 0.61933 0.01743 0.0
C1374 C 0.9827 0.59559 0.00908 0.0
C1375 C 0.98401 0.64244 0.01283 0.0
C1376 C 0.96116 0.64224 0.99839 0.0
C1377 C 0.94821 0.61829 0.99149 0.0
C1378 C 0.95877 0.5952 0.99703 0.0
C1379 C 0.95158 0.66665 0.98886 0.0
C1380 C 0.92591 0.67057 0.99086 0.0
C1381 C 0.96739 0.6857 0.97697 0.0
C1382 C 0.99403 0.68199 0.97148 0.0
C1383 C 0.00044 0.66059 0.9561 0.0
C1384 C 0.0256 0.65702 0.95129 0.0
C1385 C 0.0445 0.67487 0.96155 0.0
C1386 C 0.03827 0.69638 0.97657 0.0
C1387 C 0.01314 0.70001 0.98147 0.0
H1388 H 0.06397 0.67207 0.95782 0.0
H1389 H 0.81681 0.70256 0.98873 0.0
H1390 H 0.36863 0.75792 0.11848 0.0
H1391 H 0.37627 0.80483 0.12009 0.0
H1392 H 0.45614 0.79717 0.12289 0.0
H1393 H 0.44869 0.75043 0.12335 0.0
H1394 H 0.4465 0.83771 0.15174 0.0
H1395 H 0.42114 0.80372 0.06407 0.0
H1396 H 0.39219 0.78064 0.03124 0.0
H1397 H 0.33526 0.83197 0.04999 0.0
H1398 H 0.36384 0.85518 0.08312 0.0
H1399 H 0.50981 0.91217 0.06475 0.0
H1400 H 0.48927 0.88756 0.09826 0.0
H1401 H 0.4219 0.92709 0.08555 0.0
H1402 H 0.4427 0.95144 0.05103 0.0
H1403 H 0.41344 0.87885 0.07355 0.0
H1404 H 0.45038 0.92188 0.14955 0.0
H1405 H 0.48422 0.94461 0.17709 0.0
H1406 H 0.52462 0.87617 0.17649 0.0
H1407 H 0.4913 0.85312 0.14859 0.0
C1408 C 0.38783 0.76617 0.12008 0.0
C1409 C 0.40805 0.75026 0.1204 0.0
C1410 C 0.39216 0.79306 0.12079 0.0
C1411 C 0.41678 0.80457 0.12119 0.0
C1412 C 0.43695 0.78879 0.12255 0.0
C1413 C 0.43265 0.76197 0.12231 0.0
C1414 C 0.42187 0.83269 0.11769 0.0
C1415 C 0.43925 0.84688 0.13475 0.0
C1416 C 0.41165 0.84494 0.09607 0.0
C1417 C 0.39444 0.8309 0.07631 0.0
C1418 C 0.40237 0.80993 0.06131 0.0
C1419 C 0.38606 0.79686 0.04264 0.0
C1420 C 0.36186 0.80477 0.03861 0.0
C1421 C 0.35397 0.82581 0.05319 0.0
C1422 C 0.37021 0.83892 0.07192 0.0
C1423 C 0.49109 0.91663 0.07016 0.0
C1424 C 0.4777 0.93343 0.05539 0.0
C1425 C 0.47931 0.90263 0.08953 0.0
C1426 C 0.45389 0.9053 0.09452 0.0
C1427 C 0.44151 0.92469 0.08205 0.0
C1428 C 0.4534 0.93872 0.06247 0.0
C1429 C 0.4394 0.88363 0.10669 0.0
C1430 C 0.42005 0.87042 0.09128 0.0
C1431 C 0.44835 0.87218 0.12945 0.0
C1432 C 0.46818 0.88571 0.14698 0.0
C1433 C 0.46648 0.91166 0.15524 0.0
C1434 C 0.48561 0.92462 0.17091 0.0
C1435 C 0.50655 0.91183 0.17855 0.0
C1436 C 0.50836 0.88603 0.17062 0.0
C1437 C 0.4893 0.87298 0.15494 0.0
H1438 H 0.52138 0.92193 0.1906 0.0
H1439 H 0.34926 0.79464 0.02413 0.0
H1440 H 0.04254 0.29281 0.59701 0.0
H1441 H 0.02069 0.25284 0.57929 0.0
H1442 H 0.06869 0.25389 0.51302 0.0
H1443 H 0.09045 0.29438 0.53036 0.0
H1444 H 0.01638 0.22954 0.50274 0.0
H1445 H 0.09032 0.22523 0.55757 0.0
H1446 H 0.11775 0.23734 0.59623 0.0
H1447 H 0.05985 0.20887 0.64647 0.0
H1448 H 0.03186 0.19709 0.60806 0.0
H1449 H 0.03134 0.08921 0.4962 0.0
H1450 H 0.03253 0.13632 0.49228 0.0
H1451 H 0.9875 0.14221 0.56055 0.0
H1452 H 0.98654 0.09549 0.56457 0.0
H1453 H 0.03804 0.16389 0.56582 0.0
H1454 H 0.96509 0.16505 0.50847 0.0
H1455 H 0.93954 0.1526 0.46856 0.0
H1456 H 0.99834 0.18456 0.42132 0.0
H1457 H 0.02435 0.19699 0.46098 0.0
C1458 C 0.04783 0.2852 0.57813 0.0
C1459 C 0.06853 0.29654 0.56532 0.0
C1460 C 0.0353 0.26232 0.56803 0.0
C1461 C 0.04328 0.25033 0.54501 0.0
C1462 C 0.06224 0.26289 0.53078 0.0
C1463 C 0.07484 0.28583 0.5409 0.0
C1464 C 0.03552 0.22274 0.53912 0.0
C1465 C 0.02121 0.21508 0.51636 0.0
C1466 C 0.04202 0.20395 0.55683 0.0
C1467 C 0.05891 0.21057 0.57997 0.0
C1468 C 0.08336 0.22177 0.57687 0.0
C1469 C 0.09901 0.22855 0.59873 0.0
C1470 C 0.09052 0.22394 0.6238 0.0
C1471 C 0.06637 0.21248 0.62704 0.0
C1472 C 0.05061 0.20575 0.60524 0.0
C1473 C 0.02055 0.1005 0.5094 0.0
C1474 C 0.0088 0.08896 0.53065 0.0
C1475 C 0.02131 0.12737 0.50724 0.0
C1476 C 0.01027 0.1427 0.52629 0.0
C1477 C 0.99609 0.1307 0.54566 0.0
C1478 C 0.99545 0.10403 0.54788 0.0
C1479 C 0.01809 0.17055 0.52986 0.0
C1480 C 0.03293 0.17825 0.55219 0.0
C1481 C 0.01237 0.18905 0.51151 0.0
C1482 C 0.99674 0.18176 0.48767 0.0
C1483 C 0.97265 0.16925 0.48956 0.0
C1484 C 0.95805 0.16225 0.46699 0.0
C1485 C 0.96732 0.16775 0.44242 0.0
C1486 C 0.99118 0.18032 0.44037 0.0
C1487 C 0.00584 0.18739 0.46289 0.0
H1488 H 0.956 0.16231 0.42497 0.0
H1489 H 0.10267 0.22919 0.64071 0.0
H1490 H 0.56774 0.22837 0.41044 0.0
H1491 H 0.54306 0.26281 0.4269 0.0
H1492 H 0.60032 0.28465 0.48614 0.0
H1493 H 0.62509 0.24971 0.47006 0.0
H1494 H 0.54944 0.29001 0.50312 0.0
H1495 H 0.60454 0.31604 0.43559 0.0
H1496 H 0.62469 0.31243 0.39302 0.0
H1497 H 0.55309 0.31459 0.35339 0.0
H1498 H 0.53244 0.31777 0.39579 0.0
H1499 H 0.52167 0.4247 0.51266 0.0
H1500 H 0.53858 0.38216 0.51201 0.0
H1501 H 0.49046 0.35814 0.44517 0.0
H1502 H 0.47398 0.40071 0.44535 0.0
H1503 H 0.53863 0.35403 0.43503 0.0
H1504 H 0.48407 0.32987 0.50536 0.0
H1505 H 0.4665 0.33632 0.54894 0.0
H1506 H 0.5399 0.33432 0.58465 0.0
H1507 H 0.55796 0.32809 0.54123 0.0
C1508 C 0.57479 0.23991 0.42749 0.0
C1509 C 0.59849 0.23641 0.43881 0.0
C1510 C 0.56069 0.25968 0.43679 0.0
C1511 C 0.57 0.27639 0.45755 0.0
C1512 C 0.59283 0.27193 0.4701 0.0
C1513 C 0.60704 0.25214 0.46073 0.0
C1514 C 0.55738 0.30024 0.46368 0.0
C1515 C 0.54719 0.30416 0.48838 0.0
C1516 C 0.55459 0.31869 0.44444 0.0
C1517 C 0.56691 0.31683 0.41887 0.0
C1518 C 0.59306 0.31548 0.4178 0.0
C1519 C 0.60458 0.31356 0.3937 0.0
C1520 C 0.59017 0.3132 0.37051 0.0
C1521 C 0.56422 0.31482 0.37137 0.0
C1522 C 0.5526 0.31669 0.39544 0.0
C1523 C 0.51409 0.41005 0.49839 0.0
C1524 C 0.49674 0.41609 0.47883 0.0
C1525 C 0.52379 0.38573 0.49803 0.0
C1526 C 0.51593 0.36703 0.47839 0.0
C1527 C 0.49694 0.37235 0.46036 0.0
C1528 C 0.48748 0.39665 0.46053 0.0
C1529 C 0.52969 0.3435 0.47419 0.0
C1530 C 0.54053 0.33982 0.44981 0.0
C1531 C 0.53331 0.32564 0.49389 0.0
C1532 C 0.52239 0.32868 0.52003 0.0
C1533 C 0.49648 0.3309 0.5225 0.0
C1534 C 0.48643 0.3345 0.54717 0.0
C1535 C 0.50208 0.33575 0.56955 0.0
C1536 C 0.5278 0.33331 0.5673 0.0
C1537 C 0.53795 0.32969 0.54267 0.0
H1538 H 0.49428 0.33861 0.58863 0.0
H1539 H 0.59912 0.31174 0.35187 0.0
loop_
_geom_bond_atom_site_label_1
_geom_bond_atom_site_label_2
_geom_bond_distance
_geom_bond_site_symmetry_2
_ccdc_geom_bond_type
P0 O11 1.490 . S
P0 C14 1.812 . S
P0 C20 1.803 . S
P0 C26 1.819 . S
H1 C15 0.941 . S
H2 C16 0.939 . S
H3 C18 0.940 . S
H4 C19 0.940 . S
H5 C21 0.939 . S
H6 C22 0.942 . S
H7 C24 0.940 . S
H8 C25 0.939 . S
H9 C27 0.941 . S
H10 C31 0.939 . S
O11 P0 1.490 . S
H12 C28 0.939 . S
H13 C30 0.940 . S
C14 P0 1.812 . S
C14 C15 1.389 . S
C14 C19 1.391 . S
C15 H1 0.941 . S
C15 C14 1.389 . S
C15 C16 1.397 . S
C16 H2 0.939 . S
C16 C15 1.397 . S
C16 C17 1.378 . S
C17 C16 1.378 . S
C17 C18 1.378 . S
C18 H3 0.940 . S
C18 C17 1.378 . S
C18 C19 1.396 . S
C19 H4 0.940 . S
C19 C14 1.391 . S
C19 C18 1.396 . S
C20 P0 1.803 . S
C20 C21 1.378 . S
C20 C25 1.400 . S
C21 H5 0.939 . S
C21 C20 1.378 . S
C21 C22 1.361 . S
C22 H6 0.942 . S
C22 C21 1.361 . S
C22 C23 1.369 . S
C23 C22 1.369 . S
C23 C24 1.404 . S
C24 H7 0.940 . S
C24 C23 1.404 . S
C24 C25 1.389 . S
C25 H8 0.939 . S
C25 C20 1.400 . S
C25 C24 1.389 . S
C26 P0 1.819 . S
C26 C27 1.391 . S
C26 C31 1.391 . S
C27 H9 0.941 . S
C27 C26 1.391 . S
C27 C28 1.396 . S
C28 H12 0.939 . S
C28 C27 1.396 . S
C28 C29 1.397 . S
C29 C28 1.397 . S
C29 C30 1.385 . S
C30 H13 0.940 . S
C30 C29 1.385 . S
C30 C31 1.388 . S
C31 H10 0.939 . S
C31 C26 1.391 . S
C31 C30 1.388 . S
P32 O43 1.490 . S
P32 C46 1.812 . S
P32 C52 1.803 . S
P32 C58 1.819 . S
H33 C47 0.941 . S
H34 C48 0.939 . S
H35 C50 0.940 . S
H36 C51 0.940 . S
H37 C53 0.939 . S
H38 C54 0.942 . S
H39 C56 0.940 . S
H40 C57 0.939 . S
H41 C59 0.941 . S
H42 C63 0.939 . S
O43 P32 1.490 . S
H44 C60 0.939 . S
H45 C62 0.940 . S
C46 P32 1.812 . S
C46 C47 1.389 . S
C46 C51 1.391 . S
C47 H33 0.941 . S
C47 C46 1.389 . S
C47 C48 1.397 . S
C48 H34 0.939 . S
C48 C47 1.397 . S
C48 C49 1.378 . S
C49 C48 1.378 . S
C49 C50 1.378 . S
C50 H35 0.940 . S
C50 C49 1.378 . S
C50 C51 1.396 . S
C51 H36 0.940 . S
C51 C46 1.391 . S
C51 C50 1.396 . S
C52 P32 1.803 . S
C52 C53 1.378 . S
C52 C57 1.400 . S
C53 H37 0.939 . S
C53 C52 1.378 . S
C53 C54 1.361 . S
C54 H38 0.942 . S
C54 C53 1.361 . S
C54 C55 1.369 . S
C55 C54 1.369 . S
C55 C56 1.404 . S
C56 H39 0.940 . S
C56 C55 1.404 . S
C56 C57 1.389 . S
C57 H40 0.939 . S
C57 C52 1.400 . S
C57 C56 1.389 . S
C58 P32 1.819 . S
C58 C59 1.391 . S
C58 C63 1.391 . S
C59 H41 0.941 . S
C59 C58 1.391 . S
C59 C60 1.396 . S
C60 H44 0.939 . S
C60 C59 1.396 . S
C60 C61 1.397 . S
C61 C60 1.397 . S
C61 C62 1.385 . S
C62 H45 0.940 . S
C62 C61 1.385 . S
C62 C63 1.388 . S
C63 H42 0.939 . S
C63 C58 1.391 . S
C63 C62 1.388 . S
P64 O75 1.490 . S
P64 C78 1.812 . S
P64 C84 1.803 . S
P64 C90 1.819 . S
H65 C79 0.941 . S
H66 C80 0.939 . S
H67 C82 0.940 . S
H68 C83 0.940 . S
H69 C85 0.939 . S
H70 C86 0.942 . S
H71 C88 0.940 . S
H72 C89 0.939 . S
H73 C91 0.941 . S
H74 C95 0.939 . S
O75 P64 1.490 . S
H76 C92 0.939 . S
H77 C94 0.940 . S
C78 P64 1.812 . S
C78 C79 1.389 . S
C78 C83 1.391 . S
C79 H65 0.941 . S
C79 C78 1.389 . S
C79 C80 1.397 . S
C80 H66 0.939 . S
C80 C79 1.397 . S
C80 C81 1.378 . S
C81 C80 1.378 . S
C81 C82 1.378 . S
C82 H67 0.940 . S
C82 C81 1.378 . S
C82 C83 1.396 . S
C83 H68 0.940 . S
C83 C78 1.391 . S
C83 C82 1.396 . S
C84 P64 1.803 . S
C84 C85 1.378 . S
C84 C89 1.400 . S
C85 H69 0.939 . S
C85 C84 1.378 . S
C85 C86 1.361 . S
C86 H70 0.942 . S
C86 C85 1.361 . S
C86 C87 1.369 . S
C87 C86 1.369 . S
C87 C88 1.404 . S
C88 H71 0.940 . S
C88 C87 1.404 . S
C88 C89 1.389 . S
C89 H72 0.939 . S
C89 C84 1.400 . S
C89 C88 1.389 . S
C90 P64 1.819 . S
C90 C91 1.391 . S
C90 C95 1.391 . S
C91 H73 0.941 . S
C91 C90 1.391 . S
C91 C92 1.396 . S
C92 H76 0.939 . S
C92 C91 1.396 . S
C92 C93 1.397 . S
C93 C92 1.397 . S
C93 C94 1.385 . S
C94 H77 0.940 . S
C94 C93 1.385 . S
C94 C95 1.388 . S
C95 H74 0.939 . S
C95 C90 1.391 . S
C95 C94 1.388 . S
P96 O107 1.490 . S
P96 C110 1.812 . S
P96 C116 1.803 . S
P96 C122 1.819 . S
H97 C111 0.941 . S
H98 C112 0.939 . S
H99 C114 0.940 . S
H100 C115 0.940 . S
H101 C117 0.939 . S
H102 C118 0.942 . S
H103 C120 0.940 . S
H104 C121 0.939 . S
H105 C123 0.941 . S
H106 C127 0.939 . S
O107 P96 1.490 . S
H108 C124 0.939 . S
H109 C126 0.940 . S
C110 P96 1.812 . S
C110 C111 1.389 . S
C110 C115 1.391 . S
C111 H97 0.941 . S
C111 C110 1.389 . S
C111 C112 1.397 . S
C112 H98 0.939 . S
C112 C111 1.397 . S
C112 C113 1.378 . S
C113 C112 1.378 . S
C113 C114 1.378 . S
C114 H99 0.940 . S
C114 C113 1.378 . S
C114 C115 1.396 . S
C115 H100 0.940 . S
C115 C110 1.391 . S
C115 C114 1.396 . S
C116 P96 1.803 . S
C116 C117 1.378 . S
C116 C121 1.400 . S
C117 H101 0.939 . S
C117 C116 1.378 . S
C117 C118 1.361 . S
C118 H102 0.942 . S
C118 C117 1.361 . S
C118 C119 1.369 . S
C119 C118 1.369 . S
C119 C120 1.404 . S
C120 H103 0.940 . S
C120 C119 1.404 . S
C120 C121 1.389 . S
C121 H104 0.939 . S
C121 C116 1.400 . S
C121 C120 1.389 . S
C122 P96 1.819 . S
C122 C123 1.391 . S
C122 C127 1.391 . S
C123 H105 0.941 . S
C123 C122 1.391 . S
C123 C124 1.396 . S
C124 H108 0.939 . S
C124 C123 1.396 . S
C124 C125 1.397 . S
C125 C124 1.397 . S
C125 C126 1.385 . S
C126 H109 0.940 . S
C126 C125 1.385 . S
C126 C127 1.388 . S
C127 H106 0.939 . S
C127 C122 1.391 . S
C127 C126 1.388 . S
P128 O139 1.490 . S
P128 C142 1.812 . S
P128 C148 1.803 . S
P128 C154 1.819 . S
H129 C143 0.941 . S
H130 C144 0.939 . S
H131 C146 0.940 . S
H132 C147 0.940 . S
H133 C149 0.939 . S
H134 C150 0.942 . S
H135 C152 0.940 . S
H136 C153 0.939 . S
H137 C155 0.941 . S
H138 C159 0.939 . S
O139 P128 1.490 . S
H140 C156 0.939 . S
H141 C158 0.940 . S
C142 P128 1.812 . S
C142 C143 1.389 . S
C142 C147 1.391 . S
C143 H129 0.941 . S
C143 C142 1.389 . S
C143 C144 1.397 . S
C144 H130 0.939 . S
C144 C143 1.397 . S
C144 C145 1.378 . S
C145 C144 1.378 . S
C145 C146 1.378 . S
C146 H131 0.940 . S
C146 C145 1.378 . S
C146 C147 1.396 . S
C147 H132 0.940 . S
C147 C142 1.391 . S
C147 C146 1.396 . S
C148 P128 1.803 . S
C148 C149 1.378 . S
C148 C153 1.400 . S
C149 H133 0.939 . S
C149 C148 1.378 . S
C149 C150 1.361 . S
C150 H134 0.942 . S
C150 C149 1.361 . S
C150 C151 1.369 . S
C151 C150 1.369 . S
C151 C152 1.404 . S
C152 H135 0.940 . S
C152 C151 1.404 . S
C152 C153 1.389 . S
C153 H136 0.939 . S
C153 C148 1.400 . S
C153 C152 1.389 . S
C154 P128 1.819 . S
C154 C155 1.391 . S
C154 C159 1.391 . S
C155 H137 0.941 . S
C155 C154 1.391 . S
C155 C156 1.396 . S
C156 H140 0.939 . S
C156 C155 1.396 . S
C156 C157 1.397 . S
C157 C156 1.397 . S
C157 C158 1.385 . S
C158 H141 0.940 . S
C158 C157 1.385 . S
C158 C159 1.388 . S
C159 H138 0.939 . S
C159 C154 1.391 . S
C159 C158 1.388 . S
P160 O171 1.490 . S
P160 C174 1.812 . S
P160 C180 1.803 . S
P160 C186 1.819 . S
H161 C175 0.941 . S
H162 C176 0.939 . S
H163 C178 0.940 . S
H164 C179 0.940 . S
H165 C181 0.939 . S
H166 C182 0.942 . S
H167 C184 0.940 . S
H168 C185 0.939 . S
H169 C187 0.941 . S
H170 C191 0.939 . S
O171 P160 1.490 . S
H172 C188 0.939 . S
H173 C190 0.940 . S
C174 P160 1.812 . S
C174 C175 1.389 . S
C174 C179 1.391 . S
C175 H161 0.941 . S
C175 C174 1.389 . S
C175 C176 1.397 . S
C176 H162 0.939 . S
C176 C175 1.397 . S
C176 C177 1.378 . S
C177 C176 1.378 . S
C177 C178 1.378 . S
C178 H163 0.940 . S
C178 C177 1.378 . S
C178 C179 1.396 . S
C179 H164 0.940 . S
C179 C174 1.391 . S
C179 C178 1.396 . S
C180 P160 1.803 . S
C180 C181 1.378 . S
C180 C185 1.400 . S
C181 H165 0.939 . S
C181 C180 1.378 . S
C181 C182 1.361 . S
C182 H166 0.942 . S
C182 C181 1.361 . S
C182 C183 1.369 . S
C183 C182 1.369 . S
C183 C184 1.404 . S
C184 H167 0.940 . S
C184 C183 1.404 . S
C184 C185 1.389 . S
C185 H168 0.939 . S
C185 C180 1.400 . S
C185 C184 1.389 . S
C186 P160 1.819 . S
C186 C187 1.391 . S
C186 C191 1.391 . S
C187 H169 0.941 . S
C187 C186 1.391 . S
C187 C188 1.396 . S
C188 H172 0.939 . S
C188 C187 1.396 . S
C188 C189 1.397 . S
C189 C188 1.397 . S
C189 C190 1.385 . S
C190 H173 0.940 . S
C190 C189 1.385 . S
C190 C191 1.388 . S
C191 H170 0.939 . S
C191 C186 1.391 . S
C191 C190 1.388 . S
P192 O203 1.490 . S
P192 C206 1.812 . S
P192 C212 1.803 . S
P192 C218 1.819 . S
H193 C207 0.941 . S
H194 C208 0.939 . S
H195 C210 0.940 . S
H196 C211 0.940 . S
H197 C213 0.939 . S
H198 C214 0.942 . S
H199 C216 0.940 . S
H200 C217 0.939 . S
H201 C219 0.941 . S
H202 C223 0.939 . S
O203 P192 1.490 . S
H204 C220 0.939 . S
H205 C222 0.940 . S
C206 P192 1.812 . S
C206 C207 1.389 . S
C206 C211 1.391 . S
C207 H193 0.941 . S
C207 C206 1.389 . S
C207 C208 1.397 . S
C208 H194 0.939 . S
C208 C207 1.397 . S
C208 C209 1.378 . S
C209 C208 1.378 . S
C209 C210 1.378 . S
C210 H195 0.940 . S
C210 C209 1.378 . S
C210 C211 1.396 . S
C211 H196 0.940 . S
C211 C206 1.391 . S
C211 C210 1.396 . S
C212 P192 1.803 . S
C212 C213 1.378 . S
C212 C217 1.400 . S
C213 H197 0.939 . S
C213 C212 1.378 . S
C213 C214 1.361 . S
C214 H198 0.942 . S
C214 C213 1.361 . S
C214 C215 1.369 . S
C215 C214 1.369 . S
C215 C216 1.404 . S
C216 H199 0.940 . S
C216 C215 1.404 . S
C216 C217 1.389 . S
C217 H200 0.939 . S
C217 C212 1.400 . S
C217 C216 1.389 . S
C218 P192 1.819 . S
C218 C219 1.391 . S
C218 C223 1.391 . S
C219 H201 0.941 . S
C219 C218 1.391 . S
C219 C220 1.396 . S
C220 H204 0.939 . S
C220 C219 1.396 . S
C220 C221 1.397 . S
C221 C220 1.397 . S
C221 C222 1.385 . S
C222 H205 0.940 . S
C222 C221 1.385 . S
C222 C223 1.388 . S
C223 H202 0.939 . S
C223 C218 1.391 . S
C223 C222 1.388 . S
P224 O235 1.490 . S
P224 C238 1.812 . S
P224 C244 1.803 . S
P224 C250 1.819 . S
H225 C239 0.941 . S
H226 C240 0.939 . S
H227 C242 0.940 . S
H228 C243 0.940 . S
H229 C245 0.939 . S
H230 C246 0.942 . S
H231 C248 0.940 . S
H232 C249 0.939 . S
H233 C251 0.941 . S
H234 C255 0.939 . S
O235 P224 1.490 . S
H236 C252 0.939 . S
H237 C254 0.940 . S
C238 P224 1.812 . S
C238 C239 1.389 . S
C238 C243 1.391 . S
C239 H225 0.941 . S
C239 C238 1.389 . S
C239 C240 1.397 . S
C240 H226 0.939 . S
C240 C239 1.397 . S
C240 C241 1.378 . S
C241 C240 1.378 . S
C241 C242 1.378 . S
C242 H227 0.940 . S
C242 C241 1.378 . S
C242 C243 1.396 . S
C243 H228 0.940 . S
C243 C238 1.391 . S
C243 C242 1.396 . S
C244 P224 1.803 . S
C244 C245 1.378 . S
C244 C249 1.400 . S
C245 H229 0.939 . S
C245 C244 1.378 . S
C245 C246 1.361 . S
C246 H230 0.942 . S
C246 C245 1.361 . S
C246 C247 1.369 . S
C247 C246 1.369 . S
C247 C248 1.404 . S
C248 H231 0.940 . S
C248 C247 1.404 . S
C248 C249 1.389 . S
C249 H232 0.939 . S
C249 C244 1.400 . S
C249 C248 1.389 . S
C250 P224 1.819 . S
C250 C251 1.391 . S
C250 C255 1.391 . S
C251 H233 0.941 . S
C251 C250 1.391 . S
C251 C252 1.396 . S
C252 H236 0.939 . S
C252 C251 1.396 . S
C252 C253 1.397 . S
C253 C252 1.397 . S
C253 C254 1.385 . S
C254 H237 0.940 . S
C254 C253 1.385 . S
C254 C255 1.388 . S
C255 H234 0.939 . S
C255 C250 1.391 . S
C255 C254 1.388 . S
O256 Mg257 1.990 . S
O256 C270 1.253 1_445 S
Mg257 O256 1.990 . S
Mg257 O260 2.180 . S
Mg257 O261 2.117 . S
Mg257 O275 2.030 1_545 S
O258 Mg259 2.072 1_665 S
O258 C270 1.260 . S
Mg259 O258 2.072 1_445 S
Mg259 O260 2.099 . S
Mg259 O262 2.079 . S
Mg259 O263 2.072 1_455 S
Mg259 O265 2.099 1_445 S
Mg259 O276 2.079 1_545 S
O260 Mg257 2.180 . S
O260 Mg259 2.099 . S
O260 C271 1.279 . S
O261 Mg257 2.117 . S
O261 C271 1.250 . S
O262 Mg259 2.079 . S
O262 C272 1.264 . S
O263 Mg259 2.072 1_655 S
O263 C273 1.260 . S
Mg264 O265 2.180 . S
Mg264 O266 2.030 1_565 S
Mg264 O267 1.990 1_565 S
Mg264 O268 2.117 . S
O265 Mg259 2.099 1_665 S
O265 Mg264 2.180 . S
O265 C274 1.279 . S
O266 Mg264 2.030 1_545 S
O266 C272 1.248 1_655 S
O267 Mg264 1.990 1_545 S
O267 C273 1.253 . S
O268 Mg264 2.117 . S
O268 C274 1.250 . S
C269 O275 1.248 . S
C269 O276 1.264 . S
C270 O256 1.253 1_665 S
C270 O258 1.260 . S
C271 O260 1.279 . S
C271 O261 1.250 . S
C272 O262 1.264 . S
C272 O266 1.248 1_455 S
C273 O263 1.260 . S
C273 O267 1.253 . S
C274 O265 1.279 . S
C274 O268 1.250 . S
O275 Mg257 2.030 1_565 S
O275 C269 1.248 . S
O276 Mg259 2.079 1_565 S
O276 C269 1.264 . S
O277 Mg278 1.990 . S
O277 C291 1.253 . S
Mg278 O277 1.990 . S
Mg278 O281 2.180 . S
Mg278 O282 2.117 1_554 S
Mg278 O296 2.030 . S
O279 Mg280 2.072 . S
O279 C291 1.260 . S
Mg280 O279 2.072 . S
Mg280 O281 2.099 . S
Mg280 O283 2.082 . S
Mg280 O284 2.072 1_554 S
Mg280 O286 2.099 1_545 S
Mg280 O297 2.079 . S
O281 Mg278 2.180 . S
O281 Mg280 2.099 . S
O281 C292 1.279 1_554 S
O282 Mg278 2.117 1_556 S
O282 C292 1.250 . S
O283 Mg280 2.082 . S
O283 C293 1.256 1_544 S
O284 Mg280 2.072 1_556 S
O284 C294 1.260 1_545 S
Mg285 O286 2.180 1_556 S
Mg285 O287 2.030 . S
Mg285 O288 1.990 . S
Mg285 O289 2.117 1_556 S
O286 Mg280 2.099 1_565 S
O286 Mg285 2.180 1_554 S
O286 C295 1.279 . S
O287 Mg285 2.030 . S
O287 C293 1.248 . S
O288 Mg285 1.990 . S
O288 C294 1.253 . S
O289 Mg285 2.117 1_554 S
O289 C295 1.250 . S
C290 O296 1.248 . S
C290 O297 1.264 . S
C291 O277 1.253 . S
C291 O279 1.260 . S
C292 O281 1.279 1_556 S
C292 O282 1.250 . S
C293 O283 1.256 1_566 S
C293 O287 1.248 . S
C294 O284 1.260 1_565 S
C294 O288 1.253 . S
C295 O286 1.279 . S
C295 O289 1.250 . S
O296 Mg278 2.030 . S
O296 C290 1.248 . S
O297 Mg280 2.079 . S
O297 C290 1.264 . S
O298 Mg299 1.990 . S
O298 C312 1.253 . S
Mg299 O298 1.990 . S
Mg299 O302 2.180 . S
Mg299 O303 2.117 . S
Mg299 O317 2.030 . S
O300 Mg301 2.072 . S
O300 C312 1.260 . S
Mg301 O300 2.072 . S
Mg301 O302 2.099 . S
Mg301 O304 2.079 . S
Mg301 O305 2.072 . S
Mg301 O307 2.099 . S
Mg301 O318 2.079 . S
O302 Mg299 2.180 . S
O302 Mg301 2.099 . S
O302 C313 1.279 . S
O303 Mg299 2.117 . S
O303 C313 1.250 . S
O304 Mg301 2.079 . S
O304 C314 1.264 . S
O305 Mg301 2.072 . S
O305 C315 1.260 . S
Mg306 O307 2.180 . S
Mg306 O308 2.030 . S
Mg306 O309 1.990 . S
Mg306 O310 2.117 . S
O307 Mg301 2.099 . S
O307 Mg306 2.180 . S
O307 C316 1.279 . S
O308 Mg306 2.030 . S
O308 C314 1.248 . S
O309 Mg306 1.990 . S
O309 C315 1.253 . S
O310 Mg306 2.117 . S
O310 C316 1.250 . S
C311 O317 1.248 . S
C311 O318 1.264 . S
C312 O298 1.253 . S
C312 O300 1.260 . S
C313 O302 1.279 . S
C313 O303 1.250 . S
C314 O304 1.264 . S
C314 O308 1.248 . S
C315 O305 1.260 . S
C315 O309 1.253 . S
C316 O307 1.279 . S
C316 O310 1.250 . S
O317 Mg299 2.030 . S
O317 C311 1.248 . S
O318 Mg301 2.079 . S
O318 C311 1.264 . S
O319 Mg320 1.990 . S
O319 C333 1.253 . S
Mg320 O319 1.990 . S
Mg320 O323 2.180 1_455 S
Mg320 O324 2.117 1_455 S
Mg320 O338 2.030 . S
O321 Mg322 2.072 . S
O321 C333 1.260 . S
Mg322 O321 2.072 . S
Mg322 O323 2.099 1_455 S
Mg322 O325 2.079 1_454 S
Mg322 O326 2.072 1_455 S
Mg322 O328 2.099 1_554 S
Mg322 O339 2.079 . S
O323 Mg320 2.180 1_655 S
O323 Mg322 2.099 1_655 S
O323 C334 1.279 . S
O324 Mg320 2.117 1_655 S
O324 C334 1.250 . S
O325 Mg322 2.079 1_656 S
O325 C335 1.264 . S
O326 Mg322 2.072 1_655 S
O326 C336 1.260 1_554 S
Mg327 O328 2.180 1_655 S
Mg327 O329 2.030 . S
Mg327 O330 1.990 . S
Mg327 O331 2.117 . S
O328 Mg322 2.099 1_556 S
O328 Mg327 2.180 1_455 S
O328 C337 1.279 . S
O329 Mg327 2.030 . S
O329 C335 1.248 . S
O330 Mg327 1.990 . S
O330 C336 1.253 . S
O331 Mg327 2.117 . S
O331 C337 1.250 1_655 S
C332 O338 1.248 . S
C332 O339 1.264 . S
C333 O319 1.253 . S
C333 O321 1.260 . S
C334 O323 1.279 . S
C334 O324 1.250 . S
C335 O325 1.264 . S
C335 O329 1.248 . S
C336 O326 1.260 1_556 S
C336 O330 1.253 . S
C337 O328 1.279 . S
C337 O331 1.250 1_455 S
O338 Mg320 2.030 . S
O338 C332 1.248 . S
O339 Mg322 2.079 . S
O339 C332 1.264 . S
H340 C358 0.951 . S
H341 C360 0.951 . S
H342 C362 0.950 . S
H343 C363 0.950 . S
H344 C365 0.950 . S
H345 C368 0.950 . S
H346 C369 0.950 . S
H347 C371 0.950 . S
H348 C372 0.950 . S
H349 C373 0.951 . S
H350 C375 0.951 . S
H351 C377 0.950 . S
H352 C378 0.950 . S
H353 C380 0.950 . S
H354 C383 0.950 . S
H355 C384 0.950 . S
H356 C386 0.950 . S
H357 C387 0.950 . S
C358 H340 0.951 . S
C358 C359 1.366 . S
C358 C360 1.388 . S
C359 C358 1.366 . S
C359 C363 1.385 . S
C360 H341 0.951 . S
C360 C358 1.388 . S
C360 C361 1.366 . S
C361 C360 1.366 . S
C361 C362 1.414 . S
C361 C364 1.499 . S
C362 H342 0.950 . S
C362 C361 1.414 . S
C362 C363 1.374 . S
C363 H343 0.950 . S
C363 C359 1.385 . S
C363 C362 1.374 . S
C364 C361 1.499 . S
C364 C365 1.373 . S
C364 C366 1.389 . S
C365 H344 0.950 . S
C365 C364 1.373 . S
C365 C381 1.377 . S
C366 C364 1.389 . S
C366 C367 1.524 . S
C366 C380 1.377 . S
C367 C366 1.524 . S
C367 C368 1.397 . S
C367 C372 1.363 . S
C368 H345 0.950 . S
C368 C367 1.397 . S
C368 C369 1.334 . S
C369 H346 0.950 . S
C369 C368 1.334 . S
C369 C370 1.287 1_545 S
C370 C369 1.287 1_565 S
C370 C371 1.524 . S
C370 H389 0.913 . S
C371 H347 0.950 . S
C371 C370 1.524 . S
C371 C372 1.415 1_565 S
C372 H348 0.950 . S
C372 C367 1.363 . S
C372 C371 1.415 1_545 S
C373 H349 0.951 . S
C373 C374 1.366 . S
C373 C375 1.388 . S
C374 C373 1.366 . S
C374 C378 1.385 . S
C375 H350 0.951 . S
C375 C373 1.388 . S
C375 C376 1.366 . S
C376 C375 1.366 . S
C376 C377 1.414 . S
C376 C379 1.499 . S
C377 H351 0.950 . S
C377 C376 1.414 . S
C377 C378 1.374 . S
C378 H352 0.950 . S
C378 C374 1.385 . S
C378 C377 1.374 . S
C379 C376 1.499 . S
C379 C380 1.373 . S
C379 C381 1.389 . S
C380 H353 0.950 . S
C380 C366 1.377 . S
C380 C379 1.373 . S
C381 C365 1.377 . S
C381 C379 1.389 . S
C381 C382 1.524 . S
C382 C381 1.524 . S
C382 C383 1.397 . S
C382 C387 1.363 . S
C383 H354 0.950 . S
C383 C382 1.397 . S
C383 C384 1.334 . S
C384 H355 0.950 . S
C384 C383 1.334 . S
C384 C385 1.287 . S
C385 C384 1.287 . S
C385 C386 1.524 . S
C385 H388 0.999 . S
C386 H356 0.950 . S
C386 C385 1.524 . S
C386 C387 1.415 . S
C387 H357 0.950 . S
C387 C382 1.363 . S
C387 C386 1.415 . S
H388 C385 0.999 . S
H389 C370 0.913 . S
H390 C408 0.951 . S
H391 C410 0.951 . S
H392 C412 0.950 . S
H393 C413 0.950 . S
H394 C415 0.950 . S
H395 C418 0.950 . S
H396 C419 0.950 . S
H397 C421 0.950 . S
H398 C422 0.950 . S
H399 C423 0.951 . S
H400 C425 0.951 . S
H401 C427 0.950 1_545 S
H402 C428 0.950 . S
H403 C430 0.950 1_545 S
H404 C433 0.950 . S
H405 C434 0.950 . S
H406 C436 0.950 . S
H407 C437 0.950 . S
C408 H390 0.951 . S
C408 C409 1.366 . S
C408 C410 1.388 . S
C409 C408 1.366 . S
C409 C413 1.385 . S
C410 H391 0.951 . S
C410 C408 1.388 . S
C410 C411 1.366 . S
C411 C410 1.366 . S
C411 C412 1.414 . S
C411 C414 1.499 . S
C412 H392 0.950 . S
C412 C411 1.414 . S
C412 C413 1.374 . S
C413 H393 0.950 . S
C413 C409 1.385 . S
C413 C412 1.374 . S
C414 C411 1.499 . S
C414 C415 1.373 . S
C414 C416 1.389 . S
C415 H394 0.950 . S
C415 C414 1.373 . S
C415 C431 1.377 . S
C416 C414 1.389 . S
C416 C417 1.524 . S
C416 C430 1.377 . S
C417 C416 1.524 . S
C417 C418 1.397 . S
C417 C422 1.363 1_565 S
C418 H395 0.950 . S
C418 C417 1.397 . S
C418 C419 1.334 1_565 S
C419 H396 0.950 . S
C419 C418 1.334 1_545 S
C419 C420 1.287 . S
C420 C419 1.287 . S
C420 C421 1.524 . S
C420 H439 0.913 . S
C421 H397 0.950 . S
C421 C420 1.524 . S
C421 C422 1.415 . S
C422 H398 0.950 . S
C422 C417 1.363 1_545 S
C422 C421 1.415 . S
C423 H399 0.951 . S
C423 C424 1.366 . S
C423 C425 1.388 . S
C424 C423 1.366 . S
C424 C428 1.385 1_565 S
C425 H400 0.951 . S
C425 C423 1.388 . S
C425 C426 1.366 . S
C426 C425 1.366 . S
C426 C427 1.414 . S
C426 C429 1.499 . S
C427 H401 0.950 1_565 S
C427 C426 1.414 . S
C427 C428 1.374 1_565 S
C428 H402 0.950 . S
C428 C424 1.385 1_545 S
C428 C427 1.374 1_545 S
C429 C426 1.499 . S
C429 C430 1.373 . S
C429 C431 1.389 . S
C430 H403 0.950 1_565 S
C430 C416 1.377 . S
C430 C429 1.373 . S
C431 C415 1.377 . S
C431 C429 1.389 . S
C431 C432 1.524 . S
C432 C431 1.524 . S
C432 C433 1.397 . S
C432 C437 1.363 . S
C433 H404 0.950 . S
C433 C432 1.397 . S
C433 C434 1.334 . S
C434 H405 0.950 . S
C434 C433 1.334 . S
C434 C435 1.287 . S
C435 C434 1.287 . S
C435 C436 1.524 . S
C435 H438 0.999 . S
C436 H406 0.950 . S
C436 C435 1.524 . S
C436 C437 1.415 . S
C437 H407 0.950 . S
C437 C432 1.363 . S
C437 C436 1.415 . S
H438 C435 0.999 . S
H439 C420 0.913 . S
H440 C458 0.951 . S
H441 C460 0.951 . S
H442 C462 0.950 . S
H443 C463 0.950 . S
H444 C465 0.950 . S
H445 C468 0.950 . S
H446 C469 0.950 . S
H447 C471 0.950 . S
H448 C472 0.950 . S
H449 C473 0.951 . S
H450 C475 0.951 . S
H451 C477 0.950 . S
H452 C478 0.950 . S
H453 C480 0.950 . S
H454 C483 0.950 . S
H455 C484 0.950 . S
H456 C486 0.950 . S
H457 C487 0.950 . S
C458 H440 0.951 . S
C458 C459 1.366 . S
C458 C460 1.388 . S
C459 C458 1.366 . S
C459 C463 1.385 . S
C460 H441 0.951 . S
C460 C458 1.388 . S
C460 C461 1.366 . S
C461 C460 1.366 . S
C461 C462 1.414 . S
C461 C464 1.499 . S
C462 H442 0.950 . S
C462 C461 1.414 . S
C462 C463 1.374 . S
C463 H443 0.950 . S
C463 C459 1.385 . S
C463 C462 1.374 . S
C464 C461 1.499 . S
C464 C465 1.373 . S
C464 C466 1.389 . S
C465 H444 0.950 . S
C465 C464 1.373 . S
C465 C481 1.377 . S
C466 C464 1.389 . S
C466 C467 1.524 . S
C466 C480 1.377 . S
C467 C466 1.524 . S
C467 C468 1.397 . S
C467 C472 1.363 . S
C468 H445 0.950 . S
C468 C467 1.397 . S
C468 C469 1.334 . S
C469 H446 0.950 . S
C469 C468 1.334 . S
C469 C470 1.287 . S
C470 C469 1.287 . S
C470 C471 1.524 . S
C470 H489 0.913 . S
C471 H447 0.950 . S
C471 C470 1.524 . S
C471 C472 1.415 . S
C472 H448 0.950 . S
C472 C467 1.363 . S
C472 C471 1.415 . S
C473 H449 0.951 . S
C473 C474 1.366 . S
C473 C475 1.388 . S
C474 C473 1.366 . S
C474 C478 1.385 . S
C475 H450 0.951 . S
C475 C473 1.388 . S
C475 C476 1.366 . S
C476 C475 1.366 . S
C476 C477 1.414 . S
C476 C479 1.499 . S
C477 H451 0.950 . S
C477 C476 1.414 . S
C477 C478 1.374 . S
C478 H452 0.950 . S
C478 C474 1.385 . S
C478 C477 1.374 . S
C479 C476 1.499 . S
C479 C480 1.373 . S
C479 C481 1.389 . S
C480 H453 0.950 . S
C480 C466 1.377 . S
C480 C479 1.373 . S
C481 C465 1.377 . S
C481 C479 1.389 . S
C481 C482 1.524 . S
C482 C481 1.524 . S
C482 C483 1.397 . S
C482 C487 1.363 . S
C483 H454 0.950 . S
C483 C482 1.397 . S
C483 C484 1.334 . S
C484 H455 0.950 . S
C484 C483 1.334 . S
C484 C485 1.287 . S
C485 C484 1.287 . S
C485 C486 1.524 . S
C485 H488 0.999 . S
C486 H456 0.950 . S
C486 C485 1.524 . S
C486 C487 1.415 . S
C487 H457 0.950 . S
C487 C482 1.363 . S
C487 C486 1.415 . S
H488 C485 0.999 . S
H489 C470 0.913 . S
H490 C508 0.951 . S
H491 C510 0.951 . S
H492 C512 0.950 . S
H493 C513 0.950 . S
H494 C515 0.950 . S
H495 C518 0.950 . S
H496 C519 0.950 . S
H497 C521 0.950 . S
H498 C522 0.950 . S
H499 C523 0.951 . S
H500 C525 0.951 . S
H501 C527 0.950 . S
H502 C528 0.950 . S
H503 C530 0.950 . S
H504 C533 0.950 . S
H505 C534 0.950 . S
H506 C536 0.950 . S
H507 C537 0.950 . S
C508 H490 0.951 . S
C508 C509 1.366 . S
C508 C510 1.388 . S
C509 C508 1.366 . S
C509 C513 1.385 . S
C510 H491 0.951 . S
C510 C508 1.388 . S
C510 C511 1.366 . S
C511 C510 1.366 . S
C511 C512 1.414 . S
C511 C514 1.499 . S
C512 H492 0.950 . S
C512 C511 1.414 . S
C512 C513 1.374 . S
C513 H493 0.950 . S
C513 C509 1.385 . S
C513 C512 1.374 . S
C514 C511 1.499 . S
C514 C515 1.373 . S
C514 C516 1.389 . S
C515 H494 0.950 . S
C515 C514 1.373 . S
C515 C531 1.377 . S
C516 C514 1.389 . S
C516 C517 1.524 . S
C516 C530 1.377 . S
C517 C516 1.524 . S
C517 C518 1.397 . S
C517 C522 1.363 . S
C518 H495 0.950 . S
C518 C517 1.397 . S
C518 C519 1.334 1_655 S
C519 H496 0.950 . S
C519 C518 1.334 1_455 S
C519 C520 1.287 . S
C520 C519 1.287 . S
C520 C521 1.524 . S
C520 H539 0.913 . S
C521 H497 0.950 . S
C521 C520 1.524 . S
C521 C522 1.415 1_455 S
C522 H498 0.950 . S
C522 C517 1.363 . S
C522 C521 1.415 1_655 S
C523 H499 0.951 . S
C523 C524 1.366 . S
C523 C525 1.388 . S
C524 C523 1.366 . S
C524 C528 1.385 . S
C525 H500 0.951 . S
C525 C523 1.388 . S
C525 C526 1.366 . S
C526 C525 1.366 . S
C526 C527 1.414 . S
C526 C529 1.499 . S
C527 H501 0.950 . S
C527 C526 1.414 . S
C527 C528 1.374 . S
C528 H502 0.950 . S
C528 C524 1.385 . S
C528 C527 1.374 . S
C529 C526 1.499 . S
C529 C530 1.373 . S
C529 C531 1.389 . S
C530 H503 0.950 . S
C530 C516 1.377 . S
C530 C529 1.373 . S
C531 C515 1.377 . S
C531 C529 1.389 . S
C531 C532 1.524 . S
C532 C531 1.524 . S
C532 C533 1.397 . S
C532 C537 1.363 . S
C533 H504 0.950 . S
C533 C532 1.397 . S
C533 C534 1.334 . S
C534 H505 0.950 . S
C534 C533 1.334 . S
C534 C535 1.287 . S
C535 C534 1.287 . S
C535 C536 1.524 . S
C535 H538 0.999 . S
C536 H506 0.950 . S
C536 C535 1.524 . S
C536 C537 1.415 . S
C537 H507 0.950 . S
C537 C532 1.363 . S
C537 C536 1.415 . S
H538 C535 0.999 . S
H539 C520 0.913 . S
H540 C558 0.951 . S
H541 C560 0.951 . S
H542 C562 0.950 . S
H543 C563 0.950 . S
H544 C565 0.950 . S
H545 C568 0.950 . S
H546 C569 0.950 . S
H547 C571 0.950 . S
H548 C572 0.950 . S
H549 C573 0.951 . S
H550 C575 0.951 . S
H551 C577 0.950 . S
H552 C578 0.950 . S
H553 C580 0.950 . S
H554 C583 0.950 . S
H555 C584 0.950 . S
H556 C586 0.950 . S
H557 C587 0.950 1_545 S
C558 H540 0.951 . S
C558 C559 1.366 . S
C558 C560 1.388 . S
C559 C558 1.366 . S
C559 C563 1.385 . S
C560 H541 0.951 . S
C560 C558 1.388 . S
C560 C561 1.366 . S
C561 C560 1.366 . S
C561 C562 1.414 . S
C561 C564 1.499 . S
C562 H542 0.950 . S
C562 C561 1.414 . S
C562 C563 1.374 . S
C563 H543 0.950 . S
C563 C559 1.385 . S
C563 C562 1.374 . S
C564 C561 1.499 . S
C564 C565 1.373 . S
C564 C566 1.389 . S
C565 H544 0.950 . S
C565 C564 1.373 . S
C565 C581 1.377 . S
C566 C564 1.389 . S
C566 C567 1.524 . S
C566 C580 1.377 . S
C567 C566 1.524 . S
C567 C568 1.397 . S
C567 C572 1.363 . S
C568 H545 0.950 . S
C568 C567 1.397 . S
C568 C569 1.334 . S
C569 H546 0.950 . S
C569 C568 1.334 . S
C569 C570 1.287 . S
C570 C569 1.287 . S
C570 C571 1.524 . S
C570 H589 0.913 . S
C571 H547 0.950 . S
C571 C570 1.524 . S
C571 C572 1.415 . S
C572 H548 0.950 . S
C572 C567 1.363 . S
C572 C571 1.415 . S
C573 H549 0.951 . S
C573 C574 1.366 . S
C573 C575 1.388 . S
C574 C573 1.366 . S
C574 C578 1.385 . S
C575 H550 0.951 . S
C575 C573 1.388 . S
C575 C576 1.366 . S
C576 C575 1.366 . S
C576 C577 1.414 . S
C576 C579 1.499 . S
C577 H551 0.950 . S
C577 C576 1.414 . S
C577 C578 1.374 . S
C578 H552 0.950 . S
C578 C574 1.385 . S
C578 C577 1.374 . S
C579 C576 1.499 . S
C579 C580 1.373 . S
C579 C581 1.389 . S
C580 H553 0.950 . S
C580 C566 1.377 . S
C580 C579 1.373 . S
C581 C565 1.377 . S
C581 C579 1.389 . S
C581 C582 1.524 . S
C582 C581 1.524 . S
C582 C583 1.397 . S
C582 C587 1.363 1_545 S
C583 H554 0.950 . S
C583 C582 1.397 . S
C583 C584 1.334 1_545 S
C584 H555 0.950 . S
C584 C583 1.334 1_565 S
C584 C585 1.287 . S
C585 C584 1.287 . S
C585 C586 1.524 . S
C585 H588 0.999 . S
C586 H556 0.950 . S
C586 C585 1.524 . S
C586 C587 1.415 . S
C587 H557 0.950 1_565 S
C587 C582 1.363 1_565 S
C587 C586 1.415 . S
H588 C585 0.999 . S
H589 C570 0.913 . S
H590 C608 0.951 . S
H591 C610 0.951 . S
H592 C612 0.950 . S
H593 C613 0.950 . S
H594 C615 0.950 . S
H595 C618 0.950 . S
H596 C619 0.950 . S
H597 C621 0.950 . S
H598 C622 0.950 1_545 S
H599 C623 0.951 . S
H600 C625 0.951 . S
H601 C627 0.950 . S
H602 C628 0.950 1_545 S
H603 C630 0.950 . S
H604 C633 0.950 . S
H605 C634 0.950 . S
H606 C636 0.950 . S
H607 C637 0.950 . S
C608 H590 0.951 . S
C608 C609 1.366 . S
C608 C610 1.388 . S
C609 C608 1.366 . S
C609 C613 1.385 . S
C610 H591 0.951 . S
C610 C608 1.388 . S
C610 C611 1.366 . S
C611 C610 1.366 . S
C611 C612 1.414 . S
C611 C614 1.499 . S
C612 H592 0.950 . S
C612 C611 1.414 . S
C612 C613 1.374 . S
C613 H593 0.950 . S
C613 C609 1.385 . S
C613 C612 1.374 . S
C614 C611 1.499 . S
C614 C615 1.373 . S
C614 C616 1.389 . S
C615 H594 0.950 . S
C615 C614 1.373 . S
C615 C631 1.377 . S
C616 C614 1.389 . S
C616 C617 1.524 . S
C616 C630 1.377 . S
C617 C616 1.524 . S
C617 C618 1.397 . S
C617 C622 1.363 . S
C618 H595 0.950 . S
C618 C617 1.397 . S
C618 C619 1.334 . S
C619 H596 0.950 . S
C619 C618 1.334 . S
C619 C620 1.287 . S
C620 C619 1.287 . S
C620 C621 1.524 1_565 S
C620 H639 0.913 . S
C621 H597 0.950 . S
C621 C620 1.524 1_545 S
C621 C622 1.415 1_545 S
C622 H598 0.950 1_565 S
C622 C617 1.363 . S
C622 C621 1.415 1_565 S
C623 H599 0.951 . S
C623 C624 1.366 . S
C623 C625 1.388 . S
C624 C623 1.366 . S
C624 C628 1.385 . S
C625 H600 0.951 . S
C625 C623 1.388 . S
C625 C626 1.366 . S
C626 C625 1.366 . S
C626 C627 1.414 . S
C626 C629 1.499 . S
C627 H601 0.950 . S
C627 C626 1.414 . S
C627 C628 1.374 . S
C628 H602 0.950 1_565 S
C628 C624 1.385 . S
C628 C627 1.374 . S
C629 C626 1.499 . S
C629 C630 1.373 . S
C629 C631 1.389 . S
C630 H603 0.950 . S
C630 C616 1.377 . S
C630 C629 1.373 . S
C631 C615 1.377 . S
C631 C629 1.389 . S
C631 C632 1.524 . S
C632 C631 1.524 . S
C632 C633 1.397 . S
C632 C637 1.363 . S
C633 H604 0.950 . S
C633 C632 1.397 . S
C633 C634 1.334 . S
C634 H605 0.950 . S
C634 C633 1.334 . S
C634 C635 1.287 . S
C635 C634 1.287 . S
C635 C636 1.524 . S
C635 H638 0.999 . S
C636 H606 0.950 . S
C636 C635 1.524 . S
C636 C637 1.415 . S
C637 H607 0.950 . S
C637 C632 1.363 . S
C637 C636 1.415 . S
H638 C635 0.999 . S
H639 C620 0.913 . S
H640 C658 0.951 . S
H641 C660 0.951 . S
H642 C662 0.950 . S
H643 C663 0.950 . S
H644 C665 0.950 . S
H645 C668 0.950 . S
H646 C669 0.950 . S
H647 C671 0.950 . S
H648 C672 0.950 . S
H649 C673 0.951 . S
H650 C675 0.951 1_554 S
H651 C677 0.950 . S
H652 C678 0.950 . S
H653 C680 0.950 . S
H654 C683 0.950 . S
H655 C684 0.950 . S
H656 C686 0.950 . S
H657 C687 0.942 1_554 S
C658 H640 0.951 . S
C658 C659 1.366 . S
C658 C660 1.388 . S
C659 C658 1.366 . S
C659 C663 1.385 . S
C660 H641 0.951 . S
C660 C658 1.388 . S
C660 C661 1.366 . S
C661 C660 1.366 . S
C661 C662 1.414 . S
C661 C664 1.499 . S
C662 H642 0.950 . S
C662 C661 1.414 . S
C662 C663 1.374 . S
C663 H643 0.950 . S
C663 C659 1.385 . S
C663 C662 1.374 . S
C664 C661 1.499 . S
C664 C665 1.373 . S
C664 C666 1.389 . S
C665 H644 0.950 . S
C665 C664 1.373 . S
C665 C681 1.377 . S
C666 C664 1.389 . S
C666 C667 1.524 . S
C666 C680 1.377 . S
C667 C666 1.524 . S
C667 C668 1.397 . S
C667 C672 1.363 . S
C668 H645 0.950 . S
C668 C667 1.397 . S
C668 C669 1.334 . S
C669 H646 0.950 . S
C669 C668 1.334 . S
C669 C670 1.287 . S
C670 C669 1.287 . S
C670 C671 1.524 . S
C670 H689 0.913 . S
C671 H647 0.950 . S
C671 C670 1.524 . S
C671 C672 1.415 . S
C672 H648 0.950 . S
C672 C667 1.363 . S
C672 C671 1.415 . S
C673 H649 0.951 . S
C673 C674 1.366 1_554 S
C673 C675 1.388 1_554 S
C674 C673 1.366 1_556 S
C674 C678 1.385 . S
C675 H650 0.951 1_556 S
C675 C673 1.388 1_556 S
C675 C676 1.366 . S
C676 C675 1.366 . S
C676 C677 1.414 . S
C676 C679 1.499 . S
C677 H651 0.950 . S
C677 C676 1.414 . S
C677 C678 1.374 . S
C678 H652 0.950 . S
C678 C674 1.385 . S
C678 C677 1.374 . S
C679 C676 1.499 . S
C679 C680 1.373 . S
C679 C681 1.389 . S
C680 H653 0.950 . S
C680 C666 1.377 . S
C680 C679 1.373 . S
C681 C665 1.377 . S
C681 C679 1.389 . S
C681 C682 1.524 . S
C682 C681 1.524 . S
C682 C683 1.397 . S
C682 C687 1.386 . S
C683 H654 0.950 . S
C683 C682 1.397 . S
C683 C684 1.334 . S
C684 H655 0.950 . S
C684 C683 1.334 . S
C684 C685 1.287 1_556 S
C685 C684 1.287 1_554 S
C685 C686 1.524 . S
C685 H688 0.999 . S
C686 H656 0.950 . S
C686 C685 1.524 . S
C686 C687 1.401 1_554 S
C687 H657 0.942 1_556 S
C687 C682 1.386 . S
C687 C686 1.401 1_556 S
H688 C685 0.999 . S
H689 C670 0.913 . S
H690 C708 0.951 . S
H691 C710 0.951 . S
H692 C712 0.950 . S
H693 C713 0.950 . S
H694 C715 0.950 . S
H695 C718 0.950 . S
H696 C719 0.950 . S
H697 C721 0.950 . S
H698 C722 0.950 . S
H699 C723 0.951 . S
H700 C725 0.951 . S
H701 C727 0.950 . S
H702 C728 0.950 . S
H703 C730 0.950 . S
H704 C733 0.950 . S
H705 C734 0.950 . S
H706 C736 0.950 . S
H707 C737 0.950 . S
C708 H690 0.951 . S
C708 C709 1.366 . S
C708 C710 1.388 . S
C709 C708 1.366 . S
C709 C713 1.385 . S
C710 H691 0.951 . S
C710 C708 1.388 . S
C710 C711 1.366 . S
C711 C710 1.366 . S
C711 C712 1.414 . S
C711 C714 1.499 . S
C712 H692 0.950 . S
C712 C711 1.414 . S
C712 C713 1.374 . S
C713 H693 0.950 . S
C713 C709 1.385 . S
C713 C712 1.374 . S
C714 C711 1.499 . S
C714 C715 1.373 . S
C714 C716 1.389 . S
C715 H694 0.950 . S
C715 C714 1.373 . S
C715 C731 1.377 . S
C716 C714 1.389 . S
C716 C717 1.524 . S
C716 C730 1.377 . S
C717 C716 1.524 . S
C717 C718 1.397 . S
C717 C722 1.363 . S
C718 H695 0.950 . S
C718 C717 1.397 . S
C718 C719 1.334 . S
C719 H696 0.950 . S
C719 C718 1.334 . S
C719 C720 1.287 . S
C720 C719 1.287 . S
C720 C721 1.524 . S
C720 H739 0.913 . S
C721 H697 0.950 . S
C721 C720 1.524 . S
C721 C722 1.415 . S
C722 H698 0.950 . S
C722 C717 1.363 . S
C722 C721 1.415 . S
C723 H699 0.951 . S
C723 C724 1.366 . S
C723 C725 1.388 . S
C724 C723 1.366 . S
C724 C728 1.385 . S
C725 H700 0.951 . S
C725 C723 1.388 . S
C725 C726 1.366 . S
C726 C725 1.366 . S
C726 C727 1.414 . S
C726 C729 1.499 . S
C727 H701 0.950 . S
C727 C726 1.414 . S
C727 C728 1.374 . S
C728 H702 0.950 . S
C728 C724 1.385 . S
C728 C727 1.374 . S
C729 C726 1.499 . S
C729 C730 1.373 . S
C729 C731 1.389 . S
C730 H703 0.950 . S
C730 C716 1.377 . S
C730 C729 1.373 . S
C731 C715 1.377 . S
C731 C729 1.389 . S
C731 C732 1.524 . S
C732 C731 1.524 . S
C732 C733 1.397 . S
C732 C737 1.363 . S
C733 H704 0.950 . S
C733 C732 1.397 . S
C733 C734 1.334 . S
C734 H705 0.950 . S
C734 C733 1.334 . S
C734 C735 1.287 . S
C735 C734 1.287 . S
C735 C736 1.524 . S
C735 H738 0.999 . S
C736 H706 0.950 . S
C736 C735 1.524 . S
C736 C737 1.415 . S
C737 H707 0.950 . S
C737 C732 1.363 . S
C737 C736 1.415 . S
H738 C735 0.999 . S
H739 C720 0.913 . S
H740 C758 0.951 . S
H741 C760 0.951 . S
H742 C762 0.950 . S
H743 C763 0.950 . S
H744 C765 0.950 . S
H745 C768 0.950 . S
H746 C769 0.950 . S
H747 C771 0.950 . S
H748 C772 0.950 . S
H749 C773 0.951 . S
H750 C775 0.951 . S
H751 C777 0.950 . S
H752 C778 0.950 1_655 S
H753 C780 0.950 . S
H754 C783 0.950 . S
H755 C784 0.950 . S
H756 C786 0.950 . S
H757 C787 0.950 . S
C758 H740 0.951 . S
C758 C759 1.366 . S
C758 C760 1.388 . S
C759 C758 1.366 . S
C759 C763 1.385 . S
C760 H741 0.951 . S
C760 C758 1.388 . S
C760 C761 1.366 . S
C761 C760 1.366 . S
C761 C762 1.414 . S
C761 C764 1.499 . S
C762 H742 0.950 . S
C762 C761 1.414 . S
C762 C763 1.374 . S
C763 H743 0.950 . S
C763 C759 1.385 . S
C763 C762 1.374 . S
C764 C761 1.499 . S
C764 C765 1.373 . S
C764 C766 1.389 . S
C765 H744 0.950 . S
C765 C764 1.373 . S
C765 C781 1.377 . S
C766 C764 1.389 . S
C766 C767 1.524 . S
C766 C780 1.377 . S
C767 C766 1.524 . S
C767 C768 1.397 . S
C767 C772 1.363 . S
C768 H745 0.950 . S
C768 C767 1.397 . S
C768 C769 1.334 1_554 S
C769 H746 0.950 . S
C769 C768 1.334 1_556 S
C769 C770 1.287 . S
C770 C769 1.287 . S
C770 C771 1.524 . S
C770 H789 0.913 . S
C771 H747 0.950 . S
C771 C770 1.524 . S
C771 C772 1.415 1_556 S
C772 H748 0.950 . S
C772 C767 1.363 . S
C772 C771 1.415 1_554 S
C773 H749 0.951 . S
C773 C774 1.366 . S
C773 C775 1.388 . S
C774 C773 1.366 . S
C774 C778 1.385 . S
C775 H750 0.951 . S
C775 C773 1.388 . S
C775 C776 1.366 . S
C776 C775 1.366 . S
C776 C777 1.414 . S
C776 C779 1.499 . S
C777 H751 0.950 . S
C777 C776 1.414 . S
C777 C778 1.374 . S
C778 H752 0.950 1_455 S
C778 C774 1.385 . S
C778 C777 1.374 . S
C779 C776 1.499 . S
C779 C780 1.373 . S
C779 C781 1.389 . S
C780 H753 0.950 . S
C780 C766 1.377 . S
C780 C779 1.373 . S
C781 C765 1.377 . S
C781 C779 1.389 . S
C781 C782 1.524 . S
C782 C781 1.524 . S
C782 C783 1.397 . S
C782 C787 1.363 . S
C783 H754 0.950 . S
C783 C782 1.397 . S
C783 C784 1.334 . S
C784 H755 0.950 . S
C784 C783 1.334 . S
C784 C785 1.287 . S
C785 C784 1.287 . S
C785 C786 1.524 . S
C785 H788 0.999 . S
C786 H756 0.950 . S
C786 C785 1.524 . S
C786 C787 1.415 . S
C787 H757 0.950 . S
C787 C782 1.363 . S
C787 C786 1.415 . S
H788 C785 0.999 . S
H789 C770 0.913 . S
H790 C808 0.951 . S
H791 C810 0.951 . S
H792 C812 0.950 . S
H793 C813 0.950 . S
H794 C815 0.950 . S
H795 C818 0.950 . S
H796 C819 0.950 . S
H797 C821 0.950 . S
H798 C822 0.950 . S
H799 C823 0.951 . S
H800 C825 0.951 . S
H801 C827 0.950 . S
H802 C828 0.950 . S
H803 C830 0.950 . S
H804 C833 0.950 1_556 S
H805 C834 0.950 . S
H806 C836 0.950 . S
H807 C837 0.944 1_556 S
C808 H790 0.951 . S
C808 C809 1.366 . S
C808 C810 1.388 . S
C809 C808 1.366 . S
C809 C813 1.385 . S
C810 H791 0.951 . S
C810 C808 1.388 . S
C810 C811 1.366 . S
C811 C810 1.366 . S
C811 C812 1.414 . S
C811 C814 1.499 . S
C812 H792 0.950 . S
C812 C811 1.414 . S
C812 C813 1.374 . S
C813 H793 0.950 . S
C813 C809 1.385 . S
C813 C812 1.374 . S
C814 C811 1.499 . S
C814 C815 1.373 . S
C814 C816 1.389 . S
C815 H794 0.950 . S
C815 C814 1.373 . S
C815 C831 1.377 . S
C816 C814 1.389 . S
C816 C817 1.524 . S
C816 C830 1.377 . S
C817 C816 1.524 . S
C817 C818 1.397 . S
C817 C822 1.363 . S
C818 H795 0.950 . S
C818 C817 1.397 . S
C818 C819 1.334 . S
C819 H796 0.950 . S
C819 C818 1.334 . S
C819 C820 1.287 . S
C820 C819 1.287 . S
C820 C821 1.524 . S
C820 H839 0.913 . S
C821 H797 0.950 . S
C821 C820 1.524 . S
C821 C822 1.415 . S
C822 H798 0.950 . S
C822 C817 1.363 . S
C822 C821 1.415 . S
C823 H799 0.951 . S
C823 C824 1.366 . S
C823 C825 1.388 . S
C824 C823 1.366 . S
C824 C828 1.385 . S
C825 H800 0.951 . S
C825 C823 1.388 . S
C825 C826 1.366 . S
C826 C825 1.366 . S
C826 C827 1.414 . S
C826 C829 1.499 . S
C827 H801 0.950 . S
C827 C826 1.414 . S
C827 C828 1.374 . S
C828 H802 0.950 . S
C828 C824 1.385 . S
C828 C827 1.374 . S
C829 C826 1.499 . S
C829 C830 1.373 . S
C829 C831 1.389 . S
C830 H803 0.950 . S
C830 C816 1.377 . S
C830 C829 1.373 . S
C831 C815 1.377 . S
C831 C829 1.389 . S
C831 C832 1.524 . S
C832 C831 1.524 . S
C832 C833 1.397 1_556 S
C832 C837 1.363 1_556 S
C833 H804 0.950 1_554 S
C833 C832 1.397 1_554 S
C833 C834 1.334 . S
C834 H805 0.950 . S
C834 C833 1.334 . S
C834 C835 1.287 . S
C835 C834 1.287 . S
C835 C836 1.524 . S
C835 H838 0.999 . S
C836 H806 0.950 . S
C836 C835 1.524 . S
C836 C837 1.415 . S
C837 H807 0.944 1_554 S
C837 C832 1.363 1_554 S
C837 C836 1.415 . S
H838 C835 0.999 . S
H839 C820 0.913 . S
H840 C858 0.951 . S
H841 C860 0.951 . S
H842 C862 0.950 . S
H843 C863 0.950 . S
H844 C865 0.950 . S
H845 C868 0.950 . S
H846 C869 0.950 . S
H847 C871 0.950 . S
H848 C872 0.950 . S
H849 C873 0.951 . S
H850 C875 0.951 . S
H851 C877 0.950 . S
H852 C878 0.950 . S
H853 C880 0.950 . S
H854 C883 0.950 . S
H855 C884 0.950 . S
H856 C886 0.950 . S
H857 C887 0.950 1_655 S
C858 H840 0.951 . S
C858 C859 1.366 . S
C858 C860 1.388 . S
C859 C858 1.366 . S
C859 C863 1.385 . S
C860 H841 0.951 . S
C860 C858 1.388 . S
C860 C861 1.366 . S
C861 C860 1.366 . S
C861 C862 1.414 . S
C861 C864 1.499 . S
C862 H842 0.950 . S
C862 C861 1.414 . S
C862 C863 1.374 . S
C863 H843 0.950 . S
C863 C859 1.385 . S
C863 C862 1.374 . S
C864 C861 1.499 . S
C864 C865 1.373 . S
C864 C866 1.389 . S
C865 H844 0.950 . S
C865 C864 1.373 . S
C865 C881 1.377 . S
C866 C864 1.389 . S
C866 C867 1.524 . S
C866 C880 1.377 . S
C867 C866 1.524 . S
C867 C868 1.397 . S
C867 C872 1.363 . S
C868 H845 0.950 . S
C868 C867 1.397 . S
C868 C869 1.334 . S
C869 H846 0.950 . S
C869 C868 1.334 . S
C869 C870 1.287 . S
C870 C869 1.287 . S
C870 C871 1.524 . S
C870 H889 0.913 . S
C871 H847 0.950 . S
C871 C870 1.524 . S
C871 C872 1.415 . S
C872 H848 0.950 . S
C872 C867 1.363 . S
C872 C871 1.415 . S
C873 H849 0.951 . S
C873 C874 1.366 . S
C873 C875 1.388 . S
C874 C873 1.366 . S
C874 C878 1.385 . S
C875 H850 0.951 . S
C875 C873 1.388 . S
C875 C876 1.366 . S
C876 C875 1.366 . S
C876 C877 1.414 . S
C876 C879 1.499 . S
C877 H851 0.950 . S
C877 C876 1.414 . S
C877 C878 1.374 . S
C878 H852 0.950 . S
C878 C874 1.385 . S
C878 C877 1.374 . S
C879 C876 1.499 . S
C879 C880 1.373 . S
C879 C881 1.389 . S
C880 H853 0.950 . S
C880 C866 1.377 . S
C880 C879 1.373 . S
C881 C865 1.377 . S
C881 C879 1.389 . S
C881 C882 1.524 . S
C882 C881 1.524 . S
C882 C883 1.397 1_655 S
C882 C887 1.363 1_655 S
C883 H854 0.950 . S
C883 C882 1.397 1_455 S
C883 C884 1.334 . S
C884 H855 0.950 . S
C884 C883 1.334 . S
C884 C885 1.287 . S
C885 C884 1.287 . S
C885 C886 1.524 . S
C885 H888 0.999 . S
C886 H856 0.950 . S
C886 C885 1.524 . S
C886 C887 1.415 . S
C887 H857 0.950 1_455 S
C887 C882 1.363 1_455 S
C887 C886 1.415 . S
H888 C885 0.999 . S
H889 C870 0.913 . S
H890 C908 0.951 . S
H891 C910 0.951 . S
H892 C912 0.950 . S
H893 C913 0.950 . S
H894 C915 0.950 . S
H895 C918 0.950 . S
H896 C919 0.950 . S
H897 C921 0.950 . S
H898 C922 0.950 . S
H899 C923 0.951 . S
H900 C925 0.951 . S
H901 C927 0.950 . S
H902 C928 0.950 . S
H903 C930 0.950 . S
H904 C933 0.950 . S
H905 C934 0.950 . S
H906 C936 0.950 . S
H907 C937 0.950 . S
C908 H890 0.951 . S
C908 C909 1.366 . S
C908 C910 1.388 . S
C909 C908 1.366 . S
C909 C913 1.385 . S
C910 H891 0.951 . S
C910 C908 1.388 . S
C910 C911 1.366 . S
C911 C910 1.366 . S
C911 C912 1.414 . S
C911 C914 1.499 . S
C912 H892 0.950 . S
C912 C911 1.414 . S
C912 C913 1.374 . S
C913 H893 0.950 . S
C913 C909 1.385 . S
C913 C912 1.374 . S
C914 C911 1.499 . S
C914 C915 1.373 . S
C914 C916 1.389 . S
C915 H894 0.950 . S
C915 C914 1.373 . S
C915 C931 1.377 . S
C916 C914 1.389 . S
C916 C917 1.524 . S
C916 C930 1.377 . S
C917 C916 1.524 . S
C917 C918 1.397 . S
C917 C922 1.363 . S
C918 H895 0.950 . S
C918 C917 1.397 . S
C918 C919 1.334 . S
C919 H896 0.950 . S
C919 C918 1.334 . S
C919 C920 1.287 . S
C920 C919 1.287 . S
C920 C921 1.524 . S
C920 H939 0.913 . S
C921 H897 0.950 . S
C921 C920 1.524 . S
C921 C922 1.415 . S
C922 H898 0.950 . S
C922 C917 1.363 . S
C922 C921 1.415 . S
C923 H899 0.951 . S
C923 C924 1.366 . S
C923 C925 1.388 . S
C924 C923 1.366 . S
C924 C928 1.385 . S
C925 H900 0.951 . S
C925 C923 1.388 . S
C925 C926 1.366 . S
C926 C925 1.366 . S
C926 C927 1.414 . S
C926 C929 1.499 . S
C927 H901 0.950 . S
C927 C926 1.414 . S
C927 C928 1.374 . S
C928 H902 0.950 . S
C928 C924 1.385 . S
C928 C927 1.374 . S
C929 C926 1.499 . S
C929 C930 1.373 . S
C929 C931 1.389 . S
C930 H903 0.950 . S
C930 C916 1.377 . S
C930 C929 1.373 . S
C931 C915 1.377 . S
C931 C929 1.389 . S
C931 C932 1.524 . S
C932 C931 1.524 . S
C932 C933 1.397 . S
C932 C937 1.363 . S
C933 H904 0.950 . S
C933 C932 1.397 . S
C933 C934 1.334 . S
C934 H905 0.950 . S
C934 C933 1.334 . S
C934 C935 1.287 . S
C935 C934 1.287 . S
C935 C936 1.524 . S
C935 H938 0.999 . S
C936 H906 0.950 . S
C936 C935 1.524 . S
C936 C937 1.415 . S
C937 H907 0.950 . S
C937 C932 1.363 . S
C937 C936 1.415 . S
H938 C935 0.999 . S
H939 C920 0.913 . S
H940 C958 0.951 . S
H941 C960 0.951 . S
H942 C962 0.950 . S
H943 C963 0.950 . S
H944 C965 0.950 . S
H945 C968 0.950 . S
H946 C969 0.950 . S
H947 C971 0.950 . S
H948 C972 0.950 . S
H949 C973 0.951 . S
H950 C975 0.951 . S
H951 C977 0.950 . S
H952 C978 0.950 1_545 S
H953 C980 0.950 . S
H954 C983 0.950 1_455 S
H955 C984 0.950 . S
H956 C986 0.950 . S
H957 C987 0.950 . S
C958 H940 0.951 . S
C958 C959 1.366 . S
C958 C960 1.388 . S
C959 C958 1.366 . S
C959 C963 1.385 . S
C960 H941 0.951 . S
C960 C958 1.388 . S
C960 C961 1.366 . S
C961 C960 1.366 . S
C961 C962 1.414 . S
C961 C964 1.499 . S
C962 H942 0.950 . S
C962 C961 1.414 . S
C962 C963 1.374 . S
C963 H943 0.950 . S
C963 C959 1.385 . S
C963 C962 1.374 . S
C964 C961 1.499 . S
C964 C965 1.373 . S
C964 C966 1.389 . S
C965 H944 0.950 . S
C965 C964 1.373 . S
C965 C981 1.377 . S
C966 C964 1.389 . S
C966 C967 1.524 . S
C966 C980 1.377 . S
C967 C966 1.524 . S
C967 C968 1.397 . S
C967 C972 1.363 1_565 S
C968 H945 0.950 . S
C968 C967 1.397 . S
C968 C969 1.334 . S
C969 H946 0.950 . S
C969 C968 1.334 . S
C969 C970 1.287 1_565 S
C970 C969 1.287 1_545 S
C970 C971 1.524 . S
C970 H989 0.913 . S
C971 H947 0.950 . S
C971 C970 1.524 . S
C971 C972 1.415 . S
C972 H948 0.950 . S
C972 C967 1.363 1_545 S
C972 C971 1.415 . S
C973 H949 0.951 . S
C973 C974 1.366 . S
C973 C975 1.388 . S
C974 C973 1.366 . S
C974 C978 1.385 . S
C975 H950 0.951 . S
C975 C973 1.388 . S
C975 C976 1.366 . S
C976 C975 1.366 . S
C976 C977 1.414 . S
C976 C979 1.499 . S
C977 H951 0.950 . S
C977 C976 1.414 . S
C977 C978 1.374 . S
C978 H952 0.950 1_565 S
C978 C974 1.385 . S
C978 C977 1.374 . S
C979 C976 1.499 . S
C979 C980 1.373 . S
C979 C981 1.389 . S
C980 H953 0.950 . S
C980 C966 1.377 . S
C980 C979 1.373 . S
C981 C965 1.377 . S
C981 C979 1.389 . S
C981 C982 1.524 . S
C982 C981 1.524 . S
C982 C983 1.397 . S
C982 C987 1.363 . S
C983 H954 0.950 1_655 S
C983 C982 1.397 . S
C983 C984 1.334 1_655 S
C984 H955 0.950 . S
C984 C983 1.334 1_455 S
C984 C985 1.287 . S
C985 C984 1.287 . S
C985 C986 1.524 1_455 S
C985 H988 0.999 . S
C986 H956 0.950 . S
C986 C985 1.524 1_655 S
C986 C987 1.415 . S
C987 H957 0.950 . S
C987 C982 1.363 . S
C987 C986 1.415 . S
H988 C985 0.999 . S
H989 C970 0.913 . S
H990 C1008 0.951 . S
H991 C1010 0.951 . S
H992 C1012 0.950 . S
H993 C1013 0.950 . S
H994 C1015 0.950 . S
H995 C1018 0.950 . S
H996 C1019 0.950 . S
H997 C1021 0.950 . S
H998 C1022 0.950 . S
H999 C1023 0.951 . S
H1000 C1025 0.951 . S
H1001 C1027 0.950 . S
H1002 C1028 0.950 . S
H1003 C1030 0.950 . S
H1004 C1033 0.950 . S
H1005 C1034 0.950 . S
H1006 C1036 0.950 . S
H1007 C1037 0.950 . S
C1008 H990 0.951 . S
C1008 C1009 1.366 . S
C1008 C1010 1.388 . S
C1009 C1008 1.366 . S
C1009 C1013 1.385 . S
C1010 H991 0.951 . S
C1010 C1008 1.388 . S
C1010 C1011 1.366 . S
C1011 C1010 1.366 . S
C1011 C1012 1.414 . S
C1011 C1014 1.499 . S
C1012 H992 0.950 . S
C1012 C1011 1.414 . S
C1012 C1013 1.374 . S
C1013 H993 0.950 . S
C1013 C1009 1.385 . S
C1013 C1012 1.374 . S
C1014 C1011 1.499 . S
C1014 C1015 1.373 . S
C1014 C1016 1.389 . S
C1015 H994 0.950 . S
C1015 C1014 1.373 . S
C1015 C1031 1.377 . S
C1016 C1014 1.389 . S
C1016 C1017 1.524 . S
C1016 C1030 1.377 . S
C1017 C1016 1.524 . S
C1017 C1018 1.397 . S
C1017 C1022 1.363 . S
C1018 H995 0.950 . S
C1018 C1017 1.397 . S
C1018 C1019 1.334 . S
C1019 H996 0.950 . S
C1019 C1018 1.334 . S
C1019 C1020 1.287 . S
C1020 C1019 1.287 . S
C1020 C1021 1.524 . S
C1020 H1039 0.913 . S
C1021 H997 0.950 . S
C1021 C1020 1.524 . S
C1021 C1022 1.415 . S
C1022 H998 0.950 . S
C1022 C1017 1.363 . S
C1022 C1021 1.415 . S
C1023 H999 0.951 . S
C1023 C1024 1.366 . S
C1023 C1025 1.388 . S
C1024 C1023 1.366 . S
C1024 C1028 1.385 . S
C1025 H1000 0.951 . S
C1025 C1023 1.388 . S
C1025 C1026 1.366 . S
C1026 C1025 1.366 . S
C1026 C1027 1.414 . S
C1026 C1029 1.499 . S
C1027 H1001 0.950 . S
C1027 C1026 1.414 . S
C1027 C1028 1.374 . S
C1028 H1002 0.950 . S
C1028 C1024 1.385 . S
C1028 C1027 1.374 . S
C1029 C1026 1.499 . S
C1029 C1030 1.373 . S
C1029 C1031 1.389 . S
C1030 H1003 0.950 . S
C1030 C1016 1.377 . S
C1030 C1029 1.373 . S
C1031 C1015 1.377 . S
C1031 C1029 1.389 . S
C1031 C1032 1.524 . S
C1032 C1031 1.524 . S
C1032 C1033 1.397 . S
C1032 C1037 1.363 . S
C1033 H1004 0.950 . S
C1033 C1032 1.397 . S
C1033 C1034 1.334 . S
C1034 H1005 0.950 . S
C1034 C1033 1.334 . S
C1034 C1035 1.287 1_545 S
C1035 C1034 1.287 1_565 S
C1035 C1036 1.524 . S
C1035 H1038 0.999 . S
C1036 H1006 0.950 . S
C1036 C1035 1.524 . S
C1036 C1037 1.415 1_565 S
C1037 H1007 0.950 . S
C1037 C1032 1.363 . S
C1037 C1036 1.415 1_545 S
H1038 C1035 0.999 . S
H1039 C1020 0.913 . S
H1040 C1058 0.951 . S
H1041 C1060 0.951 . S
H1042 C1062 0.950 . S
H1043 C1063 0.950 . S
H1044 C1065 0.950 . S
H1045 C1068 0.950 . S
H1046 C1069 0.950 . S
H1047 C1071 0.950 . S
H1048 C1072 0.950 . S
H1049 C1073 0.951 . S
H1050 C1075 0.951 . S
H1051 C1077 0.950 . S
H1052 C1078 0.950 . S
H1053 C1080 0.950 . S
H1054 C1083 0.950 . S
H1055 C1084 0.950 . S
H1056 C1086 0.950 . S
H1057 C1087 0.950 . S
C1058 H1040 0.951 . S
C1058 C1059 1.366 . S
C1058 C1060 1.388 . S
C1059 C1058 1.366 . S
C1059 C1063 1.385 . S
C1060 H1041 0.951 . S
C1060 C1058 1.388 . S
C1060 C1061 1.366 . S
C1061 C1060 1.366 . S
C1061 C1062 1.414 . S
C1061 C1064 1.499 . S
C1062 H1042 0.950 . S
C1062 C1061 1.414 . S
C1062 C1063 1.374 . S
C1063 H1043 0.950 . S
C1063 C1059 1.385 . S
C1063 C1062 1.374 . S
C1064 C1061 1.499 . S
C1064 C1065 1.373 . S
C1064 C1066 1.389 . S
C1065 H1044 0.950 . S
C1065 C1064 1.373 . S
C1065 C1081 1.377 . S
C1066 C1064 1.389 . S
C1066 C1067 1.524 . S
C1066 C1080 1.377 . S
C1067 C1066 1.524 . S
C1067 C1068 1.397 . S
C1067 C1072 1.363 . S
C1068 H1045 0.950 . S
C1068 C1067 1.397 . S
C1068 C1069 1.334 . S
C1069 H1046 0.950 . S
C1069 C1068 1.334 . S
C1069 C1070 1.287 . S
C1070 C1069 1.287 . S
C1070 C1071 1.524 . S
C1070 H1089 0.913 . S
C1071 H1047 0.950 . S
C1071 C1070 1.524 . S
C1071 C1072 1.415 . S
C1072 H1048 0.950 . S
C1072 C1067 1.363 . S
C1072 C1071 1.415 . S
C1073 H1049 0.951 . S
C1073 C1074 1.366 . S
C1073 C1075 1.388 . S
C1074 C1073 1.366 . S
C1074 C1078 1.385 . S
C1075 H1050 0.951 . S
C1075 C1073 1.388 . S
C1075 C1076 1.366 . S
C1076 C1075 1.366 . S
C1076 C1077 1.414 . S
C1076 C1079 1.499 . S
C1077 H1051 0.950 . S
C1077 C1076 1.414 . S
C1077 C1078 1.374 . S
C1078 H1052 0.950 . S
C1078 C1074 1.385 . S
C1078 C1077 1.374 . S
C1079 C1076 1.499 . S
C1079 C1080 1.373 . S
C1079 C1081 1.389 . S
C1080 H1053 0.950 . S
C1080 C1066 1.377 . S
C1080 C1079 1.373 . S
C1081 C1065 1.377 . S
C1081 C1079 1.389 . S
C1081 C1082 1.524 . S
C1082 C1081 1.524 . S
C1082 C1083 1.397 . S
C1082 C1087 1.363 . S
C1083 H1054 0.950 . S
C1083 C1082 1.397 . S
C1083 C1084 1.334 . S
C1084 H1055 0.950 . S
C1084 C1083 1.334 . S
C1084 C1085 1.287 . S
C1085 C1084 1.287 . S
C1085 C1086 1.524 . S
C1085 H1088 0.999 . S
C1086 H1056 0.950 . S
C1086 C1085 1.524 . S
C1086 C1087 1.415 . S
C1087 H1057 0.950 . S
C1087 C1082 1.363 . S
C1087 C1086 1.415 . S
H1088 C1085 0.999 . S
H1089 C1070 0.913 . S
H1090 C1108 0.951 . S
H1091 C1110 0.951 . S
H1092 C1112 0.950 . S
H1093 C1113 0.950 . S
H1094 C1115 0.950 . S
H1095 C1118 0.950 . S
H1096 C1119 0.950 . S
H1097 C1121 0.950 . S
H1098 C1122 0.950 . S
H1099 C1123 0.951 . S
H1100 C1125 0.951 . S
H1101 C1127 0.950 . S
H1102 C1128 0.950 . S
H1103 C1130 0.950 . S
H1104 C1133 0.950 1_455 S
H1105 C1134 0.950 . S
H1106 C1136 0.950 . S
H1107 C1137 0.950 . S
C1108 H1090 0.951 . S
C1108 C1109 1.366 . S
C1108 C1110 1.388 . S
C1109 C1108 1.366 . S
C1109 C1113 1.385 . S
C1110 H1091 0.951 . S
C1110 C1108 1.388 . S
C1110 C1111 1.366 . S
C1111 C1110 1.366 . S
C1111 C1112 1.414 . S
C1111 C1114 1.499 . S
C1112 H1092 0.950 . S
C1112 C1111 1.414 . S
C1112 C1113 1.374 . S
C1113 H1093 0.950 . S
C1113 C1109 1.385 . S
C1113 C1112 1.374 . S
C1114 C1111 1.499 . S
C1114 C1115 1.373 . S
C1114 C1116 1.389 . S
C1115 H1094 0.950 . S
C1115 C1114 1.373 . S
C1115 C1131 1.377 . S
C1116 C1114 1.389 . S
C1116 C1117 1.524 . S
C1116 C1130 1.377 . S
C1117 C1116 1.524 . S
C1117 C1118 1.397 . S
C1117 C1122 1.363 . S
C1118 H1095 0.950 . S
C1118 C1117 1.397 . S
C1118 C1119 1.334 . S
C1119 H1096 0.950 . S
C1119 C1118 1.334 . S
C1119 C1120 1.287 . S
C1120 C1119 1.287 . S
C1120 C1121 1.524 . S
C1120 H1139 0.913 . S
C1121 H1097 0.950 . S
C1121 C1120 1.524 . S
C1121 C1122 1.415 . S
C1122 H1098 0.950 . S
C1122 C1117 1.363 . S
C1122 C1121 1.415 . S
C1123 H1099 0.951 . S
C1123 C1124 1.366 . S
C1123 C1125 1.388 . S
C1124 C1123 1.366 . S
C1124 C1128 1.385 . S
C1125 H1100 0.951 . S
C1125 C1123 1.388 . S
C1125 C1126 1.366 . S
C1126 C1125 1.366 . S
C1126 C1127 1.414 . S
C1126 C1129 1.499 . S
C1127 H1101 0.950 . S
C1127 C1126 1.414 . S
C1127 C1128 1.374 . S
C1128 H1102 0.950 . S
C1128 C1124 1.385 . S
C1128 C1127 1.374 . S
C1129 C1126 1.499 . S
C1129 C1130 1.373 . S
C1129 C1131 1.389 . S
C1130 H1103 0.950 . S
C1130 C1116 1.377 . S
C1130 C1129 1.373 . S
C1131 C1115 1.377 . S
C1131 C1129 1.389 . S
C1131 C1132 1.524 . S
C1132 C1131 1.524 . S
C1132 C1133 1.397 1_455 S
C1132 C1137 1.363 1_455 S
C1133 H1104 0.950 1_655 S
C1133 C1132 1.397 1_655 S
C1133 C1134 1.334 . S
C1134 H1105 0.950 . S
C1134 C1133 1.334 . S
C1134 C1135 1.287 . S
C1135 C1134 1.287 . S
C1135 C1136 1.524 . S
C1135 H1138 0.999 . S
C1136 H1106 0.950 . S
C1136 C1135 1.524 . S
C1136 C1137 1.415 . S
C1137 H1107 0.950 . S
C1137 C1132 1.363 1_655 S
C1137 C1136 1.415 . S
H1138 C1135 0.999 . S
H1139 C1120 0.913 . S
H1140 C1158 0.951 . S
H1141 C1160 0.951 . S
H1142 C1162 0.950 . S
H1143 C1163 0.950 . S
H1144 C1165 0.950 . S
H1145 C1168 0.950 . S
H1146 C1169 0.950 . S
H1147 C1171 0.950 . S
H1148 C1172 0.950 . S
H1149 C1173 0.951 . S
H1150 C1175 0.951 1_545 S
H1151 C1177 0.950 . S
H1152 C1178 0.950 . S
H1153 C1180 0.950 . S
H1154 C1183 0.950 . S
H1155 C1184 0.950 . S
H1156 C1186 0.950 . S
H1157 C1187 0.950 1_546 S
C1158 H1140 0.951 . S
C1158 C1159 1.366 . S
C1158 C1160 1.388 . S
C1159 C1158 1.366 . S
C1159 C1163 1.385 . S
C1160 H1141 0.951 . S
C1160 C1158 1.388 . S
C1160 C1161 1.366 . S
C1161 C1160 1.366 . S
C1161 C1162 1.414 . S
C1161 C1164 1.499 . S
C1162 H1142 0.950 . S
C1162 C1161 1.414 . S
C1162 C1163 1.374 . S
C1163 H1143 0.950 . S
C1163 C1159 1.385 . S
C1163 C1162 1.374 . S
C1164 C1161 1.499 . S
C1164 C1165 1.373 . S
C1164 C1166 1.389 . S
C1165 H1144 0.950 . S
C1165 C1164 1.373 . S
C1165 C1181 1.377 . S
C1166 C1164 1.389 . S
C1166 C1167 1.524 . S
C1166 C1180 1.377 . S
C1167 C1166 1.524 . S
C1167 C1168 1.397 . S
C1167 C1172 1.363 . S
C1168 H1145 0.950 . S
C1168 C1167 1.397 . S
C1168 C1169 1.334 . S
C1169 H1146 0.950 . S
C1169 C1168 1.334 . S
C1169 C1170 1.287 . S
C1170 C1169 1.287 . S
C1170 C1171 1.524 . S
C1170 H1189 0.913 . S
C1171 H1147 0.950 . S
C1171 C1170 1.524 . S
C1171 C1172 1.415 . S
C1172 H1148 0.950 . S
C1172 C1167 1.363 . S
C1172 C1171 1.415 . S
C1173 H1149 0.951 . S
C1173 C1174 1.366 1_545 S
C1173 C1175 1.388 1_545 S
C1174 C1173 1.366 1_565 S
C1174 C1178 1.385 . S
C1175 H1150 0.951 1_565 S
C1175 C1173 1.388 1_565 S
C1175 C1176 1.366 . S
C1176 C1175 1.366 . S
C1176 C1177 1.414 . S
C1176 C1179 1.499 . S
C1177 H1151 0.950 . S
C1177 C1176 1.414 . S
C1177 C1178 1.374 . S
C1178 H1152 0.950 . S
C1178 C1174 1.385 . S
C1178 C1177 1.374 . S
C1179 C1176 1.499 . S
C1179 C1180 1.373 . S
C1179 C1181 1.389 . S
C1180 H1153 0.950 . S
C1180 C1166 1.377 . S
C1180 C1179 1.373 . S
C1181 C1165 1.377 . S
C1181 C1179 1.389 . S
C1181 C1182 1.531 . S
C1182 C1181 1.531 . S
C1182 C1183 1.392 1_556 S
C1182 C1187 1.361 1_556 S
C1183 H1154 0.950 . S
C1183 C1182 1.392 1_554 S
C1183 C1184 1.334 . S
C1184 H1155 0.950 . S
C1184 C1183 1.334 . S
C1184 C1185 1.287 . S
C1185 C1184 1.287 . S
C1185 C1186 1.524 1_565 S
C1185 H1188 0.999 1_565 S
C1186 H1156 0.950 . S
C1186 C1185 1.524 1_545 S
C1186 C1187 1.415 1_545 S
C1187 H1157 0.950 1_564 S
C1187 C1182 1.361 1_554 S
C1187 C1186 1.415 1_565 S
H1188 C1185 0.999 1_545 S
H1189 C1170 0.913 . S
H1190 C1208 0.951 . S
H1191 C1210 0.951 . S
H1192 C1212 0.950 . S
H1193 C1213 0.950 . S
H1194 C1215 0.950 . S
H1195 C1218 0.950 . S
H1196 C1219 0.950 . S
H1197 C1221 0.950 . S
H1198 C1222 0.950 . S
H1199 C1223 0.951 . S
H1200 C1225 0.951 . S
H1201 C1227 0.950 . S
H1202 C1228 0.950 . S
H1203 C1230 0.950 . S
H1204 C1233 0.950 . S
H1205 C1234 0.950 . S
H1206 C1236 0.950 . S
H1207 C1237 0.950 1_545 S
C1208 H1190 0.951 . S
C1208 C1209 1.366 . S
C1208 C1210 1.388 . S
C1209 C1208 1.366 . S
C1209 C1213 1.385 . S
C1210 H1191 0.951 . S
C1210 C1208 1.388 . S
C1210 C1211 1.366 . S
C1211 C1210 1.366 . S
C1211 C1212 1.414 . S
C1211 C1214 1.499 . S
C1212 H1192 0.950 . S
C1212 C1211 1.414 . S
C1212 C1213 1.374 . S
C1213 H1193 0.950 . S
C1213 C1209 1.385 . S
C1213 C1212 1.374 . S
C1214 C1211 1.499 . S
C1214 C1215 1.373 . S
C1214 C1216 1.389 . S
C1215 H1194 0.950 . S
C1215 C1214 1.373 . S
C1215 C1231 1.377 . S
C1216 C1214 1.389 . S
C1216 C1217 1.524 . S
C1216 C1230 1.377 . S
C1217 C1216 1.524 . S
C1217 C1218 1.397 . S
C1217 C1222 1.363 . S
C1218 H1195 0.950 . S
C1218 C1217 1.397 . S
C1218 C1219 1.334 . S
C1219 H1196 0.950 . S
C1219 C1218 1.334 . S
C1219 C1220 1.287 . S
C1220 C1219 1.287 . S
C1220 C1221 1.524 . S
C1220 H1239 0.913 . S
C1221 H1197 0.950 . S
C1221 C1220 1.524 . S
C1221 C1222 1.415 . S
C1222 H1198 0.950 . S
C1222 C1217 1.363 . S
C1222 C1221 1.415 . S
C1223 H1199 0.951 . S
C1223 C1224 1.366 . S
C1223 C1225 1.388 . S
C1224 C1223 1.366 . S
C1224 C1228 1.385 . S
C1225 H1200 0.951 . S
C1225 C1223 1.388 . S
C1225 C1226 1.366 . S
C1226 C1225 1.366 . S
C1226 C1227 1.414 . S
C1226 C1229 1.499 . S
C1227 H1201 0.950 . S
C1227 C1226 1.414 . S
C1227 C1228 1.374 . S
C1228 H1202 0.950 . S
C1228 C1224 1.385 . S
C1228 C1227 1.374 . S
C1229 C1226 1.499 . S
C1229 C1230 1.373 . S
C1229 C1231 1.389 . S
C1230 H1203 0.950 . S
C1230 C1216 1.377 . S
C1230 C1229 1.373 . S
C1231 C1215 1.377 . S
C1231 C1229 1.389 . S
C1231 C1232 1.524 . S
C1232 C1231 1.524 . S
C1232 C1233 1.397 . S
C1232 C1237 1.363 1_545 S
C1233 H1204 0.950 . S
C1233 C1232 1.397 . S
C1233 C1234 1.334 1_545 S
C1234 H1205 0.950 . S
C1234 C1233 1.334 1_565 S
C1234 C1235 1.287 . S
C1235 C1234 1.287 . S
C1235 C1236 1.524 . S
C1235 H1238 0.999 . S
C1236 H1206 0.950 . S
C1236 C1235 1.524 . S
C1236 C1237 1.415 . S
C1237 H1207 0.950 1_565 S
C1237 C1232 1.363 1_565 S
C1237 C1236 1.415 . S
H1238 C1235 0.999 . S
H1239 C1220 0.913 . S
H1240 C1258 0.951 . S
H1241 C1260 0.951 . S
H1242 C1262 0.950 . S
H1243 C1263 0.950 . S
H1244 C1265 0.950 . S
H1245 C1268 0.950 . S
H1246 C1269 0.950 . S
H1247 C1271 0.950 . S
H1248 C1272 0.950 . S
H1249 C1273 0.951 . S
H1250 C1275 0.951 . S
H1251 C1277 0.950 . S
H1252 C1278 0.950 1_556 S
H1253 C1280 0.950 . S
H1254 C1283 0.950 . S
H1255 C1284 0.950 . S
H1256 C1286 0.950 . S
H1257 C1287 0.950 . S
C1258 H1240 0.951 . S
C1258 C1259 1.366 . S
C1258 C1260 1.388 . S
C1259 C1258 1.366 . S
C1259 C1263 1.385 . S
C1260 H1241 0.951 . S
C1260 C1258 1.388 . S
C1260 C1261 1.366 . S
C1261 C1260 1.366 . S
C1261 C1262 1.414 . S
C1261 C1264 1.499 . S
C1262 H1242 0.950 . S
C1262 C1261 1.414 . S
C1262 C1263 1.374 . S
C1263 H1243 0.950 . S
C1263 C1259 1.385 . S
C1263 C1262 1.374 . S
C1264 C1261 1.499 . S
C1264 C1265 1.373 . S
C1264 C1266 1.389 . S
C1265 H1244 0.950 . S
C1265 C1264 1.373 . S
C1265 C1281 1.377 . S
C1266 C1264 1.389 . S
C1266 C1267 1.524 . S
C1266 C1280 1.377 . S
C1267 C1266 1.524 . S
C1267 C1268 1.397 . S
C1267 C1272 1.363 . S
C1268 H1245 0.950 . S
C1268 C1267 1.397 . S
C1268 C1269 1.334 . S
C1269 H1246 0.950 . S
C1269 C1268 1.334 . S
C1269 C1270 1.287 . S
C1270 C1269 1.287 . S
C1270 C1271 1.524 . S
C1270 H1289 0.913 . S
C1271 H1247 0.950 . S
C1271 C1270 1.524 . S
C1271 C1272 1.415 . S
C1272 H1248 0.950 . S
C1272 C1267 1.363 . S
C1272 C1271 1.415 . S
C1273 H1249 0.951 . S
C1273 C1274 1.366 . S
C1273 C1275 1.388 . S
C1274 C1273 1.366 . S
C1274 C1278 1.385 . S
C1275 H1250 0.951 . S
C1275 C1273 1.388 . S
C1275 C1276 1.366 . S
C1276 C1275 1.366 . S
C1276 C1277 1.414 . S
C1276 C1279 1.499 . S
C1277 H1251 0.950 . S
C1277 C1276 1.414 . S
C1277 C1278 1.374 . S
C1278 H1252 0.950 1_554 S
C1278 C1274 1.385 . S
C1278 C1277 1.374 . S
C1279 C1276 1.499 . S
C1279 C1280 1.373 . S
C1279 C1281 1.389 . S
C1280 H1253 0.950 . S
C1280 C1266 1.377 . S
C1280 C1279 1.373 . S
C1281 C1265 1.377 . S
C1281 C1279 1.389 . S
C1281 C1282 1.524 . S
C1282 C1281 1.524 . S
C1282 C1283 1.397 . S
C1282 C1287 1.363 . S
C1283 H1254 0.950 . S
C1283 C1282 1.397 . S
C1283 C1284 1.334 . S
C1284 H1255 0.950 . S
C1284 C1283 1.334 . S
C1284 C1285 1.287 . S
C1285 C1284 1.287 . S
C1285 C1286 1.524 . S
C1285 H1288 0.999 . S
C1286 H1256 0.950 . S
C1286 C1285 1.524 . S
C1286 C1287 1.415 . S
C1287 H1257 0.950 . S
C1287 C1282 1.363 . S
C1287 C1286 1.415 . S
H1288 C1285 0.999 . S
H1289 C1270 0.913 . S
H1290 C1308 0.951 . S
H1291 C1310 0.951 . S
H1292 C1312 0.950 . S
H1293 C1313 0.950 . S
H1294 C1315 0.950 . S
H1295 C1318 0.950 . S
H1296 C1319 0.950 . S
H1297 C1321 0.950 . S
H1298 C1322 0.950 . S
H1299 C1323 0.951 . S
H1300 C1325 0.951 . S
H1301 C1327 0.950 . S
H1302 C1328 0.950 . S
H1303 C1330 0.950 . S
H1304 C1333 0.950 . S
H1305 C1334 0.950 . S
H1306 C1336 0.950 . S
H1307 C1337 0.950 . S
C1308 H1290 0.951 . S
C1308 C1309 1.366 . S
C1308 C1310 1.388 . S
C1309 C1308 1.366 . S
C1309 C1313 1.385 . S
C1310 H1291 0.951 . S
C1310 C1308 1.388 . S
C1310 C1311 1.366 . S
C1311 C1310 1.366 . S
C1311 C1312 1.414 . S
C1311 C1314 1.499 . S
C1312 H1292 0.950 . S
C1312 C1311 1.414 . S
C1312 C1313 1.374 . S
C1313 H1293 0.950 . S
C1313 C1309 1.385 . S
C1313 C1312 1.374 . S
C1314 C1311 1.499 . S
C1314 C1315 1.373 . S
C1314 C1316 1.389 . S
C1315 H1294 0.950 . S
C1315 C1314 1.373 . S
C1315 C1331 1.377 . S
C1316 C1314 1.389 . S
C1316 C1317 1.524 . S
C1316 C1330 1.377 . S
C1317 C1316 1.524 . S
C1317 C1318 1.397 . S
C1317 C1322 1.363 . S
C1318 H1295 0.950 . S
C1318 C1317 1.397 . S
C1318 C1319 1.334 . S
C1319 H1296 0.950 . S
C1319 C1318 1.334 . S
C1319 C1320 1.287 . S
C1320 C1319 1.287 . S
C1320 C1321 1.524 . S
C1320 H1339 0.913 . S
C1321 H1297 0.950 . S
C1321 C1320 1.524 . S
C1321 C1322 1.415 . S
C1322 H1298 0.950 . S
C1322 C1317 1.363 . S
C1322 C1321 1.415 . S
C1323 H1299 0.951 . S
C1323 C1324 1.366 . S
C1323 C1325 1.388 . S
C1324 C1323 1.366 . S
C1324 C1328 1.385 . S
C1325 H1300 0.951 . S
C1325 C1323 1.388 . S
C1325 C1326 1.366 . S
C1326 C1325 1.366 . S
C1326 C1327 1.414 . S
C1326 C1329 1.499 . S
C1327 H1301 0.950 . S
C1327 C1326 1.414 . S
C1327 C1328 1.374 . S
C1328 H1302 0.950 . S
C1328 C1324 1.385 . S
C1328 C1327 1.374 . S
C1329 C1326 1.499 . S
C1329 C1330 1.373 . S
C1329 C1331 1.389 . S
C1330 H1303 0.950 . S
C1330 C1316 1.377 . S
C1330 C1329 1.373 . S
C1331 C1315 1.377 . S
C1331 C1329 1.389 . S
C1331 C1332 1.524 . S
C1332 C1331 1.524 . S
C1332 C1333 1.397 . S
C1332 C1337 1.363 . S
C1333 H1304 0.950 . S
C1333 C1332 1.397 . S
C1333 C1334 1.334 . S
C1334 H1305 0.950 . S
C1334 C1333 1.334 . S
C1334 C1335 1.287 . S
C1335 C1334 1.287 . S
C1335 C1336 1.524 . S
C1335 H1338 0.999 . S
C1336 H1306 0.950 . S
C1336 C1335 1.524 . S
C1336 C1337 1.415 . S
C1337 H1307 0.950 . S
C1337 C1332 1.363 . S
C1337 C1336 1.415 . S
H1338 C1335 0.999 . S
H1339 C1320 0.913 . S
H1340 C1358 0.951 . S
H1341 C1360 0.951 . S
H1342 C1362 0.950 . S
H1343 C1363 0.950 . S
H1344 C1365 0.950 . S
H1345 C1368 0.950 . S
H1346 C1369 0.950 . S
H1347 C1371 0.950 . S
H1348 C1372 0.950 . S
H1349 C1373 0.951 1_554 S
H1350 C1375 0.951 . S
H1351 C1377 0.950 . S
H1352 C1378 0.950 . S
H1353 C1380 0.950 . S
H1354 C1383 0.950 1_655 S
H1355 C1384 0.950 . S
H1356 C1386 0.950 . S
H1357 C1387 0.961 . S
C1358 H1340 0.951 . S
C1358 C1359 1.366 . S
C1358 C1360 1.388 . S
C1359 C1358 1.366 . S
C1359 C1363 1.385 . S
C1360 H1341 0.951 . S
C1360 C1358 1.388 . S
C1360 C1361 1.366 . S
C1361 C1360 1.366 . S
C1361 C1362 1.414 . S
C1361 C1364 1.499 . S
C1362 H1342 0.950 . S
C1362 C1361 1.414 . S
C1362 C1363 1.374 . S
C1363 H1343 0.950 . S
C1363 C1359 1.385 . S
C1363 C1362 1.374 . S
C1364 C1361 1.499 . S
C1364 C1365 1.373 . S
C1364 C1366 1.389 . S
C1365 H1344 0.950 . S
C1365 C1364 1.373 . S
C1365 C1381 1.377 . S
C1366 C1364 1.389 . S
C1366 C1367 1.524 . S
C1366 C1380 1.377 . S
C1367 C1366 1.524 . S
C1367 C1368 1.397 . S
C1367 C1372 1.363 . S
C1368 H1345 0.950 . S
C1368 C1367 1.397 . S
C1368 C1369 1.334 . S
C1369 H1346 0.950 . S
C1369 C1368 1.334 . S
C1369 C1370 1.287 . S
C1370 C1369 1.287 . S
C1370 C1371 1.524 . S
C1370 H1389 0.913 . S
C1371 H1347 0.950 . S
C1371 C1370 1.524 . S
C1371 C1372 1.415 . S
C1372 H1348 0.950 . S
C1372 C1367 1.363 . S
C1372 C1371 1.415 . S
C1373 H1349 0.951 1_556 S
C1373 C1374 1.366 . S
C1373 C1375 1.388 . S
C1374 C1373 1.366 . S
C1374 C1378 1.385 . S
C1375 H1350 0.951 . S
C1375 C1373 1.388 . S
C1375 C1376 1.366 . S
C1376 C1375 1.366 . S
C1376 C1377 1.414 . S
C1376 C1379 1.499 . S
C1377 H1351 0.950 . S
C1377 C1376 1.414 . S
C1377 C1378 1.374 . S
C1378 H1352 0.950 . S
C1378 C1374 1.385 . S
C1378 C1377 1.374 . S
C1379 C1376 1.499 . S
C1379 C1380 1.373 . S
C1379 C1381 1.389 . S
C1380 H1353 0.950 . S
C1380 C1366 1.377 . S
C1380 C1379 1.373 . S
C1381 C1365 1.377 . S
C1381 C1379 1.389 . S
C1381 C1382 1.524 . S
C1382 C1381 1.524 . S
C1382 C1383 1.397 1_655 S
C1382 C1387 1.363 1_655 S
C1383 H1354 0.950 1_455 S
C1383 C1382 1.397 1_455 S
C1383 C1384 1.334 . S
C1384 H1355 0.950 . S
C1384 C1383 1.334 . S
C1384 C1385 1.287 . S
C1385 C1384 1.287 . S
C1385 C1386 1.524 . S
C1385 H1388 0.999 . S
C1386 H1356 0.950 . S
C1386 C1385 1.524 . S
C1386 C1387 1.415 . S
C1387 H1357 0.961 . S
C1387 C1382 1.363 1_455 S
C1387 C1386 1.415 . S
H1388 C1385 0.999 . S
H1389 C1370 0.913 . S
H1390 C1408 0.951 . S
H1391 C1410 0.951 . S
H1392 C1412 0.950 . S
H1393 C1413 0.950 . S
H1394 C1415 0.950 . S
H1395 C1418 0.950 . S
H1396 C1419 0.950 . S
H1397 C1421 0.950 . S
H1398 C1422 0.950 . S
H1399 C1423 0.951 . S
H1400 C1425 0.951 . S
H1401 C1427 0.950 . S
H1402 C1428 0.950 . S
H1403 C1430 0.950 . S
H1404 C1433 0.950 . S
H1405 C1434 0.950 . S
H1406 C1436 0.950 . S
H1407 C1437 0.950 . S
C1408 H1390 0.951 . S
C1408 C1409 1.366 . S
C1408 C1410 1.388 . S
C1409 C1408 1.366 . S
C1409 C1413 1.385 . S
C1410 H1391 0.951 . S
C1410 C1408 1.388 . S
C1410 C1411 1.366 . S
C1411 C1410 1.366 . S
C1411 C1412 1.414 . S
C1411 C1414 1.499 . S
C1412 H1392 0.950 . S
C1412 C1411 1.414 . S
C1412 C1413 1.374 . S
C1413 H1393 0.950 . S
C1413 C1409 1.385 . S
C1413 C1412 1.374 . S
C1414 C1411 1.499 . S
C1414 C1415 1.373 . S
C1414 C1416 1.389 . S
C1415 H1394 0.950 . S
C1415 C1414 1.373 . S
C1415 C1431 1.377 . S
C1416 C1414 1.389 . S
C1416 C1417 1.524 . S
C1416 C1430 1.377 . S
C1417 C1416 1.524 . S
C1417 C1418 1.397 . S
C1417 C1422 1.363 . S
C1418 H1395 0.950 . S
C1418 C1417 1.397 . S
C1418 C1419 1.334 . S
C1419 H1396 0.950 . S
C1419 C1418 1.334 . S
C1419 C1420 1.287 . S
C1420 C1419 1.287 . S
C1420 C1421 1.524 . S
C1420 H1439 0.913 . S
C1421 H1397 0.950 . S
C1421 C1420 1.524 . S
C1421 C1422 1.415 . S
C1422 H1398 0.950 . S
C1422 C1417 1.363 . S
C1422 C1421 1.415 . S
C1423 H1399 0.951 . S
C1423 C1424 1.366 . S
C1423 C1425 1.388 . S
C1424 C1423 1.366 . S
C1424 C1428 1.385 . S
C1425 H1400 0.951 . S
C1425 C1423 1.388 . S
C1425 C1426 1.366 . S
C1426 C1425 1.366 . S
C1426 C1427 1.414 . S
C1426 C1429 1.499 . S
C1427 H1401 0.950 . S
C1427 C1426 1.414 . S
C1427 C1428 1.374 . S
C1428 H1402 0.950 . S
C1428 C1424 1.385 . S
C1428 C1427 1.374 . S
C1429 C1426 1.499 . S
C1429 C1430 1.373 . S
C1429 C1431 1.389 . S
C1430 H1403 0.950 . S
C1430 C1416 1.377 . S
C1430 C1429 1.373 . S
C1431 C1415 1.377 . S
C1431 C1429 1.389 . S
C1431 C1432 1.524 . S
C1432 C1431 1.524 . S
C1432 C1433 1.397 . S
C1432 C1437 1.363 . S
C1433 H1404 0.950 . S
C1433 C1432 1.397 . S
C1433 C1434 1.334 . S
C1434 H1405 0.950 . S
C1434 C1433 1.334 . S
C1434 C1435 1.287 . S
C1435 C1434 1.287 . S
C1435 C1436 1.524 . S
C1435 H1438 0.999 . S
C1436 H1406 0.950 . S
C1436 C1435 1.524 . S
C1436 C1437 1.415 . S
C1437 H1407 0.950 . S
C1437 C1432 1.363 . S
C1437 C1436 1.415 . S
H1438 C1435 0.999 . S
H1439 C1420 0.913 . S
H1440 C1458 0.951 . S
H1441 C1460 0.951 . S
H1442 C1462 0.950 . S
H1443 C1463 0.950 . S
H1444 C1465 0.950 . S
H1445 C1468 0.950 . S
H1446 C1469 0.950 . S
H1447 C1471 0.950 . S
H1448 C1472 0.950 . S
H1449 C1473 0.951 . S
H1450 C1475 0.951 . S
H1451 C1477 0.950 . S
H1452 C1478 0.950 . S
H1453 C1480 0.950 . S
H1454 C1483 0.950 . S
H1455 C1484 0.950 . S
H1456 C1486 0.950 . S
H1457 C1487 0.950 . S
C1458 H1440 0.951 . S
C1458 C1459 1.366 . S
C1458 C1460 1.388 . S
C1459 C1458 1.366 . S
C1459 C1463 1.385 . S
C1460 H1441 0.951 . S
C1460 C1458 1.388 . S
C1460 C1461 1.366 . S
C1461 C1460 1.366 . S
C1461 C1462 1.414 . S
C1461 C1464 1.499 . S
C1462 H1442 0.950 . S
C1462 C1461 1.414 . S
C1462 C1463 1.374 . S
C1463 H1443 0.950 . S
C1463 C1459 1.385 . S
C1463 C1462 1.374 . S
C1464 C1461 1.499 . S
C1464 C1465 1.373 . S
C1464 C1466 1.389 . S
C1465 H1444 0.950 . S
C1465 C1464 1.373 . S
C1465 C1481 1.377 . S
C1466 C1464 1.389 . S
C1466 C1467 1.524 . S
C1466 C1480 1.377 . S
C1467 C1466 1.524 . S
C1467 C1468 1.397 . S
C1467 C1472 1.363 . S
C1468 H1445 0.950 . S
C1468 C1467 1.397 . S
C1468 C1469 1.334 . S
C1469 H1446 0.950 . S
C1469 C1468 1.334 . S
C1469 C1470 1.287 . S
C1470 C1469 1.287 . S
C1470 C1471 1.524 . S
C1470 H1489 0.913 . S
C1471 H1447 0.950 . S
C1471 C1470 1.524 . S
C1471 C1472 1.415 . S
C1472 H1448 0.950 . S
C1472 C1467 1.363 . S
C1472 C1471 1.415 . S
C1473 H1449 0.951 . S
C1473 C1474 1.366 . S
C1473 C1475 1.388 . S
C1474 C1473 1.366 . S
C1474 C1478 1.385 . S
C1475 H1450 0.951 . S
C1475 C1473 1.388 . S
C1475 C1476 1.366 . S
C1476 C1475 1.366 . S
C1476 C1477 1.414 . S
C1476 C1479 1.499 . S
C1477 H1451 0.950 . S
C1477 C1476 1.414 . S
C1477 C1478 1.374 . S
C1478 H1452 0.950 . S
C1478 C1474 1.385 . S
C1478 C1477 1.374 . S
C1479 C1476 1.499 . S
C1479 C1480 1.373 . S
C1479 C1481 1.389 . S
C1480 H1453 0.950 . S
C1480 C1466 1.377 . S
C1480 C1479 1.373 . S
C1481 C1465 1.377 . S
C1481 C1479 1.389 . S
C1481 C1482 1.524 . S
C1482 C1481 1.524 . S
C1482 C1483 1.397 1_455 S
C1482 C1487 1.363 . S
C1483 H1454 0.950 . S
C1483 C1482 1.397 1_655 S
C1483 C1484 1.334 . S
C1484 H1455 0.950 . S
C1484 C1483 1.334 . S
C1484 C1485 1.287 . S
C1485 C1484 1.287 . S
C1485 C1486 1.524 . S
C1485 H1488 0.999 . S
C1486 H1456 0.950 . S
C1486 C1485 1.524 . S
C1486 C1487 1.415 1_655 S
C1487 H1457 0.950 . S
C1487 C1482 1.363 . S
C1487 C1486 1.415 1_455 S
H1488 C1485 0.999 . S
H1489 C1470 0.913 . S
H1490 C1508 0.951 . S
H1491 C1510 0.951 . S
H1492 C1512 0.950 . S
H1493 C1513 0.950 . S
H1494 C1515 0.950 . S
H1495 C1518 0.950 . S
H1496 C1519 0.950 . S
H1497 C1521 0.950 . S
H1498 C1522 0.950 . S
H1499 C1523 0.951 . S
H1500 C1525 0.951 . S
H1501 C1527 0.950 . S
H1502 C1528 0.950 . S
H1503 C1530 0.950 . S
H1504 C1533 0.950 . S
H1505 C1534 0.950 . S
H1506 C1536 0.950 . S
H1507 C1537 0.950 . S
C1508 H1490 0.951 . S
C1508 C1509 1.366 . S
C1508 C1510 1.388 . S
C1509 C1508 1.366 . S
C1509 C1513 1.385 . S
C1510 H1491 0.951 . S
C1510 C1508 1.388 . S
C1510 C1511 1.366 . S
C1511 C1510 1.366 . S
C1511 C1512 1.414 . S
C1511 C1514 1.499 . S
C1512 H1492 0.950 . S
C1512 C1511 1.414 . S
C1512 C1513 1.374 . S
C1513 H1493 0.950 . S
C1513 C1509 1.385 . S
C1513 C1512 1.374 . S
C1514 C1511 1.499 . S
C1514 C1515 1.373 . S
C1514 C1516 1.389 . S
C1515 H1494 0.950 . S
C1515 C1514 1.373 . S
C1515 C1531 1.377 . S
C1516 C1514 1.389 . S
C1516 C1517 1.524 . S
C1516 C1530 1.377 . S
C1517 C1516 1.524 . S
C1517 C1518 1.397 . S
C1517 C1522 1.363 . S
C1518 H1495 0.950 . S
C1518 C1517 1.397 . S
C1518 C1519 1.334 . S
C1519 H1496 0.950 . S
C1519 C1518 1.334 . S
C1519 C1520 1.287 . S
C1520 C1519 1.287 . S
C1520 C1521 1.524 . S
C1520 H1539 0.913 . S
C1521 H1497 0.950 . S
C1521 C1520 1.524 . S
C1521 C1522 1.415 . S
C1522 H1498 0.950 . S
C1522 C1517 1.363 . S
C1522 C1521 1.415 . S
C1523 H1499 0.951 . S
C1523 C1524 1.366 . S
C1523 C1525 1.388 . S
C1524 C1523 1.366 . S
C1524 C1528 1.385 . S
C1525 H1500 0.951 . S
C1525 C1523 1.388 . S
C1525 C1526 1.366 . S
C1526 C1525 1.366 . S
C1526 C1527 1.414 . S
C1526 C1529 1.499 . S
C1527 H1501 0.950 . S
C1527 C1526 1.414 . S
C1527 C1528 1.374 . S
C1528 H1502 0.950 . S
C1528 C1524 1.385 . S
C1528 C1527 1.374 . S
C1529 C1526 1.499 . S
C1529 C1530 1.373 . S
C1529 C1531 1.389 . S
C1530 H1503 0.950 . S
C1530 C1516 1.377 . S
C1530 C1529 1.373 . S
C1531 C1515 1.377 . S
C1531 C1529 1.389 . S
C1531 C1532 1.524 . S
C1532 C1531 1.524 . S
C1532 C1533 1.397 . S
C1532 C1537 1.363 . S
C1533 H1504 0.950 . S
C1533 C1532 1.397 . S
C1533 C1534 1.334 . S
C1534 H1505 0.950 . S
C1534 C1533 1.334 . S
C1534 C1535 1.287 . S
C1535 C1534 1.287 . S
C1535 C1536 1.524 . S
C1535 H1538 0.999 . S
C1536 H1506 0.950 . S
C1536 C1535 1.524 . S
C1536 C1537 1.415 . S
C1537 H1507 0.950 . S
C1537 C1532 1.363 . S
C1537 C1536 1.415 . S
H1538 C1535 0.999 . S
H1539 C1520 0.913 . S
C359 C29 1.618 . S
C374 C272 1.638 . S
C409 C49 1.446 . S
C424 C294 1.389 . S
C474 C313 1.217 . S
C459 C93 1.386 . S
C509 C119 1.676 . S
C524 C334 1.457 . S
C574 C291 1.775 . S
C559 C17 1.773 . S
C624 C269 1.713 . S
C609 C61 1.770 . S
C674 C336 1.235 . S
C659 C81 1.254 . S
C724 C315 1.420 . S
C709 C125 1.397 . S
C759 C23 1.691 . S
C774 C333 1.690 . S
C824 C292 1.298 . S
C809 C87 1.506 . S
C859 C113 1.616 . S
C874 C274 1.498 . S
C909 C55 1.497 . S
C924 C312 1.468 . S
C974 C270 1.573 . S
C959 C157 1.627 . S
C1009 C189 1.246 . S
C1024 C290 1.254 . S
C1059 C221 1.483 . S
C1074 C316 1.268 . S
C1109 C253 1.636 . S
C1124 C337 1.425 . S
C1159 C145 1.819 . S
C1174 C293 1.776 . S
C1224 C273 1.701 . S
C1209 C183 1.705 . S
C1274 C332 1.170 . S
C1259 C209 1.212 . S
C1324 C311 1.474 . S
C1309 C247 1.459 . S
C1359 C151 1.553 . S
C1374 C335 1.514 . S
C1424 C295 1.228 . S
C1409 C215 1.464 . S
C1474 C271 1.294 . S
C1459 C241 1.400 . S
C1509 C177 1.399 . S
C1524 C314 1.414 . S
