# Generated by pormake.
# Topology the, (3,8)-cn, num edge types: 1
# Building blocks:
#     Node 0, Type 0, BuildingBlock: PAMTOO_clean_linker_0, # of connection points: 3
#     Node 1, Type 0, BuildingBlock: PAMTOO_clean_linker_0, # of connection points: 3
#     Node 2, Type 0, BuildingBlock: PAMTOO_clean_linker_0, # of connection points: 3
#     Node 3, Type 0, BuildingBlock: PAMTOO_clean_linker_0, # of connection points: 3
#     Node 4, Type 0, BuildingBlock: PAMTOO_clean_linker_0, # of connection points: 3
#     Node 5, Type 0, BuildingBlock: PAMTOO_clean_linker_0, # of connection points: 3
#     Node 6, Type 0, BuildingBlock: PAMTOO_clean_linker_0, # of connection points: 3
#     Node 7, Type 0, BuildingBlock: PAMTOO_clean_linker_0, # of connection points: 3
#     Node 8, Type 1, BuildingBlock: GIZVER_clean_sbu_0, # of connection points: 8
#     Node 9, Type 1, BuildingBlock: GIZVER_clean_sbu_0, # of connection points: 8
#     Node 10, Type 1, BuildingBlock: GIZVER_clean_sbu_0, # of connection points: 8
#     Edge 11, Type (0, 1), BuildingBlock: ZUJKAS_clean_linker_0, # of connection points: 2
#     Edge 12, Type (0, 1), BuildingBlock: ZUJKAS_clean_linker_0, # of connection points: 2
#     Edge 13, Type (0, 1), BuildingBlock: ZUJKAS_clean_linker_0, # of connection points: 2
#     Edge 14, Type (0, 1), BuildingBlock: ZUJKAS_clean_linker_0, # of connection points: 2
#     Edge 15, Type (0, 1), BuildingBlock: ZUJKAS_clean_linker_0, # of connection points: 2
#     Edge 16, Type (0, 1), BuildingBlock: ZUJKAS_clean_linker_0, # of connection points: 2
#     Edge 17, Type (0, 1), BuildingBlock: ZUJKAS_clean_linker_0, # of connection points: 2
#     Edge 18, Type (0, 1), BuildingBlock: ZUJKAS_clean_linker_0, # of connection points: 2
#     Edge 19, Type (0, 1), BuildingBlock: ZUJKAS_clean_linker_0, # of connection points: 2
#     Edge 20, Type (0, 1), BuildingBlock: ZUJKAS_clean_linker_0, # of connection points: 2
#     Edge 21, Type (0, 1), BuildingBlock: ZUJKAS_clean_linker_0, # of connection points: 2
#     Edge 22, Type (0, 1), BuildingBlock: ZUJKAS_clean_linker_0, # of connection points: 2
#     Edge 23, Type (0, 1), BuildingBlock: ZUJKAS_clean_linker_0, # of connection points: 2
#     Edge 24, Type (0, 1), BuildingBlock: ZUJKAS_clean_linker_0, # of connection points: 2
#     Edge 25, Type (0, 1), BuildingBlock: ZUJKAS_clean_linker_0, # of connection points: 2
#     Edge 26, Type (0, 1), BuildingBlock: ZUJKAS_clean_linker_0, # of connection points: 2
#     Edge 27, Type (0, 1), BuildingBlock: ZUJKAS_clean_linker_0, # of connection points: 2
#     Edge 28, Type (0, 1), BuildingBlock: ZUJKAS_clean_linker_0, # of connection points: 2
#     Edge 29, Type (0, 1), BuildingBlock: ZUJKAS_clean_linker_0, # of connection points: 2
#     Edge 30, Type (0, 1), BuildingBlock: ZUJKAS_clean_linker_0, # of connection points: 2
#     Edge 31, Type (0, 1), BuildingBlock: ZUJKAS_clean_linker_0, # of connection points: 2
#     Edge 32, Type (0, 1), BuildingBlock: ZUJKAS_clean_linker_0, # of connection points: 2
#     Edge 33, Type (0, 1), BuildingBlock: ZUJKAS_clean_linker_0, # of connection points: 2
#     Edge 34, Type (0, 1), BuildingBlock: ZUJKAS_clean_linker_0, # of connection points: 2
# Relax obj value: 0.073
# Max RMSD: 0.217
# Mean RMSD: 0.147
data_MOF--net-the--node1-GIZVER_clean_sbu_0--node2-PAMTOO_clean_linker_0--edge1-ZUJKAS_clean_linker_0
_symmetry_space_group_name_H-M    P1
_symmetry_Int_Tables_number       1
_symmetry_cell_setting            triclinic
loop_
_symmetry_equiv_pos_as_xyz
'x, y, z'
_cell_length_a     52.47447
_cell_length_b     49.332386
_cell_length_c     45.807899
_cell_angle_alpha  88.433322
_cell_angle_beta   93.490123
_cell_angle_gamma 105.49247
loop_
_atom_site_label
_atom_site_type_symbol
_atom_site_fract_x
_atom_site_fract_y
_atom_site_fract_z
_atom_type_partial_charge
H0 H 0.28253 0.40612 0.37792 0.0
H1 H 0.27954 0.34785 0.45019 0.0
H2 H 0.33099 0.3478 0.38124 0.0
H3 H 0.29355 0.29303 0.40368 0.0
C4 C 0.30017 0.29701 0.42712 0.0
O5 O 0.31437 0.32469 0.43086 0.0
H6 H 0.28217 0.29257 0.43997 0.0
C7 C 0.289 0.38908 0.38867 0.0
C8 C 0.30819 0.37856 0.3761 0.0
C9 C 0.27841 0.37816 0.41536 0.0
C10 C 0.28763 0.35685 0.4298 0.0
C11 C 0.30648 0.34602 0.41739 0.0
C12 C 0.31673 0.35681 0.39071 0.0
H13 H 0.71366 0.31061 0.38104 0.0
H14 H 0.65177 0.31373 0.31572 0.0
H15 H 0.72303 0.38099 0.32109 0.0
H16 H 0.67816 0.4023 0.30646 0.0
C17 C 0.66344 0.38255 0.29937 0.0
O18 O 0.67647 0.36246 0.29394 0.0
H19 H 0.6498 0.37517 0.31739 0.0
C20 C 0.70614 0.3211 0.3627 0.0
C21 C 0.72158 0.34721 0.35268 0.0
C22 C 0.68093 0.30867 0.34952 0.0
C23 C 0.67116 0.32282 0.32615 0.0
C24 C 0.68639 0.34874 0.31594 0.0
C25 C 0.71164 0.3607 0.32891 0.0
H26 H 0.63767 0.74977 0.33519 0.0
H27 H 0.69139 0.69692 0.34024 0.0
H28 H 0.69566 0.75667 0.40745 0.0
H29 H 0.7476 0.75218 0.38897 0.0
C30 C 0.74206 0.72943 0.38349 0.0
O31 O 0.71582 0.71777 0.38919 0.0
H32 H 0.74489 0.72731 0.35987 0.0
C33 C 0.6537 0.74299 0.34647 0.0
C34 C 0.66544 0.75602 0.37283 0.0
C35 C 0.66304 0.72179 0.33417 0.0
C36 C 0.68418 0.71357 0.34882 0.0
C37 C 0.69595 0.72634 0.37498 0.0
C38 C 0.68662 0.74743 0.38688 0.0
H39 H 0.26169 0.74974 0.38174 0.0
H40 H 0.25433 0.68387 0.3194 0.0
H41 H 0.3252 0.75127 0.32563 0.0
H42 H 0.30966 0.73166 0.26577 0.0
C43 C 0.29887 0.70947 0.2705 0.0
O44 O 0.30137 0.70395 0.30005 0.0
H45 H 0.27759 0.70643 0.26358 0.0
C46 C 0.26956 0.74091 0.36404 0.0
C47 C 0.29521 0.75404 0.35514 0.0
C48 C 0.25462 0.71547 0.35144 0.0
C49 C 0.26544 0.70346 0.32941 0.0
C50 C 0.29075 0.71645 0.32022 0.0
C51 C 0.30557 0.7416 0.33299 0.0
H52 H 0.28936 0.7566 0.70272 0.0
H53 H 0.28146 0.68612 0.76242 0.0
H54 H 0.35242 0.75365 0.76657 0.0
H55 H 0.35752 0.6948 0.76623 0.0
C56 C 0.34224 0.68553 0.78216 0.0
O57 O 0.32844 0.7047 0.78831 0.0
H58 H 0.32841 0.66661 0.77193 0.0
C59 C 0.29705 0.74631 0.72111 0.0
C60 C 0.32256 0.75871 0.7336 0.0
C61 C 0.28201 0.71999 0.73111 0.0
C62 C 0.29267 0.70633 0.75423 0.0
C63 C 0.31803 0.71845 0.76675 0.0
C64 C 0.33284 0.74455 0.75656 0.0
H65 H 0.28577 0.38789 0.74309 0.0
H66 H 0.2757 0.32535 0.67619 0.0
H67 H 0.33558 0.33109 0.74498 0.0
H68 H 0.35314 0.32664 0.68715 0.0
C69 C 0.33477 0.31291 0.67652 0.0
O70 O 0.31506 0.30621 0.69624 0.0
H71 H 0.32824 0.32458 0.65762 0.0
C72 C 0.29102 0.37019 0.73402 0.0
C73 C 0.31196 0.36081 0.74771 0.0
C74 C 0.27763 0.35771 0.70807 0.0
C75 C 0.28566 0.33562 0.69592 0.0
C76 C 0.30674 0.32649 0.70901 0.0
C77 C 0.31957 0.33877 0.73495 0.0
H78 H 0.64647 0.31934 0.76507 0.0
H79 H 0.72113 0.3819 0.77834 0.0
H80 H 0.71547 0.31258 0.72215 0.0
H81 H 0.7638 0.32854 0.76012 0.0
C82 C 0.76697 0.35178 0.75972 0.0
O83 O 0.74655 0.35877 0.74359 0.0
H84 H 0.76759 0.35887 0.78268 0.0
C85 C 0.66734 0.32707 0.76117 0.0
C86 C 0.67895 0.31262 0.7419 0.0
C87 C 0.68232 0.35228 0.77431 0.0
C88 C 0.70918 0.36264 0.76839 0.0
C89 C 0.72093 0.34821 0.74973 0.0
C90 C 0.70592 0.3234 0.73655 0.0
H91 H 0.64825 0.73081 0.69713 0.0
H92 H 0.69845 0.67592 0.68583 0.0
H93 H 0.69393 0.73858 0.6208 0.0
H94 H 0.70145 0.68903 0.5949 0.0
C95 C 0.70929 0.67947 0.61455 0.0
O96 O 0.7163 0.69896 0.63662 0.0
H97 H 0.69341 0.66091 0.62146 0.0
C98 C 0.6617 0.7236 0.68417 0.0
C99 C 0.66936 0.73726 0.65745 0.0
C100 C 0.67202 0.7014 0.69483 0.0
C101 C 0.69033 0.69306 0.67835 0.0
C102 C 0.69818 0.70663 0.65187 0.0
C103 C 0.68779 0.7286 0.64151 0.0
Co104 Co 0.05643 0.50745 0.55709 0.0
Co105 Co 0.02877 0.49273 0.50763 0.0
Co106 Co 1.00249 0.53229 0.54202 0.0
O107 O 0.01966 0.50057 0.54464 0.0
H108 H 0.00867 0.48385 0.55352 0.0
O109 O 0.98528 0.56388 0.53938 0.0
Co110 Co 0.9482 0.55703 0.52823 0.0
Co111 Co 0.97764 0.57227 0.57708 0.0
H112 H 0.99602 0.58046 0.53003 0.0
O113 O 0.03753 0.45949 0.49918 0.0
O114 O 0.06483 0.49924 0.51736 0.0
O115 O 0.02583 0.51928 0.47675 0.0
O116 O 0.02365 0.55187 0.50837 0.0
O117 O 0.97465 0.50942 0.51406 0.0
O118 O 0.91462 0.55425 0.51696 0.0
O119 O 0.94922 0.59282 0.51726 0.0
O120 O 0.94233 0.51835 0.53718 0.0
O121 O 0.98138 0.51285 0.57581 0.0
O122 O 0.98208 0.54613 0.60782 0.0
O123 O 0.94135 0.56444 0.5687 0.0
O124 O 0.96766 0.60504 0.58585 0.0
C125 C 0.08017 0.48411 0.57595 0.0
C126 C 0.05484 0.56083 0.56487 0.0
C127 C 0.02882 0.54484 0.48317 0.0
C128 C 0.06129 0.4742 0.50692 0.0
C129 C 0.92401 0.58104 0.51179 0.0
C130 C 0.95014 0.50372 0.51903 0.0
C131 C 0.97792 0.52037 0.60147 0.0
C132 C 0.94411 0.58948 0.57869 0.0
O133 O 0.08959 0.51073 0.57006 0.0
O134 O 0.05528 0.47181 0.56913 0.0
O135 O 0.03035 0.55533 0.56988 0.0
O136 O 0.06245 0.54576 0.54705 0.0
Co137 Co 0.52761 0.97587 0.52376 0.0
Co138 Co 0.54126 1.00081 0.57433 0.0
Co139 Co 0.50274 0.03083 0.53855 0.0
O140 O 0.53332 0.01387 0.53725 0.0
H141 H 0.54879 0.02674 0.52956 0.0
O142 O 0.47188 0.04734 0.53975 0.0
Co143 Co 0.47673 0.085 0.55307 0.0
Co144 Co 0.4639 0.06 0.50253 0.0
H145 H 0.45646 0.03425 0.54729 0.0
O146 O 0.57352 0.9931 0.58427 0.0
O147 O 0.5369 0.96367 0.56365 0.0
O148 O 0.51641 0.99986 0.60386 0.0
O149 O 0.48513 1.0048 0.57078 0.0
O150 O 0.52375 0.05859 0.56801 0.0
O151 O 0.47857 0.11879 0.56643 0.0
O152 O 0.44319 0.08104 0.56382 0.0
O153 O 0.51267 0.0937 0.54479 0.0
O154 O 0.5204 0.05697 0.50636 0.0
O155 O 0.48913 0.06181 0.47324 0.0
O156 O 0.46701 0.09688 0.5131 0.0
O157 O 0.43122 0.0663 0.49226 0.0
C158 C 0.54993 0.95298 0.50543 0.0
C159 C 0.47645 0.97697 0.51406 0.0
C160 C 0.49221 0.99692 0.59613 0.0
C161 C 0.56088 0.96811 0.57534 0.0
C162 C 0.45379 0.10727 0.57104 0.0
C163 C 0.52729 0.08501 0.56393 0.0
C164 C 0.51334 0.06504 0.48108 0.0
C165 C 0.44298 0.09151 0.50132 0.0
O166 O 0.52511 0.94202 0.51021 0.0
O167 O 0.56117 0.97903 0.51299 0.0
O168 O 0.48149 1.00337 0.5092 0.0
O169 O 0.49148 0.96736 0.5319 0.0
Co170 Co 0.46711 0.53742 0.09653 0.0
Co171 Co 0.4566 0.48758 0.07403 0.0
Co172 Co 0.50166 0.53087 0.03818 0.0
O173 O 0.4678 0.52367 0.05833 0.0
H174 H 0.45378 0.52726 0.04541 0.0
O175 O 0.53534 0.53776 0.01751 0.0
Co176 Co 0.53433 0.52443 0.97847 0.0
Co177 Co 0.54666 0.57389 1.00199 0.0
H178 H 0.54941 0.53351 0.02985 0.0
O179 O 0.42157 0.47109 0.08374 0.0
O180 O 0.45417 0.49867 0.11196 0.0
O181 O 0.48236 0.46627 0.0763 0.0
O182 O 0.51545 0.50179 0.06178 0.0
O183 O 0.48222 0.50197 0.00883 0.0
O184 O 0.53621 0.51117 0.94336 0.0
O185 O 0.56712 0.51889 0.98075 0.0
O186 O 0.49949 0.52734 0.97116 0.0
O187 O 0.48797 0.56015 0.01486 0.0
O188 O 0.52136 0.59581 1.00129 0.0
O189 O 0.54781 0.56327 0.96353 0.0
O190 O 0.58144 0.58998 0.9912 0.0
C191 C 0.44039 0.55118 0.11874 0.0
C192 C 0.52071 0.55502 0.09518 0.0
C193 C 0.50688 0.47744 0.07358 0.0
C194 C 0.43024 0.48239 0.10892 0.0
C195 C 0.55924 0.50967 0.95437 0.0
C196 C 0.48103 0.50814 0.98165 0.0
C197 C 0.49679 0.58481 1.00387 0.0
C198 C 0.57188 0.57932 0.96598 0.0
O199 O 0.46344 0.55117 0.131 0.0
O200 O 0.43395 0.54136 0.09236 0.0
O201 O 0.52089 0.55994 0.06766 0.0
O202 O 0.50215 0.53575 0.10541 0.0
H203 H 0.27342 0.39073 0.47234 0.0
H204 H 0.23765 0.4067 0.49216 0.0
H205 H 0.19942 0.40414 0.40583 0.0
H206 H 0.23505 0.38829 0.3859 0.0
H207 H 0.20234 0.45303 0.43456 0.0
H208 H 0.16223 0.36009 0.50549 0.0
H209 H 0.19693 0.37665 0.51213 0.0
H210 H 0.18515 0.35989 0.47772 0.0
C211 C 0.25728 0.39338 0.45765 0.0
C212 C 0.25706 0.38827 0.42755 0.0
C213 C 0.23683 0.40242 0.46901 0.0
C214 C 0.21569 0.40622 0.45052 0.0
C215 C 0.21554 0.4013 0.42048 0.0
H216 H 0.06134 0.42341 0.48433 0.0
H217 H 0.09981 0.40714 0.47339 0.0
C218 C 0.23598 0.3924 0.4091 0.0
C219 C 0.19399 0.41603 0.46213 0.0
H220 H 0.14329 0.39841 0.5084 0.0
C221 C 0.18947 0.44114 0.45076 0.0
C222 C 0.17712 0.40032 0.4831 0.0
C223 C 0.18037 0.37261 0.49519 0.0
C224 C 0.16842 0.45091 0.4596 0.0
C225 C 0.15173 0.4354 0.48082 0.0
C226 C 0.15629 0.41035 0.49233 0.0
C227 C 0.12865 0.44422 0.49011 0.0
C228 C 0.16373 0.47729 0.44546 0.0
C229 C 0.13216 0.47011 0.50387 0.0
C230 C 0.11024 0.4796 0.5099 0.0
C231 C 0.0844 0.46319 0.50257 0.0
C232 C 0.08096 0.43666 0.49005 0.0
C233 C 0.10291 0.42727 0.48388 0.0
H234 H 0.17443 0.48299 0.42504 0.0
H235 H 0.14228 0.47475 0.44021 0.0
H236 H 0.17092 0.49505 0.46085 0.0
H237 H 0.15187 0.48326 0.50937 0.0
H238 H 0.11363 0.50004 0.51976 0.0
H239 H 0.6969 0.26137 0.36442 0.0
H240 H 0.67027 0.21682 0.38419 0.0
H241 H 0.60165 0.24946 0.37941 0.0
H242 H 0.6282 0.29418 0.36002 0.0
H243 H 0.61254 0.22404 0.4347 0.0
H244 H 0.61102 0.15537 0.33995 0.0
H245 H 0.64301 0.17683 0.35256 0.0
H246 H 0.61868 0.19324 0.3367 0.0
C247 C 0.67614 0.25905 0.36759 0.0
C248 C 0.66464 0.28129 0.36061 0.0
C249 C 0.66091 0.23351 0.37863 0.0
C250 C 0.63394 0.22976 0.38294 0.0
C251 C 0.6224 0.25189 0.37603 0.0
H252 H 0.50636 0.08681 0.42635 0.0
H253 H 0.5376 0.12502 0.40168 0.0
C254 C 0.63756 0.27736 0.36482 0.0
C255 C 0.61795 0.20321 0.3958 0.0
H256 H 0.59185 0.13307 0.38282 0.0
C257 C 0.60806 0.20413 0.42342 0.0
C258 C 0.61203 0.17735 0.38089 0.0
C259 C 0.62152 0.17547 0.35078 0.0
C260 C 0.59245 0.17983 0.43661 0.0
C261 C 0.58678 0.15387 0.42188 0.0
C262 C 0.59652 0.15295 0.39416 0.0
C263 C 0.56958 0.12789 0.4345 0.0
C264 C 0.58161 0.1822 0.46594 0.0
C265 C 0.57765 0.11604 0.46046 0.0
C266 C 0.55988 0.09411 0.47462 0.0
C267 C 0.53367 0.08371 0.46309 0.0
C268 C 0.52631 0.09438 0.43597 0.0
C269 C 0.54413 0.11624 0.4218 0.0
H270 H 0.58359 0.20443 0.47171 0.0
H271 H 0.56039 0.17041 0.4661 0.0
H272 H 0.59265 0.17293 0.48313 0.0
H273 H 0.59736 0.12453 0.47038 0.0
H274 H 0.56631 0.0864 0.49539 0.0
H275 H 0.79375 0.75137 0.40164 0.0
H276 H 0.82448 0.72727 0.42623 0.0
H277 H 0.76157 0.65047 0.42884 0.0
H278 H 0.73112 0.67416 0.40333 0.0
H279 H 0.82535 0.70021 0.4789 0.0
H280 H 0.81731 0.62542 0.38849 0.0
H281 H 0.80397 0.65552 0.38485 0.0
H282 H 0.78596 0.62397 0.40294 0.0
C283 C 0.78647 0.72941 0.40774 0.0
C284 C 0.75994 0.71482 0.40103 0.0
C285 C 0.80401 0.71567 0.42177 0.0
C286 C 0.79543 0.68698 0.42909 0.0
C287 C 0.76878 0.67249 0.42295 0.0
H288 H 0.87036 0.56291 0.50301 0.0
H289 H 0.83978 0.59004 0.48561 0.0
C290 C 0.7513 0.68614 0.40864 0.0
C291 C 0.81454 0.67207 0.44235 0.0
H292 H 0.84063 0.61685 0.43216 0.0
C293 C 0.82874 0.68201 0.46866 0.0
C294 C 0.81921 0.64852 0.42882 0.0
C295 C 0.80602 0.63788 0.39958 0.0
C296 C 0.84704 0.66867 0.48212 0.0
C297 C 0.85127 0.6448 0.46882 0.0
C298 C 0.83718 0.63499 0.44247 0.0
C299 C 0.87003 0.6293 0.48163 0.0
C300 C 0.86152 0.68041 0.5104 0.0
C301 C 0.89728 0.64241 0.48536 0.0
C302 C 0.91494 0.62688 0.49537 0.0
C303 C 0.90565 0.59794 0.50153 0.0
C304 C 0.87829 0.58507 0.49816 0.0
C305 C 0.86072 0.60057 0.48829 0.0
H306 H 0.84895 0.68984 0.52344 0.0
H307 H 0.86794 0.66426 0.52403 0.0
H308 H 0.87943 0.69731 0.50526 0.0
H309 H 0.90493 0.6645 0.48 0.0
H310 H 0.93586 0.63746 0.49792 0.0
H311 H 0.34799 0.76661 0.37173 0.0
H312 H 0.37487 0.80837 0.39706 0.0
H313 H 0.3068 0.84154 0.39809 0.0
H314 H 0.27969 0.79987 0.3723 0.0
H315 H 0.38455 0.86613 0.38015 0.0
H316 H 0.33423 0.84231 0.48497 0.0
H317 H 0.33062 0.81626 0.457 0.0
H318 H 0.31327 0.84304 0.45256 0.0
C319 C 0.33875 0.78292 0.37696 0.0
C320 C 0.31165 0.77987 0.36994 0.0
C321 C 0.35413 0.80671 0.39158 0.0
C322 C 0.34277 0.82789 0.39969 0.0
C323 C 0.31584 0.8252 0.39242 0.0
H324 H 0.44359 0.9885 0.46917 0.0
H325 H 0.40876 0.95455 0.44085 0.0
C326 C 0.3004 0.80137 0.37773 0.0
C327 C 0.35928 0.85256 0.41598 0.0
H328 H 0.36936 0.88349 0.48302 0.0
C329 C 0.38111 0.87015 0.40254 0.0
C330 C 0.35479 0.85754 0.44524 0.0
C331 C 0.3321 0.83874 0.461 0.0
C332 C 0.39892 0.89229 0.4178 0.0
C333 C 0.39459 0.8971 0.44716 0.0
C334 C 0.37246 0.87986 0.46041 0.0
C335 C 0.41416 0.91815 0.46528 0.0
C336 C 0.42287 0.9096 0.40282 0.0
C337 C 0.42813 0.90897 0.48888 0.0
C338 C 0.44792 0.92821 0.50506 0.0
C339 C 0.45409 0.9571 0.49806 0.0
C340 C 0.43942 0.96638 0.47502 0.0
C341 C 0.4196 0.94703 0.45874 0.0
H342 H 0.4257 0.9001 0.38195 0.0
H343 H 0.42039 0.93092 0.39789 0.0
H344 H 0.44106 0.91197 0.41732 0.0
H345 H 0.42416 0.88678 0.49434 0.0
H346 H 0.45868 0.92031 0.52278 0.0
H347 H 0.26289 0.66483 0.71566 0.0
H348 H 0.22083 0.64246 0.68958 0.0
H349 H 0.19983 0.72129 0.68702 0.0
H350 H 0.24202 0.7439 0.71314 0.0
H351 H 0.16893 0.63661 0.70341 0.0
H352 H 0.19205 0.69921 0.60099 0.0
H353 H 0.21689 0.69867 0.62986 0.0
H354 H 0.19388 0.71943 0.63344 0.0
C355 C 0.24922 0.67737 0.70987 0.0
C356 C 0.25585 0.70619 0.71641 0.0
C357 C 0.22521 0.66457 0.69486 0.0
C358 C 0.20734 0.68028 0.686 0.0
C359 C 0.21356 0.70889 0.69311 0.0
H360 H 0.0482 0.59128 0.612 0.0
H361 H 0.08309 0.62334 0.64224 0.0
C362 C 0.23766 0.72177 0.70805 0.0
C363 C 0.18247 0.66657 0.66893 0.0
H364 H 0.1504 0.66611 0.6017 0.0
C365 C 0.16471 0.64319 0.68126 0.0
C366 C 0.17717 0.67509 0.63996 0.0
C367 C 0.19605 0.69931 0.62509 0.0
C368 C 0.14211 0.62769 0.66518 0.0
C369 C 0.13689 0.63612 0.63615 0.0
C370 C 0.15431 0.6599 0.62407 0.0
C371 C 0.11519 0.61879 0.61692 0.0
C372 C 0.1247 0.60166 0.67891 0.0
C373 C 0.12157 0.60649 0.5921 0.0
C374 C 0.10179 0.58843 0.57479 0.0
C375 C 0.0751 0.58226 0.58185 0.0
C376 C 0.06856 0.59549 0.60607 0.0
C377 C 0.08848 0.61365 0.62346 0.0
H378 H 0.1342 0.59516 0.69928 0.0
H379 H 0.10586 0.6059 0.68447 0.0
H380 H 0.11986 0.58386 0.66339 0.0
H381 H 0.14201 0.61024 0.58657 0.0
H382 H 0.10757 0.57882 0.55618 0.0
H383 H 0.33147 0.2619 0.70518 0.0
H384 H 0.34587 0.22193 0.68832 0.0
H385 H 0.36945 0.26674 0.60797 0.0
H386 H 0.35417 0.30624 0.62429 0.0
H387 H 0.34563 0.21178 0.59779 0.0
H388 H 0.42263 0.22211 0.68857 0.0
H389 H 0.38959 0.21598 0.70044 0.0
H390 H 0.40451 0.24811 0.68132 0.0
C391 C 0.33923 0.26297 0.68369 0.0
C392 C 0.34119 0.28696 0.66575 0.0
C393 C 0.34773 0.24024 0.6742 0.0
C394 C 0.35907 0.24145 0.64702 0.0
C395 C 0.36069 0.26524 0.62897 0.0
H396 H 0.47111 0.16201 0.58732 0.0
H397 H 0.44563 0.19175 0.60578 0.0
C398 C 0.35196 0.2878 0.6383 0.0
C399 C 0.37031 0.21862 0.63766 0.0
H400 H 0.41822 0.18496 0.65582 0.0
C401 C 0.36136 0.20574 0.61058 0.0
C402 C 0.3911 0.21103 0.65418 0.0
C403 C 0.40274 0.22517 0.6826 0.0
C404 C 0.37295 0.18589 0.59934 0.0
C405 C 0.39362 0.17823 0.61595 0.0
C406 C 0.40217 0.19065 0.64328 0.0
C407 C 0.40843 0.15948 0.60432 0.0
C408 C 0.36389 0.1743 0.56922 0.0
C409 C 0.396 0.13129 0.59736 0.0
C410 C 0.41061 0.11405 0.58662 0.0
C411 C 0.43789 0.12475 0.58288 0.0
C412 C 0.45017 0.15297 0.59 0.0
C413 C 0.43562 0.17007 0.60061 0.0
H414 H 0.35174 0.1866 0.55697 0.0
H415 H 0.38115 0.17429 0.55634 0.0
H416 H 0.35168 0.15226 0.57118 0.0
H417 H 0.37509 0.12256 0.60044 0.0
H418 H 0.40057 0.09244 0.58126 0.0
H419 H 0.79989 0.40403 0.77093 0.0
H420 H 0.83994 0.42832 0.74599 0.0
H421 H 0.83094 0.35557 0.69221 0.0
H422 H 0.79072 0.3314 0.71692 0.0
H423 H 0.88806 0.4126 0.73932 0.0
H424 H 0.83313 0.42045 0.63306 0.0
H425 H 0.81674 0.41166 0.6669 0.0
H426 H 0.82772 0.38558 0.64834 0.0
C427 C 0.80672 0.39319 0.75402 0.0
C428 C 0.79259 0.36576 0.74607 0.0
C429 C 0.82951 0.40702 0.73982 0.0
C430 C 0.83828 0.39378 0.71717 0.0
C431 C 0.82435 0.36623 0.70945 0.0
H432 H 0.95872 0.46363 0.59296 0.0
H433 H 0.92796 0.43004 0.62307 0.0
C434 C 0.80155 0.3524 0.72365 0.0
C435 C 0.8615 0.40923 0.70106 0.0
H436 H 0.87955 0.43758 0.63422 0.0
C437 C 0.88628 0.41799 0.71631 0.0
C438 C 0.85906 0.41616 0.67104 0.0
C439 C 0.83273 0.40822 0.65384 0.0
C440 C 0.90874 0.4336 0.7023 0.0
C441 C 0.90618 0.44097 0.67242 0.0
C442 C 0.8815 0.43173 0.65708 0.0
C443 C 0.92823 0.45985 0.65693 0.0
C444 C 0.93499 0.44196 0.71957 0.0
C445 C 0.93911 0.48758 0.66636 0.0
C446 C 0.95676 0.50684 0.64926 0.0
C447 C 0.96367 0.49881 0.62221 0.0
C448 C 0.95386 0.47058 0.61364 0.0
C449 C 0.93621 0.45133 0.63078 0.0
H450 H 0.93546 0.4277 0.73868 0.0
H451 H 0.9516 0.44181 0.70573 0.0
H452 H 0.93815 0.46357 0.72794 0.0
H453 H 0.93287 0.49478 0.68617 0.0
H454 H 0.96387 0.52838 0.65656 0.0
H455 H 0.69532 0.78636 0.6304 0.0
H456 H 0.67716 0.82505 0.61292 0.0
H457 H 0.60062 0.78038 0.64237 0.0
H458 H 0.61835 0.74122 0.65927 0.0
H459 H 0.63006 0.82321 0.57173 0.0
H460 H 0.62208 0.85923 0.68408 0.0
H461 H 0.64308 0.83694 0.67638 0.0
H462 H 0.60792 0.82237 0.67724 0.0
C463 C 0.67452 0.78454 0.63282 0.0
C464 C 0.65833 0.76069 0.64639 0.0
C465 C 0.66423 0.80672 0.62289 0.0
C466 C 0.63765 0.80559 0.62657 0.0
C467 C 0.62129 0.78172 0.63964 0.0
H468 H 0.53999 0.91288 0.56021 0.0
H469 H 0.55976 0.87369 0.57004 0.0
C470 C 0.63151 0.75946 0.64944 0.0
C471 C 0.62719 0.82976 0.61756 0.0
H472 H 0.60452 0.88206 0.64494 0.0
C473 C 0.62447 0.83613 0.58766 0.0
C474 C 0.62022 0.84666 0.63849 0.0
C475 C 0.6236 0.84121 0.67088 0.0
C476 C 0.61449 0.85882 0.57813 0.0
C477 C 0.60706 0.87536 0.59909 0.0
C478 C 0.61015 0.86921 0.62896 0.0
C479 C 0.59608 0.89931 0.59066 0.0
C480 C 0.61222 0.86521 0.54584 0.0
C481 C 0.60997 0.92665 0.59899 0.0
C482 C 0.59879 0.94909 0.59337 0.0
C483 C 0.57333 0.94455 0.57958 0.0
C484 C 0.55965 0.91715 0.5708 0.0
C485 C 0.57095 0.89473 0.57627 0.0
H486 H 0.62318 0.85375 0.53291 0.0
H487 H 0.59105 0.85885 0.53808 0.0
H488 H 0.61984 0.88814 0.54153 0.0
H489 H 0.62935 0.93054 0.61024 0.0
H490 H 0.60991 0.96991 0.60037 0.0
H491 H 0.32311 0.26537 0.39417 0.0
H492 H 0.34892 0.2328 0.4114 0.0
H493 H 0.34174 0.25409 0.50072 0.0
H494 H 0.31532 0.28628 0.48345 0.0
H495 H 0.39597 0.2419 0.44443 0.0
H496 H 0.31448 0.16857 0.50202 0.0
H497 H 0.3088 0.19535 0.47677 0.0
H498 H 0.32234 0.20458 0.51325 0.0
C499 C 0.32699 0.26299 0.41746 0.0
C500 C 0.31692 0.27787 0.43757 0.0
C501 C 0.34178 0.24449 0.42728 0.0
C502 C 0.34683 0.24064 0.45735 0.0
C503 C 0.33753 0.25624 0.47746 0.0
H504 H 0.46105 0.14666 0.51814 0.0
H505 H 0.43823 0.18376 0.51103 0.0
C506 C 0.32262 0.27467 0.46763 0.0
C507 C 0.3617 0.22012 0.46739 0.0
H508 H 0.35578 0.15809 0.50472 0.0
C509 C 0.38731 0.22368 0.45782 0.0
C510 C 0.35019 0.19623 0.4846 0.0
C511 C 0.32237 0.1907 0.4946 0.0
C512 C 0.40161 0.20379 0.46461 0.0
C513 C 0.39015 0.17995 0.48195 0.0
C514 C 0.36465 0.17656 0.49176 0.0
C515 C 0.40346 0.15727 0.48834 0.0
C516 C 0.42835 0.20791 0.45208 0.0
C517 C 0.39103 0.12978 0.47912 0.0
C518 C 0.40375 0.10841 0.48371 0.0
C519 C 0.42925 0.1141 0.49754 0.0
C520 C 0.44146 0.14155 0.50732 0.0
C521 C 0.42854 0.16287 0.50306 0.0
H522 H 0.4313 0.22332 0.43362 0.0
H523 H 0.4441 0.21605 0.46936 0.0
H524 H 0.43082 0.18772 0.44423 0.0
H525 H 0.37162 0.12495 0.46783 0.0
H526 H 0.39369 0.08751 0.47601 0.0
H527 H 0.73301 0.35308 0.41146 0.0
H528 H 0.77518 0.37683 0.43662 0.0
H529 H 0.81106 0.39552 0.35359 0.0
H530 H 0.76865 0.37226 0.32825 0.0
H531 H 0.82316 0.36681 0.43877 0.0
H532 H 0.83007 0.4724 0.38926 0.0
H533 H 0.80035 0.44386 0.38557 0.0
H534 H 0.82761 0.44534 0.36303 0.0
C535 C 0.74992 0.36213 0.39857 0.0
C536 C 0.7475 0.3609 0.36786 0.0
C537 C 0.77401 0.37575 0.41297 0.0
C538 C 0.79623 0.38838 0.39702 0.0
C539 C 0.79405 0.38659 0.36636 0.0
H540 H 0.95512 0.48202 0.46572 0.0
H541 H 0.91969 0.45153 0.43461 0.0
C542 C 0.76984 0.37321 0.3519 0.0
C543 C 0.82151 0.4034 0.41271 0.0
H544 H 0.86623 0.46778 0.42045 0.0
C545 C 0.83262 0.38884 0.43462 0.0
C546 C 0.83389 0.43222 0.40736 0.0
C547 C 0.82228 0.44948 0.38524 0.0
C548 C 0.85546 0.4024 0.45158 0.0
C549 C 0.86754 0.43118 0.44644 0.0
C550 C 0.85697 0.44559 0.42406 0.0
C551 C 0.88959 0.44739 0.46588 0.0
C552 C 0.86638 0.38608 0.47524 0.0
C553 C 0.88433 0.45486 0.49374 0.0
C554 C 0.90432 0.47239 0.51133 0.0
C555 C 0.93005 0.48266 0.5015 0.0
C556 C 0.93554 0.47431 0.47396 0.0
C557 C 0.91535 0.45701 0.45615 0.0
H558 H 0.85772 0.36303 0.47311 0.0
H559 H 0.88826 0.39083 0.47466 0.0
H560 H 0.86178 0.39252 0.49691 0.0
H561 H 0.86452 0.44779 0.50151 0.0
H562 H 0.89946 0.47838 0.53245 0.0
H563 H 0.69444 0.80527 0.39807 0.0
H564 H 0.67802 0.84033 0.42244 0.0
H565 H 0.59765 0.79252 0.40154 0.0
H566 H 0.61388 0.75703 0.37772 0.0
H567 H 0.64456 0.8734 0.40037 0.0
H568 H 0.59984 0.80294 0.49062 0.0
H569 H 0.62301 0.79449 0.46717 0.0
H570 H 0.5888 0.78887 0.4549 0.0
C571 C 0.67326 0.80212 0.39882 0.0
C572 C 0.65547 0.7782 0.38612 0.0
C573 C 0.66392 0.82226 0.41262 0.0
C574 C 0.63663 0.81882 0.41424 0.0
C575 C 0.61881 0.79535 0.401 0.0
H576 H 0.52954 0.90243 0.47943 0.0
H577 H 0.55305 0.87191 0.45867 0.0
C578 C 0.62812 0.77524 0.3871 0.0
C579 C 0.62672 0.83977 0.42967 0.0
H580 H 0.58806 0.84623 0.48494 0.0
C581 C 0.63248 0.86762 0.41912 0.0
C582 C 0.61114 0.83222 0.45423 0.0
C583 C 0.60551 0.80308 0.46763 0.0
C584 C 0.62204 0.8878 0.43165 0.0
C585 C 0.60578 0.87999 0.45569 0.0
C586 C 0.60063 0.8523 0.46665 0.0
C587 C 0.59213 0.8994 0.4684 0.0
C588 C 0.62752 0.91691 0.4182 0.0
C589 C 0.60625 0.92512 0.48104 0.0
C590 C 0.59273 0.94294 0.49284 0.0
C591 C 0.5649 0.93513 0.49245 0.0
C592 C 0.55098 0.90921 0.48009 0.0
C593 C 0.5644 0.89163 0.46821 0.0
H594 H 0.63541 0.91767 0.39614 0.0
H595 H 0.60926 0.9243 0.41636 0.0
H596 H 0.64247 0.93175 0.43239 0.0
H597 H 0.62769 0.93127 0.48207 0.0
H598 H 0.60403 0.96256 0.50259 0.0
H599 H 0.23623 0.6596 0.36429 0.0
H600 H 0.19349 0.63506 0.3832 0.0
H601 H 0.17117 0.71307 0.38294 0.0
H602 H 0.21395 0.73786 0.36362 0.0
H603 H 0.17402 0.65039 0.43775 0.0
H604 H 0.10759 0.65375 0.33888 0.0
H605 H 0.14262 0.65736 0.33671 0.0
H606 H 0.1315 0.68593 0.34977 0.0
C607 C 0.2221 0.6715 0.36784 0.0
C608 C 0.22839 0.70064 0.36232 0.0
C609 C 0.19776 0.65747 0.37877 0.0
C610 C 0.17915 0.67224 0.38416 0.0
C611 C 0.18521 0.7013 0.37857 0.0
H612 H 0.04615 0.6015 0.49305 0.0
H613 H 0.08008 0.63565 0.46709 0.0
C614 C 0.20968 0.71543 0.36778 0.0
C615 C 0.15397 0.6572 0.39696 0.0
H616 H 0.0875 0.63159 0.38117 0.0
C617 C 0.15506 0.64648 0.42553 0.0
C618 C 0.12939 0.65205 0.38076 0.0
C619 C 0.12749 0.66268 0.34975 0.0
C620 C 0.13218 0.63037 0.43829 0.0
C621 C 0.10756 0.62508 0.42208 0.0
C622 C 0.1064 0.63599 0.39357 0.0
C623 C 0.08333 0.60653 0.43399 0.0
C624 C 0.13463 0.61831 0.46867 0.0
C625 C 0.07296 0.57934 0.42296 0.0
C626 C 0.05354 0.5597 0.43769 0.0
C627 C 0.04418 0.56699 0.46373 0.0
C628 C 0.05301 0.59504 0.47321 0.0
C629 C 0.07247 0.61462 0.45847 0.0
H630 H 0.1556 0.62044 0.4762 0.0
H631 H 0.12583 0.62957 0.48426 0.0
H632 H 0.12368 0.5957 0.46941 0.0
H633 H 0.08108 0.57278 0.40401 0.0
H634 H 0.04708 0.53838 0.42963 0.0
H635 H 0.37496 0.77228 0.7219 0.0
H636 H 0.40154 0.81632 0.70132 0.0
H637 H 0.33361 0.85008 0.69718 0.0
H638 H 0.30691 0.80617 0.71824 0.0
H639 H 0.39021 0.84059 0.64594 0.0
H640 H 0.39404 0.91189 0.73907 0.0
H641 H 0.38581 0.87407 0.74328 0.0
H642 H 0.36174 0.89069 0.72713 0.0
C643 C 0.36576 0.78921 0.71704 0.0
C644 C 0.33885 0.78578 0.72184 0.0
C645 C 0.38093 0.8143 0.70513 0.0
C646 C 0.36961 0.83653 0.69803 0.0
C647 C 0.34281 0.83329 0.70289 0.0
H648 H 0.43906 0.97661 0.58232 0.0
H649 H 0.40746 0.93968 0.60813 0.0
C650 C 0.32754 0.80813 0.71467 0.0
C651 C 0.38566 0.8626 0.68438 0.0
H652 H 0.41332 0.93277 0.69572 0.0
C653 C 0.39518 0.86078 0.65675 0.0
C654 C 0.39224 0.88881 0.69868 0.0
C655 C 0.38315 0.89164 0.72878 0.0
C656 C 0.41115 0.88449 0.64298 0.0
C657 C 0.41754 0.91078 0.65714 0.0
C658 C 0.4081 0.91263 0.68483 0.0
C659 C 0.43521 0.93612 0.64397 0.0
C660 C 0.42162 0.88113 0.61369 0.0
C661 C 0.46088 0.94724 0.65633 0.0
C662 C 0.47904 0.96841 0.64169 0.0
C663 C 0.47178 0.97889 0.61444 0.0
C664 C 0.44541 0.96902 0.60319 0.0
C665 C 0.42732 0.94779 0.61782 0.0
H666 H 0.41897 0.85868 0.60836 0.0
H667 H 0.41083 0.89051 0.59633 0.0
H668 H 0.44299 0.8923 0.61327 0.0
H669 H 0.46728 0.93857 0.67659 0.0
H670 H 0.4991 0.97559 0.6511 0.0
H671 H 0.26568 0.36188 0.64902 0.0
H672 H 0.23012 0.37891 0.62505 0.0
H673 H 0.20549 0.39621 0.7091 0.0
H674 H 0.23978 0.37721 0.73342 0.0
H675 H 0.16355 0.37386 0.67385 0.0
H676 H 0.23157 0.4597 0.61379 0.0
H677 H 0.23479 0.42556 0.60528 0.0
H678 H 0.24336 0.43894 0.64178 0.0
C679 C 0.25248 0.36883 0.66255 0.0
C680 C 0.25583 0.3682 0.6933 0.0
C681 C 0.23235 0.37903 0.6487 0.0
C682 C 0.21546 0.3895 0.66519 0.0
C683 C 0.2184 0.38848 0.69585 0.0
H684 H 0.12639 0.50538 0.60728 0.0
H685 H 0.15754 0.48037 0.62817 0.0
C686 C 0.23828 0.37789 0.70975 0.0
C687 C 0.19482 0.40167 0.65061 0.0
H688 H 0.18573 0.4524 0.60191 0.0
C689 C 0.1684 0.39107 0.65813 0.0
C690 C 0.20115 0.4243 0.63027 0.0
C691 C 0.22928 0.43799 0.6225 0.0
C692 C 0.14822 0.4026 0.64617 0.0
C693 C 0.15451 0.42487 0.62544 0.0
C694 C 0.18086 0.43519 0.61762 0.0
C695 C 0.13464 0.43935 0.61319 0.0
C696 C 0.12062 0.3915 0.65668 0.0
C697 C 0.11124 0.42467 0.59775 0.0
C698 C 0.09305 0.43897 0.58612 0.0
C699 C 0.09826 0.46823 0.58928 0.0
C700 C 0.12179 0.48282 0.60447 0.0
C701 C 0.13967 0.46854 0.61639 0.0
H702 H 0.12059 0.37973 0.67771 0.0
H703 H 0.11127 0.40888 0.65965 0.0
H704 H 0.10826 0.37689 0.64019 0.0
H705 H 0.10721 0.40227 0.59429 0.0
H706 H 0.07529 0.42727 0.57407 0.0
H707 H 0.64096 0.26836 0.76409 0.0
H708 H 0.61567 0.22559 0.7386 0.0
H709 H 0.65558 0.25588 0.65985 0.0
H710 H 0.68057 0.2986 0.68486 0.0
H711 H 0.58161 0.22044 0.68832 0.0
H712 H 0.66599 0.17657 0.66997 0.0
H713 H 0.66816 0.20409 0.69597 0.0
H714 H 0.67135 0.2124 0.65765 0.0
C715 C 0.64425 0.26595 0.74131 0.0
C716 C 0.66302 0.28679 0.72663 0.0
C717 C 0.62991 0.24144 0.72684 0.0
C718 C 0.6342 0.23727 0.69753 0.0
C719 C 0.65251 0.25827 0.6827 0.0
H720 H 0.5386 0.14213 0.56011 0.0
H721 H 0.56421 0.1765 0.59517 0.0
C722 C 0.66677 0.28271 0.69707 0.0
C723 C 0.61887 0.2116 0.68183 0.0
H724 H 0.62597 0.15761 0.64063 0.0
C725 C 0.59126 0.20647 0.67823 0.0
C726 C 0.63143 0.19313 0.66904 0.0
C727 C 0.66084 0.19661 0.67357 0.0
C728 C 0.57604 0.18425 0.6609 0.0
C729 C 0.58883 0.16694 0.64654 0.0
C730 C 0.61625 0.17111 0.65139 0.0
C731 C 0.57426 0.14568 0.62494 0.0
C732 C 0.54641 0.17973 0.65777 0.0
C733 C 0.57226 0.11693 0.62948 0.0
C734 C 0.5576 0.09704 0.60931 0.0
C735 C 0.54488 0.10569 0.58421 0.0
C736 C 0.54786 0.13464 0.57932 0.0
C737 C 0.56239 0.15437 0.59943 0.0
H738 H 0.53903 0.18908 0.67623 0.0
H739 H 0.54124 0.19002 0.63724 0.0
H740 H 0.536 0.15698 0.65665 0.0
H741 H 0.58154 0.10985 0.64892 0.0
H742 H 0.55577 0.07494 0.61368 0.0
H743 H 0.74585 0.70245 0.57432 0.0
H744 H 0.78644 0.68903 0.56494 0.0
H745 H 0.76759 0.62333 0.63049 0.0
H746 H 0.72726 0.63696 0.6401 0.0
H747 H 0.81919 0.65738 0.63657 0.0
H748 H 0.79459 0.6199 0.52219 0.0
H749 H 0.79209 0.65478 0.5288 0.0
H750 H 0.76978 0.62514 0.54551 0.0
C751 C 0.75028 0.6849 0.58635 0.0
C752 C 0.73326 0.67026 0.60744 0.0
C753 C 0.77335 0.6772 0.58094 0.0
C754 C 0.77974 0.65485 0.59664 0.0
C755 C 0.76285 0.64045 0.61792 0.0
H756 H 0.89218 0.55988 0.57292 0.0
H757 H 0.85318 0.57761 0.5757 0.0
C758 C 0.73984 0.64814 0.62333 0.0
C759 C 0.80467 0.64724 0.59215 0.0
H760 H 0.83701 0.62011 0.54265 0.0
C761 C 0.8232 0.64942 0.61598 0.0
C762 C 0.80975 0.63679 0.56526 0.0
C763 C 0.79046 0.63376 0.53899 0.0
C764 C 0.8466 0.64121 0.61377 0.0
C765 C 0.85167 0.63073 0.58693 0.0
C766 C 0.83315 0.62849 0.56308 0.0
C767 C 0.87549 0.62065 0.58372 0.0
C768 C 0.86529 0.64296 0.64046 0.0
C769 C 0.90096 0.63912 0.58686 0.0
C770 C 0.92335 0.62903 0.58541 0.0
C771 C 0.92058 0.60035 0.58055 0.0
C772 C 0.895 0.58207 0.57683 0.0
C773 C 0.87268 0.59216 0.57829 0.0
H774 H 0.8558 0.64567 0.66082 0.0
H775 H 0.87249 0.62376 0.64284 0.0
H776 H 0.88272 0.6613 0.63807 0.0
H777 H 0.9035 0.6613 0.59056 0.0
H778 H 0.94278 0.6437 0.58796 0.0
H779 H 0.28157 0.39418 0.32782 0.0
H780 H 0.29958 0.41315 0.28123 0.0
H781 H 0.377 0.40737 0.31292 0.0
H782 H 0.35942 0.38908 0.35988 0.0
H783 H 0.34399 0.46305 0.2715 0.0
H784 H 0.36036 0.36312 0.23395 0.0
H785 H 0.33839 0.36425 0.2625 0.0
H786 H 0.37358 0.37372 0.27026 0.0
C787 C 0.30251 0.39722 0.32506 0.0
C788 C 0.31904 0.39003 0.34765 0.0
C789 C 0.3127 0.40793 0.29835 0.0
C790 C 0.33952 0.41138 0.2936 0.0
C791 C 0.35614 0.40446 0.31606 0.0
H792 H 0.44228 0.50285 0.1644 0.0
H793 H 0.41777 0.48697 0.20803 0.0
C794 C 0.34602 0.3939 0.34284 0.0
C795 C 0.35021 0.42226 0.26514 0.0
H796 H 0.37814 0.40415 0.20584 0.0
C797 C 0.35133 0.45018 0.25702 0.0
C798 C 0.35945 0.40527 0.24622 0.0
C799 C 0.35775 0.37483 0.25344 0.0
C800 C 0.36222 0.46182 0.23076 0.0
C801 C 0.37231 0.4451 0.21232 0.0
C802 C 0.37047 0.41695 0.22008 0.0
C803 C 0.38573 0.45656 0.18536 0.0
C804 C 0.36281 0.49187 0.22292 0.0
C805 C 0.37586 0.44473 0.15808 0.0
C806 C 0.38982 0.4538 0.13299 0.0
C807 C 0.4141 0.47462 0.13483 0.0
C808 C 0.42361 0.48684 0.16213 0.0
C809 C 0.40956 0.47789 0.18713 0.0
H810 H 0.34828 0.49928 0.23503 0.0
H811 H 0.38284 0.50566 0.22872 0.0
H812 H 0.35857 0.4943 0.19909 0.0
H813 H 0.35754 0.42815 0.1563 0.0
H814 H 0.38194 0.44393 0.11234 0.0
H815 H 0.39262 0.70849 0.80513 0.0
H816 H 0.41481 0.69283 0.84857 0.0
H817 H 0.34299 0.62895 0.86546 0.0
H818 H 0.3209 0.64435 0.82174 0.0
H819 H 0.40282 0.6877 0.90809 0.0
H820 H 0.39792 0.58392 0.86019 0.0
H821 H 0.39147 0.6127 0.83852 0.0
H822 H 0.36669 0.59218 0.86149 0.0
C823 C 0.38164 0.69112 0.81818 0.0
C824 C 0.35532 0.67712 0.80982 0.0
C825 C 0.39426 0.68227 0.84299 0.0
C826 C 0.38071 0.65937 0.8599 0.0
C827 C 0.35399 0.64625 0.85235 0.0
H828 H 0.44268 0.56525 0.99814 0.0
H829 H 0.41226 0.58482 0.96713 0.0
C830 C 0.34138 0.65507 0.8275 0.0
C831 C 0.39488 0.64874 0.8848 0.0
H832 H 0.4167 0.5921 0.90813 0.0
C833 C 0.40577 0.66676 0.9082 0.0
C834 C 0.39866 0.62138 0.88491 0.0
C835 C 0.38829 0.60144 0.85986 0.0
C836 C 0.42045 0.65818 0.93167 0.0
C837 C 0.4247 0.63105 0.93144 0.0
C838 C 0.41331 0.61284 0.90835 0.0
C839 C 0.4423 0.62159 0.95376 0.0
C840 C 0.43118 0.6782 0.95652 0.0
C841 C 0.46923 0.63604 0.95703 0.0
C842 C 0.48671 0.62497 0.97481 0.0
C843 C 0.47765 0.59903 0.98948 0.0
C844 C 0.4504 0.58528 0.98724 0.0
C845 C 0.43295 0.5964 0.96945 0.0
H846 H 0.41953 0.69384 0.95813 0.0
H847 H 0.4311 0.66675 0.97774 0.0
H848 H 0.45191 0.68991 0.95261 0.0
H849 H 0.47703 0.65521 0.9447 0.0
H850 H 0.50753 0.63613 0.9759 0.0
H851 H 0.36539 0.37477 0.7615 0.0
H852 H 0.38899 0.39716 0.80582 0.0
H853 H 0.31506 0.40083 0.83954 0.0
H854 H 0.29117 0.37817 0.79523 0.0
H855 H 0.35378 0.45102 0.8452 0.0
H856 H 0.39292 0.36303 0.88752 0.0
H857 H 0.40071 0.37223 0.85032 0.0
H858 H 0.36669 0.35848 0.85919 0.0
C859 C 0.35405 0.37992 0.7785 0.0
C860 C 0.32632 0.37445 0.77484 0.0
C861 C 0.3676 0.39271 0.80388 0.0
C862 C 0.35376 0.40019 0.82628 0.0
C863 C 0.32613 0.39507 0.82262 0.0
H864 H 0.44059 0.46109 0.99322 0.0
H865 H 0.40618 0.43449 0.95825 0.0
C866 C 0.31253 0.38225 0.79721 0.0
C867 C 0.36838 0.41443 0.85287 0.0
H868 H 0.41379 0.40849 0.9077 0.0
C869 C 0.36663 0.44157 0.85909 0.0
C870 C 0.38478 0.40194 0.87137 0.0
C871 C 0.38622 0.3722 0.86698 0.0
C872 C 0.3819 0.45709 0.88234 0.0
C873 C 0.39967 0.44532 0.89958 0.0
C874 C 0.40036 0.41763 0.89433 0.0
C875 C 0.4192 0.46214 0.92146 0.0
C876 C 0.37906 0.4861 0.88801 0.0
C877 C 0.43797 0.48637 0.91238 0.0
C878 C 0.45753 0.50148 0.93216 0.0
C879 C 0.45898 0.49265 0.96156 0.0
C880 C 0.43998 0.46851 0.97079 0.0
C881 C 0.42035 0.45329 0.95083 0.0
H882 H 0.35929 0.48825 0.87991 0.0
H883 H 0.38192 0.49101 0.91169 0.0
H884 H 0.39424 0.50191 0.87622 0.0
H885 H 0.4379 0.49327 0.88973 0.0
H886 H 0.47182 0.51991 0.92419 0.0
H887 H 0.68701 0.40874 0.77333 0.0
H888 H 0.66807 0.43548 0.80609 0.0
H889 H 0.63115 0.35896 0.85214 0.0
H890 H 0.64974 0.33196 0.81897 0.0
H891 H 0.59756 0.39075 0.84193 0.0
H892 H 0.69229 0.45773 0.88911 0.0
H893 H 0.6899 0.46034 0.84997 0.0
H894 H 0.6906 0.42732 0.8673 0.0
C895 C 0.67502 0.39763 0.79059 0.0
C896 C 0.67005 0.36827 0.79376 0.0
C897 C 0.66432 0.41297 0.8094 0.0
C898 C 0.64875 0.39936 0.83209 0.0
C899 C 0.64331 0.36996 0.83496 0.0
H900 H 0.59991 0.48731 0.97369 0.0
H901 H 0.62253 0.46042 0.94492 0.0
C902 C 0.65383 0.35454 0.81595 0.0
C903 C 0.63737 0.41573 0.85207 0.0
H904 H 0.65337 0.47242 0.89744 0.0
C905 C 0.6098 0.40845 0.85424 0.0
C906 C 0.65334 0.43857 0.86858 0.0
C907 C 0.68319 0.44628 0.8689 0.0
C908 C 0.59772 0.42386 0.87168 0.0
C909 C 0.61357 0.4477 0.88681 0.0
C910 C 0.6412 0.45444 0.88546 0.0
C911 C 0.60168 0.46594 0.90387 0.0
C912 C 0.56807 0.41425 0.87393 0.0
C913 C 0.58331 0.47891 0.89015 0.0
C914 C 0.57029 0.49402 0.9065 0.0
C915 C 0.57569 0.49688 0.93687 0.0
C916 C 0.59531 0.48541 0.95034 0.0
C917 C 0.60818 0.46999 0.93394 0.0
H918 H 0.56012 0.3916 0.8686 0.0
H919 H 0.56237 0.41765 0.89621 0.0
H920 H 0.55852 0.42643 0.85808 0.0
H921 H 0.5786 0.47685 0.86683 0.0
H922 H 0.5556 0.50302 0.89539 0.0
H923 H 0.62252 0.68707 0.71641 0.0
H924 H 0.60947 0.66531 0.76371 0.0
H925 H 0.68954 0.66117 0.7847 0.0
H926 H 0.703 0.68353 0.73767 0.0
H927 H 0.64813 0.60991 0.79644 0.0
H928 H 0.63102 0.70551 0.84401 0.0
H929 H 0.61469 0.69601 0.80868 0.0
H930 H 0.65023 0.70684 0.81234 0.0
C931 C 0.63746 0.68183 0.73117 0.0
C932 C 0.66388 0.68727 0.72326 0.0
C933 C 0.62993 0.6693 0.75815 0.0
C934 C 0.64861 0.66193 0.77779 0.0
C935 C 0.67484 0.66674 0.76982 0.0
H936 H 0.61903 0.61946 0.96117 0.0
H937 H 0.64058 0.63805 0.91618 0.0
C938 C 0.68245 0.6794 0.74287 0.0
C939 C 0.64068 0.64934 0.80671 0.0
H940 H 0.61618 0.66271 0.87052 0.0
C941 C 0.64131 0.62147 0.81275 0.0
C942 C 0.63215 0.66462 0.82806 0.0
C943 C 0.63215 0.69499 0.82317 0.0
C944 C 0.63275 0.60815 0.8393 0.0
C945 C 0.6232 0.62309 0.86015 0.0
C946 C 0.6234 0.65125 0.85445 0.0
C947 C 0.61186 0.60971 0.88755 0.0
C948 C 0.63399 0.57823 0.84483 0.0
C949 C 0.58873 0.58742 0.88638 0.0
C950 C 0.57631 0.57684 0.91201 0.0
C951 C 0.58675 0.58838 0.93934 0.0
C952 C 0.61046 0.61006 0.94052 0.0
C953 C 0.62279 0.62075 0.91483 0.0
H954 H 0.64819 0.57248 0.83073 0.0
H955 H 0.63985 0.57493 0.86809 0.0
H956 H 0.61411 0.56376 0.83984 0.0
H957 H 0.57969 0.57891 0.86554 0.0
H958 H 0.55806 0.56019 0.91024 0.0
H959 H 0.68792 0.70798 0.28809 0.0
H960 H 0.66765 0.68308 0.24351 0.0
H961 H 0.59007 0.67883 0.2727 0.0
H962 H 0.61021 0.70383 0.31729 0.0
H963 H 0.63518 0.63072 0.23836 0.0
H964 H 0.58385 0.70695 0.18945 0.0
H965 H 0.60872 0.716 0.21915 0.0
H966 H 0.57518 0.69738 0.22633 0.0
C967 C 0.66653 0.70182 0.285 0.0
C968 C 0.65069 0.70794 0.30631 0.0
C969 C 0.65497 0.68768 0.25943 0.0
C970 C 0.62732 0.67941 0.25447 0.0
C971 C 0.61145 0.68562 0.27561 0.0
H972 H 0.52874 0.54499 0.15325 0.0
H973 H 0.55731 0.57596 0.18925 0.0
C974 C 0.623 0.69987 0.30116 0.0
C975 C 0.61509 0.66287 0.22806 0.0
H976 H 0.57028 0.66026 0.1701 0.0
C977 C 0.62122 0.63737 0.22327 0.0
C978 C 0.5972 0.67169 0.208 0.0
C979 C 0.59104 0.69964 0.21077 0.0
C980 C 0.60914 0.61994 0.19979 0.0
C981 C 0.59004 0.62794 0.18079 0.0
C982 C 0.58475 0.654 0.18479 0.0
C983 C 0.57397 0.60868 0.15809 0.0
C984 C 0.61685 0.59299 0.19565 0.0
C985 C 0.57353 0.61681 0.12843 0.0
C986 C 0.557 0.59903 0.10756 0.0
C987 C 0.54038 0.573 0.11612 0.0
C988 C 0.54126 0.56485 0.14579 0.0
C989 C 0.55776 0.58249 0.16647 0.0
H990 H 0.63704 0.59431 0.20545 0.0
H991 H 0.60277 0.57547 0.20673 0.0
H992 H 0.61624 0.58787 0.17212 0.0
H993 H 0.58577 0.63702 0.12149 0.0
H994 H 0.55669 0.60601 0.08495 0.0
H995 H 0.34973 0.70529 0.2752 0.0
H996 H 0.36931 0.67392 0.24863 0.0
H997 H 0.29423 0.63945 0.20192 0.0
H998 H 0.27448 0.67058 0.22865 0.0
H999 H 0.34531 0.6082 0.24418 0.0
H1000 H 0.35518 0.67007 0.13981 0.0
H1001 H 0.3546 0.68632 0.17455 0.0
H1002 H 0.32479 0.6637 0.15842 0.0
C1003 C 0.33746 0.69095 0.25929 0.0
C1004 C 0.31066 0.69026 0.25395 0.0
C1005 C 0.3486 0.67309 0.24422 0.0
C1006 C 0.33317 0.65451 0.22336 0.0
C1007 C 0.3064 0.65376 0.21791 0.0
H1008 H 0.39031 0.55392 0.10069 0.0
H1009 H 0.36117 0.57541 0.12645 0.0
C1010 C 0.29519 0.6715 0.23314 0.0
C1011 C 0.34527 0.63605 0.2072 0.0
H1012 H 0.37135 0.62998 0.14206 0.0
C1013 C 0.35087 0.61277 0.22179 0.0
C1014 C 0.35215 0.64199 0.17795 0.0
C1015 C 0.34653 0.6669 0.16159 0.0
C1016 C 0.36364 0.59544 0.20793 0.0
C1017 C 0.37163 0.60209 0.17904 0.0
C1018 C 0.36526 0.62492 0.1642 0.0
C1019 C 0.38814 0.5869 0.16448 0.0
C1020 C 0.36831 0.5701 0.2243 0.0
C1021 C 0.41291 0.58617 0.17733 0.0
C1022 C 0.42951 0.57386 0.16277 0.0
C1023 C 0.42183 0.56233 0.13483 0.0
C1024 C 0.39683 0.56266 0.12215 0.0
C1025 C 0.38016 0.57493 0.13683 0.0
H1026 H 0.35353 0.5625 0.24108 0.0
H1027 H 0.3674 0.5526 0.20921 0.0
H1028 H 0.38823 0.57595 0.23576 0.0
H1029 H 0.41979 0.59586 0.1983 0.0
H1030 H 0.44864 0.57402 0.17316 0.0
H1031 H 0.61175 0.38483 0.29381 0.0
H1032 H 0.58792 0.39865 0.25077 0.0
H1033 H 0.65722 0.40963 0.20105 0.0
H1034 H 0.68123 0.39581 0.24425 0.0
H1035 H 0.60473 0.45171 0.2202 0.0
H1036 H 0.59499 0.35992 0.14834 0.0
H1037 H 0.60143 0.35829 0.18746 0.0
H1038 H 0.62749 0.37591 0.16454 0.0
C1039 C 0.62177 0.38977 0.27358 0.0
C1040 C 0.64818 0.38877 0.27217 0.0
C1041 C 0.60817 0.39774 0.24906 0.0
C1042 C 0.62069 0.40482 0.22264 0.0
C1043 C 0.64705 0.40374 0.22108 0.0
H1044 H 0.56055 0.49926 0.08272 0.0
H1045 H 0.59042 0.48107 0.11606 0.0
C1046 C 0.66072 0.39589 0.2457 0.0
C1047 C 0.60648 0.41478 0.19734 0.0
H1048 H 0.57891 0.39735 0.12857 0.0
C1049 C 0.59922 0.43993 0.20009 0.0
C1050 C 0.5992 0.39924 0.17125 0.0
C1051 C 0.60596 0.37172 0.16759 0.0
C1052 C 0.58469 0.44991 0.17751 0.0
C1053 C 0.57744 0.43443 0.15135 0.0
C1054 C 0.58477 0.40929 0.14853 0.0
C1055 C 0.56076 0.44327 0.12763 0.0
C1056 C 0.5765 0.47652 0.18215 0.0
C1057 C 0.53454 0.42735 0.12201 0.0
C1058 C 0.51738 0.43762 0.10291 0.0
C1059 C 0.52618 0.46399 0.08896 0.0
C1060 C 0.55302 0.47893 0.0931 0.0
C1061 C 0.57013 0.46866 0.11229 0.0
H1062 H 0.57935 0.48297 0.20543 0.0
H1063 H 0.58864 0.49385 0.16893 0.0
H1064 H 0.55539 0.47376 0.17491 0.0
H1065 H 0.52697 0.40764 0.13354 0.0
H1066 H 0.49692 0.42545 0.10015 0.0
loop_
_geom_bond_atom_site_label_1
_geom_bond_atom_site_label_2
_geom_bond_distance
_geom_bond_site_symmetry_2
_ccdc_geom_bond_type
H0 C7 0.929 . S
H1 C10 0.930 . S
H2 C12 0.929 . S
H3 C4 0.969 . S
C4 H3 0.969 . S
C4 O5 1.550 . S
C4 H6 0.973 . S
O5 C4 1.550 . S
O5 C11 1.412 . S
H6 C4 0.973 . S
C7 H0 0.929 . S
C7 C8 1.400 . S
C7 C9 1.364 . S
C8 C7 1.400 . S
C8 C12 1.377 . S
C9 C7 1.364 . S
C9 C10 1.374 . S
C10 H1 0.930 . S
C10 C9 1.374 . S
C10 C11 1.383 . S
C11 O5 1.412 . S
C11 C10 1.383 . S
C11 C12 1.394 . S
C12 H2 0.929 . S
C12 C8 1.377 . S
C12 C11 1.394 . S
H13 C20 0.929 . S
H14 C23 0.930 . S
H15 C25 0.929 . S
H16 C17 0.969 . S
C17 H16 0.969 . S
C17 O18 1.550 . S
C17 H19 0.973 . S
O18 C17 1.550 . S
O18 C24 1.412 . S
H19 C17 0.973 . S
C20 H13 0.929 . S
C20 C21 1.400 . S
C20 C22 1.364 . S
C21 C20 1.400 . S
C21 C25 1.377 . S
C22 C20 1.364 . S
C22 C23 1.374 . S
C23 H14 0.930 . S
C23 C22 1.374 . S
C23 C24 1.383 . S
C24 O18 1.412 . S
C24 C23 1.383 . S
C24 C25 1.394 . S
C25 H15 0.929 . S
C25 C21 1.377 . S
C25 C24 1.394 . S
H26 C33 0.929 . S
H27 C36 0.930 . S
H28 C38 0.929 . S
H29 C30 0.969 . S
C30 H29 0.969 . S
C30 O31 1.550 . S
C30 H32 0.973 . S
O31 C30 1.550 . S
O31 C37 1.412 . S
H32 C30 0.973 . S
C33 H26 0.929 . S
C33 C34 1.400 . S
C33 C35 1.364 . S
C34 C33 1.400 . S
C34 C38 1.377 . S
C35 C33 1.364 . S
C35 C36 1.374 . S
C36 H27 0.930 . S
C36 C35 1.374 . S
C36 C37 1.383 . S
C37 O31 1.412 . S
C37 C36 1.383 . S
C37 C38 1.394 . S
C38 H28 0.929 . S
C38 C34 1.377 . S
C38 C37 1.394 . S
H39 C46 0.929 . S
H40 C49 0.930 . S
H41 C51 0.929 . S
H42 C43 0.969 . S
C43 H42 0.969 . S
C43 O44 1.550 . S
C43 H45 0.973 . S
O44 C43 1.550 . S
O44 C50 1.412 . S
H45 C43 0.973 . S
C46 H39 0.929 . S
C46 C47 1.400 . S
C46 C48 1.364 . S
C47 C46 1.400 . S
C47 C51 1.377 . S
C48 C46 1.364 . S
C48 C49 1.374 . S
C49 H40 0.930 . S
C49 C48 1.374 . S
C49 C50 1.383 . S
C50 O44 1.412 . S
C50 C49 1.383 . S
C50 C51 1.394 . S
C51 H41 0.929 . S
C51 C47 1.377 . S
C51 C50 1.394 . S
H52 C59 0.929 . S
H53 C62 0.930 . S
H54 C64 0.929 . S
H55 C56 0.969 . S
C56 H55 0.969 . S
C56 O57 1.550 . S
C56 H58 0.973 . S
O57 C56 1.550 . S
O57 C63 1.412 . S
H58 C56 0.973 . S
C59 H52 0.929 . S
C59 C60 1.400 . S
C59 C61 1.364 . S
C60 C59 1.400 . S
C60 C64 1.377 . S
C61 C59 1.364 . S
C61 C62 1.374 . S
C62 H53 0.930 . S
C62 C61 1.374 . S
C62 C63 1.383 . S
C63 O57 1.412 . S
C63 C62 1.383 . S
C63 C64 1.394 . S
C64 H54 0.929 . S
C64 C60 1.377 . S
C64 C63 1.394 . S
H65 C72 0.929 . S
H66 C75 0.930 . S
H67 C77 0.929 . S
H68 C69 0.969 . S
C69 H68 0.969 . S
C69 O70 1.550 . S
C69 H71 0.973 . S
O70 C69 1.550 . S
O70 C76 1.412 . S
H71 C69 0.973 . S
C72 H65 0.929 . S
C72 C73 1.400 . S
C72 C74 1.364 . S
C73 C72 1.400 . S
C73 C77 1.377 . S
C74 C72 1.364 . S
C74 C75 1.374 . S
C75 H66 0.930 . S
C75 C74 1.374 . S
C75 C76 1.383 . S
C76 O70 1.412 . S
C76 C75 1.383 . S
C76 C77 1.394 . S
C77 H67 0.929 . S
C77 C73 1.377 . S
C77 C76 1.394 . S
H78 C85 0.929 . S
H79 C88 0.930 . S
H80 C90 0.929 . S
H81 C82 0.969 . S
C82 H81 0.969 . S
C82 O83 1.550 . S
C82 H84 0.973 . S
O83 C82 1.550 . S
O83 C89 1.412 . S
H84 C82 0.973 . S
C85 H78 0.929 . S
C85 C86 1.400 . S
C85 C87 1.364 . S
C86 C85 1.400 . S
C86 C90 1.377 . S
C87 C85 1.364 . S
C87 C88 1.374 . S
C88 H79 0.930 . S
C88 C87 1.374 . S
C88 C89 1.383 . S
C89 O83 1.412 . S
C89 C88 1.383 . S
C89 C90 1.394 . S
C90 H80 0.929 . S
C90 C86 1.377 . S
C90 C89 1.394 . S
H91 C98 0.929 . S
H92 C101 0.930 . S
H93 C103 0.929 . S
H94 C95 0.969 . S
C95 H94 0.969 . S
C95 O96 1.550 . S
C95 H97 0.973 . S
O96 C95 1.550 . S
O96 C102 1.412 . S
H97 C95 0.973 . S
C98 H91 0.929 . S
C98 C99 1.400 . S
C98 C100 1.364 . S
C99 C98 1.400 . S
C99 C103 1.377 . S
C100 C98 1.364 . S
C100 C101 1.374 . S
C101 H92 0.930 . S
C101 C100 1.374 . S
C101 C102 1.383 . S
C102 O96 1.412 . S
C102 C101 1.383 . S
C102 C103 1.394 . S
C103 H93 0.929 . S
C103 C99 1.377 . S
C103 C102 1.394 . S
Co104 O107 2.042 . S
Co104 O114 2.264 . S
Co104 O133 2.286 . S
Co104 O134 2.069 . S
Co104 O136 2.015 . S
Co105 O107 2.122 . S
Co105 O113 2.073 . S
Co105 O114 2.327 . S
Co105 O115 1.976 . S
Co106 O107 2.087 . S
Co106 O109 2.087 1_455 S
Co106 O116 2.111 . S
Co106 O117 2.143 1_455 S
Co106 O121 2.111 1_455 S
Co106 O135 2.143 . S
O107 Co104 2.042 . S
O107 Co105 2.122 . S
O107 Co106 2.087 . S
O107 H108 0.980 . S
H108 O107 0.980 . S
O109 Co106 2.087 1_655 S
O109 Co110 2.042 . S
O109 Co111 2.122 . S
O109 H112 0.980 1_655 S
Co110 O109 2.042 . S
Co110 O118 2.286 . S
Co110 O119 2.069 . S
Co110 O120 2.015 . S
Co110 O123 2.264 . S
Co111 O109 2.122 . S
Co111 O122 1.976 . S
Co111 O123 2.327 . S
Co111 O124 2.073 . S
H112 O109 0.980 1_455 S
O113 Co105 2.073 . S
O113 C128 1.245 . S
O114 Co104 2.264 . S
O114 Co105 2.327 . S
O114 C128 1.257 . S
O115 Co105 1.976 . S
O115 C127 1.251 . S
O116 Co106 2.111 . S
O116 C127 1.274 . S
O117 Co106 2.143 1_655 S
O117 C130 1.246 . S
O118 Co110 2.286 . S
O118 C129 1.259 . S
O119 Co110 2.069 . S
O119 C129 1.289 . S
O120 Co110 2.015 . S
O120 C130 1.257 . S
O121 Co106 2.111 1_655 S
O121 C131 1.274 . S
O122 Co111 1.976 . S
O122 C131 1.251 . S
O123 Co110 2.264 . S
O123 Co111 2.327 . S
O123 C132 1.257 . S
O124 Co111 2.073 . S
O124 C132 1.245 . S
C125 O133 1.259 . S
C125 O134 1.289 . S
C126 O135 1.246 . S
C126 O136 1.257 . S
C127 O115 1.251 . S
C127 O116 1.274 . S
C128 O113 1.245 . S
C128 O114 1.257 . S
C129 O118 1.259 . S
C129 O119 1.289 . S
C130 O117 1.246 . S
C130 O120 1.257 . S
C131 O121 1.274 . S
C131 O122 1.251 . S
C132 O123 1.257 . S
C132 O124 1.245 . S
O133 Co104 2.286 . S
O133 C125 1.259 . S
O134 Co104 2.069 . S
O134 C125 1.289 . S
O135 Co106 2.143 . S
O135 C126 1.246 . S
O136 Co104 2.015 . S
O136 C126 1.257 . S
Co137 O140 2.042 . S
Co137 O147 2.264 . S
Co137 O166 2.286 . S
Co137 O167 2.069 . S
Co137 O169 2.015 . S
Co138 O140 2.122 . S
Co138 O146 2.073 . S
Co138 O147 2.327 . S
Co138 O148 1.976 . S
Co139 O140 2.087 1_545 S
Co139 O142 2.087 . S
Co139 O149 2.111 1_545 S
Co139 O150 2.143 . S
Co139 O154 2.111 . S
Co139 O168 2.143 1_545 S
O140 Co137 2.042 . S
O140 Co138 2.122 . S
O140 Co139 2.087 1_565 S
O140 H141 0.980 1_565 S
H141 O140 0.980 1_545 S
O142 Co139 2.087 . S
O142 Co143 2.042 . S
O142 Co144 2.122 . S
O142 H145 0.980 . S
Co143 O142 2.042 . S
Co143 O151 2.286 . S
Co143 O152 2.069 . S
Co143 O153 2.015 . S
Co143 O156 2.264 . S
Co144 O142 2.122 . S
Co144 O155 1.976 . S
Co144 O156 2.327 . S
Co144 O157 2.073 . S
H145 O142 0.980 . S
O146 Co138 2.073 . S
O146 C161 1.245 . S
O147 Co137 2.264 . S
O147 Co138 2.327 . S
O147 C161 1.257 . S
O148 Co138 1.976 . S
O148 C160 1.251 . S
O149 Co139 2.111 1_565 S
O149 C160 1.274 . S
O150 Co139 2.143 . S
O150 C163 1.246 . S
O151 Co143 2.286 . S
O151 C162 1.259 . S
O152 Co143 2.069 . S
O152 C162 1.289 . S
O153 Co143 2.015 . S
O153 C163 1.257 . S
O154 Co139 2.111 . S
O154 C164 1.274 . S
O155 Co144 1.976 . S
O155 C164 1.251 . S
O156 Co143 2.264 . S
O156 Co144 2.327 . S
O156 C165 1.257 . S
O157 Co144 2.073 . S
O157 C165 1.245 . S
C158 O166 1.259 . S
C158 O167 1.289 . S
C159 O168 1.246 . S
C159 O169 1.257 . S
C160 O148 1.251 . S
C160 O149 1.274 . S
C161 O146 1.245 . S
C161 O147 1.257 . S
C162 O151 1.259 . S
C162 O152 1.289 . S
C163 O150 1.246 . S
C163 O153 1.257 . S
C164 O154 1.274 . S
C164 O155 1.251 . S
C165 O156 1.257 . S
C165 O157 1.245 . S
O166 Co137 2.286 . S
O166 C158 1.259 . S
O167 Co137 2.069 . S
O167 C158 1.289 . S
O168 Co139 2.143 1_565 S
O168 C159 1.246 . S
O169 Co137 2.015 . S
O169 C159 1.257 . S
Co170 O173 2.042 . S
Co170 O180 2.264 . S
Co170 O199 2.286 . S
Co170 O200 2.069 . S
Co170 O202 2.015 . S
Co171 O173 2.122 . S
Co171 O179 2.073 . S
Co171 O180 2.327 . S
Co171 O181 1.976 . S
Co172 O173 2.087 . S
Co172 O175 2.087 1_554 S
Co172 O182 2.111 . S
Co172 O183 2.143 1_554 S
Co172 O187 2.111 . S
Co172 O201 2.143 . S
O173 Co170 2.042 . S
O173 Co171 2.122 . S
O173 Co172 2.087 . S
O173 H174 0.980 . S
H174 O173 0.980 . S
O175 Co172 2.087 1_556 S
O175 Co176 2.042 . S
O175 Co177 2.122 . S
O175 H178 0.976 1_556 S
Co176 O175 2.042 . S
Co176 O184 2.286 . S
Co176 O185 2.069 . S
Co176 O186 2.015 . S
Co176 O189 2.264 . S
Co177 O175 2.122 . S
Co177 O188 1.976 . S
Co177 O189 2.327 . S
Co177 O190 2.073 . S
H178 O175 0.976 1_554 S
O179 Co171 2.073 . S
O179 C194 1.245 . S
O180 Co170 2.264 . S
O180 Co171 2.327 . S
O180 C194 1.257 . S
O181 Co171 1.976 . S
O181 C193 1.251 . S
O182 Co172 2.111 . S
O182 C193 1.274 . S
O183 Co172 2.143 1_556 S
O183 C196 1.246 . S
O184 Co176 2.286 . S
O184 C195 1.259 . S
O185 Co176 2.069 . S
O185 C195 1.289 . S
O186 Co176 2.015 . S
O186 C196 1.257 . S
O187 Co172 2.111 . S
O187 C197 1.274 1_554 S
O188 Co177 1.976 . S
O188 C197 1.251 . S
O189 Co176 2.264 . S
O189 Co177 2.327 . S
O189 C198 1.257 . S
O190 Co177 2.073 . S
O190 C198 1.245 . S
C191 O199 1.259 . S
C191 O200 1.289 . S
C192 O201 1.246 . S
C192 O202 1.257 . S
C193 O181 1.251 . S
C193 O182 1.274 . S
C194 O179 1.245 . S
C194 O180 1.257 . S
C195 O184 1.259 . S
C195 O185 1.289 . S
C196 O183 1.246 . S
C196 O186 1.257 . S
C197 O187 1.274 1_556 S
C197 O188 1.251 . S
C198 O189 1.257 . S
C198 O190 1.245 . S
O199 Co170 2.286 . S
O199 C191 1.259 . S
O200 Co170 2.069 . S
O200 C191 1.289 . S
O201 Co172 2.143 . S
O201 C192 1.246 . S
O202 Co170 2.015 . S
O202 C192 1.257 . S
H203 C211 0.929 . S
H204 C213 0.930 . S
H205 C215 0.930 . S
H206 C218 0.929 . S
H207 C221 0.930 . S
H208 C223 0.960 . S
H209 C223 0.960 . S
H210 C223 0.960 . S
C211 H203 0.929 . S
C211 C212 1.377 . S
C211 C213 1.384 . S
C212 C211 1.377 . S
C212 C218 1.390 . S
C213 H204 0.930 . S
C213 C211 1.384 . S
C213 C214 1.372 . S
C214 C213 1.372 . S
C214 C215 1.400 . S
C214 C219 1.490 . S
C215 H205 0.930 . S
C215 C214 1.400 . S
C215 C218 1.386 . S
H216 C232 0.930 . S
H217 C233 0.931 . S
C218 H206 0.929 . S
C218 C212 1.390 . S
C218 C215 1.386 . S
C219 C214 1.490 . S
C219 C221 1.395 . S
C219 C222 1.403 . S
H220 C226 0.930 . S
C221 H207 0.930 . S
C221 C219 1.395 . S
C221 C224 1.403 . S
C222 C219 1.403 . S
C222 C223 1.524 . S
C222 C226 1.400 . S
C223 H208 0.960 . S
C223 H209 0.960 . S
C223 H210 0.960 . S
C223 C222 1.524 . S
C224 C221 1.403 . S
C224 C225 1.392 . S
C224 C228 1.495 . S
C225 C224 1.392 . S
C225 C226 1.385 . S
C225 C227 1.478 . S
C226 H220 0.930 . S
C226 C222 1.400 . S
C226 C225 1.385 . S
C227 C225 1.478 . S
C227 C229 1.381 . S
C227 C233 1.383 . S
C228 C224 1.495 . S
C228 H234 0.959 . S
C228 H235 0.961 . S
C228 H236 0.960 . S
C229 C227 1.381 . S
C229 C230 1.394 . S
C229 H237 0.930 . S
C230 C229 1.394 . S
C230 C231 1.383 . S
C230 H238 0.929 . S
C231 C230 1.383 . S
C231 C232 1.377 . S
C232 H216 0.930 . S
C232 C231 1.377 . S
C232 C233 1.379 . S
C233 H217 0.931 . S
C233 C227 1.383 . S
C233 C232 1.379 . S
H234 C228 0.959 . S
H235 C228 0.961 . S
H236 C228 0.960 . S
H237 C229 0.930 . S
H238 C230 0.929 . S
H239 C247 0.929 . S
H240 C249 0.930 . S
H241 C251 0.930 . S
H242 C254 0.929 . S
H243 C257 0.930 . S
H244 C259 0.960 . S
H245 C259 0.960 . S
H246 C259 0.960 . S
C247 H239 0.929 . S
C247 C248 1.377 . S
C247 C249 1.384 . S
C248 C247 1.377 . S
C248 C254 1.390 . S
C249 H240 0.930 . S
C249 C247 1.384 . S
C249 C250 1.372 . S
C250 C249 1.372 . S
C250 C251 1.400 . S
C250 C255 1.490 . S
C251 H241 0.930 . S
C251 C250 1.400 . S
C251 C254 1.386 . S
H252 C268 0.930 . S
H253 C269 0.931 . S
C254 H242 0.929 . S
C254 C248 1.390 . S
C254 C251 1.386 . S
C255 C250 1.490 . S
C255 C257 1.395 . S
C255 C258 1.403 . S
H256 C262 0.930 . S
C257 H243 0.930 . S
C257 C255 1.395 . S
C257 C260 1.403 . S
C258 C255 1.403 . S
C258 C259 1.524 . S
C258 C262 1.400 . S
C259 H244 0.960 . S
C259 H245 0.960 . S
C259 H246 0.960 . S
C259 C258 1.524 . S
C260 C257 1.403 . S
C260 C261 1.392 . S
C260 C264 1.495 . S
C261 C260 1.392 . S
C261 C262 1.385 . S
C261 C263 1.478 . S
C262 H256 0.930 . S
C262 C258 1.400 . S
C262 C261 1.385 . S
C263 C261 1.478 . S
C263 C265 1.381 . S
C263 C269 1.383 . S
C264 C260 1.495 . S
C264 H270 0.959 . S
C264 H271 0.961 . S
C264 H272 0.960 . S
C265 C263 1.381 . S
C265 C266 1.394 . S
C265 H273 0.930 . S
C266 C265 1.394 . S
C266 C267 1.383 . S
C266 H274 0.929 . S
C267 C266 1.383 . S
C267 C268 1.377 . S
C268 H252 0.930 . S
C268 C267 1.377 . S
C268 C269 1.379 . S
C269 H253 0.931 . S
C269 C263 1.383 . S
C269 C268 1.379 . S
H270 C264 0.959 . S
H271 C264 0.961 . S
H272 C264 0.960 . S
H273 C265 0.930 . S
H274 C266 0.929 . S
H275 C283 0.929 . S
H276 C285 0.930 . S
H277 C287 0.930 . S
H278 C290 0.929 . S
H279 C293 0.930 . S
H280 C295 0.960 . S
H281 C295 0.960 . S
H282 C295 0.960 . S
C283 H275 0.929 . S
C283 C284 1.377 . S
C283 C285 1.384 . S
C284 C283 1.377 . S
C284 C290 1.390 . S
C285 H276 0.930 . S
C285 C283 1.384 . S
C285 C286 1.372 . S
C286 C285 1.372 . S
C286 C287 1.400 . S
C286 C291 1.490 . S
C287 H277 0.930 . S
C287 C286 1.400 . S
C287 C290 1.386 . S
H288 C304 0.930 . S
H289 C305 0.931 . S
C290 H278 0.929 . S
C290 C284 1.390 . S
C290 C287 1.386 . S
C291 C286 1.490 . S
C291 C293 1.395 . S
C291 C294 1.403 . S
H292 C298 0.930 . S
C293 H279 0.930 . S
C293 C291 1.395 . S
C293 C296 1.403 . S
C294 C291 1.403 . S
C294 C295 1.524 . S
C294 C298 1.400 . S
C295 H280 0.960 . S
C295 H281 0.960 . S
C295 H282 0.960 . S
C295 C294 1.524 . S
C296 C293 1.403 . S
C296 C297 1.392 . S
C296 C300 1.495 . S
C297 C296 1.392 . S
C297 C298 1.385 . S
C297 C299 1.478 . S
C298 H292 0.930 . S
C298 C294 1.400 . S
C298 C297 1.385 . S
C299 C297 1.478 . S
C299 C301 1.381 . S
C299 C305 1.383 . S
C300 C296 1.495 . S
C300 H306 0.959 . S
C300 H307 0.961 . S
C300 H308 0.960 . S
C301 C299 1.381 . S
C301 C302 1.394 . S
C301 H309 0.930 . S
C302 C301 1.394 . S
C302 C303 1.383 . S
C302 H310 0.929 . S
C303 C302 1.383 . S
C303 C304 1.377 . S
C304 H288 0.930 . S
C304 C303 1.377 . S
C304 C305 1.379 . S
C305 H289 0.931 . S
C305 C299 1.383 . S
C305 C304 1.379 . S
H306 C300 0.959 . S
H307 C300 0.961 . S
H308 C300 0.960 . S
H309 C301 0.930 . S
H310 C302 0.929 . S
H311 C319 0.929 . S
H312 C321 0.930 . S
H313 C323 0.930 . S
H314 C326 0.929 . S
H315 C329 0.930 . S
H316 C331 0.960 . S
H317 C331 0.960 . S
H318 C331 0.960 . S
C319 H311 0.929 . S
C319 C320 1.377 . S
C319 C321 1.384 . S
C320 C319 1.377 . S
C320 C326 1.390 . S
C321 H312 0.930 . S
C321 C319 1.384 . S
C321 C322 1.372 . S
C322 C321 1.372 . S
C322 C323 1.400 . S
C322 C327 1.490 . S
C323 H313 0.930 . S
C323 C322 1.400 . S
C323 C326 1.386 . S
H324 C340 0.930 . S
H325 C341 0.931 . S
C326 H314 0.929 . S
C326 C320 1.390 . S
C326 C323 1.386 . S
C327 C322 1.490 . S
C327 C329 1.395 . S
C327 C330 1.403 . S
H328 C334 0.930 . S
C329 H315 0.930 . S
C329 C327 1.395 . S
C329 C332 1.403 . S
C330 C327 1.403 . S
C330 C331 1.524 . S
C330 C334 1.400 . S
C331 H316 0.960 . S
C331 H317 0.960 . S
C331 H318 0.960 . S
C331 C330 1.524 . S
C332 C329 1.403 . S
C332 C333 1.392 . S
C332 C336 1.495 . S
C333 C332 1.392 . S
C333 C334 1.385 . S
C333 C335 1.478 . S
C334 H328 0.930 . S
C334 C330 1.400 . S
C334 C333 1.385 . S
C335 C333 1.478 . S
C335 C337 1.381 . S
C335 C341 1.383 . S
C336 C332 1.495 . S
C336 H342 0.959 . S
C336 H343 0.961 . S
C336 H344 0.960 . S
C337 C335 1.381 . S
C337 C338 1.394 . S
C337 H345 0.930 . S
C338 C337 1.394 . S
C338 C339 1.383 . S
C338 H346 0.929 . S
C339 C338 1.383 . S
C339 C340 1.377 . S
C340 H324 0.930 . S
C340 C339 1.377 . S
C340 C341 1.379 . S
C341 H325 0.931 . S
C341 C335 1.383 . S
C341 C340 1.379 . S
H342 C336 0.959 . S
H343 C336 0.961 . S
H344 C336 0.960 . S
H345 C337 0.930 . S
H346 C338 0.929 . S
H347 C355 0.929 . S
H348 C357 0.930 . S
H349 C359 0.930 . S
H350 C362 0.929 . S
H351 C365 0.930 . S
H352 C367 0.960 . S
H353 C367 0.960 . S
H354 C367 0.960 . S
C355 H347 0.929 . S
C355 C356 1.377 . S
C355 C357 1.384 . S
C356 C355 1.377 . S
C356 C362 1.390 . S
C357 H348 0.930 . S
C357 C355 1.384 . S
C357 C358 1.372 . S
C358 C357 1.372 . S
C358 C359 1.400 . S
C358 C363 1.490 . S
C359 H349 0.930 . S
C359 C358 1.400 . S
C359 C362 1.386 . S
H360 C376 0.930 . S
H361 C377 0.931 . S
C362 H350 0.929 . S
C362 C356 1.390 . S
C362 C359 1.386 . S
C363 C358 1.490 . S
C363 C365 1.395 . S
C363 C366 1.403 . S
H364 C370 0.930 . S
C365 H351 0.930 . S
C365 C363 1.395 . S
C365 C368 1.403 . S
C366 C363 1.403 . S
C366 C367 1.524 . S
C366 C370 1.400 . S
C367 H352 0.960 . S
C367 H353 0.960 . S
C367 H354 0.960 . S
C367 C366 1.524 . S
C368 C365 1.403 . S
C368 C369 1.392 . S
C368 C372 1.495 . S
C369 C368 1.392 . S
C369 C370 1.385 . S
C369 C371 1.478 . S
C370 H364 0.930 . S
C370 C366 1.400 . S
C370 C369 1.385 . S
C371 C369 1.478 . S
C371 C373 1.381 . S
C371 C377 1.383 . S
C372 C368 1.495 . S
C372 H378 0.959 . S
C372 H379 0.961 . S
C372 H380 0.960 . S
C373 C371 1.381 . S
C373 C374 1.394 . S
C373 H381 0.930 . S
C374 C373 1.394 . S
C374 C375 1.383 . S
C374 H382 0.929 . S
C375 C374 1.383 . S
C375 C376 1.377 . S
C376 H360 0.930 . S
C376 C375 1.377 . S
C376 C377 1.379 . S
C377 H361 0.931 . S
C377 C371 1.383 . S
C377 C376 1.379 . S
H378 C372 0.959 . S
H379 C372 0.961 . S
H380 C372 0.960 . S
H381 C373 0.930 . S
H382 C374 0.929 . S
H383 C391 0.929 . S
H384 C393 0.930 . S
H385 C395 0.930 . S
H386 C398 0.929 . S
H387 C401 0.930 . S
H388 C403 0.960 . S
H389 C403 0.960 . S
H390 C403 0.960 . S
C391 H383 0.929 . S
C391 C392 1.377 . S
C391 C393 1.384 . S
C392 C391 1.377 . S
C392 C398 1.390 . S
C393 H384 0.930 . S
C393 C391 1.384 . S
C393 C394 1.372 . S
C394 C393 1.372 . S
C394 C395 1.400 . S
C394 C399 1.490 . S
C395 H385 0.930 . S
C395 C394 1.400 . S
C395 C398 1.386 . S
H396 C412 0.930 . S
H397 C413 0.931 . S
C398 H386 0.929 . S
C398 C392 1.390 . S
C398 C395 1.386 . S
C399 C394 1.490 . S
C399 C401 1.395 . S
C399 C402 1.403 . S
H400 C406 0.930 . S
C401 H387 0.930 . S
C401 C399 1.395 . S
C401 C404 1.403 . S
C402 C399 1.403 . S
C402 C403 1.524 . S
C402 C406 1.400 . S
C403 H388 0.960 . S
C403 H389 0.960 . S
C403 H390 0.960 . S
C403 C402 1.524 . S
C404 C401 1.403 . S
C404 C405 1.392 . S
C404 C408 1.495 . S
C405 C404 1.392 . S
C405 C406 1.385 . S
C405 C407 1.478 . S
C406 H400 0.930 . S
C406 C402 1.400 . S
C406 C405 1.385 . S
C407 C405 1.478 . S
C407 C409 1.381 . S
C407 C413 1.383 . S
C408 C404 1.495 . S
C408 H414 0.959 . S
C408 H415 0.961 . S
C408 H416 0.960 . S
C409 C407 1.381 . S
C409 C410 1.394 . S
C409 H417 0.930 . S
C410 C409 1.394 . S
C410 C411 1.383 . S
C410 H418 0.929 . S
C411 C410 1.383 . S
C411 C412 1.377 . S
C412 H396 0.930 . S
C412 C411 1.377 . S
C412 C413 1.379 . S
C413 H397 0.931 . S
C413 C407 1.383 . S
C413 C412 1.379 . S
H414 C408 0.959 . S
H415 C408 0.961 . S
H416 C408 0.960 . S
H417 C409 0.930 . S
H418 C410 0.929 . S
H419 C427 0.929 . S
H420 C429 0.930 . S
H421 C431 0.930 . S
H422 C434 0.929 . S
H423 C437 0.930 . S
H424 C439 0.960 . S
H425 C439 0.960 . S
H426 C439 0.960 . S
C427 H419 0.929 . S
C427 C428 1.377 . S
C427 C429 1.384 . S
C428 C427 1.377 . S
C428 C434 1.390 . S
C429 H420 0.930 . S
C429 C427 1.384 . S
C429 C430 1.372 . S
C430 C429 1.372 . S
C430 C431 1.400 . S
C430 C435 1.490 . S
C431 H421 0.930 . S
C431 C430 1.400 . S
C431 C434 1.386 . S
H432 C448 0.930 . S
H433 C449 0.931 . S
C434 H422 0.929 . S
C434 C428 1.390 . S
C434 C431 1.386 . S
C435 C430 1.490 . S
C435 C437 1.395 . S
C435 C438 1.403 . S
H436 C442 0.930 . S
C437 H423 0.930 . S
C437 C435 1.395 . S
C437 C440 1.403 . S
C438 C435 1.403 . S
C438 C439 1.524 . S
C438 C442 1.400 . S
C439 H424 0.960 . S
C439 H425 0.960 . S
C439 H426 0.960 . S
C439 C438 1.524 . S
C440 C437 1.403 . S
C440 C441 1.392 . S
C440 C444 1.495 . S
C441 C440 1.392 . S
C441 C442 1.385 . S
C441 C443 1.478 . S
C442 H436 0.930 . S
C442 C438 1.400 . S
C442 C441 1.385 . S
C443 C441 1.478 . S
C443 C445 1.381 . S
C443 C449 1.383 . S
C444 C440 1.495 . S
C444 H450 0.959 . S
C444 H451 0.961 . S
C444 H452 0.960 . S
C445 C443 1.381 . S
C445 C446 1.394 . S
C445 H453 0.930 . S
C446 C445 1.394 . S
C446 C447 1.383 . S
C446 H454 0.929 . S
C447 C446 1.383 . S
C447 C448 1.377 . S
C448 H432 0.930 . S
C448 C447 1.377 . S
C448 C449 1.379 . S
C449 H433 0.931 . S
C449 C443 1.383 . S
C449 C448 1.379 . S
H450 C444 0.959 . S
H451 C444 0.961 . S
H452 C444 0.960 . S
H453 C445 0.930 . S
H454 C446 0.929 . S
H455 C463 0.929 . S
H456 C465 0.930 . S
H457 C467 0.930 . S
H458 C470 0.929 . S
H459 C473 0.930 . S
H460 C475 0.960 . S
H461 C475 0.960 . S
H462 C475 0.960 . S
C463 H455 0.929 . S
C463 C464 1.377 . S
C463 C465 1.384 . S
C464 C463 1.377 . S
C464 C470 1.390 . S
C465 H456 0.930 . S
C465 C463 1.384 . S
C465 C466 1.372 . S
C466 C465 1.372 . S
C466 C467 1.400 . S
C466 C471 1.490 . S
C467 H457 0.930 . S
C467 C466 1.400 . S
C467 C470 1.386 . S
H468 C484 0.930 . S
H469 C485 0.931 . S
C470 H458 0.929 . S
C470 C464 1.390 . S
C470 C467 1.386 . S
C471 C466 1.490 . S
C471 C473 1.395 . S
C471 C474 1.403 . S
H472 C478 0.930 . S
C473 H459 0.930 . S
C473 C471 1.395 . S
C473 C476 1.403 . S
C474 C471 1.403 . S
C474 C475 1.524 . S
C474 C478 1.400 . S
C475 H460 0.960 . S
C475 H461 0.960 . S
C475 H462 0.960 . S
C475 C474 1.524 . S
C476 C473 1.403 . S
C476 C477 1.392 . S
C476 C480 1.495 . S
C477 C476 1.392 . S
C477 C478 1.385 . S
C477 C479 1.478 . S
C478 H472 0.930 . S
C478 C474 1.400 . S
C478 C477 1.385 . S
C479 C477 1.478 . S
C479 C481 1.381 . S
C479 C485 1.383 . S
C480 C476 1.495 . S
C480 H486 0.959 . S
C480 H487 0.961 . S
C480 H488 0.960 . S
C481 C479 1.381 . S
C481 C482 1.394 . S
C481 H489 0.930 . S
C482 C481 1.394 . S
C482 C483 1.383 . S
C482 H490 0.929 . S
C483 C482 1.383 . S
C483 C484 1.377 . S
C484 H468 0.930 . S
C484 C483 1.377 . S
C484 C485 1.379 . S
C485 H469 0.931 . S
C485 C479 1.383 . S
C485 C484 1.379 . S
H486 C480 0.959 . S
H487 C480 0.961 . S
H488 C480 0.960 . S
H489 C481 0.930 . S
H490 C482 0.929 . S
H491 C499 0.929 . S
H492 C501 0.930 . S
H493 C503 0.930 . S
H494 C506 0.929 . S
H495 C509 0.930 . S
H496 C511 0.960 . S
H497 C511 0.960 . S
H498 C511 0.960 . S
C499 H491 0.929 . S
C499 C500 1.377 . S
C499 C501 1.384 . S
C500 C499 1.377 . S
C500 C506 1.390 . S
C501 H492 0.930 . S
C501 C499 1.384 . S
C501 C502 1.372 . S
C502 C501 1.372 . S
C502 C503 1.400 . S
C502 C507 1.490 . S
C503 H493 0.930 . S
C503 C502 1.400 . S
C503 C506 1.386 . S
H504 C520 0.930 . S
H505 C521 0.931 . S
C506 H494 0.929 . S
C506 C500 1.390 . S
C506 C503 1.386 . S
C507 C502 1.490 . S
C507 C509 1.395 . S
C507 C510 1.403 . S
H508 C514 0.930 . S
C509 H495 0.930 . S
C509 C507 1.395 . S
C509 C512 1.403 . S
C510 C507 1.403 . S
C510 C511 1.524 . S
C510 C514 1.400 . S
C511 H496 0.960 . S
C511 H497 0.960 . S
C511 H498 0.960 . S
C511 C510 1.524 . S
C512 C509 1.403 . S
C512 C513 1.392 . S
C512 C516 1.495 . S
C513 C512 1.392 . S
C513 C514 1.385 . S
C513 C515 1.478 . S
C514 H508 0.930 . S
C514 C510 1.400 . S
C514 C513 1.385 . S
C515 C513 1.478 . S
C515 C517 1.381 . S
C515 C521 1.383 . S
C516 C512 1.495 . S
C516 H522 0.959 . S
C516 H523 0.961 . S
C516 H524 0.960 . S
C517 C515 1.381 . S
C517 C518 1.394 . S
C517 H525 0.930 . S
C518 C517 1.394 . S
C518 C519 1.383 . S
C518 H526 0.929 . S
C519 C518 1.383 . S
C519 C520 1.377 . S
C520 H504 0.930 . S
C520 C519 1.377 . S
C520 C521 1.379 . S
C521 H505 0.931 . S
C521 C515 1.383 . S
C521 C520 1.379 . S
H522 C516 0.959 . S
H523 C516 0.961 . S
H524 C516 0.960 . S
H525 C517 0.930 . S
H526 C518 0.929 . S
H527 C535 0.929 . S
H528 C537 0.930 . S
H529 C539 0.930 . S
H530 C542 0.929 . S
H531 C545 0.930 . S
H532 C547 0.960 . S
H533 C547 0.960 . S
H534 C547 0.960 . S
C535 H527 0.929 . S
C535 C536 1.377 . S
C535 C537 1.384 . S
C536 C535 1.377 . S
C536 C542 1.390 . S
C537 H528 0.930 . S
C537 C535 1.384 . S
C537 C538 1.372 . S
C538 C537 1.372 . S
C538 C539 1.400 . S
C538 C543 1.490 . S
C539 H529 0.930 . S
C539 C538 1.400 . S
C539 C542 1.386 . S
H540 C556 0.930 . S
H541 C557 0.931 . S
C542 H530 0.929 . S
C542 C536 1.390 . S
C542 C539 1.386 . S
C543 C538 1.490 . S
C543 C545 1.395 . S
C543 C546 1.403 . S
H544 C550 0.930 . S
C545 H531 0.930 . S
C545 C543 1.395 . S
C545 C548 1.403 . S
C546 C543 1.403 . S
C546 C547 1.524 . S
C546 C550 1.400 . S
C547 H532 0.960 . S
C547 H533 0.960 . S
C547 H534 0.960 . S
C547 C546 1.524 . S
C548 C545 1.403 . S
C548 C549 1.392 . S
C548 C552 1.495 . S
C549 C548 1.392 . S
C549 C550 1.385 . S
C549 C551 1.478 . S
C550 H544 0.930 . S
C550 C546 1.400 . S
C550 C549 1.385 . S
C551 C549 1.478 . S
C551 C553 1.381 . S
C551 C557 1.383 . S
C552 C548 1.495 . S
C552 H558 0.959 . S
C552 H559 0.961 . S
C552 H560 0.960 . S
C553 C551 1.381 . S
C553 C554 1.394 . S
C553 H561 0.930 . S
C554 C553 1.394 . S
C554 C555 1.383 . S
C554 H562 0.929 . S
C555 C554 1.383 . S
C555 C556 1.377 . S
C556 H540 0.930 . S
C556 C555 1.377 . S
C556 C557 1.379 . S
C557 H541 0.931 . S
C557 C551 1.383 . S
C557 C556 1.379 . S
H558 C552 0.959 . S
H559 C552 0.961 . S
H560 C552 0.960 . S
H561 C553 0.930 . S
H562 C554 0.929 . S
H563 C571 0.929 . S
H564 C573 0.930 . S
H565 C575 0.930 . S
H566 C578 0.929 . S
H567 C581 0.930 . S
H568 C583 0.960 . S
H569 C583 0.960 . S
H570 C583 0.960 . S
C571 H563 0.929 . S
C571 C572 1.377 . S
C571 C573 1.384 . S
C572 C571 1.377 . S
C572 C578 1.390 . S
C573 H564 0.930 . S
C573 C571 1.384 . S
C573 C574 1.372 . S
C574 C573 1.372 . S
C574 C575 1.400 . S
C574 C579 1.490 . S
C575 H565 0.930 . S
C575 C574 1.400 . S
C575 C578 1.386 . S
H576 C592 0.930 . S
H577 C593 0.931 . S
C578 H566 0.929 . S
C578 C572 1.390 . S
C578 C575 1.386 . S
C579 C574 1.490 . S
C579 C581 1.395 . S
C579 C582 1.403 . S
H580 C586 0.930 . S
C581 H567 0.930 . S
C581 C579 1.395 . S
C581 C584 1.403 . S
C582 C579 1.403 . S
C582 C583 1.524 . S
C582 C586 1.400 . S
C583 H568 0.960 . S
C583 H569 0.960 . S
C583 H570 0.960 . S
C583 C582 1.524 . S
C584 C581 1.403 . S
C584 C585 1.392 . S
C584 C588 1.495 . S
C585 C584 1.392 . S
C585 C586 1.385 . S
C585 C587 1.478 . S
C586 H580 0.930 . S
C586 C582 1.400 . S
C586 C585 1.385 . S
C587 C585 1.478 . S
C587 C589 1.381 . S
C587 C593 1.383 . S
C588 C584 1.495 . S
C588 H594 0.959 . S
C588 H595 0.961 . S
C588 H596 0.960 . S
C589 C587 1.381 . S
C589 C590 1.394 . S
C589 H597 0.930 . S
C590 C589 1.394 . S
C590 C591 1.383 . S
C590 H598 0.929 . S
C591 C590 1.383 . S
C591 C592 1.377 . S
C592 H576 0.930 . S
C592 C591 1.377 . S
C592 C593 1.379 . S
C593 H577 0.931 . S
C593 C587 1.383 . S
C593 C592 1.379 . S
H594 C588 0.959 . S
H595 C588 0.961 . S
H596 C588 0.960 . S
H597 C589 0.930 . S
H598 C590 0.929 . S
H599 C607 0.929 . S
H600 C609 0.930 . S
H601 C611 0.930 . S
H602 C614 0.929 . S
H603 C617 0.930 . S
H604 C619 0.960 . S
H605 C619 0.960 . S
H606 C619 0.960 . S
C607 H599 0.929 . S
C607 C608 1.377 . S
C607 C609 1.384 . S
C608 C607 1.377 . S
C608 C614 1.390 . S
C609 H600 0.930 . S
C609 C607 1.384 . S
C609 C610 1.372 . S
C610 C609 1.372 . S
C610 C611 1.400 . S
C610 C615 1.490 . S
C611 H601 0.930 . S
C611 C610 1.400 . S
C611 C614 1.386 . S
H612 C628 0.930 . S
H613 C629 0.931 . S
C614 H602 0.929 . S
C614 C608 1.390 . S
C614 C611 1.386 . S
C615 C610 1.490 . S
C615 C617 1.395 . S
C615 C618 1.403 . S
H616 C622 0.930 . S
C617 H603 0.930 . S
C617 C615 1.395 . S
C617 C620 1.403 . S
C618 C615 1.403 . S
C618 C619 1.524 . S
C618 C622 1.400 . S
C619 H604 0.960 . S
C619 H605 0.960 . S
C619 H606 0.960 . S
C619 C618 1.524 . S
C620 C617 1.403 . S
C620 C621 1.392 . S
C620 C624 1.495 . S
C621 C620 1.392 . S
C621 C622 1.385 . S
C621 C623 1.478 . S
C622 H616 0.930 . S
C622 C618 1.400 . S
C622 C621 1.385 . S
C623 C621 1.478 . S
C623 C625 1.381 . S
C623 C629 1.383 . S
C624 C620 1.495 . S
C624 H630 0.959 . S
C624 H631 0.961 . S
C624 H632 0.960 . S
C625 C623 1.381 . S
C625 C626 1.394 . S
C625 H633 0.930 . S
C626 C625 1.394 . S
C626 C627 1.383 . S
C626 H634 0.929 . S
C627 C626 1.383 . S
C627 C628 1.377 . S
C628 H612 0.930 . S
C628 C627 1.377 . S
C628 C629 1.379 . S
C629 H613 0.931 . S
C629 C623 1.383 . S
C629 C628 1.379 . S
H630 C624 0.959 . S
H631 C624 0.961 . S
H632 C624 0.960 . S
H633 C625 0.930 . S
H634 C626 0.929 . S
H635 C643 0.929 . S
H636 C645 0.930 . S
H637 C647 0.930 . S
H638 C650 0.929 . S
H639 C653 0.930 . S
H640 C655 0.960 . S
H641 C655 0.960 . S
H642 C655 0.960 . S
C643 H635 0.929 . S
C643 C644 1.377 . S
C643 C645 1.384 . S
C644 C643 1.377 . S
C644 C650 1.390 . S
C645 H636 0.930 . S
C645 C643 1.384 . S
C645 C646 1.372 . S
C646 C645 1.372 . S
C646 C647 1.400 . S
C646 C651 1.490 . S
C647 H637 0.930 . S
C647 C646 1.400 . S
C647 C650 1.386 . S
H648 C664 0.930 . S
H649 C665 0.931 . S
C650 H638 0.929 . S
C650 C644 1.390 . S
C650 C647 1.386 . S
C651 C646 1.490 . S
C651 C653 1.395 . S
C651 C654 1.403 . S
H652 C658 0.930 . S
C653 H639 0.930 . S
C653 C651 1.395 . S
C653 C656 1.403 . S
C654 C651 1.403 . S
C654 C655 1.524 . S
C654 C658 1.400 . S
C655 H640 0.960 . S
C655 H641 0.960 . S
C655 H642 0.960 . S
C655 C654 1.524 . S
C656 C653 1.403 . S
C656 C657 1.392 . S
C656 C660 1.495 . S
C657 C656 1.392 . S
C657 C658 1.385 . S
C657 C659 1.478 . S
C658 H652 0.930 . S
C658 C654 1.400 . S
C658 C657 1.385 . S
C659 C657 1.478 . S
C659 C661 1.381 . S
C659 C665 1.383 . S
C660 C656 1.495 . S
C660 H666 0.959 . S
C660 H667 0.961 . S
C660 H668 0.960 . S
C661 C659 1.381 . S
C661 C662 1.394 . S
C661 H669 0.930 . S
C662 C661 1.394 . S
C662 C663 1.383 . S
C662 H670 0.929 . S
C663 C662 1.383 . S
C663 C664 1.377 . S
C664 H648 0.930 . S
C664 C663 1.377 . S
C664 C665 1.379 . S
C665 H649 0.931 . S
C665 C659 1.383 . S
C665 C664 1.379 . S
H666 C660 0.959 . S
H667 C660 0.961 . S
H668 C660 0.960 . S
H669 C661 0.930 . S
H670 C662 0.929 . S
H671 C679 0.929 . S
H672 C681 0.930 . S
H673 C683 0.930 . S
H674 C686 0.929 . S
H675 C689 0.930 . S
H676 C691 0.960 . S
H677 C691 0.960 . S
H678 C691 0.960 . S
C679 H671 0.929 . S
C679 C680 1.377 . S
C679 C681 1.384 . S
C680 C679 1.377 . S
C680 C686 1.390 . S
C681 H672 0.930 . S
C681 C679 1.384 . S
C681 C682 1.372 . S
C682 C681 1.372 . S
C682 C683 1.400 . S
C682 C687 1.490 . S
C683 H673 0.930 . S
C683 C682 1.400 . S
C683 C686 1.386 . S
H684 C700 0.930 . S
H685 C701 0.931 . S
C686 H674 0.929 . S
C686 C680 1.390 . S
C686 C683 1.386 . S
C687 C682 1.490 . S
C687 C689 1.395 . S
C687 C690 1.403 . S
H688 C694 0.930 . S
C689 H675 0.930 . S
C689 C687 1.395 . S
C689 C692 1.403 . S
C690 C687 1.403 . S
C690 C691 1.524 . S
C690 C694 1.400 . S
C691 H676 0.960 . S
C691 H677 0.960 . S
C691 H678 0.960 . S
C691 C690 1.524 . S
C692 C689 1.403 . S
C692 C693 1.392 . S
C692 C696 1.495 . S
C693 C692 1.392 . S
C693 C694 1.385 . S
C693 C695 1.478 . S
C694 H688 0.930 . S
C694 C690 1.400 . S
C694 C693 1.385 . S
C695 C693 1.478 . S
C695 C697 1.381 . S
C695 C701 1.383 . S
C696 C692 1.495 . S
C696 H702 0.959 . S
C696 H703 0.961 . S
C696 H704 0.960 . S
C697 C695 1.381 . S
C697 C698 1.394 . S
C697 H705 0.930 . S
C698 C697 1.394 . S
C698 C699 1.383 . S
C698 H706 0.929 . S
C699 C698 1.383 . S
C699 C700 1.377 . S
C700 H684 0.930 . S
C700 C699 1.377 . S
C700 C701 1.379 . S
C701 H685 0.931 . S
C701 C695 1.383 . S
C701 C700 1.379 . S
H702 C696 0.959 . S
H703 C696 0.961 . S
H704 C696 0.960 . S
H705 C697 0.930 . S
H706 C698 0.929 . S
H707 C715 0.929 . S
H708 C717 0.930 . S
H709 C719 0.930 . S
H710 C722 0.929 . S
H711 C725 0.930 . S
H712 C727 0.960 . S
H713 C727 0.960 . S
H714 C727 0.960 . S
C715 H707 0.929 . S
C715 C716 1.377 . S
C715 C717 1.384 . S
C716 C715 1.377 . S
C716 C722 1.390 . S
C717 H708 0.930 . S
C717 C715 1.384 . S
C717 C718 1.372 . S
C718 C717 1.372 . S
C718 C719 1.400 . S
C718 C723 1.490 . S
C719 H709 0.930 . S
C719 C718 1.400 . S
C719 C722 1.386 . S
H720 C736 0.930 . S
H721 C737 0.931 . S
C722 H710 0.929 . S
C722 C716 1.390 . S
C722 C719 1.386 . S
C723 C718 1.490 . S
C723 C725 1.395 . S
C723 C726 1.403 . S
H724 C730 0.930 . S
C725 H711 0.930 . S
C725 C723 1.395 . S
C725 C728 1.403 . S
C726 C723 1.403 . S
C726 C727 1.524 . S
C726 C730 1.400 . S
C727 H712 0.960 . S
C727 H713 0.960 . S
C727 H714 0.960 . S
C727 C726 1.524 . S
C728 C725 1.403 . S
C728 C729 1.392 . S
C728 C732 1.495 . S
C729 C728 1.392 . S
C729 C730 1.385 . S
C729 C731 1.478 . S
C730 H724 0.930 . S
C730 C726 1.400 . S
C730 C729 1.385 . S
C731 C729 1.478 . S
C731 C733 1.381 . S
C731 C737 1.383 . S
C732 C728 1.495 . S
C732 H738 0.959 . S
C732 H739 0.961 . S
C732 H740 0.960 . S
C733 C731 1.381 . S
C733 C734 1.394 . S
C733 H741 0.930 . S
C734 C733 1.394 . S
C734 C735 1.383 . S
C734 H742 0.929 . S
C735 C734 1.383 . S
C735 C736 1.377 . S
C736 H720 0.930 . S
C736 C735 1.377 . S
C736 C737 1.379 . S
C737 H721 0.931 . S
C737 C731 1.383 . S
C737 C736 1.379 . S
H738 C732 0.959 . S
H739 C732 0.961 . S
H740 C732 0.960 . S
H741 C733 0.930 . S
H742 C734 0.929 . S
H743 C751 0.929 . S
H744 C753 0.930 . S
H745 C755 0.930 . S
H746 C758 0.929 . S
H747 C761 0.930 . S
H748 C763 0.960 . S
H749 C763 0.960 . S
H750 C763 0.960 . S
C751 H743 0.929 . S
C751 C752 1.377 . S
C751 C753 1.384 . S
C752 C751 1.377 . S
C752 C758 1.390 . S
C753 H744 0.930 . S
C753 C751 1.384 . S
C753 C754 1.372 . S
C754 C753 1.372 . S
C754 C755 1.400 . S
C754 C759 1.490 . S
C755 H745 0.930 . S
C755 C754 1.400 . S
C755 C758 1.386 . S
H756 C772 0.930 . S
H757 C773 0.931 . S
C758 H746 0.929 . S
C758 C752 1.390 . S
C758 C755 1.386 . S
C759 C754 1.490 . S
C759 C761 1.395 . S
C759 C762 1.403 . S
H760 C766 0.930 . S
C761 H747 0.930 . S
C761 C759 1.395 . S
C761 C764 1.403 . S
C762 C759 1.403 . S
C762 C763 1.524 . S
C762 C766 1.400 . S
C763 H748 0.960 . S
C763 H749 0.960 . S
C763 H750 0.960 . S
C763 C762 1.524 . S
C764 C761 1.403 . S
C764 C765 1.392 . S
C764 C768 1.495 . S
C765 C764 1.392 . S
C765 C766 1.385 . S
C765 C767 1.478 . S
C766 H760 0.930 . S
C766 C762 1.400 . S
C766 C765 1.385 . S
C767 C765 1.478 . S
C767 C769 1.381 . S
C767 C773 1.383 . S
C768 C764 1.495 . S
C768 H774 0.959 . S
C768 H775 0.961 . S
C768 H776 0.960 . S
C769 C767 1.381 . S
C769 C770 1.394 . S
C769 H777 0.930 . S
C770 C769 1.394 . S
C770 C771 1.383 . S
C770 H778 0.929 . S
C771 C770 1.383 . S
C771 C772 1.377 . S
C772 H756 0.930 . S
C772 C771 1.377 . S
C772 C773 1.379 . S
C773 H757 0.931 . S
C773 C767 1.383 . S
C773 C772 1.379 . S
H774 C768 0.959 . S
H775 C768 0.961 . S
H776 C768 0.960 . S
H777 C769 0.930 . S
H778 C770 0.929 . S
H779 C787 0.929 . S
H780 C789 0.930 . S
H781 C791 0.930 . S
H782 C794 0.929 . S
H783 C797 0.930 . S
H784 C799 0.960 . S
H785 C799 0.960 . S
H786 C799 0.960 . S
C787 H779 0.929 . S
C787 C788 1.377 . S
C787 C789 1.384 . S
C788 C787 1.377 . S
C788 C794 1.390 . S
C789 H780 0.930 . S
C789 C787 1.384 . S
C789 C790 1.372 . S
C790 C789 1.372 . S
C790 C791 1.400 . S
C790 C795 1.490 . S
C791 H781 0.930 . S
C791 C790 1.400 . S
C791 C794 1.386 . S
H792 C808 0.930 . S
H793 C809 0.931 . S
C794 H782 0.929 . S
C794 C788 1.390 . S
C794 C791 1.386 . S
C795 C790 1.490 . S
C795 C797 1.395 . S
C795 C798 1.403 . S
H796 C802 0.930 . S
C797 H783 0.930 . S
C797 C795 1.395 . S
C797 C800 1.403 . S
C798 C795 1.403 . S
C798 C799 1.524 . S
C798 C802 1.400 . S
C799 H784 0.960 . S
C799 H785 0.960 . S
C799 H786 0.960 . S
C799 C798 1.524 . S
C800 C797 1.403 . S
C800 C801 1.392 . S
C800 C804 1.495 . S
C801 C800 1.392 . S
C801 C802 1.385 . S
C801 C803 1.478 . S
C802 H796 0.930 . S
C802 C798 1.400 . S
C802 C801 1.385 . S
C803 C801 1.478 . S
C803 C805 1.381 . S
C803 C809 1.383 . S
C804 C800 1.495 . S
C804 H810 0.959 . S
C804 H811 0.961 . S
C804 H812 0.960 . S
C805 C803 1.381 . S
C805 C806 1.394 . S
C805 H813 0.930 . S
C806 C805 1.394 . S
C806 C807 1.383 . S
C806 H814 0.929 . S
C807 C806 1.383 . S
C807 C808 1.377 . S
C808 H792 0.930 . S
C808 C807 1.377 . S
C808 C809 1.379 . S
C809 H793 0.931 . S
C809 C803 1.383 . S
C809 C808 1.379 . S
H810 C804 0.959 . S
H811 C804 0.961 . S
H812 C804 0.960 . S
H813 C805 0.930 . S
H814 C806 0.929 . S
H815 C823 0.929 . S
H816 C825 0.930 . S
H817 C827 0.930 . S
H818 C830 0.929 . S
H819 C833 0.930 . S
H820 C835 0.960 . S
H821 C835 0.960 . S
H822 C835 0.960 . S
C823 H815 0.929 . S
C823 C824 1.377 . S
C823 C825 1.384 . S
C824 C823 1.377 . S
C824 C830 1.390 . S
C825 H816 0.930 . S
C825 C823 1.384 . S
C825 C826 1.372 . S
C826 C825 1.372 . S
C826 C827 1.400 . S
C826 C831 1.490 . S
C827 H817 0.930 . S
C827 C826 1.400 . S
C827 C830 1.386 . S
H828 C844 0.930 . S
H829 C845 0.931 . S
C830 H818 0.929 . S
C830 C824 1.390 . S
C830 C827 1.386 . S
C831 C826 1.490 . S
C831 C833 1.395 . S
C831 C834 1.403 . S
H832 C838 0.930 . S
C833 H819 0.930 . S
C833 C831 1.395 . S
C833 C836 1.403 . S
C834 C831 1.403 . S
C834 C835 1.524 . S
C834 C838 1.400 . S
C835 H820 0.960 . S
C835 H821 0.960 . S
C835 H822 0.960 . S
C835 C834 1.524 . S
C836 C833 1.403 . S
C836 C837 1.392 . S
C836 C840 1.495 . S
C837 C836 1.392 . S
C837 C838 1.385 . S
C837 C839 1.478 . S
C838 H832 0.930 . S
C838 C834 1.400 . S
C838 C837 1.385 . S
C839 C837 1.478 . S
C839 C841 1.381 . S
C839 C845 1.383 . S
C840 C836 1.495 . S
C840 H846 0.959 . S
C840 H847 0.961 . S
C840 H848 0.960 . S
C841 C839 1.381 . S
C841 C842 1.394 . S
C841 H849 0.930 . S
C842 C841 1.394 . S
C842 C843 1.383 . S
C842 H850 0.929 . S
C843 C842 1.383 . S
C843 C844 1.377 . S
C844 H828 0.930 . S
C844 C843 1.377 . S
C844 C845 1.379 . S
C845 H829 0.931 . S
C845 C839 1.383 . S
C845 C844 1.379 . S
H846 C840 0.959 . S
H847 C840 0.961 . S
H848 C840 0.960 . S
H849 C841 0.930 . S
H850 C842 0.929 . S
H851 C859 0.929 . S
H852 C861 0.930 . S
H853 C863 0.930 . S
H854 C866 0.929 . S
H855 C869 0.930 . S
H856 C871 0.960 . S
H857 C871 0.960 . S
H858 C871 0.960 . S
C859 H851 0.929 . S
C859 C860 1.377 . S
C859 C861 1.384 . S
C860 C859 1.377 . S
C860 C866 1.390 . S
C861 H852 0.930 . S
C861 C859 1.384 . S
C861 C862 1.372 . S
C862 C861 1.372 . S
C862 C863 1.400 . S
C862 C867 1.490 . S
C863 H853 0.930 . S
C863 C862 1.400 . S
C863 C866 1.386 . S
H864 C880 0.930 . S
H865 C881 0.931 . S
C866 H854 0.929 . S
C866 C860 1.390 . S
C866 C863 1.386 . S
C867 C862 1.490 . S
C867 C869 1.395 . S
C867 C870 1.403 . S
H868 C874 0.930 . S
C869 H855 0.930 . S
C869 C867 1.395 . S
C869 C872 1.403 . S
C870 C867 1.403 . S
C870 C871 1.524 . S
C870 C874 1.400 . S
C871 H856 0.960 . S
C871 H857 0.960 . S
C871 H858 0.960 . S
C871 C870 1.524 . S
C872 C869 1.403 . S
C872 C873 1.392 . S
C872 C876 1.495 . S
C873 C872 1.392 . S
C873 C874 1.385 . S
C873 C875 1.478 . S
C874 H868 0.930 . S
C874 C870 1.400 . S
C874 C873 1.385 . S
C875 C873 1.478 . S
C875 C877 1.381 . S
C875 C881 1.383 . S
C876 C872 1.495 . S
C876 H882 0.959 . S
C876 H883 0.961 . S
C876 H884 0.960 . S
C877 C875 1.381 . S
C877 C878 1.394 . S
C877 H885 0.930 . S
C878 C877 1.394 . S
C878 C879 1.383 . S
C878 H886 0.929 . S
C879 C878 1.383 . S
C879 C880 1.377 . S
C880 H864 0.930 . S
C880 C879 1.377 . S
C880 C881 1.379 . S
C881 H865 0.931 . S
C881 C875 1.383 . S
C881 C880 1.379 . S
H882 C876 0.959 . S
H883 C876 0.961 . S
H884 C876 0.960 . S
H885 C877 0.930 . S
H886 C878 0.929 . S
H887 C895 0.929 . S
H888 C897 0.930 . S
H889 C899 0.930 . S
H890 C902 0.929 . S
H891 C905 0.930 . S
H892 C907 0.960 . S
H893 C907 0.960 . S
H894 C907 0.960 . S
C895 H887 0.929 . S
C895 C896 1.377 . S
C895 C897 1.384 . S
C896 C895 1.377 . S
C896 C902 1.390 . S
C897 H888 0.930 . S
C897 C895 1.384 . S
C897 C898 1.372 . S
C898 C897 1.372 . S
C898 C899 1.400 . S
C898 C903 1.490 . S
C899 H889 0.930 . S
C899 C898 1.400 . S
C899 C902 1.386 . S
H900 C916 0.930 . S
H901 C917 0.931 . S
C902 H890 0.929 . S
C902 C896 1.390 . S
C902 C899 1.386 . S
C903 C898 1.490 . S
C903 C905 1.395 . S
C903 C906 1.403 . S
H904 C910 0.930 . S
C905 H891 0.930 . S
C905 C903 1.395 . S
C905 C908 1.403 . S
C906 C903 1.403 . S
C906 C907 1.524 . S
C906 C910 1.400 . S
C907 H892 0.960 . S
C907 H893 0.960 . S
C907 H894 0.960 . S
C907 C906 1.524 . S
C908 C905 1.403 . S
C908 C909 1.392 . S
C908 C912 1.495 . S
C909 C908 1.392 . S
C909 C910 1.385 . S
C909 C911 1.478 . S
C910 H904 0.930 . S
C910 C906 1.400 . S
C910 C909 1.385 . S
C911 C909 1.478 . S
C911 C913 1.381 . S
C911 C917 1.383 . S
C912 C908 1.495 . S
C912 H918 0.959 . S
C912 H919 0.961 . S
C912 H920 0.960 . S
C913 C911 1.381 . S
C913 C914 1.394 . S
C913 H921 0.930 . S
C914 C913 1.394 . S
C914 C915 1.383 . S
C914 H922 0.929 . S
C915 C914 1.383 . S
C915 C916 1.377 . S
C916 H900 0.930 . S
C916 C915 1.377 . S
C916 C917 1.379 . S
C917 H901 0.931 . S
C917 C911 1.383 . S
C917 C916 1.379 . S
H918 C912 0.959 . S
H919 C912 0.961 . S
H920 C912 0.960 . S
H921 C913 0.930 . S
H922 C914 0.929 . S
H923 C931 0.929 . S
H924 C933 0.930 . S
H925 C935 0.930 . S
H926 C938 0.929 . S
H927 C941 0.930 . S
H928 C943 0.960 . S
H929 C943 0.960 . S
H930 C943 0.960 . S
C931 H923 0.929 . S
C931 C932 1.377 . S
C931 C933 1.384 . S
C932 C931 1.377 . S
C932 C938 1.390 . S
C933 H924 0.930 . S
C933 C931 1.384 . S
C933 C934 1.372 . S
C934 C933 1.372 . S
C934 C935 1.400 . S
C934 C939 1.490 . S
C935 H925 0.930 . S
C935 C934 1.400 . S
C935 C938 1.386 . S
H936 C952 0.930 . S
H937 C953 0.931 . S
C938 H926 0.929 . S
C938 C932 1.390 . S
C938 C935 1.386 . S
C939 C934 1.490 . S
C939 C941 1.395 . S
C939 C942 1.403 . S
H940 C946 0.930 . S
C941 H927 0.930 . S
C941 C939 1.395 . S
C941 C944 1.403 . S
C942 C939 1.403 . S
C942 C943 1.524 . S
C942 C946 1.400 . S
C943 H928 0.960 . S
C943 H929 0.960 . S
C943 H930 0.960 . S
C943 C942 1.524 . S
C944 C941 1.403 . S
C944 C945 1.392 . S
C944 C948 1.495 . S
C945 C944 1.392 . S
C945 C946 1.385 . S
C945 C947 1.478 . S
C946 H940 0.930 . S
C946 C942 1.400 . S
C946 C945 1.385 . S
C947 C945 1.478 . S
C947 C949 1.381 . S
C947 C953 1.383 . S
C948 C944 1.495 . S
C948 H954 0.959 . S
C948 H955 0.961 . S
C948 H956 0.960 . S
C949 C947 1.381 . S
C949 C950 1.394 . S
C949 H957 0.930 . S
C950 C949 1.394 . S
C950 C951 1.383 . S
C950 H958 0.929 . S
C951 C950 1.383 . S
C951 C952 1.377 . S
C952 H936 0.930 . S
C952 C951 1.377 . S
C952 C953 1.379 . S
C953 H937 0.931 . S
C953 C947 1.383 . S
C953 C952 1.379 . S
H954 C948 0.959 . S
H955 C948 0.961 . S
H956 C948 0.960 . S
H957 C949 0.930 . S
H958 C950 0.929 . S
H959 C967 0.929 . S
H960 C969 0.930 . S
H961 C971 0.930 . S
H962 C974 0.929 . S
H963 C977 0.930 . S
H964 C979 0.960 . S
H965 C979 0.960 . S
H966 C979 0.960 . S
C967 H959 0.929 . S
C967 C968 1.377 . S
C967 C969 1.384 . S
C968 C967 1.377 . S
C968 C974 1.390 . S
C969 H960 0.930 . S
C969 C967 1.384 . S
C969 C970 1.372 . S
C970 C969 1.372 . S
C970 C971 1.400 . S
C970 C975 1.490 . S
C971 H961 0.930 . S
C971 C970 1.400 . S
C971 C974 1.386 . S
H972 C988 0.930 . S
H973 C989 0.931 . S
C974 H962 0.929 . S
C974 C968 1.390 . S
C974 C971 1.386 . S
C975 C970 1.490 . S
C975 C977 1.395 . S
C975 C978 1.403 . S
H976 C982 0.930 . S
C977 H963 0.930 . S
C977 C975 1.395 . S
C977 C980 1.403 . S
C978 C975 1.403 . S
C978 C979 1.524 . S
C978 C982 1.400 . S
C979 H964 0.960 . S
C979 H965 0.960 . S
C979 H966 0.960 . S
C979 C978 1.524 . S
C980 C977 1.403 . S
C980 C981 1.392 . S
C980 C984 1.495 . S
C981 C980 1.392 . S
C981 C982 1.385 . S
C981 C983 1.478 . S
C982 H976 0.930 . S
C982 C978 1.400 . S
C982 C981 1.385 . S
C983 C981 1.478 . S
C983 C985 1.381 . S
C983 C989 1.383 . S
C984 C980 1.495 . S
C984 H990 0.959 . S
C984 H991 0.961 . S
C984 H992 0.960 . S
C985 C983 1.381 . S
C985 C986 1.394 . S
C985 H993 0.930 . S
C986 C985 1.394 . S
C986 C987 1.383 . S
C986 H994 0.929 . S
C987 C986 1.383 . S
C987 C988 1.377 . S
C988 H972 0.930 . S
C988 C987 1.377 . S
C988 C989 1.379 . S
C989 H973 0.931 . S
C989 C983 1.383 . S
C989 C988 1.379 . S
H990 C984 0.959 . S
H991 C984 0.961 . S
H992 C984 0.960 . S
H993 C985 0.930 . S
H994 C986 0.929 . S
H995 C1003 0.929 . S
H996 C1005 0.930 . S
H997 C1007 0.930 . S
H998 C1010 0.929 . S
H999 C1013 0.930 . S
H1000 C1015 0.960 . S
H1001 C1015 0.960 . S
H1002 C1015 0.960 . S
C1003 H995 0.929 . S
C1003 C1004 1.377 . S
C1003 C1005 1.384 . S
C1004 C1003 1.377 . S
C1004 C1010 1.390 . S
C1005 H996 0.930 . S
C1005 C1003 1.384 . S
C1005 C1006 1.372 . S
C1006 C1005 1.372 . S
C1006 C1007 1.400 . S
C1006 C1011 1.490 . S
C1007 H997 0.930 . S
C1007 C1006 1.400 . S
C1007 C1010 1.386 . S
H1008 C1024 0.930 . S
H1009 C1025 0.931 . S
C1010 H998 0.929 . S
C1010 C1004 1.390 . S
C1010 C1007 1.386 . S
C1011 C1006 1.490 . S
C1011 C1013 1.395 . S
C1011 C1014 1.403 . S
H1012 C1018 0.930 . S
C1013 H999 0.930 . S
C1013 C1011 1.395 . S
C1013 C1016 1.403 . S
C1014 C1011 1.403 . S
C1014 C1015 1.524 . S
C1014 C1018 1.400 . S
C1015 H1000 0.960 . S
C1015 H1001 0.960 . S
C1015 H1002 0.960 . S
C1015 C1014 1.524 . S
C1016 C1013 1.403 . S
C1016 C1017 1.392 . S
C1016 C1020 1.495 . S
C1017 C1016 1.392 . S
C1017 C1018 1.385 . S
C1017 C1019 1.478 . S
C1018 H1012 0.930 . S
C1018 C1014 1.400 . S
C1018 C1017 1.385 . S
C1019 C1017 1.478 . S
C1019 C1021 1.381 . S
C1019 C1025 1.383 . S
C1020 C1016 1.495 . S
C1020 H1026 0.959 . S
C1020 H1027 0.961 . S
C1020 H1028 0.960 . S
C1021 C1019 1.381 . S
C1021 C1022 1.394 . S
C1021 H1029 0.930 . S
C1022 C1021 1.394 . S
C1022 C1023 1.383 . S
C1022 H1030 0.929 . S
C1023 C1022 1.383 . S
C1023 C1024 1.377 . S
C1024 H1008 0.930 . S
C1024 C1023 1.377 . S
C1024 C1025 1.379 . S
C1025 H1009 0.931 . S
C1025 C1019 1.383 . S
C1025 C1024 1.379 . S
H1026 C1020 0.959 . S
H1027 C1020 0.961 . S
H1028 C1020 0.960 . S
H1029 C1021 0.930 . S
H1030 C1022 0.929 . S
H1031 C1039 0.929 . S
H1032 C1041 0.930 . S
H1033 C1043 0.930 . S
H1034 C1046 0.929 . S
H1035 C1049 0.930 . S
H1036 C1051 0.960 . S
H1037 C1051 0.960 . S
H1038 C1051 0.960 . S
C1039 H1031 0.929 . S
C1039 C1040 1.377 . S
C1039 C1041 1.384 . S
C1040 C1039 1.377 . S
C1040 C1046 1.390 . S
C1041 H1032 0.930 . S
C1041 C1039 1.384 . S
C1041 C1042 1.372 . S
C1042 C1041 1.372 . S
C1042 C1043 1.400 . S
C1042 C1047 1.490 . S
C1043 H1033 0.930 . S
C1043 C1042 1.400 . S
C1043 C1046 1.386 . S
H1044 C1060 0.930 . S
H1045 C1061 0.931 . S
C1046 H1034 0.929 . S
C1046 C1040 1.390 . S
C1046 C1043 1.386 . S
C1047 C1042 1.490 . S
C1047 C1049 1.395 . S
C1047 C1050 1.403 . S
H1048 C1054 0.930 . S
C1049 H1035 0.930 . S
C1049 C1047 1.395 . S
C1049 C1052 1.403 . S
C1050 C1047 1.403 . S
C1050 C1051 1.524 . S
C1050 C1054 1.400 . S
C1051 H1036 0.960 . S
C1051 H1037 0.960 . S
C1051 H1038 0.960 . S
C1051 C1050 1.524 . S
C1052 C1049 1.403 . S
C1052 C1053 1.392 . S
C1052 C1056 1.495 . S
C1053 C1052 1.392 . S
C1053 C1054 1.385 . S
C1053 C1055 1.478 . S
C1054 H1048 0.930 . S
C1054 C1050 1.400 . S
C1054 C1053 1.385 . S
C1055 C1053 1.478 . S
C1055 C1057 1.381 . S
C1055 C1061 1.383 . S
C1056 C1052 1.495 . S
C1056 H1062 0.959 . S
C1056 H1063 0.961 . S
C1056 H1064 0.960 . S
C1057 C1055 1.381 . S
C1057 C1058 1.394 . S
C1057 H1065 0.930 . S
C1058 C1057 1.394 . S
C1058 C1059 1.383 . S
C1058 H1066 0.929 . S
C1059 C1058 1.383 . S
C1059 C1060 1.377 . S
C1060 H1044 0.930 . S
C1060 C1059 1.377 . S
C1060 C1061 1.379 . S
C1061 H1045 0.931 . S
C1061 C1055 1.383 . S
C1061 C1060 1.379 . S
H1062 C1056 0.959 . S
H1063 C1056 0.961 . S
H1064 C1056 0.960 . S
H1065 C1057 0.930 . S
H1066 C1058 0.929 . S
C231 C128 1.393 . S
C212 C9 1.468 . S
C267 C164 2.108 . S
C248 C22 2.216 . S
C303 C129 1.372 . S
C284 C30 1.350 . S
C339 C159 1.032 . S
C320 C47 1.073 . S
C375 C126 0.986 . S
C356 C61 1.060 . S
C392 C69 1.276 . S
C411 C162 1.331 . S
C428 C82 0.771 . S
C447 C131 0.807 . S
C483 C161 1.749 . S
C464 C99 1.784 . S
C519 C165 1.339 . S
C500 C4 1.422 . S
C555 C130 1.737 . S
C536 C21 1.787 . S
C591 C158 2.029 . S
C572 C34 2.032 . S
C627 C127 0.631 . S
C608 C48 0.601 . S
C663 C160 1.206 . S
C644 C60 1.289 . S
C680 C74 1.606 . S
C699 C125 1.619 . S
C716 C86 1.512 . S
C735 C163 1.418 . S
C771 C132 1.153 . S
C752 C95 1.163 . S
C807 C194 2.010 . S
C788 C8 2.113 . S
C824 C56 1.119 . S
C843 C197 1.054 . S
C879 C196 1.613 . S
C860 C73 1.695 . S
C896 C87 2.382 . S
C915 C195 2.355 . S
C951 C198 2.062 . S
C932 C100 2.141 . S
C968 C35 2.219 . S
C987 C192 2.148 . S
C1023 C191 1.233 . S
C1004 C43 1.245 . S
C1040 C17 1.931 . S
C1059 C193 1.904 . S
