# Generated by pormake.
# Topology apo, (3,6)-cn, num edge types: 1
# Building blocks:
#     Node 0, Type 0, BuildingBlock: KAKCAD_clean_linker_0, # of connection points: 3
#     Node 1, Type 0, BuildingBlock: KAKCAD_clean_linker_0, # of connection points: 3
#     Node 2, Type 0, BuildingBlock: KAKCAD_clean_linker_0, # of connection points: 3
#     Node 3, Type 0, BuildingBlock: KAKCAD_clean_linker_0, # of connection points: 3
#     Node 4, Type 0, BuildingBlock: KAKCAD_clean_linker_0, # of connection points: 3
#     Node 5, Type 0, BuildingBlock: KAKCAD_clean_linker_0, # of connection points: 3
#     Node 6, Type 0, BuildingBlock: KAKCAD_clean_linker_0, # of connection points: 3
#     Node 7, Type 0, BuildingBlock: KAKCAD_clean_linker_0, # of connection points: 3
#     Node 8, Type 1, BuildingBlock: KUMBUR_clean_sbu_1, # of connection points: 6
#     Node 9, Type 1, BuildingBlock: KUMBUR_clean_sbu_1, # of connection points: 6
#     Node 10, Type 1, BuildingBlock: KUMBUR_clean_sbu_1, # of connection points: 6
#     Node 11, Type 1, BuildingBlock: KUMBUR_clean_sbu_1, # of connection points: 6
#     Edge 12, Type (0, 1), BuildingBlock: XIVTED_clean_linker_0, # of connection points: 2
#     Edge 13, Type (0, 1), BuildingBlock: XIVTED_clean_linker_0, # of connection points: 2
#     Edge 14, Type (0, 1), BuildingBlock: XIVTED_clean_linker_0, # of connection points: 2
#     Edge 15, Type (0, 1), BuildingBlock: XIVTED_clean_linker_0, # of connection points: 2
#     Edge 16, Type (0, 1), BuildingBlock: XIVTED_clean_linker_0, # of connection points: 2
#     Edge 17, Type (0, 1), BuildingBlock: XIVTED_clean_linker_0, # of connection points: 2
#     Edge 18, Type (0, 1), BuildingBlock: XIVTED_clean_linker_0, # of connection points: 2
#     Edge 19, Type (0, 1), BuildingBlock: XIVTED_clean_linker_0, # of connection points: 2
#     Edge 20, Type (0, 1), BuildingBlock: XIVTED_clean_linker_0, # of connection points: 2
#     Edge 21, Type (0, 1), BuildingBlock: XIVTED_clean_linker_0, # of connection points: 2
#     Edge 22, Type (0, 1), BuildingBlock: XIVTED_clean_linker_0, # of connection points: 2
#     Edge 23, Type (0, 1), BuildingBlock: XIVTED_clean_linker_0, # of connection points: 2
#     Edge 24, Type (0, 1), BuildingBlock: XIVTED_clean_linker_0, # of connection points: 2
#     Edge 25, Type (0, 1), BuildingBlock: XIVTED_clean_linker_0, # of connection points: 2
#     Edge 26, Type (0, 1), BuildingBlock: XIVTED_clean_linker_0, # of connection points: 2
#     Edge 27, Type (0, 1), BuildingBlock: XIVTED_clean_linker_0, # of connection points: 2
#     Edge 28, Type (0, 1), BuildingBlock: XIVTED_clean_linker_0, # of connection points: 2
#     Edge 29, Type (0, 1), BuildingBlock: XIVTED_clean_linker_0, # of connection points: 2
#     Edge 30, Type (0, 1), BuildingBlock: XIVTED_clean_linker_0, # of connection points: 2
#     Edge 31, Type (0, 1), BuildingBlock: XIVTED_clean_linker_0, # of connection points: 2
#     Edge 32, Type (0, 1), BuildingBlock: XIVTED_clean_linker_0, # of connection points: 2
#     Edge 33, Type (0, 1), BuildingBlock: XIVTED_clean_linker_0, # of connection points: 2
#     Edge 34, Type (0, 1), BuildingBlock: XIVTED_clean_linker_0, # of connection points: 2
#     Edge 35, Type (0, 1), BuildingBlock: XIVTED_clean_linker_0, # of connection points: 2
# Relax obj value: 0.009
# Max RMSD: 0.098
# Mean RMSD: 0.076
data_MOF--net-apo--node1-KUMBUR_clean_sbu_1--node2-KAKCAD_clean_linker_0--edge1-XIVTED_clean_linker_0
_symmetry_space_group_name_H-M    P1
_symmetry_Int_Tables_number       1
_symmetry_cell_setting            triclinic
loop_
_symmetry_equiv_pos_as_xyz
'x, y, z'
_cell_length_a     29.436818
_cell_length_b     52.60031
_cell_length_c     64.163046
_cell_angle_alpha  89.930555
_cell_angle_beta   90.007868
_cell_angle_gamma 90.486759
loop_
_atom_site_label
_atom_site_type_symbol
_atom_site_fract_x
_atom_site_fract_y
_atom_site_fract_z
_atom_type_partial_charge
C0 C 0.30967 0.45416 0.36235 0.0
C1 C 0.3526 0.46458 0.36694 0.0
C2 C 0.2926 0.43359 0.3738 0.0
C3 C 0.31825 0.4228 0.39001 0.0
C4 C 0.36109 0.43342 0.3947 0.0
C5 C 0.37797 0.45415 0.38335 0.0
C6 C 0.3006 0.40037 0.40178 0.0
C7 C 0.27643 0.38099 0.39143 0.0
C8 C 0.25918 0.35982 0.40234 0.0
C9 C 0.26713 0.35795 0.4239 0.0
C10 C 0.29154 0.37704 0.43456 0.0
C11 C 0.30783 0.39823 0.42336 0.0
C12 C 0.29941 0.3752 0.45745 0.0
C13 C 0.26473 0.36659 0.47082 0.0
C14 C 0.34141 0.38251 0.46615 0.0
C15 C 0.34835 0.38155 0.48771 0.0
C16 C 0.31344 0.37325 0.5011 0.0
C17 C 0.23307 0.33974 0.39105 0.0
C18 C 0.20146 0.34635 0.37556 0.0
C19 C 0.24008 0.31385 0.39535 0.0
C20 C 0.2166 0.29505 0.38419 0.0
C21 C 0.18552 0.30167 0.36846 0.0
C22 C 0.17803 0.32757 0.3644 0.0
C23 C 0.27168 0.36559 0.49236 0.0
H24 H 0.28907 0.46204 0.34997 0.0
H25 H 0.25911 0.42627 0.37003 0.0
H26 H 0.38208 0.42539 0.40686 0.0
H27 H 0.4114 0.46162 0.38708 0.0
H28 H 0.2719 0.38207 0.3747 0.0
H29 H 0.32519 0.41344 0.43159 0.0
H30 H 0.2542 0.34163 0.43241 0.0
H31 H 0.23184 0.36103 0.4647 0.0
H32 H 0.36906 0.38896 0.45628 0.0
H33 H 0.38082 0.38776 0.49389 0.0
H34 H 0.19478 0.36611 0.37204 0.0
H35 H 0.2644 0.30807 0.40706 0.0
H36 H 0.24425 0.35871 0.50216 0.0
H37 H 0.15472 0.3334 0.35228 0.0
H38 H 0.2228 0.2753 0.38792 0.0
C39 C 0.20372 0.04593 0.86283 0.0
C40 C 0.16086 0.03492 0.86659 0.0
C41 C 0.2189 0.06661 0.87465 0.0
C42 C 0.19138 0.07694 0.89039 0.0
C43 C 0.14882 0.06558 0.8944 0.0
C44 C 0.13381 0.04474 0.88268 0.0
C45 C 0.20642 0.09999 0.90204 0.0
C46 C 0.22935 0.11978 0.89161 0.0
C47 C 0.24346 0.14179 0.90223 0.0
C48 C 0.23378 0.1441 0.92358 0.0
C49 C 0.21083 0.12454 0.93438 0.0
C50 C 0.19747 0.10252 0.92347 0.0
C51 C 0.201 0.12706 0.95705 0.0
C52 C 0.23334 0.13788 0.97059 0.0
C53 C 0.15917 0.11874 0.96534 0.0
C54 C 0.14988 0.12129 0.98662 0.0
C55 C 0.18209 0.13234 1.00009 0.0
C56 C 0.26813 0.16229 0.89083 0.0
C57 C 0.30259 0.15619 0.87657 0.0
C58 C 0.25689 0.18796 0.89374 0.0
C59 C 0.27906 0.20706 0.88232 0.0
C60 C 0.31303 0.20091 0.86779 0.0
C61 C 0.32479 0.17525 0.86522 0.0
C62 C 0.22397 0.14054 0.99183 0.0
H63 H 0.22561 0.03851 0.85075 0.0
H64 H 0.25225 0.07451 0.87142 0.0
H65 H 0.12649 0.07322 0.9062 0.0
H66 H 0.10043 0.0368 0.88579 0.0
H67 H 0.23524 0.11839 0.87498 0.0
H68 H 0.18094 0.08706 0.93177 0.0
H69 H 0.2442 0.16117 0.93178 0.0
H70 H 0.26623 0.14404 0.96484 0.0
H71 H 0.13324 0.11063 0.95532 0.0
H72 H 0.11711 0.11504 0.99245 0.0
H73 H 0.31258 0.13662 0.87426 0.0
H74 H 0.23016 0.19325 0.90445 0.0
H75 H 0.24984 0.14871 1.00184 0.0
H76 H 0.35143 0.16985 0.8545 0.0
H77 H 0.2688 0.2266 0.88452 0.0
C78 C 0.79402 0.04696 0.64866 0.0
C79 C 0.8385 0.03791 0.64628 0.0
C80 C 0.77868 0.06736 0.63668 0.0
C81 C 0.80747 0.07923 0.62205 0.0
C82 C 0.85172 0.06994 0.61944 0.0
C83 C 0.86707 0.04953 0.63143 0.0
C84 C 0.79187 0.1018 0.61015 0.0
C85 C 0.76734 0.1209 0.62028 0.0
C86 C 0.75275 0.14261 0.6095 0.0
C87 C 0.76336 0.14516 0.58822 0.0
C88 C 0.78829 0.12631 0.57778 0.0
C89 C 0.80223 0.10465 0.5889 0.0
C90 C 0.8005 0.12938 0.55539 0.0
C91 C 0.7688 0.13874 0.54095 0.0
C92 C 0.84422 0.12313 0.54832 0.0
C93 C 0.85607 0.12632 0.52738 0.0
C94 C 0.8245 0.13582 0.51295 0.0
C95 C 0.72774 0.1628 0.62088 0.0
C96 C 0.69521 0.15622 0.63606 0.0
C97 C 0.73771 0.18868 0.61747 0.0
C98 C 0.7166 0.20745 0.6294 0.0
C99 C 0.6853 0.20074 0.64505 0.0
C100 C 0.67442 0.17494 0.64806 0.0
C101 C 0.78063 0.14187 0.51997 0.0
H102 H 0.77088 0.03816 0.65969 0.0
H103 H 0.74415 0.07381 0.63883 0.0
H104 H 0.87494 0.07889 0.60852 0.0
H105 H 0.90173 0.04326 0.6294 0.0
H106 H 0.76089 0.11924 0.63686 0.0
H107 H 0.82055 0.08977 0.58091 0.0
H108 H 0.75258 0.16193 0.57981 0.0
H109 H 0.73471 0.1435 0.54584 0.0
H110 H 0.8696 0.1161 0.55906 0.0
H111 H 0.88999 0.12122 0.52247 0.0
H112 H 0.686 0.13652 0.6388 0.0
H113 H 0.76296 0.19441 0.60609 0.0
H114 H 0.75561 0.14945 0.50932 0.0
H115 H 0.64978 0.16922 0.65973 0.0
H116 H 0.72589 0.22718 0.62683 0.0
C117 C 0.71397 0.45555 0.14533 0.0
C118 C 0.67031 0.46562 0.14257 0.0
C119 C 0.72841 0.43491 0.13341 0.0
C120 C 0.69953 0.42377 0.11846 0.0
C121 C 0.65633 0.43426 0.11528 0.0
C122 C 0.64187 0.45494 0.1272 0.0
C123 C 0.71351 0.40039 0.10716 0.0
C124 C 0.73555 0.38088 0.11806 0.0
C125 C 0.74783 0.35843 0.10799 0.0
C126 C 0.73812 0.35525 0.08678 0.0
C127 C 0.71684 0.37469 0.07531 0.0
C128 C 0.70437 0.39719 0.08575 0.0
C129 C 0.70823 0.37141 0.05249 0.0
C130 C 0.73957 0.35832 0.03997 0.0
C131 C 0.66856 0.38084 0.04304 0.0
C132 C 0.66014 0.37683 0.02177 0.0
C133 C 0.69092 0.36303 0.00954 0.0
C134 C 0.77111 0.33835 0.11983 0.0
C135 C 0.81785 0.34039 0.12376 0.0
C136 C 0.74638 0.31784 0.12816 0.0
C137 C 0.76806 0.29973 0.14057 0.0
C138 C 0.81492 0.30173 0.14463 0.0
C139 C 0.83967 0.32211 0.13594 0.0
C140 C 0.73088 0.35405 0.01885 0.0
H141 H 0.73708 0.46363 0.15671 0.0
H142 H 0.76222 0.42758 0.136 0.0
H143 H 0.63306 0.42594 0.10406 0.0
H144 H 0.60785 0.46205 0.12481 0.0
H145 H 0.74243 0.38286 0.13459 0.0
H146 H 0.68861 0.4125 0.07715 0.0
H147 H 0.74714 0.33752 0.07933 0.0
H148 H 0.77108 0.35137 0.04645 0.0
H149 H 0.64338 0.39078 0.05215 0.0
H150 H 0.62893 0.38385 0.01502 0.0
H151 H 0.83732 0.35625 0.11757 0.0
H152 H 0.7102 0.31609 0.12533 0.0
H153 H 0.75563 0.34375 0.00974 0.0
H154 H 0.87571 0.32425 0.13897 0.0
H155 H 0.74826 0.28411 0.14695 0.0
C156 C 0.65689 0.56578 0.65354 0.0
C157 C 0.66118 0.54027 0.64737 0.0
C158 C 0.67333 0.58546 0.64093 0.0
C159 C 0.6945 0.58016 0.6218 0.0
C160 C 0.69871 0.55467 0.61556 0.0
C161 C 0.68235 0.53493 0.62823 0.0
C162 C 0.71275 0.6012 0.60863 0.0
C163 C 0.73618 0.6216 0.61784 0.0
C164 C 0.75345 0.64167 0.60572 0.0
C165 C 0.74768 0.64114 0.58397 0.0
C166 C 0.72359 0.62104 0.57435 0.0
C167 C 0.70632 0.60117 0.58693 0.0
C168 C 0.71492 0.62102 0.55138 0.0
C169 C 0.70612 0.64379 0.54054 0.0
C170 C 0.71338 0.598 0.54021 0.0
C171 C 0.70149 0.59761 0.51913 0.0
C172 C 0.6917 0.62026 0.50851 0.0
C173 C 0.77654 0.66334 0.61616 0.0
C174 C 0.75548 0.67541 0.63307 0.0
C175 C 0.82022 0.67134 0.61005 0.0
C176 C 0.84291 0.69061 0.62108 0.0
C177 C 0.82187 0.70251 0.63811 0.0
C178 C 0.77776 0.69491 0.64383 0.0
C179 C 0.69499 0.64341 0.5193 0.0
H180 H 0.64121 0.57057 0.66828 0.0
H181 H 0.66913 0.60489 0.64611 0.0
H182 H 0.71521 0.54995 0.601 0.0
H183 H 0.68582 0.51551 0.62293 0.0
H184 H 0.74171 0.62174 0.63455 0.0
H185 H 0.68644 0.58598 0.57996 0.0
H186 H 0.76148 0.65657 0.57466 0.0
H187 H 0.70632 0.66188 0.54857 0.0
H188 H 0.72107 0.58013 0.54778 0.0
H189 H 0.69983 0.57952 0.51109 0.0
H190 H 0.72176 0.66965 0.63804 0.0
H191 H 0.83722 0.66223 0.59712 0.0
H192 H 0.68732 0.66114 0.51148 0.0
H193 H 0.76091 0.70363 0.65698 0.0
H194 H 0.87685 0.69623 0.61632 0.0
C195 C 0.77399 0.86748 0.01388 0.0
C196 C 0.81569 0.8771 0.00643 0.0
C197 C 0.76446 0.86727 0.0353 0.0
C198 C 0.79644 0.87668 0.04972 0.0
C199 C 0.83876 0.88535 0.04227 0.0
C200 C 0.84823 0.88558 0.02093 0.0
C201 C 0.78553 0.87837 0.07237 0.0
C202 C 0.76271 0.85842 0.08278 0.0
C203 C 0.7544 0.85982 0.10435 0.0
C204 C 0.76811 0.88163 0.11537 0.0
C205 C 0.79017 0.9019 0.10524 0.0
C206 C 0.79873 0.90009 0.08376 0.0
C207 C 0.80539 0.92461 0.11727 0.0
C208 C 0.77731 0.93533 0.1326 0.0
C209 C 0.84874 0.93525 0.11393 0.0
C210 C 0.86403 0.95576 0.12595 0.0
C211 C 0.83632 0.96618 0.14156 0.0
C212 C 0.73261 0.83838 0.11576 0.0
C213 C 0.69146 0.82762 0.10883 0.0
C214 C 0.75215 0.82928 0.13427 0.0
C215 C 0.73074 0.81009 0.1458 0.0
C216 C 0.68903 0.79971 0.1392 0.0
C217 C 0.66966 0.80859 0.12054 0.0
C218 C 0.79255 0.95591 0.14458 0.0
H219 H 0.74803 0.86098 1.00313 0.0
H220 H 0.73146 0.86057 0.0405 0.0
H221 H 0.86461 0.89215 0.05296 0.0
H222 H 0.88105 0.8926 0.01578 0.0
H223 H 0.75296 0.84141 0.07432 0.0
H224 H 0.81512 0.91586 0.0758 0.0
H225 H 0.76198 0.88267 0.13201 0.0
H226 H 0.74354 0.92774 0.1354 0.0
H227 H 0.87136 0.92734 0.10236 0.0
H228 H 0.89771 0.96342 0.12304 0.0
H229 H 0.6756 0.83437 0.09465 0.0
H230 H 0.784 0.83712 0.13991 0.0
H231 H 0.77047 0.96336 0.15657 0.0
H232 H 0.6377 0.8008 0.115 0.0
H233 H 0.74635 0.8038 0.16018 0.0
C234 C 0.16739 0.94191 0.3586 0.0
C235 C 0.16048 0.96546 0.36838 0.0
C236 C 0.18308 0.92109 0.36982 0.0
C237 C 0.19381 0.9232 0.39112 0.0
C238 C 0.18792 0.94689 0.40091 0.0
C239 C 0.17124 0.96774 0.3897 0.0
C240 C 0.20953 0.90033 0.40284 0.0
C241 C 0.23525 0.88173 0.39258 0.0
C242 C 0.24367 0.85793 0.40174 0.0
C243 C 0.22901 0.85368 0.42234 0.0
C244 C 0.20661 0.87282 0.4335 0.0
C245 C 0.19643 0.89594 0.42363 0.0
C246 C 0.19308 0.86843 0.45543 0.0
C247 C 0.16437 0.84802 0.46071 0.0
C248 C 0.20966 0.88436 0.47125 0.0
C249 C 0.19849 0.87966 0.4921 0.0
C250 C 0.16957 0.85921 0.49758 0.0
C251 C 0.26626 0.8375 0.38938 0.0
C252 C 0.25989 0.83606 0.36766 0.0
C253 C 0.29418 0.8193 0.39895 0.0
C254 C 0.31509 0.80033 0.38713 0.0
C255 C 0.30959 0.79933 0.36531 0.0
C256 C 0.28179 0.81764 0.35581 0.0
C257 C 0.1523 0.84363 0.4815 0.0
H258 H 0.16068 0.93939 0.34214 0.0
H259 H 0.18599 0.90315 0.36169 0.0
H260 H 0.19615 0.94939 0.41723 0.0
H261 H 0.1661 0.98548 0.39786 0.0
H262 H 0.24842 0.8858 0.37718 0.0
H263 H 0.17675 0.90996 0.43197 0.0
H264 H 0.23472 0.8355 0.4298 0.0
H265 H 0.1509 0.83561 0.4487 0.0
H266 H 0.23221 0.90011 0.46751 0.0
H267 H 0.21337 0.89183 0.50389 0.0
H268 H 0.23775 0.84914 0.35961 0.0
H269 H 0.30042 0.81977 0.41556 0.0
H270 H 0.12911 0.82809 0.48486 0.0
H271 H 0.27709 0.8181 0.3391 0.0
H272 H 0.33536 0.7864 0.39524 0.0
C273 C 0.28571 0.64758 0.99294 0.0
C274 C 0.32887 0.64155 1.00083 0.0
C275 C 0.27513 0.64324 0.97199 0.0
C276 C 0.30747 0.63276 0.95843 0.0
C277 C 0.35056 0.62664 0.96634 0.0
C278 C 0.36112 0.63097 0.98728 0.0
C279 C 0.29636 0.62832 0.9361 0.0
C280 C 0.27205 0.64656 0.92464 0.0
C281 C 0.26205 0.64267 0.90345 0.0
C282 C 0.27567 0.61998 0.89389 0.0
C283 C 0.30031 0.60178 0.905 0.0
C284 C 0.31076 0.60604 0.92603 0.0
C285 C 0.31667 0.57884 0.89418 0.0
C286 C 0.28606 0.5629 0.88351 0.0
C287 C 0.36336 0.57375 0.89331 0.0
C288 C 0.37933 0.55351 0.88136 0.0
C289 C 0.34877 0.53776 0.87047 0.0
C290 C 0.23895 0.66257 0.89098 0.0
C291 C 0.20166 0.67584 0.89907 0.0
C292 C 0.25416 0.66834 0.87074 0.0
C293 C 0.23224 0.68666 0.85873 0.0
C294 C 0.1946 0.69973 0.86668 0.0
C295 C 0.1797 0.69423 0.88704 0.0
C296 C 0.30196 0.54233 0.87193 0.0
H297 H 0.25984 0.6554 1.00301 0.0
H298 H 0.2414 0.64781 0.96646 0.0
H299 H 0.3765 0.61891 0.95625 0.0
H300 H 0.39493 0.62648 0.99275 0.0
H301 H 0.26239 0.66422 0.93203 0.0
H302 H 0.32945 0.59176 0.9346 0.0
H303 H 0.26786 0.61663 0.8776 0.0
H304 H 0.24991 0.56655 0.88399 0.0
H305 H 0.38754 0.58594 0.9013 0.0
H306 H 0.41557 0.55024 0.8805 0.0
H307 H 0.18892 0.67166 0.91454 0.0
H308 H 0.2834 0.65886 0.86421 0.0
H309 H 0.27784 0.53047 0.86358 0.0
H310 H 0.15051 0.70378 0.89354 0.0
H311 H 0.24516 0.69081 0.84328 0.0
Tb312 Tb 0.05278 0.136 0.23908 0.0
C313 C 0.85304 0.10831 0.25689 0.0
N314 N 0.87167 0.132 0.25802 0.0
C315 C 0.80788 0.14917 0.23969 0.0
C316 C 0.81128 0.10405 0.24668 0.0
C317 C 0.8496 0.15241 0.24982 0.0
C318 C 0.78869 0.12487 0.23804 0.0
C319 C 0.8593 0.06324 0.26409 0.0
C320 C 0.87711 0.08817 0.26528 0.0
C321 C 0.81782 0.05883 0.25382 0.0
C322 C 0.79386 0.07918 0.24515 0.0
Tb323 Tb 0.9398 0.13511 0.27478 0.0
N324 N 0.91773 0.0931 0.27473 0.0
C325 C 0.88328 0.04355 0.27361 0.0
C326 C 0.93863 0.0743 0.28576 0.0
C327 C 0.92264 0.04921 0.28485 0.0
H328 H 0.86371 0.17125 0.25143 0.0
H329 H 0.94007 0.03436 0.29328 0.0
H330 H 0.11926 0.08892 0.25451 0.0
H331 H 0.08108 0.23745 0.23304 0.0
H332 H 0.96625 0.07847 0.29613 0.0
H333 H 0.87076 0.02413 0.27307 0.0
H334 H 0.03891 0.19743 0.22789 0.0
H335 H 0.79051 0.16541 0.2332 0.0
H336 H 0.80378 0.03978 0.25266 0.0
H337 H 0.7619 0.07549 0.23729 0.0
H338 H 0.19479 0.08443 0.27077 0.0
H339 H 0.75649 0.12239 0.23008 0.0
H340 H 0.15694 0.23706 0.24965 0.0
N341 N 0.12289 0.12929 0.25316 0.0
C342 C 0.14875 0.15041 0.25652 0.0
C343 C 0.18213 0.10312 0.26694 0.0
C344 C 0.19234 0.14875 0.26543 0.0
C345 C 0.13912 0.10575 0.25795 0.0
C346 C 0.20881 0.12471 0.27077 0.0
N347 N 0.08871 0.17451 0.2426 0.0
C348 C 0.07119 0.19691 0.23567 0.0
C349 C 0.15702 0.19621 0.25381 0.0
C350 C 0.13134 0.17381 0.2508 0.0
C351 C 0.13832 0.21939 0.24761 0.0
C352 C 0.0954 0.21969 0.23832 0.0
H353 H 0.24216 0.12261 0.27768 0.0
H354 H 0.25157 0.17018 0.27554 0.0
H355 H 0.22064 0.21174 0.26536 0.0
O356 O 0.05034 0.14407 0.2069 0.0
O357 O 0.05663 0.15483 0.26957 0.0
O358 O 0.98455 0.16838 0.27864 0.0
O359 O 0.09779 0.11706 0.21906 0.0
O360 O 0.99304 0.1572 0.22822 0.0
O361 O 0.94952 0.16999 0.25663 0.0
O362 O 0.92987 0.12774 0.30674 0.0
O363 O 0.93671 0.12062 0.24245 0.0
O364 O 0.00697 0.10328 0.23811 0.0
O365 O 0.88815 0.15456 0.29068 0.0
O366 O 0.00299 0.11868 0.28726 0.0
O367 O 0.03832 0.10261 0.25818 0.0
C368 C 0.02915 0.1697 0.27999 0.0
C369 C 0.1208 0.14077 0.18954 0.0
C370 C 0.15123 0.15061 0.15496 0.0
C371 C 0.18928 0.16211 0.16445 0.0
C372 C 0.15936 0.1521 0.19856 0.0
C373 C 0.19322 0.16281 0.18609 0.0
C374 C 0.11693 0.13997 0.16769 0.0
C375 C 0.96304 0.1723 0.23708 0.0
C376 C 0.08471 0.12953 0.20267 0.0
C377 C 0.21801 0.17105 0.26865 0.0
C378 C 0.2004 0.19472 0.26285 0.0
C379 C 0.96367 0.10415 0.23349 0.0
C380 C 0.90569 0.16313 0.32593 0.0
C381 C 0.90379 0.17239 0.36327 0.0
C382 C 0.92191 0.19672 0.35909 0.0
C383 C 0.92331 0.18758 0.32216 0.0
C384 C 0.89579 0.15565 0.34649 0.0
C385 C 0.93151 0.20421 0.33867 0.0
C386 C 0.03291 0.10358 0.27849 0.0
C387 C 0.89889 0.14502 0.30867 0.0
H388 H 0.21659 0.17009 0.15514 0.0
H389 H 0.16371 0.15246 0.21521 0.0
H390 H 0.22287 0.17145 0.19323 0.0
H391 H 0.08721 0.13121 0.16066 0.0
H392 H 0.92799 0.21014 0.37159 0.0
H393 H 0.93067 0.1938 0.30644 0.0
H394 H 0.88257 0.13668 0.34942 0.0
H395 H 0.94521 0.22301 0.33563 0.0
Tb396 Tb 0.44985 0.36516 0.73962 0.0
C397 C 0.64018 0.40195 0.76537 0.0
N398 N 0.62537 0.37782 0.76199 0.0
C399 C 0.69127 0.3694 0.74126 0.0
C400 C 0.68031 0.41121 0.75602 0.0
C401 C 0.65099 0.36117 0.75079 0.0
C402 C 0.70572 0.39463 0.74366 0.0
C403 C 0.62957 0.44218 0.78283 0.0
C404 C 0.61502 0.41714 0.7785 0.0
C405 C 0.66853 0.45199 0.77289 0.0
C406 C 0.69391 0.4365 0.75953 0.0
Tb407 Tb 0.55945 0.36606 0.77804 0.0
N408 N 0.57797 0.40679 0.78801 0.0
C409 C 0.60552 0.45624 0.7976 0.0
C410 C 0.55729 0.41961 0.80387 0.0
C411 C 0.56977 0.44471 0.80846 0.0
H412 H 0.64007 0.34163 0.74907 0.0
H413 H 0.55238 0.45497 0.82066 0.0
H414 H 0.38027 0.40706 0.76269 0.0
H415 H 0.41824 0.26831 0.71663 0.0
H416 H 0.53177 0.41047 0.8134 0.0
H417 H 0.61553 0.47557 0.80138 0.0
H418 H 0.45852 0.30988 0.71641 0.0
H419 H 0.71112 0.3563 0.73207 0.0
H420 H 0.68 0.47127 0.77587 0.0
H421 H 0.7244 0.44411 0.75232 0.0
H422 H 0.31287 0.40538 0.7852 0.0
H423 H 0.73685 0.40097 0.73621 0.0
H424 H 0.35127 0.26183 0.73946 0.0
N425 N 0.38481 0.36678 0.75941 0.0
C426 C 0.36216 0.34434 0.76185 0.0
C427 C 0.32686 0.38797 0.77906 0.0
C428 C 0.32207 0.34261 0.7738 0.0
C429 C 0.36597 0.38874 0.76668 0.0
C430 C 0.30527 0.36472 0.78298 0.0
N431 N 0.41557 0.32614 0.73932 0.0
C432 C 0.42951 0.30704 0.72649 0.0
C433 C 0.3535 0.30015 0.75175 0.0
C434 C 0.37752 0.32339 0.75108 0.0
C435 C 0.36884 0.28001 0.73942 0.0
C436 C 0.40668 0.28359 0.72653 0.0
H437 H 0.27457 0.36423 0.79229 0.0
H438 H 0.26848 0.31739 0.78474 0.0
H439 H 0.29604 0.28016 0.76538 0.0
O440 O 0.45236 0.36332 0.70671 0.0
O441 O 0.46649 0.33284 0.76003 0.0
O442 O 0.49463 0.35122 0.7896 0.0
O443 O 0.39755 0.38186 0.72222 0.0
O444 O 0.51269 0.34891 0.72722 0.0
O445 O 0.55419 0.33425 0.75581 0.0
O446 O 0.59434 0.36662 0.80692 0.0
O447 O 0.56448 0.38249 0.74647 0.0
O448 O 0.49376 0.39892 0.74018 0.0
O449 O 0.5902 0.33213 0.78819 0.0
O450 O 0.4952 0.38208 0.78939 0.0
O451 O 0.45937 0.39827 0.7602 0.0
C452 C 0.47028 0.33357 0.78037 0.0
C453 C 0.37997 0.36112 0.69069 0.0
C454 C 0.34756 0.35446 0.65602 0.0
C455 C 0.31444 0.3383 0.66485 0.0
C456 C 0.3459 0.34534 0.69913 0.0
C457 C 0.31378 0.33376 0.68625 0.0
C458 C 0.38087 0.36551 0.66904 0.0
C459 C 0.54274 0.33358 0.73584 0.0
C460 C 0.41307 0.37404 0.70444 0.0
C461 C 0.29911 0.31915 0.77546 0.0
C462 C 0.31472 0.29796 0.7644 0.0
C463 C 0.53811 0.39966 0.73799 0.0
C464 C 0.63165 0.32905 0.82099 0.0
C465 C 0.65625 0.32284 0.85714 0.0
C466 C 0.68237 0.30204 0.85051 0.0
C467 C 0.65741 0.30801 0.81495 0.0
C468 C 0.63131 0.33653 0.8421 0.0
C469 C 0.68282 0.29472 0.82963 0.0
C470 C 0.4685 0.39872 0.7803 0.0
C471 C 0.6049 0.34281 0.80521 0.0
H472 H 0.28885 0.32925 0.65518 0.0
H473 H 0.34346 0.34229 0.7157 0.0
H474 H 0.28782 0.32153 0.69292 0.0
H475 H 0.40641 0.37815 0.66248 0.0
H476 H 0.7029 0.29146 0.86146 0.0
H477 H 0.65824 0.30195 0.79882 0.0
H478 H 0.61071 0.35248 0.84686 0.0
H479 H 0.70299 0.27866 0.8248 0.0
Tb480 Tb 0.05816 0.86336 0.73593 0.0
C481 C 0.87101 0.82378 0.75916 0.0
N482 N 0.88407 0.84839 0.75678 0.0
C483 C 0.81881 0.85629 0.73546 0.0
C484 C 0.83235 0.81402 0.7489 0.0
C485 C 0.85775 0.865 0.74585 0.0
C486 C 0.80641 0.8306 0.73674 0.0
C487 C 0.88332 0.78312 0.77573 0.0
C488 C 0.89626 0.80864 0.77229 0.0
C489 C 0.84607 0.77282 0.76481 0.0
C490 C 0.82057 0.78827 0.75144 0.0
Tb491 Tb 0.94836 0.86083 0.77386 0.0
N492 N 0.93158 0.81947 0.78274 0.0
C493 C 0.9071 0.76906 0.79063 0.0
C494 C 0.95178 0.80654 0.7987 0.0
C495 C 0.94085 0.78101 0.80247 0.0
H496 H 0.86727 0.88484 0.74489 0.0
H497 H 0.95789 0.77071 0.81477 0.0
H498 H 0.12753 0.81777 0.75343 0.0
H499 H 0.09726 0.9609 0.71737 0.0
H500 H 0.97572 0.81591 0.80889 0.0
H501 H 0.89828 0.74938 0.79376 0.0
H502 H 0.05383 0.92038 0.7152 0.0
H503 H 0.79848 0.86936 0.72644 0.0
H504 H 0.8359 0.75316 0.76707 0.0
H505 H 0.79128 0.78027 0.7435 0.0
H506 H 0.19683 0.81546 0.77482 0.0
H507 H 0.77637 0.82388 0.72861 0.0
H508 H 0.16487 0.96398 0.74026 0.0
N509 N 0.12494 0.85823 0.75387 0.0
C510 C 0.14894 0.8799 0.7577 0.0
C511 C 0.18328 0.83377 0.77046 0.0
C512 C 0.19001 0.87951 0.769 0.0
C513 C 0.14325 0.83518 0.75877 0.0
C514 C 0.20628 0.85609 0.776 0.0
N515 N 0.09573 0.90137 0.7371 0.0
C516 C 0.08324 0.92173 0.72523 0.0
C517 C 0.16008 0.92476 0.75043 0.0
C518 C 0.13435 0.90219 0.74861 0.0
C519 C 0.14595 0.94625 0.73935 0.0
C520 C 0.1078 0.94459 0.7264 0.0
H521 H 0.23768 0.85494 0.78475 0.0
H522 H 0.24588 0.90242 0.78085 0.0
H523 H 0.21962 0.9421 0.76455 0.0
O524 O 0.04796 0.86484 0.70346 0.0
O525 O 0.04282 0.89519 0.75703 0.0
O526 O 0.01272 0.87571 0.78583 0.0
O527 O 0.11121 0.85218 0.71609 0.0
O528 O 0.99671 0.88203 0.72449 0.0
O529 O 0.95289 0.89412 0.75311 0.0
O530 O 0.91164 0.85915 0.80241 0.0
O531 O 0.94554 0.84675 0.74154 0.0
O532 O 0.0154 0.82922 0.73628 0.0
O533 O 0.91665 0.89411 0.7843 0.0
O534 O 0.01268 0.84501 0.78549 0.0
O535 O 0.04922 0.82978 0.75619 0.0
C536 C 0.03636 0.89417 0.77725 0.0
C537 C 0.08796 0.83443 0.68411 0.0
C538 C 0.09781 0.8203 0.64806 0.0
C539 C 0.09199 0.79498 0.65489 0.0
C540 C 0.08183 0.80915 0.69049 0.0
C541 C 0.08369 0.78955 0.67589 0.0
C542 C 0.09527 0.83994 0.66296 0.0
C543 C 0.96606 0.89658 0.73348 0.0
C544 C 0.08744 0.85532 0.69927 0.0
C545 C 0.21451 0.90227 0.77201 0.0
C546 C 0.19962 0.92487 0.76269 0.0
C547 C 0.97142 0.82939 0.73305 0.0
C548 C 0.87261 0.89651 0.81621 0.0
C549 C 0.84706 0.90368 0.852 0.0
C550 C 0.82208 0.92471 0.84501 0.0
C551 C 0.84749 0.91765 0.80969 0.0
C552 C 0.87177 0.8893 0.8374 0.0
C553 C 0.82214 0.93151 0.824 0.0
C554 C 0.04078 0.82911 0.77637 0.0
C555 C 0.90092 0.88297 0.80091 0.0
H556 H 0.0946 0.77923 0.64414 0.0
H557 H 0.07605 0.8046 0.70675 0.0
H558 H 0.07924 0.77003 0.6809 0.0
H559 H 0.09873 0.85964 0.65822 0.0
H560 H 0.80236 0.93591 0.85584 0.0
H561 H 0.8475 0.9235 0.79349 0.0
H562 H 0.89162 0.87324 0.84262 0.0
H563 H 0.80279 0.94774 0.81882 0.0
Tb564 Tb 0.45675 0.6367 0.2369 0.0
C565 C 0.64516 0.67526 0.26148 0.0
N566 N 0.63118 0.65082 0.25901 0.0
C567 C 0.69686 0.64219 0.23817 0.0
C568 C 0.68465 0.68454 0.25159 0.0
C569 C 0.65713 0.63396 0.24819 0.0
C570 C 0.71038 0.66768 0.23964 0.0
C571 C 0.63357 0.7161 0.27779 0.0
C572 C 0.61985 0.69072 0.27428 0.0
C573 C 0.6718 0.72592 0.26728 0.0
C574 C 0.69735 0.71015 0.25422 0.0
Tb575 Tb 0.56563 0.63913 0.27548 0.0
N576 N 0.58355 0.68033 0.28432 0.0
C577 C 0.60952 0.73047 0.29234 0.0
C578 C 0.56298 0.69354 0.29998 0.0
C579 C 0.57466 0.71895 0.30381 0.0
H580 H 0.64684 0.61425 0.24709 0.0
H581 H 0.55738 0.72946 0.31589 0.0
H582 H 0.38396 0.6799 0.2552 0.0
H583 H 0.42504 0.53887 0.21658 0.0
H584 H 0.53838 0.68442 0.30997 0.0
H585 H 0.61891 0.75005 0.29552 0.0
H586 H 0.46535 0.58039 0.21516 0.0
H587 H 0.71695 0.6289 0.22929 0.0
H588 H 0.68261 0.74545 0.2696 0.0
H589 H 0.72732 0.71778 0.24657 0.0
H590 H 0.3148 0.68001 0.2768 0.0
H591 H 0.74104 0.67403 0.2318 0.0
H592 H 0.35744 0.53357 0.23923 0.0
N593 N 0.38975 0.63963 0.25503 0.0
C594 C 0.36715 0.61734 0.2583 0.0
C595 C 0.32969 0.66217 0.27211 0.0
C596 C 0.32613 0.61642 0.26961 0.0
C597 C 0.36977 0.66204 0.26038 0.0
C598 C 0.30829 0.63919 0.27717 0.0
N599 N 0.42188 0.59781 0.23727 0.0
C600 C 0.43601 0.57809 0.22511 0.0
C601 C 0.35916 0.57256 0.25005 0.0
C602 C 0.3832 0.59576 0.24867 0.0
C603 C 0.375 0.55175 0.23864 0.0
C604 C 0.41317 0.55466 0.22584 0.0
H605 H 0.27684 0.63934 0.28594 0.0
H606 H 0.27192 0.59189 0.28096 0.0
H607 H 0.30097 0.55341 0.26382 0.0
O608 O 0.46511 0.63497 0.20437 0.0
O609 O 0.47258 0.60481 0.25784 0.0
O610 O 0.50074 0.62431 0.28689 0.0
O611 O 0.40322 0.64865 0.21759 0.0
O612 O 0.51955 0.61943 0.22549 0.0
O613 O 0.56146 0.60612 0.25434 0.0
O614 O 0.59924 0.64034 0.30459 0.0
O615 O 0.56958 0.65404 0.24348 0.0
O616 O 0.49945 0.67103 0.23731 0.0
O617 O 0.59927 0.60654 0.28601 0.0
O618 O 0.50114 0.65526 0.2866 0.0
O619 O 0.4637 0.67024 0.25735 0.0
C620 C 0.47799 0.60573 0.2781 0.0
C621 C 0.42571 0.66581 0.18529 0.0
C622 C 0.41369 0.68013 0.14951 0.0
C623 C 0.42595 0.70495 0.15563 0.0
C624 C 0.43746 0.69066 0.19113 0.0
C625 C 0.43777 0.71011 0.17631 0.0
C626 C 0.41386 0.66061 0.16455 0.0
C627 C 0.54943 0.60436 0.23449 0.0
C628 C 0.42587 0.645 0.20053 0.0
C629 C 0.30322 0.59304 0.27211 0.0
C630 C 0.31968 0.57115 0.2623 0.0
C631 C 0.54373 0.67129 0.23479 0.0
C632 C 0.59378 0.60109 0.3226 0.0
C633 C 0.59161 0.59474 0.3605 0.0
C634 C 0.56577 0.57241 0.35732 0.0
C635 C 0.5677 0.57877 0.32004 0.0
C636 C 0.60569 0.60896 0.34291 0.0
C637 C 0.55387 0.56462 0.33729 0.0
C638 C 0.47284 0.67113 0.27749 0.0
C639 C 0.60823 0.61622 0.3042 0.0
H640 H 0.42685 0.72033 0.1444 0.0
H641 H 0.44619 0.69497 0.20713 0.0
H642 H 0.44718 0.72926 0.18086 0.0
H643 H 0.40411 0.6414 0.16024 0.0
H644 H 0.55522 0.56062 0.37032 0.0
H645 H 0.55781 0.57218 0.3047 0.0
H646 H 0.62532 0.6263 0.34497 0.0
H647 H 0.5339 0.54744 0.33512 0.0
H648 H 0.17919 0.01694 0.37235 0.0
H649 H 0.05412 0.05513 0.26772 0.0
H650 H 0.09788 0.9638 0.33665 0.0
H651 H 0.06134 0.10804 0.31895 0.0
H652 H 0.08596 0.02218 0.29023 0.0
H653 H 0.14938 0.05164 0.35085 0.0
C654 C 0.155 0.01247 0.36015 0.0
C655 C 0.14162 0.98718 0.35623 0.0
C656 C 0.08078 0.04105 0.29649 0.0
C657 C 0.1087 0.02673 0.3313 0.0
C658 C 0.063 0.05987 0.28365 0.0
C659 C 0.05521 0.08426 0.29155 0.0
C660 C 0.09159 0.04678 0.31727 0.0
C661 C 0.06676 0.08936 0.31236 0.0
C662 C 0.13828 0.0323 0.34785 0.0
C663 C 0.1105 0.98273 0.33996 0.0
N664 N 0.08467 0.07077 0.32455 0.0
N665 N 0.09555 0.00223 0.328 0.0
H666 H 0.41076 0.54171 0.83913 0.0
H667 H 0.43446 0.39389 0.81953 0.0
H668 H 0.32512 0.4874 0.8711 0.0
H669 H 0.45665 0.44857 0.7704 0.0
H670 H 0.40339 0.42779 0.84148 0.0
H671 H 0.43807 0.50755 0.81644 0.0
C672 C 0.39794 0.52254 0.84139 0.0
C673 C 0.36581 0.51722 0.85695 0.0
C674 C 0.41485 0.43229 0.82585 0.0
C675 C 0.39694 0.47827 0.83132 0.0
C676 C 0.43265 0.41307 0.81342 0.0
C677 C 0.44799 0.41862 0.79323 0.0
C678 C 0.41348 0.45726 0.81817 0.0
C679 C 0.44486 0.44363 0.78588 0.0
C680 C 0.41323 0.50317 0.8284 0.0
C681 C 0.34985 0.49218 0.8592 0.0
N682 N 0.42841 0.46217 0.79846 0.0
N683 N 0.36592 0.47351 0.84663 0.0
H684 H 0.58111 0.53889 0.66907 0.0
H685 H 0.62043 0.40044 0.71784 0.0
H686 H 0.70013 0.49414 0.65634 0.0
H687 H 0.50093 0.44549 0.72848 0.0
H688 H 0.65187 0.43477 0.69624 0.0
H689 H 0.55254 0.50504 0.69162 0.0
C690 C 0.6014 0.52198 0.67111 0.0
C691 C 0.6432 0.51944 0.66083 0.0
C692 C 0.61883 0.43716 0.70335 0.0
C693 C 0.61036 0.48032 0.68658 0.0
C694 C 0.60106 0.41766 0.71582 0.0
C695 C 0.55821 0.4202 0.72512 0.0
C696 C 0.59338 0.45931 0.70007 0.0
C697 C 0.53404 0.44266 0.72156 0.0
C698 C 0.58494 0.50257 0.68392 0.0
C699 C 0.66754 0.49684 0.66379 0.0
N700 N 0.55194 0.4613 0.70934 0.0
N701 N 0.65081 0.47817 0.67642 0.0
H702 H 0.79135 0.00873 0.15524 0.0
H703 H 0.00266 0.05931 0.22252 0.0
H704 H 0.9208 0.97108 0.15894 0.0
H705 H 0.88089 0.10309 0.21348 0.0
H706 H 0.97105 0.02601 0.20044 0.0
H707 H 0.82112 0.04248 0.17791 0.0
C708 C 0.82597 0.00752 0.16085 0.0
C709 C 0.85368 0.98707 0.15508 0.0
C710 C 0.95109 0.04285 0.20328 0.0
C711 C 0.88795 0.02565 0.18094 0.0
C712 C 0.96919 0.06196 0.21588 0.0
C713 C 0.94425 0.084 0.21999 0.0
C714 C 0.90762 0.0457 0.19462 0.0
C715 C 0.90096 0.08623 0.211 0.0
C716 C 0.84299 0.02686 0.17369 0.0
C717 C 0.89839 0.98664 0.16268 0.0
N718 N 0.88395 0.06729 0.19875 0.0
N719 N 0.91404 0.00557 0.17521 0.0
H720 H 0.82346 0.02942 0.68799 0.0
H721 H 0.97796 0.90509 0.69176 0.0
H722 H 0.8918 0.9979 0.63453 0.0
H723 H 0.90719 0.93426 0.74554 0.0
H724 H 0.94572 0.93885 0.67071 0.0
H725 H 0.85241 0.99456 0.70931 0.0
C726 C 0.84427 0.01508 0.68069 0.0
C727 C 0.85524 0.01664 0.6594 0.0
C728 C 0.93712 0.93789 0.6871 0.0
C729 C 0.88892 0.97682 0.68381 0.0
C730 C 0.9556 0.91857 0.6992 0.0
C731 C 0.94547 0.9168 0.72055 0.0
C732 C 0.90821 0.95573 0.69631 0.0
C733 C 0.91603 0.93485 0.72917 0.0
C734 C 0.86099 0.99525 0.69291 0.0
C735 C 0.88296 0.9977 0.6509 0.0
N736 N 0.89852 0.95361 0.71702 0.0
N737 N 0.89882 0.97863 0.66312 0.0
H738 H 0.62007 0.50708 0.13109 0.0
H739 H 0.6049 0.56498 0.24648 0.0
H740 H 0.68367 0.47254 0.18459 0.0
H741 H 0.5412 0.59811 0.19234 0.0
H742 H 0.63614 0.53161 0.22419 0.0
H743 H 0.59239 0.5411 0.15345 0.0
C744 C 0.62811 0.50659 0.14755 0.0
C745 C 0.6542 0.48684 0.15593 0.0
C746 C 0.61539 0.54624 0.21722 0.0
C747 C 0.62284 0.52597 0.18171 0.0
C748 C 0.59759 0.56533 0.22994 0.0
C749 C 0.57017 0.58438 0.22134 0.0
C750 C 0.60573 0.54621 0.19576 0.0
C751 C 0.56189 0.5838 0.19977 0.0
C752 C 0.61248 0.52612 0.16032 0.0
C753 C 0.66413 0.4875 0.17737 0.0
N754 N 0.57947 0.56505 0.18779 0.0
N755 N 0.64835 0.50668 0.18952 0.0
H756 H 0.39553 0.50799 0.38057 0.0
H757 H 0.45693 0.55724 0.26628 0.0
H758 H 0.35238 0.4695 0.32453 0.0
H759 H 0.46014 0.60641 0.31999 0.0
H760 H 0.42536 0.52322 0.28788 0.0
H761 H 0.4268 0.54261 0.35915 0.0
C762 C 0.39273 0.50682 0.36377 0.0
C763 C 0.37125 0.48588 0.3543 0.0
C764 C 0.43271 0.54149 0.29493 0.0
C765 C 0.40687 0.52529 0.32978 0.0
C766 C 0.45036 0.56098 0.28256 0.0
C767 C 0.46009 0.58485 0.29122 0.0
C768 C 0.42554 0.54571 0.31627 0.0
C769 C 0.45276 0.58832 0.31265 0.0
C770 C 0.41032 0.52662 0.35158 0.0
C771 C 0.36821 0.48541 0.33248 0.0
N772 N 0.43595 0.56893 0.32447 0.0
N773 N 0.386 0.50475 0.32096 0.0
H774 H 0.16493 0.031 0.82415 0.0
H775 H 0.05121 0.89257 0.81931 0.0
H776 H 0.11803 0.99085 0.87885 0.0
H777 H 0.06254 0.94229 0.76605 0.0
H778 H 0.08249 0.92646 0.84131 0.0
H779 H 0.13559 0.99641 0.80242 0.0
C780 C 0.14872 0.0148 0.83159 0.0
C781 C 0.1439 0.01378 0.85334 0.0
C782 C 0.07832 0.92989 0.82478 0.0
C783 C 0.11003 0.97421 0.82856 0.0
C784 C 0.06043 0.91059 0.81222 0.0
C785 C 0.05503 0.91449 0.79072 0.0
C786 C 0.09101 0.95323 0.81575 0.0
C787 C 0.06744 0.9382 0.78239 0.0
C788 C 0.1317 0.99516 0.81917 0.0
C789 C 0.12208 0.99249 0.86213 0.0
N790 N 0.08504 0.95664 0.79489 0.0
N791 N 0.10606 0.97349 0.84971 0.0
H792 H 0.14092 0.0983 0.02675 0.0
H793 H 0.17226 0.18791 0.1267 0.0
H794 H 0.20058 0.17349 0.02486 0.0
H795 H 0.12439 0.11028 0.13051 0.0
H796 H 0.17544 0.18416 0.08884 0.0
H797 H 0.12742 0.10351 0.06417 0.0
C798 C 0.15085 0.11598 0.03416 0.0
C799 C 0.1722 0.13543 0.02266 0.0
C800 C 0.16401 0.16795 0.09791 0.0
C801 C 0.15704 0.14146 0.06549 0.0
C802 C 0.1623 0.17007 0.11955 0.0
C803 C 0.14854 0.14928 0.13184 0.0
C804 C 0.15196 0.14485 0.08836 0.0
C805 C 0.13506 0.12681 0.12167 0.0
C806 C 0.14332 0.11889 0.05554 0.0
C807 C 0.18471 0.15783 0.03315 0.0
N808 N 0.13746 0.12512 0.10052 0.0
N809 N 0.17703 0.16019 0.05393 0.0
H810 H 0.2527 0.38643 0.53151 0.0
H811 H 0.41729 0.35436 0.62743 0.0
H812 H 0.38963 0.35946 0.52328 0.0
H813 H 0.27347 0.3677 0.63315 0.0
H814 H 0.41115 0.36109 0.5896 0.0
H815 H 0.26288 0.3842 0.56914 0.0
C816 C 0.28488 0.3799 0.53759 0.0
C817 C 0.32015 0.37284 0.52412 0.0
C818 C 0.38102 0.36262 0.59918 0.0
C819 C 0.33233 0.3706 0.56742 0.0
C820 C 0.38457 0.35893 0.62074 0.0
C821 C 0.34574 0.36021 0.63338 0.0
C822 C 0.33843 0.36789 0.5903 0.0
C823 C 0.30413 0.36611 0.62393 0.0
C824 C 0.29078 0.37879 0.55913 0.0
C825 C 0.36154 0.36522 0.53302 0.0
N826 N 0.30158 0.36966 0.60302 0.0
N827 N 0.36643 0.36419 0.55411 0.0
H828 H 0.69768 0.31731 0.9899 0.0
H829 H 0.65546 0.37064 0.87507 0.0
H830 H 0.66197 0.39546 0.97859 0.0
H831 H 0.65434 0.29084 0.89088 0.0
H832 H 0.65927 0.38092 0.91234 0.0
H833 H 0.68481 0.30795 0.95312 0.0
C834 C 0.68716 0.33252 0.97962 0.0
C835 C 0.68118 0.35723 0.98729 0.0
C836 C 0.65795 0.36118 0.9076 0.0
C837 C 0.66633 0.34666 0.945 0.0
C838 C 0.65557 0.35528 0.88632 0.0
C839 C 0.65524 0.32979 0.8797 0.0
C840 C 0.66027 0.34147 0.92236 0.0
C841 C 0.65577 0.31075 0.89509 0.0
C842 C 0.67955 0.32715 0.95863 0.0
C843 C 0.66684 0.37613 0.97332 0.0
N844 N 0.65862 0.31697 0.91559 0.0
N845 N 0.6603 0.37052 0.95278 0.0
H846 H 0.90468 0.155 0.49755 0.0
H847 H 0.82856 0.14664 0.37775 0.0
H848 H 0.77418 0.12588 0.47771 0.0
H849 H 0.9544 0.18082 0.39851 0.0
H850 H 0.81004 0.13618 0.41398 0.0
H851 H 0.92529 0.16201 0.46114 0.0
C852 C 0.88045 0.14988 0.48553 0.0
C853 C 0.83758 0.13983 0.49076 0.0
C854 C 0.84175 0.14592 0.4106 0.0
C855 C 0.86086 0.14809 0.44889 0.0
C856 C 0.85249 0.15174 0.3899 0.0
C857 C 0.893 0.16476 0.38507 0.0
C858 C 0.87182 0.15304 0.42662 0.0
C859 C 0.92247 0.17114 0.40151 0.0
C860 C 0.89216 0.15404 0.46472 0.0
C861 C 0.80737 0.13396 0.47446 0.0
N862 N 0.91128 0.16526 0.4215 0.0
N863 N 0.81958 0.13817 0.45428 0.0
H864 H 0.8555 0.91711 0.98599 0.0
H865 H 0.83302 0.85753 0.87141 0.0
H866 H 0.7956 0.84321 0.97482 0.0
H867 H 0.86314 0.93637 0.88408 0.0
H868 H 0.82864 0.84954 0.90919 0.0
H869 H 0.86804 0.92201 0.94868 0.0
C870 C 0.84538 0.90176 0.97571 0.0
C871 C 0.82448 0.87968 0.98363 0.0
C872 C 0.83639 0.86854 0.90365 0.0
C873 C 0.83833 0.88535 0.9406 0.0
C874 C 0.83917 0.87306 0.88214 0.0
C875 C 0.84804 0.89769 0.87464 0.0
C876 C 0.84314 0.88876 0.91768 0.0
C877 C 0.85558 0.91717 0.88919 0.0
C878 C 0.85227 0.90466 0.95434 0.0
C879 C 0.8114 0.86065 0.96941 0.0
N880 N 0.85291 0.9123 0.90994 0.0
N881 N 0.81854 0.86391 0.94858 0.0
H882 H 0.7245 0.64724 0.47492 0.0
H883 H 0.53972 0.59096 0.39594 0.0
H884 H 0.62325 0.59141 0.49224 0.0
H885 H 0.67154 0.61671 0.37471 0.0
H886 H 0.56305 0.59927 0.43175 0.0
H887 H 0.69884 0.64404 0.43844 0.0
C888 C 0.69673 0.63446 0.47104 0.0
C889 C 0.67613 0.61941 0.48652 0.0
C890 C 0.5868 0.60318 0.41923 0.0
C891 C 0.64636 0.61596 0.44515 0.0
C892 C 0.57363 0.59833 0.39874 0.0
C893 C 0.60399 0.60259 0.38216 0.0
C894 C 0.63049 0.61275 0.42335 0.0
C895 C 0.6469 0.6131 0.38689 0.0
C896 C 0.68228 0.63258 0.45028 0.0
C897 C 0.64036 0.60312 0.48072 0.0
N898 N 0.65897 0.61771 0.40706 0.0
N899 N 0.62651 0.6019 0.46055 0.0
H900 H 0.37753 0.61154 0.02767 0.0
H901 H 0.36119 0.70888 0.12331 0.0
H902 H 0.30672 0.68297 0.02463 0.0
H903 H 0.43598 0.6387 0.12568 0.0
H904 H 0.33986 0.69939 0.08734 0.0
H905 H 0.39795 0.62072 0.06381 0.0
C906 C 0.36641 0.62921 0.03456 0.0
C907 C 0.34047 0.64654 0.02303 0.0
C908 C 0.36093 0.68605 0.09573 0.0
C909 C 0.36345 0.65709 0.06453 0.0
C910 C 0.37337 0.69154 0.11624 0.0
C911 C 0.40052 0.6746 0.12758 0.0
C912 C 0.37573 0.66344 0.08639 0.0
C913 C 0.41458 0.65219 0.11767 0.0
C914 C 0.3779 0.63438 0.05525 0.0
C915 C 0.32634 0.66891 0.03295 0.0
N916 N 0.40208 0.64729 0.09766 0.0
N917 N 0.3381 0.67356 0.05308 0.0
H918 H 0.16049 0.89343 0.53 0.0
H919 H 0.06729 0.79466 0.6131 0.0
H920 H 0.15185 0.81298 0.51657 0.0
H921 H 0.1496 0.85939 0.63134 0.0
H922 H 0.08485 0.80395 0.57668 0.0
H923 H 0.14349 0.88413 0.56647 0.0
C924 C 0.15536 0.87381 0.53459 0.0
C925 C 0.15793 0.85399 0.51991 0.0
C926 C 0.09893 0.81607 0.58874 0.0
C927 C 0.13676 0.84347 0.56171 0.0
C928 C 0.08922 0.81072 0.60961 0.0
C929 C 0.10706 0.82614 0.62561 0.0
C930 C 0.12586 0.8373 0.58368 0.0
C931 C 0.13421 0.84715 0.61975 0.0
C932 C 0.14533 0.8686 0.55545 0.0
C933 C 0.14947 0.82904 0.527 0.0
N934 N 0.14254 0.85217 0.5993 0.0
N935 N 0.13903 0.82454 0.54733 0.0
H936 H 0.22016 0.25691 0.35367 0.0
H937 H 0.9944 0.21563 0.29226 0.0
H938 H 0.097 0.30088 0.35456 0.0
H939 H 0.11266 0.16831 0.29829 0.0
H940 H 0.03125 0.24753 0.31451 0.0
H941 H 0.18141 0.2247 0.33275 0.0
C942 C 0.18483 0.25972 0.34965 0.0
C943 C 0.16186 0.28169 0.35599 0.0
C944 C 0.04904 0.23011 0.31102 0.0
C945 C 0.1173 0.2449 0.33166 0.0
C946 C 0.02783 0.2118 0.29848 0.0
C947 C 0.05025 0.18916 0.29361 0.0
C948 C 0.09314 0.2258 0.31858 0.0
C949 C 0.09416 0.18555 0.30155 0.0
C950 C 0.16276 0.24136 0.33756 0.0
C951 C 0.1163 0.28444 0.34985 0.0
N952 N 0.11415 0.20366 0.3136 0.0
N953 N 0.09555 0.26629 0.33803 0.0
H954 H 0.34066 0.24868 0.88011 0.0
H955 H 0.4491 0.28479 0.76935 0.0
H956 H 0.33715 0.19913 0.82653 0.0
H957 H 0.44112 0.33743 0.82064 0.0
H958 H 0.40932 0.25286 0.79036 0.0
H959 H 0.37842 0.28124 0.85891 0.0
C960 C 0.34757 0.24467 0.86387 0.0
C961 C 0.33579 0.22104 0.85514 0.0
C962 C 0.41617 0.27139 0.79705 0.0
C963 C 0.37953 0.25817 0.83083 0.0
C964 C 0.43864 0.28965 0.78501 0.0
C965 C 0.44773 0.31385 0.79317 0.0
C966 C 0.40321 0.27726 0.81756 0.0
C967 C 0.43468 0.31896 0.81376 0.0
C968 C 0.36936 0.26324 0.8518 0.0
C969 C 0.34623 0.21686 0.83406 0.0
N970 N 0.41299 0.30082 0.82525 0.0
N971 N 0.3675 0.2352 0.82266 0.0
H972 H 0.67454 0.19951 0.68738 0.0
H973 H 0.54147 0.33107 0.6932 0.0
H974 H 0.64989 0.24681 0.63365 0.0
H975 H 0.59367 0.29244 0.74747 0.0
H976 H 0.57667 0.29908 0.67108 0.0
H977 H 0.64048 0.23195 0.70956 0.0
C978 C 0.66174 0.21669 0.68024 0.0
C979 C 0.6649 0.22043 0.65862 0.0
C980 C 0.58053 0.29764 0.68782 0.0
C981 C 0.62606 0.25771 0.68394 0.0
C982 C 0.56032 0.31588 0.7005 0.0
C983 C 0.56456 0.31447 0.72227 0.0
C984 C 0.60486 0.27767 0.69695 0.0
C985 C 0.58957 0.29435 0.73078 0.0
C986 C 0.64259 0.23527 0.69293 0.0
C987 C 0.6484 0.24323 0.65025 0.0
N988 N 0.6086 0.27669 0.7181 0.0
N989 N 0.62949 0.26095 0.66291 0.0
H990 H 0.89457 0.2768 0.13736 0.0
H991 H 0.9056 0.21067 0.24911 0.0
H992 H 0.78749 0.28406 0.18279 0.0
H993 H 0.97466 0.18064 0.1952 0.0
H994 H 0.86953 0.24232 0.22671 0.0
H995 H 0.93213 0.246 0.16018 0.0
C996 C 0.87907 0.27194 0.15217 0.0
C997 C 0.83781 0.2829 0.15819 0.0
C998 C 0.89252 0.22872 0.21984 0.0
C999 C 0.88068 0.24794 0.18438 0.0
C1000 C 0.91307 0.21059 0.23259 0.0
C1001 C 0.94256 0.19253 0.22401 0.0
C1002 C 0.90234 0.22923 0.19844 0.0
C1003 C 0.95186 0.19395 0.20254 0.0
C1004 C 0.90037 0.25432 0.16512 0.0
C1005 C 0.81904 0.27585 0.17748 0.0
N1006 N 0.93189 0.21197 0.19052 0.0
N1007 N 0.84074 0.25892 0.18996 0.0
H1008 H 0.79059 0.74926 0.64923 0.0
H1009 H 0.00448 0.78298 0.72162 0.0
H1010 H 0.90725 0.70075 0.65498 0.0
H1011 H 0.8934 0.83412 0.71039 0.0
H1012 H 0.97022 0.75266 0.69717 0.0
H1013 H 0.8283 0.78071 0.67148 0.0
C1014 C 0.82426 0.7453 0.65517 0.0
C1015 C 0.84586 0.72241 0.65032 0.0
C1016 C 0.95332 0.77051 0.70006 0.0
C1017 C 0.88915 0.75817 0.67595 0.0
C1018 C 0.97292 0.78784 0.71397 0.0
C1019 C 0.95144 0.81098 0.71821 0.0
C1020 C 0.91191 0.77637 0.69034 0.0
C1021 C 0.91054 0.81627 0.70795 0.0
C1022 C 0.84582 0.76325 0.66784 0.0
C1023 C 0.88963 0.71828 0.65824 0.0
N1024 N 0.89204 0.79908 0.69456 0.0
N1025 N 0.90973 0.73591 0.67081 0.0
H1026 H 0.59912 0.79718 0.1504 0.0
H1027 H 0.62382 0.66701 0.21372 0.0
H1028 H 0.72597 0.75762 0.15747 0.0
H1029 H 0.51061 0.71744 0.22215 0.0
H1030 H 0.6587 0.69785 0.1901 0.0
H1031 H 0.56247 0.76563 0.17319 0.0
C1032 C 0.61914 0.78173 0.15659 0.0
C1033 C 0.66569 0.78005 0.15207 0.0
C1034 C 0.62621 0.70221 0.1971 0.0
C1035 C 0.6241 0.74401 0.17818 0.0
C1036 C 0.60642 0.68467 0.21072 0.0
C1037 C 0.56444 0.68974 0.2201 0.0
C1038 C 0.60355 0.7249 0.19248 0.0
C1039 C 0.54282 0.71265 0.21512 0.0
C1040 C 0.59831 0.76387 0.16972 0.0
C1041 C 0.69012 0.75979 0.16071 0.0
N1042 N 0.56257 0.72938 0.20161 0.0
N1043 N 0.66904 0.74256 0.1733 0.0
H1044 H 0.28145 0.77777 0.32807 0.0
H1045 H 0.45994 0.66958 0.31971 0.0
H1046 H 0.39128 0.77522 0.37287 0.0
H1047 H 0.43147 0.71542 0.26546 0.0
H1048 H 0.42101 0.70094 0.34139 0.0
H1049 H 0.32225 0.74748 0.30646 0.0
C1050 C 0.31413 0.77116 0.33343 0.0
C1051 C 0.3329 0.77962 0.35244 0.0
C1052 C 0.42334 0.70398 0.32473 0.0
C1053 C 0.37846 0.74383 0.32798 0.0
C1054 C 0.44554 0.6862 0.31233 0.0
C1055 C 0.44896 0.68986 0.29069 0.0
C1056 C 0.40319 0.72511 0.31534 0.0
C1057 C 0.42912 0.71164 0.28201 0.0
C1058 C 0.33712 0.75367 0.32107 0.0
C1059 C 0.37474 0.7692 0.35865 0.0
N1060 N 0.40654 0.72832 0.29434 0.0
N1061 N 0.3959 0.75172 0.34653 0.0
H1062 H 0.16186 0.74622 0.87859 0.0
H1063 H 0.07075 0.7822 0.76464 0.0
H1064 H 0.17367 0.697 0.82511 0.0
H1065 H 0.0623 0.83229 0.81765 0.0
H1066 H 0.1081 0.75057 0.78661 0.0
H1067 H 0.12403 0.77768 0.85669 0.0
C1068 C 0.15625 0.74196 0.86227 0.0
C1069 C 0.17104 0.71894 0.85368 0.0
C1070 C 0.09812 0.76848 0.79345 0.0
C1071 C 0.12814 0.75498 0.82846 0.0
C1072 C 0.07697 0.78655 0.7809 0.0
C1073 C 0.06359 0.80987 0.78936 0.0
C1074 C 0.10584 0.77376 0.81463 0.0
C1075 C 0.07195 0.81447 0.81055 0.0
C1076 C 0.1349 0.75999 0.84974 0.0
C1077 C 0.16342 0.71462 0.83236 0.0
N1078 N 0.09254 0.79657 0.82247 0.0
N1079 N 0.1425 0.73245 0.8205 0.0
loop_
_geom_bond_atom_site_label_1
_geom_bond_atom_site_label_2
_geom_bond_distance
_geom_bond_site_symmetry_2
_ccdc_geom_bond_type
C0 C1 1.386 . S
C0 C2 1.397 . S
C0 H24 0.931 . S
C1 C0 1.386 . S
C1 C5 1.397 . S
C2 C0 1.397 . S
C2 C3 1.384 . S
C2 H25 0.930 . S
C3 C2 1.384 . S
C3 C4 1.377 . S
C3 C6 1.481 . S
C4 C3 1.377 . S
C4 C5 1.389 . S
C4 H26 0.929 . S
C5 C1 1.397 . S
C5 C4 1.389 . S
C5 H27 0.931 . S
C6 C3 1.481 . S
C6 C7 1.387 . S
C6 C11 1.390 . S
C7 C6 1.387 . S
C7 C8 1.401 . S
C7 H28 0.930 . S
C8 C7 1.401 . S
C8 C9 1.376 . S
C8 C17 1.511 . S
C9 C8 1.376 . S
C9 C10 1.392 . S
C9 H30 0.931 . S
C10 C9 1.392 . S
C10 C11 1.361 . S
C10 C12 1.500 . S
C11 C6 1.390 . S
C11 C10 1.361 . S
C11 H29 0.931 . S
C12 C10 1.500 . S
C12 C13 1.371 . S
C12 C14 1.365 . S
C13 C12 1.371 . S
C13 C23 1.386 . S
C13 H31 0.931 . S
C14 C12 1.365 . S
C14 C15 1.409 . S
C14 H32 0.929 . S
C15 C14 1.409 . S
C15 C16 1.380 . S
C15 H33 0.930 . S
C16 C15 1.380 . S
C16 C23 1.357 . S
C17 C8 1.511 . S
C17 C18 1.341 . S
C17 C19 1.371 . S
C18 C17 1.341 . S
C18 C22 1.394 . S
C18 H34 0.930 . S
C19 C17 1.371 . S
C19 C20 1.392 . S
C19 H35 0.931 . S
C20 C19 1.392 . S
C20 C21 1.331 . S
C20 H38 0.932 . S
C21 C20 1.331 . S
C21 C22 1.336 . S
C22 C18 1.394 . S
C22 C21 1.336 . S
C22 H37 0.929 . S
C23 C13 1.386 . S
C23 C16 1.357 . S
C23 H36 0.928 . S
H24 C0 0.931 . S
H25 C2 0.930 . S
H26 C4 0.929 . S
H27 C5 0.931 . S
H28 C7 0.930 . S
H29 C11 0.931 . S
H30 C9 0.931 . S
H31 C13 0.931 . S
H32 C14 0.929 . S
H33 C15 0.930 . S
H34 C18 0.930 . S
H35 C19 0.931 . S
H36 C23 0.928 . S
H37 C22 0.929 . S
H38 C20 0.932 . S
C39 C40 1.386 . S
C39 C41 1.397 . S
C39 H63 0.931 . S
C40 C39 1.386 . S
C40 C44 1.397 . S
C41 C39 1.397 . S
C41 C42 1.384 . S
C41 H64 0.930 . S
C42 C41 1.384 . S
C42 C43 1.377 . S
C42 C45 1.481 . S
C43 C42 1.377 . S
C43 C44 1.389 . S
C43 H65 0.929 . S
C44 C40 1.397 . S
C44 C43 1.389 . S
C44 H66 0.931 . S
C45 C42 1.481 . S
C45 C46 1.387 . S
C45 C50 1.390 . S
C46 C45 1.387 . S
C46 C47 1.401 . S
C46 H67 0.930 . S
C47 C46 1.401 . S
C47 C48 1.376 . S
C47 C56 1.511 . S
C48 C47 1.376 . S
C48 C49 1.392 . S
C48 H69 0.931 . S
C49 C48 1.392 . S
C49 C50 1.361 . S
C49 C51 1.500 . S
C50 C45 1.390 . S
C50 C49 1.361 . S
C50 H68 0.931 . S
C51 C49 1.500 . S
C51 C52 1.371 . S
C51 C53 1.365 . S
C52 C51 1.371 . S
C52 C62 1.386 . S
C52 H70 0.931 . S
C53 C51 1.365 . S
C53 C54 1.409 . S
C53 H71 0.929 . S
C54 C53 1.409 . S
C54 C55 1.380 . S
C54 H72 0.930 . S
C55 C54 1.380 . S
C55 C62 1.357 . S
C56 C47 1.511 . S
C56 C57 1.341 . S
C56 C58 1.371 . S
C57 C56 1.341 . S
C57 C61 1.394 . S
C57 H73 0.930 . S
C58 C56 1.371 . S
C58 C59 1.392 . S
C58 H74 0.931 . S
C59 C58 1.392 . S
C59 C60 1.331 . S
C59 H77 0.932 . S
C60 C59 1.331 . S
C60 C61 1.336 . S
C61 C57 1.394 . S
C61 C60 1.336 . S
C61 H76 0.929 . S
C62 C52 1.386 . S
C62 C55 1.357 . S
C62 H75 0.928 . S
H63 C39 0.931 . S
H64 C41 0.930 . S
H65 C43 0.929 . S
H66 C44 0.931 . S
H67 C46 0.930 . S
H68 C50 0.931 . S
H69 C48 0.931 . S
H70 C52 0.931 . S
H71 C53 0.929 . S
H72 C54 0.930 . S
H73 C57 0.930 . S
H74 C58 0.931 . S
H75 C62 0.928 . S
H76 C61 0.929 . S
H77 C59 0.932 . S
C78 C79 1.386 . S
C78 C80 1.397 . S
C78 H102 0.931 . S
C79 C78 1.386 . S
C79 C83 1.397 . S
C80 C78 1.397 . S
C80 C81 1.384 . S
C80 H103 0.930 . S
C81 C80 1.384 . S
C81 C82 1.377 . S
C81 C84 1.481 . S
C82 C81 1.377 . S
C82 C83 1.389 . S
C82 H104 0.929 . S
C83 C79 1.397 . S
C83 C82 1.389 . S
C83 H105 0.931 . S
C84 C81 1.481 . S
C84 C85 1.387 . S
C84 C89 1.390 . S
C85 C84 1.387 . S
C85 C86 1.401 . S
C85 H106 0.930 . S
C86 C85 1.401 . S
C86 C87 1.376 . S
C86 C95 1.511 . S
C87 C86 1.376 . S
C87 C88 1.392 . S
C87 H108 0.931 . S
C88 C87 1.392 . S
C88 C89 1.361 . S
C88 C90 1.500 . S
C89 C84 1.390 . S
C89 C88 1.361 . S
C89 H107 0.931 . S
C90 C88 1.500 . S
C90 C91 1.371 . S
C90 C92 1.365 . S
C91 C90 1.371 . S
C91 C101 1.386 . S
C91 H109 0.931 . S
C92 C90 1.365 . S
C92 C93 1.409 . S
C92 H110 0.929 . S
C93 C92 1.409 . S
C93 C94 1.380 . S
C93 H111 0.930 . S
C94 C93 1.380 . S
C94 C101 1.357 . S
C95 C86 1.511 . S
C95 C96 1.341 . S
C95 C97 1.371 . S
C96 C95 1.341 . S
C96 C100 1.394 . S
C96 H112 0.930 . S
C97 C95 1.371 . S
C97 C98 1.392 . S
C97 H113 0.931 . S
C98 C97 1.392 . S
C98 C99 1.331 . S
C98 H116 0.932 . S
C99 C98 1.331 . S
C99 C100 1.336 . S
C100 C96 1.394 . S
C100 C99 1.336 . S
C100 H115 0.929 . S
C101 C91 1.386 . S
C101 C94 1.357 . S
C101 H114 0.928 . S
H102 C78 0.931 . S
H103 C80 0.930 . S
H104 C82 0.929 . S
H105 C83 0.931 . S
H106 C85 0.930 . S
H107 C89 0.931 . S
H108 C87 0.931 . S
H109 C91 0.931 . S
H110 C92 0.929 . S
H111 C93 0.930 . S
H112 C96 0.930 . S
H113 C97 0.931 . S
H114 C101 0.928 . S
H115 C100 0.929 . S
H116 C98 0.932 . S
C117 C118 1.386 . S
C117 C119 1.397 . S
C117 H141 0.931 . S
C118 C117 1.386 . S
C118 C122 1.397 . S
C119 C117 1.397 . S
C119 C120 1.384 . S
C119 H142 0.930 . S
C120 C119 1.384 . S
C120 C121 1.377 . S
C120 C123 1.481 . S
C121 C120 1.377 . S
C121 C122 1.389 . S
C121 H143 0.929 . S
C122 C118 1.397 . S
C122 C121 1.389 . S
C122 H144 0.931 . S
C123 C120 1.481 . S
C123 C124 1.387 . S
C123 C128 1.390 . S
C124 C123 1.387 . S
C124 C125 1.401 . S
C124 H145 0.930 . S
C125 C124 1.401 . S
C125 C126 1.376 . S
C125 C134 1.511 . S
C126 C125 1.376 . S
C126 C127 1.392 . S
C126 H147 0.931 . S
C127 C126 1.392 . S
C127 C128 1.361 . S
C127 C129 1.500 . S
C128 C123 1.390 . S
C128 C127 1.361 . S
C128 H146 0.931 . S
C129 C127 1.500 . S
C129 C130 1.371 . S
C129 C131 1.365 . S
C130 C129 1.371 . S
C130 C140 1.386 . S
C130 H148 0.931 . S
C131 C129 1.365 . S
C131 C132 1.409 . S
C131 H149 0.929 . S
C132 C131 1.409 . S
C132 C133 1.380 . S
C132 H150 0.930 . S
C133 C132 1.380 . S
C133 C140 1.357 . S
C134 C125 1.511 . S
C134 C135 1.341 . S
C134 C136 1.371 . S
C135 C134 1.341 . S
C135 C139 1.394 . S
C135 H151 0.930 . S
C136 C134 1.371 . S
C136 C137 1.392 . S
C136 H152 0.931 . S
C137 C136 1.392 . S
C137 C138 1.331 . S
C137 H155 0.932 . S
C138 C137 1.331 . S
C138 C139 1.336 . S
C139 C135 1.394 . S
C139 C138 1.336 . S
C139 H154 0.929 . S
C140 C130 1.386 . S
C140 C133 1.357 . S
C140 H153 0.928 . S
H141 C117 0.931 . S
H142 C119 0.930 . S
H143 C121 0.929 . S
H144 C122 0.931 . S
H145 C124 0.930 . S
H146 C128 0.931 . S
H147 C126 0.931 . S
H148 C130 0.931 . S
H149 C131 0.929 . S
H150 C132 0.930 . S
H151 C135 0.930 . S
H152 C136 0.931 . S
H153 C140 0.928 . S
H154 C139 0.929 . S
H155 C137 0.932 . S
C156 C157 1.386 . S
C156 C158 1.397 . S
C156 H180 0.931 . S
C157 C156 1.386 . S
C157 C161 1.397 . S
C158 C156 1.397 . S
C158 C159 1.384 . S
C158 H181 0.930 . S
C159 C158 1.384 . S
C159 C160 1.377 . S
C159 C162 1.481 . S
C160 C159 1.377 . S
C160 C161 1.389 . S
C160 H182 0.929 . S
C161 C157 1.397 . S
C161 C160 1.389 . S
C161 H183 0.931 . S
C162 C159 1.481 . S
C162 C163 1.387 . S
C162 C167 1.390 . S
C163 C162 1.387 . S
C163 C164 1.401 . S
C163 H184 0.930 . S
C164 C163 1.401 . S
C164 C165 1.376 . S
C164 C173 1.511 . S
C165 C164 1.376 . S
C165 C166 1.392 . S
C165 H186 0.931 . S
C166 C165 1.392 . S
C166 C167 1.361 . S
C166 C168 1.500 . S
C167 C162 1.390 . S
C167 C166 1.361 . S
C167 H185 0.931 . S
C168 C166 1.500 . S
C168 C169 1.371 . S
C168 C170 1.365 . S
C169 C168 1.371 . S
C169 C179 1.386 . S
C169 H187 0.931 . S
C170 C168 1.365 . S
C170 C171 1.409 . S
C170 H188 0.929 . S
C171 C170 1.409 . S
C171 C172 1.380 . S
C171 H189 0.930 . S
C172 C171 1.380 . S
C172 C179 1.357 . S
C173 C164 1.511 . S
C173 C174 1.341 . S
C173 C175 1.371 . S
C174 C173 1.341 . S
C174 C178 1.394 . S
C174 H190 0.930 . S
C175 C173 1.371 . S
C175 C176 1.392 . S
C175 H191 0.931 . S
C176 C175 1.392 . S
C176 C177 1.331 . S
C176 H194 0.932 . S
C177 C176 1.331 . S
C177 C178 1.336 . S
C178 C174 1.394 . S
C178 C177 1.336 . S
C178 H193 0.929 . S
C179 C169 1.386 . S
C179 C172 1.357 . S
C179 H192 0.928 . S
H180 C156 0.931 . S
H181 C158 0.930 . S
H182 C160 0.929 . S
H183 C161 0.931 . S
H184 C163 0.930 . S
H185 C167 0.931 . S
H186 C165 0.931 . S
H187 C169 0.931 . S
H188 C170 0.929 . S
H189 C171 0.930 . S
H190 C174 0.930 . S
H191 C175 0.931 . S
H192 C179 0.928 . S
H193 C178 0.929 . S
H194 C176 0.932 . S
C195 C196 1.386 . S
C195 C197 1.397 . S
C195 H219 0.931 . S
C196 C195 1.386 . S
C196 C200 1.397 . S
C197 C195 1.397 . S
C197 C198 1.384 . S
C197 H220 0.930 . S
C198 C197 1.384 . S
C198 C199 1.377 . S
C198 C201 1.481 . S
C199 C198 1.377 . S
C199 C200 1.389 . S
C199 H221 0.929 . S
C200 C196 1.397 . S
C200 C199 1.389 . S
C200 H222 0.931 . S
C201 C198 1.481 . S
C201 C202 1.387 . S
C201 C206 1.390 . S
C202 C201 1.387 . S
C202 C203 1.401 . S
C202 H223 0.930 . S
C203 C202 1.401 . S
C203 C204 1.376 . S
C203 C212 1.511 . S
C204 C203 1.376 . S
C204 C205 1.392 . S
C204 H225 0.931 . S
C205 C204 1.392 . S
C205 C206 1.361 . S
C205 C207 1.500 . S
C206 C201 1.390 . S
C206 C205 1.361 . S
C206 H224 0.931 . S
C207 C205 1.500 . S
C207 C208 1.371 . S
C207 C209 1.365 . S
C208 C207 1.371 . S
C208 C218 1.386 . S
C208 H226 0.931 . S
C209 C207 1.365 . S
C209 C210 1.409 . S
C209 H227 0.929 . S
C210 C209 1.409 . S
C210 C211 1.380 . S
C210 H228 0.930 . S
C211 C210 1.380 . S
C211 C218 1.357 . S
C212 C203 1.511 . S
C212 C213 1.341 . S
C212 C214 1.371 . S
C213 C212 1.341 . S
C213 C217 1.394 . S
C213 H229 0.930 . S
C214 C212 1.371 . S
C214 C215 1.392 . S
C214 H230 0.931 . S
C215 C214 1.392 . S
C215 C216 1.331 . S
C215 H233 0.932 . S
C216 C215 1.331 . S
C216 C217 1.336 . S
C217 C213 1.394 . S
C217 C216 1.336 . S
C217 H232 0.929 . S
C218 C208 1.386 . S
C218 C211 1.357 . S
C218 H231 0.928 . S
H219 C195 0.931 . S
H220 C197 0.930 . S
H221 C199 0.929 . S
H222 C200 0.931 . S
H223 C202 0.930 . S
H224 C206 0.931 . S
H225 C204 0.931 . S
H226 C208 0.931 . S
H227 C209 0.929 . S
H228 C210 0.930 . S
H229 C213 0.930 . S
H230 C214 0.931 . S
H231 C218 0.928 . S
H232 C217 0.929 . S
H233 C215 0.932 . S
C234 C235 1.386 . S
C234 C236 1.397 . S
C234 H258 0.931 . S
C235 C234 1.386 . S
C235 C239 1.397 . S
C236 C234 1.397 . S
C236 C237 1.384 . S
C236 H259 0.930 . S
C237 C236 1.384 . S
C237 C238 1.377 . S
C237 C240 1.481 . S
C238 C237 1.377 . S
C238 C239 1.389 . S
C238 H260 0.929 . S
C239 C235 1.397 . S
C239 C238 1.389 . S
C239 H261 0.931 . S
C240 C237 1.481 . S
C240 C241 1.387 . S
C240 C245 1.390 . S
C241 C240 1.387 . S
C241 C242 1.401 . S
C241 H262 0.930 . S
C242 C241 1.401 . S
C242 C243 1.376 . S
C242 C251 1.511 . S
C243 C242 1.376 . S
C243 C244 1.392 . S
C243 H264 0.931 . S
C244 C243 1.392 . S
C244 C245 1.361 . S
C244 C246 1.500 . S
C245 C240 1.390 . S
C245 C244 1.361 . S
C245 H263 0.931 . S
C246 C244 1.500 . S
C246 C247 1.371 . S
C246 C248 1.365 . S
C247 C246 1.371 . S
C247 C257 1.386 . S
C247 H265 0.931 . S
C248 C246 1.365 . S
C248 C249 1.409 . S
C248 H266 0.929 . S
C249 C248 1.409 . S
C249 C250 1.380 . S
C249 H267 0.930 . S
C250 C249 1.380 . S
C250 C257 1.357 . S
C251 C242 1.511 . S
C251 C252 1.341 . S
C251 C253 1.371 . S
C252 C251 1.341 . S
C252 C256 1.394 . S
C252 H268 0.930 . S
C253 C251 1.371 . S
C253 C254 1.392 . S
C253 H269 0.931 . S
C254 C253 1.392 . S
C254 C255 1.331 . S
C254 H272 0.932 . S
C255 C254 1.331 . S
C255 C256 1.336 . S
C256 C252 1.394 . S
C256 C255 1.336 . S
C256 H271 0.929 . S
C257 C247 1.386 . S
C257 C250 1.357 . S
C257 H270 0.928 . S
H258 C234 0.931 . S
H259 C236 0.930 . S
H260 C238 0.929 . S
H261 C239 0.931 . S
H262 C241 0.930 . S
H263 C245 0.931 . S
H264 C243 0.931 . S
H265 C247 0.931 . S
H266 C248 0.929 . S
H267 C249 0.930 . S
H268 C252 0.930 . S
H269 C253 0.931 . S
H270 C257 0.928 . S
H271 C256 0.929 . S
H272 C254 0.932 . S
C273 C274 1.386 . S
C273 C275 1.397 . S
C273 H297 0.931 . S
C274 C273 1.386 . S
C274 C278 1.397 . S
C275 C273 1.397 . S
C275 C276 1.384 . S
C275 H298 0.930 . S
C276 C275 1.384 . S
C276 C277 1.377 . S
C276 C279 1.481 . S
C277 C276 1.377 . S
C277 C278 1.389 . S
C277 H299 0.929 . S
C278 C274 1.397 . S
C278 C277 1.389 . S
C278 H300 0.931 . S
C279 C276 1.481 . S
C279 C280 1.387 . S
C279 C284 1.390 . S
C280 C279 1.387 . S
C280 C281 1.401 . S
C280 H301 0.930 . S
C281 C280 1.401 . S
C281 C282 1.376 . S
C281 C290 1.511 . S
C282 C281 1.376 . S
C282 C283 1.392 . S
C282 H303 0.931 . S
C283 C282 1.392 . S
C283 C284 1.361 . S
C283 C285 1.500 . S
C284 C279 1.390 . S
C284 C283 1.361 . S
C284 H302 0.931 . S
C285 C283 1.500 . S
C285 C286 1.371 . S
C285 C287 1.365 . S
C286 C285 1.371 . S
C286 C296 1.386 . S
C286 H304 0.931 . S
C287 C285 1.365 . S
C287 C288 1.409 . S
C287 H305 0.929 . S
C288 C287 1.409 . S
C288 C289 1.380 . S
C288 H306 0.930 . S
C289 C288 1.380 . S
C289 C296 1.357 . S
C290 C281 1.511 . S
C290 C291 1.341 . S
C290 C292 1.371 . S
C291 C290 1.341 . S
C291 C295 1.394 . S
C291 H307 0.930 . S
C292 C290 1.371 . S
C292 C293 1.392 . S
C292 H308 0.931 . S
C293 C292 1.392 . S
C293 C294 1.331 . S
C293 H311 0.932 . S
C294 C293 1.331 . S
C294 C295 1.336 . S
C295 C291 1.394 . S
C295 C294 1.336 . S
C295 H310 0.929 . S
C296 C286 1.386 . S
C296 C289 1.357 . S
C296 H309 0.928 . S
H297 C273 0.931 . S
H298 C275 0.930 . S
H299 C277 0.929 . S
H300 C278 0.931 . S
H301 C280 0.930 . S
H302 C284 0.931 . S
H303 C282 0.931 . S
H304 C286 0.931 . S
H305 C287 0.929 . S
H306 C288 0.930 . S
H307 C291 0.930 . S
H308 C292 0.931 . S
H309 C296 0.928 . S
H310 C295 0.929 . S
H311 C293 0.932 . S
Tb312 N341 2.617 . S
Tb312 N347 2.572 . S
Tb312 O356 2.465 . S
Tb312 O357 2.387 . S
Tb312 O359 2.428 . S
Tb312 O360 2.308 . S
Tb312 O364 2.349 . S
Tb312 O367 2.393 . S
Tb312 C376 2.802 . S
C313 N314 1.379 . S
C313 C316 1.416 . S
C313 C320 1.424 . S
N314 C313 1.379 . S
N314 C317 1.334 . S
N314 Tb323 2.617 . S
C315 C317 1.390 . S
C315 C318 1.339 . S
C315 H335 0.930 . S
C316 C313 1.416 . S
C316 C318 1.416 . S
C316 C322 1.448 . S
C317 N314 1.334 . S
C317 C315 1.390 . S
C317 H328 0.930 . S
C318 C315 1.339 . S
C318 C316 1.416 . S
C318 H339 0.930 . S
C319 C320 1.413 . S
C319 C321 1.427 . S
C319 C325 1.416 . S
C320 C313 1.424 . S
C320 C319 1.413 . S
C320 N324 1.361 . S
C321 C319 1.427 . S
C321 C322 1.328 . S
C321 H336 0.929 . S
C322 C316 1.448 . S
C322 C321 1.328 . S
C322 H337 0.930 . S
Tb323 N314 2.617 . S
Tb323 N324 2.572 . S
Tb323 O358 2.349 1_655 S
Tb323 O361 2.393 . S
Tb323 O362 2.465 . S
Tb323 O363 2.387 . S
Tb323 O365 2.428 . S
Tb323 O366 2.308 1_655 S
Tb323 C387 2.802 . S
N324 C320 1.361 . S
N324 Tb323 2.572 . S
N324 C326 1.340 . S
C325 C319 1.416 . S
C325 C327 1.332 . S
C325 H333 0.931 . S
C326 N324 1.340 . S
C326 C327 1.407 . S
C326 H332 0.930 . S
C327 C325 1.332 . S
C327 C326 1.407 . S
C327 H329 0.929 . S
H328 C317 0.930 . S
H329 C327 0.929 . S
H330 C345 0.930 . S
H331 C352 0.929 . S
H332 C326 0.930 . S
H333 C325 0.931 . S
H334 C348 0.930 . S
H335 C315 0.930 . S
H336 C321 0.929 . S
H337 C322 0.930 . S
H338 C343 0.930 . S
H339 C318 0.930 . S
H340 C351 0.931 . S
N341 Tb312 2.617 . S
N341 C342 1.379 . S
N341 C345 1.334 . S
C342 N341 1.379 . S
C342 C344 1.416 . S
C342 C350 1.424 . S
C343 H338 0.930 . S
C343 C345 1.390 . S
C343 C346 1.339 . S
C344 C342 1.416 . S
C344 C346 1.416 . S
C344 C377 1.448 . S
C345 H330 0.930 . S
C345 N341 1.334 . S
C345 C343 1.390 . S
C346 C343 1.339 . S
C346 C344 1.416 . S
C346 H353 0.930 . S
N347 Tb312 2.572 . S
N347 C348 1.340 . S
N347 C350 1.361 . S
C348 H334 0.930 . S
C348 N347 1.340 . S
C348 C352 1.407 . S
C349 C350 1.413 . S
C349 C351 1.416 . S
C349 C378 1.427 . S
C350 C342 1.424 . S
C350 N347 1.361 . S
C350 C349 1.413 . S
C351 H340 0.931 . S
C351 C349 1.416 . S
C351 C352 1.332 . S
C352 H331 0.929 . S
C352 C348 1.407 . S
C352 C351 1.332 . S
H353 C346 0.930 . S
H354 C377 0.930 . S
H355 C378 0.929 . S
O356 Tb312 2.465 . S
O356 C376 1.264 . S
O357 Tb312 2.387 . S
O357 C368 1.264 . S
O358 Tb323 2.349 1_455 S
O358 C368 1.243 . S
O359 Tb312 2.428 . S
O359 C376 1.256 . S
O360 Tb312 2.308 . S
O360 C375 1.266 1_455 S
O361 Tb323 2.393 . S
O361 C375 1.248 . S
O362 Tb323 2.465 . S
O362 C387 1.264 . S
O363 Tb323 2.387 . S
O363 C379 1.264 . S
O364 Tb312 2.349 . S
O364 C379 1.243 1_455 S
O365 Tb323 2.428 . S
O365 C387 1.256 . S
O366 Tb323 2.308 1_455 S
O366 C386 1.266 . S
O367 Tb312 2.393 . S
O367 C386 1.248 . S
C368 O357 1.264 . S
C368 O358 1.243 . S
C369 C372 1.399 . S
C369 C374 1.383 . S
C369 C376 1.496 . S
C370 C371 1.399 . S
C370 C374 1.389 . S
C371 C370 1.399 . S
C371 C373 1.380 . S
C371 H388 0.929 . S
C372 C369 1.399 . S
C372 C373 1.392 . S
C372 H389 0.929 . S
C373 C371 1.380 . S
C373 C372 1.392 . S
C373 H390 0.929 . S
C374 C369 1.383 . S
C374 C370 1.389 . S
C374 H391 0.931 . S
C375 O360 1.266 1_655 S
C375 O361 1.248 . S
C376 Tb312 2.802 . S
C376 O356 1.264 . S
C376 O359 1.256 . S
C376 C369 1.496 . S
C377 C344 1.448 . S
C377 H354 0.930 . S
C377 C378 1.328 . S
C378 C349 1.427 . S
C378 H355 0.929 . S
C378 C377 1.328 . S
C379 O363 1.264 . S
C379 O364 1.243 1_655 S
C380 C383 1.399 . S
C380 C384 1.383 . S
C380 C387 1.496 . S
C381 C382 1.399 . S
C381 C384 1.389 . S
C382 C381 1.399 . S
C382 C385 1.380 . S
C382 H392 0.929 . S
C383 C380 1.399 . S
C383 C385 1.392 . S
C383 H393 0.929 . S
C384 C380 1.383 . S
C384 C381 1.389 . S
C384 H394 0.931 . S
C385 C382 1.380 . S
C385 C383 1.392 . S
C385 H395 0.929 . S
C386 O366 1.266 . S
C386 O367 1.248 . S
C387 Tb323 2.802 . S
C387 O362 1.264 . S
C387 O365 1.256 . S
C387 C380 1.496 . S
H388 C371 0.929 . S
H389 C372 0.929 . S
H390 C373 0.929 . S
H391 C374 0.931 . S
H392 C382 0.929 . S
H393 C383 0.929 . S
H394 C384 0.931 . S
H395 C385 0.929 . S
Tb396 N425 2.617 . S
Tb396 N431 2.572 . S
Tb396 O440 2.465 . S
Tb396 O441 2.387 . S
Tb396 O443 2.428 . S
Tb396 O444 2.308 . S
Tb396 O448 2.349 . S
Tb396 O451 2.393 . S
Tb396 C460 2.802 . S
C397 N398 1.379 . S
C397 C400 1.416 . S
C397 C404 1.424 . S
N398 C397 1.379 . S
N398 C401 1.334 . S
N398 Tb407 2.617 . S
C399 C401 1.390 . S
C399 C402 1.339 . S
C399 H419 0.930 . S
C400 C397 1.416 . S
C400 C402 1.416 . S
C400 C406 1.448 . S
C401 N398 1.334 . S
C401 C399 1.390 . S
C401 H412 0.930 . S
C402 C399 1.339 . S
C402 C400 1.416 . S
C402 H423 0.930 . S
C403 C404 1.413 . S
C403 C405 1.427 . S
C403 C409 1.416 . S
C404 C397 1.424 . S
C404 C403 1.413 . S
C404 N408 1.361 . S
C405 C403 1.427 . S
C405 C406 1.328 . S
C405 H420 0.929 . S
C406 C400 1.448 . S
C406 C405 1.328 . S
C406 H421 0.930 . S
Tb407 N398 2.617 . S
Tb407 N408 2.572 . S
Tb407 O442 2.349 . S
Tb407 O445 2.393 . S
Tb407 O446 2.465 . S
Tb407 O447 2.387 . S
Tb407 O449 2.428 . S
Tb407 O450 2.308 . S
Tb407 C471 2.802 . S
N408 C404 1.361 . S
N408 Tb407 2.572 . S
N408 C410 1.340 . S
C409 C403 1.416 . S
C409 C411 1.332 . S
C409 H417 0.931 . S
C410 N408 1.340 . S
C410 C411 1.407 . S
C410 H416 0.930 . S
C411 C409 1.332 . S
C411 C410 1.407 . S
C411 H413 0.929 . S
H412 C401 0.930 . S
H413 C411 0.929 . S
H414 C429 0.930 . S
H415 C436 0.929 . S
H416 C410 0.930 . S
H417 C409 0.931 . S
H418 C432 0.930 . S
H419 C399 0.930 . S
H420 C405 0.929 . S
H421 C406 0.930 . S
H422 C427 0.930 . S
H423 C402 0.930 . S
H424 C435 0.931 . S
N425 Tb396 2.617 . S
N425 C426 1.379 . S
N425 C429 1.334 . S
C426 N425 1.379 . S
C426 C428 1.416 . S
C426 C434 1.424 . S
C427 H422 0.930 . S
C427 C429 1.390 . S
C427 C430 1.339 . S
C428 C426 1.416 . S
C428 C430 1.416 . S
C428 C461 1.448 . S
C429 H414 0.930 . S
C429 N425 1.334 . S
C429 C427 1.390 . S
C430 C427 1.339 . S
C430 C428 1.416 . S
C430 H437 0.930 . S
N431 Tb396 2.572 . S
N431 C432 1.340 . S
N431 C434 1.361 . S
C432 H418 0.930 . S
C432 N431 1.340 . S
C432 C436 1.407 . S
C433 C434 1.413 . S
C433 C435 1.416 . S
C433 C462 1.427 . S
C434 C426 1.424 . S
C434 N431 1.361 . S
C434 C433 1.413 . S
C435 H424 0.931 . S
C435 C433 1.416 . S
C435 C436 1.332 . S
C436 H415 0.929 . S
C436 C432 1.407 . S
C436 C435 1.332 . S
H437 C430 0.930 . S
H438 C461 0.930 . S
H439 C462 0.929 . S
O440 Tb396 2.465 . S
O440 C460 1.264 . S
O441 Tb396 2.387 . S
O441 C452 1.264 . S
O442 Tb407 2.349 . S
O442 C452 1.243 . S
O443 Tb396 2.428 . S
O443 C460 1.256 . S
O444 Tb396 2.308 . S
O444 C459 1.266 . S
O445 Tb407 2.393 . S
O445 C459 1.248 . S
O446 Tb407 2.465 . S
O446 C471 1.264 . S
O447 Tb407 2.387 . S
O447 C463 1.264 . S
O448 Tb396 2.349 . S
O448 C463 1.243 . S
O449 Tb407 2.428 . S
O449 C471 1.256 . S
O450 Tb407 2.308 . S
O450 C470 1.266 . S
O451 Tb396 2.393 . S
O451 C470 1.248 . S
C452 O441 1.264 . S
C452 O442 1.243 . S
C453 C456 1.399 . S
C453 C458 1.383 . S
C453 C460 1.496 . S
C454 C455 1.399 . S
C454 C458 1.389 . S
C455 C454 1.399 . S
C455 C457 1.380 . S
C455 H472 0.929 . S
C456 C453 1.399 . S
C456 C457 1.392 . S
C456 H473 0.929 . S
C457 C455 1.380 . S
C457 C456 1.392 . S
C457 H474 0.929 . S
C458 C453 1.383 . S
C458 C454 1.389 . S
C458 H475 0.931 . S
C459 O444 1.266 . S
C459 O445 1.248 . S
C460 Tb396 2.802 . S
C460 O440 1.264 . S
C460 O443 1.256 . S
C460 C453 1.496 . S
C461 C428 1.448 . S
C461 H438 0.930 . S
C461 C462 1.328 . S
C462 C433 1.427 . S
C462 H439 0.929 . S
C462 C461 1.328 . S
C463 O447 1.264 . S
C463 O448 1.243 . S
C464 C467 1.399 . S
C464 C468 1.383 . S
C464 C471 1.496 . S
C465 C466 1.399 . S
C465 C468 1.389 . S
C466 C465 1.399 . S
C466 C469 1.380 . S
C466 H476 0.929 . S
C467 C464 1.399 . S
C467 C469 1.392 . S
C467 H477 0.929 . S
C468 C464 1.383 . S
C468 C465 1.389 . S
C468 H478 0.931 . S
C469 C466 1.380 . S
C469 C467 1.392 . S
C469 H479 0.929 . S
C470 O450 1.266 . S
C470 O451 1.248 . S
C471 Tb407 2.802 . S
C471 O446 1.264 . S
C471 O449 1.256 . S
C471 C464 1.496 . S
H472 C455 0.929 . S
H473 C456 0.929 . S
H474 C457 0.929 . S
H475 C458 0.931 . S
H476 C466 0.929 . S
H477 C467 0.929 . S
H478 C468 0.931 . S
H479 C469 0.929 . S
Tb480 N509 2.617 . S
Tb480 N515 2.572 . S
Tb480 O524 2.465 . S
Tb480 O525 2.387 . S
Tb480 O527 2.428 . S
Tb480 O528 2.308 . S
Tb480 O532 2.349 . S
Tb480 O535 2.393 . S
Tb480 C544 2.802 . S
C481 N482 1.379 . S
C481 C484 1.416 . S
C481 C488 1.424 . S
N482 C481 1.379 . S
N482 C485 1.334 . S
N482 Tb491 2.617 . S
C483 C485 1.390 . S
C483 C486 1.339 . S
C483 H503 0.930 . S
C484 C481 1.416 . S
C484 C486 1.416 . S
C484 C490 1.448 . S
C485 N482 1.334 . S
C485 C483 1.390 . S
C485 H496 0.930 . S
C486 C483 1.339 . S
C486 C484 1.416 . S
C486 H507 0.930 . S
C487 C488 1.413 . S
C487 C489 1.427 . S
C487 C493 1.416 . S
C488 C481 1.424 . S
C488 C487 1.413 . S
C488 N492 1.361 . S
C489 C487 1.427 . S
C489 C490 1.328 . S
C489 H504 0.929 . S
C490 C484 1.448 . S
C490 C489 1.328 . S
C490 H505 0.930 . S
Tb491 N482 2.617 . S
Tb491 N492 2.572 . S
Tb491 O526 2.349 1_655 S
Tb491 O529 2.393 . S
Tb491 O530 2.465 . S
Tb491 O531 2.387 . S
Tb491 O533 2.428 . S
Tb491 O534 2.308 1_655 S
Tb491 C555 2.802 . S
N492 C488 1.361 . S
N492 Tb491 2.572 . S
N492 C494 1.340 . S
C493 C487 1.416 . S
C493 C495 1.332 . S
C493 H501 0.931 . S
C494 N492 1.340 . S
C494 C495 1.407 . S
C494 H500 0.930 . S
C495 C493 1.332 . S
C495 C494 1.407 . S
C495 H497 0.929 . S
H496 C485 0.930 . S
H497 C495 0.929 . S
H498 C513 0.930 . S
H499 C520 0.929 . S
H500 C494 0.930 . S
H501 C493 0.931 . S
H502 C516 0.930 . S
H503 C483 0.930 . S
H504 C489 0.929 . S
H505 C490 0.930 . S
H506 C511 0.930 . S
H507 C486 0.930 . S
H508 C519 0.931 . S
N509 Tb480 2.617 . S
N509 C510 1.379 . S
N509 C513 1.334 . S
C510 N509 1.379 . S
C510 C512 1.416 . S
C510 C518 1.424 . S
C511 H506 0.930 . S
C511 C513 1.390 . S
C511 C514 1.339 . S
C512 C510 1.416 . S
C512 C514 1.416 . S
C512 C545 1.448 . S
C513 H498 0.930 . S
C513 N509 1.334 . S
C513 C511 1.390 . S
C514 C511 1.339 . S
C514 C512 1.416 . S
C514 H521 0.930 . S
N515 Tb480 2.572 . S
N515 C516 1.340 . S
N515 C518 1.361 . S
C516 H502 0.930 . S
C516 N515 1.340 . S
C516 C520 1.407 . S
C517 C518 1.413 . S
C517 C519 1.416 . S
C517 C546 1.427 . S
C518 C510 1.424 . S
C518 N515 1.361 . S
C518 C517 1.413 . S
C519 H508 0.931 . S
C519 C517 1.416 . S
C519 C520 1.332 . S
C520 H499 0.929 . S
C520 C516 1.407 . S
C520 C519 1.332 . S
H521 C514 0.930 . S
H522 C545 0.930 . S
H523 C546 0.929 . S
O524 Tb480 2.465 . S
O524 C544 1.264 . S
O525 Tb480 2.387 . S
O525 C536 1.264 . S
O526 Tb491 2.349 1_455 S
O526 C536 1.243 . S
O527 Tb480 2.428 . S
O527 C544 1.256 . S
O528 Tb480 2.308 . S
O528 C543 1.266 1_455 S
O529 Tb491 2.393 . S
O529 C543 1.248 . S
O530 Tb491 2.465 . S
O530 C555 1.264 . S
O531 Tb491 2.387 . S
O531 C547 1.264 . S
O532 Tb480 2.349 . S
O532 C547 1.243 1_455 S
O533 Tb491 2.428 . S
O533 C555 1.256 . S
O534 Tb491 2.308 1_455 S
O534 C554 1.266 . S
O535 Tb480 2.393 . S
O535 C554 1.248 . S
C536 O525 1.264 . S
C536 O526 1.243 . S
C537 C540 1.399 . S
C537 C542 1.383 . S
C537 C544 1.496 . S
C538 C539 1.399 . S
C538 C542 1.389 . S
C539 C538 1.399 . S
C539 C541 1.380 . S
C539 H556 0.929 . S
C540 C537 1.399 . S
C540 C541 1.392 . S
C540 H557 0.929 . S
C541 C539 1.380 . S
C541 C540 1.392 . S
C541 H558 0.929 . S
C542 C537 1.383 . S
C542 C538 1.389 . S
C542 H559 0.931 . S
C543 O528 1.266 1_655 S
C543 O529 1.248 . S
C544 Tb480 2.802 . S
C544 O524 1.264 . S
C544 O527 1.256 . S
C544 C537 1.496 . S
C545 C512 1.448 . S
C545 H522 0.930 . S
C545 C546 1.328 . S
C546 C517 1.427 . S
C546 H523 0.929 . S
C546 C545 1.328 . S
C547 O531 1.264 . S
C547 O532 1.243 1_655 S
C548 C551 1.399 . S
C548 C552 1.383 . S
C548 C555 1.496 . S
C549 C550 1.399 . S
C549 C552 1.389 . S
C550 C549 1.399 . S
C550 C553 1.380 . S
C550 H560 0.929 . S
C551 C548 1.399 . S
C551 C553 1.392 . S
C551 H561 0.929 . S
C552 C548 1.383 . S
C552 C549 1.389 . S
C552 H562 0.931 . S
C553 C550 1.380 . S
C553 C551 1.392 . S
C553 H563 0.929 . S
C554 O534 1.266 . S
C554 O535 1.248 . S
C555 Tb491 2.802 . S
C555 O530 1.264 . S
C555 O533 1.256 . S
C555 C548 1.496 . S
H556 C539 0.929 . S
H557 C540 0.929 . S
H558 C541 0.929 . S
H559 C542 0.931 . S
H560 C550 0.929 . S
H561 C551 0.929 . S
H562 C552 0.931 . S
H563 C553 0.929 . S
Tb564 N593 2.617 . S
Tb564 N599 2.572 . S
Tb564 O608 2.465 . S
Tb564 O609 2.387 . S
Tb564 O611 2.428 . S
Tb564 O612 2.308 . S
Tb564 O616 2.349 . S
Tb564 O619 2.393 . S
Tb564 C628 2.802 . S
C565 N566 1.379 . S
C565 C568 1.416 . S
C565 C572 1.424 . S
N566 C565 1.379 . S
N566 C569 1.334 . S
N566 Tb575 2.617 . S
C567 C569 1.390 . S
C567 C570 1.339 . S
C567 H587 0.930 . S
C568 C565 1.416 . S
C568 C570 1.416 . S
C568 C574 1.448 . S
C569 N566 1.334 . S
C569 C567 1.390 . S
C569 H580 0.930 . S
C570 C567 1.339 . S
C570 C568 1.416 . S
C570 H591 0.930 . S
C571 C572 1.413 . S
C571 C573 1.427 . S
C571 C577 1.416 . S
C572 C565 1.424 . S
C572 C571 1.413 . S
C572 N576 1.361 . S
C573 C571 1.427 . S
C573 C574 1.328 . S
C573 H588 0.929 . S
C574 C568 1.448 . S
C574 C573 1.328 . S
C574 H589 0.930 . S
Tb575 N566 2.617 . S
Tb575 N576 2.572 . S
Tb575 O610 2.349 . S
Tb575 O613 2.393 . S
Tb575 O614 2.465 . S
Tb575 O615 2.387 . S
Tb575 O617 2.428 . S
Tb575 O618 2.308 . S
Tb575 C639 2.802 . S
N576 C572 1.361 . S
N576 Tb575 2.572 . S
N576 C578 1.340 . S
C577 C571 1.416 . S
C577 C579 1.332 . S
C577 H585 0.931 . S
C578 N576 1.340 . S
C578 C579 1.407 . S
C578 H584 0.930 . S
C579 C577 1.332 . S
C579 C578 1.407 . S
C579 H581 0.929 . S
H580 C569 0.930 . S
H581 C579 0.929 . S
H582 C597 0.930 . S
H583 C604 0.929 . S
H584 C578 0.930 . S
H585 C577 0.931 . S
H586 C600 0.930 . S
H587 C567 0.930 . S
H588 C573 0.929 . S
H589 C574 0.930 . S
H590 C595 0.930 . S
H591 C570 0.930 . S
H592 C603 0.931 . S
N593 Tb564 2.617 . S
N593 C594 1.379 . S
N593 C597 1.334 . S
C594 N593 1.379 . S
C594 C596 1.416 . S
C594 C602 1.424 . S
C595 H590 0.930 . S
C595 C597 1.390 . S
C595 C598 1.339 . S
C596 C594 1.416 . S
C596 C598 1.416 . S
C596 C629 1.448 . S
C597 H582 0.930 . S
C597 N593 1.334 . S
C597 C595 1.390 . S
C598 C595 1.339 . S
C598 C596 1.416 . S
C598 H605 0.930 . S
N599 Tb564 2.572 . S
N599 C600 1.340 . S
N599 C602 1.361 . S
C600 H586 0.930 . S
C600 N599 1.340 . S
C600 C604 1.407 . S
C601 C602 1.413 . S
C601 C603 1.416 . S
C601 C630 1.427 . S
C602 C594 1.424 . S
C602 N599 1.361 . S
C602 C601 1.413 . S
C603 H592 0.931 . S
C603 C601 1.416 . S
C603 C604 1.332 . S
C604 H583 0.929 . S
C604 C600 1.407 . S
C604 C603 1.332 . S
H605 C598 0.930 . S
H606 C629 0.930 . S
H607 C630 0.929 . S
O608 Tb564 2.465 . S
O608 C628 1.264 . S
O609 Tb564 2.387 . S
O609 C620 1.264 . S
O610 Tb575 2.349 . S
O610 C620 1.243 . S
O611 Tb564 2.428 . S
O611 C628 1.256 . S
O612 Tb564 2.308 . S
O612 C627 1.266 . S
O613 Tb575 2.393 . S
O613 C627 1.248 . S
O614 Tb575 2.465 . S
O614 C639 1.264 . S
O615 Tb575 2.387 . S
O615 C631 1.264 . S
O616 Tb564 2.349 . S
O616 C631 1.243 . S
O617 Tb575 2.428 . S
O617 C639 1.256 . S
O618 Tb575 2.308 . S
O618 C638 1.266 . S
O619 Tb564 2.393 . S
O619 C638 1.248 . S
C620 O609 1.264 . S
C620 O610 1.243 . S
C621 C624 1.399 . S
C621 C626 1.383 . S
C621 C628 1.496 . S
C622 C623 1.399 . S
C622 C626 1.389 . S
C623 C622 1.399 . S
C623 C625 1.380 . S
C623 H640 0.929 . S
C624 C621 1.399 . S
C624 C625 1.392 . S
C624 H641 0.929 . S
C625 C623 1.380 . S
C625 C624 1.392 . S
C625 H642 0.929 . S
C626 C621 1.383 . S
C626 C622 1.389 . S
C626 H643 0.931 . S
C627 O612 1.266 . S
C627 O613 1.248 . S
C628 Tb564 2.802 . S
C628 O608 1.264 . S
C628 O611 1.256 . S
C628 C621 1.496 . S
C629 C596 1.448 . S
C629 H606 0.930 . S
C629 C630 1.328 . S
C630 C601 1.427 . S
C630 H607 0.929 . S
C630 C629 1.328 . S
C631 O615 1.264 . S
C631 O616 1.243 . S
C632 C635 1.399 . S
C632 C636 1.383 . S
C632 C639 1.496 . S
C633 C634 1.399 . S
C633 C636 1.389 . S
C634 C633 1.399 . S
C634 C637 1.380 . S
C634 H644 0.929 . S
C635 C632 1.399 . S
C635 C637 1.392 . S
C635 H645 0.929 . S
C636 C632 1.383 . S
C636 C633 1.389 . S
C636 H646 0.931 . S
C637 C634 1.380 . S
C637 C635 1.392 . S
C637 H647 0.929 . S
C638 O618 1.266 . S
C638 O619 1.248 . S
C639 Tb575 2.802 . S
C639 O614 1.264 . S
C639 O617 1.256 . S
C639 C632 1.496 . S
H640 C623 0.929 . S
H641 C624 0.929 . S
H642 C625 0.929 . S
H643 C626 0.931 . S
H644 C634 0.929 . S
H645 C635 0.929 . S
H646 C636 0.931 . S
H647 C637 0.929 . S
H648 C654 0.930 . S
H649 C658 0.930 . S
H650 C663 0.929 . S
H651 C661 0.929 . S
H652 C656 0.929 . S
H653 C662 0.929 . S
C654 H648 0.930 . S
C654 C655 1.367 1_545 S
C654 C662 1.378 . S
C655 C654 1.367 1_565 S
C655 C663 1.433 . S
C656 H652 0.929 . S
C656 C658 1.378 . S
C656 C660 1.350 . S
C657 C660 1.463 . S
C657 C662 1.350 . S
C657 N665 1.427 . S
C658 H649 0.930 . S
C658 C656 1.378 . S
C658 C659 1.367 . S
C659 C658 1.367 . S
C659 C661 1.433 . S
C660 C656 1.350 . S
C660 C657 1.463 . S
C660 N664 1.427 . S
C661 H651 0.929 . S
C661 C659 1.433 . S
C661 N664 1.384 . S
C662 H653 0.929 . S
C662 C654 1.378 . S
C662 C657 1.350 . S
C663 H650 0.929 . S
C663 C655 1.433 . S
C663 N665 1.384 1_565 S
N664 C660 1.427 . S
N664 C661 1.384 . S
N665 C657 1.427 . S
N665 C663 1.384 1_545 S
H666 C672 0.930 . S
H667 C676 0.930 . S
H668 C681 0.929 . S
H669 C679 0.929 . S
H670 C674 0.929 . S
H671 C680 0.929 . S
C672 H666 0.930 . S
C672 C673 1.367 . S
C672 C680 1.378 . S
C673 C672 1.367 . S
C673 C681 1.433 . S
C674 H670 0.929 . S
C674 C676 1.378 . S
C674 C678 1.350 . S
C675 C678 1.463 . S
C675 C680 1.350 . S
C675 N683 1.427 . S
C676 H667 0.930 . S
C676 C674 1.378 . S
C676 C677 1.367 . S
C677 C676 1.367 . S
C677 C679 1.433 . S
C678 C674 1.350 . S
C678 C675 1.463 . S
C678 N682 1.427 . S
C679 H669 0.929 . S
C679 C677 1.433 . S
C679 N682 1.384 . S
C680 H671 0.929 . S
C680 C672 1.378 . S
C680 C675 1.350 . S
C681 H668 0.929 . S
C681 C673 1.433 . S
C681 N683 1.384 . S
N682 C678 1.427 . S
N682 C679 1.384 . S
N683 C675 1.427 . S
N683 C681 1.384 . S
H684 C690 0.930 . S
H685 C694 0.930 . S
H686 C699 0.929 . S
H687 C697 0.929 . S
H688 C692 0.929 . S
H689 C698 0.929 . S
C690 H684 0.930 . S
C690 C691 1.367 . S
C690 C698 1.378 . S
C691 C690 1.367 . S
C691 C699 1.433 . S
C692 H688 0.929 . S
C692 C694 1.378 . S
C692 C696 1.350 . S
C693 C696 1.463 . S
C693 C698 1.350 . S
C693 N701 1.427 . S
C694 H685 0.930 . S
C694 C692 1.378 . S
C694 C695 1.367 . S
C695 C694 1.367 . S
C695 C697 1.433 . S
C696 C692 1.350 . S
C696 C693 1.463 . S
C696 N700 1.427 . S
C697 H687 0.929 . S
C697 C695 1.433 . S
C697 N700 1.384 . S
C698 H689 0.929 . S
C698 C690 1.378 . S
C698 C693 1.350 . S
C699 H686 0.929 . S
C699 C691 1.433 . S
C699 N701 1.384 . S
N700 C696 1.427 . S
N700 C697 1.384 . S
N701 C693 1.427 . S
N701 C699 1.384 . S
H702 C708 0.930 . S
H703 C712 0.930 . S
H704 C717 0.929 . S
H705 C715 0.929 . S
H706 C710 0.929 . S
H707 C716 0.929 . S
C708 H702 0.930 . S
C708 C709 1.367 1_545 S
C708 C716 1.378 . S
C709 C708 1.367 1_565 S
C709 C717 1.433 . S
C710 H706 0.929 . S
C710 C712 1.378 . S
C710 C714 1.350 . S
C711 C714 1.463 . S
C711 C716 1.350 . S
C711 N719 1.427 . S
C712 H703 0.930 . S
C712 C710 1.378 . S
C712 C713 1.367 . S
C713 C712 1.367 . S
C713 C715 1.433 . S
C714 C710 1.350 . S
C714 C711 1.463 . S
C714 N718 1.427 . S
C715 H705 0.929 . S
C715 C713 1.433 . S
C715 N718 1.384 . S
C716 H707 0.929 . S
C716 C708 1.378 . S
C716 C711 1.350 . S
C717 H704 0.929 . S
C717 C709 1.433 . S
C717 N719 1.384 1_565 S
N718 C714 1.427 . S
N718 C715 1.384 . S
N719 C711 1.427 . S
N719 C717 1.384 1_545 S
H720 C726 0.930 . S
H721 C730 0.930 . S
H722 C735 0.929 . S
H723 C733 0.929 . S
H724 C728 0.929 . S
H725 C734 0.929 1_545 S
C726 H720 0.930 . S
C726 C727 1.367 . S
C726 C734 1.378 1_545 S
C727 C726 1.367 . S
C727 C735 1.433 1_545 S
C728 H724 0.929 . S
C728 C730 1.378 . S
C728 C732 1.350 . S
C729 C732 1.463 . S
C729 C734 1.350 . S
C729 N737 1.427 . S
C730 H721 0.930 . S
C730 C728 1.378 . S
C730 C731 1.367 . S
C731 C730 1.367 . S
C731 C733 1.433 . S
C732 C728 1.350 . S
C732 C729 1.463 . S
C732 N736 1.427 . S
C733 H723 0.929 . S
C733 C731 1.433 . S
C733 N736 1.384 . S
C734 H725 0.929 1_565 S
C734 C726 1.378 1_565 S
C734 C729 1.350 . S
C735 H722 0.929 . S
C735 C727 1.433 1_565 S
C735 N737 1.384 . S
N736 C732 1.427 . S
N736 C733 1.384 . S
N737 C729 1.427 . S
N737 C735 1.384 . S
H738 C744 0.930 . S
H739 C748 0.930 . S
H740 C753 0.929 . S
H741 C751 0.929 . S
H742 C746 0.929 . S
H743 C752 0.929 . S
C744 H738 0.930 . S
C744 C745 1.367 . S
C744 C752 1.378 . S
C745 C744 1.367 . S
C745 C753 1.433 . S
C746 H742 0.929 . S
C746 C748 1.378 . S
C746 C750 1.350 . S
C747 C750 1.463 . S
C747 C752 1.350 . S
C747 N755 1.427 . S
C748 H739 0.930 . S
C748 C746 1.378 . S
C748 C749 1.367 . S
C749 C748 1.367 . S
C749 C751 1.433 . S
C750 C746 1.350 . S
C750 C747 1.463 . S
C750 N754 1.427 . S
C751 H741 0.929 . S
C751 C749 1.433 . S
C751 N754 1.384 . S
C752 H743 0.929 . S
C752 C744 1.378 . S
C752 C747 1.350 . S
C753 H740 0.929 . S
C753 C745 1.433 . S
C753 N755 1.384 . S
N754 C750 1.427 . S
N754 C751 1.384 . S
N755 C747 1.427 . S
N755 C753 1.384 . S
H756 C762 0.930 . S
H757 C766 0.930 . S
H758 C771 0.929 . S
H759 C769 0.929 . S
H760 C764 0.929 . S
H761 C770 0.929 . S
C762 H756 0.930 . S
C762 C763 1.367 . S
C762 C770 1.378 . S
C763 C762 1.367 . S
C763 C771 1.433 . S
C764 H760 0.929 . S
C764 C766 1.378 . S
C764 C768 1.350 . S
C765 C768 1.463 . S
C765 C770 1.350 . S
C765 N773 1.427 . S
C766 H757 0.930 . S
C766 C764 1.378 . S
C766 C767 1.367 . S
C767 C766 1.367 . S
C767 C769 1.433 . S
C768 C764 1.350 . S
C768 C765 1.463 . S
C768 N772 1.427 . S
C769 H759 0.929 . S
C769 C767 1.433 . S
C769 N772 1.384 . S
C770 H761 0.929 . S
C770 C762 1.378 . S
C770 C765 1.350 . S
C771 H758 0.929 . S
C771 C763 1.433 . S
C771 N773 1.384 . S
N772 C768 1.427 . S
N772 C769 1.384 . S
N773 C765 1.427 . S
N773 C771 1.384 . S
H774 C780 0.930 . S
H775 C784 0.930 . S
H776 C789 0.929 . S
H777 C787 0.929 . S
H778 C782 0.929 . S
H779 C788 0.929 . S
C780 H774 0.930 . S
C780 C781 1.367 . S
C780 C788 1.378 1_545 S
C781 C780 1.367 . S
C781 C789 1.433 1_545 S
C782 H778 0.929 . S
C782 C784 1.378 . S
C782 C786 1.350 . S
C783 C786 1.463 . S
C783 C788 1.350 . S
C783 N791 1.427 . S
C784 H775 0.930 . S
C784 C782 1.378 . S
C784 C785 1.367 . S
C785 C784 1.367 . S
C785 C787 1.433 . S
C786 C782 1.350 . S
C786 C783 1.463 . S
C786 N790 1.427 . S
C787 H777 0.929 . S
C787 C785 1.433 . S
C787 N790 1.384 . S
C788 H779 0.929 . S
C788 C780 1.378 1_565 S
C788 C783 1.350 . S
C789 H776 0.929 . S
C789 C781 1.433 1_565 S
C789 N791 1.384 . S
N790 C786 1.427 . S
N790 C787 1.384 . S
N791 C783 1.427 . S
N791 C789 1.384 . S
H792 C798 0.930 . S
H793 C802 0.930 . S
H794 C807 0.929 . S
H795 C805 0.929 . S
H796 C800 0.929 . S
H797 C806 0.929 . S
C798 H792 0.930 . S
C798 C799 1.367 . S
C798 C806 1.378 . S
C799 C798 1.367 . S
C799 C807 1.433 . S
C800 H796 0.929 . S
C800 C802 1.378 . S
C800 C804 1.350 . S
C801 C804 1.463 . S
C801 C806 1.350 . S
C801 N809 1.427 . S
C802 H793 0.930 . S
C802 C800 1.378 . S
C802 C803 1.367 . S
C803 C802 1.367 . S
C803 C805 1.433 . S
C804 C800 1.350 . S
C804 C801 1.463 . S
C804 N808 1.427 . S
C805 H795 0.929 . S
C805 C803 1.433 . S
C805 N808 1.384 . S
C806 H797 0.929 . S
C806 C798 1.378 . S
C806 C801 1.350 . S
C807 H794 0.929 . S
C807 C799 1.433 . S
C807 N809 1.384 . S
N808 C804 1.427 . S
N808 C805 1.384 . S
N809 C801 1.427 . S
N809 C807 1.384 . S
H810 C816 0.930 . S
H811 C820 0.930 . S
H812 C825 0.929 . S
H813 C823 0.929 . S
H814 C818 0.929 . S
H815 C824 0.929 . S
C816 H810 0.930 . S
C816 C817 1.367 . S
C816 C824 1.378 . S
C817 C816 1.367 . S
C817 C825 1.433 . S
C818 H814 0.929 . S
C818 C820 1.378 . S
C818 C822 1.350 . S
C819 C822 1.463 . S
C819 C824 1.350 . S
C819 N827 1.427 . S
C820 H811 0.930 . S
C820 C818 1.378 . S
C820 C821 1.367 . S
C821 C820 1.367 . S
C821 C823 1.433 . S
C822 C818 1.350 . S
C822 C819 1.463 . S
C822 N826 1.427 . S
C823 H813 0.929 . S
C823 C821 1.433 . S
C823 N826 1.384 . S
C824 H815 0.929 . S
C824 C816 1.378 . S
C824 C819 1.350 . S
C825 H812 0.929 . S
C825 C817 1.433 . S
C825 N827 1.384 . S
N826 C822 1.427 . S
N826 C823 1.384 . S
N827 C819 1.427 . S
N827 C825 1.384 . S
H828 C834 0.930 . S
H829 C838 0.930 . S
H830 C843 0.929 . S
H831 C841 0.929 . S
H832 C836 0.929 . S
H833 C842 0.929 . S
C834 H828 0.930 . S
C834 C835 1.367 . S
C834 C842 1.378 . S
C835 C834 1.367 . S
C835 C843 1.433 . S
C836 H832 0.929 . S
C836 C838 1.378 . S
C836 C840 1.350 . S
C837 C840 1.463 . S
C837 C842 1.350 . S
C837 N845 1.427 . S
C838 H829 0.930 . S
C838 C836 1.378 . S
C838 C839 1.367 . S
C839 C838 1.367 . S
C839 C841 1.433 . S
C840 C836 1.350 . S
C840 C837 1.463 . S
C840 N844 1.427 . S
C841 H831 0.929 . S
C841 C839 1.433 . S
C841 N844 1.384 . S
C842 H833 0.929 . S
C842 C834 1.378 . S
C842 C837 1.350 . S
C843 H830 0.929 . S
C843 C835 1.433 . S
C843 N845 1.384 . S
N844 C840 1.427 . S
N844 C841 1.384 . S
N845 C837 1.427 . S
N845 C843 1.384 . S
H846 C852 0.930 . S
H847 C856 0.930 . S
H848 C861 0.929 . S
H849 C859 0.929 . S
H850 C854 0.929 . S
H851 C860 0.929 . S
C852 H846 0.930 . S
C852 C853 1.367 . S
C852 C860 1.378 . S
C853 C852 1.367 . S
C853 C861 1.433 . S
C854 H850 0.929 . S
C854 C856 1.378 . S
C854 C858 1.350 . S
C855 C858 1.463 . S
C855 C860 1.350 . S
C855 N863 1.427 . S
C856 H847 0.930 . S
C856 C854 1.378 . S
C856 C857 1.367 . S
C857 C856 1.367 . S
C857 C859 1.433 . S
C858 C854 1.350 . S
C858 C855 1.463 . S
C858 N862 1.427 . S
C859 H849 0.929 . S
C859 C857 1.433 . S
C859 N862 1.384 . S
C860 H851 0.929 . S
C860 C852 1.378 . S
C860 C855 1.350 . S
C861 H848 0.929 . S
C861 C853 1.433 . S
C861 N863 1.384 . S
N862 C858 1.427 . S
N862 C859 1.384 . S
N863 C855 1.427 . S
N863 C861 1.384 . S
H864 C870 0.930 . S
H865 C874 0.930 . S
H866 C879 0.929 . S
H867 C877 0.929 . S
H868 C872 0.929 . S
H869 C878 0.929 . S
C870 H864 0.930 . S
C870 C871 1.367 . S
C870 C878 1.378 . S
C871 C870 1.367 . S
C871 C879 1.433 . S
C872 H868 0.929 . S
C872 C874 1.378 . S
C872 C876 1.350 . S
C873 C876 1.463 . S
C873 C878 1.350 . S
C873 N881 1.427 . S
C874 H865 0.930 . S
C874 C872 1.378 . S
C874 C875 1.367 . S
C875 C874 1.367 . S
C875 C877 1.433 . S
C876 C872 1.350 . S
C876 C873 1.463 . S
C876 N880 1.427 . S
C877 H867 0.929 . S
C877 C875 1.433 . S
C877 N880 1.384 . S
C878 H869 0.929 . S
C878 C870 1.378 . S
C878 C873 1.350 . S
C879 H866 0.929 . S
C879 C871 1.433 . S
C879 N881 1.384 . S
N880 C876 1.427 . S
N880 C877 1.384 . S
N881 C873 1.427 . S
N881 C879 1.384 . S
H882 C888 0.930 . S
H883 C892 0.930 . S
H884 C897 0.929 . S
H885 C895 0.929 . S
H886 C890 0.929 . S
H887 C896 0.929 . S
C888 H882 0.930 . S
C888 C889 1.367 . S
C888 C896 1.378 . S
C889 C888 1.367 . S
C889 C897 1.433 . S
C890 H886 0.929 . S
C890 C892 1.378 . S
C890 C894 1.350 . S
C891 C894 1.463 . S
C891 C896 1.350 . S
C891 N899 1.427 . S
C892 H883 0.930 . S
C892 C890 1.378 . S
C892 C893 1.367 . S
C893 C892 1.367 . S
C893 C895 1.433 . S
C894 C890 1.350 . S
C894 C891 1.463 . S
C894 N898 1.427 . S
C895 H885 0.929 . S
C895 C893 1.433 . S
C895 N898 1.384 . S
C896 H887 0.929 . S
C896 C888 1.378 . S
C896 C891 1.350 . S
C897 H884 0.929 . S
C897 C889 1.433 . S
C897 N899 1.384 . S
N898 C894 1.427 . S
N898 C895 1.384 . S
N899 C891 1.427 . S
N899 C897 1.384 . S
H900 C906 0.930 . S
H901 C910 0.930 . S
H902 C915 0.929 . S
H903 C913 0.929 . S
H904 C908 0.929 . S
H905 C914 0.929 . S
C906 H900 0.930 . S
C906 C907 1.367 . S
C906 C914 1.378 . S
C907 C906 1.367 . S
C907 C915 1.433 . S
C908 H904 0.929 . S
C908 C910 1.378 . S
C908 C912 1.350 . S
C909 C912 1.463 . S
C909 C914 1.350 . S
C909 N917 1.427 . S
C910 H901 0.930 . S
C910 C908 1.378 . S
C910 C911 1.367 . S
C911 C910 1.367 . S
C911 C913 1.433 . S
C912 C908 1.350 . S
C912 C909 1.463 . S
C912 N916 1.427 . S
C913 H903 0.929 . S
C913 C911 1.433 . S
C913 N916 1.384 . S
C914 H905 0.929 . S
C914 C906 1.378 . S
C914 C909 1.350 . S
C915 H902 0.929 . S
C915 C907 1.433 . S
C915 N917 1.384 . S
N916 C912 1.427 . S
N916 C913 1.384 . S
N917 C909 1.427 . S
N917 C915 1.384 . S
H918 C924 0.930 . S
H919 C928 0.930 . S
H920 C933 0.929 . S
H921 C931 0.929 . S
H922 C926 0.929 . S
H923 C932 0.929 . S
C924 H918 0.930 . S
C924 C925 1.367 . S
C924 C932 1.378 . S
C925 C924 1.367 . S
C925 C933 1.433 . S
C926 H922 0.929 . S
C926 C928 1.378 . S
C926 C930 1.350 . S
C927 C930 1.463 . S
C927 C932 1.350 . S
C927 N935 1.427 . S
C928 H919 0.930 . S
C928 C926 1.378 . S
C928 C929 1.367 . S
C929 C928 1.367 . S
C929 C931 1.433 . S
C930 C926 1.350 . S
C930 C927 1.463 . S
C930 N934 1.427 . S
C931 H921 0.929 . S
C931 C929 1.433 . S
C931 N934 1.384 . S
C932 H923 0.929 . S
C932 C924 1.378 . S
C932 C927 1.350 . S
C933 H920 0.929 . S
C933 C925 1.433 . S
C933 N935 1.384 . S
N934 C930 1.427 . S
N934 C931 1.384 . S
N935 C927 1.427 . S
N935 C933 1.384 . S
H936 C942 0.930 . S
H937 C946 0.930 . S
H938 C951 0.929 . S
H939 C949 0.929 . S
H940 C944 0.929 . S
H941 C950 0.929 . S
C942 H936 0.930 . S
C942 C943 1.367 . S
C942 C950 1.378 . S
C943 C942 1.367 . S
C943 C951 1.433 . S
C944 H940 0.929 . S
C944 C946 1.378 . S
C944 C948 1.350 . S
C945 C948 1.463 . S
C945 C950 1.350 . S
C945 N953 1.427 . S
C946 H937 0.930 . S
C946 C944 1.378 . S
C946 C947 1.367 . S
C947 C946 1.367 . S
C947 C949 1.433 . S
C948 C944 1.350 . S
C948 C945 1.463 . S
C948 N952 1.427 . S
C949 H939 0.929 . S
C949 C947 1.433 . S
C949 N952 1.384 . S
C950 H941 0.929 . S
C950 C942 1.378 . S
C950 C945 1.350 . S
C951 H938 0.929 . S
C951 C943 1.433 . S
C951 N953 1.384 . S
N952 C948 1.427 . S
N952 C949 1.384 . S
N953 C945 1.427 . S
N953 C951 1.384 . S
H954 C960 0.930 . S
H955 C964 0.930 . S
H956 C969 0.929 . S
H957 C967 0.929 . S
H958 C962 0.929 . S
H959 C968 0.929 . S
C960 H954 0.930 . S
C960 C961 1.367 . S
C960 C968 1.378 . S
C961 C960 1.367 . S
C961 C969 1.433 . S
C962 H958 0.929 . S
C962 C964 1.378 . S
C962 C966 1.350 . S
C963 C966 1.463 . S
C963 C968 1.350 . S
C963 N971 1.427 . S
C964 H955 0.930 . S
C964 C962 1.378 . S
C964 C965 1.367 . S
C965 C964 1.367 . S
C965 C967 1.433 . S
C966 C962 1.350 . S
C966 C963 1.463 . S
C966 N970 1.427 . S
C967 H957 0.929 . S
C967 C965 1.433 . S
C967 N970 1.384 . S
C968 H959 0.929 . S
C968 C960 1.378 . S
C968 C963 1.350 . S
C969 H956 0.929 . S
C969 C961 1.433 . S
C969 N971 1.384 . S
N970 C966 1.427 . S
N970 C967 1.384 . S
N971 C963 1.427 . S
N971 C969 1.384 . S
H972 C978 0.930 . S
H973 C982 0.930 . S
H974 C987 0.929 . S
H975 C985 0.929 . S
H976 C980 0.929 . S
H977 C986 0.929 . S
C978 H972 0.930 . S
C978 C979 1.367 . S
C978 C986 1.378 . S
C979 C978 1.367 . S
C979 C987 1.433 . S
C980 H976 0.929 . S
C980 C982 1.378 . S
C980 C984 1.350 . S
C981 C984 1.463 . S
C981 C986 1.350 . S
C981 N989 1.427 . S
C982 H973 0.930 . S
C982 C980 1.378 . S
C982 C983 1.367 . S
C983 C982 1.367 . S
C983 C985 1.433 . S
C984 C980 1.350 . S
C984 C981 1.463 . S
C984 N988 1.427 . S
C985 H975 0.929 . S
C985 C983 1.433 . S
C985 N988 1.384 . S
C986 H977 0.929 . S
C986 C978 1.378 . S
C986 C981 1.350 . S
C987 H974 0.929 . S
C987 C979 1.433 . S
C987 N989 1.384 . S
N988 C984 1.427 . S
N988 C985 1.384 . S
N989 C981 1.427 . S
N989 C987 1.384 . S
H990 C996 0.930 . S
H991 C1000 0.930 . S
H992 C1005 0.929 . S
H993 C1003 0.929 1_455 S
H994 C998 0.929 . S
H995 C1004 0.929 . S
C996 H990 0.930 . S
C996 C997 1.367 . S
C996 C1004 1.378 . S
C997 C996 1.367 . S
C997 C1005 1.433 . S
C998 H994 0.929 . S
C998 C1000 1.378 . S
C998 C1002 1.350 . S
C999 C1002 1.463 . S
C999 C1004 1.350 . S
C999 N1007 1.427 . S
C1000 H991 0.930 . S
C1000 C998 1.378 . S
C1000 C1001 1.367 . S
C1001 C1000 1.367 . S
C1001 C1003 1.433 . S
C1002 C998 1.350 . S
C1002 C999 1.463 . S
C1002 N1006 1.427 . S
C1003 H993 0.929 1_655 S
C1003 C1001 1.433 . S
C1003 N1006 1.384 . S
C1004 H995 0.929 . S
C1004 C996 1.378 . S
C1004 C999 1.350 . S
C1005 H992 0.929 . S
C1005 C997 1.433 . S
C1005 N1007 1.384 . S
N1006 C1002 1.427 . S
N1006 C1003 1.384 . S
N1007 C999 1.427 . S
N1007 C1005 1.384 . S
H1008 C1014 0.930 . S
H1009 C1018 0.930 . S
H1010 C1023 0.929 . S
H1011 C1021 0.929 . S
H1012 C1016 0.929 . S
H1013 C1022 0.929 . S
C1014 H1008 0.930 . S
C1014 C1015 1.367 . S
C1014 C1022 1.378 . S
C1015 C1014 1.367 . S
C1015 C1023 1.433 . S
C1016 H1012 0.929 . S
C1016 C1018 1.378 . S
C1016 C1020 1.350 . S
C1017 C1020 1.463 . S
C1017 C1022 1.350 . S
C1017 N1025 1.427 . S
C1018 H1009 0.930 . S
C1018 C1016 1.378 . S
C1018 C1019 1.367 . S
C1019 C1018 1.367 . S
C1019 C1021 1.433 . S
C1020 C1016 1.350 . S
C1020 C1017 1.463 . S
C1020 N1024 1.427 . S
C1021 H1011 0.929 . S
C1021 C1019 1.433 . S
C1021 N1024 1.384 . S
C1022 H1013 0.929 . S
C1022 C1014 1.378 . S
C1022 C1017 1.350 . S
C1023 H1010 0.929 . S
C1023 C1015 1.433 . S
C1023 N1025 1.384 . S
N1024 C1020 1.427 . S
N1024 C1021 1.384 . S
N1025 C1017 1.427 . S
N1025 C1023 1.384 . S
H1026 C1032 0.930 . S
H1027 C1036 0.930 . S
H1028 C1041 0.929 . S
H1029 C1039 0.929 . S
H1030 C1034 0.929 . S
H1031 C1040 0.929 . S
C1032 H1026 0.930 . S
C1032 C1033 1.367 . S
C1032 C1040 1.378 . S
C1033 C1032 1.367 . S
C1033 C1041 1.433 . S
C1034 H1030 0.929 . S
C1034 C1036 1.378 . S
C1034 C1038 1.350 . S
C1035 C1038 1.463 . S
C1035 C1040 1.350 . S
C1035 N1043 1.427 . S
C1036 H1027 0.930 . S
C1036 C1034 1.378 . S
C1036 C1037 1.367 . S
C1037 C1036 1.367 . S
C1037 C1039 1.433 . S
C1038 C1034 1.350 . S
C1038 C1035 1.463 . S
C1038 N1042 1.427 . S
C1039 H1029 0.929 . S
C1039 C1037 1.433 . S
C1039 N1042 1.384 . S
C1040 H1031 0.929 . S
C1040 C1032 1.378 . S
C1040 C1035 1.350 . S
C1041 H1028 0.929 . S
C1041 C1033 1.433 . S
C1041 N1043 1.384 . S
N1042 C1038 1.427 . S
N1042 C1039 1.384 . S
N1043 C1035 1.427 . S
N1043 C1041 1.384 . S
H1044 C1050 0.930 . S
H1045 C1054 0.930 . S
H1046 C1059 0.929 . S
H1047 C1057 0.929 . S
H1048 C1052 0.929 . S
H1049 C1058 0.929 . S
C1050 H1044 0.930 . S
C1050 C1051 1.367 . S
C1050 C1058 1.378 . S
C1051 C1050 1.367 . S
C1051 C1059 1.433 . S
C1052 H1048 0.929 . S
C1052 C1054 1.378 . S
C1052 C1056 1.350 . S
C1053 C1056 1.463 . S
C1053 C1058 1.350 . S
C1053 N1061 1.427 . S
C1054 H1045 0.930 . S
C1054 C1052 1.378 . S
C1054 C1055 1.367 . S
C1055 C1054 1.367 . S
C1055 C1057 1.433 . S
C1056 C1052 1.350 . S
C1056 C1053 1.463 . S
C1056 N1060 1.427 . S
C1057 H1047 0.929 . S
C1057 C1055 1.433 . S
C1057 N1060 1.384 . S
C1058 H1049 0.929 . S
C1058 C1050 1.378 . S
C1058 C1053 1.350 . S
C1059 H1046 0.929 . S
C1059 C1051 1.433 . S
C1059 N1061 1.384 . S
N1060 C1056 1.427 . S
N1060 C1057 1.384 . S
N1061 C1053 1.427 . S
N1061 C1059 1.384 . S
H1062 C1068 0.930 . S
H1063 C1072 0.930 . S
H1064 C1077 0.929 . S
H1065 C1075 0.929 . S
H1066 C1070 0.929 . S
H1067 C1076 0.929 . S
C1068 H1062 0.930 . S
C1068 C1069 1.367 . S
C1068 C1076 1.378 . S
C1069 C1068 1.367 . S
C1069 C1077 1.433 . S
C1070 H1066 0.929 . S
C1070 C1072 1.378 . S
C1070 C1074 1.350 . S
C1071 C1074 1.463 . S
C1071 C1076 1.350 . S
C1071 N1079 1.427 . S
C1072 H1063 0.930 . S
C1072 C1070 1.378 . S
C1072 C1073 1.367 . S
C1073 C1072 1.367 . S
C1073 C1075 1.433 . S
C1074 C1070 1.350 . S
C1074 C1071 1.463 . S
C1074 N1078 1.427 . S
C1075 H1065 0.929 . S
C1075 C1073 1.433 . S
C1075 N1078 1.384 . S
C1076 H1067 0.929 . S
C1076 C1068 1.378 . S
C1076 C1071 1.350 . S
C1077 H1064 0.929 . S
C1077 C1069 1.433 . S
C1077 N1079 1.384 . S
N1078 C1074 1.427 . S
N1078 C1075 1.384 . S
N1079 C1071 1.427 . S
N1079 C1077 1.384 . S
C655 C235 1.482 . S
C659 C386 1.462 . S
C677 C470 1.463 . S
C673 C289 1.475 . S
C695 C463 1.471 . S
C691 C157 1.469 . S
C709 C211 1.472 . S
C713 C379 1.473 . S
C731 C543 1.469 . S
C727 C79 1.479 . S
C749 C627 1.463 . S
C745 C118 1.485 . S
C763 C1 1.474 . S
C767 C620 1.474 . S
C781 C40 1.474 . S
C785 C536 1.473 . S
C803 C370 1.347 . S
C799 C55 1.516 1_554 S
C821 C454 1.349 . S
C817 C16 1.517 . S
C839 C465 1.407 . S
C835 C133 1.535 1_556 S
C857 C381 1.391 . S
C853 C94 1.534 . S
C875 C549 1.348 . S
C871 C196 1.522 1_556 S
C889 C172 1.522 . S
C893 C633 1.341 . S
C911 C622 1.393 . S
C907 C274 1.541 1_554 S
C925 C250 1.541 . S
C929 C538 1.395 . S
C947 C368 1.580 . S
C943 C21 1.577 . S
C965 C452 1.585 . S
C961 C60 1.582 . S
C979 C99 1.564 . S
C983 C459 1.559 . S
C1001 C375 1.558 . S
C997 C138 1.571 . S
C1019 C547 1.588 . S
C1015 C177 1.579 . S
C1033 C216 1.580 . S
C1037 C631 1.584 . S
C1051 C255 1.565 . S
C1055 C638 1.565 . S
C1069 C294 1.569 . S
C1073 C554 1.558 . S
