# Generated by pormake.
# Topology ptr, (4,4)-cn, num edge types: 1
# Building blocks:
#     Node 0, Type 0, BuildingBlock: AZAVOO_clean_sbu_0, # of connection points: 4
#     Node 1, Type 0, BuildingBlock: AZAVOO_clean_sbu_0, # of connection points: 4
#     Node 2, Type 0, BuildingBlock: AZAVOO_clean_sbu_0, # of connection points: 4
#     Node 3, Type 0, BuildingBlock: AZAVOO_clean_sbu_0, # of connection points: 4
#     Node 4, Type 0, BuildingBlock: AZAVOO_clean_sbu_0, # of connection points: 4
#     Node 5, Type 0, BuildingBlock: AZAVOO_clean_sbu_0, # of connection points: 4
#     Node 6, Type 0, BuildingBlock: AZAVOO_clean_sbu_0, # of connection points: 4
#     Node 7, Type 0, BuildingBlock: AZAVOO_clean_sbu_0, # of connection points: 4
#     Node 8, Type 0, BuildingBlock: AZAVOO_clean_sbu_0, # of connection points: 4
#     Node 9, Type 0, BuildingBlock: AZAVOO_clean_sbu_0, # of connection points: 4
#     Node 10, Type 0, BuildingBlock: AZAVOO_clean_sbu_0, # of connection points: 4
#     Node 11, Type 0, BuildingBlock: AZAVOO_clean_sbu_0, # of connection points: 4
#     Node 12, Type 0, BuildingBlock: AZAVOO_clean_sbu_0, # of connection points: 4
#     Node 13, Type 0, BuildingBlock: AZAVOO_clean_sbu_0, # of connection points: 4
#     Node 14, Type 0, BuildingBlock: AZAVOO_clean_sbu_0, # of connection points: 4
#     Node 15, Type 0, BuildingBlock: AZAVOO_clean_sbu_0, # of connection points: 4
#     Node 16, Type 0, BuildingBlock: AZAVOO_clean_sbu_0, # of connection points: 4
#     Node 17, Type 0, BuildingBlock: AZAVOO_clean_sbu_0, # of connection points: 4
#     Node 18, Type 1, BuildingBlock: AZAVOO_clean_linker_0, # of connection points: 4
#     Node 19, Type 1, BuildingBlock: AZAVOO_clean_linker_0, # of connection points: 4
#     Node 20, Type 1, BuildingBlock: AZAVOO_clean_linker_0, # of connection points: 4
#     Node 21, Type 1, BuildingBlock: AZAVOO_clean_linker_0, # of connection points: 4
#     Node 22, Type 1, BuildingBlock: AZAVOO_clean_linker_0, # of connection points: 4
#     Node 23, Type 1, BuildingBlock: AZAVOO_clean_linker_0, # of connection points: 4
#     Node 24, Type 1, BuildingBlock: AZAVOO_clean_linker_0, # of connection points: 4
#     Node 25, Type 1, BuildingBlock: AZAVOO_clean_linker_0, # of connection points: 4
#     Node 26, Type 1, BuildingBlock: AZAVOO_clean_linker_0, # of connection points: 4
#     Node 27, Type 1, BuildingBlock: AZAVOO_clean_linker_0, # of connection points: 4
#     Node 28, Type 1, BuildingBlock: AZAVOO_clean_linker_0, # of connection points: 4
#     Node 29, Type 1, BuildingBlock: AZAVOO_clean_linker_0, # of connection points: 4
#     Node 30, Type 1, BuildingBlock: AZAVOO_clean_linker_0, # of connection points: 4
#     Node 31, Type 1, BuildingBlock: AZAVOO_clean_linker_0, # of connection points: 4
#     Node 32, Type 1, BuildingBlock: AZAVOO_clean_linker_0, # of connection points: 4
#     Node 33, Type 1, BuildingBlock: AZAVOO_clean_linker_0, # of connection points: 4
#     Node 34, Type 1, BuildingBlock: AZAVOO_clean_linker_0, # of connection points: 4
#     Node 35, Type 1, BuildingBlock: AZAVOO_clean_linker_0, # of connection points: 4
#     Edge 36, Type (0, 1), BuildingBlock: OJICUG_clean_linker_0, # of connection points: 2
#     Edge 37, Type (0, 1), BuildingBlock: OJICUG_clean_linker_0, # of connection points: 2
#     Edge 38, Type (0, 1), BuildingBlock: OJICUG_clean_linker_0, # of connection points: 2
#     Edge 39, Type (0, 1), BuildingBlock: OJICUG_clean_linker_0, # of connection points: 2
#     Edge 40, Type (0, 1), BuildingBlock: OJICUG_clean_linker_0, # of connection points: 2
#     Edge 41, Type (0, 1), BuildingBlock: OJICUG_clean_linker_0, # of connection points: 2
#     Edge 42, Type (0, 1), BuildingBlock: OJICUG_clean_linker_0, # of connection points: 2
#     Edge 43, Type (0, 1), BuildingBlock: OJICUG_clean_linker_0, # of connection points: 2
#     Edge 44, Type (0, 1), BuildingBlock: OJICUG_clean_linker_0, # of connection points: 2
#     Edge 45, Type (0, 1), BuildingBlock: OJICUG_clean_linker_0, # of connection points: 2
#     Edge 46, Type (0, 1), BuildingBlock: OJICUG_clean_linker_0, # of connection points: 2
#     Edge 47, Type (0, 1), BuildingBlock: OJICUG_clean_linker_0, # of connection points: 2
#     Edge 48, Type (0, 1), BuildingBlock: OJICUG_clean_linker_0, # of connection points: 2
#     Edge 49, Type (0, 1), BuildingBlock: OJICUG_clean_linker_0, # of connection points: 2
#     Edge 50, Type (0, 1), BuildingBlock: OJICUG_clean_linker_0, # of connection points: 2
#     Edge 51, Type (0, 1), BuildingBlock: OJICUG_clean_linker_0, # of connection points: 2
#     Edge 52, Type (0, 1), BuildingBlock: OJICUG_clean_linker_0, # of connection points: 2
#     Edge 53, Type (0, 1), BuildingBlock: OJICUG_clean_linker_0, # of connection points: 2
#     Edge 54, Type (0, 1), BuildingBlock: OJICUG_clean_linker_0, # of connection points: 2
#     Edge 55, Type (0, 1), BuildingBlock: OJICUG_clean_linker_0, # of connection points: 2
#     Edge 56, Type (0, 1), BuildingBlock: OJICUG_clean_linker_0, # of connection points: 2
#     Edge 57, Type (0, 1), BuildingBlock: OJICUG_clean_linker_0, # of connection points: 2
#     Edge 58, Type (0, 1), BuildingBlock: OJICUG_clean_linker_0, # of connection points: 2
#     Edge 59, Type (0, 1), BuildingBlock: OJICUG_clean_linker_0, # of connection points: 2
#     Edge 60, Type (0, 1), BuildingBlock: OJICUG_clean_linker_0, # of connection points: 2
#     Edge 61, Type (0, 1), BuildingBlock: OJICUG_clean_linker_0, # of connection points: 2
#     Edge 62, Type (0, 1), BuildingBlock: OJICUG_clean_linker_0, # of connection points: 2
#     Edge 63, Type (0, 1), BuildingBlock: OJICUG_clean_linker_0, # of connection points: 2
#     Edge 64, Type (0, 1), BuildingBlock: OJICUG_clean_linker_0, # of connection points: 2
#     Edge 65, Type (0, 1), BuildingBlock: OJICUG_clean_linker_0, # of connection points: 2
#     Edge 66, Type (0, 1), BuildingBlock: OJICUG_clean_linker_0, # of connection points: 2
#     Edge 67, Type (0, 1), BuildingBlock: OJICUG_clean_linker_0, # of connection points: 2
#     Edge 68, Type (0, 1), BuildingBlock: OJICUG_clean_linker_0, # of connection points: 2
#     Edge 69, Type (0, 1), BuildingBlock: OJICUG_clean_linker_0, # of connection points: 2
#     Edge 70, Type (0, 1), BuildingBlock: OJICUG_clean_linker_0, # of connection points: 2
#     Edge 71, Type (0, 1), BuildingBlock: OJICUG_clean_linker_0, # of connection points: 2
#     Edge 72, Type (0, 1), BuildingBlock: OJICUG_clean_linker_0, # of connection points: 2
#     Edge 73, Type (0, 1), BuildingBlock: OJICUG_clean_linker_0, # of connection points: 2
#     Edge 74, Type (0, 1), BuildingBlock: OJICUG_clean_linker_0, # of connection points: 2
#     Edge 75, Type (0, 1), BuildingBlock: OJICUG_clean_linker_0, # of connection points: 2
#     Edge 76, Type (0, 1), BuildingBlock: OJICUG_clean_linker_0, # of connection points: 2
#     Edge 77, Type (0, 1), BuildingBlock: OJICUG_clean_linker_0, # of connection points: 2
#     Edge 78, Type (0, 1), BuildingBlock: OJICUG_clean_linker_0, # of connection points: 2
#     Edge 79, Type (0, 1), BuildingBlock: OJICUG_clean_linker_0, # of connection points: 2
#     Edge 80, Type (0, 1), BuildingBlock: OJICUG_clean_linker_0, # of connection points: 2
#     Edge 81, Type (0, 1), BuildingBlock: OJICUG_clean_linker_0, # of connection points: 2
#     Edge 82, Type (0, 1), BuildingBlock: OJICUG_clean_linker_0, # of connection points: 2
#     Edge 83, Type (0, 1), BuildingBlock: OJICUG_clean_linker_0, # of connection points: 2
#     Edge 84, Type (0, 1), BuildingBlock: OJICUG_clean_linker_0, # of connection points: 2
#     Edge 85, Type (0, 1), BuildingBlock: OJICUG_clean_linker_0, # of connection points: 2
#     Edge 86, Type (0, 1), BuildingBlock: OJICUG_clean_linker_0, # of connection points: 2
#     Edge 87, Type (0, 1), BuildingBlock: OJICUG_clean_linker_0, # of connection points: 2
#     Edge 88, Type (0, 1), BuildingBlock: OJICUG_clean_linker_0, # of connection points: 2
#     Edge 89, Type (0, 1), BuildingBlock: OJICUG_clean_linker_0, # of connection points: 2
#     Edge 90, Type (0, 1), BuildingBlock: OJICUG_clean_linker_0, # of connection points: 2
#     Edge 91, Type (0, 1), BuildingBlock: OJICUG_clean_linker_0, # of connection points: 2
#     Edge 92, Type (0, 1), BuildingBlock: OJICUG_clean_linker_0, # of connection points: 2
#     Edge 93, Type (0, 1), BuildingBlock: OJICUG_clean_linker_0, # of connection points: 2
#     Edge 94, Type (0, 1), BuildingBlock: OJICUG_clean_linker_0, # of connection points: 2
#     Edge 95, Type (0, 1), BuildingBlock: OJICUG_clean_linker_0, # of connection points: 2
#     Edge 96, Type (0, 1), BuildingBlock: OJICUG_clean_linker_0, # of connection points: 2
#     Edge 97, Type (0, 1), BuildingBlock: OJICUG_clean_linker_0, # of connection points: 2
#     Edge 98, Type (0, 1), BuildingBlock: OJICUG_clean_linker_0, # of connection points: 2
#     Edge 99, Type (0, 1), BuildingBlock: OJICUG_clean_linker_0, # of connection points: 2
#     Edge 100, Type (0, 1), BuildingBlock: OJICUG_clean_linker_0, # of connection points: 2
#     Edge 101, Type (0, 1), BuildingBlock: OJICUG_clean_linker_0, # of connection points: 2
#     Edge 102, Type (0, 1), BuildingBlock: OJICUG_clean_linker_0, # of connection points: 2
#     Edge 103, Type (0, 1), BuildingBlock: OJICUG_clean_linker_0, # of connection points: 2
#     Edge 104, Type (0, 1), BuildingBlock: OJICUG_clean_linker_0, # of connection points: 2
#     Edge 105, Type (0, 1), BuildingBlock: OJICUG_clean_linker_0, # of connection points: 2
#     Edge 106, Type (0, 1), BuildingBlock: OJICUG_clean_linker_0, # of connection points: 2
#     Edge 107, Type (0, 1), BuildingBlock: OJICUG_clean_linker_0, # of connection points: 2
# Relax obj value: 0.128
# Max RMSD: 0.326
# Mean RMSD: 0.192
data_MOF--net-ptr--node1-AZAVOO_clean_sbu_0--node2-AZAVOO_clean_linker_0--edge1-OJICUG_clean_linker_0
_symmetry_space_group_name_H-M    P1
_symmetry_Int_Tables_number       1
_symmetry_cell_setting            triclinic
loop_
_symmetry_equiv_pos_as_xyz
'x, y, z'
_cell_length_a     64.277056
_cell_length_b     62.403123
_cell_length_c     51.644332
_cell_angle_alpha  94.23215
_cell_angle_beta   94.198883
_cell_angle_gamma 119.9378
loop_
_atom_site_label
_atom_site_type_symbol
_atom_site_fract_x
_atom_site_fract_y
_atom_site_fract_z
_atom_type_partial_charge
Mg0 Mg 0.02044 0.3589 0.99674 0.0
O1 O 0.00108 0.37082 0.02488 0.0
O2 O 0.97636 0.38001 0.00204 0.0
Mg3 Mg 0.97905 0.37254 0.95856 0.0
C4 C 0.98581 0.37823 0.0238 0.0
C5 C 0.03616 0.32621 0.0265 0.0
O6 O 0.02859 0.31311 0.00319 0.0
O7 O 0.98633 0.32048 0.98543 0.0
O8 O 0.9631 0.33083 0.9614 0.0
O9 O 0.04851 0.39931 0.99755 0.0
O10 O 0.01562 0.37881 0.96863 0.0
C11 C 0.9667 0.3145 0.97104 0.0
C12 C 0.03482 0.39945 0.97796 0.0
O13 O 0.03452 0.34565 0.03032 0.0
Mg14 Mg 0.64784 0.62752 0.10123 0.0
O15 O 0.62327 0.61716 0.06236 0.0
O16 O 0.58885 0.61567 0.07043 0.0
Mg17 Mg 0.59025 0.62174 0.11492 0.0
C18 C 0.60252 0.61407 0.05462 0.0
C19 C 0.69983 0.65897 0.08484 0.0
O20 O 0.70265 0.67372 0.10596 0.0
O21 O 0.65486 0.66708 0.1051 0.0
O22 O 0.61989 0.66269 0.11553 0.0
O23 O 0.63281 0.5873 0.10536 0.0
O24 O 0.61743 0.61004 0.12 0.0
C25 C 0.64185 0.67626 0.1114 0.0
C26 C 0.6159 0.58865 0.11624 0.0
O27 O 0.67991 0.63859 0.0786 0.0
Mg28 Mg 0.37088 0.98251 0.00297 0.0
O29 O 0.39667 0.99296 0.04069 0.0
O30 O 0.43027 0.02902 0.03788 0.0
Mg31 Mg 0.42779 0.03833 0.99596 0.0
C32 C 0.41742 0.01108 0.05056 0.0
C33 C 0.31971 0.95805 0.01896 0.0
O34 O 0.31755 0.96932 0.9993 0.0
O35 O 0.36497 0.0147 0.01315 0.0
O36 O 0.3985 0.0481 0.00444 0.0
O37 O 0.38405 0.95871 0.98493 0.0
O38 O 0.3999 -0.00105 0.98189 0.0
C39 C 0.37709 0.03785 0.01093 0.0
C40 C 0.40021 0.97866 0.97638 0.0
O41 O 0.33947 0.95837 0.02445 0.0
Mg42 Mg 0.98265 0.64595 0.08393 0.0
O43 O 0.00231 0.6361 0.05406 0.0
O44 O 0.03105 0.63188 0.07599 0.0
Mg45 Mg 0.02963 0.63842 0.11987 0.0
C46 C 0.01956 0.63145 0.05453 0.0
C47 C 0.97408 0.67335 0.03719 0.0
O48 O 0.9978 0.6872 0.0401 0.0
O49 O 0.01474 0.68616 0.09389 0.0
O50 O 0.04034 0.67905 0.11834 0.0
O51 O 0.95722 0.60498 0.0853 0.0
O52 O 0.99156 0.62791 0.11131 0.0
C53 C 0.03452 0.69394 0.10887 0.0
C54 C 0.97289 0.60634 0.10357 0.0
O55 O 0.96395 0.65617 0.05161 0.0
Mg56 Mg 0.35911 0.3815 0.97034 0.0
O57 O 0.3856 0.39049 0.00679 0.0
O58 O 0.42043 0.39524 0.99579 0.0
Mg59 Mg 0.41653 0.39126 0.95069 0.0
C60 C 0.40701 0.39478 0.01305 0.0
C61 C 0.30779 0.35057 0.99 0.0
O62 O 0.30125 0.33875 0.96608 0.0
O63 O 0.35325 0.34239 0.96286 0.0
O64 O 0.38743 0.34965 0.94718 0.0
O65 O 0.37294 0.42219 0.96918 0.0
O66 O 0.38797 0.40105 0.94972 0.0
C67 C 0.36616 0.3347 0.95252 0.0
C68 C 0.3892 0.422 0.95595 0.0
O69 O 0.3293 0.36859 0.99647 0.0
Mg70 Mg 0.62968 0.01956 0.07264 0.0
O71 O 0.60252 0.00567 0.03565 0.0
O72 O 0.57131 0.96811 0.03943 0.0
Mg73 Mg 0.57667 0.96053 0.08149 0.0
C74 C 0.58247 0.98627 0.02636 0.0
C75 C 0.67983 0.04936 0.05451 0.0
O76 O 0.68529 0.04191 0.07578 0.0
O77 O 0.64016 0.99041 0.06323 0.0
O78 O 0.60846 0.9554 0.07229 0.0
O79 O 0.61225 0.03951 0.09045 0.0
O80 O 0.60213 0.0007 0.09493 0.0
C81 C 0.62976 0.96727 0.06567 0.0
C82 C 0.59862 0.01904 0.09999 0.0
O83 O 0.65841 0.04511 0.04908 0.0
Mg84 Mg 0.68075 0.69539 0.33545 0.0
O85 O 0.66392 0.70776 0.36695 0.0
O86 O 0.63621 0.7147 0.34689 0.0
Mg87 Mg 0.63476 0.70633 0.30282 0.0
C88 C 0.64794 0.71422 0.36768 0.0
C89 C 0.70374 0.66667 0.36029 0.0
O90 O 0.6982 0.6562 0.33585 0.0
O91 O 0.6469 0.65668 0.32741 0.0
O92 O 0.62021 0.66491 0.30696 0.0
O93 O 0.70842 0.73517 0.33272 0.0
O94 O 0.67229 0.71447 0.30926 0.0
C95 C 0.62584 0.64965 0.31585 0.0
C96 C 0.69239 0.73509 0.31594 0.0
O97 O 0.69843 0.68327 0.36664 0.0
Mg98 Mg 0.30387 0.96313 0.43492 0.0
O99 O 0.27904 0.9558 0.39725 0.0
O100 O 0.24382 0.95086 0.40722 0.0
Mg101 Mg 0.24617 0.9544 0.45212 0.0
C102 C 0.25781 0.95185 0.39042 0.0
C103 C 0.35122 0.96996 0.41473 0.0
O104 O 0.34972 0.95587 0.43303 0.0
O105 O 0.31058 0.00241 0.44276 0.0
O106 O 0.27576 0.99586 0.45598 0.0
O107 O 0.28932 0.92231 0.43567 0.0
O108 O 0.274 0.94357 0.45415 0.0
C109 C 0.29751 0.01052 0.45181 0.0
C110 C 0.27281 0.92254 0.44845 0.0
O111 O 0.33534 0.97622 0.41122 0.0
Mg112 Mg 0.04902 0.3201 0.34036 0.0
O113 O 0.07587 0.33426 0.37759 0.0
O114 O 0.10946 0.36883 0.37115 0.0
Mg115 Mg 0.10566 0.37307 0.32751 0.0
C116 C 0.09685 0.35279 0.38586 0.0
C117 C 0.99717 0.28436 0.35473 0.0
O118 O 0.9921 0.27785 0.32928 0.0
O119 O 0.0436 0.3531 0.34572 0.0
O120 O 0.077 0.38426 0.33359 0.0
O121 O 0.06136 0.29424 0.32583 0.0
O122 O 0.07699 0.33327 0.3177 0.0
C123 C 0.0559 0.37547 0.34068 0.0
C124 C 0.07697 0.31261 0.31475 0.0
O125 O 0.01881 0.29978 0.36463 0.0
Mg126 Mg 0.65294 0.97161 0.41446 0.0
O127 O 0.6711 0.95979 0.38437 0.0
O128 O 0.7003 0.95569 0.40537 0.0
Mg129 Mg 0.7012 0.96538 0.44911 0.0
C130 C 0.68799 0.95463 0.38427 0.0
C131 C 0.62586 0.99511 0.38644 0.0
O132 O 0.6289 0.00498 0.41077 0.0
O133 O 0.68529 0.01159 0.4214 0.0
O134 O 0.71312 0.00575 0.4431 0.0
O135 O 0.62758 0.9314 0.41842 0.0
O136 O 0.66287 0.955 0.44274 0.0
C137 C 0.70653 0.01997 0.43332 0.0
C138 C 0.6438 0.93337 0.4364 0.0
O139 O 0.63406 0.98069 0.38134 0.0
Mg140 Mg 0.03188 0.71294 0.30901 0.0
O141 O 0.05759 0.72186 0.3464 0.0
O142 O 0.09239 0.72578 0.33641 0.0
Mg143 Mg 0.08886 0.71996 0.29156 0.0
C144 C 0.07887 0.72596 0.35323 0.0
C145 C 0.98048 0.68271 0.32794 0.0
O146 O 0.97535 0.66887 0.30535 0.0
O147 O 0.0245 0.67323 0.30255 0.0
O148 O 0.05932 0.67877 0.29027 0.0
O149 O 0.04719 0.75358 0.30702 0.0
O150 O 0.06109 0.73107 0.28825 0.0
C151 C 0.03754 0.66459 0.29467 0.0
C152 C 0.06299 0.75251 0.29362 0.0
O153 O 0.00147 0.70173 0.33413 0.0
Mg154 Mg 0.29376 0.35589 0.40556 0.0
O155 O 0.26639 0.33969 0.36876 0.0
O156 O 0.23419 0.30396 0.37507 0.0
Mg157 Mg 0.24027 0.29895 0.41805 0.0
C158 C 0.24584 0.32055 0.36043 0.0
C159 C 0.34338 0.38348 0.38525 0.0
O160 O 0.34933 0.3765 0.40659 0.0
O161 O 0.3035 0.32591 0.39883 0.0
O162 O 0.27146 0.29231 0.40978 0.0
O163 O 0.27713 0.37749 0.42128 0.0
O164 O 0.26662 0.33927 0.42898 0.0
C165 C 0.29268 0.30312 0.40277 0.0
C166 C 0.26366 0.35813 0.43256 0.0
O167 O 0.32198 0.37945 0.38041 0.0
Mg168 Mg 0.34762 0.02984 0.6678 0.0
O169 O 0.32956 0.04124 0.69843 0.0
O170 O 0.30187 0.04784 0.67774 0.0
Mg171 Mg 0.3021 0.04068 0.63364 0.0
C172 C 0.31323 0.04723 0.69876 0.0
C173 C 0.36873 3e-05 0.6955 0.0
O174 O 0.36149 0.98698 0.67216 0.0
O175 O 0.31397 0.99074 0.65874 0.0
O176 O 0.28855 -0.00063 0.63632 0.0
O177 O 0.37507 0.07011 0.66609 0.0
O178 O 0.33961 0.04923 0.64146 0.0
C179 C 0.29357 0.98376 0.64543 0.0
C180 C 0.35932 0.07003 0.64892 0.0
O181 O 0.36503 0.01811 0.69979 0.0
Mg182 Mg 0.97258 0.29237 0.76417 0.0
O183 O 0.94866 0.28526 0.7257 0.0
O184 O 0.91308 0.28014 0.73449 0.0
Mg185 Mg 0.91417 0.2835 0.77917 0.0
C186 C 0.9275 0.28122 0.71821 0.0
C187 C 0.02474 0.3258 0.74759 0.0
O188 O 0.02766 0.34057 0.76872 0.0
O189 O 0.97914 0.33163 0.77226 0.0
O190 O 0.94369 0.32499 0.78361 0.0
O191 O 0.95775 0.2515 0.76472 0.0
O192 O 0.94201 0.27269 0.78238 0.0
C193 C 0.96573 0.33967 0.78041 0.0
C194 C 0.94086 0.25166 0.7768 0.0
O195 O 0.00487 0.30533 0.7415 0.0
Mg196 Mg 0.71604 0.65445 0.67504 0.0
O197 O 0.74353 0.67165 0.71183 0.0
O198 O 0.77383 0.70886 0.70565 0.0
Mg199 Mg 0.76693 0.71333 0.66263 0.0
C200 C 0.7633 0.69176 0.72014 0.0
C201 C 0.66614 0.61714 0.69032 0.0
O202 O 0.66005 0.61608 0.66521 0.0
O203 O 0.70386 0.68239 0.68186 0.0
O204 O 0.73451 0.71769 0.67167 0.0
O205 O 0.73447 0.6349 0.6593 0.0
O206 O 0.74263 0.6725 0.65151 0.0
C207 C 0.71338 0.70529 0.67862 0.0
C208 C 0.74683 0.65447 0.64781 0.0
O209 O 0.68829 0.62973 0.69981 0.0
Mg210 Mg 0.31756 0.30761 0.7483 0.0
O211 O 0.33757 0.29741 0.71934 0.0
O212 O 0.36604 0.2932 0.74191 0.0
Mg213 Mg 0.36357 0.29953 0.78558 0.0
C214 C 0.35485 0.29279 0.72025 0.0
C215 C 0.29532 0.33552 0.72085 0.0
O216 O 0.29988 0.34575 0.74529 0.0
O217 O 0.34991 0.3476 0.75839 0.0
O218 O 0.37478 0.34025 0.78383 0.0
O219 O 0.29163 0.26664 0.74981 0.0
O220 O 0.32569 0.28954 0.77622 0.0
C221 C 0.36937 0.35524 0.77388 0.0
C222 C 0.30694 0.26803 0.76856 0.0
O223 O 0.30075 0.31888 0.71521 0.0
Mg224 Mg 0.6962 0.04719 0.63993 0.0
O225 O 0.72213 0.05519 0.6766 0.0
O226 O 0.75582 0.05687 0.6659 0.0
Mg227 Mg 0.7519 0.05188 0.62086 0.0
C228 C 0.74293 0.05795 0.68303 0.0
C229 C 0.6453 0.01931 0.66084 0.0
O230 O 0.63887 0.00482 0.63847 0.0
O231 O 0.68724 0.00675 0.63349 0.0
O232 O 0.72076 0.01149 0.6181 0.0
O233 O 0.71294 0.08814 0.63757 0.0
O234 O 0.72509 0.06418 0.61851 0.0
C235 C 0.69922 0.99772 0.62339 0.0
C236 C 0.72799 0.08604 0.62373 0.0
O237 O 0.66675 0.03772 0.66608 0.0
Mg238 Mg 0.95806 0.68216 0.7378 0.0
O239 O 0.9316 0.66876 0.70049 0.0
O240 O 0.89672 0.63544 0.70602 0.0
Mg241 Mg 0.90056 0.62906 0.74891 0.0
C242 C 0.91018 0.65139 0.69171 0.0
C243 C 0.00887 0.70599 0.71933 0.0
O244 O 0.01349 0.69863 0.7411 0.0
O245 O 0.96317 0.64902 0.73126 0.0
O246 O 0.92883 0.61764 0.74151 0.0
O247 O 0.94504 0.70735 0.75311 0.0
O248 O 0.93006 0.6682 0.76038 0.0
C249 C 0.95015 0.62633 0.73502 0.0
C250 C 0.92968 0.68859 0.76394 0.0
O251 O 0.98811 0.70337 0.71355 0.0
H252 H 0.14789 0.33222 0.98238 0.0
H253 H 0.3068 0.2901 0.18387 0.0
H254 H 0.15393 0.34489 0.13065 0.0
H255 H 0.12155 0.34871 0.10792 0.0
H256 H 0.07503 0.26861 0.09899 0.0
H257 H 0.10786 0.26503 0.12183 0.0
H258 H 0.1876 0.34477 0.09167 0.0
H259 H 0.17579 0.34698 0.04623 0.0
H260 H 0.12467 0.26764 0.03592 0.0
H261 H 0.13684 0.2657 0.08134 0.0
H262 H 0.23251 0.34888 0.12237 0.0
H263 H 0.26027 0.35907 0.08949 0.0
H264 H 0.21839 0.28292 0.05179 0.0
H265 H 0.19021 0.27315 0.08461 0.0
H266 H 0.23894 0.34336 0.18014 0.0
H267 H 0.27717 0.34556 0.1945 0.0
H268 H 0.24914 0.27123 0.1546 0.0
H269 H 0.21091 0.26921 0.1406 0.0
H270 H 0.19817 0.34215 0.20776 0.0
H271 H 0.21201 0.34583 0.25413 0.0
H272 H 0.20105 0.27144 0.24236 0.0
H273 H 0.1868 0.26778 0.19591 0.0
H274 H 0.15194 0.338 0.18039 0.0
H275 H 0.13186 0.33914 0.21823 0.0
H276 H 0.11852 0.26576 0.23083 0.0
H277 H 0.13706 0.26414 0.19167 0.0
O278 O 0.15242 0.3309 1.00022 0.0
O279 O 0.12632 0.2901 0.99599 0.0
O280 O 0.30561 0.32809 0.19823 0.0
O281 O 0.29204 0.28992 0.17806 0.0
C282 C 0.15461 0.30263 0.13628 0.0
C283 C 0.16989 0.30386 0.11741 0.0
C284 C 0.19203 0.30511 0.12506 0.0
C285 C 0.19868 0.30444 0.1515 0.0
C286 C 0.18332 0.30291 0.17037 0.0
C287 C 0.16115 0.30181 0.16274 0.0
C288 C 0.13314 0.30472 0.12814 0.0
C289 C 0.13647 0.32824 0.1246 0.0
C290 C 0.11792 0.33036 0.11156 0.0
C291 C 0.0957 0.30895 0.10156 0.0
C292 C 0.092 0.28543 0.1063 0.0
C293 C 0.11059 0.28335 0.11958 0.0
C294 C 0.16313 0.30506 0.08967 0.0
C295 C 0.17398 0.32788 0.07948 0.0
C296 C 0.16714 0.32909 0.05356 0.0
C297 C 0.14928 0.30749 0.03744 0.0
C298 C 0.13849 0.28463 0.04779 0.0
C299 C 0.1454 0.28345 0.07369 0.0
C300 C 0.20952 0.31027 0.10593 0.0
C301 C 0.2295 0.33436 0.10715 0.0
C302 C 0.24537 0.34009 0.08837 0.0
C303 C 0.24165 0.32177 0.06803 0.0
C304 C 0.22164 0.29752 0.06702 0.0
C305 C 0.20565 0.29183 0.08581 0.0
C306 C 0.22213 0.30605 0.15953 0.0
C307 C 0.24108 0.32756 0.1746 0.0
C308 C 0.26291 0.32878 0.18272 0.0
C309 C 0.26617 0.30852 0.17578 0.0
C310 C 0.24721 0.28713 0.16034 0.0
C311 C 0.22538 0.28593 0.15228 0.0
C312 C 0.19146 0.30469 0.19853 0.0
C313 C 0.19862 0.3266 0.21525 0.0
C314 C 0.20665 0.32872 0.24165 0.0
C315 C 0.20768 0.30894 0.25186 0.0
C316 C 0.20023 0.28688 0.2351 0.0
C317 C 0.19227 0.28481 0.20859 0.0
C318 C 0.14562 0.30084 0.18301 0.0
C319 C 0.14388 0.32181 0.19074 0.0
C320 C 0.13291 0.32265 0.21283 0.0
C321 C 0.12393 0.30272 0.22798 0.0
C322 C 0.12502 0.28137 0.21961 0.0
C323 C 0.13561 0.28039 0.19722 0.0
C324 C 0.14192 0.30886 0.00997 0.0
C325 C 0.28917 0.30955 0.18471 0.0
H326 H 0.66645 0.80866 0.01785 0.0
H327 H 0.7348 0.03441 0.2174 0.0
H328 H 0.65993 0.81525 0.17503 0.0
H329 H 0.64647 0.77251 0.15799 0.0
H330 H 0.7187 0.79527 0.13954 0.0
H331 H 0.73243 0.83796 0.15905 0.0
H332 H 0.66216 0.83785 0.12672 0.0
H333 H 0.65658 0.82137 0.08065 0.0
H334 H 0.73398 0.86471 0.0794 0.0
H335 H 0.73926 0.88092 0.12554 0.0
H336 H 0.66056 0.88349 0.1528 0.0
H337 H 0.64468 0.89915 0.11979 0.0
H338 H 0.71585 0.94096 0.09551 0.0
H339 H 0.73178 0.92518 0.12944 0.0
H340 H 0.67323 0.9101 0.20715 0.0
H341 H 0.67515 0.94993 0.21807 0.0
H342 H 0.74834 0.98887 0.19848 0.0
H343 H 0.74624 0.94888 0.18791 0.0
H344 H 0.66932 0.86993 0.23601 0.0
H345 H 0.6654 0.88638 0.27863 0.0
H346 H 0.74138 0.94238 0.28815 0.0
H347 H 0.7452 0.92554 0.24534 0.0
H348 H 0.66628 0.82767 0.22033 0.0
H349 H 0.66427 0.79855 0.25005 0.0
H350 H 0.74254 0.83954 0.26601 0.0
H351 H 0.74414 0.86715 0.23399 0.0
O352 O 0.66905 0.8154 0.03605 0.0
O353 O 0.70895 0.83812 0.0364 0.0
O354 O 0.69594 0.9975 0.22321 0.0
O355 O 0.73357 0.0184 0.21329 0.0
C356 C 0.70418 0.85569 0.17713 0.0
C357 C 0.7045 0.87025 0.15737 0.0
C358 C 0.70578 0.89318 0.16401 0.0
C359 C 0.70862 0.90255 0.19052 0.0
C360 C 0.70872 0.88822 0.21045 0.0
C361 C 0.70635 0.86467 0.20373 0.0
C362 C 0.69734 0.82948 0.16926 0.0
C363 C 0.67308 0.81081 0.16835 0.0
C364 C 0.66528 0.78647 0.15783 0.0
C365 C 0.68139 0.78036 0.14697 0.0
C366 C 0.70584 0.79917 0.148 0.0
C367 C 0.71375 0.82355 0.15915 0.0
C368 C 0.70111 0.86042 0.1294 0.0
C369 C 0.67786 0.84367 0.11644 0.0
C370 C 0.67474 0.83433 0.09014 0.0
C371 C 0.69485 0.84169 0.07634 0.0
C372 C 0.71812 0.85863 0.08945 0.0
C373 C 0.7212 0.86793 0.11577 0.0
C374 C 0.69729 0.90346 0.14361 0.0
C375 C 0.67272 0.89598 0.1403 0.0
C376 C 0.66363 0.90466 0.12111 0.0
C377 C 0.67892 0.92099 0.10466 0.0
C378 C 0.70364 0.92833 0.10783 0.0
C379 C 0.71277 0.91948 0.12718 0.0
C380 C 0.70973 0.92668 0.19713 0.0
C381 C 0.68973 0.92727 0.20548 0.0
C382 C 0.69084 0.95004 0.21158 0.0
C383 C 0.71195 0.97261 0.20923 0.0
C384 C 0.73185 0.97186 0.20058 0.0
C385 C 0.73072 0.94907 0.19454 0.0
C386 C 0.70761 0.89634 0.23778 0.0
C387 C 0.68525 0.88536 0.24757 0.0
C388 C 0.68297 0.89499 0.27173 0.0
C389 C 0.70304 0.91579 0.28658 0.0
C390 C 0.72566 0.92625 0.27716 0.0
C391 C 0.72789 0.91667 0.25281 0.0
C392 C 0.70534 0.84902 0.2244 0.0
C393 C 0.68298 0.83015 0.23002 0.0
C394 C 0.68192 0.81376 0.24753 0.0
C395 C 0.70327 0.81638 0.26058 0.0
C396 C 0.7257 0.83636 0.25593 0.0
C397 C 0.7267 0.85237 0.23782 0.0
C398 C 0.69148 0.8317 0.04841 0.0
C399 C 0.71324 0.99685 0.21569 0.0
H400 H 0.1291 0.84469 0.00202 0.0
H401 H 0.33723 0.02609 0.19612 0.0
H402 H 0.11958 0.85817 0.14039 0.0
H403 H 0.08566 0.81538 0.12712 0.0
H404 H 0.12913 0.78692 0.16095 0.0
H405 H 0.16225 0.82928 0.1745 0.0
H406 H 0.16215 0.90125 0.10672 0.0
H407 H 0.14706 0.88309 0.06092 0.0
H408 H 0.15945 0.82269 0.07528 0.0
H409 H 0.17474 0.84122 0.12093 0.0
H410 H 0.21763 0.947 0.12599 0.0
H411 H 0.24568 0.95913 0.09276 0.0
H412 H 0.24954 0.89231 0.09778 0.0
H413 H 0.22233 0.88089 0.13127 0.0
H414 H 0.21722 0.96264 0.19347 0.0
H415 H 0.25572 0.00213 0.20253 0.0
H416 H 0.29384 0.96327 0.18425 0.0
H417 H 0.25525 0.92387 0.17565 0.0
H418 H 0.17992 0.92624 0.2338 0.0
H419 H 0.19541 0.93997 0.28041 0.0
H420 H 0.2497 0.91947 0.27031 0.0
H421 H 0.23452 0.90654 0.22389 0.0
H422 H 0.12946 0.87383 0.2035 0.0
H423 H 0.10483 0.84507 0.2332 0.0
H424 H 0.16348 0.83244 0.25607 0.0
H425 H 0.18762 0.86057 0.22583 0.0
O426 O 0.13519 0.85159 0.02019 0.0
O427 O 0.14183 0.82092 0.02861 0.0
O428 O 0.30185 0.02913 0.20662 0.0
O429 O 0.32188 0.0106 0.19362 0.0
C430 C 0.16463 0.87223 0.16508 0.0
C431 C 0.17837 0.88366 0.14493 0.0
C432 C 0.20139 0.90529 0.15117 0.0
C433 C 0.20988 0.9168 0.17734 0.0
C434 C 0.196 0.90559 0.19758 0.0
C435 C 0.17353 0.88308 0.19144 0.0
C436 C 0.14317 0.84676 0.15881 0.0
C437 C 0.12148 0.84259 0.14524 0.0
C438 C 0.10227 0.81819 0.13747 0.0
C439 C 0.10457 0.79768 0.14315 0.0
C440 C 0.12642 0.80217 0.15681 0.0
C441 C 0.14543 0.8264 0.1646 0.0
C442 C 0.16923 0.87239 0.11718 0.0
C443 C 0.16155 0.88409 0.09992 0.0
C444 C 0.15294 0.87366 0.07378 0.0
C445 C 0.15194 0.85137 0.06446 0.0
C446 C 0.15987 0.83981 0.08184 0.0
C447 C 0.16851 0.85029 0.10795 0.0
C448 C 0.218 0.9131 0.13092 0.0
C449 C 0.22462 0.9351 0.11984 0.0
C450 C 0.24045 0.94185 0.1008 0.0
C451 C 0.24983 0.92666 0.09271 0.0
C452 C 0.24291 0.90456 0.10383 0.0
C453 C 0.22724 0.89792 0.1228 0.0
C454 C 0.23343 0.94047 0.1836 0.0
C455 C 0.23392 0.9627 0.19155 0.0
C456 C 0.25593 0.98521 0.19669 0.0
C457 C 0.27785 0.98588 0.19391 0.0
C458 C 0.27729 0.96345 0.18637 0.0
C459 C 0.25527 0.94093 0.18138 0.0
C460 C 0.20626 0.91565 0.22542 0.0
C461 C 0.19536 0.92507 0.24168 0.0
C462 C 0.20412 0.9327 0.26834 0.0
C463 C 0.22386 0.93088 0.27921 0.0
C464 C 0.23483 0.92166 0.26263 0.0
C465 C 0.22615 0.91419 0.23605 0.0
C466 C 0.16031 0.86931 0.21259 0.0
C467 C 0.13712 0.86525 0.21538 0.0
C468 C 0.12317 0.84894 0.23242 0.0
C469 C 0.13221 0.83642 0.24682 0.0
C470 C 0.15597 0.84165 0.24502 0.0
C471 C 0.16986 0.85789 0.22797 0.0
C472 C 0.14271 0.8403 0.03671 0.0
C473 C 0.3012 0.00986 0.19854 0.0
H474 H 0.30454 0.19495 0.0599 0.0
H475 H 0.31512 0.99386 0.88279 0.0
H476 H 0.27371 0.17232 0.9166 0.0
H477 H 0.28821 0.21694 0.92721 0.0
H478 H 0.3593 0.23412 0.90938 0.0
H479 H 0.34425 0.19 0.89767 0.0
H480 H 0.27049 0.13246 0.95844 0.0
H481 H 0.27772 0.15449 0.00236 0.0
H482 H 0.35362 0.20001 0.99401 0.0
H483 H 0.34611 0.1777 0.95021 0.0
H484 H 0.27701 0.08299 0.95342 0.0
H485 H 0.29363 0.06728 0.98632 0.0
H486 H 0.36585 0.11852 0.96901 0.0
H487 H 0.34911 0.13488 0.93802 0.0
H488 H 0.25835 0.05891 0.88565 0.0
H489 H 0.25654 0.01866 0.88016 0.0
H490 H 0.33476 0.05688 0.89226 0.0
H491 H 0.33627 0.09693 0.89744 0.0
H492 H 0.25851 0.08855 0.83376 0.0
H493 H 0.26086 0.0699 0.79119 0.0
H494 H 0.33783 0.10178 0.8124 0.0
H495 H 0.33517 0.11985 0.85465 0.0
H496 H 0.25882 0.14382 0.85757 0.0
H497 H 0.25975 0.17191 0.8262 0.0
H498 H 0.33276 0.1913 0.81513 0.0
H499 H 0.33169 0.16322 0.8464 0.0
O500 O 0.3021 0.18639 0.04255 0.0
O501 O 0.34094 0.20931 0.03728 0.0
O502 O 0.27514 0.99075 0.87833 0.0
O503 O 0.3153 0.00949 0.88474 0.0
C504 C 0.3006 0.15139 0.90241 0.0
C505 C 0.30304 0.14041 0.92446 0.0
C506 C 0.30253 0.11758 0.92108 0.0
C507 C 0.29824 0.10498 0.89567 0.0
C508 C 0.29566 0.11586 0.87353 0.0
C509 C 0.29646 0.13892 0.87693 0.0
C510 C 0.30788 0.17808 0.90606 0.0
C511 C 0.29223 0.1859 0.91447 0.0
C512 C 0.30067 0.21135 0.92083 0.0
C513 C 0.32499 0.22927 0.9192 0.0
C514 C 0.34036 0.2211 0.91034 0.0
C515 C 0.33184 0.19583 0.90368 0.0
C516 C 0.30774 0.15362 0.95119 0.0
C517 C 0.28865 0.14717 0.96619 0.0
C518 C 0.29284 0.1598 0.99124 0.0
C519 C 0.31624 0.17907 0.00168 0.0
C520 C 0.33538 0.18532 0.98655 0.0
C521 C 0.33115 0.17265 0.96153 0.0
C522 C 0.31191 0.10985 0.9433 0.0
C523 C 0.29643 0.09111 0.95741 0.0
C524 C 0.30602 0.08209 0.97603 0.0
C525 C 0.33118 0.09132 0.9803 0.0
C526 C 0.34651 0.11111 0.96693 0.0
C527 C 0.33696 0.12038 0.94885 0.0
C528 C 0.29741 0.08074 0.89218 0.0
C529 C 0.27505 0.0585 0.88711 0.0
C530 C 0.27408 0.03557 0.88399 0.0
C531 C 0.29552 0.03455 0.88588 0.0
C532 C 0.31792 0.05698 0.89079 0.0
C533 C 0.31884 0.07988 0.89384 0.0
C534 C 0.29664 0.10535 0.84726 0.0
C535 C 0.27582 0.09147 0.82906 0.0
C536 C 0.27723 0.08092 0.80481 0.0
C537 C 0.2995 0.08412 0.79853 0.0
C538 C 0.32032 0.09846 0.81679 0.0
C539 C 0.31888 0.10895 0.84087 0.0
C540 C 0.29514 0.15143 0.8541 0.0
C541 C 0.27469 0.15351 0.84767 0.0
C542 C 0.27522 0.16947 0.82976 0.0
C543 C 0.29635 0.18377 0.81838 0.0
C544 C 0.31627 0.18047 0.82369 0.0
C545 C 0.31564 0.16437 0.84139 0.0
C546 C 0.32061 0.19255 0.02822 0.0
C547 C 0.2946 0.01024 0.88273 0.0
H548 H 0.83622 0.16876 0.0731 0.0
H549 H 0.68144 0.96451 0.85146 0.0
H550 H 0.83049 0.176 0.93271 0.0
H551 H 0.86309 0.21807 0.94911 0.0
H552 H 0.91568 0.19744 0.93014 0.0
H553 H 0.88257 0.15468 0.9145 0.0
H554 H 0.79842 0.14258 0.96186 0.0
H555 H 0.80921 0.15566 0.00904 0.0
H556 H 0.86362 0.13418 0.00886 0.0
H557 H 0.8524 0.12085 0.96168 0.0
H558 H 0.75659 0.10566 0.92083 0.0
H559 H 0.72872 0.09398 0.95354 0.0
H560 H 0.76449 0.05911 0.99103 0.0
H561 H 0.79307 0.07197 0.95854 0.0
H562 H 0.75072 0.08846 0.8639 0.0
H563 H 0.71285 0.05035 0.84631 0.0
H564 H 0.73921 0.00654 0.88225 0.0
H565 H 0.77718 0.04479 0.89934 0.0
H566 H 0.79116 0.12918 0.8424 0.0
H567 H 0.77658 0.11679 0.79564 0.0
H568 H 0.78957 0.0553 0.79711 0.0
H569 H 0.80427 0.06793 0.84418 0.0
H570 H 0.83525 0.17406 0.87515 0.0
H571 H 0.86105 0.20078 0.84522 0.0
H572 H 0.87957 0.14504 0.82155 0.0
H573 H 0.85471 0.11904 0.85301 0.0
O574 O 0.83218 0.16339 0.05446 0.0
O575 O 0.85999 0.15218 0.05328 0.0
O576 O 0.68488 0.00301 0.83737 0.0
O577 O 0.69622 0.97988 0.85826 0.0
C578 C 0.83367 0.13689 0.91239 0.0
C579 C 0.81788 0.12236 0.92976 0.0
C580 C 0.79568 0.10067 0.91983 0.0
C581 C 0.79007 0.09239 0.89272 0.0
C582 C 0.80619 0.10648 0.87532 0.0
C583 C 0.82787 0.12889 0.88514 0.0
C584 C 0.85415 0.16224 0.92259 0.0
C585 C 0.84904 0.18042 0.93243 0.0
C586 C 0.86771 0.20453 0.94156 0.0
C587 C 0.89198 0.21115 0.94076 0.0
C588 C 0.89716 0.19282 0.93121 0.0
C589 C 0.87833 0.1685 0.92211 0.0
C590 C 0.8244 0.13044 0.95843 0.0
C591 C 0.81248 0.14047 0.97209 0.0
C592 C 0.81878 0.14805 0.99902 0.0
C593 C 0.83723 0.14589 0.01275 0.0
C594 C 0.84928 0.13603 0.9989 0.0
C595 C 0.84291 0.12841 0.97198 0.0
C596 C 0.77669 0.0895 0.93726 0.0
C597 C 0.75807 0.09505 0.93581 0.0
C598 C 0.74216 0.08835 0.95458 0.0
C599 C 0.74437 0.07567 0.97506 0.0
C600 C 0.76254 0.06927 0.97583 0.0
C601 C 0.77866 0.07625 0.95712 0.0
C602 C 0.76682 0.06934 0.88256 0.0
C603 C 0.74836 0.0706 0.86776 0.0
C604 C 0.72672 0.04882 0.85782 0.0
C605 C 0.72306 0.02537 0.86276 0.0
C606 C 0.74146 0.02426 0.87801 0.0
C607 C 0.76315 0.04607 0.88781 0.0
C608 C 0.79882 0.09949 0.84662 0.0
C609 C 0.7911 0.11319 0.83258 0.0
C610 C 0.78263 0.10599 0.80596 0.0
C611 C 0.78182 0.085 0.79281 0.0
C612 C 0.79014 0.07163 0.80676 0.0
C613 C 0.79844 0.07874 0.83356 0.0
C614 C 0.8435 0.14486 0.86662 0.0
C615 C 0.84514 0.16778 0.86376 0.0
C616 C 0.85957 0.18281 0.84624 0.0
C617 C 0.8723 0.17501 0.83075 0.0
C618 C 0.87026 0.15176 0.83336 0.0
C619 C 0.85602 0.13685 0.85122 0.0
C620 C 0.84389 0.15398 0.04136 0.0
C621 C 0.7002 0.00216 0.85201 0.0
H622 H 0.89456 0.72309 0.10213 0.0
H623 H 0.69132 0.69854 0.91701 0.0
H624 H 0.90097 0.74177 0.96601 0.0
H625 H 0.93184 0.73363 0.9854 0.0
H626 H 0.89093 0.65782 0.947 0.0
H627 H 0.85999 0.66607 0.92797 0.0
H628 H 0.86219 0.74337 0.00287 0.0
H629 H 0.8774 0.74193 0.04719 0.0
H630 H 0.85969 0.66601 0.02457 0.0
H631 H 0.84416 0.66758 0.98051 0.0
H632 H 0.80971 0.73819 0.98363 0.0
H633 H 0.78091 0.72716 0.01599 0.0
H634 H 0.77003 0.65268 0.00906 0.0
H635 H 0.79799 0.66358 0.97636 0.0
H636 H 0.81071 0.74913 0.91862 0.0
H637 H 0.77442 0.75251 0.91168 0.0
H638 H 0.73056 0.67629 0.92706 0.0
H639 H 0.7669 0.67303 0.93353 0.0
H640 H 0.84784 0.7431 0.87595 0.0
H641 H 0.83375 0.73935 0.8297 0.0
H642 H 0.76815 0.67094 0.83778 0.0
H643 H 0.78343 0.67375 0.8831 0.0
H644 H 0.89224 0.74031 0.90199 0.0
H645 H 0.91018 0.73593 0.8631 0.0
H646 H 0.84606 0.66409 0.83754 0.0
H647 H 0.82897 0.66813 0.87696 0.0
O648 O 0.88829 0.72319 0.08453 0.0
O649 O 0.87908 0.6843 0.07183 0.0
O650 O 0.72886 0.73578 0.90877 0.0
O651 O 0.70588 0.69755 0.91914 0.0
C652 C 0.85661 0.70718 0.94046 0.0
C653 C 0.84357 0.70694 0.96144 0.0
C654 C 0.82177 0.70714 0.95677 0.0
C655 C 0.81367 0.70923 0.9314 0.0
C656 C 0.82652 0.70927 0.91029 0.0
C657 C 0.84768 0.7076 0.91479 0.0
C658 C 0.87822 0.70451 0.94562 0.0
C659 C 0.89913 0.72369 0.96103 0.0
C660 C 0.91672 0.71897 0.97213 0.0
C661 C 0.91363 0.69497 0.96803 0.0
C662 C 0.89362 0.67639 0.95082 0.0
C663 C 0.8761 0.68115 0.93964 0.0
C664 C 0.85233 0.70569 0.98844 0.0
C665 C 0.86156 0.72644 0.00758 0.0
C666 C 0.87027 0.72557 0.03284 0.0
C667 C 0.86987 0.70389 0.0394 0.0
C668 C 0.86035 0.68303 0.02017 0.0
C669 C 0.85156 0.6839 0.99496 0.0
C670 C 0.80588 0.70167 0.9777 0.0
C671 C 0.80115 0.71958 0.98928 0.0
C672 C 0.78485 0.71328 0.00781 0.0
C673 C 0.77311 0.68899 0.01491 0.0
C674 C 0.77848 0.6714 0.0037 0.0
C675 C 0.79461 0.67766 0.98522 0.0
C676 C 0.79147 0.71094 0.92685 0.0
C677 C 0.79323 0.73318 0.92042 0.0
C678 C 0.77249 0.73506 0.91648 0.0
C679 C 0.74959 0.7147 0.91896 0.0
C680 C 0.7479 0.69236 0.92515 0.0
C681 C 0.76864 0.69047 0.92896 0.0
C682 C 0.81667 0.70876 0.88303 0.0
C683 C 0.83041 0.72733 0.86766 0.0
C684 C 0.8222 0.72523 0.84122 0.0
C685 C 0.79982 0.70471 0.82972 0.0
C686 C 0.78573 0.68669 0.84558 0.0
C687 C 0.79421 0.68852 0.87177 0.0
C688 C 0.85936 0.70452 0.89226 0.0
C689 C 0.88228 0.72353 0.88809 0.0
C690 C 0.8923 0.72115 0.86569 0.0
C691 C 0.87947 0.69972 0.84711 0.0
C692 C 0.85654 0.6807 0.85155 0.0
C693 C 0.84671 0.68299 0.87401 0.0
C694 C 0.87932 0.7031 0.06619 0.0
C695 C 0.72755 0.71673 0.91524 0.0
H696 H 0.80517 0.66546 0.31526 0.0
H697 H 0.97251 0.62506 0.51566 0.0
H698 H 0.81755 0.68304 0.47292 0.0
H699 H 0.78539 0.68696 0.44953 0.0
H700 H 0.74743 0.60817 0.42141 0.0
H701 H 0.78002 0.60464 0.44448 0.0
H702 H 0.84176 0.68215 0.42633 0.0
H703 H 0.82871 0.6826 0.38074 0.0
H704 H 0.80469 0.60417 0.3643 0.0
H705 H 0.81768 0.604 0.41003 0.0
H706 H 0.89323 0.68806 0.44507 0.0
H707 H 0.922 0.69699 0.41334 0.0
H708 H 0.89344 0.61795 0.39327 0.0
H709 H 0.86428 0.60924 0.42494 0.0
H710 H 0.90985 0.68354 0.5036 0.0
H711 H 0.94786 0.68491 0.51705 0.0
H712 H 0.9131 0.60565 0.49229 0.0
H713 H 0.87514 0.60455 0.47919 0.0
H714 H 0.88005 0.6842 0.53751 0.0
H715 H 0.89307 0.68594 0.58368 0.0
H716 H 0.85562 0.60538 0.57532 0.0
H717 H 0.84217 0.60394 0.52917 0.0
H718 H 0.84005 0.68574 0.52409 0.0
H719 H 0.82236 0.6894 0.56318 0.0
H720 H 0.77311 0.60959 0.55164 0.0
H721 H 0.79198 0.60614 0.51321 0.0
O722 O 0.81031 0.6649 0.33316 0.0
O723 O 0.79829 0.62459 0.32571 0.0
O724 O 0.97429 0.66546 0.52427 0.0
O725 O 0.95774 0.62506 0.51039 0.0
C726 C 0.82325 0.64272 0.46851 0.0
C727 C 0.83774 0.64262 0.44924 0.0
C728 C 0.85966 0.64334 0.45656 0.0
C729 C 0.86671 0.64311 0.48296 0.0
C730 C 0.85229 0.64316 0.50221 0.0
C731 C 0.8308 0.64347 0.49506 0.0
C732 C 0.80105 0.64355 0.46047 0.0
C733 C 0.80186 0.66648 0.46247 0.0
C734 C 0.78347 0.66868 0.44899 0.0
C735 C 0.76395 0.64793 0.43328 0.0
C736 C 0.76241 0.6246 0.43293 0.0
C737 C 0.78083 0.62245 0.44637 0.0
C738 C 0.83056 0.64303 0.4214 0.0
C739 C 0.83367 0.66511 0.41282 0.0
C740 C 0.82621 0.66531 0.38678 0.0
C741 C 0.8156 0.64341 0.36888 0.0
C742 C 0.81276 0.62135 0.37758 0.0
C743 C 0.8202 0.6212 0.40364 0.0
C744 C 0.87685 0.64806 0.43725 0.0
C745 C 0.89323 0.67271 0.43379 0.0
C746 C 0.90969 0.67774 0.41578 0.0
C747 C 0.91009 0.65817 0.40092 0.0
C748 C 0.89343 0.6334 0.40429 0.0
C749 C 0.87691 0.62838 0.42241 0.0
C750 C 0.8898 0.64393 0.49061 0.0
C751 C 0.9105 0.66651 0.50119 0.0
C752 C 0.93217 0.66723 0.50881 0.0
C753 C 0.9335 0.64536 0.50581 0.0
C754 C 0.9127 0.62281 0.49491 0.0
C755 C 0.89101 0.62211 0.4874 0.0
C756 C 0.86023 0.64396 0.53011 0.0
C757 C 0.87465 0.66696 0.54572 0.0
C758 C 0.88215 0.66789 0.57202 0.0
C759 C 0.87547 0.64579 0.58317 0.0
C760 C 0.86086 0.62272 0.56741 0.0
C761 C 0.85331 0.62184 0.54106 0.0
C762 C 0.81713 0.64572 0.51583 0.0
C763 C 0.82521 0.66912 0.52987 0.0
C764 C 0.81506 0.67114 0.55221 0.0
C765 C 0.79635 0.64977 0.56071 0.0
C766 C 0.7878 0.62637 0.54599 0.0
C767 C 0.79822 0.62437 0.52378 0.0
C768 C 0.80753 0.64363 0.34128 0.0
C769 C 0.95644 0.646 0.51406 0.0
H770 H 0.33507 0.15997 0.35082 0.0
H771 H 0.41092 0.37526 0.56129 0.0
H772 H 0.32426 0.15992 0.49216 0.0
H773 H 0.30748 0.11617 0.47596 0.0
H774 H 0.37672 0.12282 0.49907 0.0
H775 H 0.39376 0.16737 0.51431 0.0
H776 H 0.33036 0.19208 0.45839 0.0
H777 H 0.32544 0.17733 0.41194 0.0
H778 H 0.39852 0.19061 0.42071 0.0
H779 H 0.40329 0.2056 0.46714 0.0
H780 H 0.33045 0.23058 0.49979 0.0
H781 H 0.31284 0.2451 0.46729 0.0
H782 H 0.37738 0.27314 0.42885 0.0
H783 H 0.39524 0.25848 0.46217 0.0
H784 H 0.3451 0.25115 0.5516 0.0
H785 H 0.34988 0.29193 0.56499 0.0
H786 H 0.41999 0.32769 0.53732 0.0
H787 H 0.41511 0.28674 0.52436 0.0
H788 H 0.33923 0.20597 0.57568 0.0
H789 H 0.33551 0.22276 0.6182 0.0
H790 H 0.41054 0.28099 0.6255 0.0
H791 H 0.41421 0.26392 0.58272 0.0
H792 H 0.3335 0.15957 0.54924 0.0
H793 H 0.33139 0.1299 0.5784 0.0
H794 H 0.40747 0.17848 0.60663 0.0
H795 H 0.40964 0.2073 0.57577 0.0
O796 O 0.33745 0.166 0.36922 0.0
O797 O 0.37511 0.17311 0.37478 0.0
O798 O 0.37253 0.33959 0.57039 0.0
O799 O 0.40861 0.35888 0.55628 0.0
C800 C 0.36974 0.19354 0.51315 0.0
C801 C 0.37046 0.20913 0.49436 0.0
C802 C 0.37289 0.2324 0.50244 0.0
C803 C 0.3772 0.24129 0.52935 0.0
C804 C 0.37737 0.2261 0.54832 0.0
C805 C 0.37343 0.20207 0.54019 0.0
C806 C 0.36026 0.16682 0.50415 0.0
C807 C 0.33589 0.152 0.49349 0.0
C808 C 0.32627 0.12693 0.48451 0.0
C809 C 0.34072 0.11596 0.48635 0.0
C810 C 0.36521 0.13083 0.49714 0.0
C811 C 0.37493 0.15616 0.50601 0.0
C812 C 0.36733 0.20028 0.46603 0.0
C813 C 0.34538 0.19206 0.45019 0.0
C814 C 0.34258 0.18351 0.42368 0.0
C815 C 0.36162 0.18287 0.41258 0.0
C816 C 0.38352 0.19094 0.42861 0.0
C817 C 0.38631 0.19952 0.45511 0.0
C818 C 0.36421 0.2438 0.48352 0.0
C819 C 0.34097 0.24013 0.48457 0.0
C820 C 0.33076 0.24801 0.46568 0.0
C821 C 0.34354 0.25974 0.44519 0.0
C822 C 0.36711 0.26393 0.44434 0.0
C823 C 0.37735 0.2558 0.46336 0.0
C824 C 0.37995 0.26603 0.53743 0.0
C825 C 0.36159 0.26781 0.54871 0.0
C826 C 0.36431 0.29113 0.55622 0.0
C827 C 0.38538 0.31309 0.55232 0.0
C828 C 0.40359 0.31117 0.54069 0.0
C829 C 0.40086 0.28782 0.53327 0.0
C830 C 0.37703 0.23361 0.57618 0.0
C831 C 0.35507 0.2219 0.58677 0.0
C832 C 0.35289 0.23171 0.61087 0.0
C833 C 0.37265 0.25335 0.62493 0.0
C834 C 0.39505 0.26426 0.61505 0.0
C835 C 0.39719 0.25452 0.59073 0.0
C836 C 0.37184 0.1853 0.55991 0.0
C837 C 0.34975 0.16371 0.56158 0.0
C838 C 0.34854 0.14693 0.57864 0.0
C839 C 0.3693 0.15166 0.59499 0.0
C840 C 0.39122 0.17393 0.59404 0.0
C841 C 0.39248 0.19055 0.57658 0.0
C842 C 0.35857 0.17372 0.38441 0.0
C843 C 0.38836 0.33792 0.56024 0.0
H844 H 0.80046 0.16946 0.32965 0.0
H845 H 0.01304 0.34052 0.52648 0.0
H846 H 0.79169 0.18421 0.46321 0.0
H847 H 0.75941 0.14156 0.4464 0.0
H848 H 0.79631 0.11278 0.49301 0.0
H849 H 0.82894 0.15505 0.50813 0.0
H850 H 0.83562 0.22761 0.43352 0.0
H851 H 0.82026 0.20909 0.38786 0.0
H852 H 0.82648 0.14543 0.4044 0.0
H853 H 0.8421 0.1643 0.4499 0.0
H854 H 0.89267 0.27422 0.45864 0.0
H855 H 0.92207 0.2877 0.42681 0.0
H856 H 0.91772 0.21617 0.42132 0.0
H857 H 0.8894 0.20326 0.45387 0.0
H858 H 0.89326 0.28882 0.52198 0.0
H859 H 0.93384 0.3257 0.53154 0.0
H860 H 0.96496 0.28001 0.51208 0.0
H861 H 0.92435 0.24327 0.50298 0.0
H862 H 0.85215 0.25466 0.55995 0.0
H863 H 0.86759 0.26948 0.60646 0.0
H864 H 0.91882 0.24429 0.59941 0.0
H865 H 0.90364 0.23014 0.55308 0.0
H866 H 0.79977 0.20264 0.52904 0.0
H867 H 0.7738 0.17624 0.55961 0.0
H868 H 0.83013 0.16181 0.5874 0.0
H869 H 0.85557 0.18747 0.55637 0.0
O870 O 0.80666 0.17649 0.34777 0.0
O871 O 0.81014 0.14415 0.35731 0.0
O872 O 0.98009 0.34855 0.53529 0.0
O873 O 0.99683 0.32616 0.52354 0.0
C874 C 0.83475 0.19801 0.49299 0.0
C875 C 0.84894 0.20864 0.47279 0.0
C876 C 0.87238 0.22975 0.47894 0.0
C877 C 0.88116 0.24126 0.50511 0.0
C878 C 0.86675 0.23112 0.52529 0.0
C879 C 0.84363 0.20938 0.51924 0.0
C880 C 0.8127 0.1728 0.48694 0.0
C881 C 0.79253 0.16863 0.47004 0.0
C882 C 0.77412 0.14426 0.46048 0.0
C883 C 0.77552 0.12371 0.4679 0.0
C884 C 0.79496 0.12811 0.48624 0.0
C885 C 0.81344 0.15233 0.49539 0.0
C886 C 0.8397 0.19719 0.44507 0.0
C887 C 0.83365 0.20967 0.42722 0.0
C888 C 0.82487 0.19904 0.40117 0.0
C889 C 0.82205 0.17572 0.3925 0.0
C890 C 0.82834 0.16336 0.41044 0.0
C891 C 0.83718 0.17405 0.43647 0.0
C892 C 0.88879 0.23771 0.45841 0.0
C893 C 0.89802 0.26148 0.45047 0.0
C894 C 0.9147 0.26909 0.43235 0.0
C895 C 0.92188 0.25282 0.4216 0.0
C896 C 0.91214 0.22886 0.42908 0.0
C897 C 0.89597 0.22149 0.44758 0.0
C898 C 0.90586 0.26344 0.51157 0.0
C899 C 0.90888 0.28682 0.51992 0.0
C900 C 0.93207 0.30785 0.52532 0.0
C901 C 0.95265 0.30582 0.52242 0.0
C902 C 0.94952 0.28226 0.51438 0.0
C903 C 0.92634 0.26125 0.50911 0.0
C904 C 0.87693 0.24155 0.55309 0.0
C905 C 0.86689 0.25265 0.56848 0.0
C906 C 0.87563 0.26092 0.59506 0.0
C907 C 0.89451 0.25814 0.60673 0.0
C908 C 0.90463 0.24723 0.59105 0.0
C909 C 0.89595 0.23906 0.56454 0.0
C910 C 0.82954 0.19698 0.54053 0.0
C911 C 0.80664 0.19419 0.54216 0.0
C912 C 0.79193 0.17928 0.55971 0.0
C913 C 0.79995 0.16691 0.57575 0.0
C914 C 0.82346 0.17099 0.57512 0.0
C915 C 0.83808 0.18581 0.55758 0.0
C916 C 0.81261 0.16443 0.36484 0.0
C917 C 0.9773 0.32817 0.52755 0.0
H918 H 0.99286 0.52305 0.38988 0.0
H919 H 0.99228 0.3313 0.18493 0.0
H920 H 0.94926 0.50171 0.25523 0.0
H921 H 0.96339 0.54487 0.27325 0.0
H922 H 0.02629 0.56989 0.23226 0.0
H923 H 0.01295 0.52688 0.21606 0.0
H924 H 0.95031 0.46274 0.28757 0.0
H925 H 0.96147 0.4835 0.33266 0.0
H926 H 0.0341 0.5328 0.31555 0.0
H927 H 0.02271 0.51171 0.2706 0.0
H928 H 0.95595 0.42116 0.28011 0.0
H929 H 0.97423 0.40707 0.31319 0.0
H930 H 0.04281 0.44729 0.28273 0.0
H931 H 0.02472 0.4622 0.25125 0.0
H932 H 0.93515 0.3929 0.21421 0.0
H933 H 0.93412 0.35333 0.20453 0.0
H934 H 0.01043 0.39388 0.19637 0.0
H935 H 0.01116 0.43323 0.20612 0.0
H936 H 0.93119 0.41919 0.15958 0.0
H937 H 0.93282 0.39998 0.11687 0.0
H938 H 0.01092 0.44352 0.1299 0.0
H939 H 0.00912 0.46248 0.17211 0.0
H940 H 0.93122 0.47915 0.18775 0.0
H941 H 0.92975 0.50826 0.15915 0.0
H942 H 0.00132 0.52897 0.14071 0.0
H943 H 0.00269 0.49996 0.16916 0.0
O944 O 0.98886 0.51502 0.37202 0.0
O945 O 0.02592 0.53993 0.36219 0.0
O946 O 0.95297 0.32668 0.19328 0.0
O947 O 0.99216 0.34665 0.18883 0.0
C948 C 0.97465 0.48514 0.22801 0.0
C949 C 0.97872 0.47336 0.2485 0.0
C950 C 0.97858 0.4509 0.24275 0.0
C951 C 0.97355 0.43965 0.21663 0.0
C952 C 0.96986 0.45152 0.196 0.0
C953 C 0.97 0.47409 0.20169 0.0
C954 C 0.97994 0.51115 0.2341 0.0
C955 C 0.96585 0.51662 0.24981 0.0
C956 C 0.97397 0.54128 0.26009 0.0
C957 C 0.99621 0.56083 0.25458 0.0
C958 C 0.00942 0.55528 0.23748 0.0
C959 C 0.00152 0.5307 0.22764 0.0
C960 C 0.98567 0.48582 0.2759 0.0
C961 C 0.96862 0.47798 0.29367 0.0
C962 C 0.97505 0.4899 0.31937 0.0
C963 C -0.00133 0.50985 0.3277 0.0
C964 C 0.01575 0.51753 0.30978 0.0
C965 C 0.00931 0.50556 0.28411 0.0
C966 C 0.989 0.44232 0.26316 0.0
C967 C 0.97497 0.42704 0.28095 0.0
C968 C 0.98546 0.41902 0.29975 0.0
C969 C 0.01006 0.42602 0.30075 0.0
C970 C 0.02402 0.44192 0.28313 0.0
C971 C 0.01363 0.45014 0.26474 0.0
C972 C 0.97319 0.41583 0.21081 0.0
C973 C 0.95159 0.39314 0.21033 0.0
C974 C 0.95108 0.37061 0.20479 0.0
C975 C 0.97221 0.37044 0.19966 0.0
C976 C 0.99384 0.39332 0.20022 0.0
C977 C 0.99432 0.41582 0.20577 0.0
C978 C 0.97004 0.44231 0.16877 0.0
C979 C 0.94857 0.42487 0.15287 0.0
C980 C 0.94954 0.41391 0.12861 0.0
C981 C 0.97201 0.42006 0.12027 0.0
C982 C 0.99337 0.43815 0.13599 0.0
C983 C 0.99237 0.44917 0.15995 0.0
C984 C 0.96698 0.4873 0.18035 0.0
C985 C 0.94621 0.48935 0.1768 0.0
C986 C 0.94536 0.50589 0.16048 0.0
C987 C 0.96544 0.52079 0.14786 0.0
C988 C 0.9856 0.51759 0.15023 0.0
C989 C 0.98633 0.5009 0.16628 0.0
C990 C 0.0054 0.52256 0.35497 0.0
C991 C 0.97177 0.34657 0.19374 0.0
H992 H 0.49236 0.51582 0.39863 0.0
H993 H 0.34898 0.30114 0.17515 0.0
H994 H 0.49617 0.51883 0.2443 0.0
H995 H 0.52824 0.56001 0.26373 0.0
H996 H 0.57214 0.5287 0.28843 0.0
H997 H 0.54034 0.48767 0.26667 0.0
H998 H 0.46489 0.48972 0.2853 0.0
H999 H 0.47271 0.50443 0.33222 0.0
H1000 H 0.51297 0.46665 0.34435 0.0
H1001 H 0.50493 0.45207 0.29737 0.0
H1002 H 0.41958 0.44493 0.25279 0.0
H1003 H 0.3918 0.43189 0.28571 0.0
H1004 H 0.42606 0.39344 0.31812 0.0
H1005 H 0.45445 0.40755 0.28548 0.0
H1006 H 0.41279 0.42557 0.19431 0.0
H1007 H 0.37584 0.38691 0.17562 0.0
H1008 H 0.40491 0.34428 0.20901 0.0
H1009 H 0.44184 0.38309 0.22736 0.0
H1010 H 0.45282 0.46608 0.17218 0.0
H1011 H 0.43864 0.45331 0.12536 0.0
H1012 H 0.45571 0.39466 0.12728 0.0
H1013 H 0.46991 0.40761 0.17444 0.0
H1014 H 0.4953 0.50922 0.19817 0.0
H1015 H 0.52453 0.53598 0.17093 0.0
H1016 H 0.55049 0.48409 0.16214 0.0
H1017 H 0.52236 0.45856 0.19151 0.0
O1018 O 0.48949 0.50983 0.38017 0.0
O1019 O 0.51001 0.4901 0.38534 0.0
O1020 O 0.34905 0.33948 0.16585 0.0
O1021 O 0.36312 0.31673 0.1828 0.0
C1022 C 0.49571 0.47535 0.24271 0.0
C1023 C 0.47947 0.46088 0.25969 0.0
C1024 C 0.45782 0.43875 0.24951 0.0
C1025 C 0.45281 0.43043 0.22243 0.0
C1026 C 0.46918 0.44475 0.20536 0.0
C1027 C 0.49059 0.46723 0.21552 0.0
C1028 C 0.51624 0.50045 0.25334 0.0
C1029 C 0.51301 0.52102 0.25324 0.0
C1030 C 0.53123 0.54451 0.26499 0.0
C1031 C 0.55287 0.54787 0.27807 0.0
C1032 C 0.55597 0.52704 0.27827 0.0
C1033 C 0.53782 0.50354 0.26589 0.0
C1034 C 0.48435 0.46987 0.28808 0.0
C1035 C 0.47538 0.48468 0.29818 0.0
C1036 C 0.47988 0.49303 0.32495 0.0
C1037 C 0.49346 0.48671 0.34205 0.0
C1038 C 0.50245 0.47186 0.33174 0.0
C1039 C 0.49791 0.46351 0.30496 0.0
C1040 C 0.4388 0.42698 0.26671 0.0
C1041 C 0.42073 0.43327 0.26671 0.0
C1042 C 0.40489 0.42579 0.28556 0.0
C1043 C 0.40674 0.41169 0.30467 0.0
C1044 C 0.42441 0.40465 0.30397 0.0
C1045 C 0.44041 0.41236 0.28518 0.0
C1046 C 0.43004 0.40707 0.21193 0.0
C1047 C 0.41114 0.40785 0.19748 0.0
C1048 C 0.39006 0.38576 0.18689 0.0
C1049 C 0.38747 0.36249 0.19071 0.0
C1050 C 0.40633 0.36186 0.20562 0.0
C1051 C 0.42742 0.38398 0.21615 0.0
C1052 C 0.46243 0.4378 0.17663 0.0
C1053 C 0.45377 0.45066 0.16244 0.0
C1054 C 0.44553 0.44324 0.13579 0.0
C1055 C 0.44596 0.4229 0.12277 0.0
C1056 C 0.45531 0.41046 0.13684 0.0
C1057 C 0.46335 0.41777 0.16369 0.0
C1058 C 0.50737 0.4825 0.19753 0.0
C1059 C 0.50764 0.50393 0.19076 0.0
C1060 C 0.52405 0.5189 0.17464 0.0
C1061 C 0.54005 0.51232 0.16425 0.0
C1062 C 0.53889 0.4901 0.1702 0.0
C1063 C 0.52275 0.4754 0.18684 0.0
C1064 C 0.4982 0.49559 0.37049 0.0
C1065 C 0.36534 0.33894 0.17905 0.0
H1066 H 0.5453 0.02807 0.42981 0.0
H1067 H 0.33525 0.98634 0.23251 0.0
H1068 H 0.54817 0.05023 0.29403 0.0
H1069 H 0.5811 0.04878 0.31912 0.0
H1070 H 0.54873 0.97086 0.28923 0.0
H1071 H 0.51611 0.9727 0.26381 0.0
H1072 H 0.50946 0.04498 0.33047 0.0
H1073 H 0.52566 0.04483 0.37483 0.0
H1074 H 0.50854 0.96886 0.35402 0.0
H1075 H 0.49213 0.9692 0.30987 0.0
H1076 H 0.45837 0.03975 0.30719 0.0
H1077 H 0.43136 0.03255 0.34085 0.0
H1078 H 0.41725 0.95704 0.33921 0.0
H1079 H 0.44438 0.96452 0.30584 0.0
H1080 H 0.45599 0.04644 0.24433 0.0
H1081 H 0.41813 0.04652 0.23505 0.0
H1082 H 0.3778 0.96932 0.24852 0.0
H1083 H 0.41578 0.96946 0.25757 0.0
H1084 H 0.49823 0.04695 0.20661 0.0
H1085 H 0.48535 0.04696 0.16105 0.0
H1086 H 0.42089 0.9753 0.16232 0.0
H1087 H 0.43537 0.97441 0.20681 0.0
H1088 H 0.54272 0.04885 0.23609 0.0
H1089 H 0.5654 0.05077 0.19936 0.0
H1090 H 0.50855 0.97661 0.16651 0.0
H1091 H 0.48654 0.97457 0.20374 0.0
O1092 O 0.53833 0.02756 0.41235 0.0
O1093 O 0.52936 0.98859 0.40057 0.0
O1094 O 0.37219 0.02701 0.23134 0.0
O1095 O 0.35048 0.98676 0.2359 0.0
C1096 C 0.50638 0.01038 0.26983 0.0
C1097 C 0.49157 0.008 0.28962 0.0
C1098 C 0.4692 0.00665 0.28351 0.0
C1099 C 0.46169 0.0082 0.25768 0.0
C1100 C 0.47624 0.01015 0.23765 0.0
C1101 C 0.49852 0.01093 0.24376 0.0
C1102 C 0.52975 0.01157 0.27713 0.0
C1103 C 0.54878 0.03315 0.29202 0.0
C1104 C 0.56737 0.03217 0.30666 0.0
C1105 C 0.56723 0.00955 0.30666 0.0
C1106 C 0.54942 0.98859 0.28964 0.0
C1107 C 0.53082 0.98962 0.27495 0.0
C1108 C 0.49974 0.00716 0.317 0.0
C1109 C 0.50902 0.02827 0.33565 0.0
C1110 C 0.51835 0.02814 0.36091 0.0
C1111 C 0.51852 0.00687 0.36793 0.0
C1112 C 0.50876 0.98557 0.34925 0.0
C1113 C 0.49937 0.98571 0.32404 0.0
C1114 C 0.45326 0.00265 0.30416 0.0
C1115 C 0.44945 0.02171 0.31421 0.0
C1116 C 0.434 0.01753 0.33333 0.0
C1117 C 0.42223 0.99424 0.34271 0.0
C1118 C 0.42635 0.9753 0.3327 0.0
C1119 C 0.44171 0.97948 0.31357 0.0
C1120 C 0.43861 0.00799 0.2517 0.0
C1121 C 0.43895 0.02956 0.24518 0.0
C1122 C 0.41731 0.02955 0.23995 0.0
C1123 C 0.39493 0.00792 0.24111 0.0
C1124 C 0.3947 0.98629 0.24749 0.0
C1125 C 0.41636 0.98633 0.25274 0.0
C1126 C 0.46779 0.01069 0.21015 0.0
C1127 C 0.48148 0.03113 0.19688 0.0
C1128 C 0.47385 0.03122 0.17084 0.0
C1129 C 0.45194 0.01114 0.15767 0.0
C1130 C 0.4381 0.9909 0.17133 0.0
C1131 C 0.44613 0.99051 0.19707 0.0
C1132 C 0.5131 0.01152 0.22262 0.0
C1133 C 0.53539 0.03292 0.22112 0.0
C1134 C 0.54811 0.03412 0.19994 0.0
C1135 C 0.53869 0.0139 0.17992 0.0
C1136 C 0.51641 0.9924 0.1817 0.0
C1137 C 0.5038 0.9912 0.20292 0.0
C1138 C 0.52901 0.00701 0.39457 0.0
C1139 C 0.37191 0.0079 0.23579 0.0
H1140 H 0.48601 0.02107 0.65565 0.0
H1141 H 0.641 0.96822 0.86265 0.0
H1142 H 0.48857 0.0253 0.80325 0.0
H1143 H 0.45541 0.0274 0.77969 0.0
H1144 H 0.41358 0.94689 0.76587 0.0
H1145 H 0.44721 0.94509 0.78921 0.0
H1146 H 0.52271 0.02955 0.76523 0.0
H1147 H 0.51145 0.03361 0.72031 0.0
H1148 H 0.46748 0.95331 0.70356 0.0
H1149 H 0.47911 0.94957 0.74851 0.0
H1150 H 0.56495 0.03187 0.7828 0.0
H1151 H 0.59246 0.03917 0.74988 0.0
H1152 H 0.56049 0.95955 0.73011 0.0
H1153 H 0.53266 0.95252 0.76291 0.0
H1154 H 0.58125 0.02638 0.83039 0.0
H1155 H 0.61935 0.0282 0.84453 0.0
H1156 H 0.58071 0.94804 0.84301 0.0
H1157 H 0.54274 0.94653 0.82881 0.0
H1158 H 0.55414 0.02229 0.87337 0.0
H1159 H 0.56915 0.02277 0.91815 0.0
H1160 H 0.51789 0.9436 0.91334 0.0
H1161 H 0.50516 0.94311 0.86758 0.0
H1162 H 0.49442 0.01971 0.85602 0.0
H1163 H 0.47096 0.01811 0.89163 0.0
H1164 H 0.44576 0.93938 0.89064 0.0
H1165 H 0.46737 0.94093 0.85334 0.0
O1166 O 0.49036 0.01903 0.67327 0.0
O1167 O 0.46768 0.97769 0.6658 0.0
O1168 O 0.64491 0.00929 0.85894 0.0
O1169 O 0.62624 0.96798 0.85673 0.0
C1170 C 0.49241 0.98427 0.80614 0.0
C1171 C 0.50817 0.98693 0.78738 0.0
C1172 C 0.53007 0.98764 0.79469 0.0
C1173 C 0.5362 0.98539 0.8207 0.0
C1174 C 0.52047 0.98264 0.83954 0.0
C1175 C 0.49848 0.98201 0.83222 0.0
C1176 C 0.47019 0.98505 0.79809 0.0
C1177 C 0.47191 0.00812 0.79591 0.0
C1178 C 0.45293 0.00926 0.78237 0.0
C1179 C 0.43188 0.9873 0.77068 0.0
C1180 C 0.42966 0.96414 0.77434 0.0
C1181 C 0.44869 0.96304 0.78795 0.0
C1182 C 0.5018 0.98928 0.75996 0.0
C1183 C 0.51079 0.01288 0.75173 0.0
C1184 C 0.50426 0.01513 0.72611 0.0
C1185 C 0.48856 0.99378 0.70833 0.0
C1186 C 0.47963 0.97012 0.71674 0.0
C1187 C 0.48624 0.96792 0.74235 0.0
C1188 C 0.547 0.99171 0.7752 0.0
C1189 C 0.56398 0.01605 0.77137 0.0
C1190 C 0.57971 0.02015 0.75266 0.0
C1191 C 0.57871 -8e-05 0.73746 0.0
C1192 C 0.56154 0.97549 0.74134 0.0
C1193 C 0.54579 0.97143 0.76013 0.0
C1194 C 0.55934 0.98631 0.82841 0.0
C1195 C 0.58112 0.00923 0.8329 0.0
C1196 C 0.60282 0.01021 0.84108 0.0
C1197 C 0.60307 0.98825 0.84491 0.0
C1198 C 0.58116 0.96529 0.84023 0.0
C1199 C 0.55947 0.96436 0.83209 0.0
C1200 C 0.52826 0.98276 0.86737 0.0
C1201 C 0.54624 0.00507 0.88207 0.0
C1202 C 0.55459 0.0053 0.90787 0.0
C1203 C 0.54464 0.98326 0.91988 0.0
C1204 C 0.52638 0.96093 0.90495 0.0
C1205 C 0.51864 0.96064 0.87884 0.0
C1206 C 0.48271 0.98049 0.85231 0.0
C1207 C 0.48343 0.00208 0.86326 0.0
C1208 C 0.47032 0.00115 0.88397 0.0
C1209 C 0.45668 0.97869 0.89455 0.0
C1210 C 0.45575 0.95699 0.88302 0.0
C1211 C 0.46831 0.95784 0.86183 0.0
C1212 C 0.48151 0.99624 0.68118 0.0
C1213 C 0.62604 0.98924 0.85392 0.0
H1214 H 0.96454 0.447 0.70387 0.0
H1215 H 0.04684 0.69128 0.88806 0.0
H1216 H 0.99102 0.47456 0.86817 0.0
H1217 H 0.97794 0.43177 0.85083 0.0
H1218 H 0.039 0.45858 0.80674 0.0
H1219 H 0.05276 0.50137 0.82557 0.0
H1220 H 0.97779 0.48934 0.81282 0.0
H1221 H 0.96525 0.46692 0.76843 0.0
H1222 H 0.03726 0.51484 0.74879 0.0
H1223 H 0.04957 0.53695 0.79335 0.0
H1224 H 0.97685 0.54161 0.82995 0.0
H1225 H 0.9601 0.5562 0.79655 0.0
H1226 H 0.02894 0.59167 0.7659 0.0
H1227 H 0.04588 0.57793 0.80071 0.0
H1228 H 0.98982 0.56708 0.8785 0.0
H1229 H 0.98945 0.60591 0.88784 0.0
H1230 H 0.06375 0.64776 0.87221 0.0
H1231 H 0.06388 0.60875 0.86312 0.0
H1232 H 0.99399 0.53804 0.91257 0.0
H1233 H 0.99315 0.55947 0.95362 0.0
H1234 H 0.07056 0.60868 0.95983 0.0
H1235 H 0.07122 0.58686 0.91844 0.0
H1236 H 0.00512 0.50531 0.91867 0.0
H1237 H 0.01082 0.47857 0.94726 0.0
H1238 H 0.07655 0.49498 0.91525 0.0
H1239 H 0.07152 0.52277 0.88756 0.0
O1240 O 0.96984 0.45618 0.72128 0.0
O1241 O 0.00708 0.48143 0.71211 0.0
O1242 O 0.0084 0.65328 0.89265 0.0
O1243 O 0.0465 0.67566 0.88453 0.0
C1244 C 0.02718 0.51674 0.85396 0.0
C1245 C 0.02221 0.52784 0.83335 0.0
C1246 C 0.02222 0.55024 0.83882 0.0
C1247 C 0.02724 0.5617 0.86484 0.0
C1248 C 0.03181 0.55048 0.88562 0.0
C1249 C 0.03239 0.52825 0.88016 0.0
C1250 C 0.02282 0.49107 0.84812 0.0
C1251 C 0.00207 0.47114 0.85555 0.0
C1252 C 0.99436 0.44673 0.84518 0.0
C1253 C 0.00705 0.4418 0.82683 0.0
C1254 C 0.02878 0.46171 0.8208 0.0
C1255 C 0.03668 0.48616 0.83152 0.0
C1256 C 0.01456 0.51471 0.8062 0.0
C1257 C 0.99079 0.49495 0.79885 0.0
C1258 C 0.9837 0.4822 0.77351 0.0
C1259 C 0.00026 0.48908 0.75505 0.0
C1260 C 0.02405 0.50906 0.76252 0.0
C1261 C 0.03113 0.52176 0.7879 0.0
C1262 C 0.01261 0.55911 0.81792 0.0
C1263 C 0.9883 0.55261 0.81605 0.0
C1264 C 0.97866 0.56059 0.79658 0.0
C1265 C 0.99308 0.57496 0.77826 0.0
C1266 C 0.01738 0.58083 0.77979 0.0
C1267 C 0.0271 0.57304 0.79959 0.0
C1268 C 0.02693 0.5852 0.87033 0.0
C1269 C 0.00601 0.58468 0.87722 0.0
C1270 C 0.00584 0.60687 0.88249 0.0
C1271 C 0.0266 0.62996 0.88082 0.0
C1272 C 0.04748 0.63032 0.87373 0.0
C1273 C 0.04762 0.6081 0.86852 0.0
C1274 C 0.03271 0.56059 0.91282 0.0
C1275 C 0.01087 0.55299 0.92316 0.0
C1276 C 0.01038 0.5655 0.94637 0.0
C1277 C 0.03175 0.58595 0.95973 0.0
C1278 C 0.05384 0.59293 0.94995 0.0
C1279 C 0.05428 0.58043 0.92648 0.0
C1280 C 0.03815 0.51646 0.90134 0.0
C1281 C 0.02146 0.50433 0.91883 0.0
C1282 C 0.02461 0.48889 0.935 0.0
C1283 C 0.04421 0.48502 0.93349 0.0
C1284 C 0.06149 0.49802 0.91692 0.0
C1285 C 0.05861 0.51383 0.90116 0.0
C1286 C 0.9927 0.47541 0.72818 0.0
C1287 C 0.02652 0.6536 0.88638 0.0
H1288 H 0.4684 0.51141 0.66651 0.0
H1289 H 0.68418 0.66938 0.86801 0.0
H1290 H 0.45955 0.51959 0.80558 0.0
H1291 H 0.42398 0.47762 0.7924 0.0
H1292 H 0.46492 0.44533 0.82339 0.0
H1293 H 0.49972 0.48677 0.83653 0.0
H1294 H 0.50602 0.56382 0.77286 0.0
H1295 H 0.48981 0.54795 0.72677 0.0
H1296 H 0.49343 0.48165 0.73686 0.0
H1297 H 0.50992 0.49788 0.78278 0.0
H1298 H 0.56544 0.60752 0.79768 0.0
H1299 H 0.59521 0.62066 0.76621 0.0
H1300 H 0.58573 0.54692 0.75642 0.0
H1301 H 0.5572 0.53427 0.78883 0.0
H1302 H 0.56449 0.61967 0.86188 0.0
H1303 H 0.60537 0.65585 0.8727 0.0
H1304 H 0.63527 0.60997 0.84903 0.0
H1305 H 0.59434 0.57391 0.83859 0.0
H1306 H 0.52107 0.58164 0.89998 0.0
H1307 H 0.53626 0.59358 0.94641 0.0
H1308 H 0.59281 0.57694 0.93324 0.0
H1309 H 0.57545 0.56209 0.8878 0.0
H1310 H 0.47631 0.5461 0.87125 0.0
H1311 H 0.44841 0.52251 0.9016 0.0
H1312 H 0.48708 0.48293 0.91354 0.0
H1313 H 0.51596 0.50836 0.88517 0.0
O1314 O 0.47488 0.51735 0.68477 0.0
O1315 O 0.47701 0.48358 0.69101 0.0
O1316 O 0.65153 0.67816 0.87592 0.0
O1317 O 0.66783 0.65531 0.86428 0.0
C1318 C 0.50432 0.53088 0.82906 0.0
C1319 C 0.51868 0.5418 0.80919 0.0
C1320 C 0.54255 0.56202 0.81585 0.0
C1321 C 0.55152 0.57247 0.84234 0.0
C1322 C 0.53684 0.56196 0.8623 0.0
C1323 C 0.51323 0.54116 0.85553 0.0
C1324 C 0.48197 0.50614 0.82254 0.0
C1325 C 0.46054 0.50335 0.80981 0.0
C1326 C 0.4404 0.47945 0.80211 0.0
C1327 C 0.44153 0.45817 0.80715 0.0
C1328 C 0.46316 0.46128 0.81982 0.0
C1329 C 0.48309 0.48496 0.82741 0.0
C1330 C 0.50885 0.53187 0.78123 0.0
C1331 C 0.50327 0.54586 0.76506 0.0
C1332 C 0.49401 0.53675 0.73876 0.0
C1333 C 0.49022 0.51348 0.72815 0.0
C1334 C 0.49601 0.49958 0.74442 0.0
C1335 C 0.50531 0.50875 0.7707 0.0
C1336 C 0.55905 0.5699 0.7954 0.0
C1337 C 0.56976 0.59423 0.78868 0.0
C1338 C 0.58662 0.60166 0.77078 0.0
C1339 C 0.59243 0.58464 0.75896 0.0
C1340 C 0.58122 0.56017 0.76514 0.0
C1341 C 0.56491 0.55297 0.78349 0.0
C1342 C 0.57644 0.59423 0.84925 0.0
C1343 C 0.5799 0.61748 0.85911 0.0
C1344 C 0.60326 0.6381 0.86524 0.0
C1345 C 0.6236 0.63582 0.86162 0.0
C1346 C 0.62003 0.61241 0.85196 0.0
C1347 C 0.59666 0.59179 0.8459 0.0
C1348 C 0.54707 0.57094 0.89037 0.0
C1349 C 0.53652 0.58025 0.90728 0.0
C1350 C 0.54558 0.58749 0.93387 0.0
C1351 C 0.56593 0.58634 0.94403 0.0
C1352 C 0.57679 0.57759 0.92668 0.0
C1353 C 0.56717 0.56952 0.90038 0.0
C1354 C 0.49805 0.52885 0.87607 0.0
C1355 C 0.47897 0.53272 0.88102 0.0
C1356 C 0.46287 0.51893 0.89815 0.0
C1357 C 0.46506 0.50036 0.90993 0.0
C1358 C 0.48483 0.49724 0.90542 0.0
C1359 C 0.50133 0.5116 0.88895 0.0
C1360 C 0.48032 0.50382 0.70022 0.0
C1361 C 0.64844 0.65775 0.86776 0.0
H1362 H 0.6265 0.84698 0.73136 0.0
H1363 H 0.64897 0.65868 0.5498 0.0
H1364 H 0.60468 0.83501 0.58802 0.0
H1365 H 0.61919 0.87965 0.59912 0.0
H1366 H 0.69029 0.89705 0.58121 0.0
H1367 H 0.67537 0.85303 0.5692 0.0
H1368 H 0.59858 0.78975 0.62726 0.0
H1369 H 0.60324 0.80906 0.67194 0.0
H1370 H 0.6788 0.86041 0.6668 0.0
H1371 H 0.67391 0.84077 0.62226 0.0
H1372 H 0.60637 0.74014 0.61759 0.0
H1373 H 0.62299 0.72376 0.64974 0.0
H1374 H 0.69527 0.78331 0.64231 0.0
H1375 H 0.67837 0.79991 0.6119 0.0
H1376 H 0.59042 0.72196 0.54984 0.0
H1377 H 0.58954 0.68224 0.54294 0.0
H1378 H 0.6673 0.72118 0.56306 0.0
H1379 H 0.66791 0.76072 0.56958 0.0
H1380 H 0.59201 0.75408 0.50192 0.0
H1381 H 0.59545 0.73652 0.45934 0.0
H1382 H 0.67197 0.76742 0.48296 0.0
H1383 H 0.66816 0.78429 0.52533 0.0
H1384 H 0.5928 0.81026 0.52727 0.0
H1385 H 0.59563 0.8394 0.49646 0.0
H1386 H 0.66841 0.85662 0.48714 0.0
H1387 H 0.66548 0.8276 0.51807 0.0
O1388 O 0.62507 0.83959 0.7137 0.0
O1389 O 0.66379 0.86559 0.71002 0.0
O1390 O 0.60888 0.655 0.54184 0.0
O1391 O 0.6488 0.67411 0.55229 0.0
C1392 C 0.63155 0.81428 0.57278 0.0
C1393 C 0.63271 0.8022 0.59439 0.0
C1394 C 0.63245 0.77951 0.59038 0.0
C1395 C 0.62946 0.76804 0.56468 0.0
C1396 C 0.62799 0.77995 0.54297 0.0
C1397 C 0.6288 0.80299 0.54701 0.0
C1398 C 0.63891 0.84095 0.57741 0.0
C1399 C 0.62323 0.84865 0.58606 0.0
C1400 C 0.63164 0.87408 0.59266 0.0
C1401 C 0.6559 0.89203 0.59092 0.0
C1402 C 0.67137 0.88396 0.58214 0.0
C1403 C 0.66291 0.85876 0.5753 0.0
C1404 C 0.63582 0.81406 0.62148 0.0
C1405 C 0.6161 0.80519 0.63584 0.0
C1406 C 0.61882 0.81626 0.66134 0.0
C1407 C 0.64137 0.83635 0.67291 0.0
C1408 C 0.66116 0.84505 0.65845 0.0
C1409 C 0.65841 0.83393 0.63298 0.0
C1410 C 0.64123 0.77113 0.61251 0.0
C1411 C 0.62571 0.74989 0.62365 0.0
C1412 C 0.63531 0.74052 0.64184 0.0
C1413 C 0.66059 0.75201 0.64865 0.0
C1414 C 0.67576 0.77409 0.63827 0.0
C1415 C 0.66616 0.78359 0.62057 0.0
C1416 C 0.62917 0.74411 0.56047 0.0
C1417 C 0.60721 0.72182 0.55275 0.0
C1418 C 0.60678 0.69919 0.54884 0.0
C1419 C 0.62835 0.69852 0.55255 0.0
C1420 C 0.65035 0.721 0.56012 0.0
C1421 C 0.65075 0.7436 0.56396 0.0
C1422 C 0.62982 0.77033 0.51664 0.0
C1423 C 0.60947 0.75706 0.49774 0.0
C1424 C 0.61151 0.74712 0.47347 0.0
C1425 C 0.63396 0.75038 0.46782 0.0
C1426 C 0.65432 0.76408 0.48681 0.0
C1427 C 0.65224 0.77392 0.51095 0.0
C1428 C 0.62885 0.81667 0.5247 0.0
C1429 C 0.60907 0.8198 0.51797 0.0
C1430 C 0.61072 0.83641 0.50037 0.0
C1431 C 0.63229 0.85035 0.48952 0.0
C1432 C 0.65163 0.84622 0.49535 0.0
C1433 C 0.6499 0.82949 0.51278 0.0
C1434 C 0.64418 0.84812 0.69997 0.0
C1435 C 0.62799 0.67453 0.54854 0.0
H1436 H 0.16613 0.82891 0.74523 0.0
H1437 H 0.01817 0.63052 0.51767 0.0
H1438 H 0.1613 0.8411 0.6063 0.0
H1439 H 0.1923 0.88345 0.62404 0.0
H1440 H 0.24772 0.86797 0.60269 0.0
H1441 H 0.21624 0.8248 0.58592 0.0
H1442 H 0.1297 0.8056 0.63366 0.0
H1443 H 0.13965 0.81706 0.68109 0.0
H1444 H 0.19693 0.79981 0.67962 0.0
H1445 H 0.18656 0.78806 0.63218 0.0
H1446 H 0.08936 0.76937 0.59112 0.0
H1447 H 0.06018 0.7543 0.62233 0.0
H1448 H 0.09761 0.72041 0.6584 0.0
H1449 H 0.12749 0.73666 0.6274 0.0
H1450 H 0.08489 0.75478 0.53414 0.0
H1451 H 0.04761 0.71646 0.51558 0.0
H1452 H 0.07542 0.67296 0.54942 0.0
H1453 H 0.11279 0.71145 0.56752 0.0
H1454 H 0.12506 0.79688 0.51335 0.0
H1455 H 0.1108 0.78485 0.46647 0.0
H1456 H 0.12575 0.72464 0.46719 0.0
H1457 H 0.14012 0.7369 0.51429 0.0
H1458 H 0.1685 0.84239 0.54818 0.0
H1459 H 0.19413 0.87024 0.5189 0.0
H1460 H 0.21372 0.81583 0.49307 0.0
H1461 H 0.1892 0.78881 0.52399 0.0
O1462 O 0.16244 0.8242 0.72647 0.0
O1463 O 0.19175 0.8152 0.72463 0.0
O1464 O 0.02035 0.66912 0.50565 0.0
O1465 O 0.03273 0.64596 0.52481 0.0
C1466 C 0.16689 0.80421 0.58393 0.0
C1467 C 0.15118 0.78852 0.60071 0.0
C1468 C 0.12956 0.76651 0.59006 0.0
C1469 C 0.12447 0.7591 0.56278 0.0
C1470 C 0.14057 0.77427 0.54597 0.0
C1471 C 0.16167 0.79697 0.55651 0.0
C1472 C 0.18649 0.82978 0.59498 0.0
C1473 C 0.18014 0.84667 0.60583 0.0
C1474 C 0.1979 0.87097 0.61572 0.0
C1475 C 0.2225 0.87918 0.61459 0.0
C1476 C 0.22894 0.86214 0.60406 0.0
C1477 C 0.21102 0.83758 0.59429 0.0
C1478 C 0.15719 0.79566 0.62954 0.0
C1479 C 0.14422 0.80405 0.64365 0.0
C1480 C 0.15003 0.81072 0.67074 0.0
C1481 C 0.16904 0.80928 0.68418 0.0
C1482 C 0.18214 0.80107 0.6699 0.0
C1483 C 0.17626 0.79436 0.64281 0.0
C1484 C 0.11037 0.75393 0.60693 0.0
C1485 C 0.09098 0.75829 0.60547 0.0
C1486 C 0.0743 0.74961 0.62335 0.0
C1487 C 0.07649 0.73609 0.64293 0.0
C1488 C 0.0956 0.73108 0.64382 0.0
C1489 C 0.11249 0.74004 0.62598 0.0
C1490 C 0.10167 0.73585 0.55184 0.0
C1491 C 0.08298 0.73695 0.53732 0.0
C1492 C 0.06167 0.71504 0.52683 0.0
C1493 C 0.05858 0.69163 0.53092 0.0
C1494 C 0.07723 0.69066 0.54584 0.0
C1495 C 0.09859 0.7126 0.55621 0.0
C1496 C 0.13371 0.76783 0.51716 0.0
C1497 C 0.12554 0.78129 0.50332 0.0
C1498 C 0.11722 0.77427 0.47664 0.0
C1499 C 0.11704 0.75372 0.46324 0.0
C1500 C 0.12583 0.74063 0.47701 0.0
C1501 C 0.13397 0.74755 0.50384 0.0
C1502 C 0.17735 0.8138 0.53858 0.0
C1503 C 0.17863 0.83667 0.5365 0.0
C1504 C 0.19297 0.85236 0.51934 0.0
C1505 C 0.20592 0.84525 0.50338 0.0
C1506 C 0.20428 0.82208 0.50526 0.0
C1507 C 0.1902 0.80655 0.52281 0.0
C1508 C 0.17517 0.81638 0.71296 0.0
C1509 C 0.03604 0.6683 0.51968 0.0
H1510 H 0.22652 0.39192 0.76979 0.0
H1511 H 0.01825 0.35489 0.57863 0.0
H1512 H 0.2289 0.40466 0.6334 0.0
H1513 H 0.2598 0.39892 0.65702 0.0
H1514 H 0.22035 0.32087 0.62567 0.0
H1515 H 0.18985 0.32699 0.60174 0.0
H1516 H 0.19052 0.40614 0.66894 0.0
H1517 H 0.20705 0.40726 0.7136 0.0
H1518 H 0.18818 0.33036 0.69603 0.0
H1519 H 0.17136 0.3294 0.65161 0.0
H1520 H 0.13746 0.39998 0.6473 0.0
H1521 H 0.10791 0.39081 0.67858 0.0
H1522 H 0.09639 0.31629 0.67716 0.0
H1523 H 0.12526 0.32537 0.6456 0.0
H1524 H 0.13801 0.4074 0.58227 0.0
H1525 H 0.10124 0.40964 0.57345 0.0
H1526 H 0.05837 0.33413 0.59133 0.0
H1527 H 0.09518 0.33199 0.59962 0.0
H1528 H 0.17757 0.40232 0.54333 0.0
H1529 H 0.16474 0.39865 0.4968 0.0
H1530 H 0.09873 0.33 0.50335 0.0
H1531 H 0.11302 0.3326 0.54899 0.0
H1532 H 0.22111 0.40193 0.57165 0.0
H1533 H 0.24041 0.3994 0.53323 0.0
H1534 H 0.17944 0.32557 0.50699 0.0
H1535 H 0.16083 0.32797 0.54583 0.0
O1536 O 0.21946 0.39092 0.75221 0.0
O1537 O 0.20978 0.35151 0.74201 0.0
O1538 O 0.05546 0.39197 0.56941 0.0
O1539 O 0.033 0.35431 0.58137 0.0
C1540 C 0.18506 0.36778 0.60926 0.0
C1541 C 0.17138 0.36778 0.6295 0.0
C1542 C 0.14951 0.36756 0.62365 0.0
C1543 C 0.14176 0.36863 0.59769 0.0
C1544 C 0.15531 0.36852 0.57734 0.0
C1545 C 0.17672 0.36752 0.58312 0.0
C1546 C 0.2071 0.36623 0.61595 0.0
C1547 C 0.2275 0.38658 0.63078 0.0
C1548 C 0.24493 0.38316 0.64456 0.0
C1549 C 0.24225 0.3593 0.64374 0.0
C1550 C 0.22304 0.3395 0.62672 0.0
C1551 C 0.20562 0.34296 0.61289 0.0
C1552 C 0.17994 0.36777 0.65704 0.0
C1553 C 0.18979 0.38951 0.67488 0.0
C1554 C 0.1993 0.39012 0.70032 0.0
C1555 C 0.19907 0.36894 0.70834 0.0
C1556 C 0.18874 0.34703 0.69047 0.0
C1557 C 0.17915 0.34643 0.66509 0.0
C1558 C 0.13343 0.36331 0.64422 0.0
C1559 C 0.12864 0.38178 0.65397 0.0
C1560 C 0.1119 0.37655 0.67187 0.0
C1561 C 0.09973 0.35277 0.68013 0.0
C1562 C 0.1052 0.33465 0.67085 0.0
C1563 C 0.12184 0.33986 0.65303 0.0
C1564 C 0.11929 0.36963 0.59181 0.0
C1565 C 0.12065 0.39134 0.58416 0.0
C1566 C 0.09963 0.39257 0.57917 0.0
C1567 C 0.07687 0.3721 0.58183 0.0
C1568 C 0.07559 0.35028 0.58924 0.0
C1569 C 0.0966 0.34903 0.59407 0.0
C1570 C 0.14628 0.36774 0.54965 0.0
C1571 C 0.16039 0.38644 0.53461 0.0
C1572 C 0.15285 0.38441 0.50799 0.0
C1573 C 0.13066 0.36392 0.49597 0.0
C1574 C 0.1162 0.34573 0.5115 0.0
C1575 C 0.1241 0.34742 0.53786 0.0
C1576 C 0.18965 0.36511 0.56151 0.0
C1577 C 0.21219 0.38509 0.55779 0.0
C1578 C 0.22296 0.38374 0.53564 0.0
C1579 C 0.21133 0.36237 0.51692 0.0
C1580 C 0.18896 0.34221 0.5211 0.0
C1581 C 0.17829 0.34353 0.54326 0.0
C1582 C 0.20971 0.36982 0.73517 0.0
C1583 C 0.05453 0.37347 0.57709 0.0
C1584 C 0.99303 0.38807 0.07266 0.0
C1585 C 0.98031 0.3867 0.04867 0.0
H1586 H 0.00017 0.39948 0.11398 0.0
C1587 C 0.96345 0.39486 0.04869 0.0
H1588 H 0.00605 0.38186 0.07351 0.0
C1589 C 0.96004 0.40494 0.07206 0.0
C1590 C 0.97361 0.40727 0.09578 0.0
H1591 H 0.95327 0.394 0.03059 0.0
H1592 H 0.94748 0.41173 0.07145 0.0
C1593 C 0.98977 0.39829 0.09589 0.0
C1594 C 0.6003 0.55074 0.13879 0.0
C1595 C 0.59577 0.56668 0.12477 0.0
H1596 H 0.58653 0.5216 0.16306 0.0
C1597 C 0.57232 0.56292 0.12127 0.0
H1598 H 0.61837 0.55346 0.1418 0.0
C1599 C 0.55384 0.5442 0.13271 0.0
C1600 C 0.55864 0.52936 0.14855 0.0
H1601 H 0.56835 0.5747 0.11003 0.0
H1602 H 0.53594 0.54185 0.12967 0.0
C1603 C 0.58198 0.53242 0.15086 0.0
C1604 C 0.42097 0.98876 0.0873 0.0
C1605 C 0.42673 0.01124 0.07763 0.0
H1606 H 0.42531 0.97106 0.11934 0.0
C1607 C 0.44113 0.03377 0.09414 0.0
H1608 H 0.41012 0.97112 0.07487 0.0
C1609 C 0.44916 0.03378 0.12007 0.0
C1610 C 0.44352 0.01126 0.12991 0.0
H1611 H 0.44565 0.05138 0.08721 0.0
H1612 H 0.45939 0.05148 0.13245 0.0
C1613 C 0.42955 0.98877 0.11297 0.0
C1614 C 0.43861 -0.00115 0.95621 0.0
C1615 C 0.41631 0.97761 0.95812 0.0
H1616 H 0.46939 0.01554 0.93557 0.0
C1617 C 0.40808 0.95615 0.94021 0.0
H1618 H 0.44543 0.01558 0.96993 0.0
C1619 C 0.42125 0.95638 0.9198 0.0
C1620 C 0.44332 0.97789 0.91725 0.0
H1621 H 0.39074 0.93962 0.94105 0.0
H1622 H 0.41354 0.93994 0.90549 0.0
C1623 C 0.45215 -0.00112 0.93624 0.0
C1624 C 0.04595 0.44431 0.9836 0.0
C1625 C 0.03983 0.42248 0.96721 0.0
H1626 H 0.05164 0.48149 0.98559 0.0
C1627 C 0.03651 0.42196 0.93998 0.0
H1628 H 0.04826 0.44492 0.00468 0.0
C1629 C 0.03903 0.44282 0.9292 0.0
C1630 C 0.04426 0.46434 0.94548 0.0
H1631 H 0.0317 0.40526 0.92701 0.0
H1632 H 0.03603 0.44187 0.90811 0.0
C1633 C 0.04778 0.46506 0.97277 0.0
C1634 C 0.59673 0.58988 0.0115 0.0
C1635 C 0.59362 0.60751 0.02644 0.0
H1636 H 0.58934 0.56828 0.97458 0.0
C1637 C 0.58153 0.61834 0.01437 0.0
H1638 H 0.60573 0.58102 0.02052 0.0
C1639 C 0.57298 0.61191 0.98763 0.0
C1640 C 0.5756 0.59382 0.97252 0.0
H1641 H 0.57907 0.63214 0.02554 0.0
H1642 H 0.56454 0.62137 0.97889 0.0
C1643 C 0.58747 0.58278 0.98501 0.0
C1644 C 0.04357 0.61738 0.02927 0.0
C1645 C 0.02478 0.62283 0.02958 0.0
H1646 H 0.06054 0.60146 0.0069 0.0
C1647 C 0.0097 0.61791 0.00613 0.0
H1648 H 0.05559 0.621 0.04694 0.0
C1649 C 0.01251 0.60663 0.98332 0.0
C1650 C 0.03054 0.60014 0.98335 0.0
H1651 H 0.99514 0.62196 0.00553 0.0
H1652 H 0.00025 0.60257 0.96571 0.0
C1653 C 0.04647 0.60624 0.00635 0.0
C1654 C 0.43285 0.45213 0.95564 0.0
C1655 C 0.40864 0.4448 0.94799 0.0
H1656 H 0.46984 0.47657 0.95107 0.0
C1657 C 0.40308 0.45737 0.92989 0.0
H1658 H 0.43742 0.44259 0.96969 0.0
C1659 C 0.42146 0.47604 0.91821 0.0
C1660 C 0.44586 0.48295 0.92497 0.0
H1661 H 0.3844 0.45164 0.9235 0.0
H1662 H 0.41623 0.48399 0.90289 0.0
C1663 C 0.45133 0.47137 0.94464 0.0
C1664 C 0.56204 0.96312 0.98197 0.0
C1665 C 0.57193 0.98501 0.9996 0.0
H1666 H 0.54687 0.94565 0.94283 0.0
C1667 C 0.57228 0.00606 0.9913 0.0
H1668 H 0.5618 0.94671 0.98792 0.0
C1669 C 0.56282 0.00525 0.96579 0.0
C1670 C 0.55355 0.98361 0.9476 0.0
H1671 H 0.5796 0.02309 0.0047 0.0
H1672 H 0.56274 0.02167 0.9605 0.0
C1673 C 0.5533 0.96252 0.95614 0.0
C1674 C 0.56799 0.995 0.12913 0.0
C1675 C 0.58107 0.01712 0.11796 0.0
H1676 H 0.54481 0.97682 0.15763 0.0
C1677 C 0.57899 0.03786 0.1262 0.0
H1678 H 0.56931 0.97873 0.12344 0.0
C1679 C 0.56479 0.03672 0.14594 0.0
C1680 C 0.55241 0.01482 0.15774 0.0
H1681 H 0.58888 0.05518 0.118 0.0
H1682 H 0.56372 0.05306 0.15217 0.0
C1683 C 0.55386 0.99387 0.14878 0.0
C1684 C 0.95094 0.55994 0.10528 0.0
C1685 C 0.9705 0.584 0.11437 0.0
H1686 H 0.93385 0.52076 0.10892 0.0
C1687 C 0.98799 0.58679 0.13444 0.0
H1688 H 0.93706 0.55721 0.09 0.0
C1689 C 0.98639 0.56612 0.14473 0.0
C1690 C 0.967 0.54213 0.13563 0.0
H1691 H 0.00289 0.60499 0.14255 0.0
H1692 H 0.0001 0.56895 0.16031 0.0
C1693 C 0.94909 0.53914 0.11602 0.0
C1694 C 0.40356 0.40425 0.05994 0.0
C1695 C 0.4167 0.40054 0.04125 0.0
H1696 H 0.40252 0.4141 0.10018 0.0
C1697 C 0.43928 0.40323 0.0498 0.0
H1698 H 0.38609 0.40229 0.05417 0.0
C1699 C 0.44863 0.40989 0.0764 0.0
C1700 C 0.43572 0.41431 0.09482 0.0
H1701 H 0.44983 0.40044 0.03596 0.0
H1702 H 0.46622 0.41226 0.08246 0.0
C1703 C 0.413 0.41115 0.08634 0.0
C1704 C 0.65485 0.72074 0.41683 0.0
C1705 C 0.64335 0.72221 0.39337 0.0
H1706 H 0.66048 0.72791 0.45864 0.0
C1707 C 0.6279 0.73206 0.39468 0.0
H1708 H 0.66671 0.71309 0.41661 0.0
C1709 C 0.6245 0.74078 0.41881 0.0
C1710 C 0.63641 0.7398 0.44222 0.0
H1711 H 0.61875 0.73353 0.37703 0.0
H1712 H 0.61305 0.74891 0.41905 0.0
C1713 C 0.65138 0.72937 0.44095 0.0
C1714 C 0.26028 0.88339 0.46829 0.0
C1715 C 0.2542 0.9 0.45799 0.0
H1716 H 0.25012 0.85347 0.49144 0.0
C1717 C 0.23117 0.89668 0.46 0.0
H1718 H 0.27804 0.88572 0.46709 0.0
C1719 C 0.21496 0.87793 0.47342 0.0
C1720 C 0.22166 0.86247 0.48565 0.0
H1721 H 0.22587 0.90892 0.45171 0.0
H1722 H 0.19741 0.87606 0.47485 0.0
C1723 C 0.24424 0.8649 0.48222 0.0
C1724 C 0.12117 0.37964 0.42768 0.0
C1725 C 0.1065 0.35583 0.41356 0.0
H1726 H 0.1394 0.40099 0.46483 0.0
C1727 C 0.10034 0.33479 0.42638 0.0
H1728 H 0.126 0.39619 0.41829 0.0
C1729 C 0.10863 0.33745 0.45283 0.0
C1730 C 0.12271 0.36126 0.4674 0.0
H1731 H 0.08927 0.31619 0.41586 0.0
H1732 H 0.10401 0.32072 0.46173 0.0
C1733 C 0.12895 0.38234 0.45438 0.0
C1734 C 0.11241 0.32982 0.28974 0.0
C1735 C 0.09159 0.30913 0.29605 0.0
H1736 H 0.13947 0.34389 0.26395 0.0
C1737 C 0.08281 0.28573 0.28147 0.0
H1738 H 0.11972 0.34803 0.30083 0.0
C1739 C 0.09365 0.28344 0.25974 0.0
C1740 C 0.11373 0.30446 0.25247 0.0
H1741 H 0.06662 0.26949 0.28577 0.0
H1742 H 0.08553 0.26543 0.24797 0.0
C1743 C 0.12352 0.32747 0.26836 0.0
C1744 C 0.67894 0.7646 0.30412 0.0
C1745 C 0.69668 0.7578 0.30493 0.0
H1746 H 0.66775 0.78935 0.29112 0.0
C1747 C 0.71764 0.77164 0.29323 0.0
H1748 H 0.66279 0.75439 0.31344 0.0
C1749 C 0.72014 0.7911 0.27943 0.0
C1750 C 0.70198 0.79754 0.2777 0.0
H1751 H 0.73148 0.76654 0.29352 0.0
H1752 H 0.73584 0.80026 0.2692 0.0
C1753 C 0.68175 0.78453 0.29107 0.0
C1754 C 0.22438 0.93723 0.35318 0.0
C1755 C 0.24913 0.94781 0.36209 0.0
H1756 H 0.19694 0.92316 0.32018 0.0
C1757 C 0.26556 0.95391 0.34356 0.0
H1758 H 0.21123 0.93223 0.36692 0.0
C1759 C 0.25743 0.94909 0.31679 0.0
C1760 C 0.23261 0.93777 0.30779 0.0
H1761 H 0.28479 0.96236 0.34971 0.0
H1762 H 0.27066 0.95417 0.30313 0.0
C1763 C 0.2162 0.93216 0.32634 0.0
C1764 C 0.71269 0.94263 0.35769 0.0
C1765 C 0.69272 0.94606 0.359 0.0
H1766 H 0.73164 0.9304 0.33375 0.0
C1767 C 0.67678 0.94032 0.33605 0.0
H1768 H 0.72538 0.94693 0.37497 0.0
C1769 C 0.68033 0.93076 0.31255 0.0
C1770 C 0.70001 0.92689 0.31139 0.0
H1771 H 0.66125 0.94276 0.33627 0.0
H1772 H 0.66764 0.92637 0.29524 0.0
C1773 C 0.71636 0.93326 0.33409 0.0
C1774 C 0.09877 0.77282 0.2693 0.0
C1775 C 0.08221 0.77485 0.2841 0.0
H1776 H 0.12738 0.79061 0.24595 0.0
C1777 C 0.08322 0.79791 0.28805 0.0
H1778 H 0.09836 0.75532 0.26561 0.0
C1779 C 0.09995 0.81827 0.27662 0.0
C1780 C 0.11606 0.81596 0.26126 0.0
H1781 H 0.07067 0.80004 0.29933 0.0
H1782 H 0.10007 0.8357 0.27947 0.0
C1783 C 0.11552 0.79313 0.25808 0.0
C1784 C 0.21456 0.29534 0.32151 0.0
C1785 C 0.23562 0.31748 0.3328 0.0
H1786 H 0.18917 0.27527 0.28705 0.0
C1787 C 0.24726 0.33669 0.31722 0.0
H1788 H 0.20516 0.28015 0.33291 0.0
C1789 C 0.23811 0.33386 0.29106 0.0
C1790 C 0.21715 0.31173 0.27974 0.0
H1791 H 0.26355 0.35398 0.32517 0.0
H1792 H 0.24769 0.34893 0.27956 0.0
C1793 C 0.20548 0.29246 0.29521 0.0
C1794 C 0.24719 0.3803 0.45899 0.0
C1795 C 0.24751 0.3584 0.45136 0.0
H1796 H 0.23531 0.39872 0.48565 0.0
C1797 C 0.23446 0.3374 0.46424 0.0
H1798 H 0.25711 0.3968 0.44948 0.0
C1799 C 0.22228 0.33858 0.48505 0.0
C1800 C 0.2228 0.36077 0.49349 0.0
H1801 H 0.23442 0.32027 0.45902 0.0
H1802 H 0.21329 0.32235 0.4952 0.0
C1803 C 0.23496 0.38148 0.47989 0.0
C1804 C 0.62032 0.88788 0.44206 0.0
C1805 C 0.64108 0.91161 0.44883 0.0
H1806 H 0.60124 0.84972 0.44956 0.0
C1807 C 0.65906 0.91466 0.46842 0.0
H1808 H 0.60609 0.88493 0.42712 0.0
C1809 C 0.65639 0.89457 0.48098 0.0
C1810 C 0.63554 0.87095 0.47451 0.0
H1811 H 0.67506 0.9327 0.47454 0.0
H1812 H 0.67035 0.89775 0.49641 0.0
C1813 C 0.61751 0.86775 0.4549 0.0
C1814 C 0.07561 0.73689 0.39984 0.0
C1815 C 0.08834 0.73202 0.38149 0.0
H1816 H 0.0747 0.74748 0.43993 0.0
C1817 C 0.11037 0.73365 0.39041 0.0
H1818 H 0.05858 0.73579 0.39374 0.0
C1819 C 0.11955 0.74027 0.41703 0.0
C1820 C 0.10703 0.74568 0.43517 0.0
H1821 H 0.12061 0.72996 0.37684 0.0
H1822 H 0.13669 0.74171 0.42333 0.0
C1823 C 0.0849 0.74374 0.42632 0.0
C1824 C 0.31965 0.05352 0.74787 0.0
C1825 C 0.30815 0.05486 0.72434 0.0
H1826 H 0.32552 0.06115 0.78964 0.0
C1827 C 0.29256 0.06455 0.72552 0.0
H1828 H 0.3316 0.04597 0.74777 0.0
C1829 C 0.28921 0.07345 0.74961 0.0
C1830 C 0.30136 0.07284 0.77304 0.0
H1831 H 0.28338 0.06587 0.7078 0.0
H1832 H 0.27774 0.08156 0.74979 0.0
C1833 C 0.31627 0.06235 0.7719 0.0
C1834 C 0.89868 0.22573 0.78677 0.0
C1835 C 0.92182 0.22904 0.78577 0.0
H1836 H 0.86444 0.2053 0.80072 0.0
C1837 C 0.92754 0.21241 0.79668 0.0
H1838 H 0.89365 0.23797 0.77797 0.0
C1839 C 0.91103 0.19401 0.81034 0.0
C1840 C 0.88837 0.19173 0.81291 0.0
H1841 H 0.94537 0.21472 0.79624 0.0
H1842 H 0.91661 0.18261 0.82013 0.0
C1843 C 0.88202 0.20709 0.79995 0.0
C1844 C 0.76881 0.67463 0.76061 0.0
C1845 C 0.77383 0.69538 0.74767 0.0
H1846 H 0.77382 0.66124 0.79597 0.0
C1847 C 0.78813 0.71938 0.76157 0.0
H1848 H 0.75808 0.6559 0.75032 0.0
C1849 C 0.7966 0.7225 0.78814 0.0
C1850 C 0.79134 0.70168 0.80126 0.0
H1851 H 0.79214 0.73572 0.75214 0.0
H1852 H 0.80679 0.74122 0.79847 0.0
C1853 C 0.77767 0.67774 0.78693 0.0
C1854 C 0.77109 0.67387 0.61192 0.0
C1855 C 0.76254 0.65486 0.62814 0.0
H1856 H 0.78759 0.68677 0.57761 0.0
C1857 C 0.76661 0.63491 0.62311 0.0
H1858 H 0.76809 0.68942 0.6151 0.0
C1859 C 0.77816 0.63355 0.60164 0.0
C1860 C 0.78565 0.65197 0.58464 0.0
H1861 H 0.76025 0.62 0.63528 0.0
H1862 H 0.78093 0.61787 0.59819 0.0
C1863 C 0.78235 0.67236 0.59036 0.0
C1864 C 0.38512 0.10873 0.62926 0.0
C1865 C 0.36325 0.09294 0.63857 0.0
H1866 H 0.40404 0.13923 0.60748 0.0
C1867 C 0.34434 0.09801 0.63586 0.0
H1868 H 0.39993 0.10507 0.6311 0.0
C1869 C 0.3468 0.11789 0.62297 0.0
C1870 C 0.36807 0.13281 0.61194 0.0
H1871 H 0.32752 0.08648 0.6435 0.0
H1872 H 0.33179 0.12121 0.62122 0.0
C1873 C 0.38745 0.12835 0.61583 0.0
C1874 C 0.89467 0.26707 0.68044 0.0
C1875 C 0.91923 0.27684 0.68972 0.0
H1876 H 0.86755 0.25313 0.64713 0.0
C1877 C 0.93574 0.28162 0.67145 0.0
H1878 H 0.88144 0.26308 0.69394 0.0
C1879 C 0.92782 0.27622 0.64459 0.0
C1880 C 0.90315 0.26571 0.63528 0.0
H1881 H 0.95483 0.28938 0.67787 0.0
H1882 H 0.94107 0.2802 0.63111 0.0
C1883 C 0.88672 0.26149 0.65354 0.0
C1884 C 0.34529 0.27859 0.67202 0.0
C1885 C 0.36079 0.28481 0.69545 0.0
H1886 H 0.33697 0.26381 0.63147 0.0
C1887 C 0.38109 0.28181 0.69517 0.0
H1888 H 0.32952 0.28068 0.67144 0.0
C1889 C 0.38539 0.27219 0.67212 0.0
C1890 C 0.36929 0.26508 0.64904 0.0
H1891 H 0.39346 0.28649 0.71284 0.0
H1892 H 0.40085 0.26958 0.67253 0.0
C1893 C 0.34943 0.26874 0.64913 0.0
C1894 C 0.76374 0.10435 0.59926 0.0
C1895 C 0.74769 0.10768 0.61375 0.0
H1896 H 0.7927 0.1204 0.57606 0.0
C1897 C 0.74975 0.13127 0.61693 0.0
H1898 H 0.76249 0.08641 0.59597 0.0
C1899 C 0.76713 0.15091 0.60515 0.0
C1900 C 0.78288 0.14729 0.59035 0.0
H1901 H 0.73754 0.13437 0.62788 0.0
H1902 H 0.7681 0.16879 0.60736 0.0
C1903 C 0.78117 0.12392 0.58783 0.0
C1904 C 0.87716 0.63172 0.65346 0.0
C1905 C 0.90103 0.64973 0.66399 0.0
H1906 H 0.85025 0.61651 0.61978 0.0
C1907 C 0.91634 0.66623 0.64765 0.0
H1908 H 0.86487 0.61874 0.66548 0.0
C1909 C 0.90803 0.66482 0.62151 0.0
C1910 C 0.88417 0.64694 0.61099 0.0
H1911 H 0.93489 0.68024 0.65497 0.0
H1912 H 0.92046 0.6776 0.60944 0.0
C1913 C 0.86882 0.63034 0.62723 0.0
C1914 C 0.91604 0.71403 0.78963 0.0
C1915 C 0.91414 0.69094 0.78229 0.0
H1916 H 0.90629 0.73493 0.81578 0.0
C1917 C 0.89938 0.67049 0.7951 0.0
H1918 H 0.92731 0.73014 0.78014 0.0
C1919 C 0.88773 0.6733 0.81564 0.0
C1920 C 0.89038 0.69659 0.82381 0.0
H1921 H 0.89763 0.65246 0.79012 0.0
H1922 H 0.87747 0.65738 0.82583 0.0
C1923 C 0.90424 0.71684 0.81022 0.0
C1924 C 0.32102 0.24898 0.80114 0.0
C1925 C 0.30398 0.2459 0.78036 0.0
H1926 H 0.33199 0.23178 0.82902 0.0
C1927 C 0.28422 0.22185 0.77175 0.0
H1928 H 0.33606 0.26721 0.8089 0.0
C1929 C 0.28165 0.20137 0.78382 0.0
C1930 C 0.29902 0.20465 0.80433 0.0
H1931 H 0.27068 0.21889 0.75593 0.0
H1932 H 0.26618 0.18302 0.77715 0.0
C1933 C 0.31869 0.22862 0.81279 0.0
C1934 C 0.74017 0.06874 0.72982 0.0
C1935 C 0.75255 0.06359 0.71124 0.0
H1936 H 0.73968 0.07939 0.77 0.0
C1937 C 0.77435 0.06461 0.71991 0.0
H1938 H 0.72331 0.06808 0.72395 0.0
C1939 C 0.78368 0.07102 0.7465 0.0
C1940 C 0.77154 0.07682 0.76484 0.0
H1941 H 0.78431 0.06068 0.70615 0.0
H1942 H 0.80068 0.07207 0.75263 0.0
C1943 C 0.74959 0.07536 0.75624 0.0
C1944 C 0.05239 0.29963 0.04213 0.0
C1945 C 0.04881 0.31994 0.04713 0.0
H1946 H 0.07002 0.28028 0.05534 0.0
C1947 C 0.05882 0.33512 0.07137 0.0
H1948 H 0.04489 0.28751 0.0237 0.0
C1949 C 0.07311 0.33085 0.08962 0.0
C1950 C 0.07766 0.31126 0.08408 0.0
H1951 H 0.05628 0.35081 0.07596 0.0
H1952 H 0.0811 0.34326 0.10783 0.0
C1953 C 0.06665 0.29535 0.06039 0.0
C1954 C 0.63902 0.71469 0.11311 0.0
C1955 C 0.6531 0.70352 0.11676 0.0
H1956 H 0.63728 0.74793 0.11846 0.0
C1957 C 0.67734 0.71826 0.12808 0.0
H1958 H 0.62037 0.70377 0.10412 0.0
C1959 C 0.68686 0.74344 0.13723 0.0
C1960 C 0.67242 0.75443 0.13474 0.0
H1961 H 0.68854 0.71002 0.13125 0.0
H1962 H 0.70514 0.7539 0.1473 0.0
C1963 C 0.64868 0.73994 0.12164 0.0
C1964 C 0.28035 0.95083 0.03263 0.0
C1965 C 0.30087 0.94833 0.03667 0.0
H1966 H 0.24804 0.94585 0.04715 0.0
C1967 C 0.30413 0.93813 0.0589 0.0
H1968 H 0.27735 0.95867 0.01571 0.0
C1969 C 0.2875 0.93105 0.07697 0.0
C1970 C 0.2672 0.93393 0.07319 0.0
H1971 H 0.31982 0.9361 0.06269 0.0
H1972 H 0.29086 0.92382 0.09423 0.0
C1973 C 0.26369 0.94373 0.05075 0.0
C1974 C 0.37708 0.07806 0.0141 0.0
C1975 C 0.36423 0.05192 0.0106 0.0
H1976 H 0.37625 0.11131 0.00913 0.0
C1977 C 0.33922 0.0392 0.00225 0.0
H1978 H 0.39629 0.08835 0.02097 0.0
C1979 C 0.32793 0.0522 0.99438 0.0
C1980 C 0.34128 0.07831 0.99532 0.0
H1981 H 0.32875 0.01902 0.9994 0.0
H1982 H 0.30926 0.04145 0.9855 0.0
C1983 C 0.36559 0.09116 0.00701 0.0
C1984 C 0.92601 0.28163 0.94868 0.0
C1985 C 0.94768 0.28789 0.96414 0.0
H1986 H 0.89196 0.25279 0.92882 0.0
C1987 C 0.95107 0.26855 0.97182 0.0
H1988 H 0.92274 0.29592 0.94219 0.0
C1989 C 0.93314 0.24353 0.96412 0.0
C1990 C 0.91148 0.23745 0.94874 0.0
H1991 H 0.96759 0.2727 0.98363 0.0
H1992 H 0.93608 0.22899 0.97046 0.0
C1993 C 0.90823 0.25681 0.94106 0.0
C1994 C 0.74057 0.68978 0.07311 0.0
C1995 C 0.71899 0.66659 0.0675 0.0
H1996 H 0.77474 0.71506 0.06091 0.0
C1997 C 0.71544 0.65096 0.04457 0.0
H1998 H 0.74382 0.70227 0.0906 0.0
C1999 C 0.733 0.65835 0.02759 0.0
C2000 C 0.75458 0.6815 0.03313 0.0
H2001 H 0.69896 0.63306 0.03955 0.0
H2002 H 0.7295 0.64601 0.00987 0.0
C2003 C 0.75819 0.69719 0.05604 0.0
C2004 C 0.93387 0.6618 0.01315 0.0
C2005 C 0.95903 0.67824 0.01808 0.0
H2006 H 0.89997 0.65422 0.99356 0.0
C2007 C 0.96939 0.69967 0.00523 0.0
H2008 H 0.92527 0.64511 0.02267 0.0
C2009 C 0.95481 0.70489 0.98843 0.0
C2010 C 0.92961 0.68864 0.98391 0.0
H2011 H 0.98871 0.71271 0.00857 0.0
H2012 H 0.96322 0.72175 0.97915 0.0
C2013 C 0.91937 0.66691 0.99625 0.0
C2014 C 0.3633 0.29964 0.92308 0.0
C2015 C 0.35554 0.30774 0.94443 0.0
H2016 H 0.35894 0.26887 0.89753 0.0
C2017 C 0.337 0.28993 0.95698 0.0
H2018 H 0.37719 0.31294 0.91263 0.0
C2019 C 0.32687 0.26445 0.94871 0.0
C2020 C 0.33474 0.25631 0.92737 0.0
H2021 H 0.33061 0.29569 0.97345 0.0
H2022 H 0.31323 0.25119 0.9594 0.0
C2023 C 0.35284 0.2743 0.91446 0.0
C2024 C 0.72126 0.06529 0.04132 0.0
C2025 C 0.69687 0.05816 0.03483 0.0
H2026 H 0.75552 0.07694 0.02773 0.0
C2027 C 0.68834 0.05732 0.00873 0.0
H2028 H 0.72834 0.06612 0.06129 0.0
C2029 C 0.70369 0.06282 0.98939 0.0
C2030 C 0.72806 0.06971 0.99574 0.0
H2031 H 0.66956 0.05157 0.00301 0.0
H2032 H 0.69624 0.06111 0.96935 0.0
C2033 C 0.73674 0.07118 0.02201 0.0
C2034 C 0.6693 0.96936 0.07564 0.0
C2035 C 0.64441 0.9551 0.06658 0.0
H2036 H 0.69992 0.9696 0.09524 0.0
C2037 C 0.63291 0.92901 0.06415 0.0
H2038 H 0.67872 0.98954 0.07762 0.0
C2039 C 0.64523 0.91756 0.07378 0.0
C2040 C 0.66907 0.93204 0.0865 0.0
H2041 H 0.61385 0.91754 0.05679 0.0
H2042 H 0.63541 0.89747 0.07332 0.0
C2043 C 0.68152 0.95792 0.08573 0.0
C2044 C 0.06397 0.72826 0.1427 0.0
C2045 C 0.05073 0.72084 0.11762 0.0
H2046 H 0.09029 0.75819 0.17075 0.0
C2047 C 0.0537 0.73912 0.10156 0.0
H2048 H 0.06163 0.71465 0.1558 0.0
C2049 C 0.07071 0.76433 0.11001 0.0
C2050 C 0.08467 0.77157 0.13479 0.0
H2051 H 0.0436 0.73386 0.08219 0.0
H2052 H 0.07354 0.77797 0.0968 0.0
C2053 C 0.08049 0.75326 0.15126 0.0
C2054 C 0.26588 0.32581 0.00247 0.0
C2055 C 0.29073 0.34263 0.00975 0.0
H2056 H 0.23078 0.30633 0.01509 0.0
C2057 C 0.29935 0.35183 0.03632 0.0
H2058 H 0.25871 0.3184 0.98214 0.0
C2059 C 0.28349 0.34462 0.05518 0.0
C2060 C 0.25854 0.32824 0.04794 0.0
H2061 H 0.31844 0.36455 0.04264 0.0
H2062 H 0.29084 0.35187 0.07549 0.0
C2063 C 0.24992 0.31876 0.02138 0.0
C2064 C 0.7241 0.67204 0.40571 0.0
C2065 C 0.7175 0.66047 0.37966 0.0
H2066 H 0.74354 0.67683 0.44325 0.0
C2067 C 0.72508 0.64366 0.37192 0.0
H2068 H 0.71847 0.68501 0.41236 0.0
C2069 C 0.73953 0.63909 0.38956 0.0
C2070 C 0.74669 0.65114 0.41545 0.0
H2071 H 0.72038 0.63445 0.35201 0.0
H2072 H 0.74581 0.62679 0.38258 0.0
C2073 C 0.73855 0.66743 0.4234 0.0
C2074 C 0.29572 0.04663 0.47346 0.0
C2075 C 0.30839 0.03765 0.45956 0.0
H2076 H 0.29625 0.07809 0.49346 0.0
C2077 C 0.33195 0.05468 0.45454 0.0
H2078 H 0.27767 0.03406 0.47795 0.0
C2079 C 0.34258 0.08011 0.46333 0.0
C2080 C 0.32989 0.08899 0.47734 0.0
H2081 H 0.34223 0.04838 0.44392 0.0
H2082 H 0.36061 0.09283 0.4589 0.0
C2083 C 0.30638 0.07194 0.48233 0.0
C2084 C 0.98165 0.28994 0.39601 0.0
C2085 C 0.97771 0.276 0.37163 0.0
H2086 H 0.96675 0.29366 0.43067 0.0
C2087 C 0.95498 0.25466 0.36343 0.0
H2088 H -0.00107 0.30661 0.40275 0.0
C2089 C 0.93666 0.24715 0.3796 0.0
C2090 C 0.94066 0.26121 0.40388 0.0
H2091 H 0.95147 0.24363 0.34472 0.0
H2092 H 0.91934 0.23043 0.37314 0.0
C2093 C 0.96322 0.28272 0.41188 0.0
C2094 C 0.05696 0.4157 0.33692 0.0
C2095 C 0.04356 0.38992 0.33791 0.0
H2096 H 0.0566 0.4478 0.32575 0.0
C2097 C 0.01827 0.3773 0.33158 0.0
H2098 H 0.07643 0.42599 0.34212 0.0
C2099 C 0.00699 0.38956 0.32137 0.0
C2100 C 0.02073 0.41482 0.31779 0.0
H2101 H 0.00738 0.35741 0.33221 0.0
H2102 H 0.98785 0.37863 0.31432 0.0
C2103 C 0.04559 0.4281 0.32729 0.0
C2104 C 0.61447 0.60564 0.30134 0.0
C2105 C 0.60774 0.62283 0.31032 0.0
H2106 H 0.60252 0.56876 0.28324 0.0
C2107 C 0.58318 0.61469 0.31102 0.0
H2108 H 0.63334 0.61158 0.30041 0.0
C2109 C 0.56553 0.59004 0.30195 0.0
C2110 C 0.57197 0.5731 0.29108 0.0
H2111 H 0.57757 0.62756 0.31811 0.0
H2112 H 0.54677 0.58448 0.30294 0.0
C2113 C 0.59675 0.58107 0.29155 0.0
C2114 C 0.37112 0.99157 0.37712 0.0
C2115 C 0.37033 0.97737 0.39735 0.0
H2116 H 0.38796 0.0078 0.34391 0.0
C2117 C 0.38744 0.96969 0.40018 0.0
H2118 H 0.35819 0.99777 0.37437 0.0
C2119 C 0.40462 0.9756 0.38277 0.0
C2120 C 0.40505 0.98931 0.3622 0.0
H2121 H 0.38739 0.95884 0.41563 0.0
H2122 H 0.41753 0.96935 0.38536 0.0
C2123 C 0.38828 0.99746 0.35974 0.0
C2124 C 0.60176 0.01452 0.37177 0.0
C2125 C 0.61206 -0.00017 0.36556 0.0
H2126 H 0.57943 0.0288 0.35824 0.0
C2127 C 0.60837 0.98915 0.33945 0.0
H2128 H 0.6041 0.02292 0.39167 0.0
C2129 C 0.59433 0.99274 0.32011 0.0
C2130 C 0.58375 0.00714 0.32646 0.0
H2131 H 0.61608 0.97776 0.33397 0.0
H2132 H 0.59165 0.98413 0.30023 0.0
C2133 C 0.58776 0.01808 0.3525 0.0
C2134 C 0.04133 0.62698 0.28515 0.0
C2135 C 0.02652 0.63738 0.28777 0.0
H2136 H 0.04334 0.59461 0.27348 0.0
C2137 C 0.00132 0.62194 0.28128 0.0
H2138 H 0.06077 0.6383 0.2903 0.0
C2139 C 0.99131 0.59692 0.27099 0.0
C2140 C 0.00629 0.58682 0.26727 0.0
H2141 H 0.98943 0.62946 0.28297 0.0
H2142 H 0.97197 0.5858 0.26505 0.0
C2143 C 0.03133 0.60197 0.27523 0.0
C2144 C 0.38435 0.39891 0.371 0.0
C2145 C 0.36004 0.39231 0.36522 0.0
H2146 H 0.4183 0.41067 0.35658 0.0
C2147 C 0.35128 0.39245 0.33954 0.0
H2148 H 0.39162 0.399 0.39064 0.0
C2149 C 0.36636 0.39853 0.31991 0.0
C2150 C 0.39066 0.40495 0.32557 0.0
H2151 H 0.33255 0.38716 0.33436 0.0
H2152 H 0.3588 0.39772 0.30018 0.0
C2153 C 0.39955 0.4053 0.35141 0.0
C2154 C 0.33217 0.30449 0.41065 0.0
C2155 C 0.30679 0.29038 0.40473 0.0
H2156 H 0.36396 0.30565 0.42842 0.0
C2157 C 0.29487 0.26465 0.40625 0.0
H2158 H 0.34194 0.32435 0.40947 0.0
C2159 C 0.30758 0.25394 0.41677 0.0
C2160 C 0.33233 0.26883 0.42622 0.0
H2161 H 0.27541 0.2532 0.40135 0.0
H2162 H 0.29763 0.23444 0.4196 0.0
C2163 C 0.34485 0.2938 0.42147 0.0
C2164 C 0.74879 0.05574 0.44147 0.0
C2165 C 0.72388 0.0471 0.43802 0.0
H2166 H 0.7845 0.08666 0.45263 0.0
C2167 C 0.71599 0.06428 0.4421 0.0
H2168 H 0.75542 0.04299 0.43812 0.0
C2169 C 0.73272 0.08941 0.45113 0.0
C2170 C 0.7576 0.09776 0.45596 0.0
H2171 H 0.69685 0.05807 0.43971 0.0
H2172 H 0.72608 0.10201 0.4554 0.0
C2173 C 0.76543 0.08076 0.45007 0.0
C2174 C 0.96895 0.68957 0.3716 0.0
C2175 C 0.96236 0.67604 0.34649 0.0
H2176 H 0.9578 0.69418 0.40854 0.0
C2177 C 0.93851 0.65612 0.33953 0.0
H2178 H 0.98723 0.70487 0.37771 0.0
C2179 C 0.92153 0.65008 0.35726 0.0
C2180 C 0.9281 0.66383 0.38225 0.0
H2181 H 0.93289 0.64532 0.32034 0.0
H2182 H 0.90315 0.63495 0.35122 0.0
C2183 C 0.95204 0.68351 0.38927 0.0
C2184 C 0.39188 0.01002 0.74031 0.0
C2185 C 0.38288 0.99516 0.71581 0.0
H2186 H 0.41399 0.0189 0.77705 0.0
C2187 C 0.38864 0.97646 0.7104 0.0
H2188 H 0.38768 0.0245 0.7452 0.0
C2189 C 0.40379 0.97332 0.72863 0.0
C2190 C 0.41352 0.98877 0.75275 0.0
H2191 H 0.38204 0.96467 0.69175 0.0
H2192 H 0.40868 0.95944 0.72332 0.0
C2193 C 0.40703 0.00687 0.75855 0.0
C2194 C 0.00184 0.38196 0.79564 0.0
C2195 C 0.97662 0.36658 0.78926 0.0
H2196 H 0.03123 0.41756 0.81316 0.0
C2197 C 0.96174 0.3766 0.79389 0.0
H2198 H 0.0138 0.37476 0.79248 0.0
C2199 C 0.97174 0.40114 0.8055 0.0
C2200 C 0.99684 0.41618 0.8131 0.0
H2201 H 0.94228 0.36533 0.78896 0.0
H2202 H 0.95971 0.40826 0.80872 0.0
C2203 C 0.01184 0.40649 0.80754 0.0
C2204 C 0.62352 0.58895 0.69866 0.0
C2205 C 0.64741 0.60761 0.70806 0.0
H2206 H 0.58722 0.56678 0.70779 0.0
C2207 C 0.65302 0.61848 0.73432 0.0
H2208 H 0.61873 0.58034 0.67849 0.0
C2209 C 0.63497 0.61124 0.75071 0.0
C2210 C 0.61116 0.59265 0.74128 0.0
H2211 H 0.67124 0.63309 0.74204 0.0
H2212 H 0.63963 0.62 0.77082 0.0
C2213 C 0.60555 0.58129 0.71528 0.0
C2214 C 0.70806 0.74225 0.68441 0.0
C2215 C 0.69794 0.71649 0.67801 0.0
H2216 H 0.70341 0.77364 0.68206 0.0
C2217 C 0.67367 0.70198 0.66676 0.0
H2218 H 0.72665 0.75376 0.69347 0.0
C2219 C 0.66068 0.71338 0.6591 0.0
C2220 C 0.67153 0.73951 0.66317 0.0
H2221 H 0.66543 0.68202 0.66159 0.0
H2222 H 0.64294 0.70176 0.64802 0.0
C2223 C 0.69478 0.75359 0.67757 0.0
C2224 C 0.2804 0.93823 0.6454 0.0
C2225 C 0.27538 0.95682 0.63884 0.0
H2226 H 0.2676 0.89898 0.64294 0.0
C2227 C 0.25293 0.94953 0.62448 0.0
H2228 H 0.29756 0.94319 0.65634 0.0
C2229 C 0.23605 0.92445 0.61666 0.0
C2230 C 0.24097 0.90581 0.6231 0.0
H2231 H 0.24838 0.96323 0.61888 0.0
H2232 H 0.2192 0.9197 0.60514 0.0
C2233 C 0.26335 0.91293 0.63754 0.0
C2234 C 0.06579 0.35607 0.73603 0.0
C2235 C 0.04409 0.33298 0.73053 0.0
H2236 H 0.10053 0.38047 0.72438 0.0
C2237 C 0.04081 0.31674 0.70825 0.0
H2238 H 0.06884 0.36902 0.75301 0.0
C2239 C 0.05884 0.32332 0.69193 0.0
C2240 C 0.0806 0.34629 0.69747 0.0
H2241 H 0.02426 0.29889 0.70332 0.0
H2242 H 0.05562 0.31047 0.67478 0.0
C2243 C 0.08387 0.3627 0.71958 0.0
C2244 C 0.27804 0.33187 0.67429 0.0
C2245 C 0.28306 0.34256 0.70058 0.0
H2246 H 0.26162 0.32909 0.63554 0.0
C2247 C 0.2756 0.35963 0.70761 0.0
H2248 H 0.2836 0.31871 0.66819 0.0
C2249 C 0.26297 0.36547 0.68899 0.0
C2250 C 0.25756 0.35452 0.66277 0.0
H2251 H 0.27905 0.36815 0.72768 0.0
H2252 H 0.25673 0.37799 0.69539 0.0
C2253 C 0.2654 0.33777 0.65559 0.0
C2254 C 0.66896 0.95329 0.62828 0.0
C2255 C 0.68732 0.97065 0.61519 0.0
H2256 H 0.64494 0.91467 0.63132 0.0
C2257 C 0.69413 0.96207 0.59335 0.0
H2258 H 0.66328 0.95948 0.64509 0.0
C2259 C 0.68319 0.93668 0.58496 0.0
C2260 C 0.66556 0.91909 0.59861 0.0
H2261 H 0.7078 0.97505 0.58244 0.0
H2262 H 0.68869 0.93087 0.56775 0.0
C2263 C 0.65832 0.92768 0.62021 0.0
C2264 C 0.0186 0.7137 0.67389 0.0
C2265 C 0.02643 0.71433 0.70018 0.0
H2266 H 0.02788 0.71894 0.63512 0.0
C2267 C 0.05077 0.72172 0.70757 0.0
H2268 H -0.00015 0.70768 0.66749 0.0
C2269 C 0.06704 0.72865 0.68901 0.0
C2270 C 0.05918 0.72796 0.66263 0.0
H2271 H 0.05729 0.72234 0.72771 0.0
H2272 H 0.08583 0.73492 0.69543 0.0
C2273 C 0.03471 0.72021 0.65531 0.0
C2274 C 0.94787 0.58562 0.73919 0.0
C2275 C 0.96187 0.61128 0.73768 0.0
H2276 H 0.94707 0.55351 0.75215 0.0
C2277 C 0.98713 0.62333 0.74412 0.0
H2278 H 0.92842 0.57572 0.73388 0.0
C2279 C 0.99772 0.61083 0.75533 0.0
C2280 C 0.98329 0.58592 0.75982 0.0
H2281 H 0.9985 0.64308 0.74302 0.0
H2282 H 0.01683 0.62142 0.76259 0.0
C2283 C 0.95855 0.57298 0.74991 0.0
C2284 C 0.38941 0.40036 0.76612 0.0
C2285 C 0.38573 0.38212 0.78254 0.0
H2286 H 0.41041 0.43907 0.76093 0.0
C2287 C 0.39859 0.38953 0.8078 0.0
H2288 H 0.37958 0.39511 0.74662 0.0
C2289 C 0.41563 0.41441 0.81613 0.0
C2290 C 0.42065 0.43257 0.79925 0.0
H2291 H 0.39569 0.37597 0.82117 0.0
H2292 H 0.42536 0.41935 0.83567 0.0
C2293 C 0.40692 0.42546 0.77438 0.0
C2294 C 0.63606 0.02819 0.70515 0.0
C2295 C 0.6281 0.01408 0.68027 0.0
H2296 H 0.62687 0.03443 0.74279 0.0
C2297 C 0.60378 0.99496 0.67438 0.0
H2298 H 0.65473 0.04292 0.71044 0.0
C2299 C 0.58772 0.99021 0.69297 0.0
C2300 C 0.59569 0.00446 0.71779 0.0
H2301 H 0.5971 0.98377 0.65538 0.0
H2302 H 0.56898 0.97564 0.68776 0.0
C2303 C 0.62006 0.0234 0.7237 0.0
loop_
_geom_bond_atom_site_label_1
_geom_bond_atom_site_label_2
_geom_bond_distance
_geom_bond_site_symmetry_2
_ccdc_geom_bond_type
Mg0 O1 2.028 . S
Mg0 O7 1.986 1_455 S
Mg0 O9 2.114 . S
Mg0 O10 2.255 1_454 S
Mg0 O13 2.010 . S
O1 Mg0 2.028 . S
O1 C4 1.250 1_455 S
O2 Mg3 2.064 . S
O2 C4 1.248 . S
Mg3 O2 2.064 . S
Mg3 O8 2.037 1_554 S
Mg3 O10 2.060 1_554 S
C4 O1 1.250 1_655 S
C4 O2 1.248 . S
C5 O6 1.264 . S
C5 O13 1.249 . S
O6 C5 1.264 . S
O7 Mg0 1.986 1_655 S
O7 C11 1.246 . S
O8 Mg3 2.037 1_556 S
O8 C11 1.258 1_556 S
O9 Mg0 2.114 . S
O9 C12 1.252 1_554 S
O10 Mg0 2.255 1_656 S
O10 Mg3 2.060 1_556 S
O10 C12 1.277 1_655 S
C11 O7 1.246 . S
C11 O8 1.258 1_554 S
C12 O9 1.252 1_556 S
C12 O10 1.277 1_455 S
O13 Mg0 2.010 . S
O13 C5 1.249 . S
Mg14 O15 2.028 . S
Mg14 O21 1.986 . S
Mg14 O23 2.114 . S
Mg14 O24 2.251 . S
Mg14 O27 2.010 . S
O15 Mg14 2.028 . S
O15 C18 1.250 . S
O16 Mg17 2.028 . S
O16 C18 1.248 . S
Mg17 O16 2.028 . S
Mg17 O22 2.032 . S
Mg17 O24 2.079 . S
C18 O15 1.250 . S
C18 O16 1.248 . S
C19 O20 1.264 . S
C19 O27 1.249 . S
O20 C19 1.264 . S
O21 Mg14 1.986 . S
O21 C25 1.246 . S
O22 Mg17 2.032 . S
O22 C25 1.259 . S
O23 Mg14 2.114 . S
O23 C26 1.252 . S
O24 Mg14 2.251 . S
O24 Mg17 2.079 . S
O24 C26 1.273 . S
C25 O21 1.246 . S
C25 O22 1.259 . S
C26 O23 1.252 . S
C26 O24 1.273 . S
O27 Mg14 2.010 . S
O27 C19 1.249 . S
Mg28 O29 2.028 1_565 S
Mg28 O35 1.986 1_565 S
Mg28 O37 2.114 . S
Mg28 O38 2.251 1_564 S
Mg28 O41 2.010 . S
O29 Mg28 2.028 1_545 S
O29 C32 1.250 . S
O30 Mg31 2.028 . S
O30 C32 1.248 . S
Mg31 O30 2.028 . S
Mg31 O36 2.032 . S
Mg31 O38 2.079 1_554 S
C32 O29 1.250 . S
C32 O30 1.248 . S
C33 O34 1.264 . S
C33 O41 1.249 . S
O34 C33 1.264 . S
O35 Mg28 1.986 1_545 S
O35 C39 1.246 . S
O36 Mg31 2.032 . S
O36 C39 1.259 . S
O37 Mg28 2.114 . S
O37 C40 1.252 1_554 S
O38 Mg28 2.251 1_546 S
O38 Mg31 2.079 1_556 S
O38 C40 1.273 1_545 S
C39 O35 1.246 . S
C39 O36 1.259 . S
C40 O37 1.252 1_556 S
C40 O38 1.273 1_565 S
O41 Mg28 2.010 . S
O41 C33 1.249 . S
Mg42 O43 2.014 1_655 S
Mg42 O49 1.986 1_655 S
Mg42 O51 2.114 . S
Mg42 O52 2.251 1_655 S
Mg42 O55 2.010 . S
O43 Mg42 2.014 1_455 S
O43 C46 1.281 . S
O44 Mg45 2.028 . S
O44 C46 1.248 . S
Mg45 O44 2.028 . S
Mg45 O50 2.032 . S
Mg45 O52 2.079 . S
C46 O43 1.281 . S
C46 O44 1.248 . S
C47 O48 1.264 . S
C47 O55 1.249 . S
O48 C47 1.264 . S
O49 Mg42 1.986 1_455 S
O49 C53 1.246 . S
O50 Mg45 2.032 . S
O50 C53 1.259 . S
O51 Mg42 2.114 . S
O51 C54 1.252 . S
O52 Mg42 2.251 1_455 S
O52 Mg45 2.079 . S
O52 C54 1.273 1_455 S
C53 O49 1.246 . S
C53 O50 1.259 . S
C54 O51 1.252 . S
C54 O52 1.273 1_655 S
O55 Mg42 2.010 . S
O55 C47 1.249 . S
Mg56 O57 2.028 1_556 S
Mg56 O63 1.986 . S
Mg56 O65 2.114 . S
Mg56 O66 2.251 . S
Mg56 O69 2.010 1_556 S
O57 Mg56 2.028 1_554 S
O57 C60 1.250 . S
O58 Mg59 2.028 1_554 S
O58 C60 1.248 . S
Mg59 O58 2.028 1_556 S
Mg59 O64 2.032 . S
Mg59 O66 2.079 . S
C60 O57 1.250 . S
C60 O58 1.248 . S
C61 O62 1.264 . S
C61 O69 1.249 . S
O62 C61 1.264 . S
O63 Mg56 1.986 . S
O63 C67 1.246 . S
O64 Mg59 2.032 . S
O64 C67 1.259 . S
O65 Mg56 2.114 . S
O65 C68 1.252 . S
O66 Mg56 2.251 . S
O66 Mg59 2.079 . S
O66 C68 1.273 . S
C67 O63 1.246 . S
C67 O64 1.259 . S
C68 O65 1.252 . S
C68 O66 1.273 . S
O69 Mg56 2.010 1_554 S
O69 C61 1.249 . S
Mg70 O71 2.028 . S
Mg70 O77 1.986 1_545 S
Mg70 O79 2.114 . S
Mg70 O80 2.251 . S
Mg70 O83 2.010 . S
O71 Mg70 2.028 . S
O71 C74 1.250 1_545 S
O72 Mg73 2.028 . S
O72 C74 1.248 . S
Mg73 O72 2.028 . S
Mg73 O78 2.032 . S
Mg73 O80 2.079 1_565 S
C74 O71 1.250 1_565 S
C74 O72 1.248 . S
C75 O76 1.264 . S
C75 O83 1.249 . S
O76 C75 1.264 . S
O77 Mg70 1.986 1_565 S
O77 C81 1.246 . S
O78 Mg73 2.032 . S
O78 C81 1.259 . S
O79 Mg70 2.114 . S
O79 C82 1.252 . S
O80 Mg70 2.251 . S
O80 Mg73 2.079 1_545 S
O80 C82 1.273 . S
C81 O77 1.246 . S
C81 O78 1.259 . S
C82 O79 1.252 . S
C82 O80 1.273 . S
O83 Mg70 2.010 . S
O83 C75 1.249 . S
Mg84 O85 2.028 . S
Mg84 O91 1.986 . S
Mg84 O93 2.114 . S
Mg84 O94 2.251 . S
Mg84 O97 2.010 . S
O85 Mg84 2.028 . S
O85 C88 1.250 . S
O86 Mg87 2.028 . S
O86 C88 1.248 . S
Mg87 O86 2.028 . S
Mg87 O92 2.032 . S
Mg87 O94 2.079 . S
C88 O85 1.250 . S
C88 O86 1.248 . S
C89 O90 1.264 . S
C89 O97 1.249 . S
O90 C89 1.264 . S
O91 Mg84 1.986 . S
O91 C95 1.246 . S
O92 Mg87 2.032 . S
O92 C95 1.259 . S
O93 Mg84 2.114 . S
O93 C96 1.252 . S
O94 Mg84 2.251 . S
O94 Mg87 2.079 . S
O94 C96 1.273 . S
C95 O91 1.246 . S
C95 O92 1.259 . S
C96 O93 1.252 . S
C96 O94 1.273 . S
O97 Mg84 2.010 . S
O97 C89 1.249 . S
Mg98 O99 2.028 . S
Mg98 O105 1.966 1_565 S
Mg98 O107 2.114 . S
Mg98 O108 2.251 . S
Mg98 O111 2.010 . S
O99 Mg98 2.028 . S
O99 C102 1.250 . S
O100 Mg101 2.028 . S
O100 C102 1.248 . S
Mg101 O100 2.028 . S
Mg101 O106 2.032 . S
Mg101 O108 2.079 . S
C102 O99 1.250 . S
C102 O100 1.248 . S
C103 O104 1.264 . S
C103 O111 1.249 . S
O104 C103 1.264 . S
O105 Mg98 1.966 1_545 S
O105 C109 1.261 . S
O106 Mg101 2.032 . S
O106 C109 1.259 1_565 S
O107 Mg98 2.114 . S
O107 C110 1.252 . S
O108 Mg98 2.251 . S
O108 Mg101 2.079 . S
O108 C110 1.273 . S
C109 O105 1.261 . S
C109 O106 1.259 1_545 S
C110 O107 1.252 . S
C110 O108 1.273 . S
O111 Mg98 2.010 . S
O111 C103 1.249 . S
Mg112 O113 2.028 . S
Mg112 O119 1.986 . S
Mg112 O121 2.114 . S
Mg112 O122 2.251 . S
Mg112 O125 2.010 . S
O113 Mg112 2.028 . S
O113 C116 1.250 . S
O114 Mg115 2.028 . S
O114 C116 1.248 . S
Mg115 O114 2.028 . S
Mg115 O120 2.032 . S
Mg115 O122 2.079 . S
C116 O113 1.250 . S
C116 O114 1.248 . S
C117 O118 1.264 . S
C117 O125 1.249 1_655 S
O118 C117 1.264 . S
O119 Mg112 1.986 . S
O119 C123 1.246 . S
O120 Mg115 2.032 . S
O120 C123 1.259 . S
O121 Mg112 2.114 . S
O121 C124 1.252 . S
O122 Mg112 2.251 . S
O122 Mg115 2.079 . S
O122 C124 1.273 . S
C123 O119 1.246 . S
C123 O120 1.259 . S
C124 O121 1.252 . S
C124 O122 1.273 . S
O125 Mg112 2.010 . S
O125 C117 1.249 1_455 S
Mg126 O127 2.028 . S
Mg126 O133 1.992 . S
Mg126 O135 2.114 . S
Mg126 O136 2.251 . S
Mg126 O139 2.010 . S
O127 Mg126 2.028 . S
O127 C130 1.250 . S
O128 Mg129 2.028 . S
O128 C130 1.248 . S
Mg129 O128 2.028 . S
Mg129 O134 2.032 . S
Mg129 O136 2.079 . S
C130 O127 1.250 . S
C130 O128 1.248 . S
C131 O132 1.264 . S
C131 O139 1.249 . S
O132 C131 1.264 . S
O133 Mg126 1.992 . S
O133 C137 1.247 1_565 S
O134 Mg129 2.032 . S
O134 C137 1.259 1_565 S
O135 Mg126 2.114 . S
O135 C138 1.252 . S
O136 Mg126 2.251 . S
O136 Mg129 2.079 . S
O136 C138 1.273 . S
C137 O133 1.247 1_545 S
C137 O134 1.259 1_545 S
C138 O135 1.252 . S
C138 O136 1.273 . S
O139 Mg126 2.010 . S
O139 C131 1.249 . S
Mg140 O141 2.028 . S
Mg140 O147 1.986 . S
Mg140 O149 2.114 . S
Mg140 O150 2.251 . S
Mg140 O153 2.010 . S
O141 Mg140 2.028 . S
O141 C144 1.250 . S
O142 Mg143 2.028 . S
O142 C144 1.248 . S
Mg143 O142 2.028 . S
Mg143 O148 2.032 . S
Mg143 O150 2.079 . S
C144 O141 1.250 . S
C144 O142 1.248 . S
C145 O146 1.264 . S
C145 O153 1.249 1_655 S
O146 C145 1.264 . S
O147 Mg140 1.986 . S
O147 C151 1.246 . S
O148 Mg143 2.032 . S
O148 C151 1.259 . S
O149 Mg140 2.114 . S
O149 C152 1.252 . S
O150 Mg140 2.251 . S
O150 Mg143 2.079 . S
O150 C152 1.273 . S
C151 O147 1.246 . S
C151 O148 1.259 . S
C152 O149 1.252 . S
C152 O150 1.273 . S
O153 Mg140 2.010 . S
O153 C145 1.249 1_455 S
Mg154 O155 2.028 . S
Mg154 O161 1.986 . S
Mg154 O163 2.114 . S
Mg154 O164 2.251 . S
Mg154 O167 2.010 . S
O155 Mg154 2.028 . S
O155 C158 1.250 . S
O156 Mg157 2.028 . S
O156 C158 1.248 . S
Mg157 O156 2.028 . S
Mg157 O162 2.032 . S
Mg157 O164 2.079 . S
C158 O155 1.250 . S
C158 O156 1.248 . S
C159 O160 1.264 . S
C159 O167 1.249 . S
O160 C159 1.264 . S
O161 Mg154 1.986 . S
O161 C165 1.246 . S
O162 Mg157 2.032 . S
O162 C165 1.259 . S
O163 Mg154 2.114 . S
O163 C166 1.252 . S
O164 Mg154 2.251 . S
O164 Mg157 2.079 . S
O164 C166 1.273 . S
C165 O161 1.246 . S
C165 O162 1.259 . S
C166 O163 1.252 . S
C166 O164 1.273 . S
O167 Mg154 2.010 . S
O167 C159 1.249 . S
Mg168 O169 2.028 . S
Mg168 O175 1.986 . S
Mg168 O177 2.114 . S
Mg168 O178 2.251 . S
Mg168 O181 2.010 . S
O169 Mg168 2.028 . S
O169 C172 1.250 . S
O170 Mg171 2.028 . S
O170 C172 1.248 . S
Mg171 O170 2.028 . S
Mg171 O176 2.032 . S
Mg171 O178 2.079 . S
C172 O169 1.250 . S
C172 O170 1.248 . S
C173 O174 1.264 . S
C173 O181 1.249 . S
O174 C173 1.264 . S
O175 Mg168 1.986 . S
O175 C179 1.254 1_545 S
O176 Mg171 2.032 . S
O176 C179 1.216 1_545 S
O177 Mg168 2.114 . S
O177 C180 1.252 . S
O178 Mg168 2.251 . S
O178 Mg171 2.079 . S
O178 C180 1.273 . S
C179 O175 1.254 1_565 S
C179 O176 1.216 1_565 S
C180 O177 1.252 . S
C180 O178 1.273 . S
O181 Mg168 2.010 . S
O181 C173 1.249 . S
Mg182 O183 2.028 . S
Mg182 O189 1.986 . S
Mg182 O191 2.114 . S
Mg182 O192 2.251 . S
Mg182 O195 2.010 1_655 S
O183 Mg182 2.028 . S
O183 C186 1.250 . S
O184 Mg185 2.028 . S
O184 C186 1.248 . S
Mg185 O184 2.028 . S
Mg185 O190 2.032 . S
Mg185 O192 2.079 . S
C186 O183 1.250 . S
C186 O184 1.248 . S
C187 O188 1.264 . S
C187 O195 1.249 . S
O188 C187 1.264 . S
O189 Mg182 1.986 . S
O189 C193 1.246 . S
O190 Mg185 2.032 . S
O190 C193 1.259 . S
O191 Mg182 2.114 . S
O191 C194 1.252 . S
O192 Mg182 2.251 . S
O192 Mg185 2.079 . S
O192 C194 1.273 . S
C193 O189 1.246 . S
C193 O190 1.259 . S
C194 O191 1.252 . S
C194 O192 1.273 . S
O195 Mg182 2.010 1_455 S
O195 C187 1.249 . S
Mg196 O197 2.028 . S
Mg196 O203 1.986 . S
Mg196 O205 2.114 . S
Mg196 O206 2.251 . S
Mg196 O209 2.010 . S
O197 Mg196 2.028 . S
O197 C200 1.250 . S
O198 Mg199 2.028 . S
O198 C200 1.248 . S
Mg199 O198 2.028 . S
Mg199 O204 2.032 . S
Mg199 O206 2.079 . S
C200 O197 1.250 . S
C200 O198 1.248 . S
C201 O202 1.264 . S
C201 O209 1.249 . S
O202 C201 1.264 . S
O203 Mg196 1.986 . S
O203 C207 1.246 . S
O204 Mg199 2.032 . S
O204 C207 1.259 . S
O205 Mg196 2.114 . S
O205 C208 1.252 . S
O206 Mg196 2.251 . S
O206 Mg199 2.079 . S
O206 C208 1.273 . S
C207 O203 1.246 . S
C207 O204 1.259 . S
C208 O205 1.252 . S
C208 O206 1.273 . S
O209 Mg196 2.010 . S
O209 C201 1.249 . S
Mg210 O211 2.028 . S
Mg210 O217 1.986 . S
Mg210 O219 2.114 . S
Mg210 O220 2.251 . S
Mg210 O223 2.010 . S
O211 Mg210 2.028 . S
O211 C214 1.250 . S
O212 Mg213 2.028 . S
O212 C214 1.248 . S
Mg213 O212 2.028 . S
Mg213 O218 2.032 . S
Mg213 O220 2.079 . S
C214 O211 1.250 . S
C214 O212 1.248 . S
C215 O216 1.264 . S
C215 O223 1.249 . S
O216 C215 1.264 . S
O217 Mg210 1.986 . S
O217 C221 1.246 . S
O218 Mg213 2.032 . S
O218 C221 1.259 . S
O219 Mg210 2.114 . S
O219 C222 1.252 . S
O220 Mg210 2.251 . S
O220 Mg213 2.079 . S
O220 C222 1.273 . S
C221 O217 1.246 . S
C221 O218 1.259 . S
C222 O219 1.252 . S
C222 O220 1.273 . S
O223 Mg210 2.010 . S
O223 C215 1.249 . S
Mg224 O225 2.028 . S
Mg224 O231 1.986 . S
Mg224 O233 2.114 . S
Mg224 O234 2.251 . S
Mg224 O237 2.010 . S
O225 Mg224 2.028 . S
O225 C228 1.250 . S
O226 Mg227 2.028 . S
O226 C228 1.248 . S
Mg227 O226 2.028 . S
Mg227 O232 2.032 . S
Mg227 O234 2.079 . S
C228 O225 1.250 . S
C228 O226 1.248 . S
C229 O230 1.264 . S
C229 O237 1.249 . S
O230 C229 1.264 . S
O231 Mg224 1.986 . S
O231 C235 1.246 1_545 S
O232 Mg227 2.032 . S
O232 C235 1.259 1_545 S
O233 Mg224 2.114 . S
O233 C236 1.252 . S
O234 Mg224 2.251 . S
O234 Mg227 2.079 . S
O234 C236 1.273 . S
C235 O231 1.246 1_565 S
C235 O232 1.259 1_565 S
C236 O233 1.252 . S
C236 O234 1.273 . S
O237 Mg224 2.010 . S
O237 C229 1.249 . S
Mg238 O239 2.028 . S
Mg238 O245 1.986 . S
Mg238 O247 2.114 . S
Mg238 O248 2.251 . S
Mg238 O251 2.010 1_655 S
O239 Mg238 2.028 . S
O239 C242 1.250 . S
O240 Mg241 2.028 . S
O240 C242 1.248 . S
Mg241 O240 2.028 . S
Mg241 O246 2.032 . S
Mg241 O248 2.079 . S
C242 O239 1.250 . S
C242 O240 1.248 . S
C243 O244 1.264 . S
C243 O251 1.250 . S
O244 C243 1.264 . S
O245 Mg238 1.986 . S
O245 C249 1.246 . S
O246 Mg241 2.032 . S
O246 C249 1.259 . S
O247 Mg238 2.114 . S
O247 C250 1.252 . S
O248 Mg238 2.251 . S
O248 Mg241 2.079 . S
O248 C250 1.273 . S
C249 O245 1.246 . S
C249 O246 1.259 . S
C250 O247 1.252 . S
C250 O248 1.273 . S
O251 Mg238 2.010 1_455 S
O251 C243 1.250 . S
H252 O278 0.856 1_556 S
H253 O281 0.854 . S
H254 C289 0.930 . S
H255 C290 0.930 . S
H256 C292 0.930 . S
H257 C293 0.930 . S
H258 C295 0.931 . S
H259 C296 0.930 . S
H260 C298 0.930 . S
H261 C299 0.929 . S
H262 C301 0.930 . S
H263 C302 0.931 . S
H264 C304 0.930 . S
H265 C305 0.929 . S
H266 C307 0.931 . S
H267 C308 0.930 . S
H268 C310 0.930 . S
H269 C311 0.932 . S
H270 C313 0.930 . S
H271 C314 0.929 . S
H272 C316 0.931 . S
H273 C317 0.930 . S
H274 C319 0.929 . S
H275 C320 0.931 . S
H276 C322 0.930 . S
H277 C323 0.929 . S
O278 H252 0.856 1_554 S
O278 C324 1.300 . S
O279 C324 1.209 . S
O280 C325 1.199 . S
O281 H253 0.854 . S
O281 C325 1.297 . S
C282 C283 1.404 . S
C282 C287 1.397 . S
C282 C288 1.492 . S
C283 C282 1.404 . S
C283 C284 1.396 . S
C283 C294 1.492 . S
C284 C283 1.396 . S
C284 C285 1.397 . S
C284 C300 1.509 . S
C285 C284 1.397 . S
C285 C286 1.412 . S
C285 C306 1.485 . S
C286 C285 1.412 . S
C286 C287 1.388 . S
C286 C312 1.490 . S
C287 C282 1.397 . S
C287 C286 1.388 . S
C287 C318 1.519 . S
C288 C282 1.492 . S
C288 C289 1.363 . S
C288 C293 1.390 . S
C289 H254 0.930 . S
C289 C288 1.363 . S
C289 C290 1.372 . S
C290 H255 0.930 . S
C290 C289 1.372 . S
C290 C291 1.383 . S
C291 C290 1.383 . S
C291 C292 1.395 . S
C292 H256 0.930 . S
C292 C291 1.395 . S
C292 C293 1.362 . S
C293 H257 0.930 . S
C293 C288 1.390 . S
C293 C292 1.362 . S
C294 C283 1.492 . S
C294 C295 1.377 . S
C294 C299 1.397 . S
C295 H258 0.931 . S
C295 C294 1.377 . S
C295 C296 1.376 . S
C296 H259 0.930 . S
C296 C295 1.376 . S
C296 C297 1.376 . S
C297 C296 1.376 . S
C297 C298 1.378 . S
C297 C324 1.486 . S
C298 H260 0.930 . S
C298 C297 1.378 . S
C298 C299 1.376 . S
C299 H261 0.929 . S
C299 C294 1.397 . S
C299 C298 1.376 . S
C300 C284 1.509 . S
C300 C301 1.391 . S
C300 C305 1.386 . S
C301 H262 0.930 . S
C301 C300 1.391 . S
C301 C302 1.375 . S
C302 H263 0.931 . S
C302 C301 1.375 . S
C302 C303 1.375 . S
C303 C302 1.375 . S
C303 C304 1.361 . S
C304 H264 0.930 . S
C304 C303 1.361 . S
C304 C305 1.399 . S
C305 H265 0.929 . S
C305 C300 1.386 . S
C305 C304 1.399 . S
C306 C285 1.485 . S
C306 C307 1.394 . S
C306 C311 1.360 . S
C307 H266 0.931 . S
C307 C306 1.394 . S
C307 C308 1.372 . S
C308 H267 0.930 . S
C308 C307 1.372 . S
C308 C309 1.397 . S
C309 C308 1.397 . S
C309 C310 1.390 . S
C309 C325 1.476 . S
C310 H268 0.930 . S
C310 C309 1.390 . S
C310 C311 1.366 . S
C311 H269 0.932 . S
C311 C306 1.360 . S
C311 C310 1.366 . S
C312 C286 1.490 . S
C312 C313 1.380 . S
C312 C317 1.386 . S
C313 H270 0.930 . S
C313 C312 1.380 . S
C313 C314 1.381 . S
C314 H271 0.929 . S
C314 C313 1.381 . S
C314 C315 1.371 . S
C315 C314 1.371 . S
C315 C316 1.380 . S
C316 H272 0.931 . S
C316 C315 1.380 . S
C316 C317 1.387 . S
C317 H273 0.930 . S
C317 C312 1.386 . S
C317 C316 1.387 . S
C318 C287 1.519 . S
C318 C319 1.377 . S
C318 C323 1.361 . S
C319 H274 0.929 . S
C319 C318 1.377 . S
C319 C320 1.386 . S
C320 H275 0.931 . S
C320 C319 1.386 . S
C320 C321 1.363 . S
C321 C320 1.363 . S
C321 C322 1.385 . S
C322 H276 0.930 . S
C322 C321 1.385 . S
C322 C323 1.396 . S
C323 H277 0.929 . S
C323 C318 1.361 . S
C323 C322 1.396 . S
C324 O278 1.300 . S
C324 O279 1.209 . S
C324 C297 1.486 . S
C325 O280 1.199 . S
C325 O281 1.297 . S
C325 C309 1.476 . S
H326 O352 0.856 . S
H327 O355 0.854 . S
H328 C363 0.930 . S
H329 C364 0.930 . S
H330 C366 0.930 . S
H331 C367 0.930 . S
H332 C369 0.931 . S
H333 C370 0.930 . S
H334 C372 0.930 . S
H335 C373 0.929 . S
H336 C375 0.930 . S
H337 C376 0.931 . S
H338 C378 0.930 . S
H339 C379 0.929 . S
H340 C381 0.931 . S
H341 C382 0.930 . S
H342 C384 0.930 . S
H343 C385 0.932 . S
H344 C387 0.930 . S
H345 C388 0.929 . S
H346 C390 0.931 . S
H347 C391 0.930 . S
H348 C393 0.929 . S
H349 C394 0.931 . S
H350 C396 0.930 . S
H351 C397 0.929 . S
O352 H326 0.856 . S
O352 C398 1.300 . S
O353 C398 1.209 . S
O354 C399 1.199 . S
O355 H327 0.854 . S
O355 C399 1.297 1_545 S
C356 C357 1.404 . S
C356 C361 1.397 . S
C356 C362 1.492 . S
C357 C356 1.404 . S
C357 C358 1.396 . S
C357 C368 1.492 . S
C358 C357 1.396 . S
C358 C359 1.397 . S
C358 C374 1.509 . S
C359 C358 1.397 . S
C359 C360 1.412 . S
C359 C380 1.485 . S
C360 C359 1.412 . S
C360 C361 1.388 . S
C360 C386 1.490 . S
C361 C356 1.397 . S
C361 C360 1.388 . S
C361 C392 1.519 . S
C362 C356 1.492 . S
C362 C363 1.363 . S
C362 C367 1.390 . S
C363 H328 0.930 . S
C363 C362 1.363 . S
C363 C364 1.372 . S
C364 H329 0.930 . S
C364 C363 1.372 . S
C364 C365 1.383 . S
C365 C364 1.383 . S
C365 C366 1.395 . S
C366 H330 0.930 . S
C366 C365 1.395 . S
C366 C367 1.362 . S
C367 H331 0.930 . S
C367 C362 1.390 . S
C367 C366 1.362 . S
C368 C357 1.492 . S
C368 C369 1.377 . S
C368 C373 1.397 . S
C369 H332 0.931 . S
C369 C368 1.377 . S
C369 C370 1.376 . S
C370 H333 0.930 . S
C370 C369 1.376 . S
C370 C371 1.376 . S
C371 C370 1.376 . S
C371 C372 1.378 . S
C371 C398 1.486 . S
C372 H334 0.930 . S
C372 C371 1.378 . S
C372 C373 1.376 . S
C373 H335 0.929 . S
C373 C368 1.397 . S
C373 C372 1.376 . S
C374 C358 1.509 . S
C374 C375 1.391 . S
C374 C379 1.386 . S
C375 H336 0.930 . S
C375 C374 1.391 . S
C375 C376 1.375 . S
C376 H337 0.931 . S
C376 C375 1.375 . S
C376 C377 1.375 . S
C377 C376 1.375 . S
C377 C378 1.361 . S
C378 H338 0.930 . S
C378 C377 1.361 . S
C378 C379 1.399 . S
C379 H339 0.929 . S
C379 C374 1.386 . S
C379 C378 1.399 . S
C380 C359 1.485 . S
C380 C381 1.394 . S
C380 C385 1.360 . S
C381 H340 0.931 . S
C381 C380 1.394 . S
C381 C382 1.372 . S
C382 H341 0.930 . S
C382 C381 1.372 . S
C382 C383 1.397 . S
C383 C382 1.397 . S
C383 C384 1.390 . S
C383 C399 1.476 . S
C384 H342 0.930 . S
C384 C383 1.390 . S
C384 C385 1.366 . S
C385 H343 0.932 . S
C385 C380 1.360 . S
C385 C384 1.366 . S
C386 C360 1.490 . S
C386 C387 1.380 . S
C386 C391 1.386 . S
C387 H344 0.930 . S
C387 C386 1.380 . S
C387 C388 1.381 . S
C388 H345 0.929 . S
C388 C387 1.381 . S
C388 C389 1.371 . S
C389 C388 1.371 . S
C389 C390 1.380 . S
C390 H346 0.931 . S
C390 C389 1.380 . S
C390 C391 1.387 . S
C391 H347 0.930 . S
C391 C386 1.386 . S
C391 C390 1.387 . S
C392 C361 1.519 . S
C392 C393 1.377 . S
C392 C397 1.361 . S
C393 H348 0.929 . S
C393 C392 1.377 . S
C393 C394 1.386 . S
C394 H349 0.931 . S
C394 C393 1.386 . S
C394 C395 1.363 . S
C395 C394 1.363 . S
C395 C396 1.385 . S
C396 H350 0.930 . S
C396 C395 1.385 . S
C396 C397 1.396 . S
C397 H351 0.929 . S
C397 C392 1.361 . S
C397 C396 1.396 . S
C398 O352 1.300 . S
C398 O353 1.209 . S
C398 C371 1.486 . S
C399 O354 1.199 . S
C399 O355 1.297 1_565 S
C399 C383 1.476 . S
H400 O426 0.856 . S
H401 O429 0.854 1_545 S
H402 C437 0.930 . S
H403 C438 0.930 . S
H404 C440 0.930 . S
H405 C441 0.930 . S
H406 C443 0.931 . S
H407 C444 0.930 . S
H408 C446 0.930 . S
H409 C447 0.929 . S
H410 C449 0.930 . S
H411 C450 0.931 . S
H412 C452 0.930 . S
H413 C453 0.929 . S
H414 C455 0.931 . S
H415 C456 0.930 . S
H416 C458 0.930 . S
H417 C459 0.932 . S
H418 C461 0.930 . S
H419 C462 0.929 . S
H420 C464 0.931 . S
H421 C465 0.930 . S
H422 C467 0.929 . S
H423 C468 0.931 . S
H424 C470 0.930 . S
H425 C471 0.929 . S
O426 H400 0.856 . S
O426 C472 1.300 . S
O427 C472 1.209 . S
O428 C473 1.199 1_545 S
O429 H401 0.854 1_565 S
O429 C473 1.297 . S
C430 C431 1.404 . S
C430 C435 1.397 . S
C430 C436 1.492 . S
C431 C430 1.404 . S
C431 C432 1.396 . S
C431 C442 1.492 . S
C432 C431 1.396 . S
C432 C433 1.397 . S
C432 C448 1.509 . S
C433 C432 1.397 . S
C433 C434 1.412 . S
C433 C454 1.485 . S
C434 C433 1.412 . S
C434 C435 1.388 . S
C434 C460 1.490 . S
C435 C430 1.397 . S
C435 C434 1.388 . S
C435 C466 1.519 . S
C436 C430 1.492 . S
C436 C437 1.363 . S
C436 C441 1.390 . S
C437 H402 0.930 . S
C437 C436 1.363 . S
C437 C438 1.372 . S
C438 H403 0.930 . S
C438 C437 1.372 . S
C438 C439 1.383 . S
C439 C438 1.383 . S
C439 C440 1.395 . S
C440 H404 0.930 . S
C440 C439 1.395 . S
C440 C441 1.362 . S
C441 H405 0.930 . S
C441 C436 1.390 . S
C441 C440 1.362 . S
C442 C431 1.492 . S
C442 C443 1.377 . S
C442 C447 1.397 . S
C443 H406 0.931 . S
C443 C442 1.377 . S
C443 C444 1.376 . S
C444 H407 0.930 . S
C444 C443 1.376 . S
C444 C445 1.376 . S
C445 C444 1.376 . S
C445 C446 1.378 . S
C445 C472 1.486 . S
C446 H408 0.930 . S
C446 C445 1.378 . S
C446 C447 1.376 . S
C447 H409 0.929 . S
C447 C442 1.397 . S
C447 C446 1.376 . S
C448 C432 1.509 . S
C448 C449 1.391 . S
C448 C453 1.386 . S
C449 H410 0.930 . S
C449 C448 1.391 . S
C449 C450 1.375 . S
C450 H411 0.931 . S
C450 C449 1.375 . S
C450 C451 1.375 . S
C451 C450 1.375 . S
C451 C452 1.361 . S
C452 H412 0.930 . S
C452 C451 1.361 . S
C452 C453 1.399 . S
C453 H413 0.929 . S
C453 C448 1.386 . S
C453 C452 1.399 . S
C454 C433 1.485 . S
C454 C455 1.394 . S
C454 C459 1.360 . S
C455 H414 0.931 . S
C455 C454 1.394 . S
C455 C456 1.372 . S
C456 H415 0.930 . S
C456 C455 1.372 . S
C456 C457 1.397 . S
C457 C456 1.397 . S
C457 C458 1.390 . S
C457 C473 1.476 . S
C458 H416 0.930 . S
C458 C457 1.390 . S
C458 C459 1.366 . S
C459 H417 0.932 . S
C459 C454 1.360 . S
C459 C458 1.366 . S
C460 C434 1.490 . S
C460 C461 1.380 . S
C460 C465 1.386 . S
C461 H418 0.930 . S
C461 C460 1.380 . S
C461 C462 1.381 . S
C462 H419 0.929 . S
C462 C461 1.381 . S
C462 C463 1.371 . S
C463 C462 1.371 . S
C463 C464 1.380 . S
C464 H420 0.931 . S
C464 C463 1.380 . S
C464 C465 1.387 . S
C465 H421 0.930 . S
C465 C460 1.386 . S
C465 C464 1.387 . S
C466 C435 1.519 . S
C466 C467 1.377 . S
C466 C471 1.361 . S
C467 H422 0.929 . S
C467 C466 1.377 . S
C467 C468 1.386 . S
C468 H423 0.931 . S
C468 C467 1.386 . S
C468 C469 1.363 . S
C469 C468 1.363 . S
C469 C470 1.385 . S
C470 H424 0.930 . S
C470 C469 1.385 . S
C470 C471 1.396 . S
C471 H425 0.929 . S
C471 C466 1.361 . S
C471 C470 1.396 . S
C472 O426 1.300 . S
C472 O427 1.209 . S
C472 C445 1.486 . S
C473 O428 1.199 1_565 S
C473 O429 1.297 . S
C473 C457 1.476 . S
H474 O500 0.856 . S
H475 O503 0.854 . S
H476 C511 0.930 . S
H477 C512 0.930 . S
H478 C514 0.930 . S
H479 C515 0.930 . S
H480 C517 0.931 . S
H481 C518 0.930 1_554 S
H482 C520 0.930 . S
H483 C521 0.929 . S
H484 C523 0.930 . S
H485 C524 0.931 . S
H486 C526 0.930 . S
H487 C527 0.929 . S
H488 C529 0.931 . S
H489 C530 0.930 . S
H490 C532 0.930 . S
H491 C533 0.932 . S
H492 C535 0.930 . S
H493 C536 0.929 . S
H494 C538 0.931 . S
H495 C539 0.930 . S
H496 C541 0.929 . S
H497 C542 0.931 . S
H498 C544 0.930 . S
H499 C545 0.929 . S
O500 H474 0.856 . S
O500 C546 1.300 . S
O501 C546 1.209 . S
O502 C547 1.199 . S
O503 H475 0.854 . S
O503 C547 1.297 . S
C504 C505 1.404 . S
C504 C509 1.397 . S
C504 C510 1.492 . S
C505 C504 1.404 . S
C505 C506 1.396 . S
C505 C516 1.492 . S
C506 C505 1.396 . S
C506 C507 1.397 . S
C506 C522 1.509 . S
C507 C506 1.397 . S
C507 C508 1.412 . S
C507 C528 1.485 . S
C508 C507 1.412 . S
C508 C509 1.388 . S
C508 C534 1.490 . S
C509 C504 1.397 . S
C509 C508 1.388 . S
C509 C540 1.519 . S
C510 C504 1.492 . S
C510 C511 1.363 . S
C510 C515 1.390 . S
C511 H476 0.930 . S
C511 C510 1.363 . S
C511 C512 1.372 . S
C512 H477 0.930 . S
C512 C511 1.372 . S
C512 C513 1.383 . S
C513 C512 1.383 . S
C513 C514 1.395 . S
C514 H478 0.930 . S
C514 C513 1.395 . S
C514 C515 1.362 . S
C515 H479 0.930 . S
C515 C510 1.390 . S
C515 C514 1.362 . S
C516 C505 1.492 . S
C516 C517 1.377 . S
C516 C521 1.397 . S
C517 H480 0.931 . S
C517 C516 1.377 . S
C517 C518 1.376 . S
C518 H481 0.930 1_556 S
C518 C517 1.376 . S
C518 C519 1.376 1_556 S
C519 C518 1.376 1_554 S
C519 C520 1.378 1_554 S
C519 C546 1.486 . S
C520 H482 0.930 . S
C520 C519 1.378 1_556 S
C520 C521 1.376 . S
C521 H483 0.929 . S
C521 C516 1.397 . S
C521 C520 1.376 . S
C522 C506 1.509 . S
C522 C523 1.391 . S
C522 C527 1.386 . S
C523 H484 0.930 . S
C523 C522 1.391 . S
C523 C524 1.375 . S
C524 H485 0.931 . S
C524 C523 1.375 . S
C524 C525 1.375 . S
C525 C524 1.375 . S
C525 C526 1.361 . S
C526 H486 0.930 . S
C526 C525 1.361 . S
C526 C527 1.399 . S
C527 H487 0.929 . S
C527 C522 1.386 . S
C527 C526 1.399 . S
C528 C507 1.485 . S
C528 C529 1.394 . S
C528 C533 1.360 . S
C529 H488 0.931 . S
C529 C528 1.394 . S
C529 C530 1.372 . S
C530 H489 0.930 . S
C530 C529 1.372 . S
C530 C531 1.397 . S
C531 C530 1.397 . S
C531 C532 1.390 . S
C531 C547 1.476 . S
C532 H490 0.930 . S
C532 C531 1.390 . S
C532 C533 1.366 . S
C533 H491 0.932 . S
C533 C528 1.360 . S
C533 C532 1.366 . S
C534 C508 1.490 . S
C534 C535 1.380 . S
C534 C539 1.386 . S
C535 H492 0.930 . S
C535 C534 1.380 . S
C535 C536 1.381 . S
C536 H493 0.929 . S
C536 C535 1.381 . S
C536 C537 1.371 . S
C537 C536 1.371 . S
C537 C538 1.380 . S
C538 H494 0.931 . S
C538 C537 1.380 . S
C538 C539 1.387 . S
C539 H495 0.930 . S
C539 C534 1.386 . S
C539 C538 1.387 . S
C540 C509 1.519 . S
C540 C541 1.377 . S
C540 C545 1.361 . S
C541 H496 0.929 . S
C541 C540 1.377 . S
C541 C542 1.386 . S
C542 H497 0.931 . S
C542 C541 1.386 . S
C542 C543 1.363 . S
C543 C542 1.363 . S
C543 C544 1.385 . S
C544 H498 0.930 . S
C544 C543 1.385 . S
C544 C545 1.396 . S
C545 H499 0.929 . S
C545 C540 1.361 . S
C545 C544 1.396 . S
C546 O500 1.300 . S
C546 O501 1.209 . S
C546 C519 1.486 . S
C547 O502 1.199 . S
C547 O503 1.297 . S
C547 C531 1.476 . S
H548 O574 0.856 . S
H549 O577 0.854 . S
H550 C585 0.930 . S
H551 C586 0.930 . S
H552 C588 0.930 . S
H553 C589 0.930 . S
H554 C591 0.931 . S
H555 C592 0.930 . S
H556 C594 0.930 . S
H557 C595 0.929 . S
H558 C597 0.930 . S
H559 C598 0.931 . S
H560 C600 0.930 . S
H561 C601 0.929 . S
H562 C603 0.931 . S
H563 C604 0.930 . S
H564 C606 0.930 . S
H565 C607 0.932 . S
H566 C609 0.930 . S
H567 C610 0.929 . S
H568 C612 0.931 . S
H569 C613 0.930 . S
H570 C615 0.929 . S
H571 C616 0.931 . S
H572 C618 0.930 . S
H573 C619 0.929 . S
O574 H548 0.856 . S
O574 C620 1.300 . S
O575 C620 1.209 . S
O576 C621 1.199 . S
O577 H549 0.854 . S
O577 C621 1.297 1_565 S
C578 C579 1.404 . S
C578 C583 1.397 . S
C578 C584 1.492 . S
C579 C578 1.404 . S
C579 C580 1.396 . S
C579 C590 1.492 . S
C580 C579 1.396 . S
C580 C581 1.397 . S
C580 C596 1.509 . S
C581 C580 1.397 . S
C581 C582 1.412 . S
C581 C602 1.485 . S
C582 C581 1.412 . S
C582 C583 1.388 . S
C582 C608 1.490 . S
C583 C578 1.397 . S
C583 C582 1.388 . S
C583 C614 1.519 . S
C584 C578 1.492 . S
C584 C585 1.363 . S
C584 C589 1.390 . S
C585 H550 0.930 . S
C585 C584 1.363 . S
C585 C586 1.372 . S
C586 H551 0.930 . S
C586 C585 1.372 . S
C586 C587 1.383 . S
C587 C586 1.383 . S
C587 C588 1.395 . S
C588 H552 0.930 . S
C588 C587 1.395 . S
C588 C589 1.362 . S
C589 H553 0.930 . S
C589 C584 1.390 . S
C589 C588 1.362 . S
C590 C579 1.492 . S
C590 C591 1.377 . S
C590 C595 1.397 . S
C591 H554 0.931 . S
C591 C590 1.377 . S
C591 C592 1.376 1_556 S
C592 H555 0.930 . S
C592 C591 1.376 1_554 S
C592 C593 1.376 . S
C593 C592 1.376 . S
C593 C594 1.378 . S
C593 C620 1.486 . S
C594 H556 0.930 . S
C594 C593 1.378 . S
C594 C595 1.376 1_554 S
C595 H557 0.929 . S
C595 C590 1.397 . S
C595 C594 1.376 1_556 S
C596 C580 1.509 . S
C596 C597 1.391 . S
C596 C601 1.386 . S
C597 H558 0.930 . S
C597 C596 1.391 . S
C597 C598 1.375 . S
C598 H559 0.931 . S
C598 C597 1.375 . S
C598 C599 1.375 . S
C599 C598 1.375 . S
C599 C600 1.361 . S
C600 H560 0.930 . S
C600 C599 1.361 . S
C600 C601 1.399 . S
C601 H561 0.929 . S
C601 C596 1.386 . S
C601 C600 1.399 . S
C602 C581 1.485 . S
C602 C603 1.394 . S
C602 C607 1.360 . S
C603 H562 0.931 . S
C603 C602 1.394 . S
C603 C604 1.372 . S
C604 H563 0.930 . S
C604 C603 1.372 . S
C604 C605 1.397 . S
C605 C604 1.397 . S
C605 C606 1.390 . S
C605 C621 1.476 . S
C606 H564 0.930 . S
C606 C605 1.390 . S
C606 C607 1.366 . S
C607 H565 0.932 . S
C607 C602 1.360 . S
C607 C606 1.366 . S
C608 C582 1.490 . S
C608 C609 1.380 . S
C608 C613 1.386 . S
C609 H566 0.930 . S
C609 C608 1.380 . S
C609 C610 1.381 . S
C610 H567 0.929 . S
C610 C609 1.381 . S
C610 C611 1.371 . S
C611 C610 1.371 . S
C611 C612 1.380 . S
C612 H568 0.931 . S
C612 C611 1.380 . S
C612 C613 1.387 . S
C613 H569 0.930 . S
C613 C608 1.386 . S
C613 C612 1.387 . S
C614 C583 1.519 . S
C614 C615 1.377 . S
C614 C619 1.361 . S
C615 H570 0.929 . S
C615 C614 1.377 . S
C615 C616 1.386 . S
C616 H571 0.931 . S
C616 C615 1.386 . S
C616 C617 1.363 . S
C617 C616 1.363 . S
C617 C618 1.385 . S
C618 H572 0.930 . S
C618 C617 1.385 . S
C618 C619 1.396 . S
C619 H573 0.929 . S
C619 C614 1.361 . S
C619 C618 1.396 . S
C620 O574 1.300 . S
C620 O575 1.209 . S
C620 C593 1.486 . S
C621 O576 1.199 . S
C621 O577 1.297 1_545 S
C621 C605 1.476 . S
H622 O648 0.856 . S
H623 O651 0.854 . S
H624 C659 0.930 . S
H625 C660 0.930 . S
H626 C662 0.930 . S
H627 C663 0.930 . S
H628 C665 0.931 . S
H629 C666 0.930 . S
H630 C668 0.930 . S
H631 C669 0.929 . S
H632 C671 0.930 . S
H633 C672 0.931 . S
H634 C674 0.930 . S
H635 C675 0.929 . S
H636 C677 0.931 . S
H637 C678 0.930 . S
H638 C680 0.930 . S
H639 C681 0.932 . S
H640 C683 0.930 . S
H641 C684 0.929 . S
H642 C686 0.931 . S
H643 C687 0.930 . S
H644 C689 0.929 . S
H645 C690 0.931 . S
H646 C692 0.930 . S
H647 C693 0.929 . S
O648 H622 0.856 . S
O648 C694 1.300 . S
O649 C694 1.209 . S
O650 C695 1.199 . S
O651 H623 0.854 . S
O651 C695 1.297 . S
C652 C653 1.404 . S
C652 C657 1.397 . S
C652 C658 1.492 . S
C653 C652 1.404 . S
C653 C654 1.396 . S
C653 C664 1.492 . S
C654 C653 1.396 . S
C654 C655 1.397 . S
C654 C670 1.509 . S
C655 C654 1.397 . S
C655 C656 1.412 . S
C655 C676 1.485 . S
C656 C655 1.412 . S
C656 C657 1.388 . S
C656 C682 1.490 . S
C657 C652 1.397 . S
C657 C656 1.388 . S
C657 C688 1.519 . S
C658 C652 1.492 . S
C658 C659 1.363 . S
C658 C663 1.390 . S
C659 H624 0.930 . S
C659 C658 1.363 . S
C659 C660 1.372 . S
C660 H625 0.930 . S
C660 C659 1.372 . S
C660 C661 1.383 . S
C661 C660 1.383 . S
C661 C662 1.395 . S
C662 H626 0.930 . S
C662 C661 1.395 . S
C662 C663 1.362 . S
C663 H627 0.930 . S
C663 C658 1.390 . S
C663 C662 1.362 . S
C664 C653 1.492 . S
C664 C665 1.377 . S
C664 C669 1.397 . S
C665 H628 0.931 . S
C665 C664 1.377 . S
C665 C666 1.376 1_556 S
C666 H629 0.930 . S
C666 C665 1.376 1_554 S
C666 C667 1.376 . S
C667 C666 1.376 . S
C667 C668 1.378 . S
C667 C694 1.486 . S
C668 H630 0.930 . S
C668 C667 1.378 . S
C668 C669 1.376 1_554 S
C669 H631 0.929 . S
C669 C664 1.397 . S
C669 C668 1.376 1_556 S
C670 C654 1.509 . S
C670 C671 1.391 . S
C670 C675 1.386 . S
C671 H632 0.930 . S
C671 C670 1.391 . S
C671 C672 1.375 . S
C672 H633 0.931 . S
C672 C671 1.375 . S
C672 C673 1.375 . S
C673 C672 1.375 . S
C673 C674 1.361 . S
C674 H634 0.930 . S
C674 C673 1.361 . S
C674 C675 1.399 . S
C675 H635 0.929 . S
C675 C670 1.386 . S
C675 C674 1.399 . S
C676 C655 1.485 . S
C676 C677 1.394 . S
C676 C681 1.360 . S
C677 H636 0.931 . S
C677 C676 1.394 . S
C677 C678 1.372 . S
C678 H637 0.930 . S
C678 C677 1.372 . S
C678 C679 1.397 . S
C679 C678 1.397 . S
C679 C680 1.390 . S
C679 C695 1.476 . S
C680 H638 0.930 . S
C680 C679 1.390 . S
C680 C681 1.366 . S
C681 H639 0.932 . S
C681 C676 1.360 . S
C681 C680 1.366 . S
C682 C656 1.490 . S
C682 C683 1.380 . S
C682 C687 1.386 . S
C683 H640 0.930 . S
C683 C682 1.380 . S
C683 C684 1.381 . S
C684 H641 0.929 . S
C684 C683 1.381 . S
C684 C685 1.371 . S
C685 C684 1.371 . S
C685 C686 1.380 . S
C686 H642 0.931 . S
C686 C685 1.380 . S
C686 C687 1.387 . S
C687 H643 0.930 . S
C687 C682 1.386 . S
C687 C686 1.387 . S
C688 C657 1.519 . S
C688 C689 1.377 . S
C688 C693 1.361 . S
C689 H644 0.929 . S
C689 C688 1.377 . S
C689 C690 1.386 . S
C690 H645 0.931 . S
C690 C689 1.386 . S
C690 C691 1.363 . S
C691 C690 1.363 . S
C691 C692 1.385 . S
C692 H646 0.930 . S
C692 C691 1.385 . S
C692 C693 1.396 . S
C693 H647 0.929 . S
C693 C688 1.361 . S
C693 C692 1.396 . S
C694 O648 1.300 . S
C694 O649 1.209 . S
C694 C667 1.486 . S
C695 O650 1.199 . S
C695 O651 1.297 . S
C695 C679 1.476 . S
H696 O722 0.856 . S
H697 O725 0.854 . S
H698 C733 0.930 . S
H699 C734 0.930 . S
H700 C736 0.930 . S
H701 C737 0.930 . S
H702 C739 0.931 . S
H703 C740 0.930 . S
H704 C742 0.930 . S
H705 C743 0.929 . S
H706 C745 0.930 . S
H707 C746 0.931 . S
H708 C748 0.930 . S
H709 C749 0.929 . S
H710 C751 0.931 . S
H711 C752 0.930 . S
H712 C754 0.930 . S
H713 C755 0.932 . S
H714 C757 0.930 . S
H715 C758 0.929 . S
H716 C760 0.931 . S
H717 C761 0.930 . S
H718 C763 0.929 . S
H719 C764 0.931 . S
H720 C766 0.930 . S
H721 C767 0.929 . S
O722 H696 0.856 . S
O722 C768 1.300 . S
O723 C768 1.209 . S
O724 C769 1.199 . S
O725 H697 0.854 . S
O725 C769 1.297 . S
C726 C727 1.404 . S
C726 C731 1.397 . S
C726 C732 1.492 . S
C727 C726 1.404 . S
C727 C728 1.396 . S
C727 C738 1.492 . S
C728 C727 1.396 . S
C728 C729 1.397 . S
C728 C744 1.509 . S
C729 C728 1.397 . S
C729 C730 1.412 . S
C729 C750 1.485 . S
C730 C729 1.412 . S
C730 C731 1.388 . S
C730 C756 1.490 . S
C731 C726 1.397 . S
C731 C730 1.388 . S
C731 C762 1.519 . S
C732 C726 1.492 . S
C732 C733 1.363 . S
C732 C737 1.390 . S
C733 H698 0.930 . S
C733 C732 1.363 . S
C733 C734 1.372 . S
C734 H699 0.930 . S
C734 C733 1.372 . S
C734 C735 1.383 . S
C735 C734 1.383 . S
C735 C736 1.395 . S
C736 H700 0.930 . S
C736 C735 1.395 . S
C736 C737 1.362 . S
C737 H701 0.930 . S
C737 C732 1.390 . S
C737 C736 1.362 . S
C738 C727 1.492 . S
C738 C739 1.377 . S
C738 C743 1.397 . S
C739 H702 0.931 . S
C739 C738 1.377 . S
C739 C740 1.376 . S
C740 H703 0.930 . S
C740 C739 1.376 . S
C740 C741 1.376 . S
C741 C740 1.376 . S
C741 C742 1.378 . S
C741 C768 1.486 . S
C742 H704 0.930 . S
C742 C741 1.378 . S
C742 C743 1.376 . S
C743 H705 0.929 . S
C743 C738 1.397 . S
C743 C742 1.376 . S
C744 C728 1.509 . S
C744 C745 1.391 . S
C744 C749 1.386 . S
C745 H706 0.930 . S
C745 C744 1.391 . S
C745 C746 1.375 . S
C746 H707 0.931 . S
C746 C745 1.375 . S
C746 C747 1.375 . S
C747 C746 1.375 . S
C747 C748 1.361 . S
C748 H708 0.930 . S
C748 C747 1.361 . S
C748 C749 1.399 . S
C749 H709 0.929 . S
C749 C744 1.386 . S
C749 C748 1.399 . S
C750 C729 1.485 . S
C750 C751 1.394 . S
C750 C755 1.360 . S
C751 H710 0.931 . S
C751 C750 1.394 . S
C751 C752 1.372 . S
C752 H711 0.930 . S
C752 C751 1.372 . S
C752 C753 1.397 . S
C753 C752 1.397 . S
C753 C754 1.390 . S
C753 C769 1.476 . S
C754 H712 0.930 . S
C754 C753 1.390 . S
C754 C755 1.366 . S
C755 H713 0.932 . S
C755 C750 1.360 . S
C755 C754 1.366 . S
C756 C730 1.490 . S
C756 C757 1.380 . S
C756 C761 1.386 . S
C757 H714 0.930 . S
C757 C756 1.380 . S
C757 C758 1.381 . S
C758 H715 0.929 . S
C758 C757 1.381 . S
C758 C759 1.371 . S
C759 C758 1.371 . S
C759 C760 1.380 . S
C760 H716 0.931 . S
C760 C759 1.380 . S
C760 C761 1.387 . S
C761 H717 0.930 . S
C761 C756 1.386 . S
C761 C760 1.387 . S
C762 C731 1.519 . S
C762 C763 1.377 . S
C762 C767 1.361 . S
C763 H718 0.929 . S
C763 C762 1.377 . S
C763 C764 1.386 . S
C764 H719 0.931 . S
C764 C763 1.386 . S
C764 C765 1.363 . S
C765 C764 1.363 . S
C765 C766 1.385 . S
C766 H720 0.930 . S
C766 C765 1.385 . S
C766 C767 1.396 . S
C767 H721 0.929 . S
C767 C762 1.361 . S
C767 C766 1.396 . S
C768 O722 1.300 . S
C768 O723 1.209 . S
C768 C741 1.486 . S
C769 O724 1.199 . S
C769 O725 1.297 . S
C769 C753 1.476 . S
H770 O796 0.856 . S
H771 O799 0.854 . S
H772 C807 0.930 . S
H773 C808 0.930 . S
H774 C810 0.930 . S
H775 C811 0.930 . S
H776 C813 0.931 . S
H777 C814 0.930 . S
H778 C816 0.930 . S
H779 C817 0.929 . S
H780 C819 0.930 . S
H781 C820 0.931 . S
H782 C822 0.930 . S
H783 C823 0.929 . S
H784 C825 0.931 . S
H785 C826 0.930 . S
H786 C828 0.930 . S
H787 C829 0.932 . S
H788 C831 0.930 . S
H789 C832 0.929 . S
H790 C834 0.931 . S
H791 C835 0.930 . S
H792 C837 0.929 . S
H793 C838 0.931 . S
H794 C840 0.930 . S
H795 C841 0.929 . S
O796 H770 0.856 . S
O796 C842 1.300 . S
O797 C842 1.209 . S
O798 C843 1.199 . S
O799 H771 0.854 . S
O799 C843 1.297 . S
C800 C801 1.404 . S
C800 C805 1.397 . S
C800 C806 1.492 . S
C801 C800 1.404 . S
C801 C802 1.396 . S
C801 C812 1.492 . S
C802 C801 1.396 . S
C802 C803 1.397 . S
C802 C818 1.509 . S
C803 C802 1.397 . S
C803 C804 1.412 . S
C803 C824 1.485 . S
C804 C803 1.412 . S
C804 C805 1.388 . S
C804 C830 1.490 . S
C805 C800 1.397 . S
C805 C804 1.388 . S
C805 C836 1.519 . S
C806 C800 1.492 . S
C806 C807 1.363 . S
C806 C811 1.390 . S
C807 H772 0.930 . S
C807 C806 1.363 . S
C807 C808 1.372 . S
C808 H773 0.930 . S
C808 C807 1.372 . S
C808 C809 1.383 . S
C809 C808 1.383 . S
C809 C810 1.395 . S
C810 H774 0.930 . S
C810 C809 1.395 . S
C810 C811 1.362 . S
C811 H775 0.930 . S
C811 C806 1.390 . S
C811 C810 1.362 . S
C812 C801 1.492 . S
C812 C813 1.377 . S
C812 C817 1.397 . S
C813 H776 0.931 . S
C813 C812 1.377 . S
C813 C814 1.376 . S
C814 H777 0.930 . S
C814 C813 1.376 . S
C814 C815 1.376 . S
C815 C814 1.376 . S
C815 C816 1.378 . S
C815 C842 1.486 . S
C816 H778 0.930 . S
C816 C815 1.378 . S
C816 C817 1.376 . S
C817 H779 0.929 . S
C817 C812 1.397 . S
C817 C816 1.376 . S
C818 C802 1.509 . S
C818 C819 1.391 . S
C818 C823 1.386 . S
C819 H780 0.930 . S
C819 C818 1.391 . S
C819 C820 1.375 . S
C820 H781 0.931 . S
C820 C819 1.375 . S
C820 C821 1.375 . S
C821 C820 1.375 . S
C821 C822 1.361 . S
C822 H782 0.930 . S
C822 C821 1.361 . S
C822 C823 1.399 . S
C823 H783 0.929 . S
C823 C818 1.386 . S
C823 C822 1.399 . S
C824 C803 1.485 . S
C824 C825 1.394 . S
C824 C829 1.360 . S
C825 H784 0.931 . S
C825 C824 1.394 . S
C825 C826 1.372 . S
C826 H785 0.930 . S
C826 C825 1.372 . S
C826 C827 1.397 . S
C827 C826 1.397 . S
C827 C828 1.390 . S
C827 C843 1.476 . S
C828 H786 0.930 . S
C828 C827 1.390 . S
C828 C829 1.366 . S
C829 H787 0.932 . S
C829 C824 1.360 . S
C829 C828 1.366 . S
C830 C804 1.490 . S
C830 C831 1.380 . S
C830 C835 1.386 . S
C831 H788 0.930 . S
C831 C830 1.380 . S
C831 C832 1.381 . S
C832 H789 0.929 . S
C832 C831 1.381 . S
C832 C833 1.371 . S
C833 C832 1.371 . S
C833 C834 1.380 . S
C834 H790 0.931 . S
C834 C833 1.380 . S
C834 C835 1.387 . S
C835 H791 0.930 . S
C835 C830 1.386 . S
C835 C834 1.387 . S
C836 C805 1.519 . S
C836 C837 1.377 . S
C836 C841 1.361 . S
C837 H792 0.929 . S
C837 C836 1.377 . S
C837 C838 1.386 . S
C838 H793 0.931 . S
C838 C837 1.386 . S
C838 C839 1.363 . S
C839 C838 1.363 . S
C839 C840 1.385 . S
C840 H794 0.930 . S
C840 C839 1.385 . S
C840 C841 1.396 . S
C841 H795 0.929 . S
C841 C836 1.361 . S
C841 C840 1.396 . S
C842 O796 1.300 . S
C842 O797 1.209 . S
C842 C815 1.486 . S
C843 O798 1.199 . S
C843 O799 1.297 . S
C843 C827 1.476 . S
H844 O870 0.856 . S
H845 O873 0.854 . S
H846 C881 0.930 . S
H847 C882 0.930 . S
H848 C884 0.930 . S
H849 C885 0.930 . S
H850 C887 0.931 . S
H851 C888 0.930 . S
H852 C890 0.930 . S
H853 C891 0.929 . S
H854 C893 0.930 . S
H855 C894 0.931 . S
H856 C896 0.930 . S
H857 C897 0.929 . S
H858 C899 0.931 . S
H859 C900 0.930 . S
H860 C902 0.930 . S
H861 C903 0.932 . S
H862 C905 0.930 . S
H863 C906 0.929 . S
H864 C908 0.931 . S
H865 C909 0.930 . S
H866 C911 0.929 . S
H867 C912 0.931 . S
H868 C914 0.930 . S
H869 C915 0.929 . S
O870 H844 0.856 . S
O870 C916 1.300 . S
O871 C916 1.209 . S
O872 C917 1.199 . S
O873 H845 0.854 . S
O873 C917 1.297 . S
C874 C875 1.404 . S
C874 C879 1.397 . S
C874 C880 1.492 . S
C875 C874 1.404 . S
C875 C876 1.396 . S
C875 C886 1.492 . S
C876 C875 1.396 . S
C876 C877 1.397 . S
C876 C892 1.509 . S
C877 C876 1.397 . S
C877 C878 1.412 . S
C877 C898 1.485 . S
C878 C877 1.412 . S
C878 C879 1.388 . S
C878 C904 1.490 . S
C879 C874 1.397 . S
C879 C878 1.388 . S
C879 C910 1.519 . S
C880 C874 1.492 . S
C880 C881 1.363 . S
C880 C885 1.390 . S
C881 H846 0.930 . S
C881 C880 1.363 . S
C881 C882 1.372 . S
C882 H847 0.930 . S
C882 C881 1.372 . S
C882 C883 1.383 . S
C883 C882 1.383 . S
C883 C884 1.395 . S
C884 H848 0.930 . S
C884 C883 1.395 . S
C884 C885 1.362 . S
C885 H849 0.930 . S
C885 C880 1.390 . S
C885 C884 1.362 . S
C886 C875 1.492 . S
C886 C887 1.377 . S
C886 C891 1.397 . S
C887 H850 0.931 . S
C887 C886 1.377 . S
C887 C888 1.376 . S
C888 H851 0.930 . S
C888 C887 1.376 . S
C888 C889 1.376 . S
C889 C888 1.376 . S
C889 C890 1.378 . S
C889 C916 1.486 . S
C890 H852 0.930 . S
C890 C889 1.378 . S
C890 C891 1.376 . S
C891 H853 0.929 . S
C891 C886 1.397 . S
C891 C890 1.376 . S
C892 C876 1.509 . S
C892 C893 1.391 . S
C892 C897 1.386 . S
C893 H854 0.930 . S
C893 C892 1.391 . S
C893 C894 1.375 . S
C894 H855 0.931 . S
C894 C893 1.375 . S
C894 C895 1.375 . S
C895 C894 1.375 . S
C895 C896 1.361 . S
C896 H856 0.930 . S
C896 C895 1.361 . S
C896 C897 1.399 . S
C897 H857 0.929 . S
C897 C892 1.386 . S
C897 C896 1.399 . S
C898 C877 1.485 . S
C898 C899 1.394 . S
C898 C903 1.360 . S
C899 H858 0.931 . S
C899 C898 1.394 . S
C899 C900 1.372 . S
C900 H859 0.930 . S
C900 C899 1.372 . S
C900 C901 1.397 . S
C901 C900 1.397 . S
C901 C902 1.390 . S
C901 C917 1.476 . S
C902 H860 0.930 . S
C902 C901 1.390 . S
C902 C903 1.366 . S
C903 H861 0.932 . S
C903 C898 1.360 . S
C903 C902 1.366 . S
C904 C878 1.490 . S
C904 C905 1.380 . S
C904 C909 1.386 . S
C905 H862 0.930 . S
C905 C904 1.380 . S
C905 C906 1.381 . S
C906 H863 0.929 . S
C906 C905 1.381 . S
C906 C907 1.371 . S
C907 C906 1.371 . S
C907 C908 1.380 . S
C908 H864 0.931 . S
C908 C907 1.380 . S
C908 C909 1.387 . S
C909 H865 0.930 . S
C909 C904 1.386 . S
C909 C908 1.387 . S
C910 C879 1.519 . S
C910 C911 1.377 . S
C910 C915 1.361 . S
C911 H866 0.929 . S
C911 C910 1.377 . S
C911 C912 1.386 . S
C912 H867 0.931 . S
C912 C911 1.386 . S
C912 C913 1.363 . S
C913 C912 1.363 . S
C913 C914 1.385 . S
C914 H868 0.930 . S
C914 C913 1.385 . S
C914 C915 1.396 . S
C915 H869 0.929 . S
C915 C910 1.361 . S
C915 C914 1.396 . S
C916 O870 1.300 . S
C916 O871 1.209 . S
C916 C889 1.486 . S
C917 O872 1.199 . S
C917 O873 1.297 . S
C917 C901 1.476 . S
H918 O944 0.856 . S
H919 O947 0.854 . S
H920 C955 0.930 . S
H921 C956 0.930 . S
H922 C958 0.930 . S
H923 C959 0.930 . S
H924 C961 0.931 . S
H925 C962 0.930 1_655 S
H926 C964 0.930 . S
H927 C965 0.929 . S
H928 C967 0.930 . S
H929 C968 0.923 1_655 S
H930 C970 0.930 . S
H931 C971 0.929 . S
H932 C973 0.931 . S
H933 C974 0.930 . S
H934 C976 0.930 . S
H935 C977 0.932 . S
H936 C979 0.930 . S
H937 C980 0.929 . S
H938 C982 0.931 . S
H939 C983 0.930 . S
H940 C985 0.929 . S
H941 C986 0.931 . S
H942 C988 0.930 . S
H943 C989 0.929 . S
O944 H918 0.856 . S
O944 C990 1.300 . S
O945 C990 1.209 . S
O946 C991 1.199 1_655 S
O947 H919 0.854 . S
O947 C991 1.297 . S
C948 C949 1.404 . S
C948 C953 1.393 . S
C948 C954 1.492 . S
C949 C948 1.404 . S
C949 C950 1.396 . S
C949 C960 1.492 . S
C950 C949 1.396 . S
C950 C951 1.397 . S
C950 C966 1.509 . S
C951 C950 1.397 . S
C951 C952 1.423 . S
C951 C972 1.485 . S
C952 C951 1.423 . S
C952 C953 1.404 . S
C952 C978 1.491 1_455 S
C953 C948 1.393 . S
C953 C952 1.404 . S
C953 C984 1.492 1_455 S
C954 C948 1.492 . S
C954 C955 1.363 1_455 S
C954 C959 1.390 . S
C955 H920 0.930 . S
C955 C954 1.363 1_655 S
C955 C956 1.372 . S
C956 H921 0.930 . S
C956 C955 1.372 . S
C956 C957 1.383 . S
C957 C956 1.383 . S
C957 C958 1.395 1_655 S
C958 H922 0.930 . S
C958 C957 1.395 1_455 S
C958 C959 1.362 . S
C959 H923 0.930 . S
C959 C954 1.390 . S
C959 C958 1.362 . S
C960 C949 1.492 . S
C960 C961 1.377 1_455 S
C960 C965 1.397 . S
C961 H924 0.931 . S
C961 C960 1.377 1_655 S
C961 C962 1.376 1_655 S
C962 H925 0.930 1_455 S
C962 C961 1.376 1_455 S
C962 C963 1.376 . S
C963 C962 1.376 . S
C963 C964 1.378 . S
C963 C990 1.486 . S
C964 H926 0.930 . S
C964 C963 1.378 . S
C964 C965 1.376 . S
C965 H927 0.929 . S
C965 C960 1.397 . S
C965 C964 1.376 . S
C966 C950 1.509 . S
C966 C967 1.391 1_455 S
C966 C971 1.386 . S
C967 H928 0.930 . S
C967 C966 1.391 1_655 S
C967 C968 1.365 1_655 S
C968 H929 0.923 1_455 S
C968 C967 1.365 1_455 S
C968 C969 1.392 . S
C969 C968 1.392 . S
C969 C970 1.361 . S
C970 H930 0.930 . S
C970 C969 1.361 . S
C970 C971 1.399 . S
C971 H931 0.929 . S
C971 C966 1.386 . S
C971 C970 1.399 . S
C972 C951 1.485 . S
C972 C973 1.394 1_455 S
C972 C977 1.360 . S
C973 H932 0.931 . S
C973 C972 1.394 1_655 S
C973 C974 1.372 . S
C974 H933 0.930 . S
C974 C973 1.372 . S
C974 C975 1.397 1_655 S
C975 C974 1.397 1_455 S
C975 C976 1.390 . S
C975 C991 1.476 . S
C976 H934 0.930 . S
C976 C975 1.390 . S
C976 C977 1.366 . S
C977 H935 0.932 . S
C977 C972 1.360 . S
C977 C976 1.366 . S
C978 C952 1.491 1_655 S
C978 C979 1.380 . S
C978 C983 1.386 1_655 S
C979 H936 0.930 . S
C979 C978 1.380 . S
C979 C980 1.381 . S
C980 H937 0.929 . S
C980 C979 1.381 . S
C980 C981 1.371 . S
C981 C980 1.371 . S
C981 C982 1.380 1_655 S
C982 H938 0.931 . S
C982 C981 1.380 1_455 S
C982 C983 1.387 . S
C983 H939 0.930 . S
C983 C978 1.386 1_455 S
C983 C982 1.387 . S
C984 C953 1.492 1_655 S
C984 C985 1.405 . S
C984 C989 1.342 1_655 S
C985 H940 0.929 . S
C985 C984 1.405 . S
C985 C986 1.386 . S
C986 H941 0.931 . S
C986 C985 1.386 . S
C986 C987 1.369 . S
C987 C986 1.369 . S
C987 C988 1.377 1_655 S
C988 H942 0.930 . S
C988 C987 1.377 1_455 S
C988 C989 1.396 . S
C989 H943 0.929 . S
C989 C984 1.342 1_455 S
C989 C988 1.396 . S
C990 O944 1.300 . S
C990 O945 1.209 . S
C990 C963 1.486 . S
C991 O946 1.199 1_455 S
C991 O947 1.297 . S
C991 C975 1.476 . S
H992 O1018 0.856 . S
H993 O1021 0.854 . S
H994 C1029 0.930 . S
H995 C1030 0.930 . S
H996 C1032 0.930 . S
H997 C1033 0.930 . S
H998 C1035 0.931 . S
H999 C1036 0.930 . S
H1000 C1038 0.930 . S
H1001 C1039 0.929 . S
H1002 C1041 0.930 . S
H1003 C1042 0.931 . S
H1004 C1044 0.930 . S
H1005 C1045 0.929 . S
H1006 C1047 0.931 . S
H1007 C1048 0.930 . S
H1008 C1050 0.930 . S
H1009 C1051 0.932 . S
H1010 C1053 0.930 . S
H1011 C1054 0.929 . S
H1012 C1056 0.931 . S
H1013 C1057 0.930 . S
H1014 C1059 0.929 . S
H1015 C1060 0.931 . S
H1016 C1062 0.930 . S
H1017 C1063 0.929 . S
O1018 H992 0.856 . S
O1018 C1064 1.300 . S
O1019 C1064 1.209 . S
O1020 C1065 1.199 . S
O1021 H993 0.854 . S
O1021 C1065 1.297 . S
C1022 C1023 1.404 . S
C1022 C1027 1.397 . S
C1022 C1028 1.492 . S
C1023 C1022 1.404 . S
C1023 C1024 1.396 . S
C1023 C1034 1.492 . S
C1024 C1023 1.396 . S
C1024 C1025 1.397 . S
C1024 C1040 1.509 . S
C1025 C1024 1.397 . S
C1025 C1026 1.412 . S
C1025 C1046 1.485 . S
C1026 C1025 1.412 . S
C1026 C1027 1.388 . S
C1026 C1052 1.490 . S
C1027 C1022 1.397 . S
C1027 C1026 1.388 . S
C1027 C1058 1.519 . S
C1028 C1022 1.492 . S
C1028 C1029 1.363 . S
C1028 C1033 1.390 . S
C1029 H994 0.930 . S
C1029 C1028 1.363 . S
C1029 C1030 1.372 . S
C1030 H995 0.930 . S
C1030 C1029 1.372 . S
C1030 C1031 1.383 . S
C1031 C1030 1.383 . S
C1031 C1032 1.395 . S
C1032 H996 0.930 . S
C1032 C1031 1.395 . S
C1032 C1033 1.362 . S
C1033 H997 0.930 . S
C1033 C1028 1.390 . S
C1033 C1032 1.362 . S
C1034 C1023 1.492 . S
C1034 C1035 1.377 . S
C1034 C1039 1.397 . S
C1035 H998 0.931 . S
C1035 C1034 1.377 . S
C1035 C1036 1.376 . S
C1036 H999 0.930 . S
C1036 C1035 1.376 . S
C1036 C1037 1.376 . S
C1037 C1036 1.376 . S
C1037 C1038 1.378 . S
C1037 C1064 1.486 . S
C1038 H1000 0.930 . S
C1038 C1037 1.378 . S
C1038 C1039 1.376 . S
C1039 H1001 0.929 . S
C1039 C1034 1.397 . S
C1039 C1038 1.376 . S
C1040 C1024 1.509 . S
C1040 C1041 1.391 . S
C1040 C1045 1.386 . S
C1041 H1002 0.930 . S
C1041 C1040 1.391 . S
C1041 C1042 1.375 . S
C1042 H1003 0.931 . S
C1042 C1041 1.375 . S
C1042 C1043 1.375 . S
C1043 C1042 1.375 . S
C1043 C1044 1.361 . S
C1044 H1004 0.930 . S
C1044 C1043 1.361 . S
C1044 C1045 1.399 . S
C1045 H1005 0.929 . S
C1045 C1040 1.386 . S
C1045 C1044 1.399 . S
C1046 C1025 1.485 . S
C1046 C1047 1.394 . S
C1046 C1051 1.360 . S
C1047 H1006 0.931 . S
C1047 C1046 1.394 . S
C1047 C1048 1.372 . S
C1048 H1007 0.930 . S
C1048 C1047 1.372 . S
C1048 C1049 1.397 . S
C1049 C1048 1.397 . S
C1049 C1050 1.390 . S
C1049 C1065 1.476 . S
C1050 H1008 0.930 . S
C1050 C1049 1.390 . S
C1050 C1051 1.366 . S
C1051 H1009 0.932 . S
C1051 C1046 1.360 . S
C1051 C1050 1.366 . S
C1052 C1026 1.490 . S
C1052 C1053 1.380 . S
C1052 C1057 1.386 . S
C1053 H1010 0.930 . S
C1053 C1052 1.380 . S
C1053 C1054 1.381 . S
C1054 H1011 0.929 . S
C1054 C1053 1.381 . S
C1054 C1055 1.371 . S
C1055 C1054 1.371 . S
C1055 C1056 1.380 . S
C1056 H1012 0.931 . S
C1056 C1055 1.380 . S
C1056 C1057 1.387 . S
C1057 H1013 0.930 . S
C1057 C1052 1.386 . S
C1057 C1056 1.387 . S
C1058 C1027 1.519 . S
C1058 C1059 1.377 . S
C1058 C1063 1.361 . S
C1059 H1014 0.929 . S
C1059 C1058 1.377 . S
C1059 C1060 1.386 . S
C1060 H1015 0.931 . S
C1060 C1059 1.386 . S
C1060 C1061 1.363 . S
C1061 C1060 1.363 . S
C1061 C1062 1.385 . S
C1062 H1016 0.930 . S
C1062 C1061 1.385 . S
C1062 C1063 1.396 . S
C1063 H1017 0.929 . S
C1063 C1058 1.361 . S
C1063 C1062 1.396 . S
C1064 O1018 1.300 . S
C1064 O1019 1.209 . S
C1064 C1037 1.486 . S
C1065 O1020 1.199 . S
C1065 O1021 1.297 . S
C1065 C1049 1.476 . S
H1066 O1092 0.856 . S
H1067 O1095 0.854 . S
H1068 C1103 0.930 . S
H1069 C1104 0.930 . S
H1070 C1106 0.930 . S
H1071 C1107 0.930 . S
H1072 C1109 0.931 . S
H1073 C1110 0.904 1_545 S
H1074 C1112 0.930 . S
H1075 C1113 0.929 . S
H1076 C1115 0.930 . S
H1077 C1116 0.924 1_545 S
H1078 C1118 0.930 . S
H1079 C1119 0.929 . S
H1080 C1121 0.931 . S
H1081 C1122 0.930 . S
H1082 C1124 0.930 . S
H1083 C1125 0.932 . S
H1084 C1127 0.930 . S
H1085 C1128 0.929 . S
H1086 C1130 0.931 . S
H1087 C1131 0.930 . S
H1088 C1133 0.929 . S
H1089 C1134 0.931 . S
H1090 C1136 0.930 . S
H1091 C1137 0.929 . S
O1092 H1066 0.856 . S
O1092 C1138 1.300 . S
O1093 C1138 1.209 . S
O1094 C1139 1.199 1_545 S
O1095 H1067 0.854 . S
O1095 C1139 1.297 . S
C1096 C1097 1.404 . S
C1096 C1101 1.416 . S
C1096 C1102 1.492 . S
C1097 C1096 1.404 . S
C1097 C1098 1.396 . S
C1097 C1108 1.492 . S
C1098 C1097 1.396 . S
C1098 C1099 1.397 . S
C1098 C1114 1.509 . S
C1099 C1098 1.397 . S
C1099 C1100 1.409 . S
C1099 C1120 1.485 . S
C1100 C1099 1.409 . S
C1100 C1101 1.374 . S
C1100 C1126 1.481 1_565 S
C1101 C1096 1.416 . S
C1101 C1100 1.374 . S
C1101 C1132 1.541 1_565 S
C1102 C1096 1.492 . S
C1102 C1103 1.363 1_565 S
C1102 C1107 1.390 . S
C1103 H1068 0.930 . S
C1103 C1102 1.363 1_545 S
C1103 C1104 1.372 . S
C1104 H1069 0.930 . S
C1104 C1103 1.372 . S
C1104 C1105 1.383 . S
C1105 C1104 1.383 . S
C1105 C1106 1.395 1_545 S
C1106 H1070 0.930 . S
C1106 C1105 1.395 1_565 S
C1106 C1107 1.362 . S
C1107 H1071 0.930 . S
C1107 C1102 1.390 . S
C1107 C1106 1.362 . S
C1108 C1097 1.492 . S
C1108 C1109 1.377 1_565 S
C1108 C1113 1.397 . S
C1109 H1072 0.931 . S
C1109 C1108 1.377 1_545 S
C1109 C1110 1.361 1_545 S
C1110 H1073 0.904 1_565 S
C1110 C1109 1.361 1_565 S
C1110 C1111 1.418 . S
C1111 C1110 1.418 . S
C1111 C1112 1.378 . S
C1111 C1138 1.486 . S
C1112 H1074 0.930 . S
C1112 C1111 1.378 . S
C1112 C1113 1.376 . S
C1113 H1075 0.929 . S
C1113 C1108 1.397 . S
C1113 C1112 1.376 . S
C1114 C1098 1.509 . S
C1114 C1115 1.391 1_565 S
C1114 C1119 1.386 . S
C1115 H1076 0.930 . S
C1115 C1114 1.391 1_545 S
C1115 C1116 1.375 1_545 S
C1116 H1077 0.924 1_565 S
C1116 C1115 1.375 1_565 S
C1116 C1117 1.381 . S
C1117 C1116 1.381 . S
C1117 C1118 1.361 . S
C1118 H1078 0.930 . S
C1118 C1117 1.361 . S
C1118 C1119 1.399 . S
C1119 H1079 0.929 . S
C1119 C1114 1.386 . S
C1119 C1118 1.399 . S
C1120 C1099 1.485 . S
C1120 C1121 1.394 1_565 S
C1120 C1125 1.360 . S
C1121 H1080 0.931 . S
C1121 C1120 1.394 1_545 S
C1121 C1122 1.372 . S
C1122 H1081 0.930 . S
C1122 C1121 1.372 . S
C1122 C1123 1.397 1_545 S
C1123 C1122 1.397 1_565 S
C1123 C1124 1.390 . S
C1123 C1139 1.476 . S
C1124 H1082 0.930 . S
C1124 C1123 1.390 . S
C1124 C1125 1.366 . S
C1125 H1083 0.932 . S
C1125 C1120 1.360 . S
C1125 C1124 1.366 . S
C1126 C1100 1.481 1_545 S
C1126 C1127 1.380 . S
C1126 C1131 1.386 1_545 S
C1127 H1084 0.930 . S
C1127 C1126 1.380 . S
C1127 C1128 1.381 . S
C1128 H1085 0.929 . S
C1128 C1127 1.381 . S
C1128 C1129 1.371 . S
C1129 C1128 1.371 . S
C1129 C1130 1.380 1_545 S
C1130 H1086 0.931 . S
C1130 C1129 1.380 1_565 S
C1130 C1131 1.387 . S
C1131 H1087 0.930 . S
C1131 C1126 1.386 1_565 S
C1131 C1130 1.387 . S
C1132 C1101 1.541 1_545 S
C1132 C1133 1.387 . S
C1132 C1137 1.343 1_545 S
C1133 H1088 0.929 . S
C1133 C1132 1.387 . S
C1133 C1134 1.386 . S
C1134 H1089 0.931 . S
C1134 C1133 1.386 . S
C1134 C1135 1.364 . S
C1135 C1134 1.364 . S
C1135 C1136 1.385 1_545 S
C1136 H1090 0.930 . S
C1136 C1135 1.385 1_565 S
C1136 C1137 1.396 . S
C1137 H1091 0.929 . S
C1137 C1132 1.343 1_565 S
C1137 C1136 1.396 . S
C1138 O1092 1.300 . S
C1138 O1093 1.209 . S
C1138 C1111 1.486 . S
C1139 O1094 1.199 1_565 S
C1139 O1095 1.297 . S
C1139 C1123 1.476 . S
H1140 O1166 0.856 . S
H1141 O1169 0.854 . S
H1142 C1177 0.930 . S
H1143 C1178 0.930 . S
H1144 C1180 0.930 . S
H1145 C1181 0.930 . S
H1146 C1183 0.931 . S
H1147 C1184 0.930 . S
H1148 C1186 0.930 . S
H1149 C1187 0.929 . S
H1150 C1189 0.930 . S
H1151 C1190 0.931 . S
H1152 C1192 0.930 . S
H1153 C1193 0.929 . S
H1154 C1195 0.931 . S
H1155 C1196 0.930 . S
H1156 C1198 0.930 . S
H1157 C1199 0.932 . S
H1158 C1201 0.930 . S
H1159 C1202 0.929 . S
H1160 C1204 0.931 . S
H1161 C1205 0.930 . S
H1162 C1207 0.929 . S
H1163 C1208 0.931 . S
H1164 C1210 0.930 . S
H1165 C1211 0.929 . S
O1166 H1140 0.856 . S
O1166 C1212 1.300 . S
O1167 C1212 1.209 1_565 S
O1168 C1213 1.199 1_545 S
O1169 H1141 0.854 . S
O1169 C1213 1.297 . S
C1170 C1171 1.404 . S
C1170 C1175 1.397 1_545 S
C1170 C1176 1.492 . S
C1171 C1170 1.404 . S
C1171 C1172 1.396 . S
C1171 C1182 1.492 . S
C1172 C1171 1.396 . S
C1172 C1173 1.397 1_545 S
C1172 C1188 1.509 . S
C1173 C1172 1.397 1_565 S
C1173 C1174 1.418 . S
C1173 C1194 1.485 . S
C1174 C1173 1.418 . S
C1174 C1175 1.379 . S
C1174 C1200 1.492 . S
C1175 C1170 1.397 1_565 S
C1175 C1174 1.379 . S
C1175 C1206 1.518 . S
C1176 C1170 1.492 . S
C1176 C1177 1.363 . S
C1176 C1181 1.390 1_545 S
C1177 H1142 0.930 . S
C1177 C1176 1.363 . S
C1177 C1178 1.372 . S
C1178 H1143 0.930 . S
C1178 C1177 1.372 . S
C1178 C1179 1.383 . S
C1179 C1178 1.383 . S
C1179 C1180 1.395 1_545 S
C1180 H1144 0.930 . S
C1180 C1179 1.395 1_565 S
C1180 C1181 1.362 . S
C1181 H1145 0.930 . S
C1181 C1176 1.390 1_565 S
C1181 C1180 1.362 . S
C1182 C1171 1.492 . S
C1182 C1183 1.377 . S
C1182 C1187 1.397 1_545 S
C1183 H1146 0.931 . S
C1183 C1182 1.377 . S
C1183 C1184 1.376 . S
C1184 H1147 0.930 . S
C1184 C1183 1.376 . S
C1184 C1185 1.376 . S
C1185 C1184 1.376 . S
C1185 C1186 1.378 1_545 S
C1185 C1212 1.486 . S
C1186 H1148 0.930 . S
C1186 C1185 1.378 1_565 S
C1186 C1187 1.376 . S
C1187 H1149 0.929 . S
C1187 C1182 1.397 1_565 S
C1187 C1186 1.376 . S
C1188 C1172 1.509 . S
C1188 C1189 1.391 . S
C1188 C1193 1.386 1_545 S
C1189 H1150 0.930 . S
C1189 C1188 1.391 . S
C1189 C1190 1.375 . S
C1190 H1151 0.931 . S
C1190 C1189 1.375 . S
C1190 C1191 1.403 . S
C1191 C1190 1.403 . S
C1191 C1192 1.346 1_545 S
C1192 H1152 0.930 . S
C1192 C1191 1.346 1_565 S
C1192 C1193 1.399 . S
C1193 H1153 0.929 . S
C1193 C1188 1.386 1_565 S
C1193 C1192 1.399 . S
C1194 C1173 1.485 . S
C1194 C1195 1.394 1_565 S
C1194 C1199 1.360 . S
C1195 H1154 0.931 . S
C1195 C1194 1.394 1_545 S
C1195 C1196 1.372 . S
C1196 H1155 0.930 . S
C1196 C1195 1.372 . S
C1196 C1197 1.397 1_545 S
C1197 C1196 1.397 1_565 S
C1197 C1198 1.390 . S
C1197 C1213 1.476 . S
C1198 H1156 0.930 . S
C1198 C1197 1.390 . S
C1198 C1199 1.366 . S
C1199 H1157 0.932 . S
C1199 C1194 1.360 . S
C1199 C1198 1.366 . S
C1200 C1174 1.492 . S
C1200 C1201 1.372 1_565 S
C1200 C1205 1.396 . S
C1201 H1158 0.930 . S
C1201 C1200 1.372 1_545 S
C1201 C1202 1.381 . S
C1202 H1159 0.929 . S
C1202 C1201 1.381 . S
C1202 C1203 1.371 . S
C1203 C1202 1.371 . S
C1203 C1204 1.380 1_545 S
C1204 H1160 0.931 . S
C1204 C1203 1.380 1_565 S
C1204 C1205 1.387 . S
C1205 H1161 0.930 . S
C1205 C1200 1.396 . S
C1205 C1204 1.387 . S
C1206 C1175 1.518 . S
C1206 C1207 1.377 1_565 S
C1206 C1211 1.361 . S
C1207 H1162 0.929 . S
C1207 C1206 1.377 1_545 S
C1207 C1208 1.386 . S
C1208 H1163 0.931 . S
C1208 C1207 1.386 . S
C1208 C1209 1.363 1_545 S
C1209 C1208 1.363 1_565 S
C1209 C1210 1.385 . S
C1210 H1164 0.930 . S
C1210 C1209 1.385 . S
C1210 C1211 1.396 . S
C1211 H1165 0.929 . S
C1211 C1206 1.361 . S
C1211 C1210 1.396 . S
C1212 O1166 1.300 . S
C1212 O1167 1.209 1_545 S
C1212 C1185 1.486 . S
C1213 O1168 1.199 1_565 S
C1213 O1169 1.297 . S
C1213 C1197 1.476 . S
H1214 O1240 0.856 . S
H1215 O1243 0.854 . S
H1216 C1251 0.930 . S
H1217 C1252 0.930 . S
H1218 C1254 0.930 . S
H1219 C1255 0.930 . S
H1220 C1257 0.931 . S
H1221 C1258 0.930 . S
H1222 C1260 0.930 . S
H1223 C1261 0.929 . S
H1224 C1263 0.930 . S
H1225 C1264 0.931 . S
H1226 C1266 0.930 . S
H1227 C1267 0.929 . S
H1228 C1269 0.931 . S
H1229 C1270 0.930 . S
H1230 C1272 0.930 . S
H1231 C1273 0.932 . S
H1232 C1275 0.930 . S
H1233 C1276 0.929 . S
H1234 C1278 0.931 . S
H1235 C1279 0.930 . S
H1236 C1281 0.929 . S
H1237 C1282 0.931 . S
H1238 C1284 0.930 . S
H1239 C1285 0.929 . S
O1240 H1214 0.856 . S
O1240 C1286 1.300 . S
O1241 C1286 1.209 1_455 S
O1242 C1287 1.199 1_655 S
O1243 H1215 0.854 . S
O1243 C1287 1.297 . S
C1244 C1245 1.404 . S
C1244 C1249 1.396 1_655 S
C1244 C1250 1.492 . S
C1245 C1244 1.404 . S
C1245 C1246 1.396 . S
C1245 C1256 1.492 . S
C1246 C1245 1.396 . S
C1246 C1247 1.396 . S
C1246 C1262 1.509 . S
C1247 C1246 1.396 . S
C1247 C1248 1.393 1_655 S
C1247 C1268 1.490 1_655 S
C1248 C1247 1.393 1_455 S
C1248 C1249 1.415 . S
C1248 C1274 1.484 . S
C1249 C1244 1.396 1_455 S
C1249 C1248 1.415 . S
C1249 C1280 1.516 . S
C1250 C1244 1.492 . S
C1250 C1251 1.363 . S
C1250 C1255 1.390 1_655 S
C1251 H1216 0.930 . S
C1251 C1250 1.363 . S
C1251 C1252 1.372 . S
C1252 H1217 0.930 . S
C1252 C1251 1.372 . S
C1252 C1253 1.383 . S
C1253 C1252 1.383 . S
C1253 C1254 1.395 1_655 S
C1254 H1218 0.930 . S
C1254 C1253 1.395 1_455 S
C1254 C1255 1.362 . S
C1255 H1219 0.930 . S
C1255 C1250 1.390 1_455 S
C1255 C1254 1.362 . S
C1256 C1245 1.492 . S
C1256 C1257 1.377 . S
C1256 C1261 1.397 1_655 S
C1257 H1220 0.931 . S
C1257 C1256 1.377 . S
C1257 C1258 1.376 . S
C1258 H1221 0.930 . S
C1258 C1257 1.376 . S
C1258 C1259 1.376 . S
C1259 C1258 1.376 . S
C1259 C1260 1.378 1_655 S
C1259 C1286 1.486 . S
C1260 H1222 0.930 . S
C1260 C1259 1.378 1_455 S
C1260 C1261 1.376 . S
C1261 H1223 0.929 . S
C1261 C1256 1.397 1_455 S
C1261 C1260 1.376 . S
C1262 C1246 1.509 . S
C1262 C1263 1.391 . S
C1262 C1267 1.386 1_655 S
C1263 H1224 0.930 . S
C1263 C1262 1.391 . S
C1263 C1264 1.375 . S
C1264 H1225 0.931 . S
C1264 C1263 1.375 . S
C1264 C1265 1.375 . S
C1265 C1264 1.375 . S
C1265 C1266 1.361 1_655 S
C1266 H1226 0.930 . S
C1266 C1265 1.361 1_455 S
C1266 C1267 1.399 . S
C1267 H1227 0.929 . S
C1267 C1262 1.386 1_455 S
C1267 C1266 1.399 . S
C1268 C1247 1.490 1_455 S
C1268 C1269 1.394 1_455 S
C1268 C1273 1.360 . S
C1269 H1228 0.931 . S
C1269 C1268 1.394 1_655 S
C1269 C1270 1.372 . S
C1270 H1229 0.930 . S
C1270 C1269 1.372 . S
C1270 C1271 1.397 1_655 S
C1271 C1270 1.397 1_455 S
C1271 C1272 1.390 . S
C1271 C1287 1.476 . S
C1272 H1230 0.930 . S
C1272 C1271 1.390 . S
C1272 C1273 1.366 . S
C1273 H1231 0.932 . S
C1273 C1268 1.360 . S
C1273 C1272 1.366 . S
C1274 C1248 1.484 . S
C1274 C1275 1.380 1_455 S
C1274 C1279 1.386 . S
C1275 H1232 0.930 . S
C1275 C1274 1.380 1_655 S
C1275 C1276 1.381 . S
C1276 H1233 0.929 . S
C1276 C1275 1.381 . S
C1276 C1277 1.371 1_655 S
C1277 C1276 1.371 1_455 S
C1277 C1278 1.380 . S
C1278 H1234 0.931 . S
C1278 C1277 1.380 . S
C1278 C1279 1.387 . S
C1279 H1235 0.930 . S
C1279 C1274 1.386 . S
C1279 C1278 1.387 . S
C1280 C1249 1.516 . S
C1280 C1281 1.377 1_455 S
C1280 C1285 1.361 . S
C1281 H1236 0.929 . S
C1281 C1280 1.377 1_655 S
C1281 C1282 1.386 . S
C1282 H1237 0.931 . S
C1282 C1281 1.386 . S
C1282 C1283 1.363 1_655 S
C1283 C1282 1.363 1_455 S
C1283 C1284 1.385 . S
C1284 H1238 0.930 . S
C1284 C1283 1.385 . S
C1284 C1285 1.396 . S
C1285 H1239 0.929 . S
C1285 C1280 1.361 . S
C1285 C1284 1.396 . S
C1286 O1240 1.300 . S
C1286 O1241 1.209 1_655 S
C1286 C1259 1.486 . S
C1287 O1242 1.199 1_455 S
C1287 O1243 1.297 . S
C1287 C1271 1.476 . S
H1288 O1314 0.856 . S
H1289 O1317 0.854 . S
H1290 C1325 0.930 . S
H1291 C1326 0.930 . S
H1292 C1328 0.930 . S
H1293 C1329 0.930 . S
H1294 C1331 0.931 . S
H1295 C1332 0.930 . S
H1296 C1334 0.930 . S
H1297 C1335 0.929 . S
H1298 C1337 0.930 . S
H1299 C1338 0.931 . S
H1300 C1340 0.930 . S
H1301 C1341 0.929 . S
H1302 C1343 0.931 . S
H1303 C1344 0.930 . S
H1304 C1346 0.930 . S
H1305 C1347 0.932 . S
H1306 C1349 0.930 . S
H1307 C1350 0.929 . S
H1308 C1352 0.931 . S
H1309 C1353 0.930 . S
H1310 C1355 0.929 . S
H1311 C1356 0.931 . S
H1312 C1358 0.930 . S
H1313 C1359 0.929 . S
O1314 H1288 0.856 . S
O1314 C1360 1.300 . S
O1315 C1360 1.209 . S
O1316 C1361 1.199 . S
O1317 H1289 0.854 . S
O1317 C1361 1.297 . S
C1318 C1319 1.404 . S
C1318 C1323 1.397 . S
C1318 C1324 1.492 . S
C1319 C1318 1.404 . S
C1319 C1320 1.396 . S
C1319 C1330 1.492 . S
C1320 C1319 1.396 . S
C1320 C1321 1.397 . S
C1320 C1336 1.509 . S
C1321 C1320 1.397 . S
C1321 C1322 1.412 . S
C1321 C1342 1.485 . S
C1322 C1321 1.412 . S
C1322 C1323 1.388 . S
C1322 C1348 1.490 . S
C1323 C1318 1.397 . S
C1323 C1322 1.388 . S
C1323 C1354 1.519 . S
C1324 C1318 1.492 . S
C1324 C1325 1.363 . S
C1324 C1329 1.390 . S
C1325 H1290 0.930 . S
C1325 C1324 1.363 . S
C1325 C1326 1.372 . S
C1326 H1291 0.930 . S
C1326 C1325 1.372 . S
C1326 C1327 1.383 . S
C1327 C1326 1.383 . S
C1327 C1328 1.395 . S
C1328 H1292 0.930 . S
C1328 C1327 1.395 . S
C1328 C1329 1.362 . S
C1329 H1293 0.930 . S
C1329 C1324 1.390 . S
C1329 C1328 1.362 . S
C1330 C1319 1.492 . S
C1330 C1331 1.377 . S
C1330 C1335 1.397 . S
C1331 H1294 0.931 . S
C1331 C1330 1.377 . S
C1331 C1332 1.376 . S
C1332 H1295 0.930 . S
C1332 C1331 1.376 . S
C1332 C1333 1.376 . S
C1333 C1332 1.376 . S
C1333 C1334 1.378 . S
C1333 C1360 1.486 . S
C1334 H1296 0.930 . S
C1334 C1333 1.378 . S
C1334 C1335 1.376 . S
C1335 H1297 0.929 . S
C1335 C1330 1.397 . S
C1335 C1334 1.376 . S
C1336 C1320 1.509 . S
C1336 C1337 1.391 . S
C1336 C1341 1.386 . S
C1337 H1298 0.930 . S
C1337 C1336 1.391 . S
C1337 C1338 1.375 . S
C1338 H1299 0.931 . S
C1338 C1337 1.375 . S
C1338 C1339 1.375 . S
C1339 C1338 1.375 . S
C1339 C1340 1.361 . S
C1340 H1300 0.930 . S
C1340 C1339 1.361 . S
C1340 C1341 1.399 . S
C1341 H1301 0.929 . S
C1341 C1336 1.386 . S
C1341 C1340 1.399 . S
C1342 C1321 1.485 . S
C1342 C1343 1.394 . S
C1342 C1347 1.360 . S
C1343 H1302 0.931 . S
C1343 C1342 1.394 . S
C1343 C1344 1.372 . S
C1344 H1303 0.930 . S
C1344 C1343 1.372 . S
C1344 C1345 1.397 . S
C1345 C1344 1.397 . S
C1345 C1346 1.390 . S
C1345 C1361 1.476 . S
C1346 H1304 0.930 . S
C1346 C1345 1.390 . S
C1346 C1347 1.366 . S
C1347 H1305 0.932 . S
C1347 C1342 1.360 . S
C1347 C1346 1.366 . S
C1348 C1322 1.490 . S
C1348 C1349 1.380 . S
C1348 C1353 1.386 . S
C1349 H1306 0.930 . S
C1349 C1348 1.380 . S
C1349 C1350 1.381 . S
C1350 H1307 0.929 . S
C1350 C1349 1.381 . S
C1350 C1351 1.371 . S
C1351 C1350 1.371 . S
C1351 C1352 1.380 . S
C1352 H1308 0.931 . S
C1352 C1351 1.380 . S
C1352 C1353 1.387 . S
C1353 H1309 0.930 . S
C1353 C1348 1.386 . S
C1353 C1352 1.387 . S
C1354 C1323 1.519 . S
C1354 C1355 1.377 . S
C1354 C1359 1.361 . S
C1355 H1310 0.929 . S
C1355 C1354 1.377 . S
C1355 C1356 1.386 . S
C1356 H1311 0.931 . S
C1356 C1355 1.386 . S
C1356 C1357 1.363 . S
C1357 C1356 1.363 . S
C1357 C1358 1.385 . S
C1358 H1312 0.930 . S
C1358 C1357 1.385 . S
C1358 C1359 1.396 . S
C1359 H1313 0.929 . S
C1359 C1354 1.361 . S
C1359 C1358 1.396 . S
C1360 O1314 1.300 . S
C1360 O1315 1.209 . S
C1360 C1333 1.486 . S
C1361 O1316 1.199 . S
C1361 O1317 1.297 . S
C1361 C1345 1.476 . S
H1362 O1388 0.856 . S
H1363 O1391 0.854 . S
H1364 C1399 0.930 . S
H1365 C1400 0.930 . S
H1366 C1402 0.930 . S
H1367 C1403 0.930 . S
H1368 C1405 0.931 . S
H1369 C1406 0.930 . S
H1370 C1408 0.930 . S
H1371 C1409 0.929 . S
H1372 C1411 0.930 . S
H1373 C1412 0.931 . S
H1374 C1414 0.930 . S
H1375 C1415 0.929 . S
H1376 C1417 0.931 . S
H1377 C1418 0.930 . S
H1378 C1420 0.930 . S
H1379 C1421 0.932 . S
H1380 C1423 0.930 . S
H1381 C1424 0.929 . S
H1382 C1426 0.931 . S
H1383 C1427 0.930 . S
H1384 C1429 0.929 . S
H1385 C1430 0.931 . S
H1386 C1432 0.930 . S
H1387 C1433 0.929 . S
O1388 H1362 0.856 . S
O1388 C1434 1.300 . S
O1389 C1434 1.209 . S
O1390 C1435 1.199 . S
O1391 H1363 0.854 . S
O1391 C1435 1.297 . S
C1392 C1393 1.404 . S
C1392 C1397 1.397 . S
C1392 C1398 1.492 . S
C1393 C1392 1.404 . S
C1393 C1394 1.396 . S
C1393 C1404 1.492 . S
C1394 C1393 1.396 . S
C1394 C1395 1.397 . S
C1394 C1410 1.509 . S
C1395 C1394 1.397 . S
C1395 C1396 1.412 . S
C1395 C1416 1.485 . S
C1396 C1395 1.412 . S
C1396 C1397 1.388 . S
C1396 C1422 1.490 . S
C1397 C1392 1.397 . S
C1397 C1396 1.388 . S
C1397 C1428 1.519 . S
C1398 C1392 1.492 . S
C1398 C1399 1.363 . S
C1398 C1403 1.390 . S
C1399 H1364 0.930 . S
C1399 C1398 1.363 . S
C1399 C1400 1.372 . S
C1400 H1365 0.930 . S
C1400 C1399 1.372 . S
C1400 C1401 1.383 . S
C1401 C1400 1.383 . S
C1401 C1402 1.395 . S
C1402 H1366 0.930 . S
C1402 C1401 1.395 . S
C1402 C1403 1.362 . S
C1403 H1367 0.930 . S
C1403 C1398 1.390 . S
C1403 C1402 1.362 . S
C1404 C1393 1.492 . S
C1404 C1405 1.377 . S
C1404 C1409 1.397 . S
C1405 H1368 0.931 . S
C1405 C1404 1.377 . S
C1405 C1406 1.376 . S
C1406 H1369 0.930 . S
C1406 C1405 1.376 . S
C1406 C1407 1.376 . S
C1407 C1406 1.376 . S
C1407 C1408 1.378 . S
C1407 C1434 1.486 . S
C1408 H1370 0.930 . S
C1408 C1407 1.378 . S
C1408 C1409 1.376 . S
C1409 H1371 0.929 . S
C1409 C1404 1.397 . S
C1409 C1408 1.376 . S
C1410 C1394 1.509 . S
C1410 C1411 1.391 . S
C1410 C1415 1.386 . S
C1411 H1372 0.930 . S
C1411 C1410 1.391 . S
C1411 C1412 1.375 . S
C1412 H1373 0.931 . S
C1412 C1411 1.375 . S
C1412 C1413 1.375 . S
C1413 C1412 1.375 . S
C1413 C1414 1.361 . S
C1414 H1374 0.930 . S
C1414 C1413 1.361 . S
C1414 C1415 1.399 . S
C1415 H1375 0.929 . S
C1415 C1410 1.386 . S
C1415 C1414 1.399 . S
C1416 C1395 1.485 . S
C1416 C1417 1.394 . S
C1416 C1421 1.360 . S
C1417 H1376 0.931 . S
C1417 C1416 1.394 . S
C1417 C1418 1.372 . S
C1418 H1377 0.930 . S
C1418 C1417 1.372 . S
C1418 C1419 1.397 . S
C1419 C1418 1.397 . S
C1419 C1420 1.390 . S
C1419 C1435 1.476 . S
C1420 H1378 0.930 . S
C1420 C1419 1.390 . S
C1420 C1421 1.366 . S
C1421 H1379 0.932 . S
C1421 C1416 1.360 . S
C1421 C1420 1.366 . S
C1422 C1396 1.490 . S
C1422 C1423 1.380 . S
C1422 C1427 1.386 . S
C1423 H1380 0.930 . S
C1423 C1422 1.380 . S
C1423 C1424 1.381 . S
C1424 H1381 0.929 . S
C1424 C1423 1.381 . S
C1424 C1425 1.371 . S
C1425 C1424 1.371 . S
C1425 C1426 1.380 . S
C1426 H1382 0.931 . S
C1426 C1425 1.380 . S
C1426 C1427 1.387 . S
C1427 H1383 0.930 . S
C1427 C1422 1.386 . S
C1427 C1426 1.387 . S
C1428 C1397 1.519 . S
C1428 C1429 1.377 . S
C1428 C1433 1.361 . S
C1429 H1384 0.929 . S
C1429 C1428 1.377 . S
C1429 C1430 1.386 . S
C1430 H1385 0.931 . S
C1430 C1429 1.386 . S
C1430 C1431 1.363 . S
C1431 C1430 1.363 . S
C1431 C1432 1.385 . S
C1432 H1386 0.930 . S
C1432 C1431 1.385 . S
C1432 C1433 1.396 . S
C1433 H1387 0.929 . S
C1433 C1428 1.361 . S
C1433 C1432 1.396 . S
C1434 O1388 1.300 . S
C1434 O1389 1.209 . S
C1434 C1407 1.486 . S
C1435 O1390 1.199 . S
C1435 O1391 1.297 . S
C1435 C1419 1.476 . S
H1436 O1462 0.856 . S
H1437 O1465 0.854 . S
H1438 C1473 0.930 . S
H1439 C1474 0.930 . S
H1440 C1476 0.930 . S
H1441 C1477 0.930 . S
H1442 C1479 0.931 . S
H1443 C1480 0.930 . S
H1444 C1482 0.930 . S
H1445 C1483 0.929 . S
H1446 C1485 0.930 . S
H1447 C1486 0.931 . S
H1448 C1488 0.930 . S
H1449 C1489 0.929 . S
H1450 C1491 0.931 . S
H1451 C1492 0.930 . S
H1452 C1494 0.930 . S
H1453 C1495 0.932 . S
H1454 C1497 0.930 . S
H1455 C1498 0.929 . S
H1456 C1500 0.931 . S
H1457 C1501 0.930 . S
H1458 C1503 0.929 . S
H1459 C1504 0.931 . S
H1460 C1506 0.930 . S
H1461 C1507 0.929 . S
O1462 H1436 0.856 . S
O1462 C1508 1.300 . S
O1463 C1508 1.209 . S
O1464 C1509 1.199 . S
O1465 H1437 0.854 . S
O1465 C1509 1.297 . S
C1466 C1467 1.404 . S
C1466 C1471 1.397 . S
C1466 C1472 1.492 . S
C1467 C1466 1.404 . S
C1467 C1468 1.396 . S
C1467 C1478 1.492 . S
C1468 C1467 1.396 . S
C1468 C1469 1.397 . S
C1468 C1484 1.509 . S
C1469 C1468 1.397 . S
C1469 C1470 1.412 . S
C1469 C1490 1.485 . S
C1470 C1469 1.412 . S
C1470 C1471 1.388 . S
C1470 C1496 1.490 . S
C1471 C1466 1.397 . S
C1471 C1470 1.388 . S
C1471 C1502 1.519 . S
C1472 C1466 1.492 . S
C1472 C1473 1.363 . S
C1472 C1477 1.390 . S
C1473 H1438 0.930 . S
C1473 C1472 1.363 . S
C1473 C1474 1.372 . S
C1474 H1439 0.930 . S
C1474 C1473 1.372 . S
C1474 C1475 1.383 . S
C1475 C1474 1.383 . S
C1475 C1476 1.395 . S
C1476 H1440 0.930 . S
C1476 C1475 1.395 . S
C1476 C1477 1.362 . S
C1477 H1441 0.930 . S
C1477 C1472 1.390 . S
C1477 C1476 1.362 . S
C1478 C1467 1.492 . S
C1478 C1479 1.377 . S
C1478 C1483 1.397 . S
C1479 H1442 0.931 . S
C1479 C1478 1.377 . S
C1479 C1480 1.376 . S
C1480 H1443 0.930 . S
C1480 C1479 1.376 . S
C1480 C1481 1.376 . S
C1481 C1480 1.376 . S
C1481 C1482 1.378 . S
C1481 C1508 1.486 . S
C1482 H1444 0.930 . S
C1482 C1481 1.378 . S
C1482 C1483 1.376 . S
C1483 H1445 0.929 . S
C1483 C1478 1.397 . S
C1483 C1482 1.376 . S
C1484 C1468 1.509 . S
C1484 C1485 1.391 . S
C1484 C1489 1.386 . S
C1485 H1446 0.930 . S
C1485 C1484 1.391 . S
C1485 C1486 1.375 . S
C1486 H1447 0.931 . S
C1486 C1485 1.375 . S
C1486 C1487 1.375 . S
C1487 C1486 1.375 . S
C1487 C1488 1.361 . S
C1488 H1448 0.930 . S
C1488 C1487 1.361 . S
C1488 C1489 1.399 . S
C1489 H1449 0.929 . S
C1489 C1484 1.386 . S
C1489 C1488 1.399 . S
C1490 C1469 1.485 . S
C1490 C1491 1.394 . S
C1490 C1495 1.360 . S
C1491 H1450 0.931 . S
C1491 C1490 1.394 . S
C1491 C1492 1.372 . S
C1492 H1451 0.930 . S
C1492 C1491 1.372 . S
C1492 C1493 1.397 . S
C1493 C1492 1.397 . S
C1493 C1494 1.390 . S
C1493 C1509 1.476 . S
C1494 H1452 0.930 . S
C1494 C1493 1.390 . S
C1494 C1495 1.366 . S
C1495 H1453 0.932 . S
C1495 C1490 1.360 . S
C1495 C1494 1.366 . S
C1496 C1470 1.490 . S
C1496 C1497 1.380 . S
C1496 C1501 1.386 . S
C1497 H1454 0.930 . S
C1497 C1496 1.380 . S
C1497 C1498 1.381 . S
C1498 H1455 0.929 . S
C1498 C1497 1.381 . S
C1498 C1499 1.371 . S
C1499 C1498 1.371 . S
C1499 C1500 1.380 . S
C1500 H1456 0.931 . S
C1500 C1499 1.380 . S
C1500 C1501 1.387 . S
C1501 H1457 0.930 . S
C1501 C1496 1.386 . S
C1501 C1500 1.387 . S
C1502 C1471 1.519 . S
C1502 C1503 1.377 . S
C1502 C1507 1.361 . S
C1503 H1458 0.929 . S
C1503 C1502 1.377 . S
C1503 C1504 1.386 . S
C1504 H1459 0.931 . S
C1504 C1503 1.386 . S
C1504 C1505 1.363 . S
C1505 C1504 1.363 . S
C1505 C1506 1.385 . S
C1506 H1460 0.930 . S
C1506 C1505 1.385 . S
C1506 C1507 1.396 . S
C1507 H1461 0.929 . S
C1507 C1502 1.361 . S
C1507 C1506 1.396 . S
C1508 O1462 1.300 . S
C1508 O1463 1.209 . S
C1508 C1481 1.486 . S
C1509 O1464 1.199 . S
C1509 O1465 1.297 . S
C1509 C1493 1.476 . S
H1510 O1536 0.856 . S
H1511 O1539 0.854 . S
H1512 C1547 0.930 . S
H1513 C1548 0.930 . S
H1514 C1550 0.930 . S
H1515 C1551 0.930 . S
H1516 C1553 0.931 . S
H1517 C1554 0.930 . S
H1518 C1556 0.930 . S
H1519 C1557 0.929 . S
H1520 C1559 0.930 . S
H1521 C1560 0.931 . S
H1522 C1562 0.930 . S
H1523 C1563 0.929 . S
H1524 C1565 0.931 . S
H1525 C1566 0.930 . S
H1526 C1568 0.930 . S
H1527 C1569 0.932 . S
H1528 C1571 0.930 . S
H1529 C1572 0.929 . S
H1530 C1574 0.931 . S
H1531 C1575 0.930 . S
H1532 C1577 0.929 . S
H1533 C1578 0.931 . S
H1534 C1580 0.930 . S
H1535 C1581 0.929 . S
O1536 H1510 0.856 . S
O1536 C1582 1.300 . S
O1537 C1582 1.209 . S
O1538 C1583 1.199 . S
O1539 H1511 0.854 . S
O1539 C1583 1.297 . S
C1540 C1541 1.404 . S
C1540 C1545 1.397 . S
C1540 C1546 1.492 . S
C1541 C1540 1.404 . S
C1541 C1542 1.396 . S
C1541 C1552 1.492 . S
C1542 C1541 1.396 . S
C1542 C1543 1.397 . S
C1542 C1558 1.509 . S
C1543 C1542 1.397 . S
C1543 C1544 1.412 . S
C1543 C1564 1.485 . S
C1544 C1543 1.412 . S
C1544 C1545 1.388 . S
C1544 C1570 1.490 . S
C1545 C1540 1.397 . S
C1545 C1544 1.388 . S
C1545 C1576 1.519 . S
C1546 C1540 1.492 . S
C1546 C1547 1.363 . S
C1546 C1551 1.390 . S
C1547 H1512 0.930 . S
C1547 C1546 1.363 . S
C1547 C1548 1.372 . S
C1548 H1513 0.930 . S
C1548 C1547 1.372 . S
C1548 C1549 1.383 . S
C1549 C1548 1.383 . S
C1549 C1550 1.395 . S
C1550 H1514 0.930 . S
C1550 C1549 1.395 . S
C1550 C1551 1.362 . S
C1551 H1515 0.930 . S
C1551 C1546 1.390 . S
C1551 C1550 1.362 . S
C1552 C1541 1.492 . S
C1552 C1553 1.377 . S
C1552 C1557 1.397 . S
C1553 H1516 0.931 . S
C1553 C1552 1.377 . S
C1553 C1554 1.376 . S
C1554 H1517 0.930 . S
C1554 C1553 1.376 . S
C1554 C1555 1.376 . S
C1555 C1554 1.376 . S
C1555 C1556 1.378 . S
C1555 C1582 1.486 . S
C1556 H1518 0.930 . S
C1556 C1555 1.378 . S
C1556 C1557 1.376 . S
C1557 H1519 0.929 . S
C1557 C1552 1.397 . S
C1557 C1556 1.376 . S
C1558 C1542 1.509 . S
C1558 C1559 1.391 . S
C1558 C1563 1.386 . S
C1559 H1520 0.930 . S
C1559 C1558 1.391 . S
C1559 C1560 1.375 . S
C1560 H1521 0.931 . S
C1560 C1559 1.375 . S
C1560 C1561 1.375 . S
C1561 C1560 1.375 . S
C1561 C1562 1.361 . S
C1562 H1522 0.930 . S
C1562 C1561 1.361 . S
C1562 C1563 1.399 . S
C1563 H1523 0.929 . S
C1563 C1558 1.386 . S
C1563 C1562 1.399 . S
C1564 C1543 1.485 . S
C1564 C1565 1.394 . S
C1564 C1569 1.360 . S
C1565 H1524 0.931 . S
C1565 C1564 1.394 . S
C1565 C1566 1.372 . S
C1566 H1525 0.930 . S
C1566 C1565 1.372 . S
C1566 C1567 1.397 . S
C1567 C1566 1.397 . S
C1567 C1568 1.390 . S
C1567 C1583 1.476 . S
C1568 H1526 0.930 . S
C1568 C1567 1.390 . S
C1568 C1569 1.366 . S
C1569 H1527 0.932 . S
C1569 C1564 1.360 . S
C1569 C1568 1.366 . S
C1570 C1544 1.490 . S
C1570 C1571 1.380 . S
C1570 C1575 1.386 . S
C1571 H1528 0.930 . S
C1571 C1570 1.380 . S
C1571 C1572 1.381 . S
C1572 H1529 0.929 . S
C1572 C1571 1.381 . S
C1572 C1573 1.371 . S
C1573 C1572 1.371 . S
C1573 C1574 1.380 . S
C1574 H1530 0.931 . S
C1574 C1573 1.380 . S
C1574 C1575 1.387 . S
C1575 H1531 0.930 . S
C1575 C1570 1.386 . S
C1575 C1574 1.387 . S
C1576 C1545 1.519 . S
C1576 C1577 1.377 . S
C1576 C1581 1.361 . S
C1577 H1532 0.929 . S
C1577 C1576 1.377 . S
C1577 C1578 1.386 . S
C1578 H1533 0.931 . S
C1578 C1577 1.386 . S
C1578 C1579 1.363 . S
C1579 C1578 1.363 . S
C1579 C1580 1.385 . S
C1580 H1534 0.930 . S
C1580 C1579 1.385 . S
C1580 C1581 1.396 . S
C1581 H1535 0.929 . S
C1581 C1576 1.361 . S
C1581 C1580 1.396 . S
C1582 O1536 1.300 . S
C1582 O1537 1.209 . S
C1582 C1555 1.486 . S
C1583 O1538 1.199 . S
C1583 O1539 1.297 . S
C1583 C1567 1.476 . S
C1584 C1585 1.387 . S
C1584 H1588 0.950 . S
C1584 C1593 1.390 . S
C1585 C1584 1.387 . S
C1585 C1587 1.387 . S
H1586 C1593 0.950 . S
C1587 C1585 1.387 . S
C1587 C1589 1.390 . S
C1587 H1591 0.950 1_655 S
H1588 C1584 0.950 . S
C1589 C1587 1.390 . S
C1589 C1590 1.387 . S
C1589 H1592 0.950 . S
C1590 C1589 1.387 . S
C1590 C1593 1.387 . S
H1591 C1587 0.950 1_455 S
H1592 C1589 0.950 . S
C1593 C1584 1.390 . S
C1593 H1586 0.950 . S
C1593 C1590 1.387 . S
C1594 C1595 1.387 . S
C1594 H1598 0.950 . S
C1594 C1603 1.390 . S
C1595 C1594 1.387 . S
C1595 C1597 1.387 . S
H1596 C1603 0.950 . S
C1597 C1595 1.387 . S
C1597 C1599 1.390 . S
C1597 H1601 0.950 . S
H1598 C1594 0.950 . S
C1599 C1597 1.390 . S
C1599 C1600 1.387 . S
C1599 H1602 0.950 . S
C1600 C1599 1.387 . S
C1600 C1603 1.387 . S
H1601 C1597 0.950 . S
H1602 C1599 0.950 . S
C1603 C1594 1.390 . S
C1603 H1596 0.950 . S
C1603 C1600 1.387 . S
C1604 C1605 1.387 1_565 S
C1604 H1608 0.950 . S
C1604 C1613 1.390 . S
C1605 C1604 1.387 1_545 S
C1605 C1607 1.387 . S
H1606 C1613 0.950 . S
C1607 C1605 1.387 . S
C1607 C1609 1.390 . S
C1607 H1611 0.950 . S
H1608 C1604 0.950 . S
C1609 C1607 1.390 . S
C1609 C1610 1.387 . S
C1609 H1612 0.950 . S
C1610 C1609 1.387 . S
C1610 C1613 1.387 1_545 S
H1611 C1607 0.950 . S
H1612 C1609 0.950 . S
C1613 C1604 1.390 . S
C1613 H1606 0.950 . S
C1613 C1610 1.387 1_565 S
C1614 C1615 1.387 1_545 S
C1614 H1618 0.950 . S
C1614 C1623 1.390 . S
C1615 C1614 1.387 1_565 S
C1615 C1617 1.387 . S
H1616 C1623 0.950 . S
C1617 C1615 1.387 . S
C1617 C1619 1.390 . S
C1617 H1621 0.950 . S
H1618 C1614 0.950 . S
C1619 C1617 1.390 . S
C1619 C1620 1.387 . S
C1619 H1622 0.950 . S
C1620 C1619 1.387 . S
C1620 C1623 1.387 1_565 S
H1621 C1617 0.950 . S
H1622 C1619 0.950 . S
C1623 C1614 1.390 . S
C1623 H1616 0.950 . S
C1623 C1620 1.387 1_545 S
C1624 C1625 1.387 . S
C1624 H1628 0.950 1_455 S
C1624 C1633 1.407 . S
C1625 C1624 1.387 . S
C1625 C1627 1.387 . S
H1626 C1633 0.908 1_655 S
C1627 C1625 1.387 . S
C1627 C1629 1.390 . S
C1627 H1631 0.950 . S
H1628 C1624 0.950 1_655 S
C1629 C1627 1.390 . S
C1629 C1630 1.387 . S
C1629 H1632 0.950 . S
C1630 C1629 1.387 . S
C1630 C1633 1.413 . S
H1631 C1627 0.950 . S
H1632 C1629 0.950 . S
C1633 C1624 1.407 . S
C1633 H1626 0.908 1_455 S
C1633 C1630 1.413 . S
C1634 C1635 1.387 . S
C1634 H1638 0.950 . S
C1634 C1643 1.390 1_554 S
C1635 C1634 1.387 . S
C1635 C1637 1.387 1_554 S
H1636 C1643 0.950 . S
C1637 C1635 1.387 1_556 S
C1637 C1639 1.390 . S
C1637 H1641 0.949 1_556 S
H1638 C1634 0.950 . S
C1639 C1637 1.390 . S
C1639 C1640 1.387 . S
C1639 H1642 0.950 . S
C1640 C1639 1.387 . S
C1640 C1643 1.387 . S
H1641 C1637 0.949 1_554 S
H1642 C1639 0.950 . S
C1643 C1634 1.390 1_556 S
C1643 H1636 0.950 . S
C1643 C1640 1.387 . S
C1644 C1645 1.391 . S
C1644 H1648 0.950 . S
C1644 C1653 1.390 1_554 S
C1645 C1644 1.391 . S
C1645 C1647 1.381 1_554 S
H1646 C1653 0.950 1_554 S
C1647 C1645 1.381 1_556 S
C1647 C1649 1.390 1_455 S
C1647 H1651 0.950 1_455 S
H1648 C1644 0.950 . S
C1649 C1647 1.390 1_655 S
C1649 C1650 1.387 1_655 S
C1649 H1652 0.950 . S
C1650 C1649 1.387 1_455 S
C1650 C1653 1.387 . S
H1651 C1647 0.950 1_655 S
H1652 C1649 0.950 . S
C1653 C1644 1.390 1_556 S
C1653 H1646 0.950 1_556 S
C1653 C1650 1.387 . S
C1654 C1655 1.387 . S
C1654 H1658 0.950 . S
C1654 C1663 1.390 . S
C1655 C1654 1.387 . S
C1655 C1657 1.387 . S
H1656 C1663 0.950 . S
C1657 C1655 1.387 . S
C1657 C1659 1.390 . S
C1657 H1661 0.950 . S
H1658 C1654 0.950 . S
C1659 C1657 1.390 . S
C1659 C1660 1.387 . S
C1659 H1662 0.950 . S
C1660 C1659 1.387 . S
C1660 C1663 1.387 . S
H1661 C1657 0.950 . S
H1662 C1659 0.950 . S
C1663 C1654 1.390 . S
C1663 H1656 0.950 . S
C1663 C1660 1.387 . S
C1664 C1665 1.370 1_556 S
C1664 H1668 0.950 . S
C1664 C1673 1.390 . S
C1665 C1664 1.370 1_554 S
C1665 C1667 1.389 1_565 S
H1666 C1673 0.950 . S
C1667 C1665 1.389 1_545 S
C1667 C1669 1.390 1_554 S
C1667 H1671 0.950 . S
H1668 C1664 0.950 . S
C1669 C1667 1.390 1_556 S
C1669 C1670 1.387 . S
C1669 H1672 0.950 . S
C1670 C1669 1.387 . S
C1670 C1673 1.387 1_545 S
H1671 C1667 0.950 . S
H1672 C1669 0.950 . S
C1673 C1664 1.390 . S
C1673 H1666 0.950 . S
C1673 C1670 1.387 1_565 S
C1674 C1675 1.387 . S
C1674 H1678 0.950 1_545 S
C1674 C1683 1.390 1_545 S
C1675 C1674 1.387 . S
C1675 C1677 1.387 . S
H1676 C1683 0.950 . S
C1677 C1675 1.387 . S
C1677 C1679 1.390 . S
C1677 H1681 0.950 . S
H1678 C1674 0.950 1_565 S
C1679 C1677 1.390 . S
C1679 C1680 1.387 . S
C1679 H1682 0.950 . S
C1680 C1679 1.387 . S
C1680 C1683 1.387 1_545 S
H1681 C1677 0.950 . S
H1682 C1679 0.950 . S
C1683 C1674 1.390 1_565 S
C1683 H1676 0.950 . S
C1683 C1680 1.387 1_565 S
C1684 C1685 1.387 . S
C1684 H1688 0.950 . S
C1684 C1693 1.390 . S
C1685 C1684 1.387 . S
C1685 C1687 1.387 . S
H1686 C1693 0.950 . S
C1687 C1685 1.387 . S
C1687 C1689 1.373 1_655 S
C1687 H1691 0.950 . S
H1688 C1684 0.950 . S
C1689 C1687 1.373 1_455 S
C1689 C1690 1.402 1_455 S
C1689 H1692 0.954 . S
C1690 C1689 1.402 1_655 S
C1690 C1693 1.387 . S
H1691 C1687 0.950 . S
H1692 C1689 0.954 . S
C1693 C1684 1.390 . S
C1693 H1686 0.950 . S
C1693 C1690 1.387 . S
C1694 C1695 1.387 . S
C1694 H1698 0.950 . S
C1694 C1703 1.390 . S
C1695 C1694 1.387 . S
C1695 C1697 1.387 . S
H1696 C1703 0.950 . S
C1697 C1695 1.387 . S
C1697 C1699 1.390 . S
C1697 H1701 0.950 . S
H1698 C1694 0.950 . S
C1699 C1697 1.390 . S
C1699 C1700 1.387 . S
C1699 H1702 0.950 . S
C1700 C1699 1.387 . S
C1700 C1703 1.387 . S
H1701 C1697 0.950 . S
H1702 C1699 0.950 . S
C1703 C1694 1.390 . S
C1703 H1696 0.950 . S
C1703 C1700 1.387 . S
C1704 C1705 1.387 . S
C1704 H1708 0.950 . S
C1704 C1713 1.390 . S
C1705 C1704 1.387 . S
C1705 C1707 1.387 . S
H1706 C1713 0.950 . S
C1707 C1705 1.387 . S
C1707 C1709 1.390 . S
C1707 H1711 0.950 . S
H1708 C1704 0.950 . S
C1709 C1707 1.390 . S
C1709 C1710 1.387 . S
C1709 H1712 0.950 . S
C1710 C1709 1.387 . S
C1710 C1713 1.387 . S
H1711 C1707 0.950 . S
H1712 C1709 0.950 . S
C1713 C1704 1.390 . S
C1713 H1706 0.950 . S
C1713 C1710 1.387 . S
C1714 C1715 1.387 . S
C1714 H1718 0.950 . S
C1714 C1723 1.390 . S
C1715 C1714 1.387 . S
C1715 C1717 1.387 . S
H1716 C1723 0.950 . S
C1717 C1715 1.387 . S
C1717 C1719 1.390 . S
C1717 H1721 0.950 . S
H1718 C1714 0.950 . S
C1719 C1717 1.390 . S
C1719 C1720 1.387 . S
C1719 H1722 0.950 . S
C1720 C1719 1.387 . S
C1720 C1723 1.387 . S
H1721 C1717 0.950 . S
H1722 C1719 0.950 . S
C1723 C1714 1.390 . S
C1723 H1716 0.950 . S
C1723 C1720 1.387 . S
C1724 C1725 1.387 . S
C1724 H1728 0.950 . S
C1724 C1733 1.390 . S
C1725 C1724 1.387 . S
C1725 C1727 1.387 . S
H1726 C1733 0.950 . S
C1727 C1725 1.387 . S
C1727 C1729 1.390 . S
C1727 H1731 0.950 . S
H1728 C1724 0.950 . S
C1729 C1727 1.390 . S
C1729 C1730 1.387 . S
C1729 H1732 0.950 . S
C1730 C1729 1.387 . S
C1730 C1733 1.387 . S
H1731 C1727 0.950 . S
H1732 C1729 0.950 . S
C1733 C1724 1.390 . S
C1733 H1726 0.950 . S
C1733 C1730 1.387 . S
C1734 C1735 1.387 . S
C1734 H1738 0.950 . S
C1734 C1743 1.390 . S
C1735 C1734 1.387 . S
C1735 C1737 1.387 . S
H1736 C1743 0.950 . S
C1737 C1735 1.387 . S
C1737 C1739 1.390 . S
C1737 H1741 0.950 . S
H1738 C1734 0.950 . S
C1739 C1737 1.390 . S
C1739 C1740 1.387 . S
C1739 H1742 0.950 . S
C1740 C1739 1.387 . S
C1740 C1743 1.387 . S
H1741 C1737 0.950 . S
H1742 C1739 0.950 . S
C1743 C1734 1.390 . S
C1743 H1736 0.950 . S
C1743 C1740 1.387 . S
C1744 C1745 1.387 . S
C1744 H1748 0.950 . S
C1744 C1753 1.390 . S
C1745 C1744 1.387 . S
C1745 C1747 1.387 . S
H1746 C1753 0.950 . S
C1747 C1745 1.387 . S
C1747 C1749 1.390 . S
C1747 H1751 0.950 . S
H1748 C1744 0.950 . S
C1749 C1747 1.390 . S
C1749 C1750 1.387 . S
C1749 H1752 0.950 . S
C1750 C1749 1.387 . S
C1750 C1753 1.387 . S
H1751 C1747 0.950 . S
H1752 C1749 0.950 . S
C1753 C1744 1.390 . S
C1753 H1746 0.950 . S
C1753 C1750 1.387 . S
C1754 C1755 1.387 . S
C1754 H1758 0.950 . S
C1754 C1763 1.390 . S
C1755 C1754 1.387 . S
C1755 C1757 1.387 . S
H1756 C1763 0.950 . S
C1757 C1755 1.387 . S
C1757 C1759 1.390 . S
C1757 H1761 0.950 . S
H1758 C1754 0.950 . S
C1759 C1757 1.390 . S
C1759 C1760 1.387 . S
C1759 H1762 0.950 . S
C1760 C1759 1.387 . S
C1760 C1763 1.387 . S
H1761 C1757 0.950 . S
H1762 C1759 0.950 . S
C1763 C1754 1.390 . S
C1763 H1756 0.950 . S
C1763 C1760 1.387 . S
C1764 C1765 1.387 . S
C1764 H1768 0.950 . S
C1764 C1773 1.390 . S
C1765 C1764 1.387 . S
C1765 C1767 1.387 . S
H1766 C1773 0.950 . S
C1767 C1765 1.387 . S
C1767 C1769 1.390 . S
C1767 H1771 0.950 . S
H1768 C1764 0.950 . S
C1769 C1767 1.390 . S
C1769 C1770 1.387 . S
C1769 H1772 0.950 . S
C1770 C1769 1.387 . S
C1770 C1773 1.387 . S
H1771 C1767 0.950 . S
H1772 C1769 0.950 . S
C1773 C1764 1.390 . S
C1773 H1766 0.950 . S
C1773 C1770 1.387 . S
C1774 C1775 1.387 . S
C1774 H1778 0.950 . S
C1774 C1783 1.390 . S
C1775 C1774 1.387 . S
C1775 C1777 1.387 . S
H1776 C1783 0.950 . S
C1777 C1775 1.387 . S
C1777 C1779 1.390 . S
C1777 H1781 0.950 . S
H1778 C1774 0.950 . S
C1779 C1777 1.390 . S
C1779 C1780 1.387 . S
C1779 H1782 0.950 . S
C1780 C1779 1.387 . S
C1780 C1783 1.387 . S
H1781 C1777 0.950 . S
H1782 C1779 0.950 . S
C1783 C1774 1.390 . S
C1783 H1776 0.950 . S
C1783 C1780 1.387 . S
C1784 C1785 1.387 . S
C1784 H1788 0.950 . S
C1784 C1793 1.390 . S
C1785 C1784 1.387 . S
C1785 C1787 1.387 . S
H1786 C1793 0.950 . S
C1787 C1785 1.387 . S
C1787 C1789 1.390 . S
C1787 H1791 0.950 . S
H1788 C1784 0.950 . S
C1789 C1787 1.390 . S
C1789 C1790 1.387 . S
C1789 H1792 0.950 . S
C1790 C1789 1.387 . S
C1790 C1793 1.387 . S
H1791 C1787 0.950 . S
H1792 C1789 0.950 . S
C1793 C1784 1.390 . S
C1793 H1786 0.950 . S
C1793 C1790 1.387 . S
C1794 C1795 1.387 . S
C1794 H1798 0.950 . S
C1794 C1803 1.390 . S
C1795 C1794 1.387 . S
C1795 C1797 1.387 . S
H1796 C1803 0.950 . S
C1797 C1795 1.387 . S
C1797 C1799 1.390 . S
C1797 H1801 0.950 . S
H1798 C1794 0.950 . S
C1799 C1797 1.390 . S
C1799 C1800 1.387 . S
C1799 H1802 0.950 . S
C1800 C1799 1.387 . S
C1800 C1803 1.387 . S
H1801 C1797 0.950 . S
H1802 C1799 0.950 . S
C1803 C1794 1.390 . S
C1803 H1796 0.950 . S
C1803 C1800 1.387 . S
C1804 C1805 1.387 . S
C1804 H1808 0.950 . S
C1804 C1813 1.390 . S
C1805 C1804 1.387 . S
C1805 C1807 1.387 . S
H1806 C1813 0.950 . S
C1807 C1805 1.387 . S
C1807 C1809 1.390 . S
C1807 H1811 0.950 . S
H1808 C1804 0.950 . S
C1809 C1807 1.390 . S
C1809 C1810 1.387 . S
C1809 H1812 0.950 . S
C1810 C1809 1.387 . S
C1810 C1813 1.387 . S
H1811 C1807 0.950 . S
H1812 C1809 0.950 . S
C1813 C1804 1.390 . S
C1813 H1806 0.950 . S
C1813 C1810 1.387 . S
C1814 C1815 1.387 . S
C1814 H1818 0.950 . S
C1814 C1823 1.390 . S
C1815 C1814 1.387 . S
C1815 C1817 1.387 . S
H1816 C1823 0.950 . S
C1817 C1815 1.387 . S
C1817 C1819 1.390 . S
C1817 H1821 0.950 . S
H1818 C1814 0.950 . S
C1819 C1817 1.390 . S
C1819 C1820 1.387 . S
C1819 H1822 0.950 . S
C1820 C1819 1.387 . S
C1820 C1823 1.387 . S
H1821 C1817 0.950 . S
H1822 C1819 0.950 . S
C1823 C1814 1.390 . S
C1823 H1816 0.950 . S
C1823 C1820 1.387 . S
C1824 C1825 1.387 . S
C1824 H1828 0.950 . S
C1824 C1833 1.390 . S
C1825 C1824 1.387 . S
C1825 C1827 1.387 . S
H1826 C1833 0.950 . S
C1827 C1825 1.387 . S
C1827 C1829 1.390 . S
C1827 H1831 0.950 . S
H1828 C1824 0.950 . S
C1829 C1827 1.390 . S
C1829 C1830 1.387 . S
C1829 H1832 0.950 . S
C1830 C1829 1.387 . S
C1830 C1833 1.387 . S
H1831 C1827 0.950 . S
H1832 C1829 0.950 . S
C1833 C1824 1.390 . S
C1833 H1826 0.950 . S
C1833 C1830 1.387 . S
C1834 C1835 1.387 . S
C1834 H1838 0.950 . S
C1834 C1843 1.390 . S
C1835 C1834 1.387 . S
C1835 C1837 1.387 . S
H1836 C1843 0.950 . S
C1837 C1835 1.387 . S
C1837 C1839 1.390 . S
C1837 H1841 0.950 . S
H1838 C1834 0.950 . S
C1839 C1837 1.390 . S
C1839 C1840 1.387 . S
C1839 H1842 0.950 . S
C1840 C1839 1.387 . S
C1840 C1843 1.387 . S
H1841 C1837 0.950 . S
H1842 C1839 0.950 . S
C1843 C1834 1.390 . S
C1843 H1836 0.950 . S
C1843 C1840 1.387 . S
C1844 C1845 1.387 . S
C1844 H1848 0.950 . S
C1844 C1853 1.390 . S
C1845 C1844 1.387 . S
C1845 C1847 1.387 . S
H1846 C1853 0.950 . S
C1847 C1845 1.387 . S
C1847 C1849 1.390 . S
C1847 H1851 0.950 . S
H1848 C1844 0.950 . S
C1849 C1847 1.390 . S
C1849 C1850 1.387 . S
C1849 H1852 0.950 . S
C1850 C1849 1.387 . S
C1850 C1853 1.387 . S
H1851 C1847 0.950 . S
H1852 C1849 0.950 . S
C1853 C1844 1.390 . S
C1853 H1846 0.950 . S
C1853 C1850 1.387 . S
C1854 C1855 1.387 . S
C1854 H1858 0.950 . S
C1854 C1863 1.390 . S
C1855 C1854 1.387 . S
C1855 C1857 1.387 . S
H1856 C1863 0.950 . S
C1857 C1855 1.387 . S
C1857 C1859 1.390 . S
C1857 H1861 0.950 . S
H1858 C1854 0.950 . S
C1859 C1857 1.390 . S
C1859 C1860 1.387 . S
C1859 H1862 0.950 . S
C1860 C1859 1.387 . S
C1860 C1863 1.387 . S
H1861 C1857 0.950 . S
H1862 C1859 0.950 . S
C1863 C1854 1.390 . S
C1863 H1856 0.950 . S
C1863 C1860 1.387 . S
C1864 C1865 1.387 . S
C1864 H1868 0.950 . S
C1864 C1873 1.390 . S
C1865 C1864 1.387 . S
C1865 C1867 1.387 . S
H1866 C1873 0.950 . S
C1867 C1865 1.387 . S
C1867 C1869 1.390 . S
C1867 H1871 0.950 . S
H1868 C1864 0.950 . S
C1869 C1867 1.390 . S
C1869 C1870 1.387 . S
C1869 H1872 0.950 . S
C1870 C1869 1.387 . S
C1870 C1873 1.387 . S
H1871 C1867 0.950 . S
H1872 C1869 0.950 . S
C1873 C1864 1.390 . S
C1873 H1866 0.950 . S
C1873 C1870 1.387 . S
C1874 C1875 1.387 . S
C1874 H1878 0.950 . S
C1874 C1883 1.390 . S
C1875 C1874 1.387 . S
C1875 C1877 1.387 . S
H1876 C1883 0.950 . S
C1877 C1875 1.387 . S
C1877 C1879 1.390 . S
C1877 H1881 0.950 . S
H1878 C1874 0.950 . S
C1879 C1877 1.390 . S
C1879 C1880 1.387 . S
C1879 H1882 0.950 . S
C1880 C1879 1.387 . S
C1880 C1883 1.387 . S
H1881 C1877 0.950 . S
H1882 C1879 0.950 . S
C1883 C1874 1.390 . S
C1883 H1876 0.950 . S
C1883 C1880 1.387 . S
C1884 C1885 1.387 . S
C1884 H1888 0.950 . S
C1884 C1893 1.390 . S
C1885 C1884 1.387 . S
C1885 C1887 1.387 . S
H1886 C1893 0.950 . S
C1887 C1885 1.387 . S
C1887 C1889 1.390 . S
C1887 H1891 0.950 . S
H1888 C1884 0.950 . S
C1889 C1887 1.390 . S
C1889 C1890 1.387 . S
C1889 H1892 0.950 . S
C1890 C1889 1.387 . S
C1890 C1893 1.387 . S
H1891 C1887 0.950 . S
H1892 C1889 0.950 . S
C1893 C1884 1.390 . S
C1893 H1886 0.950 . S
C1893 C1890 1.387 . S
C1894 C1895 1.387 . S
C1894 H1898 0.950 . S
C1894 C1903 1.390 . S
C1895 C1894 1.387 . S
C1895 C1897 1.387 . S
H1896 C1903 0.950 . S
C1897 C1895 1.387 . S
C1897 C1899 1.390 . S
C1897 H1901 0.950 . S
H1898 C1894 0.950 . S
C1899 C1897 1.390 . S
C1899 C1900 1.387 . S
C1899 H1902 0.950 . S
C1900 C1899 1.387 . S
C1900 C1903 1.387 . S
H1901 C1897 0.950 . S
H1902 C1899 0.950 . S
C1903 C1894 1.390 . S
C1903 H1896 0.950 . S
C1903 C1900 1.387 . S
C1904 C1905 1.387 . S
C1904 H1908 0.950 . S
C1904 C1913 1.390 . S
C1905 C1904 1.387 . S
C1905 C1907 1.387 . S
H1906 C1913 0.950 . S
C1907 C1905 1.387 . S
C1907 C1909 1.390 . S
C1907 H1911 0.950 . S
H1908 C1904 0.950 . S
C1909 C1907 1.390 . S
C1909 C1910 1.387 . S
C1909 H1912 0.950 . S
C1910 C1909 1.387 . S
C1910 C1913 1.387 . S
H1911 C1907 0.950 . S
H1912 C1909 0.950 . S
C1913 C1904 1.390 . S
C1913 H1906 0.950 . S
C1913 C1910 1.387 . S
C1914 C1915 1.387 . S
C1914 H1918 0.950 . S
C1914 C1923 1.390 . S
C1915 C1914 1.387 . S
C1915 C1917 1.387 . S
H1916 C1923 0.950 . S
C1917 C1915 1.387 . S
C1917 C1919 1.390 . S
C1917 H1921 0.950 . S
H1918 C1914 0.950 . S
C1919 C1917 1.390 . S
C1919 C1920 1.387 . S
C1919 H1922 0.950 . S
C1920 C1919 1.387 . S
C1920 C1923 1.387 . S
H1921 C1917 0.950 . S
H1922 C1919 0.950 . S
C1923 C1914 1.390 . S
C1923 H1916 0.950 . S
C1923 C1920 1.387 . S
C1924 C1925 1.387 . S
C1924 H1928 0.950 . S
C1924 C1933 1.390 . S
C1925 C1924 1.387 . S
C1925 C1927 1.387 . S
H1926 C1933 0.950 . S
C1927 C1925 1.387 . S
C1927 C1929 1.390 . S
C1927 H1931 0.950 . S
H1928 C1924 0.950 . S
C1929 C1927 1.390 . S
C1929 C1930 1.387 . S
C1929 H1932 0.950 . S
C1930 C1929 1.387 . S
C1930 C1933 1.387 . S
H1931 C1927 0.950 . S
H1932 C1929 0.950 . S
C1933 C1924 1.390 . S
C1933 H1926 0.950 . S
C1933 C1930 1.387 . S
C1934 C1935 1.387 . S
C1934 H1938 0.950 . S
C1934 C1943 1.390 . S
C1935 C1934 1.387 . S
C1935 C1937 1.387 . S
H1936 C1943 0.950 . S
C1937 C1935 1.387 . S
C1937 C1939 1.390 . S
C1937 H1941 0.950 . S
H1938 C1934 0.950 . S
C1939 C1937 1.390 . S
C1939 C1940 1.387 . S
C1939 H1942 0.950 . S
C1940 C1939 1.387 . S
C1940 C1943 1.387 . S
H1941 C1937 0.950 . S
H1942 C1939 0.950 . S
C1943 C1934 1.390 . S
C1943 H1936 0.950 . S
C1943 C1940 1.387 . S
C1944 C1945 1.387 . S
C1944 H1948 0.950 . S
C1944 C1953 1.390 . S
C1945 C1944 1.387 . S
C1945 C1947 1.387 . S
H1946 C1953 0.950 . S
C1947 C1945 1.387 . S
C1947 C1949 1.390 . S
C1947 H1951 0.950 . S
H1948 C1944 0.950 . S
C1949 C1947 1.390 . S
C1949 C1950 1.387 . S
C1949 H1952 0.950 . S
C1950 C1949 1.387 . S
C1950 C1953 1.387 . S
H1951 C1947 0.950 . S
H1952 C1949 0.950 . S
C1953 C1944 1.390 . S
C1953 H1946 0.950 . S
C1953 C1950 1.387 . S
C1954 C1955 1.387 . S
C1954 H1958 0.950 . S
C1954 C1963 1.390 . S
C1955 C1954 1.387 . S
C1955 C1957 1.387 . S
H1956 C1963 0.950 . S
C1957 C1955 1.387 . S
C1957 C1959 1.390 . S
C1957 H1961 0.950 . S
H1958 C1954 0.950 . S
C1959 C1957 1.390 . S
C1959 C1960 1.387 . S
C1959 H1962 0.950 . S
C1960 C1959 1.387 . S
C1960 C1963 1.387 . S
H1961 C1957 0.950 . S
H1962 C1959 0.950 . S
C1963 C1954 1.390 . S
C1963 H1956 0.950 . S
C1963 C1960 1.387 . S
C1964 C1965 1.387 . S
C1964 H1968 0.950 . S
C1964 C1973 1.390 . S
C1965 C1964 1.387 . S
C1965 C1967 1.387 . S
H1966 C1973 0.950 . S
C1967 C1965 1.387 . S
C1967 C1969 1.390 . S
C1967 H1971 0.950 . S
H1968 C1964 0.950 . S
C1969 C1967 1.390 . S
C1969 C1970 1.387 . S
C1969 H1972 0.950 . S
C1970 C1969 1.387 . S
C1970 C1973 1.387 . S
H1971 C1967 0.950 . S
H1972 C1969 0.950 . S
C1973 C1964 1.390 . S
C1973 H1966 0.950 . S
C1973 C1970 1.387 . S
C1974 C1975 1.387 . S
C1974 H1978 0.950 . S
C1974 C1983 1.390 . S
C1975 C1974 1.387 . S
C1975 C1977 1.387 1_554 S
H1976 C1983 0.950 . S
C1977 C1975 1.387 1_556 S
C1977 C1979 1.390 . S
C1977 H1981 0.950 . S
H1978 C1974 0.950 . S
C1979 C1977 1.390 . S
C1979 C1980 1.387 . S
C1979 H1982 0.950 . S
C1980 C1979 1.387 . S
C1980 C1983 1.387 1_556 S
H1981 C1977 0.950 . S
H1982 C1979 0.950 . S
C1983 C1974 1.390 . S
C1983 H1976 0.950 . S
C1983 C1980 1.387 1_554 S
C1984 C1985 1.387 . S
C1984 H1988 0.950 . S
C1984 C1993 1.390 . S
C1985 C1984 1.387 . S
C1985 C1987 1.387 . S
H1986 C1993 0.950 . S
C1987 C1985 1.387 . S
C1987 C1989 1.390 . S
C1987 H1991 0.950 . S
H1988 C1984 0.950 . S
C1989 C1987 1.390 . S
C1989 C1990 1.387 . S
C1989 H1992 0.950 . S
C1990 C1989 1.387 . S
C1990 C1993 1.387 . S
H1991 C1987 0.950 . S
H1992 C1989 0.950 . S
C1993 C1984 1.390 . S
C1993 H1986 0.950 . S
C1993 C1990 1.387 . S
C1994 C1995 1.387 . S
C1994 H1998 0.950 . S
C1994 C2003 1.390 . S
C1995 C1994 1.387 . S
C1995 C1997 1.387 . S
H1996 C2003 0.950 . S
C1997 C1995 1.387 . S
C1997 C1999 1.390 1_554 S
C1997 H2001 0.950 1_554 S
H1998 C1994 0.950 . S
C1999 C1997 1.390 1_556 S
C1999 C2000 1.387 1_556 S
C1999 H2002 0.950 . S
C2000 C1999 1.387 1_554 S
C2000 C2003 1.387 . S
H2001 C1997 0.950 1_556 S
H2002 C1999 0.950 . S
C2003 C1994 1.390 . S
C2003 H1996 0.950 . S
C2003 C2000 1.387 . S
C2004 C2005 1.387 1_556 S
C2004 H2008 0.950 . S
C2004 C2013 1.390 . S
C2005 C2004 1.387 1_554 S
C2005 C2007 1.387 . S
H2006 C2013 0.950 . S
C2007 C2005 1.387 . S
C2007 C2009 1.390 1_554 S
C2007 H2011 0.950 . S
H2008 C2004 0.950 . S
C2009 C2007 1.390 1_556 S
C2009 C2010 1.387 . S
C2009 H2012 0.945 1_556 S
C2010 C2009 1.387 . S
C2010 C2013 1.387 . S
H2011 C2007 0.950 . S
H2012 C2009 0.945 1_554 S
C2013 C2004 1.390 . S
C2013 H2006 0.950 . S
C2013 C2010 1.387 . S
C2014 C2015 1.387 . S
C2014 H2018 0.950 . S
C2014 C2023 1.390 . S
C2015 C2014 1.387 . S
C2015 C2017 1.387 . S
H2016 C2023 0.950 . S
C2017 C2015 1.387 . S
C2017 C2019 1.390 . S
C2017 H2021 0.950 1_556 S
H2018 C2014 0.950 . S
C2019 C2017 1.390 . S
C2019 C2020 1.387 . S
C2019 H2022 0.950 . S
C2020 C2019 1.387 . S
C2020 C2023 1.387 . S
H2021 C2017 0.950 1_554 S
H2022 C2019 0.950 . S
C2023 C2014 1.390 . S
C2023 H2016 0.950 . S
C2023 C2020 1.387 . S
C2024 C2025 1.387 . S
C2024 H2028 0.950 . S
C2024 C2033 1.390 . S
C2025 C2024 1.387 . S
C2025 C2027 1.387 . S
H2026 C2033 0.950 . S
C2027 C2025 1.387 . S
C2027 C2029 1.390 . S
C2027 H2031 0.950 . S
H2028 C2024 0.950 . S
C2029 C2027 1.390 . S
C2029 C2030 1.387 . S
C2029 H2032 0.953 . S
C2030 C2029 1.387 . S
C2030 C2033 1.387 . S
H2031 C2027 0.950 . S
H2032 C2029 0.953 . S
C2033 C2024 1.390 . S
C2033 H2026 0.950 . S
C2033 C2030 1.387 . S
C2034 C2035 1.387 . S
C2034 H2038 0.950 . S
C2034 C2043 1.390 . S
C2035 C2034 1.387 . S
C2035 C2037 1.387 . S
H2036 C2043 0.950 . S
C2037 C2035 1.387 . S
C2037 C2039 1.390 . S
C2037 H2041 0.950 . S
H2038 C2034 0.950 . S
C2039 C2037 1.390 . S
C2039 C2040 1.387 . S
C2039 H2042 0.950 . S
C2040 C2039 1.387 . S
C2040 C2043 1.387 . S
H2041 C2037 0.950 . S
H2042 C2039 0.950 . S
C2043 C2034 1.390 . S
C2043 H2036 0.950 . S
C2043 C2040 1.387 . S
C2044 C2045 1.387 . S
C2044 H2048 0.950 . S
C2044 C2053 1.390 . S
C2045 C2044 1.387 . S
C2045 C2047 1.387 . S
H2046 C2053 0.950 . S
C2047 C2045 1.387 . S
C2047 C2049 1.390 . S
C2047 H2051 0.950 . S
H2048 C2044 0.950 . S
C2049 C2047 1.390 . S
C2049 C2050 1.387 . S
C2049 H2052 0.950 . S
C2050 C2049 1.387 . S
C2050 C2053 1.387 . S
H2051 C2047 0.950 . S
H2052 C2049 0.950 . S
C2053 C2044 1.390 . S
C2053 H2046 0.950 . S
C2053 C2050 1.387 . S
C2054 C2055 1.387 . S
C2054 H2058 0.950 . S
C2054 C2063 1.390 . S
C2055 C2054 1.387 . S
C2055 C2057 1.387 . S
H2056 C2063 0.950 . S
C2057 C2055 1.387 . S
C2057 C2059 1.390 . S
C2057 H2061 0.950 . S
H2058 C2054 0.950 . S
C2059 C2057 1.390 . S
C2059 C2060 1.387 . S
C2059 H2062 0.950 . S
C2060 C2059 1.387 . S
C2060 C2063 1.387 . S
H2061 C2057 0.950 . S
H2062 C2059 0.950 . S
C2063 C2054 1.390 . S
C2063 H2056 0.950 . S
C2063 C2060 1.387 . S
C2064 C2065 1.387 . S
C2064 H2068 0.950 . S
C2064 C2073 1.390 . S
C2065 C2064 1.387 . S
C2065 C2067 1.387 . S
H2066 C2073 0.950 . S
C2067 C2065 1.387 . S
C2067 C2069 1.390 . S
C2067 H2071 0.950 . S
H2068 C2064 0.950 . S
C2069 C2067 1.390 . S
C2069 C2070 1.387 . S
C2069 H2072 0.950 . S
C2070 C2069 1.387 . S
C2070 C2073 1.387 . S
H2071 C2067 0.950 . S
H2072 C2069 0.950 . S
C2073 C2064 1.390 . S
C2073 H2066 0.950 . S
C2073 C2070 1.387 . S
C2074 C2075 1.387 . S
C2074 H2078 0.950 . S
C2074 C2083 1.390 . S
C2075 C2074 1.387 . S
C2075 C2077 1.387 . S
H2076 C2083 0.950 . S
C2077 C2075 1.387 . S
C2077 C2079 1.390 . S
C2077 H2081 0.950 . S
H2078 C2074 0.950 . S
C2079 C2077 1.390 . S
C2079 C2080 1.387 . S
C2079 H2082 0.950 . S
C2080 C2079 1.387 . S
C2080 C2083 1.387 . S
H2081 C2077 0.950 . S
H2082 C2079 0.950 . S
C2083 C2074 1.390 . S
C2083 H2076 0.950 . S
C2083 C2080 1.387 . S
C2084 C2085 1.387 . S
C2084 H2088 0.950 . S
C2084 C2093 1.390 . S
C2085 C2084 1.387 . S
C2085 C2087 1.387 . S
H2086 C2093 0.950 . S
C2087 C2085 1.387 . S
C2087 C2089 1.390 . S
C2087 H2091 0.950 . S
H2088 C2084 0.950 . S
C2089 C2087 1.390 . S
C2089 C2090 1.387 . S
C2089 H2092 0.950 . S
C2090 C2089 1.387 . S
C2090 C2093 1.387 . S
H2091 C2087 0.950 . S
H2092 C2089 0.950 . S
C2093 C2084 1.390 . S
C2093 H2086 0.950 . S
C2093 C2090 1.387 . S
C2094 C2095 1.387 . S
C2094 H2098 0.950 . S
C2094 C2103 1.390 . S
C2095 C2094 1.387 . S
C2095 C2097 1.387 . S
H2096 C2103 0.950 . S
C2097 C2095 1.387 . S
C2097 C2099 1.390 . S
C2097 H2101 0.950 . S
H2098 C2094 0.950 . S
C2099 C2097 1.390 . S
C2099 C2100 1.387 . S
C2099 H2102 0.950 . S
C2100 C2099 1.387 . S
C2100 C2103 1.387 . S
H2101 C2097 0.950 . S
H2102 C2099 0.950 . S
C2103 C2094 1.390 . S
C2103 H2096 0.950 . S
C2103 C2100 1.387 . S
C2104 C2105 1.387 . S
C2104 H2108 0.950 . S
C2104 C2113 1.390 . S
C2105 C2104 1.387 . S
C2105 C2107 1.387 . S
H2106 C2113 0.950 . S
C2107 C2105 1.387 . S
C2107 C2109 1.390 . S
C2107 H2111 0.950 . S
H2108 C2104 0.950 . S
C2109 C2107 1.390 . S
C2109 C2110 1.387 . S
C2109 H2112 0.950 . S
C2110 C2109 1.387 . S
C2110 C2113 1.387 . S
H2111 C2107 0.950 . S
H2112 C2109 0.950 . S
C2113 C2104 1.390 . S
C2113 H2106 0.950 . S
C2113 C2110 1.387 . S
C2114 C2115 1.387 . S
C2114 H2118 0.898 1_565 S
C2114 C2123 1.390 . S
C2115 C2114 1.387 . S
C2115 C2117 1.387 . S
H2116 C2123 0.950 1_545 S
C2117 C2115 1.387 . S
C2117 C2119 1.390 . S
C2117 H2121 0.950 . S
H2118 C2114 0.898 1_545 S
C2119 C2117 1.390 . S
C2119 C2120 1.387 . S
C2119 H2122 0.950 . S
C2120 C2119 1.387 . S
C2120 C2123 1.387 . S
H2121 C2117 0.950 . S
H2122 C2119 0.950 . S
C2123 C2114 1.390 . S
C2123 H2116 0.950 1_565 S
C2123 C2120 1.387 . S
C2124 C2125 1.387 . S
C2124 H2128 0.950 1_565 S
C2124 C2133 1.390 1_565 S
C2125 C2124 1.387 . S
C2125 C2127 1.387 . S
H2126 C2133 0.950 . S
C2127 C2125 1.387 . S
C2127 C2129 1.390 . S
C2127 H2131 0.950 . S
H2128 C2124 0.950 1_545 S
C2129 C2127 1.390 . S
C2129 C2130 1.387 . S
C2129 H2132 0.950 . S
C2130 C2129 1.387 . S
C2130 C2133 1.387 1_565 S
H2131 C2127 0.950 . S
H2132 C2129 0.950 . S
C2133 C2124 1.390 1_545 S
C2133 H2126 0.950 . S
C2133 C2130 1.387 1_545 S
C2134 C2135 1.387 . S
C2134 H2138 0.950 . S
C2134 C2143 1.390 . S
C2135 C2134 1.387 . S
C2135 C2137 1.387 . S
H2136 C2143 0.950 . S
C2137 C2135 1.387 . S
C2137 C2139 1.390 1_455 S
C2137 H2141 0.907 1_455 S
H2138 C2134 0.950 . S
C2139 C2137 1.390 1_655 S
C2139 C2140 1.387 1_655 S
C2139 H2142 0.950 . S
C2140 C2139 1.387 1_455 S
C2140 C2143 1.387 . S
H2141 C2137 0.907 1_655 S
H2142 C2139 0.950 . S
C2143 C2134 1.390 . S
C2143 H2136 0.950 . S
C2143 C2140 1.387 . S
C2144 C2145 1.387 . S
C2144 H2148 0.950 . S
C2144 C2153 1.390 . S
C2145 C2144 1.387 . S
C2145 C2147 1.387 . S
H2146 C2153 0.950 . S
C2147 C2145 1.387 . S
C2147 C2149 1.390 . S
C2147 H2151 0.950 . S
H2148 C2144 0.950 . S
C2149 C2147 1.390 . S
C2149 C2150 1.387 . S
C2149 H2152 0.950 . S
C2150 C2149 1.387 . S
C2150 C2153 1.387 . S
H2151 C2147 0.950 . S
H2152 C2149 0.950 . S
C2153 C2144 1.390 . S
C2153 H2146 0.950 . S
C2153 C2150 1.387 . S
C2154 C2155 1.387 . S
C2154 H2158 0.950 . S
C2154 C2163 1.390 . S
C2155 C2154 1.387 . S
C2155 C2157 1.387 . S
H2156 C2163 0.950 . S
C2157 C2155 1.387 . S
C2157 C2159 1.390 . S
C2157 H2161 0.950 . S
H2158 C2154 0.950 . S
C2159 C2157 1.390 . S
C2159 C2160 1.387 . S
C2159 H2162 0.950 . S
C2160 C2159 1.387 . S
C2160 C2163 1.387 . S
H2161 C2157 0.950 . S
H2162 C2159 0.950 . S
C2163 C2154 1.390 . S
C2163 H2156 0.950 . S
C2163 C2160 1.387 . S
C2164 C2165 1.387 . S
C2164 H2168 0.950 . S
C2164 C2173 1.390 . S
C2165 C2164 1.387 . S
C2165 C2167 1.387 . S
H2166 C2173 0.950 . S
C2167 C2165 1.387 . S
C2167 C2169 1.390 . S
C2167 H2171 0.950 . S
H2168 C2164 0.950 . S
C2169 C2167 1.390 . S
C2169 C2170 1.387 . S
C2169 H2172 0.950 . S
C2170 C2169 1.387 . S
C2170 C2173 1.387 . S
H2171 C2167 0.950 . S
H2172 C2169 0.950 . S
C2173 C2164 1.390 . S
C2173 H2166 0.950 . S
C2173 C2170 1.387 . S
C2174 C2175 1.387 . S
C2174 H2178 0.950 . S
C2174 C2183 1.390 . S
C2175 C2174 1.387 . S
C2175 C2177 1.387 . S
H2176 C2183 0.950 . S
C2177 C2175 1.387 . S
C2177 C2179 1.390 . S
C2177 H2181 0.950 . S
H2178 C2174 0.950 . S
C2179 C2177 1.390 . S
C2179 C2180 1.387 . S
C2179 H2182 0.950 . S
C2180 C2179 1.387 . S
C2180 C2183 1.387 . S
H2181 C2177 0.950 . S
H2182 C2179 0.950 . S
C2183 C2174 1.390 . S
C2183 H2176 0.950 . S
C2183 C2180 1.387 . S
C2184 C2185 1.387 . S
C2184 H2188 0.950 . S
C2184 C2193 1.390 . S
C2185 C2184 1.387 . S
C2185 C2187 1.387 . S
H2186 C2193 0.950 . S
C2187 C2185 1.387 . S
C2187 C2189 1.390 . S
C2187 H2191 0.950 1_545 S
H2188 C2184 0.950 . S
C2189 C2187 1.390 . S
C2189 C2190 1.387 . S
C2189 H2192 0.950 1_545 S
C2190 C2189 1.387 . S
C2190 C2193 1.387 . S
H2191 C2187 0.950 1_565 S
H2192 C2189 0.950 1_565 S
C2193 C2184 1.390 . S
C2193 H2186 0.950 . S
C2193 C2190 1.387 . S
C2194 C2195 1.387 . S
C2194 H2198 0.950 1_655 S
C2194 C2203 1.390 . S
C2195 C2194 1.387 . S
C2195 C2197 1.387 . S
H2196 C2203 0.950 1_455 S
C2197 C2195 1.387 . S
C2197 C2199 1.390 . S
C2197 H2201 0.950 . S
H2198 C2194 0.950 1_455 S
C2199 C2197 1.390 . S
C2199 C2200 1.387 . S
C2199 H2202 0.950 . S
C2200 C2199 1.387 . S
C2200 C2203 1.387 . S
H2201 C2197 0.950 . S
H2202 C2199 0.950 . S
C2203 C2194 1.390 . S
C2203 H2196 0.950 1_655 S
C2203 C2200 1.387 . S
C2204 C2205 1.387 . S
C2204 H2208 0.950 . S
C2204 C2213 1.390 . S
C2205 C2204 1.387 . S
C2205 C2207 1.387 . S
H2206 C2213 0.950 . S
C2207 C2205 1.387 . S
C2207 C2209 1.390 . S
C2207 H2211 0.950 . S
H2208 C2204 0.950 . S
C2209 C2207 1.390 . S
C2209 C2210 1.387 . S
C2209 H2212 0.950 . S
C2210 C2209 1.387 . S
C2210 C2213 1.387 . S
H2211 C2207 0.950 . S
H2212 C2209 0.950 . S
C2213 C2204 1.390 . S
C2213 H2206 0.950 . S
C2213 C2210 1.387 . S
C2214 C2215 1.387 . S
C2214 H2218 0.950 . S
C2214 C2223 1.390 . S
C2215 C2214 1.387 . S
C2215 C2217 1.387 . S
H2216 C2223 0.950 . S
C2217 C2215 1.387 . S
C2217 C2219 1.390 . S
C2217 H2221 0.950 . S
H2218 C2214 0.950 . S
C2219 C2217 1.390 . S
C2219 C2220 1.387 . S
C2219 H2222 0.950 . S
C2220 C2219 1.387 . S
C2220 C2223 1.387 . S
H2221 C2217 0.950 . S
H2222 C2219 0.950 . S
C2223 C2214 1.390 . S
C2223 H2216 0.950 . S
C2223 C2220 1.387 . S
C2224 C2225 1.387 . S
C2224 H2228 0.950 . S
C2224 C2233 1.390 . S
C2225 C2224 1.387 . S
C2225 C2227 1.387 . S
H2226 C2233 0.950 . S
C2227 C2225 1.387 . S
C2227 C2229 1.390 . S
C2227 H2231 0.950 . S
H2228 C2224 0.950 . S
C2229 C2227 1.390 . S
C2229 C2230 1.387 . S
C2229 H2232 0.950 . S
C2230 C2229 1.387 . S
C2230 C2233 1.387 . S
H2231 C2227 0.950 . S
H2232 C2229 0.950 . S
C2233 C2224 1.390 . S
C2233 H2226 0.950 . S
C2233 C2230 1.387 . S
C2234 C2235 1.387 . S
C2234 H2238 0.950 . S
C2234 C2243 1.390 . S
C2235 C2234 1.387 . S
C2235 C2237 1.387 . S
H2236 C2243 0.950 . S
C2237 C2235 1.387 . S
C2237 C2239 1.390 . S
C2237 H2241 0.950 . S
H2238 C2234 0.950 . S
C2239 C2237 1.390 . S
C2239 C2240 1.387 . S
C2239 H2242 0.950 . S
C2240 C2239 1.387 . S
C2240 C2243 1.387 . S
H2241 C2237 0.950 . S
H2242 C2239 0.950 . S
C2243 C2234 1.390 . S
C2243 H2236 0.950 . S
C2243 C2240 1.387 . S
C2244 C2245 1.387 . S
C2244 H2248 0.950 . S
C2244 C2253 1.390 . S
C2245 C2244 1.387 . S
C2245 C2247 1.387 . S
H2246 C2253 0.950 . S
C2247 C2245 1.387 . S
C2247 C2249 1.390 . S
C2247 H2251 0.950 . S
H2248 C2244 0.950 . S
C2249 C2247 1.390 . S
C2249 C2250 1.387 . S
C2249 H2252 0.950 . S
C2250 C2249 1.387 . S
C2250 C2253 1.387 . S
H2251 C2247 0.950 . S
H2252 C2249 0.950 . S
C2253 C2244 1.390 . S
C2253 H2246 0.950 . S
C2253 C2250 1.387 . S
C2254 C2255 1.387 . S
C2254 H2258 0.950 . S
C2254 C2263 1.390 . S
C2255 C2254 1.387 . S
C2255 C2257 1.387 . S
H2256 C2263 0.950 . S
C2257 C2255 1.387 . S
C2257 C2259 1.390 . S
C2257 H2261 0.950 . S
H2258 C2254 0.950 . S
C2259 C2257 1.390 . S
C2259 C2260 1.387 . S
C2259 H2262 0.950 . S
C2260 C2259 1.387 . S
C2260 C2263 1.387 . S
H2261 C2257 0.950 . S
H2262 C2259 0.950 . S
C2263 C2254 1.390 . S
C2263 H2256 0.950 . S
C2263 C2260 1.387 . S
C2264 C2265 1.387 . S
C2264 H2268 0.950 . S
C2264 C2273 1.390 . S
C2265 C2264 1.387 . S
C2265 C2267 1.387 . S
H2266 C2273 0.950 . S
C2267 C2265 1.387 . S
C2267 C2269 1.390 . S
C2267 H2271 0.950 . S
H2268 C2264 0.950 . S
C2269 C2267 1.390 . S
C2269 C2270 1.387 . S
C2269 H2272 0.950 . S
C2270 C2269 1.387 . S
C2270 C2273 1.387 . S
H2271 C2267 0.950 . S
H2272 C2269 0.950 . S
C2273 C2264 1.390 . S
C2273 H2266 0.950 . S
C2273 C2270 1.387 . S
C2274 C2275 1.387 . S
C2274 H2278 0.950 . S
C2274 C2283 1.390 . S
C2275 C2274 1.387 . S
C2275 C2277 1.387 . S
H2276 C2283 0.950 . S
C2277 C2275 1.387 . S
C2277 C2279 1.390 . S
C2277 H2281 0.950 . S
H2278 C2274 0.950 . S
C2279 C2277 1.390 . S
C2279 C2280 1.387 . S
C2279 H2282 0.950 1_655 S
C2280 C2279 1.387 . S
C2280 C2283 1.387 . S
H2281 C2277 0.950 . S
H2282 C2279 0.950 1_455 S
C2283 C2274 1.390 . S
C2283 H2276 0.950 . S
C2283 C2280 1.387 . S
C2284 C2285 1.387 . S
C2284 H2288 0.950 . S
C2284 C2293 1.390 . S
C2285 C2284 1.387 . S
C2285 C2287 1.387 . S
H2286 C2293 0.950 . S
C2287 C2285 1.387 . S
C2287 C2289 1.390 . S
C2287 H2291 0.950 . S
H2288 C2284 0.950 . S
C2289 C2287 1.390 . S
C2289 C2290 1.387 . S
C2289 H2292 0.950 . S
C2290 C2289 1.387 . S
C2290 C2293 1.387 . S
H2291 C2287 0.950 . S
H2292 C2289 0.950 . S
C2293 C2284 1.390 . S
C2293 H2286 0.950 . S
C2293 C2290 1.387 . S
C2294 C2295 1.387 . S
C2294 H2298 0.950 . S
C2294 C2303 1.390 . S
C2295 C2294 1.387 . S
C2295 C2297 1.387 . S
H2296 C2303 0.950 1_565 S
C2297 C2295 1.387 . S
C2297 C2299 1.390 . S
C2297 H2301 0.950 . S
H2298 C2294 0.950 . S
C2299 C2297 1.390 . S
C2299 C2300 1.387 . S
C2299 H2302 0.950 . S
C2300 C2299 1.387 . S
C2300 C2303 1.387 . S
H2301 C2297 0.950 . S
H2302 C2299 0.950 . S
C2303 C2294 1.390 . S
C2303 H2296 0.950 1_545 S
C2303 C2300 1.387 . S
C1585 C4 1.320 . S
C1590 C981 1.279 . S
C1595 C26 1.634 . S
C1600 C1061 1.576 . S
C1610 C1129 1.309 . S
C1605 C32 1.334 . S
C1615 C40 1.620 . S
C1620 C1209 1.638 . S
C1625 C12 1.486 . S
C1630 C1283 1.504 . S
C1635 C18 1.578 . S
C1640 C1351 1.514 . S
C1645 C46 1.258 . S
C1650 C1277 1.232 . S
C1660 C1357 1.476 . S
C1655 C68 1.463 . S
C1670 C1203 1.341 . S
C1665 C74 1.374 . S
C1675 C82 1.642 . S
C1680 C1135 1.706 . S
C1690 C987 1.525 . S
C1685 C54 1.494 . S
C1695 C60 1.414 . S
C1700 C1055 1.407 . S
C1705 C88 1.502 . S
C1710 C1425 1.422 . S
C1715 C110 1.681 . S
C1720 C1505 1.597 . S
C1730 C1573 1.579 . S
C1725 C116 1.677 . S
C1735 C124 1.756 . S
C1740 C321 1.708 . S
C1745 C96 1.649 . S
C1750 C395 1.596 . S
C1755 C102 1.609 . S
C1760 C463 1.527 . S
C1765 C130 1.225 . S
C1770 C389 1.215 . S
C1775 C152 1.531 . S
C1780 C469 1.534 . S
C1790 C315 1.432 . S
C1785 C158 1.441 . S
C1800 C1579 1.697 . S
C1795 C166 1.683 . S
C1810 C1431 1.465 . S
C1805 C138 1.461 . S
C1820 C1499 1.447 . S
C1815 C144 1.450 . S
C1825 C172 1.447 . S
C1830 C537 1.364 . S
C1835 C194 1.716 . S
C1840 C617 1.634 . S
C1845 C200 1.674 . S
C1850 C685 1.575 . S
C1855 C208 1.806 . S
C1860 C765 1.752 . S
C1870 C839 1.583 . S
C1865 C180 1.641 . S
C1880 C907 1.574 . S
C1875 C186 1.651 . S
C1890 C833 1.319 . S
C1885 C214 1.321 . S
C1900 C913 1.503 . S
C1895 C236 1.504 . S
C1905 C242 1.404 . S
C1910 C759 1.398 . S
C1920 C691 1.623 . S
C1915 C250 1.606 . S
C1925 C222 1.505 . S
C1930 C543 1.516 . S
C1940 C611 1.418 . S
C1935 C228 1.425 . S
C1950 C291 1.958 . S
C1945 C5 1.858 . S
C1955 C25 1.497 . S
C1960 C365 1.460 . S
C1970 C451 1.610 . S
C1965 C33 1.387 . S
C1980 C525 1.269 . S
C1975 C39 1.315 . S
C1990 C587 1.566 . S
C1985 C11 1.601 1_556 S
C2000 C673 1.563 1_554 S
C1995 C19 1.338 . S
C2005 C47 2.048 . S
C2010 C661 2.106 . S
C2015 C67 1.789 . S
C2020 C513 1.620 . S
C2025 C75 1.687 . S
C2030 C599 1.884 1_554 S
C2035 C81 1.703 . S
C2040 C377 1.545 . S
C2050 C439 1.747 . S
C2045 C53 1.916 . S
C2055 C61 1.565 . S
C2060 C303 1.787 . S
C2070 C735 1.890 . S
C2065 C89 1.751 . S
C2075 C109 1.563 . S
C2080 C809 1.529 . S
C2085 C117 1.339 . S
C2090 C895 1.582 . S
C2100 C969 1.132 . S
C2095 C123 1.163 . S
C2105 C95 1.487 . S
C2110 C1031 1.459 . S
C2115 C103 1.253 . S
C2120 C1117 1.395 . S
C2125 C131 1.677 . S
C2130 C1105 1.742 1_565 S
C2135 C151 1.496 . S
C2140 C957 1.403 1_455 S
C2150 C1043 1.732 . S
C2145 C159 1.509 . S
C2155 C165 1.704 . S
C2160 C821 1.533 . S
C2165 C137 1.880 . S
C2170 C883 1.722 . S
C2180 C747 1.807 . S
C2175 C145 1.582 . S
C2190 C1179 1.723 . S
C2185 C173 1.635 . S
C2195 C193 1.247 . S
C2200 C1253 1.245 . S
C2205 C201 1.266 . S
C2210 C1339 1.492 . S
C2220 C1413 1.261 . S
C2215 C207 1.329 . S
C2230 C1475 1.573 . S
C2225 C179 1.645 . S
C2235 C187 1.367 . S
C2240 C1561 1.595 . S
C2245 C215 1.977 . S
C2250 C1549 2.055 . S
C2255 C235 1.847 . S
C2260 C1401 1.685 . S
C2270 C1487 1.795 . S
C2265 C243 1.559 . S
C2280 C1265 1.229 . S
C2275 C249 1.308 . S
C2290 C1327 1.634 . S
C2285 C221 1.776 . S
C2295 C229 1.329 . S
C2300 C1191 1.524 . S
