# Generated by pormake.
# Topology rtl, (3,6)-cn, num edge types: 1
# Building blocks:
#     Node 0, Type 0, BuildingBlock: CUQRIR_clean_linker_1, # of connection points: 3
#     Node 1, Type 0, BuildingBlock: CUQRIR_clean_linker_1, # of connection points: 3
#     Node 2, Type 0, BuildingBlock: CUQRIR_clean_linker_1, # of connection points: 3
#     Node 3, Type 0, BuildingBlock: CUQRIR_clean_linker_1, # of connection points: 3
#     Node 4, Type 1, BuildingBlock: VOLQOD_clean_sbu_1, # of connection points: 6
#     Node 5, Type 1, BuildingBlock: VOLQOD_clean_sbu_1, # of connection points: 6
#     Edge 6, Type (0, 1), BuildingBlock: MIFKUJ_clean_linker_0, # of connection points: 2
#     Edge 7, Type (0, 1), BuildingBlock: MIFKUJ_clean_linker_0, # of connection points: 2
#     Edge 8, Type (0, 1), BuildingBlock: MIFKUJ_clean_linker_0, # of connection points: 2
#     Edge 9, Type (0, 1), BuildingBlock: MIFKUJ_clean_linker_0, # of connection points: 2
#     Edge 10, Type (0, 1), BuildingBlock: MIFKUJ_clean_linker_0, # of connection points: 2
#     Edge 11, Type (0, 1), BuildingBlock: MIFKUJ_clean_linker_0, # of connection points: 2
#     Edge 12, Type (0, 1), BuildingBlock: MIFKUJ_clean_linker_0, # of connection points: 2
#     Edge 13, Type (0, 1), BuildingBlock: MIFKUJ_clean_linker_0, # of connection points: 2
#     Edge 14, Type (0, 1), BuildingBlock: MIFKUJ_clean_linker_0, # of connection points: 2
#     Edge 15, Type (0, 1), BuildingBlock: MIFKUJ_clean_linker_0, # of connection points: 2
#     Edge 16, Type (0, 1), BuildingBlock: MIFKUJ_clean_linker_0, # of connection points: 2
#     Edge 17, Type (0, 1), BuildingBlock: MIFKUJ_clean_linker_0, # of connection points: 2
# Relax obj value: 0.040
# Max RMSD: 0.143
# Mean RMSD: 0.106
data_MOF--net-rtl--node1-VOLQOD_clean_sbu_1--node2-CUQRIR_clean_linker_1--edge1-MIFKUJ_clean_linker_0
_symmetry_space_group_name_H-M    P1
_symmetry_Int_Tables_number       1
_symmetry_cell_setting            triclinic
loop_
_symmetry_equiv_pos_as_xyz
'x, y, z'
_cell_length_a     46.293191
_cell_length_b     46.788945
_cell_length_c     26.468085
_cell_angle_alpha  90.074954
_cell_angle_beta   90.437201
_cell_angle_gamma 89.865987
loop_
_atom_site_label
_atom_site_type_symbol
_atom_site_fract_x
_atom_site_fract_y
_atom_site_fract_z
_atom_type_partial_charge
C0 C 0.20403 0.7764 0.96287 0.0
N1 N 0.18603 0.79765 0.97735 0.0
N2 N 0.21794 0.76514 0.00347 0.0
C3 C 0.20639 0.76528 0.9097 0.0
C4 C 0.20765 0.78028 0.04316 0.0
N5 N 0.18816 0.79991 0.02722 0.0
C6 C 0.21841 0.77762 0.09676 0.0
H7 H 0.21218 0.74225 0.90955 0.0
H8 H 0.22351 0.77727 0.88975 0.0
H9 H 0.18576 0.76833 0.88876 0.0
H10 H 0.24131 0.77059 0.09784 0.0
H11 H 0.20519 0.76148 0.11667 0.0
H12 H 0.21639 0.79824 0.11719 0.0
C13 C 0.71398 0.72493 0.54426 0.0
N14 N 0.69433 0.70519 0.52945 0.0
N15 N 0.72419 0.73922 0.50376 0.0
C16 C 0.72362 0.72988 0.59796 0.0
C17 C 0.70995 0.72768 0.46389 0.0
N18 N 0.69156 0.70723 0.47964 0.0
C19 C 0.71497 0.73525 0.40942 0.0
H20 H 0.73143 0.75202 0.60362 0.0
H21 H 0.74168 0.71506 0.60691 0.0
H22 H 0.70573 0.72563 0.62457 0.0
H23 H 0.72349 0.71624 0.38926 0.0
H24 H 0.73029 0.75327 0.40538 0.0
H25 H 0.69419 0.74117 0.3911 0.0
C26 C 0.77978 0.20926 0.03469 0.0
N27 N 0.80121 0.19088 0.02216 0.0
N28 N 0.77216 0.22544 0.99437 0.0
C29 C 0.76802 0.21319 0.08709 0.0
C30 C 0.7898 0.21649 0.95703 0.0
N31 N 0.80756 0.19561 0.97406 0.0
C32 C 0.78854 0.22696 0.90333 0.0
H33 H 0.74988 0.19808 0.09261 0.0
H34 H 0.75977 0.23525 0.09258 0.0
H35 H 0.78485 0.20866 0.11606 0.0
H36 H 0.80481 0.24409 0.89852 0.0
H37 H 0.7669 0.2358 0.89396 0.0
H38 H 0.79373 0.20943 0.87658 0.0
C39 C 0.29448 0.2872 0.45688 0.0
N40 N 0.31345 0.30713 0.47345 0.0
N41 N 0.27977 0.27595 0.49614 0.0
C42 C 0.29202 0.27708 0.40303 0.0
C43 C 0.29054 0.28971 0.53716 0.0
N44 N 0.3112 0.30851 0.52339 0.0
C45 C 0.27907 0.28667 0.58994 0.0
H46 H 0.27526 0.28993 0.38321 0.0
H47 H 0.28561 0.25426 0.40139 0.0
H48 H 0.31277 0.27983 0.38293 0.0
H49 H 0.29163 0.26993 0.61011 0.0
H50 H 0.25601 0.28027 0.58927 0.0
H51 H 0.28127 0.30701 0.61123 0.0
O52 O 0.94207 0.9735 0.50569 0.0
Zn53 Zn 0.96327 0.01069 0.50333 0.0
O54 O 0.00496 0.00425 0.50013 0.0
Zn55 Zn 0.02331 0.02124 0.55949 0.0
Zn56 Zn 0.01312 0.96314 0.49833 0.0
Zn57 Zn 0.02033 0.02232 0.43966 0.0
O58 O 0.05481 0.04855 0.54029 0.0
O59 O 0.04921 0.05276 0.45722 0.0
O60 O 0.9523 0.03324 0.56536 0.0
O61 O 0.99466 0.04304 0.60121 0.0
O62 O 0.03992 0.99094 0.60472 0.0
O63 O 0.03476 0.95061 0.56124 0.0
O64 O 0.03591 0.9524 0.43642 0.0
O65 O 0.94884 0.03152 0.44128 0.0
O66 O 0.04062 0.99361 0.3958 0.0
O67 O 0.9887 0.03996 0.39768 0.0
C68 C 0.94974 0.9475 0.50114 0.0
C69 C 0.06163 0.0599 0.49838 0.0
C70 C 0.0432 0.96402 0.60061 0.0
C71 C 0.96726 0.04512 0.60003 0.0
C72 C 0.04507 0.96681 0.39901 0.0
C73 C 0.96143 0.04174 0.40267 0.0
O74 O 0.97617 0.94051 0.49636 0.0
O75 O 0.56767 0.47377 0.99834 0.0
Zn76 Zn 0.54636 0.51122 0.00064 0.0
O77 O 0.50456 0.50481 0.00247 0.0
Zn78 Zn 0.48662 0.5234 0.94419 0.0
Zn79 Zn 0.49599 0.46383 0.00095 0.0
Zn80 Zn 0.48887 0.52116 0.06428 0.0
O81 O 0.45714 0.55233 0.96569 0.0
O82 O 0.45694 0.54923 0.04941 0.0
O83 O 0.5578 0.53369 0.93893 0.0
O84 O 0.5159 0.54328 0.90136 0.0
O85 O 0.46651 0.49483 0.89955 0.0
O86 O 0.4722 0.45346 0.93938 0.0
O87 O 0.47505 0.45105 0.06389 0.0
O88 O 0.5601 0.53307 0.06218 0.0
O89 O 0.47294 0.49085 0.10942 0.0
O90 O 0.51963 0.54112 0.10437 0.0
C91 C 0.55954 0.44779 0.99728 0.0
C92 C 0.44723 0.55987 0.00841 0.0
C93 C 0.46244 0.46799 0.90228 0.0
C94 C 0.5433 0.54521 0.90327 0.0
C95 C 0.4683 0.46422 0.1043 0.0
C96 C 0.54684 0.54372 0.09981 0.0
O97 O 0.53288 0.44114 0.99794 0.0
H98 H 0.27847 0.22826 0.5528 0.0
H99 H 0.24099 0.19149 0.55242 0.0
H100 H 0.19559 0.23671 0.43376 0.0
H101 H 0.23221 0.27448 0.43682 0.0
H102 H 0.15866 0.21896 0.49885 0.0
H103 H 0.2367 0.17484 0.41139 0.0
H104 H 0.28678 0.15872 0.39768 0.0
H105 H 0.28187 0.10462 0.52824 0.0
H106 H 0.23188 0.12074 0.54318 0.0
H107 H 0.07109 0.09977 0.42522 0.0
H108 H 0.10846 0.13668 0.42429 0.0
H109 H 0.14116 0.10651 0.56762 0.0
H110 H 0.10355 0.06979 0.56939 0.0
H111 H 0.18402 0.11604 0.4877 0.0
H112 H 0.10457 0.1624 0.57312 0.0
H113 H 0.05398 0.17822 0.58129 0.0
H114 H 0.06144 0.22772 0.44554 0.0
H115 H 0.11199 0.21184 0.43616 0.0
C116 C 0.26029 0.23038 0.52711 0.0
C117 C 0.25809 0.25403 0.49481 0.0
C118 C 0.2391 0.20925 0.52638 0.0
C119 C 0.21572 0.21105 0.49238 0.0
C120 C 0.21349 0.23479 0.46014 0.0
C121 C 0.23447 0.25617 0.4615 0.0
C122 C 0.19335 0.18844 0.49115 0.0
C123 C 0.16424 0.1965 0.49564 0.0
C124 C 0.20059 0.15906 0.48764 0.0
C125 C 0.23062 0.1492 0.47866 0.0
C126 C 0.24637 0.15966 0.43739 0.0
C127 C 0.27473 0.1505 0.42937 0.0
C128 C 0.28752 0.13071 0.46213 0.0
C129 C 0.27194 0.11998 0.50292 0.0
C130 C 0.24358 0.12909 0.51116 0.0
C131 C 0.08625 0.10096 0.45651 0.0
C132 C 0.08437 0.08194 0.49745 0.0
C133 C 0.1075 0.12206 0.45594 0.0
C134 C 0.12738 0.12424 0.49595 0.0
C135 C 0.12591 0.10505 0.53646 0.0
C136 C 0.10438 0.08423 0.53748 0.0
C137 C 0.14966 0.14671 0.4956 0.0
C138 C 0.17864 0.13856 0.49075 0.0
C139 C 0.14229 0.17599 0.49788 0.0
C140 C 0.11196 0.18568 0.50365 0.0
C141 C 0.09534 0.17644 0.54476 0.0
C142 C 0.06669 0.18547 0.54966 0.0
C143 C 0.05447 0.2039 0.51388 0.0
C144 C 0.07092 0.21341 0.47319 0.0
C145 C 0.09957 0.20442 0.46808 0.0
H146 H 0.03229 0.21086 0.51774 0.0
H147 H 0.30948 0.12364 0.45586 0.0
H148 H 0.21988 0.71843 0.06305 0.0
H149 H 0.25844 0.68225 0.06629 0.0
H150 H 0.30316 0.72601 0.94689 0.0
H151 H 0.26541 0.76289 0.94542 0.0
H152 H 0.2957 0.66292 0.93646 0.0
H153 H 0.32832 0.73661 0.05306 0.0
H154 H 0.32236 0.76837 0.12667 0.0
H155 H 0.31138 0.69547 0.22295 0.0
H156 H 0.31678 0.66327 0.14968 0.0
H157 H 0.43256 0.59894 0.9364 0.0
H158 H 0.39259 0.63296 0.93793 0.0
H159 H 0.36771 0.60189 0.08478 0.0
H160 H 0.40853 0.56859 0.08438 0.0
H161 H 0.36239 0.65665 0.08379 0.0
H162 H 0.33101 0.58236 0.97353 0.0
H163 H 0.33381 0.54837 0.90246 0.0
H164 H 0.33824 0.61819 0.7977 0.0
H165 H 0.33587 0.65262 0.86822 0.0
C166 C 0.2381 0.72033 0.0379 0.0
C167 C 0.23983 0.74331 0.00402 0.0
C168 C 0.25992 0.69969 0.03955 0.0
C169 C 0.2835 0.7016 0.00679 0.0
C170 C 0.28497 0.72419 0.97221 0.0
C171 C 0.26344 0.74508 0.97121 0.0
C172 C 0.30701 0.68034 0.00917 0.0
C173 C 0.31052 0.66163 0.96834 0.0
C174 C 0.32551 0.67821 0.05168 0.0
C175 C 0.32262 0.69755 0.0958 0.0
C176 C 0.32436 0.72736 0.08984 0.0
C177 C 0.32113 0.74544 0.13151 0.0
C178 C 0.31641 0.73395 0.17943 0.0
C179 C 0.31499 0.70434 0.1858 0.0
C180 C 0.31815 0.68617 0.14421 0.0
C181 C 0.4186 0.59938 0.96906 0.0
C182 C 0.42354 0.58099 0.01013 0.0
C183 C 0.39566 0.61874 0.96978 0.0
C184 C 0.37672 0.61954 0.01096 0.0
C185 C 0.38195 0.60157 0.0525 0.0
C186 C 0.40526 0.58254 0.05221 0.0
C187 C 0.35155 0.63921 0.01058 0.0
C188 C 0.34759 0.65766 0.05186 0.0
C189 C 0.33223 0.6407 0.96884 0.0
C190 C 0.33351 0.62007 0.92623 0.0
C191 C 0.33278 0.59047 0.93537 0.0
C192 C 0.33426 0.57112 0.89518 0.0
C193 C 0.33627 0.58111 0.84561 0.0
C194 C 0.33671 0.61048 0.83612 0.0
C195 C 0.33527 0.62992 0.87619 0.0
H196 H 0.33742 0.5661 0.81454 0.0
H197 H 0.31392 0.74798 0.21166 0.0
H198 H 0.72266 0.79313 0.53812 0.0
H199 H 0.76229 0.828 0.53623 0.0
H200 H 0.81685 0.76537 0.46393 0.0
H201 H 0.77721 0.7305 0.46699 0.0
H202 H 0.84531 0.79289 0.53835 0.0
H203 H 0.78661 0.81866 0.39606 0.0
H204 H 0.74153 0.8315 0.35129 0.0
H205 H 0.73302 0.90652 0.44366 0.0
H206 H 0.77783 0.89389 0.48956 0.0
H207 H 0.95471 0.89205 0.4693 0.0
H208 H 0.91704 0.85552 0.46778 0.0
H209 H 0.85691 0.91552 0.53297 0.0
H210 H 0.89409 0.95236 0.53297 0.0
H211 H 0.83212 0.88796 0.45855 0.0
H212 H 0.89114 0.8605 0.60264 0.0
H213 H 0.93656 0.84677 0.64571 0.0
H214 H 0.94492 0.77419 0.54742 0.0
H215 H 0.8998 0.78769 0.50334 0.0
C216 C 0.74323 0.78704 0.5221 0.0
C217 C 0.74728 0.75948 0.50275 0.0
C218 C 0.76571 0.80683 0.52073 0.0
C219 C 0.79239 0.79931 0.49945 0.0
C220 C 0.79643 0.77157 0.48046 0.0
C221 C 0.77395 0.75179 0.48201 0.0
C222 C 0.81611 0.82037 0.49722 0.0
C223 C 0.84259 0.81356 0.52036 0.0
C224 C 0.81234 0.84742 0.4743 0.0
C225 C 0.78546 0.85518 0.44656 0.0
C226 C 0.77501 0.83778 0.4071 0.0
C227 C 0.74952 0.84504 0.38148 0.0
C228 C 0.73439 0.86978 0.3947 0.0
C229 C 0.74475 0.88735 0.4335 0.0
C230 C 0.77021 0.88016 0.45931 0.0
C231 C 0.93348 0.89741 0.48346 0.0
C232 C 0.92736 0.92507 0.5013 0.0
C233 C 0.91201 0.87648 0.48276 0.0
C234 C 0.88426 0.88268 0.50088 0.0
C235 C 0.87816 0.91027 0.51877 0.0
C236 C 0.89946 0.93129 0.51882 0.0
C237 C 0.86126 0.86071 0.50044 0.0
C238 C 0.83489 0.86731 0.4766 0.0
C239 C 0.8652 0.83343 0.52255 0.0
C240 C 0.89223 0.82526 0.54939 0.0
C241 C 0.90277 0.84172 0.59001 0.0
C242 C 0.92845 0.83397 0.61463 0.0
C243 C 0.94364 0.80967 0.5992 0.0
C244 C 0.93315 0.79302 0.55927 0.0
C245 C 0.90753 0.8007 0.53449 0.0
H246 H 0.96351 0.80366 0.61819 0.0
H247 H 0.71466 0.87537 0.37481 0.0
H248 H 0.78045 0.2804 0.96937 0.0
H249 H 0.74379 0.3185 0.96764 0.0
H250 H 0.6789 0.25777 0.01278 0.0
H251 H 0.7157 0.21975 0.01438 0.0
H252 H 0.66126 0.29414 0.9331 0.0
H253 H 0.70486 0.30003 0.09837 0.0
H254 H 0.74557 0.30383 0.15856 0.0
H255 H 0.76929 0.3846 0.09437 0.0
H256 H 0.72897 0.38105 0.03318 0.0
H257 H 0.55112 0.39022 0.00709 0.0
H258 H 0.58748 0.35243 0.00436 0.0
H259 H 0.65388 0.41531 0.9793 0.0
H260 H 0.61774 0.45335 0.98315 0.0
H261 H 0.6712 0.37774 0.04747 0.0
H262 H 0.62814 0.37277 0.88266 0.0
H263 H 0.58839 0.36918 0.82047 0.0
H264 H 0.56459 0.2875 0.88086 0.0
H265 H 0.60398 0.29077 0.94391 0.0
C266 C 0.75828 0.27536 0.97854 0.0
C267 C 0.75062 0.24746 0.9921 0.0
C268 C 0.73747 0.29699 0.97775 0.0
C269 C 0.70875 0.29089 0.99039 0.0
C270 C 0.70098 0.26283 0.00293 0.0
C271 C 0.72187 0.24127 0.00411 0.0
C272 C 0.68691 0.31394 0.99152 0.0
C273 C 0.66317 0.31229 0.95847 0.0
C274 C 0.68995 0.33784 0.02382 0.0
C275 C 0.71407 0.34013 0.06086 0.0
C276 C 0.7189 0.31849 0.0968 0.0
C277 C 0.74188 0.32061 0.13114 0.0
C278 C 0.76005 0.34441 0.13021 0.0
C279 C 0.75523 0.36616 0.095 0.0
C280 C 0.7323 0.36411 0.06049 0.0
C281 C 0.57344 0.39605 0.00087 0.0
C282 C 0.58151 0.42482 0.99521 0.0
C283 C 0.59419 0.37439 0.9991 0.0
C284 C 0.62333 0.38103 0.99093 0.0
C285 C 0.63149 0.40972 0.98557 0.0
C286 C 0.61079 0.43143 0.9877 0.0
C287 C 0.64539 0.35808 0.98893 0.0
C288 C 0.66922 0.35969 0.02191 0.0
C289 C 0.64251 0.33423 0.95629 0.0
C290 C 0.61885 0.33215 0.91833 0.0
C291 C 0.61429 0.35414 0.88295 0.0
C292 C 0.59185 0.35214 0.84749 0.0
C293 C 0.57393 0.32816 0.8468 0.0
C294 C 0.57846 0.30608 0.88149 0.0
C295 C 0.60086 0.30798 0.91706 0.0
H296 H 0.55656 0.32665 0.81932 0.0
H297 H 0.77783 0.34602 0.15684 0.0
H298 H 0.15103 0.78713 0.1006 0.0
H299 H 0.12577 0.82085 0.15606 0.0
H300 H 0.16598 0.89145 0.07912 0.0
H301 H 0.19107 0.85742 0.02319 0.0
H302 H 0.16948 0.89392 0.18731 0.0
H303 H 0.09954 0.88458 0.05738 0.0
H304 H 0.06881 0.85959 0.99518 0.0
H305 H 0.02517 0.81599 0.11501 0.0
H306 H 0.05586 0.84054 0.17805 0.0
H307 H 0.07776 0.99082 0.32463 0.0
H308 H 0.10202 0.96639 0.25491 0.0
H309 H 0.07095 0.88533 0.30924 0.0
H310 H 0.04684 0.90947 0.37935 0.0
H311 H 0.06271 0.89434 0.20331 0.0
H312 H 0.13761 0.90142 0.33179 0.0
H313 H 0.16898 0.92725 0.39205 0.0
H314 H 0.20358 0.97714 0.27074 0.0
H315 H 0.17208 0.95185 0.20982 0.0
C316 C 0.15424 0.80987 0.09565 0.0
C317 C 0.17279 0.81993 0.05816 0.0
C318 C 0.13985 0.82906 0.12699 0.0
C319 C 0.14398 0.85859 0.12145 0.0
C320 C 0.16255 0.86872 0.08384 0.0
C321 C 0.1767 0.84944 0.05199 0.0
C322 C 0.1293 0.8785 0.15627 0.0
C323 C 0.14612 0.89456 0.19015 0.0
C324 C 0.09887 0.879 0.1601 0.0
C325 C 0.08017 0.86426 0.12247 0.0
C326 C 0.08355 0.86949 0.0705 0.0
C327 C 0.06612 0.85543 0.03507 0.0
C328 C 0.04513 0.83612 0.05111 0.0
C329 C 0.04146 0.83093 0.10265 0.0
C330 C 0.05883 0.84497 0.13827 0.0
C331 C 0.07613 0.96778 0.32183 0.0
C332 C 0.06042 0.95206 0.35761 0.0
C333 C 0.09002 0.9539 0.28201 0.0
C334 C 0.08823 0.92411 0.27705 0.0
C335 C 0.07248 0.90837 0.31245 0.0
C336 C 0.05888 0.92218 0.35263 0.0
C337 C 0.10292 0.9092 0.23514 0.0
C338 C 0.08605 0.89408 0.19994 0.0
C339 C 0.1333 0.90983 0.22978 0.0
C340 C 0.15223 0.92501 0.26636 0.0
C341 C 0.1517 0.91809 0.31804 0.0
C342 C 0.16954 0.93259 0.3523 0.0
C343 C 0.18818 0.95389 0.33526 0.0
C344 C 0.18908 0.96068 0.2839 0.0
C345 C 0.17125 0.94627 0.24949 0.0
H346 H 0.20199 0.96508 0.36184 0.0
H347 H 0.03166 0.82525 0.02361 0.0
H348 H 0.63668 0.69963 0.53442 0.0
H349 H 0.60969 0.66954 0.59351 0.0
H350 H 0.69006 0.63778 0.65557 0.0
H351 H 0.71685 0.6672 0.59527 0.0
H352 H 0.65055 0.59569 0.64773 0.0
H353 H 0.65419 0.69146 0.71308 0.0
H354 H 0.64733 0.74371 0.71026 0.0
H355 H 0.55605 0.7323 0.68859 0.0
H356 H 0.56244 0.67993 0.69048 0.0
H357 H 0.60164 0.549 0.88796 0.0
H358 H 0.6264 0.57423 0.82008 0.0
H359 H 0.54432 0.60172 0.75896 0.0
H360 H 0.51934 0.57672 0.8267 0.0
H361 H 0.5835 0.64527 0.76433 0.0
H362 H 0.58025 0.54885 0.70249 0.0
H363 H 0.58787 0.49672 0.7064 0.0
H364 H 0.67925 0.50949 0.72344 0.0
H365 H 0.67213 0.56174 0.72035 0.0
C366 C 0.64839 0.68583 0.56024 0.0
C367 C 0.67866 0.68587 0.56119 0.0
C368 C 0.63308 0.66885 0.59409 0.0
C369 C 0.64791 0.65184 0.62954 0.0
C370 C 0.67821 0.65088 0.62876 0.0
C371 C 0.69347 0.66778 0.59479 0.0
C372 C 0.63196 0.63615 0.66904 0.0
C373 C 0.63609 0.60654 0.67355 0.0
C374 C 0.61276 0.65029 0.70216 0.0
C375 C 0.60884 0.68178 0.70139 0.0
C376 C 0.63268 0.70009 0.70733 0.0
C377 C 0.62888 0.72973 0.70594 0.0
C378 C 0.60128 0.74132 0.69912 0.0
C379 C 0.57742 0.72329 0.69379 0.0
C380 C 0.58112 0.69363 0.69503 0.0
C381 C 0.58883 0.56043 0.86014 0.0
C382 C 0.55849 0.56079 0.86275 0.0
C383 C 0.60302 0.57471 0.82124 0.0
C384 C 0.58715 0.58958 0.78427 0.0
C385 C 0.55693 0.59029 0.78709 0.0
C386 C 0.54271 0.57593 0.8258 0.0
C387 C 0.60209 0.60481 0.74305 0.0
C388 C 0.59782 0.63437 0.73832 0.0
C389 C 0.62126 0.59063 0.70996 0.0
C390 C 0.62562 0.55922 0.71169 0.0
C391 C 0.60194 0.54055 0.7075 0.0
C392 C 0.60618 0.51098 0.70949 0.0
C393 C 0.63402 0.4998 0.7153 0.0
C394 C 0.65769 0.51818 0.71901 0.0
C395 C 0.65357 0.54777 0.71709 0.0
H396 H 0.63725 0.4769 0.71682 0.0
H397 H 0.59837 0.76427 0.69808 0.0
H398 H 0.85867 0.1887 0.03726 0.0
H399 H 0.8848 0.15851 0.098 0.0
H400 H 0.80423 0.12074 0.14408 0.0
H401 H 0.77822 0.15063 0.08238 0.0
H402 H 0.83718 0.14039 0.22407 0.0
H403 H 0.85025 0.08292 0.07632 0.0
H404 H 0.86407 0.07309 0.9882 0.0
H405 H 0.95183 0.09588 0.02254 0.0
H406 H 0.93844 0.10652 0.1106 0.0
H407 H 0.90272 0.0403 0.38972 0.0
H408 H 0.8743 0.06179 0.32149 0.0
H409 H 0.95213 0.09555 0.25591 0.0
H410 H 0.98079 0.07344 0.32316 0.0
H411 H 0.91837 0.07498 0.18409 0.0
H412 H 0.90559 0.13769 0.32618 0.0
H413 H 0.89308 0.15038 0.41381 0.0
H414 H 0.80647 0.12046 0.38927 0.0
H415 H 0.81859 0.10725 0.30164 0.0
C416 C 0.84673 0.1735 0.05969 0.0
C417 C 0.81657 0.17184 0.05548 0.0
C418 C 0.86158 0.15635 0.09435 0.0
C419 C 0.84643 0.13732 0.12531 0.0
C420 C 0.81628 0.13532 0.12052 0.0
C421 C 0.80147 0.15235 0.08557 0.0
C422 C 0.86191 0.12081 0.16473 0.0
C423 C 0.85458 0.12565 0.21534 0.0
C424 C 0.88514 0.10228 0.15314 0.0
C425 C 0.89327 0.09574 0.10011 0.0
C426 C 0.87245 0.08611 0.06503 0.0
C427 C 0.88021 0.08036 0.01506 0.0
C428 C 0.90881 0.08385 -0.0002 0.0
C429 C 0.92968 0.09318 0.03443 0.0
C430 C 0.92201 0.09907 0.08438 0.0
C431 C 0.9138 0.05236 0.36087 0.0
C432 C 0.94402 0.0553 0.36209 0.0
C433 C 0.89751 0.06466 0.32189 0.0
C434 C 0.91104 0.08057 0.28387 0.0
C435 C 0.94122 0.08333 0.28477 0.0
C436 C 0.95756 0.07079 0.32342 0.0
C437 C 0.89378 0.09473 0.24356 0.0
C438 C 0.90079 0.0895 0.1928 0.0
C439 C 0.87045 0.11321 0.25491 0.0
C440 C 0.86309 0.1212 0.30755 0.0
C441 C 0.88394 0.13362 0.3396 0.0
C442 C 0.87691 0.14094 0.38924 0.0
C443 C 0.84902 0.13615 0.40714 0.0
C444 C 0.82808 0.12411 0.37538 0.0
C445 C 0.83501 0.11672 0.32572 0.0
H446 H 0.84362 0.14183 0.44559 0.0
H447 H 0.91483 0.07923 0.96121 0.0
H448 H 0.31745 0.36592 0.51838 0.0
H449 H 0.34396 0.3963 0.57885 0.0
H450 H 0.36848 0.32135 0.66398 0.0
H451 H 0.34264 0.29115 0.60303 0.0
H452 H 0.34406 0.3641 0.72284 0.0
H453 H 0.41684 0.35348 0.59461 0.0
H454 H 0.4362 0.35679 0.50832 0.0
H455 H 0.42212 0.44752 0.50876 0.0
H456 H 0.4022 0.44469 0.59485 0.0
H457 H 0.45069 0.41089 0.89321 0.0
H458 H 0.42471 0.38688 0.82483 0.0
H459 H 0.41189 0.46767 0.74951 0.0
H460 H 0.43823 0.49193 0.81747 0.0
H461 H 0.42755 0.42627 0.6832 0.0
H462 H 0.3569 0.43784 0.81183 0.0
H463 H 0.3369 0.43518 0.89776 0.0
H464 H 0.34527 0.34377 0.89555 0.0
H465 H 0.36572 0.34591 0.80984 0.0
C466 C 0.32892 0.35608 0.54966 0.0
C467 C 0.328 0.32636 0.55662 0.0
C468 C 0.34393 0.37334 0.5841 0.0
C469 C 0.35804 0.361 0.62592 0.0
C470 C 0.35754 0.33125 0.63216 0.0
C471 C 0.34281 0.31408 0.59759 0.0
C472 C 0.37251 0.37893 0.66452 0.0
C473 C 0.36249 0.37751 0.71431 0.0
C474 C 0.39587 0.3971 0.65283 0.0
C475 C 0.4078 0.39884 0.60104 0.0
C476 C 0.41764 0.37411 0.57617 0.0
C477 C 0.42879 0.37591 0.52735 0.0
C478 C 0.43051 0.40236 0.50317 0.0
C479 C 0.42092 0.42706 0.52766 0.0
C480 C 0.40967 0.42537 0.57646 0.0
C481 C 0.44234 0.42362 0.8622 0.0
C482 C 0.44643 0.45338 0.86104 0.0
C483 C 0.42743 0.40985 0.82316 0.0
C484 C 0.4161 0.42555 0.78237 0.0
C485 C 0.42044 0.45518 0.78067 0.0
C486 C 0.43539 0.46899 0.8197 0.0
C487 C 0.39952 0.4109 0.74185 0.0
C488 C 0.409 0.41304 0.69169 0.0
C489 C 0.37547 0.39348 0.75305 0.0
C490 C 0.36307 0.39206 0.80456 0.0
C491 C 0.35468 0.41718 0.82981 0.0
C492 C 0.34323 0.41577 0.87846 0.0
C493 C 0.33988 0.38932 0.90215 0.0
C494 C 0.3479 0.36424 0.87717 0.0
C495 C 0.3594 0.36554 0.82853 0.0
H496 H 0.331 0.38827 0.93981 0.0
H497 H 0.4391 0.4037 0.46533 0.0
H498 H 0.70081 0.65109 0.46704 0.0
H499 H 0.67728 0.61994 0.40415 0.0
H500 H 0.62215 0.69006 0.35872 0.0
H501 H 0.64621 0.72109 0.42094 0.0
H502 H 0.62365 0.60148 0.38458 0.0
H503 H 0.61488 0.68987 0.23166 0.0
H504 H 0.63945 0.73478 0.20923 0.0
H505 H 0.71753 0.70481 0.28016 0.0
H506 H 0.69362 0.65951 0.30211 0.0
H507 H 0.52649 0.56416 0.18946 0.0
H508 H 0.55339 0.58886 0.2558 0.0
H509 H 0.63119 0.58252 0.16782 0.0
H510 H 0.60436 0.55781 0.10075 0.0
H511 H 0.62408 0.63564 0.20706 0.0
H512 H 0.62348 0.53996 0.26705 0.0
H513 H 0.60245 0.49341 0.2898 0.0
H514 H 0.55042 0.53401 0.40284 0.0
H515 H 0.57083 0.58091 0.38025 0.0
C516 C 0.68337 0.65948 0.44391 0.0
C517 C 0.67532 0.68827 0.44781 0.0
C518 C 0.66997 0.64183 0.4082 0.0
C519 C 0.64837 0.65287 0.37614 0.0
C520 C 0.63919 0.68129 0.38235 0.0
C521 C 0.65277 0.69893 0.41773 0.0
C522 C 0.63652 0.63525 0.33439 0.0
C523 C 0.62372 0.60892 0.34577 0.0
C524 C 0.63742 0.64462 0.28357 0.0
C525 C 0.65235 0.67138 0.26888 0.0
C526 C 0.63735 0.69277 0.24211 0.0
C527 C 0.65116 0.71831 0.22953 0.0
C528 C 0.68001 0.72267 0.24338 0.0
C529 C 0.69517 0.70143 0.26955 0.0
C530 C 0.6815 0.67581 0.28205 0.0
C531 C 0.54932 0.56798 0.18404 0.0
C532 C 0.56327 0.55896 0.13973 0.0
C533 C 0.56469 0.58198 0.22219 0.0
C534 C 0.59432 0.58722 0.21693 0.0
C535 C 0.60832 0.57857 0.1726 0.0
C536 C 0.59297 0.56442 0.1344 0.0
C537 C 0.6104 0.60229 0.25747 0.0
C538 C 0.62408 0.62814 0.24583 0.0
C539 C 0.61085 0.59216 0.30784 0.0
C540 C 0.59851 0.564 0.32164 0.0
C541 C 0.60738 0.53901 0.29647 0.0
C542 C 0.5956 0.51255 0.30939 0.0
C543 C 0.57506 0.51076 0.34766 0.0
C544 C 0.56631 0.53543 0.37316 0.0
C545 C 0.578 0.56196 0.36035 0.0
H546 H 0.56598 0.49025 0.35762 0.0
H547 H 0.69062 0.7425 0.23376 0.0
H548 H 0.85453 0.21588 0.92755 0.0
H549 H 0.88613 0.18949 0.86976 0.0
H550 H 0.83625 0.11298 0.8951 0.0
H551 H 0.80558 0.13937 0.95456 0.0
H552 H 0.88982 0.09879 0.88463 0.0
H553 H 0.82416 0.15805 0.79193 0.0
H554 H 0.79967 0.20303 0.76853 0.0
H555 H 0.8808 0.23919 0.72432 0.0
H556 H 0.90586 0.19456 0.74829 0.0
H557 H 0.91271 0.03679 0.63537 0.0
H558 H 0.88916 0.06189 0.70537 0.0
H559 H 0.96469 0.11446 0.72578 0.0
H560 H 0.98881 0.08889 0.65695 0.0
H561 H 0.90007 0.14053 0.71343 0.0
H562 H 0.96456 0.07729 0.80737 0.0
H563 H 0.98538 0.03032 0.82916 0.0
H564 H 0.90114 -0.00077 0.86738 0.0
H565 H 0.87974 0.0459 0.84486 0.0
C566 C 0.85077 0.19334 0.921 0.0
C567 C 0.8277 0.17951 0.94449 0.0
C568 C 0.86861 0.17831 0.88801 0.0
C569 C 0.86305 0.14944 0.87698 0.0
C570 C 0.84083 0.13528 0.9027 0.0
C571 C 0.82333 0.15024 0.93643 0.0
C572 C 0.87924 0.13451 0.83657 0.0
C573 C 0.89194 0.1079 0.8472 0.0
C574 C 0.88199 0.14634 0.78755 0.0
C575 C 0.86692 0.17306 0.77237 0.0
C576 C 0.8368 0.17565 0.7775 0.0
C577 C 0.82282 0.20108 0.76413 0.0
C578 C 0.83868 0.22397 0.74507 0.0
C579 C 0.86855 0.22145 0.73917 0.0
C580 C 0.88266 0.19609 0.75263 0.0
C581 C 0.92428 0.05372 0.65474 0.0
C582 C 0.95258 0.06093 0.64077 0.0
C583 C 0.91088 0.06788 0.69477 0.0
C584 C 0.92537 0.08977 0.7207 0.0
C585 C 0.95335 0.09744 0.70626 0.0
C586 C 0.96703 0.08285 0.66704 0.0
C587 C 0.91085 0.1052 0.76197 0.0
C588 C 0.89822 0.13173 0.75118 0.0
C589 C 0.90769 0.09305 0.81043 0.0
C590 C 0.9205 0.06494 0.82359 0.0
C591 C 0.95042 0.06032 0.81966 0.0
C592 C 0.96234 0.03378 0.83235 0.0
C593 C 0.94458 0.01176 0.84942 0.0
C594 C 0.91486 0.01627 0.85399 0.0
C595 C 0.90283 0.04276 0.84127 0.0
H596 H 0.95385 0.99124 0.85928 0.0
H597 H 0.82781 0.24365 0.73475 0.0
H598 H 0.37151 0.3111 0.48096 0.0
H599 H 0.40337 0.33974 0.42681 0.0
H600 H 0.32893 0.36945 0.34264 0.0
H601 H 0.29736 0.34136 0.39728 0.0
H602 H 0.4121 0.33681 0.32558 0.0
H603 H 0.33995 0.43997 0.30966 0.0
H604 H 0.30673 0.46745 0.36362 0.0
H605 H 0.34667 0.43184 0.49637 0.0
H606 H 0.38027 0.40448 0.4433 0.0
H607 H 0.44188 0.41192 0.10185 0.0
H608 H 0.42018 0.38631 0.17244 0.0
H609 H 0.44507 0.45448 0.27371 0.0
H610 H 0.4657 0.48066 0.20304 0.0
H611 H 0.39398 0.43994 0.29516 0.0
H612 H 0.48091 0.38795 0.27152 0.0
H613 H 0.51836 0.36149 0.22491 0.0
H614 H 0.45649 0.29693 0.18486 0.0
H615 H 0.41855 0.3232 0.23066 0.0
C616 C 0.36218 0.324 0.45106 0.0
C617 C 0.3322 0.32419 0.44283 0.0
C618 C 0.38026 0.34013 0.42011 0.0
C619 C 0.36846 0.35679 0.38093 0.0
C620 C 0.33844 0.35697 0.37298 0.0
C621 C 0.32048 0.34087 0.4038 0.0
C622 C 0.38727 0.37371 0.34737 0.0
C623 C 0.4083 0.3594 0.31905 0.0
C624 C 0.38283 0.40336 0.34014 0.0
C625 C 0.36268 0.42006 0.37236 0.0
C626 C 0.3418 0.43814 0.35035 0.0
C627 C 0.32283 0.45367 0.3808 0.0
C628 C 0.32455 0.45138 0.43338 0.0
C629 C 0.34529 0.43359 0.45564 0.0
C630 C 0.36431 0.41806 0.42536 0.0
C631 C 0.44277 0.4214 0.13919 0.0
C632 C 0.45546 0.44832 0.14683 0.0
C633 C 0.43054 0.40666 0.17961 0.0
C634 C 0.43137 0.41824 0.22867 0.0
C635 C 0.44412 0.44509 0.2363 0.0
C636 C 0.45592 0.46004 0.19581 0.0
C637 C 0.41806 0.40281 0.27163 0.0
C638 C 0.39804 0.41742 0.30188 0.0
C639 C 0.42405 0.37364 0.28167 0.0
C640 C 0.44683 0.35766 0.25426 0.0
C641 C 0.47524 0.3682 0.25251 0.0
C642 C 0.49657 0.35322 0.22626 0.0
C643 C 0.4898 0.32757 0.20186 0.0
C644 C 0.4617 0.31681 0.20376 0.0
C645 C 0.44028 0.33172 0.22992 0.0
H646 H 0.50634 0.31601 0.18155 0.0
H647 H 0.30982 0.46341 0.45686 0.0
H648 H 0.2047 0.82902 0.89962 0.0
H649 H 0.17548 0.85893 0.84309 0.0
H650 H 0.09901 0.83685 0.92665 0.0
H651 H 0.12844 0.80629 0.98264 0.0
H652 H 0.08832 0.83513 0.82744 0.0
H653 H 0.1274 0.90126 0.94183 0.0
H654 H 0.16464 0.9245 0.99453 0.0
H655 H 0.2096 0.95103 0.86132 0.0
H656 H 0.17291 0.92746 0.80772 0.0
H657 H 0.05065 0.98245 0.69775 0.0
H658 H 0.06949 0.95545 0.7696 0.0
H659 H 0.08395 0.88265 0.67263 0.0
H660 H 0.06409 0.90921 0.6009 0.0
H661 H 0.11837 0.93483 0.79214 0.0
H662 H 0.077 0.8209 0.73462 0.0
H663 H 0.03431 0.79933 0.69343 0.0
H664 H 0.9835 0.87303 0.7316 0.0
H665 H 0.02573 0.89486 0.77367 0.0
C666 C 0.18163 0.83052 0.90553 0.0
C667 C 0.16866 0.81548 0.94501 0.0
C668 C 0.16501 0.84771 0.87366 0.0
C669 C 0.13512 0.85038 0.88108 0.0
C670 C 0.12204 0.83518 0.92048 0.0
C671 C 0.13877 0.81793 0.95245 0.0
C672 C 0.11782 0.86894 0.84707 0.0
C673 C 0.09475 0.85697 0.81978 0.0
C674 C 0.12546 0.89779 0.83876 0.0
C675 C 0.14745 0.91242 0.8707 0.0
C676 C 0.14532 0.91189 0.92372 0.0
C677 C 0.16634 0.92513 0.95378 0.0
C678 C 0.1895 0.93921 0.93129 0.0
C679 C 0.19165 0.94012 0.87868 0.0
C680 C 0.17072 0.92683 0.84842 0.0
C681 C 0.05784 0.96068 0.69166 0.0
C682 C 0.05582 0.94794 0.64358 0.0
C683 C 0.06861 0.94526 0.73285 0.0
C684 C 0.07779 0.91686 0.72682 0.0
C685 C 0.07635 0.90429 0.67859 0.0
C686 C 0.06519 0.91957 0.63748 0.0
C687 C 0.08963 0.90063 0.77056 0.0
C688 C 0.11167 0.91309 0.7999 0.0
C689 C 0.08015 0.87265 0.78225 0.0
C690 C 0.05464 0.85961 0.75695 0.0
C691 C 0.0567 0.83246 0.73439 0.0
C692 C 0.03258 0.8202 0.71086 0.0
C693 C 0.00624 0.83483 0.70984 0.0
C694 C 0.00395 0.86176 0.73231 0.0
C695 C 0.02798 0.8741 0.75593 0.0
H696 H 0.98757 0.82528 0.69184 0.0
H697 H 0.20575 0.94945 0.95463 0.0
loop_
_geom_bond_atom_site_label_1
_geom_bond_atom_site_label_2
_geom_bond_distance
_geom_bond_site_symmetry_2
_ccdc_geom_bond_type
C0 N1 1.317 . S
C0 N2 1.348 1_556 S
C0 C3 1.485 . S
N1 C0 1.317 . S
N1 N5 1.370 1_556 S
N2 C0 1.348 1_554 S
N2 C4 1.346 . S
C3 C0 1.485 . S
C3 H7 0.960 . S
C3 H8 0.961 . S
C3 H9 0.960 . S
C4 N2 1.346 . S
C4 N5 1.307 . S
C4 C6 1.486 . S
N5 N1 1.370 1_554 S
N5 C4 1.307 . S
C6 C4 1.486 . S
C6 H10 0.960 . S
C6 H11 0.960 . S
C6 H12 0.959 . S
H7 C3 0.960 . S
H8 C3 0.961 . S
H9 C3 0.960 . S
H10 C6 0.960 . S
H11 C6 0.960 . S
H12 C6 0.959 . S
C13 N14 1.317 . S
C13 N15 1.348 . S
C13 C16 1.485 . S
N14 C13 1.317 . S
N14 N18 1.370 . S
N15 C13 1.348 . S
N15 C17 1.346 . S
C16 C13 1.485 . S
C16 H20 0.960 . S
C16 H21 0.961 . S
C16 H22 0.960 . S
C17 N15 1.346 . S
C17 N18 1.307 . S
C17 C19 1.486 . S
N18 N14 1.370 . S
N18 C17 1.307 . S
C19 C17 1.486 . S
C19 H23 0.960 . S
C19 H24 0.960 . S
C19 H25 0.959 . S
H20 C16 0.960 . S
H21 C16 0.961 . S
H22 C16 0.960 . S
H23 C19 0.960 . S
H24 C19 0.960 . S
H25 C19 0.959 . S
C26 N27 1.317 . S
C26 N28 1.348 . S
C26 C29 1.485 . S
N27 C26 1.317 . S
N27 N31 1.370 1_554 S
N28 C26 1.348 . S
N28 C30 1.346 1_554 S
C29 C26 1.485 . S
C29 H33 0.960 . S
C29 H34 0.961 . S
C29 H35 0.960 . S
C30 N28 1.346 1_556 S
C30 N31 1.307 . S
C30 C32 1.486 . S
N31 N27 1.370 1_556 S
N31 C30 1.307 . S
C32 C30 1.486 . S
C32 H36 0.960 . S
C32 H37 0.960 . S
C32 H38 0.959 . S
H33 C29 0.960 . S
H34 C29 0.961 . S
H35 C29 0.960 . S
H36 C32 0.960 . S
H37 C32 0.960 . S
H38 C32 0.959 . S
C39 N40 1.317 . S
C39 N41 1.348 . S
C39 C42 1.485 . S
N40 C39 1.317 . S
N40 N44 1.370 . S
N41 C39 1.348 . S
N41 C43 1.346 . S
C42 C39 1.485 . S
C42 H46 0.960 . S
C42 H47 0.961 . S
C42 H48 0.960 . S
C43 N41 1.346 . S
C43 N44 1.307 . S
C43 C45 1.486 . S
N44 N40 1.370 . S
N44 C43 1.307 . S
C45 C43 1.486 . S
C45 H49 0.960 . S
C45 H50 0.960 . S
C45 H51 0.959 . S
H46 C42 0.960 . S
H47 C42 0.961 . S
H48 C42 0.960 . S
H49 C45 0.960 . S
H50 C45 0.960 . S
H51 C45 0.959 . S
O52 Zn53 1.953 1_565 S
O52 C68 1.225 . S
Zn53 O52 1.953 1_545 S
Zn53 O54 1.949 1_655 S
Zn53 O60 1.919 . S
Zn53 O65 1.924 . S
O54 Zn53 1.949 1_455 S
O54 Zn55 1.923 . S
O54 Zn56 1.950 1_545 S
O54 Zn57 1.945 . S
Zn55 O54 1.923 . S
Zn55 O58 1.933 . S
Zn55 O61 1.941 . S
Zn55 O62 1.965 1_545 S
Zn56 O54 1.950 1_565 S
Zn56 O63 1.938 . S
Zn56 O64 1.906 . S
Zn56 O74 1.953 1_455 S
Zn57 O54 1.945 . S
Zn57 O59 1.932 . S
Zn57 O66 1.977 . S
Zn57 O67 1.910 1_455 S
O58 Zn55 1.933 . S
O58 C69 1.226 . S
O59 Zn57 1.932 . S
O59 C69 1.307 . S
O60 Zn53 1.919 . S
O60 C71 1.253 . S
O61 Zn55 1.941 . S
O61 C71 1.283 1_455 S
O62 Zn55 1.965 1_565 S
O62 C70 1.303 . S
O63 Zn56 1.938 . S
O63 C70 1.247 . S
O64 Zn56 1.906 . S
O64 C72 1.304 . S
O65 Zn53 1.924 . S
O65 C73 1.311 . S
O66 Zn57 1.977 . S
O66 C72 1.272 1_545 S
O67 Zn57 1.910 1_655 S
O67 C73 1.231 . S
C68 O52 1.225 . S
C68 O74 1.298 . S
C69 O58 1.226 . S
C69 O59 1.307 . S
C70 O62 1.303 . S
C70 O63 1.247 . S
C71 O60 1.253 . S
C71 O61 1.283 1_655 S
C72 O64 1.304 . S
C72 O66 1.272 1_565 S
C73 O65 1.311 . S
C73 O67 1.231 . S
O74 Zn56 1.953 1_655 S
O74 C68 1.298 . S
O75 Zn76 1.953 . S
O75 C91 1.222 1_556 S
Zn76 O75 1.953 . S
Zn76 O77 1.949 1_556 S
Zn76 O83 1.919 . S
Zn76 O88 1.924 1_556 S
O77 Zn76 1.949 1_554 S
O77 Zn78 1.923 1_554 S
O77 Zn79 1.950 . S
O77 Zn80 1.945 . S
Zn78 O77 1.923 1_556 S
Zn78 O81 1.933 . S
Zn78 O84 1.941 . S
Zn78 O85 1.965 . S
Zn79 O77 1.950 . S
Zn79 O86 1.938 1_554 S
Zn79 O87 1.906 . S
Zn79 O97 1.953 . S
Zn80 O77 1.945 . S
Zn80 O82 1.932 . S
Zn80 O89 1.977 . S
Zn80 O90 1.910 . S
O81 Zn78 1.933 . S
O81 C92 1.226 1_556 S
O82 Zn80 1.932 . S
O82 C92 1.307 . S
O83 Zn76 1.919 . S
O83 C94 1.253 . S
O84 Zn78 1.941 . S
O84 C94 1.283 . S
O85 Zn78 1.965 . S
O85 C93 1.303 . S
O86 Zn79 1.938 1_556 S
O86 C93 1.247 . S
O87 Zn79 1.906 . S
O87 C95 1.304 . S
O88 Zn76 1.924 1_554 S
O88 C96 1.311 . S
O89 Zn80 1.977 . S
O89 C95 1.272 . S
O90 Zn80 1.910 . S
O90 C96 1.231 . S
C91 O75 1.222 1_554 S
C91 O97 1.301 . S
C92 O81 1.226 1_554 S
C92 O82 1.307 . S
C93 O85 1.303 . S
C93 O86 1.247 . S
C94 O83 1.253 . S
C94 O84 1.283 . S
C95 O87 1.304 . S
C95 O89 1.272 . S
C96 O88 1.311 . S
C96 O90 1.231 . S
O97 Zn79 1.953 . S
O97 C91 1.301 . S
H98 C116 0.951 . S
H99 C118 0.951 . S
H100 C120 0.950 . S
H101 C121 0.950 . S
H102 C123 0.950 . S
H103 C126 0.950 . S
H104 C127 0.950 . S
H105 C129 0.950 . S
H106 C130 0.950 . S
H107 C131 0.951 . S
H108 C133 0.951 . S
H109 C135 0.950 . S
H110 C136 0.950 . S
H111 C138 0.950 . S
H112 C141 0.950 . S
H113 C142 0.950 . S
H114 C144 0.950 . S
H115 C145 0.950 . S
C116 H98 0.951 . S
C116 C117 1.366 . S
C116 C118 1.388 . S
C117 C116 1.366 . S
C117 C121 1.385 . S
C118 H99 0.951 . S
C118 C116 1.388 . S
C118 C119 1.366 . S
C119 C118 1.366 . S
C119 C120 1.414 . S
C119 C122 1.499 . S
C120 H100 0.950 . S
C120 C119 1.414 . S
C120 C121 1.374 . S
C121 H101 0.950 . S
C121 C117 1.385 . S
C121 C120 1.374 . S
C122 C119 1.499 . S
C122 C123 1.373 . S
C122 C124 1.389 . S
C123 H102 0.950 . S
C123 C122 1.373 . S
C123 C139 1.377 . S
C124 C122 1.389 . S
C124 C125 1.524 . S
C124 C138 1.377 . S
C125 C124 1.524 . S
C125 C126 1.397 . S
C125 C130 1.363 . S
C126 H103 0.950 . S
C126 C125 1.397 . S
C126 C127 1.334 . S
C127 H104 0.950 . S
C127 C126 1.334 . S
C127 C128 1.287 . S
C128 C127 1.287 . S
C128 C129 1.524 . S
C128 H147 0.913 . S
C129 H105 0.950 . S
C129 C128 1.524 . S
C129 C130 1.415 . S
C130 H106 0.950 . S
C130 C125 1.363 . S
C130 C129 1.415 . S
C131 H107 0.951 . S
C131 C132 1.366 . S
C131 C133 1.388 . S
C132 C131 1.366 . S
C132 C136 1.385 . S
C133 H108 0.951 . S
C133 C131 1.388 . S
C133 C134 1.366 . S
C134 C133 1.366 . S
C134 C135 1.414 . S
C134 C137 1.499 . S
C135 H109 0.950 . S
C135 C134 1.414 . S
C135 C136 1.374 . S
C136 H110 0.950 . S
C136 C132 1.385 . S
C136 C135 1.374 . S
C137 C134 1.499 . S
C137 C138 1.373 . S
C137 C139 1.389 . S
C138 H111 0.950 . S
C138 C124 1.377 . S
C138 C137 1.373 . S
C139 C123 1.377 . S
C139 C137 1.389 . S
C139 C140 1.524 . S
C140 C139 1.524 . S
C140 C141 1.397 . S
C140 C145 1.363 . S
C141 H112 0.950 . S
C141 C140 1.397 . S
C141 C142 1.334 . S
C142 H113 0.950 . S
C142 C141 1.334 . S
C142 C143 1.287 . S
C143 C142 1.287 . S
C143 C144 1.524 . S
C143 H146 0.999 . S
C144 H114 0.950 . S
C144 C143 1.524 . S
C144 C145 1.415 . S
C145 H115 0.950 . S
C145 C140 1.363 . S
C145 C144 1.415 . S
H146 C143 0.999 . S
H147 C128 0.913 . S
H148 C166 0.951 . S
H149 C168 0.951 . S
H150 C170 0.950 . S
H151 C171 0.950 . S
H152 C173 0.950 . S
H153 C176 0.950 . S
H154 C177 0.950 . S
H155 C179 0.950 . S
H156 C180 0.950 . S
H157 C181 0.951 . S
H158 C183 0.951 . S
H159 C185 0.950 . S
H160 C186 0.950 . S
H161 C188 0.950 . S
H162 C191 0.950 . S
H163 C192 0.950 . S
H164 C194 0.950 . S
H165 C195 0.950 . S
C166 H148 0.951 . S
C166 C167 1.366 . S
C166 C168 1.388 . S
C167 C166 1.366 . S
C167 C171 1.385 1_554 S
C168 H149 0.951 . S
C168 C166 1.388 . S
C168 C169 1.366 . S
C169 C168 1.366 . S
C169 C170 1.414 1_554 S
C169 C172 1.499 . S
C170 H150 0.950 . S
C170 C169 1.414 1_556 S
C170 C171 1.374 . S
C171 H151 0.950 . S
C171 C167 1.385 1_556 S
C171 C170 1.374 . S
C172 C169 1.499 . S
C172 C173 1.373 1_554 S
C172 C174 1.389 . S
C173 H152 0.950 . S
C173 C172 1.373 1_556 S
C173 C189 1.377 . S
C174 C172 1.389 . S
C174 C175 1.524 . S
C174 C188 1.377 . S
C175 C174 1.524 . S
C175 C176 1.397 . S
C175 C180 1.363 . S
C176 H153 0.950 . S
C176 C175 1.397 . S
C176 C177 1.334 . S
C177 H154 0.950 . S
C177 C176 1.334 . S
C177 C178 1.287 . S
C178 C177 1.287 . S
C178 C179 1.524 . S
C178 H197 0.913 . S
C179 H155 0.950 . S
C179 C178 1.524 . S
C179 C180 1.415 . S
C180 H156 0.950 . S
C180 C175 1.363 . S
C180 C179 1.415 . S
C181 H157 0.951 . S
C181 C182 1.366 1_556 S
C181 C183 1.388 . S
C182 C181 1.366 1_554 S
C182 C186 1.385 . S
C183 H158 0.951 . S
C183 C181 1.388 . S
C183 C184 1.349 1_556 S
C184 C183 1.349 1_554 S
C184 C185 1.431 . S
C184 C187 1.499 . S
C185 H159 0.950 . S
C185 C184 1.431 . S
C185 C186 1.374 . S
C186 H160 0.950 . S
C186 C182 1.385 . S
C186 C185 1.374 . S
C187 C184 1.499 . S
C187 C188 1.373 . S
C187 C189 1.389 1_554 S
C188 H161 0.950 . S
C188 C174 1.377 . S
C188 C187 1.373 . S
C189 C173 1.377 . S
C189 C187 1.389 1_556 S
C189 C190 1.524 . S
C190 C189 1.524 . S
C190 C191 1.397 . S
C190 C195 1.363 . S
C191 H162 0.950 . S
C191 C190 1.397 . S
C191 C192 1.334 . S
C192 H163 0.950 . S
C192 C191 1.334 . S
C192 C193 1.287 . S
C193 C192 1.287 . S
C193 C194 1.524 . S
C193 H196 0.999 . S
C194 H164 0.950 . S
C194 C193 1.524 . S
C194 C195 1.415 . S
C195 H165 0.950 . S
C195 C190 1.363 . S
C195 C194 1.415 . S
H196 C193 0.999 . S
H197 C178 0.913 . S
H198 C216 0.951 . S
H199 C218 0.951 . S
H200 C220 0.950 . S
H201 C221 0.950 . S
H202 C223 0.950 . S
H203 C226 0.950 . S
H204 C227 0.950 . S
H205 C229 0.950 . S
H206 C230 0.950 . S
H207 C231 0.951 . S
H208 C233 0.951 . S
H209 C235 0.950 . S
H210 C236 0.950 . S
H211 C238 0.950 . S
H212 C241 0.950 . S
H213 C242 0.950 . S
H214 C244 0.950 . S
H215 C245 0.950 . S
C216 H198 0.951 . S
C216 C217 1.366 . S
C216 C218 1.388 . S
C217 C216 1.366 . S
C217 C221 1.385 . S
C218 H199 0.951 . S
C218 C216 1.388 . S
C218 C219 1.366 . S
C219 C218 1.366 . S
C219 C220 1.414 . S
C219 C222 1.499 . S
C220 H200 0.950 . S
C220 C219 1.414 . S
C220 C221 1.374 . S
C221 H201 0.950 . S
C221 C217 1.385 . S
C221 C220 1.374 . S
C222 C219 1.499 . S
C222 C223 1.373 . S
C222 C224 1.389 . S
C223 H202 0.950 . S
C223 C222 1.373 . S
C223 C239 1.377 . S
C224 C222 1.389 . S
C224 C225 1.524 . S
C224 C238 1.377 . S
C225 C224 1.524 . S
C225 C226 1.397 . S
C225 C230 1.363 . S
C226 H203 0.950 . S
C226 C225 1.397 . S
C226 C227 1.334 . S
C227 H204 0.950 . S
C227 C226 1.334 . S
C227 C228 1.287 . S
C228 C227 1.287 . S
C228 C229 1.524 . S
C228 H247 0.913 . S
C229 H205 0.950 . S
C229 C228 1.524 . S
C229 C230 1.415 . S
C230 H206 0.950 . S
C230 C225 1.363 . S
C230 C229 1.415 . S
C231 H207 0.951 . S
C231 C232 1.366 . S
C231 C233 1.388 . S
C232 C231 1.366 . S
C232 C236 1.385 . S
C233 H208 0.951 . S
C233 C231 1.388 . S
C233 C234 1.366 . S
C234 C233 1.366 . S
C234 C235 1.414 . S
C234 C237 1.499 . S
C235 H209 0.950 . S
C235 C234 1.414 . S
C235 C236 1.374 . S
C236 H210 0.950 . S
C236 C232 1.385 . S
C236 C235 1.374 . S
C237 C234 1.499 . S
C237 C238 1.373 . S
C237 C239 1.389 . S
C238 H211 0.950 . S
C238 C224 1.377 . S
C238 C237 1.373 . S
C239 C223 1.377 . S
C239 C237 1.389 . S
C239 C240 1.524 . S
C240 C239 1.524 . S
C240 C241 1.397 . S
C240 C245 1.363 . S
C241 H212 0.950 . S
C241 C240 1.397 . S
C241 C242 1.334 . S
C242 H213 0.950 . S
C242 C241 1.334 . S
C242 C243 1.287 . S
C243 C242 1.287 . S
C243 C244 1.524 . S
C243 H246 0.999 . S
C244 H214 0.950 . S
C244 C243 1.524 . S
C244 C245 1.415 . S
C245 H215 0.950 . S
C245 C240 1.363 . S
C245 C244 1.415 . S
H246 C243 0.999 . S
H247 C228 0.913 . S
H248 C266 0.951 . S
H249 C268 0.951 . S
H250 C270 0.950 . S
H251 C271 0.950 . S
H252 C273 0.950 . S
H253 C276 0.950 . S
H254 C277 0.950 . S
H255 C279 0.950 . S
H256 C280 0.950 . S
H257 C281 0.951 . S
H258 C283 0.951 . S
H259 C285 0.950 . S
H260 C286 0.950 . S
H261 C288 0.950 . S
H262 C291 0.950 . S
H263 C292 0.950 . S
H264 C294 0.950 . S
H265 C295 0.950 . S
C266 H248 0.951 . S
C266 C267 1.365 1_556 S
C266 C268 1.388 . S
C267 C266 1.365 1_554 S
C267 C271 1.385 . S
C268 H249 0.951 . S
C268 C266 1.388 . S
C268 C269 1.366 1_556 S
C269 C268 1.366 1_554 S
C269 C270 1.414 . S
C269 C272 1.499 . S
C270 H250 0.950 . S
C270 C269 1.414 . S
C270 C271 1.374 . S
C271 H251 0.950 . S
C271 C267 1.385 . S
C271 C270 1.374 . S
C272 C269 1.499 . S
C272 C273 1.373 1_554 S
C272 C274 1.389 . S
C273 H252 0.950 . S
C273 C272 1.373 1_556 S
C273 C289 1.377 . S
C274 C272 1.389 . S
C274 C275 1.524 . S
C274 C288 1.377 . S
C275 C274 1.524 . S
C275 C276 1.397 . S
C275 C280 1.363 . S
C276 H253 0.950 . S
C276 C275 1.397 . S
C276 C277 1.334 . S
C277 H254 0.950 . S
C277 C276 1.334 . S
C277 C278 1.287 . S
C278 C277 1.287 . S
C278 C279 1.524 . S
C278 H297 0.913 . S
C279 H255 0.950 . S
C279 C278 1.524 . S
C279 C280 1.415 . S
C280 H256 0.950 . S
C280 C275 1.363 . S
C280 C279 1.415 . S
C281 H257 0.951 . S
C281 C282 1.367 . S
C281 C283 1.388 . S
C282 C281 1.367 . S
C282 C286 1.383 1_554 S
C283 H258 0.951 . S
C283 C281 1.388 . S
C283 C284 1.366 1_554 S
C284 C283 1.366 1_556 S
C284 C285 1.414 . S
C284 C287 1.499 . S
C285 H259 0.950 . S
C285 C284 1.414 . S
C285 C286 1.374 . S
C286 H260 0.950 . S
C286 C282 1.383 1_556 S
C286 C285 1.374 . S
C287 C284 1.499 . S
C287 C288 1.373 1_556 S
C287 C289 1.389 . S
C288 H261 0.950 . S
C288 C274 1.377 . S
C288 C287 1.373 1_554 S
C289 C273 1.377 . S
C289 C287 1.389 . S
C289 C290 1.524 . S
C290 C289 1.524 . S
C290 C291 1.397 . S
C290 C295 1.363 . S
C291 H262 0.950 . S
C291 C290 1.397 . S
C291 C292 1.334 . S
C292 H263 0.950 . S
C292 C291 1.334 . S
C292 C293 1.287 . S
C293 C292 1.287 . S
C293 C294 1.524 . S
C293 H296 0.999 . S
C294 H264 0.950 . S
C294 C293 1.524 . S
C294 C295 1.415 . S
C295 H265 0.950 . S
C295 C290 1.363 . S
C295 C294 1.415 . S
H296 C293 0.999 . S
H297 C278 0.913 . S
H298 C316 0.951 . S
H299 C318 0.951 . S
H300 C320 0.950 . S
H301 C321 0.950 . S
H302 C323 0.950 . S
H303 C326 0.950 . S
H304 C327 0.950 . S
H305 C329 0.950 . S
H306 C330 0.950 . S
H307 C331 0.951 . S
H308 C333 0.951 . S
H309 C335 0.950 . S
H310 C336 0.950 . S
H311 C338 0.950 . S
H312 C341 0.950 . S
H313 C342 0.950 . S
H314 C344 0.950 . S
H315 C345 0.950 . S
C316 H298 0.951 . S
C316 C317 1.366 . S
C316 C318 1.388 . S
C317 C316 1.366 . S
C317 C321 1.385 . S
C318 H299 0.951 . S
C318 C316 1.388 . S
C318 C319 1.366 . S
C319 C318 1.366 . S
C319 C320 1.414 . S
C319 C322 1.499 . S
C320 H300 0.950 . S
C320 C319 1.414 . S
C320 C321 1.374 . S
C321 H301 0.950 . S
C321 C317 1.385 . S
C321 C320 1.374 . S
C322 C319 1.499 . S
C322 C323 1.373 . S
C322 C324 1.389 . S
C323 H302 0.950 . S
C323 C322 1.373 . S
C323 C339 1.377 . S
C324 C322 1.389 . S
C324 C325 1.524 . S
C324 C338 1.377 . S
C325 C324 1.524 . S
C325 C326 1.397 . S
C325 C330 1.363 . S
C326 H303 0.950 . S
C326 C325 1.397 . S
C326 C327 1.334 . S
C327 H304 0.950 . S
C327 C326 1.334 . S
C327 C328 1.287 . S
C328 C327 1.287 . S
C328 C329 1.524 . S
C328 H347 0.913 . S
C329 H305 0.950 . S
C329 C328 1.524 . S
C329 C330 1.415 . S
C330 H306 0.950 . S
C330 C325 1.363 . S
C330 C329 1.415 . S
C331 H307 0.951 . S
C331 C332 1.366 . S
C331 C333 1.388 . S
C332 C331 1.366 . S
C332 C336 1.385 . S
C333 H308 0.951 . S
C333 C331 1.388 . S
C333 C334 1.366 . S
C334 C333 1.366 . S
C334 C335 1.414 . S
C334 C337 1.499 . S
C335 H309 0.950 . S
C335 C334 1.414 . S
C335 C336 1.374 . S
C336 H310 0.950 . S
C336 C332 1.385 . S
C336 C335 1.374 . S
C337 C334 1.499 . S
C337 C338 1.373 . S
C337 C339 1.389 . S
C338 H311 0.950 . S
C338 C324 1.377 . S
C338 C337 1.373 . S
C339 C323 1.377 . S
C339 C337 1.389 . S
C339 C340 1.524 . S
C340 C339 1.524 . S
C340 C341 1.397 . S
C340 C345 1.363 . S
C341 H312 0.950 . S
C341 C340 1.397 . S
C341 C342 1.334 . S
C342 H313 0.950 . S
C342 C341 1.334 . S
C342 C343 1.287 . S
C343 C342 1.287 . S
C343 C344 1.524 . S
C343 H346 0.999 . S
C344 H314 0.950 . S
C344 C343 1.524 . S
C344 C345 1.415 . S
C345 H315 0.950 . S
C345 C340 1.363 . S
C345 C344 1.415 . S
H346 C343 0.999 . S
H347 C328 0.913 . S
H348 C366 0.951 . S
H349 C368 0.951 . S
H350 C370 0.950 . S
H351 C371 0.950 . S
H352 C373 0.950 . S
H353 C376 0.950 . S
H354 C377 0.950 . S
H355 C379 0.950 . S
H356 C380 0.950 . S
H357 C381 0.951 . S
H358 C383 0.951 . S
H359 C385 0.950 . S
H360 C386 0.950 . S
H361 C388 0.950 . S
H362 C391 0.950 . S
H363 C392 0.950 . S
H364 C394 0.950 . S
H365 C395 0.950 . S
C366 H348 0.951 . S
C366 C367 1.366 . S
C366 C368 1.388 . S
C367 C366 1.366 . S
C367 C371 1.385 . S
C368 H349 0.951 . S
C368 C366 1.388 . S
C368 C369 1.366 . S
C369 C368 1.366 . S
C369 C370 1.414 . S
C369 C372 1.499 . S
C370 H350 0.950 . S
C370 C369 1.414 . S
C370 C371 1.374 . S
C371 H351 0.950 . S
C371 C367 1.385 . S
C371 C370 1.374 . S
C372 C369 1.499 . S
C372 C373 1.373 . S
C372 C374 1.389 . S
C373 H352 0.950 . S
C373 C372 1.373 . S
C373 C389 1.377 . S
C374 C372 1.389 . S
C374 C375 1.524 . S
C374 C388 1.377 . S
C375 C374 1.524 . S
C375 C376 1.397 . S
C375 C380 1.363 . S
C376 H353 0.950 . S
C376 C375 1.397 . S
C376 C377 1.334 . S
C377 H354 0.950 . S
C377 C376 1.334 . S
C377 C378 1.287 . S
C378 C377 1.287 . S
C378 C379 1.524 . S
C378 H397 0.913 . S
C379 H355 0.950 . S
C379 C378 1.524 . S
C379 C380 1.415 . S
C380 H356 0.950 . S
C380 C375 1.363 . S
C380 C379 1.415 . S
C381 H357 0.951 . S
C381 C382 1.366 . S
C381 C383 1.388 . S
C382 C381 1.366 . S
C382 C386 1.385 . S
C383 H358 0.951 . S
C383 C381 1.388 . S
C383 C384 1.366 . S
C384 C383 1.366 . S
C384 C385 1.414 . S
C384 C387 1.499 . S
C385 H359 0.950 . S
C385 C384 1.414 . S
C385 C386 1.374 . S
C386 H360 0.950 . S
C386 C382 1.385 . S
C386 C385 1.374 . S
C387 C384 1.499 . S
C387 C388 1.373 . S
C387 C389 1.389 . S
C388 H361 0.950 . S
C388 C374 1.377 . S
C388 C387 1.373 . S
C389 C373 1.377 . S
C389 C387 1.389 . S
C389 C390 1.524 . S
C390 C389 1.524 . S
C390 C391 1.397 . S
C390 C395 1.363 . S
C391 H362 0.950 . S
C391 C390 1.397 . S
C391 C392 1.334 . S
C392 H363 0.950 . S
C392 C391 1.334 . S
C392 C393 1.287 . S
C393 C392 1.287 . S
C393 C394 1.524 . S
C393 H396 0.999 . S
C394 H364 0.950 . S
C394 C393 1.524 . S
C394 C395 1.415 . S
C395 H365 0.950 . S
C395 C390 1.363 . S
C395 C394 1.415 . S
H396 C393 0.999 . S
H397 C378 0.913 . S
H398 C416 0.951 . S
H399 C418 0.951 . S
H400 C420 0.950 . S
H401 C421 0.950 . S
H402 C423 0.950 . S
H403 C426 0.950 . S
H404 C427 0.950 . S
H405 C429 0.950 . S
H406 C430 0.950 . S
H407 C431 0.951 . S
H408 C433 0.951 . S
H409 C435 0.950 . S
H410 C436 0.950 . S
H411 C438 0.950 . S
H412 C441 0.950 . S
H413 C442 0.950 . S
H414 C444 0.950 . S
H415 C445 0.950 . S
C416 H398 0.951 . S
C416 C417 1.366 . S
C416 C418 1.388 . S
C417 C416 1.366 . S
C417 C421 1.385 . S
C418 H399 0.951 . S
C418 C416 1.388 . S
C418 C419 1.366 . S
C419 C418 1.366 . S
C419 C420 1.414 . S
C419 C422 1.499 . S
C420 H400 0.950 . S
C420 C419 1.414 . S
C420 C421 1.374 . S
C421 H401 0.950 . S
C421 C417 1.385 . S
C421 C420 1.374 . S
C422 C419 1.499 . S
C422 C423 1.373 . S
C422 C424 1.389 . S
C423 H402 0.950 . S
C423 C422 1.373 . S
C423 C439 1.377 . S
C424 C422 1.389 . S
C424 C425 1.524 . S
C424 C438 1.377 . S
C425 C424 1.524 . S
C425 C426 1.397 . S
C425 C430 1.363 . S
C426 H403 0.950 . S
C426 C425 1.397 . S
C426 C427 1.334 . S
C427 H404 0.950 . S
C427 C426 1.334 . S
C427 C428 1.287 . S
C428 C427 1.287 . S
C428 C429 1.524 . S
C428 H447 0.913 1_554 S
C429 H405 0.950 . S
C429 C428 1.524 . S
C429 C430 1.415 . S
C430 H406 0.950 . S
C430 C425 1.363 . S
C430 C429 1.415 . S
C431 H407 0.951 . S
C431 C432 1.366 . S
C431 C433 1.388 . S
C432 C431 1.366 . S
C432 C436 1.385 . S
C433 H408 0.951 . S
C433 C431 1.388 . S
C433 C434 1.366 . S
C434 C433 1.366 . S
C434 C435 1.414 . S
C434 C437 1.499 . S
C435 H409 0.950 . S
C435 C434 1.414 . S
C435 C436 1.374 . S
C436 H410 0.950 . S
C436 C432 1.385 . S
C436 C435 1.374 . S
C437 C434 1.499 . S
C437 C438 1.373 . S
C437 C439 1.389 . S
C438 H411 0.950 . S
C438 C424 1.377 . S
C438 C437 1.373 . S
C439 C423 1.377 . S
C439 C437 1.389 . S
C439 C440 1.524 . S
C440 C439 1.524 . S
C440 C441 1.397 . S
C440 C445 1.363 . S
C441 H412 0.950 . S
C441 C440 1.397 . S
C441 C442 1.334 . S
C442 H413 0.950 . S
C442 C441 1.334 . S
C442 C443 1.287 . S
C443 C442 1.287 . S
C443 C444 1.524 . S
C443 H446 0.999 . S
C444 H414 0.950 . S
C444 C443 1.524 . S
C444 C445 1.415 . S
C445 H415 0.950 . S
C445 C440 1.363 . S
C445 C444 1.415 . S
H446 C443 0.999 . S
H447 C428 0.913 1_556 S
H448 C466 0.951 . S
H449 C468 0.951 . S
H450 C470 0.950 . S
H451 C471 0.950 . S
H452 C473 0.950 . S
H453 C476 0.950 . S
H454 C477 0.950 . S
H455 C479 0.950 . S
H456 C480 0.950 . S
H457 C481 0.951 . S
H458 C483 0.951 . S
H459 C485 0.950 . S
H460 C486 0.950 . S
H461 C488 0.950 . S
H462 C491 0.950 . S
H463 C492 0.950 . S
H464 C494 0.950 . S
H465 C495 0.950 . S
C466 H448 0.951 . S
C466 C467 1.366 . S
C466 C468 1.388 . S
C467 C466 1.366 . S
C467 C471 1.385 . S
C468 H449 0.951 . S
C468 C466 1.388 . S
C468 C469 1.366 . S
C469 C468 1.366 . S
C469 C470 1.414 . S
C469 C472 1.499 . S
C470 H450 0.950 . S
C470 C469 1.414 . S
C470 C471 1.374 . S
C471 H451 0.950 . S
C471 C467 1.385 . S
C471 C470 1.374 . S
C472 C469 1.499 . S
C472 C473 1.373 . S
C472 C474 1.389 . S
C473 H452 0.950 . S
C473 C472 1.373 . S
C473 C489 1.377 . S
C474 C472 1.389 . S
C474 C475 1.524 . S
C474 C488 1.377 . S
C475 C474 1.524 . S
C475 C476 1.397 . S
C475 C480 1.363 . S
C476 H453 0.950 . S
C476 C475 1.397 . S
C476 C477 1.334 . S
C477 H454 0.950 . S
C477 C476 1.334 . S
C477 C478 1.287 . S
C478 C477 1.287 . S
C478 C479 1.524 . S
C478 H497 0.913 . S
C479 H455 0.950 . S
C479 C478 1.524 . S
C479 C480 1.415 . S
C480 H456 0.950 . S
C480 C475 1.363 . S
C480 C479 1.415 . S
C481 H457 0.951 . S
C481 C482 1.366 . S
C481 C483 1.388 . S
C482 C481 1.366 . S
C482 C486 1.385 . S
C483 H458 0.951 . S
C483 C481 1.388 . S
C483 C484 1.366 . S
C484 C483 1.366 . S
C484 C485 1.414 . S
C484 C487 1.499 . S
C485 H459 0.950 . S
C485 C484 1.414 . S
C485 C486 1.374 . S
C486 H460 0.950 . S
C486 C482 1.385 . S
C486 C485 1.374 . S
C487 C484 1.499 . S
C487 C488 1.373 . S
C487 C489 1.389 . S
C488 H461 0.950 . S
C488 C474 1.377 . S
C488 C487 1.373 . S
C489 C473 1.377 . S
C489 C487 1.389 . S
C489 C490 1.524 . S
C490 C489 1.524 . S
C490 C491 1.397 . S
C490 C495 1.363 . S
C491 H462 0.950 . S
C491 C490 1.397 . S
C491 C492 1.334 . S
C492 H463 0.950 . S
C492 C491 1.334 . S
C492 C493 1.287 . S
C493 C492 1.287 . S
C493 C494 1.524 . S
C493 H496 0.999 . S
C494 H464 0.950 . S
C494 C493 1.524 . S
C494 C495 1.415 . S
C495 H465 0.950 . S
C495 C490 1.363 . S
C495 C494 1.415 . S
H496 C493 0.999 . S
H497 C478 0.913 . S
H498 C516 0.951 . S
H499 C518 0.951 . S
H500 C520 0.950 . S
H501 C521 0.950 . S
H502 C523 0.950 . S
H503 C526 0.950 . S
H504 C527 0.950 . S
H505 C529 0.950 . S
H506 C530 0.950 . S
H507 C531 0.951 . S
H508 C533 0.951 . S
H509 C535 0.950 . S
H510 C536 0.950 . S
H511 C538 0.950 . S
H512 C541 0.950 . S
H513 C542 0.950 . S
H514 C544 0.950 . S
H515 C545 0.950 . S
C516 H498 0.951 . S
C516 C517 1.366 . S
C516 C518 1.388 . S
C517 C516 1.366 . S
C517 C521 1.385 . S
C518 H499 0.951 . S
C518 C516 1.388 . S
C518 C519 1.366 . S
C519 C518 1.366 . S
C519 C520 1.414 . S
C519 C522 1.499 . S
C520 H500 0.950 . S
C520 C519 1.414 . S
C520 C521 1.374 . S
C521 H501 0.950 . S
C521 C517 1.385 . S
C521 C520 1.374 . S
C522 C519 1.499 . S
C522 C523 1.373 . S
C522 C524 1.389 . S
C523 H502 0.950 . S
C523 C522 1.373 . S
C523 C539 1.377 . S
C524 C522 1.389 . S
C524 C525 1.524 . S
C524 C538 1.377 . S
C525 C524 1.524 . S
C525 C526 1.397 . S
C525 C530 1.363 . S
C526 H503 0.950 . S
C526 C525 1.397 . S
C526 C527 1.334 . S
C527 H504 0.950 . S
C527 C526 1.334 . S
C527 C528 1.287 . S
C528 C527 1.287 . S
C528 C529 1.524 . S
C528 H547 0.913 . S
C529 H505 0.950 . S
C529 C528 1.524 . S
C529 C530 1.415 . S
C530 H506 0.950 . S
C530 C525 1.363 . S
C530 C529 1.415 . S
C531 H507 0.951 . S
C531 C532 1.366 . S
C531 C533 1.388 . S
C532 C531 1.366 . S
C532 C536 1.385 . S
C533 H508 0.951 . S
C533 C531 1.388 . S
C533 C534 1.366 . S
C534 C533 1.366 . S
C534 C535 1.414 . S
C534 C537 1.499 . S
C535 H509 0.950 . S
C535 C534 1.414 . S
C535 C536 1.374 . S
C536 H510 0.950 . S
C536 C532 1.385 . S
C536 C535 1.374 . S
C537 C534 1.499 . S
C537 C538 1.373 . S
C537 C539 1.389 . S
C538 H511 0.950 . S
C538 C524 1.377 . S
C538 C537 1.373 . S
C539 C523 1.377 . S
C539 C537 1.389 . S
C539 C540 1.524 . S
C540 C539 1.524 . S
C540 C541 1.397 . S
C540 C545 1.363 . S
C541 H512 0.950 . S
C541 C540 1.397 . S
C541 C542 1.334 . S
C542 H513 0.950 . S
C542 C541 1.334 . S
C542 C543 1.287 . S
C543 C542 1.287 . S
C543 C544 1.524 . S
C543 H546 0.999 . S
C544 H514 0.950 . S
C544 C543 1.524 . S
C544 C545 1.415 . S
C545 H515 0.950 . S
C545 C540 1.363 . S
C545 C544 1.415 . S
H546 C543 0.999 . S
H547 C528 0.913 . S
H548 C566 0.951 . S
H549 C568 0.951 . S
H550 C570 0.950 . S
H551 C571 0.950 . S
H552 C573 0.950 . S
H553 C576 0.950 . S
H554 C577 0.950 . S
H555 C579 0.950 . S
H556 C580 0.950 . S
H557 C581 0.951 . S
H558 C583 0.951 . S
H559 C585 0.950 . S
H560 C586 0.950 . S
H561 C588 0.950 . S
H562 C591 0.950 . S
H563 C592 0.950 . S
H564 C594 0.950 . S
H565 C595 0.950 . S
C566 H548 0.951 . S
C566 C567 1.366 . S
C566 C568 1.388 . S
C567 C566 1.366 . S
C567 C571 1.385 . S
C568 H549 0.951 . S
C568 C566 1.388 . S
C568 C569 1.366 . S
C569 C568 1.366 . S
C569 C570 1.414 . S
C569 C572 1.499 . S
C570 H550 0.950 . S
C570 C569 1.414 . S
C570 C571 1.374 . S
C571 H551 0.950 . S
C571 C567 1.385 . S
C571 C570 1.374 . S
C572 C569 1.499 . S
C572 C573 1.373 . S
C572 C574 1.389 . S
C573 H552 0.950 . S
C573 C572 1.373 . S
C573 C589 1.377 . S
C574 C572 1.389 . S
C574 C575 1.524 . S
C574 C588 1.377 . S
C575 C574 1.524 . S
C575 C576 1.397 . S
C575 C580 1.363 . S
C576 H553 0.950 . S
C576 C575 1.397 . S
C576 C577 1.334 . S
C577 H554 0.950 . S
C577 C576 1.334 . S
C577 C578 1.287 . S
C578 C577 1.287 . S
C578 C579 1.524 . S
C578 H597 0.913 . S
C579 H555 0.950 . S
C579 C578 1.524 . S
C579 C580 1.415 . S
C580 H556 0.950 . S
C580 C575 1.363 . S
C580 C579 1.415 . S
C581 H557 0.951 . S
C581 C582 1.366 . S
C581 C583 1.388 . S
C582 C581 1.366 . S
C582 C586 1.385 . S
C583 H558 0.951 . S
C583 C581 1.388 . S
C583 C584 1.366 . S
C584 C583 1.366 . S
C584 C585 1.414 . S
C584 C587 1.499 . S
C585 H559 0.950 . S
C585 C584 1.414 . S
C585 C586 1.374 . S
C586 H560 0.950 . S
C586 C582 1.385 . S
C586 C585 1.374 . S
C587 C584 1.499 . S
C587 C588 1.373 . S
C587 C589 1.389 . S
C588 H561 0.950 . S
C588 C574 1.377 . S
C588 C587 1.373 . S
C589 C573 1.377 . S
C589 C587 1.389 . S
C589 C590 1.524 . S
C590 C589 1.524 . S
C590 C591 1.397 . S
C590 C595 1.363 . S
C591 H562 0.950 . S
C591 C590 1.397 . S
C591 C592 1.334 . S
C592 H563 0.950 . S
C592 C591 1.334 . S
C592 C593 1.287 . S
C593 C592 1.287 . S
C593 C594 1.524 . S
C593 H596 0.999 . S
C594 H564 0.950 . S
C594 C593 1.524 . S
C594 C595 1.415 . S
C595 H565 0.950 . S
C595 C590 1.363 . S
C595 C594 1.415 . S
H596 C593 0.999 . S
H597 C578 0.913 . S
H598 C616 0.951 . S
H599 C618 0.951 . S
H600 C620 0.950 . S
H601 C621 0.950 . S
H602 C623 0.950 . S
H603 C626 0.950 . S
H604 C627 0.950 . S
H605 C629 0.950 . S
H606 C630 0.950 . S
H607 C631 0.951 . S
H608 C633 0.951 . S
H609 C635 0.950 . S
H610 C636 0.950 . S
H611 C638 0.950 . S
H612 C641 0.950 . S
H613 C642 0.950 . S
H614 C644 0.950 . S
H615 C645 0.950 . S
C616 H598 0.951 . S
C616 C617 1.366 . S
C616 C618 1.388 . S
C617 C616 1.366 . S
C617 C621 1.385 . S
C618 H599 0.951 . S
C618 C616 1.388 . S
C618 C619 1.366 . S
C619 C618 1.366 . S
C619 C620 1.414 . S
C619 C622 1.499 . S
C620 H600 0.950 . S
C620 C619 1.414 . S
C620 C621 1.374 . S
C621 H601 0.950 . S
C621 C617 1.385 . S
C621 C620 1.374 . S
C622 C619 1.499 . S
C622 C623 1.373 . S
C622 C624 1.389 . S
C623 H602 0.950 . S
C623 C622 1.373 . S
C623 C639 1.377 . S
C624 C622 1.389 . S
C624 C625 1.524 . S
C624 C638 1.377 . S
C625 C624 1.524 . S
C625 C626 1.397 . S
C625 C630 1.363 . S
C626 H603 0.950 . S
C626 C625 1.397 . S
C626 C627 1.334 . S
C627 H604 0.950 . S
C627 C626 1.334 . S
C627 C628 1.287 . S
C628 C627 1.287 . S
C628 C629 1.524 . S
C628 H647 0.913 . S
C629 H605 0.950 . S
C629 C628 1.524 . S
C629 C630 1.415 . S
C630 H606 0.950 . S
C630 C625 1.363 . S
C630 C629 1.415 . S
C631 H607 0.951 . S
C631 C632 1.366 . S
C631 C633 1.388 . S
C632 C631 1.366 . S
C632 C636 1.385 . S
C633 H608 0.951 . S
C633 C631 1.388 . S
C633 C634 1.366 . S
C634 C633 1.366 . S
C634 C635 1.414 . S
C634 C637 1.499 . S
C635 H609 0.950 . S
C635 C634 1.414 . S
C635 C636 1.374 . S
C636 H610 0.950 . S
C636 C632 1.385 . S
C636 C635 1.374 . S
C637 C634 1.499 . S
C637 C638 1.373 . S
C637 C639 1.389 . S
C638 H611 0.950 . S
C638 C624 1.377 . S
C638 C637 1.373 . S
C639 C623 1.377 . S
C639 C637 1.389 . S
C639 C640 1.524 . S
C640 C639 1.524 . S
C640 C641 1.397 . S
C640 C645 1.363 . S
C641 H612 0.950 . S
C641 C640 1.397 . S
C641 C642 1.334 . S
C642 H613 0.950 . S
C642 C641 1.334 . S
C642 C643 1.287 . S
C643 C642 1.287 . S
C643 C644 1.524 . S
C643 H646 0.999 . S
C644 H614 0.950 . S
C644 C643 1.524 . S
C644 C645 1.415 . S
C645 H615 0.950 . S
C645 C640 1.363 . S
C645 C644 1.415 . S
H646 C643 0.999 . S
H647 C628 0.913 . S
H648 C666 0.951 . S
H649 C668 0.951 . S
H650 C670 0.950 . S
H651 C671 0.950 . S
H652 C673 0.950 . S
H653 C676 0.950 . S
H654 C677 0.950 . S
H655 C679 0.950 . S
H656 C680 0.950 . S
H657 C681 0.951 . S
H658 C683 0.951 . S
H659 C685 0.950 . S
H660 C686 0.950 . S
H661 C688 0.950 . S
H662 C691 0.950 . S
H663 C692 0.950 . S
H664 C694 0.950 1_655 S
H665 C695 0.950 . S
C666 H648 0.951 . S
C666 C667 1.366 . S
C666 C668 1.388 . S
C667 C666 1.366 . S
C667 C671 1.385 . S
C668 H649 0.951 . S
C668 C666 1.388 . S
C668 C669 1.366 . S
C669 C668 1.366 . S
C669 C670 1.414 . S
C669 C672 1.499 . S
C670 H650 0.950 . S
C670 C669 1.414 . S
C670 C671 1.374 . S
C671 H651 0.950 . S
C671 C667 1.385 . S
C671 C670 1.374 . S
C672 C669 1.499 . S
C672 C673 1.373 . S
C672 C674 1.389 . S
C673 H652 0.950 . S
C673 C672 1.373 . S
C673 C689 1.377 . S
C674 C672 1.389 . S
C674 C675 1.524 . S
C674 C688 1.377 . S
C675 C674 1.524 . S
C675 C676 1.397 . S
C675 C680 1.363 . S
C676 H653 0.950 . S
C676 C675 1.397 . S
C676 C677 1.334 . S
C677 H654 0.950 . S
C677 C676 1.334 . S
C677 C678 1.287 . S
C678 C677 1.287 . S
C678 C679 1.524 . S
C678 H697 0.913 . S
C679 H655 0.950 . S
C679 C678 1.524 . S
C679 C680 1.415 . S
C680 H656 0.950 . S
C680 C675 1.363 . S
C680 C679 1.415 . S
C681 H657 0.951 . S
C681 C682 1.366 . S
C681 C683 1.388 . S
C682 C681 1.366 . S
C682 C686 1.385 . S
C683 H658 0.951 . S
C683 C681 1.388 . S
C683 C684 1.366 . S
C684 C683 1.366 . S
C684 C685 1.414 . S
C684 C687 1.499 . S
C685 H659 0.950 . S
C685 C684 1.414 . S
C685 C686 1.374 . S
C686 H660 0.950 . S
C686 C682 1.385 . S
C686 C685 1.374 . S
C687 C684 1.499 . S
C687 C688 1.373 . S
C687 C689 1.389 . S
C688 H661 0.950 . S
C688 C674 1.377 . S
C688 C687 1.373 . S
C689 C673 1.377 . S
C689 C687 1.389 . S
C689 C690 1.524 . S
C690 C689 1.524 . S
C690 C691 1.397 . S
C690 C695 1.363 . S
C691 H662 0.950 . S
C691 C690 1.397 . S
C691 C692 1.334 . S
C692 H663 0.950 . S
C692 C691 1.334 . S
C692 C693 1.287 . S
C693 C692 1.287 . S
C693 C694 1.524 . S
C693 H696 0.999 1_455 S
C694 H664 0.950 1_455 S
C694 C693 1.524 . S
C694 C695 1.415 . S
C695 H665 0.950 . S
C695 C690 1.363 . S
C695 C694 1.415 . S
H696 C693 0.999 1_655 S
H697 C678 0.913 . S
C132 C69 1.494 . S
C117 N41 1.495 . S
C167 N2 1.494 . S
C182 C92 1.494 . S
C217 N15 1.536 . S
C232 C68 1.536 . S
C267 N28 1.535 . S
C282 C91 1.536 . S
C332 C72 1.426 . S
C317 N5 1.460 . S
C382 C94 1.473 . S
C367 N14 1.520 . S
C417 N27 1.471 . S
C432 C73 1.429 . S
C467 N44 1.509 . S
C482 C93 1.460 . S
C532 C96 1.428 . S
C517 N18 1.470 . S
C582 C71 1.472 . S
C567 N31 1.519 . S
C632 C95 1.427 . S
C617 N40 1.462 . S
C667 N1 1.510 . S
C682 C70 1.459 . S
