# Generated by pormake.
# Topology ssa, (4,4)-cn, num edge types: 1
# Building blocks:
#     Node 0, Type 0, BuildingBlock: NAWXER_clean_sbu_0, # of connection points: 4
#     Node 1, Type 0, BuildingBlock: NAWXER_clean_sbu_0, # of connection points: 4
#     Node 2, Type 0, BuildingBlock: NAWXER_clean_sbu_0, # of connection points: 4
#     Node 3, Type 0, BuildingBlock: NAWXER_clean_sbu_0, # of connection points: 4
#     Node 4, Type 0, BuildingBlock: NAWXER_clean_sbu_0, # of connection points: 4
#     Node 5, Type 0, BuildingBlock: NAWXER_clean_sbu_0, # of connection points: 4
#     Node 6, Type 1, BuildingBlock: NAWXER_clean_linker_0, # of connection points: 4
#     Node 7, Type 1, BuildingBlock: NAWXER_clean_linker_0, # of connection points: 4
#     Node 8, Type 1, BuildingBlock: NAWXER_clean_linker_0, # of connection points: 4
#     Node 9, Type 1, BuildingBlock: NAWXER_clean_linker_0, # of connection points: 4
#     Node 10, Type 1, BuildingBlock: NAWXER_clean_linker_0, # of connection points: 4
#     Node 11, Type 1, BuildingBlock: NAWXER_clean_linker_0, # of connection points: 4
#     Edge 12, Type (0, 1), BuildingBlock: EZIPEK_clean_linker_0, # of connection points: 2
#     Edge 13, Type (0, 1), BuildingBlock: EZIPEK_clean_linker_0, # of connection points: 2
#     Edge 14, Type (0, 1), BuildingBlock: EZIPEK_clean_linker_0, # of connection points: 2
#     Edge 15, Type (0, 1), BuildingBlock: EZIPEK_clean_linker_0, # of connection points: 2
#     Edge 16, Type (0, 1), BuildingBlock: EZIPEK_clean_linker_0, # of connection points: 2
#     Edge 17, Type (0, 1), BuildingBlock: EZIPEK_clean_linker_0, # of connection points: 2
#     Edge 18, Type (0, 1), BuildingBlock: EZIPEK_clean_linker_0, # of connection points: 2
#     Edge 19, Type (0, 1), BuildingBlock: EZIPEK_clean_linker_0, # of connection points: 2
#     Edge 20, Type (0, 1), BuildingBlock: EZIPEK_clean_linker_0, # of connection points: 2
#     Edge 21, Type (0, 1), BuildingBlock: EZIPEK_clean_linker_0, # of connection points: 2
#     Edge 22, Type (0, 1), BuildingBlock: EZIPEK_clean_linker_0, # of connection points: 2
#     Edge 23, Type (0, 1), BuildingBlock: EZIPEK_clean_linker_0, # of connection points: 2
#     Edge 24, Type (0, 1), BuildingBlock: EZIPEK_clean_linker_0, # of connection points: 2
#     Edge 25, Type (0, 1), BuildingBlock: EZIPEK_clean_linker_0, # of connection points: 2
#     Edge 26, Type (0, 1), BuildingBlock: EZIPEK_clean_linker_0, # of connection points: 2
#     Edge 27, Type (0, 1), BuildingBlock: EZIPEK_clean_linker_0, # of connection points: 2
#     Edge 28, Type (0, 1), BuildingBlock: EZIPEK_clean_linker_0, # of connection points: 2
#     Edge 29, Type (0, 1), BuildingBlock: EZIPEK_clean_linker_0, # of connection points: 2
#     Edge 30, Type (0, 1), BuildingBlock: EZIPEK_clean_linker_0, # of connection points: 2
#     Edge 31, Type (0, 1), BuildingBlock: EZIPEK_clean_linker_0, # of connection points: 2
#     Edge 32, Type (0, 1), BuildingBlock: EZIPEK_clean_linker_0, # of connection points: 2
#     Edge 33, Type (0, 1), BuildingBlock: EZIPEK_clean_linker_0, # of connection points: 2
#     Edge 34, Type (0, 1), BuildingBlock: EZIPEK_clean_linker_0, # of connection points: 2
#     Edge 35, Type (0, 1), BuildingBlock: EZIPEK_clean_linker_0, # of connection points: 2
# Relax obj value: 0.014
# Max RMSD: 0.030
# Mean RMSD: 0.028
data_MOF--net-ssa--node1-NAWXER_clean_sbu_0--node2-NAWXER_clean_linker_0--edge1-EZIPEK_clean_linker_0
_symmetry_space_group_name_H-M    P1
_symmetry_Int_Tables_number       1
_symmetry_cell_setting            triclinic
loop_
_symmetry_equiv_pos_as_xyz
'x, y, z'
_cell_length_a     44.408022
_cell_length_b     44.362872
_cell_length_c     30.665656
_cell_angle_alpha  89.827432
_cell_angle_beta   89.898216
_cell_angle_gamma 119.87154
loop_
_atom_site_label
_atom_site_type_symbol
_atom_site_fract_x
_atom_site_fract_y
_atom_site_fract_z
_atom_type_partial_charge
C0 C 0.03258 0.55234 0.06609 0.0
C1 C 0.96393 0.44647 0.98021 0.0
O2 O 0.00204 0.52774 0.07463 0.0
Zn3 Zn 0.99755 0.498 0.02568 0.0
O4 O 0.04803 0.55053 0.03174 0.0
Zn5 Zn 0.0374 0.51732 0.97662 0.0
O6 O 0.0359 0.54645 0.92957 0.0
O7 O 0.99104 0.52621 0.97434 0.0
O8 O 0.99278 0.46814 0.96212 0.0
O9 O 0.9565 0.45258 0.01806 0.0
O10 O 0.03842 0.48673 0.03688 0.0
O11 O 0.07455 0.50647 0.98069 0.0
C12 C 0.00673 0.54335 0.94006 0.0
C13 C 0.06616 0.49151 0.01777 0.0
C14 C 0.50809 0.04211 0.5237 0.0
C15 C 0.54636 0.96904 0.45005 0.0
O16 O 0.49849 0.01296 0.54284 0.0
Zn17 Zn 0.50333 0.96751 0.53429 0.0
O18 O 0.52542 0.04961 0.48828 0.0
Zn19 Zn 0.5274 0.007 0.48538 0.0
O20 O 0.47466 0.97024 0.47224 0.0
O21 O 0.45551 0.93071 0.52442 0.0
O22 O 0.55066 0.99825 0.43733 0.0
O23 O 0.53091 0.95646 0.48634 0.0
O24 O 0.5281 0.9691 0.58718 0.0
O25 O 0.55815 0.01337 0.54243 0.0
C26 C 0.45034 0.94202 0.48865 0.0
C27 C 0.55533 0.998 0.57898 0.0
C28 C 0.45989 0.43953 0.92311 0.0
C29 C 0.50689 0.54382 0.01303 0.0
O30 O 0.45657 0.46609 0.91721 0.0
Zn31 Zn 0.48264 0.49215 0.9679 0.0
O32 O 0.47512 0.43735 0.95744 0.0
Zn33 Zn 0.50056 0.46822 0.01347 0.0
O34 O 0.47061 0.44202 0.06263 0.0
O35 O 0.4484 0.46708 0.0219 0.0
O36 O 0.51176 0.52001 0.02954 0.0
O37 O 0.49183 0.53915 0.97638 0.0
O38 O 0.53392 0.50058 0.95543 0.0
O39 O 0.54684 0.47405 0.00697 0.0
C40 C 0.44698 0.44978 0.05612 0.0
C41 C 0.55529 0.49241 0.97235 0.0
C42 C 0.99581 0.53251 0.44066 0.0
C43 C 0.93634 0.42746 0.52936 0.0
O44 O 0.01373 0.5323 0.47318 0.0
Zn45 Zn 0.00935 0.49862 0.52566 0.0
O46 O 0.96575 0.50675 0.4336 0.0
Zn47 Zn 0.96556 0.47921 0.48293 0.0
O48 O 0.96441 0.50907 0.5372 0.0
O49 O 0.01215 0.52626 0.57615 0.0
O50 O 0.92561 0.43389 0.49404 0.0
O51 O 0.9666 0.44916 0.54369 0.0
O52 O 0.04648 0.48884 0.51165 0.0
O53 O 0.00447 0.46703 0.46395 0.0
C54 C 0.98333 0.52528 0.57003 0.0
C55 C 0.03371 0.47145 0.47696 0.0
C56 C 0.49068 0.9472 0.02024 0.0
C57 C 0.44433 0.01205 0.94446 0.0
O58 O 0.49506 0.97359 0.04243 0.0
Zn59 Zn 0.48213 0.01462 0.03512 0.0
O60 O 0.47478 0.94043 0.98404 0.0
Zn61 Zn 0.4644 0.97757 0.98472 0.0
O62 O 0.51537 0.02214 0.97581 0.0
O63 O 0.52776 0.05561 0.03406 0.0
O64 O 0.44003 0.9823 0.93508 0.0
O65 O 0.45851 0.02626 0.98076 0.0
O66 O 0.45241 0.00798 0.08451 0.0
O67 O 0.42949 0.96357 0.03936 0.0
C68 C 0.53622 0.04966 0.99679 0.0
C69 C 0.42827 0.97758 0.07535 0.0
C70 C 0.57329 0.55867 0.57372 0.0
C71 C 0.46937 0.52581 0.48717 0.0
O72 O 0.54918 0.56538 0.58173 0.0
Zn73 Zn 0.52031 0.54276 0.53098 0.0
O74 O 0.57203 0.54196 0.53926 0.0
Zn75 Zn 0.53797 0.51817 0.48616 0.0
O76 O 0.56557 0.54396 0.43552 0.0
O77 O 0.54866 0.57399 0.47592 0.0
O78 O 0.4892 0.51536 0.47093 0.0
O79 O 0.47726 0.54269 0.52279 0.0
O80 O 0.50059 0.48859 0.54324 0.0
O81 O 0.52481 0.46978 0.49664 0.0
C82 C 0.56364 0.57134 0.44156 0.0
C83 C 0.50481 0.46384 0.52929 0.0
C84 C 0.35134 0.47763 0.19321 0.0
C85 C 0.34344 0.44534 0.17543 0.0
C86 C 0.32642 0.48102 0.21738 0.0
C87 C 0.2931 0.45226 0.22369 0.0
C88 C 0.31051 0.41632 0.18323 0.0
C89 C 0.28537 0.41989 0.20657 0.0
C90 C 0.26559 0.45624 0.24563 0.0
C91 C 0.33862 0.46174 0.3519 0.0
C92 C 0.35294 0.49279 0.37568 0.0
C93 C 0.3112 0.45336 0.32312 0.0
C94 C 0.29807 0.47614 0.3176 0.0
C95 C 0.33971 0.51537 0.37051 0.0
C96 C 0.31237 0.50702 0.34182 0.0
C97 C 0.26805 0.46739 0.28913 0.0
C98 C 0.12459 0.43713 0.33152 0.0
C99 C 0.13271 0.46409 0.36136 0.0
C100 C 0.15031 0.43795 0.30427 0.0
C101 C 0.18464 0.46565 0.30666 0.0
C102 C 0.16677 0.4922 0.36297 0.0
C103 C 0.19257 0.49279 0.33615 0.0
C104 C 0.21309 0.46451 0.28272 0.0
C105 C 0.155 0.48256 0.17576 0.0
C106 C 0.14528 0.46038 0.13963 0.0
C107 C 0.17539 0.48023 0.20876 0.0
C108 C 0.18577 0.45501 0.20687 0.0
C109 C 0.1553 0.43501 0.13762 0.0
C110 C 0.17525 0.43228 0.17104 0.0
C111 C 0.21165 0.45563 0.23813 0.0
H112 H 0.37654 0.50035 0.18749 0.0
H113 H 0.3328 0.50629 0.23 0.0
H114 H 0.30392 0.3912 0.16987 0.0
H115 H 0.25978 0.39743 0.21103 0.0
H116 H 0.34861 0.44405 0.35576 0.0
H117 H 0.29992 0.42889 0.30586 0.0
H118 H 0.35058 0.53943 0.38868 0.0
H119 H 0.30243 0.5248 0.3384 0.0
H120 H 0.09845 0.41515 0.32993 0.0
H121 H 0.14367 0.41631 0.28257 0.0
H122 H 0.17352 0.51323 0.38572 0.0
H123 H 0.21892 0.51427 0.33889 0.0
H124 H 0.14789 0.50262 0.17757 0.0
H125 H 0.18434 0.49936 0.23449 0.0
H126 H 0.14831 0.41788 0.10977 0.0
H127 H 0.18333 0.41299 0.16825 0.0
N128 N 0.23771 0.45119 0.2217 0.0
N129 N 0.24154 0.47063 0.30602 0.0
C130 C 0.87984 0.31647 0.84057 0.0
C131 C 0.86874 0.33234 0.87127 0.0
C132 C 0.85555 0.28935 0.8145 0.0
C133 C 0.81992 0.27795 0.8188 0.0
C134 C 0.8333 0.32119 0.87527 0.0
C135 C 0.80911 0.29414 0.84947 0.0
C136 C 0.79324 0.2472 0.79496 0.0
C137 C 0.84708 0.32698 0.68978 0.0
C138 C 0.85776 0.31649 0.65252 0.0
C139 C 0.82728 0.30283 0.722 0.0
C140 C 0.81881 0.26783 0.71848 0.0
C141 C 0.84913 0.28159 0.64854 0.0
C142 C 0.83003 0.25755 0.68135 0.0
C143 C 0.79441 0.24108 0.74982 0.0
C144 C 0.65805 0.12395 0.70176 0.0
C145 C 0.66393 0.09668 0.69004 0.0
C146 C 0.68326 0.15271 0.72457 0.0
C147 C 0.71494 0.1549 0.73548 0.0
C148 C 0.69532 0.09849 0.70211 0.0
C149 C 0.72089 0.12771 0.72399 0.0
C150 C 0.74225 0.18611 0.75751 0.0
C151 C 0.66838 0.11673 0.8633 0.0
C152 C 0.65472 0.13355 0.88839 0.0
C153 C 0.69593 0.13587 0.83443 0.0
C154 C 0.70973 0.17194 0.83004 0.0
C155 C 0.66872 0.16953 0.88441 0.0
C156 C 0.69599 0.18854 0.85552 0.0
C157 C 0.73986 0.19354 0.80159 0.0
H158 H 0.90719 0.32492 0.83707 0.0
H159 H 0.86449 0.27683 0.79179 0.0
H160 H 0.82436 0.33331 0.89865 0.0
H161 H 0.7818 0.2857 0.85364 0.0
H162 H 0.85307 0.35371 0.69316 0.0
H163 H 0.81749 0.31148 0.74862 0.0
H164 H 0.85684 0.27292 0.61982 0.0
H165 H 0.82333 0.23067 0.67721 0.0
H166 H 0.63402 0.12305 0.69288 0.0
H167 H 0.6783 0.17354 0.73307 0.0
H168 H 0.70028 0.07767 0.69367 0.0
H169 H 0.74524 0.12903 0.73218 0.0
H170 H 0.65781 0.08892 0.86623 0.0
H171 H 0.70681 0.1226 0.81639 0.0
H172 H 0.65836 0.18281 0.90355 0.0
H173 H 0.70636 0.21637 0.85297 0.0
N174 N 0.76568 0.22346 0.81855 0.0
N175 N 0.76915 0.21033 0.73317 0.0
C176 C 0.57353 0.67891 0.1476 0.0
C177 C 0.54293 0.66235 0.12297 0.0
C178 C 0.5802 0.70727 0.17395 0.0
C179 C 0.55614 0.71908 0.17621 0.0
C180 C 0.51888 0.67397 0.12538 0.0
C181 C 0.52548 0.70216 0.15166 0.0
C182 C 0.56372 0.75084 0.20046 0.0
C183 C 0.55009 0.67547 0.30827 0.0
C184 C 0.58225 0.6807 0.32316 0.0
C185 C 0.54834 0.70035 0.28197 0.0
C186 C 0.57867 0.73124 0.27061 0.0
C187 C 0.61272 0.7114 0.31112 0.0
C188 C 0.61086 0.73677 0.28566 0.0
C189 C 0.57622 0.75767 0.2436 0.0
C190 C 0.54929 0.87144 0.29693 0.0
C191 C 0.5766 0.88902 0.32648 0.0
C192 C 0.54922 0.84694 0.26849 0.0
C193 C 0.57697 0.84015 0.26818 0.0
C194 C 0.60466 0.88283 0.32596 0.0
C195 C 0.60483 0.85856 0.29697 0.0
C196 C 0.57489 0.811 0.24219 0.0
C197 C 0.56805 0.88024 0.1352 0.0
C198 C 0.53699 0.8639 0.11037 0.0
C199 C 0.57631 0.86139 0.165 0.0
C200 C 0.55295 0.82613 0.17265 0.0
C201 C 0.51205 0.8298 0.1236 0.0
C202 C 0.52036 0.81091 0.15278 0.0
C203 C 0.5623 0.80392 0.1989 0.0
H204 H 0.59229 0.67011 0.14603 0.0
H205 H 0.60451 0.72049 0.19146 0.0
H206 H 0.49508 0.6613 0.10669 0.0
H207 H 0.50666 0.71092 0.1526 0.0
H208 H 0.52627 0.65204 0.31705 0.0
H209 H 0.52323 0.69567 0.27087 0.0
H210 H 0.63781 0.71588 0.32198 0.0
H211 H 0.63454 0.76044 0.27721 0.0
H212 H 0.52706 0.87532 0.29756 0.0
H213 H 0.52652 0.83207 0.24848 0.0
H214 H 0.62564 0.8957 0.34911 0.0
H215 H 0.62622 0.85338 0.29795 0.0
H216 H 0.58634 0.90768 0.13236 0.0
H217 H 0.6012 0.87421 0.18134 0.0
H218 H 0.48563 0.81702 0.11218 0.0
H219 H 0.5011 0.78416 0.15997 0.0
N220 N 0.55725 0.77416 0.18004 0.0
N221 N 0.58143 0.78754 0.26283 0.0
C222 C 0.91483 0.6004 0.69497 0.0
C223 C 0.90395 0.57129 0.66805 0.0
C224 C 0.89031 0.60581 0.71698 0.0
C225 C 0.85462 0.58187 0.71297 0.0
C226 C 0.86831 0.54835 0.66231 0.0
C227 C 0.84382 0.55366 0.6845 0.0
C228 C 0.82867 0.5837 0.74166 0.0
C229 C 0.88669 0.54633 0.82671 0.0
C230 C 0.91445 0.5758 0.8457 0.0
C231 C 0.85914 0.54841 0.80812 0.0
C232 C 0.85884 0.57986 0.80879 0.0
C233 C 0.9145 0.60749 0.84543 0.0
C234 C 0.88654 0.60937 0.82762 0.0
C235 C 0.83049 0.58221 0.78741 0.0
C236 C 0.68788 0.51832 0.84688 0.0
C237 C 0.68396 0.54119 0.87486 0.0
C238 C 0.7172 0.53038 0.82019 0.0
C239 C 0.7436 0.56528 0.82179 0.0
C240 C 0.71056 0.57616 0.87664 0.0
C241 C 0.74051 0.58796 0.85088 0.0
C242 C 0.77473 0.57709 0.79401 0.0
C243 C 0.70131 0.59939 0.71947 0.0
C244 C 0.68838 0.57999 0.68117 0.0
C245 C 0.72923 0.59995 0.74126 0.0
C246 C 0.74405 0.5804 0.72566 0.0
C247 C 0.70373 0.56126 0.66491 0.0
C248 C 0.73136 0.56154 0.68688 0.0
C249 C 0.77367 0.58063 0.74826 0.0
H250 H 0.94225 0.61843 0.69961 0.0
H251 H 0.89922 0.62813 0.73813 0.0
H252 H 0.8595 0.52579 0.64157 0.0
H253 H 0.81649 0.53483 0.68098 0.0
H254 H 0.88623 0.52168 0.82672 0.0
H255 H 0.83803 0.52553 0.79323 0.0
H256 H 0.93575 0.63045 0.85997 0.0
H257 H 0.88677 0.6339 0.82783 0.0
H258 H 0.66782 0.49125 0.84508 0.0
H259 H 0.7194 0.51239 0.79838 0.0
H260 H 0.70809 0.59426 0.89791 0.0
H261 H 0.76086 0.61489 0.85288 0.0
H262 H 0.68975 0.61399 0.73244 0.0
H263 H 0.73944 0.61598 0.76994 0.0
H264 H 0.69393 0.54601 0.63547 0.0
H265 H 0.74251 0.54656 0.67387 0.0
N266 N 0.80037 0.58298 0.72368 0.0
N267 N 0.80327 0.5783 0.81199 0.0
C268 C 0.1343 0.66812 0.20768 0.0
C269 C 0.11151 0.67119 0.17884 0.0
C270 C 0.1564 0.69603 0.23389 0.0
C271 C 0.15628 0.72759 0.23152 0.0
C272 C 0.11121 0.70272 0.17651 0.0
C273 C 0.13383 0.73096 0.20237 0.0
C274 C 0.17925 0.75631 0.26068 0.0
C275 C 0.0845 0.68217 0.33091 0.0
C276 C 0.08989 0.66065 0.35952 0.0
C277 C 0.11276 0.71282 0.31527 0.0
C278 C 0.14683 0.72201 0.32733 0.0
C279 C 0.12372 0.6705 0.37314 0.0
C280 C 0.15203 0.70109 0.35728 0.0
C281 C 0.17696 0.75199 0.30633 0.0
C282 C 0.30577 0.881 0.37029 0.0
C283 C 0.32046 0.86475 0.39471 0.0
C284 C 0.27666 0.86117 0.3442 0.0
C285 C 0.26179 0.82485 0.34252 0.0
C286 C 0.30506 0.82846 0.39395 0.0
C287 C 0.27575 0.80864 0.36836 0.0
C288 C 0.23206 0.80328 0.31372 0.0
C289 C 0.32072 0.86135 0.21463 0.0
C290 C 0.31746 0.888 0.19427 0.0
C291 C 0.29374 0.83647 0.24045 0.0
C292 C 0.26298 0.83765 0.24578 0.0
C293 C 0.28715 0.8899 0.20108 0.0
C294 C 0.25987 0.86455 0.22612 0.0
C295 C 0.23292 0.80903 0.26825 0.0
H296 H 0.13507 0.64413 0.20972 0.0
H297 H 0.17371 0.69304 0.25608 0.0
H298 H 0.09384 0.70553 0.15427 0.0
H299 H 0.13339 0.75511 0.20024 0.0
H300 H 0.05853 0.67494 0.32026 0.0
H301 H 0.10807 0.72897 0.29291 0.0
H302 H 0.1282 0.65408 0.3953 0.0
H303 H 0.17803 0.70769 0.36704 0.0
H304 H 0.31744 0.90903 0.37052 0.0
H305 H 0.26593 0.87416 0.32517 0.0
H306 H 0.31614 0.81557 0.41253 0.0
H307 H 0.26462 0.78067 0.36768 0.0
H308 H 0.34389 0.85945 0.20982 0.0
H309 H 0.29639 0.81565 0.25507 0.0
H310 H 0.28422 0.91033 0.1858 0.0
H311 H 0.23616 0.86566 0.2297 0.0
N312 N 0.20678 0.78497 0.24323 0.0
N313 N 0.20387 0.77508 0.33121 0.0
C314 C 0.41064 0.09962 0.79084 0.0
C315 C 0.43406 0.10828 0.82555 0.0
C316 C 0.41151 0.12574 0.76412 0.0
C317 C 0.43583 0.1609 0.77169 0.0
C318 C 0.45815 0.14337 0.83338 0.0
C319 C 0.45884 0.16947 0.80688 0.0
C320 C 0.43645 0.18892 0.74436 0.0
C321 C 0.49421 0.15796 0.6433 0.0
C322 C 0.46887 0.12778 0.6226 0.0
C323 C 0.48445 0.17728 0.66952 0.0
C324 C 0.44929 0.16701 0.67489 0.0
C325 C 0.43359 0.11733 0.62821 0.0
C326 C 0.42387 0.13721 0.65371 0.0
C327 C 0.44015 0.19004 0.69856 0.0
C328 C 0.48296 0.33573 0.65268 0.0
C329 C 0.4606 0.3327 0.61854 0.0
C330 C 0.47615 0.30679 0.67799 0.0
C331 C 0.44693 0.27429 0.66948 0.0
C332 C 0.4315 0.30013 0.60976 0.0
C333 C 0.42498 0.27099 0.63472 0.0
C334 C 0.44016 0.24367 0.69603 0.0
C335 C 0.41308 0.31065 0.77643 0.0
C336 C 0.43618 0.3265 0.81111 0.0
C337 C 0.4127 0.28302 0.75409 0.0
C338 C 0.43533 0.27087 0.76627 0.0
C339 C 0.45826 0.31395 0.82384 0.0
C340 C 0.45771 0.28622 0.80173 0.0
C341 C 0.43635 0.24268 0.74182 0.0
H342 H 0.39173 0.07269 0.78451 0.0
H343 H 0.39275 0.11848 0.73812 0.0
H344 H 0.47635 0.15052 0.8601 0.0
H345 H 0.47759 0.19639 0.81364 0.0
H346 H 0.52154 0.16642 0.63927 0.0
H347 H 0.50438 0.20067 0.68498 0.0
H348 H 0.41372 0.09409 0.61245 0.0
H349 H 0.39666 0.1295 0.65671 0.0
H350 H 0.50544 0.36065 0.66009 0.0
H351 H 0.49375 0.30975 0.70418 0.0
H352 H 0.41379 0.29737 0.58381 0.0
H353 H 0.40248 0.24604 0.6275 0.0
H354 H 0.39553 0.31974 0.76667 0.0
H355 H 0.39472 0.27112 0.72736 0.0
H356 H 0.47592 0.32569 0.85092 0.0
H357 H 0.47527 0.27719 0.81177 0.0
N358 N 0.43489 0.21547 0.76436 0.0
N359 N 0.44202 0.21738 0.67616 0.0
C360 C 0.1238 0.50662 0.05143 0.0
C361 C 0.08896 0.48138 0.04136 0.0
C362 C 0.09147 0.44086 0.0939 0.0
C363 C 0.12662 0.46565 0.10274 0.0
N364 N 0.17895 0.51749 0.08055 0.0
N365 N 0.04314 0.42159 0.04388 0.0
C366 C 0.14367 0.497 0.07829 0.0
C367 C 0.07396 0.4475 0.05966 0.0
N368 N 0.13727 0.5404 0.03825 0.0
N369 N 0.07423 0.41189 0.11953 0.0
H370 H 0.03022 0.42553 0.01801 0.0
H371 H 0.03235 0.39564 0.05322 0.0
H372 H 0.08601 0.40621 0.14516 0.0
H373 H 0.04756 0.39495 0.11762 0.0
H374 H 0.16104 0.56044 0.04921 0.0
H375 H 0.12362 0.54924 0.01961 0.0
H376 H 0.19311 0.5389 0.06023 0.0
H377 H 0.19439 0.51099 0.09953 0.0
C378 C 0.57568 0.02349 0.65444 0.0
C379 C 0.58327 0.0163 0.61185 0.0
C380 C 0.64447 0.06054 0.62131 0.0
C381 C 0.63721 0.06669 0.66446 0.0
N382 N 0.59816 0.04665 0.72608 0.0
N383 N 0.62646 0.02024 0.56091 0.0
C384 C 0.60353 0.04562 0.68235 0.0
C385 C 0.61828 0.03225 0.59746 0.0
N386 N 0.54216 0.01166 0.66739 0.0
N387 N 0.67549 0.08287 0.6019 0.0
H388 H 0.6079 0.99893 0.54339 0.0
H389 H 0.65194 0.0289 0.55094 0.0
H390 H 0.69504 0.10475 0.61737 0.0
H391 H 0.68051 0.08155 0.56896 0.0
H392 H 0.53575 0.01985 0.69599 0.0
H393 H 0.52066 0.99636 0.64809 0.0
H394 H 0.57487 0.02948 0.74154 0.0
H395 H 0.61811 0.06222 0.74752 0.0
C396 C 0.49755 0.57054 0.07936 0.0
C397 C 0.51562 0.57489 0.03951 0.0
C398 C 0.55113 0.63736 0.05335 0.0
C399 C 0.53525 0.63219 0.09504 0.0
N400 N 0.49816 0.59316 0.15126 0.0
N401 N 0.56266 0.61113 0.99081 0.0
C402 C 0.50992 0.59852 0.10912 0.0
C403 C 0.54326 0.60799 0.027 0.0
N404 N 0.46756 0.54015 0.08784 0.0
N405 N 0.57291 0.67034 0.03849 0.0
H406 H 0.55729 0.59022 0.97052 0.0
H407 H 0.5855 0.6338 0.98267 0.0
H408 H 0.57968 0.69242 0.05716 0.0
H409 H 0.58227 0.67598 0.00662 0.0
H410 H 0.45147 0.53658 0.11444 0.0
H411 H 0.45671 0.51972 0.06573 0.0
H412 H 0.48249 0.56854 0.16465 0.0
H413 H 0.50668 0.61313 0.1741 0.0
C414 C 0.95238 0.52359 0.63919 0.0
C415 C 0.97021 0.54168 0.60086 0.0
C416 C 0.94771 0.58184 0.60899 0.0
C417 C 0.92965 0.56362 0.64719 0.0
N418 N 0.92144 0.52308 0.70478 0.0
N419 N 0.99239 0.5926 0.55542 0.0
C420 C 0.93422 0.5364 0.66432 0.0
C421 C 0.97034 0.5724 0.58784 0.0
N422 N 0.95134 0.49322 0.6503 0.0
N423 N 0.94192 0.60695 0.59173 0.0
H424 H 0.00934 0.58623 0.53969 0.0
H425 H 0.99623 0.61701 0.54694 0.0
H426 H 0.92584 0.61483 0.60656 0.0
H427 H 0.95116 0.61835 0.56131 0.0
H428 H 0.93525 0.47649 0.67463 0.0
H429 H 0.96525 0.48367 0.63344 0.0
H430 H 0.92688 0.5057 0.721 0.0
H431 H 0.90786 0.53179 0.7239 0.0
C432 C 0.36481 0.93907 0.09194 0.0
C433 C 0.39963 0.95726 0.1069 0.0
C434 C 0.37917 0.93521 0.1809 0.0
C435 C 0.34535 0.91304 0.16448 0.0
N436 N 0.30767 0.88907 0.10204 0.0
N437 N 0.44054 0.96635 0.16452 0.0
C438 C 0.33854 0.91369 0.11934 0.0
C439 C 0.40705 0.95387 0.15119 0.0
N440 N 0.35656 0.94667 0.05204 0.0
N441 N 0.38462 0.9389 0.22489 0.0
H442 H 0.46187 0.9784 0.14362 0.0
H443 H 0.44689 0.96132 0.19536 0.0
H444 H 0.3647 0.92608 0.24768 0.0
H445 H 0.40813 0.95729 0.23856 0.0
H446 H 0.33107 0.93649 0.04135 0.0
H447 H 0.37486 0.966 0.03166 0.0
H448 H 0.30293 0.88631 0.06861 0.0
H449 H 0.28808 0.86919 0.12052 0.0
C450 C 0.47944 0.42477 0.59758 0.0
C451 C 0.48737 0.42889 0.55171 0.0
C452 C 0.4755 0.36853 0.54928 0.0
C453 C 0.46684 0.3644 0.59418 0.0
N454 N 0.44894 0.38438 0.65662 0.0
N455 N 0.47731 0.39878 0.48292 0.0
C456 C 0.46508 0.39119 0.61683 0.0
C457 C 0.48065 0.39895 0.5272 0.0
N458 N 0.48675 0.45235 0.62403 0.0
N459 N 0.47992 0.34408 0.52779 0.0
H460 H 0.47716 0.41908 0.46588 0.0
H461 H 0.46984 0.37665 0.46409 0.0
H462 H 0.47681 0.32159 0.54284 0.0
H463 H 0.48969 0.34777 0.49609 0.0
H464 H 0.48649 0.4505 0.65794 0.0
H465 H 0.49527 0.47762 0.61397 0.0
H466 H 0.44343 0.40179 0.67257 0.0
H467 H 0.43763 0.35994 0.67149 0.0
C468 C 0.58765 0.96518 0.39632 0.0
C469 C 0.55672 0.94821 0.42187 0.0
C470 C 0.54639 0.89219 0.39332 0.0
C471 C 0.57277 0.90976 0.36179 0.0
N472 N 0.6172 0.96361 0.33051 0.0
N473 N 0.50295 0.8941 0.4378 0.0
C474 C 0.5932 0.94648 0.36255 0.0
C475 C 0.53518 0.91127 0.41894 0.0
N476 N 0.61249 0.99856 0.40553 0.0
N477 N 0.53206 0.8571 0.39905 0.0
H478 H 0.49174 0.90577 0.45572 0.0
H479 H 0.48529 0.86804 0.4316 0.0
H480 H 0.53989 0.84221 0.38113 0.0
H481 H 0.51527 0.84357 0.42476 0.0
H482 H 0.6367 0.01105 0.39024 0.0
H483 H 0.61066 0.01226 0.432 0.0
H484 H 0.63014 0.99055 0.32687 0.0
H485 H 0.62221 0.95071 0.30562 0.0
C486 C 0.62106 0.5207 0.97084 0.0
C487 C 0.5886 0.50282 0.94912 0.0
C488 C 0.61895 0.51405 0.87899 0.0
C489 C 0.65131 0.52851 0.90085 0.0
N490 N 0.68222 0.53832 0.9688 0.0
N491 N 0.55749 0.47345 0.88396 0.0
C492 C 0.65214 0.52973 0.94721 0.0
C493 C 0.58779 0.49683 0.90359 0.0
N494 N 0.62255 0.53047 0.01333 0.0
N495 N 0.61778 0.51782 0.83487 0.0
H496 H 0.5345 0.45859 0.90135 0.0
H497 H 0.55633 0.46581 0.85161 0.0
H498 H 0.63997 0.5317 0.81568 0.0
H499 H 0.59471 0.51042 0.81819 0.0
H500 H 0.64582 0.54668 0.02921 0.0
H501 H 0.60058 0.52514 0.03152 0.0
H502 H 0.6834 0.53628 1.00254 0.0
H503 H 0.70524 0.54413 0.95278 0.0
C504 C 0.0115 0.59332 0.42376 0.0
C505 C 0.01174 0.56282 0.41115 0.0
C506 C 0.05615 0.59571 0.35597 0.0
C507 C 0.06034 0.62695 0.37413 0.0
N508 N 0.04287 0.65631 0.42584 0.0
N509 N 0.03339 0.53375 0.36544 0.0
C510 C 0.03783 0.62603 0.4077 0.0
C511 C 0.03341 0.56355 0.37673 0.0
N512 N 0.98608 0.59079 0.45124 0.0
N513 N 0.07378 0.59692 0.3188 0.0
H514 H 0.0158 0.50953 0.37864 0.0
H515 H 0.05164 0.53318 0.34461 0.0
H516 H 0.09078 0.62018 0.30298 0.0
H517 H 0.06942 0.57493 0.30158 0.0
H518 H 0.98245 0.61161 0.45888 0.0
H519 H 0.96659 0.56693 0.4633 0.0
H520 H 0.02994 0.65726 0.45369 0.0
H521 H 0.06174 0.68078 0.41471 0.0
C522 C 0.45853 0.04376 0.87246 0.0
C523 C 0.43813 0.03292 0.91129 0.0
C524 C 0.41424 0.07091 0.89331 0.0
C525 C 0.43365 0.08068 0.85383 0.0
N526 N 0.46918 0.07194 0.80164 0.0
N527 N 0.39224 0.03111 0.95505 0.0
C528 C 0.45406 0.06553 0.84204 0.0
C529 C 0.41469 0.04505 0.92063 0.0
N530 N 0.48388 0.03526 0.86592 0.0
N531 N 0.39606 0.08701 0.90517 0.0
H532 H 0.39184 0.012 0.97534 0.0
H533 H 0.37213 0.03614 0.96138 0.0
H534 H 0.39401 0.10499 0.88521 0.0
H535 H 0.38471 0.08421 0.93573 0.0
H536 H 0.5024 0.04595 0.84119 0.0
H537 H 0.48867 0.01991 0.88741 0.0
H538 H 0.48102 0.05861 0.7891 0.0
H539 H 0.46752 0.08868 0.77906 0.0
C540 C 0.44437 0.53782 0.4214 0.0
C541 C 0.43883 0.52015 0.4618 0.0
C542 C 0.37627 0.48744 0.44802 0.0
C543 C 0.38243 0.50221 0.40555 0.0
N544 N 0.42241 0.53802 0.34923 0.0
N545 N 0.4006 0.47587 0.51248 0.0
C546 C 0.41652 0.52655 0.39152 0.0
C547 C 0.40502 0.49448 0.47505 0.0
N548 N 0.4761 0.56602 0.41218 0.0
N549 N 0.34295 0.46725 0.46271 0.0
H550 H 0.42101 0.48088 0.53349 0.0
H551 H 0.37723 0.45407 0.52133 0.0
H552 H 0.32129 0.46111 0.44349 0.0
H553 H 0.33669 0.45873 0.49485 0.0
H554 H 0.481 0.58202 0.38508 0.0
H555 H 0.4968 0.57552 0.43396 0.0
H556 H 0.44713 0.55266 0.33576 0.0
H557 H 0.40259 0.53057 0.32638 0.0
C558 C 0.92431 0.42336 0.91607 0.0
C559 C 0.93813 0.41662 0.95424 0.0
C560 C 0.90521 0.35407 0.93908 0.0
C561 C 0.89403 0.36128 0.89898 0.0
N562 N 0.89699 0.40276 0.84575 0.0
N563 N 0.94539 0.37642 0.99988 0.0
C564 C 0.90484 0.39597 0.88641 0.0
C565 C 0.92948 0.38216 0.96529 0.0
N566 N 0.92851 0.45571 0.90916 0.0
N567 N 0.89198 0.32038 0.9525 0.0
H568 H 0.9627 0.3963 0.02024 0.0
H569 H 0.94331 0.35246 0.00673 0.0
H570 H 0.87495 0.2992 0.93359 0.0
H571 H 0.896 0.3134 0.98348 0.0
H572 H 0.91629 0.4615 0.88423 0.0
H573 H 0.94139 0.47607 0.93105 0.0
H574 H 0.90743 0.42773 0.83282 0.0
H575 H 0.88233 0.38329 0.82331 0.0
C576 C 0.98414 0.55194 0.86773 0.0
C577 C 0.98915 0.5581 0.91339 0.0
C578 C 0.94528 0.57625 0.91431 0.0
C579 C 0.94219 0.57258 0.86843 0.0
N580 N 0.96502 0.56559 0.80023 0.0
N581 N 0.98123 0.58548 0.97715 0.0
C582 C 0.96384 0.56336 0.8447 0.0
C583 C 0.97202 0.57346 0.93558 0.0
N584 N 0.99624 0.53293 0.84673 0.0
N585 N 0.92139 0.58016 0.93815 0.0
H586 H 1.0006 0.58391 0.9942 0.0
H587 H 0.97206 0.60011 0.99296 0.0
H588 H 0.90042 0.58105 0.92432 0.0
H589 H 0.92034 0.57896 0.9721 0.0
H590 H 0.98972 0.52454 0.81465 0.0
H591 H 0.00994 0.52259 0.86214 0.0
H592 H 0.98265 0.56215 0.78144 0.0
H593 H 0.95076 0.5743 0.78251 0.0
C594 C 0.38486 0.91228 0.48644 0.0
C595 C 0.41687 0.92258 0.4647 0.0
C596 C 0.3854 0.89921 0.39587 0.0
C597 C 0.35348 0.88572 0.41872 0.0
N598 N 0.32211 0.87585 0.48629 0.0
N599 N 0.44725 0.92168 0.39933 0.0
C600 C 0.35301 0.89114 0.46423 0.0
C601 C 0.41707 0.91514 0.41949 0.0
N602 N 0.38485 0.92439 0.52739 0.0
N603 N 0.38551 0.8971 0.35135 0.0
H604 H 0.47139 0.93393 0.41433 0.0
H605 H 0.44816 0.91246 0.36845 0.0
H606 H 0.36295 0.88406 0.33282 0.0
H607 H 0.40782 0.91053 0.33234 0.0
H608 H 0.36249 0.9208 0.54313 0.0
H609 H 0.40752 0.94106 0.54414 0.0
H610 H 0.32028 0.87529 0.52018 0.0
H611 H 0.29818 0.8616 0.47081 0.0
C612 C 0.46272 0.41826 0.84778 0.0
C613 C 0.44759 0.41119 0.89026 0.0
C614 C 0.41904 0.3483 0.87634 0.0
C615 C 0.43665 0.35548 0.83578 0.0
N616 N 0.46848 0.39568 0.77789 0.0
N617 N 0.40972 0.37037 0.94436 0.0
C618 C 0.4562 0.39003 0.81983 0.0
C619 C 0.42488 0.37637 0.90405 0.0
N620 N 0.48545 0.45178 0.83544 0.0
N621 N 0.39623 0.31453 0.88767 0.0
H622 H 0.4116 0.39035 0.96387 0.0
H623 H 0.39581 0.34611 0.95915 0.0
H624 H 0.39126 0.29354 0.86774 0.0
H625 H 0.38053 0.3069 0.91529 0.0
H626 H 0.50055 0.45863 0.80729 0.0
H627 H 0.49117 0.47329 0.85459 0.0
H628 H 0.47958 0.41967 0.76217 0.0
H629 H 0.4654 0.3757 0.75726 0.0
C630 C 0.04867 0.45686 0.40292 0.0
C631 C 0.05426 0.46024 0.44879 0.0
C632 C 0.10752 0.45693 0.43718 0.0
C633 C 0.10564 0.46235 0.39175 0.0
N634 N 0.07613 0.47218 0.3321 0.0
N635 N 0.08552 0.45544 0.5102 0.0
C636 C 0.07672 0.4637 0.37484 0.0
C637 C 0.08279 0.45795 0.46616 0.0
N638 N 0.01624 0.44448 0.38591 0.0
N639 N 0.13195 0.44932 0.45224 0.0
H640 H 0.06483 0.44913 0.53144 0.0
H641 H 0.10797 0.45912 0.52561 0.0
H642 H 0.1499 0.44766 0.43187 0.0
H643 H 0.13293 0.44196 0.48422 0.0
H644 H 0.01111 0.44007 0.35267 0.0
H645 H 0.9938 0.43268 0.40492 0.0
H646 H 0.05698 0.4768 0.31956 0.0
H647 H 0.09643 0.47796 0.31039 0.0
C648 C 0.60095 0.08072 0.98609 0.0
C649 C 0.568 0.07587 0.97432 0.0
C650 C 0.59175 0.10793 0.90627 0.0
C651 C 0.62498 0.11358 0.91821 0.0
N652 N 0.66313 0.11153 0.97256 0.0
N653 N 0.53429 0.09346 0.93082 0.0
C654 C 0.6302 0.10181 0.95914 0.0
C655 C 0.56412 0.09216 0.93668 0.0
N656 N 0.60402 0.06442 0.02227 0.0
N657 N 0.58625 0.11642 0.86529 0.0
H658 H 0.51408 0.08324 0.95354 0.0
H659 H 0.53112 0.1078 0.90611 0.0
H660 H 0.60583 0.12784 0.84179 0.0
H661 H 0.56169 0.10939 0.85331 0.0
H662 H 0.62625 0.06322 0.02975 0.0
H663 H 0.58353 0.05065 0.04403 0.0
H664 H 0.66903 0.10676 0.00375 0.0
H665 H 0.68507 0.12672 0.95345 0.0
C666 C 0.56194 0.59166 0.36469 0.0
C667 C 0.57522 0.59931 0.40792 0.0
C668 C 0.59501 0.66111 0.3952 0.0
C669 C 0.58342 0.65369 0.35132 0.0
N670 N 0.56532 0.61349 0.29127 0.0
N671 N 0.61277 0.64232 0.4597 0.0
C672 C 0.57009 0.61946 0.33508 0.0
C673 C 0.59462 0.63445 0.42154 0.0
N674 N 0.53937 0.55821 0.35256 0.0
N675 N 0.60428 0.69282 0.41277 0.0
H676 H 0.61356 0.62339 0.47919 0.0
H677 H 0.62984 0.66771 0.46948 0.0
H678 H 0.60384 0.71278 0.39531 0.0
H679 H 0.60929 0.69821 0.44586 0.0
H680 H 0.52588 0.55197 0.32317 0.0
H681 H 0.53141 0.53686 0.37314 0.0
H682 H 0.55865 0.58959 0.27729 0.0
H683 H 0.57159 0.63335 0.26859 0.0
C684 C 0.51205 0.07596 0.59003 0.0
C685 C 0.50129 0.06765 0.54608 0.0
C686 C 0.47349 0.10335 0.55025 0.0
C687 C 0.4796 0.10682 0.59594 0.0
N688 N 0.4988 0.09018 0.66074 0.0
N689 N 0.46794 0.06989 0.48537 0.0
C690 C 0.49726 0.09138 0.61628 0.0
C691 C 0.48109 0.08052 0.52624 0.0
N692 N 0.53741 0.07025 0.60629 0.0
N693 N 0.46145 0.12258 0.52959 0.0
H694 H 0.47292 0.05319 0.4668 0.0
H695 H 0.44991 0.07545 0.47132 0.0
H696 H 0.45616 0.14002 0.54595 0.0
H697 H 0.45982 0.12364 0.49579 0.0
H698 H 0.54844 0.07879 0.63695 0.0
H699 H 0.55029 0.06083 0.58711 0.0
H700 H 0.50848 0.07615 0.677 0.0
H701 H 0.48718 0.10009 0.68142 0.0
C702 C 0.38491 0.43024 0.07482 0.0
C703 C 0.41948 0.44268 0.08927 0.0
C704 C 0.4016 0.44946 0.16288 0.0
C705 C 0.36895 0.44255 0.14637 0.0
N706 N 0.33213 0.43269 0.08387 0.0
N707 N 0.46213 0.47087 0.14638 0.0
C708 C 0.36118 0.43444 0.10162 0.0
C709 C 0.42824 0.45377 0.1333 0.0
N710 N 0.37455 0.41396 0.03553 0.0
N711 N 0.40714 0.45166 0.20685 0.0
H712 H 0.48292 0.47627 0.12586 0.0
H713 H 0.46991 0.48288 0.17665 0.0
H714 H 0.38811 0.44832 0.22946 0.0
H715 H 0.42928 0.45331 0.22084 0.0
H716 H 0.34882 0.40141 0.02513 0.0
H717 H 0.39106 0.40974 0.01565 0.0
H718 H 0.3273 0.43056 0.05045 0.0
H719 H 0.3146 0.43694 0.10173 0.0
C720 C 0.88015 0.38785 0.56868 0.0
C721 C 0.91405 0.39582 0.55561 0.0
C722 C 0.91133 0.35163 0.60626 0.0
C723 C 0.87656 0.34201 0.61691 0.0
N724 N 0.82492 0.34441 0.59879 0.0
N725 N 0.9579 0.37884 0.55329 0.0
C726 C 0.86 0.35801 0.595 0.0
C727 C 0.92838 0.37563 0.57169 0.0
N728 N 0.86788 0.40982 0.55869 0.0
N729 N 0.92874 0.3393 0.63043 0.0
H730 H 0.97042 0.3953 0.52686 0.0
H731 H 0.96772 0.36252 0.56108 0.0
H732 H 0.91754 0.32232 0.65673 0.0
H733 H 0.95525 0.34843 0.62692 0.0
H734 H 0.84486 0.40693 0.57163 0.0
H735 H 0.8821 0.43287 0.54119 0.0
H736 H 0.81113 0.35315 0.58021 0.0
H737 H 0.80916 0.32207 0.617 0.0
C738 C 0.4823 0.88841 0.04024 0.0
C739 C 0.50452 0.92489 0.03657 0.0
C740 C 0.55313 0.91765 0.0617 0.0
C741 C 0.52901 0.88308 0.0747 0.0
N742 N 0.48207 0.83418 0.03844 0.0
N743 N 0.56287 0.97407 0.03844 0.0
C744 C 0.4965 0.86746 0.05316 0.0
C745 C 0.54055 0.93953 0.0457 0.0
N746 N 0.44745 0.87352 0.03309 0.0
N747 N 0.58734 0.9273 0.05716 0.0
H748 H 0.55552 0.99008 0.02229 0.0
H749 H 0.58835 0.98691 0.04977 0.0
H750 H 0.59581 0.90928 0.06038 0.0
H751 H 0.60599 0.9511 0.04419 0.0
H752 H 0.43035 0.8472 0.03908 0.0
H753 H 0.43532 0.88778 0.02526 0.0
H754 H 0.45982 0.82267 0.01915 0.0
H755 H 0.49539 0.82034 0.04028 0.0
C756 C 0.63001 0.59994 0.60944 0.0
C757 C 0.60085 0.56604 0.60604 0.0
C758 C 0.62599 0.54481 0.66088 0.0
C759 C 0.65729 0.57707 0.65912 0.0
N760 N 0.69062 0.63515 0.62988 0.0
N761 N 0.57311 0.50486 0.62398 0.0
C762 C 0.65964 0.60483 0.63332 0.0
C763 C 0.5993 0.53812 0.6307 0.0
N764 N 0.62952 0.62723 0.58936 0.0
N765 N 0.62166 0.52069 0.69182 0.0
H766 H 0.55318 0.4987 0.60188 0.0
H767 H 0.57281 0.4831 0.63738 0.0
H768 H 0.64066 0.52496 0.71483 0.0
H769 H 0.59808 0.49808 0.69751 0.0
H770 H 0.6485 0.65308 0.59396 0.0
H771 H 0.60864 0.62421 0.57056 0.0
H772 H 0.69514 0.65491 0.60791 0.0
H773 H 0.71273 0.63967 0.64705 0.0
C774 C 0.07274 0.6169 0.07677 0.0
C775 C 0.05095 0.58323 0.0952 0.0
C776 C 0.0638 0.60948 0.16806 0.0
C777 C 0.08922 0.64161 0.14982 0.0
N778 N 0.12328 0.67349 0.0871 0.0
N779 N 0.03359 0.54712 0.16027 0.0
C780 C 0.09519 0.6447 0.10425 0.0
C781 C 0.04837 0.57934 0.14142 0.0
N782 N 0.07155 0.62303 0.03328 0.0
N783 N 0.05422 0.60773 0.21076 0.0
H784 H 0.02474 0.52427 0.14256 0.0
H785 H 0.0341 0.54338 0.19377 0.0
H786 H 0.0646 0.62946 0.23101 0.0
H787 H 0.03354 0.58558 0.22462 0.0
H788 H 0.0841 0.64795 0.01978 0.0
H789 H 0.05545 0.60419 0.01123 0.0
H790 H 0.13093 0.67514 0.05461 0.0
H791 H 0.14102 0.69424 0.10599 0.0
loop_
_geom_bond_atom_site_label_1
_geom_bond_atom_site_label_2
_geom_bond_distance
_geom_bond_site_symmetry_2
_ccdc_geom_bond_type
C0 O2 1.247 . S
C0 O4 1.258 . S
C1 O8 1.247 . S
C1 O9 1.258 . S
O2 C0 1.247 . S
O2 Zn3 2.028 1_455 S
Zn3 O2 2.028 1_655 S
Zn3 O7 2.035 1_554 S
Zn3 O9 2.035 1_554 S
Zn3 O10 2.028 1_655 S
O4 C0 1.258 . S
O4 Zn5 2.035 1_554 S
Zn5 O4 2.035 1_556 S
Zn5 O6 2.028 1_455 S
Zn5 O8 2.028 1_455 S
Zn5 O11 2.035 1_556 S
O6 Zn5 2.028 1_655 S
O6 C12 1.247 . S
O7 Zn3 2.035 1_556 S
O7 C12 1.258 . S
O8 C1 1.247 . S
O8 Zn5 2.028 1_655 S
O9 C1 1.258 . S
O9 Zn3 2.035 1_556 S
O10 Zn3 2.028 1_455 S
O10 C13 1.247 . S
O11 Zn5 2.035 1_554 S
O11 C13 1.258 . S
C12 O6 1.247 . S
C12 O7 1.258 . S
C13 O10 1.247 . S
C13 O11 1.258 . S
C14 O16 1.247 . S
C14 O18 1.258 . S
C15 O22 1.247 . S
C15 O23 1.258 . S
O16 C14 1.247 . S
O16 Zn17 2.028 1_545 S
Zn17 O16 2.028 1_565 S
Zn17 O21 2.035 . S
Zn17 O23 2.035 . S
Zn17 O24 2.028 1_565 S
O18 C14 1.258 . S
O18 Zn19 2.035 . S
Zn19 O18 2.035 . S
Zn19 O20 2.028 1_545 S
Zn19 O22 2.028 1_545 S
Zn19 O25 2.035 . S
O20 Zn19 2.028 1_565 S
O20 C26 1.247 . S
O21 Zn17 2.035 . S
O21 C26 1.258 . S
O22 C15 1.247 . S
O22 Zn19 2.028 1_565 S
O23 C15 1.258 . S
O23 Zn17 2.035 . S
O24 Zn17 2.028 1_545 S
O24 C27 1.247 . S
O25 Zn19 2.035 . S
O25 C27 1.258 . S
C26 O20 1.247 . S
C26 O21 1.258 . S
C27 O24 1.247 . S
C27 O25 1.258 . S
C28 O30 1.247 . S
C28 O32 1.258 . S
C29 O36 1.247 . S
C29 O37 1.258 . S
O30 C28 1.247 . S
O30 Zn31 2.028 . S
Zn31 O30 2.028 . S
Zn31 O35 2.035 1_556 S
Zn31 O37 2.035 1_556 S
Zn31 O38 2.028 . S
O32 C28 1.258 . S
O32 Zn33 2.035 1_556 S
Zn33 O32 2.035 1_554 S
Zn33 O34 2.028 . S
Zn33 O36 2.028 . S
Zn33 O39 2.035 1_554 S
O34 Zn33 2.028 . S
O34 C40 1.247 . S
O35 Zn31 2.035 1_554 S
O35 C40 1.258 . S
O36 C29 1.247 . S
O36 Zn33 2.028 . S
O37 C29 1.258 . S
O37 Zn31 2.035 1_554 S
O38 Zn31 2.028 . S
O38 C41 1.247 . S
O39 Zn33 2.035 1_556 S
O39 C41 1.258 . S
C40 O34 1.247 . S
C40 O35 1.258 . S
C41 O38 1.247 . S
C41 O39 1.258 . S
C42 O44 1.247 . S
C42 O46 1.258 . S
C43 O50 1.247 . S
C43 O51 1.258 . S
O44 C42 1.247 . S
O44 Zn45 2.028 . S
Zn45 O44 2.028 . S
Zn45 O49 2.035 1_455 S
Zn45 O51 2.035 1_455 S
Zn45 O52 2.028 . S
O46 C42 1.258 . S
O46 Zn47 2.035 1_455 S
Zn47 O46 2.035 1_655 S
Zn47 O48 2.028 . S
Zn47 O50 2.028 . S
Zn47 O53 2.035 1_655 S
O48 Zn47 2.028 . S
O48 C54 1.247 . S
O49 Zn45 2.035 1_655 S
O49 C54 1.258 . S
O50 C43 1.247 . S
O50 Zn47 2.028 . S
O51 C43 1.258 . S
O51 Zn45 2.035 1_655 S
O52 Zn45 2.028 . S
O52 C55 1.247 . S
O53 Zn47 2.035 1_455 S
O53 C55 1.258 . S
C54 O48 1.247 . S
C54 O49 1.258 . S
C55 O52 1.247 . S
C55 O53 1.258 . S
C56 O58 1.247 . S
C56 O60 1.258 . S
C57 O64 1.247 . S
C57 O65 1.258 . S
O58 C56 1.247 . S
O58 Zn59 2.028 1_565 S
Zn59 O58 2.028 1_545 S
Zn59 O63 2.035 1_554 S
Zn59 O65 2.035 1_554 S
Zn59 O66 2.028 1_545 S
O60 C56 1.258 . S
O60 Zn61 2.035 1_554 S
Zn61 O60 2.035 1_556 S
Zn61 O62 2.028 1_565 S
Zn61 O64 2.028 1_565 S
Zn61 O67 2.035 1_556 S
O62 Zn61 2.028 1_545 S
O62 C68 1.247 . S
O63 Zn59 2.035 1_556 S
O63 C68 1.258 . S
O64 C57 1.247 . S
O64 Zn61 2.028 1_545 S
O65 C57 1.258 . S
O65 Zn59 2.035 1_556 S
O66 Zn59 2.028 1_565 S
O66 C69 1.247 . S
O67 Zn61 2.035 1_554 S
O67 C69 1.258 . S
C68 O62 1.247 . S
C68 O63 1.258 . S
C69 O66 1.247 . S
C69 O67 1.258 . S
C70 O72 1.247 . S
C70 O74 1.258 . S
C71 O78 1.247 . S
C71 O79 1.258 . S
O72 C70 1.247 . S
O72 Zn73 2.028 . S
Zn73 O72 2.028 . S
Zn73 O77 2.035 . S
Zn73 O79 2.035 . S
Zn73 O80 2.028 . S
O74 C70 1.258 . S
O74 Zn75 2.035 . S
Zn75 O74 2.035 . S
Zn75 O76 2.028 . S
Zn75 O78 2.028 . S
Zn75 O81 2.035 . S
O76 Zn75 2.028 . S
O76 C82 1.247 . S
O77 Zn73 2.035 . S
O77 C82 1.258 . S
O78 C71 1.247 . S
O78 Zn75 2.028 . S
O79 C71 1.258 . S
O79 Zn73 2.035 . S
O80 Zn73 2.028 . S
O80 C83 1.247 . S
O81 Zn75 2.035 . S
O81 C83 1.258 . S
C82 O76 1.247 . S
C82 O77 1.258 . S
C83 O80 1.247 . S
C83 O81 1.258 . S
C84 C85 1.384 . S
C84 C86 1.384 . S
C84 H112 0.931 . S
C85 C84 1.384 . S
C85 C88 1.382 . S
C86 C84 1.384 . S
C86 C87 1.381 . S
C86 H113 0.930 . S
C87 C86 1.381 . S
C87 C89 1.381 . S
C87 C90 1.487 . S
C88 C85 1.382 . S
C88 C89 1.387 . S
C88 H114 0.930 . S
C89 C87 1.381 . S
C89 C88 1.387 . S
C89 H115 0.931 . S
C90 C87 1.487 . S
C90 C97 1.399 . S
C90 N128 1.343 . S
C91 C92 1.384 . S
C91 C93 1.384 . S
C91 H116 0.931 . S
C92 C91 1.384 . S
C92 C95 1.382 . S
C93 C91 1.384 . S
C93 C94 1.381 . S
C93 H117 0.930 . S
C94 C93 1.381 . S
C94 C96 1.381 . S
C94 C97 1.487 . S
C95 C92 1.382 . S
C95 C96 1.387 . S
C95 H118 0.930 . S
C96 C94 1.381 . S
C96 C95 1.387 . S
C96 H119 0.931 . S
C97 C90 1.399 . S
C97 C94 1.487 . S
C97 N129 1.343 . S
C98 C99 1.384 . S
C98 C100 1.384 . S
C98 H120 0.931 . S
C99 C98 1.384 . S
C99 C102 1.382 . S
C100 C98 1.384 . S
C100 C101 1.381 . S
C100 H121 0.930 . S
C101 C100 1.381 . S
C101 C103 1.381 . S
C101 C104 1.487 . S
C102 C99 1.382 . S
C102 C103 1.387 . S
C102 H122 0.930 . S
C103 C101 1.381 . S
C103 C102 1.387 . S
C103 H123 0.931 . S
C104 C101 1.487 . S
C104 C111 1.399 . S
C104 N129 1.343 . S
C105 C106 1.384 . S
C105 C107 1.384 . S
C105 H124 0.931 . S
C106 C105 1.384 . S
C106 C109 1.382 . S
C107 C105 1.384 . S
C107 C108 1.381 . S
C107 H125 0.930 . S
C108 C107 1.381 . S
C108 C110 1.381 . S
C108 C111 1.487 . S
C109 C106 1.382 . S
C109 C110 1.387 . S
C109 H126 0.930 . S
C110 C108 1.381 . S
C110 C109 1.387 . S
C110 H127 0.931 . S
C111 C104 1.399 . S
C111 C108 1.487 . S
C111 N128 1.343 . S
H112 C84 0.931 . S
H113 C86 0.930 . S
H114 C88 0.930 . S
H115 C89 0.931 . S
H116 C91 0.931 . S
H117 C93 0.930 . S
H118 C95 0.930 . S
H119 C96 0.931 . S
H120 C98 0.931 . S
H121 C100 0.930 . S
H122 C102 0.930 . S
H123 C103 0.931 . S
H124 C105 0.931 . S
H125 C107 0.930 . S
H126 C109 0.930 . S
H127 C110 0.931 . S
N128 C90 1.343 . S
N128 C111 1.343 . S
N129 C97 1.343 . S
N129 C104 1.343 . S
C130 C131 1.384 . S
C130 C132 1.384 . S
C130 H158 0.931 . S
C131 C130 1.384 . S
C131 C134 1.382 . S
C132 C130 1.384 . S
C132 C133 1.381 . S
C132 H159 0.930 . S
C133 C132 1.381 . S
C133 C135 1.381 . S
C133 C136 1.487 . S
C134 C131 1.382 . S
C134 C135 1.387 . S
C134 H160 0.930 . S
C135 C133 1.381 . S
C135 C134 1.387 . S
C135 H161 0.931 . S
C136 C133 1.487 . S
C136 C143 1.399 . S
C136 N174 1.343 . S
C137 C138 1.384 . S
C137 C139 1.384 . S
C137 H162 0.931 . S
C138 C137 1.384 . S
C138 C141 1.382 . S
C139 C137 1.384 . S
C139 C140 1.381 . S
C139 H163 0.930 . S
C140 C139 1.381 . S
C140 C142 1.381 . S
C140 C143 1.487 . S
C141 C138 1.382 . S
C141 C142 1.387 . S
C141 H164 0.930 . S
C142 C140 1.381 . S
C142 C141 1.387 . S
C142 H165 0.931 . S
C143 C136 1.399 . S
C143 C140 1.487 . S
C143 N175 1.343 . S
C144 C145 1.384 . S
C144 C146 1.384 . S
C144 H166 0.931 . S
C145 C144 1.384 . S
C145 C148 1.382 . S
C146 C144 1.384 . S
C146 C147 1.381 . S
C146 H167 0.930 . S
C147 C146 1.381 . S
C147 C149 1.381 . S
C147 C150 1.487 . S
C148 C145 1.382 . S
C148 C149 1.387 . S
C148 H168 0.930 . S
C149 C147 1.381 . S
C149 C148 1.387 . S
C149 H169 0.931 . S
C150 C147 1.487 . S
C150 C157 1.399 . S
C150 N175 1.343 . S
C151 C152 1.384 . S
C151 C153 1.384 . S
C151 H170 0.931 . S
C152 C151 1.384 . S
C152 C155 1.382 . S
C153 C151 1.384 . S
C153 C154 1.381 . S
C153 H171 0.930 . S
C154 C153 1.381 . S
C154 C156 1.381 . S
C154 C157 1.487 . S
C155 C152 1.382 . S
C155 C156 1.387 . S
C155 H172 0.930 . S
C156 C154 1.381 . S
C156 C155 1.387 . S
C156 H173 0.931 . S
C157 C150 1.399 . S
C157 C154 1.487 . S
C157 N174 1.343 . S
H158 C130 0.931 . S
H159 C132 0.930 . S
H160 C134 0.930 . S
H161 C135 0.931 . S
H162 C137 0.931 . S
H163 C139 0.930 . S
H164 C141 0.930 . S
H165 C142 0.931 . S
H166 C144 0.931 . S
H167 C146 0.930 . S
H168 C148 0.930 . S
H169 C149 0.931 . S
H170 C151 0.931 . S
H171 C153 0.930 . S
H172 C155 0.930 . S
H173 C156 0.931 . S
N174 C136 1.343 . S
N174 C157 1.343 . S
N175 C143 1.343 . S
N175 C150 1.343 . S
C176 C177 1.384 . S
C176 C178 1.384 . S
C176 H204 0.931 . S
C177 C176 1.384 . S
C177 C180 1.382 . S
C178 C176 1.384 . S
C178 C179 1.381 . S
C178 H205 0.930 . S
C179 C178 1.381 . S
C179 C181 1.381 . S
C179 C182 1.487 . S
C180 C177 1.382 . S
C180 C181 1.387 . S
C180 H206 0.930 . S
C181 C179 1.381 . S
C181 C180 1.387 . S
C181 H207 0.931 . S
C182 C179 1.487 . S
C182 C189 1.399 . S
C182 N220 1.343 . S
C183 C184 1.384 . S
C183 C185 1.384 . S
C183 H208 0.931 . S
C184 C183 1.384 . S
C184 C187 1.382 . S
C185 C183 1.384 . S
C185 C186 1.381 . S
C185 H209 0.930 . S
C186 C185 1.381 . S
C186 C188 1.381 . S
C186 C189 1.487 . S
C187 C184 1.382 . S
C187 C188 1.387 . S
C187 H210 0.930 . S
C188 C186 1.381 . S
C188 C187 1.387 . S
C188 H211 0.931 . S
C189 C182 1.399 . S
C189 C186 1.487 . S
C189 N221 1.343 . S
C190 C191 1.384 . S
C190 C192 1.384 . S
C190 H212 0.931 . S
C191 C190 1.384 . S
C191 C194 1.382 . S
C192 C190 1.384 . S
C192 C193 1.381 . S
C192 H213 0.930 . S
C193 C192 1.381 . S
C193 C195 1.381 . S
C193 C196 1.487 . S
C194 C191 1.382 . S
C194 C195 1.387 . S
C194 H214 0.930 . S
C195 C193 1.381 . S
C195 C194 1.387 . S
C195 H215 0.931 . S
C196 C193 1.487 . S
C196 C203 1.399 . S
C196 N221 1.343 . S
C197 C198 1.384 . S
C197 C199 1.384 . S
C197 H216 0.931 . S
C198 C197 1.384 . S
C198 C201 1.382 . S
C199 C197 1.384 . S
C199 C200 1.381 . S
C199 H217 0.930 . S
C200 C199 1.381 . S
C200 C202 1.381 . S
C200 C203 1.487 . S
C201 C198 1.382 . S
C201 C202 1.387 . S
C201 H218 0.930 . S
C202 C200 1.381 . S
C202 C201 1.387 . S
C202 H219 0.931 . S
C203 C196 1.399 . S
C203 C200 1.487 . S
C203 N220 1.343 . S
H204 C176 0.931 . S
H205 C178 0.930 . S
H206 C180 0.930 . S
H207 C181 0.931 . S
H208 C183 0.931 . S
H209 C185 0.930 . S
H210 C187 0.930 . S
H211 C188 0.931 . S
H212 C190 0.931 . S
H213 C192 0.930 . S
H214 C194 0.930 . S
H215 C195 0.931 . S
H216 C197 0.931 . S
H217 C199 0.930 . S
H218 C201 0.930 . S
H219 C202 0.931 . S
N220 C182 1.343 . S
N220 C203 1.343 . S
N221 C189 1.343 . S
N221 C196 1.343 . S
C222 C223 1.384 . S
C222 C224 1.384 . S
C222 H250 0.931 . S
C223 C222 1.384 . S
C223 C226 1.382 . S
C224 C222 1.384 . S
C224 C225 1.381 . S
C224 H251 0.930 . S
C225 C224 1.381 . S
C225 C227 1.381 . S
C225 C228 1.487 . S
C226 C223 1.382 . S
C226 C227 1.387 . S
C226 H252 0.930 . S
C227 C225 1.381 . S
C227 C226 1.387 . S
C227 H253 0.931 . S
C228 C225 1.487 . S
C228 C235 1.399 . S
C228 N266 1.343 . S
C229 C230 1.384 . S
C229 C231 1.384 . S
C229 H254 0.931 . S
C230 C229 1.384 . S
C230 C233 1.382 . S
C231 C229 1.384 . S
C231 C232 1.381 . S
C231 H255 0.930 . S
C232 C231 1.381 . S
C232 C234 1.381 . S
C232 C235 1.487 . S
C233 C230 1.382 . S
C233 C234 1.387 . S
C233 H256 0.930 . S
C234 C232 1.381 . S
C234 C233 1.387 . S
C234 H257 0.931 . S
C235 C228 1.399 . S
C235 C232 1.487 . S
C235 N267 1.343 . S
C236 C237 1.384 . S
C236 C238 1.384 . S
C236 H258 0.931 . S
C237 C236 1.384 . S
C237 C240 1.382 . S
C238 C236 1.384 . S
C238 C239 1.381 . S
C238 H259 0.930 . S
C239 C238 1.381 . S
C239 C241 1.381 . S
C239 C242 1.487 . S
C240 C237 1.382 . S
C240 C241 1.387 . S
C240 H260 0.930 . S
C241 C239 1.381 . S
C241 C240 1.387 . S
C241 H261 0.931 . S
C242 C239 1.487 . S
C242 C249 1.399 . S
C242 N267 1.343 . S
C243 C244 1.384 . S
C243 C245 1.384 . S
C243 H262 0.931 . S
C244 C243 1.384 . S
C244 C247 1.382 . S
C245 C243 1.384 . S
C245 C246 1.381 . S
C245 H263 0.930 . S
C246 C245 1.381 . S
C246 C248 1.381 . S
C246 C249 1.487 . S
C247 C244 1.382 . S
C247 C248 1.387 . S
C247 H264 0.930 . S
C248 C246 1.381 . S
C248 C247 1.387 . S
C248 H265 0.931 . S
C249 C242 1.399 . S
C249 C246 1.487 . S
C249 N266 1.343 . S
H250 C222 0.931 . S
H251 C224 0.930 . S
H252 C226 0.930 . S
H253 C227 0.931 . S
H254 C229 0.931 . S
H255 C231 0.930 . S
H256 C233 0.930 . S
H257 C234 0.931 . S
H258 C236 0.931 . S
H259 C238 0.930 . S
H260 C240 0.930 . S
H261 C241 0.931 . S
H262 C243 0.931 . S
H263 C245 0.930 . S
H264 C247 0.930 . S
H265 C248 0.931 . S
N266 C228 1.343 . S
N266 C249 1.343 . S
N267 C235 1.343 . S
N267 C242 1.343 . S
C268 C269 1.384 . S
C268 C270 1.384 . S
C268 H296 0.931 . S
C269 C268 1.384 . S
C269 C272 1.382 . S
C270 C268 1.384 . S
C270 C271 1.381 . S
C270 H297 0.930 . S
C271 C270 1.381 . S
C271 C273 1.381 . S
C271 C274 1.487 . S
C272 C269 1.382 . S
C272 C273 1.387 . S
C272 H298 0.930 . S
C273 C271 1.381 . S
C273 C272 1.387 . S
C273 H299 0.931 . S
C274 C271 1.487 . S
C274 C281 1.399 . S
C274 N312 1.343 . S
C275 C276 1.384 . S
C275 C277 1.384 . S
C275 H300 0.931 . S
C276 C275 1.384 . S
C276 C279 1.382 . S
C277 C275 1.384 . S
C277 C278 1.381 . S
C277 H301 0.930 . S
C278 C277 1.381 . S
C278 C280 1.381 . S
C278 C281 1.487 . S
C279 C276 1.382 . S
C279 C280 1.387 . S
C279 H302 0.930 . S
C280 C278 1.381 . S
C280 C279 1.387 . S
C280 H303 0.931 . S
C281 C274 1.399 . S
C281 C278 1.487 . S
C281 N313 1.343 . S
C282 C283 1.384 . S
C282 C284 1.384 . S
C282 H304 0.931 . S
C283 C282 1.384 . S
C283 C286 1.382 . S
C284 C282 1.384 . S
C284 C285 1.381 . S
C284 H305 0.930 . S
C285 C284 1.381 . S
C285 C287 1.381 . S
C285 C288 1.487 . S
C286 C283 1.382 . S
C286 C287 1.387 . S
C286 H306 0.930 . S
C287 C285 1.381 . S
C287 C286 1.387 . S
C287 H307 0.931 . S
C288 C285 1.487 . S
C288 C295 1.399 . S
C288 N313 1.343 . S
C289 C290 1.384 . S
C289 C291 1.384 . S
C289 H308 0.931 . S
C290 C289 1.384 . S
C290 C293 1.382 . S
C291 C289 1.384 . S
C291 C292 1.381 . S
C291 H309 0.930 . S
C292 C291 1.381 . S
C292 C294 1.381 . S
C292 C295 1.487 . S
C293 C290 1.382 . S
C293 C294 1.387 . S
C293 H310 0.930 . S
C294 C292 1.381 . S
C294 C293 1.387 . S
C294 H311 0.931 . S
C295 C288 1.399 . S
C295 C292 1.487 . S
C295 N312 1.343 . S
H296 C268 0.931 . S
H297 C270 0.930 . S
H298 C272 0.930 . S
H299 C273 0.931 . S
H300 C275 0.931 . S
H301 C277 0.930 . S
H302 C279 0.930 . S
H303 C280 0.931 . S
H304 C282 0.931 . S
H305 C284 0.930 . S
H306 C286 0.930 . S
H307 C287 0.931 . S
H308 C289 0.931 . S
H309 C291 0.930 . S
H310 C293 0.930 . S
H311 C294 0.931 . S
N312 C274 1.343 . S
N312 C295 1.343 . S
N313 C281 1.343 . S
N313 C288 1.343 . S
C314 C315 1.384 . S
C314 C316 1.384 . S
C314 H342 0.931 . S
C315 C314 1.384 . S
C315 C318 1.382 . S
C316 C314 1.384 . S
C316 C317 1.381 . S
C316 H343 0.930 . S
C317 C316 1.381 . S
C317 C319 1.381 . S
C317 C320 1.487 . S
C318 C315 1.382 . S
C318 C319 1.387 . S
C318 H344 0.930 . S
C319 C317 1.381 . S
C319 C318 1.387 . S
C319 H345 0.931 . S
C320 C317 1.487 . S
C320 C327 1.399 . S
C320 N358 1.343 . S
C321 C322 1.384 . S
C321 C323 1.384 . S
C321 H346 0.931 . S
C322 C321 1.384 . S
C322 C325 1.382 . S
C323 C321 1.384 . S
C323 C324 1.381 . S
C323 H347 0.930 . S
C324 C323 1.381 . S
C324 C326 1.381 . S
C324 C327 1.487 . S
C325 C322 1.382 . S
C325 C326 1.387 . S
C325 H348 0.930 . S
C326 C324 1.381 . S
C326 C325 1.387 . S
C326 H349 0.931 . S
C327 C320 1.399 . S
C327 C324 1.487 . S
C327 N359 1.343 . S
C328 C329 1.384 . S
C328 C330 1.384 . S
C328 H350 0.931 . S
C329 C328 1.384 . S
C329 C332 1.382 . S
C330 C328 1.384 . S
C330 C331 1.381 . S
C330 H351 0.930 . S
C331 C330 1.381 . S
C331 C333 1.381 . S
C331 C334 1.487 . S
C332 C329 1.382 . S
C332 C333 1.387 . S
C332 H352 0.930 . S
C333 C331 1.381 . S
C333 C332 1.387 . S
C333 H353 0.931 . S
C334 C331 1.487 . S
C334 C341 1.399 . S
C334 N359 1.343 . S
C335 C336 1.384 . S
C335 C337 1.384 . S
C335 H354 0.931 . S
C336 C335 1.384 . S
C336 C339 1.382 . S
C337 C335 1.384 . S
C337 C338 1.381 . S
C337 H355 0.930 . S
C338 C337 1.381 . S
C338 C340 1.381 . S
C338 C341 1.487 . S
C339 C336 1.382 . S
C339 C340 1.387 . S
C339 H356 0.930 . S
C340 C338 1.381 . S
C340 C339 1.387 . S
C340 H357 0.931 . S
C341 C334 1.399 . S
C341 C338 1.487 . S
C341 N358 1.343 . S
H342 C314 0.931 . S
H343 C316 0.930 . S
H344 C318 0.930 . S
H345 C319 0.931 . S
H346 C321 0.931 . S
H347 C323 0.930 . S
H348 C325 0.930 . S
H349 C326 0.931 . S
H350 C328 0.931 . S
H351 C330 0.930 . S
H352 C332 0.930 . S
H353 C333 0.931 . S
H354 C335 0.931 . S
H355 C337 0.930 . S
H356 C339 0.930 . S
H357 C340 0.931 . S
N358 C320 1.343 . S
N358 C341 1.343 . S
N359 C327 1.343 . S
N359 C334 1.343 . S
C360 C361 1.363 . S
C360 C366 1.379 . S
C360 N368 1.356 . S
C361 C360 1.363 . S
C361 C367 1.363 . S
C362 C363 1.363 . S
C362 C367 1.379 . S
C362 N369 1.356 . S
C363 C362 1.363 . S
C363 C366 1.363 . S
N364 C366 1.356 . S
N364 H376 0.984 . S
N364 H377 0.985 . S
N365 C367 1.356 . S
N365 H370 0.984 . S
N365 H371 0.985 1_455 S
C366 C360 1.379 . S
C366 C363 1.363 . S
C366 N364 1.356 . S
C367 C361 1.363 . S
C367 C362 1.379 . S
C367 N365 1.356 . S
N368 C360 1.356 . S
N368 H374 0.984 . S
N368 H375 0.984 . S
N369 C362 1.356 . S
N369 H372 0.984 . S
N369 H373 0.985 . S
H370 N365 0.984 . S
H371 N365 0.985 1_655 S
H372 N369 0.984 . S
H373 N369 0.985 . S
H374 N368 0.984 . S
H375 N368 0.984 . S
H376 N364 0.984 . S
H377 N364 0.985 . S
C378 C379 1.363 . S
C378 C384 1.379 . S
C378 N386 1.356 . S
C379 C378 1.363 . S
C379 C385 1.363 . S
C380 C381 1.363 . S
C380 C385 1.379 . S
C380 N387 1.356 . S
C381 C380 1.363 . S
C381 C384 1.363 . S
N382 C384 1.356 . S
N382 H394 0.984 . S
N382 H395 0.985 . S
N383 C385 1.356 . S
N383 H388 0.984 . S
N383 H389 0.985 . S
C384 C378 1.379 . S
C384 C381 1.363 . S
C384 N382 1.356 . S
C385 C379 1.363 . S
C385 C380 1.379 . S
C385 N383 1.356 . S
N386 C378 1.356 . S
N386 H392 0.984 . S
N386 H393 0.984 . S
N387 C380 1.356 . S
N387 H390 0.984 . S
N387 H391 0.985 . S
H388 N383 0.984 . S
H389 N383 0.985 . S
H390 N387 0.984 . S
H391 N387 0.985 . S
H392 N386 0.984 . S
H393 N386 0.984 . S
H394 N382 0.984 . S
H395 N382 0.985 . S
C396 C397 1.363 . S
C396 C402 1.379 . S
C396 N404 1.356 . S
C397 C396 1.363 . S
C397 C403 1.363 . S
C398 C399 1.363 . S
C398 C403 1.379 . S
C398 N405 1.356 . S
C399 C398 1.363 . S
C399 C402 1.363 . S
N400 C402 1.356 . S
N400 H412 0.984 . S
N400 H413 0.985 . S
N401 C403 1.356 . S
N401 H406 0.984 . S
N401 H407 0.985 1_554 S
C402 C396 1.379 . S
C402 C399 1.363 . S
C402 N400 1.356 . S
C403 C397 1.363 . S
C403 C398 1.379 . S
C403 N401 1.356 . S
N404 C396 1.356 . S
N404 H410 0.984 . S
N404 H411 0.984 . S
N405 C398 1.356 . S
N405 H408 0.984 . S
N405 H409 0.985 . S
H406 N401 0.984 . S
H407 N401 0.985 1_556 S
H408 N405 0.984 . S
H409 N405 0.985 . S
H410 N404 0.984 . S
H411 N404 0.984 . S
H412 N400 0.984 . S
H413 N400 0.985 . S
C414 C415 1.363 . S
C414 C420 1.379 . S
C414 N422 1.356 . S
C415 C414 1.363 . S
C415 C421 1.363 . S
C416 C417 1.363 . S
C416 C421 1.379 . S
C416 N423 1.356 . S
C417 C416 1.363 . S
C417 C420 1.363 . S
N418 C420 1.356 . S
N418 H430 0.984 . S
N418 H431 0.985 . S
N419 C421 1.356 . S
N419 H424 0.984 . S
N419 H425 0.985 1_655 S
C420 C414 1.379 . S
C420 C417 1.363 . S
C420 N418 1.356 . S
C421 C415 1.363 . S
C421 C416 1.379 . S
C421 N419 1.356 . S
N422 C414 1.356 . S
N422 H428 0.984 . S
N422 H429 0.984 . S
N423 C416 1.356 . S
N423 H426 0.984 . S
N423 H427 0.985 . S
H424 N419 0.984 . S
H425 N419 0.985 1_455 S
H426 N423 0.984 . S
H427 N423 0.985 . S
H428 N422 0.984 . S
H429 N422 0.984 . S
H430 N418 0.984 . S
H431 N418 0.985 . S
C432 C433 1.363 . S
C432 C438 1.379 . S
C432 N440 1.356 . S
C433 C432 1.363 . S
C433 C439 1.363 . S
C434 C435 1.363 . S
C434 C439 1.379 . S
C434 N441 1.356 . S
C435 C434 1.363 . S
C435 C438 1.363 . S
N436 C438 1.356 . S
N436 H448 0.984 . S
N436 H449 0.985 . S
N437 C439 1.356 . S
N437 H442 0.984 . S
N437 H443 0.985 . S
C438 C432 1.379 . S
C438 C435 1.363 . S
C438 N436 1.356 . S
C439 C433 1.363 . S
C439 C434 1.379 . S
C439 N437 1.356 . S
N440 C432 1.356 . S
N440 H446 0.984 1_554 S
N440 H447 0.984 . S
N441 C434 1.356 . S
N441 H444 0.984 . S
N441 H445 0.985 . S
H442 N437 0.984 . S
H443 N437 0.985 . S
H444 N441 0.984 . S
H445 N441 0.985 . S
H446 N440 0.984 1_556 S
H447 N440 0.984 . S
H448 N436 0.984 . S
H449 N436 0.985 . S
C450 C451 1.363 . S
C450 C456 1.379 . S
C450 N458 1.356 . S
C451 C450 1.363 . S
C451 C457 1.363 . S
C452 C453 1.363 . S
C452 C457 1.379 . S
C452 N459 1.356 . S
C453 C452 1.363 . S
C453 C456 1.363 . S
N454 C456 1.356 . S
N454 H466 0.984 . S
N454 H467 0.985 . S
N455 C457 1.356 . S
N455 H460 0.984 . S
N455 H461 0.985 . S
C456 C450 1.379 . S
C456 C453 1.363 . S
C456 N454 1.356 . S
C457 C451 1.363 . S
C457 C452 1.379 . S
C457 N455 1.356 . S
N458 C450 1.356 . S
N458 H464 0.984 . S
N458 H465 0.984 . S
N459 C452 1.356 . S
N459 H462 0.984 . S
N459 H463 0.985 . S
H460 N455 0.984 . S
H461 N455 0.985 . S
H462 N459 0.984 . S
H463 N459 0.985 . S
H464 N458 0.984 . S
H465 N458 0.984 . S
H466 N454 0.984 . S
H467 N454 0.985 . S
C468 C469 1.363 . S
C468 C474 1.379 . S
C468 N476 1.343 1_565 S
C469 C468 1.363 . S
C469 C475 1.363 . S
C470 C471 1.363 . S
C470 C475 1.379 . S
C470 N477 1.356 . S
C471 C470 1.363 . S
C471 C474 1.363 . S
N472 C474 1.356 . S
N472 H484 0.992 . S
N472 H485 0.985 . S
N473 C475 1.356 . S
N473 H478 0.984 . S
N473 H479 0.985 . S
C474 C468 1.379 . S
C474 C471 1.363 . S
C474 N472 1.356 . S
C475 C469 1.363 . S
C475 C470 1.379 . S
C475 N473 1.356 . S
N476 C468 1.343 1_545 S
N476 H482 0.992 . S
N476 H483 0.986 . S
N477 C470 1.356 . S
N477 H480 0.984 . S
N477 H481 0.985 . S
H478 N473 0.984 . S
H479 N473 0.985 . S
H480 N477 0.984 . S
H481 N477 0.985 . S
H482 N476 0.992 . S
H483 N476 0.986 . S
H484 N472 0.992 . S
H485 N472 0.985 . S
C486 C487 1.363 . S
C486 C492 1.379 . S
C486 N494 1.356 . S
C487 C486 1.363 . S
C487 C493 1.363 . S
C488 C489 1.363 . S
C488 C493 1.379 . S
C488 N495 1.356 . S
C489 C488 1.363 . S
C489 C492 1.363 . S
N490 C492 1.356 . S
N490 H502 0.984 . S
N490 H503 0.985 . S
N491 C493 1.356 . S
N491 H496 0.984 . S
N491 H497 0.985 . S
C492 C486 1.379 . S
C492 C489 1.363 . S
C492 N490 1.356 . S
C493 C487 1.363 . S
C493 C488 1.379 . S
C493 N491 1.356 . S
N494 C486 1.356 . S
N494 H500 0.984 . S
N494 H501 0.984 . S
N495 C488 1.356 . S
N495 H498 0.984 . S
N495 H499 0.985 . S
H496 N491 0.984 . S
H497 N491 0.985 . S
H498 N495 0.984 . S
H499 N495 0.985 . S
H500 N494 0.984 . S
H501 N494 0.984 . S
H502 N490 0.984 . S
H503 N490 0.985 . S
C504 C505 1.363 . S
C504 C510 1.379 . S
C504 N512 1.356 . S
C505 C504 1.363 . S
C505 C511 1.363 . S
C506 C507 1.363 . S
C506 C511 1.379 . S
C506 N513 1.356 . S
C507 C506 1.363 . S
C507 C510 1.363 . S
N508 C510 1.356 . S
N508 H520 0.984 . S
N508 H521 0.985 . S
N509 C511 1.356 . S
N509 H514 0.984 . S
N509 H515 0.985 . S
C510 C504 1.379 . S
C510 C507 1.363 . S
C510 N508 1.356 . S
C511 C505 1.363 . S
C511 C506 1.379 . S
C511 N509 1.356 . S
N512 C504 1.356 . S
N512 H518 0.984 . S
N512 H519 0.984 . S
N513 C506 1.356 . S
N513 H516 0.984 . S
N513 H517 0.985 . S
H514 N509 0.984 . S
H515 N509 0.985 . S
H516 N513 0.984 . S
H517 N513 0.985 . S
H518 N512 0.984 . S
H519 N512 0.984 . S
H520 N508 0.984 . S
H521 N508 0.985 . S
C522 C523 1.363 . S
C522 C528 1.379 . S
C522 N530 1.356 . S
C523 C522 1.363 . S
C523 C529 1.363 . S
C524 C525 1.363 . S
C524 C529 1.379 . S
C524 N531 1.356 . S
C525 C524 1.363 . S
C525 C528 1.363 . S
N526 C528 1.356 . S
N526 H538 0.984 . S
N526 H539 0.985 . S
N527 C529 1.356 . S
N527 H532 0.984 . S
N527 H533 0.985 1_556 S
C528 C522 1.379 . S
C528 C525 1.363 . S
C528 N526 1.356 . S
C529 C523 1.363 . S
C529 C524 1.379 . S
C529 N527 1.356 . S
N530 C522 1.356 . S
N530 H536 0.984 . S
N530 H537 0.984 . S
N531 C524 1.356 . S
N531 H534 0.984 . S
N531 H535 0.985 . S
H532 N527 0.984 . S
H533 N527 0.985 1_554 S
H534 N531 0.984 . S
H535 N531 0.985 . S
H536 N530 0.984 . S
H537 N530 0.984 . S
H538 N526 0.984 . S
H539 N526 0.985 . S
C540 C541 1.363 . S
C540 C546 1.379 . S
C540 N548 1.356 . S
C541 C540 1.363 . S
C541 C547 1.363 . S
C542 C543 1.363 . S
C542 C547 1.379 . S
C542 N549 1.356 . S
C543 C542 1.363 . S
C543 C546 1.363 . S
N544 C546 1.356 . S
N544 H556 0.984 . S
N544 H557 0.985 . S
N545 C547 1.356 . S
N545 H550 0.984 . S
N545 H551 0.985 . S
C546 C540 1.379 . S
C546 C543 1.363 . S
C546 N544 1.356 . S
C547 C541 1.363 . S
C547 C542 1.379 . S
C547 N545 1.356 . S
N548 C540 1.356 . S
N548 H554 0.984 . S
N548 H555 0.984 . S
N549 C542 1.356 . S
N549 H552 0.984 . S
N549 H553 0.985 . S
H550 N545 0.984 . S
H551 N545 0.985 . S
H552 N549 0.984 . S
H553 N549 0.985 . S
H554 N548 0.984 . S
H555 N548 0.984 . S
H556 N544 0.984 . S
H557 N544 0.985 . S
C558 C559 1.363 . S
C558 C564 1.379 . S
C558 N566 1.356 . S
C559 C558 1.363 . S
C559 C565 1.363 . S
C560 C561 1.363 . S
C560 C565 1.379 . S
C560 N567 1.356 . S
C561 C560 1.363 . S
C561 C564 1.363 . S
N562 C564 1.356 . S
N562 H574 0.984 . S
N562 H575 0.985 . S
N563 C565 1.356 . S
N563 H568 0.984 . S
N563 H569 0.985 1_556 S
C564 C558 1.379 . S
C564 C561 1.363 . S
C564 N562 1.356 . S
C565 C559 1.363 . S
C565 C560 1.379 . S
C565 N563 1.356 . S
N566 C558 1.356 . S
N566 H572 0.984 . S
N566 H573 0.984 . S
N567 C560 1.356 . S
N567 H570 0.984 . S
N567 H571 0.985 . S
H568 N563 0.984 . S
H569 N563 0.985 1_554 S
H570 N567 0.984 . S
H571 N567 0.985 . S
H572 N566 0.984 . S
H573 N566 0.984 . S
H574 N562 0.984 . S
H575 N562 0.985 . S
C576 C577 1.363 . S
C576 C582 1.379 . S
C576 N584 1.356 . S
C577 C576 1.363 . S
C577 C583 1.363 . S
C578 C579 1.363 . S
C578 C583 1.379 . S
C578 N585 1.356 . S
C579 C578 1.363 . S
C579 C582 1.363 . S
N580 C582 1.356 . S
N580 H592 0.984 . S
N580 H593 0.985 . S
N581 C583 1.356 . S
N581 H586 0.984 . S
N581 H587 0.985 1_556 S
C582 C576 1.379 . S
C582 C579 1.363 . S
C582 N580 1.356 . S
C583 C577 1.363 . S
C583 C578 1.379 . S
C583 N581 1.356 . S
N584 C576 1.356 . S
N584 H590 0.984 . S
N584 H591 0.984 . S
N585 C578 1.356 . S
N585 H588 0.984 . S
N585 H589 0.985 . S
H586 N581 0.984 . S
H587 N581 0.985 1_554 S
H588 N585 0.984 . S
H589 N585 0.985 . S
H590 N584 0.984 . S
H591 N584 0.984 . S
H592 N580 0.984 . S
H593 N580 0.985 . S
C594 C595 1.363 . S
C594 C600 1.379 . S
C594 N602 1.356 . S
C595 C594 1.363 . S
C595 C601 1.363 . S
C596 C597 1.363 . S
C596 C601 1.379 . S
C596 N603 1.356 . S
C597 C596 1.363 . S
C597 C600 1.363 . S
N598 C600 1.356 . S
N598 H610 0.984 . S
N598 H611 0.985 . S
N599 C601 1.356 . S
N599 H604 0.984 . S
N599 H605 0.985 . S
C600 C594 1.379 . S
C600 C597 1.363 . S
C600 N598 1.356 . S
C601 C595 1.363 . S
C601 C596 1.379 . S
C601 N599 1.356 . S
N602 C594 1.356 . S
N602 H608 0.984 . S
N602 H609 0.984 . S
N603 C596 1.356 . S
N603 H606 0.984 . S
N603 H607 0.985 . S
H604 N599 0.984 . S
H605 N599 0.985 . S
H606 N603 0.984 . S
H607 N603 0.985 . S
H608 N602 0.984 . S
H609 N602 0.984 . S
H610 N598 0.984 . S
H611 N598 0.985 . S
C612 C613 1.363 . S
C612 C618 1.379 . S
C612 N620 1.356 . S
C613 C612 1.363 . S
C613 C619 1.363 . S
C614 C615 1.363 . S
C614 C619 1.379 . S
C614 N621 1.356 . S
C615 C614 1.363 . S
C615 C618 1.363 . S
N616 C618 1.356 . S
N616 H628 0.984 . S
N616 H629 0.985 . S
N617 C619 1.356 . S
N617 H622 0.984 . S
N617 H623 0.985 1_556 S
C618 C612 1.379 . S
C618 C615 1.363 . S
C618 N616 1.356 . S
C619 C613 1.363 . S
C619 C614 1.379 . S
C619 N617 1.356 . S
N620 C612 1.356 . S
N620 H626 0.984 . S
N620 H627 0.984 . S
N621 C614 1.356 . S
N621 H624 0.984 . S
N621 H625 0.985 . S
H622 N617 0.984 . S
H623 N617 0.985 1_554 S
H624 N621 0.984 . S
H625 N621 0.985 . S
H626 N620 0.984 . S
H627 N620 0.984 . S
H628 N616 0.984 . S
H629 N616 0.985 . S
C630 C631 1.363 . S
C630 C636 1.379 . S
C630 N638 1.356 . S
C631 C630 1.363 . S
C631 C637 1.363 . S
C632 C633 1.363 . S
C632 C637 1.379 . S
C632 N639 1.356 . S
C633 C632 1.363 . S
C633 C636 1.363 . S
N634 C636 1.356 . S
N634 H646 0.984 . S
N634 H647 0.985 . S
N635 C637 1.356 . S
N635 H640 0.984 . S
N635 H641 0.985 . S
C636 C630 1.379 . S
C636 C633 1.363 . S
C636 N634 1.356 . S
C637 C631 1.363 . S
C637 C632 1.379 . S
C637 N635 1.356 . S
N638 C630 1.356 . S
N638 H644 0.984 1_455 S
N638 H645 0.984 . S
N639 C632 1.356 . S
N639 H642 0.984 . S
N639 H643 0.985 . S
H640 N635 0.984 . S
H641 N635 0.985 . S
H642 N639 0.984 . S
H643 N639 0.985 . S
H644 N638 0.984 1_655 S
H645 N638 0.984 . S
H646 N634 0.984 . S
H647 N634 0.985 . S
C648 C649 1.363 . S
C648 C654 1.379 . S
C648 N656 1.356 . S
C649 C648 1.363 . S
C649 C655 1.363 . S
C650 C651 1.363 . S
C650 C655 1.379 . S
C650 N657 1.356 . S
C651 C650 1.363 . S
C651 C654 1.363 . S
N652 C654 1.356 . S
N652 H664 0.984 . S
N652 H665 0.985 . S
N653 C655 1.356 . S
N653 H658 0.984 . S
N653 H659 0.985 . S
C654 C648 1.379 . S
C654 C651 1.363 . S
C654 N652 1.356 . S
C655 C649 1.363 . S
C655 C650 1.379 . S
C655 N653 1.356 . S
N656 C648 1.356 . S
N656 H662 0.984 1_545 S
N656 H663 0.984 . S
N657 C650 1.356 . S
N657 H660 0.984 . S
N657 H661 0.985 . S
H658 N653 0.984 . S
H659 N653 0.985 . S
H660 N657 0.984 . S
H661 N657 0.985 . S
H662 N656 0.984 1_565 S
H663 N656 0.984 . S
H664 N652 0.984 . S
H665 N652 0.985 . S
C666 C667 1.363 . S
C666 C672 1.379 . S
C666 N674 1.356 . S
C667 C666 1.363 . S
C667 C673 1.363 . S
C668 C669 1.363 . S
C668 C673 1.379 . S
C668 N675 1.356 . S
C669 C668 1.363 . S
C669 C672 1.363 . S
N670 C672 1.356 . S
N670 H682 0.984 . S
N670 H683 0.985 . S
N671 C673 1.356 . S
N671 H676 0.984 . S
N671 H677 0.985 . S
C672 C666 1.379 . S
C672 C669 1.363 . S
C672 N670 1.356 . S
C673 C667 1.363 . S
C673 C668 1.379 . S
C673 N671 1.356 . S
N674 C666 1.356 . S
N674 H680 0.984 . S
N674 H681 0.984 . S
N675 C668 1.356 . S
N675 H678 0.984 . S
N675 H679 0.985 . S
H676 N671 0.984 . S
H677 N671 0.985 . S
H678 N675 0.984 . S
H679 N675 0.985 . S
H680 N674 0.984 . S
H681 N674 0.984 . S
H682 N670 0.984 . S
H683 N670 0.985 . S
C684 C685 1.363 . S
C684 C690 1.379 . S
C684 N692 1.356 . S
C685 C684 1.363 . S
C685 C691 1.363 . S
C686 C687 1.363 . S
C686 C691 1.379 . S
C686 N693 1.356 . S
C687 C686 1.363 . S
C687 C690 1.363 . S
N688 C690 1.356 . S
N688 H700 0.984 . S
N688 H701 0.985 . S
N689 C691 1.356 . S
N689 H694 0.984 . S
N689 H695 0.985 . S
C690 C684 1.379 . S
C690 C687 1.363 . S
C690 N688 1.356 . S
C691 C685 1.363 . S
C691 C686 1.379 . S
C691 N689 1.356 . S
N692 C684 1.356 . S
N692 H698 0.984 1_545 S
N692 H699 0.984 . S
N693 C686 1.356 . S
N693 H696 0.984 . S
N693 H697 0.985 . S
H694 N689 0.984 . S
H695 N689 0.985 . S
H696 N693 0.984 . S
H697 N693 0.985 . S
H698 N692 0.984 1_565 S
H699 N692 0.984 . S
H700 N688 0.984 . S
H701 N688 0.985 . S
C702 C703 1.363 . S
C702 C708 1.379 . S
C702 N710 1.356 . S
C703 C702 1.363 . S
C703 C709 1.363 . S
C704 C705 1.363 . S
C704 C709 1.379 . S
C704 N711 1.356 . S
C705 C704 1.363 . S
C705 C708 1.363 . S
N706 C708 1.356 . S
N706 H718 0.984 . S
N706 H719 0.985 . S
N707 C709 1.356 . S
N707 H712 0.984 . S
N707 H713 0.985 . S
C708 C702 1.379 . S
C708 C705 1.363 . S
C708 N706 1.356 . S
C709 C703 1.363 . S
C709 C704 1.379 . S
C709 N707 1.356 . S
N710 C702 1.356 . S
N710 H716 0.984 1_554 S
N710 H717 0.984 . S
N711 C704 1.356 . S
N711 H714 0.984 . S
N711 H715 0.985 . S
H712 N707 0.984 . S
H713 N707 0.985 . S
H714 N711 0.984 . S
H715 N711 0.985 . S
H716 N710 0.984 1_556 S
H717 N710 0.984 . S
H718 N706 0.984 . S
H719 N706 0.985 . S
C720 C721 1.363 . S
C720 C726 1.379 . S
C720 N728 1.356 . S
C721 C720 1.363 . S
C721 C727 1.363 . S
C722 C723 1.363 . S
C722 C727 1.379 . S
C722 N729 1.356 . S
C723 C722 1.363 . S
C723 C726 1.363 . S
N724 C726 1.356 . S
N724 H736 0.984 . S
N724 H737 0.985 . S
N725 C727 1.356 . S
N725 H730 0.984 . S
N725 H731 0.985 1_655 S
C726 C720 1.379 . S
C726 C723 1.363 . S
C726 N724 1.356 . S
C727 C721 1.363 . S
C727 C722 1.379 . S
C727 N725 1.356 . S
N728 C720 1.356 . S
N728 H734 0.984 . S
N728 H735 0.984 . S
N729 C722 1.356 . S
N729 H732 0.984 . S
N729 H733 0.985 . S
H730 N725 0.984 . S
H731 N725 0.985 1_455 S
H732 N729 0.984 . S
H733 N729 0.985 . S
H734 N728 0.984 . S
H735 N728 0.984 . S
H736 N724 0.984 . S
H737 N724 0.985 . S
C738 C739 1.363 . S
C738 C744 1.379 . S
C738 N746 1.356 . S
C739 C738 1.363 . S
C739 C745 1.363 . S
C740 C741 1.363 . S
C740 C745 1.379 . S
C740 N747 1.356 . S
C741 C740 1.363 . S
C741 C744 1.363 . S
N742 C744 1.356 . S
N742 H754 0.984 . S
N742 H755 0.985 . S
N743 C745 1.324 1_545 S
N743 H748 0.987 . S
N743 H749 1.003 . S
C744 C738 1.379 . S
C744 C741 1.363 . S
C744 N742 1.356 . S
C745 C739 1.363 . S
C745 C740 1.379 . S
C745 N743 1.324 1_565 S
N746 C738 1.356 . S
N746 H752 0.984 . S
N746 H753 0.984 . S
N747 C740 1.356 . S
N747 H750 0.984 . S
N747 H751 0.977 1_565 S
H748 N743 0.987 . S
H749 N743 1.003 . S
H750 N747 0.984 . S
H751 N747 0.977 1_545 S
H752 N746 0.984 . S
H753 N746 0.984 . S
H754 N742 0.984 . S
H755 N742 0.985 . S
C756 C757 1.363 . S
C756 C762 1.379 . S
C756 N764 1.356 . S
C757 C756 1.363 . S
C757 C763 1.363 . S
C758 C759 1.363 . S
C758 C763 1.379 . S
C758 N765 1.356 . S
C759 C758 1.363 . S
C759 C762 1.363 . S
N760 C762 1.356 . S
N760 H772 0.984 . S
N760 H773 0.985 . S
N761 C763 1.356 . S
N761 H766 0.984 . S
N761 H767 0.985 . S
C762 C756 1.379 . S
C762 C759 1.363 . S
C762 N760 1.356 . S
C763 C757 1.363 . S
C763 C758 1.379 . S
C763 N761 1.356 . S
N764 C756 1.356 . S
N764 H770 0.984 . S
N764 H771 0.984 . S
N765 C758 1.356 . S
N765 H768 0.984 . S
N765 H769 0.985 . S
H766 N761 0.984 . S
H767 N761 0.985 . S
H768 N765 0.984 . S
H769 N765 0.985 . S
H770 N764 0.984 . S
H771 N764 0.984 . S
H772 N760 0.984 . S
H773 N760 0.985 . S
C774 C775 1.363 . S
C774 C780 1.379 . S
C774 N782 1.356 . S
C775 C774 1.363 . S
C775 C781 1.363 . S
C776 C777 1.363 . S
C776 C781 1.379 . S
C776 N783 1.356 . S
C777 C776 1.363 . S
C777 C780 1.363 . S
N778 C780 1.356 . S
N778 H790 0.984 . S
N778 H791 0.985 . S
N779 C781 1.356 . S
N779 H784 0.984 . S
N779 H785 0.985 . S
C780 C774 1.379 . S
C780 C777 1.363 . S
C780 N778 1.356 . S
C781 C775 1.363 . S
C781 C776 1.379 . S
C781 N779 1.356 . S
N782 C774 1.356 . S
N782 H788 0.995 . S
N782 H789 0.984 . S
N783 C776 1.356 . S
N783 H786 0.984 . S
N783 H787 0.985 . S
H784 N779 0.984 . S
H785 N779 0.985 . S
H786 N783 0.984 . S
H787 N783 0.985 . S
H788 N782 0.995 . S
H789 N782 0.984 . S
H790 N778 0.984 . S
H791 N778 0.985 . S
C361 C13 1.785 . S
C363 C106 1.745 . S
C379 C27 1.786 . S
C381 C145 1.746 . S
C399 C177 1.720 . S
C397 C29 1.786 . S
C417 C223 1.720 . S
C415 C54 1.786 . S
C435 C290 1.746 . S
C433 C69 1.786 . S
C453 C329 1.746 . S
C451 C83 1.786 . S
C469 C15 1.786 . S
C471 C191 1.746 . S
C487 C41 1.785 . S
C489 C237 1.746 . S
C507 C276 1.720 . S
C505 C42 1.786 . S
C525 C315 1.720 . S
C523 C57 1.786 . S
C541 C71 1.785 . S
C543 C92 1.720 . S
C561 C131 1.720 . S
C559 C1 1.785 . S
C579 C230 1.746 . S
C577 C12 1.786 . S
C595 C26 1.785 . S
C597 C283 1.720 . S
C615 C336 1.720 . S
C613 C28 1.785 . S
C631 C55 1.786 . S
C633 C99 1.720 . S
C649 C68 1.786 . S
C651 C152 1.720 . S
C667 C82 1.785 . S
C669 C184 1.746 . S
C685 C14 1.785 . S
C687 C322 1.746 . S
C705 C85 1.746 . S
C703 C40 1.786 . S
C721 C43 1.786 . S
C723 C138 1.746 . S
C739 C56 1.785 . S
C741 C198 1.719 . S
C757 C70 1.786 . S
C759 C244 1.720 . S
C775 C0 1.786 . S
C777 C269 1.746 . S
