# Generated by pormake.
# Topology zzz, (3,6)-cn, num edge types: 1
# Building blocks:
#     Node 0, Type 0, BuildingBlock: VETTIZ_charged_linker_0, # of connection points: 3
#     Node 1, Type 0, BuildingBlock: VETTIZ_charged_linker_0, # of connection points: 3
#     Node 2, Type 0, BuildingBlock: VETTIZ_charged_linker_0, # of connection points: 3
#     Node 3, Type 0, BuildingBlock: VETTIZ_charged_linker_0, # of connection points: 3
#     Node 4, Type 0, BuildingBlock: VETTIZ_charged_linker_0, # of connection points: 3
#     Node 5, Type 0, BuildingBlock: VETTIZ_charged_linker_0, # of connection points: 3
#     Node 6, Type 0, BuildingBlock: VETTIZ_charged_linker_0, # of connection points: 3
#     Node 7, Type 0, BuildingBlock: VETTIZ_charged_linker_0, # of connection points: 3
#     Node 8, Type 1, BuildingBlock: NUHQIS_clean_sbu_0, # of connection points: 6
#     Node 9, Type 1, BuildingBlock: NUHQIS_clean_sbu_0, # of connection points: 6
#     Node 10, Type 1, BuildingBlock: NUHQIS_clean_sbu_0, # of connection points: 6
#     Node 11, Type 1, BuildingBlock: NUHQIS_clean_sbu_0, # of connection points: 6
#     Edge 12, Type (0, 1), BuildingBlock: EZIPEK_clean_linker_0, # of connection points: 2
#     Edge 13, Type (0, 1), BuildingBlock: EZIPEK_clean_linker_0, # of connection points: 2
#     Edge 14, Type (0, 1), BuildingBlock: EZIPEK_clean_linker_0, # of connection points: 2
#     Edge 15, Type (0, 1), BuildingBlock: EZIPEK_clean_linker_0, # of connection points: 2
#     Edge 16, Type (0, 1), BuildingBlock: EZIPEK_clean_linker_0, # of connection points: 2
#     Edge 17, Type (0, 1), BuildingBlock: EZIPEK_clean_linker_0, # of connection points: 2
#     Edge 18, Type (0, 1), BuildingBlock: EZIPEK_clean_linker_0, # of connection points: 2
#     Edge 19, Type (0, 1), BuildingBlock: EZIPEK_clean_linker_0, # of connection points: 2
#     Edge 20, Type (0, 1), BuildingBlock: EZIPEK_clean_linker_0, # of connection points: 2
#     Edge 21, Type (0, 1), BuildingBlock: EZIPEK_clean_linker_0, # of connection points: 2
#     Edge 22, Type (0, 1), BuildingBlock: EZIPEK_clean_linker_0, # of connection points: 2
#     Edge 23, Type (0, 1), BuildingBlock: EZIPEK_clean_linker_0, # of connection points: 2
#     Edge 24, Type (0, 1), BuildingBlock: EZIPEK_clean_linker_0, # of connection points: 2
#     Edge 25, Type (0, 1), BuildingBlock: EZIPEK_clean_linker_0, # of connection points: 2
#     Edge 26, Type (0, 1), BuildingBlock: EZIPEK_clean_linker_0, # of connection points: 2
#     Edge 27, Type (0, 1), BuildingBlock: EZIPEK_clean_linker_0, # of connection points: 2
#     Edge 28, Type (0, 1), BuildingBlock: EZIPEK_clean_linker_0, # of connection points: 2
#     Edge 29, Type (0, 1), BuildingBlock: EZIPEK_clean_linker_0, # of connection points: 2
#     Edge 30, Type (0, 1), BuildingBlock: EZIPEK_clean_linker_0, # of connection points: 2
#     Edge 31, Type (0, 1), BuildingBlock: EZIPEK_clean_linker_0, # of connection points: 2
#     Edge 32, Type (0, 1), BuildingBlock: EZIPEK_clean_linker_0, # of connection points: 2
#     Edge 33, Type (0, 1), BuildingBlock: EZIPEK_clean_linker_0, # of connection points: 2
#     Edge 34, Type (0, 1), BuildingBlock: EZIPEK_clean_linker_0, # of connection points: 2
#     Edge 35, Type (0, 1), BuildingBlock: EZIPEK_clean_linker_0, # of connection points: 2
# Relax obj value: 0.484
# Max RMSD: 0.253
# Mean RMSD: 0.236
data_MOF--net-zzz--node1-NUHQIS_clean_sbu_0--node2-VETTIZ_charged_linker_0--edge1-EZIPEK_clean_linker_0
_symmetry_space_group_name_H-M    P1
_symmetry_Int_Tables_number       1
_symmetry_cell_setting            triclinic
loop_
_symmetry_equiv_pos_as_xyz
'x, y, z'
_cell_length_a     45.85963
_cell_length_b     45.808677
_cell_length_c     14.993618
_cell_angle_alpha  89.791426
_cell_angle_beta   89.684252
_cell_angle_gamma 90.099162
loop_
_atom_site_label
_atom_site_type_symbol
_atom_site_fract_x
_atom_site_fract_y
_atom_site_fract_z
_atom_type_partial_charge
C0 C 0.82715 0.5093 0.4628 0.0
C1 C 0.8426 0.52544 0.53794 0.0
C2 C 0.82697 0.55359 0.57495 0.0
C3 C 0.79636 0.55182 0.44252 0.0
C4 C 0.80282 0.52334 0.42206 0.0
C5 C 0.78292 0.51394 0.34491 0.0
H6 H 0.69166 0.56376 1.00848 0.0
C7 C 0.78065 0.56486 0.36775 0.0
C8 C 0.76606 0.54237 0.32264 0.0
H9 H 0.66083 0.49966 0.19842 0.0
H10 H 0.7058 0.50657 0.28796 0.0
H11 H 0.71422 0.61152 0.1516 0.0
H12 H 0.75468 0.5459 0.99504 0.0
H13 H 0.78506 0.56491 0.03754 0.0
H14 H 0.75936 0.58336 0.96624 0.0
H15 H 0.71748 0.60929 0.03209 0.0
H16 H 0.74618 0.62501 0.09693 0.0
C17 C 0.76221 0.48954 0.37597 0.0
C18 C 0.80148 0.5039 0.26479 0.0
C19 C 0.85328 0.62521 0.20749 0.0
C20 C 0.85936 0.61776 0.11911 0.0
C21 C 0.83614 0.61885 0.05799 0.0
C22 C 0.80731 0.61718 0.09022 0.0
C23 C 0.80277 0.6128 0.18232 0.0
C24 C 0.8254 0.61861 0.24079 0.0
C25 C 0.81959 0.60639 0.33277 0.0
C26 C 0.79155 0.58888 0.3164 0.0
C27 C 0.78185 0.59318 0.22826 0.0
C28 C 0.8144 0.63189 0.39725 0.0
C29 C 0.84579 0.58714 0.36249 0.0
C30 C 0.6946 0.5507 0.06809 0.0
C31 C 0.67268 0.53085 0.0949 0.0
C32 C 0.67746 0.51464 0.17469 0.0
C33 C 0.70339 0.51819 0.22563 0.0
C34 C 0.72499 0.53787 0.19629 0.0
C35 C 0.7199 0.55436 0.12019 0.0
C36 C 0.74354 0.57679 0.10506 0.0
C37 C 0.7607 0.574 0.19162 0.0
C38 C 0.75188 0.5493 0.24018 0.0
C39 C 0.72967 0.60738 0.09564 0.0
C40 C 0.7616 0.56743 0.02184 0.0
H41 H 0.79409 0.58513 0.54365 0.0
H42 H 0.83519 0.48861 0.43851 0.0
H43 H 0.81675 0.52149 0.24327 0.0
H44 H 0.78732 0.49831 0.2074 0.0
H45 H 0.81446 0.48426 0.28236 0.0
H46 H 0.74743 0.49748 0.42963 0.0
H47 H 0.77481 0.47071 0.4023 0.0
H48 H 0.74882 0.48162 0.31955 0.0
H49 H 0.87122 0.62865 0.25253 0.0
H50 H 0.8402 0.61554 0.98753 0.0
H51 H 0.79013 0.6153 0.04249 0.0
H52 H 0.79577 0.64554 0.37484 0.0
H53 H 0.83413 0.64598 0.40063 0.0
H54 H 0.80954 0.62398 0.46545 0.0
H55 H 0.84622 0.56629 0.32488 0.0
H56 H 0.8458 0.58297 0.43433 0.0
H57 H 0.86726 0.59776 0.35437 0.0
H58 H 0.83815 0.53923 0.56353 0.0
C59 C 0.80417 0.5649 0.52344 0.0
C60 C 0.02096 0.77745 0.85657 0.0
C61 C 0.99723 0.79272 0.81936 0.0
C62 C 0.97299 0.79863 0.8765 0.0
C63 C 1.00169 0.78611 1.00383 0.0
C64 C 0.02211 0.77348 0.94896 0.0
C65 C 0.04123 0.75249 0.99929 0.0
H66 H 0.99004 0.65656 0.21204 0.0
C67 C 1.00817 0.77843 0.09491 0.0
C68 C 0.02963 0.75692 0.09479 0.0
H69 H 0.06931 0.65457 0.05301 0.0
H70 H 0.0802 0.70471 0.09857 0.0
H71 H 0.02903 0.71037 0.38962 0.0
H72 H 0.96588 0.72387 0.17733 0.0
H73 H 0.95721 0.7356 0.28902 0.0
H74 H 0.95826 0.6973 0.26342 0.0
H75 H 0.99618 0.6887 0.38779 0.0
H76 H 0.99434 0.72698 0.41474 0.0
C77 C 0.07327 0.76224 0.991 0.0
C78 C 0.03613 0.72152 0.96021 0.0
C79 C 0.99627 0.85093 0.3409 0.0
C80 C 1.00401 0.85007 0.43179 0.0
C81 C 0.01109 0.82236 0.46856 0.0
C82 C 0.01101 0.79644 0.41634 0.0
C83 C 1.00313 0.79799 0.32616 0.0
C84 C 0.99601 0.82499 0.28972 0.0
C85 C 0.99017 0.82265 0.19116 0.0
C86 C 0.9978 0.79057 0.17491 0.0
C87 C 1.00321 0.7754 0.2542 0.0
C88 C 1.01036 0.8437 0.13879 0.0
C89 C 0.95777 0.82955 0.17378 0.0
C90 C 1.00986 0.66669 0.18766 0.0
C91 C 0.02773 0.65215 0.12274 0.0
C92 C 0.05445 0.66544 0.09839 0.0
C93 C 0.06084 0.69408 0.12407 0.0
C94 C 0.04006 0.70954 0.17248 0.0
C95 C 0.01744 0.69562 0.21466 0.0
C96 C 1.0014 0.71796 0.27317 0.0
C97 C 0.0169 0.74715 0.24949 0.0
C98 C 0.03476 0.7409 0.17456 0.0
C99 C 1.00549 0.71056 0.37223 0.0
C100 C 0.96875 0.71872 0.24928 0.0
H101 H 0.95671 0.79962 1.01077 0.0
H102 H 0.03849 0.76905 0.81576 0.0
H103 H 0.01814 0.71 0.99574 0.0
H104 H 0.05628 0.70828 0.96081 0.0
H105 H 0.03005 0.72197 0.88866 0.0
H106 H 0.07577 0.78545 1.01124 0.0
H107 H 0.08113 0.76003 0.92111 0.0
H108 H 0.08749 0.74891 0.03449 0.0
H109 H 0.99085 0.87162 0.31008 0.0
H110 H 0.01722 0.82097 0.53736 0.0
H111 H 0.01732 0.77583 0.44584 0.0
H112 H 1.0061 0.86674 0.15758 0.0
H113 H 1.00671 0.84199 0.06592 0.0
H114 H 0.03365 0.83875 0.15233 0.0
H115 H 0.94361 0.81074 0.19229 0.0
H116 H 0.95399 0.83552 0.10321 0.0
H117 H 0.95056 0.84876 0.21321 0.0
H118 H 0.95267 0.80717 0.85126 0.0
C119 C 0.97542 0.79574 0.96883 0.0
C120 C 0.84505 1.00244 0.11114 0.0
C121 C 0.86737 0.98733 0.06224 0.0
C122 C 0.86735 0.95657 0.0647 0.0
C123 C 0.82085 0.9564 0.1398 0.0
C124 C 0.82204 0.986 0.15224 0.0
C125 C 0.79646 0.99523 0.21308 0.0
H126 H 0.67169 0.94466 0.43793 0.0
C127 C 0.79357 0.94485 0.17508 0.0
C128 C 0.77944 0.96625 0.22613 0.0
H129 H 0.70203 0.03345 0.43838 0.0
H130 H 0.74416 0.01957 0.34457 0.0
H131 H 0.66586 0.9409 0.27789 0.0
H132 H 0.73221 0.9026 0.41896 0.0
H133 H 0.71885 0.87949 0.3326 0.0
H134 H 0.69358 0.89624 0.40874 0.0
H135 H 0.67258 0.90478 0.25098 0.0
H136 H 0.68755 0.93474 0.18364 0.0
C137 C 0.77793 0.01824 0.16464 0.0
C138 C 0.80874 1.00662 0.30163 0.0
C139 C 0.7283 0.9049 0.97587 0.0
C140 C 0.69859 0.90652 0.9988 0.0
C141 C 0.68863 0.88968 0.07141 0.0
C142 C 0.70868 0.88119 0.13662 0.0
C143 C 0.7372 0.89141 0.12833 0.0
C144 C 0.74826 0.89689 0.04347 0.0
C145 C 0.77941 0.90733 0.05052 0.0
C146 C 0.77842 0.91996 0.14538 0.0
C147 C 0.75264 0.9115 0.18939 0.0
C148 C 0.78725 0.92968 0.97606 0.0
C149 C 0.79924 0.88018 0.04437 0.0
C150 C 0.68801 0.96095 0.4211 0.0
C151 C 0.68364 0.98986 0.44712 0.0
C152 C 0.70486 1.01079 0.42005 0.0
C153 C 0.72924 1.00275 0.36567 0.0
C154 C 0.73216 0.97365 0.33595 0.0
C155 C 0.71108 0.95366 0.36293 0.0
C156 C 0.71178 0.92639 0.30839 0.0
C157 C 0.73982 0.9308 0.2539 0.0
C158 C 0.75221 0.95873 0.27009 0.0
C159 C 0.68331 0.92643 0.25186 0.0
C160 C 0.71416 0.89963 0.37059 0.0
H161 H 0.8456 0.91771 0.10947 0.0
H162 H 0.84554 0.02599 0.1165 0.0
H163 H 0.82329 0.99005 0.33238 0.0
H164 H 0.79125 0.01145 0.35024 0.0
H165 H 0.82161 0.02689 0.29037 0.0
H166 H 0.77117 1.01004 0.09815 0.0
H167 H 0.79055 0.03872 0.15459 0.0
H168 H 0.7579 0.02347 0.20264 0.0
H169 H 0.73549 0.91607 0.91609 0.0
H170 H 0.66555 0.88791 0.08614 0.0
H171 H 0.70115 0.871 0.19738 0.0
H172 H 0.77411 0.94992 0.98276 0.0
H173 H 0.7836 0.92006 0.90917 0.0
H174 H 0.81052 0.93563 0.97542 0.0
H175 H 0.79294 0.86654 0.98633 0.0
H176 H 0.79747 0.86645 0.10548 0.0
H177 H 0.82236 0.886 0.03356 0.0
H178 H 0.8849 0.9444 0.03363 0.0
C179 C 0.84466 0.94113 0.10572 0.0
C180 C 0.51637 0.70044 0.39089 0.0
C181 C 0.50565 0.67191 0.41393 0.0
C182 C 0.48323 0.66014 0.36202 0.0
C183 C 0.48029 0.70425 0.27239 0.0
C184 C 0.50342 0.7162 0.31817 0.0
C185 C 0.51133 0.74618 0.27745 0.0
H186 H 0.47197 0.85173 0.95984 0.0
C187 C 0.46981 0.72547 0.205 0.0
C188 C 0.48773 0.75055 0.20528 0.0
H189 H 0.54891 0.85569 0.12246 0.0
H190 H 0.53475 0.80949 0.19659 0.0
H191 H 0.4789 0.78742 0.90861 0.0
H192 H 0.42807 0.82927 0.11273 0.0
H193 H 0.40596 0.80148 0.0693 0.0
H194 H 0.4184 0.83062 0.99702 0.0
H195 H 0.44626 0.80741 0.88462 0.0
H196 H 0.44541 0.76905 0.91128 0.0
C197 C 0.54198 0.74411 0.23575 0.0
C198 C 0.5095 0.76986 0.34962 0.0
C199 C 0.38328 0.69464 0.02056 0.0
C200 C 0.3683 0.70723 0.94848 0.0
C201 C 0.37357 0.73688 0.92826 0.0
C202 C 0.39537 0.75257 0.97343 0.0
C203 C 0.41207 0.73848 0.03957 0.0
C204 C 0.40498 0.71035 0.06388 0.0
C205 C 0.42445 0.69841 0.13488 0.0
C206 C 0.4453 0.72374 0.14804 0.0
C207 C 0.43821 0.74701 0.09182 0.0
C208 C 0.44029 0.67105 0.09677 0.0
C209 C 0.40514 0.69275 0.21874 0.0
C210 C 0.48584 0.84287 1.01157 0.0
C211 C 0.51145 0.8575 0.03485 0.0
C212 C 0.52897 0.84487 0.10271 0.0
C213 C 0.52089 0.81802 0.14518 0.0
C214 C 0.49526 0.8033 0.11885 0.0
C215 C 0.4784 0.81628 0.0529 0.0
C216 C 0.4526 0.79824 0.02826 0.0
C217 C 0.45636 0.77204 0.08862 0.0
C218 C 0.48127 0.77438 0.14392 0.0
C219 C 0.4556 0.79014 0.92804 0.0
C220 C 0.42468 0.81571 0.0522 0.0
H221 H 0.4533 0.6651 0.25917 0.0
H222 H 0.53395 0.71011 0.42856 0.0
H223 H 0.48759 0.76969 0.38175 0.0
H224 H 0.51313 0.79187 0.32103 0.0
H225 H 0.5261 0.76605 0.40207 0.0
H226 H 0.54315 0.72544 0.18864 0.0
H227 H 0.55865 0.74069 0.28828 0.0
H228 H 0.54781 0.76397 0.19782 0.0
H229 H 0.37982 0.67207 0.03929 0.0
H230 H 0.36152 0.7478 0.87626 0.0
H231 H 0.3991 0.77472 0.95265 0.0
H232 H 0.44078 0.67106 0.02255 0.0
H233 H 0.42943 0.65056 0.11878 0.0
H234 H 0.46357 0.67012 0.11592 0.0
H235 H 0.3872 0.70901 0.22371 0.0
H236 H 0.41713 0.69514 0.28204 0.0
H237 H 0.39495 0.67075 0.21648 0.0
H238 H 0.4748 0.63848 0.37651 0.0
C239 C 0.47058 0.67592 0.29309 0.0
C240 C 0.34688 0.51837 0.36185 0.0
C241 C 0.3653 0.53222 0.42602 0.0
C242 C 0.35656 0.55924 0.46047 0.0
C243 C 0.31226 0.55863 0.37232 0.0
C244 C 0.32023 0.53219 0.33554 0.0
C245 C 0.29706 0.52222 0.26814 0.0
H246 H 0.16105 0.55454 0.08187 0.0
C247 C 0.2839 0.5679 0.33476 0.0
C248 C 0.27428 0.54697 0.27215 0.0
H249 H 0.21254 0.47928 0.01396 0.0
H250 H 0.25094 0.49531 0.1183 0.0
H251 H 0.15509 0.58565 0.23089 0.0
H252 H 0.2128 0.59808 0.06739 0.0
H253 H 0.21259 0.62339 0.15478 0.0
H254 H 0.17842 0.60967 0.11215 0.0
H255 H 0.17852 0.58707 0.32692 0.0
H256 H 0.16966 0.55327 0.28084 0.0
C257 C 0.284 0.49294 0.29922 0.0
C258 C 0.3111 0.52013 0.17501 0.0
C259 C 0.23338 0.65515 0.47553 0.0
C260 C 0.20512 0.66669 0.46453 0.0
C261 C 0.18991 0.65939 0.38565 0.0
C262 C 0.20062 0.63835 0.32705 0.0
C263 C 0.22679 0.62399 0.34671 0.0
C264 C 0.2435 0.6336 0.41674 0.0
C265 C 0.27092 0.61594 0.4265 0.0
C266 C 0.26666 0.59279 0.35477 0.0
C267 C 0.24065 0.59755 0.30929 0.0
C268 C 0.27093 0.60247 0.52181 0.0
C269 C 0.29715 0.63638 0.40507 0.0
C270 C 0.18042 0.54122 0.08917 0.0
C271 C 0.18332 0.51556 0.03986 0.0
C272 C 0.20938 0.49916 0.05158 0.0
C273 C 0.23167 0.50848 0.11183 0.0
C274 C 0.22816 0.53468 0.16035 0.0
C275 C 0.20268 0.55036 0.14656 0.0
C276 C 0.20167 0.57799 0.19816 0.0
C277 C 0.23031 0.57674 0.24736 0.0
C278 C 0.24657 0.55134 0.2271 0.0
C279 C 0.17486 0.57625 0.26225 0.0
C280 C 0.20111 0.60374 0.13025 0.0
H281 H 0.32573 0.59283 0.46472 0.0
H282 H 0.3531 0.49763 0.33328 0.0
H283 H 0.32199 0.54106 0.15698 0.0
H284 H 0.29471 0.51554 0.12317 0.0
H285 H 0.32774 0.50253 0.17335 0.0
H286 H 0.27554 0.49475 0.36862 0.0
H287 H 0.3008 0.4755 0.2978 0.0
H288 H 0.26568 0.48609 0.25651 0.0
H289 H 0.24667 0.66094 0.53186 0.0
H290 H 0.16832 0.66778 0.37234 0.0
H291 H 0.18689 0.63271 0.27218 0.0
H292 H 0.24848 0.59603 0.54259 0.0
H293 H 0.27919 0.61834 0.57156 0.0
H294 H 0.28374 0.58218 0.52706 0.0
H295 H 0.29059 0.6554 0.3634 0.0
H296 H 0.31424 0.62533 0.36507 0.0
H297 H 0.30702 0.64517 0.46691 0.0
H298 H 0.37005 0.57035 0.50891 0.0
C299 C 0.3306 0.57238 0.43416 0.0
C300 C 0.87176 0.2263 0.4723 0.0
C301 C 0.85628 0.20057 0.45178 0.0
C302 C 0.86436 0.18543 0.37306 0.0
C303 C 0.90565 0.21755 0.35026 0.0
C304 C 0.89633 0.23411 0.42131 0.0
C305 C 0.91684 0.2589 0.43999 0.0
H306 H 0.03713 0.33896 0.34882 0.0
C307 C 0.93382 0.22958 0.31807 0.0
C308 C 0.94025 0.25415 0.36896 0.0
H309 H 0.97068 0.3502 0.5517 0.0
H310 H 0.94674 0.30716 0.50359 0.0
H311 H 0.03978 0.25925 0.36781 0.0
H312 H 0.9906 0.31225 0.17978 0.0
H313 H 0.01435 0.28531 0.13342 0.0
H314 H 0.02953 0.31662 0.18818 0.0
H315 H 0.05816 0.28635 0.30057 0.0
H316 H 0.0461 0.25274 0.25165 0.0
C317 C 0.92901 0.25452 0.53577 0.0
C318 C 0.89979 0.28775 0.42487 0.0
C319 C 0.98733 0.17074 0.08649 0.0
C320 C 0.01125 0.1749 0.02933 0.0
C321 C 0.02764 0.2011 0.04034 0.0
C322 C 0.02009 0.2221 0.10717 0.0
C323 C 0.99536 0.2175 0.16226 0.0
C324 C 0.97937 0.19217 0.14857 0.0
C325 C 0.95161 0.19151 0.20052 0.0
C326 C 0.95394 0.21946 0.25324 0.0
C327 C 0.9798 0.23521 0.23343 0.0
C328 C 0.9521 0.16402 0.26147 0.0
C329 C 0.92598 0.19257 0.1329 0.0
C330 C 0.01752 0.33167 0.3827 0.0
C331 C 1.00565 0.34834 0.45491 0.0
C332 C 0.98021 0.33811 0.49676 0.0
C333 C 0.96618 0.3129 0.46809 0.0
C334 C 0.97741 0.29683 0.39606 0.0
C335 C 1.00298 0.30555 0.35468 0.0
C336 C 0.01096 0.28403 0.27976 0.0
C337 C 0.9858 0.26162 0.2838 0.0
C338 C 0.96625 0.27019 0.35213 0.0
C339 C 0.04045 0.26975 0.30085 0.0
C340 C 0.01147 0.30042 0.19004 0.0
H341 H 0.89444 0.17991 0.26811 0.0
H342 H 0.86621 0.23932 0.52974 0.0
H343 H 0.91374 0.30575 0.39993 0.0
H344 H 0.88849 0.29482 0.48682 0.0
H345 H 0.88289 0.28514 0.37247 0.0
H346 H 0.92955 0.23101 0.55472 0.0
H347 H 0.91539 0.26596 0.58613 0.0
H348 H 0.95192 0.26176 0.54229 0.0
H349 H 0.97378 0.15146 0.07973 0.0
H350 H 0.04598 0.2055 0.99655 0.0
H351 H 0.0331 0.24158 0.11239 0.0
H352 H 0.94624 0.1441 0.2235 0.0
H353 H 0.9375 0.16561 0.31993 0.0
H354 H 0.97422 0.16062 0.28982 0.0
H355 H 0.90794 0.20686 0.15553 0.0
H356 H 0.91729 0.17039 0.11936 0.0
H357 H 0.93277 0.20215 0.06766 0.0
H358 H 0.85334 0.16565 0.3528 0.0
C359 C 0.88881 0.19366 0.32309 0.0
C360 C 0.3282 0.01592 0.03378 0.0
C361 C 0.35593 1.00357 1.01098 0.0
C362 C 0.36576 0.97959 0.06061 0.0
C363 C 0.32138 0.9789 0.1495 0.0
C364 C 0.31125 1.00319 0.10464 0.0
C365 C 0.28153 0.01245 0.14348 0.0
H366 H 0.17204 0.97801 0.45394 0.0
C367 C 0.2993 0.9694 0.216 0.0
C368 C 0.2754 0.98874 0.21474 0.0
H369 H 0.1724 0.05413 0.28488 0.0
H370 H 0.21896 0.0384 0.21713 0.0
H371 H 0.19244 0.93333 0.30813 0.0
H372 H 0.23743 0.98236 0.50865 0.0
H373 H 0.2529 0.94744 0.50976 0.0
H374 H 0.21466 0.95154 0.53438 0.0
H375 H 0.19138 0.92327 0.42382 0.0
H376 H 0.21946 0.90992 0.34955 0.0
C377 C 0.25847 0.01207 0.06943 0.0
C378 C 0.28487 0.04281 0.18586 0.0
C379 C 0.32452 0.88204 0.40713 0.0
C380 C 0.31061 0.86788 0.47917 0.0
C381 C 0.2811 0.87442 0.49663 0.0
C382 C 0.26692 0.89679 0.44925 0.0
C383 C 0.28235 0.91266 0.38337 0.0
C384 C 0.31022 0.9042 0.36117 0.0
C385 C 0.32347 0.92274 0.28914 0.0
C386 C 0.29941 0.94485 0.27389 0.0
C387 C 0.27555 0.93906 0.32948 0.0
C388 C 0.32826 0.90283 0.20665 0.0
C389 C 0.35155 0.93728 0.32672 0.0
C390 C 0.18204 0.99145 0.40255 0.0
C391 C 0.16856 0.01729 0.37551 0.0
C392 C 0.18245 0.03411 0.30771 0.0
C393 C 0.20942 0.02504 0.26868 0.0
C394 C 0.22282 0.99899 0.29804 0.0
C395 C 0.20864 0.98292 0.36412 0.0
C396 C 0.22507 0.95627 0.39078 0.0
C397 C 0.25164 0.95855 0.33123 0.0
C398 C 0.25099 0.98353 0.27511 0.0
C399 C 0.2062 0.92917 0.36775 0.0
C400 C 0.23287 0.95921 0.49108 0.0
H401 H 0.35829 0.94896 0.16145 0.0
H402 H 0.32002 0.03458 0.99731 0.0
H403 H 0.30322 0.04286 0.23405 0.0
H404 H 0.26509 0.04939 0.22281 0.0
H405 H 0.28947 0.05957 0.13388 0.0
H406 H 0.25804 0.99039 0.03632 0.0
H407 H 0.26343 0.02892 0.01802 0.0
H408 H 0.23638 0.01627 0.09626 0.0
H409 H 0.34706 0.87755 0.39044 0.0
H410 H 0.26917 0.86296 0.54831 0.0
H411 H 0.24485 0.90156 0.46824 0.0
H412 H 0.31139 0.88536 0.2033 0.0
H413 H 0.34986 0.89193 0.20908 0.0
H414 H 0.32614 0.91462 0.14256 0.0
H415 H 0.35092 0.93882 0.40077 0.0
H416 H 0.35432 0.96017 0.30414 0.0
H417 H 0.37136 0.92476 0.30811 0.0
H418 H 0.38675 0.96983 0.04564 0.0
C419 C 0.3489 0.96732 0.12837 0.0
C420 C 0.51699 0.33312 0.07004 0.0
C421 C 0.52905 0.3613 0.05019 0.0
C422 C 0.5527 0.37101 0.10083 0.0
C423 C 0.55313 0.326 0.18694 0.0
C424 C 0.5295 0.31572 0.13971 0.0
C425 C 0.52076 0.28521 0.17428 0.0
H426 H 0.5529 0.17476 0.48219 0.0
C427 C 0.56218 0.30366 0.25289 0.0
C428 C 0.54353 0.27918 0.24761 0.0
H429 H 0.48229 0.17171 0.29443 0.0
H430 H 0.49665 0.22012 0.23566 0.0
H431 H 0.59913 0.19659 0.34783 0.0
H432 H 0.5451 0.24082 0.53898 0.0
H433 H 0.58005 0.25605 0.54805 0.0
H434 H 0.575 0.2177 0.56952 0.0
H435 H 0.60756 0.1968 0.46445 0.0
H436 H 0.62084 0.22491 0.38965 0.0
C437 C 0.52325 0.26309 0.09772 0.0
C438 C 0.4897 0.2867 0.21321 0.0
C439 C 0.64544 0.33009 0.45724 0.0
C440 C 0.65891 0.31598 0.52952 0.0
C441 C 0.65271 0.28623 0.54462 0.0
C442 C 0.63121 0.27189 0.49441 0.0
C443 C 0.61603 0.28738 0.42772 0.0
C444 C 0.62425 0.31558 0.40809 0.0
C445 C 0.60679 0.32874 0.33409 0.0
C446 C 0.58554 0.30418 0.31452 0.0
C447 C 0.59084 0.28019 0.36976 0.0
C448 C 0.62803 0.33441 0.25469 0.0
C449 C 0.59107 0.35631 0.37103 0.0
C450 C 0.54024 0.18443 0.42889 0.0
C451 C 0.51632 0.1694 0.39418 0.0
C452 C 0.50072 0.1829 0.32352 0.0
C453 C 0.50907 0.2109 0.28942 0.0
C454 C 0.53337 0.22559 0.32578 0.0
C455 C 0.54832 0.21177 0.3943 0.0
C456 C 0.57383 0.22892 0.42603 0.0
C457 C 0.57203 0.25569 0.36728 0.0
C458 C 0.54829 0.25452 0.30716 0.0
C459 C 0.60188 0.21098 0.40689 0.0
C460 C 0.56856 0.23622 0.5259 0.0
H461 H 0.5826 0.36323 0.20263 0.0
H462 H 0.49868 0.32496 0.03231 0.0
H463 H 0.48819 0.30425 0.26405 0.0
H464 H 0.48333 0.26603 0.24613 0.0
H465 H 0.47364 0.29147 0.15989 0.0
H466 H 0.54537 0.26407 0.06703 0.0
H467 H 0.50698 0.2679 0.04504 0.0
H468 H 0.5197 0.24049 0.12143 0.0
H469 H 0.64999 0.35275 0.44203 0.0
H470 H 0.66387 0.27416 0.59618 0.0
H471 H 0.62661 0.24959 0.51161 0.0
H472 H 0.61757 0.33161 0.18896 0.0
H473 H 0.64627 0.31842 0.2541 0.0
H474 H 0.63783 0.35656 0.25839 0.0
H475 H 0.56895 0.35926 0.34332 0.0
H476 H 0.60402 0.3764 0.3581 0.0
H477 H 0.58742 0.35476 0.44435 0.0
H478 H 0.56227 0.39227 0.08773 0.0
C479 C 0.56464 0.35381 0.16798 0.0
Tb480 Tb 0.03341 1.00547 0.77436 0.0
Eu481 Eu 0.99064 0.03148 0.62759 0.0
C482 C 0.06119 0.02691 0.58844 0.0
C483 C 0.01989 0.07281 0.7882 0.0
C484 C 0.04563 0.94302 0.89189 0.0
C485 C 0.05145 0.89112 0.86608 0.0
C486 C 0.0627 0.91775 0.89724 0.0
C487 C 0.01675 0.94046 0.86298 0.0
C488 C 1.00763 0.91567 0.81897 0.0
C489 C 0.02458 0.89038 0.8199 0.0
C490 C 0.05868 0.97219 0.88149 0.0
O491 O 0.9934 0.01676 0.84866 0.0
O492 O 0.96136 0.0113 0.73674 0.0
O493 O 1.00173 0.98779 0.56658 0.0
O494 O 0.01284 0.9685 0.70099 0.0
C495 C 0.96645 0.01271 0.82305 0.0
O496 O 0.95086 0.02777 0.54988 0.0
O497 O 0.97717 0.06708 0.53995 0.0
O498 O 0.03487 0.03214 0.55695 0.0
O499 O 0.06524 0.01963 0.67275 0.0
O500 O 0.03819 0.05166 0.80938 0.0
O501 O 1.00036 0.069 0.72445 0.0
C502 C 1.00769 0.96495 0.61546 0.0
O503 O 0.06854 0.97712 0.80123 0.0
O504 O 0.04232 0.99369 0.90792 0.0
C505 C 0.92612 0.07271 0.52983 0.0
C506 C 0.87836 0.1101 0.55578 0.0
C507 C 0.87851 0.08253 0.59634 0.0
C508 C 0.90221 0.0638 0.58283 0.0
C509 C 0.92538 0.10003 0.48764 0.0
C510 C 0.90171 0.11856 0.50054 0.0
C511 C 0.95244 0.05454 0.52018 0.0
H512 H 0.06491 0.87178 0.87072 0.0
H513 H 0.0851 0.91894 0.91946 0.0
H514 H 1.0028 0.9593 0.85849 0.0
H515 H 0.98782 0.91713 0.78035 0.0
H516 H 0.8606 0.07573 0.63906 0.0
H517 H 0.902 0.0426 0.61493 0.0
H518 H 0.9434 0.10729 0.446 0.0
H519 H 0.90186 0.13985 0.46871 0.0
Tb520 Tb 0.52528 0.02934 0.77116 0.0
Eu521 Eu 0.49779 0.98863 0.61955 0.0
C522 C 0.5053 0.05824 0.58987 0.0
C523 C 0.45661 0.01572 0.77581 0.0
C524 C 0.58022 0.04796 0.92091 0.0
C525 C 0.62504 0.02517 0.87004 0.0
C526 C 0.60332 0.04599 0.85885 0.0
C527 C 0.58198 0.03204 1.00109 0.0
C528 C 0.60391 0.01129 0.01246 0.0
C529 C 0.62435 1.00657 0.9442 0.0
C530 C 0.55129 0.05729 0.88936 0.0
O531 O 0.53655 0.98456 0.813 0.0
O532 O 0.4988 0.96116 0.74615 0.0
O533 O 0.54631 0.98611 0.58878 0.0
O534 O 0.56343 0.02136 0.68344 0.0
C535 C 0.51908 0.96181 0.80739 0.0
O536 O 0.5007 0.94819 0.54465 0.0
O537 O 0.46426 0.97735 0.52211 0.0
O538 O 0.50684 0.03243 0.55142 0.0
O539 O 0.50499 0.06033 0.67756 0.0
O540 O 0.4804 0.02252 0.82008 0.0
O541 O 0.45821 1.00733 0.69197 0.0
C542 C 0.56762 1.00277 0.61751 0.0
O543 O 0.55003 0.06622 0.80674 0.0
O544 O 0.53045 0.03877 0.90714 0.0
C545 C 0.45458 0.92666 0.52344 0.0
C546 C 0.4121 0.88362 0.55771 0.0
C547 C 0.4364 0.88599 0.6135 0.0
C548 C 0.45739 0.90761 0.59702 0.0
C549 C 0.43106 0.92317 0.46541 0.0
C550 C 0.41001 0.90183 0.48251 0.0
C551 C 0.47492 0.95123 0.50967 0.0
H552 H 0.64147 0.02247 0.81854 0.0
H553 H 0.60304 0.05824 0.79694 0.0
H554 H 0.56461 0.03322 0.05022 0.0
H555 H 0.60369 0.9975 0.07133 0.0
H556 H 0.4384 0.87206 0.67168 0.0
H557 H 0.47533 0.9099 0.64318 0.0
H558 H 0.42847 0.93753 0.40842 0.0
H559 H 0.39147 0.90016 0.43866 0.0
Tb560 Tb 0.50027 0.53164 0.81807 0.0
Eu561 Eu 0.54213 0.50444 0.66433 0.0
C562 C 0.47373 0.51484 0.6222 0.0
C563 C 0.51639 0.46367 0.82186 0.0
C564 C 0.43543 0.56757 0.91234 0.0
C565 C 0.40655 0.60965 0.95349 0.0
C566 C 0.42949 0.59057 0.97077 0.0
C567 C 0.417 0.56298 0.83869 0.0
C568 C 0.39374 0.58201 0.82202 0.0
C569 C 0.38913 0.60616 0.87758 0.0
C570 C 0.46217 0.55031 0.9252 0.0
O571 O 0.54262 0.53538 0.88594 0.0
O572 O 0.5716 0.51102 0.78536 0.0
O573 O 0.53512 0.55095 0.61619 0.0
O574 O 0.51074 0.57058 0.73614 0.0
C575 C 0.56806 0.52423 0.86264 0.0
O576 O 0.5833 0.50772 0.59177 0.0
O577 O 0.55493 0.47047 0.5703 0.0
O578 O 0.49961 0.50869 0.5889 0.0
O579 O 0.47021 0.52124 0.70743 0.0
O580 O 0.51189 0.48773 0.86784 0.0
O581 O 0.5221 0.4653 0.736 0.0
C582 C 0.52271 0.5733 0.65607 0.0
O583 O 0.46214 0.52398 0.89252 0.0
O584 O 0.48655 0.56399 0.90803 0.0
C585 C 0.60541 0.46155 0.57198 0.0
C586 C 0.64715 0.41832 0.60906 0.0
C587 C 0.64518 0.44309 0.66347 0.0
C588 C 0.62415 0.46445 0.64566 0.0
C589 C 0.60863 0.43762 0.51513 0.0
C590 C 0.62925 0.41619 0.53368 0.0
C591 C 0.58084 0.48165 0.55771 0.0
H592 H 0.40309 0.62794 0.99756 0.0
H593 H 0.44332 0.59448 0.02791 0.0
H594 H 0.42113 0.54535 0.79242 0.0
H595 H 0.38036 0.57879 0.76354 0.0
H596 H 0.65889 0.44517 0.72171 0.0
H597 H 0.62196 0.48267 0.69103 0.0
H598 H 0.5944 0.43491 0.45827 0.0
H599 H 0.63047 0.39728 0.4909 0.0
Tb600 Tb 1.00635 0.48629 0.84134 0.0
Eu601 Eu 0.03125 0.5266 0.68419 0.0
C602 C 0.02234 0.45619 0.65541 0.0
C603 C 0.07517 0.50139 0.83186 0.0
C604 C 0.98068 0.48097 0.06212 0.0
C605 C 0.9392 0.50095 0.14172 0.0
C606 C 0.9542 0.47679 0.10751 0.0
C607 C 0.99453 0.50831 0.06815 0.0
C608 C 0.97877 0.5326 0.09668 0.0
C609 C 0.94983 0.52942 0.12511 0.0
C610 C 0.98694 0.46337 0.98221 0.0
O611 O 0.99728 0.53198 0.88019 0.0
O612 O 0.03571 0.55342 0.81112 0.0
O613 O 0.98158 0.52939 0.67427 0.0
O614 O 0.97046 0.48641 0.74327 0.0
C615 C 0.01629 0.55349 0.87551 0.0
O616 O 0.0259 0.56692 0.609 0.0
O617 O 0.06183 0.53807 0.57703 0.0
O618 O 0.02362 0.48238 0.61812 0.0
O619 O 0.02012 0.45307 0.74315 0.0
O620 O 0.05182 0.49572 0.88076 0.0
O621 O 0.07234 0.50828 0.74719 0.0
C622 C 0.96278 0.50828 0.69093 0.0
O623 O 0.97056 0.47038 0.9149 0.0
O624 O 0.01419 0.46145 0.95782 0.0
C625 C 0.07094 0.58874 0.57259 0.0
C626 C 0.11259 0.6335 0.58811 0.0
C627 C 0.11122 0.61658 0.51031 0.0
C628 C 0.0905 0.59437 0.50255 0.0
C629 C 0.07193 0.60611 0.64989 0.0
C630 C 0.09248 0.62854 0.65724 0.0
C631 C 0.05056 0.56399 0.56631 0.0
H632 H 0.91725 0.49778 0.1671 0.0
H633 H 0.94322 0.45585 0.10527 0.0
H634 H 0.01559 0.51191 0.03693 0.0
H635 H 0.98798 0.55405 0.08694 0.0
H636 H 0.12666 0.62017 0.45636 0.0
H637 H 0.09014 0.5812 0.44267 0.0
H638 H 0.05717 0.60203 0.70521 0.0
H639 H 0.09331 0.64141 0.71765 0.0
C640 C 0.13931 0.04162 0.50017 0.0
C641 C 0.13982 0.02535 0.4195 0.0
C642 C 0.08841 0.01123 0.44629 0.0
C643 C 0.08748 0.0282 0.52608 0.0
N644 N 0.11038 0.06506 0.61607 0.0
N645 N 0.11301 1.00019 0.3061 0.0
C646 C 0.1125 0.04502 0.54909 0.0
C647 C 0.11367 0.01211 0.38948 0.0
N648 N 0.16473 0.05308 0.53178 0.0
N649 N 0.06605 0.99256 0.42731 0.0
H650 H 0.13113 1.00018 0.26368 0.0
H651 H 0.09395 0.99293 0.27582 0.0
H652 H 0.04746 0.99056 0.46677 0.0
H653 H 0.06702 0.97701 0.37691 0.0
H654 H 0.1668 0.06197 0.59525 0.0
H655 H 0.18431 0.05215 0.49609 0.0
H656 H 0.12677 0.08 0.63091 0.0
H657 H 0.09103 0.06873 0.65115 0.0
C658 C 0.48584 0.13409 0.49074 0.0
C659 C 0.50975 0.13915 0.43151 0.0
C660 C 0.53093 0.09206 0.47909 0.0
C661 C 0.50615 0.08584 0.53346 0.0
N662 N 0.45759 0.0992 0.57914 0.0
N663 N 0.55125 0.11924 0.35408 0.0
C664 C 0.48285 0.10637 0.53557 0.0
C665 C 0.53093 0.1168 0.42067 0.0
N666 N 0.46666 0.15619 0.50748 0.0
N667 N 0.55557 0.07567 0.48818 0.0
H668 H 0.55171 0.13686 0.30976 0.0
H669 H 0.56555 0.10246 0.33723 0.0
H670 H 0.55724 0.05893 0.53504 0.0
H671 H 0.5753 0.08079 0.45703 0.0
H672 H 0.45083 0.15525 0.55747 0.0
H673 H 0.46782 0.17634 0.47508 0.0
H674 H 0.43871 0.11175 0.57597 0.0
H675 H 0.45476 0.07936 0.61253 0.0
C676 C 0.39486 0.50281 0.53868 0.0
C677 C 0.39412 0.52043 0.46037 0.0
C678 C 0.44607 0.53311 0.48428 0.0
C679 C 0.44708 0.515 0.56192 0.0
N680 N 0.42394 0.47728 0.64964 0.0
N681 N 0.42081 0.54668 0.34772 0.0
C682 C 0.42188 0.49823 0.58491 0.0
C683 C 0.42046 0.53351 0.42959 0.0
N684 N 0.3694 0.49141 0.57121 0.0
N685 N 0.46871 0.55163 0.46582 0.0
H686 H 0.40244 0.54732 0.30696 0.0
H687 H 0.43976 0.55428 0.3168 0.0
H688 H 0.48751 0.55266 0.50423 0.0
H689 H 0.46786 0.56787 0.41713 0.0
H690 H 0.36749 0.48163 0.63378 0.0
H691 H 0.3497 0.49314 0.53707 0.0
H692 H 0.40737 0.4624 0.66403 0.0
H693 H 0.44331 0.47289 0.68326 0.0
C694 C 0.0371 0.37874 0.5601 0.0
C695 C 0.01706 0.37746 0.48807 0.0
C696 C 1.00069 0.42731 0.52547 0.0
C697 C 0.02147 0.42931 0.59571 0.0
N698 N 0.06397 0.40873 0.66564 0.0
N699 N 0.98552 0.4035 0.3886 0.0
C700 C 0.04107 0.40552 0.60864 0.0
C701 C 1.00107 0.40294 0.466 0.0
N702 N 0.05157 0.35398 0.58438 0.0
N703 N 0.97881 0.44739 0.51991 0.0
H704 H 0.98533 0.38591 0.34451 0.0
H705 H 0.97549 0.42224 0.36405 0.0
H706 H 0.97611 0.46389 0.56658 0.0
H707 H 0.9614 0.44564 0.47592 0.0
H708 H 0.06372 0.35218 0.64261 0.0
H709 H 0.05016 0.33468 0.54785 0.0
H710 H 0.08058 0.39341 0.67194 0.0
H711 H 0.0678 0.42797 0.7007 0.0
C712 C 0.92098 0.99805 0.04162 0.0
C713 C 0.89213 1.00175 1.01068 0.0
C714 C 0.91283 0.02111 0.86955 0.0
C715 C 0.94139 1.01098 0.89205 0.0
N716 N 0.97102 0.98733 1.00653 0.0
N717 N 0.86052 0.01533 0.89002 0.0
C718 C 0.94513 0.99918 0.98049 0.0
C719 C 0.88805 0.01302 0.92332 0.0
N720 N 0.92535 0.99337 0.1306 0.0
N721 N 0.90933 0.04007 0.80007 0.0
H722 H 0.84195 1.01057 0.92793 0.0
H723 H 0.85637 0.02015 0.82328 0.0
H724 H 0.92686 0.04888 0.76455 0.0
H725 H 0.8895 0.05011 0.78596 0.0
H726 H 0.9459 0.99364 0.15993 0.0
H727 H 0.90813 0.99251 0.17642 0.0
H728 H 0.97317 0.97468 0.064 0.0
H729 H 0.99004 0.98793 0.9696 0.0
C730 C 0.51068 0.91302 0.01777 0.0
C731 C 0.5193 0.88531 0.98409 0.0
C732 C 0.53376 0.9094 0.84184 0.0
C733 C 0.52178 0.93629 0.87156 0.0
N734 N 0.49789 0.96372 0.98725 0.0
N735 N 0.53857 0.85686 0.8628 0.0
C736 C 0.51036 0.93817 0.95994 0.0
C737 C 0.53097 0.88356 0.89593 0.0
N738 N 0.50274 0.91524 0.10546 0.0
N739 N 0.5485 0.90877 0.76237 0.0
H740 H 0.53848 0.83793 0.90172 0.0
H741 H 0.54365 0.85312 0.7961 0.0
H742 H 0.5509 0.92717 0.72174 0.0
H743 H 0.56042 0.89089 0.74007 0.0
H744 H 0.49889 0.93496 0.1376 0.0
H745 H 0.50218 0.89729 0.14846 0.0
H746 H 0.48601 0.96596 0.04612 0.0
H747 H 0.498 0.9826 0.94821 0.0
C748 C 0.62611 0.55315 0.02926 0.0
C749 C 0.64457 0.52838 0.0407 0.0
C750 C 0.61003 0.49999 0.94798 0.0
C751 C 0.59387 0.52568 0.92664 0.0
N752 N 0.59051 0.5781 0.93698 0.0
N753 N 0.65598 0.47911 0.9968 0.0
C754 C 0.60294 0.55261 0.96502 0.0
C755 C 0.63697 0.50203 0.99624 0.0
N756 N 0.6301 0.57709 0.08189 0.0
N757 N 0.59901 0.47328 0.92579 0.0
H758 H 0.67586 0.4797 0.0301 0.0
H759 H 0.65324 0.4606 0.95751 0.0
H760 H 0.57884 0.47074 0.89515 0.0
H761 H 0.6082 0.45365 0.94673 0.0
H762 H 0.61565 0.5946 0.08345 0.0
H763 H 0.64616 0.57812 0.13079 0.0
H764 H 0.59831 0.59861 0.95504 0.0
H765 H 0.57429 0.57893 0.88861 0.0
C766 C 0.99714 0.62348 1.00896 0.0
C767 C 0.01965 0.6241 0.07432 0.0
C768 C 0.03964 0.57863 1.00981 0.0
C769 C 0.01674 0.57741 0.94585 0.0
N770 N 0.96989 0.5955 0.8994 0.0
N771 N 0.0569 0.59753 0.15151 0.0
C772 C 0.99418 0.59873 0.95073 0.0
C773 C 0.03909 0.60006 0.07915 0.0
N774 N 0.97965 0.64732 0.99816 0.0
N775 N 0.06238 0.55957 1.00401 0.0
H776 H 0.05648 0.61254 0.20375 0.0
H777 H 0.06965 0.57922 0.16429 0.0
H778 H 0.06317 0.54298 0.95723 0.0
H779 H 0.08139 0.56153 0.04122 0.0
H780 H 0.9653 0.64975 0.94507 0.0
H781 H 0.9808 0.66565 0.03886 0.0
H782 H 0.95123 0.60817 0.90751 0.0
H783 H 0.96752 0.57865 0.85341 0.0
C784 C 0.84899 0.18299 0.60531 0.0
C785 C 0.83677 0.18601 0.51982 0.0
C786 C 0.83155 0.13347 0.51087 0.0
C787 C 0.85491 0.13151 0.57221 0.0
N788 N 0.88021 0.15261 0.69682 0.0
N789 N 0.79828 0.16628 0.43233 0.0
C790 C 0.86118 0.15559 0.62793 0.0
C791 C 0.82067 0.16175 0.48981 0.0
N792 N 0.84891 0.20598 0.66237 0.0
N793 N 0.82218 0.10909 0.4677 0.0
H794 H 0.79233 0.18749 0.41415 0.0
H795 H 0.78512 0.14962 0.40783 0.0
H796 H 0.83016 0.08842 0.48386 0.0
H797 H 0.80692 0.10944 0.41658 0.0
H798 H 0.85653 0.20458 0.7276 0.0
H799 H 0.83836 0.22542 0.6456 0.0
H800 H 0.88783 0.17023 0.7338 0.0
H801 H 0.88872 0.13228 0.71461 0.0
C802 C 0.3358 0.86583 0.62308 0.0
C803 C 0.32929 0.8513 0.54292 0.0
C804 C 0.38094 0.84055 0.52217 0.0
C805 C 0.38701 0.86431 0.57949 0.0
N806 N 0.37149 0.89508 0.70098 0.0
N807 N 0.34239 0.81394 0.44267 0.0
C808 C 0.36495 0.87489 0.63749 0.0
C809 C 0.35113 0.83374 0.5044 0.0
N810 N 0.31412 0.87146 0.68294 0.0
N811 N 0.40356 0.82655 0.4813 0.0
H812 H 0.35639 0.80063 0.40606 0.0
H813 H 0.35639 0.80063 0.40606 0.0
H814 H 0.42519 0.83197 0.49533 0.0
H815 H 0.40128 0.80915 0.4376 0.0
H816 H 0.31773 0.88085 0.74507 0.0
H817 H 0.29309 0.86338 0.67406 0.0
H818 H 0.35575 0.90624 0.7377 0.0
H819 H 0.39287 0.90101 0.71538 0.0
C820 C 0.66044 0.34157 0.67371 0.0
C821 C 0.67528 0.33448 0.59397 0.0
C822 C 0.68888 0.38554 0.57401 0.0
C823 C 0.66561 0.39283 0.63222 0.0
N824 N 0.63495 0.37924 0.75645 0.0
N825 N 0.71466 0.34645 0.49611 0.0
C826 C 0.65388 0.37132 0.69041 0.0
C827 C 0.69427 0.35551 0.55628 0.0
N828 N 0.65219 0.31988 0.73095 0.0
N829 N 0.70368 0.40736 0.53122 0.0
H830 H 0.71725 0.32424 0.48235 0.0
H831 H 0.72926 0.36024 0.46332 0.0
H832 H 0.69951 0.42929 0.54525 0.0
H833 H 0.72015 0.40396 0.48448 0.0
H834 H 0.64228 0.32355 0.79248 0.0
H835 H 0.65835 0.29829 0.72063 0.0
H836 H 0.62287 0.36445 0.79446 0.0
H837 H 0.63128 0.40102 0.77271 0.0
C838 C 0.1626 0.69461 0.52079 0.0
C839 C 0.1886 0.67973 0.54154 0.0
C840 C 0.16244 0.6473 0.64144 0.0
C841 C 0.13638 0.65519 0.59681 0.0
N842 N 0.10954 0.69146 0.51471 0.0
N843 N 0.21208 0.66225 0.67369 0.0
C844 C 0.1356 0.68122 0.54503 0.0
C845 C 0.18823 0.66288 0.62021 0.0
N846 N 0.16433 0.71911 0.46938 0.0
N847 N 0.16303 0.62414 0.69876 0.0
H848 H 0.22995 0.67581 0.66094 0.0
H849 H 0.21243 0.6513 0.73474 0.0
H850 H 0.14431 0.61259 0.71692 0.0
H851 H 0.18232 0.61586 0.72511 0.0
H852 H 0.14643 0.73159 0.4507 0.0
H853 H 0.18463 0.72732 0.44937 0.0
H854 H 0.10745 0.70924 0.47189 0.0
H855 H 0.08979 0.68187 0.53379 0.0
C856 C 0.97923 0.82936 0.71589 0.0
C857 C 0.99999 0.80751 0.72962 0.0
C858 C 0.03624 0.84616 0.72458 0.0
C859 C 0.01508 0.86405 0.7688 0.0
N860 N 0.96302 0.86862 0.80769 0.0
N861 N 0.04735 0.7968 0.6714 0.0
C862 C 0.985 0.8557 0.76071 0.0
C863 C 0.02849 0.81655 0.70689 0.0
N864 N 0.95272 0.82273 0.68162 0.0
N865 N 0.06224 0.85765 0.69707 0.0
H866 H 0.0403 0.77563 0.65685 0.0
H867 H 0.06918 0.80118 0.65745 0.0
H868 H 0.0666 0.87997 0.70121 0.0
H869 H 0.07813 0.84579 0.66331 0.0
H870 H 0.93663 0.83857 0.67303 0.0
H871 H 0.94839 0.80181 0.65739 0.0
H872 H 0.94146 0.86149 0.80305 0.0
H873 H 0.96667 0.88263 0.86098 0.0
C874 C 0.69053 0.96131 0.99693 0.0
C875 C 0.68113 0.93261 0.9721 0.0
C876 C 0.63376 0.95275 0.92914 0.0
C877 C 0.64421 0.98127 0.94846 0.0
N878 N 0.68453 0.01337 0.98001 0.0
N879 N 0.64596 0.9022 0.89826 0.0
C880 C 0.67334 0.98573 0.97432 0.0
C881 C 0.65335 0.92873 0.93295 0.0
N882 N 0.71435 0.96549 0.04968 0.0
N883 N 0.60505 0.94857 0.90849 0.0
H884 H 0.66007 0.88436 0.89949 0.0
H885 H 0.62712 0.89862 0.86139 0.0
H886 H 0.59034 0.96572 0.9009 0.0
H887 H 0.59542 0.92803 0.90402 0.0
H888 H 0.71956 0.98546 0.0786 0.0
H889 H 0.72697 0.94882 0.07468 0.0
H890 H 0.70676 0.01753 0.98715 0.0
H891 H 0.67217 0.03218 0.97049 0.0
C892 C 0.336 0.66463 0.92902 0.0
C893 C 0.35219 0.6872 0.8875 0.0
C894 C 0.37731 0.65203 0.79424 0.0
C895 C 0.36834 0.62988 0.85495 0.0
N896 N 0.3323 0.6123 0.95872 0.0
N897 N 0.37035 0.70208 0.74431 0.0
C898 C 0.34459 0.63517 0.91368 0.0
C899 C 0.36653 0.68072 0.80669 0.0
N900 N 0.31547 0.6721 0.99078 0.0
N901 N 0.39764 0.64625 0.73004 0.0
H902 H 0.36106 0.72265 0.75221 0.0
H903 H 0.37942 0.69837 0.68154 0.0
H904 H 0.40516 0.62525 0.71728 0.0
H905 H 0.40745 0.6624 0.69108 0.0
H906 H 0.30312 0.65719 0.02743 0.0
H907 H 0.31061 0.69404 1.00265 0.0
H908 H 0.31542 0.61433 1.00486 0.0
H909 H 0.3388 0.59082 0.94663 0.0
C910 C 0.91296 0.60501 0.13447 0.0
C911 C 0.88448 0.59732 0.10529 0.0
C912 C 0.9032 0.54948 0.06487 0.0
C913 C 0.92887 0.55424 0.11474 0.0
N914 N 0.95665 0.58728 0.20708 0.0
N915 N 0.85196 0.55612 0.07647 0.0
C916 C 0.93364 0.5824 0.15176 0.0
C917 C 0.87929 0.56794 0.07882 0.0
N918 N 0.92003 0.63363 0.14669 0.0
N919 N 0.90129 0.52737 1.00452 0.0
H920 H 0.83375 0.56624 0.10348 0.0
H921 H 0.84837 0.53414 0.06195 0.0
H922 H 0.9192 0.51471 0.98608 0.0
H923 H 0.88278 0.52444 0.96538 0.0
H924 H 0.9411 0.64053 0.16162 0.0
H925 H 0.90537 0.65046 0.13305 0.0
H926 H 0.95962 0.60688 0.24089 0.0
H927 H 0.97098 0.5708 0.22622 0.0
C928 C 0.99231 0.14356 0.90248 0.0
C929 C 0.01633 0.15227 0.95588 0.0
C930 C 0.045 0.1133 0.88136 0.0
C931 C 0.01923 0.10101 0.84318 0.0
N932 N 0.96626 0.10207 0.84537 0.0
N933 N 0.06536 0.14145 1.0034 0.0
C934 C 0.9923 0.11562 0.86069 0.0
C935 C 0.04274 0.13613 0.947 0.0
N936 N 0.96913 0.1619 0.89207 0.0
N937 N 0.07178 0.10413 0.85312 0.0
H938 H 0.06451 0.15732 0.05293 0.0
H939 H 0.08387 0.12831 1.00589 0.0
H940 H 0.07452 0.08921 0.80149 0.0
H941 H 0.09113 0.114 0.87334 0.0
H942 H 0.95206 0.15742 0.84847 0.0
H943 H 0.96878 0.18289 0.91895 0.0
H944 H 0.9463 0.11128 0.86335 0.0
H945 H 0.96455 0.08018 0.82797 0.0
C946 C 0.39569 0.03644 0.94388 0.0
C947 C 0.37563 0.01299 0.93431 0.0
C948 C 0.40743 0.99214 0.81718 0.0
C949 C 0.42731 0.01604 0.82435 0.0
N950 N 0.43507 0.06503 0.87789 0.0
N951 N 0.35828 0.97386 0.84275 0.0
C952 C 0.41977 0.03948 0.88262 0.0
C953 C 0.3801 0.99291 0.86366 0.0
N954 N 0.39252 0.05516 0.01383 0.0
N955 N 0.41543 0.96738 0.77286 0.0
H956 H 0.33824 0.97393 0.87615 0.0
H957 H 0.35897 0.96044 0.78681 0.0
H958 H 0.43582 0.96438 0.74358 0.0
H959 H 0.403 0.94835 0.77422 0.0
H960 H 0.40827 0.07049 0.03129 0.0
H961 H 0.3747 0.05419 0.05731 0.0
H962 H 0.42914 0.08372 0.9129 0.0
H963 H 0.4518 0.06851 0.8316 0.0
C964 C 0.49725 0.40305 0.99327 0.0
C965 C 0.51917 0.38184 0.97664 0.0
C966 C 0.53827 0.41288 0.85398 0.0
C967 C 0.51605 0.43416 0.86955 0.0
N968 N 0.46922 0.4441 0.93694 0.0
N969 N 0.55493 0.36287 0.8752 0.0
C970 C 0.49396 0.42756 0.9341 0.0
C971 C 0.53757 0.38554 0.90099 0.0
N972 N 0.48019 0.40039 0.06776 0.0
N973 N 0.56147 0.41938 0.79978 0.0
H974 H 0.55492 0.3429 0.90901 0.0
H975 H 0.56674 0.36277 0.81566 0.0
H976 H 0.56443 0.43943 0.76825 0.0
H977 H 0.57956 0.40589 0.79329 0.0
H978 H 0.46635 0.41684 0.0902 0.0
H979 H 0.48114 0.38219 0.10972 0.0
H980 H 0.45127 0.43896 0.9769 0.0
H981 H 0.46531 0.46105 0.89199 0.0
C982 C 0.1393 0.48437 0.99225 0.0
C983 C 0.15896 0.50786 0.97492 0.0
C984 C 0.1243 0.52676 0.86202 0.0
C985 C 0.10502 0.50268 0.87657 0.0
N986 N 0.0988 0.45465 0.94026 0.0
N987 N 0.17118 0.54892 0.87903 0.0
C988 C 0.11392 0.48036 0.93733 0.0
C989 C 0.15196 0.52779 0.90499 0.0
N990 N 0.14391 0.46662 0.06415 0.0
N991 N 0.11616 0.54978 0.8096 0.0
H992 H 0.19224 0.55099 0.90437 0.0
H993 H 0.19224 0.55099 0.90437 0.0
H994 H 0.09541 0.55222 0.78298 0.0
H995 H 0.1298 0.56766 0.79776 0.0
H996 H 0.12862 0.45151 0.08721 0.0
H997 H 0.16216 0.46848 0.1049 0.0
H998 H 0.1057 0.43647 0.97629 0.0
H999 H 0.08107 0.45037 0.89902 0.0
C1000 C 0.97886 0.89225 0.51502 0.0
C1001 C 1.00512 0.87829 0.48666 0.0
C1002 C 0.03316 0.92032 0.54794 0.0
C1003 C 1.00686 0.93438 0.575 0.0
N1004 N 0.95516 0.93122 0.59935 0.0
N1005 N 0.05759 0.87752 0.4859 0.0
C1006 C 0.97986 0.91956 0.56263 0.0
C1007 C 0.03235 0.89191 0.50653 0.0
N1008 N 0.95274 0.87948 0.49516 0.0
N1009 N 0.05904 0.93464 0.55974 0.0
H1010 H 0.05795 0.8577 0.45203 0.0
H1011 H 0.07819 0.88414 0.50617 0.0
H1012 H 0.06057 0.95453 0.59306 0.0
H1013 H 0.0789 0.92781 0.5335 0.0
H1014 H 0.93264 0.88963 0.50342 0.0
H1015 H 0.95114 0.85886 0.46628 0.0
H1016 H 0.93516 0.92052 0.60212 0.0
H1017 H 0.95514 0.95102 0.63355 0.0
C1018 C 0.63026 1.0056 0.44077 0.0
C1019 C 0.65486 0.99737 0.4928 0.0
C1020 C 0.62226 0.99171 0.6244 0.0
C1021 C 0.59767 1.00072 0.57363 0.0
N1022 N 0.57766 0.01255 0.4295 0.0
N1023 N 0.67501 0.98715 0.637 0.0
C1024 C 0.60159 1.00678 0.48065 0.0
C1025 C 0.65097 0.99177 0.58544 0.0
N1026 N 0.63453 0.01274 0.35294 0.0
N1027 N 0.61786 0.98057 0.70799 0.0
H1028 H 0.69611 0.98692 0.61062 0.0
H1029 H 0.67438 0.98617 0.70639 0.0
H1030 H 0.59736 0.97958 0.73832 0.0
H1031 H 0.63396 0.96985 0.74401 0.0
H1032 H 0.6187 0.02154 0.31155 0.0
H1033 H 0.65481 0.01143 0.3215 0.0
H1034 H 0.57792 0.01438 0.36043 0.0
H1035 H 0.55665 0.01429 0.45552 0.0
C1036 C 0.54097 0.63644 0.49137 0.0
C1037 C 0.51493 0.65324 0.49313 0.0
C1038 C 0.49437 0.61862 0.6039 0.0
C1039 C 0.52085 0.60234 0.60592 0.0
N1040 N 0.57212 0.60171 0.56843 0.0
N1041 N 0.47107 0.66511 0.57314 0.0
C1042 C 0.54502 0.61312 0.5548 0.0
C1043 C 0.49331 0.646 0.55777 0.0
N1044 N 0.56136 0.64184 0.4268 0.0
N1045 N 0.46925 0.60702 0.63844 0.0
H1046 H 0.46976 0.68519 0.54022 0.0
H1047 H 0.45607 0.66235 0.62495 0.0
H1048 H 0.46784 0.58616 0.66594 0.0
H1049 H 0.44894 0.61669 0.62938 0.0
H1050 H 0.57912 0.6282 0.41499 0.0
H1051 H 0.5595 0.65911 0.3817 0.0
H1052 H 0.59092 0.61024 0.53894 0.0
H1053 H 0.57621 0.58584 0.61682 0.0
C1054 C 0.90043 0.51952 0.51843 0.0
C1055 C 0.87506 0.51303 0.56973 0.0
C1056 C 0.90677 0.50335 0.70011 0.0
C1057 C 0.93246 0.50899 0.64829 0.0
N1058 N 0.95302 0.51635 0.50093 0.0
N1059 N 0.85444 0.49318 0.70341 0.0
C1060 C 0.92903 0.51531 0.55536 0.0
C1061 C 0.87854 0.50298 0.65855 0.0
N1062 N 0.89722 0.53107 0.43505 0.0
N1063 N 0.90898 0.50036 0.79048 0.0
H1064 H 0.83385 0.4928 0.67411 0.0
H1065 H 0.85516 0.48284 0.76528 0.0
H1066 H 0.9285 0.50288 0.82468 0.0
H1067 H 0.8911 0.49814 0.83285 0.0
H1068 H 0.91427 0.54031 0.39841 0.0
H1069 H 0.87703 0.53275 0.40415 0.0
H1070 H 0.95182 0.51744 0.43167 0.0
H1071 H 0.97421 0.51331 0.52366 0.0
loop_
_geom_bond_atom_site_label_1
_geom_bond_atom_site_label_2
_geom_bond_distance
_geom_bond_site_symmetry_2
_ccdc_geom_bond_type
C0 C1 1.391 . S
C0 C4 1.391 . S
C0 H42 0.948 . S
C1 C0 1.391 . S
C1 C2 1.391 . S
C2 C1 1.391 . S
C2 H58 0.947 . S
C2 C59 1.392 . S
C3 C4 1.391 . S
C3 C7 1.397 . S
C3 C59 1.419 . S
C4 C0 1.391 . S
C4 C3 1.391 . S
C4 C5 1.399 . S
C5 C4 1.399 . S
C5 C8 1.396 . S
C5 C17 1.453 . S
C5 C18 1.684 . S
H6 C30 0.948 . S
C7 C3 1.397 . S
C7 C8 1.394 . S
C7 C26 1.723 . S
C8 C5 1.396 . S
C8 C7 1.394 . S
C8 C38 1.723 . S
H9 C32 0.947 . S
H10 C33 0.948 . S
H11 C39 0.982 . S
H12 C40 0.979 . S
H13 C40 0.980 . S
H14 C40 0.983 . S
H15 C39 0.979 . S
H16 C39 0.977 . S
C17 C5 1.453 . S
C17 H46 0.982 . S
C17 H47 0.979 . S
C17 H48 0.977 . S
C18 C5 1.684 . S
C18 H43 0.979 . S
C18 H44 0.980 . S
C18 H45 0.983 . S
C19 C20 1.391 . S
C19 C24 1.391 . S
C19 H49 0.948 . S
C20 C19 1.391 . S
C20 C21 1.391 . S
C21 C20 1.391 . S
C21 C22 1.392 . S
C21 H50 0.947 . S
C22 C21 1.392 . S
C22 C23 1.419 . S
C22 H51 0.948 . S
C23 C22 1.419 . S
C23 C24 1.391 . S
C23 C27 1.397 . S
C24 C19 1.391 . S
C24 C23 1.391 . S
C24 C25 1.399 . S
C25 C24 1.399 . S
C25 C26 1.396 . S
C25 C28 1.453 . S
C25 C29 1.684 . S
C26 C7 1.723 . S
C26 C25 1.396 . S
C26 C27 1.394 . S
C27 C23 1.397 . S
C27 C26 1.394 . S
C27 C37 1.723 . S
C28 C25 1.453 . S
C28 H52 0.982 . S
C28 H53 0.979 . S
C28 H54 0.977 . S
C29 C25 1.684 . S
C29 H55 0.979 . S
C29 H56 0.980 . S
C29 H57 0.983 . S
C30 H6 0.948 . S
C30 C31 1.391 . S
C30 C35 1.391 . S
C31 C30 1.391 . S
C31 C32 1.391 . S
C32 H9 0.947 . S
C32 C31 1.391 . S
C32 C33 1.392 . S
C33 H10 0.948 . S
C33 C32 1.392 . S
C33 C34 1.419 . S
C34 C33 1.419 . S
C34 C35 1.391 . S
C34 C38 1.397 . S
C35 C30 1.391 . S
C35 C34 1.391 . S
C35 C36 1.399 . S
C36 C35 1.399 . S
C36 C37 1.396 . S
C36 C39 1.453 . S
C36 C40 1.684 . S
C37 C27 1.723 . S
C37 C36 1.396 . S
C37 C38 1.394 . S
C38 C8 1.723 . S
C38 C34 1.397 . S
C38 C37 1.394 . S
C39 H11 0.982 . S
C39 H15 0.979 . S
C39 H16 0.977 . S
C39 C36 1.453 . S
C40 H12 0.979 . S
C40 H13 0.980 . S
C40 H14 0.983 . S
C40 C36 1.684 . S
H41 C59 0.948 . S
H42 C0 0.948 . S
H43 C18 0.979 . S
H44 C18 0.980 . S
H45 C18 0.983 . S
H46 C17 0.982 . S
H47 C17 0.979 . S
H48 C17 0.977 . S
H49 C19 0.948 . S
H50 C21 0.947 . S
H51 C22 0.948 . S
H52 C28 0.982 . S
H53 C28 0.979 . S
H54 C28 0.977 . S
H55 C29 0.979 . S
H56 C29 0.980 . S
H57 C29 0.983 . S
H58 C2 0.947 . S
C59 C2 1.392 . S
C59 C3 1.419 . S
C59 H41 0.948 . S
C60 C61 1.391 . S
C60 C64 1.391 . S
C60 H102 0.948 . S
C61 C60 1.391 . S
C61 C62 1.391 . S
C62 C61 1.391 . S
C62 H118 0.947 . S
C62 C119 1.392 . S
C63 C64 1.391 . S
C63 C67 1.397 1_655 S
C63 C119 1.419 . S
C64 C60 1.391 . S
C64 C63 1.391 . S
C64 C65 1.399 . S
C65 C64 1.399 . S
C65 C68 1.396 1_655 S
C65 C77 1.453 1_655 S
C65 C78 1.684 . S
H66 C90 0.948 . S
C67 C63 1.397 1_455 S
C67 C68 1.394 . S
C67 C86 1.723 . S
C68 C65 1.396 1_455 S
C68 C67 1.394 . S
C68 C98 1.723 . S
H69 C92 0.947 . S
H70 C93 0.948 . S
H71 C99 0.982 . S
H72 C100 0.979 . S
H73 C100 0.980 . S
H74 C100 0.983 . S
H75 C99 0.979 . S
H76 C99 0.977 . S
C77 C65 1.453 1_455 S
C77 H106 0.982 . S
C77 H107 0.979 . S
C77 H108 0.977 . S
C78 C65 1.684 . S
C78 H103 0.979 . S
C78 H104 0.980 . S
C78 H105 0.983 . S
C79 C80 1.391 . S
C79 C84 1.391 . S
C79 H109 0.948 . S
C80 C79 1.391 . S
C80 C81 1.391 . S
C81 C80 1.391 . S
C81 C82 1.392 . S
C81 H110 0.947 . S
C82 C81 1.392 . S
C82 C83 1.419 . S
C82 H111 0.948 . S
C83 C82 1.419 . S
C83 C84 1.391 . S
C83 C87 1.397 1_655 S
C84 C79 1.391 . S
C84 C83 1.391 . S
C84 C85 1.399 . S
C85 C84 1.399 . S
C85 C86 1.396 1_655 S
C85 C88 1.453 1_655 S
C85 C89 1.684 . S
C86 C67 1.723 . S
C86 C85 1.396 1_455 S
C86 C87 1.394 . S
C87 C83 1.397 1_455 S
C87 C86 1.394 . S
C87 C97 1.723 . S
C88 C85 1.453 1_455 S
C88 H112 0.982 . S
C88 H113 0.979 . S
C88 H114 0.977 . S
C89 C85 1.684 . S
C89 H115 0.979 . S
C89 H116 0.980 . S
C89 H117 0.983 . S
C90 H66 0.948 . S
C90 C91 1.391 . S
C90 C95 1.391 . S
C91 C90 1.391 . S
C91 C92 1.391 . S
C92 H69 0.947 . S
C92 C91 1.391 . S
C92 C93 1.392 . S
C93 H70 0.948 . S
C93 C92 1.392 . S
C93 C94 1.419 . S
C94 C93 1.419 . S
C94 C95 1.391 . S
C94 C98 1.397 1_655 S
C95 C90 1.391 . S
C95 C94 1.391 . S
C95 C96 1.399 . S
C96 C95 1.399 . S
C96 C97 1.396 1_655 S
C96 C99 1.453 1_655 S
C96 C100 1.684 . S
C97 C87 1.723 . S
C97 C96 1.396 1_455 S
C97 C98 1.394 . S
C98 C68 1.723 . S
C98 C94 1.397 1_455 S
C98 C97 1.394 . S
C99 H71 0.982 . S
C99 H75 0.979 . S
C99 H76 0.977 . S
C99 C96 1.453 1_455 S
C100 H72 0.979 . S
C100 H73 0.980 . S
C100 H74 0.983 . S
C100 C96 1.684 . S
H101 C119 0.948 . S
H102 C60 0.948 . S
H103 C78 0.979 . S
H104 C78 0.980 . S
H105 C78 0.983 . S
H106 C77 0.982 . S
H107 C77 0.979 . S
H108 C77 0.977 . S
H109 C79 0.948 . S
H110 C81 0.947 . S
H111 C82 0.948 . S
H112 C88 0.982 . S
H113 C88 0.979 . S
H114 C88 0.977 . S
H115 C89 0.979 . S
H116 C89 0.980 . S
H117 C89 0.983 . S
H118 C62 0.947 . S
C119 C62 1.392 . S
C119 C63 1.419 . S
C119 H101 0.948 . S
C120 C121 1.391 . S
C120 C124 1.391 . S
C120 H162 0.948 . S
C121 C120 1.391 . S
C121 C122 1.391 . S
C122 C121 1.391 . S
C122 H178 0.947 . S
C122 C179 1.392 . S
C123 C124 1.391 . S
C123 C127 1.397 1_565 S
C123 C179 1.419 . S
C124 C120 1.391 . S
C124 C123 1.391 . S
C124 C125 1.399 . S
C125 C124 1.399 . S
C125 C128 1.396 1_565 S
C125 C137 1.453 1_565 S
C125 C138 1.684 . S
H126 C150 0.948 . S
C127 C123 1.397 1_545 S
C127 C128 1.394 . S
C127 C146 1.723 . S
C128 C125 1.396 1_545 S
C128 C127 1.394 . S
C128 C158 1.723 . S
H129 C152 0.947 . S
H130 C153 0.948 . S
H131 C159 0.982 . S
H132 C160 0.979 . S
H133 C160 0.980 . S
H134 C160 0.983 . S
H135 C159 0.979 . S
H136 C159 0.977 . S
C137 C125 1.453 1_545 S
C137 H166 0.982 . S
C137 H167 0.979 . S
C137 H168 0.977 . S
C138 C125 1.684 . S
C138 H163 0.979 . S
C138 H164 0.980 . S
C138 H165 0.983 . S
C139 C140 1.391 . S
C139 C144 1.391 . S
C139 H169 0.948 . S
C140 C139 1.391 . S
C140 C141 1.391 . S
C141 C140 1.391 . S
C141 C142 1.392 . S
C141 H170 0.947 . S
C142 C141 1.392 . S
C142 C143 1.419 . S
C142 H171 0.948 . S
C143 C142 1.419 . S
C143 C144 1.391 . S
C143 C147 1.397 1_565 S
C144 C139 1.391 . S
C144 C143 1.391 . S
C144 C145 1.399 . S
C145 C144 1.399 . S
C145 C146 1.396 1_565 S
C145 C148 1.453 1_565 S
C145 C149 1.684 . S
C146 C127 1.723 . S
C146 C145 1.396 1_545 S
C146 C147 1.394 . S
C147 C143 1.397 1_545 S
C147 C146 1.394 . S
C147 C157 1.723 . S
C148 C145 1.453 1_545 S
C148 H172 0.982 . S
C148 H173 0.979 . S
C148 H174 0.977 . S
C149 C145 1.684 . S
C149 H175 0.979 . S
C149 H176 0.980 . S
C149 H177 0.983 . S
C150 H126 0.948 . S
C150 C151 1.391 . S
C150 C155 1.391 . S
C151 C150 1.391 . S
C151 C152 1.391 . S
C152 H129 0.947 . S
C152 C151 1.391 . S
C152 C153 1.392 . S
C153 H130 0.948 . S
C153 C152 1.392 . S
C153 C154 1.419 . S
C154 C153 1.419 . S
C154 C155 1.391 . S
C154 C158 1.397 1_565 S
C155 C150 1.391 . S
C155 C154 1.391 . S
C155 C156 1.399 . S
C156 C155 1.399 . S
C156 C157 1.396 1_565 S
C156 C159 1.453 1_565 S
C156 C160 1.684 . S
C157 C147 1.723 . S
C157 C156 1.396 1_545 S
C157 C158 1.394 . S
C158 C128 1.723 . S
C158 C154 1.397 1_545 S
C158 C157 1.394 . S
C159 H131 0.982 . S
C159 H135 0.979 . S
C159 H136 0.977 . S
C159 C156 1.453 1_545 S
C160 H132 0.979 . S
C160 H133 0.980 . S
C160 H134 0.983 . S
C160 C156 1.684 . S
H161 C179 0.948 . S
H162 C120 0.948 . S
H163 C138 0.979 . S
H164 C138 0.980 . S
H165 C138 0.983 . S
H166 C137 0.982 . S
H167 C137 0.979 . S
H168 C137 0.977 . S
H169 C139 0.948 . S
H170 C141 0.947 . S
H171 C142 0.948 . S
H172 C148 0.982 . S
H173 C148 0.979 . S
H174 C148 0.977 . S
H175 C149 0.979 . S
H176 C149 0.980 . S
H177 C149 0.983 . S
H178 C122 0.947 . S
C179 C122 1.392 . S
C179 C123 1.419 . S
C179 H161 0.948 . S
C180 C181 1.391 . S
C180 C184 1.391 . S
C180 H222 0.948 . S
C181 C180 1.391 . S
C181 C182 1.391 . S
C182 C181 1.391 . S
C182 H238 0.947 . S
C182 C239 1.392 . S
C183 C184 1.391 . S
C183 C187 1.397 . S
C183 C239 1.419 . S
C184 C180 1.391 . S
C184 C183 1.391 . S
C184 C185 1.399 . S
C185 C184 1.399 . S
C185 C188 1.396 . S
C185 C197 1.453 . S
C185 C198 1.684 . S
H186 C210 0.948 . S
C187 C183 1.397 . S
C187 C188 1.394 . S
C187 C206 1.723 . S
C188 C185 1.396 . S
C188 C187 1.394 . S
C188 C218 1.723 . S
H189 C212 0.947 . S
H190 C213 0.948 . S
H191 C219 0.982 . S
H192 C220 0.979 . S
H193 C220 0.980 . S
H194 C220 0.983 . S
H195 C219 0.979 . S
H196 C219 0.977 . S
C197 C185 1.453 . S
C197 H226 0.982 . S
C197 H227 0.979 . S
C197 H228 0.977 . S
C198 C185 1.684 . S
C198 H223 0.979 . S
C198 H224 0.980 . S
C198 H225 0.983 . S
C199 C200 1.391 . S
C199 C204 1.391 . S
C199 H229 0.948 . S
C200 C199 1.391 . S
C200 C201 1.391 . S
C201 C200 1.391 . S
C201 C202 1.392 . S
C201 H230 0.947 . S
C202 C201 1.392 . S
C202 C203 1.419 . S
C202 H231 0.948 . S
C203 C202 1.419 . S
C203 C204 1.391 . S
C203 C207 1.397 . S
C204 C199 1.391 . S
C204 C203 1.391 . S
C204 C205 1.399 . S
C205 C204 1.399 . S
C205 C206 1.396 . S
C205 C208 1.453 . S
C205 C209 1.684 . S
C206 C187 1.723 . S
C206 C205 1.396 . S
C206 C207 1.394 . S
C207 C203 1.397 . S
C207 C206 1.394 . S
C207 C217 1.723 . S
C208 C205 1.453 . S
C208 H232 0.982 . S
C208 H233 0.979 . S
C208 H234 0.977 . S
C209 C205 1.684 . S
C209 H235 0.979 . S
C209 H236 0.980 . S
C209 H237 0.983 . S
C210 H186 0.948 . S
C210 C211 1.391 . S
C210 C215 1.391 . S
C211 C210 1.391 . S
C211 C212 1.391 . S
C212 H189 0.947 . S
C212 C211 1.391 . S
C212 C213 1.392 . S
C213 H190 0.948 . S
C213 C212 1.392 . S
C213 C214 1.419 . S
C214 C213 1.419 . S
C214 C215 1.391 . S
C214 C218 1.397 . S
C215 C210 1.391 . S
C215 C214 1.391 . S
C215 C216 1.399 . S
C216 C215 1.399 . S
C216 C217 1.396 . S
C216 C219 1.453 . S
C216 C220 1.684 . S
C217 C207 1.723 . S
C217 C216 1.396 . S
C217 C218 1.394 . S
C218 C188 1.723 . S
C218 C214 1.397 . S
C218 C217 1.394 . S
C219 H191 0.982 . S
C219 H195 0.979 . S
C219 H196 0.977 . S
C219 C216 1.453 . S
C220 H192 0.979 . S
C220 H193 0.980 . S
C220 H194 0.983 . S
C220 C216 1.684 . S
H221 C239 0.948 . S
H222 C180 0.948 . S
H223 C198 0.979 . S
H224 C198 0.980 . S
H225 C198 0.983 . S
H226 C197 0.982 . S
H227 C197 0.979 . S
H228 C197 0.977 . S
H229 C199 0.948 . S
H230 C201 0.947 . S
H231 C202 0.948 . S
H232 C208 0.982 . S
H233 C208 0.979 . S
H234 C208 0.977 . S
H235 C209 0.979 . S
H236 C209 0.980 . S
H237 C209 0.983 . S
H238 C182 0.947 . S
C239 C182 1.392 . S
C239 C183 1.419 . S
C239 H221 0.948 . S
C240 C241 1.391 . S
C240 C244 1.391 . S
C240 H282 0.948 . S
C241 C240 1.391 . S
C241 C242 1.391 . S
C242 C241 1.391 . S
C242 H298 0.947 . S
C242 C299 1.392 . S
C243 C244 1.391 . S
C243 C247 1.397 . S
C243 C299 1.419 . S
C244 C240 1.391 . S
C244 C243 1.391 . S
C244 C245 1.399 1_554 S
C245 C244 1.399 1_556 S
C245 C248 1.396 . S
C245 C257 1.453 . S
C245 C258 1.684 . S
H246 C270 0.948 . S
C247 C243 1.397 . S
C247 C248 1.394 1_554 S
C247 C266 1.723 . S
C248 C245 1.396 . S
C248 C247 1.394 1_556 S
C248 C278 1.723 . S
H249 C272 0.947 . S
H250 C273 0.948 . S
H251 C279 0.982 . S
H252 C280 0.979 . S
H253 C280 0.980 1_554 S
H254 C280 0.983 . S
H255 C279 0.979 . S
H256 C279 0.977 1_554 S
C257 C245 1.453 . S
C257 H286 0.982 . S
C257 H287 0.979 . S
C257 H288 0.977 . S
C258 C245 1.684 . S
C258 H283 0.979 . S
C258 H284 0.980 . S
C258 H285 0.983 . S
C259 C260 1.391 . S
C259 C264 1.391 . S
C259 H289 0.948 . S
C260 C259 1.391 . S
C260 C261 1.391 . S
C261 C260 1.391 . S
C261 C262 1.392 . S
C261 H290 0.947 . S
C262 C261 1.392 . S
C262 C263 1.419 . S
C262 H291 0.948 . S
C263 C262 1.419 . S
C263 C264 1.391 . S
C263 C267 1.397 . S
C264 C259 1.391 . S
C264 C263 1.391 . S
C264 C265 1.399 . S
C265 C264 1.399 . S
C265 C266 1.396 . S
C265 C268 1.453 . S
C265 C269 1.684 . S
C266 C247 1.723 . S
C266 C265 1.396 . S
C266 C267 1.394 . S
C267 C263 1.397 . S
C267 C266 1.394 . S
C267 C277 1.723 1_554 S
C268 C265 1.453 . S
C268 H292 0.982 . S
C268 H293 0.979 . S
C268 H294 0.977 . S
C269 C265 1.684 . S
C269 H295 0.979 . S
C269 H296 0.980 . S
C269 H297 0.983 . S
C270 H246 0.948 . S
C270 C271 1.391 . S
C270 C275 1.391 . S
C271 C270 1.391 . S
C271 C272 1.391 . S
C272 H249 0.947 . S
C272 C271 1.391 . S
C272 C273 1.392 . S
C273 H250 0.948 . S
C273 C272 1.392 . S
C273 C274 1.419 . S
C274 C273 1.419 . S
C274 C275 1.391 . S
C274 C278 1.397 . S
C275 C270 1.391 . S
C275 C274 1.391 . S
C275 C276 1.399 . S
C276 C275 1.399 . S
C276 C277 1.396 . S
C276 C279 1.453 . S
C276 C280 1.684 . S
C277 C267 1.723 1_556 S
C277 C276 1.396 . S
C277 C278 1.394 . S
C278 C248 1.723 . S
C278 C274 1.397 . S
C278 C277 1.394 . S
C279 H251 0.982 . S
C279 H255 0.979 . S
C279 H256 0.977 1_556 S
C279 C276 1.453 . S
C280 H252 0.979 . S
C280 H253 0.980 1_556 S
C280 H254 0.983 . S
C280 C276 1.684 . S
H281 C299 0.948 . S
H282 C240 0.948 . S
H283 C258 0.979 . S
H284 C258 0.980 . S
H285 C258 0.983 . S
H286 C257 0.982 . S
H287 C257 0.979 . S
H288 C257 0.977 . S
H289 C259 0.948 . S
H290 C261 0.947 . S
H291 C262 0.948 . S
H292 C268 0.982 . S
H293 C268 0.979 . S
H294 C268 0.977 . S
H295 C269 0.979 . S
H296 C269 0.980 . S
H297 C269 0.983 . S
H298 C242 0.947 . S
C299 C242 1.392 . S
C299 C243 1.419 . S
C299 H281 0.948 . S
C300 C301 1.391 . S
C300 C304 1.391 . S
C300 H342 0.948 . S
C301 C300 1.391 . S
C301 C302 1.391 . S
C302 C301 1.391 . S
C302 H358 0.947 . S
C302 C359 1.392 . S
C303 C304 1.391 . S
C303 C307 1.396 1_655 S
C303 C359 1.419 . S
C304 C300 1.391 . S
C304 C303 1.391 . S
C304 C305 1.399 . S
C305 C304 1.399 . S
C305 C308 1.396 1_655 S
C305 C317 1.453 1_655 S
C305 C318 1.684 . S
H306 C330 0.948 . S
C307 C303 1.396 1_455 S
C307 C308 1.395 . S
C307 C326 1.723 1_554 S
C308 C305 1.396 1_455 S
C308 C307 1.395 . S
C308 C338 1.723 . S
H309 C332 0.947 . S
H310 C333 0.948 . S
H311 C339 0.982 . S
H312 C340 0.979 . S
H313 C340 0.980 . S
H314 C340 0.983 . S
H315 C339 0.979 . S
H316 C339 0.977 . S
C317 C305 1.453 1_455 S
C317 H346 0.982 . S
C317 H347 0.979 . S
C317 H348 0.977 . S
C318 C305 1.684 . S
C318 H343 0.979 . S
C318 H344 0.980 . S
C318 H345 0.983 . S
C319 C320 1.391 . S
C319 C324 1.391 . S
C319 H349 0.948 . S
C320 C319 1.391 . S
C320 C321 1.391 . S
C321 C320 1.391 . S
C321 C322 1.392 . S
C321 H350 0.947 . S
C322 C321 1.392 . S
C322 C323 1.419 . S
C322 H351 0.948 . S
C323 C322 1.419 . S
C323 C324 1.391 . S
C323 C327 1.396 1_655 S
C324 C319 1.391 . S
C324 C323 1.391 . S
C324 C325 1.399 . S
C325 C324 1.399 . S
C325 C326 1.396 1_655 S
C325 C328 1.453 1_655 S
C325 C329 1.684 . S
C326 C307 1.723 1_556 S
C326 C325 1.396 1_455 S
C326 C327 1.395 . S
C327 C323 1.396 1_455 S
C327 C326 1.395 . S
C327 C337 1.723 . S
C328 C325 1.453 1_455 S
C328 H352 0.982 . S
C328 H353 0.979 . S
C328 H354 0.977 1_556 S
C329 C325 1.684 . S
C329 H355 0.979 . S
C329 H356 0.980 1_556 S
C329 H357 0.983 . S
C330 H306 0.948 . S
C330 C331 1.391 . S
C330 C335 1.391 . S
C331 C330 1.391 . S
C331 C332 1.391 . S
C332 H309 0.947 . S
C332 C331 1.391 . S
C332 C333 1.392 . S
C333 H310 0.948 . S
C333 C332 1.392 . S
C333 C334 1.419 . S
C334 C333 1.419 . S
C334 C335 1.391 . S
C334 C338 1.396 1_655 S
C335 C330 1.391 . S
C335 C334 1.391 . S
C335 C336 1.399 1_554 S
C336 C335 1.399 1_556 S
C336 C337 1.396 1_655 S
C336 C339 1.453 1_655 S
C336 C340 1.684 . S
C337 C327 1.723 . S
C337 C336 1.396 1_455 S
C337 C338 1.395 1_556 S
C338 C308 1.723 . S
C338 C334 1.396 1_455 S
C338 C337 1.395 1_554 S
C339 H311 0.982 . S
C339 H315 0.979 . S
C339 H316 0.977 . S
C339 C336 1.453 1_455 S
C340 H312 0.979 . S
C340 H313 0.980 . S
C340 H314 0.983 . S
C340 C336 1.684 . S
H341 C359 0.948 . S
H342 C300 0.948 . S
H343 C318 0.979 . S
H344 C318 0.980 . S
H345 C318 0.983 . S
H346 C317 0.982 . S
H347 C317 0.979 . S
H348 C317 0.977 . S
H349 C319 0.948 . S
H350 C321 0.947 . S
H351 C322 0.948 . S
H352 C328 0.982 . S
H353 C328 0.979 . S
H354 C328 0.977 1_554 S
H355 C329 0.979 . S
H356 C329 0.980 1_554 S
H357 C329 0.983 . S
H358 C302 0.947 . S
C359 C302 1.392 . S
C359 C303 1.419 . S
C359 H341 0.948 . S
C360 C361 1.391 . S
C360 C364 1.391 . S
C360 H402 0.948 . S
C361 C360 1.391 . S
C361 C362 1.391 . S
C362 C361 1.391 . S
C362 H418 0.947 . S
C362 C419 1.392 . S
C363 C364 1.391 . S
C363 C367 1.397 1_545 S
C363 C419 1.419 . S
C364 C360 1.391 . S
C364 C363 1.391 . S
C364 C365 1.399 . S
C365 C364 1.399 . S
C365 C368 1.396 1_545 S
C365 C377 1.453 1_545 S
C365 C378 1.684 . S
H366 C390 0.948 . S
C367 C363 1.397 1_565 S
C367 C368 1.394 . S
C367 C386 1.723 1_556 S
C368 C365 1.396 1_565 S
C368 C367 1.394 . S
C368 C398 1.723 1_556 S
H369 C392 0.947 1_556 S
H370 C393 0.948 . S
H371 C399 0.982 . S
H372 C400 0.979 . S
H373 C400 0.980 . S
H374 C400 0.983 . S
H375 C399 0.979 . S
H376 C399 0.977 . S
C377 C365 1.453 1_565 S
C377 H406 0.982 . S
C377 H407 0.979 . S
C377 H408 0.977 . S
C378 C365 1.684 . S
C378 H403 0.979 . S
C378 H404 0.980 . S
C378 H405 0.983 . S
C379 C380 1.391 . S
C379 C384 1.391 . S
C379 H409 0.948 . S
C380 C379 1.391 . S
C380 C381 1.391 . S
C381 C380 1.391 . S
C381 C382 1.392 . S
C381 H410 0.947 . S
C382 C381 1.392 . S
C382 C383 1.419 . S
C382 H411 0.948 . S
C383 C382 1.419 . S
C383 C384 1.391 . S
C383 C387 1.397 1_545 S
C384 C379 1.391 . S
C384 C383 1.391 . S
C384 C385 1.399 . S
C385 C384 1.399 . S
C385 C386 1.396 1_545 S
C385 C388 1.453 1_545 S
C385 C389 1.684 . S
C386 C367 1.723 1_554 S
C386 C385 1.396 1_565 S
C386 C387 1.394 . S
C387 C383 1.397 1_565 S
C387 C386 1.394 . S
C387 C397 1.723 . S
C388 C385 1.453 1_565 S
C388 H412 0.982 . S
C388 H413 0.979 . S
C388 H414 0.977 1_554 S
C389 C385 1.684 . S
C389 H415 0.979 . S
C389 H416 0.980 1_554 S
C389 H417 0.983 . S
C390 H366 0.948 . S
C390 C391 1.391 . S
C390 C395 1.391 . S
C391 C390 1.391 . S
C391 C392 1.391 . S
C392 H369 0.947 1_554 S
C392 C391 1.391 . S
C392 C393 1.392 1_554 S
C393 H370 0.948 . S
C393 C392 1.392 1_556 S
C393 C394 1.419 1_556 S
C394 C393 1.419 1_554 S
C394 C395 1.391 . S
C394 C398 1.397 1_545 S
C395 C390 1.391 . S
C395 C394 1.391 . S
C395 C396 1.399 . S
C396 C395 1.399 . S
C396 C397 1.396 1_545 S
C396 C399 1.453 1_545 S
C396 C400 1.684 . S
C397 C387 1.723 . S
C397 C396 1.396 1_565 S
C397 C398 1.394 . S
C398 C368 1.723 1_554 S
C398 C394 1.397 1_565 S
C398 C397 1.394 . S
C399 H371 0.982 . S
C399 H375 0.979 . S
C399 H376 0.977 . S
C399 C396 1.453 1_565 S
C400 H372 0.979 . S
C400 H373 0.980 . S
C400 H374 0.983 . S
C400 C396 1.684 . S
H401 C419 0.948 . S
H402 C360 0.948 . S
H403 C378 0.979 . S
H404 C378 0.980 . S
H405 C378 0.983 . S
H406 C377 0.982 . S
H407 C377 0.979 . S
H408 C377 0.977 . S
H409 C379 0.948 . S
H410 C381 0.947 . S
H411 C382 0.948 . S
H412 C388 0.982 . S
H413 C388 0.979 . S
H414 C388 0.977 1_556 S
H415 C389 0.979 . S
H416 C389 0.980 1_556 S
H417 C389 0.983 . S
H418 C362 0.947 . S
C419 C362 1.392 . S
C419 C363 1.419 . S
C419 H401 0.948 . S
C420 C421 1.391 . S
C420 C424 1.391 . S
C420 H462 0.948 . S
C421 C420 1.391 . S
C421 C422 1.391 . S
C422 C421 1.391 . S
C422 H478 0.947 . S
C422 C479 1.392 . S
C423 C424 1.391 . S
C423 C427 1.397 . S
C423 C479 1.419 . S
C424 C420 1.391 . S
C424 C423 1.391 . S
C424 C425 1.399 . S
C425 C424 1.399 . S
C425 C428 1.396 . S
C425 C437 1.453 . S
C425 C438 1.684 . S
H426 C450 0.948 . S
C427 C423 1.397 . S
C427 C428 1.394 . S
C427 C446 1.723 1_556 S
C428 C425 1.396 . S
C428 C427 1.394 . S
C428 C458 1.723 1_556 S
H429 C452 0.947 1_556 S
H430 C453 0.948 . S
H431 C459 0.982 . S
H432 C460 0.979 . S
H433 C460 0.980 . S
H434 C460 0.983 . S
H435 C459 0.979 . S
H436 C459 0.977 . S
C437 C425 1.453 . S
C437 H466 0.982 . S
C437 H467 0.979 . S
C437 H468 0.977 . S
C438 C425 1.684 . S
C438 H463 0.979 . S
C438 H464 0.980 . S
C438 H465 0.983 . S
C439 C440 1.391 . S
C439 C444 1.391 . S
C439 H469 0.948 . S
C440 C439 1.391 . S
C440 C441 1.391 . S
C441 C440 1.391 . S
C441 C442 1.392 . S
C441 H470 0.947 . S
C442 C441 1.392 . S
C442 C443 1.419 . S
C442 H471 0.948 . S
C443 C442 1.419 . S
C443 C444 1.391 . S
C443 C447 1.397 . S
C444 C439 1.391 . S
C444 C443 1.391 . S
C444 C445 1.399 . S
C445 C444 1.399 . S
C445 C446 1.396 . S
C445 C448 1.453 . S
C445 C449 1.684 . S
C446 C427 1.723 1_554 S
C446 C445 1.396 . S
C446 C447 1.394 . S
C447 C443 1.397 . S
C447 C446 1.394 . S
C447 C457 1.723 . S
C448 C445 1.453 . S
C448 H472 0.982 . S
C448 H473 0.979 . S
C448 H474 0.977 1_554 S
C449 C445 1.684 . S
C449 H475 0.979 . S
C449 H476 0.980 1_554 S
C449 H477 0.983 . S
C450 H426 0.948 . S
C450 C451 1.391 . S
C450 C455 1.391 . S
C451 C450 1.391 . S
C451 C452 1.391 . S
C452 H429 0.947 1_554 S
C452 C451 1.391 . S
C452 C453 1.392 1_554 S
C453 H430 0.948 . S
C453 C452 1.392 1_556 S
C453 C454 1.419 1_556 S
C454 C453 1.419 1_554 S
C454 C455 1.391 . S
C454 C458 1.397 . S
C455 C450 1.391 . S
C455 C454 1.391 . S
C455 C456 1.399 . S
C456 C455 1.399 . S
C456 C457 1.396 . S
C456 C459 1.453 . S
C456 C460 1.684 . S
C457 C447 1.723 . S
C457 C456 1.396 . S
C457 C458 1.394 . S
C458 C428 1.723 1_554 S
C458 C454 1.397 . S
C458 C457 1.394 . S
C459 H431 0.982 . S
C459 H435 0.979 . S
C459 H436 0.977 . S
C459 C456 1.453 . S
C460 H432 0.979 . S
C460 H433 0.980 . S
C460 H434 0.983 . S
C460 C456 1.684 . S
H461 C479 0.948 . S
H462 C420 0.948 . S
H463 C438 0.979 . S
H464 C438 0.980 . S
H465 C438 0.983 . S
H466 C437 0.982 . S
H467 C437 0.979 . S
H468 C437 0.977 . S
H469 C439 0.948 . S
H470 C441 0.947 . S
H471 C442 0.948 . S
H472 C448 0.982 . S
H473 C448 0.979 . S
H474 C448 0.977 1_556 S
H475 C449 0.979 . S
H476 C449 0.980 1_556 S
H477 C449 0.983 . S
H478 C422 0.947 . S
C479 C422 1.392 . S
C479 C423 1.419 . S
C479 H461 0.948 . S
Tb480 C490 2.825 . S
Tb480 O491 2.347 1_455 S
Tb480 O494 2.366 . S
Tb480 O499 2.418 . S
Tb480 O500 2.384 1_565 S
Tb480 O503 2.479 . S
Tb480 O504 2.471 . S
Eu481 O492 2.418 . S
Eu481 O493 2.384 1_545 S
Eu481 O496 2.479 . S
Eu481 O497 2.471 . S
Eu481 O498 2.347 1_655 S
Eu481 O501 2.366 . S
Eu481 C511 2.825 . S
C482 O498 1.259 1_565 S
C482 O499 1.265 . S
C483 O500 1.255 . S
C483 O501 1.265 1_455 S
C484 C486 1.380 . S
C484 C487 1.374 . S
C484 C490 1.507 . S
C485 C486 1.384 1_554 S
C485 C489 1.387 . S
C485 H512 0.930 . S
C486 C484 1.380 . S
C486 C485 1.384 1_556 S
C486 H513 0.931 . S
C487 C484 1.374 . S
C487 C488 1.390 1_556 S
C487 H514 0.930 1_455 S
C488 C487 1.390 1_554 S
C488 C489 1.391 . S
C488 H515 0.904 1_455 S
C489 C485 1.387 . S
C489 C488 1.391 . S
C490 Tb480 2.825 . S
C490 C484 1.507 . S
C490 O503 1.238 . S
C490 O504 1.247 . S
O491 Tb480 2.347 1_655 S
O491 C495 1.259 1_565 S
O492 Eu481 2.418 . S
O492 C495 1.265 . S
O493 Eu481 2.384 1_565 S
O493 C502 1.255 . S
O494 Tb480 2.366 . S
O494 C502 1.265 1_455 S
C495 O491 1.259 1_545 S
C495 O492 1.265 . S
O496 Eu481 2.479 . S
O496 C511 1.238 . S
O497 Eu481 2.471 . S
O497 C511 1.247 . S
O498 Eu481 2.347 1_455 S
O498 C482 1.259 1_545 S
O499 Tb480 2.418 . S
O499 C482 1.265 . S
O500 Tb480 2.384 1_545 S
O500 C483 1.255 . S
O501 Eu481 2.366 . S
O501 C483 1.265 1_655 S
C502 O493 1.255 . S
C502 O494 1.265 1_655 S
O503 Tb480 2.479 . S
O503 C490 1.238 . S
O504 Tb480 2.471 . S
O504 C490 1.247 . S
C505 C508 1.380 . S
C505 C509 1.374 . S
C505 C511 1.507 . S
C506 C507 1.387 . S
C506 C510 1.391 . S
C507 C506 1.387 . S
C507 C508 1.384 . S
C507 H516 0.930 . S
C508 C505 1.380 . S
C508 C507 1.384 . S
C508 H517 0.931 . S
C509 C505 1.374 . S
C509 C510 1.390 . S
C509 H518 0.930 1_655 S
C510 C506 1.391 . S
C510 C509 1.390 . S
C510 H519 0.896 1_655 S
C511 Eu481 2.825 . S
C511 O496 1.238 . S
C511 O497 1.247 . S
C511 C505 1.507 . S
H512 C485 0.930 . S
H513 C486 0.931 . S
H514 C487 0.930 1_655 S
H515 C488 0.904 1_655 S
H516 C507 0.930 . S
H517 C508 0.931 . S
H518 C509 0.930 1_455 S
H519 C510 0.896 1_455 S
Tb520 C530 2.825 . S
Tb520 O531 2.347 1_545 S
Tb520 O534 2.366 . S
Tb520 O539 2.418 . S
Tb520 O540 2.384 . S
Tb520 O543 2.479 . S
Tb520 O544 2.471 . S
Eu521 O532 2.418 . S
Eu521 O533 2.384 . S
Eu521 O536 2.479 . S
Eu521 O537 2.471 . S
Eu521 O538 2.347 1_565 S
Eu521 O541 2.366 . S
Eu521 C551 2.825 . S
C522 O538 1.259 . S
C522 O539 1.265 . S
C523 O540 1.255 . S
C523 O541 1.265 1_545 S
C524 C526 1.380 . S
C524 C527 1.374 . S
C524 C530 1.507 . S
C525 C526 1.384 1_554 S
C525 C529 1.387 . S
C525 H552 0.930 . S
C526 C524 1.380 . S
C526 C525 1.384 1_556 S
C526 H553 0.931 . S
C527 C524 1.374 . S
C527 C528 1.390 1_556 S
C527 H554 0.930 1_545 S
C528 C527 1.390 1_554 S
C528 C529 1.391 . S
C528 H555 0.930 1_545 S
C529 C525 1.387 . S
C529 C528 1.391 . S
C530 Tb520 2.825 . S
C530 C524 1.507 . S
C530 O543 1.238 . S
C530 O544 1.247 . S
O531 Tb520 2.347 1_565 S
O531 C535 1.259 . S
O532 Eu521 2.418 . S
O532 C535 1.265 . S
O533 Eu521 2.384 . S
O533 C542 1.255 . S
O534 Tb520 2.366 . S
O534 C542 1.265 1_545 S
C535 O531 1.259 . S
C535 O532 1.265 . S
O536 Eu521 2.479 . S
O536 C551 1.238 . S
O537 Eu521 2.471 . S
O537 C551 1.247 . S
O538 Eu521 2.347 1_545 S
O538 C522 1.259 . S
O539 Tb520 2.418 . S
O539 C522 1.265 . S
O540 Tb520 2.384 . S
O540 C523 1.255 . S
O541 Eu521 2.366 . S
O541 C523 1.265 1_565 S
C542 O533 1.255 . S
C542 O534 1.265 1_565 S
O543 Tb520 2.479 . S
O543 C530 1.238 . S
O544 Tb520 2.471 . S
O544 C530 1.247 . S
C545 C548 1.380 . S
C545 C549 1.374 . S
C545 C551 1.507 . S
C546 C547 1.387 . S
C546 C550 1.391 . S
C547 C546 1.387 . S
C547 C548 1.384 . S
C547 H556 0.930 . S
C548 C545 1.380 . S
C548 C547 1.384 . S
C548 H557 0.931 . S
C549 C545 1.374 . S
C549 C550 1.390 . S
C549 H558 0.930 1_565 S
C550 C546 1.391 . S
C550 C549 1.390 . S
C550 H559 0.930 1_565 S
C551 Eu521 2.825 . S
C551 O536 1.238 . S
C551 O537 1.247 . S
C551 C545 1.507 . S
H552 C525 0.930 . S
H553 C526 0.931 . S
H554 C527 0.930 1_565 S
H555 C528 0.930 1_565 S
H556 C547 0.930 . S
H557 C548 0.931 . S
H558 C549 0.930 1_545 S
H559 C550 0.930 1_545 S
Tb560 C570 2.825 . S
Tb560 O571 2.347 . S
Tb560 O574 2.366 . S
Tb560 O579 2.418 . S
Tb560 O580 2.384 . S
Tb560 O583 2.479 . S
Tb560 O584 2.471 . S
Eu561 O572 2.418 . S
Eu561 O573 2.384 . S
Eu561 O576 2.479 . S
Eu561 O577 2.471 . S
Eu561 O578 2.347 . S
Eu561 O581 2.366 . S
Eu561 C591 2.825 . S
C562 O578 1.259 . S
C562 O579 1.265 . S
C563 O580 1.255 . S
C563 O581 1.265 . S
C564 C566 1.380 . S
C564 C567 1.374 . S
C564 C570 1.507 . S
C565 C566 1.384 1_554 S
C565 C569 1.387 . S
C565 H592 0.930 . S
C566 C564 1.380 . S
C566 C565 1.384 1_556 S
C566 H593 0.931 . S
C567 C564 1.374 . S
C567 C568 1.390 1_556 S
C567 H594 0.930 . S
C568 C567 1.390 1_554 S
C568 C569 1.391 . S
C568 H595 0.930 . S
C569 C565 1.387 . S
C569 C568 1.391 . S
C570 Tb560 2.825 . S
C570 C564 1.507 . S
C570 O583 1.238 . S
C570 O584 1.247 . S
O571 Tb560 2.347 . S
O571 C575 1.259 . S
O572 Eu561 2.418 . S
O572 C575 1.265 . S
O573 Eu561 2.384 . S
O573 C582 1.255 . S
O574 Tb560 2.366 . S
O574 C582 1.265 . S
C575 O571 1.259 . S
C575 O572 1.265 . S
O576 Eu561 2.479 . S
O576 C591 1.238 . S
O577 Eu561 2.471 . S
O577 C591 1.247 . S
O578 Eu561 2.347 . S
O578 C562 1.259 . S
O579 Tb560 2.418 . S
O579 C562 1.265 . S
O580 Tb560 2.384 . S
O580 C563 1.255 . S
O581 Eu561 2.366 . S
O581 C563 1.265 . S
C582 O573 1.255 . S
C582 O574 1.265 . S
O583 Tb560 2.479 . S
O583 C570 1.238 . S
O584 Tb560 2.471 . S
O584 C570 1.247 . S
C585 C588 1.380 . S
C585 C589 1.374 . S
C585 C591 1.507 . S
C586 C587 1.387 . S
C586 C590 1.391 . S
C587 C586 1.387 . S
C587 C588 1.384 . S
C587 H596 0.930 . S
C588 C585 1.380 . S
C588 C587 1.384 . S
C588 H597 0.931 . S
C589 C585 1.374 . S
C589 C590 1.390 . S
C589 H598 0.930 . S
C590 C586 1.391 . S
C590 C589 1.390 . S
C590 H599 0.930 . S
C591 Eu561 2.825 . S
C591 O576 1.238 . S
C591 O577 1.247 . S
C591 C585 1.507 . S
H592 C565 0.930 . S
H593 C566 0.931 . S
H594 C567 0.930 . S
H595 C568 0.930 . S
H596 C587 0.930 . S
H597 C588 0.931 . S
H598 C589 0.930 . S
H599 C590 0.930 . S
Tb600 C610 2.825 . S
Tb600 O611 2.347 . S
Tb600 O614 2.366 . S
Tb600 O619 2.418 . S
Tb600 O620 2.384 1_655 S
Tb600 O623 2.479 . S
Tb600 O624 2.471 . S
Eu601 O612 2.418 . S
Eu601 O613 2.384 1_455 S
Eu601 O616 2.479 . S
Eu601 O617 2.471 . S
Eu601 O618 2.347 . S
Eu601 O621 2.366 . S
Eu601 C631 2.825 . S
C602 O618 1.259 1_655 S
C602 O619 1.265 . S
C603 O620 1.255 . S
C603 O621 1.265 . S
C604 C606 1.380 . S
C604 C607 1.374 . S
C604 C610 1.507 . S
C605 C606 1.384 1_554 S
C605 C609 1.387 . S
C605 H632 0.930 . S
C606 C604 1.380 . S
C606 C605 1.384 1_556 S
C606 H633 0.931 . S
C607 C604 1.374 . S
C607 C608 1.390 1_556 S
C607 H634 0.930 . S
C608 C607 1.390 1_554 S
C608 C609 1.391 . S
C608 H635 0.930 . S
C609 C605 1.387 . S
C609 C608 1.391 . S
C610 Tb600 2.825 . S
C610 C604 1.507 . S
C610 O623 1.238 . S
C610 O624 1.247 . S
O611 Tb600 2.347 . S
O611 C615 1.259 1_655 S
O612 Eu601 2.418 . S
O612 C615 1.265 . S
O613 Eu601 2.384 1_655 S
O613 C622 1.255 . S
O614 Tb600 2.366 . S
O614 C622 1.265 . S
C615 O611 1.259 1_455 S
C615 O612 1.265 . S
O616 Eu601 2.479 . S
O616 C631 1.238 . S
O617 Eu601 2.471 . S
O617 C631 1.247 . S
O618 Eu601 2.347 . S
O618 C602 1.259 1_455 S
O619 Tb600 2.418 . S
O619 C602 1.265 . S
O620 Tb600 2.384 1_455 S
O620 C603 1.255 . S
O621 Eu601 2.366 . S
O621 C603 1.265 . S
C622 O613 1.255 . S
C622 O614 1.265 . S
O623 Tb600 2.479 . S
O623 C610 1.238 . S
O624 Tb600 2.471 . S
O624 C610 1.247 . S
C625 C628 1.380 . S
C625 C629 1.374 . S
C625 C631 1.507 . S
C626 C627 1.387 . S
C626 C630 1.391 . S
C627 C626 1.387 . S
C627 C628 1.384 . S
C627 H636 0.930 . S
C628 C625 1.380 . S
C628 C627 1.384 . S
C628 H637 0.931 . S
C629 C625 1.374 . S
C629 C630 1.390 . S
C629 H638 0.930 . S
C630 C626 1.391 . S
C630 C629 1.390 . S
C630 H639 0.930 . S
C631 Eu601 2.825 . S
C631 O616 1.238 . S
C631 O617 1.247 . S
C631 C625 1.507 . S
H632 C605 0.930 . S
H633 C606 0.931 . S
H634 C607 0.930 . S
H635 C608 0.930 . S
H636 C627 0.930 . S
H637 C628 0.931 . S
H638 C629 0.930 . S
H639 C630 0.930 . S
C640 C641 1.363 . S
C640 C646 1.379 . S
C640 N648 1.356 . S
C641 C640 1.363 . S
C641 C647 1.363 1_545 S
C642 C643 1.364 1_565 S
C642 C647 1.379 . S
C642 N649 1.356 . S
C643 C642 1.364 1_545 S
C643 C646 1.362 . S
N644 C646 1.356 . S
N644 H656 0.984 . S
N644 H657 0.985 . S
N645 C647 1.356 . S
N645 H650 0.984 . S
N645 H651 0.985 . S
C646 C640 1.379 . S
C646 C643 1.362 . S
C646 N644 1.356 . S
C647 C641 1.363 1_565 S
C647 C642 1.379 . S
C647 N645 1.356 . S
N648 C640 1.356 . S
N648 H654 0.984 . S
N648 H655 0.984 . S
N649 C642 1.356 . S
N649 H652 0.984 . S
N649 H653 0.985 . S
H650 N645 0.984 . S
H651 N645 0.985 . S
H652 N649 0.984 . S
H653 N649 0.985 . S
H654 N648 0.984 . S
H655 N648 0.984 . S
H656 N644 0.984 . S
H657 N644 0.985 . S
C658 C659 1.363 . S
C658 C664 1.379 . S
C658 N666 1.356 . S
C659 C658 1.363 . S
C659 C665 1.363 . S
C660 C661 1.363 . S
C660 C665 1.379 . S
C660 N667 1.356 . S
C661 C660 1.363 . S
C661 C664 1.363 . S
N662 C664 1.356 . S
N662 H674 0.984 . S
N662 H675 0.985 . S
N663 C665 1.356 . S
N663 H668 0.984 . S
N663 H669 0.985 . S
C664 C658 1.379 . S
C664 C661 1.363 . S
C664 N662 1.356 . S
C665 C659 1.363 . S
C665 C660 1.379 . S
C665 N663 1.356 . S
N666 C658 1.356 . S
N666 H672 0.984 . S
N666 H673 0.984 . S
N667 C660 1.356 . S
N667 H670 0.984 . S
N667 H671 0.985 . S
H668 N663 0.984 . S
H669 N663 0.985 . S
H670 N667 0.984 . S
H671 N667 0.985 . S
H672 N666 0.984 . S
H673 N666 0.984 . S
H674 N662 0.984 . S
H675 N662 0.985 . S
C676 C677 1.363 . S
C676 C682 1.379 . S
C676 N684 1.356 . S
C677 C676 1.363 . S
C677 C683 1.363 . S
C678 C679 1.363 . S
C678 C683 1.379 . S
C678 N685 1.356 . S
C679 C678 1.363 . S
C679 C682 1.363 . S
N680 C682 1.356 . S
N680 H692 0.984 . S
N680 H693 0.985 . S
N681 C683 1.356 . S
N681 H686 0.984 . S
N681 H687 0.985 . S
C682 C676 1.379 . S
C682 C679 1.363 . S
C682 N680 1.356 . S
C683 C677 1.363 . S
C683 C678 1.379 . S
C683 N681 1.356 . S
N684 C676 1.356 . S
N684 H690 0.984 . S
N684 H691 0.984 . S
N685 C678 1.356 . S
N685 H688 0.984 . S
N685 H689 0.985 . S
H686 N681 0.984 . S
H687 N681 0.985 . S
H688 N685 0.984 . S
H689 N685 0.985 . S
H690 N684 0.984 . S
H691 N684 0.984 . S
H692 N680 0.984 . S
H693 N680 0.985 . S
C694 C695 1.374 . S
C694 C700 1.379 . S
C694 N702 1.356 . S
C695 C694 1.374 . S
C695 C701 1.352 1_455 S
C696 C697 1.363 1_655 S
C696 C701 1.379 . S
C696 N703 1.356 . S
C697 C696 1.363 1_455 S
C697 C700 1.363 . S
N698 C700 1.356 . S
N698 H710 0.984 . S
N698 H711 0.985 . S
N699 C701 1.356 . S
N699 H704 0.984 . S
N699 H705 0.985 . S
C700 C694 1.379 . S
C700 C697 1.363 . S
C700 N698 1.356 . S
C701 C695 1.352 1_655 S
C701 C696 1.379 . S
C701 N699 1.356 . S
N702 C694 1.356 . S
N702 H708 0.984 . S
N702 H709 0.984 . S
N703 C696 1.356 . S
N703 H706 0.984 . S
N703 H707 0.985 . S
H704 N699 0.984 . S
H705 N699 0.985 . S
H706 N703 0.984 . S
H707 N703 0.985 . S
H708 N702 0.984 . S
H709 N702 0.984 . S
H710 N698 0.984 . S
H711 N698 0.985 . S
C712 C713 1.363 1_565 S
C712 C718 1.379 . S
C712 N720 1.356 . S
C713 C712 1.363 1_545 S
C713 C719 1.363 . S
C714 C715 1.364 1_554 S
C714 C719 1.379 . S
C714 N721 1.356 1_554 S
C715 C714 1.364 1_556 S
C715 C718 1.362 1_546 S
N716 C718 1.356 1_556 S
N716 H728 0.984 1_556 S
N716 H729 0.985 . S
N717 C719 1.356 . S
N717 H722 0.984 . S
N717 H723 0.985 . S
C718 C712 1.379 . S
C718 C715 1.362 1_564 S
C718 N716 1.356 1_554 S
C719 C713 1.363 . S
C719 C714 1.379 . S
C719 N717 1.356 . S
N720 C712 1.356 . S
N720 H726 0.984 . S
N720 H727 0.984 . S
N721 C714 1.356 1_556 S
N721 H724 0.984 . S
N721 H725 0.985 . S
H722 N717 0.984 . S
H723 N717 0.985 . S
H724 N721 0.984 . S
H725 N721 0.985 . S
H726 N720 0.984 . S
H727 N720 0.984 . S
H728 N716 0.984 1_554 S
H729 N716 0.985 . S
C730 C731 1.363 . S
C730 C736 1.379 . S
C730 N738 1.356 . S
C731 C730 1.363 . S
C731 C737 1.363 . S
C732 C733 1.363 1_554 S
C732 C737 1.379 . S
C732 N739 1.356 1_554 S
C733 C732 1.363 1_556 S
C733 C736 1.363 1_556 S
N734 C736 1.356 1_556 S
N734 H746 0.984 1_556 S
N734 H747 0.985 . S
N735 C737 1.356 . S
N735 H740 0.984 . S
N735 H741 0.985 . S
C736 C730 1.379 . S
C736 C733 1.363 1_554 S
C736 N734 1.356 1_554 S
C737 C731 1.363 . S
C737 C732 1.379 . S
C737 N735 1.356 . S
N738 C730 1.356 . S
N738 H744 0.984 . S
N738 H745 0.984 . S
N739 C732 1.356 1_556 S
N739 H742 0.984 . S
N739 H743 0.985 . S
H740 N735 0.984 . S
H741 N735 0.985 . S
H742 N739 0.984 . S
H743 N739 0.985 . S
H744 N738 0.984 . S
H745 N738 0.984 . S
H746 N734 0.984 1_554 S
H747 N734 0.985 . S
C748 C749 1.363 . S
C748 C754 1.379 . S
C748 N756 1.356 . S
C749 C748 1.363 . S
C749 C755 1.363 . S
C750 C751 1.363 1_554 S
C750 C755 1.379 . S
C750 N757 1.356 1_554 S
C751 C750 1.363 1_556 S
C751 C754 1.363 1_556 S
N752 C754 1.356 1_556 S
N752 H764 0.984 1_556 S
N752 H765 0.985 . S
N753 C755 1.356 . S
N753 H758 0.984 . S
N753 H759 0.985 . S
C754 C748 1.379 . S
C754 C751 1.363 1_554 S
C754 N752 1.356 1_554 S
C755 C749 1.363 . S
C755 C750 1.379 . S
C755 N753 1.356 . S
N756 C748 1.356 . S
N756 H762 0.984 . S
N756 H763 0.984 . S
N757 C750 1.356 1_556 S
N757 H760 0.984 . S
N757 H761 0.985 . S
H758 N753 0.984 . S
H759 N753 0.985 . S
H760 N757 0.984 . S
H761 N757 0.985 . S
H762 N756 0.984 . S
H763 N756 0.984 . S
H764 N752 0.984 1_554 S
H765 N752 0.985 . S
C766 C767 1.374 . S
C766 C772 1.379 . S
C766 N774 1.356 . S
C767 C766 1.374 . S
C767 C773 1.353 1_655 S
C768 C769 1.363 1_454 S
C768 C773 1.379 . S
C768 N775 1.356 1_554 S
C769 C768 1.363 1_656 S
C769 C772 1.363 1_556 S
N770 C772 1.356 1_556 S
N770 H782 0.984 . S
N770 H783 0.985 . S
N771 C773 1.356 . S
N771 H776 0.984 . S
N771 H777 0.985 . S
C772 C766 1.379 . S
C772 C769 1.363 1_554 S
C772 N770 1.356 1_554 S
C773 C767 1.353 1_455 S
C773 C768 1.379 . S
C773 N771 1.356 . S
N774 C766 1.356 . S
N774 H780 0.984 . S
N774 H781 0.984 . S
N775 C768 1.356 1_556 S
N775 H778 0.984 . S
N775 H779 0.985 1_556 S
H776 N771 0.984 . S
H777 N771 0.985 . S
H778 N775 0.984 . S
H779 N775 0.985 1_554 S
H780 N774 0.984 . S
H781 N774 0.984 . S
H782 N770 0.984 . S
H783 N770 0.985 . S
C784 C785 1.361 1_655 S
C784 C790 1.379 . S
C784 N792 1.368 . S
C785 C784 1.361 1_455 S
C785 C791 1.362 1_455 S
C786 C787 1.363 . S
C786 C791 1.379 . S
C786 N793 1.356 . S
C787 C786 1.363 . S
C787 C790 1.363 . S
N788 C790 1.356 . S
N788 H800 0.984 . S
N788 H801 0.985 . S
N789 C791 1.356 1_455 S
N789 H794 0.984 . S
N789 H795 0.985 . S
C790 C784 1.379 . S
C790 C787 1.363 . S
C790 N788 1.356 . S
C791 C785 1.362 1_655 S
C791 C786 1.379 . S
C791 N789 1.356 1_655 S
N792 C784 1.368 . S
N792 H798 0.992 . S
N792 H799 0.966 1_655 S
N793 C786 1.356 . S
N793 H796 0.984 . S
N793 H797 0.985 . S
H794 N789 0.984 . S
H795 N789 0.985 . S
H796 N793 0.984 . S
H797 N793 0.985 . S
H798 N792 0.992 . S
H799 N792 0.966 1_455 S
H800 N788 0.984 . S
H801 N788 0.985 . S
C802 C803 1.362 1_565 S
C802 C808 1.379 . S
C802 N810 1.356 1_565 S
C803 C802 1.362 1_545 S
C803 C809 1.357 1_545 S
C804 C805 1.363 . S
C804 C809 1.379 . S
C804 N811 1.356 . S
C805 C804 1.363 . S
C805 C808 1.363 . S
N806 C808 1.356 . S
N806 H818 0.984 . S
N806 H819 0.985 . S
N807 C809 1.356 . S
N807 H812 0.984 1_565 S
N807 H813 0.985 . S
C808 C802 1.379 . S
C808 C805 1.363 . S
C808 N806 1.356 . S
C809 C803 1.357 1_565 S
C809 C804 1.379 . S
C809 N807 1.356 . S
N810 C802 1.356 1_545 S
N810 H816 0.984 . S
N810 H817 0.984 . S
N811 C804 1.356 . S
N811 H814 0.984 . S
N811 H815 0.985 . S
H812 N807 0.984 1_545 S
H813 N807 0.985 . S
H814 N811 0.984 . S
H815 N811 0.985 . S
H816 N810 0.984 . S
H817 N810 0.984 . S
H818 N806 0.984 . S
H819 N806 0.985 . S
C820 C821 1.363 . S
C820 C826 1.379 . S
C820 N828 1.356 . S
C821 C820 1.363 . S
C821 C827 1.363 . S
C822 C823 1.363 . S
C822 C827 1.379 . S
C822 N829 1.356 . S
C823 C822 1.363 . S
C823 C826 1.363 . S
N824 C826 1.356 . S
N824 H836 0.984 . S
N824 H837 0.985 . S
N825 C827 1.356 . S
N825 H830 0.984 . S
N825 H831 0.985 . S
C826 C820 1.379 . S
C826 C823 1.363 . S
C826 N824 1.356 . S
C827 C821 1.363 . S
C827 C822 1.379 . S
C827 N825 1.356 . S
N828 C820 1.356 . S
N828 H834 0.984 . S
N828 H835 0.984 . S
N829 C822 1.356 . S
N829 H832 0.984 . S
N829 H833 0.985 . S
H830 N825 0.984 . S
H831 N825 0.985 . S
H832 N829 0.984 . S
H833 N829 0.985 . S
H834 N828 0.984 . S
H835 N828 0.984 . S
H836 N824 0.984 . S
H837 N824 0.985 . S
C838 C839 1.363 . S
C838 C844 1.379 . S
C838 N846 1.356 . S
C839 C838 1.363 . S
C839 C845 1.363 . S
C840 C841 1.363 . S
C840 C845 1.379 . S
C840 N847 1.356 . S
C841 C840 1.363 . S
C841 C844 1.363 . S
N842 C844 1.356 . S
N842 H854 0.984 . S
N842 H855 0.985 . S
N843 C845 1.356 . S
N843 H848 0.984 . S
N843 H849 0.985 . S
C844 C838 1.379 . S
C844 C841 1.363 . S
C844 N842 1.356 . S
C845 C839 1.363 . S
C845 C840 1.379 . S
C845 N843 1.356 . S
N846 C838 1.356 . S
N846 H852 0.984 . S
N846 H853 0.984 . S
N847 C840 1.356 . S
N847 H850 0.984 . S
N847 H851 0.985 . S
H848 N843 0.984 . S
H849 N843 0.985 . S
H850 N847 0.984 . S
H851 N847 0.985 . S
H852 N846 0.984 . S
H853 N846 0.984 . S
H854 N842 0.984 . S
H855 N842 0.985 . S
C856 C857 1.364 . S
C856 C862 1.379 1_655 S
C856 N864 1.356 . S
C857 C856 1.364 . S
C857 C863 1.360 1_655 S
C858 C859 1.363 . S
C858 C863 1.379 . S
C858 N865 1.356 . S
C859 C858 1.363 . S
C859 C862 1.363 . S
N860 C862 1.356 . S
N860 H872 0.984 . S
N860 H873 0.985 . S
N861 C863 1.356 . S
N861 H866 0.984 . S
N861 H867 0.985 . S
C862 C856 1.379 1_455 S
C862 C859 1.363 . S
C862 N860 1.356 . S
C863 C857 1.360 1_455 S
C863 C858 1.379 . S
C863 N861 1.356 . S
N864 C856 1.356 . S
N864 H870 0.984 . S
N864 H871 0.984 . S
N865 C858 1.356 . S
N865 H868 0.984 . S
N865 H869 0.985 . S
H866 N861 0.984 . S
H867 N861 0.985 . S
H868 N865 0.984 . S
H869 N865 0.985 . S
H870 N864 0.984 . S
H871 N864 0.984 . S
H872 N860 0.984 . S
H873 N860 0.985 . S
C874 C875 1.362 1_545 S
C874 C880 1.379 . S
C874 N882 1.356 . S
C875 C874 1.362 1_565 S
C875 C881 1.363 . S
C876 C877 1.363 . S
C876 C881 1.379 1_545 S
C876 N883 1.356 . S
C877 C876 1.363 . S
C877 C880 1.363 . S
N878 C880 1.356 . S
N878 H890 0.984 . S
N878 H891 0.985 . S
N879 C881 1.356 . S
N879 H884 0.984 . S
N879 H885 0.985 . S
C880 C874 1.379 . S
C880 C877 1.363 . S
C880 N878 1.356 . S
C881 C875 1.363 . S
C881 C876 1.379 1_565 S
C881 N879 1.356 . S
N882 C874 1.356 . S
N882 H888 0.984 . S
N882 H889 0.984 . S
N883 C876 1.356 . S
N883 H886 0.984 . S
N883 H887 0.985 1_545 S
H884 N879 0.984 . S
H885 N879 0.985 . S
H886 N883 0.984 . S
H887 N883 0.985 1_565 S
H888 N882 0.984 . S
H889 N882 0.984 . S
H890 N878 0.984 . S
H891 N878 0.985 . S
C892 C893 1.363 . S
C892 C898 1.379 . S
C892 N900 1.356 . S
C893 C892 1.363 . S
C893 C899 1.363 . S
C894 C895 1.363 . S
C894 C899 1.379 . S
C894 N901 1.356 . S
C895 C894 1.363 . S
C895 C898 1.363 . S
N896 C898 1.356 . S
N896 H908 0.984 . S
N896 H909 0.985 . S
N897 C899 1.356 . S
N897 H902 0.984 . S
N897 H903 0.985 . S
C898 C892 1.379 . S
C898 C895 1.363 . S
C898 N896 1.356 . S
C899 C893 1.363 . S
C899 C894 1.379 . S
C899 N897 1.356 . S
N900 C892 1.356 . S
N900 H906 0.984 . S
N900 H907 0.984 . S
N901 C894 1.356 . S
N901 H904 0.984 . S
N901 H905 0.985 . S
H902 N897 0.984 . S
H903 N897 0.985 . S
H904 N901 0.984 . S
H905 N901 0.985 . S
H906 N900 0.984 . S
H907 N900 0.984 . S
H908 N896 0.984 . S
H909 N896 0.985 . S
C910 C911 1.363 . S
C910 C916 1.379 . S
C910 N918 1.356 . S
C911 C910 1.363 . S
C911 C917 1.363 . S
C912 C913 1.363 . S
C912 C917 1.379 . S
C912 N919 1.356 1_554 S
C913 C912 1.363 . S
C913 C916 1.363 . S
N914 C916 1.356 . S
N914 H926 0.984 . S
N914 H927 0.985 . S
N915 C917 1.356 1_556 S
N915 H920 0.984 1_556 S
N915 H921 0.985 . S
C916 C910 1.379 . S
C916 C913 1.363 . S
C916 N914 1.356 . S
C917 C911 1.363 . S
C917 C912 1.379 . S
C917 N915 1.356 1_554 S
N918 C910 1.356 . S
N918 H924 0.984 . S
N918 H925 0.984 . S
N919 C912 1.356 1_556 S
N919 H922 0.984 . S
N919 H923 0.985 . S
H920 N915 0.984 1_554 S
H921 N915 0.985 . S
H922 N919 0.984 . S
H923 N919 0.985 . S
H924 N918 0.984 . S
H925 N918 0.984 . S
H926 N914 0.984 . S
H927 N914 0.985 . S
C928 C929 1.363 1_655 S
C928 C934 1.379 . S
C928 N936 1.356 . S
C929 C928 1.363 1_455 S
C929 C935 1.363 . S
C930 C931 1.363 . S
C930 C935 1.379 . S
C930 N937 1.356 . S
C931 C930 1.363 . S
C931 C934 1.363 1_455 S
N932 C934 1.356 . S
N932 H944 0.984 . S
N932 H945 0.985 . S
N933 C935 1.356 . S
N933 H938 0.984 . S
N933 H939 0.985 . S
C934 C928 1.379 . S
C934 C931 1.363 1_655 S
C934 N932 1.356 . S
C935 C929 1.363 . S
C935 C930 1.379 . S
C935 N933 1.356 . S
N936 C928 1.356 . S
N936 H942 0.984 . S
N936 H943 0.984 . S
N937 C930 1.356 . S
N937 H940 0.984 . S
N937 H941 0.985 . S
H938 N933 0.984 . S
H939 N933 0.985 . S
H940 N937 0.984 . S
H941 N937 0.985 . S
H942 N936 0.984 . S
H943 N936 0.984 . S
H944 N932 0.984 . S
H945 N932 0.985 . S
C946 C947 1.363 . S
C946 C952 1.379 . S
C946 N954 1.356 . S
C947 C946 1.363 . S
C947 C953 1.363 1_545 S
C948 C949 1.363 1_565 S
C948 C953 1.379 . S
C948 N955 1.356 . S
C949 C948 1.363 1_545 S
C949 C952 1.363 . S
N950 C952 1.356 . S
N950 H962 0.984 . S
N950 H963 0.985 . S
N951 C953 1.356 . S
N951 H956 0.984 . S
N951 H957 0.985 . S
C952 C946 1.379 . S
C952 C949 1.363 . S
C952 N950 1.356 . S
C953 C947 1.363 1_565 S
C953 C948 1.379 . S
C953 N951 1.356 . S
N954 C946 1.356 . S
N954 H960 0.984 . S
N954 H961 0.984 . S
N955 C948 1.356 . S
N955 H958 0.984 . S
N955 H959 0.985 . S
H956 N951 0.984 . S
H957 N951 0.985 . S
H958 N955 0.984 . S
H959 N955 0.985 . S
H960 N954 0.984 . S
H961 N954 0.984 . S
H962 N950 0.984 . S
H963 N950 0.985 . S
C964 C965 1.363 . S
C964 C970 1.379 . S
C964 N972 1.356 . S
C965 C964 1.363 . S
C965 C971 1.363 . S
C966 C967 1.363 . S
C966 C971 1.379 . S
C966 N973 1.356 . S
C967 C966 1.363 . S
C967 C970 1.363 . S
N968 C970 1.356 . S
N968 H980 0.984 . S
N968 H981 0.985 . S
N969 C971 1.356 . S
N969 H974 0.984 . S
N969 H975 0.985 . S
C970 C964 1.379 . S
C970 C967 1.363 . S
C970 N968 1.356 . S
C971 C965 1.363 . S
C971 C966 1.379 . S
C971 N969 1.356 . S
N972 C964 1.356 . S
N972 H978 0.984 . S
N972 H979 0.984 . S
N973 C966 1.356 . S
N973 H976 0.984 . S
N973 H977 0.985 . S
H974 N969 0.984 . S
H975 N969 0.985 . S
H976 N973 0.984 . S
H977 N973 0.985 . S
H978 N972 0.984 . S
H979 N972 0.984 . S
H980 N968 0.984 . S
H981 N968 0.985 . S
C982 C983 1.363 . S
C982 C988 1.379 . S
C982 N990 1.356 . S
C983 C982 1.363 . S
C983 C989 1.363 . S
C984 C985 1.363 . S
C984 C989 1.379 . S
C984 N991 1.356 . S
C985 C984 1.363 . S
C985 C988 1.363 . S
N986 C988 1.356 . S
N986 H998 0.984 . S
N986 H999 0.985 . S
N987 C989 1.356 . S
N987 H992 0.984 . S
N987 H993 0.985 . S
C988 C982 1.379 . S
C988 C985 1.363 . S
C988 N986 1.356 . S
C989 C983 1.363 . S
C989 C984 1.379 . S
C989 N987 1.356 . S
N990 C982 1.356 . S
N990 H996 0.984 . S
N990 H997 0.984 . S
N991 C984 1.356 . S
N991 H994 0.984 . S
N991 H995 0.985 . S
H992 N987 0.984 . S
H993 N987 0.985 . S
H994 N991 0.984 . S
H995 N991 0.985 . S
H996 N990 0.984 . S
H997 N990 0.984 . S
H998 N986 0.984 . S
H999 N986 0.985 . S
C1000 C1001 1.363 . S
C1000 C1006 1.379 . S
C1000 N1008 1.356 . S
C1001 C1000 1.363 . S
C1001 C1007 1.363 1_655 S
C1002 C1003 1.363 1_455 S
C1002 C1007 1.379 . S
C1002 N1009 1.356 . S
C1003 C1002 1.363 1_655 S
C1003 C1006 1.363 . S
N1004 C1006 1.356 . S
N1004 H1016 0.984 . S
N1004 H1017 0.985 . S
N1005 C1007 1.356 . S
N1005 H1010 0.984 . S
N1005 H1011 0.985 . S
C1006 C1000 1.379 . S
C1006 C1003 1.363 . S
C1006 N1004 1.356 . S
C1007 C1001 1.363 1_455 S
C1007 C1002 1.379 . S
C1007 N1005 1.356 . S
N1008 C1000 1.356 . S
N1008 H1014 0.984 . S
N1008 H1015 0.984 . S
N1009 C1002 1.356 . S
N1009 H1012 0.984 . S
N1009 H1013 0.985 . S
H1010 N1005 0.984 . S
H1011 N1005 0.985 . S
H1012 N1009 0.984 . S
H1013 N1009 0.985 . S
H1014 N1008 0.984 . S
H1015 N1008 0.984 . S
H1016 N1004 0.984 . S
H1017 N1004 0.985 . S
C1018 C1019 1.363 1_545 S
C1018 C1024 1.379 . S
C1018 N1026 1.356 . S
C1019 C1018 1.363 1_565 S
C1019 C1025 1.363 . S
C1020 C1021 1.363 . S
C1020 C1025 1.379 . S
C1020 N1027 1.356 . S
C1021 C1020 1.363 . S
C1021 C1024 1.363 1_565 S
N1022 C1024 1.356 . S
N1022 H1034 0.984 . S
N1022 H1035 0.985 . S
N1023 C1025 1.356 . S
N1023 H1028 0.984 . S
N1023 H1029 0.985 . S
C1024 C1018 1.379 . S
C1024 C1021 1.363 1_545 S
C1024 N1022 1.356 . S
C1025 C1019 1.363 . S
C1025 C1020 1.379 . S
C1025 N1023 1.356 . S
N1026 C1018 1.356 . S
N1026 H1032 0.984 . S
N1026 H1033 0.984 . S
N1027 C1020 1.356 . S
N1027 H1030 0.984 . S
N1027 H1031 0.985 . S
H1028 N1023 0.984 . S
H1029 N1023 0.985 . S
H1030 N1027 0.984 . S
H1031 N1027 0.985 . S
H1032 N1026 0.984 . S
H1033 N1026 0.984 . S
H1034 N1022 0.984 . S
H1035 N1022 0.985 . S
C1036 C1037 1.363 . S
C1036 C1042 1.379 . S
C1036 N1044 1.356 . S
C1037 C1036 1.363 . S
C1037 C1043 1.363 . S
C1038 C1039 1.363 . S
C1038 C1043 1.379 . S
C1038 N1045 1.356 . S
C1039 C1038 1.363 . S
C1039 C1042 1.363 . S
N1040 C1042 1.356 . S
N1040 H1052 0.984 . S
N1040 H1053 0.985 . S
N1041 C1043 1.356 . S
N1041 H1046 0.984 . S
N1041 H1047 0.985 . S
C1042 C1036 1.379 . S
C1042 C1039 1.363 . S
C1042 N1040 1.356 . S
C1043 C1037 1.363 . S
C1043 C1038 1.379 . S
C1043 N1041 1.356 . S
N1044 C1036 1.356 . S
N1044 H1050 0.984 . S
N1044 H1051 0.984 . S
N1045 C1038 1.356 . S
N1045 H1048 0.984 . S
N1045 H1049 0.985 . S
H1046 N1041 0.984 . S
H1047 N1041 0.985 . S
H1048 N1045 0.984 . S
H1049 N1045 0.985 . S
H1050 N1044 0.984 . S
H1051 N1044 0.984 . S
H1052 N1040 0.984 . S
H1053 N1040 0.985 . S
C1054 C1055 1.363 . S
C1054 C1060 1.379 . S
C1054 N1062 1.356 . S
C1055 C1054 1.363 . S
C1055 C1061 1.363 . S
C1056 C1057 1.363 . S
C1056 C1061 1.379 . S
C1056 N1063 1.356 . S
C1057 C1056 1.363 . S
C1057 C1060 1.363 . S
N1058 C1060 1.356 . S
N1058 H1070 0.984 . S
N1058 H1071 0.985 . S
N1059 C1061 1.356 . S
N1059 H1064 0.984 . S
N1059 H1065 0.985 . S
C1060 C1054 1.379 . S
C1060 C1057 1.363 . S
C1060 N1058 1.356 . S
C1061 C1055 1.363 . S
C1061 C1056 1.379 . S
C1061 N1059 1.356 . S
N1062 C1054 1.356 . S
N1062 H1068 0.984 . S
N1062 H1069 0.984 . S
N1063 C1056 1.356 . S
N1063 H1066 0.984 . S
N1063 H1067 0.985 . S
H1064 N1059 0.984 . S
H1065 N1059 0.985 . S
H1066 N1063 0.984 . S
H1067 N1063 0.985 . S
H1068 N1062 0.984 . S
H1069 N1062 0.984 . S
H1070 N1058 0.984 . S
H1071 N1058 0.985 . S
C641 C391 2.681 . S
C643 C482 2.854 1_545 S
C661 C522 2.874 . S
C659 C451 2.694 . S
C679 C562 2.880 . S
C677 C241 2.355 . S
C697 C602 2.860 1_455 S
C695 C331 2.320 1_455 S
C715 C495 2.856 . S
C713 C121 2.315 1_545 S
C731 C211 2.713 . S
C733 C535 2.875 . S
C749 C31 2.722 . S
C751 C575 2.880 . S
C767 C91 2.319 . S
C769 C615 2.860 1_655 S
C787 C506 0.747 . S
C785 C301 0.746 1_455 S
C805 C546 0.740 . S
C803 C380 0.739 . S
C823 C586 0.699 . S
C821 C440 0.686 . S
C839 C260 0.724 . S
C841 C626 0.699 . S
C857 C61 0.748 . S
C859 C489 0.750 . S
C877 C529 0.740 . S
C875 C140 0.742 . S
C895 C569 0.699 . S
C893 C200 0.704 . S
C911 C20 0.707 . S
C913 C609 0.707 . S
C929 C320 3.400 1_455 S
C931 C483 3.703 . S
C947 C361 2.913 . S
C949 C523 3.672 . S
C967 C563 3.663 . S
C965 C421 2.895 . S
C985 C603 3.699 . S
C983 C271 3.391 . S
C1001 C80 3.383 . S
C1003 C502 3.712 . S
C1021 C542 3.672 . S
C1019 C151 3.343 . S
C1039 C582 3.663 . S
C1037 C181 2.933 . S
C1055 C1 2.972 . S
C1057 C622 3.704 . S
